Coordinates from ORCA-job p-CH3O-Ph-N2-HSO4-B3LYPG-aug-cc-pVDZ-scan-d09-49-n400
 OpenBabel12261916563D

 23 21  0  0  0  0  0  0  0  0999 V2000
   -0.1150    0.0233    0.9781 C   0  0  0  0  0  0  0  0  0  0  0  0
    0.9298    0.6126    0.2347 C   0  0  0  0  0  0  0  0  0  0  0  0
    0.7388    1.7709   -0.2169 C   0  0  0  0  0  0  0  0  0  0  0  0
   -0.2701    2.7017   -0.2062 C   0  0  0  0  0  0  0  0  0  0  0  0
   -1.3322    2.1436    0.5289 C   0  0  0  0  0  0  0  0  0  0  0  0
   -1.2621    0.8446    1.1051 C   0  0  0  0  0  0  0  0  0  0  0  0
   -0.0568   -0.9707    1.4126 H   0  0  0  0  0  0  0  0  0  0  0  0
    2.5770   -0.3301   -0.1228 H   0  0  0  0  0  0  0  0  0  0  0  0
   -0.2935    3.6883   -0.6585 H   0  0  0  0  0  0  0  0  0  0  0  0
   -2.2485    2.7169    0.6691 H   0  0  0  0  0  0  0  0  0  0  0  0
    2.7140    4.0181   -2.1215 N   0  0  0  0  0  0  0  0  0  0  0  0
    3.6627    4.3654   -2.5662 N   0  0  0  0  0  0  0  0  0  0  0  0
   -2.3879    0.4703    1.7797 O   0  0  0  0  0  0  0  0  0  0  0  0
   -2.4130   -0.8187    2.3886 C   0  0  0  0  0  0  0  0  0  0  0  0
   -2.2985   -1.6147    1.6372 H   0  0  0  0  0  0  0  0  0  0  0  0
   -3.3950   -0.9021    2.8633 H   0  0  0  0  0  0  0  0  0  0  0  0
   -1.6259   -0.9122    3.1521 H   0  0  0  0  0  0  0  0  0  0  0  0
    4.5439   -0.2825   -1.0596 S   0  0  0  0  0  0  0  0  0  0  0  0
    3.9989    0.6379   -2.0643 O   0  0  0  0  0  0  0  0  0  0  0  0
    3.3395   -0.9682   -0.2089 O   0  0  0  0  0  0  0  0  0  0  0  0
    5.4784   -1.3723   -1.3701 O   0  0  0  0  0  0  0  0  0  0  0  0
    5.2488    0.6974    0.0722 O   0  0  0  0  0  0  0  0  0  0  0  0
    5.8514    0.1414    0.5945 H   0  0  0  0  0  0  0  0  0  0  0  0
  1  6  1  0  0  0  0
  1  7  1  0  0  0  0
  2  1  2  0  0  0  0
  3  4  2  0  0  0  0
  3  2  1  0  0  0  0
  4  5  1  0  0  0  0
  5 10  1  0  0  0  0
  5  6  2  0  0  0  0
  6 13  1  0  0  0  0
  9  4  1  0  0  0  0
 12 11  3  0  0  0  0
 13 14  1  0  0  0  0
 14 16  1  0  0  0  0
 14 17  1  0  0  0  0
 15 14  1  0  0  0  0
 18 20  1  0  0  0  0
 18 22  1  0  0  0  0
 19 18  2  0  0  0  0
 20  8  1  0  0  0  0
 21 18  2  0  0  0  0
 22 23  1  0  0  0  0
M  RAD  2   2   2   3   2
M  END
