Coordinates from ORCA-job p-CH3O-Ph-N2-HSO4-B3LYPG-aug-cc-pVDZ-scan-d09-49-n400
 OpenBabel12261916563D

 23 21  0  0  0  0  0  0  0  0999 V2000
   -0.0575    0.1353    0.9246 C   0  0  0  0  0  0  0  0  0  0  0  0
    0.9627    0.7786    0.1878 C   0  0  0  0  0  0  0  0  0  0  0  0
    0.7084    1.9349   -0.2438 C   0  0  0  0  0  0  0  0  0  0  0  0
   -0.3435    2.8154   -0.2161 C   0  0  0  0  0  0  0  0  0  0  0  0
   -1.3771    2.1987    0.5120 C   0  0  0  0  0  0  0  0  0  0  0  0
   -1.2427    0.8965    1.0678 C   0  0  0  0  0  0  0  0  0  0  0  0
    0.0488   -0.8613    1.3440 H   0  0  0  0  0  0  0  0  0  0  0  0
    2.5675   -0.2088   -0.0952 H   0  0  0  0  0  0  0  0  0  0  0  0
   -0.4130    3.8060   -0.6544 H   0  0  0  0  0  0  0  0  0  0  0  0
   -2.3188    2.7264    0.6620 H   0  0  0  0  0  0  0  0  0  0  0  0
    2.5405    3.7175   -1.8430 N   0  0  0  0  0  0  0  0  0  0  0  0
    3.5141    3.9820   -2.2907 N   0  0  0  0  0  0  0  0  0  0  0  0
   -2.3466    0.4576    1.7395 O   0  0  0  0  0  0  0  0  0  0  0  0
   -2.3072   -0.8407    2.3280 C   0  0  0  0  0  0  0  0  0  0  0  0
   -2.1566   -1.6181    1.5638 H   0  0  0  0  0  0  0  0  0  0  0  0
   -3.2825   -0.9789    2.8037 H   0  0  0  0  0  0  0  0  0  0  0  0
   -1.5140   -0.9078    3.0880 H   0  0  0  0  0  0  0  0  0  0  0  0
    4.5225   -0.3467   -1.0495 S   0  0  0  0  0  0  0  0  0  0  0  0
    4.0045    0.5015   -2.1291 O   0  0  0  0  0  0  0  0  0  0  0  0
    3.3014   -0.8877   -0.1242 O   0  0  0  0  0  0  0  0  0  0  0  0
    5.3998   -1.5045   -1.2677 O   0  0  0  0  0  0  0  0  0  0  0  0
    5.2935    0.6991   -0.0242 O   0  0  0  0  0  0  0  0  0  0  0  0
    5.8803    0.1656    0.5379 H   0  0  0  0  0  0  0  0  0  0  0  0
  1  6  1  0  0  0  0
  1  7  1  0  0  0  0
  2  1  2  0  0  0  0
  3  4  2  0  0  0  0
  3  2  1  0  0  0  0
  4  5  1  0  0  0  0
  5 10  1  0  0  0  0
  5  6  2  0  0  0  0
  6 13  1  0  0  0  0
  9  4  1  0  0  0  0
 12 11  3  0  0  0  0
 13 14  1  0  0  0  0
 14 16  1  0  0  0  0
 14 17  1  0  0  0  0
 15 14  1  0  0  0  0
 18 20  1  0  0  0  0
 18 22  1  0  0  0  0
 19 18  2  0  0  0  0
 20  8  1  0  0  0  0
 21 18  2  0  0  0  0
 22 23  1  0  0  0  0
M  RAD  2   2   2   3   2
M  END
