Coordinates from ORCA-job p-CH3O-Ph-N2-HSO4-B3LYPG-aug-cc-pVDZ-scan-d09-49-n400
 OpenBabel12261916563D

 23 21  0  0  0  0  0  0  0  0999 V2000
   -0.0746    0.1022    0.9415 C   0  0  0  0  0  0  0  0  0  0  0  0
    0.9519    0.7315    0.2026 C   0  0  0  0  0  0  0  0  0  0  0  0
    0.7161    1.8887   -0.2350 C   0  0  0  0  0  0  0  0  0  0  0  0
   -0.3247    2.7829   -0.2116 C   0  0  0  0  0  0  0  0  0  0  0  0
   -1.3662    2.1819    0.5184 C   0  0  0  0  0  0  0  0  0  0  0  0
   -1.2495    0.8803    1.0800 C   0  0  0  0  0  0  0  0  0  0  0  0
    0.0185   -0.8939    1.3650 H   0  0  0  0  0  0  0  0  0  0  0  0
    2.5673   -0.2468   -0.1033 H   0  0  0  0  0  0  0  0  0  0  0  0
   -0.3818    3.7727   -0.6538 H   0  0  0  0  0  0  0  0  0  0  0  0
   -2.3013    2.7221    0.6658 H   0  0  0  0  0  0  0  0  0  0  0  0
    2.6100    3.8079   -1.9317 N   0  0  0  0  0  0  0  0  0  0  0  0
    3.5765    4.0954   -2.3807 N   0  0  0  0  0  0  0  0  0  0  0  0
   -2.3598    0.4591    1.7526 O   0  0  0  0  0  0  0  0  0  0  0  0
   -2.3383   -0.8368    2.3470 C   0  0  0  0  0  0  0  0  0  0  0  0
   -2.1974   -1.6197    1.5865 H   0  0  0  0  0  0  0  0  0  0  0  0
   -3.3157   -0.9599    2.8224 H   0  0  0  0  0  0  0  0  0  0  0  0
   -1.5466   -0.9110    3.1080 H   0  0  0  0  0  0  0  0  0  0  0  0
    4.5264   -0.3266   -1.0533 S   0  0  0  0  0  0  0  0  0  0  0  0
    3.9996    0.5428   -2.1114 O   0  0  0  0  0  0  0  0  0  0  0  0
    3.3097   -0.9143   -0.1501 O   0  0  0  0  0  0  0  0  0  0  0  0
    5.4238   -1.4633   -1.2990 O   0  0  0  0  0  0  0  0  0  0  0  0
    5.2741    0.7024    0.0055 O   0  0  0  0  0  0  0  0  0  0  0  0
    5.8668    0.1631    0.5558 H   0  0  0  0  0  0  0  0  0  0  0  0
  1  6  1  0  0  0  0
  1  7  1  0  0  0  0
  2  1  2  0  0  0  0
  3  4  2  0  0  0  0
  3  2  1  0  0  0  0
  4  5  1  0  0  0  0
  5 10  1  0  0  0  0
  5  6  2  0  0  0  0
  6 13  1  0  0  0  0
  9  4  1  0  0  0  0
 12 11  3  0  0  0  0
 13 14  1  0  0  0  0
 14 16  1  0  0  0  0
 14 17  1  0  0  0  0
 15 14  1  0  0  0  0
 18 20  1  0  0  0  0
 18 22  1  0  0  0  0
 19 18  2  0  0  0  0
 20  8  1  0  0  0  0
 21 18  2  0  0  0  0
 22 23  1  0  0  0  0
M  RAD  2   2   2   3   2
M  END
