Coordinates from ORCA-job p-CH3O-Ph-N2-HSO4-B3LYPG-aug-cc-pVDZ-scan-d09-49-n400
 OpenBabel12261916563D

 23 22  0  0  0  0  0  0  0  0999 V2000
   -0.2346    0.0071   -0.3525 C   0  0  0  0  0  0  0  0  0  0  0  0
    0.2487    0.4277   -1.5518 C   0  0  0  0  0  0  0  0  0  0  0  0
    0.7745    1.7812   -1.7431 C   0  0  0  0  0  0  0  0  0  0  0  0
    0.7565    2.6510   -0.5620 C   0  0  0  0  0  0  0  0  0  0  0  0
    0.2617    2.2206    0.6255 C   0  0  0  0  0  0  0  0  0  0  0  0
   -0.2146    0.8831    0.7723 C   0  0  0  0  0  0  0  0  0  0  0  0
   -0.5838   -1.0154   -0.2493 H   0  0  0  0  0  0  0  0  0  0  0  0
    0.2791   -0.2353   -2.4153 H   0  0  0  0  0  0  0  0  0  0  0  0
    1.1780    3.6485   -0.6788 H   0  0  0  0  0  0  0  0  0  0  0  0
    0.2766    2.8603    1.5050 H   0  0  0  0  0  0  0  0  0  0  0  0
    1.1677    2.0958   -2.6534 N   0  0  0  0  0  0  0  0  0  0  0  0
    1.6026    2.4445   -3.6608 N   0  0  0  0  0  0  0  0  0  0  0  0
   -0.7035    0.5858    1.9549 O   0  0  0  0  0  0  0  0  0  0  0  0
   -0.9950   -0.7913    2.2885 C   0  0  0  0  0  0  0  0  0  0  0  0
   -1.8427   -1.1545    1.6928 H   0  0  0  0  0  0  0  0  0  0  0  0
   -1.2647   -0.7711    3.3465 H   0  0  0  0  0  0  0  0  0  0  0  0
   -0.0919   -1.3903    2.1294 H   0  0  0  0  0  0  0  0  0  0  0  0
    3.2418    0.0952    0.8134 S   0  0  0  0  0  0  0  0  0  0  0  0
    3.0208    0.5425   -0.6040 O   0  0  0  0  0  0  0  0  0  0  0  0
    1.9562   -0.3439    1.4790 O   0  0  0  0  0  0  0  0  0  0  0  0
    4.4136   -0.7921    1.0519 O   0  0  0  0  0  0  0  0  0  0  0  0
    3.6265    1.5346    1.6358 O   0  0  0  0  0  0  0  0  0  0  0  0
    4.5114    1.3767    1.9971 H   0  0  0  0  0  0  0  0  0  0  0  0
  1  7  1  0  0  0  0
  1  6  2  0  0  0  0
  2  1  1  0  0  0  0
  3  2  2  0  0  0  0
  3  4  1  0  0  0  0
  4  5  2  0  0  0  0
  5  6  1  0  0  0  0
  5 10  1  0  0  0  0
  6 13  1  0  0  0  0
  8  2  1  0  0  0  0
  9  4  1  0  0  0  0
 11  3  1  0  0  0  0
 12 11  1  0  0  0  0
 13 14  1  0  0  0  0
 14 16  1  0  0  0  0
 15 14  1  0  0  0  0
 17 14  1  0  0  0  0
 18 21  2  0  0  0  0
 18 20  1  0  0  0  0
 18 22  1  0  0  0  0
 19 18  2  0  0  0  0
 22 23  1  0  0  0  0
M  RAD  3  11   2  12   3  20   2
M  END
