Coordinates from ORCA-job p-CH3O-Ph-N2-HSO4-B3LYPG-aug-cc-pVDZ-scan-d09-49-n400
 OpenBabel12261916563D

 23 21  0  0  0  0  0  0  0  0999 V2000
    0.0115    0.1863    1.0320 C   0  0  0  0  0  0  0  0  0  0  0  0
    1.1871    0.6769    0.4254 C   0  0  0  0  0  0  0  0  0  0  0  0
    0.9661    1.8681   -0.1678 C   0  0  0  0  0  0  0  0  0  0  0  0
   -0.1237    2.6832   -0.3258 C   0  0  0  0  0  0  0  0  0  0  0  0
   -1.2597    2.1460    0.2867 C   0  0  0  0  0  0  0  0  0  0  0  0
   -1.1957    0.9065    0.9614 C   0  0  0  0  0  0  0  0  0  0  0  0
    0.0796   -0.7706    1.5429 H   0  0  0  0  0  0  0  0  0  0  0  0
    2.1555    0.1291    0.4435 H   0  0  0  0  0  0  0  0  0  0  0  0
   -0.1291    3.6294   -0.8577 H   0  0  0  0  0  0  0  0  0  0  0  0
   -2.2049    2.6842    0.2431 H   0  0  0  0  0  0  0  0  0  0  0  0
    2.5192    2.6495   -0.9885 N   0  0  0  0  0  0  0  0  0  0  0  0
    3.2513    3.3852   -1.3645 N   0  0  0  0  0  0  0  0  0  0  0  0
   -2.3607    0.4936    1.5102 O   0  0  0  0  0  0  0  0  0  0  0  0
   -2.3878   -0.7612    2.2007 C   0  0  0  0  0  0  0  0  0  0  0  0
   -2.1257   -1.5864    1.5233 H   0  0  0  0  0  0  0  0  0  0  0  0
   -3.4178   -0.8806    2.5466 H   0  0  0  0  0  0  0  0  0  0  0  0
   -1.7061   -0.7485    3.0632 H   0  0  0  0  0  0  0  0  0  0  0  0
    4.3180   -0.2563   -0.9537 S   0  0  0  0  0  0  0  0  0  0  0  0
    3.2641    0.3985   -1.8128 O   0  0  0  0  0  0  0  0  0  0  0  0
    3.7577   -0.6644    0.3909 O   0  0  0  0  0  0  0  0  0  0  0  0
    5.1961   -1.2567   -1.6143 O   0  0  0  0  0  0  0  0  0  0  0  0
    5.3463    1.0542   -0.5972 O   0  0  0  0  0  0  0  0  0  0  0  0
    6.2434    0.6950   -0.6665 H   0  0  0  0  0  0  0  0  0  0  0  0
  1  7  1  0  0  0  0
  2  8  1  0  0  0  0
  2  1  2  0  0  0  0
  3  2  1  0  0  0  0
  4  3  2  0  0  0  0
  4  5  1  0  0  0  0
  5  6  2  0  0  0  0
  6  1  1  0  0  0  0
  6 13  1  0  0  0  0
  9  4  1  0  0  0  0
 10  5  1  0  0  0  0
 12 11  3  0  0  0  0
 13 14  1  0  0  0  0
 14 16  1  0  0  0  0
 14 17  1  0  0  0  0
 15 14  1  0  0  0  0
 18 22  1  0  0  0  0
 18 20  1  0  0  0  0
 19 18  2  0  0  0  0
 21 18  2  0  0  0  0
 23 22  1  0  0  0  0
M  RAD  2   3   2  20   2
M  END
