Coordinates from ORCA-job p-CH3O-Ph-N2-HSO4-B3LYPG-aug-cc-pVDZ-scan-d09-49-n400
 OpenBabel12261916563D

 23 21  0  0  0  0  0  0  0  0999 V2000
    0.0398    0.2153    1.0256 C   0  0  0  0  0  0  0  0  0  0  0  0
    1.2001    0.7749    0.4089 C   0  0  0  0  0  0  0  0  0  0  0  0
    0.8536    1.9169   -0.1331 C   0  0  0  0  0  0  0  0  0  0  0  0
   -0.2119    2.7337   -0.3167 C   0  0  0  0  0  0  0  0  0  0  0  0
   -1.3206    2.1307    0.3065 C   0  0  0  0  0  0  0  0  0  0  0  0
   -1.1964    0.8872    0.9701 C   0  0  0  0  0  0  0  0  0  0  0  0
    0.1586   -0.7476    1.5167 H   0  0  0  0  0  0  0  0  0  0  0  0
    2.2341    0.2079    0.3969 H   0  0  0  0  0  0  0  0  0  0  0  0
   -0.2479    3.6833   -0.8394 H   0  0  0  0  0  0  0  0  0  0  0  0
   -2.2872    2.6320    0.2763 H   0  0  0  0  0  0  0  0  0  0  0  0
    2.6594    3.0948   -1.1260 N   0  0  0  0  0  0  0  0  0  0  0  0
    3.4786    3.6790   -1.5774 N   0  0  0  0  0  0  0  0  0  0  0  0
   -2.3414    0.4205    1.5254 O   0  0  0  0  0  0  0  0  0  0  0  0
   -2.3052   -0.8403    2.2020 C   0  0  0  0  0  0  0  0  0  0  0  0
   -2.0148   -1.6468    1.5132 H   0  0  0  0  0  0  0  0  0  0  0  0
   -3.3246   -1.0096    2.5588 H   0  0  0  0  0  0  0  0  0  0  0  0
   -1.6142   -0.8071    3.0570 H   0  0  0  0  0  0  0  0  0  0  0  0
    4.2288   -0.3070   -0.9733 S   0  0  0  0  0  0  0  0  0  0  0  0
    3.3297    0.3745   -1.9467 O   0  0  0  0  0  0  0  0  0  0  0  0
    3.5071   -0.5584    0.3670 O   0  0  0  0  0  0  0  0  0  0  0  0
    5.0245   -1.4791   -1.4127 O   0  0  0  0  0  0  0  0  0  0  0  0
    5.3588    0.8899   -0.5990 O   0  0  0  0  0  0  0  0  0  0  0  0
    6.1757    0.4161   -0.3789 H   0  0  0  0  0  0  0  0  0  0  0  0
  1  7  1  0  0  0  0
  2  1  2  0  0  0  0
  3  2  1  0  0  0  0
  4  3  2  0  0  0  0
  4  5  1  0  0  0  0
  5  6  2  0  0  0  0
  6  1  1  0  0  0  0
  6 13  1  0  0  0  0
  8  2  1  0  0  0  0
  9  4  1  0  0  0  0
 10  5  1  0  0  0  0
 12 11  3  0  0  0  0
 13 14  1  0  0  0  0
 14 16  1  0  0  0  0
 14 17  1  0  0  0  0
 15 14  1  0  0  0  0
 18 22  1  0  0  0  0
 18 20  1  0  0  0  0
 19 18  2  0  0  0  0
 21 18  2  0  0  0  0
 22 23  1  0  0  0  0
M  RAD  2   3   2  20   2
M  END
