Coordinates from ORCA-job p-CH3O-Ph-N2-HSO4-B3LYPG-aug-cc-pVDZ-scan-d09-49-n400
 OpenBabel12261916563D

 23 21  0  0  0  0  0  0  0  0999 V2000
   -0.1453   -0.0573    1.0121 C   0  0  0  0  0  0  0  0  0  0  0  0
    0.9203    0.4797    0.2606 C   0  0  0  0  0  0  0  0  0  0  0  0
    0.7791    1.6343   -0.2169 C   0  0  0  0  0  0  0  0  0  0  0  0
   -0.1961    2.6018   -0.2268 C   0  0  0  0  0  0  0  0  0  0  0  0
   -1.2799    2.0986    0.5156 C   0  0  0  0  0  0  0  0  0  0  0  0
   -1.2606    0.8097    1.1182 C   0  0  0  0  0  0  0  0  0  0  0  0
   -0.1255   -1.0436    1.4669 H   0  0  0  0  0  0  0  0  0  0  0  0
    2.5885   -0.4399   -0.1352 H   0  0  0  0  0  0  0  0  0  0  0  0
   -0.1816    3.5795   -0.6986 H   0  0  0  0  0  0  0  0  0  0  0  0
   -2.1744    2.7085    0.6415 H   0  0  0  0  0  0  0  0  0  0  0  0
    2.7294    4.2958   -2.2914 N   0  0  0  0  0  0  0  0  0  0  0  0
    3.6626    4.7163   -2.7049 N   0  0  0  0  0  0  0  0  0  0  0  0
   -2.4018    0.4922    1.7964 O   0  0  0  0  0  0  0  0  0  0  0  0
   -2.4775   -0.7819    2.4316 C   0  0  0  0  0  0  0  0  0  0  0  0
   -2.3912   -1.5971    1.6973 H   0  0  0  0  0  0  0  0  0  0  0  0
   -3.4632   -0.8180    2.9045 H   0  0  0  0  0  0  0  0  0  0  0  0
   -1.6965   -0.8893    3.1997 H   0  0  0  0  0  0  0  0  0  0  0  0
    4.5530   -0.2538   -1.0516 S   0  0  0  0  0  0  0  0  0  0  0  0
    3.9769    0.7283   -1.9776 O   0  0  0  0  0  0  0  0  0  0  0  0
    3.3711   -1.0444   -0.2620 O   0  0  0  0  0  0  0  0  0  0  0  0
    5.5214   -1.2838   -1.4495 O   0  0  0  0  0  0  0  0  0  0  0  0
    5.2278    0.6514    0.1577 O   0  0  0  0  0  0  0  0  0  0  0  0
    5.8484    0.0737    0.6334 H   0  0  0  0  0  0  0  0  0  0  0  0
  1  6  1  0  0  0  0
  1  7  1  0  0  0  0
  2  1  2  0  0  0  0
  3  2  1  0  0  0  0
  4  3  2  0  0  0  0
  4  5  1  0  0  0  0
  5 10  1  0  0  0  0
  5  6  2  0  0  0  0
  6 13  1  0  0  0  0
  9  4  1  0  0  0  0
 12 11  3  0  0  0  0
 13 14  1  0  0  0  0
 14 16  1  0  0  0  0
 14 17  1  0  0  0  0
 15 14  1  0  0  0  0
 18 20  1  0  0  0  0
 18 22  1  0  0  0  0
 19 18  2  0  0  0  0
 20  8  1  0  0  0  0
 21 18  2  0  0  0  0
 22 23  1  0  0  0  0
M  RAD  2   2   2   3   2
M  END
