Coordinates from ORCA-job p-CH3O-Ph-N2-HSO4-B3LYPG-aug-cc-pVDZ-scan-d09-49-n400
 OpenBabel12261916563D

 23 22  0  0  0  0  0  0  0  0999 V2000
   -0.2445   -0.5792    0.7774 C   0  0  0  0  0  0  0  0  0  0  0  0
    0.8860   -0.6167   -0.0472 C   0  0  0  0  0  0  0  0  0  0  0  0
    1.4711    0.5748   -0.4576 C   0  0  0  0  0  0  0  0  0  0  0  0
    0.9521    1.8138   -0.0709 C   0  0  0  0  0  0  0  0  0  0  0  0
   -0.1737    1.8519    0.7454 C   0  0  0  0  0  0  0  0  0  0  0  0
   -0.7764    0.6566    1.1758 C   0  0  0  0  0  0  0  0  0  0  0  0
   -0.6960   -1.5159    1.0934 H   0  0  0  0  0  0  0  0  0  0  0  0
    1.3090   -1.5674   -0.3649 H   0  0  0  0  0  0  0  0  0  0  0  0
    1.4248    2.7292   -0.4220 H   0  0  0  0  0  0  0  0  0  0  0  0
   -0.6078    2.8005    1.0582 H   0  0  0  0  0  0  0  0  0  0  0  0
    2.8565    4.1499   -2.6542 N   0  0  0  0  0  0  0  0  0  0  0  0
    3.4531    4.3859   -3.5526 N   0  0  0  0  0  0  0  0  0  0  0  0
   -1.8735    0.8035    1.9727 O   0  0  0  0  0  0  0  0  0  0  0  0
   -2.5374   -0.3704    2.4333 C   0  0  0  0  0  0  0  0  0  0  0  0
   -2.9212   -0.9665    1.5914 H   0  0  0  0  0  0  0  0  0  0  0  0
   -3.3749   -0.0173    3.0421 H   0  0  0  0  0  0  0  0  0  0  0  0
   -1.8693   -0.9892    3.0516 H   0  0  0  0  0  0  0  0  0  0  0  0
    4.0783    0.3062   -0.7416 S   0  0  0  0  0  0  0  0  0  0  0  0
    2.5587    0.5632   -1.3592 O   0  0  0  0  0  0  0  0  0  0  0  0
    4.0672   -0.8435    0.1810 O   0  0  0  0  0  0  0  0  0  0  0  0
    4.9639    0.4122   -1.8975 O   0  0  0  0  0  0  0  0  0  0  0  0
    4.2986    1.6658    0.1706 O   0  0  0  0  0  0  0  0  0  0  0  0
    4.1403    1.4133    1.0959 H   0  0  0  0  0  0  0  0  0  0  0  0
  1  7  1  0  0  0  0
  1  6  1  0  0  0  0
  2  1  2  0  0  0  0
  3  4  2  0  0  0  0
  3  2  1  0  0  0  0
  4  5  1  0  0  0  0
  5 10  1  0  0  0  0
  5  6  2  0  0  0  0
  6 13  1  0  0  0  0
  8  2  1  0  0  0  0
  9  4  1  0  0  0  0
 12 11  3  0  0  0  0
 13 14  1  0  0  0  0
 14 16  1  0  0  0  0
 14 17  1  0  0  0  0
 15 14  1  0  0  0  0
 18 22  1  0  0  0  0
 18 20  2  0  0  0  0
 19 18  1  0  0  0  0
 19  3  1  0  0  0  0
 21 18  2  0  0  0  0
 22 23  1  0  0  0  0
M  END
