Coordinates from ORCA-job p-CH3O-Ph-N2-HSO4-B3LYPG-aug-cc-pVDZ-scan-d09-49-n400
 OpenBabel12261916563D

 23 22  0  0  0  0  0  0  0  0999 V2000
   -0.2372    0.0100   -0.3492 C   0  0  0  0  0  0  0  0  0  0  0  0
    0.2513    0.4311   -1.5483 C   0  0  0  0  0  0  0  0  0  0  0  0
    0.7669    1.7817   -1.7289 C   0  0  0  0  0  0  0  0  0  0  0  0
    0.7387    2.6594   -0.5635 C   0  0  0  0  0  0  0  0  0  0  0  0
    0.2410    2.2286    0.6247 C   0  0  0  0  0  0  0  0  0  0  0  0
   -0.2264    0.8887    0.7722 C   0  0  0  0  0  0  0  0  0  0  0  0
   -0.5806   -1.0143   -0.2448 H   0  0  0  0  0  0  0  0  0  0  0  0
    0.2904   -0.2360   -2.4081 H   0  0  0  0  0  0  0  0  0  0  0  0
    1.1516    3.6605   -0.6792 H   0  0  0  0  0  0  0  0  0  0  0  0
    0.2455    2.8713    1.5020 H   0  0  0  0  0  0  0  0  0  0  0  0
    1.1866    2.1050   -2.6706 N   0  0  0  0  0  0  0  0  0  0  0  0
    1.6329    2.4481   -3.6693 N   0  0  0  0  0  0  0  0  0  0  0  0
   -0.7104    0.5885    1.9572 O   0  0  0  0  0  0  0  0  0  0  0  0
   -0.9909   -0.7904    2.2917 C   0  0  0  0  0  0  0  0  0  0  0  0
   -1.8373   -1.1601    1.6981 H   0  0  0  0  0  0  0  0  0  0  0  0
   -1.2586   -0.7719    3.3503 H   0  0  0  0  0  0  0  0  0  0  0  0
   -0.0838   -1.3830    2.1309 H   0  0  0  0  0  0  0  0  0  0  0  0
    3.2458    0.0836    0.8115 S   0  0  0  0  0  0  0  0  0  0  0  0
    3.0195    0.5265   -0.6068 O   0  0  0  0  0  0  0  0  0  0  0  0
    1.9635   -0.3510    1.4846 O   0  0  0  0  0  0  0  0  0  0  0  0
    4.4184   -0.8041    1.0473 O   0  0  0  0  0  0  0  0  0  0  0  0
    3.6389    1.5266    1.6249 O   0  0  0  0  0  0  0  0  0  0  0  0
    4.5192    1.3619    1.9943 H   0  0  0  0  0  0  0  0  0  0  0  0
  1  7  1  0  0  0  0
  1  6  2  0  0  0  0
  2  1  1  0  0  0  0
  3  2  2  0  0  0  0
  3  4  1  0  0  0  0
  4  5  2  0  0  0  0
  5  6  1  0  0  0  0
  5 10  1  0  0  0  0
  6 13  1  0  0  0  0
  8  2  1  0  0  0  0
  9  4  1  0  0  0  0
 11  3  1  0  0  0  0
 12 11  1  0  0  0  0
 13 14  1  0  0  0  0
 14 16  1  0  0  0  0
 15 14  1  0  0  0  0
 17 14  1  0  0  0  0
 18 21  2  0  0  0  0
 18 20  1  0  0  0  0
 18 22  1  0  0  0  0
 19 18  2  0  0  0  0
 22 23  1  0  0  0  0
M  RAD  3  11   2  12   3  20   2
M  END
