Coordinates from ORCA-job p-CH3O-Ph-N2-HSO4-B3LYPG-aug-cc-pVDZ-scan-d09-49-n400
 OpenBabel12261916563D

 23 21  0  0  0  0  0  0  0  0999 V2000
   -0.1514   -0.0771    1.0183 C   0  0  0  0  0  0  0  0  0  0  0  0
    0.9190    0.4442    0.2625 C   0  0  0  0  0  0  0  0  0  0  0  0
    0.7901    1.5976   -0.2228 C   0  0  0  0  0  0  0  0  0  0  0  0
   -0.1768    2.5734   -0.2375 C   0  0  0  0  0  0  0  0  0  0  0  0
   -1.2649    2.0860    0.5088 C   0  0  0  0  0  0  0  0  0  0  0  0
   -1.2579    0.8012    1.1197 C   0  0  0  0  0  0  0  0  0  0  0  0
   -0.1412   -1.0606    1.4795 H   0  0  0  0  0  0  0  0  0  0  0  0
    2.5896   -0.4714   -0.1422 H   0  0  0  0  0  0  0  0  0  0  0  0
   -0.1531    3.5479   -0.7157 H   0  0  0  0  0  0  0  0  0  0  0  0
   -2.1533    2.7054    0.6313 H   0  0  0  0  0  0  0  0  0  0  0  0
    2.7233    4.3755   -2.3317 N   0  0  0  0  0  0  0  0  0  0  0  0
    3.6535    4.8165   -2.7308 N   0  0  0  0  0  0  0  0  0  0  0  0
   -2.4018    0.4995    1.8007 O   0  0  0  0  0  0  0  0  0  0  0  0
   -2.4894   -0.7695    2.4445 C   0  0  0  0  0  0  0  0  0  0  0  0
   -2.4117   -1.5904    1.7155 H   0  0  0  0  0  0  0  0  0  0  0  0
   -3.4751   -0.7929    2.9183 H   0  0  0  0  0  0  0  0  0  0  0  0
   -1.7090   -0.8795    3.2127 H   0  0  0  0  0  0  0  0  0  0  0  0
    4.5539   -0.2486   -1.0469 S   0  0  0  0  0  0  0  0  0  0  0  0
    3.9713    0.7508   -1.9498 O   0  0  0  0  0  0  0  0  0  0  0  0
    3.3768   -1.0673   -0.2799 O   0  0  0  0  0  0  0  0  0  0  0  0
    5.5317   -1.2605   -1.4677 O   0  0  0  0  0  0  0  0  0  0  0  0
    5.2187    0.6324    0.1856 O   0  0  0  0  0  0  0  0  0  0  0  0
    5.8427    0.0482    0.6488 H   0  0  0  0  0  0  0  0  0  0  0  0
  1  6  1  0  0  0  0
  1  7  1  0  0  0  0
  2  1  2  0  0  0  0
  3  2  1  0  0  0  0
  4  3  2  0  0  0  0
  4  5  1  0  0  0  0
  5 10  1  0  0  0  0
  5  6  2  0  0  0  0
  6 13  1  0  0  0  0
  9  4  1  0  0  0  0
 12 11  3  0  0  0  0
 13 14  1  0  0  0  0
 14 16  1  0  0  0  0
 14 17  1  0  0  0  0
 15 14  1  0  0  0  0
 18 20  1  0  0  0  0
 18 22  1  0  0  0  0
 19 18  2  0  0  0  0
 20  8  1  0  0  0  0
 21 18  2  0  0  0  0
 22 23  1  0  0  0  0
M  RAD  2   2   2   3   2
M  END
