Coordinates from ORCA-job p-CH3O-Ph-N2-HSO4-B3LYPG-aug-cc-pVDZ-scan-d09-49-n400
 OpenBabel12261916563D

 23 21  0  0  0  0  0  0  0  0999 V2000
   -0.1377   -0.0341    1.0023 C   0  0  0  0  0  0  0  0  0  0  0  0
    0.9216    0.5192    0.2534 C   0  0  0  0  0  0  0  0  0  0  0  0
    0.7662    1.6755   -0.2158 C   0  0  0  0  0  0  0  0  0  0  0  0
   -0.2195    2.6321   -0.2182 C   0  0  0  0  0  0  0  0  0  0  0  0
   -1.2969    2.1121    0.5220 C   0  0  0  0  0  0  0  0  0  0  0  0
   -1.2626    0.8195    1.1156 C   0  0  0  0  0  0  0  0  0  0  0  0
   -0.1065   -1.0232    1.4504 H   0  0  0  0  0  0  0  0  0  0  0  0
    2.5850   -0.4051   -0.1320 H   0  0  0  0  0  0  0  0  0  0  0  0
   -0.2164    3.6131   -0.6835 H   0  0  0  0  0  0  0  0  0  0  0  0
   -2.1979    2.7112    0.6529 H   0  0  0  0  0  0  0  0  0  0  0  0
    2.7350    4.2103   -2.2450 N   0  0  0  0  0  0  0  0  0  0  0  0
    3.6723    4.6088   -2.6708 N   0  0  0  0  0  0  0  0  0  0  0  0
   -2.3993    0.4846    1.7930 O   0  0  0  0  0  0  0  0  0  0  0  0
   -2.4599   -0.7947    2.4193 C   0  0  0  0  0  0  0  0  0  0  0  0
   -2.3654   -1.6037    1.6791 H   0  0  0  0  0  0  0  0  0  0  0  0
   -3.4447   -0.8452    2.8930 H   0  0  0  0  0  0  0  0  0  0  0  0
   -1.6769   -0.8988    3.1858 H   0  0  0  0  0  0  0  0  0  0  0  0
    4.5509   -0.2606   -1.0551 S   0  0  0  0  0  0  0  0  0  0  0  0
    3.9846    0.7029   -2.0062 O   0  0  0  0  0  0  0  0  0  0  0  0
    3.3616   -1.0201   -0.2465 O   0  0  0  0  0  0  0  0  0  0  0  0
    5.5097   -1.3095   -1.4260 O   0  0  0  0  0  0  0  0  0  0  0  0
    5.2335    0.6688    0.1314 O   0  0  0  0  0  0  0  0  0  0  0  0
    5.8483    0.0976    0.6221 H   0  0  0  0  0  0  0  0  0  0  0  0
  1  6  1  0  0  0  0
  1  7  1  0  0  0  0
  2  1  2  0  0  0  0
  3  2  1  0  0  0  0
  4  3  2  0  0  0  0
  4  5  1  0  0  0  0
  5 10  1  0  0  0  0
  5  6  2  0  0  0  0
  6 13  1  0  0  0  0
  9  4  1  0  0  0  0
 12 11  3  0  0  0  0
 13 14  1  0  0  0  0
 14 16  1  0  0  0  0
 14 17  1  0  0  0  0
 15 14  1  0  0  0  0
 18 20  1  0  0  0  0
 18 22  1  0  0  0  0
 19 18  2  0  0  0  0
 20  8  1  0  0  0  0
 21 18  2  0  0  0  0
 22 23  1  0  0  0  0
M  RAD  2   2   2   3   2
M  END
