Coordinates from ORCA-job p-CH3O-Ph-N2-HSO4-B3LYPG-aug-cc-pVDZ-scan-d09-49-n400
 OpenBabel12261916563D

 23 22  0  0  0  0  0  0  0  0999 V2000
   -0.2551    0.0198   -0.3332 C   0  0  0  0  0  0  0  0  0  0  0  0
    0.2561    0.4402   -1.5312 C   0  0  0  0  0  0  0  0  0  0  0  0
    0.7281    1.7828   -1.6701 C   0  0  0  0  0  0  0  0  0  0  0  0
    0.6669    2.6896   -0.5630 C   0  0  0  0  0  0  0  0  0  0  0  0
    0.1509    2.2579    0.6248 C   0  0  0  0  0  0  0  0  0  0  0  0
   -0.2835    0.9098    0.7745 C   0  0  0  0  0  0  0  0  0  0  0  0
   -0.5752   -1.0110   -0.2231 H   0  0  0  0  0  0  0  0  0  0  0  0
    0.3359   -0.2383   -2.3779 H   0  0  0  0  0  0  0  0  0  0  0  0
    1.0588    3.6984   -0.6784 H   0  0  0  0  0  0  0  0  0  0  0  0
    0.1186    2.9094    1.4948 H   0  0  0  0  0  0  0  0  0  0  0  0
    1.2763    2.1438   -2.7467 N   0  0  0  0  0  0  0  0  0  0  0  0
    1.7731    2.4653   -3.7097 N   0  0  0  0  0  0  0  0  0  0  0  0
   -0.7533    0.5982    1.9674 O   0  0  0  0  0  0  0  0  0  0  0  0
   -0.9795   -0.7888    2.3054 C   0  0  0  0  0  0  0  0  0  0  0  0
   -1.8163   -1.1916    1.7191 H   0  0  0  0  0  0  0  0  0  0  0  0
   -1.2405   -0.7792    3.3660 H   0  0  0  0  0  0  0  0  0  0  0  0
   -0.0522   -1.3481    2.1391 H   0  0  0  0  0  0  0  0  0  0  0  0
    3.2651    0.0444    0.8005 S   0  0  0  0  0  0  0  0  0  0  0  0
    3.0120    0.4706   -0.6195 O   0  0  0  0  0  0  0  0  0  0  0  0
    1.9977   -0.3642    1.5118 O   0  0  0  0  0  0  0  0  0  0  0  0
    4.4360   -0.8521    1.0200 O   0  0  0  0  0  0  0  0  0  0  0  0
    3.7029    1.4991    1.5738 O   0  0  0  0  0  0  0  0  0  0  0  0
    4.5621    1.3046    1.9767 H   0  0  0  0  0  0  0  0  0  0  0  0
  1  7  1  0  0  0  0
  1  6  2  0  0  0  0
  2  1  1  0  0  0  0
  3  2  2  0  0  0  0
  3  4  1  0  0  0  0
  4  5  2  0  0  0  0
  5  6  1  0  0  0  0
  5 10  1  0  0  0  0
  6 13  1  0  0  0  0
  8  2  1  0  0  0  0
  9  4  1  0  0  0  0
 11  3  1  0  0  0  0
 12 11  1  0  0  0  0
 13 14  1  0  0  0  0
 14 16  1  0  0  0  0
 15 14  1  0  0  0  0
 17 14  1  0  0  0  0
 18 21  2  0  0  0  0
 18 20  1  0  0  0  0
 18 22  1  0  0  0  0
 19 18  2  0  0  0  0
 22 23  1  0  0  0  0
M  RAD  3  11   2  12   3  20   2
M  END
