Coordinates from ORCA-job p-CH3O-Ph-N2-HSO4-B3LYPG-aug-cc-pVDZ-scan-d09-49-n400
 OpenBabel12261916563D

 23 22  0  0  0  0  0  0  0  0999 V2000
   -0.2459    0.0171   -0.3404 C   0  0  0  0  0  0  0  0  0  0  0  0
    0.2587    0.4375   -1.5379 C   0  0  0  0  0  0  0  0  0  0  0  0
    0.7476    1.7837   -1.6941 C   0  0  0  0  0  0  0  0  0  0  0  0
    0.6934    2.6802   -0.5645 C   0  0  0  0  0  0  0  0  0  0  0  0
    0.1830    2.2494    0.6228 C   0  0  0  0  0  0  0  0  0  0  0  0
   -0.2624    0.9037    0.7718 C   0  0  0  0  0  0  0  0  0  0  0  0
   -0.5738   -1.0115   -0.2322 H   0  0  0  0  0  0  0  0  0  0  0  0
    0.3249   -0.2383   -2.3884 H   0  0  0  0  0  0  0  0  0  0  0  0
    1.0914    3.6870   -0.6790 H   0  0  0  0  0  0  0  0  0  0  0  0
    0.1616    2.8984    1.4952 H   0  0  0  0  0  0  0  0  0  0  0  0
    1.2368    2.1243   -2.7016 N   0  0  0  0  0  0  0  0  0  0  0  0
    1.7158    2.4539   -3.6785 N   0  0  0  0  0  0  0  0  0  0  0  0
   -0.7379    0.5960    1.9611 O   0  0  0  0  0  0  0  0  0  0  0  0
   -0.9822   -0.7888    2.2981 C   0  0  0  0  0  0  0  0  0  0  0  0
   -1.8220   -1.1807    1.7090 H   0  0  0  0  0  0  0  0  0  0  0  0
   -1.2458   -0.7762    3.3579 H   0  0  0  0  0  0  0  0  0  0  0  0
   -0.0610   -1.3585    2.1339 H   0  0  0  0  0  0  0  0  0  0  0  0
    3.2552    0.0573    0.8042 S   0  0  0  0  0  0  0  0  0  0  0  0
    3.0112    0.4861   -0.6163 O   0  0  0  0  0  0  0  0  0  0  0  0
    1.9825   -0.3567    1.5044 O   0  0  0  0  0  0  0  0  0  0  0  0
    4.4256   -0.8373    1.0306 O   0  0  0  0  0  0  0  0  0  0  0  0
    3.6804    1.5094    1.5876 O   0  0  0  0  0  0  0  0  0  0  0  0
    4.5478    1.3247    1.9774 H   0  0  0  0  0  0  0  0  0  0  0  0
  1  7  1  0  0  0  0
  1  6  2  0  0  0  0
  2  1  1  0  0  0  0
  3  2  2  0  0  0  0
  3  4  1  0  0  0  0
  4  5  2  0  0  0  0
  5  6  1  0  0  0  0
  5 10  1  0  0  0  0
  6 13  1  0  0  0  0
  8  2  1  0  0  0  0
  9  4  1  0  0  0  0
 11  3  1  0  0  0  0
 12 11  1  0  0  0  0
 13 14  1  0  0  0  0
 14 16  1  0  0  0  0
 15 14  1  0  0  0  0
 17 14  1  0  0  0  0
 18 21  2  0  0  0  0
 18 20  1  0  0  0  0
 18 22  1  0  0  0  0
 19 18  2  0  0  0  0
 22 23  1  0  0  0  0
M  RAD  3  11   2  12   3  20   2
M  END
