Coordinates from ORCA-job p-CH3O-Ph-N2-HSO4-B3LYPG-aug-cc-pVDZ-scan-d09-49-n400
 OpenBabel12261916563D

 23 21  0  0  0  0  0  0  0  0999 V2000
   -0.0263    0.1834    0.8946 C   0  0  0  0  0  0  0  0  0  0  0  0
    0.9891    0.8404    0.1583 C   0  0  0  0  0  0  0  0  0  0  0  0
    0.6992    1.9951   -0.2602 C   0  0  0  0  0  0  0  0  0  0  0  0
   -0.3617    2.8601   -0.2267 C   0  0  0  0  0  0  0  0  0  0  0  0
   -1.3840    2.2236    0.5011 C   0  0  0  0  0  0  0  0  0  0  0  0
   -1.2247    0.9211    1.0482 C   0  0  0  0  0  0  0  0  0  0  0  0
    0.0978   -0.8138    1.3081 H   0  0  0  0  0  0  0  0  0  0  0  0
    2.5523   -0.1649   -0.0887 H   0  0  0  0  0  0  0  0  0  0  0  0
   -0.4478    3.8517   -0.6596 H   0  0  0  0  0  0  0  0  0  0  0  0
   -2.3336    2.7352    0.6567 H   0  0  0  0  0  0  0  0  0  0  0  0
    2.4303    3.5700   -1.7131 N   0  0  0  0  0  0  0  0  0  0  0  0
    3.4024    3.8321   -2.1656 N   0  0  0  0  0  0  0  0  0  0  0  0
   -2.3177    0.4584    1.7215 O   0  0  0  0  0  0  0  0  0  0  0  0
   -2.2528   -0.8431    2.3009 C   0  0  0  0  0  0  0  0  0  0  0  0
   -2.0913   -1.6125    1.5309 H   0  0  0  0  0  0  0  0  0  0  0  0
   -3.2235   -1.0019    2.7795 H   0  0  0  0  0  0  0  0  0  0  0  0
   -1.4555   -0.9012    3.0573 H   0  0  0  0  0  0  0  0  0  0  0  0
    4.5083   -0.3704   -1.0403 S   0  0  0  0  0  0  0  0  0  0  0  0
    4.0118    0.4572   -2.1463 O   0  0  0  0  0  0  0  0  0  0  0  0
    3.2772   -0.8590   -0.1023 O   0  0  0  0  0  0  0  0  0  0  0  0
    5.3628   -1.5513   -1.2243 O   0  0  0  0  0  0  0  0  0  0  0  0
    5.3002    0.6898   -0.0451 O   0  0  0  0  0  0  0  0  0  0  0  0
    5.8722    0.1608    0.5361 H   0  0  0  0  0  0  0  0  0  0  0  0
  1  6  1  0  0  0  0
  1  7  1  0  0  0  0
  2  1  2  0  0  0  0
  3  4  2  0  0  0  0
  3  2  1  0  0  0  0
  4  5  1  0  0  0  0
  5 10  1  0  0  0  0
  5  6  2  0  0  0  0
  6 13  1  0  0  0  0
  9  4  1  0  0  0  0
 12 11  3  0  0  0  0
 13 14  1  0  0  0  0
 14 16  1  0  0  0  0
 14 17  1  0  0  0  0
 15 14  1  0  0  0  0
 18 20  1  0  0  0  0
 18 22  1  0  0  0  0
 19 18  2  0  0  0  0
 20  8  1  0  0  0  0
 21 18  2  0  0  0  0
 22 23  1  0  0  0  0
M  RAD  2   2   2   3   2
M  END
