Coordinates from ORCA-job p-CH3O-Ph-N2-HSO4-B3LYPG-aug-cc-pVDZ-scan-d09-49-n400
 OpenBabel12261916563D

 23 21  0  0  0  0  0  0  0  0999 V2000
    0.0391    0.2109    1.0239 C   0  0  0  0  0  0  0  0  0  0  0  0
    1.1976    0.7720    0.4028 C   0  0  0  0  0  0  0  0  0  0  0  0
    0.8472    1.9121   -0.1343 C   0  0  0  0  0  0  0  0  0  0  0  0
   -0.2149    2.7327   -0.3159 C   0  0  0  0  0  0  0  0  0  0  0  0
   -1.3219    2.1288    0.3106 C   0  0  0  0  0  0  0  0  0  0  0  0
   -1.1965    0.8844    0.9727 C   0  0  0  0  0  0  0  0  0  0  0  0
    0.1588   -0.7526    1.5138 H   0  0  0  0  0  0  0  0  0  0  0  0
    2.2379    0.1981    0.3859 H   0  0  0  0  0  0  0  0  0  0  0  0
   -0.2513    3.6832   -0.8372 H   0  0  0  0  0  0  0  0  0  0  0  0
   -2.2883    2.6308    0.2845 H   0  0  0  0  0  0  0  0  0  0  0  0
    2.6773    3.1337   -1.1509 N   0  0  0  0  0  0  0  0  0  0  0  0
    3.4970    3.7115   -1.6095 N   0  0  0  0  0  0  0  0  0  0  0  0
   -2.3405    0.4182    1.5313 O   0  0  0  0  0  0  0  0  0  0  0  0
   -2.3031   -0.8431    2.2067 C   0  0  0  0  0  0  0  0  0  0  0  0
   -2.0157   -1.6493    1.5163 H   0  0  0  0  0  0  0  0  0  0  0  0
   -3.3215   -1.0119    2.5667 H   0  0  0  0  0  0  0  0  0  0  0  0
   -1.6094   -0.8113    3.0594 H   0  0  0  0  0  0  0  0  0  0  0  0
    4.2258   -0.3073   -0.9756 S   0  0  0  0  0  0  0  0  0  0  0  0
    3.3409    0.3817   -1.9551 O   0  0  0  0  0  0  0  0  0  0  0  0
    3.4856   -0.5648    0.3563 O   0  0  0  0  0  0  0  0  0  0  0  0
    5.0210   -1.4823   -1.4070 O   0  0  0  0  0  0  0  0  0  0  0  0
    5.3543    0.8816   -0.5788 O   0  0  0  0  0  0  0  0  0  0  0  0
    6.1652    0.4037   -0.3455 H   0  0  0  0  0  0  0  0  0  0  0  0
  1  7  1  0  0  0  0
  2  1  2  0  0  0  0
  3  2  1  0  0  0  0
  4  3  2  0  0  0  0
  4  5  1  0  0  0  0
  5  6  2  0  0  0  0
  6  1  1  0  0  0  0
  6 13  1  0  0  0  0
  8  2  1  0  0  0  0
  9  4  1  0  0  0  0
 10  5  1  0  0  0  0
 12 11  3  0  0  0  0
 13 14  1  0  0  0  0
 14 16  1  0  0  0  0
 14 17  1  0  0  0  0
 15 14  1  0  0  0  0
 18 22  1  0  0  0  0
 18 20  1  0  0  0  0
 19 18  2  0  0  0  0
 21 18  2  0  0  0  0
 22 23  1  0  0  0  0
M  RAD  2   3   2  20   2
M  END
