Coordinates from ORCA-job p-CH3O-Ph-N2-HSO4-B3LYPG-aug-cc-pVDZ-scan-d09-49-n400
 OpenBabel12261916563D

 23 22  0  0  0  0  0  0  0  0999 V2000
   -0.2478   -0.6068    0.8117 C   0  0  0  0  0  0  0  0  0  0  0  0
    0.8824   -0.6619   -0.0123 C   0  0  0  0  0  0  0  0  0  0  0  0
    1.4587    0.5200   -0.4615 C   0  0  0  0  0  0  0  0  0  0  0  0
    0.9304    1.7667   -0.1134 C   0  0  0  0  0  0  0  0  0  0  0  0
   -0.1949    1.8224    0.7025 C   0  0  0  0  0  0  0  0  0  0  0  0
   -0.7886    0.6371    1.1713 C   0  0  0  0  0  0  0  0  0  0  0  0
   -0.6921   -1.5364    1.1576 H   0  0  0  0  0  0  0  0  0  0  0  0
    1.3120   -1.6192   -0.3001 H   0  0  0  0  0  0  0  0  0  0  0  0
    1.3953    2.6751   -0.4927 H   0  0  0  0  0  0  0  0  0  0  0  0
   -0.6355    2.7773    0.9853 H   0  0  0  0  0  0  0  0  0  0  0  0
    2.9438    4.4005   -2.6998 N   0  0  0  0  0  0  0  0  0  0  0  0
    3.5798    4.6770   -3.5589 N   0  0  0  0  0  0  0  0  0  0  0  0
   -1.8860    0.8013    1.9642 O   0  0  0  0  0  0  0  0  0  0  0  0
   -2.5408   -0.3623    2.4627 C   0  0  0  0  0  0  0  0  0  0  0  0
   -2.9208   -0.9878    1.6406 H   0  0  0  0  0  0  0  0  0  0  0  0
   -3.3804    0.0038    3.0608 H   0  0  0  0  0  0  0  0  0  0  0  0
   -1.8676   -0.9561    3.0996 H   0  0  0  0  0  0  0  0  0  0  0  0
    4.0678    0.2613   -0.7395 S   0  0  0  0  0  0  0  0  0  0  0  0
    2.5452    0.4866   -1.3627 O   0  0  0  0  0  0  0  0  0  0  0  0
    4.0657   -0.8555    0.2228 O   0  0  0  0  0  0  0  0  0  0  0  0
    4.9507    0.3326   -1.9001 O   0  0  0  0  0  0  0  0  0  0  0  0
    4.2800    1.6534    0.1244 O   0  0  0  0  0  0  0  0  0  0  0  0
    4.1275    1.4316    1.0585 H   0  0  0  0  0  0  0  0  0  0  0  0
  1  7  1  0  0  0  0
  1  6  1  0  0  0  0
  2  1  2  0  0  0  0
  3  4  2  0  0  0  0
  3  2  1  0  0  0  0
  4  5  1  0  0  0  0
  5 10  1  0  0  0  0
  5  6  2  0  0  0  0
  6 13  1  0  0  0  0
  8  2  1  0  0  0  0
  9  4  1  0  0  0  0
 12 11  3  0  0  0  0
 13 14  1  0  0  0  0
 14 16  1  0  0  0  0
 14 17  1  0  0  0  0
 15 14  1  0  0  0  0
 18 22  1  0  0  0  0
 18 20  2  0  0  0  0
 19 18  1  0  0  0  0
 19  3  1  0  0  0  0
 21 18  2  0  0  0  0
 22 23  1  0  0  0  0
M  END
