Coordinates from ORCA-job p-CH3O-Ph-N2-HSO4-B3LYPG-aug-cc-pVDZ-scan-d09-49-n400
 OpenBabel12261916563D

 23 21  0  0  0  0  0  0  0  0999 V2000
   -0.1193    0.0137    0.9823 C   0  0  0  0  0  0  0  0  0  0  0  0
    0.9278    0.5976    0.2383 C   0  0  0  0  0  0  0  0  0  0  0  0
    0.7427    1.7558   -0.2158 C   0  0  0  0  0  0  0  0  0  0  0  0
   -0.2624    2.6910   -0.2070 C   0  0  0  0  0  0  0  0  0  0  0  0
   -1.3271    2.1387    0.5288 C   0  0  0  0  0  0  0  0  0  0  0  0
   -1.2629    0.8404    1.1073 C   0  0  0  0  0  0  0  0  0  0  0  0
   -0.0656   -0.9796    1.4187 H   0  0  0  0  0  0  0  0  0  0  0  0
    2.5788   -0.3407   -0.1245 H   0  0  0  0  0  0  0  0  0  0  0  0
   -0.2814    3.6768   -0.6611 H   0  0  0  0  0  0  0  0  0  0  0  0
   -2.2409    2.7162    0.6676 H   0  0  0  0  0  0  0  0  0  0  0  0
    2.7204    4.0461   -2.1413 N   0  0  0  0  0  0  0  0  0  0  0  0
    3.6671    4.4011   -2.5843 N   0  0  0  0  0  0  0  0  0  0  0  0
   -2.3906    0.4723    1.7822 O   0  0  0  0  0  0  0  0  0  0  0  0
   -2.4217   -0.8154    2.3935 C   0  0  0  0  0  0  0  0  0  0  0  0
   -2.3103   -1.6132    1.6436 H   0  0  0  0  0  0  0  0  0  0  0  0
   -3.4042   -0.8935    2.8679 H   0  0  0  0  0  0  0  0  0  0  0  0
   -1.6352   -0.9110    3.1575 H   0  0  0  0  0  0  0  0  0  0  0  0
    4.5459   -0.2783   -1.0598 S   0  0  0  0  0  0  0  0  0  0  0  0
    3.9978    0.6482   -2.0572 O   0  0  0  0  0  0  0  0  0  0  0  0
    3.3436   -0.9752   -0.2150 O   0  0  0  0  0  0  0  0  0  0  0  0
    5.4843   -1.3622   -1.3788 O   0  0  0  0  0  0  0  0  0  0  0  0
    5.2469    0.6950    0.0800 O   0  0  0  0  0  0  0  0  0  0  0  0
    5.8512    0.1370    0.5981 H   0  0  0  0  0  0  0  0  0  0  0  0
  1  6  1  0  0  0  0
  1  7  1  0  0  0  0
  2  1  2  0  0  0  0
  3  4  2  0  0  0  0
  3  2  1  0  0  0  0
  4  5  1  0  0  0  0
  5 10  1  0  0  0  0
  5  6  2  0  0  0  0
  6 13  1  0  0  0  0
  9  4  1  0  0  0  0
 12 11  3  0  0  0  0
 13 14  1  0  0  0  0
 14 16  1  0  0  0  0
 14 17  1  0  0  0  0
 15 14  1  0  0  0  0
 18 20  1  0  0  0  0
 18 22  1  0  0  0  0
 19 18  2  0  0  0  0
 20  8  1  0  0  0  0
 21 18  2  0  0  0  0
 22 23  1  0  0  0  0
M  RAD  2   2   2   3   2
M  END
