Coordinates from ORCA-job p-CH3O-Ph-N2-HSO4-B3LYPG-aug-cc-pVDZ-scan-d09-49-n400
 OpenBabel12261916563D

 23 21  0  0  0  0  0  0  0  0999 V2000
    0.0128    0.1882    1.0316 C   0  0  0  0  0  0  0  0  0  0  0  0
    1.1883    0.6811    0.4251 C   0  0  0  0  0  0  0  0  0  0  0  0
    0.9621    1.8709   -0.1662 C   0  0  0  0  0  0  0  0  0  0  0  0
   -0.1269    2.6857   -0.3255 C   0  0  0  0  0  0  0  0  0  0  0  0
   -1.2620    2.1459    0.2872 C   0  0  0  0  0  0  0  0  0  0  0  0
   -1.1957    0.9062    0.9615 C   0  0  0  0  0  0  0  0  0  0  0  0
    0.0830   -0.7690    1.5417 H   0  0  0  0  0  0  0  0  0  0  0  0
    2.1583    0.1335    0.4424 H   0  0  0  0  0  0  0  0  0  0  0  0
   -0.1334    3.6320   -0.8571 H   0  0  0  0  0  0  0  0  0  0  0  0
   -2.2081    2.6827    0.2438 H   0  0  0  0  0  0  0  0  0  0  0  0
    2.5214    2.6612   -0.9903 N   0  0  0  0  0  0  0  0  0  0  0  0
    3.2588    3.3902   -1.3682 N   0  0  0  0  0  0  0  0  0  0  0  0
   -2.3599    0.4910    1.5102 O   0  0  0  0  0  0  0  0  0  0  0  0
   -2.3845   -0.7642    2.2001 C   0  0  0  0  0  0  0  0  0  0  0  0
   -2.1210   -1.5886    1.5222 H   0  0  0  0  0  0  0  0  0  0  0  0
   -3.4142   -0.8857    2.5462 H   0  0  0  0  0  0  0  0  0  0  0  0
   -1.7026   -0.7507    3.0624 H   0  0  0  0  0  0  0  0  0  0  0  0
    4.3142   -0.2576   -0.9544 S   0  0  0  0  0  0  0  0  0  0  0  0
    3.2647    0.3968   -1.8178 O   0  0  0  0  0  0  0  0  0  0  0  0
    3.7498   -0.6572    0.3921 O   0  0  0  0  0  0  0  0  0  0  0  0
    5.1898   -1.2661   -1.6060 O   0  0  0  0  0  0  0  0  0  0  0  0
    5.3472    1.0501   -0.6021 O   0  0  0  0  0  0  0  0  0  0  0  0
    6.2427    0.6844   -0.6577 H   0  0  0  0  0  0  0  0  0  0  0  0
  1  7  1  0  0  0  0
  2  8  1  0  0  0  0
  2  1  2  0  0  0  0
  3  2  1  0  0  0  0
  4  3  2  0  0  0  0
  4  5  1  0  0  0  0
  5  6  2  0  0  0  0
  6  1  1  0  0  0  0
  6 13  1  0  0  0  0
  9  4  1  0  0  0  0
 10  5  1  0  0  0  0
 12 11  3  0  0  0  0
 13 14  1  0  0  0  0
 14 16  1  0  0  0  0
 14 17  1  0  0  0  0
 15 14  1  0  0  0  0
 18 22  1  0  0  0  0
 18 20  1  0  0  0  0
 19 18  2  0  0  0  0
 21 18  2  0  0  0  0
 23 22  1  0  0  0  0
M  RAD  2   3   2  20   2
M  END
