Coordinates from ORCA-job p-CH3O-Ph-N2-HSO4-B3LYPG-aug-cc-pVDZ-scan-d09-49-n400
 OpenBabel12261916563D

 23 21  0  0  0  0  0  0  0  0999 V2000
   -0.1496   -0.0712    1.0169 C   0  0  0  0  0  0  0  0  0  0  0  0
    0.9192    0.4556    0.2630 C   0  0  0  0  0  0  0  0  0  0  0  0
    0.7860    1.6092   -0.2191 C   0  0  0  0  0  0  0  0  0  0  0  0
   -0.1827    2.5833   -0.2332 C   0  0  0  0  0  0  0  0  0  0  0  0
   -1.2696    2.0903    0.5116 C   0  0  0  0  0  0  0  0  0  0  0  0
   -1.2589    0.8038    1.1196 C   0  0  0  0  0  0  0  0  0  0  0  0
   -0.1364   -1.0557    1.4758 H   0  0  0  0  0  0  0  0  0  0  0  0
    2.5893   -0.4601   -0.1393 H   0  0  0  0  0  0  0  0  0  0  0  0
   -0.1615    3.5590   -0.7091 H   0  0  0  0  0  0  0  0  0  0  0  0
   -2.1600    2.7066    0.6351 H   0  0  0  0  0  0  0  0  0  0  0  0
    2.7263    4.3466   -2.3179 N   0  0  0  0  0  0  0  0  0  0  0  0
    3.6574    4.7801   -2.7227 N   0  0  0  0  0  0  0  0  0  0  0  0
   -2.4023    0.4970    1.7991 O   0  0  0  0  0  0  0  0  0  0  0  0
   -2.4865   -0.7738    2.4398 C   0  0  0  0  0  0  0  0  0  0  0  0
   -2.4059   -1.5927    1.7089 H   0  0  0  0  0  0  0  0  0  0  0  0
   -3.4724   -0.8013    2.9129 H   0  0  0  0  0  0  0  0  0  0  0  0
   -1.7062   -0.8833    3.2083 H   0  0  0  0  0  0  0  0  0  0  0  0
    4.5539   -0.2495   -1.0494 S   0  0  0  0  0  0  0  0  0  0  0  0
    3.9738    0.7437   -1.9610 O   0  0  0  0  0  0  0  0  0  0  0  0
    3.3753   -1.0585   -0.2736 O   0  0  0  0  0  0  0  0  0  0  0  0
    5.5283   -1.2680   -1.4618 O   0  0  0  0  0  0  0  0  0  0  0  0
    5.2222    0.6406    0.1747 O   0  0  0  0  0  0  0  0  0  0  0  0
    5.8451    0.0590    0.6424 H   0  0  0  0  0  0  0  0  0  0  0  0
  1  6  1  0  0  0  0
  1  7  1  0  0  0  0
  2  1  2  0  0  0  0
  3  2  1  0  0  0  0
  4  3  2  0  0  0  0
  4  5  1  0  0  0  0
  5 10  1  0  0  0  0
  5  6  2  0  0  0  0
  6 13  1  0  0  0  0
  9  4  1  0  0  0  0
 12 11  3  0  0  0  0
 13 14  1  0  0  0  0
 14 16  1  0  0  0  0
 14 17  1  0  0  0  0
 15 14  1  0  0  0  0
 18 20  1  0  0  0  0
 18 22  1  0  0  0  0
 19 18  2  0  0  0  0
 20  8  1  0  0  0  0
 21 18  2  0  0  0  0
 22 23  1  0  0  0  0
M  RAD  2   2   2   3   2
M  END
