Coordinates from ORCA-job p-CH3O-Ph-N2-HSO4-B3LYPG-aug-cc-pVDZ-scan-d09-49-n400
 OpenBabel12261916563D

 23 22  0  0  0  0  0  0  0  0999 V2000
   -0.2774    0.0266   -0.3191 C   0  0  0  0  0  0  0  0  0  0  0  0
    0.2523    0.4433   -1.5166 C   0  0  0  0  0  0  0  0  0  0  0  0
    0.6957    1.7808   -1.6253 C   0  0  0  0  0  0  0  0  0  0  0  0
    0.6182    2.7078   -0.5577 C   0  0  0  0  0  0  0  0  0  0  0  0
    0.0827    2.2756    0.6278 C   0  0  0  0  0  0  0  0  0  0  0  0
   -0.3311    0.9236    0.7786 C   0  0  0  0  0  0  0  0  0  0  0  0
   -0.5841   -1.0077   -0.2049 H   0  0  0  0  0  0  0  0  0  0  0  0
    0.3633   -0.2411   -2.3540 H   0  0  0  0  0  0  0  0  0  0  0  0
    1.0040    3.7182   -0.6739 H   0  0  0  0  0  0  0  0  0  0  0  0
    0.0267    2.9327    1.4923 H   0  0  0  0  0  0  0  0  0  0  0  0
    1.3632    2.1604   -2.7854 N   0  0  0  0  0  0  0  0  0  0  0  0
    1.9089    2.4625   -3.7174 N   0  0  0  0  0  0  0  0  0  0  0  0
   -0.7908    0.6046    1.9782 O   0  0  0  0  0  0  0  0  0  0  0  0
   -0.9757   -0.7866    2.3194 C   0  0  0  0  0  0  0  0  0  0  0  0
   -1.8060   -1.2144    1.7411 H   0  0  0  0  0  0  0  0  0  0  0  0
   -1.2289   -0.7835    3.3822 H   0  0  0  0  0  0  0  0  0  0  0  0
   -0.0352   -1.3222    2.1470 H   0  0  0  0  0  0  0  0  0  0  0  0
    3.2831    0.0250    0.7741 S   0  0  0  0  0  0  0  0  0  0  0  0
    3.0095    0.4499   -0.6433 O   0  0  0  0  0  0  0  0  0  0  0  0
    2.0293   -0.3813    1.5073 O   0  0  0  0  0  0  0  0  0  0  0  0
    4.4586   -0.8712    0.9759 O   0  0  0  0  0  0  0  0  0  0  0  0
    3.7400    1.4850    1.5295 O   0  0  0  0  0  0  0  0  0  0  0  0
    4.5786    1.2729    1.9653 H   0  0  0  0  0  0  0  0  0  0  0  0
  1  7  1  0  0  0  0
  1  6  2  0  0  0  0
  2  1  1  0  0  0  0
  3  2  2  0  0  0  0
  3  4  1  0  0  0  0
  4  5  2  0  0  0  0
  5  6  1  0  0  0  0
  5 10  1  0  0  0  0
  6 13  1  0  0  0  0
  8  2  1  0  0  0  0
  9  4  1  0  0  0  0
 11  3  1  0  0  0  0
 12 11  1  0  0  0  0
 13 14  1  0  0  0  0
 14 16  1  0  0  0  0
 15 14  1  0  0  0  0
 17 14  1  0  0  0  0
 18 21  2  0  0  0  0
 18 20  1  0  0  0  0
 18 22  1  0  0  0  0
 19 18  2  0  0  0  0
 22 23  1  0  0  0  0
M  RAD  3  11   2  12   3  20   2
M  END
