Coordinates from ORCA-job p-CH3O-Ph-N2-HSO4-B3LYPG-aug-cc-pVDZ-scan-d09-49-n400
 OpenBabel12261916563D

 23 21  0  0  0  0  0  0  0  0999 V2000
    0.0152    0.1911    1.0326 C   0  0  0  0  0  0  0  0  0  0  0  0
    1.1908    0.6877    0.4281 C   0  0  0  0  0  0  0  0  0  0  0  0
    0.9594    1.8757   -0.1622 C   0  0  0  0  0  0  0  0  0  0  0  0
   -0.1297    2.6889   -0.3245 C   0  0  0  0  0  0  0  0  0  0  0  0
   -1.2642    2.1455    0.2868 C   0  0  0  0  0  0  0  0  0  0  0  0
   -1.1952    0.9058    0.9610 C   0  0  0  0  0  0  0  0  0  0  0  0
    0.0875   -0.7663    1.5419 H   0  0  0  0  0  0  0  0  0  0  0  0
    2.1631    0.1414    0.4459 H   0  0  0  0  0  0  0  0  0  0  0  0
   -0.1377    3.6351   -0.8562 H   0  0  0  0  0  0  0  0  0  0  0  0
   -2.2117    2.6797    0.2421 H   0  0  0  0  0  0  0  0  0  0  0  0
    2.5252    2.6758   -0.9880 N   0  0  0  0  0  0  0  0  0  0  0  0
    3.2689    3.3972   -1.3678 N   0  0  0  0  0  0  0  0  0  0  0  0
   -2.3590    0.4871    1.5079 O   0  0  0  0  0  0  0  0  0  0  0  0
   -2.3809   -0.7684    2.1973 C   0  0  0  0  0  0  0  0  0  0  0  0
   -2.1142   -1.5917    1.5194 H   0  0  0  0  0  0  0  0  0  0  0  0
   -3.4108   -0.8930    2.5420 H   0  0  0  0  0  0  0  0  0  0  0  0
   -1.7003   -0.7533    3.0605 H   0  0  0  0  0  0  0  0  0  0  0  0
    4.3083   -0.2611   -0.9545 S   0  0  0  0  0  0  0  0  0  0  0  0
    3.2603    0.3873   -1.8226 O   0  0  0  0  0  0  0  0  0  0  0  0
    3.7440   -0.6448    0.3978 O   0  0  0  0  0  0  0  0  0  0  0  0
    5.1804   -1.2806   -1.5935 O   0  0  0  0  0  0  0  0  0  0  0  0
    5.3457    1.0468   -0.6167 O   0  0  0  0  0  0  0  0  0  0  0  0
    6.2396    0.6749   -0.6562 H   0  0  0  0  0  0  0  0  0  0  0  0
  1  7  1  0  0  0  0
  2  8  1  0  0  0  0
  2  1  2  0  0  0  0
  3  2  1  0  0  0  0
  4  3  2  0  0  0  0
  4  5  1  0  0  0  0
  5  6  2  0  0  0  0
  6  1  1  0  0  0  0
  6 13  1  0  0  0  0
  9  4  1  0  0  0  0
 10  5  1  0  0  0  0
 12 11  3  0  0  0  0
 13 14  1  0  0  0  0
 14 16  1  0  0  0  0
 14 17  1  0  0  0  0
 15 14  1  0  0  0  0
 18 22  1  0  0  0  0
 18 20  1  0  0  0  0
 19 18  2  0  0  0  0
 21 18  2  0  0  0  0
 23 22  1  0  0  0  0
M  RAD  2   3   2  20   2
M  END
