Coordinates from ORCA-job p-CH3O-Ph-N2-HSO4-B3LYPG-aug-cc-pVDZ-scan-d09-49-n400
 OpenBabel12261916563D

 23 21  0  0  0  0  0  0  0  0999 V2000
   -0.0534    0.1436    0.9201 C   0  0  0  0  0  0  0  0  0  0  0  0
    0.9665    0.7892    0.1838 C   0  0  0  0  0  0  0  0  0  0  0  0
    0.7066    1.9455   -0.2458 C   0  0  0  0  0  0  0  0  0  0  0  0
   -0.3470    2.8233   -0.2172 C   0  0  0  0  0  0  0  0  0  0  0  0
   -1.3790    2.2035    0.5104 C   0  0  0  0  0  0  0  0  0  0  0  0
   -1.2407    0.9011    1.0647 C   0  0  0  0  0  0  0  0  0  0  0  0
    0.0556   -0.8531    1.3384 H   0  0  0  0  0  0  0  0  0  0  0  0
    2.5685   -0.1973   -0.0950 H   0  0  0  0  0  0  0  0  0  0  0  0
   -0.4188    3.8142   -0.6547 H   0  0  0  0  0  0  0  0  0  0  0  0
   -2.3220    2.7286    0.6609 H   0  0  0  0  0  0  0  0  0  0  0  0
    2.5170    3.6908   -1.8169 N   0  0  0  0  0  0  0  0  0  0  0  0
    3.4911    3.9527   -2.2649 N   0  0  0  0  0  0  0  0  0  0  0  0
   -2.3431    0.4582    1.7362 O   0  0  0  0  0  0  0  0  0  0  0  0
   -2.2998   -0.8407    2.3231 C   0  0  0  0  0  0  0  0  0  0  0  0
   -2.1471   -1.6168    1.5579 H   0  0  0  0  0  0  0  0  0  0  0  0
   -3.2745   -0.9824    2.7989 H   0  0  0  0  0  0  0  0  0  0  0  0
   -1.5062   -0.9065    3.0828 H   0  0  0  0  0  0  0  0  0  0  0  0
    4.5235   -0.3521   -1.0494 S   0  0  0  0  0  0  0  0  0  0  0  0
    4.0106    0.4898   -2.1363 O   0  0  0  0  0  0  0  0  0  0  0  0
    3.3000   -0.8795   -0.1199 O   0  0  0  0  0  0  0  0  0  0  0  0
    5.3949   -1.5161   -1.2581 O   0  0  0  0  0  0  0  0  0  0  0  0
    5.2997    0.6984   -0.0328 O   0  0  0  0  0  0  0  0  0  0  0  0
    5.8826    0.1665    0.5349 H   0  0  0  0  0  0  0  0  0  0  0  0
  1  6  1  0  0  0  0
  1  7  1  0  0  0  0
  2  1  2  0  0  0  0
  3  4  2  0  0  0  0
  3  2  1  0  0  0  0
  4  5  1  0  0  0  0
  5 10  1  0  0  0  0
  5  6  2  0  0  0  0
  6 13  1  0  0  0  0
  9  4  1  0  0  0  0
 12 11  3  0  0  0  0
 13 14  1  0  0  0  0
 14 16  1  0  0  0  0
 14 17  1  0  0  0  0
 15 14  1  0  0  0  0
 18 20  1  0  0  0  0
 18 22  1  0  0  0  0
 19 18  2  0  0  0  0
 20  8  1  0  0  0  0
 21 18  2  0  0  0  0
 22 23  1  0  0  0  0
M  RAD  2   2   2   3   2
M  END
