Coordinates from ORCA-job p-CH3O-Ph-N2-HSO4-B3LYPG-aug-cc-pVDZ-scan-d09-49-n400
 OpenBabel12261916563D

 23 21  0  0  0  0  0  0  0  0999 V2000
    0.0362    0.2209    1.0306 C   0  0  0  0  0  0  0  0  0  0  0  0
    1.2055    0.7592    0.4286 C   0  0  0  0  0  0  0  0  0  0  0  0
    0.9019    1.9203   -0.1390 C   0  0  0  0  0  0  0  0  0  0  0  0
   -0.1816    2.7246   -0.3199 C   0  0  0  0  0  0  0  0  0  0  0  0
   -1.3010    2.1405    0.2910 C   0  0  0  0  0  0  0  0  0  0  0  0
   -1.1944    0.8999    0.9609 C   0  0  0  0  0  0  0  0  0  0  0  0
    0.1404   -0.7396    1.5293 H   0  0  0  0  0  0  0  0  0  0  0  0
    2.2078    0.2114    0.4373 H   0  0  0  0  0  0  0  0  0  0  0  0
   -0.2089    3.6717   -0.8486 H   0  0  0  0  0  0  0  0  0  0  0  0
   -2.2630    2.6488    0.2471 H   0  0  0  0  0  0  0  0  0  0  0  0
    2.5743    2.8821   -1.0252 N   0  0  0  0  0  0  0  0  0  0  0  0
    3.3839    3.5059   -1.4384 N   0  0  0  0  0  0  0  0  0  0  0  0
   -2.3468    0.4442    1.5059 O   0  0  0  0  0  0  0  0  0  0  0  0
   -2.3288   -0.8144    2.1888 C   0  0  0  0  0  0  0  0  0  0  0  0
   -2.0375   -1.6259    1.5067 H   0  0  0  0  0  0  0  0  0  0  0  0
   -3.3536   -0.9730    2.5345 H   0  0  0  0  0  0  0  0  0  0  0  0
   -1.6474   -0.7826    3.0512 H   0  0  0  0  0  0  0  0  0  0  0  0
    4.2540   -0.2927   -0.9654 S   0  0  0  0  0  0  0  0  0  0  0  0
    3.2782    0.3574   -1.8955 O   0  0  0  0  0  0  0  0  0  0  0  0
    3.6212   -0.5654    0.4003 O   0  0  0  0  0  0  0  0  0  0  0  0
    5.0789   -1.4170   -1.4755 O   0  0  0  0  0  0  0  0  0  0  0  0
    5.3558    0.9610   -0.6607 O   0  0  0  0  0  0  0  0  0  0  0  0
    6.2096    0.5234   -0.5229 H   0  0  0  0  0  0  0  0  0  0  0  0
  1  7  1  0  0  0  0
  2  8  1  0  0  0  0
  2  1  2  0  0  0  0
  3  2  1  0  0  0  0
  4  3  2  0  0  0  0
  4  5  1  0  0  0  0
  5  6  2  0  0  0  0
  6  1  1  0  0  0  0
  6 13  1  0  0  0  0
  9  4  1  0  0  0  0
 10  5  1  0  0  0  0
 12 11  3  0  0  0  0
 13 14  1  0  0  0  0
 14 16  1  0  0  0  0
 14 17  1  0  0  0  0
 15 14  1  0  0  0  0
 18 22  1  0  0  0  0
 18 20  1  0  0  0  0
 19 18  2  0  0  0  0
 21 18  2  0  0  0  0
 22 23  1  0  0  0  0
M  RAD  2   3   2  20   2
M  END
