Coordinates from ORCA-job p-CH3O-Ph-N2-HSO4-B3LYPG-aug-cc-pVDZ-scan-d09-49-n400
 OpenBabel12261916563D

 23 22  0  0  0  0  0  0  0  0999 V2000
   -0.2445    0.0157   -0.3416 C   0  0  0  0  0  0  0  0  0  0  0  0
    0.2567    0.4363   -1.5393 C   0  0  0  0  0  0  0  0  0  0  0  0
    0.7511    1.7834   -1.7007 C   0  0  0  0  0  0  0  0  0  0  0  0
    0.7017    2.6759   -0.5637 C   0  0  0  0  0  0  0  0  0  0  0  0
    0.1940    2.2452    0.6238 C   0  0  0  0  0  0  0  0  0  0  0  0
   -0.2556    0.9006    0.7726 C   0  0  0  0  0  0  0  0  0  0  0  0
   -0.5755   -1.0122   -0.2344 H   0  0  0  0  0  0  0  0  0  0  0  0
    0.3172   -0.2377   -2.3918 H   0  0  0  0  0  0  0  0  0  0  0  0
    1.1025    3.6817   -0.6784 H   0  0  0  0  0  0  0  0  0  0  0  0
    0.1778    2.8932    1.4971 H   0  0  0  0  0  0  0  0  0  0  0  0
    1.2286    2.1233   -2.7025 N   0  0  0  0  0  0  0  0  0  0  0  0
    1.7001    2.4558   -3.6839 N   0  0  0  0  0  0  0  0  0  0  0  0
   -0.7329    0.5943    1.9609 O   0  0  0  0  0  0  0  0  0  0  0  0
   -0.9840   -0.7896    2.2973 C   0  0  0  0  0  0  0  0  0  0  0  0
   -1.8249   -1.1773    1.7072 H   0  0  0  0  0  0  0  0  0  0  0  0
   -1.2483   -0.7760    3.3569 H   0  0  0  0  0  0  0  0  0  0  0  0
   -0.0652   -1.3634    2.1337 H   0  0  0  0  0  0  0  0  0  0  0  0
    3.2537    0.0618    0.8069 S   0  0  0  0  0  0  0  0  0  0  0  0
    3.0130    0.4928   -0.6133 O   0  0  0  0  0  0  0  0  0  0  0  0
    1.9791   -0.3559    1.5022 O   0  0  0  0  0  0  0  0  0  0  0  0
    4.4245   -0.8314    1.0355 O   0  0  0  0  0  0  0  0  0  0  0  0
    3.6726    1.5124    1.5958 O   0  0  0  0  0  0  0  0  0  0  0  0
    4.5430    1.3319    1.9809 H   0  0  0  0  0  0  0  0  0  0  0  0
  1  7  1  0  0  0  0
  1  6  2  0  0  0  0
  2  1  1  0  0  0  0
  3  2  2  0  0  0  0
  3  4  1  0  0  0  0
  4  5  2  0  0  0  0
  5  6  1  0  0  0  0
  5 10  1  0  0  0  0
  6 13  1  0  0  0  0
  8  2  1  0  0  0  0
  9  4  1  0  0  0  0
 11  3  1  0  0  0  0
 12 11  1  0  0  0  0
 13 14  1  0  0  0  0
 14 16  1  0  0  0  0
 15 14  1  0  0  0  0
 17 14  1  0  0  0  0
 18 21  2  0  0  0  0
 18 20  1  0  0  0  0
 18 22  1  0  0  0  0
 19 18  2  0  0  0  0
 22 23  1  0  0  0  0
M  RAD  3  11   2  12   3  20   2
M  END
