Coordinates from ORCA-job p-CH3O-Ph-N2-HSO4-B3LYPG-aug-cc-pVDZ-scan-d09-49-n400
 OpenBabel12261916563D

 23 21  0  0  0  0  0  0  0  0999 V2000
   -0.1651   -0.1277    1.0342 C   0  0  0  0  0  0  0  0  0  0  0  0
    0.9169    0.3541    0.2695 C   0  0  0  0  0  0  0  0  0  0  0  0
    0.8165    1.5014   -0.2350 C   0  0  0  0  0  0  0  0  0  0  0  0
   -0.1236    2.5029   -0.2666 C   0  0  0  0  0  0  0  0  0  0  0  0
   -1.2229    2.0554    0.4886 C   0  0  0  0  0  0  0  0  0  0  0  0
   -1.2484    0.7809    1.1211 C   0  0  0  0  0  0  0  0  0  0  0  0
   -0.1796   -1.1030    1.5122 H   0  0  0  0  0  0  0  0  0  0  0  0
    2.5950   -0.5527   -0.1541 H   0  0  0  0  0  0  0  0  0  0  0  0
   -0.0751    3.4685   -0.7610 H   0  0  0  0  0  0  0  0  0  0  0  0
   -2.0952    2.6991    0.6011 H   0  0  0  0  0  0  0  0  0  0  0  0
    2.6853    4.5872   -2.4211 N   0  0  0  0  0  0  0  0  0  0  0  0
    3.6029    5.0828   -2.7834 N   0  0  0  0  0  0  0  0  0  0  0  0
   -2.3992    0.5206    1.8077 O   0  0  0  0  0  0  0  0  0  0  0  0
   -2.5192   -0.7345    2.4730 C   0  0  0  0  0  0  0  0  0  0  0  0
   -2.4634   -1.5695    1.7582 H   0  0  0  0  0  0  0  0  0  0  0  0
   -3.5047   -0.7242    2.9475 H   0  0  0  0  0  0  0  0  0  0  0  0
   -1.7412   -0.8516    3.2427 H   0  0  0  0  0  0  0  0  0  0  0  0
    4.5584   -0.2459   -1.0342 S   0  0  0  0  0  0  0  0  0  0  0  0
    3.9600    0.7881   -1.8871 O   0  0  0  0  0  0  0  0  0  0  0  0
    3.3944   -1.1257   -0.3156 O   0  0  0  0  0  0  0  0  0  0  0  0
    5.5569   -1.2156   -1.5025 O   0  0  0  0  0  0  0  0  0  0  0  0
    5.2015    0.5826    0.2451 O   0  0  0  0  0  0  0  0  0  0  0  0
    5.8347   -0.0127    0.6807 H   0  0  0  0  0  0  0  0  0  0  0  0
  1  6  1  0  0  0  0
  1  7  1  0  0  0  0
  2  1  2  0  0  0  0
  3  2  1  0  0  0  0
  4  3  2  0  0  0  0
  4  5  1  0  0  0  0
  5 10  1  0  0  0  0
  5  6  2  0  0  0  0
  6 13  1  0  0  0  0
  9  4  1  0  0  0  0
 12 11  3  0  0  0  0
 13 14  1  0  0  0  0
 14 16  1  0  0  0  0
 14 17  1  0  0  0  0
 15 14  1  0  0  0  0
 18 20  1  0  0  0  0
 18 22  1  0  0  0  0
 19 18  2  0  0  0  0
 20  8  1  0  0  0  0
 21 18  2  0  0  0  0
 22 23  1  0  0  0  0
M  RAD  2   2   2   3   2
M  END
