Coordinates from ORCA-job Ph-N2-Cl-B3LYPG-6-31G_dp-MTMO-d009-169-n800
 OpenBabel09051908143D

 14 12  0  0  0  0  0  0  0  0999 V2000
   -1.4244   -1.3586   -1.2677 C   0  0  0  0  0  0  0  0  0  0  0  0
   -0.0316   -1.1501   -1.1192 C   0  0  0  0  0  0  0  0  0  0  0  0
    0.1431    0.1059   -0.5989 C   0  0  0  0  0  0  0  0  0  0  0  0
   -0.6260    1.0385   -0.2533 C   0  0  0  0  0  0  0  0  0  0  0  0
   -2.0131    0.8691   -0.3851 C   0  0  0  0  0  0  0  0  0  0  0  0
   -2.3751   -0.3847   -0.9136 C   0  0  0  0  0  0  0  0  0  0  0  0
   -1.7593   -2.3109   -1.6711 H   0  0  0  0  0  0  0  0  0  0  0  0
    0.7216   -1.8807   -1.3837 H   0  0  0  0  0  0  0  0  0  0  0  0
   -0.0605    2.7343    0.4601 H   0  0  0  0  0  0  0  0  0  0  0  0
   -2.7516    1.6163   -0.1132 H   0  0  0  0  0  0  0  0  0  0  0  0
    3.5323   -1.8824   -1.3679 N   0  0  0  0  0  0  0  0  0  0  0  0
    4.6330   -1.7865   -1.3497 N   0  0  0  0  0  0  0  0  0  0  0  0
    0.1496    3.9387    0.9589 Cl  0  0  0  0  0  0  0  0  0  0  0  0
   -3.4294   -0.6090   -1.0543 H   0  0  0  0  0  0  0  0  0  0  0  0
  1  2  2  0  0  0  0
  1  6  1  0  0  0  0
  2  3  1  0  0  0  0
  3  4  2  0  0  0  0
  5  4  1  0  0  0  0
  5 10  1  0  0  0  0
  6  5  2  0  0  0  0
  7  1  1  0  0  0  0
  8  2  1  0  0  0  0
  9 13  1  0  0  0  0
 11 12  3  0  0  0  0
 14  6  1  0  0  0  0
M  RAD  2   3   2   4   2
M  END
