Coordinates from ORCA-job Ph-N2-Cl-B3LYPG-6-31G_dp-MTMO-d009-169-n800
 OpenBabel09051908143D

 14 12  0  0  0  0  0  0  0  0999 V2000
   -0.6604   -0.6076   -0.9989 C   0  0  0  0  0  0  0  0  0  0  0  0
    0.4089    0.2579   -0.6641 C   0  0  0  0  0  0  0  0  0  0  0  0
   -0.1324    1.4172   -0.1698 C   0  0  0  0  0  0  0  0  0  0  0  0
   -1.3045    1.8253    0.0277 C   0  0  0  0  0  0  0  0  0  0  0  0
   -2.3928    1.0001   -0.2901 C   0  0  0  0  0  0  0  0  0  0  0  0
   -2.0077   -0.2475   -0.8176 C   0  0  0  0  0  0  0  0  0  0  0  0
   -0.4186   -1.5842   -1.4106 H   0  0  0  0  0  0  0  0  0  0  0  0
    1.4521    0.0005   -0.7966 H   0  0  0  0  0  0  0  0  0  0  0  0
   -1.7619    3.5565    0.7682 H   0  0  0  0  0  0  0  0  0  0  0  0
   -3.4339    1.2728   -0.1515 H   0  0  0  0  0  0  0  0  0  0  0  0
    4.6783   -5.4226   -2.6765 N   0  0  0  0  0  0  0  0  0  0  0  0
    5.3216   -6.2464   -3.0360 N   0  0  0  0  0  0  0  0  0  0  0  0
   -2.2599    4.6773    1.2529 Cl  0  0  0  0  0  0  0  0  0  0  0  0
   -2.7803   -0.9594   -1.0959 H   0  0  0  0  0  0  0  0  0  0  0  0
  1  6  2  0  0  0  0
  1  2  1  0  0  0  0
  2  3  2  0  0  0  0
  3  4  1  0  0  0  0
  5 10  1  0  0  0  0
  5  4  2  0  0  0  0
  6  5  1  0  0  0  0
  7  1  1  0  0  0  0
  8  2  1  0  0  0  0
  9 13  1  0  0  0  0
 12 11  3  0  0  0  0
 14  6  1  0  0  0  0
M  RAD  2   3   2   4   2
M  END
