Coordinates from ORCA-job Ph-N2-Cl-B3LYPG-6-31G_dp-MTMO-d009-169-n800
 OpenBabel09051908143D

 14 12  0  0  0  0  0  0  0  0999 V2000
   -1.6722   -1.4975   -1.3275 C   0  0  0  0  0  0  0  0  0  0  0  0
   -0.2590   -1.5733   -1.3219 C   0  0  0  0  0  0  0  0  0  0  0  0
    0.2098   -0.3872   -0.8297 C   0  0  0  0  0  0  0  0  0  0  0  0
   -0.2913    0.6900   -0.4064 C   0  0  0  0  0  0  0  0  0  0  0  0
   -1.6962    0.7866   -0.4035 C   0  0  0  0  0  0  0  0  0  0  0  0
   -2.3625   -0.3554   -0.8830 C   0  0  0  0  0  0  0  0  0  0  0  0
   -2.2305   -2.3571   -1.6897 H   0  0  0  0  0  0  0  0  0  0  0  0
    0.3054   -2.4341   -1.6558 H   0  0  0  0  0  0  0  0  0  0  0  0
    0.6413    2.1455    0.2065 H   0  0  0  0  0  0  0  0  0  0  0  0
   -2.2368    1.6639   -0.0619 H   0  0  0  0  0  0  0  0  0  0  0  0
    2.8211   -0.6234   -0.8625 N   0  0  0  0  0  0  0  0  0  0  0  0
    3.6963   -0.0091   -0.5813 N   0  0  0  0  0  0  0  0  0  0  0  0
    1.2324    3.2481    0.6698 Cl  0  0  0  0  0  0  0  0  0  0  0  0
   -3.4492   -0.3572   -0.9121 H   0  0  0  0  0  0  0  0  0  0  0  0
  1  2  2  0  0  0  0
  1  6  1  0  0  0  0
  2  3  1  0  0  0  0
  3  4  2  0  0  0  0
  4  5  1  0  0  0  0
  5 10  1  0  0  0  0
  6  5  2  0  0  0  0
  7  1  1  0  0  0  0
  8  2  1  0  0  0  0
  9 13  1  0  0  0  0
 11 12  3  0  0  0  0
 14  6  1  0  0  0  0
M  RAD  2   3   2   4   2
M  END
