Coordinates from ORCA-job Ph-N2-Cl-B3LYPG-6-31G_dp-MTMO-d009-169-n800
 OpenBabel09051908143D

 14 12  0  0  0  0  0  0  0  0999 V2000
   -0.6579   -0.3790   -0.9185 C   0  0  0  0  0  0  0  0  0  0  0  0
    0.3407    0.5614   -0.5677 C   0  0  0  0  0  0  0  0  0  0  0  0
   -0.2903    1.6793   -0.0848 C   0  0  0  0  0  0  0  0  0  0  0  0
   -1.4920    2.0019    0.0920 C   0  0  0  0  0  0  0  0  0  0  0  0
   -2.5130    1.1007   -0.2418 C   0  0  0  0  0  0  0  0  0  0  0  0
   -2.0303   -0.1165   -0.7604 C   0  0  0  0  0  0  0  0  0  0  0  0
   -0.3396   -1.3362   -1.3238 H   0  0  0  0  0  0  0  0  0  0  0  0
    1.4020    0.3793   -0.6819 H   0  0  0  0  0  0  0  0  0  0  0  0
   -2.0825    3.7016    0.8206 H   0  0  0  0  0  0  0  0  0  0  0  0
   -3.5733    1.2980   -0.1210 H   0  0  0  0  0  0  0  0  0  0  0  0
    5.3569   -6.5168   -3.0720 N   0  0  0  0  0  0  0  0  0  0  0  0
    5.9982   -7.3374   -3.4422 N   0  0  0  0  0  0  0  0  0  0  0  0
   -2.6653    4.7859    1.2926 Cl  0  0  0  0  0  0  0  0  0  0  0  0
   -2.7451   -0.8824   -1.0499 H   0  0  0  0  0  0  0  0  0  0  0  0
  1  6  2  0  0  0  0
  1  2  1  0  0  0  0
  2  3  2  0  0  0  0
  3  4  1  0  0  0  0
  5 10  1  0  0  0  0
  5  4  2  0  0  0  0
  6  5  1  0  0  0  0
  7  1  1  0  0  0  0
  8  2  1  0  0  0  0
  9 13  1  0  0  0  0
 12 11  3  0  0  0  0
 14  6  1  0  0  0  0
M  RAD  2   3   2   4   2
M  END
