Coordinates from ORCA-job Ph-N2-Cl-B3LYPG-6-31G_dp-MTMO-d009-169-n800
 OpenBabel09051908143D

 14 12  0  0  0  0  0  0  0  0999 V2000
   -0.6888   -0.0943   -0.8270 C   0  0  0  0  0  0  0  0  0  0  0  0
    0.2302    0.9193   -0.4628 C   0  0  0  0  0  0  0  0  0  0  0  0
   -0.4912    1.9851    0.0114 C   0  0  0  0  0  0  0  0  0  0  0  0
   -1.7161    2.2152    0.1721 C   0  0  0  0  0  0  0  0  0  0  0  0
   -2.6606    1.2388   -0.1753 C   0  0  0  0  0  0  0  0  0  0  0  0
   -2.0794    0.0626   -0.6874 C   0  0  0  0  0  0  0  0  0  0  0  0
   -0.2933   -1.0243   -1.2276 H   0  0  0  0  0  0  0  0  0  0  0  0
    1.3039    0.8193   -0.5624 H   0  0  0  0  0  0  0  0  0  0  0  0
   -2.4450    3.8668    0.8890 H   0  0  0  0  0  0  0  0  0  0  0  0
   -3.7346    1.3537   -0.0687 H   0  0  0  0  0  0  0  0  0  0  0  0
    6.2454   -7.8638   -3.5566 N   0  0  0  0  0  0  0  0  0  0  0  0
    6.8830   -8.6867   -3.9280 N   0  0  0  0  0  0  0  0  0  0  0  0
   -3.1152    4.9037    1.3507 Cl  0  0  0  0  0  0  0  0  0  0  0  0
   -2.7296   -0.7554   -0.9863 H   0  0  0  0  0  0  0  0  0  0  0  0
  1  6  2  0  0  0  0
  1  2  1  0  0  0  0
  2  3  2  0  0  0  0
  3  4  1  0  0  0  0
  5 10  1  0  0  0  0
  5  4  2  0  0  0  0
  6  5  1  0  0  0  0
  7  1  1  0  0  0  0
  8  2  1  0  0  0  0
  9 13  1  0  0  0  0
 12 11  3  0  0  0  0
 14  6  1  0  0  0  0
M  RAD  2   3   2   4   2
M  END
