Coordinates from ORCA-job Ph-N2-Cl-B3LYPG-6-31G_dp-MTMO-d009-169-n800
 OpenBabel09051908143D

 14 12  0  0  0  0  0  0  0  0999 V2000
   -0.6695   -0.2068   -0.8607 C   0  0  0  0  0  0  0  0  0  0  0  0
    0.2785    0.7813   -0.5006 C   0  0  0  0  0  0  0  0  0  0  0  0
   -0.4115    1.8669   -0.0247 C   0  0  0  0  0  0  0  0  0  0  0  0
   -1.6290    2.1308    0.1402 C   0  0  0  0  0  0  0  0  0  0  0  0
   -2.6013    1.1806   -0.2031 C   0  0  0  0  0  0  0  0  0  0  0  0
   -2.0546   -0.0116   -0.7163 C   0  0  0  0  0  0  0  0  0  0  0  0
   -0.3010   -1.1475   -1.2621 H   0  0  0  0  0  0  0  0  0  0  0  0
    1.3486    0.6516   -0.6040 H   0  0  0  0  0  0  0  0  0  0  0  0
   -2.3085    3.8021    0.8589 H   0  0  0  0  0  0  0  0  0  0  0  0
   -3.6713    1.3253   -0.0928 H   0  0  0  0  0  0  0  0  0  0  0  0
    5.8834   -7.3281   -3.3658 N   0  0  0  0  0  0  0  0  0  0  0  0
    6.5203   -8.1511   -3.7381 N   0  0  0  0  0  0  0  0  0  0  0  0
   -2.9474    4.8579    1.3225 Cl  0  0  0  0  0  0  0  0  0  0  0  0
   -2.7283   -0.8115   -1.0122 H   0  0  0  0  0  0  0  0  0  0  0  0
  1  6  2  0  0  0  0
  1  2  1  0  0  0  0
  2  3  2  0  0  0  0
  3  4  1  0  0  0  0
  5 10  1  0  0  0  0
  5  4  2  0  0  0  0
  6  5  1  0  0  0  0
  7  1  1  0  0  0  0
  8  2  1  0  0  0  0
  9 13  1  0  0  0  0
 12 11  3  0  0  0  0
 14  6  1  0  0  0  0
M  RAD  2   3   2   4   2
M  END
