Coordinates from ORCA-job Ph-N2-Cl-B3LYPG-6-31G_dp-MTMO-d009-169-n800
 OpenBabel09051908143D

 14 12  0  0  0  0  0  0  0  0999 V2000
   -0.7526    0.1390   -0.7681 C   0  0  0  0  0  0  0  0  0  0  0  0
    0.1153    1.1950   -0.3983 C   0  0  0  0  0  0  0  0  0  0  0  0
   -0.6582    2.2218    0.0796 C   0  0  0  0  0  0  0  0  0  0  0  0
   -1.8931    2.3906    0.2400 C   0  0  0  0  0  0  0  0  0  0  0  0
   -2.7882    1.3706   -0.1127 C   0  0  0  0  0  0  0  0  0  0  0  0
   -2.1492    0.2268   -0.6294 C   0  0  0  0  0  0  0  0  0  0  0  0
   -0.3116   -0.7691   -1.1719 H   0  0  0  0  0  0  0  0  0  0  0  0
    1.1927    1.1484   -0.4970 H   0  0  0  0  0  0  0  0  0  0  0  0
   -2.7039    3.9999    0.9659 H   0  0  0  0  0  0  0  0  0  0  0  0
   -3.8666    1.4318   -0.0066 H   0  0  0  0  0  0  0  0  0  0  0  0
    7.0349   -8.9850   -3.9453 N   0  0  0  0  0  0  0  0  0  0  0  0
    7.6728   -9.8081   -4.3157 N   0  0  0  0  0  0  0  0  0  0  0  0
   -3.4254    4.9991    1.4335 Cl  0  0  0  0  0  0  0  0  0  0  0  0
   -2.7582   -0.6209   -0.9328 H   0  0  0  0  0  0  0  0  0  0  0  0
  1  6  2  0  0  0  0
  1  2  1  0  0  0  0
  2  3  2  0  0  0  0
  3  4  1  0  0  0  0
  5 10  1  0  0  0  0
  5  4  2  0  0  0  0
  6  5  1  0  0  0  0
  7  1  1  0  0  0  0
  8  2  1  0  0  0  0
  9 13  1  0  0  0  0
 12 11  3  0  0  0  0
 14  6  1  0  0  0  0
M  RAD  2   3   2   4   2
M  END
