Coordinates from ORCA-job Ph-N2-Cl-B3LYPG-6-31G_dp-MTMO-d009-169-n800
 OpenBabel09051908143D

 14 12  0  0  0  0  0  0  0  0999 V2000
   -1.4008   -1.3475   -1.2647 C   0  0  0  0  0  0  0  0  0  0  0  0
   -0.0116   -1.1187   -1.1129 C   0  0  0  0  0  0  0  0  0  0  0  0
    0.1431    0.1392   -0.5911 C   0  0  0  0  0  0  0  0  0  0  0  0
   -0.6402    1.0602   -0.2463 C   0  0  0  0  0  0  0  0  0  0  0  0
   -2.0243    0.8704   -0.3815 C   0  0  0  0  0  0  0  0  0  0  0  0
   -2.3667   -0.3881   -0.9119 C   0  0  0  0  0  0  0  0  0  0  0  0
   -1.7208   -2.3043   -1.6697 H   0  0  0  0  0  0  0  0  0  0  0  0
    0.7528   -1.8381   -1.3761 H   0  0  0  0  0  0  0  0  0  0  0  0
   -0.1016    2.7633    0.4693 H   0  0  0  0  0  0  0  0  0  0  0  0
   -2.7744    1.6064   -0.1106 H   0  0  0  0  0  0  0  0  0  0  0  0
    3.5384   -1.9454   -1.3926 N   0  0  0  0  0  0  0  0  0  0  0  0
    4.6425   -1.8999   -1.3847 N   0  0  0  0  0  0  0  0  0  0  0  0
    0.0892    3.9704    0.9694 Cl  0  0  0  0  0  0  0  0  0  0  0  0
   -3.4172   -0.6279   -1.0553 H   0  0  0  0  0  0  0  0  0  0  0  0
  1  2  2  0  0  0  0
  1  6  1  0  0  0  0
  2  3  1  0  0  0  0
  3  4  2  0  0  0  0
  5  4  1  0  0  0  0
  5 10  1  0  0  0  0
  6  5  2  0  0  0  0
  7  1  1  0  0  0  0
  8  2  1  0  0  0  0
  9 13  1  0  0  0  0
 11 12  3  0  0  0  0
 14  6  1  0  0  0  0
M  RAD  2   3   2   4   2
M  END
