Coordinates from ORCA-job Ph-N2-Cl-B3LYPG-6-31G_dp-MTMO-d009-169-n800
 OpenBabel09051908143D

 14 12  0  0  0  0  0  0  0  0999 V2000
   -0.7830    0.2270   -0.7468 C   0  0  0  0  0  0  0  0  0  0  0  0
    0.0678    1.2962   -0.3754 C   0  0  0  0  0  0  0  0  0  0  0  0
   -0.7218    2.3095    0.1049 C   0  0  0  0  0  0  0  0  0  0  0  0
   -1.9592    2.4575    0.2661 C   0  0  0  0  0  0  0  0  0  0  0  0
   -2.8380    1.4241   -0.0880 C   0  0  0  0  0  0  0  0  0  0  0  0
   -2.1809    0.2917   -0.6073 C   0  0  0  0  0  0  0  0  0  0  0  0
   -0.3277   -0.6732   -1.1524 H   0  0  0  0  0  0  0  0  0  0  0  0
    1.1457    1.2667   -0.4749 H   0  0  0  0  0  0  0  0  0  0  0  0
   -2.7961    4.0517    0.9970 H   0  0  0  0  0  0  0  0  0  0  0  0
   -3.9172    1.4679    0.0189 H   0  0  0  0  0  0  0  0  0  0  0  0
    7.3453   -9.4143   -4.0930 N   0  0  0  0  0  0  0  0  0  0  0  0
    7.9832  -10.2373   -4.4637 N   0  0  0  0  0  0  0  0  0  0  0  0
   -3.5334    5.0375    1.4679 Cl  0  0  0  0  0  0  0  0  0  0  0  0
   -2.7762   -0.5652   -0.9120 H   0  0  0  0  0  0  0  0  0  0  0  0
  1  6  2  0  0  0  0
  1  2  1  0  0  0  0
  2  3  2  0  0  0  0
  3  4  1  0  0  0  0
  5 10  1  0  0  0  0
  5  4  2  0  0  0  0
  6  5  1  0  0  0  0
  7  1  1  0  0  0  0
  8  2  1  0  0  0  0
  9 13  1  0  0  0  0
 12 11  3  0  0  0  0
 14  6  1  0  0  0  0
M  RAD  2   3   2   4   2
M  END
