Coordinates from ORCA-job Ph-N2-Cl-B3LYPG-6-31G_dp-MTMO-d009-169-n800
 OpenBabel09051908143D

 14 12  0  0  0  0  0  0  0  0999 V2000
   -0.6475   -0.5391   -0.9724 C   0  0  0  0  0  0  0  0  0  0  0  0
    0.3967    0.3541   -0.6313 C   0  0  0  0  0  0  0  0  0  0  0  0
   -0.1774    1.5000   -0.1428 C   0  0  0  0  0  0  0  0  0  0  0  0
   -1.3611    1.8776    0.0455 C   0  0  0  0  0  0  0  0  0  0  0  0
   -2.4257    1.0246   -0.2785 C   0  0  0  0  0  0  0  0  0  0  0  0
   -2.0048   -0.2135   -0.8013 C   0  0  0  0  0  0  0  0  0  0  0  0
   -0.3778   -1.5097   -1.3808 H   0  0  0  0  0  0  0  0  0  0  0  0
    1.4472    0.1233   -0.7560 H   0  0  0  0  0  0  0  0  0  0  0  0
   -1.8671    3.5993    0.7815 H   0  0  0  0  0  0  0  0  0  0  0  0
   -3.4745    1.2707   -0.1478 H   0  0  0  0  0  0  0  0  0  0  0  0
    4.8563   -5.7431   -2.7945 N   0  0  0  0  0  0  0  0  0  0  0  0
    5.4979   -6.5664   -3.1578 N   0  0  0  0  0  0  0  0  0  0  0  0
   -2.3966    4.7075    1.2611 Cl  0  0  0  0  0  0  0  0  0  0  0  0
   -2.7569   -0.9454   -1.0839 H   0  0  0  0  0  0  0  0  0  0  0  0
  1  6  2  0  0  0  0
  1  2  1  0  0  0  0
  2  3  2  0  0  0  0
  3  4  1  0  0  0  0
  5 10  1  0  0  0  0
  5  4  2  0  0  0  0
  6  5  1  0  0  0  0
  7  1  1  0  0  0  0
  8  2  1  0  0  0  0
  9 13  1  0  0  0  0
 12 11  3  0  0  0  0
 14  6  1  0  0  0  0
M  RAD  2   3   2   4   2
M  END
