Coordinates from ORCA-job Ph-N2-Cl-B3LYPG-6-31G_dp-MTMO-d009-169-n800
 OpenBabel09051908143D

 14 12  0  0  0  0  0  0  0  0999 V2000
   -1.6198   -1.4417   -1.3035 C   0  0  0  0  0  0  0  0  0  0  0  0
   -0.2065   -1.3944   -1.2330 C   0  0  0  0  0  0  0  0  0  0  0  0
    0.1397   -0.1696   -0.7253 C   0  0  0  0  0  0  0  0  0  0  0  0
   -0.4950    0.8445   -0.3386 C   0  0  0  0  0  0  0  0  0  0  0  0
   -1.8979    0.8348   -0.3936 C   0  0  0  0  0  0  0  0  0  0  0  0
   -2.4311   -0.3664   -0.8986 C   0  0  0  0  0  0  0  0  0  0  0  0
   -2.0833   -2.3476   -1.6864 H   0  0  0  0  0  0  0  0  0  0  0  0
    0.4424   -2.2052   -1.5375 H   0  0  0  0  0  0  0  0  0  0  0  0
    0.3075    2.4514    0.3377 H   0  0  0  0  0  0  0  0  0  0  0  0
   -2.5295    1.6607   -0.0825 H   0  0  0  0  0  0  0  0  0  0  0  0
    3.4247   -1.2037   -1.0907 N   0  0  0  0  0  0  0  0  0  0  0  0
    4.4695   -0.8721   -0.9505 N   0  0  0  0  0  0  0  0  0  0  0  0
    0.6984    3.6163    0.8235 Cl  0  0  0  0  0  0  0  0  0  0  0  0
   -3.5105   -0.4671   -0.9798 H   0  0  0  0  0  0  0  0  0  0  0  0
  1  2  2  0  0  0  0
  1  6  1  0  0  0  0
  2  3  1  0  0  0  0
  3  4  2  0  0  0  0
  5  4  1  0  0  0  0
  5 10  1  0  0  0  0
  6  5  2  0  0  0  0
  7  1  1  0  0  0  0
  8  2  1  0  0  0  0
  9 13  1  0  0  0  0
 11 12  3  0  0  0  0
 14  6  1  0  0  0  0
M  RAD  2   3   2   4   2
M  END
