Coordinates from ORCA-job Ph-N2-Cl-B3LYPG-6-31G_dp-MTMO-d009-169-n800
 OpenBabel09051908143D

 14 12  0  0  0  0  0  0  0  0999 V2000
   -0.7374    0.0905   -0.7799 C   0  0  0  0  0  0  0  0  0  0  0  0
    0.1404    1.1385   -0.4110 C   0  0  0  0  0  0  0  0  0  0  0  0
   -0.6233    2.1732    0.0658 C   0  0  0  0  0  0  0  0  0  0  0  0
   -1.8565    2.3540    0.2257 C   0  0  0  0  0  0  0  0  0  0  0  0
   -2.7612    1.3422   -0.1260 C   0  0  0  0  0  0  0  0  0  0  0  0
   -2.1332    0.1918   -0.6415 C   0  0  0  0  0  0  0  0  0  0  0  0
   -0.3051   -0.8221   -1.1827 H   0  0  0  0  0  0  0  0  0  0  0  0
    1.2173    1.0815   -0.5095 H   0  0  0  0  0  0  0  0  0  0  0  0
   -2.6520    3.9721    0.9491 H   0  0  0  0  0  0  0  0  0  0  0  0
   -3.8390    1.4139   -0.0202 H   0  0  0  0  0  0  0  0  0  0  0  0
    6.8674   -8.7506   -3.8645 N   0  0  0  0  0  0  0  0  0  0  0  0
    7.5053   -9.5736   -4.2350 N   0  0  0  0  0  0  0  0  0  0  0  0
   -3.3639    4.9789    1.4149 Cl  0  0  0  0  0  0  0  0  0  0  0  0
   -2.7502   -0.6504   -0.9440 H   0  0  0  0  0  0  0  0  0  0  0  0
  1  6  2  0  0  0  0
  1  2  1  0  0  0  0
  2  3  2  0  0  0  0
  3  4  1  0  0  0  0
  5 10  1  0  0  0  0
  5  4  2  0  0  0  0
  6  5  1  0  0  0  0
  7  1  1  0  0  0  0
  8  2  1  0  0  0  0
  9 13  1  0  0  0  0
 12 11  3  0  0  0  0
 14  6  1  0  0  0  0
M  RAD  2   3   2   4   2
M  END
