Coordinates from ORCA-job Ph-N2-Cl-B3LYPG-6-31G_dp-MTMO-d009-169-n800
 OpenBabel09051908143D

 14 12  0  0  0  0  0  0  0  0999 V2000
   -0.9094    0.4865   -0.6908 C   0  0  0  0  0  0  0  0  0  0  0  0
   -0.0930    1.5806   -0.3148 C   0  0  0  0  0  0  0  0  0  0  0  0
   -0.9134    2.5617    0.1803 C   0  0  0  0  0  0  0  0  0  0  0  0
   -2.1540    2.6662    0.3510 C   0  0  0  0  0  0  0  0  0  0  0  0
   -2.9994    1.6067   -0.0073 C   0  0  0  0  0  0  0  0  0  0  0  0
   -2.3077    0.5023   -0.5416 C   0  0  0  0  0  0  0  0  0  0  0  0
   -0.4266   -0.3940   -1.1077 H   0  0  0  0  0  0  0  0  0  0  0  0
    0.9846    1.5890   -0.4216 H   0  0  0  0  0  0  0  0  0  0  0  0
   -3.0397    4.2219    1.1054 H   0  0  0  0  0  0  0  0  0  0  0  0
   -4.0787    1.6126    0.1071 H   0  0  0  0  0  0  0  0  0  0  0  0
    8.3442  -10.7393   -4.5434 N   0  0  0  0  0  0  0  0  0  0  0  0
    8.9843  -11.5590   -4.9177 N   0  0  0  0  0  0  0  0  0  0  0  0
   -3.8071    5.1762    1.5930 Cl  0  0  0  0  0  0  0  0  0  0  0  0
   -2.8755   -0.3715   -0.8507 H   0  0  0  0  0  0  0  0  0  0  0  0
  1  6  2  0  0  0  0
  1  2  1  0  0  0  0
  2  3  2  0  0  0  0
  3  4  1  0  0  0  0
  5 10  1  0  0  0  0
  5  4  2  0  0  0  0
  6  5  1  0  0  0  0
  7  1  1  0  0  0  0
  8  2  1  0  0  0  0
  9 13  1  0  0  0  0
 12 11  3  0  0  0  0
 14  6  1  0  0  0  0
M  RAD  2   3   2   4   2
M  END
