Coordinates from ORCA-job Ph-N2-Cl-B3LYPG-6-31G_dp-MTMO-d009-169-n800
 OpenBabel09051908143D

 14 12  0  0  0  0  0  0  0  0999 V2000
   -0.7770    0.2111   -0.7506 C   0  0  0  0  0  0  0  0  0  0  0  0
    0.0766    1.2781   -0.3794 C   0  0  0  0  0  0  0  0  0  0  0  0
   -0.7102    2.2938    0.1004 C   0  0  0  0  0  0  0  0  0  0  0  0
   -1.9473    2.4453    0.2613 C   0  0  0  0  0  0  0  0  0  0  0  0
   -2.8289    1.4142   -0.0925 C   0  0  0  0  0  0  0  0  0  0  0  0
   -2.1748    0.2798   -0.6113 C   0  0  0  0  0  0  0  0  0  0  0  0
   -0.3242   -0.6904   -1.1558 H   0  0  0  0  0  0  0  0  0  0  0  0
    1.1545    1.2457   -0.4788 H   0  0  0  0  0  0  0  0  0  0  0  0
   -2.7799    4.0422    0.9912 H   0  0  0  0  0  0  0  0  0  0  0  0
   -3.9080    1.4610    0.0142 H   0  0  0  0  0  0  0  0  0  0  0  0
    7.2884   -9.3363   -4.0662 N   0  0  0  0  0  0  0  0  0  0  0  0
    7.9263  -10.1593   -4.4368 N   0  0  0  0  0  0  0  0  0  0  0  0
   -3.5146    5.0303    1.4615 Cl  0  0  0  0  0  0  0  0  0  0  0  0
   -2.7724   -0.5756   -0.9158 H   0  0  0  0  0  0  0  0  0  0  0  0
  1  6  2  0  0  0  0
  1  2  1  0  0  0  0
  2  3  2  0  0  0  0
  3  4  1  0  0  0  0
  5 10  1  0  0  0  0
  5  4  2  0  0  0  0
  6  5  1  0  0  0  0
  7  1  1  0  0  0  0
  8  2  1  0  0  0  0
  9 13  1  0  0  0  0
 12 11  3  0  0  0  0
 14  6  1  0  0  0  0
M  RAD  2   3   2   4   2
M  END
