Coordinates from ORCA-job Ph-N2-Cl-B3LYPG-6-31G_dp-MTMO-d009-169-n800
 OpenBabel09051908143D

 14 12  0  0  0  0  0  0  0  0999 V2000
   -0.9003    0.4717   -0.6931 C   0  0  0  0  0  0  0  0  0  0  0  0
   -0.0829    1.5651   -0.3174 C   0  0  0  0  0  0  0  0  0  0  0  0
   -0.9025    2.5477    0.1760 C   0  0  0  0  0  0  0  0  0  0  0  0
   -2.1431    2.6539    0.3456 C   0  0  0  0  0  0  0  0  0  0  0  0
   -2.9896    1.5951   -0.0124 C   0  0  0  0  0  0  0  0  0  0  0  0
   -2.2988    0.4893   -0.5451 C   0  0  0  0  0  0  0  0  0  0  0  0
   -0.4183   -0.4098   -1.1088 H   0  0  0  0  0  0  0  0  0  0  0  0
    0.9948    1.5721   -0.4234 H   0  0  0  0  0  0  0  0  0  0  0  0
   -3.0275    4.2116    1.0977 H   0  0  0  0  0  0  0  0  0  0  0  0
   -4.0689    1.6025    0.1012 H   0  0  0  0  0  0  0  0  0  0  0  0
    8.2836  -10.6613   -4.5175 N   0  0  0  0  0  0  0  0  0  0  0  0
    8.9234  -11.4813   -4.8915 N   0  0  0  0  0  0  0  0  0  0  0  0
   -3.7940    5.1674    1.5837 Cl  0  0  0  0  0  0  0  0  0  0  0  0
   -2.8674   -0.3841   -0.8538 H   0  0  0  0  0  0  0  0  0  0  0  0
  1  6  2  0  0  0  0
  1  2  1  0  0  0  0
  2  3  2  0  0  0  0
  3  4  1  0  0  0  0
  5 10  1  0  0  0  0
  5  4  2  0  0  0  0
  6  5  1  0  0  0  0
  7  1  1  0  0  0  0
  8  2  1  0  0  0  0
  9 13  1  0  0  0  0
 12 11  3  0  0  0  0
 14  6  1  0  0  0  0
M  RAD  2   3   2   4   2
M  END
