Coordinates from ORCA-job Ph-N2-Cl-B3LYPG-6-31G_dp-MTMO-d009-169-n800
 OpenBabel09051908143D

 14 12  0  0  0  0  0  0  0  0999 V2000
   -1.1243   -1.2281   -1.2174 C   0  0  0  0  0  0  0  0  0  0  0  0
    0.2091   -0.8008   -1.0024 C   0  0  0  0  0  0  0  0  0  0  0  0
    0.1531    0.4633   -0.4766 C   0  0  0  0  0  0  0  0  0  0  0  0
   -0.7689    1.2614   -0.1697 C   0  0  0  0  0  0  0  0  0  0  0  0
   -2.1028    0.8715   -0.3687 C   0  0  0  0  0  0  0  0  0  0  0  0
   -2.2342   -0.4208   -0.9114 C   0  0  0  0  0  0  0  0  0  0  0  0
   -1.2824   -2.2192   -1.6349 H   0  0  0  0  0  0  0  0  0  0  0  0
    1.0789   -1.4034   -1.2300 H   0  0  0  0  0  0  0  0  0  0  0  0
   -0.5176    3.0197    0.5575 H   0  0  0  0  0  0  0  0  0  0  0  0
   -2.9634    1.4895   -0.1346 H   0  0  0  0  0  0  0  0  0  0  0  0
    3.4956   -2.5716   -1.6500 N   0  0  0  0  0  0  0  0  0  0  0  0
    4.5246   -2.9533   -1.7781 N   0  0  0  0  0  0  0  0  0  0  0  0
   -0.5282    4.2414    1.0601 Cl  0  0  0  0  0  0  0  0  0  0  0  0
   -3.2310   -0.8097   -1.1025 H   0  0  0  0  0  0  0  0  0  0  0  0
  1  2  2  0  0  0  0
  1  6  1  0  0  0  0
  2  3  1  0  0  0  0
  3  4  2  0  0  0  0
  5  4  1  0  0  0  0
  5 10  1  0  0  0  0
  6  5  2  0  0  0  0
  7  1  1  0  0  0  0
  8  2  1  0  0  0  0
  9 13  1  0  0  0  0
 12 11  3  0  0  0  0
 14  6  1  0  0  0  0
M  RAD  2   3   2   4   2
M  END
