Coordinates from ORCA-job Ph-N2-Cl-B3LYPG-6-31G_dp-MTMO-d009-169-n800
 OpenBabel09051908143D

 14 12  0  0  0  0  0  0  0  0999 V2000
   -1.6763   -1.4939   -1.3265 C   0  0  0  0  0  0  0  0  0  0  0  0
   -0.2627   -1.5681   -1.3199 C   0  0  0  0  0  0  0  0  0  0  0  0
    0.2049   -0.3814   -0.8269 C   0  0  0  0  0  0  0  0  0  0  0  0
   -0.3022    0.6924   -0.4048 C   0  0  0  0  0  0  0  0  0  0  0  0
   -1.7064    0.7903   -0.4016 C   0  0  0  0  0  0  0  0  0  0  0  0
   -2.3692   -0.3535   -0.8824 C   0  0  0  0  0  0  0  0  0  0  0  0
   -2.2331   -2.3542   -1.6894 H   0  0  0  0  0  0  0  0  0  0  0  0
    0.3017   -2.4289   -1.6540 H   0  0  0  0  0  0  0  0  0  0  0  0
    0.6166    2.1744    0.2173 H   0  0  0  0  0  0  0  0  0  0  0  0
   -2.2485    1.6667   -0.0602 H   0  0  0  0  0  0  0  0  0  0  0  0
    2.8915   -0.6675   -0.8780 N   0  0  0  0  0  0  0  0  0  0  0  0
    3.7817   -0.0718   -0.6044 N   0  0  0  0  0  0  0  0  0  0  0  0
    1.1664    3.2929    0.6848 Cl  0  0  0  0  0  0  0  0  0  0  0  0
   -3.4559   -0.3574   -0.9127 H   0  0  0  0  0  0  0  0  0  0  0  0
  1  2  2  0  0  0  0
  1  6  1  0  0  0  0
  2  3  1  0  0  0  0
  3  4  2  0  0  0  0
  4  5  1  0  0  0  0
  5 10  1  0  0  0  0
  6  5  2  0  0  0  0
  7  1  1  0  0  0  0
  8  2  1  0  0  0  0
  9 13  1  0  0  0  0
 11 12  3  0  0  0  0
 14  6  1  0  0  0  0
M  RAD  2   3   2   4   2
M  END
