Coordinates from ORCA-job Ph-N2-Cl-B3LYPG-6-31G_dp-MTMO-d009-169-n800
 OpenBabel09051908143D

 14 12  0  0  0  0  0  0  0  0999 V2000
   -0.7804    0.2189   -0.7490 C   0  0  0  0  0  0  0  0  0  0  0  0
    0.0720    1.2868   -0.3777 C   0  0  0  0  0  0  0  0  0  0  0  0
   -0.7162    2.3012    0.1025 C   0  0  0  0  0  0  0  0  0  0  0  0
   -1.9533    2.4517    0.2639 C   0  0  0  0  0  0  0  0  0  0  0  0
   -2.8335    1.4193   -0.0902 C   0  0  0  0  0  0  0  0  0  0  0  0
   -2.1782    0.2859   -0.6094 C   0  0  0  0  0  0  0  0  0  0  0  0
   -0.3266   -0.6820   -1.1546 H   0  0  0  0  0  0  0  0  0  0  0  0
    1.1499    1.2562   -0.4771 H   0  0  0  0  0  0  0  0  0  0  0  0
   -2.7873    4.0470    0.9945 H   0  0  0  0  0  0  0  0  0  0  0  0
   -3.9127    1.4644    0.0167 H   0  0  0  0  0  0  0  0  0  0  0  0
    7.3173   -9.3754   -4.0794 N   0  0  0  0  0  0  0  0  0  0  0  0
    7.9553  -10.1983   -4.4500 N   0  0  0  0  0  0  0  0  0  0  0  0
   -3.5230    5.0341    1.4653 Cl  0  0  0  0  0  0  0  0  0  0  0  0
   -2.7748   -0.5701   -0.9140 H   0  0  0  0  0  0  0  0  0  0  0  0
  1  6  2  0  0  0  0
  1  2  1  0  0  0  0
  2  3  2  0  0  0  0
  3  4  1  0  0  0  0
  5 10  1  0  0  0  0
  5  4  2  0  0  0  0
  6  5  1  0  0  0  0
  7  1  1  0  0  0  0
  8  2  1  0  0  0  0
  9 13  1  0  0  0  0
 12 11  3  0  0  0  0
 14  6  1  0  0  0  0
M  RAD  2   3   2   4   2
M  END
