Coordinates from ORCA-job Ph-N2-Cl-B3LYPG-6-31G_dp-MTMO-d009-169-n800
 OpenBabel09051908143D

 14 12  0  0  0  0  0  0  0  0999 V2000
   -0.7391   -0.8444   -1.0727 C   0  0  0  0  0  0  0  0  0  0  0  0
    0.4198   -0.0944   -0.7575 C   0  0  0  0  0  0  0  0  0  0  0  0
    0.0087    1.1125   -0.2533 C   0  0  0  0  0  0  0  0  0  0  0  0
   -1.1097    1.6419   -0.0330 C   0  0  0  0  0  0  0  0  0  0  0  0
   -2.2824    0.9325   -0.3313 C   0  0  0  0  0  0  0  0  0  0  0  0
   -2.0384   -0.3469   -0.8663 C   0  0  0  0  0  0  0  0  0  0  0  0
   -0.6072   -1.8398   -1.4887 H   0  0  0  0  0  0  0  0  0  0  0  0
    1.4283   -0.4579   -0.9088 H   0  0  0  0  0  0  0  0  0  0  0  0
   -1.3742    3.4063    0.7034 H   0  0  0  0  0  0  0  0  0  0  0  0
   -3.2870    1.3108   -0.1736 H   0  0  0  0  0  0  0  0  0  0  0  0
    4.1337   -4.3301   -2.2948 N   0  0  0  0  0  0  0  0  0  0  0  0
    4.7852   -5.1520   -2.6434 N   0  0  0  0  0  0  0  0  0  0  0  0
   -1.7435    4.5755    1.1915 Cl  0  0  0  0  0  0  0  0  0  0  0  0
   -2.8856   -0.9742   -1.1303 H   0  0  0  0  0  0  0  0  0  0  0  0
  1  6  2  0  0  0  0
  1  2  1  0  0  0  0
  2  3  2  0  0  0  0
  3  4  1  0  0  0  0
  5 10  1  0  0  0  0
  5  4  2  0  0  0  0
  6  5  1  0  0  0  0
  7  1  1  0  0  0  0
  8  2  1  0  0  0  0
  9 13  1  0  0  0  0
 12 11  3  0  0  0  0
 14  6  1  0  0  0  0
M  RAD  2   3   2   4   2
M  END
