Coordinates from ORCA-job Ph-N2-Cl-B3LYPG-6-31G_dp-MTMO-d009-169-n800
 OpenBabel09051908143D

 14 12  0  0  0  0  0  0  0  0999 V2000
   -0.6601   -0.3234   -0.8998 C   0  0  0  0  0  0  0  0  0  0  0  0
    0.3217    0.6333   -0.5457 C   0  0  0  0  0  0  0  0  0  0  0  0
   -0.3292    1.7407   -0.0651 C   0  0  0  0  0  0  0  0  0  0  0  0
   -1.5366    2.0435    0.1076 C   0  0  0  0  0  0  0  0  0  0  0  0
   -2.5416    1.1258   -0.2295 C   0  0  0  0  0  0  0  0  0  0  0  0
   -2.0373   -0.0834   -0.7464 C   0  0  0  0  0  0  0  0  0  0  0  0
   -0.3249   -1.2753   -1.3039 H   0  0  0  0  0  0  0  0  0  0  0  0
    1.3862    0.4687   -0.6564 H   0  0  0  0  0  0  0  0  0  0  0  0
   -2.1570    3.7347    0.8331 H   0  0  0  0  0  0  0  0  0  0  0  0
   -3.6054    1.3055   -0.1122 H   0  0  0  0  0  0  0  0  0  0  0  0
    5.5257   -6.7784   -3.1665 N   0  0  0  0  0  0  0  0  0  0  0  0
    6.1640   -7.6006   -3.5382 N   0  0  0  0  0  0  0  0  0  0  0  0
   -2.7585    4.8098    1.3022 Cl  0  0  0  0  0  0  0  0  0  0  0  0
   -2.7384   -0.8609   -1.0382 H   0  0  0  0  0  0  0  0  0  0  0  0
  1  6  2  0  0  0  0
  1  2  1  0  0  0  0
  2  3  2  0  0  0  0
  3  4  1  0  0  0  0
  5 10  1  0  0  0  0
  5  4  2  0  0  0  0
  6  5  1  0  0  0  0
  7  1  1  0  0  0  0
  8  2  1  0  0  0  0
  9 13  1  0  0  0  0
 12 11  3  0  0  0  0
 14  6  1  0  0  0  0
M  RAD  2   3   2   4   2
M  END
