Coordinates from ORCA-job Ph-N2-Cl-B3LYPG-6-31G_dp-MTMO-d009-169-n800
 OpenBabel09051908143D

 14 12  0  0  0  0  0  0  0  0999 V2000
   -0.7751   -0.9371   -1.1045 C   0  0  0  0  0  0  0  0  0  0  0  0
    0.4181   -0.2382   -0.8001 C   0  0  0  0  0  0  0  0  0  0  0  0
    0.0637    0.9845   -0.2910 C   0  0  0  0  0  0  0  0  0  0  0  0
   -1.0282    1.5622   -0.0591 C   0  0  0  0  0  0  0  0  0  0  0  0
   -2.2332    0.9037   -0.3466 C   0  0  0  0  0  0  0  0  0  0  0  0
   -2.0496   -0.3843   -0.8850 C   0  0  0  0  0  0  0  0  0  0  0  0
   -0.6903   -1.9368   -1.5224 H   0  0  0  0  0  0  0  0  0  0  0  0
    1.4083   -0.6449   -0.9616 H   0  0  0  0  0  0  0  0  0  0  0  0
   -1.2112    3.3350    0.6755 H   0  0  0  0  0  0  0  0  0  0  0  0
   -3.2189    1.3248   -0.1789 H   0  0  0  0  0  0  0  0  0  0  0  0
    3.9032   -3.8820   -2.1341 N   0  0  0  0  0  0  0  0  0  0  0  0
    4.5729   -4.6929   -2.4738 N   0  0  0  0  0  0  0  0  0  0  0  0
   -1.5256    4.5201    1.1642 Cl  0  0  0  0  0  0  0  0  0  0  0  0
   -2.9257   -0.9742   -1.1413 H   0  0  0  0  0  0  0  0  0  0  0  0
  1  6  2  0  0  0  0
  1  2  1  0  0  0  0
  2  3  2  0  0  0  0
  3  4  1  0  0  0  0
  5 10  1  0  0  0  0
  5  4  2  0  0  0  0
  6  5  1  0  0  0  0
  7  1  1  0  0  0  0
  8  2  1  0  0  0  0
  9 13  1  0  0  0  0
 12 11  3  0  0  0  0
 14  6  1  0  0  0  0
M  RAD  2   3   2   4   2
M  END
