Coordinates from ORCA-job Ph-N2-Cl-B3LYPG-6-31G_dp-MTMO-d009-169-n800
 OpenBabel09051908143D

 14 12  0  0  0  0  0  0  0  0999 V2000
   -1.6525   -1.4779   -1.3187 C   0  0  0  0  0  0  0  0  0  0  0  0
   -0.2416   -1.5754   -1.3269 C   0  0  0  0  0  0  0  0  0  0  0  0
    0.2525   -0.4059   -0.8420 C   0  0  0  0  0  0  0  0  0  0  0  0
   -0.1724    0.7245   -0.3937 C   0  0  0  0  0  0  0  0  0  0  0  0
   -1.5906    0.7917   -0.3983 C   0  0  0  0  0  0  0  0  0  0  0  0
   -2.3032   -0.3196   -0.8641 C   0  0  0  0  0  0  0  0  0  0  0  0
   -2.2271   -2.3284   -1.6758 H   0  0  0  0  0  0  0  0  0  0  0  0
    0.3087   -2.4429   -1.6660 H   0  0  0  0  0  0  0  0  0  0  0  0
    0.5120    1.7390    0.0349 H   0  0  0  0  0  0  0  0  0  0  0  0
   -2.0902    1.6896   -0.0456 H   0  0  0  0  0  0  0  0  0  0  0  0
    2.5936   -0.4311   -0.7921 N   0  0  0  0  0  0  0  0  0  0  0  0
    3.3834    0.2704   -0.4622 N   0  0  0  0  0  0  0  0  0  0  0  0
    1.3246    2.9930    0.5670 Cl  0  0  0  0  0  0  0  0  0  0  0  0
   -3.3887   -0.2871   -0.8752 H   0  0  0  0  0  0  0  0  0  0  0  0
  1  6  1  0  0  0  0
  2  1  2  0  0  0  0
  2  3  1  0  0  0  0
  3  4  2  0  0  0  0
  4  9  1  0  0  0  0
  5  4  1  0  0  0  0
  5 10  1  0  0  0  0
  6  5  2  0  0  0  0
  7  1  1  0  0  0  0
  8  2  1  0  0  0  0
 11 12  3  0  0  0  0
 14  6  1  0  0  0  0
M  RAD  2   3   2  13   2
M  END
