Coordinates from ORCA-job Ph-N2-Cl-B3LYPG-6-31G_dp-MTMO-d009-169-n800
 OpenBabel09051908143D

 14 12  0  0  0  0  0  0  0  0999 V2000
   -1.6768   -1.4968   -1.3274 C   0  0  0  0  0  0  0  0  0  0  0  0
   -0.2634   -1.5732   -1.3222 C   0  0  0  0  0  0  0  0  0  0  0  0
    0.2060   -0.3872   -0.8298 C   0  0  0  0  0  0  0  0  0  0  0  0
   -0.2971    0.6887   -0.4069 C   0  0  0  0  0  0  0  0  0  0  0  0
   -1.7015    0.7874   -0.4030 C   0  0  0  0  0  0  0  0  0  0  0  0
   -2.3672   -0.3550   -0.8828 C   0  0  0  0  0  0  0  0  0  0  0  0
   -2.2354   -2.3562   -1.6897 H   0  0  0  0  0  0  0  0  0  0  0  0
    0.2995   -2.4348   -1.6567 H   0  0  0  0  0  0  0  0  0  0  0  0
    0.6359    2.1542    0.2096 H   0  0  0  0  0  0  0  0  0  0  0  0
   -2.2421    1.6647   -0.0612 H   0  0  0  0  0  0  0  0  0  0  0  0
    2.8565   -0.6336   -0.8661 N   0  0  0  0  0  0  0  0  0  0  0  0
    3.7335   -0.0222   -0.5843 N   0  0  0  0  0  0  0  0  0  0  0  0
    1.2147    3.2610    0.6738 Cl  0  0  0  0  0  0  0  0  0  0  0  0
   -3.4539   -0.3571   -0.9119 H   0  0  0  0  0  0  0  0  0  0  0  0
  1  2  2  0  0  0  0
  1  6  1  0  0  0  0
  2  3  1  0  0  0  0
  3  4  2  0  0  0  0
  4  5  1  0  0  0  0
  5 10  1  0  0  0  0
  6  5  2  0  0  0  0
  7  1  1  0  0  0  0
  8  2  1  0  0  0  0
  9 13  1  0  0  0  0
 11 12  3  0  0  0  0
 14  6  1  0  0  0  0
M  RAD  2   3   2   4   2
M  END
