Coordinates from ORCA-job Ph-N2-Cl-B3LYPG-6-31G_dp-MTMO-d009-169-n800
 OpenBabel09051908143D

 14 12  0  0  0  0  0  0  0  0999 V2000
   -0.6581   -0.3734   -0.9167 C   0  0  0  0  0  0  0  0  0  0  0  0
    0.3389    0.5686   -0.5655 C   0  0  0  0  0  0  0  0  0  0  0  0
   -0.2942    1.6854   -0.0828 C   0  0  0  0  0  0  0  0  0  0  0  0
   -1.4964    2.0061    0.0936 C   0  0  0  0  0  0  0  0  0  0  0  0
   -2.5159    1.1032   -0.2406 C   0  0  0  0  0  0  0  0  0  0  0  0
   -2.0310   -0.1132   -0.7590 C   0  0  0  0  0  0  0  0  0  0  0  0
   -0.3381   -1.3301   -1.3218 H   0  0  0  0  0  0  0  0  0  0  0  0
    1.4005    0.3882   -0.6794 H   0  0  0  0  0  0  0  0  0  0  0  0
   -2.0899    3.7049    0.8219 H   0  0  0  0  0  0  0  0  0  0  0  0
   -3.5766    1.2987   -0.1201 H   0  0  0  0  0  0  0  0  0  0  0  0
    5.3739   -6.5429   -3.0814 N   0  0  0  0  0  0  0  0  0  0  0  0
    6.0148   -7.3637   -3.4518 N   0  0  0  0  0  0  0  0  0  0  0  0
   -2.6746    4.7883    1.2936 Cl  0  0  0  0  0  0  0  0  0  0  0  0
   -2.7445   -0.8802   -1.0488 H   0  0  0  0  0  0  0  0  0  0  0  0
  1  6  2  0  0  0  0
  1  2  1  0  0  0  0
  2  3  2  0  0  0  0
  3  4  1  0  0  0  0
  5 10  1  0  0  0  0
  5  4  2  0  0  0  0
  6  5  1  0  0  0  0
  7  1  1  0  0  0  0
  8  2  1  0  0  0  0
  9 13  1  0  0  0  0
 12 11  3  0  0  0  0
 14  6  1  0  0  0  0
M  RAD  2   3   2   4   2
M  END
