Coordinates from ORCA-job Ph-N2-Cl-B3LYPG-6-31G_dp-MTMO-d009-169-n800
 OpenBabel09051908143D

 14 12  0  0  0  0  0  0  0  0999 V2000
   -1.2944   -1.3012   -1.2494 C   0  0  0  0  0  0  0  0  0  0  0  0
    0.0765   -0.9894   -1.0780 C   0  0  0  0  0  0  0  0  0  0  0  0
    0.1466    0.2742   -0.5522 C   0  0  0  0  0  0  0  0  0  0  0  0
   -0.6947    1.1463   -0.2168 C   0  0  0  0  0  0  0  0  0  0  0  0
   -2.0629    0.8728   -0.3718 C   0  0  0  0  0  0  0  0  0  0  0  0
   -2.3212   -0.4028   -0.9087 C   0  0  0  0  0  0  0  0  0  0  0  0
   -1.5502   -2.2745   -1.6602 H   0  0  0  0  0  0  0  0  0  0  0  0
    0.8860   -1.6612   -1.3318 H   0  0  0  0  0  0  0  0  0  0  0  0
   -0.2693    2.8755    0.5069 H   0  0  0  0  0  0  0  0  0  0  0  0
   -2.8598    1.5613   -0.1103 H   0  0  0  0  0  0  0  0  0  0  0  0
    3.5332   -2.2072   -1.5008 N   0  0  0  0  0  0  0  0  0  0  0  0
    4.6298   -2.3395   -1.5302 N   0  0  0  0  0  0  0  0  0  0  0  0
   -0.1578    4.0909    1.0117 Cl  0  0  0  0  0  0  0  0  0  0  0  0
   -3.3532   -0.7053   -1.0670 H   0  0  0  0  0  0  0  0  0  0  0  0
  1  2  2  0  0  0  0
  1  6  1  0  0  0  0
  2  3  1  0  0  0  0
  3  4  2  0  0  0  0
  5  4  1  0  0  0  0
  5 10  1  0  0  0  0
  6  5  2  0  0  0  0
  7  1  1  0  0  0  0
  8  2  1  0  0  0  0
  9 13  1  0  0  0  0
 12 11  3  0  0  0  0
 14  6  1  0  0  0  0
M  RAD  2   3   2   4   2
M  END
