Coordinates from ORCA-job Ph-N2-Cl-B3LYPG-6-31G_dp-MTMO-d009-169-n800
 OpenBabel09051908143D

 14 14  0  0  0  0  0  0  0  0999 V2000
   -1.5330   -1.4859   -1.3155 C   0  0  0  0  0  0  0  0  0  0  0  0
   -0.1435   -1.4104   -1.2531 C   0  0  0  0  0  0  0  0  0  0  0  0
    0.4272   -0.2357   -0.7673 C   0  0  0  0  0  0  0  0  0  0  0  0
   -0.3103    0.8674   -0.3422 C   0  0  0  0  0  0  0  0  0  0  0  0
   -1.7003    0.7644   -0.4162 C   0  0  0  0  0  0  0  0  0  0  0  0
   -2.3073   -0.3993   -0.8975 C   0  0  0  0  0  0  0  0  0  0  0  0
   -2.0082   -2.3873   -1.6887 H   0  0  0  0  0  0  0  0  0  0  0  0
    0.4913   -2.2306   -1.5684 H   0  0  0  0  0  0  0  0  0  0  0  0
    0.1926    1.7533    0.0256 H   0  0  0  0  0  0  0  0  0  0  0  0
   -2.3095    1.6029   -0.0939 H   0  0  0  0  0  0  0  0  0  0  0  0
    1.9476   -0.2488   -0.7385 N   0  0  0  0  0  0  0  0  0  0  0  0
    2.8517    0.4214   -0.4372 N   0  0  0  0  0  0  0  0  0  0  0  0
    2.5008    2.3881    0.3816 Cl  0  0  0  0  0  0  0  0  0  0  0  0
   -3.3905   -0.4596   -0.9476 H   0  0  0  0  0  0  0  0  0  0  0  0
  1  2  2  0  0  0  0
  1  6  1  0  0  0  0
  2  3  1  0  0  0  0
  3 11  1  0  0  0  0
  3  4  2  0  0  0  0
  4  9  1  0  0  0  0
  5  4  1  0  0  0  0
  5 10  1  0  0  0  0
  6  5  2  0  0  0  0
  7  1  1  0  0  0  0
  8  2  1  0  0  0  0
 11 12  2  0  0  0  0
 12 13  1  0  0  0  0
 14  6  1  0  0  0  0
M  END
