Coordinates from ORCA-job Ph-N2-Cl-B3LYPG-6-31G_dp-MTMO-d009-169-n800
 OpenBabel09051908143D

 14 12  0  0  0  0  0  0  0  0999 V2000
   -0.6479   -0.5419   -0.9735 C   0  0  0  0  0  0  0  0  0  0  0  0
    0.3974    0.3503   -0.6327 C   0  0  0  0  0  0  0  0  0  0  0  0
   -0.1755    1.4967   -0.1440 C   0  0  0  0  0  0  0  0  0  0  0  0
   -1.3588    1.8755    0.0447 C   0  0  0  0  0  0  0  0  0  0  0  0
   -2.4243    1.0235   -0.2790 C   0  0  0  0  0  0  0  0  0  0  0  0
   -2.0048   -0.2150   -0.8020 C   0  0  0  0  0  0  0  0  0  0  0  0
   -0.3792   -1.5127   -1.3821 H   0  0  0  0  0  0  0  0  0  0  0  0
    1.4476    0.1184   -0.7577 H   0  0  0  0  0  0  0  0  0  0  0  0
   -1.8629    3.5975    0.7810 H   0  0  0  0  0  0  0  0  0  0  0  0
   -3.4728    1.2706   -0.1479 H   0  0  0  0  0  0  0  0  0  0  0  0
    4.8486   -5.7298   -2.7895 N   0  0  0  0  0  0  0  0  0  0  0  0
    5.4903   -6.5532   -3.1527 N   0  0  0  0  0  0  0  0  0  0  0  0
   -2.3912    4.7062    1.2609 Cl  0  0  0  0  0  0  0  0  0  0  0  0
   -2.7577   -0.9462   -1.0844 H   0  0  0  0  0  0  0  0  0  0  0  0
  1  6  2  0  0  0  0
  1  2  1  0  0  0  0
  2  3  2  0  0  0  0
  3  4  1  0  0  0  0
  5 10  1  0  0  0  0
  5  4  2  0  0  0  0
  6  5  1  0  0  0  0
  7  1  1  0  0  0  0
  8  2  1  0  0  0  0
  9 13  1  0  0  0  0
 12 11  3  0  0  0  0
 14  6  1  0  0  0  0
M  RAD  2   3   2   4   2
M  END
