Coordinates from ORCA-job Ph-N2-Cl-B3LYPG-6-31G_dp-MTMO-d009-169-n800
 OpenBabel09051908143D

 14 12  0  0  0  0  0  0  0  0999 V2000
   -0.8071   -1.0020   -1.1263 C   0  0  0  0  0  0  0  0  0  0  0  0
    0.4109   -0.3430   -0.8307 C   0  0  0  0  0  0  0  0  0  0  0  0
    0.1001    0.8903   -0.3187 C   0  0  0  0  0  0  0  0  0  0  0  0
   -0.9701    1.5042   -0.0783 C   0  0  0  0  0  0  0  0  0  0  0  0
   -2.1981    0.8854   -0.3572 C   0  0  0  0  0  0  0  0  0  0  0  0
   -2.0611   -0.4077   -0.8971 C   0  0  0  0  0  0  0  0  0  0  0  0
   -0.7584   -2.0038   -1.5449 H   0  0  0  0  0  0  0  0  0  0  0  0
    1.3856   -0.7827   -1.0003 H   0  0  0  0  0  0  0  0  0  0  0  0
   -1.0901    3.2813    0.6542 H   0  0  0  0  0  0  0  0  0  0  0  0
   -3.1681    1.3387   -0.1823 H   0  0  0  0  0  0  0  0  0  0  0  0
    3.7305   -3.5811   -2.0227 N   0  0  0  0  0  0  0  0  0  0  0  0
    4.4548   -4.3487   -2.3506 N   0  0  0  0  0  0  0  0  0  0  0  0
   -1.3621    4.4771    1.1430 Cl  0  0  0  0  0  0  0  0  0  0  0  0
   -2.9580   -0.9682   -1.1471 H   0  0  0  0  0  0  0  0  0  0  0  0
  1  6  2  0  0  0  0
  1  2  1  0  0  0  0
  2  3  2  0  0  0  0
  3  4  1  0  0  0  0
  5 10  1  0  0  0  0
  5  4  2  0  0  0  0
  6  5  1  0  0  0  0
  7  1  1  0  0  0  0
  8  2  1  0  0  0  0
  9 13  1  0  0  0  0
 12 11  3  0  0  0  0
 14  6  1  0  0  0  0
M  RAD  2   3   2   4   2
M  END
