Coordinates from ORCA-job Ph-N2-Cl-B3LYPG-6-31G_dp-MTMO-d009-169-n800
 OpenBabel09051908143D

 14 12  0  0  0  0  0  0  0  0999 V2000
   -0.7162    0.0175   -0.7976 C   0  0  0  0  0  0  0  0  0  0  0  0
    0.1772    1.0527   -0.4304 C   0  0  0  0  0  0  0  0  0  0  0  0
   -0.5706    2.0997    0.0447 C   0  0  0  0  0  0  0  0  0  0  0  0
   -1.8010    2.2987    0.2042 C   0  0  0  0  0  0  0  0  0  0  0  0
   -2.7211    1.3004   -0.1459 C   0  0  0  0  0  0  0  0  0  0  0  0
   -2.1103    0.1398   -0.6595 C   0  0  0  0  0  0  0  0  0  0  0  0
   -0.2975   -0.9021   -1.1992 H   0  0  0  0  0  0  0  0  0  0  0  0
    1.2531    0.9789   -0.5290 H   0  0  0  0  0  0  0  0  0  0  0  0
   -2.5723    3.9305    0.9241 H   0  0  0  0  0  0  0  0  0  0  0  0
   -3.7976    1.3887   -0.0401 H   0  0  0  0  0  0  0  0  0  0  0  0
    6.6179   -8.3987   -3.7431 N   0  0  0  0  0  0  0  0  0  0  0  0
    7.2559   -9.2216   -4.1139 N   0  0  0  0  0  0  0  0  0  0  0  0
   -3.2690    4.9489    1.3875 Cl  0  0  0  0  0  0  0  0  0  0  0  0
   -2.7399   -0.6935   -0.9607 H   0  0  0  0  0  0  0  0  0  0  0  0
  1  6  2  0  0  0  0
  1  2  1  0  0  0  0
  2  3  2  0  0  0  0
  3  4  1  0  0  0  0
  5 10  1  0  0  0  0
  5  4  2  0  0  0  0
  6  5  1  0  0  0  0
  7  1  1  0  0  0  0
  8  2  1  0  0  0  0
  9 13  1  0  0  0  0
 12 11  3  0  0  0  0
 14  6  1  0  0  0  0
M  RAD  2   3   2   4   2
M  END
