Coordinates from ORCA-job Ph-N2-Cl-B3LYPG-6-31G_dp-MTMO-d009-169-n800
 OpenBabel09051908143D

 14 12  0  0  0  0  0  0  0  0999 V2000
   -0.6490   -0.5503   -0.9769 C   0  0  0  0  0  0  0  0  0  0  0  0
    0.3992    0.3387   -0.6369 C   0  0  0  0  0  0  0  0  0  0  0  0
   -0.1698    1.4867   -0.1474 C   0  0  0  0  0  0  0  0  0  0  0  0
   -1.3518    1.8690    0.0425 C   0  0  0  0  0  0  0  0  0  0  0  0
   -2.4201    1.0202   -0.2805 C   0  0  0  0  0  0  0  0  0  0  0  0
   -2.0048   -0.2194   -0.8040 C   0  0  0  0  0  0  0  0  0  0  0  0
   -0.3836   -1.5218   -1.3859 H   0  0  0  0  0  0  0  0  0  0  0  0
    1.4486    0.1038   -0.7629 H   0  0  0  0  0  0  0  0  0  0  0  0
   -1.8503    3.5921    0.7795 H   0  0  0  0  0  0  0  0  0  0  0  0
   -3.4678    1.2704   -0.1483 H   0  0  0  0  0  0  0  0  0  0  0  0
    4.8256   -5.6900   -2.7747 N   0  0  0  0  0  0  0  0  0  0  0  0
    5.4674   -6.5135   -3.1374 N   0  0  0  0  0  0  0  0  0  0  0  0
   -2.3749    4.7023    1.2601 Cl  0  0  0  0  0  0  0  0  0  0  0  0
   -2.7601   -0.9483   -1.0859 H   0  0  0  0  0  0  0  0  0  0  0  0
  1  6  2  0  0  0  0
  1  2  1  0  0  0  0
  2  3  2  0  0  0  0
  3  4  1  0  0  0  0
  5 10  1  0  0  0  0
  5  4  2  0  0  0  0
  6  5  1  0  0  0  0
  7  1  1  0  0  0  0
  8  2  1  0  0  0  0
  9 13  1  0  0  0  0
 12 11  3  0  0  0  0
 14  6  1  0  0  0  0
M  RAD  2   3   2   4   2
M  END
