Coordinates from ORCA-job Ph-N2-Cl-B3LYPG-6-31G_dp-MTMO-d009-169-n800
 OpenBabel09051908143D

 14 12  0  0  0  0  0  0  0  0999 V2000
   -0.7555   -0.8892   -1.0887 C   0  0  0  0  0  0  0  0  0  0  0  0
    0.4200   -0.1632   -0.7786 C   0  0  0  0  0  0  0  0  0  0  0  0
    0.0357    1.0514   -0.2717 C   0  0  0  0  0  0  0  0  0  0  0  0
   -1.0704    1.6036   -0.0455 C   0  0  0  0  0  0  0  0  0  0  0  0
   -2.2587    0.9181   -0.3385 C   0  0  0  0  0  0  0  0  0  0  0  0
   -2.0433   -0.3656   -0.8755 C   0  0  0  0  0  0  0  0  0  0  0  0
   -0.6459   -1.8868   -1.5059 H   0  0  0  0  0  0  0  0  0  0  0  0
    1.4201   -0.5470   -0.9351 H   0  0  0  0  0  0  0  0  0  0  0  0
   -1.2962    3.3723    0.6904 H   0  0  0  0  0  0  0  0  0  0  0  0
   -3.2546    1.3167   -0.1756 H   0  0  0  0  0  0  0  0  0  0  0  0
    4.0226   -4.1122   -2.2166 N   0  0  0  0  0  0  0  0  0  0  0  0
    4.6787   -4.9323   -2.5609 N   0  0  0  0  0  0  0  0  0  0  0  0
   -1.6394    4.5493    1.1791 Cl  0  0  0  0  0  0  0  0  0  0  0  0
   -2.9044   -0.9753   -1.1358 H   0  0  0  0  0  0  0  0  0  0  0  0
  1  6  2  0  0  0  0
  1  2  1  0  0  0  0
  2  3  2  0  0  0  0
  3  4  1  0  0  0  0
  5 10  1  0  0  0  0
  5  4  2  0  0  0  0
  6  5  1  0  0  0  0
  7  1  1  0  0  0  0
  8  2  1  0  0  0  0
  9 13  1  0  0  0  0
 12 11  3  0  0  0  0
 14  6  1  0  0  0  0
M  RAD  2   3   2   4   2
M  END
