Coordinates from ORCA-job Ph-N2-Cl-B3LYPG-6-31G_dp-MTMO-d009-169-n800
 OpenBabel09051908143D

 14 12  0  0  0  0  0  0  0  0999 V2000
   -0.6773   -0.6643   -1.0179 C   0  0  0  0  0  0  0  0  0  0  0  0
    0.4138    0.1754   -0.6877 C   0  0  0  0  0  0  0  0  0  0  0  0
   -0.0977    1.3465   -0.1901 C   0  0  0  0  0  0  0  0  0  0  0  0
   -1.2585    1.7828    0.0136 C   0  0  0  0  0  0  0  0  0  0  0  0
   -2.3675    0.9836   -0.2996 C   0  0  0  0  0  0  0  0  0  0  0  0
   -2.0148   -0.2723   -0.8297 C   0  0  0  0  0  0  0  0  0  0  0  0
   -0.4608   -1.6460   -1.4314 H   0  0  0  0  0  0  0  0  0  0  0  0
    1.4499   -0.1066   -0.8255 H   0  0  0  0  0  0  0  0  0  0  0  0
   -1.6717    3.5228    0.7549 H   0  0  0  0  0  0  0  0  0  0  0  0
   -3.4011    1.2809   -0.1558 H   0  0  0  0  0  0  0  0  0  0  0  0
    4.5471   -5.1650   -2.5852 N   0  0  0  0  0  0  0  0  0  0  0  0
    5.1932   -5.9879   -2.9416 N   0  0  0  0  0  0  0  0  0  0  0  0
   -2.1405    4.6553    1.2419 Cl  0  0  0  0  0  0  0  0  0  0  0  0
   -2.8055   -0.9654   -1.1047 H   0  0  0  0  0  0  0  0  0  0  0  0
  1  6  2  0  0  0  0
  1  2  1  0  0  0  0
  2  3  2  0  0  0  0
  3  4  1  0  0  0  0
  5 10  1  0  0  0  0
  5  4  2  0  0  0  0
  6  5  1  0  0  0  0
  7  1  1  0  0  0  0
  8  2  1  0  0  0  0
  9 13  1  0  0  0  0
 12 11  3  0  0  0  0
 14  6  1  0  0  0  0
M  RAD  2   3   2   4   2
M  END
