Coordinates from ORCA-job Ph-N2-Cl-B3LYPG-6-31G_dp-MTMO-d009-169-n800
 OpenBabel09051908143D

 14 12  0  0  0  0  0  0  0  0999 V2000
   -0.8590    0.3968   -0.7079 C   0  0  0  0  0  0  0  0  0  0  0  0
   -0.0339    1.4851   -0.3336 C   0  0  0  0  0  0  0  0  0  0  0  0
   -0.8471    2.4759    0.1542 C   0  0  0  0  0  0  0  0  0  0  0  0
   -2.0872    2.5924    0.3199 C   0  0  0  0  0  0  0  0  0  0  0  0
   -2.9411    1.5391   -0.0368 C   0  0  0  0  0  0  0  0  0  0  0  0
   -2.2576    0.4261   -0.5638 C   0  0  0  0  0  0  0  0  0  0  0  0
   -0.3828   -0.4898   -1.1193 H   0  0  0  0  0  0  0  0  0  0  0  0
    1.0441    1.4831   -0.4367 H   0  0  0  0  0  0  0  0  0  0  0  0
   -2.9611    4.1602    1.0636 H   0  0  0  0  0  0  0  0  0  0  0  0
   -4.0207    1.5554    0.0738 H   0  0  0  0  0  0  0  0  0  0  0  0
    7.9848  -10.2717   -4.3861 N   0  0  0  0  0  0  0  0  0  0  0  0
    8.6237  -11.0931   -4.7587 N   0  0  0  0  0  0  0  0  0  0  0  0
   -3.7212    5.1242    1.5437 Cl  0  0  0  0  0  0  0  0  0  0  0  0
   -2.8323   -0.4439   -0.8711 H   0  0  0  0  0  0  0  0  0  0  0  0
  1  6  2  0  0  0  0
  1  2  1  0  0  0  0
  2  3  2  0  0  0  0
  3  4  1  0  0  0  0
  5 10  1  0  0  0  0
  5  4  2  0  0  0  0
  6  5  1  0  0  0  0
  7  1  1  0  0  0  0
  8  2  1  0  0  0  0
  9 13  1  0  0  0  0
 12 11  3  0  0  0  0
 14  6  1  0  0  0  0
M  RAD  2   3   2   4   2
M  END
