Coordinates from ORCA-job Ph-N2-Cl-B3LYPG-6-31G_dp-MTMO-d009-169-n800
 OpenBabel09051908143D

 14 12  0  0  0  0  0  0  0  0999 V2000
   -0.7059   -0.0235   -0.8083 C   0  0  0  0  0  0  0  0  0  0  0  0
    0.1968    1.0040   -0.4421 C   0  0  0  0  0  0  0  0  0  0  0  0
   -0.5416    2.0578    0.0326 C   0  0  0  0  0  0  0  0  0  0  0  0
   -1.7701    2.2684    0.1925 C   0  0  0  0  0  0  0  0  0  0  0  0
   -2.6989    1.2777   -0.1567 C   0  0  0  0  0  0  0  0  0  0  0  0
   -2.0989    0.1114   -0.6697 C   0  0  0  0  0  0  0  0  0  0  0  0
   -0.2956   -0.9469   -1.2094 H   0  0  0  0  0  0  0  0  0  0  0  0
    1.2720    0.9210   -0.5408 H   0  0  0  0  0  0  0  0  0  0  0  0
   -2.5260    3.9073    0.9111 H   0  0  0  0  0  0  0  0  0  0  0  0
   -3.7747    1.3755   -0.0508 H   0  0  0  0  0  0  0  0  0  0  0  0
    6.4812   -8.2031   -3.6751 N   0  0  0  0  0  0  0  0  0  0  0  0
    7.1193   -9.0259   -4.0460 N   0  0  0  0  0  0  0  0  0  0  0  0
   -3.2131    4.9326    1.3738 Cl  0  0  0  0  0  0  0  0  0  0  0  0
   -2.7360   -0.7164   -0.9701 H   0  0  0  0  0  0  0  0  0  0  0  0
  1  6  2  0  0  0  0
  1  2  1  0  0  0  0
  2  3  2  0  0  0  0
  3  4  1  0  0  0  0
  5 10  1  0  0  0  0
  5  4  2  0  0  0  0
  6  5  1  0  0  0  0
  7  1  1  0  0  0  0
  8  2  1  0  0  0  0
  9 13  1  0  0  0  0
 12 11  3  0  0  0  0
 14  6  1  0  0  0  0
M  RAD  2   3   2   4   2
M  END
