Coordinates from ORCA-job Ph-N2-Cl-B3LYPG-6-31G_dp-MTMO-d009-169-n800
 OpenBabel09051908143D

 14 12  0  0  0  0  0  0  0  0999 V2000
   -0.6839   -0.6827   -1.0234 C   0  0  0  0  0  0  0  0  0  0  0  0
    0.4145    0.1481   -0.6946 C   0  0  0  0  0  0  0  0  0  0  0  0
   -0.0870    1.3232   -0.1962 C   0  0  0  0  0  0  0  0  0  0  0  0
   -1.2438    1.7692    0.0091 C   0  0  0  0  0  0  0  0  0  0  0  0
   -2.3596    0.9790   -0.3027 C   0  0  0  0  0  0  0  0  0  0  0  0
   -2.0179   -0.2798   -0.8334 C   0  0  0  0  0  0  0  0  0  0  0  0
   -0.4760   -1.6660   -1.4372 H   0  0  0  0  0  0  0  0  0  0  0  0
    1.4481   -0.1423   -0.8338 H   0  0  0  0  0  0  0  0  0  0  0  0
   -1.6419    3.5121    0.7501 H   0  0  0  0  0  0  0  0  0  0  0  0
   -3.3906    1.2846   -0.1576 H   0  0  0  0  0  0  0  0  0  0  0  0
    4.5072   -5.0829   -2.5569 N   0  0  0  0  0  0  0  0  0  0  0  0
    5.1549   -5.9051   -2.9122 N   0  0  0  0  0  0  0  0  0  0  0  0
   -2.1008    4.6487    1.2374 Cl  0  0  0  0  0  0  0  0  0  0  0  0
   -2.8146   -0.9663   -1.1074 H   0  0  0  0  0  0  0  0  0  0  0  0
  1  6  2  0  0  0  0
  1  2  1  0  0  0  0
  2  3  2  0  0  0  0
  3  4  1  0  0  0  0
  5 10  1  0  0  0  0
  5  4  2  0  0  0  0
  6  5  1  0  0  0  0
  7  1  1  0  0  0  0
  8  2  1  0  0  0  0
  9 13  1  0  0  0  0
 12 11  3  0  0  0  0
 14  6  1  0  0  0  0
M  RAD  2   3   2   4   2
M  END
