Coordinates from ORCA-job Ph-N2-Cl-B3LYPG-6-31G_dp-MTMO-d009-169-n800
 OpenBabel09051908143D

 14 12  0  0  0  0  0  0  0  0999 V2000
   -0.7420   -0.8528   -1.0757 C   0  0  0  0  0  0  0  0  0  0  0  0
    0.4200   -0.1072   -0.7614 C   0  0  0  0  0  0  0  0  0  0  0  0
    0.0138    1.1012   -0.2567 C   0  0  0  0  0  0  0  0  0  0  0  0
   -1.1024    1.6347   -0.0353 C   0  0  0  0  0  0  0  0  0  0  0  0
   -2.2780    0.9298   -0.3327 C   0  0  0  0  0  0  0  0  0  0  0  0
   -2.0392   -0.3505   -0.8680 C   0  0  0  0  0  0  0  0  0  0  0  0
   -0.6143   -1.8486   -1.4920 H   0  0  0  0  0  0  0  0  0  0  0  0
    1.4269   -0.4744   -0.9137 H   0  0  0  0  0  0  0  0  0  0  0  0
   -1.3598    3.4000    0.7010 H   0  0  0  0  0  0  0  0  0  0  0  0
   -3.2810    1.3118   -0.1740 H   0  0  0  0  0  0  0  0  0  0  0  0
    4.1128   -4.2892   -2.2802 N   0  0  0  0  0  0  0  0  0  0  0  0
    4.7649   -5.1110   -2.6280 N   0  0  0  0  0  0  0  0  0  0  0  0
   -1.7242    4.5707    1.1892 Cl  0  0  0  0  0  0  0  0  0  0  0  0
   -2.8891   -0.9746   -1.1314 H   0  0  0  0  0  0  0  0  0  0  0  0
  1  6  2  0  0  0  0
  1  2  1  0  0  0  0
  2  3  2  0  0  0  0
  3  4  1  0  0  0  0
  5 10  1  0  0  0  0
  5  4  2  0  0  0  0
  6  5  1  0  0  0  0
  7  1  1  0  0  0  0
  8  2  1  0  0  0  0
  9 13  1  0  0  0  0
 12 11  3  0  0  0  0
 14  6  1  0  0  0  0
M  RAD  2   3   2   4   2
M  END
