Coordinates from ORCA-job Ph-N2-Cl-B3LYPG-6-31G_dp-MTMO-d009-169-n800
 OpenBabel09051908143D

 14 12  0  0  0  0  0  0  0  0999 V2000
   -1.4801   -1.3847   -1.2767 C   0  0  0  0  0  0  0  0  0  0  0  0
   -0.0797   -1.2240   -1.1422 C   0  0  0  0  0  0  0  0  0  0  0  0
    0.1437    0.0258   -0.6252 C   0  0  0  0  0  0  0  0  0  0  0  0
   -0.5897    0.9843   -0.2733 C   0  0  0  0  0  0  0  0  0  0  0  0
   -1.9830    0.8629   -0.3912 C   0  0  0  0  0  0  0  0  0  0  0  0
   -2.3933   -0.3783   -0.9144 C   0  0  0  0  0  0  0  0  0  0  0  0
   -1.8515   -2.3253   -1.6756 H   0  0  0  0  0  0  0  0  0  0  0  0
    0.6454   -1.9801   -1.4133 H   0  0  0  0  0  0  0  0  0  0  0  0
    0.0426    2.6599    0.4328 H   0  0  0  0  0  0  0  0  0  0  0  0
   -2.6927    1.6354   -0.1130 H   0  0  0  0  0  0  0  0  0  0  0  0
    3.5071   -1.7088   -1.2979 N   0  0  0  0  0  0  0  0  0  0  0  0
    4.5945   -1.5171   -1.2529 N   0  0  0  0  0  0  0  0  0  0  0  0
    0.3014    3.8560    0.9285 Cl  0  0  0  0  0  0  0  0  0  0  0  0
   -3.4561   -0.5662   -1.0444 H   0  0  0  0  0  0  0  0  0  0  0  0
  1  2  2  0  0  0  0
  1  6  1  0  0  0  0
  2  3  1  0  0  0  0
  3  4  2  0  0  0  0
  5  4  1  0  0  0  0
  5 10  1  0  0  0  0
  6  5  2  0  0  0  0
  7  1  1  0  0  0  0
  8  2  1  0  0  0  0
  9 13  1  0  0  0  0
 11 12  3  0  0  0  0
 14  6  1  0  0  0  0
M  RAD  2   3   2   4   2
M  END
