Coordinates from ORCA-job Ph-N2-Cl-B3LYPG-6-31G_dp-MTMO-d009-169-n800
 OpenBabel09051908143D

 14 12  0  0  0  0  0  0  0  0999 V2000
   -1.6682   -1.4980   -1.3275 C   0  0  0  0  0  0  0  0  0  0  0  0
   -0.2552   -1.5748   -1.3223 C   0  0  0  0  0  0  0  0  0  0  0  0
    0.2145   -0.3892   -0.8304 C   0  0  0  0  0  0  0  0  0  0  0  0
   -0.2836    0.6898   -0.4065 C   0  0  0  0  0  0  0  0  0  0  0  0
   -1.6890    0.7857   -0.4038 C   0  0  0  0  0  0  0  0  0  0  0  0
   -2.3571   -0.3553   -0.8829 C   0  0  0  0  0  0  0  0  0  0  0  0
   -2.2273   -2.3572   -1.6895 H   0  0  0  0  0  0  0  0  0  0  0  0
    0.3088   -2.4359   -1.6563 H   0  0  0  0  0  0  0  0  0  0  0  0
    0.6458    2.1362    0.2031 H   0  0  0  0  0  0  0  0  0  0  0  0
   -2.2287    1.6637   -0.0621 H   0  0  0  0  0  0  0  0  0  0  0  0
    2.7869   -0.6115   -0.8582 N   0  0  0  0  0  0  0  0  0  0  0  0
    3.6600    0.0057   -0.5768 N   0  0  0  0  0  0  0  0  0  0  0  0
    1.2454    3.2365    0.6660 Cl  0  0  0  0  0  0  0  0  0  0  0  0
   -3.4438   -0.3558   -0.9114 H   0  0  0  0  0  0  0  0  0  0  0  0
  1  2  2  0  0  0  0
  1  6  1  0  0  0  0
  2  3  1  0  0  0  0
  3  4  2  0  0  0  0
  4  5  1  0  0  0  0
  5 10  1  0  0  0  0
  6  5  2  0  0  0  0
  7  1  1  0  0  0  0
  8  2  1  0  0  0  0
  9 13  1  0  0  0  0
 11 12  3  0  0  0  0
 14  6  1  0  0  0  0
M  RAD  2   3   2   4   2
M  END
