Coordinates from ORCA-job Ph-N2-Cl-B3LYPG-6-31G_dp-MTMO-d009-169-n800
 OpenBabel09051908143D

 14 13  0  0  0  0  0  0  0  0999 V2000
   -1.4805   -1.4910   -1.2945 C   0  0  0  0  0  0  0  0  0  0  0  0
   -0.1048   -1.3916   -1.2510 C   0  0  0  0  0  0  0  0  0  0  0  0
    0.5626   -0.1924   -0.7781 C   0  0  0  0  0  0  0  0  0  0  0  0
   -0.3106    0.9002   -0.3628 C   0  0  0  0  0  0  0  0  0  0  0  0
   -1.6860    0.7748   -0.4296 C   0  0  0  0  0  0  0  0  0  0  0  0
   -2.2748   -0.4095   -0.8877 C   0  0  0  0  0  0  0  0  0  0  0  0
   -1.9455   -2.4057   -1.6484 H   0  0  0  0  0  0  0  0  0  0  0  0
    0.5293   -2.2168   -1.5629 H   0  0  0  0  0  0  0  0  0  0  0  0
    0.1748    1.8044   -0.0075 H   0  0  0  0  0  0  0  0  0  0  0  0
   -2.3124    1.6053   -0.1183 H   0  0  0  0  0  0  0  0  0  0  0  0
    1.6201   -0.1263   -0.7389 N   0  0  0  0  0  0  0  0  0  0  0  0
    2.6992    0.2899   -0.5315 N   0  0  0  0  0  0  0  0  0  0  0  0
    2.5945    2.2910    0.4821 Cl  0  0  0  0  0  0  0  0  0  0  0  0
   -3.3572   -0.4924   -0.9298 H   0  0  0  0  0  0  0  0  0  0  0  0
  1  2  2  0  0  0  0
  1  6  1  0  0  0  0
  2  3  1  0  0  0  0
  3 11  1  0  0  0  0
  3  4  2  0  0  0  0
  4  9  1  0  0  0  0
  5  4  1  0  0  0  0
  5 10  1  0  0  0  0
  6  5  2  0  0  0  0
  7  1  1  0  0  0  0
  8  2  1  0  0  0  0
 11 12  1  0  0  0  0
 14  6  1  0  0  0  0
M  RAD  3  11   2  12   3  13   2
M  END
