Coordinates from ORCA-job Ph-N2-Cl-B3LYPG-6-31G_dp-MTMO-d009-169-n800
 OpenBabel09051908143D

 14 12  0  0  0  0  0  0  0  0999 V2000
   -0.7668   -0.9176   -1.0976 C   0  0  0  0  0  0  0  0  0  0  0  0
    0.4191   -0.2074   -0.7905 C   0  0  0  0  0  0  0  0  0  0  0  0
    0.0522    1.0121   -0.2826 C   0  0  0  0  0  0  0  0  0  0  0  0
   -1.0457    1.5793   -0.0534 C   0  0  0  0  0  0  0  0  0  0  0  0
   -2.2437    0.9097   -0.3436 C   0  0  0  0  0  0  0  0  0  0  0  0
   -2.0469   -0.3767   -0.8812 C   0  0  0  0  0  0  0  0  0  0  0  0
   -0.6717   -1.9165   -1.5151 H   0  0  0  0  0  0  0  0  0  0  0  0
    1.4135   -0.6047   -0.9496 H   0  0  0  0  0  0  0  0  0  0  0  0
   -1.2464    3.3506    0.6815 H   0  0  0  0  0  0  0  0  0  0  0  0
   -3.2338    1.3215   -0.1782 H   0  0  0  0  0  0  0  0  0  0  0  0
    3.9533   -3.9757   -2.1689 N   0  0  0  0  0  0  0  0  0  0  0  0
    4.6152   -4.7924   -2.5103 N   0  0  0  0  0  0  0  0  0  0  0  0
   -1.5728    4.5326    1.1700 Cl  0  0  0  0  0  0  0  0  0  0  0  0
   -2.9168   -0.9748   -1.1393 H   0  0  0  0  0  0  0  0  0  0  0  0
  1  6  2  0  0  0  0
  1  2  1  0  0  0  0
  2  3  2  0  0  0  0
  3  4  1  0  0  0  0
  5 10  1  0  0  0  0
  5  4  2  0  0  0  0
  6  5  1  0  0  0  0
  7  1  1  0  0  0  0
  8  2  1  0  0  0  0
  9 13  1  0  0  0  0
 12 11  3  0  0  0  0
 14  6  1  0  0  0  0
M  RAD  2   3   2   4   2
M  END
