Coordinates from ORCA-job Ph-N2-Cl-B3LYPG-6-31G_dp-MTMO-d009-169-n800
 OpenBabel09051908143D

 14 12  0  0  0  0  0  0  0  0999 V2000
   -0.8058   -0.9992   -1.1253 C   0  0  0  0  0  0  0  0  0  0  0  0
    0.4112   -0.3385   -0.8294 C   0  0  0  0  0  0  0  0  0  0  0  0
    0.0985    0.8944   -0.3175 C   0  0  0  0  0  0  0  0  0  0  0  0
   -0.9727    1.5068   -0.0775 C   0  0  0  0  0  0  0  0  0  0  0  0
   -2.1997    0.8862   -0.3567 C   0  0  0  0  0  0  0  0  0  0  0  0
   -2.0606   -0.4067   -0.8966 C   0  0  0  0  0  0  0  0  0  0  0  0
   -0.7555   -2.0009   -1.5439 H   0  0  0  0  0  0  0  0  0  0  0  0
    1.3866   -0.7768   -0.9986 H   0  0  0  0  0  0  0  0  0  0  0  0
   -1.0954    3.2837    0.6552 H   0  0  0  0  0  0  0  0  0  0  0  0
   -3.1704    1.3381   -0.1821 H   0  0  0  0  0  0  0  0  0  0  0  0
    3.7386   -3.5937   -2.0277 N   0  0  0  0  0  0  0  0  0  0  0  0
    4.4597   -4.3642   -2.3559 N   0  0  0  0  0  0  0  0  0  0  0  0
   -1.3692    4.4791    1.1439 Cl  0  0  0  0  0  0  0  0  0  0  0  0
   -2.9566   -0.9685   -1.1468 H   0  0  0  0  0  0  0  0  0  0  0  0
  1  6  2  0  0  0  0
  1  2  1  0  0  0  0
  2  3  2  0  0  0  0
  3  4  1  0  0  0  0
  5 10  1  0  0  0  0
  5  4  2  0  0  0  0
  6  5  1  0  0  0  0
  7  1  1  0  0  0  0
  8  2  1  0  0  0  0
  9 13  1  0  0  0  0
 12 11  3  0  0  0  0
 14  6  1  0  0  0  0
M  RAD  2   3   2   4   2
M  END
