Coordinates from ORCA-job Ph-N2-Cl-B3LYPG-6-31G_dp-MTMO-d009-169-n800
 OpenBabel09051908143D

 14 12  0  0  0  0  0  0  0  0999 V2000
   -1.7019   -1.4858   -1.3233 C   0  0  0  0  0  0  0  0  0  0  0  0
   -0.2873   -1.5455   -1.3026 C   0  0  0  0  0  0  0  0  0  0  0  0
    0.1653   -0.3525   -0.8067 C   0  0  0  0  0  0  0  0  0  0  0  0
   -0.3692    0.7096   -0.3948 C   0  0  0  0  0  0  0  0  0  0  0  0
   -1.7715    0.8011   -0.4024 C   0  0  0  0  0  0  0  0  0  0  0  0
   -2.4135   -0.3532   -0.8888 C   0  0  0  0  0  0  0  0  0  0  0  0
   -2.2459   -2.3526   -1.6902 H   0  0  0  0  0  0  0  0  0  0  0  0
    0.2869   -2.4023   -1.6303 H   0  0  0  0  0  0  0  0  0  0  0  0
    0.5583    2.2329    0.2480 H   0  0  0  0  0  0  0  0  0  0  0  0
   -2.3273    1.6715   -0.0683 H   0  0  0  0  0  0  0  0  0  0  0  0
    3.1583   -0.7617   -0.9107 N   0  0  0  0  0  0  0  0  0  0  0  0
    4.0875   -0.2108   -0.6772 N   0  0  0  0  0  0  0  0  0  0  0  0
    1.0687    3.3602    0.7197 Cl  0  0  0  0  0  0  0  0  0  0  0  0
   -3.4997   -0.3710   -0.9311 H   0  0  0  0  0  0  0  0  0  0  0  0
  1  2  2  0  0  0  0
  1  6  1  0  0  0  0
  2  3  1  0  0  0  0
  3  4  2  0  0  0  0
  5  4  1  0  0  0  0
  5 10  1  0  0  0  0
  6  5  2  0  0  0  0
  7  1  1  0  0  0  0
  8  2  1  0  0  0  0
  9 13  1  0  0  0  0
 11 12  3  0  0  0  0
 14  6  1  0  0  0  0
M  RAD  2   3   2   4   2
M  END
