Coordinates from ORCA-job Ph-N2-Cl-B3LYPG-6-31G_dp-MTMO-d009-169-n800
 OpenBabel09051908143D

 14 12  0  0  0  0  0  0  0  0999 V2000
   -0.7996    0.2689   -0.7369 C   0  0  0  0  0  0  0  0  0  0  0  0
    0.0439    1.3436   -0.3648 C   0  0  0  0  0  0  0  0  0  0  0  0
   -0.7525    2.3509    0.1170 C   0  0  0  0  0  0  0  0  0  0  0  0
   -1.9908    2.4901    0.2789 C   0  0  0  0  0  0  0  0  0  0  0  0
   -2.8626    1.4510   -0.0758 C   0  0  0  0  0  0  0  0  0  0  0  0
   -2.1979    0.3238   -0.5966 C   0  0  0  0  0  0  0  0  0  0  0  0
   -0.3383   -0.6277   -1.1437 H   0  0  0  0  0  0  0  0  0  0  0  0
    1.1220    1.3218   -0.4649 H   0  0  0  0  0  0  0  0  0  0  0  0
   -2.8384    4.0774    1.0125 H   0  0  0  0  0  0  0  0  0  0  0  0
   -3.9420    1.4871    0.0317 H   0  0  0  0  0  0  0  0  0  0  0  0
    7.4981   -9.6223   -4.1644 N   0  0  0  0  0  0  0  0  0  0  0  0
    8.1362  -10.4451   -4.5353 N   0  0  0  0  0  0  0  0  0  0  0  0
   -3.5822    5.0573    1.4854 Cl  0  0  0  0  0  0  0  0  0  0  0  0
   -2.7873   -0.5369   -0.9020 H   0  0  0  0  0  0  0  0  0  0  0  0
  1  6  2  0  0  0  0
  1  2  1  0  0  0  0
  2  3  2  0  0  0  0
  3  4  1  0  0  0  0
  5 10  1  0  0  0  0
  5  4  2  0  0  0  0
  6  5  1  0  0  0  0
  7  1  1  0  0  0  0
  8  2  1  0  0  0  0
  9 13  1  0  0  0  0
 12 11  3  0  0  0  0
 14  6  1  0  0  0  0
M  RAD  2   3   2   4   2
M  END
