Coordinates from ORCA-job Ph-N2-Cl-B3LYPG-6-31G_dp-MTMO-d009-169-n800
 OpenBabel09051908143D

 14 12  0  0  0  0  0  0  0  0999 V2000
   -0.6915   -0.0805   -0.8231 C   0  0  0  0  0  0  0  0  0  0  0  0
    0.2241    0.9361   -0.4584 C   0  0  0  0  0  0  0  0  0  0  0  0
   -0.5007    1.9995    0.0157 C   0  0  0  0  0  0  0  0  0  0  0  0
   -1.7265    2.2252    0.1758 C   0  0  0  0  0  0  0  0  0  0  0  0
   -2.6679    1.2461   -0.1718 C   0  0  0  0  0  0  0  0  0  0  0  0
   -2.0826    0.0718   -0.6839 C   0  0  0  0  0  0  0  0  0  0  0  0
   -0.2929   -1.0093   -1.2236 H   0  0  0  0  0  0  0  0  0  0  0  0
    1.2981    0.8391   -0.5578 H   0  0  0  0  0  0  0  0  0  0  0  0
   -2.4615    3.8746    0.8929 H   0  0  0  0  0  0  0  0  0  0  0  0
   -3.7422    1.3577   -0.0654 H   0  0  0  0  0  0  0  0  0  0  0  0
    6.2900   -7.9291   -3.5796 N   0  0  0  0  0  0  0  0  0  0  0  0
    6.9276   -8.7520   -3.9510 N   0  0  0  0  0  0  0  0  0  0  0  0
   -3.1353    4.9091    1.3546 Cl  0  0  0  0  0  0  0  0  0  0  0  0
   -2.7301   -0.7483   -0.9832 H   0  0  0  0  0  0  0  0  0  0  0  0
  1  6  2  0  0  0  0
  1  2  1  0  0  0  0
  2  3  2  0  0  0  0
  3  4  1  0  0  0  0
  5 10  1  0  0  0  0
  5  4  2  0  0  0  0
  6  5  1  0  0  0  0
  7  1  1  0  0  0  0
  8  2  1  0  0  0  0
  9 13  1  0  0  0  0
 12 11  3  0  0  0  0
 14  6  1  0  0  0  0
M  RAD  2   3   2   4   2
M  END
