Coordinates from ORCA-job Ph-N2-Cl-B3LYPG-6-31G_dp-MTMO-d009-169-n800
 OpenBabel09051908143D

 14 12  0  0  0  0  0  0  0  0999 V2000
   -1.6234   -1.4452   -1.3051 C   0  0  0  0  0  0  0  0  0  0  0  0
   -0.2098   -1.4036   -1.2373 C   0  0  0  0  0  0  0  0  0  0  0  0
    0.1425   -0.1804   -0.7300 C   0  0  0  0  0  0  0  0  0  0  0  0
   -0.4879    0.8359   -0.3419 C   0  0  0  0  0  0  0  0  0  0  0  0
   -1.8908    0.8322   -0.3941 C   0  0  0  0  0  0  0  0  0  0  0  0
   -2.4297   -0.3668   -0.8985 C   0  0  0  0  0  0  0  0  0  0  0  0
   -2.0916   -2.3490   -1.6873 H   0  0  0  0  0  0  0  0  0  0  0  0
    0.4350   -2.2171   -1.5432 H   0  0  0  0  0  0  0  0  0  0  0  0
    0.3263    2.4398    0.3329 H   0  0  0  0  0  0  0  0  0  0  0  0
   -2.5186    1.6605   -0.0817 H   0  0  0  0  0  0  0  0  0  0  0  0
    3.3999   -1.1730   -1.0792 N   0  0  0  0  0  0  0  0  0  0  0  0
    4.4411   -0.8324   -0.9333 N   0  0  0  0  0  0  0  0  0  0  0  0
    0.7250    3.6022    0.8176 Cl  0  0  0  0  0  0  0  0  0  0  0  0
   -3.5096   -0.4634   -0.9777 H   0  0  0  0  0  0  0  0  0  0  0  0
  1  2  2  0  0  0  0
  1  6  1  0  0  0  0
  2  3  1  0  0  0  0
  3  4  2  0  0  0  0
  5  4  1  0  0  0  0
  5 10  1  0  0  0  0
  6  5  2  0  0  0  0
  7  1  1  0  0  0  0
  8  2  1  0  0  0  0
  9 13  1  0  0  0  0
 11 12  3  0  0  0  0
 14  6  1  0  0  0  0
M  RAD  2   3   2   4   2
M  END
