Coordinates from ORCA-job Ph-N2-Cl-B3LYPG-6-31G_dp-MTMO-d009-169-n800
 OpenBabel09051908143D

 14 12  0  0  0  0  0  0  0  0999 V2000
   -1.6927   -1.4790   -1.3202 C   0  0  0  0  0  0  0  0  0  0  0  0
   -0.2779   -1.5236   -1.2899 C   0  0  0  0  0  0  0  0  0  0  0  0
    0.1596   -0.3257   -0.7916 C   0  0  0  0  0  0  0  0  0  0  0  0
   -0.3901    0.7301   -0.3845 C   0  0  0  0  0  0  0  0  0  0  0  0
   -1.7931    0.8077   -0.4011 C   0  0  0  0  0  0  0  0  0  0  0  0
   -2.4193   -0.3536   -0.8912 C   0  0  0  0  0  0  0  0  0  0  0  0
   -2.2247   -2.3519   -1.6904 H   0  0  0  0  0  0  0  0  0  0  0  0
    0.3076   -2.3745   -1.6132 H   0  0  0  0  0  0  0  0  0  0  0  0
    0.5154    2.2680    0.2642 H   0  0  0  0  0  0  0  0  0  0  0  0
   -2.3599    1.6726   -0.0713 H   0  0  0  0  0  0  0  0  0  0  0  0
    3.2168   -0.8331   -0.9431 N   0  0  0  0  0  0  0  0  0  0  0  0
    4.1705   -0.3190   -0.7247 N   0  0  0  0  0  0  0  0  0  0  0  0
    1.0013    3.4044    0.7390 Cl  0  0  0  0  0  0  0  0  0  0  0  0
   -3.5049   -0.3826   -0.9409 H   0  0  0  0  0  0  0  0  0  0  0  0
  1  2  2  0  0  0  0
  1  6  1  0  0  0  0
  2  3  1  0  0  0  0
  3  4  2  0  0  0  0
  5  4  1  0  0  0  0
  5 10  1  0  0  0  0
  6  5  2  0  0  0  0
  7  1  1  0  0  0  0
  8  2  1  0  0  0  0
  9 13  1  0  0  0  0
 11 12  3  0  0  0  0
 14  6  1  0  0  0  0
M  RAD  2   3   2   4   2
M  END
