Coordinates from ORCA-job Ph-N2-Cl-B3LYPG-6-31G_dp-MTMO-d009-169-n800
 OpenBabel09051908143D

 14 12  0  0  0  0  0  0  0  0999 V2000
   -1.2741   -1.2927   -1.2464 C   0  0  0  0  0  0  0  0  0  0  0  0
    0.0929   -0.9661   -1.0715 C   0  0  0  0  0  0  0  0  0  0  0  0
    0.1476    0.2981   -0.5453 C   0  0  0  0  0  0  0  0  0  0  0  0
   -0.7038    1.1611   -0.2118 C   0  0  0  0  0  0  0  0  0  0  0  0
   -2.0685    0.8726   -0.3703 C   0  0  0  0  0  0  0  0  0  0  0  0
   -2.3116   -0.4056   -0.9081 C   0  0  0  0  0  0  0  0  0  0  0  0
   -1.5183   -2.2686   -1.6581 H   0  0  0  0  0  0  0  0  0  0  0  0
    0.9102   -1.6290   -1.3234 H   0  0  0  0  0  0  0  0  0  0  0  0
   -0.2992    2.8942    0.5131 H   0  0  0  0  0  0  0  0  0  0  0  0
   -2.8736    1.5523   -0.1108 H   0  0  0  0  0  0  0  0  0  0  0  0
    3.5288   -2.2492   -1.5206 N   0  0  0  0  0  0  0  0  0  0  0  0
    4.6202   -2.4186   -1.5549 N   0  0  0  0  0  0  0  0  0  0  0  0
   -0.2022    4.1107    1.0185 Cl  0  0  0  0  0  0  0  0  0  0  0  0
   -3.3398   -0.7192   -1.0691 H   0  0  0  0  0  0  0  0  0  0  0  0
  1  2  2  0  0  0  0
  1  6  1  0  0  0  0
  2  3  1  0  0  0  0
  3  4  2  0  0  0  0
  5  4  1  0  0  0  0
  5 10  1  0  0  0  0
  6  5  2  0  0  0  0
  7  1  1  0  0  0  0
  8  2  1  0  0  0  0
  9 13  1  0  0  0  0
 12 11  3  0  0  0  0
 14  6  1  0  0  0  0
M  RAD  2   3   2   4   2
M  END
