Coordinates from ORCA-job Ph-N2-Cl-B3LYPG-6-31G_dp-MTMO-d009-169-n800
 OpenBabel09051908143D

 14 12  0  0  0  0  0  0  0  0999 V2000
   -0.8172   -1.0203   -1.1358 C   0  0  0  0  0  0  0  0  0  0  0  0
    0.4082   -0.3727   -0.8456 C   0  0  0  0  0  0  0  0  0  0  0  0
    0.1109    0.8628   -0.3308 C   0  0  0  0  0  0  0  0  0  0  0  0
   -0.9523    1.4864   -0.0845 C   0  0  0  0  0  0  0  0  0  0  0  0
   -2.1872    0.8788   -0.3581 C   0  0  0  0  0  0  0  0  0  0  0  0
   -2.0645   -0.4149   -0.8999 C   0  0  0  0  0  0  0  0  0  0  0  0
   -0.7795   -2.0220   -1.5557 H   0  0  0  0  0  0  0  0  0  0  0  0
    1.3780   -0.8214   -1.0205 H   0  0  0  0  0  0  0  0  0  0  0  0
   -1.0529    3.2635    0.6492 H   0  0  0  0  0  0  0  0  0  0  0  0
   -3.1522    1.3407   -0.1780 H   0  0  0  0  0  0  0  0  0  0  0  0
    3.6762   -3.4860   -2.0010 N   0  0  0  0  0  0  0  0  0  0  0  0
    4.4203   -4.2496   -2.2918 N   0  0  0  0  0  0  0  0  0  0  0  0
   -1.3116    4.4616    1.1398 Cl  0  0  0  0  0  0  0  0  0  0  0  0
   -2.9677   -0.9670   -1.1461 H   0  0  0  0  0  0  0  0  0  0  0  0
  1  6  2  0  0  0  0
  1  2  1  0  0  0  0
  2  3  2  0  0  0  0
  3  4  1  0  0  0  0
  5 10  1  0  0  0  0
  5  4  2  0  0  0  0
  6  5  1  0  0  0  0
  7  1  1  0  0  0  0
  8  2  1  0  0  0  0
  9 13  1  0  0  0  0
 12 11  3  0  0  0  0
 14  6  1  0  0  0  0
M  RAD  2   3   2   4   2
M  END
