Coordinates from ORCA-job Ph-N2-Cl-B3LYPG-6-31G_dp-MTMO-d009-169-n800
 OpenBabel09051908143D

 14 12  0  0  0  0  0  0  0  0999 V2000
   -1.6638   -1.4983   -1.3275 C   0  0  0  0  0  0  0  0  0  0  0  0
   -0.2510   -1.5755   -1.3225 C   0  0  0  0  0  0  0  0  0  0  0  0
    0.2194   -0.3904   -0.8309 C   0  0  0  0  0  0  0  0  0  0  0  0
   -0.2755    0.6905   -0.4062 C   0  0  0  0  0  0  0  0  0  0  0  0
   -1.6815    0.7850   -0.4041 C   0  0  0  0  0  0  0  0  0  0  0  0
   -2.3514   -0.3549   -0.8826 C   0  0  0  0  0  0  0  0  0  0  0  0
   -2.2233   -2.3572   -1.6892 H   0  0  0  0  0  0  0  0  0  0  0  0
    0.3131   -2.4366   -1.6564 H   0  0  0  0  0  0  0  0  0  0  0  0
    0.6479    2.1273    0.1996 H   0  0  0  0  0  0  0  0  0  0  0  0
   -2.2204    1.6635   -0.0622 H   0  0  0  0  0  0  0  0  0  0  0  0
    2.7525   -0.6016   -0.8547 N   0  0  0  0  0  0  0  0  0  0  0  0
    3.6258    0.0160   -0.5741 N   0  0  0  0  0  0  0  0  0  0  0  0
    1.2549    3.2263    0.6625 Cl  0  0  0  0  0  0  0  0  0  0  0  0
   -3.4381   -0.3542   -0.9106 H   0  0  0  0  0  0  0  0  0  0  0  0
  1  2  2  0  0  0  0
  1  6  1  0  0  0  0
  2  3  1  0  0  0  0
  3  4  2  0  0  0  0
  4  5  1  0  0  0  0
  5 10  1  0  0  0  0
  6  5  2  0  0  0  0
  7  1  1  0  0  0  0
  8  2  1  0  0  0  0
  9 13  1  0  0  0  0
 11 12  3  0  0  0  0
 14  6  1  0  0  0  0
M  RAD  2   3   2   4   2
M  END
