Coordinates from ORCA-job Ph-N2-Cl-B3LYPG-6-31G_dp-MTMO-d009-169-n800
 OpenBabel09051908143D

 14 13  0  0  0  0  0  0  0  0999 V2000
   -1.3760   -1.4973   -1.0729 C   0  0  0  0  0  0  0  0  0  0  0  0
   -0.0235   -1.2611   -1.1543 C   0  0  0  0  0  0  0  0  0  0  0  0
    0.5590    0.0872   -0.9286 C   0  0  0  0  0  0  0  0  0  0  0  0
   -0.4740    1.1189   -0.6400 C   0  0  0  0  0  0  0  0  0  0  0  0
   -1.8175    0.8250   -0.6258 C   0  0  0  0  0  0  0  0  0  0  0  0
   -2.2979   -0.4738   -0.8266 C   0  0  0  0  0  0  0  0  0  0  0  0
   -1.7213   -2.5171   -1.2197 H   0  0  0  0  0  0  0  0  0  0  0  0
    0.7032   -2.0498   -1.3168 H   0  0  0  0  0  0  0  0  0  0  0  0
   -0.0852    2.1214   -0.4998 H   0  0  0  0  0  0  0  0  0  0  0  0
   -2.5113    1.6397   -0.4370 H   0  0  0  0  0  0  0  0  0  0  0  0
    1.4609    0.2685   -0.9442 N   0  0  0  0  0  0  0  0  0  0  0  0
    2.6092    0.5331   -0.8697 N   0  0  0  0  0  0  0  0  0  0  0  0
    3.0437    0.8285    1.2676 Cl  0  0  0  0  0  0  0  0  0  0  0  0
   -3.3608   -0.6833   -0.7909 H   0  0  0  0  0  0  0  0  0  0  0  0
  1  6  1  0  0  0  0
  2  1  2  0  0  0  0
  2  3  1  0  0  0  0
  3  4  2  0  0  0  0
  4  5  1  0  0  0  0
  4  9  1  0  0  0  0
  5 10  1  0  0  0  0
  6 14  1  0  0  0  0
  6  5  2  0  0  0  0
  7  1  1  0  0  0  0
  8  2  1  0  0  0  0
 11  3  1  0  0  0  0
 11 12  1  0  0  0  0
M  RAD  3  11   2  12   3  13   2
M  END
