Coordinates from ORCA-job Ph-N2-Cl-B3LYPG-6-31G_dp-MTMO-d009-169-n800
 OpenBabel09051908143D

 14 12  0  0  0  0  0  0  0  0999 V2000
   -0.8387   -1.0529   -1.1447 C   0  0  0  0  0  0  0  0  0  0  0  0
    0.3997   -0.4283   -0.8585 C   0  0  0  0  0  0  0  0  0  0  0  0
    0.1264    0.8126   -0.3437 C   0  0  0  0  0  0  0  0  0  0  0  0
   -0.9239    1.4570   -0.0945 C   0  0  0  0  0  0  0  0  0  0  0  0
   -2.1705    0.8720   -0.3643 C   0  0  0  0  0  0  0  0  0  0  0  0
   -2.0737   -0.4241   -0.9057 C   0  0  0  0  0  0  0  0  0  0  0  0
   -0.8210   -2.0554   -1.5641 H   0  0  0  0  0  0  0  0  0  0  0  0
    1.3602   -0.8954   -1.0361 H   0  0  0  0  0  0  0  0  0  0  0  0
   -0.9893    3.2348    0.6374 H   0  0  0  0  0  0  0  0  0  0  0  0
   -3.1262    1.3520   -0.1819 H   0  0  0  0  0  0  0  0  0  0  0  0
    3.6027   -3.3363   -1.9492 N   0  0  0  0  0  0  0  0  0  0  0  0
    4.3743   -4.0752   -2.2322 N   0  0  0  0  0  0  0  0  0  0  0  0
   -1.2235    4.4383    1.1276 Cl  0  0  0  0  0  0  0  0  0  0  0  0
   -2.9878   -0.9592   -1.1490 H   0  0  0  0  0  0  0  0  0  0  0  0
  1  6  2  0  0  0  0
  1  2  1  0  0  0  0
  2  3  2  0  0  0  0
  3  4  1  0  0  0  0
  5 10  1  0  0  0  0
  5  4  2  0  0  0  0
  6  5  1  0  0  0  0
  7  1  1  0  0  0  0
  8  2  1  0  0  0  0
  9 13  1  0  0  0  0
 12 11  3  0  0  0  0
 14  6  1  0  0  0  0
M  RAD  2   3   2   4   2
M  END
