Coordinates from ORCA-job Ph-N2-Cl-B3LYPG-6-31G_dp-MTMO-d009-169-n800
 OpenBabel09051908143D

 14 12  0  0  0  0  0  0  0  0999 V2000
   -0.6586   -0.3623   -0.9130 C   0  0  0  0  0  0  0  0  0  0  0  0
    0.3351    0.5829   -0.5611 C   0  0  0  0  0  0  0  0  0  0  0  0
   -0.3020    1.6977   -0.0789 C   0  0  0  0  0  0  0  0  0  0  0  0
   -1.5054    2.0144    0.0967 C   0  0  0  0  0  0  0  0  0  0  0  0
   -2.5216    1.1083   -0.2381 C   0  0  0  0  0  0  0  0  0  0  0  0
   -2.0325   -0.1066   -0.7562 C   0  0  0  0  0  0  0  0  0  0  0  0
   -0.3352   -1.3180   -1.3179 H   0  0  0  0  0  0  0  0  0  0  0  0
    1.3973    0.4061   -0.6744 H   0  0  0  0  0  0  0  0  0  0  0  0
   -2.1048    3.7116    0.8244 H   0  0  0  0  0  0  0  0  0  0  0  0
   -3.5830    1.3002   -0.1183 H   0  0  0  0  0  0  0  0  0  0  0  0
    5.4077   -6.5952   -3.1002 N   0  0  0  0  0  0  0  0  0  0  0  0
    6.0479   -7.4164   -3.4710 N   0  0  0  0  0  0  0  0  0  0  0  0
   -2.6932    4.7932    1.2956 Cl  0  0  0  0  0  0  0  0  0  0  0  0
   -2.7432   -0.8760   -1.0464 H   0  0  0  0  0  0  0  0  0  0  0  0
  1  6  2  0  0  0  0
  1  2  1  0  0  0  0
  2  3  2  0  0  0  0
  3  4  1  0  0  0  0
  5 10  1  0  0  0  0
  5  4  2  0  0  0  0
  6  5  1  0  0  0  0
  7  1  1  0  0  0  0
  8  2  1  0  0  0  0
  9 13  1  0  0  0  0
 12 11  3  0  0  0  0
 14  6  1  0  0  0  0
M  RAD  2   3   2   4   2
M  END
