Coordinates from ORCA-job Ph-N2-Cl-B3LYPG-6-31G_dp-MTMO-d009-169-n800
 OpenBabel09051908143D

 14 12  0  0  0  0  0  0  0  0999 V2000
   -0.7217   -0.7833   -1.0507 C   0  0  0  0  0  0  0  0  0  0  0  0
    0.4155   -0.0035   -0.7289 C   0  0  0  0  0  0  0  0  0  0  0  0
   -0.0294    1.1932   -0.2286 C   0  0  0  0  0  0  0  0  0  0  0  0
   -1.1627    1.6930   -0.0162 C   0  0  0  0  0  0  0  0  0  0  0  0
   -2.3151    0.9538   -0.3211 C   0  0  0  0  0  0  0  0  0  0  0  0
   -2.0347   -0.3194   -0.8531 C   0  0  0  0  0  0  0  0  0  0  0  0
   -0.5616   -1.7753   -1.4649 H   0  0  0  0  0  0  0  0  0  0  0  0
    1.4339   -0.3410   -0.8735 H   0  0  0  0  0  0  0  0  0  0  0  0
   -1.4766    3.4513    0.7204 H   0  0  0  0  0  0  0  0  0  0  0  0
   -3.3301    1.3063   -0.1701 H   0  0  0  0  0  0  0  0  0  0  0  0
    4.2925   -4.6276   -2.4010 N   0  0  0  0  0  0  0  0  0  0  0  0
    4.9415   -5.4487   -2.7562 N   0  0  0  0  0  0  0  0  0  0  0  0
   -1.8791    4.6097    1.2071 Cl  0  0  0  0  0  0  0  0  0  0  0  0
   -2.8637   -0.9686   -1.1219 H   0  0  0  0  0  0  0  0  0  0  0  0
  1  6  2  0  0  0  0
  1  2  1  0  0  0  0
  2  3  2  0  0  0  0
  3  4  1  0  0  0  0
  5 10  1  0  0  0  0
  5  4  2  0  0  0  0
  6  5  1  0  0  0  0
  7  1  1  0  0  0  0
  8  2  1  0  0  0  0
  9 13  1  0  0  0  0
 12 11  3  0  0  0  0
 14  6  1  0  0  0  0
M  RAD  2   3   2   4   2
M  END
