Coordinates from ORCA-job Ph-N2-Cl-B3LYPG-6-31G_dp-MTMO-d009-169-n800
 OpenBabel09051908143D

 14 12  0  0  0  0  0  0  0  0999 V2000
   -0.7326    0.0743   -0.7838 C   0  0  0  0  0  0  0  0  0  0  0  0
    0.1487    1.1195   -0.4153 C   0  0  0  0  0  0  0  0  0  0  0  0
   -0.6116    2.1569    0.0611 C   0  0  0  0  0  0  0  0  0  0  0  0
   -1.8442    2.3418    0.2210 C   0  0  0  0  0  0  0  0  0  0  0  0
   -2.7523    1.3329   -0.1304 C   0  0  0  0  0  0  0  0  0  0  0  0
   -2.1281    0.1802   -0.6455 C   0  0  0  0  0  0  0  0  0  0  0  0
   -0.3033   -0.8399   -1.1864 H   0  0  0  0  0  0  0  0  0  0  0  0
    1.2254    1.0589   -0.5138 H   0  0  0  0  0  0  0  0  0  0  0  0
   -2.6343    3.9629    0.9435 H   0  0  0  0  0  0  0  0  0  0  0  0
   -3.8299    1.4082   -0.0246 H   0  0  0  0  0  0  0  0  0  0  0  0
    6.8118   -8.6724   -3.8376 N   0  0  0  0  0  0  0  0  0  0  0  0
    7.4498   -9.4954   -4.2081 N   0  0  0  0  0  0  0  0  0  0  0  0
   -3.3429    4.9722    1.4088 Cl  0  0  0  0  0  0  0  0  0  0  0  0
   -2.7478   -0.6600   -0.9477 H   0  0  0  0  0  0  0  0  0  0  0  0
  1  6  2  0  0  0  0
  1  2  1  0  0  0  0
  2  3  2  0  0  0  0
  3  4  1  0  0  0  0
  5 10  1  0  0  0  0
  5  4  2  0  0  0  0
  6  5  1  0  0  0  0
  7  1  1  0  0  0  0
  8  2  1  0  0  0  0
  9 13  1  0  0  0  0
 12 11  3  0  0  0  0
 14  6  1  0  0  0  0
M  RAD  2   3   2   4   2
M  END
