Coordinates from ORCA-job Ph-N2-Cl-B3LYPG-6-31G_dp-MTMO-d009-169-n800
 OpenBabel09051908143D

 14 12  0  0  0  0  0  0  0  0999 V2000
   -0.8267    0.3309   -0.7225 C   0  0  0  0  0  0  0  0  0  0  0  0
    0.0071    1.4128   -0.3494 C   0  0  0  0  0  0  0  0  0  0  0  0
   -0.7982    2.4117    0.1349 C   0  0  0  0  0  0  0  0  0  0  0  0
   -2.0376    2.5392    0.2984 C   0  0  0  0  0  0  0  0  0  0  0  0
   -2.9000    1.4925   -0.0573 C   0  0  0  0  0  0  0  0  0  0  0  0
   -2.2252    0.3725   -0.5807 C   0  0  0  0  0  0  0  0  0  0  0  0
   -0.3575   -0.5607   -1.1313 H   0  0  0  0  0  0  0  0  0  0  0  0
    1.0852    1.4013   -0.4507 H   0  0  0  0  0  0  0  0  0  0  0  0
   -2.8991    4.1167    1.0365 H   0  0  0  0  0  0  0  0  0  0  0  0
   -3.9795    1.5184    0.0515 H   0  0  0  0  0  0  0  0  0  0  0  0
    7.7300   -9.9341   -4.2711 N   0  0  0  0  0  0  0  0  0  0  0  0
    8.3683  -10.7563   -4.6427 N   0  0  0  0  0  0  0  0  0  0  0  0
   -3.6515    5.0885    1.5125 Cl  0  0  0  0  0  0  0  0  0  0  0  0
   -2.8069   -0.4932   -0.8870 H   0  0  0  0  0  0  0  0  0  0  0  0
  1  6  2  0  0  0  0
  1  2  1  0  0  0  0
  2  3  2  0  0  0  0
  3  4  1  0  0  0  0
  5 10  1  0  0  0  0
  5  4  2  0  0  0  0
  6  5  1  0  0  0  0
  7  1  1  0  0  0  0
  8  2  1  0  0  0  0
  9 13  1  0  0  0  0
 12 11  3  0  0  0  0
 14  6  1  0  0  0  0
M  RAD  2   3   2   4   2
M  END
