Coordinates from ORCA-job Ph-N2-Cl-B3LYPG-6-31G_dp-MTMO-d009-169-n800
 OpenBabel09051908143D

 14 12  0  0  0  0  0  0  0  0999 V2000
   -0.6720   -0.1875   -0.8546 C   0  0  0  0  0  0  0  0  0  0  0  0
    0.2707    0.8053   -0.4937 C   0  0  0  0  0  0  0  0  0  0  0  0
   -0.4251    1.8874   -0.0183 C   0  0  0  0  0  0  0  0  0  0  0  0
   -1.6441    2.1453    0.1456 C   0  0  0  0  0  0  0  0  0  0  0  0
   -2.6113    1.1902   -0.1985 C   0  0  0  0  0  0  0  0  0  0  0  0
   -2.0583    0.0008   -0.7113 C   0  0  0  0  0  0  0  0  0  0  0  0
   -0.2986   -1.1264   -1.2557 H   0  0  0  0  0  0  0  0  0  0  0  0
    1.3415    0.6810   -0.5962 H   0  0  0  0  0  0  0  0  0  0  0  0
   -2.3327    3.8132    0.8637 H   0  0  0  0  0  0  0  0  0  0  0  0
   -3.6821    1.3295   -0.0891 H   0  0  0  0  0  0  0  0  0  0  0  0
    5.9443   -7.4196   -3.3987 N   0  0  0  0  0  0  0  0  0  0  0  0
    6.5812   -8.2426   -3.7709 N   0  0  0  0  0  0  0  0  0  0  0  0
   -2.9773    4.8658    1.3266 Cl  0  0  0  0  0  0  0  0  0  0  0  0
   -2.7277   -0.8025   -1.0078 H   0  0  0  0  0  0  0  0  0  0  0  0
  1  6  2  0  0  0  0
  1  2  1  0  0  0  0
  2  3  2  0  0  0  0
  3  4  1  0  0  0  0
  5 10  1  0  0  0  0
  5  4  2  0  0  0  0
  6  5  1  0  0  0  0
  7  1  1  0  0  0  0
  8  2  1  0  0  0  0
  9 13  1  0  0  0  0
 12 11  3  0  0  0  0
 14  6  1  0  0  0  0
M  RAD  2   3   2   4   2
M  END
