Coordinates from ORCA-job Ph-N2-Cl-B3LYPG-6-31G_dp-MTMO-d009-169-n800
 OpenBabel09051908143D

 14 12  0  0  0  0  0  0  0  0999 V2000
   -0.6753   -0.6582   -1.0160 C   0  0  0  0  0  0  0  0  0  0  0  0
    0.4135    0.1843   -0.6854 C   0  0  0  0  0  0  0  0  0  0  0  0
   -0.1013    1.3542   -0.1880 C   0  0  0  0  0  0  0  0  0  0  0  0
   -1.2634    1.7874    0.0151 C   0  0  0  0  0  0  0  0  0  0  0  0
   -2.3701    0.9853   -0.2985 C   0  0  0  0  0  0  0  0  0  0  0  0
   -2.0138   -0.2698   -0.8285 C   0  0  0  0  0  0  0  0  0  0  0  0
   -0.4560   -1.6394   -1.4293 H   0  0  0  0  0  0  0  0  0  0  0  0
    1.4504   -0.0949   -0.8227 H   0  0  0  0  0  0  0  0  0  0  0  0
   -1.6814    3.5263    0.7564 H   0  0  0  0  0  0  0  0  0  0  0  0
   -3.4046    1.2798   -0.1553 H   0  0  0  0  0  0  0  0  0  0  0  0
    4.5605   -5.1923   -2.5947 N   0  0  0  0  0  0  0  0  0  0  0  0
    5.2063   -6.0153   -2.9514 N   0  0  0  0  0  0  0  0  0  0  0  0
   -2.1535    4.6576    1.2433 Cl  0  0  0  0  0  0  0  0  0  0  0  0
   -2.8026   -0.9650   -1.1038 H   0  0  0  0  0  0  0  0  0  0  0  0
  1  6  2  0  0  0  0
  1  2  1  0  0  0  0
  2  3  2  0  0  0  0
  3  4  1  0  0  0  0
  5 10  1  0  0  0  0
  5  4  2  0  0  0  0
  6  5  1  0  0  0  0
  7  1  1  0  0  0  0
  8  2  1  0  0  0  0
  9 13  1  0  0  0  0
 12 11  3  0  0  0  0
 14  6  1  0  0  0  0
M  RAD  2   3   2   4   2
M  END
