Coordinates from ORCA-job Ph-N2-Cl-B3LYPG-6-31G_dp-MTMO-d009-169-n800
 OpenBabel09051908143D

 14 12  0  0  0  0  0  0  0  0999 V2000
   -0.8055    0.2817   -0.7342 C   0  0  0  0  0  0  0  0  0  0  0  0
    0.0362    1.3578   -0.3619 C   0  0  0  0  0  0  0  0  0  0  0  0
   -0.7623    2.3632    0.1206 C   0  0  0  0  0  0  0  0  0  0  0  0
   -2.0007    2.5006    0.2832 C   0  0  0  0  0  0  0  0  0  0  0  0
   -2.8704    1.4597   -0.0719 C   0  0  0  0  0  0  0  0  0  0  0  0
   -2.2037    0.3340   -0.5934 C   0  0  0  0  0  0  0  0  0  0  0  0
   -0.3426   -0.6138   -1.1415 H   0  0  0  0  0  0  0  0  0  0  0  0
    1.1143    1.3387   -0.4621 H   0  0  0  0  0  0  0  0  0  0  0  0
   -2.8505    4.0855    1.0179 H   0  0  0  0  0  0  0  0  0  0  0  0
   -3.9499    1.4934    0.0359 H   0  0  0  0  0  0  0  0  0  0  0  0
    7.5467   -9.6873   -4.1864 N   0  0  0  0  0  0  0  0  0  0  0  0
    8.1848  -10.5100   -4.5575 N   0  0  0  0  0  0  0  0  0  0  0  0
   -3.5960    5.0639    1.4916 Cl  0  0  0  0  0  0  0  0  0  0  0  0
   -2.7916   -0.5277   -0.8990 H   0  0  0  0  0  0  0  0  0  0  0  0
  1  6  2  0  0  0  0
  1  2  1  0  0  0  0
  2  3  2  0  0  0  0
  3  4  1  0  0  0  0
  5 10  1  0  0  0  0
  5  4  2  0  0  0  0
  6  5  1  0  0  0  0
  7  1  1  0  0  0  0
  8  2  1  0  0  0  0
  9 13  1  0  0  0  0
 12 11  3  0  0  0  0
 14  6  1  0  0  0  0
M  RAD  2   3   2   4   2
M  END
