Coordinates from ORCA-job Ph-N2-Cl-B3LYPG-6-31G_dp-MTMO-d009-169-n800
 OpenBabel09051908143D

 14 12  0  0  0  0  0  0  0  0999 V2000
   -0.6994   -0.0478   -0.8144 C   0  0  0  0  0  0  0  0  0  0  0  0
    0.2087    0.9751   -0.4488 C   0  0  0  0  0  0  0  0  0  0  0  0
   -0.5239    2.0331    0.0255 C   0  0  0  0  0  0  0  0  0  0  0  0
   -1.7514    2.2497    0.1853 C   0  0  0  0  0  0  0  0  0  0  0  0
   -2.6856    1.2640   -0.1632 C   0  0  0  0  0  0  0  0  0  0  0  0
   -2.0916    0.0943   -0.6757 C   0  0  0  0  0  0  0  0  0  0  0  0
   -0.2938   -0.9735   -1.2152 H   0  0  0  0  0  0  0  0  0  0  0  0
    1.2834    0.8860   -0.5478 H   0  0  0  0  0  0  0  0  0  0  0  0
   -2.4989    3.8933    0.9031 H   0  0  0  0  0  0  0  0  0  0  0  0
   -3.7608    1.3678   -0.0572 H   0  0  0  0  0  0  0  0  0  0  0  0
    6.3988   -8.0857   -3.6343 N   0  0  0  0  0  0  0  0  0  0  0  0
    7.0366   -8.9085   -4.0054 N   0  0  0  0  0  0  0  0  0  0  0  0
   -3.1806    4.9225    1.3651 Cl  0  0  0  0  0  0  0  0  0  0  0  0
   -2.7330   -0.7304   -0.9757 H   0  0  0  0  0  0  0  0  0  0  0  0
  1  6  2  0  0  0  0
  1  2  1  0  0  0  0
  2  3  2  0  0  0  0
  3  4  1  0  0  0  0
  5 10  1  0  0  0  0
  5  4  2  0  0  0  0
  6  5  1  0  0  0  0
  7  1  1  0  0  0  0
  8  2  1  0  0  0  0
  9 13  1  0  0  0  0
 12 11  3  0  0  0  0
 14  6  1  0  0  0  0
M  RAD  2   3   2   4   2
M  END
