Coordinates from ORCA-job Ph-N2-Cl-B3LYPG-6-31G_dp-MTMO-d009-169-n800
 OpenBabel09051908143D

 14 12  0  0  0  0  0  0  0  0999 V2000
   -0.6557   -0.4511   -0.9421 C   0  0  0  0  0  0  0  0  0  0  0  0
    0.3646    0.4674   -0.5958 C   0  0  0  0  0  0  0  0  0  0  0  0
   -0.2401    1.5988   -0.1105 C   0  0  0  0  0  0  0  0  0  0  0  0
   -1.4336    1.9476    0.0714 C   0  0  0  0  0  0  0  0  0  0  0  0
   -2.4753    1.0687   -0.2580 C   0  0  0  0  0  0  0  0  0  0  0  0
   -2.0215   -0.1588   -0.7783 C   0  0  0  0  0  0  0  0  0  0  0  0
   -0.3600   -1.4150   -1.3485 H   0  0  0  0  0  0  0  0  0  0  0  0
    1.4211    0.2622   -0.7146 H   0  0  0  0  0  0  0  0  0  0  0  0
   -1.9851    3.6576    0.8034 H   0  0  0  0  0  0  0  0  0  0  0  0
   -3.5305    1.2891   -0.1328 H   0  0  0  0  0  0  0  0  0  0  0  0
    5.1371   -6.1770   -2.9503 N   0  0  0  0  0  0  0  0  0  0  0  0
    5.7846   -6.9943   -3.3170 N   0  0  0  0  0  0  0  0  0  0  0  0
   -2.5430    4.7535    1.2790 Cl  0  0  0  0  0  0  0  0  0  0  0  0
   -2.7539   -0.9090   -1.0646 H   0  0  0  0  0  0  0  0  0  0  0  0
  1  6  2  0  0  0  0
  1  2  1  0  0  0  0
  2  3  2  0  0  0  0
  3  4  1  0  0  0  0
  5 10  1  0  0  0  0
  5  4  2  0  0  0  0
  6  5  1  0  0  0  0
  7  1  1  0  0  0  0
  8  2  1  0  0  0  0
  9 13  1  0  0  0  0
 12 11  3  0  0  0  0
 14  6  1  0  0  0  0
M  RAD  2   3   2   4   2
M  END
