Coordinates from ORCA-job Ph-N2-Cl-B3LYPG-6-31G_dp-MTMO-d009-169-n800
 OpenBabel09051908143D

 14 12  0  0  0  0  0  0  0  0999 V2000
   -0.7298    0.0663   -0.7855 C   0  0  0  0  0  0  0  0  0  0  0  0
    0.1529    1.1103   -0.4172 C   0  0  0  0  0  0  0  0  0  0  0  0
   -0.6055    2.1491    0.0589 C   0  0  0  0  0  0  0  0  0  0  0  0
   -1.8380    2.3354    0.2184 C   0  0  0  0  0  0  0  0  0  0  0  0
   -2.7478    1.3281   -0.1327 C   0  0  0  0  0  0  0  0  0  0  0  0
   -2.1252    0.1743   -0.6474 C   0  0  0  0  0  0  0  0  0  0  0  0
   -0.3018   -0.8486   -1.1878 H   0  0  0  0  0  0  0  0  0  0  0  0
    1.2295    1.0476   -0.5157 H   0  0  0  0  0  0  0  0  0  0  0  0
   -2.6262    3.9582    0.9405 H   0  0  0  0  0  0  0  0  0  0  0  0
   -3.8252    1.4053   -0.0270 H   0  0  0  0  0  0  0  0  0  0  0  0
    6.7836   -8.6333   -3.8243 N   0  0  0  0  0  0  0  0  0  0  0  0
    7.4215   -9.4563   -4.1948 N   0  0  0  0  0  0  0  0  0  0  0  0
   -3.3334    4.9687    1.4053 Cl  0  0  0  0  0  0  0  0  0  0  0  0
   -2.7462   -0.6651   -0.9495 H   0  0  0  0  0  0  0  0  0  0  0  0
  1  6  2  0  0  0  0
  1  2  1  0  0  0  0
  2  3  2  0  0  0  0
  3  4  1  0  0  0  0
  5 10  1  0  0  0  0
  5  4  2  0  0  0  0
  6  5  1  0  0  0  0
  7  1  1  0  0  0  0
  8  2  1  0  0  0  0
  9 13  1  0  0  0  0
 12 11  3  0  0  0  0
 14  6  1  0  0  0  0
M  RAD  2   3   2   4   2
M  END
