Coordinates from ORCA-job Ph-N2-Cl-B3LYPG-6-31G_dp-MTMO-d009-169-n800
 OpenBabel09051908143D

 14 12  0  0  0  0  0  0  0  0999 V2000
   -0.8144    0.3024   -0.7294 C   0  0  0  0  0  0  0  0  0  0  0  0
    0.0240    1.3810   -0.3567 C   0  0  0  0  0  0  0  0  0  0  0  0
   -0.7775    2.3836    0.1266 C   0  0  0  0  0  0  0  0  0  0  0  0
   -2.0164    2.5170    0.2897 C   0  0  0  0  0  0  0  0  0  0  0  0
   -2.8828    1.4735   -0.0657 C   0  0  0  0  0  0  0  0  0  0  0  0
   -2.2128    0.3502   -0.5881 C   0  0  0  0  0  0  0  0  0  0  0  0
   -0.3489   -0.5914   -1.1373 H   0  0  0  0  0  0  0  0  0  0  0  0
    1.1021    1.3653   -0.4573 H   0  0  0  0  0  0  0  0  0  0  0  0
   -2.8709    4.0986    1.0258 H   0  0  0  0  0  0  0  0  0  0  0  0
   -3.9624    1.5037    0.0424 H   0  0  0  0  0  0  0  0  0  0  0  0
    7.6238   -9.7913   -4.2220 N   0  0  0  0  0  0  0  0  0  0  0  0
    8.2621  -10.6137   -4.5933 N   0  0  0  0  0  0  0  0  0  0  0  0
   -3.6193    5.0742    1.5006 Cl  0  0  0  0  0  0  0  0  0  0  0  0
   -2.7980   -0.5131   -0.8940 H   0  0  0  0  0  0  0  0  0  0  0  0
  1  6  2  0  0  0  0
  1  2  1  0  0  0  0
  2  3  2  0  0  0  0
  3  4  1  0  0  0  0
  5 10  1  0  0  0  0
  5  4  2  0  0  0  0
  6  5  1  0  0  0  0
  7  1  1  0  0  0  0
  8  2  1  0  0  0  0
  9 13  1  0  0  0  0
 12 11  3  0  0  0  0
 14  6  1  0  0  0  0
M  RAD  2   3   2   4   2
M  END
