Coordinates from ORCA-job Ph-N2-Cl-B3LYPG-6-31G_dp-MTMO-d009-169-n800
 OpenBabel09051908143D

 14 12  0  0  0  0  0  0  0  0999 V2000
   -0.6472   -0.5009   -0.9581 C   0  0  0  0  0  0  0  0  0  0  0  0
    0.3853    0.4047   -0.6142 C   0  0  0  0  0  0  0  0  0  0  0  0
   -0.2038    1.5440   -0.1281 C   0  0  0  0  0  0  0  0  0  0  0  0
   -1.3926    1.9076    0.0563 C   0  0  0  0  0  0  0  0  0  0  0  0
   -2.4460    1.0419   -0.2706 C   0  0  0  0  0  0  0  0  0  0  0  0
   -2.0088   -0.1914   -0.7914 C   0  0  0  0  0  0  0  0  0  0  0  0
   -0.3646   -1.4685   -1.3651 H   0  0  0  0  0  0  0  0  0  0  0  0
    1.4389    0.1863   -0.7354 H   0  0  0  0  0  0  0  0  0  0  0  0
   -1.9214    3.6240    0.7897 H   0  0  0  0  0  0  0  0  0  0  0  0
   -3.4980    1.2756   -0.1433 H   0  0  0  0  0  0  0  0  0  0  0  0
    4.9699   -5.9281   -2.8621 N   0  0  0  0  0  0  0  0  0  0  0  0
    5.6133   -6.7494   -3.2271 N   0  0  0  0  0  0  0  0  0  0  0  0
   -2.4651    4.7264    1.2667 Cl  0  0  0  0  0  0  0  0  0  0  0  0
   -2.7512   -0.9323   -1.0760 H   0  0  0  0  0  0  0  0  0  0  0  0
  1  6  2  0  0  0  0
  1  2  1  0  0  0  0
  2  3  2  0  0  0  0
  3  4  1  0  0  0  0
  5 10  1  0  0  0  0
  5  4  2  0  0  0  0
  6  5  1  0  0  0  0
  7  1  1  0  0  0  0
  8  2  1  0  0  0  0
  9 13  1  0  0  0  0
 12 11  3  0  0  0  0
 14  6  1  0  0  0  0
M  RAD  2   3   2   4   2
M  END
