Coordinates from ORCA-job Ph-N2-Cl-B3LYPG-6-31G_dp-MTMO-d009-169-n800
 OpenBabel09051908143D

 14 12  0  0  0  0  0  0  0  0999 V2000
   -0.8437    0.3665   -0.7145 C   0  0  0  0  0  0  0  0  0  0  0  0
   -0.0148    1.4520   -0.3408 C   0  0  0  0  0  0  0  0  0  0  0  0
   -0.8246    2.4465    0.1453 C   0  0  0  0  0  0  0  0  0  0  0  0
   -2.0644    2.5678    0.3099 C   0  0  0  0  0  0  0  0  0  0  0  0
   -2.9220    1.5174   -0.0463 C   0  0  0  0  0  0  0  0  0  0  0  0
   -2.2423    0.4012   -0.5715 C   0  0  0  0  0  0  0  0  0  0  0  0
   -0.3705   -0.5223   -1.1246 H   0  0  0  0  0  0  0  0  0  0  0  0
    1.0633    1.4459   -0.4429 H   0  0  0  0  0  0  0  0  0  0  0  0
   -2.9329    4.1400    1.0509 H   0  0  0  0  0  0  0  0  0  0  0  0
   -4.0016    1.5379    0.0633 H   0  0  0  0  0  0  0  0  0  0  0  0
    7.8667  -10.1159   -4.3331 N   0  0  0  0  0  0  0  0  0  0  0  0
    8.5053  -10.9377   -4.7052 N   0  0  0  0  0  0  0  0  0  0  0  0
   -3.6897    5.1075    1.5290 Cl  0  0  0  0  0  0  0  0  0  0  0  0
   -2.8200   -0.4669   -0.8784 H   0  0  0  0  0  0  0  0  0  0  0  0
  1  6  2  0  0  0  0
  1  2  1  0  0  0  0
  2  3  2  0  0  0  0
  3  4  1  0  0  0  0
  5 10  1  0  0  0  0
  5  4  2  0  0  0  0
  6  5  1  0  0  0  0
  7  1  1  0  0  0  0
  8  2  1  0  0  0  0
  9 13  1  0  0  0  0
 12 11  3  0  0  0  0
 14  6  1  0  0  0  0
M  RAD  2   3   2   4   2
M  END
