Coordinates from ORCA-job Ph-N2-Cl-B3LYPG-6-31G_dp-MTMO-d009-169-n800
 OpenBabel09051908143D

 14 13  0  0  0  0  0  0  0  0999 V2000
   -1.5722   -1.4924   -1.3217 C   0  0  0  0  0  0  0  0  0  0  0  0
   -0.1742   -1.4432   -1.2672 C   0  0  0  0  0  0  0  0  0  0  0  0
    0.3468   -0.2674   -0.7795 C   0  0  0  0  0  0  0  0  0  0  0  0
   -0.3135    0.8531   -0.3436 C   0  0  0  0  0  0  0  0  0  0  0  0
   -1.7119    0.7615   -0.4153 C   0  0  0  0  0  0  0  0  0  0  0  0
   -2.3297   -0.3957   -0.8980 C   0  0  0  0  0  0  0  0  0  0  0  0
   -2.0600   -2.3874   -1.6950 H   0  0  0  0  0  0  0  0  0  0  0  0
    0.4568   -2.2645   -1.5833 H   0  0  0  0  0  0  0  0  0  0  0  0
    0.2236    1.7233    0.0217 H   0  0  0  0  0  0  0  0  0  0  0  0
   -2.3092    1.6071   -0.0886 H   0  0  0  0  0  0  0  0  0  0  0  0
    2.1474   -0.2727   -0.7382 N   0  0  0  0  0  0  0  0  0  0  0  0
    2.9636    0.4692   -0.4133 N   0  0  0  0  0  0  0  0  0  0  0  0
    2.4545    2.4932    0.4080 Cl  0  0  0  0  0  0  0  0  0  0  0  0
   -3.4133   -0.4440   -0.9449 H   0  0  0  0  0  0  0  0  0  0  0  0
  1  2  2  0  0  0  0
  1  6  1  0  0  0  0
  2  3  1  0  0  0  0
  3 11  1  0  0  0  0
  3  4  2  0  0  0  0
  4  9  1  0  0  0  0
  5  4  1  0  0  0  0
  5 10  1  0  0  0  0
  6  5  2  0  0  0  0
  7  1  1  0  0  0  0
  8  2  1  0  0  0  0
 11 12  2  0  0  0  0
 14  6  1  0  0  0  0
M  RAD  2  12   2  13   2
M  END
