Coordinates from ORCA-job Ph-N2-Cl-B3LYPG-6-31G_dp-MTMO-d009-169-n800
 OpenBabel09051908143D

 14 13  0  0  0  0  0  0  0  0999 V2000
   -1.5565   -1.4903   -1.3169 C   0  0  0  0  0  0  0  0  0  0  0  0
   -0.1617   -1.4275   -1.2605 C   0  0  0  0  0  0  0  0  0  0  0  0
    0.3753   -0.2506   -0.7759 C   0  0  0  0  0  0  0  0  0  0  0  0
   -0.3156    0.8629   -0.3460 C   0  0  0  0  0  0  0  0  0  0  0  0
   -1.7108    0.7634   -0.4177 C   0  0  0  0  0  0  0  0  0  0  0  0
   -2.3224   -0.3984   -0.8970 C   0  0  0  0  0  0  0  0  0  0  0  0
   -2.0380   -2.3894   -1.6882 H   0  0  0  0  0  0  0  0  0  0  0  0
    0.4729   -2.2470   -1.5753 H   0  0  0  0  0  0  0  0  0  0  0  0
    0.2055    1.7408    0.0188 H   0  0  0  0  0  0  0  0  0  0  0  0
   -2.3144    1.6056   -0.0939 H   0  0  0  0  0  0  0  0  0  0  0  0
    2.0760   -0.2650   -0.7456 N   0  0  0  0  0  0  0  0  0  0  0  0
    2.9244    0.4521   -0.4243 N   0  0  0  0  0  0  0  0  0  0  0  0
    2.4799    2.4368    0.4078 Cl  0  0  0  0  0  0  0  0  0  0  0  0
   -3.4058   -0.4536   -0.9442 H   0  0  0  0  0  0  0  0  0  0  0  0
  1  2  2  0  0  0  0
  1  6  1  0  0  0  0
  2  3  1  0  0  0  0
  3 11  1  0  0  0  0
  3  4  2  0  0  0  0
  4  9  1  0  0  0  0
  5  4  1  0  0  0  0
  5 10  1  0  0  0  0
  6  5  2  0  0  0  0
  7  1  1  0  0  0  0
  8  2  1  0  0  0  0
 11 12  2  0  0  0  0
 14  6  1  0  0  0  0
M  RAD  2  12   2  13   2
M  END
