Coordinates from ORCA-job Ph-N2-Cl-B3LYPG-6-31G_dp-MTMO-d009-169-n800
 OpenBabel09051908143D

 14 12  0  0  0  0  0  0  0  0999 V2000
   -0.8085   -1.0048   -1.1272 C   0  0  0  0  0  0  0  0  0  0  0  0
    0.4105   -0.3475   -0.8320 C   0  0  0  0  0  0  0  0  0  0  0  0
    0.1016    0.8862   -0.3199 C   0  0  0  0  0  0  0  0  0  0  0  0
   -0.9676    1.5017   -0.0792 C   0  0  0  0  0  0  0  0  0  0  0  0
   -2.1965    0.8846   -0.3577 C   0  0  0  0  0  0  0  0  0  0  0  0
   -2.0615   -0.4087   -0.8976 C   0  0  0  0  0  0  0  0  0  0  0  0
   -0.7613   -2.0066   -1.5458 H   0  0  0  0  0  0  0  0  0  0  0  0
    1.3846   -0.7887   -1.0019 H   0  0  0  0  0  0  0  0  0  0  0  0
   -1.0849    3.2789    0.6533 H   0  0  0  0  0  0  0  0  0  0  0  0
   -3.1659    1.3393   -0.1824 H   0  0  0  0  0  0  0  0  0  0  0  0
    3.7224   -3.5686   -2.0174 N   0  0  0  0  0  0  0  0  0  0  0  0
    4.4499   -4.3331   -2.3455 N   0  0  0  0  0  0  0  0  0  0  0  0
   -1.3550    4.4752    1.1419 Cl  0  0  0  0  0  0  0  0  0  0  0  0
   -2.9593   -0.9679   -1.1473 H   0  0  0  0  0  0  0  0  0  0  0  0
  1  6  2  0  0  0  0
  1  2  1  0  0  0  0
  2  3  2  0  0  0  0
  3  4  1  0  0  0  0
  5 10  1  0  0  0  0
  5  4  2  0  0  0  0
  6  5  1  0  0  0  0
  7  1  1  0  0  0  0
  8  2  1  0  0  0  0
  9 13  1  0  0  0  0
 12 11  3  0  0  0  0
 14  6  1  0  0  0  0
M  RAD  2   3   2   4   2
M  END
