Coordinates from ORCA-job Ph-N2-Cl-B3LYPG-6-31G_dp-MTMO-d009-169-n800
 OpenBabel09051908143D

 14 12  0  0  0  0  0  0  0  0999 V2000
   -0.7512    0.1365   -0.7685 C   0  0  0  0  0  0  0  0  0  0  0  0
    0.1169    1.1922   -0.3987 C   0  0  0  0  0  0  0  0  0  0  0  0
   -0.6561    2.2195    0.0790 C   0  0  0  0  0  0  0  0  0  0  0  0
   -1.8910    2.3883    0.2390 C   0  0  0  0  0  0  0  0  0  0  0  0
   -2.7866    1.3689   -0.1135 C   0  0  0  0  0  0  0  0  0  0  0  0
   -2.1480    0.2247   -0.6300 C   0  0  0  0  0  0  0  0  0  0  0  0
   -0.3106   -0.7718   -1.1721 H   0  0  0  0  0  0  0  0  0  0  0  0
    1.1942    1.1447   -0.4975 H   0  0  0  0  0  0  0  0  0  0  0  0
   -2.7018    3.9984    0.9646 H   0  0  0  0  0  0  0  0  0  0  0  0
   -3.8650    1.4308   -0.0074 H   0  0  0  0  0  0  0  0  0  0  0  0
    7.0250   -8.9720   -3.9410 N   0  0  0  0  0  0  0  0  0  0  0  0
    7.6629   -9.7951   -4.3114 N   0  0  0  0  0  0  0  0  0  0  0  0
   -3.4231    4.9977    1.4319 Cl  0  0  0  0  0  0  0  0  0  0  0  0
   -2.7572   -0.6229   -0.9333 H   0  0  0  0  0  0  0  0  0  0  0  0
  1  6  2  0  0  0  0
  1  2  1  0  0  0  0
  2  3  2  0  0  0  0
  3  4  1  0  0  0  0
  5 10  1  0  0  0  0
  5  4  2  0  0  0  0
  6  5  1  0  0  0  0
  7  1  1  0  0  0  0
  8  2  1  0  0  0  0
  9 13  1  0  0  0  0
 12 11  3  0  0  0  0
 14  6  1  0  0  0  0
M  RAD  2   3   2   4   2
M  END
