Coordinates from ORCA-job Ph-N2-Cl-B3LYPG-6-31G_dp-MTMO-d009-169-n800
 OpenBabel09051908143D

 14 12  0  0  0  0  0  0  0  0999 V2000
   -0.7912   -0.9711   -1.1157 C   0  0  0  0  0  0  0  0  0  0  0  0
    0.4149   -0.2927   -0.8156 C   0  0  0  0  0  0  0  0  0  0  0  0
    0.0829    0.9357   -0.3049 C   0  0  0  0  0  0  0  0  0  0  0  0
   -0.9980    1.5321   -0.0688 C   0  0  0  0  0  0  0  0  0  0  0  0
   -2.2150    0.8941   -0.3522 C   0  0  0  0  0  0  0  0  0  0  0  0
   -2.0554   -0.3967   -0.8914 C   0  0  0  0  0  0  0  0  0  0  0  0
   -0.7250   -1.9719   -1.5340 H   0  0  0  0  0  0  0  0  0  0  0  0
    1.3973   -0.7164   -0.9812 H   0  0  0  0  0  0  0  0  0  0  0  0
   -1.1488    3.3074    0.6645 H   0  0  0  0  0  0  0  0  0  0  0  0
   -3.1928    1.3319   -0.1810 H   0  0  0  0  0  0  0  0  0  0  0  0
    3.8163   -3.7222   -2.0761 N   0  0  0  0  0  0  0  0  0  0  0  0
    4.5074   -4.5172   -2.4107 N   0  0  0  0  0  0  0  0  0  0  0  0
   -1.4416    4.4983    1.1530 Cl  0  0  0  0  0  0  0  0  0  0  0  0
   -2.9422   -0.9714   -1.1447 H   0  0  0  0  0  0  0  0  0  0  0  0
  1  6  2  0  0  0  0
  1  2  1  0  0  0  0
  2  3  2  0  0  0  0
  3  4  1  0  0  0  0
  5 10  1  0  0  0  0
  5  4  2  0  0  0  0
  6  5  1  0  0  0  0
  7  1  1  0  0  0  0
  8  2  1  0  0  0  0
  9 13  1  0  0  0  0
 12 11  3  0  0  0  0
 14  6  1  0  0  0  0
M  RAD  2   3   2   4   2
M  END
