Coordinates from ORCA-job Ph-N2-Cl-B3LYPG-6-31G_dp-MTMO-d009-169-n800
 OpenBabel09051908143D

 14 12  0  0  0  0  0  0  0  0999 V2000
   -0.7046   -0.7354   -1.0373 C   0  0  0  0  0  0  0  0  0  0  0  0
    0.4145    0.0685   -0.7119 C   0  0  0  0  0  0  0  0  0  0  0  0
   -0.0571    1.2554   -0.2126 C   0  0  0  0  0  0  0  0  0  0  0  0
   -1.2019    1.7301   -0.0038 C   0  0  0  0  0  0  0  0  0  0  0  0
   -2.3373    0.9667   -0.3123 C   0  0  0  0  0  0  0  0  0  0  0  0
   -2.0279   -0.3001   -0.8436 C   0  0  0  0  0  0  0  0  0  0  0  0
   -0.5219   -1.7237   -1.4513 H   0  0  0  0  0  0  0  0  0  0  0  0
    1.4404   -0.2468   -0.8540 H   0  0  0  0  0  0  0  0  0  0  0  0
   -1.5556    3.4815    0.7348 H   0  0  0  0  0  0  0  0  0  0  0  0
   -3.3601    1.2974   -0.1644 H   0  0  0  0  0  0  0  0  0  0  0  0
    4.3992   -4.8474   -2.4774 N   0  0  0  0  0  0  0  0  0  0  0  0
    5.0476   -5.6693   -2.8319 N   0  0  0  0  0  0  0  0  0  0  0  0
   -1.9847    4.6300    1.2218 Cl  0  0  0  0  0  0  0  0  0  0  0  0
   -2.8419   -0.9670   -1.1150 H   0  0  0  0  0  0  0  0  0  0  0  0
  1  6  2  0  0  0  0
  1  2  1  0  0  0  0
  2  3  2  0  0  0  0
  3  4  1  0  0  0  0
  5 10  1  0  0  0  0
  5  4  2  0  0  0  0
  6  5  1  0  0  0  0
  7  1  1  0  0  0  0
  8  2  1  0  0  0  0
  9 13  1  0  0  0  0
 12 11  3  0  0  0  0
 14  6  1  0  0  0  0
M  RAD  2   3   2   4   2
M  END
