Coordinates from ORCA-job Ph-N2-Cl-B3LYPG-6-31G_dp-MTMO-d009-169-n800
 OpenBabel09051908143D

 14 12  0  0  0  0  0  0  0  0999 V2000
   -0.7303   -0.8164   -1.0628 C   0  0  0  0  0  0  0  0  0  0  0  0
    0.4185   -0.0524   -0.7445 C   0  0  0  0  0  0  0  0  0  0  0  0
   -0.0084    1.1498   -0.2420 C   0  0  0  0  0  0  0  0  0  0  0  0
   -1.1339    1.6653   -0.0254 C   0  0  0  0  0  0  0  0  0  0  0  0
   -2.2972    0.9419   -0.3267 C   0  0  0  0  0  0  0  0  0  0  0  0
   -2.0361   -0.3347   -0.8604 C   0  0  0  0  0  0  0  0  0  0  0  0
   -0.5852   -1.8104   -1.4780 H   0  0  0  0  0  0  0  0  0  0  0  0
    1.4317   -0.4037   -0.8927 H   0  0  0  0  0  0  0  0  0  0  0  0
   -1.4216    3.4270    0.7113 H   0  0  0  0  0  0  0  0  0  0  0  0
   -3.3068    1.3081   -0.1721 H   0  0  0  0  0  0  0  0  0  0  0  0
    4.2047   -4.4658   -2.3432 N   0  0  0  0  0  0  0  0  0  0  0  0
    4.8547   -5.2877   -2.6947 N   0  0  0  0  0  0  0  0  0  0  0  0
   -1.8064    4.5912    1.1989 Cl  0  0  0  0  0  0  0  0  0  0  0  0
   -2.8749   -0.9724   -1.1266 H   0  0  0  0  0  0  0  0  0  0  0  0
  1  6  2  0  0  0  0
  1  2  1  0  0  0  0
  2  3  2  0  0  0  0
  3  4  1  0  0  0  0
  5 10  1  0  0  0  0
  5  4  2  0  0  0  0
  6  5  1  0  0  0  0
  7  1  1  0  0  0  0
  8  2  1  0  0  0  0
  9 13  1  0  0  0  0
 12 11  3  0  0  0  0
 14  6  1  0  0  0  0
M  RAD  2   3   2   4   2
M  END
