Coordinates from ORCA-job Ph-N2-Cl-B3LYPG-6-31G_dp-MTMO-d009-169-n800
 OpenBabel09051908143D

 14 12  0  0  0  0  0  0  0  0999 V2000
   -0.8803    0.4369   -0.6995 C   0  0  0  0  0  0  0  0  0  0  0  0
   -0.0598    1.5283   -0.3245 C   0  0  0  0  0  0  0  0  0  0  0  0
   -0.8768    2.5146    0.1659 C   0  0  0  0  0  0  0  0  0  0  0  0
   -2.1173    2.6252    0.3334 C   0  0  0  0  0  0  0  0  0  0  0  0
   -2.9668    1.5686   -0.0239 C   0  0  0  0  0  0  0  0  0  0  0  0
   -2.2789    0.4595   -0.5536 C   0  0  0  0  0  0  0  0  0  0  0  0
   -0.4006   -0.4469   -1.1129 H   0  0  0  0  0  0  0  0  0  0  0  0
    1.0181    1.5315   -0.4289 H   0  0  0  0  0  0  0  0  0  0  0  0
   -2.9974    4.1875    1.0811 H   0  0  0  0  0  0  0  0  0  0  0  0
   -4.0463    1.5798    0.0880 H   0  0  0  0  0  0  0  0  0  0  0  0
    8.1433  -10.4794   -4.4565 N   0  0  0  0  0  0  0  0  0  0  0  0
    8.7826  -11.3001   -4.8298 N   0  0  0  0  0  0  0  0  0  0  0  0
   -3.7613    5.1470    1.5640 Cl  0  0  0  0  0  0  0  0  0  0  0  0
   -2.8500   -0.4125   -0.8616 H   0  0  0  0  0  0  0  0  0  0  0  0
  1  6  2  0  0  0  0
  1  2  1  0  0  0  0
  2  3  2  0  0  0  0
  3  4  1  0  0  0  0
  5 10  1  0  0  0  0
  5  4  2  0  0  0  0
  6  5  1  0  0  0  0
  7  1  1  0  0  0  0
  8  2  1  0  0  0  0
  9 13  1  0  0  0  0
 12 11  3  0  0  0  0
 14  6  1  0  0  0  0
M  RAD  2   3   2   4   2
M  END
