Coordinates from ORCA-job Ph-N2-Cl-B3LYPG-6-31G_dp-MTMO-d009-169-n800
 OpenBabel09051908143D

 14 12  0  0  0  0  0  0  0  0999 V2000
   -0.7328   -0.8248   -1.0658 C   0  0  0  0  0  0  0  0  0  0  0  0
    0.4190   -0.0649   -0.7483 C   0  0  0  0  0  0  0  0  0  0  0  0
   -0.0032    1.1387   -0.2454 C   0  0  0  0  0  0  0  0  0  0  0  0
   -1.1267    1.6583   -0.0276 C   0  0  0  0  0  0  0  0  0  0  0  0
   -2.2928    0.9390   -0.3281 C   0  0  0  0  0  0  0  0  0  0  0  0
   -2.0367   -0.3384   -0.8622 C   0  0  0  0  0  0  0  0  0  0  0  0
   -0.5916   -1.8192   -1.4812 H   0  0  0  0  0  0  0  0  0  0  0  0
    1.4308   -0.4198   -0.8975 H   0  0  0  0  0  0  0  0  0  0  0  0
   -1.4076    3.4208    0.7090 H   0  0  0  0  0  0  0  0  0  0  0  0
   -3.3009    1.3088   -0.1725 H   0  0  0  0  0  0  0  0  0  0  0  0
    4.1832   -4.4251   -2.3287 N   0  0  0  0  0  0  0  0  0  0  0  0
    4.8336   -5.2471   -2.6794 N   0  0  0  0  0  0  0  0  0  0  0  0
   -1.7878    4.5865    1.1967 Cl  0  0  0  0  0  0  0  0  0  0  0  0
   -2.8780   -0.9730   -1.1278 H   0  0  0  0  0  0  0  0  0  0  0  0
  1  6  2  0  0  0  0
  1  2  1  0  0  0  0
  2  3  2  0  0  0  0
  3  4  1  0  0  0  0
  5 10  1  0  0  0  0
  5  4  2  0  0  0  0
  6  5  1  0  0  0  0
  7  1  1  0  0  0  0
  8  2  1  0  0  0  0
  9 13  1  0  0  0  0
 12 11  3  0  0  0  0
 14  6  1  0  0  0  0
M  RAD  2   3   2   4   2
M  END
