Coordinates from ORCA-job Ph-N2-Cl-B3LYPG-6-31G_dp-MTMO-d009-169-n800
 OpenBabel09051908143D

 14 12  0  0  0  0  0  0  0  0999 V2000
   -0.7785    0.2136   -0.7503 C   0  0  0  0  0  0  0  0  0  0  0  0
    0.0750    1.2808   -0.3791 C   0  0  0  0  0  0  0  0  0  0  0  0
   -0.7124    2.2960    0.1010 C   0  0  0  0  0  0  0  0  0  0  0  0
   -1.9494    2.4476    0.2623 C   0  0  0  0  0  0  0  0  0  0  0  0
   -2.8305    1.4160   -0.0917 C   0  0  0  0  0  0  0  0  0  0  0  0
   -2.1762    0.2819   -0.6107 C   0  0  0  0  0  0  0  0  0  0  0  0
   -0.3254   -0.6877   -1.1557 H   0  0  0  0  0  0  0  0  0  0  0  0
    1.1529    1.2492   -0.4784 H   0  0  0  0  0  0  0  0  0  0  0  0
   -2.7818    4.0438    0.9925 H   0  0  0  0  0  0  0  0  0  0  0  0
   -3.9096    1.4621    0.0151 H   0  0  0  0  0  0  0  0  0  0  0  0
    7.2984   -9.3494   -4.0705 N   0  0  0  0  0  0  0  0  0  0  0  0
    7.9363  -10.1723   -4.4411 N   0  0  0  0  0  0  0  0  0  0  0  0
   -3.5167    5.0317    1.4632 Cl  0  0  0  0  0  0  0  0  0  0  0  0
   -2.7735   -0.5735   -0.9153 H   0  0  0  0  0  0  0  0  0  0  0  0
  1  6  2  0  0  0  0
  1  2  1  0  0  0  0
  2  3  2  0  0  0  0
  3  4  1  0  0  0  0
  5 10  1  0  0  0  0
  5  4  2  0  0  0  0
  6  5  1  0  0  0  0
  7  1  1  0  0  0  0
  8  2  1  0  0  0  0
  9 13  1  0  0  0  0
 12 11  3  0  0  0  0
 14  6  1  0  0  0  0
M  RAD  2   3   2   4   2
M  END
