Coordinates from ORCA-job Ph-N2-Cl-B3LYPG-6-31G_dp-MTMO-d009-169-n800
 OpenBabel09051908143D

 14 12  0  0  0  0  0  0  0  0999 V2000
   -0.6464   -0.5117   -0.9618 C   0  0  0  0  0  0  0  0  0  0  0  0
    0.3891    0.3908   -0.6185 C   0  0  0  0  0  0  0  0  0  0  0  0
   -0.1963    1.5319   -0.1320 C   0  0  0  0  0  0  0  0  0  0  0  0
   -1.3838    1.8991    0.0531 C   0  0  0  0  0  0  0  0  0  0  0  0
   -2.4400    1.0367   -0.2731 C   0  0  0  0  0  0  0  0  0  0  0  0
   -2.0069   -0.1980   -0.7942 C   0  0  0  0  0  0  0  0  0  0  0  0
   -0.3671   -1.4801   -1.3691 H   0  0  0  0  0  0  0  0  0  0  0  0
    1.4419    0.1692   -0.7404 H   0  0  0  0  0  0  0  0  0  0  0  0
   -1.9068    3.6170    0.7871 H   0  0  0  0  0  0  0  0  0  0  0  0
   -3.4913    1.2736   -0.1451 H   0  0  0  0  0  0  0  0  0  0  0  0
    4.9362   -5.8754   -2.8432 N   0  0  0  0  0  0  0  0  0  0  0  0
    5.5787   -6.6975   -3.2078 N   0  0  0  0  0  0  0  0  0  0  0  0
   -2.4470    4.7209    1.2646 Cl  0  0  0  0  0  0  0  0  0  0  0  0
   -2.7518   -0.9366   -1.0784 H   0  0  0  0  0  0  0  0  0  0  0  0
  1  6  2  0  0  0  0
  1  2  1  0  0  0  0
  2  3  2  0  0  0  0
  3  4  1  0  0  0  0
  5 10  1  0  0  0  0
  5  4  2  0  0  0  0
  6  5  1  0  0  0  0
  7  1  1  0  0  0  0
  8  2  1  0  0  0  0
  9 13  1  0  0  0  0
 12 11  3  0  0  0  0
 14  6  1  0  0  0  0
M  RAD  2   3   2   4   2
M  END
