Coordinates from ORCA-job Ph-N2-Cl-B3LYPG-6-31G_dp-MTMO-d009-169-n800
 OpenBabel09051908143D

 14 12  0  0  0  0  0  0  0  0999 V2000
   -0.7060   -0.7386   -1.0380 C   0  0  0  0  0  0  0  0  0  0  0  0
    0.4144    0.0637   -0.7129 C   0  0  0  0  0  0  0  0  0  0  0  0
   -0.0554    1.2513   -0.2135 C   0  0  0  0  0  0  0  0  0  0  0  0
   -1.1994    1.7278   -0.0046 C   0  0  0  0  0  0  0  0  0  0  0  0
   -2.3359    0.9661   -0.3129 C   0  0  0  0  0  0  0  0  0  0  0  0
   -2.0286   -0.3012   -0.8442 C   0  0  0  0  0  0  0  0  0  0  0  0
   -0.5249   -1.7271   -1.4521 H   0  0  0  0  0  0  0  0  0  0  0  0
    1.4398   -0.2532   -0.8550 H   0  0  0  0  0  0  0  0  0  0  0  0
   -1.5504    3.4797    0.7338 H   0  0  0  0  0  0  0  0  0  0  0  0
   -3.3582    1.2983   -0.1648 H   0  0  0  0  0  0  0  0  0  0  0  0
    4.3931   -4.8334   -2.4727 N   0  0  0  0  0  0  0  0  0  0  0  0
    5.0414   -5.6553   -2.8273 N   0  0  0  0  0  0  0  0  0  0  0  0
   -1.9777    4.6290    1.2208 Cl  0  0  0  0  0  0  0  0  0  0  0  0
   -2.8436   -0.9670   -1.1154 H   0  0  0  0  0  0  0  0  0  0  0  0
  1  6  2  0  0  0  0
  1  2  1  0  0  0  0
  2  3  2  0  0  0  0
  3  4  1  0  0  0  0
  5 10  1  0  0  0  0
  5  4  2  0  0  0  0
  6  5  1  0  0  0  0
  7  1  1  0  0  0  0
  8  2  1  0  0  0  0
  9 13  1  0  0  0  0
 12 11  3  0  0  0  0
 14  6  1  0  0  0  0
M  RAD  2   3   2   4   2
M  END
