Coordinates from ORCA-job Ph-N2-Cl-B3LYPG-6-31G_dp-MTMO-d009-169-n800
 OpenBabel09051908143D

 14 12  0  0  0  0  0  0  0  0999 V2000
   -0.7230   -0.7888   -1.0528 C   0  0  0  0  0  0  0  0  0  0  0  0
    0.4161   -0.0115   -0.7315 C   0  0  0  0  0  0  0  0  0  0  0  0
   -0.0259    1.1861   -0.2308 C   0  0  0  0  0  0  0  0  0  0  0  0
   -1.1580    1.6885   -0.0178 C   0  0  0  0  0  0  0  0  0  0  0  0
   -2.3121    0.9518   -0.3221 C   0  0  0  0  0  0  0  0  0  0  0  0
   -2.0348   -0.3220   -0.8543 C   0  0  0  0  0  0  0  0  0  0  0  0
   -0.5653   -1.7812   -1.4671 H   0  0  0  0  0  0  0  0  0  0  0  0
    1.4337   -0.3513   -0.8767 H   0  0  0  0  0  0  0  0  0  0  0  0
   -1.4676    3.4472    0.7189 H   0  0  0  0  0  0  0  0  0  0  0  0
   -3.3262    1.3065   -0.1705 H   0  0  0  0  0  0  0  0  0  0  0  0
    4.2777   -4.6007   -2.3914 N   0  0  0  0  0  0  0  0  0  0  0  0
    4.9268   -5.4220   -2.7460 N   0  0  0  0  0  0  0  0  0  0  0  0
   -1.8672    4.6066    1.2058 Cl  0  0  0  0  0  0  0  0  0  0  0  0
   -2.8655   -0.9694   -1.1227 H   0  0  0  0  0  0  0  0  0  0  0  0
  1  6  2  0  0  0  0
  1  2  1  0  0  0  0
  2  3  2  0  0  0  0
  3  4  1  0  0  0  0
  5 10  1  0  0  0  0
  5  4  2  0  0  0  0
  6  5  1  0  0  0  0
  7  1  1  0  0  0  0
  8  2  1  0  0  0  0
  9 13  1  0  0  0  0
 12 11  3  0  0  0  0
 14  6  1  0  0  0  0
M  RAD  2   3   2   4   2
M  END
