Coordinates from ORCA-job Ph-N2-Cl-B3LYPG-6-31G_dp-MTMO-d009-169-n800
 OpenBabel09051908143D

 14 12  0  0  0  0  0  0  0  0999 V2000
   -0.7410   -0.8500   -1.0747 C   0  0  0  0  0  0  0  0  0  0  0  0
    0.4199   -0.1030   -0.7601 C   0  0  0  0  0  0  0  0  0  0  0  0
    0.0121    1.1050   -0.2555 C   0  0  0  0  0  0  0  0  0  0  0  0
   -1.1048    1.6371   -0.0345 C   0  0  0  0  0  0  0  0  0  0  0  0
   -2.2795    0.9307   -0.3322 C   0  0  0  0  0  0  0  0  0  0  0  0
   -2.0389   -0.3493   -0.8675 C   0  0  0  0  0  0  0  0  0  0  0  0
   -0.6119   -1.8457   -1.4909 H   0  0  0  0  0  0  0  0  0  0  0  0
    1.4274   -0.4689   -0.9121 H   0  0  0  0  0  0  0  0  0  0  0  0
   -1.3646    3.4021    0.7018 H   0  0  0  0  0  0  0  0  0  0  0  0
   -3.2830    1.3115   -0.1738 H   0  0  0  0  0  0  0  0  0  0  0  0
    4.1198   -4.3028   -2.2851 N   0  0  0  0  0  0  0  0  0  0  0  0
    4.7717   -5.1247   -2.6331 N   0  0  0  0  0  0  0  0  0  0  0  0
   -1.7306    4.5723    1.1900 Cl  0  0  0  0  0  0  0  0  0  0  0  0
   -2.8879   -0.9745   -1.1311 H   0  0  0  0  0  0  0  0  0  0  0  0
  1  6  2  0  0  0  0
  1  2  1  0  0  0  0
  2  3  2  0  0  0  0
  3  4  1  0  0  0  0
  5 10  1  0  0  0  0
  5  4  2  0  0  0  0
  6  5  1  0  0  0  0
  7  1  1  0  0  0  0
  8  2  1  0  0  0  0
  9 13  1  0  0  0  0
 12 11  3  0  0  0  0
 14  6  1  0  0  0  0
M  RAD  2   3   2   4   2
M  END
