Coordinates from ORCA-job Ph-N2-Cl-B3LYPG-6-31G_dp-MTMO-d009-169-n800
 OpenBabel09051908143D

 14 12  0  0  0  0  0  0  0  0999 V2000
   -0.8994    0.4690   -0.6940 C   0  0  0  0  0  0  0  0  0  0  0  0
   -0.0814    1.5621   -0.3183 C   0  0  0  0  0  0  0  0  0  0  0  0
   -0.9009    2.5449    0.1752 C   0  0  0  0  0  0  0  0  0  0  0  0
   -2.1413    2.6522    0.3451 C   0  0  0  0  0  0  0  0  0  0  0  0
   -2.9880    1.5934   -0.0131 C   0  0  0  0  0  0  0  0  0  0  0  0
   -2.2978    0.4874   -0.5459 C   0  0  0  0  0  0  0  0  0  0  0  0
   -0.4178   -0.4126   -1.1098 H   0  0  0  0  0  0  0  0  0  0  0  0
    0.9963    1.5692   -0.4242 H   0  0  0  0  0  0  0  0  0  0  0  0
   -3.0245    4.2098    1.0971 H   0  0  0  0  0  0  0  0  0  0  0  0
   -4.0674    1.6009    0.1004 H   0  0  0  0  0  0  0  0  0  0  0  0
    8.2741  -10.6484   -4.5129 N   0  0  0  0  0  0  0  0  0  0  0  0
    8.9139  -11.4684   -4.8869 N   0  0  0  0  0  0  0  0  0  0  0  0
   -3.7905    5.1661    1.5832 Cl  0  0  0  0  0  0  0  0  0  0  0  0
   -2.8668   -0.3857   -0.8546 H   0  0  0  0  0  0  0  0  0  0  0  0
  1  6  2  0  0  0  0
  1  2  1  0  0  0  0
  2  3  2  0  0  0  0
  3  4  1  0  0  0  0
  5 10  1  0  0  0  0
  5  4  2  0  0  0  0
  6  5  1  0  0  0  0
  7  1  1  0  0  0  0
  8  2  1  0  0  0  0
  9 13  1  0  0  0  0
 12 11  3  0  0  0  0
 14  6  1  0  0  0  0
M  RAD  2   3   2   4   2
M  END
