Coordinates from ORCA-job Ph-N2-Cl-B3LYPG-6-31G_dp-MTMO-d009-169-n800
 OpenBabel09051908143D

 14 12  0  0  0  0  0  0  0  0999 V2000
   -0.6588   -0.3568   -0.9111 C   0  0  0  0  0  0  0  0  0  0  0  0
    0.3332    0.5901   -0.5590 C   0  0  0  0  0  0  0  0  0  0  0  0
   -0.3059    1.7039   -0.0769 C   0  0  0  0  0  0  0  0  0  0  0  0
   -1.5098    2.0186    0.0983 C   0  0  0  0  0  0  0  0  0  0  0  0
   -2.5245    1.1108   -0.2368 C   0  0  0  0  0  0  0  0  0  0  0  0
   -2.0332   -0.1033   -0.7548 C   0  0  0  0  0  0  0  0  0  0  0  0
   -0.3337   -1.3119   -1.3159 H   0  0  0  0  0  0  0  0  0  0  0  0
    1.3957    0.4150   -0.6718 H   0  0  0  0  0  0  0  0  0  0  0  0
   -2.1123    3.7149    0.8257 H   0  0  0  0  0  0  0  0  0  0  0  0
   -3.5863    1.3010   -0.1174 H   0  0  0  0  0  0  0  0  0  0  0  0
    5.4246   -6.6214   -3.1097 N   0  0  0  0  0  0  0  0  0  0  0  0
    6.0645   -7.4427   -3.4806 N   0  0  0  0  0  0  0  0  0  0  0  0
   -2.7025    4.7956    1.2966 Cl  0  0  0  0  0  0  0  0  0  0  0  0
   -2.7425   -0.8738   -1.0453 H   0  0  0  0  0  0  0  0  0  0  0  0
  1  6  2  0  0  0  0
  1  2  1  0  0  0  0
  2  3  2  0  0  0  0
  3  4  1  0  0  0  0
  5 10  1  0  0  0  0
  5  4  2  0  0  0  0
  6  5  1  0  0  0  0
  7  1  1  0  0  0  0
  8  2  1  0  0  0  0
  9 13  1  0  0  0  0
 12 11  3  0  0  0  0
 14  6  1  0  0  0  0
M  RAD  2   3   2   4   2
M  END
