Coordinates from ORCA-job Ph-N2-Cl-B3LYPG-6-31G_dp-MTMO-d009-169-n800
 OpenBabel09051908143D

 14 12  0  0  0  0  0  0  0  0999 V2000
   -0.6558   -0.4428   -0.9394 C   0  0  0  0  0  0  0  0  0  0  0  0
    0.3619    0.4783   -0.5925 C   0  0  0  0  0  0  0  0  0  0  0  0
   -0.2459    1.6082   -0.1075 C   0  0  0  0  0  0  0  0  0  0  0  0
   -1.4404    1.9539    0.0738 C   0  0  0  0  0  0  0  0  0  0  0  0
   -2.4796    1.0723   -0.2561 C   0  0  0  0  0  0  0  0  0  0  0  0
   -2.0224   -0.1540   -0.7762 C   0  0  0  0  0  0  0  0  0  0  0  0
   -0.3574   -1.4059   -1.3457 H   0  0  0  0  0  0  0  0  0  0  0  0
    1.4190    0.2759   -0.7107 H   0  0  0  0  0  0  0  0  0  0  0  0
   -1.9964    3.6628    0.8054 H   0  0  0  0  0  0  0  0  0  0  0  0
   -3.5355    1.2899   -0.1315 H   0  0  0  0  0  0  0  0  0  0  0  0
    5.1624   -6.2162   -2.9643 N   0  0  0  0  0  0  0  0  0  0  0  0
    5.8089   -7.0340   -3.3315 N   0  0  0  0  0  0  0  0  0  0  0  0
   -2.5574    4.7573    1.2805 Cl  0  0  0  0  0  0  0  0  0  0  0  0
   -2.7528   -0.9060   -1.0630 H   0  0  0  0  0  0  0  0  0  0  0  0
  1  6  2  0  0  0  0
  1  2  1  0  0  0  0
  2  3  2  0  0  0  0
  3  4  1  0  0  0  0
  5 10  1  0  0  0  0
  5  4  2  0  0  0  0
  6  5  1  0  0  0  0
  7  1  1  0  0  0  0
  8  2  1  0  0  0  0
  9 13  1  0  0  0  0
 12 11  3  0  0  0  0
 14  6  1  0  0  0  0
M  RAD  2   3   2   4   2
M  END
