Coordinates from ORCA-job Ph-N2-Cl-B3LYPG-6-31G_dp-MTMO-d009-169-n800
 OpenBabel09051908143D

 14 12  0  0  0  0  0  0  0  0999 V2000
   -0.6479   -0.5228   -0.9664 C   0  0  0  0  0  0  0  0  0  0  0  0
    0.3915    0.3756   -0.6242 C   0  0  0  0  0  0  0  0  0  0  0  0
   -0.1897    1.5181   -0.1367 C   0  0  0  0  0  0  0  0  0  0  0  0
   -1.3750    1.8915    0.0506 C   0  0  0  0  0  0  0  0  0  0  0  0
   -2.4345    1.0321   -0.2751 C   0  0  0  0  0  0  0  0  0  0  0  0
   -2.0070   -0.2038   -0.7970 C   0  0  0  0  0  0  0  0  0  0  0  0
   -0.3726   -1.4921   -1.3743 H   0  0  0  0  0  0  0  0  0  0  0  0
    1.4434    0.1503   -0.7473 H   0  0  0  0  0  0  0  0  0  0  0  0
   -1.8893    3.6089    0.7848 H   0  0  0  0  0  0  0  0  0  0  0  0
   -3.4848    1.2726   -0.1458 H   0  0  0  0  0  0  0  0  0  0  0  0
    4.9052   -5.8223   -2.8233 N   0  0  0  0  0  0  0  0  0  0  0  0
    5.5484   -6.6443   -3.1871 N   0  0  0  0  0  0  0  0  0  0  0  0
   -2.4239    4.7154    1.2636 Cl  0  0  0  0  0  0  0  0  0  0  0  0
   -2.7552   -0.9394   -1.0804 H   0  0  0  0  0  0  0  0  0  0  0  0
  1  6  2  0  0  0  0
  1  2  1  0  0  0  0
  2  3  2  0  0  0  0
  3  4  1  0  0  0  0
  5 10  1  0  0  0  0
  5  4  2  0  0  0  0
  6  5  1  0  0  0  0
  7  1  1  0  0  0  0
  8  2  1  0  0  0  0
  9 13  1  0  0  0  0
 12 11  3  0  0  0  0
 14  6  1  0  0  0  0
M  RAD  2   3   2   4   2
M  END
