Coordinates from ORCA-job Ph-N2-Cl-B3LYPG-6-31G_dp-MTMO-d009-169-n800
 OpenBabel09051908143D

 14 12  0  0  0  0  0  0  0  0999 V2000
   -0.7885    0.2400   -0.7440 C   0  0  0  0  0  0  0  0  0  0  0  0
    0.0602    1.3107   -0.3724 C   0  0  0  0  0  0  0  0  0  0  0  0
   -0.7316    2.3221    0.1086 C   0  0  0  0  0  0  0  0  0  0  0  0
   -1.9692    2.4680    0.2703 C   0  0  0  0  0  0  0  0  0  0  0  0
   -2.8458    1.4326   -0.0841 C   0  0  0  0  0  0  0  0  0  0  0  0
   -2.1865    0.3019   -0.6041 C   0  0  0  0  0  0  0  0  0  0  0  0
   -0.3315   -0.6591   -1.1502 H   0  0  0  0  0  0  0  0  0  0  0  0
    1.1382    1.2841   -0.4720 H   0  0  0  0  0  0  0  0  0  0  0  0
   -2.8087    4.0597    1.0022 H   0  0  0  0  0  0  0  0  0  0  0  0
   -3.9250    1.4738    0.0230 H   0  0  0  0  0  0  0  0  0  0  0  0
    7.3934   -9.4794   -4.1151 N   0  0  0  0  0  0  0  0  0  0  0  0
    8.0314  -10.3023   -4.4859 N   0  0  0  0  0  0  0  0  0  0  0  0
   -3.5478    5.0439    1.4740 Cl  0  0  0  0  0  0  0  0  0  0  0  0
   -2.7800   -0.5561   -0.9090 H   0  0  0  0  0  0  0  0  0  0  0  0
  1  6  2  0  0  0  0
  1  2  1  0  0  0  0
  2  3  2  0  0  0  0
  3  4  1  0  0  0  0
  5 10  1  0  0  0  0
  5  4  2  0  0  0  0
  6  5  1  0  0  0  0
  7  1  1  0  0  0  0
  8  2  1  0  0  0  0
  9 13  1  0  0  0  0
 12 11  3  0  0  0  0
 14  6  1  0  0  0  0
M  RAD  2   3   2   4   2
M  END
