Coordinates from ORCA-job Ph-N2-Cl-B3LYPG-6-31G_dp-MTMO-d009-169-n800
 OpenBabel09051908143D

 14 12  0  0  0  0  0  0  0  0999 V2000
   -0.6801   -0.1351   -0.8385 C   0  0  0  0  0  0  0  0  0  0  0  0
    0.2488    0.8699   -0.4755 C   0  0  0  0  0  0  0  0  0  0  0  0
   -0.4619    1.9428   -0.0013 C   0  0  0  0  0  0  0  0  0  0  0  0
   -1.6845    2.1841    0.1602 C   0  0  0  0  0  0  0  0  0  0  0  0
   -2.6387    1.2168   -0.1858 C   0  0  0  0  0  0  0  0  0  0  0  0
   -2.0690    0.0349   -0.6978 C   0  0  0  0  0  0  0  0  0  0  0  0
   -0.2936   -1.0690   -1.2390 H   0  0  0  0  0  0  0  0  0  0  0  0
    1.3213    0.7593   -0.5762 H   0  0  0  0  0  0  0  0  0  0  0  0
   -2.3972    3.8432    0.8771 H   0  0  0  0  0  0  0  0  0  0  0  0
   -3.7114    1.3422   -0.0782 H   0  0  0  0  0  0  0  0  0  0  0  0
    6.1109   -7.6679   -3.4875 N   0  0  0  0  0  0  0  0  0  0  0  0
    6.7480   -8.4910   -3.8593 N   0  0  0  0  0  0  0  0  0  0  0  0
   -3.0569    4.8868    1.3389 Cl  0  0  0  0  0  0  0  0  0  0  0  0
   -2.7272   -0.7771   -0.9958 H   0  0  0  0  0  0  0  0  0  0  0  0
  1  6  2  0  0  0  0
  1  2  1  0  0  0  0
  2  3  2  0  0  0  0
  3  4  1  0  0  0  0
  5 10  1  0  0  0  0
  5  4  2  0  0  0  0
  6  5  1  0  0  0  0
  7  1  1  0  0  0  0
  8  2  1  0  0  0  0
  9 13  1  0  0  0  0
 12 11  3  0  0  0  0
 14  6  1  0  0  0  0
M  RAD  2   3   2   4   2
M  END
