Coordinates from ORCA-job Ph-N2-Cl-B3LYPG-6-31G_dp-MTMO-d009-169-n800
 OpenBabel09051908143D

 14 12  0  0  0  0  0  0  0  0999 V2000
   -0.7906    0.2452   -0.7428 C   0  0  0  0  0  0  0  0  0  0  0  0
    0.0572    1.3167   -0.3711 C   0  0  0  0  0  0  0  0  0  0  0  0
   -0.7355    2.3272    0.1101 C   0  0  0  0  0  0  0  0  0  0  0  0
   -1.9732    2.4721    0.2719 C   0  0  0  0  0  0  0  0  0  0  0  0
   -2.8488    1.4360   -0.0826 C   0  0  0  0  0  0  0  0  0  0  0  0
   -2.1886    0.3059   -0.6027 C   0  0  0  0  0  0  0  0  0  0  0  0
   -0.3328   -0.6534   -1.1491 H   0  0  0  0  0  0  0  0  0  0  0  0
    1.1352    1.2910   -0.4708 H   0  0  0  0  0  0  0  0  0  0  0  0
   -2.8140    4.0629    1.0041 H   0  0  0  0  0  0  0  0  0  0  0  0
   -3.9281    1.4762    0.0246 H   0  0  0  0  0  0  0  0  0  0  0  0
    7.4125   -9.5054   -4.1241 N   0  0  0  0  0  0  0  0  0  0  0  0
    8.0505  -10.3282   -4.4948 N   0  0  0  0  0  0  0  0  0  0  0  0
   -3.5540    5.0463    1.4762 Cl  0  0  0  0  0  0  0  0  0  0  0  0
   -2.7814   -0.5526   -0.9078 H   0  0  0  0  0  0  0  0  0  0  0  0
  1  6  2  0  0  0  0
  1  2  1  0  0  0  0
  2  3  2  0  0  0  0
  3  4  1  0  0  0  0
  5 10  1  0  0  0  0
  5  4  2  0  0  0  0
  6  5  1  0  0  0  0
  7  1  1  0  0  0  0
  8  2  1  0  0  0  0
  9 13  1  0  0  0  0
 12 11  3  0  0  0  0
 14  6  1  0  0  0  0
M  RAD  2   3   2   4   2
M  END
