Coordinates from ORCA-job Ph-N2-Cl-B3LYPG-6-31G_dp-MTMO-d009-169-n800
 OpenBabel09051908143D

 14 12  0  0  0  0  0  0  0  0999 V2000
   -0.6723   -0.6492   -1.0131 C   0  0  0  0  0  0  0  0  0  0  0  0
    0.4129    0.1976   -0.6818 C   0  0  0  0  0  0  0  0  0  0  0  0
   -0.1068    1.3656   -0.1849 C   0  0  0  0  0  0  0  0  0  0  0  0
   -1.2707    1.7941    0.0173 C   0  0  0  0  0  0  0  0  0  0  0  0
   -2.3741    0.9877   -0.2970 C   0  0  0  0  0  0  0  0  0  0  0  0
   -2.0125   -0.2660   -0.8266 C   0  0  0  0  0  0  0  0  0  0  0  0
   -0.4489   -1.6295   -1.4262 H   0  0  0  0  0  0  0  0  0  0  0  0
    1.4510   -0.0776   -0.8183 H   0  0  0  0  0  0  0  0  0  0  0  0
   -1.6960    3.5317    0.7586 H   0  0  0  0  0  0  0  0  0  0  0  0
   -3.4098    1.2783   -0.1545 H   0  0  0  0  0  0  0  0  0  0  0  0
    4.5809   -5.2331   -2.6090 N   0  0  0  0  0  0  0  0  0  0  0  0
    5.2260   -6.0564   -2.9662 N   0  0  0  0  0  0  0  0  0  0  0  0
   -2.1728    4.6610    1.2452 Cl  0  0  0  0  0  0  0  0  0  0  0  0
   -2.7984   -0.9642   -1.1024 H   0  0  0  0  0  0  0  0  0  0  0  0
  1  6  2  0  0  0  0
  1  2  1  0  0  0  0
  2  3  2  0  0  0  0
  3  4  1  0  0  0  0
  5 10  1  0  0  0  0
  5  4  2  0  0  0  0
  6  5  1  0  0  0  0
  7  1  1  0  0  0  0
  8  2  1  0  0  0  0
  9 13  1  0  0  0  0
 12 11  3  0  0  0  0
 14  6  1  0  0  0  0
M  RAD  2   3   2   4   2
M  END
