Coordinates from ORCA-job Ph-N2-Cl-B3LYPG-6-31G_dp-MTMO-d009-169-n800
 OpenBabel09051908143D

 14 12  0  0  0  0  0  0  0  0999 V2000
   -1.4688   -1.3805   -1.2752 C   0  0  0  0  0  0  0  0  0  0  0  0
   -0.0697   -1.2113   -1.1381 C   0  0  0  0  0  0  0  0  0  0  0  0
    0.1453    0.0397   -0.6205 C   0  0  0  0  0  0  0  0  0  0  0  0
   -0.5950    0.9933   -0.2699 C   0  0  0  0  0  0  0  0  0  0  0  0
   -1.9873    0.8638   -0.3903 C   0  0  0  0  0  0  0  0  0  0  0  0
   -2.3889   -0.3798   -0.9145 C   0  0  0  0  0  0  0  0  0  0  0  0
   -1.8339   -2.3232   -1.6750 H   0  0  0  0  0  0  0  0  0  0  0  0
    0.6606   -1.9629   -1.4079 H   0  0  0  0  0  0  0  0  0  0  0  0
    0.0253    2.6736    0.4380 H   0  0  0  0  0  0  0  0  0  0  0  0
   -2.7021    1.6319   -0.1133 H   0  0  0  0  0  0  0  0  0  0  0  0
    3.5045   -1.7404   -1.3100 N   0  0  0  0  0  0  0  0  0  0  0  0
    4.5941   -1.5610   -1.2698 N   0  0  0  0  0  0  0  0  0  0  0  0
    0.2748    3.8713    0.9343 Cl  0  0  0  0  0  0  0  0  0  0  0  0
   -3.4502   -0.5744   -1.0466 H   0  0  0  0  0  0  0  0  0  0  0  0
  1  2  2  0  0  0  0
  1  6  1  0  0  0  0
  2  3  1  0  0  0  0
  3  4  2  0  0  0  0
  5  4  1  0  0  0  0
  5 10  1  0  0  0  0
  6  5  2  0  0  0  0
  7  1  1  0  0  0  0
  8  2  1  0  0  0  0
  9 13  1  0  0  0  0
 11 12  3  0  0  0  0
 14  6  1  0  0  0  0
M  RAD  2   3   2   4   2
M  END
