Coordinates from ORCA-job Ph-N2-Cl-B3LYPG-6-31G_dp-MTMO-d009-169-n800
 OpenBabel09051908143D

 14 12  0  0  0  0  0  0  0  0999 V2000
   -1.6941   -1.4692   -1.3161 C   0  0  0  0  0  0  0  0  0  0  0  0
   -0.2790   -1.4925   -1.2756 C   0  0  0  0  0  0  0  0  0  0  0  0
    0.1379   -0.2876   -0.7747 C   0  0  0  0  0  0  0  0  0  0  0  0
   -0.4347    0.7576   -0.3733 C   0  0  0  0  0  0  0  0  0  0  0  0
   -1.8376    0.8165   -0.3992 C   0  0  0  0  0  0  0  0  0  0  0  0
   -2.4415   -0.3552   -0.8934 C   0  0  0  0  0  0  0  0  0  0  0  0
   -2.2100   -2.3503   -1.6897 H   0  0  0  0  0  0  0  0  0  0  0  0
    0.3209   -2.3350   -1.5943 H   0  0  0  0  0  0  0  0  0  0  0  0
    0.4577    2.3143    0.2835 H   0  0  0  0  0  0  0  0  0  0  0  0
   -2.4201    1.6727   -0.0742 H   0  0  0  0  0  0  0  0  0  0  0  0
    3.3699   -0.9356   -0.9845 N   0  0  0  0  0  0  0  0  0  0  0  0
    4.3411   -0.4508   -0.7767 N   0  0  0  0  0  0  0  0  0  0  0  0
    0.9242    3.4561    0.7605 Cl  0  0  0  0  0  0  0  0  0  0  0  0
   -3.5261   -0.4012   -0.9512 H   0  0  0  0  0  0  0  0  0  0  0  0
  1  2  2  0  0  0  0
  1  6  1  0  0  0  0
  2  3  1  0  0  0  0
  3  4  2  0  0  0  0
  5  4  1  0  0  0  0
  5 10  1  0  0  0  0
  6  5  2  0  0  0  0
  7  1  1  0  0  0  0
  8  2  1  0  0  0  0
  9 13  1  0  0  0  0
 11 12  3  0  0  0  0
 14  6  1  0  0  0  0
M  RAD  2   3   2   4   2
M  END
