Coordinates from ORCA-job Ph-N2-Cl-B3LYPG-6-31G_dp-MTMO-d009-169-n800
 OpenBabel09051908143D

 14 12  0  0  0  0  0  0  0  0999 V2000
   -0.7844    0.2294   -0.7465 C   0  0  0  0  0  0  0  0  0  0  0  0
    0.0661    1.2988   -0.3751 C   0  0  0  0  0  0  0  0  0  0  0  0
   -0.7239    2.3117    0.1055 C   0  0  0  0  0  0  0  0  0  0  0  0
   -1.9613    2.4599    0.2671 C   0  0  0  0  0  0  0  0  0  0  0  0
   -2.8396    1.4259   -0.0872 C   0  0  0  0  0  0  0  0  0  0  0  0
   -2.1823    0.2939   -0.6067 C   0  0  0  0  0  0  0  0  0  0  0  0
   -0.3290   -0.6705   -1.1524 H   0  0  0  0  0  0  0  0  0  0  0  0
    1.1441    1.2702   -0.4746 H   0  0  0  0  0  0  0  0  0  0  0  0
   -2.7980    4.0534    0.9983 H   0  0  0  0  0  0  0  0  0  0  0  0
   -3.9188    1.4691    0.0198 H   0  0  0  0  0  0  0  0  0  0  0  0
    7.3553   -9.4274   -4.0973 N   0  0  0  0  0  0  0  0  0  0  0  0
    7.9933  -10.2503   -4.4680 N   0  0  0  0  0  0  0  0  0  0  0  0
   -3.5355    5.0390    1.4696 Cl  0  0  0  0  0  0  0  0  0  0  0  0
   -2.7774   -0.5631   -0.9115 H   0  0  0  0  0  0  0  0  0  0  0  0
  1  6  2  0  0  0  0
  1  2  1  0  0  0  0
  2  3  2  0  0  0  0
  3  4  1  0  0  0  0
  5 10  1  0  0  0  0
  5  4  2  0  0  0  0
  6  5  1  0  0  0  0
  7  1  1  0  0  0  0
  8  2  1  0  0  0  0
  9 13  1  0  0  0  0
 12 11  3  0  0  0  0
 14  6  1  0  0  0  0
M  RAD  2   3   2   4   2
M  END
