Coordinates from ORCA-job Ph-N2-Cl-B3LYPG-6-31G_dp-MTMO-d009-169-n800
 OpenBabel09051908143D

 14 12  0  0  0  0  0  0  0  0999 V2000
   -0.6596   -0.6047   -0.9979 C   0  0  0  0  0  0  0  0  0  0  0  0
    0.4085    0.2621   -0.6628 C   0  0  0  0  0  0  0  0  0  0  0  0
   -0.1343    1.4208   -0.1687 C   0  0  0  0  0  0  0  0  0  0  0  0
   -1.3069    1.8275    0.0284 C   0  0  0  0  0  0  0  0  0  0  0  0
   -2.3941    1.0010   -0.2896 C   0  0  0  0  0  0  0  0  0  0  0  0
   -2.0074   -0.2462   -0.8169 C   0  0  0  0  0  0  0  0  0  0  0  0
   -0.4166   -1.5810   -1.4094 H   0  0  0  0  0  0  0  0  0  0  0  0
    1.4521    0.0059   -0.7950 H   0  0  0  0  0  0  0  0  0  0  0  0
   -1.7665    3.5583    0.7688 H   0  0  0  0  0  0  0  0  0  0  0  0
   -3.4356    1.2726   -0.1513 H   0  0  0  0  0  0  0  0  0  0  0  0
    4.6855   -5.4360   -2.6813 N   0  0  0  0  0  0  0  0  0  0  0  0
    5.3286   -6.2598   -3.0410 N   0  0  0  0  0  0  0  0  0  0  0  0
   -2.2659    4.6785    1.2534 Cl  0  0  0  0  0  0  0  0  0  0  0  0
   -2.7791   -0.9590   -1.0954 H   0  0  0  0  0  0  0  0  0  0  0  0
  1  6  2  0  0  0  0
  1  2  1  0  0  0  0
  2  3  2  0  0  0  0
  3  4  1  0  0  0  0
  5 10  1  0  0  0  0
  5  4  2  0  0  0  0
  6  5  1  0  0  0  0
  7  1  1  0  0  0  0
  8  2  1  0  0  0  0
  9 13  1  0  0  0  0
 12 11  3  0  0  0  0
 14  6  1  0  0  0  0
M  RAD  2   3   2   4   2
M  END
