Coordinates from ORCA-job Ph-N2-Cl-B3LYPG-6-31G_dp-MTMO-d009-169-n800
 OpenBabel09051908143D

 14 13  0  0  0  0  0  0  0  0999 V2000
   -1.5018   -1.4831   -1.3156 C   0  0  0  0  0  0  0  0  0  0  0  0
   -0.1200   -1.3988   -1.2476 C   0  0  0  0  0  0  0  0  0  0  0  0
    0.5065   -0.2221   -0.7572 C   0  0  0  0  0  0  0  0  0  0  0  0
   -0.3022    0.8719   -0.3362 C   0  0  0  0  0  0  0  0  0  0  0  0
   -1.6843    0.7657   -0.4136 C   0  0  0  0  0  0  0  0  0  0  0  0
   -2.2850   -0.4007   -0.8988 C   0  0  0  0  0  0  0  0  0  0  0  0
   -1.9713   -2.3863   -1.6915 H   0  0  0  0  0  0  0  0  0  0  0  0
    0.5114   -2.2227   -1.5645 H   0  0  0  0  0  0  0  0  0  0  0  0
    0.1878    1.7648    0.0358 H   0  0  0  0  0  0  0  0  0  0  0  0
   -2.3001    1.5999   -0.0927 H   0  0  0  0  0  0  0  0  0  0  0  0
    1.7460   -0.1979   -0.7170 N   0  0  0  0  0  0  0  0  0  0  0  0
    2.7493    0.3520   -0.4662 N   0  0  0  0  0  0  0  0  0  0  0  0
    2.5402    2.3641    0.3596 Cl  0  0  0  0  0  0  0  0  0  0  0  0
   -3.3679   -0.4671   -0.9532 H   0  0  0  0  0  0  0  0  0  0  0  0
  1  2  2  0  0  0  0
  1  6  1  0  0  0  0
  2  3  1  0  0  0  0
  3 11  1  0  0  0  0
  3  4  2  0  0  0  0
  4  9  1  0  0  0  0
  5  4  1  0  0  0  0
  5 10  1  0  0  0  0
  6  5  2  0  0  0  0
  7  1  1  0  0  0  0
  8  2  1  0  0  0  0
 11 12  2  0  0  0  0
 14  6  1  0  0  0  0
M  RAD  2  12   2  13   2
M  END
