Coordinates from ORCA-job Ph-N2-Cl-B3LYPG-6-31G_dp-MTMO-d009-169-n800
 OpenBabel09051908143D

 14 12  0  0  0  0  0  0  0  0999 V2000
   -1.2103   -1.2650   -1.2345 C   0  0  0  0  0  0  0  0  0  0  0  0
    0.1432   -0.8934   -1.0436 C   0  0  0  0  0  0  0  0  0  0  0  0
    0.1494    0.3718   -0.5172 C   0  0  0  0  0  0  0  0  0  0  0  0
   -0.7334    1.2068   -0.1940 C   0  0  0  0  0  0  0  0  0  0  0  0
   -2.0858    0.8729   -0.3688 C   0  0  0  0  0  0  0  0  0  0  0  0
   -2.2802   -0.4127   -0.9088 C   0  0  0  0  0  0  0  0  0  0  0  0
   -1.4169   -2.2485   -1.6487 H   0  0  0  0  0  0  0  0  0  0  0  0
    0.9842   -1.5300   -1.2860 H   0  0  0  0  0  0  0  0  0  0  0  0
   -0.3949    2.9516    0.5333 H   0  0  0  0  0  0  0  0  0  0  0  0
   -2.9158    1.5256   -0.1192 H   0  0  0  0  0  0  0  0  0  0  0  0
    3.5200   -2.3895   -1.5779 N   0  0  0  0  0  0  0  0  0  0  0  0
    4.5887   -2.6606   -1.6506 N   0  0  0  0  0  0  0  0  0  0  0  0
   -0.3441    4.1709    1.0390 Cl  0  0  0  0  0  0  0  0  0  0  0  0
   -3.2955   -0.7599   -1.0819 H   0  0  0  0  0  0  0  0  0  0  0  0
  1  2  2  0  0  0  0
  1  6  1  0  0  0  0
  2  3  1  0  0  0  0
  3  4  2  0  0  0  0
  5  4  1  0  0  0  0
  5 10  1  0  0  0  0
  6  5  2  0  0  0  0
  7  1  1  0  0  0  0
  8  2  1  0  0  0  0
  9 13  1  0  0  0  0
 12 11  3  0  0  0  0
 14  6  1  0  0  0  0
M  RAD  2   3   2   4   2
M  END
