Coordinates from ORCA-job Ph-N2-Cl-B3LYPG-6-31G_dp-MTMO-d009-169-n800
 OpenBabel09051908143D

 14 14  0  0  0  0  0  0  0  0999 V2000
   -1.5403   -1.4873   -1.3153 C   0  0  0  0  0  0  0  0  0  0  0  0
   -0.1491   -1.4149   -1.2551 C   0  0  0  0  0  0  0  0  0  0  0  0
    0.4100   -0.2392   -0.7704 C   0  0  0  0  0  0  0  0  0  0  0  0
   -0.3127    0.8670   -0.3442 C   0  0  0  0  0  0  0  0  0  0  0  0
   -1.7044    0.7643   -0.4171 C   0  0  0  0  0  0  0  0  0  0  0  0
   -2.3124   -0.3993   -0.8970 C   0  0  0  0  0  0  0  0  0  0  0  0
   -2.0172   -2.3884   -1.6874 H   0  0  0  0  0  0  0  0  0  0  0  0
    0.4862   -2.2344   -1.5700 H   0  0  0  0  0  0  0  0  0  0  0  0
    0.1950    1.7509    0.0222 H   0  0  0  0  0  0  0  0  0  0  0  0
   -2.3122    1.6038   -0.0947 H   0  0  0  0  0  0  0  0  0  0  0  0
    1.9905   -0.2549   -0.7427 N   0  0  0  0  0  0  0  0  0  0  0  0
    2.8758    0.4322   -0.4332 N   0  0  0  0  0  0  0  0  0  0  0  0
    2.4951    2.3987    0.3921 Cl  0  0  0  0  0  0  0  0  0  0  0  0
   -3.3957   -0.4585   -0.9459 H   0  0  0  0  0  0  0  0  0  0  0  0
  1  2  2  0  0  0  0
  1  6  1  0  0  0  0
  2  3  1  0  0  0  0
  3 11  1  0  0  0  0
  3  4  2  0  0  0  0
  4  9  1  0  0  0  0
  5  4  1  0  0  0  0
  5 10  1  0  0  0  0
  6  5  2  0  0  0  0
  7  1  1  0  0  0  0
  8  2  1  0  0  0  0
 11 12  2  0  0  0  0
 12 13  1  0  0  0  0
 14  6  1  0  0  0  0
M  END
