Coordinates from ORCA-job Ph-N2-Cl-B3LYPG-6-31G_dp-MTMO-d009-169-n800
 OpenBabel09051908143D

 14 12  0  0  0  0  0  0  0  0999 V2000
   -0.8291   -1.0380   -1.1413 C   0  0  0  0  0  0  0  0  0  0  0  0
    0.4035   -0.4028   -0.8537 C   0  0  0  0  0  0  0  0  0  0  0  0
    0.1194    0.8356   -0.3385 C   0  0  0  0  0  0  0  0  0  0  0  0
   -0.9369    1.4703   -0.0900 C   0  0  0  0  0  0  0  0  0  0  0  0
   -2.1783    0.8749   -0.3610 C   0  0  0  0  0  0  0  0  0  0  0  0
   -2.0698   -0.4200   -0.9029 C   0  0  0  0  0  0  0  0  0  0  0  0
   -0.8024   -2.0400   -1.5611 H   0  0  0  0  0  0  0  0  0  0  0  0
    1.3682   -0.8614   -1.0305 H   0  0  0  0  0  0  0  0  0  0  0  0
   -1.0179    3.2480    0.6431 H   0  0  0  0  0  0  0  0  0  0  0  0
   -3.1382    1.3466   -0.1791 H   0  0  0  0  0  0  0  0  0  0  0  0
    3.6363   -3.4046   -1.9722 N   0  0  0  0  0  0  0  0  0  0  0  0
    4.3959   -4.1547   -2.2580 N   0  0  0  0  0  0  0  0  0  0  0  0
   -1.2632    4.4490    1.1337 Cl  0  0  0  0  0  0  0  0  0  0  0  0
   -2.9789   -0.9629   -1.1472 H   0  0  0  0  0  0  0  0  0  0  0  0
  1  6  2  0  0  0  0
  1  2  1  0  0  0  0
  2  3  2  0  0  0  0
  3  4  1  0  0  0  0
  5 10  1  0  0  0  0
  5  4  2  0  0  0  0
  6  5  1  0  0  0  0
  7  1  1  0  0  0  0
  8  2  1  0  0  0  0
  9 13  1  0  0  0  0
 12 11  3  0  0  0  0
 14  6  1  0  0  0  0
M  RAD  2   3   2   4   2
M  END
