Coordinates from ORCA-job Ph-N2-Cl-B3LYPG-6-31G_dp-MTMO-d009-169-n800
 OpenBabel09051908143D

 14 14  0  0  0  0  0  0  0  0999 V2000
   -1.5378   -1.4868   -1.3154 C   0  0  0  0  0  0  0  0  0  0  0  0
   -0.1472   -1.4132   -1.2544 C   0  0  0  0  0  0  0  0  0  0  0  0
    0.4157   -0.2380   -0.7692 C   0  0  0  0  0  0  0  0  0  0  0  0
   -0.3120    0.8671   -0.3433 C   0  0  0  0  0  0  0  0  0  0  0  0
   -1.7031    0.7643   -0.4168 C   0  0  0  0  0  0  0  0  0  0  0  0
   -2.3107   -0.3993   -0.8972 C   0  0  0  0  0  0  0  0  0  0  0  0
   -2.0140   -2.3880   -1.6880 H   0  0  0  0  0  0  0  0  0  0  0  0
    0.4880   -2.2329   -1.5694 H   0  0  0  0  0  0  0  0  0  0  0  0
    0.1940    1.7517    0.0235 H   0  0  0  0  0  0  0  0  0  0  0  0
   -2.3114    1.6035   -0.0943 H   0  0  0  0  0  0  0  0  0  0  0  0
    1.9762   -0.2531   -0.7412 N   0  0  0  0  0  0  0  0  0  0  0  0
    2.8678    0.4285   -0.4345 N   0  0  0  0  0  0  0  0  0  0  0  0
    2.4972    2.3950    0.3880 Cl  0  0  0  0  0  0  0  0  0  0  0  0
   -3.3940   -0.4589   -0.9466 H   0  0  0  0  0  0  0  0  0  0  0  0
  1  2  2  0  0  0  0
  1  6  1  0  0  0  0
  2  3  1  0  0  0  0
  3 11  1  0  0  0  0
  3  4  2  0  0  0  0
  4  9  1  0  0  0  0
  5  4  1  0  0  0  0
  5 10  1  0  0  0  0
  6  5  2  0  0  0  0
  7  1  1  0  0  0  0
  8  2  1  0  0  0  0
 11 12  2  0  0  0  0
 12 13  1  0  0  0  0
 14  6  1  0  0  0  0
M  END
