Coordinates from ORCA-job Ph-N2-Cl-B3LYPG-6-31G_dp-MTMO-d009-169-n800
 OpenBabel09051908143D

 14 12  0  0  0  0  0  0  0  0999 V2000
   -1.1683   -1.2477   -1.2267 C   0  0  0  0  0  0  0  0  0  0  0  0
    0.1759   -0.8489   -1.0245 C   0  0  0  0  0  0  0  0  0  0  0  0
    0.1519    0.4160   -0.4982 C   0  0  0  0  0  0  0  0  0  0  0  0
   -0.7501    1.2333   -0.1824 C   0  0  0  0  0  0  0  0  0  0  0  0
   -2.0939    0.8720   -0.3686 C   0  0  0  0  0  0  0  0  0  0  0  0
   -2.2579   -0.4172   -0.9100 C   0  0  0  0  0  0  0  0  0  0  0  0
   -1.3514   -2.2352   -1.6425 H   0  0  0  0  0  0  0  0  0  0  0  0
    1.0310   -1.4690   -1.2600 H   0  0  0  0  0  0  0  0  0  0  0  0
   -0.4538    2.9849    0.5450 H   0  0  0  0  0  0  0  0  0  0  0  0
   -2.9389    1.5079   -0.1261 H   0  0  0  0  0  0  0  0  0  0  0  0
    3.5060   -2.4728   -1.6117 N   0  0  0  0  0  0  0  0  0  0  0  0
    4.5553   -2.8042   -1.7113 N   0  0  0  0  0  0  0  0  0  0  0  0
   -0.4327    4.2056    1.0497 Cl  0  0  0  0  0  0  0  0  0  0  0  0
   -3.2645   -0.7848   -1.0916 H   0  0  0  0  0  0  0  0  0  0  0  0
  1  2  2  0  0  0  0
  1  6  1  0  0  0  0
  2  3  1  0  0  0  0
  3  4  2  0  0  0  0
  5  4  1  0  0  0  0
  5 10  1  0  0  0  0
  6  5  2  0  0  0  0
  7  1  1  0  0  0  0
  8  2  1  0  0  0  0
  9 13  1  0  0  0  0
 12 11  3  0  0  0  0
 14  6  1  0  0  0  0
M  RAD  2   3   2   4   2
M  END
