Coordinates from ORCA-job Ph-N2-Cl-B3LYPG-6-31G_dp-MTMO-d009-169-n800
 OpenBabel09051908143D

 14 12  0  0  0  0  0  0  0  0999 V2000
   -0.8252   -1.0321   -1.1394 C   0  0  0  0  0  0  0  0  0  0  0  0
    0.4050   -0.3928   -0.8510 C   0  0  0  0  0  0  0  0  0  0  0  0
    0.1165    0.8446   -0.3359 C   0  0  0  0  0  0  0  0  0  0  0  0
   -0.9420    1.4756   -0.0881 C   0  0  0  0  0  0  0  0  0  0  0  0
   -2.1813    0.8763   -0.3600 C   0  0  0  0  0  0  0  0  0  0  0  0
   -2.0681   -0.4183   -0.9019 C   0  0  0  0  0  0  0  0  0  0  0  0
   -0.7948   -2.0341   -1.5593 H   0  0  0  0  0  0  0  0  0  0  0  0
    1.3714   -0.8482   -1.0271 H   0  0  0  0  0  0  0  0  0  0  0  0
   -1.0295    3.2532    0.6451 H   0  0  0  0  0  0  0  0  0  0  0  0
   -3.1429    1.3447   -0.1788 H   0  0  0  0  0  0  0  0  0  0  0  0
    3.6496   -3.4317   -1.9818 N   0  0  0  0  0  0  0  0  0  0  0  0
    4.4042   -4.1862   -2.2693 N   0  0  0  0  0  0  0  0  0  0  0  0
   -1.2792    4.4533    1.1357 Cl  0  0  0  0  0  0  0  0  0  0  0  0
   -2.9753   -0.9642   -1.1469 H   0  0  0  0  0  0  0  0  0  0  0  0
  1  6  2  0  0  0  0
  1  2  1  0  0  0  0
  2  3  2  0  0  0  0
  3  4  1  0  0  0  0
  5 10  1  0  0  0  0
  5  4  2  0  0  0  0
  6  5  1  0  0  0  0
  7  1  1  0  0  0  0
  8  2  1  0  0  0  0
  9 13  1  0  0  0  0
 12 11  3  0  0  0  0
 14  6  1  0  0  0  0
M  RAD  2   3   2   4   2
M  END
