Coordinates from ORCA-job Ph-N2-Cl-B3LYPG-6-31G_dp-MTMO-d009-169-n800
 OpenBabel09051908143D

 14 12  0  0  0  0  0  0  0  0999 V2000
   -0.7868   -0.9625   -1.1130 C   0  0  0  0  0  0  0  0  0  0  0  0
    0.4161   -0.2787   -0.8117 C   0  0  0  0  0  0  0  0  0  0  0  0
    0.0782    0.9482   -0.3014 C   0  0  0  0  0  0  0  0  0  0  0  0
   -1.0056    1.5398   -0.0663 C   0  0  0  0  0  0  0  0  0  0  0  0
   -2.2195    0.8964   -0.3508 C   0  0  0  0  0  0  0  0  0  0  0  0
   -2.0536   -0.3937   -0.8898 C   0  0  0  0  0  0  0  0  0  0  0  0
   -0.7157   -1.9630   -1.5312 H   0  0  0  0  0  0  0  0  0  0  0  0
    1.4005   -0.6980   -0.9765 H   0  0  0  0  0  0  0  0  0  0  0  0
   -1.1649    3.3144    0.6673 H   0  0  0  0  0  0  0  0  0  0  0  0
   -3.1994    1.3298   -0.1804 H   0  0  0  0  0  0  0  0  0  0  0  0
    3.8382   -3.7619   -2.0904 N   0  0  0  0  0  0  0  0  0  0  0  0
    4.5222   -4.5623   -2.4266 N   0  0  0  0  0  0  0  0  0  0  0  0
   -1.4634    4.5038    1.1559 Cl  0  0  0  0  0  0  0  0  0  0  0  0
   -2.9377   -0.9724   -1.1439 H   0  0  0  0  0  0  0  0  0  0  0  0
  1  6  2  0  0  0  0
  1  2  1  0  0  0  0
  2  3  2  0  0  0  0
  3  4  1  0  0  0  0
  5 10  1  0  0  0  0
  5  4  2  0  0  0  0
  6  5  1  0  0  0  0
  7  1  1  0  0  0  0
  8  2  1  0  0  0  0
  9 13  1  0  0  0  0
 12 11  3  0  0  0  0
 14  6  1  0  0  0  0
M  RAD  2   3   2   4   2
M  END
