Coordinates from ORCA-job Ph-N2-Cl-B3LYPG-6-31G_dp-MTMO-d009-169-n800
 OpenBabel09051908143D

 14 12  0  0  0  0  0  0  0  0999 V2000
   -0.6666   -0.2317   -0.8688 C   0  0  0  0  0  0  0  0  0  0  0  0
    0.2883    0.7501   -0.5098 C   0  0  0  0  0  0  0  0  0  0  0  0
   -0.3940    1.8403   -0.0330 C   0  0  0  0  0  0  0  0  0  0  0  0
   -1.6095    2.1122    0.1333 C   0  0  0  0  0  0  0  0  0  0  0  0
   -2.5885    1.1684   -0.2089 C   0  0  0  0  0  0  0  0  0  0  0  0
   -2.0502   -0.0274   -0.7227 C   0  0  0  0  0  0  0  0  0  0  0  0
   -0.3048   -1.1748   -1.2707 H   0  0  0  0  0  0  0  0  0  0  0  0
    1.3574    0.6134   -0.6145 H   0  0  0  0  0  0  0  0  0  0  0  0
   -2.2769    3.7878    0.8530 H   0  0  0  0  0  0  0  0  0  0  0  0
   -3.6573    1.3202   -0.0974 H   0  0  0  0  0  0  0  0  0  0  0  0
    5.8058   -7.2103   -3.3233 N   0  0  0  0  0  0  0  0  0  0  0  0
    6.4426   -8.0334   -3.6957 N   0  0  0  0  0  0  0  0  0  0  0  0
   -2.9082    4.8478    1.3175 Cl  0  0  0  0  0  0  0  0  0  0  0  0
   -2.7295   -0.8228   -1.0179 H   0  0  0  0  0  0  0  0  0  0  0  0
  1  6  2  0  0  0  0
  1  2  1  0  0  0  0
  2  3  2  0  0  0  0
  3  4  1  0  0  0  0
  5 10  1  0  0  0  0
  5  4  2  0  0  0  0
  6  5  1  0  0  0  0
  7  1  1  0  0  0  0
  8  2  1  0  0  0  0
  9 13  1  0  0  0  0
 12 11  3  0  0  0  0
 14  6  1  0  0  0  0
M  RAD  2   3   2   4   2
M  END
