Coordinates from ORCA-job Ph-N2-Cl-B3LYPG-6-31G_dp-MTMO-d009-169-n800
 OpenBabel09051908143D

 14 12  0  0  0  0  0  0  0  0999 V2000
   -0.7146   -0.7577   -1.0423 C   0  0  0  0  0  0  0  0  0  0  0  0
    0.4135    0.0343   -0.7182 C   0  0  0  0  0  0  0  0  0  0  0  0
   -0.0451    1.2263   -0.2190 C   0  0  0  0  0  0  0  0  0  0  0  0
   -1.1844    1.7137   -0.0093 C   0  0  0  0  0  0  0  0  0  0  0  0
   -2.3281    0.9623   -0.3165 C   0  0  0  0  0  0  0  0  0  0  0  0
   -2.0329   -0.3080   -0.8476 C   0  0  0  0  0  0  0  0  0  0  0  0
   -0.5429   -1.7479   -1.4561 H   0  0  0  0  0  0  0  0  0  0  0  0
    1.4358   -0.2920   -0.8610 H   0  0  0  0  0  0  0  0  0  0  0  0
   -1.5187    3.4688    0.7278 H   0  0  0  0  0  0  0  0  0  0  0  0
   -3.3472    1.3039   -0.1679 H   0  0  0  0  0  0  0  0  0  0  0  0
    4.3573   -4.7491   -2.4445 N   0  0  0  0  0  0  0  0  0  0  0  0
    5.0050   -5.5710   -2.8003 N   0  0  0  0  0  0  0  0  0  0  0  0
   -1.9347    4.6225    1.2142 Cl  0  0  0  0  0  0  0  0  0  0  0  0
   -2.8543   -0.9662   -1.1180 H   0  0  0  0  0  0  0  0  0  0  0  0
  1  6  2  0  0  0  0
  1  2  1  0  0  0  0
  2  3  2  0  0  0  0
  3  4  1  0  0  0  0
  5 10  1  0  0  0  0
  5  4  2  0  0  0  0
  6  5  1  0  0  0  0
  7  1  1  0  0  0  0
  8  2  1  0  0  0  0
  9 13  1  0  0  0  0
 12 11  3  0  0  0  0
 14  6  1  0  0  0  0
M  RAD  2   3   2   4   2
M  END
