Coordinates from ORCA-job Ph-N2-Cl-B3LYPG-6-31G_dp-MTMO-d009-169-n800
 OpenBabel09051908143D

 14 12  0  0  0  0  0  0  0  0999 V2000
   -1.6931   -1.4700   -1.3164 C   0  0  0  0  0  0  0  0  0  0  0  0
   -0.2779   -1.4944   -1.2762 C   0  0  0  0  0  0  0  0  0  0  0  0
    0.1396   -0.2896   -0.7754 C   0  0  0  0  0  0  0  0  0  0  0  0
   -0.4325    0.7559   -0.3740 C   0  0  0  0  0  0  0  0  0  0  0  0
   -1.8353    0.8159   -0.3995 C   0  0  0  0  0  0  0  0  0  0  0  0
   -2.4397   -0.3556   -0.8936 C   0  0  0  0  0  0  0  0  0  0  0  0
   -2.2099   -2.3507   -1.6898 H   0  0  0  0  0  0  0  0  0  0  0  0
    0.3215   -2.3372   -1.5950 H   0  0  0  0  0  0  0  0  0  0  0  0
    0.4657    2.3105    0.2822 H   0  0  0  0  0  0  0  0  0  0  0  0
   -2.4173    1.6723   -0.0744 H   0  0  0  0  0  0  0  0  0  0  0  0
    3.3538   -0.9259   -0.9809 N   0  0  0  0  0  0  0  0  0  0  0  0
    4.3256   -0.4422   -0.7737 N   0  0  0  0  0  0  0  0  0  0  0  0
    0.9324    3.4521    0.7591 Cl  0  0  0  0  0  0  0  0  0  0  0  0
   -3.5244   -0.4012   -0.9513 H   0  0  0  0  0  0  0  0  0  0  0  0
  1  2  2  0  0  0  0
  1  6  1  0  0  0  0
  2  3  1  0  0  0  0
  3  4  2  0  0  0  0
  5  4  1  0  0  0  0
  5 10  1  0  0  0  0
  6  5  2  0  0  0  0
  7  1  1  0  0  0  0
  8  2  1  0  0  0  0
  9 13  1  0  0  0  0
 11 12  3  0  0  0  0
 14  6  1  0  0  0  0
M  RAD  2   3   2   4   2
M  END
