Coordinates from ORCA-job Ph-N2-Cl-B3LYPG-6-31G_dp-MTMO-d009-169-n800
 OpenBabel09051908143D

 14 12  0  0  0  0  0  0  0  0999 V2000
   -0.8018    0.2741   -0.7357 C   0  0  0  0  0  0  0  0  0  0  0  0
    0.0409    1.3494   -0.3635 C   0  0  0  0  0  0  0  0  0  0  0  0
   -0.7563    2.3560    0.1185 C   0  0  0  0  0  0  0  0  0  0  0  0
   -1.9947    2.4942    0.2805 C   0  0  0  0  0  0  0  0  0  0  0  0
   -2.8657    1.4544   -0.0743 C   0  0  0  0  0  0  0  0  0  0  0  0
   -2.2001    0.3278   -0.5953 C   0  0  0  0  0  0  0  0  0  0  0  0
   -0.3397   -0.6221   -1.1426 H   0  0  0  0  0  0  0  0  0  0  0  0
    1.1189    1.3286   -0.4637 H   0  0  0  0  0  0  0  0  0  0  0  0
   -2.8435    4.0806    1.0145 H   0  0  0  0  0  0  0  0  0  0  0  0
   -3.9451    1.4896    0.0333 H   0  0  0  0  0  0  0  0  0  0  0  0
    7.5173   -9.6483   -4.1733 N   0  0  0  0  0  0  0  0  0  0  0  0
    8.1554  -10.4710   -4.5443 N   0  0  0  0  0  0  0  0  0  0  0  0
   -3.5882    5.0599    1.4876 Cl  0  0  0  0  0  0  0  0  0  0  0  0
   -2.7888   -0.5333   -0.9007 H   0  0  0  0  0  0  0  0  0  0  0  0
  1  6  2  0  0  0  0
  1  2  1  0  0  0  0
  2  3  2  0  0  0  0
  3  4  1  0  0  0  0
  5 10  1  0  0  0  0
  5  4  2  0  0  0  0
  6  5  1  0  0  0  0
  7  1  1  0  0  0  0
  8  2  1  0  0  0  0
  9 13  1  0  0  0  0
 12 11  3  0  0  0  0
 14  6  1  0  0  0  0
M  RAD  2   3   2   4   2
M  END
