Coordinates from ORCA-job Ph-N2-Cl-B3LYPG-6-31G_dp-MTMO-d009-169-n800
 OpenBabel09051908143D

 14 12  0  0  0  0  0  0  0  0999 V2000
   -1.6991   -1.4757   -1.3189 C   0  0  0  0  0  0  0  0  0  0  0  0
   -0.2841   -1.5154   -1.2858 C   0  0  0  0  0  0  0  0  0  0  0  0
    0.1487   -0.3155   -0.7868 C   0  0  0  0  0  0  0  0  0  0  0  0
   -0.4091    0.7365   -0.3818 C   0  0  0  0  0  0  0  0  0  0  0  0
   -1.8116    0.8111   -0.4005 C   0  0  0  0  0  0  0  0  0  0  0  0
   -2.4314   -0.3535   -0.8919 C   0  0  0  0  0  0  0  0  0  0  0  0
   -2.2276   -2.3505   -1.6899 H   0  0  0  0  0  0  0  0  0  0  0  0
    0.3045   -2.3645   -1.6080 H   0  0  0  0  0  0  0  0  0  0  0  0
    0.4961    2.2858    0.2718 H   0  0  0  0  0  0  0  0  0  0  0  0
   -2.3827    1.6736   -0.0723 H   0  0  0  0  0  0  0  0  0  0  0  0
    3.2981   -0.8723   -0.9583 N   0  0  0  0  0  0  0  0  0  0  0  0
    4.2506   -0.3563   -0.7394 N   0  0  0  0  0  0  0  0  0  0  0  0
    0.9731    3.4238    0.7472 Cl  0  0  0  0  0  0  0  0  0  0  0  0
   -3.5168   -0.3874   -0.9442 H   0  0  0  0  0  0  0  0  0  0  0  0
  1  2  2  0  0  0  0
  1  6  1  0  0  0  0
  2  3  1  0  0  0  0
  3  4  2  0  0  0  0
  5  4  1  0  0  0  0
  5 10  1  0  0  0  0
  6  5  2  0  0  0  0
  7  1  1  0  0  0  0
  8  2  1  0  0  0  0
  9 13  1  0  0  0  0
 11 12  3  0  0  0  0
 14  6  1  0  0  0  0
M  RAD  2   3   2   4   2
M  END
