Coordinates from ORCA-job Ph-N2-Cl-B3LYPG-6-31G_dp-MTMO-d009-169-n800
 OpenBabel09051908143D

 14 12  0  0  0  0  0  0  0  0999 V2000
   -0.7765    0.2083   -0.7515 C   0  0  0  0  0  0  0  0  0  0  0  0
    0.0779    1.2747   -0.3804 C   0  0  0  0  0  0  0  0  0  0  0  0
   -0.7085    2.2908    0.0995 C   0  0  0  0  0  0  0  0  0  0  0  0
   -1.9454    2.4436    0.2607 C   0  0  0  0  0  0  0  0  0  0  0  0
   -2.8274    1.4127   -0.0932 C   0  0  0  0  0  0  0  0  0  0  0  0
   -2.1742    0.2780   -0.6121 C   0  0  0  0  0  0  0  0  0  0  0  0
   -0.3243   -0.6935   -1.1569 H   0  0  0  0  0  0  0  0  0  0  0  0
    1.1558    1.2422   -0.4797 H   0  0  0  0  0  0  0  0  0  0  0  0
   -2.7764    4.0407    0.9906 H   0  0  0  0  0  0  0  0  0  0  0  0
   -3.9065    1.4599    0.0135 H   0  0  0  0  0  0  0  0  0  0  0  0
    7.2794   -9.3233   -4.0616 N   0  0  0  0  0  0  0  0  0  0  0  0
    7.9174  -10.1463   -4.4321 N   0  0  0  0  0  0  0  0  0  0  0  0
   -3.5104    5.0293    1.4610 Cl  0  0  0  0  0  0  0  0  0  0  0  0
   -2.7723   -0.5770   -0.9165 H   0  0  0  0  0  0  0  0  0  0  0  0
  1  6  2  0  0  0  0
  1  2  1  0  0  0  0
  2  3  2  0  0  0  0
  3  4  1  0  0  0  0
  5 10  1  0  0  0  0
  5  4  2  0  0  0  0
  6  5  1  0  0  0  0
  7  1  1  0  0  0  0
  8  2  1  0  0  0  0
  9 13  1  0  0  0  0
 12 11  3  0  0  0  0
 14  6  1  0  0  0  0
M  RAD  2   3   2   4   2
M  END
