Coordinates from ORCA-job Ph-N2-Cl-B3LYPG-6-31G_dp-MTMO-d009-169-n800
 OpenBabel09051908143D

 14 12  0  0  0  0  0  0  0  0999 V2000
   -0.7048   -0.0261   -0.8087 C   0  0  0  0  0  0  0  0  0  0  0  0
    0.1983    1.0011   -0.4426 C   0  0  0  0  0  0  0  0  0  0  0  0
   -0.5395    2.0554    0.0320 C   0  0  0  0  0  0  0  0  0  0  0  0
   -1.7680    2.2661    0.1916 C   0  0  0  0  0  0  0  0  0  0  0  0
   -2.6974    1.2761   -0.1575 C   0  0  0  0  0  0  0  0  0  0  0  0
   -2.0977    0.1094   -0.6703 C   0  0  0  0  0  0  0  0  0  0  0  0
   -0.2948   -0.9497   -1.2097 H   0  0  0  0  0  0  0  0  0  0  0  0
    1.2734    0.9171   -0.5414 H   0  0  0  0  0  0  0  0  0  0  0  0
   -2.5236    3.9057    0.9100 H   0  0  0  0  0  0  0  0  0  0  0  0
   -3.7731    1.3746   -0.0516 H   0  0  0  0  0  0  0  0  0  0  0  0
    6.4716   -8.1900   -3.6707 N   0  0  0  0  0  0  0  0  0  0  0  0
    7.1095   -9.0129   -4.0417 N   0  0  0  0  0  0  0  0  0  0  0  0
   -3.2104    4.9313    1.3724 Cl  0  0  0  0  0  0  0  0  0  0  0  0
   -2.7351   -0.7182   -0.9707 H   0  0  0  0  0  0  0  0  0  0  0  0
  1  6  2  0  0  0  0
  1  2  1  0  0  0  0
  2  3  2  0  0  0  0
  3  4  1  0  0  0  0
  5 10  1  0  0  0  0
  5  4  2  0  0  0  0
  6  5  1  0  0  0  0
  7  1  1  0  0  0  0
  8  2  1  0  0  0  0
  9 13  1  0  0  0  0
 12 11  3  0  0  0  0
 14  6  1  0  0  0  0
M  RAD  2   3   2   4   2
M  END
