Coordinates from ORCA-job Ph-N2-Cl-B3LYPG-6-31G_dp-MTMO-d009-169-n800
 OpenBabel09051908143D

 14 12  0  0  0  0  0  0  0  0999 V2000
   -0.6647   -0.2482   -0.8742 C   0  0  0  0  0  0  0  0  0  0  0  0
    0.2948    0.7294   -0.5160 C   0  0  0  0  0  0  0  0  0  0  0  0
   -0.3820    1.8227   -0.0386 C   0  0  0  0  0  0  0  0  0  0  0  0
   -1.5963    2.0995    0.1284 C   0  0  0  0  0  0  0  0  0  0  0  0
   -2.5799    1.1603   -0.2128 C   0  0  0  0  0  0  0  0  0  0  0  0
   -2.0473   -0.0378   -0.7270 C   0  0  0  0  0  0  0  0  0  0  0  0
   -0.3074   -1.1929   -1.2764 H   0  0  0  0  0  0  0  0  0  0  0  0
    1.3631    0.5876   -0.6217 H   0  0  0  0  0  0  0  0  0  0  0  0
   -2.2560    3.7784    0.8493 H   0  0  0  0  0  0  0  0  0  0  0  0
   -3.6479    1.3171   -0.1003 H   0  0  0  0  0  0  0  0  0  0  0  0
    5.7541   -7.1318   -3.2949 N   0  0  0  0  0  0  0  0  0  0  0  0
    6.3908   -7.9549   -3.6674 N   0  0  0  0  0  0  0  0  0  0  0  0
   -2.8823    4.8410    1.3144 Cl  0  0  0  0  0  0  0  0  0  0  0  0
   -2.7303   -0.8303   -1.0217 H   0  0  0  0  0  0  0  0  0  0  0  0
  1  6  2  0  0  0  0
  1  2  1  0  0  0  0
  2  3  2  0  0  0  0
  3  4  1  0  0  0  0
  5 10  1  0  0  0  0
  5  4  2  0  0  0  0
  6  5  1  0  0  0  0
  7  1  1  0  0  0  0
  8  2  1  0  0  0  0
  9 13  1  0  0  0  0
 12 11  3  0  0  0  0
 14  6  1  0  0  0  0
M  RAD  2   3   2   4   2
M  END
