Coordinates from ORCA-job Ph-N2-Cl-B3LYPG-6-31G_dp-MTMO-d009-169-n800
 OpenBabel09051908143D

 14 12  0  0  0  0  0  0  0  0999 V2000
   -0.6598   -0.3317   -0.9027 C   0  0  0  0  0  0  0  0  0  0  0  0
    0.3246    0.6225   -0.5490 C   0  0  0  0  0  0  0  0  0  0  0  0
   -0.3234    1.7315   -0.0680 C   0  0  0  0  0  0  0  0  0  0  0  0
   -1.5299    2.0373    0.1053 C   0  0  0  0  0  0  0  0  0  0  0  0
   -2.5373    1.1220   -0.2313 C   0  0  0  0  0  0  0  0  0  0  0  0
   -2.0363   -0.0884   -0.7485 C   0  0  0  0  0  0  0  0  0  0  0  0
   -0.3271   -1.2844   -1.3070 H   0  0  0  0  0  0  0  0  0  0  0  0
    1.3886    0.4552   -0.6603 H   0  0  0  0  0  0  0  0  0  0  0  0
   -2.1458    3.7298    0.8313 H   0  0  0  0  0  0  0  0  0  0  0  0
   -3.6007    1.3044   -0.1135 H   0  0  0  0  0  0  0  0  0  0  0  0
    5.5005   -6.7392   -3.1522 N   0  0  0  0  0  0  0  0  0  0  0  0
    6.1392   -7.5611   -3.5238 N   0  0  0  0  0  0  0  0  0  0  0  0
   -2.7445    4.8063    1.3008 Cl  0  0  0  0  0  0  0  0  0  0  0  0
   -2.7395   -0.8642   -1.0400 H   0  0  0  0  0  0  0  0  0  0  0  0
  1  6  2  0  0  0  0
  1  2  1  0  0  0  0
  2  3  2  0  0  0  0
  3  4  1  0  0  0  0
  5 10  1  0  0  0  0
  5  4  2  0  0  0  0
  6  5  1  0  0  0  0
  7  1  1  0  0  0  0
  8  2  1  0  0  0  0
  9 13  1  0  0  0  0
 12 11  3  0  0  0  0
 14  6  1  0  0  0  0
M  RAD  2   3   2   4   2
M  END
