Coordinates from ORCA-job Ph-N2-Cl-B3LYPG-6-31G_dp-MTMO-d009-169-n800
 OpenBabel09051908143D

 14 12  0  0  0  0  0  0  0  0999 V2000
   -0.6470   -0.4982   -0.9569 C   0  0  0  0  0  0  0  0  0  0  0  0
    0.3846    0.4084   -0.6128 C   0  0  0  0  0  0  0  0  0  0  0  0
   -0.2057    1.5472   -0.1269 C   0  0  0  0  0  0  0  0  0  0  0  0
   -1.3949    1.9097    0.0570 C   0  0  0  0  0  0  0  0  0  0  0  0
   -2.4474    1.0431   -0.2702 C   0  0  0  0  0  0  0  0  0  0  0  0
   -2.0090   -0.1899   -0.7907 C   0  0  0  0  0  0  0  0  0  0  0  0
   -0.3635   -1.4656   -1.3638 H   0  0  0  0  0  0  0  0  0  0  0  0
    1.4383    0.1909   -0.7336 H   0  0  0  0  0  0  0  0  0  0  0  0
   -1.9253    3.6259    0.7902 H   0  0  0  0  0  0  0  0  0  0  0  0
   -3.4997    1.2759   -0.1432 H   0  0  0  0  0  0  0  0  0  0  0  0
    4.9779   -5.9412   -2.8671 N   0  0  0  0  0  0  0  0  0  0  0  0
    5.6212   -6.7625   -3.2323 N   0  0  0  0  0  0  0  0  0  0  0  0
   -2.4702    4.7278    1.2669 Cl  0  0  0  0  0  0  0  0  0  0  0  0
   -2.7507   -0.9315   -1.0755 H   0  0  0  0  0  0  0  0  0  0  0  0
  1  6  2  0  0  0  0
  1  2  1  0  0  0  0
  2  3  2  0  0  0  0
  3  4  1  0  0  0  0
  5 10  1  0  0  0  0
  5  4  2  0  0  0  0
  6  5  1  0  0  0  0
  7  1  1  0  0  0  0
  8  2  1  0  0  0  0
  9 13  1  0  0  0  0
 12 11  3  0  0  0  0
 14  6  1  0  0  0  0
M  RAD  2   3   2   4   2
M  END
