Coordinates from ORCA-job Ph-N2-Cl-B3LYPG-6-31G_dp-MTMO-d009-169-n800
 OpenBabel09051908143D

 14 12  0  0  0  0  0  0  0  0999 V2000
   -0.7611   -0.9032   -1.0936 C   0  0  0  0  0  0  0  0  0  0  0  0
    0.4196   -0.1850   -0.7853 C   0  0  0  0  0  0  0  0  0  0  0  0
    0.0440    1.0319   -0.2775 C   0  0  0  0  0  0  0  0  0  0  0  0
   -1.0581    1.5915   -0.0494 C   0  0  0  0  0  0  0  0  0  0  0  0
   -2.2512    0.9138   -0.3407 C   0  0  0  0  0  0  0  0  0  0  0  0
   -2.0451   -0.3712   -0.8783 C   0  0  0  0  0  0  0  0  0  0  0  0
   -0.6587   -1.9014   -1.5111 H   0  0  0  0  0  0  0  0  0  0  0  0
    1.4169   -0.5753   -0.9436 H   0  0  0  0  0  0  0  0  0  0  0  0
   -1.2714    3.3614    0.6863 H   0  0  0  0  0  0  0  0  0  0  0  0
   -3.2443    1.3188   -0.1763 H   0  0  0  0  0  0  0  0  0  0  0  0
    3.9881   -4.0441   -2.1921 N   0  0  0  0  0  0  0  0  0  0  0  0
    4.6467   -4.8628   -2.5349 N   0  0  0  0  0  0  0  0  0  0  0  0
   -1.6062    4.5408    1.1750 Cl  0  0  0  0  0  0  0  0  0  0  0  0
   -2.9106   -0.9752   -1.1374 H   0  0  0  0  0  0  0  0  0  0  0  0
  1  6  2  0  0  0  0
  1  2  1  0  0  0  0
  2  3  2  0  0  0  0
  3  4  1  0  0  0  0
  5 10  1  0  0  0  0
  5  4  2  0  0  0  0
  6  5  1  0  0  0  0
  7  1  1  0  0  0  0
  8  2  1  0  0  0  0
  9 13  1  0  0  0  0
 12 11  3  0  0  0  0
 14  6  1  0  0  0  0
M  RAD  2   3   2   4   2
M  END
