Coordinates from ORCA-job Ph-N2-Cl-B3LYPG-6-31G_dp-MTMO-d009-169-n800
 OpenBabel09051908143D

 14 12  0  0  0  0  0  0  0  0999 V2000
   -0.6670   -0.2232   -0.8659 C   0  0  0  0  0  0  0  0  0  0  0  0
    0.2853    0.7609   -0.5064 C   0  0  0  0  0  0  0  0  0  0  0  0
   -0.3995    1.8496   -0.0301 C   0  0  0  0  0  0  0  0  0  0  0  0
   -1.6159    2.1181    0.1354 C   0  0  0  0  0  0  0  0  0  0  0  0
   -2.5927    1.1723   -0.2070 C   0  0  0  0  0  0  0  0  0  0  0  0
   -2.0513   -0.0223   -0.7205 C   0  0  0  0  0  0  0  0  0  0  0  0
   -0.3027   -1.1655   -1.2675 H   0  0  0  0  0  0  0  0  0  0  0  0
    1.3547    0.6264   -0.6107 H   0  0  0  0  0  0  0  0  0  0  0  0
   -2.2883    3.7927    0.8549 H   0  0  0  0  0  0  0  0  0  0  0  0
   -3.6619    1.3217   -0.0960 H   0  0  0  0  0  0  0  0  0  0  0  0
    5.8311   -7.2496   -3.3376 N   0  0  0  0  0  0  0  0  0  0  0  0
    6.4677   -8.0728   -3.7101 N   0  0  0  0  0  0  0  0  0  0  0  0
   -2.9225    4.8510    1.3189 Cl  0  0  0  0  0  0  0  0  0  0  0  0
   -2.7284   -0.8194   -1.0160 H   0  0  0  0  0  0  0  0  0  0  0  0
  1  6  2  0  0  0  0
  1  2  1  0  0  0  0
  2  3  2  0  0  0  0
  3  4  1  0  0  0  0
  5 10  1  0  0  0  0
  5  4  2  0  0  0  0
  6  5  1  0  0  0  0
  7  1  1  0  0  0  0
  8  2  1  0  0  0  0
  9 13  1  0  0  0  0
 12 11  3  0  0  0  0
 14  6  1  0  0  0  0
M  RAD  2   3   2   4   2
M  END
