Coordinates from ORCA-job Ph-N2-Cl-B3LYPG-6-31G_dp-MTMO-d009-169-n800
 OpenBabel09051908143D

 14 12  0  0  0  0  0  0  0  0999 V2000
   -0.8174    0.3103   -0.7272 C   0  0  0  0  0  0  0  0  0  0  0  0
    0.0195    1.3900   -0.3544 C   0  0  0  0  0  0  0  0  0  0  0  0
   -0.7830    2.3916    0.1290 C   0  0  0  0  0  0  0  0  0  0  0  0
   -2.0221    2.5228    0.2919 C   0  0  0  0  0  0  0  0  0  0  0  0
   -2.8874    1.4785   -0.0635 C   0  0  0  0  0  0  0  0  0  0  0  0
   -2.2159    0.3561   -0.5860 C   0  0  0  0  0  0  0  0  0  0  0  0
   -0.3506   -0.5829   -1.1353 H   0  0  0  0  0  0  0  0  0  0  0  0
    1.0976    1.3752   -0.4553 H   0  0  0  0  0  0  0  0  0  0  0  0
   -2.8792    4.1035    1.0284 H   0  0  0  0  0  0  0  0  0  0  0  0
   -3.9670    1.5076    0.0448 H   0  0  0  0  0  0  0  0  0  0  0  0
    7.6524   -9.8302   -4.2356 N   0  0  0  0  0  0  0  0  0  0  0  0
    8.2906  -10.6526   -4.6069 N   0  0  0  0  0  0  0  0  0  0  0  0
   -3.6290    5.0779    1.5033 Cl  0  0  0  0  0  0  0  0  0  0  0  0
   -2.8000   -0.5080   -0.8920 H   0  0  0  0  0  0  0  0  0  0  0  0
  1  6  2  0  0  0  0
  1  2  1  0  0  0  0
  2  3  2  0  0  0  0
  3  4  1  0  0  0  0
  5 10  1  0  0  0  0
  5  4  2  0  0  0  0
  6  5  1  0  0  0  0
  7  1  1  0  0  0  0
  8  2  1  0  0  0  0
  9 13  1  0  0  0  0
 12 11  3  0  0  0  0
 14  6  1  0  0  0  0
M  RAD  2   3   2   4   2
M  END
