Coordinates from ORCA-job Ph-N2-Cl-B3LYPG-6-31G_dp-MTMO-d009-169-n800
 OpenBabel09051908143D

 14 12  0  0  0  0  0  0  0  0999 V2000
   -0.6625   -0.2788   -0.8846 C   0  0  0  0  0  0  0  0  0  0  0  0
    0.3060    0.6905   -0.5280 C   0  0  0  0  0  0  0  0  0  0  0  0
   -0.3605    1.7895   -0.0493 C   0  0  0  0  0  0  0  0  0  0  0  0
   -1.5721    2.0767    0.1200 C   0  0  0  0  0  0  0  0  0  0  0  0
   -2.5643    1.1461   -0.2196 C   0  0  0  0  0  0  0  0  0  0  0  0
   -2.0430   -0.0566   -0.7349 C   0  0  0  0  0  0  0  0  0  0  0  0
   -0.3139   -1.2264   -1.2876 H   0  0  0  0  0  0  0  0  0  0  0  0
    1.3729    0.5396   -0.6357 H   0  0  0  0  0  0  0  0  0  0  0  0
   -2.2161    3.7607    0.8427 H   0  0  0  0  0  0  0  0  0  0  0  0
   -3.6307    1.3120   -0.1052 H   0  0  0  0  0  0  0  0  0  0  0  0
    5.6607   -6.9878   -3.2425 N   0  0  0  0  0  0  0  0  0  0  0  0
    6.2978   -7.8107   -3.6149 N   0  0  0  0  0  0  0  0  0  0  0  0
   -2.8324    4.8284    1.3094 Cl  0  0  0  0  0  0  0  0  0  0  0  0
   -2.7333   -0.8431   -1.0285 H   0  0  0  0  0  0  0  0  0  0  0  0
  1  6  2  0  0  0  0
  1  2  1  0  0  0  0
  2  3  2  0  0  0  0
  3  4  1  0  0  0  0
  5 10  1  0  0  0  0
  5  4  2  0  0  0  0
  6  5  1  0  0  0  0
  7  1  1  0  0  0  0
  8  2  1  0  0  0  0
  9 13  1  0  0  0  0
 12 11  3  0  0  0  0
 14  6  1  0  0  0  0
M  RAD  2   3   2   4   2
M  END
