Coordinates from ORCA-job Ph-N2-Cl-B3LYPG-6-31G_dp-MTMO-d009-169-n800
 OpenBabel09051908143D

 14 12  0  0  0  0  0  0  0  0999 V2000
   -1.6572   -1.4986   -1.3273 C   0  0  0  0  0  0  0  0  0  0  0  0
   -0.2448   -1.5766   -1.3228 C   0  0  0  0  0  0  0  0  0  0  0  0
    0.2269   -0.3922   -0.8317 C   0  0  0  0  0  0  0  0  0  0  0  0
   -0.2630    0.6919   -0.4056 C   0  0  0  0  0  0  0  0  0  0  0  0
   -1.6700    0.7840   -0.4044 C   0  0  0  0  0  0  0  0  0  0  0  0
   -2.3427   -0.3541   -0.8820 C   0  0  0  0  0  0  0  0  0  0  0  0
   -2.2177   -2.3570   -1.6887 H   0  0  0  0  0  0  0  0  0  0  0  0
    0.3192   -2.4377   -1.6568 H   0  0  0  0  0  0  0  0  0  0  0  0
    0.6504    2.1117    0.1935 H   0  0  0  0  0  0  0  0  0  0  0  0
   -2.2075    1.6633   -0.0622 H   0  0  0  0  0  0  0  0  0  0  0  0
    2.7013   -0.5855   -0.8490 N   0  0  0  0  0  0  0  0  0  0  0  0
    3.5743    0.0328   -0.5690 N   0  0  0  0  0  0  0  0  0  0  0  0
    1.2689    3.2092    0.6564 Cl  0  0  0  0  0  0  0  0  0  0  0  0
   -3.4294   -0.3515   -0.9091 H   0  0  0  0  0  0  0  0  0  0  0  0
  1  2  2  0  0  0  0
  1  6  1  0  0  0  0
  2  3  1  0  0  0  0
  3  4  2  0  0  0  0
  4  5  1  0  0  0  0
  5 10  1  0  0  0  0
  6  5  2  0  0  0  0
  7  1  1  0  0  0  0
  8  2  1  0  0  0  0
  9 13  1  0  0  0  0
 11 12  3  0  0  0  0
 14  6  1  0  0  0  0
M  RAD  2   3   2   4   2
M  END
