Coordinates from ORCA-job Ph-N2-Cl-B3LYPG-6-31G_dp-MTMO-d009-169-n800
 OpenBabel09051908143D

 14 12  0  0  0  0  0  0  0  0999 V2000
   -0.6527   -0.5729   -0.9859 C   0  0  0  0  0  0  0  0  0  0  0  0
    0.4036    0.3072   -0.6480 C   0  0  0  0  0  0  0  0  0  0  0  0
   -0.1548    1.4595   -0.1565 C   0  0  0  0  0  0  0  0  0  0  0  0
   -1.3330    1.8516    0.0366 C   0  0  0  0  0  0  0  0  0  0  0  0
   -2.4091    1.0118   -0.2843 C   0  0  0  0  0  0  0  0  0  0  0  0
   -2.0053   -0.2309   -0.8095 C   0  0  0  0  0  0  0  0  0  0  0  0
   -0.3963   -1.5464   -1.3960 H   0  0  0  0  0  0  0  0  0  0  0  0
    1.4507    0.0637   -0.7767 H   0  0  0  0  0  0  0  0  0  0  0  0
   -1.8158    3.5778    0.7752 H   0  0  0  0  0  0  0  0  0  0  0  0
   -3.4543    1.2706   -0.1495 H   0  0  0  0  0  0  0  0  0  0  0  0
    4.7655   -5.5835   -2.7352 N   0  0  0  0  0  0  0  0  0  0  0  0
    5.4077   -6.4072   -3.0966 N   0  0  0  0  0  0  0  0  0  0  0  0
   -2.3302    4.6920    1.2577 Cl  0  0  0  0  0  0  0  0  0  0  0  0
   -2.7673   -0.9533   -1.0900 H   0  0  0  0  0  0  0  0  0  0  0  0
  1  6  2  0  0  0  0
  1  2  1  0  0  0  0
  2  3  2  0  0  0  0
  3  4  1  0  0  0  0
  5 10  1  0  0  0  0
  5  4  2  0  0  0  0
  6  5  1  0  0  0  0
  7  1  1  0  0  0  0
  8  2  1  0  0  0  0
  9 13  1  0  0  0  0
 12 11  3  0  0  0  0
 14  6  1  0  0  0  0
M  RAD  2   3   2   4   2
M  END
