Coordinates from ORCA-job Ph-N2-Cl-B3LYPG-6-31G_dp-MTMO-d009-169-n800
 OpenBabel09051908143D

 14 12  0  0  0  0  0  0  0  0999 V2000
   -1.0098   -1.1774   -1.1940 C   0  0  0  0  0  0  0  0  0  0  0  0
    0.2926   -0.6776   -0.9478 C   0  0  0  0  0  0  0  0  0  0  0  0
    0.1551    0.5818   -0.4249 C   0  0  0  0  0  0  0  0  0  0  0  0
   -0.8166    1.3276   -0.1411 C   0  0  0  0  0  0  0  0  0  0  0  0
   -2.1221    0.8653   -0.3714 C   0  0  0  0  0  0  0  0  0  0  0  0
   -2.1694   -0.4322   -0.9154 C   0  0  0  0  0  0  0  0  0  0  0  0
   -1.1032   -2.1756   -1.6138 H   0  0  0  0  0  0  0  0  0  0  0  0
    1.1984   -1.2335   -1.1542 H   0  0  0  0  0  0  0  0  0  0  0  0
   -0.6817    3.0985    0.5862 H   0  0  0  0  0  0  0  0  0  0  0  0
   -3.0205    1.4352   -0.1586 H   0  0  0  0  0  0  0  0  0  0  0  0
    3.4918   -2.7710   -1.7226 N   0  0  0  0  0  0  0  0  0  0  0  0
    4.4069   -3.3451   -1.9549 N   0  0  0  0  0  0  0  0  0  0  0  0
   -0.7744    4.3190    1.0831 Cl  0  0  0  0  0  0  0  0  0  0  0  0
   -3.1385   -0.8751   -1.1295 H   0  0  0  0  0  0  0  0  0  0  0  0
  1  2  2  0  0  0  0
  1  6  1  0  0  0  0
  2  3  1  0  0  0  0
  3  4  2  0  0  0  0
  5 10  1  0  0  0  0
  5  4  1  0  0  0  0
  6  5  2  0  0  0  0
  7  1  1  0  0  0  0
  8  2  1  0  0  0  0
  9 13  1  0  0  0  0
 12 11  3  0  0  0  0
 14  6  1  0  0  0  0
M  RAD  2   3   2   4   2
M  END
