Coordinates from ORCA-job Ph-N2-Cl-B3LYPG-6-31G_dp-MTMO-d009-169-n800
 OpenBabel09051908143D

 14 12  0  0  0  0  0  0  0  0999 V2000
   -0.9116   -1.1307   -1.1746 C   0  0  0  0  0  0  0  0  0  0  0  0
    0.3612   -0.5697   -0.9075 C   0  0  0  0  0  0  0  0  0  0  0  0
    0.1567    0.6821   -0.3879 C   0  0  0  0  0  0  0  0  0  0  0  0
   -0.8543    1.3802   -0.1211 C   0  0  0  0  0  0  0  0  0  0  0  0
   -2.1326    0.8574   -0.3723 C   0  0  0  0  0  0  0  0  0  0  0  0
   -2.1096   -0.4410   -0.9158 C   0  0  0  0  0  0  0  0  0  0  0  0
   -0.9508   -2.1322   -1.5948 H   0  0  0  0  0  0  0  0  0  0  0  0
    1.2946   -1.0838   -1.0996 H   0  0  0  0  0  0  0  0  0  0  0  0
   -0.8187    3.1559    0.6074 H   0  0  0  0  0  0  0  0  0  0  0  0
   -3.0602    1.3844   -0.1748 H   0  0  0  0  0  0  0  0  0  0  0  0
    3.4661   -2.9651   -1.8072 N   0  0  0  0  0  0  0  0  0  0  0  0
    4.3027   -3.6392   -2.0656 N   0  0  0  0  0  0  0  0  0  0  0  0
   -0.9818    4.3706    1.1003 Cl  0  0  0  0  0  0  0  0  0  0  0  0
   -3.0531   -0.9292   -1.1452 H   0  0  0  0  0  0  0  0  0  0  0  0
  1  6  2  0  0  0  0
  1  2  1  0  0  0  0
  2  3  2  0  0  0  0
  3  4  1  0  0  0  0
  5 10  1  0  0  0  0
  5  4  2  0  0  0  0
  6  5  1  0  0  0  0
  7  1  1  0  0  0  0
  8  2  1  0  0  0  0
  9 13  1  0  0  0  0
 12 11  3  0  0  0  0
 14  6  1  0  0  0  0
M  RAD  2   3   2   4   2
M  END
