Coordinates from ORCA-job Ph-N2-Cl-B3LYPG-6-31G_dp-MTMO-d009-169-n800
 OpenBabel09051908143D

 14 12  0  0  0  0  0  0  0  0999 V2000
   -0.6978   -0.0562   -0.8168 C   0  0  0  0  0  0  0  0  0  0  0  0
    0.2124    0.9650   -0.4514 C   0  0  0  0  0  0  0  0  0  0  0  0
   -0.5183    2.0243    0.0229 C   0  0  0  0  0  0  0  0  0  0  0  0
   -1.7452    2.2439    0.1831 C   0  0  0  0  0  0  0  0  0  0  0  0
   -2.6812    1.2597   -0.1653 C   0  0  0  0  0  0  0  0  0  0  0  0
   -2.0897    0.0888   -0.6778 C   0  0  0  0  0  0  0  0  0  0  0  0
   -0.2942   -0.9827   -1.2176 H   0  0  0  0  0  0  0  0  0  0  0  0
    1.2869    0.8743   -0.5505 H   0  0  0  0  0  0  0  0  0  0  0  0
   -2.4889    3.8887    0.9007 H   0  0  0  0  0  0  0  0  0  0  0  0
   -3.7562    1.3653   -0.0591 H   0  0  0  0  0  0  0  0  0  0  0  0
    6.3721   -8.0465   -3.6205 N   0  0  0  0  0  0  0  0  0  0  0  0
    7.0100   -8.8693   -3.9917 N   0  0  0  0  0  0  0  0  0  0  0  0
   -3.1684    4.9193    1.3629 Cl  0  0  0  0  0  0  0  0  0  0  0  0
   -2.7328   -0.7346   -0.9776 H   0  0  0  0  0  0  0  0  0  0  0  0
  1  6  2  0  0  0  0
  1  2  1  0  0  0  0
  2  3  2  0  0  0  0
  3  4  1  0  0  0  0
  5 10  1  0  0  0  0
  5  4  2  0  0  0  0
  6  5  1  0  0  0  0
  7  1  1  0  0  0  0
  8  2  1  0  0  0  0
  9 13  1  0  0  0  0
 12 11  3  0  0  0  0
 14  6  1  0  0  0  0
M  RAD  2   3   2   4   2
M  END
