Coordinates from ORCA-job Ph-N2-Cl-B3LYPG-6-31G_dp-MTMO-d009-169-n800
 OpenBabel09051908143D

 14 12  0  0  0  0  0  0  0  0999 V2000
   -0.6920   -0.7042   -1.0294 C   0  0  0  0  0  0  0  0  0  0  0  0
    0.4149    0.1158   -0.7021 C   0  0  0  0  0  0  0  0  0  0  0  0
   -0.0746    1.2957   -0.2031 C   0  0  0  0  0  0  0  0  0  0  0  0
   -1.2266    1.7532    0.0038 C   0  0  0  0  0  0  0  0  0  0  0  0
   -2.3504    0.9737   -0.3065 C   0  0  0  0  0  0  0  0  0  0  0  0
   -2.0217   -0.2883   -0.8377 C   0  0  0  0  0  0  0  0  0  0  0  0
   -0.4943   -1.6896   -1.4435 H   0  0  0  0  0  0  0  0  0  0  0  0
    1.4454   -0.1846   -0.8427 H   0  0  0  0  0  0  0  0  0  0  0  0
   -1.6068    3.4996    0.7441 H   0  0  0  0  0  0  0  0  0  0  0  0
   -3.3781    1.2894   -0.1601 H   0  0  0  0  0  0  0  0  0  0  0  0
    4.4618   -4.9865   -2.5241 N   0  0  0  0  0  0  0  0  0  0  0  0
    5.1103   -5.8083   -2.8786 N   0  0  0  0  0  0  0  0  0  0  0  0
   -2.0537    4.6410    1.2315 Cl  0  0  0  0  0  0  0  0  0  0  0  0
   -2.8255   -0.9670   -1.1105 H   0  0  0  0  0  0  0  0  0  0  0  0
  1  6  2  0  0  0  0
  1  2  1  0  0  0  0
  2  3  2  0  0  0  0
  3  4  1  0  0  0  0
  5 10  1  0  0  0  0
  5  4  2  0  0  0  0
  6  5  1  0  0  0  0
  7  1  1  0  0  0  0
  8  2  1  0  0  0  0
  9 13  1  0  0  0  0
 12 11  3  0  0  0  0
 14  6  1  0  0  0  0
M  RAD  2   3   2   4   2
M  END
