Coordinates from ORCA-job Ph-N2-Cl-B3LYPG-6-31G_dp-MTMO-d009-169-n800
 OpenBabel09051908143D

 14 12  0  0  0  0  0  0  0  0999 V2000
   -0.8016   -0.9909   -1.1224 C   0  0  0  0  0  0  0  0  0  0  0  0
    0.4121   -0.3249   -0.8253 C   0  0  0  0  0  0  0  0  0  0  0  0
    0.0938    0.9067   -0.3137 C   0  0  0  0  0  0  0  0  0  0  0  0
   -0.9803    1.5144   -0.0749 C   0  0  0  0  0  0  0  0  0  0  0  0
   -2.2044    0.8887   -0.3554 C   0  0  0  0  0  0  0  0  0  0  0  0
   -2.0593   -0.4037   -0.8950 C   0  0  0  0  0  0  0  0  0  0  0  0
   -0.7467   -1.9924   -1.5409 H   0  0  0  0  0  0  0  0  0  0  0  0
    1.3896   -0.7589   -0.9934 H   0  0  0  0  0  0  0  0  0  0  0  0
   -1.1112    3.2909    0.6580 H   0  0  0  0  0  0  0  0  0  0  0  0
   -3.1772    1.3365   -0.1818 H   0  0  0  0  0  0  0  0  0  0  0  0
    3.7627   -3.6317   -2.0423 N   0  0  0  0  0  0  0  0  0  0  0  0
    4.4742   -4.4103   -2.3722 N   0  0  0  0  0  0  0  0  0  0  0  0
   -1.3906    4.4849    1.1467 Cl  0  0  0  0  0  0  0  0  0  0  0  0
   -2.9526   -0.9693   -1.1462 H   0  0  0  0  0  0  0  0  0  0  0  0
  1  6  2  0  0  0  0
  1  2  1  0  0  0  0
  2  3  2  0  0  0  0
  3  4  1  0  0  0  0
  5 10  1  0  0  0  0
  5  4  2  0  0  0  0
  6  5  1  0  0  0  0
  7  1  1  0  0  0  0
  8  2  1  0  0  0  0
  9 13  1  0  0  0  0
 12 11  3  0  0  0  0
 14  6  1  0  0  0  0
M  RAD  2   3   2   4   2
M  END
