Coordinates from ORCA-job Ph-N2-Cl-B3LYPG-6-31G_dp-MTMO-d009-169-n800
 OpenBabel09051908143D

 14 12  0  0  0  0  0  0  0  0999 V2000
   -0.7704   -0.9260   -1.1006 C   0  0  0  0  0  0  0  0  0  0  0  0
    0.4186   -0.2207   -0.7946 C   0  0  0  0  0  0  0  0  0  0  0  0
    0.0571    1.0002   -0.2862 C   0  0  0  0  0  0  0  0  0  0  0  0
   -1.0382    1.5720   -0.0559 C   0  0  0  0  0  0  0  0  0  0  0  0
   -2.2392    0.9071   -0.3449 C   0  0  0  0  0  0  0  0  0  0  0  0
   -2.0482   -0.3800   -0.8828 C   0  0  0  0  0  0  0  0  0  0  0  0
   -0.6798   -1.9253   -1.5182 H   0  0  0  0  0  0  0  0  0  0  0  0
    1.4112   -0.6220   -0.9547 H   0  0  0  0  0  0  0  0  0  0  0  0
   -1.2312    3.3440    0.6789 H   0  0  0  0  0  0  0  0  0  0  0  0
   -3.2275    1.3230   -0.1785 H   0  0  0  0  0  0  0  0  0  0  0  0
    3.9321   -3.9354   -2.1539 N   0  0  0  0  0  0  0  0  0  0  0  0
    4.5971   -4.7497   -2.4947 N   0  0  0  0  0  0  0  0  0  0  0  0
   -1.5524    4.5273    1.1675 Cl  0  0  0  0  0  0  0  0  0  0  0  0
   -2.9207   -0.9745   -1.1402 H   0  0  0  0  0  0  0  0  0  0  0  0
  1  6  2  0  0  0  0
  1  2  1  0  0  0  0
  2  3  2  0  0  0  0
  3  4  1  0  0  0  0
  5 10  1  0  0  0  0
  5  4  2  0  0  0  0
  6  5  1  0  0  0  0
  7  1  1  0  0  0  0
  8  2  1  0  0  0  0
  9 13  1  0  0  0  0
 12 11  3  0  0  0  0
 14  6  1  0  0  0  0
M  RAD  2   3   2   4   2
M  END
