Coordinates from ORCA-job Ph-N2-Cl-B3LYPG-6-31G_dp-MTMO-d009-169-n800
 OpenBabel09051908143D

 14 12  0  0  0  0  0  0  0  0999 V2000
   -0.7615    0.1658   -0.7617 C   0  0  0  0  0  0  0  0  0  0  0  0
    0.1011    1.2259   -0.3914 C   0  0  0  0  0  0  0  0  0  0  0  0
   -0.6776    2.2485    0.0873 C   0  0  0  0  0  0  0  0  0  0  0  0
   -1.9133    2.4110    0.2480 C   0  0  0  0  0  0  0  0  0  0  0  0
   -2.8032    1.3866   -0.1052 C   0  0  0  0  0  0  0  0  0  0  0  0
   -2.1586    0.2464   -0.6228 C   0  0  0  0  0  0  0  0  0  0  0  0
   -0.3160   -0.7398   -1.1661 H   0  0  0  0  0  0  0  0  0  0  0  0
    1.1787    1.1849   -0.4903 H   0  0  0  0  0  0  0  0  0  0  0  0
   -2.7322    4.0155    0.9753 H   0  0  0  0  0  0  0  0  0  0  0  0
   -3.8819    1.4423    0.0011 H   0  0  0  0  0  0  0  0  0  0  0  0
    7.1285   -9.1152   -3.9900 N   0  0  0  0  0  0  0  0  0  0  0  0
    7.7665   -9.9383   -4.3605 N   0  0  0  0  0  0  0  0  0  0  0  0
   -3.4587    5.0105    1.4440 Cl  0  0  0  0  0  0  0  0  0  0  0  0
   -2.7632   -0.6042   -0.9266 H   0  0  0  0  0  0  0  0  0  0  0  0
  1  6  2  0  0  0  0
  1  2  1  0  0  0  0
  2  3  2  0  0  0  0
  3  4  1  0  0  0  0
  5 10  1  0  0  0  0
  5  4  2  0  0  0  0
  6  5  1  0  0  0  0
  7  1  1  0  0  0  0
  8  2  1  0  0  0  0
  9 13  1  0  0  0  0
 12 11  3  0  0  0  0
 14  6  1  0  0  0  0
M  RAD  2   3   2   4   2
M  END
