Coordinates from ORCA-job Ph-N2-Cl-B3LYPG-6-31G_dp-MTMO-d009-169-n800
 OpenBabel09051908143D

 14 13  0  0  0  0  0  0  0  0999 V2000
   -1.4905   -1.4837   -1.3142 C   0  0  0  0  0  0  0  0  0  0  0  0
   -0.1120   -1.3965   -1.2468 C   0  0  0  0  0  0  0  0  0  0  0  0
    0.5360   -0.2136   -0.7550 C   0  0  0  0  0  0  0  0  0  0  0  0
   -0.3050    0.8790   -0.3355 C   0  0  0  0  0  0  0  0  0  0  0  0
   -1.6836    0.7672   -0.4142 C   0  0  0  0  0  0  0  0  0  0  0  0
   -2.2788   -0.4028   -0.8988 C   0  0  0  0  0  0  0  0  0  0  0  0
   -1.9578   -2.3886   -1.6892 H   0  0  0  0  0  0  0  0  0  0  0  0
    0.5200   -2.2208   -1.5635 H   0  0  0  0  0  0  0  0  0  0  0  0
    0.1830    1.7743    0.0365 H   0  0  0  0  0  0  0  0  0  0  0  0
   -2.3042    1.5987   -0.0950 H   0  0  0  0  0  0  0  0  0  0  0  0
    1.6745   -0.1684   -0.7095 N   0  0  0  0  0  0  0  0  0  0  0  0
    2.7196    0.3134   -0.4847 N   0  0  0  0  0  0  0  0  0  0  0  0
    2.5688    2.3557    0.3652 Cl  0  0  0  0  0  0  0  0  0  0  0  0
   -3.3614   -0.4742   -0.9542 H   0  0  0  0  0  0  0  0  0  0  0  0
  1  2  2  0  0  0  0
  1  6  1  0  0  0  0
  2  3  1  0  0  0  0
  3 11  1  0  0  0  0
  3  4  2  0  0  0  0
  4  9  1  0  0  0  0
  5  4  1  0  0  0  0
  5 10  1  0  0  0  0
  6  5  2  0  0  0  0
  7  1  1  0  0  0  0
  8  2  1  0  0  0  0
 11 12  1  0  0  0  0
 14  6  1  0  0  0  0
M  RAD  3  11   2  12   3  13   2
M  END
