Coordinates from ORCA-job Ph-N2-Cl-B3LYPG-6-31G_dp-MTMO-d009-169-n800
 OpenBabel09051908143D

 14 12  0  0  0  0  0  0  0  0999 V2000
   -1.3398   -1.3209   -1.2559 C   0  0  0  0  0  0  0  0  0  0  0  0
    0.0394   -1.0439   -1.0922 C   0  0  0  0  0  0  0  0  0  0  0  0
    0.1449    0.2180   -0.5679 C   0  0  0  0  0  0  0  0  0  0  0  0
   -0.6726    1.1110   -0.2288 C   0  0  0  0  0  0  0  0  0  0  0  0
   -2.0481    0.8726   -0.3759 C   0  0  0  0  0  0  0  0  0  0  0  0
   -2.3417   -0.3964   -0.9104 C   0  0  0  0  0  0  0  0  0  0  0  0
   -1.6227   -2.2877   -1.6645 H   0  0  0  0  0  0  0  0  0  0  0  0
    0.8304   -1.7359   -1.3497 H   0  0  0  0  0  0  0  0  0  0  0  0
   -0.1998    2.8301    0.4920 H   0  0  0  0  0  0  0  0  0  0  0  0
   -2.8258    1.5814   -0.1106 H   0  0  0  0  0  0  0  0  0  0  0  0
    3.5391   -2.0998   -1.4521 N   0  0  0  0  0  0  0  0  0  0  0  0
    4.6423   -2.1585   -1.4750 N   0  0  0  0  0  0  0  0  0  0  0  0
   -0.0552    4.0427    0.9950 Cl  0  0  0  0  0  0  0  0  0  0  0  0
   -3.3819   -0.6727   -1.0628 H   0  0  0  0  0  0  0  0  0  0  0  0
  1  2  2  0  0  0  0
  1  6  1  0  0  0  0
  2  3  1  0  0  0  0
  3  4  2  0  0  0  0
  5  4  1  0  0  0  0
  5 10  1  0  0  0  0
  6  5  2  0  0  0  0
  7  1  1  0  0  0  0
  8  2  1  0  0  0  0
  9 13  1  0  0  0  0
 12 11  3  0  0  0  0
 14  6  1  0  0  0  0
M  RAD  2   3   2   4   2
M  END
