Coordinates from ORCA-job Ph-N2-Cl-B3LYPG-6-31G_dp-MTMO-d009-169-n800
 OpenBabel09051908143D

 14 12  0  0  0  0  0  0  0  0999 V2000
   -0.6643   -0.6223   -1.0041 C   0  0  0  0  0  0  0  0  0  0  0  0
    0.4106    0.2367   -0.6706 C   0  0  0  0  0  0  0  0  0  0  0  0
   -0.1232    1.3990   -0.1753 C   0  0  0  0  0  0  0  0  0  0  0  0
   -1.2925    1.8142    0.0240 C   0  0  0  0  0  0  0  0  0  0  0  0
   -2.3861    0.9955   -0.2925 C   0  0  0  0  0  0  0  0  0  0  0  0
   -2.0091   -0.2542   -0.8209 C   0  0  0  0  0  0  0  0  0  0  0  0
   -0.4289   -1.6002   -1.4164 H   0  0  0  0  0  0  0  0  0  0  0  0
    1.4521   -0.0268   -0.8046 H   0  0  0  0  0  0  0  0  0  0  0  0
   -1.7387    3.5476    0.7649 H   0  0  0  0  0  0  0  0  0  0  0  0
   -3.4253    1.2744   -0.1525 H   0  0  0  0  0  0  0  0  0  0  0  0
    4.6430   -5.3551   -2.6522 N   0  0  0  0  0  0  0  0  0  0  0  0
    5.2868   -6.1788   -3.0109 N   0  0  0  0  0  0  0  0  0  0  0  0
   -2.2294    4.6713    1.2505 Cl  0  0  0  0  0  0  0  0  0  0  0  0
   -2.7864   -0.9614   -1.0982 H   0  0  0  0  0  0  0  0  0  0  0  0
  1  6  2  0  0  0  0
  1  2  1  0  0  0  0
  2  3  2  0  0  0  0
  3  4  1  0  0  0  0
  5 10  1  0  0  0  0
  5  4  2  0  0  0  0
  6  5  1  0  0  0  0
  7  1  1  0  0  0  0
  8  2  1  0  0  0  0
  9 13  1  0  0  0  0
 12 11  3  0  0  0  0
 14  6  1  0  0  0  0
M  RAD  2   3   2   4   2
M  END
