Coordinates from ORCA-job Ph-N2-Cl-B3LYPG-6-31G_dp-MTMO-d009-169-n800
 OpenBabel09051908143D

 14 12  0  0  0  0  0  0  0  0999 V2000
   -0.8348   -1.0468   -1.1437 C   0  0  0  0  0  0  0  0  0  0  0  0
    0.4012   -0.4179   -0.8572 C   0  0  0  0  0  0  0  0  0  0  0  0
    0.1236    0.8220   -0.3420 C   0  0  0  0  0  0  0  0  0  0  0  0
   -0.9291    1.4623   -0.0927 C   0  0  0  0  0  0  0  0  0  0  0  0
   -2.1737    0.8731   -0.3628 C   0  0  0  0  0  0  0  0  0  0  0  0
   -2.0722   -0.4225   -0.9045 C   0  0  0  0  0  0  0  0  0  0  0  0
   -0.8135   -2.0491   -1.5633 H   0  0  0  0  0  0  0  0  0  0  0  0
    1.3634   -0.8815   -1.0347 H   0  0  0  0  0  0  0  0  0  0  0  0
   -1.0007    3.2401    0.6398 H   0  0  0  0  0  0  0  0  0  0  0  0
   -3.1311    1.3496   -0.1803 H   0  0  0  0  0  0  0  0  0  0  0  0
    3.6161   -3.3638   -1.9580 N   0  0  0  0  0  0  0  0  0  0  0  0
    4.3830   -4.1072   -2.2418 N   0  0  0  0  0  0  0  0  0  0  0  0
   -1.2394    4.4425    1.1304 Cl  0  0  0  0  0  0  0  0  0  0  0  0
   -2.9843   -0.9608   -1.1480 H   0  0  0  0  0  0  0  0  0  0  0  0
  1  6  2  0  0  0  0
  1  2  1  0  0  0  0
  2  3  2  0  0  0  0
  3  4  1  0  0  0  0
  5 10  1  0  0  0  0
  5  4  2  0  0  0  0
  6  5  1  0  0  0  0
  7  1  1  0  0  0  0
  8  2  1  0  0  0  0
  9 13  1  0  0  0  0
 12 11  3  0  0  0  0
 14  6  1  0  0  0  0
M  RAD  2   3   2   4   2
M  END
