Coordinates from ORCA-job Ph-N2-Cl-B3LYPG-6-31G_dp-MTMO-d009-169-n800
 OpenBabel09051908143D

 14 12  0  0  0  0  0  0  0  0999 V2000
   -0.7645   -0.9119   -1.0959 C   0  0  0  0  0  0  0  0  0  0  0  0
    0.4193   -0.1985   -0.7883 C   0  0  0  0  0  0  0  0  0  0  0  0
    0.0489    1.0200   -0.2804 C   0  0  0  0  0  0  0  0  0  0  0  0
   -1.0506    1.5842   -0.0518 C   0  0  0  0  0  0  0  0  0  0  0  0
   -2.2467    0.9113   -0.3425 C   0  0  0  0  0  0  0  0  0  0  0  0
   -2.0462   -0.3745   -0.8800 C   0  0  0  0  0  0  0  0  0  0  0  0
   -0.6665   -1.9106   -1.5133 H   0  0  0  0  0  0  0  0  0  0  0  0
    1.4149   -0.5929   -0.9473 H   0  0  0  0  0  0  0  0  0  0  0  0
   -1.2564    3.3550    0.6834 H   0  0  0  0  0  0  0  0  0  0  0  0
   -3.2380    1.3205   -0.1777 H   0  0  0  0  0  0  0  0  0  0  0  0
    3.9673   -4.0030   -2.1782 N   0  0  0  0  0  0  0  0  0  0  0  0
    4.6276   -4.8206   -2.5202 N   0  0  0  0  0  0  0  0  0  0  0  0
   -1.5862    4.5359    1.1720 Cl  0  0  0  0  0  0  0  0  0  0  0  0
   -2.9143   -0.9749   -1.1386 H   0  0  0  0  0  0  0  0  0  0  0  0
  1  6  2  0  0  0  0
  1  2  1  0  0  0  0
  2  3  2  0  0  0  0
  3  4  1  0  0  0  0
  5 10  1  0  0  0  0
  5  4  2  0  0  0  0
  6  5  1  0  0  0  0
  7  1  1  0  0  0  0
  8  2  1  0  0  0  0
  9 13  1  0  0  0  0
 12 11  3  0  0  0  0
 14  6  1  0  0  0  0
M  RAD  2   3   2   4   2
M  END
