Coordinates from ORCA-job Ph-N2-Cl-B3LYPG-6-31G_dp-MTMO-d009-169-n800
 OpenBabel09051908143D

 14 12  0  0  0  0  0  0  0  0999 V2000
   -1.6973   -1.4886   -1.3245 C   0  0  0  0  0  0  0  0  0  0  0  0
   -0.2830   -1.5531   -1.3081 C   0  0  0  0  0  0  0  0  0  0  0  0
    0.1744   -0.3619   -0.8131 C   0  0  0  0  0  0  0  0  0  0  0  0
   -0.3525    0.7032   -0.3984 C   0  0  0  0  0  0  0  0  0  0  0  0
   -1.7551    0.7979   -0.4024 C   0  0  0  0  0  0  0  0  0  0  0  0
   -2.4033   -0.3535   -0.8872 C   0  0  0  0  0  0  0  0  0  0  0  0
   -2.2454   -2.3533   -1.6902 H   0  0  0  0  0  0  0  0  0  0  0  0
    0.2879   -2.4114   -1.6376 H   0  0  0  0  0  0  0  0  0  0  0  0
    0.5771    2.2163    0.2395 H   0  0  0  0  0  0  0  0  0  0  0  0
   -2.3067    1.6702   -0.0661 H   0  0  0  0  0  0  0  0  0  0  0  0
    3.0922   -0.7329   -0.8987 N   0  0  0  0  0  0  0  0  0  0  0  0
    4.0094   -0.1660   -0.6557 N   0  0  0  0  0  0  0  0  0  0  0  0
    1.1003    3.3399    0.7097 Cl  0  0  0  0  0  0  0  0  0  0  0  0
   -3.4896   -0.3671   -0.9259 H   0  0  0  0  0  0  0  0  0  0  0  0
  1  2  2  0  0  0  0
  1  6  1  0  0  0  0
  2  3  1  0  0  0  0
  3  4  2  0  0  0  0
  5  4  1  0  0  0  0
  5 10  1  0  0  0  0
  6  5  2  0  0  0  0
  7  1  1  0  0  0  0
  8  2  1  0  0  0  0
  9 13  1  0  0  0  0
 11 12  3  0  0  0  0
 14  6  1  0  0  0  0
M  RAD  2   3   2   4   2
M  END
