Coordinates from ORCA-job Ph-N2-Cl-B3LYPG-6-31G_dp-MTMO-d009-169-n800
 OpenBabel09051908143D

 14 12  0  0  0  0  0  0  0  0999 V2000
   -1.5942   -1.4337   -1.2989 C   0  0  0  0  0  0  0  0  0  0  0  0
   -0.1823   -1.3677   -1.2157 C   0  0  0  0  0  0  0  0  0  0  0  0
    0.1437   -0.1377   -0.7068 C   0  0  0  0  0  0  0  0  0  0  0  0
   -0.5093    0.8675   -0.3277 C   0  0  0  0  0  0  0  0  0  0  0  0
   -1.9111    0.8402   -0.3949 C   0  0  0  0  0  0  0  0  0  0  0  0
   -2.4234   -0.3689   -0.9031 C   0  0  0  0  0  0  0  0  0  0  0  0
   -2.0425   -2.3461   -1.6846 H   0  0  0  0  0  0  0  0  0  0  0  0
    0.4799   -2.1703   -1.5131 H   0  0  0  0  0  0  0  0  0  0  0  0
    0.2666    2.4887    0.3568 H   0  0  0  0  0  0  0  0  0  0  0  0
   -2.5564    1.6580   -0.0908 H   0  0  0  0  0  0  0  0  0  0  0  0
    3.4257   -1.2901   -1.1225 N   0  0  0  0  0  0  0  0  0  0  0  0
    4.4789   -0.9750   -1.0090 N   0  0  0  0  0  0  0  0  0  0  0  0
    0.6337    3.6594    0.8455 Cl  0  0  0  0  0  0  0  0  0  0  0  0
   -3.5006   -0.4844   -0.9940 H   0  0  0  0  0  0  0  0  0  0  0  0
  1  2  2  0  0  0  0
  1  6  1  0  0  0  0
  2  3  1  0  0  0  0
  3  4  2  0  0  0  0
  5  4  1  0  0  0  0
  5 10  1  0  0  0  0
  6  5  2  0  0  0  0
  7  1  1  0  0  0  0
  8  2  1  0  0  0  0
  9 13  1  0  0  0  0
 11 12  3  0  0  0  0
 14  6  1  0  0  0  0
M  RAD  2   3   2   4   2
M  END
