Coordinates from ORCA-job Ph-N2-Cl-B3LYPG-6-31G_dp-MTMO-d009-169-n800
 OpenBabel09051908143D

 14 12  0  0  0  0  0  0  0  0999 V2000
   -0.8530    0.3841   -0.7110 C   0  0  0  0  0  0  0  0  0  0  0  0
   -0.0261    1.4710   -0.3370 C   0  0  0  0  0  0  0  0  0  0  0  0
   -0.8379    2.4632    0.1504 C   0  0  0  0  0  0  0  0  0  0  0  0
   -2.0779    2.5824    0.3160 C   0  0  0  0  0  0  0  0  0  0  0  0
   -2.9332    1.5302   -0.0407 C   0  0  0  0  0  0  0  0  0  0  0  0
   -2.2516    0.4159   -0.5672 C   0  0  0  0  0  0  0  0  0  0  0  0
   -0.3783   -0.5035   -1.1220 H   0  0  0  0  0  0  0  0  0  0  0  0
    1.0519    1.4677   -0.4395 H   0  0  0  0  0  0  0  0  0  0  0  0
   -2.9487    4.1518    1.0588 H   0  0  0  0  0  0  0  0  0  0  0  0
   -4.0128    1.5481    0.0695 H   0  0  0  0  0  0  0  0  0  0  0  0
    7.9360  -10.2069   -4.3638 N   0  0  0  0  0  0  0  0  0  0  0  0
    8.5748  -11.0284   -4.7362 N   0  0  0  0  0  0  0  0  0  0  0  0
   -3.7071    5.1174    1.5383 Cl  0  0  0  0  0  0  0  0  0  0  0  0
   -2.8277   -0.4532   -0.8743 H   0  0  0  0  0  0  0  0  0  0  0  0
  1  6  2  0  0  0  0
  1  2  1  0  0  0  0
  2  3  2  0  0  0  0
  3  4  1  0  0  0  0
  5 10  1  0  0  0  0
  5  4  2  0  0  0  0
  6  5  1  0  0  0  0
  7  1  1  0  0  0  0
  8  2  1  0  0  0  0
  9 13  1  0  0  0  0
 12 11  3  0  0  0  0
 14  6  1  0  0  0  0
M  RAD  2   3   2   4   2
M  END
