Coordinates from ORCA-job Ph-N2-Cl-B3LYPG-6-31G_dp-MTMO-d009-169-n800
 OpenBabel09051908143D

 14 12  0  0  0  0  0  0  0  0999 V2000
   -0.6597   -0.3345   -0.9036 C   0  0  0  0  0  0  0  0  0  0  0  0
    0.3255    0.6189   -0.5502 C   0  0  0  0  0  0  0  0  0  0  0  0
   -0.3214    1.7284   -0.0690 C   0  0  0  0  0  0  0  0  0  0  0  0
   -1.5277    2.0352    0.1045 C   0  0  0  0  0  0  0  0  0  0  0  0
   -2.5359    1.1208   -0.2319 C   0  0  0  0  0  0  0  0  0  0  0  0
   -2.0359   -0.0900   -0.7492 C   0  0  0  0  0  0  0  0  0  0  0  0
   -0.3279   -1.2875   -1.3080 H   0  0  0  0  0  0  0  0  0  0  0  0
    1.3894    0.4507   -0.6615 H   0  0  0  0  0  0  0  0  0  0  0  0
   -2.1420    3.7281    0.8307 H   0  0  0  0  0  0  0  0  0  0  0  0
   -3.5991    1.3040   -0.1139 H   0  0  0  0  0  0  0  0  0  0  0  0
    5.4921   -6.7261   -3.1475 N   0  0  0  0  0  0  0  0  0  0  0  0
    6.1309   -7.5480   -3.5190 N   0  0  0  0  0  0  0  0  0  0  0  0
   -2.7398    4.8051    1.3004 Cl  0  0  0  0  0  0  0  0  0  0  0  0
   -2.7398   -0.8652   -1.0406 H   0  0  0  0  0  0  0  0  0  0  0  0
  1  6  2  0  0  0  0
  1  2  1  0  0  0  0
  2  3  2  0  0  0  0
  3  4  1  0  0  0  0
  5 10  1  0  0  0  0
  5  4  2  0  0  0  0
  6  5  1  0  0  0  0
  7  1  1  0  0  0  0
  8  2  1  0  0  0  0
  9 13  1  0  0  0  0
 12 11  3  0  0  0  0
 14  6  1  0  0  0  0
M  RAD  2   3   2   4   2
M  END
