Coordinates from ORCA-job Ph-N2-Cl-B3LYPG-6-31G_dp-MTMO-d009-169-n800
 OpenBabel09051908143D

 14 12  0  0  0  0  0  0  0  0999 V2000
   -0.6583   -0.3679   -0.9148 C   0  0  0  0  0  0  0  0  0  0  0  0
    0.3370    0.5757   -0.5633 C   0  0  0  0  0  0  0  0  0  0  0  0
   -0.2981    1.6916   -0.0809 C   0  0  0  0  0  0  0  0  0  0  0  0
   -1.5009    2.0102    0.0952 C   0  0  0  0  0  0  0  0  0  0  0  0
   -2.5187    1.1058   -0.2393 C   0  0  0  0  0  0  0  0  0  0  0  0
   -2.0318   -0.1099   -0.7576 C   0  0  0  0  0  0  0  0  0  0  0  0
   -0.3367   -1.3240   -1.3199 H   0  0  0  0  0  0  0  0  0  0  0  0
    1.3989    0.3971   -0.6769 H   0  0  0  0  0  0  0  0  0  0  0  0
   -2.0974    3.7083    0.8231 H   0  0  0  0  0  0  0  0  0  0  0  0
   -3.5798    1.2995   -0.1192 H   0  0  0  0  0  0  0  0  0  0  0  0
    5.3908   -6.5691   -3.0908 N   0  0  0  0  0  0  0  0  0  0  0  0
    6.0313   -7.3901   -3.4614 N   0  0  0  0  0  0  0  0  0  0  0  0
   -2.6839    4.7908    1.2946 Cl  0  0  0  0  0  0  0  0  0  0  0  0
   -2.7438   -0.8781   -1.0476 H   0  0  0  0  0  0  0  0  0  0  0  0
  1  6  2  0  0  0  0
  1  2  1  0  0  0  0
  2  3  2  0  0  0  0
  3  4  1  0  0  0  0
  5 10  1  0  0  0  0
  5  4  2  0  0  0  0
  6  5  1  0  0  0  0
  7  1  1  0  0  0  0
  8  2  1  0  0  0  0
  9 13  1  0  0  0  0
 12 11  3  0  0  0  0
 14  6  1  0  0  0  0
M  RAD  2   3   2   4   2
M  END
