Coordinates from ORCA-job Ph-N2-Cl-B3LYPG-6-31G_dp-MTMO-d009-169-n800
 OpenBabel09051908143D

 14 12  0  0  0  0  0  0  0  0999 V2000
   -0.6786   -0.1463   -0.8420 C   0  0  0  0  0  0  0  0  0  0  0  0
    0.2534    0.8561   -0.4794 C   0  0  0  0  0  0  0  0  0  0  0  0
   -0.4543    1.9310   -0.0049 C   0  0  0  0  0  0  0  0  0  0  0  0
   -1.6761    2.1762    0.1572 C   0  0  0  0  0  0  0  0  0  0  0  0
   -2.6330    1.2112   -0.1884 C   0  0  0  0  0  0  0  0  0  0  0  0
   -2.0669    0.0277   -0.7007 C   0  0  0  0  0  0  0  0  0  0  0  0
   -0.2949   -1.0812   -1.2426 H   0  0  0  0  0  0  0  0  0  0  0  0
    1.3256    0.7430   -0.5804 H   0  0  0  0  0  0  0  0  0  0  0  0
   -2.3833    3.8369    0.8743 H   0  0  0  0  0  0  0  0  0  0  0  0
   -3.7053    1.3394   -0.0805 H   0  0  0  0  0  0  0  0  0  0  0  0
    6.0759   -7.6157   -3.4688 N   0  0  0  0  0  0  0  0  0  0  0  0
    6.7131   -8.4386   -3.8407 N   0  0  0  0  0  0  0  0  0  0  0  0
   -3.0397    4.8825    1.3364 Cl  0  0  0  0  0  0  0  0  0  0  0  0
   -2.7275   -0.7824   -0.9983 H   0  0  0  0  0  0  0  0  0  0  0  0
  1  6  2  0  0  0  0
  1  2  1  0  0  0  0
  2  3  2  0  0  0  0
  3  4  1  0  0  0  0
  5 10  1  0  0  0  0
  5  4  2  0  0  0  0
  6  5  1  0  0  0  0
  7  1  1  0  0  0  0
  8  2  1  0  0  0  0
  9 13  1  0  0  0  0
 12 11  3  0  0  0  0
 14  6  1  0  0  0  0
M  RAD  2   3   2   4   2
M  END
