Coordinates from ORCA-job Ph-N2-Cl-B3LYPG-6-31G_dp-MTMO-d009-169-n800
 OpenBabel09051908143D

 14 12  0  0  0  0  0  0  0  0999 V2000
   -0.6486   -0.5475   -0.9758 C   0  0  0  0  0  0  0  0  0  0  0  0
    0.3986    0.3426   -0.6355 C   0  0  0  0  0  0  0  0  0  0  0  0
   -0.1717    1.4900   -0.1462 C   0  0  0  0  0  0  0  0  0  0  0  0
   -1.3541    1.8711    0.0432 C   0  0  0  0  0  0  0  0  0  0  0  0
   -2.4215    1.0213   -0.2800 C   0  0  0  0  0  0  0  0  0  0  0  0
   -2.0048   -0.2179   -0.8034 C   0  0  0  0  0  0  0  0  0  0  0  0
   -0.3821   -1.5188   -1.3846 H   0  0  0  0  0  0  0  0  0  0  0  0
    1.4483    0.1087   -0.7612 H   0  0  0  0  0  0  0  0  0  0  0  0
   -1.8545    3.5939    0.7800 H   0  0  0  0  0  0  0  0  0  0  0  0
   -3.4695    1.2705   -0.1482 H   0  0  0  0  0  0  0  0  0  0  0  0
    4.8332   -5.7033   -2.7796 N   0  0  0  0  0  0  0  0  0  0  0  0
    5.4750   -6.5267   -3.1425 N   0  0  0  0  0  0  0  0  0  0  0  0
   -2.3804    4.7036    1.2604 Cl  0  0  0  0  0  0  0  0  0  0  0  0
   -2.7593   -0.9476   -1.0854 H   0  0  0  0  0  0  0  0  0  0  0  0
  1  6  2  0  0  0  0
  1  2  1  0  0  0  0
  2  3  2  0  0  0  0
  3  4  1  0  0  0  0
  5 10  1  0  0  0  0
  5  4  2  0  0  0  0
  6  5  1  0  0  0  0
  7  1  1  0  0  0  0
  8  2  1  0  0  0  0
  9 13  1  0  0  0  0
 12 11  3  0  0  0  0
 14  6  1  0  0  0  0
M  RAD  2   3   2   4   2
M  END
