Coordinates from ORCA-job Ph-N2-Cl-B3LYPG-6-31G_dp-MTMO-d009-169-n800
 OpenBabel09051908143D

 14 12  0  0  0  0  0  0  0  0999 V2000
   -1.6957   -1.4891   -1.3247 C   0  0  0  0  0  0  0  0  0  0  0  0
   -0.2815   -1.5547   -1.3093 C   0  0  0  0  0  0  0  0  0  0  0  0
    0.1769   -0.3638   -0.8145 C   0  0  0  0  0  0  0  0  0  0  0  0
   -0.3483    0.7020   -0.3992 C   0  0  0  0  0  0  0  0  0  0  0  0
   -1.7510    0.7972   -0.4023 C   0  0  0  0  0  0  0  0  0  0  0  0
   -2.4005   -0.3535   -0.8868 C   0  0  0  0  0  0  0  0  0  0  0  0
   -2.2447   -2.3535   -1.6902 H   0  0  0  0  0  0  0  0  0  0  0  0
    0.2887   -2.4132   -1.6393 H   0  0  0  0  0  0  0  0  0  0  0  0
    0.5811    2.2130    0.2377 H   0  0  0  0  0  0  0  0  0  0  0  0
   -2.3017    1.6698   -0.0656 H   0  0  0  0  0  0  0  0  0  0  0  0
    3.0756   -0.7271   -0.8964 N   0  0  0  0  0  0  0  0  0  0  0  0
    3.9902   -0.1570   -0.6512 N   0  0  0  0  0  0  0  0  0  0  0  0
    1.1064    3.3360    0.7077 Cl  0  0  0  0  0  0  0  0  0  0  0  0
   -3.4869   -0.3662   -0.9247 H   0  0  0  0  0  0  0  0  0  0  0  0
  1  2  2  0  0  0  0
  1  6  1  0  0  0  0
  2  3  1  0  0  0  0
  3  4  2  0  0  0  0
  5  4  1  0  0  0  0
  5 10  1  0  0  0  0
  6  5  2  0  0  0  0
  7  1  1  0  0  0  0
  8  2  1  0  0  0  0
  9 13  1  0  0  0  0
 11 12  3  0  0  0  0
 14  6  1  0  0  0  0
M  RAD  2   3   2   4   2
M  END
