Coordinates from ORCA-job Ph-N2-Cl-B3LYPG-6-31G_dp-MTMO-d009-169-n800
 OpenBabel09051908143D

 14 12  0  0  0  0  0  0  0  0999 V2000
   -0.7670    0.1818   -0.7579 C   0  0  0  0  0  0  0  0  0  0  0  0
    0.0924    1.2443   -0.3872 C   0  0  0  0  0  0  0  0  0  0  0  0
   -0.6892    2.2644    0.0919 C   0  0  0  0  0  0  0  0  0  0  0  0
   -1.9253    2.4232    0.2527 C   0  0  0  0  0  0  0  0  0  0  0  0
   -2.8123    1.3963   -0.1007 C   0  0  0  0  0  0  0  0  0  0  0  0
   -2.1643    0.2582   -0.6188 C   0  0  0  0  0  0  0  0  0  0  0  0
   -0.3189   -0.7224   -1.1626 H   0  0  0  0  0  0  0  0  0  0  0  0
    1.1701    1.2065   -0.4863 H   0  0  0  0  0  0  0  0  0  0  0  0
   -2.7489    4.0249    0.9810 H   0  0  0  0  0  0  0  0  0  0  0  0
   -3.8911    1.4488    0.0057 H   0  0  0  0  0  0  0  0  0  0  0  0
    7.1850   -9.1933   -4.0169 N   0  0  0  0  0  0  0  0  0  0  0  0
    7.8229  -10.0163   -4.3873 N   0  0  0  0  0  0  0  0  0  0  0  0
   -3.4783    5.0175    1.4503 Cl  0  0  0  0  0  0  0  0  0  0  0  0
   -2.7665   -0.5941   -0.9228 H   0  0  0  0  0  0  0  0  0  0  0  0
  1  6  2  0  0  0  0
  1  2  1  0  0  0  0
  2  3  2  0  0  0  0
  3  4  1  0  0  0  0
  5 10  1  0  0  0  0
  5  4  2  0  0  0  0
  6  5  1  0  0  0  0
  7  1  1  0  0  0  0
  8  2  1  0  0  0  0
  9 13  1  0  0  0  0
 12 11  3  0  0  0  0
 14  6  1  0  0  0  0
M  RAD  2   3   2   4   2
M  END
