Coordinates from ORCA-job Ph-N2-Cl-B3LYPG-6-31G_dp-MTMO-d009-169-n800
 OpenBabel09051908143D

 14 12  0  0  0  0  0  0  0  0999 V2000
   -0.7911    0.2480   -0.7418 C   0  0  0  0  0  0  0  0  0  0  0  0
    0.0559    1.3200   -0.3701 C   0  0  0  0  0  0  0  0  0  0  0  0
   -0.7372    2.3303    0.1109 C   0  0  0  0  0  0  0  0  0  0  0  0
   -1.9750    2.4738    0.2725 C   0  0  0  0  0  0  0  0  0  0  0  0
   -2.8503    1.4375   -0.0819 C   0  0  0  0  0  0  0  0  0  0  0  0
   -2.1893    0.3077   -0.6020 C   0  0  0  0  0  0  0  0  0  0  0  0
   -0.3328   -0.6504   -1.1480 H   0  0  0  0  0  0  0  0  0  0  0  0
    1.1339    1.2945   -0.4699 H   0  0  0  0  0  0  0  0  0  0  0  0
   -2.8174    4.0645    1.0047 H   0  0  0  0  0  0  0  0  0  0  0  0
   -3.9296    1.4774    0.0253 H   0  0  0  0  0  0  0  0  0  0  0  0
    7.4216   -9.5183   -4.1287 N   0  0  0  0  0  0  0  0  0  0  0  0
    8.0595  -10.3412   -4.4995 N   0  0  0  0  0  0  0  0  0  0  0  0
   -3.5581    5.0473    1.4766 Cl  0  0  0  0  0  0  0  0  0  0  0  0
   -2.7815   -0.5511   -0.9070 H   0  0  0  0  0  0  0  0  0  0  0  0
  1  6  2  0  0  0  0
  1  2  1  0  0  0  0
  2  3  2  0  0  0  0
  3  4  1  0  0  0  0
  5 10  1  0  0  0  0
  5  4  2  0  0  0  0
  6  5  1  0  0  0  0
  7  1  1  0  0  0  0
  8  2  1  0  0  0  0
  9 13  1  0  0  0  0
 12 11  3  0  0  0  0
 14  6  1  0  0  0  0
M  RAD  2   3   2   4   2
M  END
