Coordinates from ORCA-job Ph-N2-Cl-B3LYPG-6-31G_dp-MTMO-d009-169-n800
 OpenBabel09051908143D

 14 12  0  0  0  0  0  0  0  0999 V2000
   -0.7461    0.1204   -0.7724 C   0  0  0  0  0  0  0  0  0  0  0  0
    0.1253    1.1735   -0.4029 C   0  0  0  0  0  0  0  0  0  0  0  0
   -0.6444    2.2034    0.0744 C   0  0  0  0  0  0  0  0  0  0  0  0
   -1.8788    2.3761    0.2342 C   0  0  0  0  0  0  0  0  0  0  0  0
   -2.7776    1.3594   -0.1180 C   0  0  0  0  0  0  0  0  0  0  0  0
   -2.1426    0.2130   -0.6340 C   0  0  0  0  0  0  0  0  0  0  0  0
   -0.3083   -0.7895   -1.1756 H   0  0  0  0  0  0  0  0  0  0  0  0
    1.2025    1.1225   -0.5016 H   0  0  0  0  0  0  0  0  0  0  0  0
   -2.6846    3.9891    0.9590 H   0  0  0  0  0  0  0  0  0  0  0  0
   -3.8558    1.4247   -0.0120 H   0  0  0  0  0  0  0  0  0  0  0  0
    6.9691   -8.8938   -3.9141 N   0  0  0  0  0  0  0  0  0  0  0  0
    7.6069   -9.7170   -4.2845 N   0  0  0  0  0  0  0  0  0  0  0  0
   -3.4027    4.9909    1.4257 Cl  0  0  0  0  0  0  0  0  0  0  0  0
   -2.7544   -0.6327   -0.9370 H   0  0  0  0  0  0  0  0  0  0  0  0
  1  6  2  0  0  0  0
  1  2  1  0  0  0  0
  2  3  2  0  0  0  0
  3  4  1  0  0  0  0
  5 10  1  0  0  0  0
  5  4  2  0  0  0  0
  6  5  1  0  0  0  0
  7  1  1  0  0  0  0
  8  2  1  0  0  0  0
  9 13  1  0  0  0  0
 12 11  3  0  0  0  0
 14  6  1  0  0  0  0
M  RAD  2   3   2   4   2
M  END
