Coordinates from ORCA-job Ph-N2-Cl-B3LYPG-6-31G_dp-MTMO-d009-169-n800
 OpenBabel09051908143D

 14 12  0  0  0  0  0  0  0  0999 V2000
   -0.6733   -0.6522   -1.0141 C   0  0  0  0  0  0  0  0  0  0  0  0
    0.4131    0.1932   -0.6830 C   0  0  0  0  0  0  0  0  0  0  0  0
   -0.1050    1.3618   -0.1859 C   0  0  0  0  0  0  0  0  0  0  0  0
   -1.2683    1.7919    0.0166 C   0  0  0  0  0  0  0  0  0  0  0  0
   -2.3727    0.9869   -0.2975 C   0  0  0  0  0  0  0  0  0  0  0  0
   -2.0130   -0.2673   -0.8272 C   0  0  0  0  0  0  0  0  0  0  0  0
   -0.4512   -1.6328   -1.4273 H   0  0  0  0  0  0  0  0  0  0  0  0
    1.4509   -0.0833   -0.8198 H   0  0  0  0  0  0  0  0  0  0  0  0
   -1.6911    3.5299    0.7579 H   0  0  0  0  0  0  0  0  0  0  0  0
   -3.4081    1.2788   -0.1547 H   0  0  0  0  0  0  0  0  0  0  0  0
    4.5741   -5.2195   -2.6042 N   0  0  0  0  0  0  0  0  0  0  0  0
    5.2194   -6.0427   -2.9612 N   0  0  0  0  0  0  0  0  0  0  0  0
   -2.1664    4.6598    1.2446 Cl  0  0  0  0  0  0  0  0  0  0  0  0
   -2.7998   -0.9645   -1.1029 H   0  0  0  0  0  0  0  0  0  0  0  0
  1  6  2  0  0  0  0
  1  2  1  0  0  0  0
  2  3  2  0  0  0  0
  3  4  1  0  0  0  0
  5 10  1  0  0  0  0
  5  4  2  0  0  0  0
  6  5  1  0  0  0  0
  7  1  1  0  0  0  0
  8  2  1  0  0  0  0
  9 13  1  0  0  0  0
 12 11  3  0  0  0  0
 14  6  1  0  0  0  0
M  RAD  2   3   2   4   2
M  END
