Coordinates from ORCA-job Ph-N2-Cl-B3LYPG-6-31G_dp-MTMO-d009-169-n800
 OpenBabel09051908143D

 14 12  0  0  0  0  0  0  0  0999 V2000
   -0.7634   -0.9090   -1.0952 C   0  0  0  0  0  0  0  0  0  0  0  0
    0.4194   -0.1940   -0.7874 C   0  0  0  0  0  0  0  0  0  0  0  0
    0.0473    1.0239   -0.2795 C   0  0  0  0  0  0  0  0  0  0  0  0
   -1.0531    1.5866   -0.0510 C   0  0  0  0  0  0  0  0  0  0  0  0
   -2.2482    0.9121   -0.3419 C   0  0  0  0  0  0  0  0  0  0  0  0
   -2.0458   -0.3734   -0.8794 C   0  0  0  0  0  0  0  0  0  0  0  0
   -0.6639   -1.9076   -1.5126 H   0  0  0  0  0  0  0  0  0  0  0  0
    1.4156   -0.5870   -0.9463 H   0  0  0  0  0  0  0  0  0  0  0  0
   -1.2614    3.3571    0.6844 H   0  0  0  0  0  0  0  0  0  0  0  0
   -3.2401    1.3199   -0.1772 H   0  0  0  0  0  0  0  0  0  0  0  0
    3.9743   -4.0167   -2.1827 N   0  0  0  0  0  0  0  0  0  0  0  0
    4.6340   -4.8347   -2.5251 N   0  0  0  0  0  0  0  0  0  0  0  0
   -1.5928    4.5375    1.1731 Cl  0  0  0  0  0  0  0  0  0  0  0  0
   -2.9131   -0.9750   -1.1382 H   0  0  0  0  0  0  0  0  0  0  0  0
  1  6  2  0  0  0  0
  1  2  1  0  0  0  0
  2  3  2  0  0  0  0
  3  4  1  0  0  0  0
  5 10  1  0  0  0  0
  5  4  2  0  0  0  0
  6  5  1  0  0  0  0
  7  1  1  0  0  0  0
  8  2  1  0  0  0  0
  9 13  1  0  0  0  0
 12 11  3  0  0  0  0
 14  6  1  0  0  0  0
M  RAD  2   3   2   4   2
M  END
