Coordinates from ORCA-job Ph-N2-Cl-B3LYPG-6-31G_dp-MTMO-d009-169-n800
 OpenBabel09051908143D

 14 12  0  0  0  0  0  0  0  0999 V2000
   -0.6704   -0.6432   -1.0112 C   0  0  0  0  0  0  0  0  0  0  0  0
    0.4125    0.2064   -0.6793 C   0  0  0  0  0  0  0  0  0  0  0  0
   -0.1104    1.3731   -0.1828 C   0  0  0  0  0  0  0  0  0  0  0  0
   -1.2756    1.7986    0.0188 C   0  0  0  0  0  0  0  0  0  0  0  0
   -2.3767    0.9894   -0.2960 C   0  0  0  0  0  0  0  0  0  0  0  0
   -2.0117   -0.2634   -0.8253 C   0  0  0  0  0  0  0  0  0  0  0  0
   -0.4443   -1.6229   -1.4241 H   0  0  0  0  0  0  0  0  0  0  0  0
    1.4514   -0.0661   -0.8153 H   0  0  0  0  0  0  0  0  0  0  0  0
   -1.7056    3.5352    0.7601 H   0  0  0  0  0  0  0  0  0  0  0  0
   -3.4133    1.2773   -0.1540 H   0  0  0  0  0  0  0  0  0  0  0  0
    4.5945   -5.2603   -2.6186 N   0  0  0  0  0  0  0  0  0  0  0  0
    5.2394   -6.0837   -2.9761 N   0  0  0  0  0  0  0  0  0  0  0  0
   -2.1856    4.6633    1.2465 Cl  0  0  0  0  0  0  0  0  0  0  0  0
   -2.7956   -0.9637   -1.1015 H   0  0  0  0  0  0  0  0  0  0  0  0
  1  6  2  0  0  0  0
  1  2  1  0  0  0  0
  2  3  2  0  0  0  0
  3  4  1  0  0  0  0
  5 10  1  0  0  0  0
  5  4  2  0  0  0  0
  6  5  1  0  0  0  0
  7  1  1  0  0  0  0
  8  2  1  0  0  0  0
  9 13  1  0  0  0  0
 12 11  3  0  0  0  0
 14  6  1  0  0  0  0
M  RAD  2   3   2   4   2
M  END
