Coordinates from ORCA-job Ph-N2-Cl-B3LYPG-6-31G_dp-MTMO-d009-169-n800
 OpenBabel09051908143D

 14 12  0  0  0  0  0  0  0  0999 V2000
   -0.7882   -0.9653   -1.1139 C   0  0  0  0  0  0  0  0  0  0  0  0
    0.4157   -0.2833   -0.8130 C   0  0  0  0  0  0  0  0  0  0  0  0
    0.0798    0.9440   -0.3025 C   0  0  0  0  0  0  0  0  0  0  0  0
   -1.0031    1.5372   -0.0671 C   0  0  0  0  0  0  0  0  0  0  0  0
   -2.2180    0.8956   -0.3513 C   0  0  0  0  0  0  0  0  0  0  0  0
   -2.0542   -0.3947   -0.8904 C   0  0  0  0  0  0  0  0  0  0  0  0
   -0.7188   -1.9660   -1.5321 H   0  0  0  0  0  0  0  0  0  0  0  0
    1.3994   -0.7041   -0.9780 H   0  0  0  0  0  0  0  0  0  0  0  0
   -1.1596    3.3121    0.6664 H   0  0  0  0  0  0  0  0  0  0  0  0
   -3.1972    1.3305   -0.1806 H   0  0  0  0  0  0  0  0  0  0  0  0
    3.8309   -3.7486   -2.0856 N   0  0  0  0  0  0  0  0  0  0  0  0
    4.5171   -4.5473   -2.4214 N   0  0  0  0  0  0  0  0  0  0  0  0
   -1.4562    4.5020    1.1549 Cl  0  0  0  0  0  0  0  0  0  0  0  0
   -2.9392   -0.9721   -1.1442 H   0  0  0  0  0  0  0  0  0  0  0  0
  1  6  2  0  0  0  0
  1  2  1  0  0  0  0
  2  3  2  0  0  0  0
  3  4  1  0  0  0  0
  5 10  1  0  0  0  0
  5  4  2  0  0  0  0
  6  5  1  0  0  0  0
  7  1  1  0  0  0  0
  8  2  1  0  0  0  0
  9 13  1  0  0  0  0
 12 11  3  0  0  0  0
 14  6  1  0  0  0  0
M  RAD  2   3   2   4   2
M  END
