Coordinates from ORCA-job Ph-N2-Cl-B3LYPG-6-31G_dp-MTMO-d009-169-n800
 OpenBabel09051908143D

 14 12  0  0  0  0  0  0  0  0999 V2000
   -0.6482   -0.4876   -0.9533 C   0  0  0  0  0  0  0  0  0  0  0  0
    0.3805    0.4219   -0.6084 C   0  0  0  0  0  0  0  0  0  0  0  0
   -0.2133    1.5590   -0.1230 C   0  0  0  0  0  0  0  0  0  0  0  0
   -1.4036    1.9181    0.0601 C   0  0  0  0  0  0  0  0  0  0  0  0
   -2.4535    1.0485   -0.2677 C   0  0  0  0  0  0  0  0  0  0  0  0
   -2.0111   -0.1832   -0.7879 C   0  0  0  0  0  0  0  0  0  0  0  0
   -0.3616   -1.4542   -1.3599 H   0  0  0  0  0  0  0  0  0  0  0  0
    1.4350    0.2075   -0.7286 H   0  0  0  0  0  0  0  0  0  0  0  0
   -1.9394    3.6329    0.7928 H   0  0  0  0  0  0  0  0  0  0  0  0
   -3.5065    1.2783   -0.1413 H   0  0  0  0  0  0  0  0  0  0  0  0
    5.0122   -5.9938   -2.8860 N   0  0  0  0  0  0  0  0  0  0  0  0
    5.6563   -6.8142   -3.2515 N   0  0  0  0  0  0  0  0  0  0  0  0
   -2.4875    4.7334    1.2690 Cl  0  0  0  0  0  0  0  0  0  0  0  0
   -2.7505   -0.9270   -1.0731 H   0  0  0  0  0  0  0  0  0  0  0  0
  1  6  2  0  0  0  0
  1  2  1  0  0  0  0
  2  3  2  0  0  0  0
  3  4  1  0  0  0  0
  5 10  1  0  0  0  0
  5  4  2  0  0  0  0
  6  5  1  0  0  0  0
  7  1  1  0  0  0  0
  8  2  1  0  0  0  0
  9 13  1  0  0  0  0
 12 11  3  0  0  0  0
 14  6  1  0  0  0  0
M  RAD  2   3   2   4   2
M  END
