Coordinates from ORCA-job Ph-N2-Cl-B3LYPG-6-31G_dp-MTMO-d009-169-n800
 OpenBabel09051908143D

 14 12  0  0  0  0  0  0  0  0999 V2000
   -1.6481   -1.4824   -1.3208 C   0  0  0  0  0  0  0  0  0  0  0  0
   -0.2382   -1.5800   -1.3264 C   0  0  0  0  0  0  0  0  0  0  0  0
    0.2675   -0.4158   -0.8426 C   0  0  0  0  0  0  0  0  0  0  0  0
   -0.1579    0.7258   -0.3906 C   0  0  0  0  0  0  0  0  0  0  0  0
   -1.5764    0.7838   -0.4015 C   0  0  0  0  0  0  0  0  0  0  0  0
   -2.2946   -0.3227   -0.8668 C   0  0  0  0  0  0  0  0  0  0  0  0
   -2.2228   -2.3323   -1.6785 H   0  0  0  0  0  0  0  0  0  0  0  0
    0.3113   -2.4484   -1.6647 H   0  0  0  0  0  0  0  0  0  0  0  0
    0.5103    1.6687    0.0094 H   0  0  0  0  0  0  0  0  0  0  0  0
   -2.0728    1.6836   -0.0489 H   0  0  0  0  0  0  0  0  0  0  0  0
    2.5079   -0.3868   -0.7737 N   0  0  0  0  0  0  0  0  0  0  0  0
    3.2332    0.3793   -0.4334 N   0  0  0  0  0  0  0  0  0  0  0  0
    1.4690    2.9524    0.5578 Cl  0  0  0  0  0  0  0  0  0  0  0  0
   -3.3798   -0.2854   -0.8780 H   0  0  0  0  0  0  0  0  0  0  0  0
  1  6  1  0  0  0  0
  2  1  2  0  0  0  0
  2  3  1  0  0  0  0
  3  4  2  0  0  0  0
  4  9  1  0  0  0  0
  5  4  1  0  0  0  0
  5 10  1  0  0  0  0
  6  5  2  0  0  0  0
  7  1  1  0  0  0  0
  8  2  1  0  0  0  0
 11 12  3  0  0  0  0
 14  6  1  0  0  0  0
M  RAD  2   3   2  13   2
M  END
