Coordinates from ORCA-job Ph-N2-Cl-B3LYPG-6-31G_dp-MTMO-d009-169-n800
 OpenBabel09051908143D

 14 12  0  0  0  0  0  0  0  0999 V2000
   -0.7062   -0.0206   -0.8073 C   0  0  0  0  0  0  0  0  0  0  0  0
    0.1957    1.0076   -0.4410 C   0  0  0  0  0  0  0  0  0  0  0  0
   -0.5434    2.0609    0.0336 C   0  0  0  0  0  0  0  0  0  0  0  0
   -1.7721    2.2702    0.1932 C   0  0  0  0  0  0  0  0  0  0  0  0
   -2.7004    1.2791   -0.1560 C   0  0  0  0  0  0  0  0  0  0  0  0
   -2.0993    0.1132   -0.6689 C   0  0  0  0  0  0  0  0  0  0  0  0
   -0.2951   -0.9437   -1.2084 H   0  0  0  0  0  0  0  0  0  0  0  0
    1.2709    0.9249   -0.5398 H   0  0  0  0  0  0  0  0  0  0  0  0
   -2.5297    3.9088    0.9117 H   0  0  0  0  0  0  0  0  0  0  0  0
   -3.7761    1.3764   -0.0501 H   0  0  0  0  0  0  0  0  0  0  0  0
    6.4899   -8.2161   -3.6798 N   0  0  0  0  0  0  0  0  0  0  0  0
    7.1278   -9.0390   -4.0507 N   0  0  0  0  0  0  0  0  0  0  0  0
   -3.2178    4.9335    1.3743 Cl  0  0  0  0  0  0  0  0  0  0  0  0
   -2.7357   -0.7151   -0.9694 H   0  0  0  0  0  0  0  0  0  0  0  0
  1  6  2  0  0  0  0
  1  2  1  0  0  0  0
  2  3  2  0  0  0  0
  3  4  1  0  0  0  0
  5 10  1  0  0  0  0
  5  4  2  0  0  0  0
  6  5  1  0  0  0  0
  7  1  1  0  0  0  0
  8  2  1  0  0  0  0
  9 13  1  0  0  0  0
 12 11  3  0  0  0  0
 14  6  1  0  0  0  0
M  RAD  2   3   2   4   2
M  END
