Coordinates from ORCA-job Ph-N2-Cl-B3LYPG-6-31G_dp-MTMO-d009-169-n800
 OpenBabel09051908143D

 14 12  0  0  0  0  0  0  0  0999 V2000
   -1.6492   -1.4814   -1.3202 C   0  0  0  0  0  0  0  0  0  0  0  0
   -0.2390   -1.5796   -1.3267 C   0  0  0  0  0  0  0  0  0  0  0  0
    0.2646   -0.4145   -0.8429 C   0  0  0  0  0  0  0  0  0  0  0  0
   -0.1594    0.7253   -0.3916 C   0  0  0  0  0  0  0  0  0  0  0  0
   -1.5780    0.7855   -0.4009 C   0  0  0  0  0  0  0  0  0  0  0  0
   -2.2957   -0.3216   -0.8660 C   0  0  0  0  0  0  0  0  0  0  0  0
   -2.2243   -2.3312   -1.6776 H   0  0  0  0  0  0  0  0  0  0  0  0
    0.3103   -2.4480   -1.6652 H   0  0  0  0  0  0  0  0  0  0  0  0
    0.5106    1.6799    0.0130 H   0  0  0  0  0  0  0  0  0  0  0  0
   -2.0743    1.6853   -0.0482 H   0  0  0  0  0  0  0  0  0  0  0  0
    2.5252   -0.3955   -0.7776 N   0  0  0  0  0  0  0  0  0  0  0  0
    3.2619    0.3595   -0.4384 N   0  0  0  0  0  0  0  0  0  0  0  0
    1.4369    2.9608    0.5605 Cl  0  0  0  0  0  0  0  0  0  0  0  0
   -3.3810   -0.2846   -0.8768 H   0  0  0  0  0  0  0  0  0  0  0  0
  1  6  1  0  0  0  0
  2  1  2  0  0  0  0
  2  3  1  0  0  0  0
  3  4  2  0  0  0  0
  4  9  1  0  0  0  0
  5  4  1  0  0  0  0
  5 10  1  0  0  0  0
  6  5  2  0  0  0  0
  7  1  1  0  0  0  0
  8  2  1  0  0  0  0
 11 12  3  0  0  0  0
 14  6  1  0  0  0  0
M  RAD  2   3   2  13   2
M  END
