Coordinates from ORCA-job Ph-N2-Cl-B3LYPG-6-31G_dp-MTMO-d009-169-n800
 OpenBabel09051908143D

 14 12  0  0  0  0  0  0  0  0999 V2000
   -0.6538   -0.4644   -0.9461 C   0  0  0  0  0  0  0  0  0  0  0  0
    0.3699    0.4505   -0.6003 C   0  0  0  0  0  0  0  0  0  0  0  0
   -0.2307    1.5841   -0.1151 C   0  0  0  0  0  0  0  0  0  0  0  0
   -1.4228    1.9374    0.0675 C   0  0  0  0  0  0  0  0  0  0  0  0
   -2.4676    1.0618   -0.2614 C   0  0  0  0  0  0  0  0  0  0  0  0
   -2.0184   -0.1673   -0.7816 C   0  0  0  0  0  0  0  0  0  0  0  0
   -0.3617   -1.4293   -1.3528 H   0  0  0  0  0  0  0  0  0  0  0  0
    1.4256    0.2417   -0.7198 H   0  0  0  0  0  0  0  0  0  0  0  0
   -1.9679    3.6486    0.7995 H   0  0  0  0  0  0  0  0  0  0  0  0
   -3.5220    1.2859   -0.1358 H   0  0  0  0  0  0  0  0  0  0  0  0
    5.0929   -6.1116   -2.9274 N   0  0  0  0  0  0  0  0  0  0  0  0
    5.7406   -6.9291   -3.2933 N   0  0  0  0  0  0  0  0  0  0  0  0
   -2.5217    4.7465    1.2754 Cl  0  0  0  0  0  0  0  0  0  0  0  0
   -2.7537   -0.9149   -1.0675 H   0  0  0  0  0  0  0  0  0  0  0  0
  1  6  2  0  0  0  0
  1  2  1  0  0  0  0
  2  3  2  0  0  0  0
  3  4  1  0  0  0  0
  5 10  1  0  0  0  0
  5  4  2  0  0  0  0
  6  5  1  0  0  0  0
  7  1  1  0  0  0  0
  8  2  1  0  0  0  0
  9 13  1  0  0  0  0
 12 11  3  0  0  0  0
 14  6  1  0  0  0  0
M  RAD  2   3   2   4   2
M  END
