Coordinates from ORCA-job Ph-N2-Cl-B3LYPG-6-31G_dp-MTMO-d009-169-n800
 OpenBabel09051908143D

 14 12  0  0  0  0  0  0  0  0999 V2000
   -0.6749   -0.1653   -0.8476 C   0  0  0  0  0  0  0  0  0  0  0  0
    0.2618    0.8329   -0.4857 C   0  0  0  0  0  0  0  0  0  0  0  0
   -0.4404    1.9111   -0.0109 C   0  0  0  0  0  0  0  0  0  0  0  0
   -1.6611    2.1614    0.1516 C   0  0  0  0  0  0  0  0  0  0  0  0
   -2.6228    1.2012   -0.1932 C   0  0  0  0  0  0  0  0  0  0  0  0
   -2.0623    0.0150   -0.7056 C   0  0  0  0  0  0  0  0  0  0  0  0
   -0.2957   -1.1021   -1.2483 H   0  0  0  0  0  0  0  0  0  0  0  0
    1.3333    0.7143   -0.5874 H   0  0  0  0  0  0  0  0  0  0  0  0
   -2.3606    3.8260    0.8691 H   0  0  0  0  0  0  0  0  0  0  0  0
   -3.6944    1.3346   -0.0847 H   0  0  0  0  0  0  0  0  0  0  0  0
    6.0138   -7.5242   -3.4363 N   0  0  0  0  0  0  0  0  0  0  0  0
    6.6507   -8.3473   -3.8084 N   0  0  0  0  0  0  0  0  0  0  0  0
   -3.0120    4.8746    1.3314 Cl  0  0  0  0  0  0  0  0  0  0  0  0
   -2.7268   -0.7922   -1.0028 H   0  0  0  0  0  0  0  0  0  0  0  0
  1  6  2  0  0  0  0
  1  2  1  0  0  0  0
  2  3  2  0  0  0  0
  3  4  1  0  0  0  0
  5 10  1  0  0  0  0
  5  4  2  0  0  0  0
  6  5  1  0  0  0  0
  7  1  1  0  0  0  0
  8  2  1  0  0  0  0
  9 13  1  0  0  0  0
 12 11  3  0  0  0  0
 14  6  1  0  0  0  0
M  RAD  2   3   2   4   2
M  END
