Coordinates from ORCA-job Ph-N2-Cl-B3LYPG-6-31G_dp-MTMO-d009-169-n800
 OpenBabel09051908143D

 14 12  0  0  0  0  0  0  0  0999 V2000
   -0.6619   -0.2871   -0.8875 C   0  0  0  0  0  0  0  0  0  0  0  0
    0.3090    0.6799   -0.5313 C   0  0  0  0  0  0  0  0  0  0  0  0
   -0.3546    1.7805   -0.0522 C   0  0  0  0  0  0  0  0  0  0  0  0
   -1.5655    2.0705    0.1177 C   0  0  0  0  0  0  0  0  0  0  0  0
   -2.5600    1.1422   -0.2215 C   0  0  0  0  0  0  0  0  0  0  0  0
   -2.0418   -0.0617   -0.7371 C   0  0  0  0  0  0  0  0  0  0  0  0
   -0.3157   -1.2355   -1.2906 H   0  0  0  0  0  0  0  0  0  0  0  0
    1.3755    0.5265   -0.6395 H   0  0  0  0  0  0  0  0  0  0  0  0
   -2.2052    3.7558    0.8409 H   0  0  0  0  0  0  0  0  0  0  0  0
   -3.6260    1.3106   -0.1066 H   0  0  0  0  0  0  0  0  0  0  0  0
    5.6353   -6.9486   -3.2283 N   0  0  0  0  0  0  0  0  0  0  0  0
    6.2724   -7.7714   -3.6006 N   0  0  0  0  0  0  0  0  0  0  0  0
   -2.8188    4.8249    1.3080 Cl  0  0  0  0  0  0  0  0  0  0  0  0
   -2.7340   -0.8466   -1.0303 H   0  0  0  0  0  0  0  0  0  0  0  0
  1  6  2  0  0  0  0
  1  2  1  0  0  0  0
  2  3  2  0  0  0  0
  3  4  1  0  0  0  0
  5 10  1  0  0  0  0
  5  4  2  0  0  0  0
  6  5  1  0  0  0  0
  7  1  1  0  0  0  0
  8  2  1  0  0  0  0
  9 13  1  0  0  0  0
 12 11  3  0  0  0  0
 14  6  1  0  0  0  0
M  RAD  2   3   2   4   2
M  END
