Coordinates from ORCA-job Ph-N2-Cl-B3LYPG-6-31G_dp-MTMO-d009-169-n800
 OpenBabel09051908143D

 14 12  0  0  0  0  0  0  0  0999 V2000
   -0.7372   -0.8388   -1.0708 C   0  0  0  0  0  0  0  0  0  0  0  0
    0.4196   -0.0860   -0.7548 C   0  0  0  0  0  0  0  0  0  0  0  0
    0.0053    1.1201   -0.2510 C   0  0  0  0  0  0  0  0  0  0  0  0
   -1.1146    1.6466   -0.0315 C   0  0  0  0  0  0  0  0  0  0  0  0
   -2.2854    0.9343   -0.3304 C   0  0  0  0  0  0  0  0  0  0  0  0
   -2.0378   -0.3445   -0.8651 C   0  0  0  0  0  0  0  0  0  0  0  0
   -0.6027   -1.8339   -1.4866 H   0  0  0  0  0  0  0  0  0  0  0  0
    1.4291   -0.4469   -0.9056 H   0  0  0  0  0  0  0  0  0  0  0  0
   -1.3838    3.4105    0.7050 H   0  0  0  0  0  0  0  0  0  0  0  0
   -3.2910    1.3102   -0.1733 H   0  0  0  0  0  0  0  0  0  0  0  0
    4.1478   -4.3573   -2.3045 N   0  0  0  0  0  0  0  0  0  0  0  0
    4.7989   -5.1792   -2.6537 N   0  0  0  0  0  0  0  0  0  0  0  0
   -1.7563    4.5786    1.1930 Cl  0  0  0  0  0  0  0  0  0  0  0  0
   -2.8834   -0.9739   -1.1296 H   0  0  0  0  0  0  0  0  0  0  0  0
  1  6  2  0  0  0  0
  1  2  1  0  0  0  0
  2  3  2  0  0  0  0
  3  4  1  0  0  0  0
  5 10  1  0  0  0  0
  5  4  2  0  0  0  0
  6  5  1  0  0  0  0
  7  1  1  0  0  0  0
  8  2  1  0  0  0  0
  9 13  1  0  0  0  0
 12 11  3  0  0  0  0
 14  6  1  0  0  0  0
M  RAD  2   3   2   4   2
M  END
