Coordinates from ORCA-job Ph-N2-Cl-B3LYPG-6-31G_dp-MTMO-d009-169-n800
 OpenBabel09051908143D

 14 12  0  0  0  0  0  0  0  0999 V2000
   -0.7358    0.0851   -0.7812 C   0  0  0  0  0  0  0  0  0  0  0  0
    0.1432    1.1322   -0.4124 C   0  0  0  0  0  0  0  0  0  0  0  0
   -0.6194    2.1678    0.0642 C   0  0  0  0  0  0  0  0  0  0  0  0
   -1.8524    2.3499    0.2242 C   0  0  0  0  0  0  0  0  0  0  0  0
   -2.7582    1.3391   -0.1275 C   0  0  0  0  0  0  0  0  0  0  0  0
   -2.1315    0.1879   -0.6428 C   0  0  0  0  0  0  0  0  0  0  0  0
   -0.3045   -0.8280   -1.1839 H   0  0  0  0  0  0  0  0  0  0  0  0
    1.2200    1.0740   -0.5110 H   0  0  0  0  0  0  0  0  0  0  0  0
   -2.6461    3.9690    0.9472 H   0  0  0  0  0  0  0  0  0  0  0  0
   -3.8360    1.4120   -0.0217 H   0  0  0  0  0  0  0  0  0  0  0  0
    6.8488   -8.7245   -3.8556 N   0  0  0  0  0  0  0  0  0  0  0  0
    7.4868   -9.5475   -4.2260 N   0  0  0  0  0  0  0  0  0  0  0  0
   -3.3569    4.9767    1.4129 Cl  0  0  0  0  0  0  0  0  0  0  0  0
   -2.7494   -0.6536   -0.9452 H   0  0  0  0  0  0  0  0  0  0  0  0
  1  6  2  0  0  0  0
  1  2  1  0  0  0  0
  2  3  2  0  0  0  0
  3  4  1  0  0  0  0
  5 10  1  0  0  0  0
  5  4  2  0  0  0  0
  6  5  1  0  0  0  0
  7  1  1  0  0  0  0
  8  2  1  0  0  0  0
  9 13  1  0  0  0  0
 12 11  3  0  0  0  0
 14  6  1  0  0  0  0
M  RAD  2   3   2   4   2
M  END
