Coordinates from ORCA-job Ph-N2-Cl-B3LYPG-6-31G_dp-MTMO-d009-169-n800
 OpenBabel09051908143D

 14 13  0  0  0  0  0  0  0  0999 V2000
   -1.5657   -1.4916   -1.3196 C   0  0  0  0  0  0  0  0  0  0  0  0
   -0.1690   -1.4363   -1.2643 C   0  0  0  0  0  0  0  0  0  0  0  0
    0.3581   -0.2599   -0.7779 C   0  0  0  0  0  0  0  0  0  0  0  0
   -0.3150    0.8577   -0.3446 C   0  0  0  0  0  0  0  0  0  0  0  0
   -1.7121    0.7623   -0.4164 C   0  0  0  0  0  0  0  0  0  0  0  0
   -2.3269   -0.3970   -0.8976 C   0  0  0  0  0  0  0  0  0  0  0  0
   -2.0506   -2.3884   -1.6921 H   0  0  0  0  0  0  0  0  0  0  0  0
    0.4639   -2.2566   -1.5796 H   0  0  0  0  0  0  0  0  0  0  0  0
    0.2151    1.7312    0.0205 H   0  0  0  0  0  0  0  0  0  0  0  0
   -2.3123    1.6063   -0.0909 H   0  0  0  0  0  0  0  0  0  0  0  0
    2.1187   -0.2698   -0.7416 N   0  0  0  0  0  0  0  0  0  0  0  0
    2.9482    0.4621   -0.4179 N   0  0  0  0  0  0  0  0  0  0  0  0
    2.4668    2.4684    0.4080 Cl  0  0  0  0  0  0  0  0  0  0  0  0
   -3.4105   -0.4484   -0.9448 H   0  0  0  0  0  0  0  0  0  0  0  0
  1  2  2  0  0  0  0
  1  6  1  0  0  0  0
  2  3  1  0  0  0  0
  3 11  1  0  0  0  0
  3  4  2  0  0  0  0
  4  9  1  0  0  0  0
  5  4  1  0  0  0  0
  5 10  1  0  0  0  0
  6  5  2  0  0  0  0
  7  1  1  0  0  0  0
  8  2  1  0  0  0  0
 11 12  2  0  0  0  0
 14  6  1  0  0  0  0
M  RAD  2  12   2  13   2
M  END
