Coordinates from ORCA-job Ph-N2-Cl-B3LYPG-6-31G_dp-MTMO-d009-169-n800
 OpenBabel09051908143D

 14 12  0  0  0  0  0  0  0  0999 V2000
   -0.7363   -0.8360   -1.0698 C   0  0  0  0  0  0  0  0  0  0  0  0
    0.4195   -0.0817   -0.7535 C   0  0  0  0  0  0  0  0  0  0  0  0
    0.0036    1.1238   -0.2499 C   0  0  0  0  0  0  0  0  0  0  0  0
   -1.1170    1.6489   -0.0307 C   0  0  0  0  0  0  0  0  0  0  0  0
   -2.2869    0.9353   -0.3299 C   0  0  0  0  0  0  0  0  0  0  0  0
   -2.0376   -0.3433   -0.8645 C   0  0  0  0  0  0  0  0  0  0  0  0
   -0.6004   -1.8309   -1.4855 H   0  0  0  0  0  0  0  0  0  0  0  0
    1.4295   -0.4414   -0.9040 H   0  0  0  0  0  0  0  0  0  0  0  0
   -1.3886    3.4126    0.7058 H   0  0  0  0  0  0  0  0  0  0  0  0
   -3.2930    1.3099   -0.1731 H   0  0  0  0  0  0  0  0  0  0  0  0
    4.1548   -4.3709   -2.3093 N   0  0  0  0  0  0  0  0  0  0  0  0
    4.8058   -5.1928   -2.6589 N   0  0  0  0  0  0  0  0  0  0  0  0
   -1.7626    4.5802    1.1937 Cl  0  0  0  0  0  0  0  0  0  0  0  0
   -2.8823   -0.9738   -1.1292 H   0  0  0  0  0  0  0  0  0  0  0  0
  1  6  2  0  0  0  0
  1  2  1  0  0  0  0
  2  3  2  0  0  0  0
  3  4  1  0  0  0  0
  5 10  1  0  0  0  0
  5  4  2  0  0  0  0
  6  5  1  0  0  0  0
  7  1  1  0  0  0  0
  8  2  1  0  0  0  0
  9 13  1  0  0  0  0
 12 11  3  0  0  0  0
 14  6  1  0  0  0  0
M  RAD  2   3   2   4   2
M  END
