Coordinates from ORCA-job Ph-N2-Cl-B3LYPG-6-31G_dp-MTMO-d009-169-n800
 OpenBabel09051908143D

 14 12  0  0  0  0  0  0  0  0999 V2000
   -1.0164   -1.1830   -1.1961 C   0  0  0  0  0  0  0  0  0  0  0  0
    0.2888   -0.6897   -0.9518 C   0  0  0  0  0  0  0  0  0  0  0  0
    0.1582    0.5702   -0.4286 C   0  0  0  0  0  0  0  0  0  0  0  0
   -0.8092    1.3210   -0.1433 C   0  0  0  0  0  0  0  0  0  0  0  0
   -2.1173    0.8652   -0.3717 C   0  0  0  0  0  0  0  0  0  0  0  0
   -2.1719   -0.4321   -0.9158 C   0  0  0  0  0  0  0  0  0  0  0  0
   -1.1154   -2.1807   -1.6157 H   0  0  0  0  0  0  0  0  0  0  0  0
    1.1914   -1.2501   -1.1596 H   0  0  0  0  0  0  0  0  0  0  0  0
   -0.6656    3.0909    0.5834 H   0  0  0  0  0  0  0  0  0  0  0  0
   -3.0125    1.4396   -0.1576 H   0  0  0  0  0  0  0  0  0  0  0  0
    3.4709   -2.7521   -1.7157 N   0  0  0  0  0  0  0  0  0  0  0  0
    4.4037   -3.3010   -1.9381 N   0  0  0  0  0  0  0  0  0  0  0  0
   -0.7525    4.3119    1.0803 Cl  0  0  0  0  0  0  0  0  0  0  0  0
   -3.1435   -0.8701   -1.1285 H   0  0  0  0  0  0  0  0  0  0  0  0
  1  2  2  0  0  0  0
  1  6  1  0  0  0  0
  2  3  1  0  0  0  0
  3  4  2  0  0  0  0
  5 10  1  0  0  0  0
  5  4  1  0  0  0  0
  6  5  2  0  0  0  0
  7  1  1  0  0  0  0
  8  2  1  0  0  0  0
  9 13  1  0  0  0  0
 12 11  3  0  0  0  0
 14  6  1  0  0  0  0
M  RAD  2   3   2   4   2
M  END
