Coordinates from ORCA-job Ph-N2-Cl-B3LYPG-6-31G_dp-MTMO-d009-169-n800
 OpenBabel09051908143D

 14 12  0  0  0  0  0  0  0  0999 V2000
   -0.7990    0.2661   -0.7379 C   0  0  0  0  0  0  0  0  0  0  0  0
    0.0452    1.3403   -0.3658 C   0  0  0  0  0  0  0  0  0  0  0  0
   -0.7508    2.3479    0.1161 C   0  0  0  0  0  0  0  0  0  0  0  0
   -1.9890    2.4884    0.2784 C   0  0  0  0  0  0  0  0  0  0  0  0
   -2.8611    1.4495   -0.0765 C   0  0  0  0  0  0  0  0  0  0  0  0
   -2.1971    0.3219   -0.5974 C   0  0  0  0  0  0  0  0  0  0  0  0
   -0.3382   -0.6307   -1.1447 H   0  0  0  0  0  0  0  0  0  0  0  0
    1.1233    1.3184   -0.4658 H   0  0  0  0  0  0  0  0  0  0  0  0
   -2.8350    4.0758    1.0119 H   0  0  0  0  0  0  0  0  0  0  0  0
   -3.9405    1.4859    0.0310 H   0  0  0  0  0  0  0  0  0  0  0  0
    7.4890   -9.6094   -4.1597 N   0  0  0  0  0  0  0  0  0  0  0  0
    8.1271  -10.4321   -4.5306 N   0  0  0  0  0  0  0  0  0  0  0  0
   -3.5782    5.0563    1.4850 Cl  0  0  0  0  0  0  0  0  0  0  0  0
   -2.7871   -0.5384   -0.9028 H   0  0  0  0  0  0  0  0  0  0  0  0
  1  6  2  0  0  0  0
  1  2  1  0  0  0  0
  2  3  2  0  0  0  0
  3  4  1  0  0  0  0
  5 10  1  0  0  0  0
  5  4  2  0  0  0  0
  6  5  1  0  0  0  0
  7  1  1  0  0  0  0
  8  2  1  0  0  0  0
  9 13  1  0  0  0  0
 12 11  3  0  0  0  0
 14  6  1  0  0  0  0
M  RAD  2   3   2   4   2
M  END
