Coordinates from ORCA-job Ph-N2-Cl-B3LYPG-6-31G_dp-MTMO-d009-169-n800
 OpenBabel09051908143D

 14 12  0  0  0  0  0  0  0  0999 V2000
   -0.7237   -0.7915   -1.0538 C   0  0  0  0  0  0  0  0  0  0  0  0
    0.4164   -0.0156   -0.7328 C   0  0  0  0  0  0  0  0  0  0  0  0
   -0.0241    1.1825   -0.2319 C   0  0  0  0  0  0  0  0  0  0  0  0
   -1.1556    1.6862   -0.0185 C   0  0  0  0  0  0  0  0  0  0  0  0
   -2.3106    0.9508   -0.3225 C   0  0  0  0  0  0  0  0  0  0  0  0
   -2.0349   -0.3233   -0.8549 C   0  0  0  0  0  0  0  0  0  0  0  0
   -0.5672   -1.7841   -1.4682 H   0  0  0  0  0  0  0  0  0  0  0  0
    1.4335   -0.3564   -0.8783 H   0  0  0  0  0  0  0  0  0  0  0  0
   -1.4631    3.4452    0.7182 H   0  0  0  0  0  0  0  0  0  0  0  0
   -3.3243    1.3066   -0.1706 H   0  0  0  0  0  0  0  0  0  0  0  0
    4.2703   -4.5873   -2.3865 N   0  0  0  0  0  0  0  0  0  0  0  0
    4.9195   -5.4086   -2.7409 N   0  0  0  0  0  0  0  0  0  0  0  0
   -1.8612    4.6051    1.2051 Cl  0  0  0  0  0  0  0  0  0  0  0  0
   -2.8664   -0.9697   -1.1231 H   0  0  0  0  0  0  0  0  0  0  0  0
  1  6  2  0  0  0  0
  1  2  1  0  0  0  0
  2  3  2  0  0  0  0
  3  4  1  0  0  0  0
  5 10  1  0  0  0  0
  5  4  2  0  0  0  0
  6  5  1  0  0  0  0
  7  1  1  0  0  0  0
  8  2  1  0  0  0  0
  9 13  1  0  0  0  0
 12 11  3  0  0  0  0
 14  6  1  0  0  0  0
M  RAD  2   3   2   4   2
M  END
