Coordinates from ORCA-job Ph-N2-Cl-B3LYPG-6-31G_dp-MTMO-d009-169-n800
 OpenBabel09051908143D

 14 12  0  0  0  0  0  0  0  0999 V2000
   -0.8151    0.3052   -0.7284 C   0  0  0  0  0  0  0  0  0  0  0  0
    0.0226    1.3842   -0.3557 C   0  0  0  0  0  0  0  0  0  0  0  0
   -0.7792    2.3865    0.1275 C   0  0  0  0  0  0  0  0  0  0  0  0
   -2.0182    2.5187    0.2903 C   0  0  0  0  0  0  0  0  0  0  0  0
   -2.8843    1.4750   -0.0650 C   0  0  0  0  0  0  0  0  0  0  0  0
   -2.2135    0.3521   -0.5873 C   0  0  0  0  0  0  0  0  0  0  0  0
   -0.3490   -0.5884   -1.1363 H   0  0  0  0  0  0  0  0  0  0  0  0
    1.1007    1.3686   -0.4565 H   0  0  0  0  0  0  0  0  0  0  0  0
   -2.8742    4.1002    1.0264 H   0  0  0  0  0  0  0  0  0  0  0  0
   -3.9638    1.5050    0.0432 H   0  0  0  0  0  0  0  0  0  0  0  0
    7.6330   -9.8042   -4.2267 N   0  0  0  0  0  0  0  0  0  0  0  0
    8.2712  -10.6267   -4.5980 N   0  0  0  0  0  0  0  0  0  0  0  0
   -3.6233    5.0753    1.5011 Cl  0  0  0  0  0  0  0  0  0  0  0  0
   -2.7983   -0.5116   -0.8932 H   0  0  0  0  0  0  0  0  0  0  0  0
  1  6  2  0  0  0  0
  1  2  1  0  0  0  0
  2  3  2  0  0  0  0
  3  4  1  0  0  0  0
  5 10  1  0  0  0  0
  5  4  2  0  0  0  0
  6  5  1  0  0  0  0
  7  1  1  0  0  0  0
  8  2  1  0  0  0  0
  9 13  1  0  0  0  0
 12 11  3  0  0  0  0
 14  6  1  0  0  0  0
M  RAD  2   3   2   4   2
M  END
