Coordinates from ORCA-job Ph-N2-Cl-B3LYPG-6-31G_dp-MTMO-d009-169-n800
 OpenBabel09051908143D

 14 12  0  0  0  0  0  0  0  0999 V2000
   -0.8387    0.3564   -0.7168 C   0  0  0  0  0  0  0  0  0  0  0  0
   -0.0085    1.4409   -0.3432 C   0  0  0  0  0  0  0  0  0  0  0  0
   -0.8170    2.4366    0.1423 C   0  0  0  0  0  0  0  0  0  0  0  0
   -2.0568    2.5596    0.3066 C   0  0  0  0  0  0  0  0  0  0  0  0
   -2.9157    1.5102   -0.0494 C   0  0  0  0  0  0  0  0  0  0  0  0
   -2.2374    0.3930   -0.5742 C   0  0  0  0  0  0  0  0  0  0  0  0
   -0.3666   -0.5332   -1.1264 H   0  0  0  0  0  0  0  0  0  0  0  0
    1.0696    1.4333   -0.4451 H   0  0  0  0  0  0  0  0  0  0  0  0
   -2.9234    4.1333    1.0467 H   0  0  0  0  0  0  0  0  0  0  0  0
   -3.9953    1.5322    0.0599 H   0  0  0  0  0  0  0  0  0  0  0  0
    7.8276  -10.0639   -4.3154 N   0  0  0  0  0  0  0  0  0  0  0  0
    8.4661  -10.8859   -4.6874 N   0  0  0  0  0  0  0  0  0  0  0  0
   -3.6790    5.1020    1.5242 Cl  0  0  0  0  0  0  0  0  0  0  0  0
   -2.8162   -0.4745   -0.8808 H   0  0  0  0  0  0  0  0  0  0  0  0
  1  6  2  0  0  0  0
  1  2  1  0  0  0  0
  2  3  2  0  0  0  0
  3  4  1  0  0  0  0
  5 10  1  0  0  0  0
  5  4  2  0  0  0  0
  6  5  1  0  0  0  0
  7  1  1  0  0  0  0
  8  2  1  0  0  0  0
  9 13  1  0  0  0  0
 12 11  3  0  0  0  0
 14  6  1  0  0  0  0
M  RAD  2   3   2   4   2
M  END
