Coordinates from ORCA-job Ph-N2-Cl-B3LYPG-6-31G_dp-MTMO-d009-169-n800
 OpenBabel09051908143D

 14 12  0  0  0  0  0  0  0  0999 V2000
   -0.7601    0.1633   -0.7620 C   0  0  0  0  0  0  0  0  0  0  0  0
    0.1026    1.2232   -0.3917 C   0  0  0  0  0  0  0  0  0  0  0  0
   -0.6754    2.2463    0.0867 C   0  0  0  0  0  0  0  0  0  0  0  0
   -1.9112    2.4087    0.2469 C   0  0  0  0  0  0  0  0  0  0  0  0
   -2.8016    1.3849   -0.1061 C   0  0  0  0  0  0  0  0  0  0  0  0
   -2.1573    0.2443   -0.6233 C   0  0  0  0  0  0  0  0  0  0  0  0
   -0.3149   -0.7426   -1.1662 H   0  0  0  0  0  0  0  0  0  0  0  0
    1.1802    1.1813   -0.4907 H   0  0  0  0  0  0  0  0  0  0  0  0
   -2.7301    4.0139    0.9741 H   0  0  0  0  0  0  0  0  0  0  0  0
   -3.8803    1.4412    0.0002 H   0  0  0  0  0  0  0  0  0  0  0  0
    7.1187   -9.1021   -3.9858 N   0  0  0  0  0  0  0  0  0  0  0  0
    7.7565   -9.9253   -4.3562 N   0  0  0  0  0  0  0  0  0  0  0  0
   -3.4564    5.0091    1.4424 Cl  0  0  0  0  0  0  0  0  0  0  0  0
   -2.7622   -0.6062   -0.9271 H   0  0  0  0  0  0  0  0  0  0  0  0
  1  6  2  0  0  0  0
  1  2  1  0  0  0  0
  2  3  2  0  0  0  0
  3  4  1  0  0  0  0
  5 10  1  0  0  0  0
  5  4  2  0  0  0  0
  6  5  1  0  0  0  0
  7  1  1  0  0  0  0
  8  2  1  0  0  0  0
  9 13  1  0  0  0  0
 12 11  3  0  0  0  0
 14  6  1  0  0  0  0
M  RAD  2   3   2   4   2
M  END
