Coordinates from ORCA-job Ph-N2-Cl-B3LYPG-6-31G_dp-MTMO-d009-169-n800
 OpenBabel09051908143D

 14 12  0  0  0  0  0  0  0  0999 V2000
   -1.0253   -1.1891   -1.1985 C   0  0  0  0  0  0  0  0  0  0  0  0
    0.2832   -0.7033   -0.9568 C   0  0  0  0  0  0  0  0  0  0  0  0
    0.1610    0.5572   -0.4333 C   0  0  0  0  0  0  0  0  0  0  0  0
   -0.8015    1.3136   -0.1460 C   0  0  0  0  0  0  0  0  0  0  0  0
   -2.1127    0.8654   -0.3718 C   0  0  0  0  0  0  0  0  0  0  0  0
   -2.1759   -0.4315   -0.9159 C   0  0  0  0  0  0  0  0  0  0  0  0
   -1.1309   -2.1861   -1.6181 H   0  0  0  0  0  0  0  0  0  0  0  0
    1.1821   -1.2687   -1.1666 H   0  0  0  0  0  0  0  0  0  0  0  0
   -0.6469    3.0824    0.5803 H   0  0  0  0  0  0  0  0  0  0  0  0
   -3.0041    1.4449   -0.1559 H   0  0  0  0  0  0  0  0  0  0  0  0
    3.4519   -2.7328   -1.7084 N   0  0  0  0  0  0  0  0  0  0  0  0
    4.4043   -3.2521   -1.9187 N   0  0  0  0  0  0  0  0  0  0  0  0
   -0.7263    4.3039    1.0775 Cl  0  0  0  0  0  0  0  0  0  0  0  0
   -3.1504   -0.8639   -1.1267 H   0  0  0  0  0  0  0  0  0  0  0  0
  1  2  2  0  0  0  0
  1  6  1  0  0  0  0
  2  3  1  0  0  0  0
  3  4  2  0  0  0  0
  5 10  1  0  0  0  0
  5  4  1  0  0  0  0
  6  5  2  0  0  0  0
  7  1  1  0  0  0  0
  8  2  1  0  0  0  0
  9 13  1  0  0  0  0
 12 11  3  0  0  0  0
 14  6  1  0  0  0  0
M  RAD  2   3   2   4   2
M  END
