Coordinates from ORCA-job Ph-N2-Cl-B3LYPG-6-31G_dp-MTMO-d009-169-n800
 OpenBabel09051908143D

 14 12  0  0  0  0  0  0  0  0999 V2000
   -0.7746    0.2030   -0.7528 C   0  0  0  0  0  0  0  0  0  0  0  0
    0.0808    1.2687   -0.3818 C   0  0  0  0  0  0  0  0  0  0  0  0
   -0.7047    2.2855    0.0980 C   0  0  0  0  0  0  0  0  0  0  0  0
   -1.9414    2.4395    0.2591 C   0  0  0  0  0  0  0  0  0  0  0  0
   -2.8244    1.4094   -0.0947 C   0  0  0  0  0  0  0  0  0  0  0  0
   -2.1722    0.2740   -0.6134 C   0  0  0  0  0  0  0  0  0  0  0  0
   -0.3231   -0.6992   -1.1580 H   0  0  0  0  0  0  0  0  0  0  0  0
    1.1587    1.2351   -0.4810 H   0  0  0  0  0  0  0  0  0  0  0  0
   -2.7710    4.0375    0.9887 H   0  0  0  0  0  0  0  0  0  0  0  0
   -3.9034    1.4576    0.0120 H   0  0  0  0  0  0  0  0  0  0  0  0
    7.2605   -9.2973   -4.0526 N   0  0  0  0  0  0  0  0  0  0  0  0
    7.8984  -10.1203   -4.4232 N   0  0  0  0  0  0  0  0  0  0  0  0
   -3.5040    5.0269    1.4589 Cl  0  0  0  0  0  0  0  0  0  0  0  0
   -2.7711   -0.5804   -0.9178 H   0  0  0  0  0  0  0  0  0  0  0  0
  1  6  2  0  0  0  0
  1  2  1  0  0  0  0
  2  3  2  0  0  0  0
  3  4  1  0  0  0  0
  5 10  1  0  0  0  0
  5  4  2  0  0  0  0
  6  5  1  0  0  0  0
  7  1  1  0  0  0  0
  8  2  1  0  0  0  0
  9 13  1  0  0  0  0
 12 11  3  0  0  0  0
 14  6  1  0  0  0  0
M  RAD  2   3   2   4   2
M  END
