Coordinates from ORCA-job Ph-N2-Cl-B3LYPG-6-31G_dp-MTMO-d009-169-n800
 OpenBabel09051908143D

 14 12  0  0  0  0  0  0  0  0999 V2000
   -0.7651    0.1765   -0.7592 C   0  0  0  0  0  0  0  0  0  0  0  0
    0.0953    1.2382   -0.3886 C   0  0  0  0  0  0  0  0  0  0  0  0
   -0.6853    2.2591    0.0903 C   0  0  0  0  0  0  0  0  0  0  0  0
   -1.9213    2.4191    0.2511 C   0  0  0  0  0  0  0  0  0  0  0  0
   -2.8092    1.3931   -0.1022 C   0  0  0  0  0  0  0  0  0  0  0  0
   -2.1624    0.2542   -0.6201 C   0  0  0  0  0  0  0  0  0  0  0  0
   -0.3179   -0.7282   -1.1637 H   0  0  0  0  0  0  0  0  0  0  0  0
    1.1730    1.1993   -0.4876 H   0  0  0  0  0  0  0  0  0  0  0  0
   -2.7434    4.0218    0.9791 H   0  0  0  0  0  0  0  0  0  0  0  0
   -3.8881    1.4466    0.0042 H   0  0  0  0  0  0  0  0  0  0  0  0
    7.1661   -9.1672   -4.0079 N   0  0  0  0  0  0  0  0  0  0  0  0
    7.8041   -9.9903   -4.3784 N   0  0  0  0  0  0  0  0  0  0  0  0
   -3.4718    5.0152    1.4482 Cl  0  0  0  0  0  0  0  0  0  0  0  0
   -2.7654   -0.5975   -0.9241 H   0  0  0  0  0  0  0  0  0  0  0  0
  1  6  2  0  0  0  0
  1  2  1  0  0  0  0
  2  3  2  0  0  0  0
  3  4  1  0  0  0  0
  5 10  1  0  0  0  0
  5  4  2  0  0  0  0
  6  5  1  0  0  0  0
  7  1  1  0  0  0  0
  8  2  1  0  0  0  0
  9 13  1  0  0  0  0
 12 11  3  0  0  0  0
 14  6  1  0  0  0  0
M  RAD  2   3   2   4   2
M  END
