Coordinates from ORCA-job Ph-N2-Cl-B3LYPG-6-31G_dp-MTMO-d009-169-n800
 OpenBabel09051908143D

 14 12  0  0  0  0  0  0  0  0999 V2000
   -0.6619   -0.6135   -1.0010 C   0  0  0  0  0  0  0  0  0  0  0  0
    0.4096    0.2495   -0.6667 C   0  0  0  0  0  0  0  0  0  0  0  0
   -0.1287    1.4100   -0.1720 C   0  0  0  0  0  0  0  0  0  0  0  0
   -1.2997    1.8209    0.0262 C   0  0  0  0  0  0  0  0  0  0  0  0
   -2.3901    0.9982   -0.2911 C   0  0  0  0  0  0  0  0  0  0  0  0
   -2.0082   -0.2502   -0.8189 C   0  0  0  0  0  0  0  0  0  0  0  0
   -0.4226   -1.5906   -1.4129 H   0  0  0  0  0  0  0  0  0  0  0  0
    1.4521   -0.0104   -0.7999 H   0  0  0  0  0  0  0  0  0  0  0  0
   -1.7527    3.5529    0.7669 H   0  0  0  0  0  0  0  0  0  0  0  0
   -3.4305    1.2734   -0.1519 H   0  0  0  0  0  0  0  0  0  0  0  0
    4.6641   -5.3956   -2.6668 N   0  0  0  0  0  0  0  0  0  0  0  0
    5.3076   -6.2194   -3.0259 N   0  0  0  0  0  0  0  0  0  0  0  0
   -2.2478    4.6749    1.2520 Cl  0  0  0  0  0  0  0  0  0  0  0  0
   -2.7827   -0.9603   -1.0968 H   0  0  0  0  0  0  0  0  0  0  0  0
  1  6  2  0  0  0  0
  1  2  1  0  0  0  0
  2  3  2  0  0  0  0
  3  4  1  0  0  0  0
  5 10  1  0  0  0  0
  5  4  2  0  0  0  0
  6  5  1  0  0  0  0
  7  1  1  0  0  0  0
  8  2  1  0  0  0  0
  9 13  1  0  0  0  0
 12 11  3  0  0  0  0
 14  6  1  0  0  0  0
M  RAD  2   3   2   4   2
M  END
