Coordinates from ORCA-job Ph-N2-Cl-B3LYPG-6-31G_dp-MTMO-d009-169-n800
 OpenBabel09051908143D

 14 12  0  0  0  0  0  0  0  0999 V2000
   -0.6627   -0.2760   -0.8837 C   0  0  0  0  0  0  0  0  0  0  0  0
    0.3050    0.6940   -0.5269 C   0  0  0  0  0  0  0  0  0  0  0  0
   -0.3624    1.7925   -0.0483 C   0  0  0  0  0  0  0  0  0  0  0  0
   -1.5743    2.0788    0.1208 C   0  0  0  0  0  0  0  0  0  0  0  0
   -2.5657    1.1474   -0.2190 C   0  0  0  0  0  0  0  0  0  0  0  0
   -2.0434   -0.0549   -0.7342 C   0  0  0  0  0  0  0  0  0  0  0  0
   -0.3133   -1.2233   -1.2866 H   0  0  0  0  0  0  0  0  0  0  0  0
    1.3720    0.5439   -0.6344 H   0  0  0  0  0  0  0  0  0  0  0  0
   -2.2197    3.7623    0.8433 H   0  0  0  0  0  0  0  0  0  0  0  0
   -3.6323    1.3125   -0.1048 H   0  0  0  0  0  0  0  0  0  0  0  0
    5.6692   -7.0009   -3.2473 N   0  0  0  0  0  0  0  0  0  0  0  0
    6.3062   -7.8238   -3.6197 N   0  0  0  0  0  0  0  0  0  0  0  0
   -2.8369    4.8295    1.3099 Cl  0  0  0  0  0  0  0  0  0  0  0  0
   -2.7330   -0.8420   -1.0279 H   0  0  0  0  0  0  0  0  0  0  0  0
  1  6  2  0  0  0  0
  1  2  1  0  0  0  0
  2  3  2  0  0  0  0
  3  4  1  0  0  0  0
  5 10  1  0  0  0  0
  5  4  2  0  0  0  0
  6  5  1  0  0  0  0
  7  1  1  0  0  0  0
  8  2  1  0  0  0  0
  9 13  1  0  0  0  0
 12 11  3  0  0  0  0
 14  6  1  0  0  0  0
M  RAD  2   3   2   4   2
M  END
