Coordinates from ORCA-job Ph-N2-Cl-B3LYPG-6-31G_dp-MTMO-d009-169-n800
 OpenBabel09051908143D

 14 12  0  0  0  0  0  0  0  0999 V2000
   -1.6594   -1.4985   -1.3274 C   0  0  0  0  0  0  0  0  0  0  0  0
   -0.2468   -1.5763   -1.3227 C   0  0  0  0  0  0  0  0  0  0  0  0
    0.2244   -0.3916   -0.8314 C   0  0  0  0  0  0  0  0  0  0  0  0
   -0.2672    0.6914   -0.4058 C   0  0  0  0  0  0  0  0  0  0  0  0
   -1.6738    0.7843   -0.4043 C   0  0  0  0  0  0  0  0  0  0  0  0
   -2.3456   -0.3544   -0.8822 C   0  0  0  0  0  0  0  0  0  0  0  0
   -2.2196   -2.3571   -1.6889 H   0  0  0  0  0  0  0  0  0  0  0  0
    0.3171   -2.4374   -1.6566 H   0  0  0  0  0  0  0  0  0  0  0  0
    0.6497    2.1172    0.1957 H   0  0  0  0  0  0  0  0  0  0  0  0
   -2.2118    1.6633   -0.0622 H   0  0  0  0  0  0  0  0  0  0  0  0
    2.7183   -0.5910   -0.8510 N   0  0  0  0  0  0  0  0  0  0  0  0
    3.5914    0.0272   -0.5708 N   0  0  0  0  0  0  0  0  0  0  0  0
    1.2642    3.2152    0.6585 Cl  0  0  0  0  0  0  0  0  0  0  0  0
   -3.4323   -0.3524   -0.9097 H   0  0  0  0  0  0  0  0  0  0  0  0
  1  2  2  0  0  0  0
  1  6  1  0  0  0  0
  2  3  1  0  0  0  0
  3  4  2  0  0  0  0
  4  5  1  0  0  0  0
  5 10  1  0  0  0  0
  6  5  2  0  0  0  0
  7  1  1  0  0  0  0
  8  2  1  0  0  0  0
  9 13  1  0  0  0  0
 11 12  3  0  0  0  0
 14  6  1  0  0  0  0
M  RAD  2   3   2   4   2
M  END
