Coordinates from ORCA-job Ph-N2-Cl-B3LYPG-6-31G_dp-MTMO-d009-169-n800
 OpenBabel09051908143D

 14 12  0  0  0  0  0  0  0  0999 V2000
   -0.8363    0.3513   -0.7179 C   0  0  0  0  0  0  0  0  0  0  0  0
   -0.0054    1.4353   -0.3444 C   0  0  0  0  0  0  0  0  0  0  0  0
   -0.8133    2.4316    0.1409 C   0  0  0  0  0  0  0  0  0  0  0  0
   -2.0529    2.5555    0.3050 C   0  0  0  0  0  0  0  0  0  0  0  0
   -2.9125    1.5067   -0.0510 C   0  0  0  0  0  0  0  0  0  0  0  0
   -2.2349    0.3889   -0.5755 C   0  0  0  0  0  0  0  0  0  0  0  0
   -0.3647   -0.5387   -1.1274 H   0  0  0  0  0  0  0  0  0  0  0  0
    1.0727    1.4269   -0.4462 H   0  0  0  0  0  0  0  0  0  0  0  0
   -2.9186    4.1300    1.0447 H   0  0  0  0  0  0  0  0  0  0  0  0
   -3.9921    1.5294    0.0582 H   0  0  0  0  0  0  0  0  0  0  0  0
    7.8080  -10.0380   -4.3066 N   0  0  0  0  0  0  0  0  0  0  0  0
    8.4465  -10.8600   -4.6784 N   0  0  0  0  0  0  0  0  0  0  0  0
   -3.6736    5.0993    1.5219 Cl  0  0  0  0  0  0  0  0  0  0  0  0
   -2.8143   -0.4782   -0.8821 H   0  0  0  0  0  0  0  0  0  0  0  0
  1  6  2  0  0  0  0
  1  2  1  0  0  0  0
  2  3  2  0  0  0  0
  3  4  1  0  0  0  0
  5 10  1  0  0  0  0
  5  4  2  0  0  0  0
  6  5  1  0  0  0  0
  7  1  1  0  0  0  0
  8  2  1  0  0  0  0
  9 13  1  0  0  0  0
 12 11  3  0  0  0  0
 14  6  1  0  0  0  0
M  RAD  2   3   2   4   2
M  END
