Coordinates from ORCA-job Ph-N2-Cl-B3LYPG-6-31G_dp-MTMO-d009-169-n800
 OpenBabel09051908143D

 14 12  0  0  0  0  0  0  0  0999 V2000
   -0.6512   -0.5644   -0.9826 C   0  0  0  0  0  0  0  0  0  0  0  0
    0.4020    0.3191   -0.6439 C   0  0  0  0  0  0  0  0  0  0  0  0
   -0.1604    1.4698   -0.1531 C   0  0  0  0  0  0  0  0  0  0  0  0
   -1.3401    1.8581    0.0388 C   0  0  0  0  0  0  0  0  0  0  0  0
   -2.4132    1.0149   -0.2829 C   0  0  0  0  0  0  0  0  0  0  0  0
   -2.0050   -0.2266   -0.8075 C   0  0  0  0  0  0  0  0  0  0  0  0
   -0.3914   -1.5371   -1.3923 H   0  0  0  0  0  0  0  0  0  0  0  0
    1.4500    0.0789   -0.7716 H   0  0  0  0  0  0  0  0  0  0  0  0
   -1.8289    3.5832    0.7769 H   0  0  0  0  0  0  0  0  0  0  0  0
   -3.4593    1.2704   -0.1491 H   0  0  0  0  0  0  0  0  0  0  0  0
    4.7878   -5.6235   -2.7500 N   0  0  0  0  0  0  0  0  0  0  0  0
    5.4299   -6.4471   -3.1119 N   0  0  0  0  0  0  0  0  0  0  0  0
   -2.3472    4.6958    1.2587 Cl  0  0  0  0  0  0  0  0  0  0  0  0
   -2.7645   -0.9515   -1.0885 H   0  0  0  0  0  0  0  0  0  0  0  0
  1  6  2  0  0  0  0
  1  2  1  0  0  0  0
  2  3  2  0  0  0  0
  3  4  1  0  0  0  0
  5 10  1  0  0  0  0
  5  4  2  0  0  0  0
  6  5  1  0  0  0  0
  7  1  1  0  0  0  0
  8  2  1  0  0  0  0
  9 13  1  0  0  0  0
 12 11  3  0  0  0  0
 14  6  1  0  0  0  0
M  RAD  2   3   2   4   2
M  END
