Coordinates from ORCA-job Ph-N2-Cl-B3LYPG-6-31G_dp-MTMO-d009-169-n800
 OpenBabel09051908143D

 14 12  0  0  0  0  0  0  0  0999 V2000
   -0.8077    0.2869   -0.7330 C   0  0  0  0  0  0  0  0  0  0  0  0
    0.0331    1.3636   -0.3606 C   0  0  0  0  0  0  0  0  0  0  0  0
   -0.7661    2.3683    0.1221 C   0  0  0  0  0  0  0  0  0  0  0  0
   -2.0046    2.5047    0.2848 C   0  0  0  0  0  0  0  0  0  0  0  0
   -2.8735    1.4631   -0.0704 C   0  0  0  0  0  0  0  0  0  0  0  0
   -2.2060    0.3381   -0.5921 C   0  0  0  0  0  0  0  0  0  0  0  0
   -0.3441   -0.6082   -1.1405 H   0  0  0  0  0  0  0  0  0  0  0  0
    1.1112    1.3454   -0.4609 H   0  0  0  0  0  0  0  0  0  0  0  0
   -2.8557    4.0888    1.0198 H   0  0  0  0  0  0  0  0  0  0  0  0
   -3.9530    1.4960    0.0375 H   0  0  0  0  0  0  0  0  0  0  0  0
    7.5659   -9.7133   -4.1953 N   0  0  0  0  0  0  0  0  0  0  0  0
    8.2041  -10.5359   -4.5665 N   0  0  0  0  0  0  0  0  0  0  0  0
   -3.6019    5.0665    1.4939 Cl  0  0  0  0  0  0  0  0  0  0  0  0
   -2.7932   -0.5240   -0.8978 H   0  0  0  0  0  0  0  0  0  0  0  0
  1  6  2  0  0  0  0
  1  2  1  0  0  0  0
  2  3  2  0  0  0  0
  3  4  1  0  0  0  0
  5 10  1  0  0  0  0
  5  4  2  0  0  0  0
  6  5  1  0  0  0  0
  7  1  1  0  0  0  0
  8  2  1  0  0  0  0
  9 13  1  0  0  0  0
 12 11  3  0  0  0  0
 14  6  1  0  0  0  0
M  RAD  2   3   2   4   2
M  END
