Coordinates from ORCA-job Ph-N2-Cl-B3LYPG-6-31G_dp-MTMO-d009-169-n800
 OpenBabel09051908143D

 14 12  0  0  0  0  0  0  0  0999 V2000
   -1.1889   -1.2563   -1.2306 C   0  0  0  0  0  0  0  0  0  0  0  0
    0.1599   -0.8708   -1.0339 C   0  0  0  0  0  0  0  0  0  0  0  0
    0.1507    0.3943   -0.5076 C   0  0  0  0  0  0  0  0  0  0  0  0
   -0.7419    1.2203   -0.1881 C   0  0  0  0  0  0  0  0  0  0  0  0
   -2.0900    0.8725   -0.3687 C   0  0  0  0  0  0  0  0  0  0  0  0
   -2.2689   -0.4150   -0.9095 C   0  0  0  0  0  0  0  0  0  0  0  0
   -1.3836   -2.2419   -1.6456 H   0  0  0  0  0  0  0  0  0  0  0  0
    1.0081   -1.4991   -1.2728 H   0  0  0  0  0  0  0  0  0  0  0  0
   -0.4248    2.9687    0.5393 H   0  0  0  0  0  0  0  0  0  0  0  0
   -2.9277    1.5167   -0.1227 H   0  0  0  0  0  0  0  0  0  0  0  0
    3.5127   -2.4317   -1.5948 N   0  0  0  0  0  0  0  0  0  0  0  0
    4.5719   -2.7339   -1.6817 N   0  0  0  0  0  0  0  0  0  0  0  0
   -0.3891    4.1888    1.0446 Cl  0  0  0  0  0  0  0  0  0  0  0  0
   -3.2799   -0.7727   -1.0868 H   0  0  0  0  0  0  0  0  0  0  0  0
  1  2  2  0  0  0  0
  1  6  1  0  0  0  0
  2  3  1  0  0  0  0
  3  4  2  0  0  0  0
  5  4  1  0  0  0  0
  5 10  1  0  0  0  0
  6  5  2  0  0  0  0
  7  1  1  0  0  0  0
  8  2  1  0  0  0  0
  9 13  1  0  0  0  0
 12 11  3  0  0  0  0
 14  6  1  0  0  0  0
M  RAD  2   3   2   4   2
M  END
