Coordinates from ORCA-job Ph-N2-Cl-B3LYPG-6-31G_dp-MTMO-d009-169-n800
 OpenBabel09051908143D

 14 12  0  0  0  0  0  0  0  0999 V2000
   -1.6529   -1.4986   -1.3272 C   0  0  0  0  0  0  0  0  0  0  0  0
   -0.2407   -1.5770   -1.3230 C   0  0  0  0  0  0  0  0  0  0  0  0
    0.2319   -0.3931   -0.8321 C   0  0  0  0  0  0  0  0  0  0  0  0
   -0.2545    0.6933   -0.4050 C   0  0  0  0  0  0  0  0  0  0  0  0
   -1.6622    0.7834   -0.4045 C   0  0  0  0  0  0  0  0  0  0  0  0
   -2.3369   -0.3534   -0.8815 C   0  0  0  0  0  0  0  0  0  0  0  0
   -2.2139   -2.3566   -1.6884 H   0  0  0  0  0  0  0  0  0  0  0  0
    0.3232   -2.4382   -1.6570 H   0  0  0  0  0  0  0  0  0  0  0  0
    0.6512    2.0994    0.1885 H   0  0  0  0  0  0  0  0  0  0  0  0
   -2.1988    1.6632   -0.0620 H   0  0  0  0  0  0  0  0  0  0  0  0
    2.6671   -0.5741   -0.8452 N   0  0  0  0  0  0  0  0  0  0  0  0
    3.5398    0.0448   -0.5649 N   0  0  0  0  0  0  0  0  0  0  0  0
    1.2786    3.1962    0.6514 Cl  0  0  0  0  0  0  0  0  0  0  0  0
   -3.4236   -0.3495   -0.9080 H   0  0  0  0  0  0  0  0  0  0  0  0
  1  2  2  0  0  0  0
  1  6  1  0  0  0  0
  2  3  1  0  0  0  0
  3  4  2  0  0  0  0
  4  5  1  0  0  0  0
  5 10  1  0  0  0  0
  6  5  2  0  0  0  0
  7  1  1  0  0  0  0
  8  2  1  0  0  0  0
  9 13  1  0  0  0  0
 11 12  3  0  0  0  0
 14  6  1  0  0  0  0
M  RAD  2   3   2   4   2
M  END
