Coordinates from ORCA-job Ph-N2-Cl-B3LYPG-6-31G_dp-MTMO-d009-169-n800
 OpenBabel09051908143D

 14 12  0  0  0  0  0  0  0  0999 V2000
   -1.6502   -1.4803   -1.3197 C   0  0  0  0  0  0  0  0  0  0  0  0
   -0.2398   -1.5788   -1.3270 C   0  0  0  0  0  0  0  0  0  0  0  0
    0.2617   -0.4129   -0.8430 C   0  0  0  0  0  0  0  0  0  0  0  0
   -0.1614    0.7250   -0.3922 C   0  0  0  0  0  0  0  0  0  0  0  0
   -1.5799    0.7871   -0.4002 C   0  0  0  0  0  0  0  0  0  0  0  0
   -2.2972   -0.3206   -0.8653 C   0  0  0  0  0  0  0  0  0  0  0  0
   -2.2254   -2.3301   -1.6770 H   0  0  0  0  0  0  0  0  0  0  0  0
    0.3093   -2.4472   -1.6657 H   0  0  0  0  0  0  0  0  0  0  0  0
    0.5099    1.6922    0.0173 H   0  0  0  0  0  0  0  0  0  0  0  0
   -2.0762    1.6869   -0.0473 H   0  0  0  0  0  0  0  0  0  0  0  0
    2.5426   -0.4045   -0.7811 N   0  0  0  0  0  0  0  0  0  0  0  0
    3.2940    0.3363   -0.4446 N   0  0  0  0  0  0  0  0  0  0  0  0
    1.4037    2.9711    0.5629 Cl  0  0  0  0  0  0  0  0  0  0  0  0
   -3.3825   -0.2842   -0.8759 H   0  0  0  0  0  0  0  0  0  0  0  0
  1  6  1  0  0  0  0
  2  1  2  0  0  0  0
  2  3  1  0  0  0  0
  3  4  2  0  0  0  0
  4  9  1  0  0  0  0
  5  4  1  0  0  0  0
  5 10  1  0  0  0  0
  6  5  2  0  0  0  0
  7  1  1  0  0  0  0
  8  2  1  0  0  0  0
 11 12  3  0  0  0  0
 14  6  1  0  0  0  0
M  RAD  2   3   2  13   2
M  END
