Coordinates from ORCA-job Ph-N2-Cl-B3LYPG-6-31G_dp-MTMO-d009-169-n800
 OpenBabel09051908143D

 14 12  0  0  0  0  0  0  0  0999 V2000
   -0.8687    0.4143   -0.7045 C   0  0  0  0  0  0  0  0  0  0  0  0
   -0.0453    1.5037   -0.3300 C   0  0  0  0  0  0  0  0  0  0  0  0
   -0.8603    2.4924    0.1592 C   0  0  0  0  0  0  0  0  0  0  0  0
   -2.1005    2.6070    0.3261 C   0  0  0  0  0  0  0  0  0  0  0  0
   -2.9524    1.5521   -0.0311 C   0  0  0  0  0  0  0  0  0  0  0  0
   -2.2672    0.4409   -0.5595 C   0  0  0  0  0  0  0  0  0  0  0  0
   -0.3911   -0.4711   -1.1170 H   0  0  0  0  0  0  0  0  0  0  0  0
    1.0326    1.5044   -0.4335 H   0  0  0  0  0  0  0  0  0  0  0  0
   -2.9763    4.1722    1.0717 H   0  0  0  0  0  0  0  0  0  0  0  0
   -4.0319    1.5660    0.0801 H   0  0  0  0  0  0  0  0  0  0  0  0
    8.0545  -10.3627   -4.4167 N   0  0  0  0  0  0  0  0  0  0  0  0
    8.6936  -11.1837   -4.7896 N   0  0  0  0  0  0  0  0  0  0  0  0
   -3.7378    5.1343    1.5532 Cl  0  0  0  0  0  0  0  0  0  0  0  0
   -2.8405   -0.4299   -0.8671 H   0  0  0  0  0  0  0  0  0  0  0  0
  1  6  2  0  0  0  0
  1  2  1  0  0  0  0
  2  3  2  0  0  0  0
  3  4  1  0  0  0  0
  5 10  1  0  0  0  0
  5  4  2  0  0  0  0
  6  5  1  0  0  0  0
  7  1  1  0  0  0  0
  8  2  1  0  0  0  0
  9 13  1  0  0  0  0
 12 11  3  0  0  0  0
 14  6  1  0  0  0  0
M  RAD  2   3   2   4   2
M  END
