Coordinates from ORCA-job Ph-N2-Cl-B3LYPG-6-31G_dp-MTMO-d009-169-n800
 OpenBabel09051908143D

 14 12  0  0  0  0  0  0  0  0999 V2000
   -1.6821   -1.4929   -1.3262 C   0  0  0  0  0  0  0  0  0  0  0  0
   -0.2684   -1.5653   -1.3176 C   0  0  0  0  0  0  0  0  0  0  0  0
    0.1972   -0.3775   -0.8242 C   0  0  0  0  0  0  0  0  0  0  0  0
   -0.3146    0.6941   -0.4038 C   0  0  0  0  0  0  0  0  0  0  0  0
   -1.7182    0.7920   -0.4018 C   0  0  0  0  0  0  0  0  0  0  0  0
   -2.3779   -0.3535   -0.8835 C   0  0  0  0  0  0  0  0  0  0  0  0
   -2.2373   -2.3540   -1.6897 H   0  0  0  0  0  0  0  0  0  0  0  0
    0.2971   -2.4257   -1.6508 H   0  0  0  0  0  0  0  0  0  0  0  0
    0.6083    2.1856    0.2230 H   0  0  0  0  0  0  0  0  0  0  0  0
   -2.2624    1.6675   -0.0615 H   0  0  0  0  0  0  0  0  0  0  0  0
    2.9420   -0.6828   -0.8817 N   0  0  0  0  0  0  0  0  0  0  0  0
    3.8387   -0.0933   -0.6166 N   0  0  0  0  0  0  0  0  0  0  0  0
    1.1503    3.3054    0.6912 Cl  0  0  0  0  0  0  0  0  0  0  0  0
   -3.4645   -0.3597   -0.9156 H   0  0  0  0  0  0  0  0  0  0  0  0
  1  2  2  0  0  0  0
  1  6  1  0  0  0  0
  2  3  1  0  0  0  0
  3  4  2  0  0  0  0
  4  5  1  0  0  0  0
  5 10  1  0  0  0  0
  6  5  2  0  0  0  0
  7  1  1  0  0  0  0
  8  2  1  0  0  0  0
  9 13  1  0  0  0  0
 11 12  3  0  0  0  0
 14  6  1  0  0  0  0
M  RAD  2   3   2   4   2
M  END
