Coordinates from ORCA-job Ph-N2-Cl-B3LYPG-6-31G_dp-MTMO-d009-169-n800
 OpenBabel09051908143D

 14 12  0  0  0  0  0  0  0  0999 V2000
   -0.6746   -0.1681   -0.8485 C   0  0  0  0  0  0  0  0  0  0  0  0
    0.2628    0.8294   -0.4868 C   0  0  0  0  0  0  0  0  0  0  0  0
   -0.4385    1.9081   -0.0119 C   0  0  0  0  0  0  0  0  0  0  0  0
   -1.6590    2.1595    0.1509 C   0  0  0  0  0  0  0  0  0  0  0  0
   -2.6214    1.1999   -0.1939 C   0  0  0  0  0  0  0  0  0  0  0  0
   -2.0619    0.0132   -0.7063 C   0  0  0  0  0  0  0  0  0  0  0  0
   -0.2962   -1.1051   -1.2494 H   0  0  0  0  0  0  0  0  0  0  0  0
    1.3343    0.7100   -0.5886 H   0  0  0  0  0  0  0  0  0  0  0  0
   -2.3570    3.8243    0.8685 H   0  0  0  0  0  0  0  0  0  0  0  0
   -3.6929    1.3341   -0.0852 H   0  0  0  0  0  0  0  0  0  0  0  0
    6.0052   -7.5112   -3.4315 N   0  0  0  0  0  0  0  0  0  0  0  0
    6.6422   -8.3342   -3.8036 N   0  0  0  0  0  0  0  0  0  0  0  0
   -3.0074    4.8734    1.3309 Cl  0  0  0  0  0  0  0  0  0  0  0  0
   -2.7271   -0.7934   -1.0034 H   0  0  0  0  0  0  0  0  0  0  0  0
  1  6  2  0  0  0  0
  1  2  1  0  0  0  0
  2  3  2  0  0  0  0
  3  4  1  0  0  0  0
  5 10  1  0  0  0  0
  5  4  2  0  0  0  0
  6  5  1  0  0  0  0
  7  1  1  0  0  0  0
  8  2  1  0  0  0  0
  9 13  1  0  0  0  0
 12 11  3  0  0  0  0
 14  6  1  0  0  0  0
M  RAD  2   3   2   4   2
M  END
