Coordinates from ORCA-job Ph-N2-Cl-B3LYPG-6-31G_dp-MTMO-d009-169-n800
 OpenBabel09051908143D

 14 12  0  0  0  0  0  0  0  0999 V2000
   -0.6666   -0.2288   -0.8678 C   0  0  0  0  0  0  0  0  0  0  0  0
    0.2874    0.7539   -0.5086 C   0  0  0  0  0  0  0  0  0  0  0  0
   -0.3957    1.8435   -0.0320 C   0  0  0  0  0  0  0  0  0  0  0  0
   -1.6116    2.1141    0.1339 C   0  0  0  0  0  0  0  0  0  0  0  0
   -2.5898    1.1697   -0.2083 C   0  0  0  0  0  0  0  0  0  0  0  0
   -2.0505   -0.0257   -0.7220 C   0  0  0  0  0  0  0  0  0  0  0  0
   -0.3039   -1.1716   -1.2695 H   0  0  0  0  0  0  0  0  0  0  0  0
    1.3565    0.6176   -0.6133 H   0  0  0  0  0  0  0  0  0  0  0  0
   -2.2809    3.7894    0.8536 H   0  0  0  0  0  0  0  0  0  0  0  0
   -3.6588    1.3208   -0.0969 H   0  0  0  0  0  0  0  0  0  0  0  0
    5.8141   -7.2234   -3.3281 N   0  0  0  0  0  0  0  0  0  0  0  0
    6.4508   -8.0465   -3.7005 N   0  0  0  0  0  0  0  0  0  0  0  0
   -2.9133    4.8488    1.3179 Cl  0  0  0  0  0  0  0  0  0  0  0  0
   -2.7290   -0.8218   -1.0173 H   0  0  0  0  0  0  0  0  0  0  0  0
  1  6  2  0  0  0  0
  1  2  1  0  0  0  0
  2  3  2  0  0  0  0
  3  4  1  0  0  0  0
  5 10  1  0  0  0  0
  5  4  2  0  0  0  0
  6  5  1  0  0  0  0
  7  1  1  0  0  0  0
  8  2  1  0  0  0  0
  9 13  1  0  0  0  0
 12 11  3  0  0  0  0
 14  6  1  0  0  0  0
M  RAD  2   3   2   4   2
M  END
