Coordinates from ORCA-job Ph-N2-Cl-B3LYPG-6-31G_dp-MTMO-d009-169-n800
 OpenBabel09051908143D

 14 12  0  0  0  0  0  0  0  0999 V2000
   -0.7501   -0.8752   -1.0837 C   0  0  0  0  0  0  0  0  0  0  0  0
    0.4202   -0.1415   -0.7720 C   0  0  0  0  0  0  0  0  0  0  0  0
    0.0273    1.0707   -0.2659 C   0  0  0  0  0  0  0  0  0  0  0  0
   -1.0827    1.6157   -0.0416 C   0  0  0  0  0  0  0  0  0  0  0  0
   -2.2661    0.9225   -0.3363 C   0  0  0  0  0  0  0  0  0  0  0  0
   -2.0416   -0.3598   -0.8726 C   0  0  0  0  0  0  0  0  0  0  0  0
   -0.6335   -1.8721   -1.5005 H   0  0  0  0  0  0  0  0  0  0  0  0
    1.4229   -0.5189   -0.9268 H   0  0  0  0  0  0  0  0  0  0  0  0
   -1.3209    3.3831    0.6945 H   0  0  0  0  0  0  0  0  0  0  0  0
   -3.2649    1.3147   -0.1750 H   0  0  0  0  0  0  0  0  0  0  0  0
    4.0572   -4.1803   -2.2411 N   0  0  0  0  0  0  0  0  0  0  0  0
    4.7114   -5.0013   -2.5868 N   0  0  0  0  0  0  0  0  0  0  0  0
   -1.6723    4.5576    1.1830 Cl  0  0  0  0  0  0  0  0  0  0  0  0
   -2.8984   -0.9752   -1.1342 H   0  0  0  0  0  0  0  0  0  0  0  0
  1  6  2  0  0  0  0
  1  2  1  0  0  0  0
  2  3  2  0  0  0  0
  3  4  1  0  0  0  0
  5 10  1  0  0  0  0
  5  4  2  0  0  0  0
  6  5  1  0  0  0  0
  7  1  1  0  0  0  0
  8  2  1  0  0  0  0
  9 13  1  0  0  0  0
 12 11  3  0  0  0  0
 14  6  1  0  0  0  0
M  RAD  2   3   2   4   2
M  END
