Coordinates from ORCA-job Ph-N2-Cl-B3LYPG-6-31G_dp-MTMO-d009-169-n800
 OpenBabel09051908143D

 14 12  0  0  0  0  0  0  0  0999 V2000
   -0.6944   -0.7104   -1.0311 C   0  0  0  0  0  0  0  0  0  0  0  0
    0.4149    0.1065   -0.7042 C   0  0  0  0  0  0  0  0  0  0  0  0
   -0.0711    1.2877   -0.2051 C   0  0  0  0  0  0  0  0  0  0  0  0
   -1.2217    1.7486    0.0023 C   0  0  0  0  0  0  0  0  0  0  0  0
   -2.3478    0.9723   -0.3077 C   0  0  0  0  0  0  0  0  0  0  0  0
   -2.0229   -0.2907   -0.8389 C   0  0  0  0  0  0  0  0  0  0  0  0
   -0.4996   -1.6963   -1.4451 H   0  0  0  0  0  0  0  0  0  0  0  0
    1.4445   -0.1969   -0.8450 H   0  0  0  0  0  0  0  0  0  0  0  0
   -1.5967    3.4960    0.7423 H   0  0  0  0  0  0  0  0  0  0  0  0
   -3.3746    1.2909   -0.1609 H   0  0  0  0  0  0  0  0  0  0  0  0
    4.4490   -4.9588   -2.5147 N   0  0  0  0  0  0  0  0  0  0  0  0
    5.0976   -5.7806   -2.8691 N   0  0  0  0  0  0  0  0  0  0  0  0
   -2.0401    4.6388    1.2297 Cl  0  0  0  0  0  0  0  0  0  0  0  0
   -2.8287   -0.9671   -1.1114 H   0  0  0  0  0  0  0  0  0  0  0  0
  1  6  2  0  0  0  0
  1  2  1  0  0  0  0
  2  3  2  0  0  0  0
  3  4  1  0  0  0  0
  5 10  1  0  0  0  0
  5  4  2  0  0  0  0
  6  5  1  0  0  0  0
  7  1  1  0  0  0  0
  8  2  1  0  0  0  0
  9 13  1  0  0  0  0
 12 11  3  0  0  0  0
 14  6  1  0  0  0  0
M  RAD  2   3   2   4   2
M  END
