Coordinates from ORCA-job Ph-N2-Cl-B3LYPG-6-31G_dp-MTMO-d009-169-n800
 OpenBabel09051908143D

 14 12  0  0  0  0  0  0  0  0999 V2000
   -0.8608    0.3992   -0.7077 C   0  0  0  0  0  0  0  0  0  0  0  0
   -0.0357    1.4874   -0.3334 C   0  0  0  0  0  0  0  0  0  0  0  0
   -0.8491    2.4779    0.1548 C   0  0  0  0  0  0  0  0  0  0  0  0
   -2.0892    2.5947    0.3211 C   0  0  0  0  0  0  0  0  0  0  0  0
   -2.9428    1.5411   -0.0359 C   0  0  0  0  0  0  0  0  0  0  0  0
   -2.2593    0.4283   -0.5633 C   0  0  0  0  0  0  0  0  0  0  0  0
   -0.3846   -0.4873   -1.1195 H   0  0  0  0  0  0  0  0  0  0  0  0
    1.0423    1.4862   -0.4365 H   0  0  0  0  0  0  0  0  0  0  0  0
   -2.9626    4.1620    1.0652 H   0  0  0  0  0  0  0  0  0  0  0  0
   -4.0224    1.5569    0.0747 H   0  0  0  0  0  0  0  0  0  0  0  0
    7.9952  -10.2848   -4.3903 N   0  0  0  0  0  0  0  0  0  0  0  0
    8.6341  -11.1060   -4.7629 N   0  0  0  0  0  0  0  0  0  0  0  0
   -3.7226    5.1258    1.5457 Cl  0  0  0  0  0  0  0  0  0  0  0  0
   -2.8340   -0.4416   -0.8707 H   0  0  0  0  0  0  0  0  0  0  0  0
  1  6  2  0  0  0  0
  1  2  1  0  0  0  0
  2  3  2  0  0  0  0
  3  4  1  0  0  0  0
  5 10  1  0  0  0  0
  5  4  2  0  0  0  0
  6  5  1  0  0  0  0
  7  1  1  0  0  0  0
  8  2  1  0  0  0  0
  9 13  1  0  0  0  0
 12 11  3  0  0  0  0
 14  6  1  0  0  0  0
M  RAD  2   3   2   4   2
M  END
