Coordinates from ORCA-job Ph-N2-Cl-B3LYPG-6-31G_dp-MTMO-d009-169-n800
 OpenBabel09051908143D

 14 12  0  0  0  0  0  0  0  0999 V2000
   -0.8113   -1.0103   -1.1294 C   0  0  0  0  0  0  0  0  0  0  0  0
    0.4098   -0.3564   -0.8353 C   0  0  0  0  0  0  0  0  0  0  0  0
    0.1048    0.8781   -0.3227 C   0  0  0  0  0  0  0  0  0  0  0  0
   -0.9625    1.4966   -0.0809 C   0  0  0  0  0  0  0  0  0  0  0  0
   -2.1934    0.8829   -0.3584 C   0  0  0  0  0  0  0  0  0  0  0  0
   -2.0625   -0.4107   -0.8986 C   0  0  0  0  0  0  0  0  0  0  0  0
   -0.7673   -2.0121   -1.5482 H   0  0  0  0  0  0  0  0  0  0  0  0
    1.3825   -0.8004   -1.0061 H   0  0  0  0  0  0  0  0  0  0  0  0
   -1.0743    3.2740    0.6515 H   0  0  0  0  0  0  0  0  0  0  0  0
   -3.1613    1.3402   -0.1822 H   0  0  0  0  0  0  0  0  0  0  0  0
    3.7066   -3.5429   -2.0080 N   0  0  0  0  0  0  0  0  0  0  0  0
    4.4401   -4.3028   -2.3335 N   0  0  0  0  0  0  0  0  0  0  0  0
   -1.3407    4.4711    1.1403 Cl  0  0  0  0  0  0  0  0  0  0  0  0
   -2.9620   -0.9674   -1.1475 H   0  0  0  0  0  0  0  0  0  0  0  0
  1  6  2  0  0  0  0
  1  2  1  0  0  0  0
  2  3  2  0  0  0  0
  3  4  1  0  0  0  0
  5 10  1  0  0  0  0
  5  4  2  0  0  0  0
  6  5  1  0  0  0  0
  7  1  1  0  0  0  0
  8  2  1  0  0  0  0
  9 13  1  0  0  0  0
 12 11  3  0  0  0  0
 14  6  1  0  0  0  0
M  RAD  2   3   2   4   2
M  END
