Coordinates from ORCA-job Ph-N2-Cl-B3LYPG-6-31G_dp-MTMO-d009-169-n800
 OpenBabel09051908143D

 14 12  0  0  0  0  0  0  0  0999 V2000
   -1.4669   -1.3786   -1.2744 C   0  0  0  0  0  0  0  0  0  0  0  0
   -0.0682   -1.2065   -1.1359 C   0  0  0  0  0  0  0  0  0  0  0  0
    0.1435    0.0449   -0.6183 C   0  0  0  0  0  0  0  0  0  0  0  0
   -0.5986    0.9974   -0.2682 C   0  0  0  0  0  0  0  0  0  0  0  0
   -1.9905    0.8648   -0.3901 C   0  0  0  0  0  0  0  0  0  0  0  0
   -2.3892   -0.3797   -0.9146 C   0  0  0  0  0  0  0  0  0  0  0  0
   -1.8296   -2.3221   -1.6745 H   0  0  0  0  0  0  0  0  0  0  0  0
    0.6637   -1.9568   -1.4051 H   0  0  0  0  0  0  0  0  0  0  0  0
    0.0179    2.6781    0.4399 H   0  0  0  0  0  0  0  0  0  0  0  0
   -2.7072    1.6314   -0.1137 H   0  0  0  0  0  0  0  0  0  0  0  0
    3.5142   -1.7539   -1.3155 N   0  0  0  0  0  0  0  0  0  0  0  0
    4.6046   -1.5792   -1.2772 N   0  0  0  0  0  0  0  0  0  0  0  0
    0.2649    3.8764    0.9364 Cl  0  0  0  0  0  0  0  0  0  0  0  0
   -3.4501   -0.5762   -1.0476 H   0  0  0  0  0  0  0  0  0  0  0  0
  1  2  2  0  0  0  0
  1  6  1  0  0  0  0
  2  3  1  0  0  0  0
  3  4  2  0  0  0  0
  5  4  1  0  0  0  0
  5 10  1  0  0  0  0
  6  5  2  0  0  0  0
  7  1  1  0  0  0  0
  8  2  1  0  0  0  0
  9 13  1  0  0  0  0
 11 12  3  0  0  0  0
 14  6  1  0  0  0  0
M  RAD  2   3   2   4   2
M  END
