Coordinates from ORCA-job Ph-N2-Cl-B3LYPG-6-31G_dp-MTMO-d009-169-n800
 OpenBabel09051908143D

 14 12  0  0  0  0  0  0  0  0999 V2000
   -0.6655   -0.2371   -0.8704 C   0  0  0  0  0  0  0  0  0  0  0  0
    0.2907    0.7435   -0.5116 C   0  0  0  0  0  0  0  0  0  0  0  0
   -0.3898    1.8347   -0.0348 C   0  0  0  0  0  0  0  0  0  0  0  0
   -1.6051    2.1077    0.1315 C   0  0  0  0  0  0  0  0  0  0  0  0
   -2.5856    1.1655   -0.2103 C   0  0  0  0  0  0  0  0  0  0  0  0
   -2.0489   -0.0310   -0.7241 C   0  0  0  0  0  0  0  0  0  0  0  0
   -0.3050   -1.1807   -1.2723 H   0  0  0  0  0  0  0  0  0  0  0  0
    1.3595    0.6051   -0.6166 H   0  0  0  0  0  0  0  0  0  0  0  0
   -2.2706    3.7848    0.8517 H   0  0  0  0  0  0  0  0  0  0  0  0
   -3.6541    1.3190   -0.0985 H   0  0  0  0  0  0  0  0  0  0  0  0
    5.7881   -7.1842   -3.3140 N   0  0  0  0  0  0  0  0  0  0  0  0
    6.4246   -8.0073   -3.6865 N   0  0  0  0  0  0  0  0  0  0  0  0
   -2.9005    4.8454    1.3162 Cl  0  0  0  0  0  0  0  0  0  0  0  0
   -2.7292   -0.8257   -1.0192 H   0  0  0  0  0  0  0  0  0  0  0  0
  1  6  2  0  0  0  0
  1  2  1  0  0  0  0
  2  3  2  0  0  0  0
  3  4  1  0  0  0  0
  5 10  1  0  0  0  0
  5  4  2  0  0  0  0
  6  5  1  0  0  0  0
  7  1  1  0  0  0  0
  8  2  1  0  0  0  0
  9 13  1  0  0  0  0
 12 11  3  0  0  0  0
 14  6  1  0  0  0  0
M  RAD  2   3   2   4   2
M  END
