Coordinates from ORCA-job Ph-N2-Cl-B3LYPG-6-31G_dp-MTMO-d009-169-n800
 OpenBabel09051908143D

 14 12  0  0  0  0  0  0  0  0999 V2000
   -1.5995   -1.4974   -1.3257 C   0  0  0  0  0  0  0  0  0  0  0  0
   -0.1962   -1.4775   -1.2821 C   0  0  0  0  0  0  0  0  0  0  0  0
    0.3101   -0.3044   -0.7943 C   0  0  0  0  0  0  0  0  0  0  0  0
   -0.2945    0.8303   -0.3504 C   0  0  0  0  0  0  0  0  0  0  0  0
   -1.6988    0.7598   -0.4144 C   0  0  0  0  0  0  0  0  0  0  0  0
   -2.3352   -0.3880   -0.8953 C   0  0  0  0  0  0  0  0  0  0  0  0
   -2.1032   -2.3844   -1.6976 H   0  0  0  0  0  0  0  0  0  0  0  0
    0.4219   -2.3066   -1.6020 H   0  0  0  0  0  0  0  0  0  0  0  0
    0.2754    1.6880    0.0112 H   0  0  0  0  0  0  0  0  0  0  0  0
   -2.2790    1.6154   -0.0824 H   0  0  0  0  0  0  0  0  0  0  0  0
    2.2502   -0.2759   -0.7334 N   0  0  0  0  0  0  0  0  0  0  0  0
    3.0104    0.5026   -0.3965 N   0  0  0  0  0  0  0  0  0  0  0  0
    2.3666    2.5977    0.4402 Cl  0  0  0  0  0  0  0  0  0  0  0  0
   -3.4196   -0.4197   -0.9362 H   0  0  0  0  0  0  0  0  0  0  0  0
  1  2  2  0  0  0  0
  1  6  1  0  0  0  0
  2  3  1  0  0  0  0
  3  4  2  0  0  0  0
  4  9  1  0  0  0  0
  5  4  1  0  0  0  0
  5 10  1  0  0  0  0
  6  5  2  0  0  0  0
  7  1  1  0  0  0  0
  8  2  1  0  0  0  0
 11 12  3  0  0  0  0
 14  6  1  0  0  0  0
M  RAD  2   3   2  13   2
M  END
