Coordinates from ORCA-job Ph-N2-Cl-B3LYPG-6-31G_dp-MTMO-d009-169-n800
 OpenBabel09051908143D

 14 12  0  0  0  0  0  0  0  0999 V2000
   -0.6519   -0.4721   -0.9485 C   0  0  0  0  0  0  0  0  0  0  0  0
    0.3734    0.4410   -0.6030 C   0  0  0  0  0  0  0  0  0  0  0  0
   -0.2250    1.5757   -0.1177 C   0  0  0  0  0  0  0  0  0  0  0  0
   -1.4165    1.9311    0.0651 C   0  0  0  0  0  0  0  0  0  0  0  0
   -2.4629    1.0574   -0.2635 C   0  0  0  0  0  0  0  0  0  0  0  0
   -2.0160   -0.1726   -0.7837 C   0  0  0  0  0  0  0  0  0  0  0  0
   -0.3617   -1.4376   -1.3551 H   0  0  0  0  0  0  0  0  0  0  0  0
    1.4287    0.2303   -0.7227 H   0  0  0  0  0  0  0  0  0  0  0  0
   -1.9583    3.6432    0.7972 H   0  0  0  0  0  0  0  0  0  0  0  0
   -3.5169    1.2833   -0.1376 H   0  0  0  0  0  0  0  0  0  0  0  0
    5.0658   -6.0724   -2.9137 N   0  0  0  0  0  0  0  0  0  0  0  0
    5.7127   -6.8906   -3.2793 N   0  0  0  0  0  0  0  0  0  0  0  0
   -2.5101    4.7421    1.2732 Cl  0  0  0  0  0  0  0  0  0  0  0  0
   -2.7526   -0.9189   -1.0694 H   0  0  0  0  0  0  0  0  0  0  0  0
  1  6  2  0  0  0  0
  1  2  1  0  0  0  0
  2  3  2  0  0  0  0
  3  4  1  0  0  0  0
  5 10  1  0  0  0  0
  5  4  2  0  0  0  0
  6  5  1  0  0  0  0
  7  1  1  0  0  0  0
  8  2  1  0  0  0  0
  9 13  1  0  0  0  0
 12 11  3  0  0  0  0
 14  6  1  0  0  0  0
M  RAD  2   3   2   4   2
M  END
