Coordinates from ORCA-job Ph-N2-Cl-B3LYPG-6-31G_dp-MTMO-d009-169-n800
 OpenBabel09051908143D

 14 12  0  0  0  0  0  0  0  0999 V2000
   -0.7565    0.1526   -0.7646 C   0  0  0  0  0  0  0  0  0  0  0  0
    0.1083    1.2108   -0.3945 C   0  0  0  0  0  0  0  0  0  0  0  0
   -0.6677    2.2356    0.0836 C   0  0  0  0  0  0  0  0  0  0  0  0
   -1.9031    2.4005    0.2438 C   0  0  0  0  0  0  0  0  0  0  0  0
   -2.7956    1.3785   -0.1091 C   0  0  0  0  0  0  0  0  0  0  0  0
   -2.1535    0.2364   -0.6260 C   0  0  0  0  0  0  0  0  0  0  0  0
   -0.3131   -0.7542   -1.1685 H   0  0  0  0  0  0  0  0  0  0  0  0
    1.1859    1.1667   -0.4934 H   0  0  0  0  0  0  0  0  0  0  0  0
   -2.7188    4.0077    0.9703 H   0  0  0  0  0  0  0  0  0  0  0  0
   -3.8742    1.4370   -0.0028 H   0  0  0  0  0  0  0  0  0  0  0  0
    7.0812   -9.0501   -3.9678 N   0  0  0  0  0  0  0  0  0  0  0  0
    7.7190   -9.8732   -4.3383 N   0  0  0  0  0  0  0  0  0  0  0  0
   -3.4431    5.0045    1.4382 Cl  0  0  0  0  0  0  0  0  0  0  0  0
   -2.7601   -0.6129   -0.9296 H   0  0  0  0  0  0  0  0  0  0  0  0
  1  6  2  0  0  0  0
  1  2  1  0  0  0  0
  2  3  2  0  0  0  0
  3  4  1  0  0  0  0
  5 10  1  0  0  0  0
  5  4  2  0  0  0  0
  6  5  1  0  0  0  0
  7  1  1  0  0  0  0
  8  2  1  0  0  0  0
  9 13  1  0  0  0  0
 12 11  3  0  0  0  0
 14  6  1  0  0  0  0
M  RAD  2   3   2   4   2
M  END
