Coordinates from ORCA-job Ph-N2-Cl-B3LYPG-6-31G_dp-MTMO-d009-169-n800
 OpenBabel09051908143D

 14 14  0  0  0  0  0  0  0  0999 V2000
   -1.5238   -1.4844   -1.3158 C   0  0  0  0  0  0  0  0  0  0  0  0
   -0.1364   -1.4059   -1.2510 C   0  0  0  0  0  0  0  0  0  0  0  0
    0.4499   -0.2319   -0.7638 C   0  0  0  0  0  0  0  0  0  0  0  0
   -0.3068    0.8677   -0.3398 C   0  0  0  0  0  0  0  0  0  0  0  0
   -1.6947    0.7646   -0.4151 C   0  0  0  0  0  0  0  0  0  0  0  0
   -2.3005   -0.3993   -0.8980 C   0  0  0  0  0  0  0  0  0  0  0  0
   -1.9972   -2.3862   -1.6903 H   0  0  0  0  0  0  0  0  0  0  0  0
    0.4973   -2.2271   -1.5669 H   0  0  0  0  0  0  0  0  0  0  0  0
    0.1908    1.7559    0.0296 H   0  0  0  0  0  0  0  0  0  0  0  0
   -2.3055    1.6020   -0.0929 H   0  0  0  0  0  0  0  0  0  0  0  0
    1.8902   -0.2383   -0.7325 N   0  0  0  0  0  0  0  0  0  0  0  0
    2.8203    0.4056   -0.4433 N   0  0  0  0  0  0  0  0  0  0  0  0
    2.5085    2.3783    0.3705 Cl  0  0  0  0  0  0  0  0  0  0  0  0
   -3.3837   -0.4609   -0.9496 H   0  0  0  0  0  0  0  0  0  0  0  0
  1  2  2  0  0  0  0
  1  6  1  0  0  0  0
  2  3  1  0  0  0  0
  3 11  1  0  0  0  0
  3  4  2  0  0  0  0
  4  9  1  0  0  0  0
  5  4  1  0  0  0  0
  5 10  1  0  0  0  0
  6  5  2  0  0  0  0
  7  1  1  0  0  0  0
  8  2  1  0  0  0  0
 11 12  2  0  0  0  0
 12 13  1  0  0  0  0
 14  6  1  0  0  0  0
M  END
