Coordinates from ORCA-job Ph-N2-Cl-B3LYPG-6-31G_dp-MTMO-d009-169-n800
 OpenBabel09051908143D

 14 12  0  0  0  0  0  0  0  0999 V2000
   -0.6903   -0.0859   -0.8246 C   0  0  0  0  0  0  0  0  0  0  0  0
    0.2266    0.9295   -0.4600 C   0  0  0  0  0  0  0  0  0  0  0  0
   -0.4968    1.9939    0.0140 C   0  0  0  0  0  0  0  0  0  0  0  0
   -1.7223    2.2211    0.1743 C   0  0  0  0  0  0  0  0  0  0  0  0
   -2.6650    1.2431   -0.1732 C   0  0  0  0  0  0  0  0  0  0  0  0
   -2.0812    0.0680   -0.6853 C   0  0  0  0  0  0  0  0  0  0  0  0
   -0.2928   -1.0152   -1.2251 H   0  0  0  0  0  0  0  0  0  0  0  0
    1.3005    0.8312   -0.5596 H   0  0  0  0  0  0  0  0  0  0  0  0
   -2.4552    3.8714    0.8913 H   0  0  0  0  0  0  0  0  0  0  0  0
   -3.7391    1.3561   -0.0667 H   0  0  0  0  0  0  0  0  0  0  0  0
    6.2720   -7.9030   -3.5705 N   0  0  0  0  0  0  0  0  0  0  0  0
    6.9095   -8.7259   -3.9419 N   0  0  0  0  0  0  0  0  0  0  0  0
   -3.1277    4.9069    1.3529 Cl  0  0  0  0  0  0  0  0  0  0  0  0
   -2.7297   -0.7513   -0.9844 H   0  0  0  0  0  0  0  0  0  0  0  0
  1  6  2  0  0  0  0
  1  2  1  0  0  0  0
  2  3  2  0  0  0  0
  3  4  1  0  0  0  0
  5 10  1  0  0  0  0
  5  4  2  0  0  0  0
  6  5  1  0  0  0  0
  7  1  1  0  0  0  0
  8  2  1  0  0  0  0
  9 13  1  0  0  0  0
 12 11  3  0  0  0  0
 14  6  1  0  0  0  0
M  RAD  2   3   2   4   2
M  END
