Coordinates from ORCA-job Ph-N2-Cl-B3LYPG-6-31G_dp-MTMO-d009-169-n800
 OpenBabel09051908143D

 14 13  0  0  0  0  0  0  0  0999 V2000
   -1.4928   -1.4835   -1.3146 C   0  0  0  0  0  0  0  0  0  0  0  0
   -0.1136   -1.3969   -1.2469 C   0  0  0  0  0  0  0  0  0  0  0  0
    0.5299   -0.2156   -0.7554 C   0  0  0  0  0  0  0  0  0  0  0  0
   -0.3040    0.8772   -0.3356 C   0  0  0  0  0  0  0  0  0  0  0  0
   -1.6834    0.7668   -0.4140 C   0  0  0  0  0  0  0  0  0  0  0  0
   -2.2799   -0.4022   -0.8989 C   0  0  0  0  0  0  0  0  0  0  0  0
   -1.9606   -2.3880   -1.6899 H   0  0  0  0  0  0  0  0  0  0  0  0
    0.5181   -2.2212   -1.5638 H   0  0  0  0  0  0  0  0  0  0  0  0
    0.1843    1.7719    0.0365 H   0  0  0  0  0  0  0  0  0  0  0  0
   -2.3028    1.5990   -0.0944 H   0  0  0  0  0  0  0  0  0  0  0  0
    1.6886   -0.1748   -0.7109 N   0  0  0  0  0  0  0  0  0  0  0  0
    2.7252    0.3219   -0.4804 N   0  0  0  0  0  0  0  0  0  0  0  0
    2.5622    2.3579    0.3634 Cl  0  0  0  0  0  0  0  0  0  0  0  0
   -3.3626   -0.4724   -0.9541 H   0  0  0  0  0  0  0  0  0  0  0  0
  1  2  2  0  0  0  0
  1  6  1  0  0  0  0
  2  3  1  0  0  0  0
  3 11  1  0  0  0  0
  3  4  2  0  0  0  0
  4  9  1  0  0  0  0
  5  4  1  0  0  0  0
  5 10  1  0  0  0  0
  6  5  2  0  0  0  0
  7  1  1  0  0  0  0
  8  2  1  0  0  0  0
 11 12  2  0  0  0  0
 14  6  1  0  0  0  0
M  RAD  2  12   2  13   2
M  END
