Coordinates from ORCA-job Ph-N2-Cl-B3LYPG-6-31G_dp-MTMO-d009-169-n800
 OpenBabel09051908143D

 14 12  0  0  0  0  0  0  0  0999 V2000
   -0.7790    0.2164   -0.7493 C   0  0  0  0  0  0  0  0  0  0  0  0
    0.0737    1.2842   -0.3781 C   0  0  0  0  0  0  0  0  0  0  0  0
   -0.7141    2.2990    0.1019 C   0  0  0  0  0  0  0  0  0  0  0  0
   -1.9512    2.4494    0.2629 C   0  0  0  0  0  0  0  0  0  0  0  0
   -2.8319    1.4175   -0.0910 C   0  0  0  0  0  0  0  0  0  0  0  0
   -2.1768    0.2838   -0.6100 C   0  0  0  0  0  0  0  0  0  0  0  0
   -0.3253   -0.6847   -1.1547 H   0  0  0  0  0  0  0  0  0  0  0  0
    1.1516    1.2527   -0.4775 H   0  0  0  0  0  0  0  0  0  0  0  0
   -2.7853    4.0454    0.9931 H   0  0  0  0  0  0  0  0  0  0  0  0
   -3.9111    1.4633    0.0158 H   0  0  0  0  0  0  0  0  0  0  0  0
    7.3074   -9.3623   -4.0752 N   0  0  0  0  0  0  0  0  0  0  0  0
    7.9452  -10.1853   -4.4458 N   0  0  0  0  0  0  0  0  0  0  0  0
   -3.5209    5.0327    1.4636 Cl  0  0  0  0  0  0  0  0  0  0  0  0
   -2.7736   -0.5721   -0.9145 H   0  0  0  0  0  0  0  0  0  0  0  0
  1  6  2  0  0  0  0
  1  2  1  0  0  0  0
  2  3  2  0  0  0  0
  3  4  1  0  0  0  0
  5 10  1  0  0  0  0
  5  4  2  0  0  0  0
  6  5  1  0  0  0  0
  7  1  1  0  0  0  0
  8  2  1  0  0  0  0
  9 13  1  0  0  0  0
 12 11  3  0  0  0  0
 14  6  1  0  0  0  0
M  RAD  2   3   2   4   2
M  END
