Coordinates from ORCA-job Ph-N2-Cl-B3LYPG-6-31G_dp-MTMO-d009-169-n800
 OpenBabel09051908143D

 14 12  0  0  0  0  0  0  0  0999 V2000
   -0.6567   -0.4095   -0.9285 C   0  0  0  0  0  0  0  0  0  0  0  0
    0.3510    0.5218   -0.5796 C   0  0  0  0  0  0  0  0  0  0  0  0
   -0.2690    1.6454   -0.0956 C   0  0  0  0  0  0  0  0  0  0  0  0
   -1.4674    1.9790    0.0834 C   0  0  0  0  0  0  0  0  0  0  0  0
   -2.4971    1.0870   -0.2487 C   0  0  0  0  0  0  0  0  0  0  0  0
   -2.0264   -0.1345   -0.7680 C   0  0  0  0  0  0  0  0  0  0  0  0
   -0.3478   -1.3695   -1.3344 H   0  0  0  0  0  0  0  0  0  0  0  0
    1.4104    0.3301   -0.6957 H   0  0  0  0  0  0  0  0  0  0  0  0
   -2.0415    3.6831    0.8134 H   0  0  0  0  0  0  0  0  0  0  0  0
   -3.5553    1.2939   -0.1260 H   0  0  0  0  0  0  0  0  0  0  0  0
    5.2638   -6.3730   -3.0203 N   0  0  0  0  0  0  0  0  0  0  0  0
    5.9072   -7.1925   -3.3893 N   0  0  0  0  0  0  0  0  0  0  0  0
   -2.6140    4.7723    1.2869 Cl  0  0  0  0  0  0  0  0  0  0  0  0
   -2.7486   -0.8939   -1.0563 H   0  0  0  0  0  0  0  0  0  0  0  0
  1  6  2  0  0  0  0
  1  2  1  0  0  0  0
  2  3  2  0  0  0  0
  3  4  1  0  0  0  0
  5 10  1  0  0  0  0
  5  4  2  0  0  0  0
  6  5  1  0  0  0  0
  7  1  1  0  0  0  0
  8  2  1  0  0  0  0
  9 13  1  0  0  0  0
 12 11  3  0  0  0  0
 14  6  1  0  0  0  0
M  RAD  2   3   2   4   2
M  END
