Coordinates from ORCA-job Ph-N2-Cl-B3LYPG-6-31G_dp-MTMO-d009-169-n800
 OpenBabel09051908143D

 14 12  0  0  0  0  0  0  0  0999 V2000
   -1.4391   -1.3655   -1.2699 C   0  0  0  0  0  0  0  0  0  0  0  0
   -0.0442   -1.1696   -1.1243 C   0  0  0  0  0  0  0  0  0  0  0  0
    0.1431    0.0850   -0.6049 C   0  0  0  0  0  0  0  0  0  0  0  0
   -0.6169    1.0246   -0.2581 C   0  0  0  0  0  0  0  0  0  0  0  0
   -2.0057    0.8679   -0.3871 C   0  0  0  0  0  0  0  0  0  0  0  0
   -2.3802   -0.3828   -0.9143 C   0  0  0  0  0  0  0  0  0  0  0  0
   -1.7835   -2.3149   -1.6722 H   0  0  0  0  0  0  0  0  0  0  0  0
    0.7017   -1.9072   -1.3900 H   0  0  0  0  0  0  0  0  0  0  0  0
   -0.0340    2.7154    0.4536 H   0  0  0  0  0  0  0  0  0  0  0  0
   -2.7368    1.6219   -0.1140 H   0  0  0  0  0  0  0  0  0  0  0  0
    3.5273   -1.8399   -1.3494 N   0  0  0  0  0  0  0  0  0  0  0  0
    4.6250   -1.7153   -1.3271 N   0  0  0  0  0  0  0  0  0  0  0  0
    0.1887    3.9178    0.9516 Cl  0  0  0  0  0  0  0  0  0  0  0  0
   -3.4369   -0.5975   -1.0527 H   0  0  0  0  0  0  0  0  0  0  0  0
  1  2  2  0  0  0  0
  1  6  1  0  0  0  0
  2  3  1  0  0  0  0
  3  4  2  0  0  0  0
  5  4  1  0  0  0  0
  5 10  1  0  0  0  0
  6  5  2  0  0  0  0
  7  1  1  0  0  0  0
  8  2  1  0  0  0  0
  9 13  1  0  0  0  0
 11 12  3  0  0  0  0
 14  6  1  0  0  0  0
M  RAD  2   3   2   4   2
M  END
