Coordinates from ORCA-job Ph-N2-Cl-B3LYPG-6-31G_dp-MTMO-d009-169-n800
 OpenBabel09051908143D

 14 12  0  0  0  0  0  0  0  0999 V2000
   -0.7675    0.1846   -0.7569 C   0  0  0  0  0  0  0  0  0  0  0  0
    0.0911    1.2477   -0.3862 C   0  0  0  0  0  0  0  0  0  0  0  0
   -0.6909    2.2675    0.0928 C   0  0  0  0  0  0  0  0  0  0  0  0
   -1.9272    2.4249    0.2533 C   0  0  0  0  0  0  0  0  0  0  0  0
   -2.8137    1.3978   -0.1001 C   0  0  0  0  0  0  0  0  0  0  0  0
   -2.1649    0.2600   -0.6180 C   0  0  0  0  0  0  0  0  0  0  0  0
   -0.3188   -0.7193   -1.1615 H   0  0  0  0  0  0  0  0  0  0  0  0
    1.1689    1.2101   -0.4854 H   0  0  0  0  0  0  0  0  0  0  0  0
   -2.7524    4.0264    0.9817 H   0  0  0  0  0  0  0  0  0  0  0  0
   -3.8926    1.4498    0.0064 H   0  0  0  0  0  0  0  0  0  0  0  0
    7.1939   -9.2062   -4.0215 N   0  0  0  0  0  0  0  0  0  0  0  0
    7.8317  -10.0293   -4.3920 N   0  0  0  0  0  0  0  0  0  0  0  0
   -3.4825    5.0184    1.4508 Cl  0  0  0  0  0  0  0  0  0  0  0  0
   -2.7665   -0.5927   -0.9220 H   0  0  0  0  0  0  0  0  0  0  0  0
  1  6  2  0  0  0  0
  1  2  1  0  0  0  0
  2  3  2  0  0  0  0
  3  4  1  0  0  0  0
  5 10  1  0  0  0  0
  5  4  2  0  0  0  0
  6  5  1  0  0  0  0
  7  1  1  0  0  0  0
  8  2  1  0  0  0  0
  9 13  1  0  0  0  0
 12 11  3  0  0  0  0
 14  6  1  0  0  0  0
M  RAD  2   3   2   4   2
M  END
