Coordinates from ORCA-job Ph-N2-Cl-B3LYPG-6-31G_dp-MTMO-d009-169-n800
 OpenBabel09051908143D

 14 12  0  0  0  0  0  0  0  0999 V2000
   -1.6041   -1.4981   -1.3263 C   0  0  0  0  0  0  0  0  0  0  0  0
   -0.2000   -1.4846   -1.2850 C   0  0  0  0  0  0  0  0  0  0  0  0
    0.3054   -0.3123   -0.7974 C   0  0  0  0  0  0  0  0  0  0  0  0
   -0.2887    0.8250   -0.3521 C   0  0  0  0  0  0  0  0  0  0  0  0
   -1.6941    0.7597   -0.4141 C   0  0  0  0  0  0  0  0  0  0  0  0
   -2.3349   -0.3859   -0.8945 C   0  0  0  0  0  0  0  0  0  0  0  0
   -2.1115   -2.3832   -1.6977 H   0  0  0  0  0  0  0  0  0  0  0  0
    0.4148   -2.3157   -1.6059 H   0  0  0  0  0  0  0  0  0  0  0  0
    0.2879    1.6804    0.0087 H   0  0  0  0  0  0  0  0  0  0  0  0
   -2.2703    1.6176   -0.0811 H   0  0  0  0  0  0  0  0  0  0  0  0
    2.2654   -0.2761   -0.7328 N   0  0  0  0  0  0  0  0  0  0  0  0
    3.0151    0.5090   -0.3937 N   0  0  0  0  0  0  0  0  0  0  0  0
    2.3430    2.6179    0.4470 Cl  0  0  0  0  0  0  0  0  0  0  0  0
   -3.4194   -0.4138   -0.9339 H   0  0  0  0  0  0  0  0  0  0  0  0
  1  2  2  0  0  0  0
  1  6  1  0  0  0  0
  2  3  1  0  0  0  0
  3  4  2  0  0  0  0
  4  9  1  0  0  0  0
  5  4  1  0  0  0  0
  5 10  1  0  0  0  0
  6  5  2  0  0  0  0
  7  1  1  0  0  0  0
  8  2  1  0  0  0  0
 11 12  3  0  0  0  0
 14  6  1  0  0  0  0
M  RAD  2   3   2  13   2
M  END
