Coordinates from ORCA-job Ph-N2-Cl-B3LYPG-6-31G_dp-MTMO-d009-169-n800
 OpenBabel09051908143D

 14 13  0  0  0  0  0  0  0  0999 V2000
   -1.4951   -1.4834   -1.3149 C   0  0  0  0  0  0  0  0  0  0  0  0
   -0.1152   -1.3974   -1.2471 C   0  0  0  0  0  0  0  0  0  0  0  0
    0.5239   -0.2175   -0.7558 C   0  0  0  0  0  0  0  0  0  0  0  0
   -0.3033    0.8756   -0.3357 C   0  0  0  0  0  0  0  0  0  0  0  0
   -1.6834    0.7665   -0.4138 C   0  0  0  0  0  0  0  0  0  0  0  0
   -2.2811   -0.4018   -0.8989 C   0  0  0  0  0  0  0  0  0  0  0  0
   -1.9633   -2.3874   -1.6904 H   0  0  0  0  0  0  0  0  0  0  0  0
    0.5163   -2.2217   -1.5640 H   0  0  0  0  0  0  0  0  0  0  0  0
    0.1855    1.7698    0.0364 H   0  0  0  0  0  0  0  0  0  0  0  0
   -2.3017    1.5992   -0.0938 H   0  0  0  0  0  0  0  0  0  0  0  0
    1.7029   -0.1809   -0.7124 N   0  0  0  0  0  0  0  0  0  0  0  0
    2.7309    0.3299   -0.4764 N   0  0  0  0  0  0  0  0  0  0  0  0
    2.5562    2.3598    0.3620 Cl  0  0  0  0  0  0  0  0  0  0  0  0
   -3.3639   -0.4709   -0.9539 H   0  0  0  0  0  0  0  0  0  0  0  0
  1  2  2  0  0  0  0
  1  6  1  0  0  0  0
  2  3  1  0  0  0  0
  3 11  1  0  0  0  0
  3  4  2  0  0  0  0
  4  9  1  0  0  0  0
  5  4  1  0  0  0  0
  5 10  1  0  0  0  0
  6  5  2  0  0  0  0
  7  1  1  0  0  0  0
  8  2  1  0  0  0  0
 11 12  2  0  0  0  0
 14  6  1  0  0  0  0
M  RAD  2  12   2  13   2
M  END
