Coordinates from ORCA-job Ph-N2-Cl-B3LYPG-6-31G_dp-MTMO-d009-169-n800
 OpenBabel09051908143D

 14 12  0  0  0  0  0  0  0  0999 V2000
   -0.6657   -0.2343   -0.8694 C   0  0  0  0  0  0  0  0  0  0  0  0
    0.2896    0.7471   -0.5105 C   0  0  0  0  0  0  0  0  0  0  0  0
   -0.3918    1.8378   -0.0338 C   0  0  0  0  0  0  0  0  0  0  0  0
   -1.6073    2.1098    0.1323 C   0  0  0  0  0  0  0  0  0  0  0  0
   -2.5870    1.1668   -0.2097 C   0  0  0  0  0  0  0  0  0  0  0  0
   -2.0493   -0.0293   -0.7234 C   0  0  0  0  0  0  0  0  0  0  0  0
   -0.3044   -1.1776   -1.2712 H   0  0  0  0  0  0  0  0  0  0  0  0
    1.3586    0.6094   -0.6153 H   0  0  0  0  0  0  0  0  0  0  0  0
   -2.2742    3.7864    0.8523 H   0  0  0  0  0  0  0  0  0  0  0  0
   -3.6557    1.3194   -0.0981 H   0  0  0  0  0  0  0  0  0  0  0  0
    5.7966   -7.1972   -3.3188 N   0  0  0  0  0  0  0  0  0  0  0  0
    6.4331   -8.0205   -3.6912 N   0  0  0  0  0  0  0  0  0  0  0  0
   -2.9050    4.8465    1.3167 Cl  0  0  0  0  0  0  0  0  0  0  0  0
   -2.7289   -0.8245   -1.0185 H   0  0  0  0  0  0  0  0  0  0  0  0
  1  6  2  0  0  0  0
  1  2  1  0  0  0  0
  2  3  2  0  0  0  0
  3  4  1  0  0  0  0
  5 10  1  0  0  0  0
  5  4  2  0  0  0  0
  6  5  1  0  0  0  0
  7  1  1  0  0  0  0
  8  2  1  0  0  0  0
  9 13  1  0  0  0  0
 12 11  3  0  0  0  0
 14  6  1  0  0  0  0
M  RAD  2   3   2   4   2
M  END
