Coordinates from ORCA-job Ph-N2-Cl-B3LYPG-6-31G_dp-MTMO-d009-169-n800
 OpenBabel09051908143D

 14 12  0  0  0  0  0  0  0  0999 V2000
   -0.6563   -0.4205   -0.9322 C   0  0  0  0  0  0  0  0  0  0  0  0
    0.3547    0.5074   -0.5839 C   0  0  0  0  0  0  0  0  0  0  0  0
   -0.2613    1.6331   -0.0996 C   0  0  0  0  0  0  0  0  0  0  0  0
   -1.4584    1.9706    0.0802 C   0  0  0  0  0  0  0  0  0  0  0  0
   -2.4913    1.0821   -0.2512 C   0  0  0  0  0  0  0  0  0  0  0  0
   -2.0250   -0.1411   -0.7708 C   0  0  0  0  0  0  0  0  0  0  0  0
   -0.3509   -1.3816   -1.3382 H   0  0  0  0  0  0  0  0  0  0  0  0
    1.4133    0.3121   -0.7007 H   0  0  0  0  0  0  0  0  0  0  0  0
   -2.0266    3.6764    0.8107 H   0  0  0  0  0  0  0  0  0  0  0  0
   -3.5487    1.2925   -0.1278 H   0  0  0  0  0  0  0  0  0  0  0  0
    5.2300   -6.3207   -3.0016 N   0  0  0  0  0  0  0  0  0  0  0  0
    5.8743   -7.1397   -3.3701 N   0  0  0  0  0  0  0  0  0  0  0  0
   -2.5952    4.7673    1.2848 Cl  0  0  0  0  0  0  0  0  0  0  0  0
   -2.7499   -0.8980   -1.0585 H   0  0  0  0  0  0  0  0  0  0  0  0
  1  6  2  0  0  0  0
  1  2  1  0  0  0  0
  2  3  2  0  0  0  0
  3  4  1  0  0  0  0
  5 10  1  0  0  0  0
  5  4  2  0  0  0  0
  6  5  1  0  0  0  0
  7  1  1  0  0  0  0
  8  2  1  0  0  0  0
  9 13  1  0  0  0  0
 12 11  3  0  0  0  0
 14  6  1  0  0  0  0
M  RAD  2   3   2   4   2
M  END
