Coordinates from ORCA-job Ph-N2-Cl-B3LYPG-6-31G_dp-MTMO-d009-169-n800
 OpenBabel09051908143D

 14 12  0  0  0  0  0  0  0  0999 V2000
   -0.7716   -0.9288   -1.1015 C   0  0  0  0  0  0  0  0  0  0  0  0
    0.4185   -0.2251   -0.7960 C   0  0  0  0  0  0  0  0  0  0  0  0
    0.0588    0.9963   -0.2874 C   0  0  0  0  0  0  0  0  0  0  0  0
   -1.0357    1.5695   -0.0567 C   0  0  0  0  0  0  0  0  0  0  0  0
   -2.2377    0.9063   -0.3453 C   0  0  0  0  0  0  0  0  0  0  0  0
   -2.0486   -0.3811   -0.8833 C   0  0  0  0  0  0  0  0  0  0  0  0
   -0.6824   -1.9282   -1.5193 H   0  0  0  0  0  0  0  0  0  0  0  0
    1.4105   -0.6278   -0.9565 H   0  0  0  0  0  0  0  0  0  0  0  0
   -1.2262    3.3417    0.6781 H   0  0  0  0  0  0  0  0  0  0  0  0
   -3.2253    1.3234   -0.1787 H   0  0  0  0  0  0  0  0  0  0  0  0
    3.9249   -3.9220   -2.1489 N   0  0  0  0  0  0  0  0  0  0  0  0
    4.5911   -4.7355   -2.4895 N   0  0  0  0  0  0  0  0  0  0  0  0
   -1.5457    4.5255    1.1667 Cl  0  0  0  0  0  0  0  0  0  0  0  0
   -2.9220   -0.9744   -1.1405 H   0  0  0  0  0  0  0  0  0  0  0  0
  1  6  2  0  0  0  0
  1  2  1  0  0  0  0
  2  3  2  0  0  0  0
  3  4  1  0  0  0  0
  5 10  1  0  0  0  0
  5  4  2  0  0  0  0
  6  5  1  0  0  0  0
  7  1  1  0  0  0  0
  8  2  1  0  0  0  0
  9 13  1  0  0  0  0
 12 11  3  0  0  0  0
 14  6  1  0  0  0  0
M  RAD  2   3   2   4   2
M  END
