Coordinates from ORCA-job Ph-N2-Cl-B3LYPG-6-31G_dp-MTMO-d009-169-n800
 OpenBabel09051908143D

 14 12  0  0  0  0  0  0  0  0999 V2000
   -0.6559   -0.4372   -0.9376 C   0  0  0  0  0  0  0  0  0  0  0  0
    0.3601    0.4856   -0.5903 C   0  0  0  0  0  0  0  0  0  0  0  0
   -0.2497    1.6144   -0.1055 C   0  0  0  0  0  0  0  0  0  0  0  0
   -1.4449    1.9580    0.0754 C   0  0  0  0  0  0  0  0  0  0  0  0
   -2.4826    1.0747   -0.2549 C   0  0  0  0  0  0  0  0  0  0  0  0
   -2.0230   -0.1508   -0.7749 C   0  0  0  0  0  0  0  0  0  0  0  0
   -0.3557   -1.3998   -1.3438 H   0  0  0  0  0  0  0  0  0  0  0  0
    1.4176    0.2850   -0.7082 H   0  0  0  0  0  0  0  0  0  0  0  0
   -2.0040    3.6662    0.8067 H   0  0  0  0  0  0  0  0  0  0  0  0
   -3.5388    1.2905   -0.1306 H   0  0  0  0  0  0  0  0  0  0  0  0
    5.1792   -6.2423   -2.9736 N   0  0  0  0  0  0  0  0  0  0  0  0
    5.8251   -7.0604   -3.3412 N   0  0  0  0  0  0  0  0  0  0  0  0
   -2.5669    4.7598    1.2815 Cl  0  0  0  0  0  0  0  0  0  0  0  0
   -2.7520   -0.9041   -1.0619 H   0  0  0  0  0  0  0  0  0  0  0  0
  1  6  2  0  0  0  0
  1  2  1  0  0  0  0
  2  3  2  0  0  0  0
  3  4  1  0  0  0  0
  5 10  1  0  0  0  0
  5  4  2  0  0  0  0
  6  5  1  0  0  0  0
  7  1  1  0  0  0  0
  8  2  1  0  0  0  0
  9 13  1  0  0  0  0
 12 11  3  0  0  0  0
 14  6  1  0  0  0  0
M  RAD  2   3   2   4   2
M  END
