Coordinates from ORCA-job Ph-N2-Cl-B3LYPG-6-31G_dp-MTMO-d009-169-n800
 OpenBabel09051908143D

 14 13  0  0  0  0  0  0  0  0999 V2000
   -1.3857   -1.5012   -1.0841 C   0  0  0  0  0  0  0  0  0  0  0  0
   -0.0314   -1.2727   -1.1703 C   0  0  0  0  0  0  0  0  0  0  0  0
    0.5551    0.0653   -0.9324 C   0  0  0  0  0  0  0  0  0  0  0  0
   -0.4588    1.1038   -0.6288 C   0  0  0  0  0  0  0  0  0  0  0  0
   -1.8063    0.8242   -0.6146 C   0  0  0  0  0  0  0  0  0  0  0  0
   -2.2959   -0.4698   -0.8255 C   0  0  0  0  0  0  0  0  0  0  0  0
   -1.7426   -2.5157   -1.2380 H   0  0  0  0  0  0  0  0  0  0  0  0
    0.6852   -2.0684   -1.3443 H   0  0  0  0  0  0  0  0  0  0  0  0
   -0.0631    2.1022   -0.4790 H   0  0  0  0  0  0  0  0  0  0  0  0
   -2.4942    1.6414   -0.4162 H   0  0  0  0  0  0  0  0  0  0  0  0
    1.4777    0.2443   -0.9506 N   0  0  0  0  0  0  0  0  0  0  0  0
    2.6202    0.5160   -0.8628 N   0  0  0  0  0  0  0  0  0  0  0  0
    3.0091    0.9411    1.2756 Cl  0  0  0  0  0  0  0  0  0  0  0  0
   -3.3607   -0.6705   -0.7879 H   0  0  0  0  0  0  0  0  0  0  0  0
  1  6  1  0  0  0  0
  2  1  2  0  0  0  0
  2  3  1  0  0  0  0
  3  4  2  0  0  0  0
  4  5  1  0  0  0  0
  4  9  1  0  0  0  0
  5 10  1  0  0  0  0
  6 14  1  0  0  0  0
  6  5  2  0  0  0  0
  7  1  1  0  0  0  0
  8  2  1  0  0  0  0
 11  3  1  0  0  0  0
 11 12  1  0  0  0  0
M  RAD  3  11   2  12   3  13   2
M  END
