Coordinates from ORCA-job Ph-N2-Cl-B3LYPG-6-31G_dp-MTMO-d009-169-n800
 OpenBabel09051908143D

 14 12  0  0  0  0  0  0  0  0999 V2000
   -0.7378    0.0934   -0.7789 C   0  0  0  0  0  0  0  0  0  0  0  0
    0.1392    1.1420   -0.4100 C   0  0  0  0  0  0  0  0  0  0  0  0
   -0.6250    2.1763    0.0667 C   0  0  0  0  0  0  0  0  0  0  0  0
   -1.8584    2.3557    0.2263 C   0  0  0  0  0  0  0  0  0  0  0  0
   -2.7627    1.3436   -0.1254 C   0  0  0  0  0  0  0  0  0  0  0  0
   -2.1337    0.1936   -0.6407 C   0  0  0  0  0  0  0  0  0  0  0  0
   -0.3048   -0.8190   -1.1817 H   0  0  0  0  0  0  0  0  0  0  0  0
    1.2161    1.0852   -0.5086 H   0  0  0  0  0  0  0  0  0  0  0  0
   -2.6556    3.9736    0.9497 H   0  0  0  0  0  0  0  0  0  0  0  0
   -3.8405    1.4148   -0.0195 H   0  0  0  0  0  0  0  0  0  0  0  0
    6.8761   -8.7636   -3.8692 N   0  0  0  0  0  0  0  0  0  0  0  0
    7.5140   -9.5867   -4.2397 N   0  0  0  0  0  0  0  0  0  0  0  0
   -3.3684    4.9798    1.4154 Cl  0  0  0  0  0  0  0  0  0  0  0  0
   -2.7501   -0.6490   -0.9433 H   0  0  0  0  0  0  0  0  0  0  0  0
  1  6  2  0  0  0  0
  1  2  1  0  0  0  0
  2  3  2  0  0  0  0
  3  4  1  0  0  0  0
  5 10  1  0  0  0  0
  5  4  2  0  0  0  0
  6  5  1  0  0  0  0
  7  1  1  0  0  0  0
  8  2  1  0  0  0  0
  9 13  1  0  0  0  0
 12 11  3  0  0  0  0
 14  6  1  0  0  0  0
M  RAD  2   3   2   4   2
M  END
