Coordinates from ORCA-job Ph-N2-Cl-B3LYPG-6-31G_dp-MTMO-d009-169-n800
 OpenBabel09051908143D

 14 12  0  0  0  0  0  0  0  0999 V2000
   -0.8243    0.3257   -0.7237 C   0  0  0  0  0  0  0  0  0  0  0  0
    0.0102    1.4071   -0.3506 C   0  0  0  0  0  0  0  0  0  0  0  0
   -0.7944    2.4067    0.1334 C   0  0  0  0  0  0  0  0  0  0  0  0
   -2.0337    2.5351    0.2968 C   0  0  0  0  0  0  0  0  0  0  0  0
   -2.8968    1.4890   -0.0588 C   0  0  0  0  0  0  0  0  0  0  0  0
   -2.2229    0.3684   -0.5820 C   0  0  0  0  0  0  0  0  0  0  0  0
   -0.3557   -0.5662   -1.1322 H   0  0  0  0  0  0  0  0  0  0  0  0
    1.0884    1.3948   -0.4518 H   0  0  0  0  0  0  0  0  0  0  0  0
   -2.8941    4.1134    1.0345 H   0  0  0  0  0  0  0  0  0  0  0  0
   -3.9764    1.5156    0.0498 H   0  0  0  0  0  0  0  0  0  0  0  0
    7.7106   -9.9081   -4.2622 N   0  0  0  0  0  0  0  0  0  0  0  0
    8.3489  -10.7304   -4.6338 N   0  0  0  0  0  0  0  0  0  0  0  0
   -3.6460    5.0858    1.5102 Cl  0  0  0  0  0  0  0  0  0  0  0  0
   -2.8051   -0.4969   -0.8882 H   0  0  0  0  0  0  0  0  0  0  0  0
  1  6  2  0  0  0  0
  1  2  1  0  0  0  0
  2  3  2  0  0  0  0
  3  4  1  0  0  0  0
  5 10  1  0  0  0  0
  5  4  2  0  0  0  0
  6  5  1  0  0  0  0
  7  1  1  0  0  0  0
  8  2  1  0  0  0  0
  9 13  1  0  0  0  0
 12 11  3  0  0  0  0
 14  6  1  0  0  0  0
M  RAD  2   3   2   4   2
M  END
