Coordinates from ORCA-job Ph-N2-Cl-B3LYPG-6-31G_dp-MTMO-d009-169-n800
 OpenBabel09051908143D

 14 12  0  0  0  0  0  0  0  0999 V2000
   -0.7988   -0.9853   -1.1205 C   0  0  0  0  0  0  0  0  0  0  0  0
    0.4129   -0.3158   -0.8225 C   0  0  0  0  0  0  0  0  0  0  0  0
    0.0907    0.9149   -0.3112 C   0  0  0  0  0  0  0  0  0  0  0  0
   -0.9853    1.5194   -0.0731 C   0  0  0  0  0  0  0  0  0  0  0  0
   -2.2074    0.8903   -0.3545 C   0  0  0  0  0  0  0  0  0  0  0  0
   -2.0582   -0.4017   -0.8940 C   0  0  0  0  0  0  0  0  0  0  0  0
   -0.7406   -1.9866   -1.5389 H   0  0  0  0  0  0  0  0  0  0  0  0
    1.3918   -0.7469   -0.9899 H   0  0  0  0  0  0  0  0  0  0  0  0
   -1.1219    3.2956    0.6599 H   0  0  0  0  0  0  0  0  0  0  0  0
   -3.1817    1.3353   -0.1816 H   0  0  0  0  0  0  0  0  0  0  0  0
    3.7784   -3.6573   -2.0520 N   0  0  0  0  0  0  0  0  0  0  0  0
    4.4837   -4.4410   -2.3832 N   0  0  0  0  0  0  0  0  0  0  0  0
   -1.4050    4.4888    1.1485 Cl  0  0  0  0  0  0  0  0  0  0  0  0
   -2.9498   -0.9698   -1.1458 H   0  0  0  0  0  0  0  0  0  0  0  0
  1  6  2  0  0  0  0
  1  2  1  0  0  0  0
  2  3  2  0  0  0  0
  3  4  1  0  0  0  0
  5 10  1  0  0  0  0
  5  4  2  0  0  0  0
  6  5  1  0  0  0  0
  7  1  1  0  0  0  0
  8  2  1  0  0  0  0
  9 13  1  0  0  0  0
 12 11  3  0  0  0  0
 14  6  1  0  0  0  0
M  RAD  2   3   2   4   2
M  END
