Coordinates from ORCA-job Ph-N2-Cl-B3LYPG-6-31G_dp-MTMO-d009-169-n800
 OpenBabel09051908143D

 14 12  0  0  0  0  0  0  0  0999 V2000
   -0.7850    0.2322   -0.7456 C   0  0  0  0  0  0  0  0  0  0  0  0
    0.0648    1.3021   -0.3740 C   0  0  0  0  0  0  0  0  0  0  0  0
   -0.7256    2.3147    0.1064 C   0  0  0  0  0  0  0  0  0  0  0  0
   -1.9632    2.4616    0.2677 C   0  0  0  0  0  0  0  0  0  0  0  0
   -2.8411    1.4274   -0.0865 C   0  0  0  0  0  0  0  0  0  0  0  0
   -2.1830    0.2957   -0.6060 C   0  0  0  0  0  0  0  0  0  0  0  0
   -0.3289   -0.6675   -1.1513 H   0  0  0  0  0  0  0  0  0  0  0  0
    1.1428    1.2737   -0.4737 H   0  0  0  0  0  0  0  0  0  0  0  0
   -2.8014    4.0549    0.9989 H   0  0  0  0  0  0  0  0  0  0  0  0
   -3.9203    1.4702    0.0205 H   0  0  0  0  0  0  0  0  0  0  0  0
    7.3644   -9.4403   -4.1019 N   0  0  0  0  0  0  0  0  0  0  0  0
    8.0023  -10.2633   -4.4727 N   0  0  0  0  0  0  0  0  0  0  0  0
   -3.5396    5.0400    1.4701 Cl  0  0  0  0  0  0  0  0  0  0  0  0
   -2.7775   -0.5617   -0.9108 H   0  0  0  0  0  0  0  0  0  0  0  0
  1  6  2  0  0  0  0
  1  2  1  0  0  0  0
  2  3  2  0  0  0  0
  3  4  1  0  0  0  0
  5 10  1  0  0  0  0
  5  4  2  0  0  0  0
  6  5  1  0  0  0  0
  7  1  1  0  0  0  0
  8  2  1  0  0  0  0
  9 13  1  0  0  0  0
 12 11  3  0  0  0  0
 14  6  1  0  0  0  0
M  RAD  2   3   2   4   2
M  END
