Coordinates from ORCA-job Ph-N2-Cl-B3LYPG-6-31G_dp-MTMO-d009-169-n800
 OpenBabel09051908143D

 14 12  0  0  0  0  0  0  0  0999 V2000
   -0.8192   -1.0233   -1.1367 C   0  0  0  0  0  0  0  0  0  0  0  0
    0.4074   -0.3778   -0.8469 C   0  0  0  0  0  0  0  0  0  0  0  0
    0.1123    0.8582   -0.3320 C   0  0  0  0  0  0  0  0  0  0  0  0
   -0.9498    1.4837   -0.0854 C   0  0  0  0  0  0  0  0  0  0  0  0
   -2.1857    0.8782   -0.3586 C   0  0  0  0  0  0  0  0  0  0  0  0
   -2.0654   -0.4158   -0.9004 C   0  0  0  0  0  0  0  0  0  0  0  0
   -0.7834   -2.0250   -1.5566 H   0  0  0  0  0  0  0  0  0  0  0  0
    1.3763   -0.8282   -1.0221 H   0  0  0  0  0  0  0  0  0  0  0  0
   -1.0470    3.2610    0.6482 H   0  0  0  0  0  0  0  0  0  0  0  0
   -3.1499    1.3417   -0.1782 H   0  0  0  0  0  0  0  0  0  0  0  0
    3.6695   -3.4724   -1.9963 N   0  0  0  0  0  0  0  0  0  0  0  0
    4.4164   -4.2337   -2.2862 N   0  0  0  0  0  0  0  0  0  0  0  0
   -1.3035    4.4596    1.1387 Cl  0  0  0  0  0  0  0  0  0  0  0  0
   -2.9696   -0.9663   -1.1463 H   0  0  0  0  0  0  0  0  0  0  0  0
  1  6  2  0  0  0  0
  1  2  1  0  0  0  0
  2  3  2  0  0  0  0
  3  4  1  0  0  0  0
  5 10  1  0  0  0  0
  5  4  2  0  0  0  0
  6  5  1  0  0  0  0
  7  1  1  0  0  0  0
  8  2  1  0  0  0  0
  9 13  1  0  0  0  0
 12 11  3  0  0  0  0
 14  6  1  0  0  0  0
M  RAD  2   3   2   4   2
M  END
