Coordinates from ORCA-job Ph-N2-Cl-B3LYPG-6-31G_dp-MTMO-d009-169-n800
 OpenBabel09051908143D

 14 12  0  0  0  0  0  0  0  0999 V2000
   -0.6542   -0.4672   -0.9472 C   0  0  0  0  0  0  0  0  0  0  0  0
    0.3705    0.4467   -0.6017 C   0  0  0  0  0  0  0  0  0  0  0  0
   -0.2294    1.5804   -0.1163 C   0  0  0  0  0  0  0  0  0  0  0  0
   -1.4209    1.9358    0.0670 C   0  0  0  0  0  0  0  0  0  0  0  0
   -2.4663    1.0607   -0.2619 C   0  0  0  0  0  0  0  0  0  0  0  0
   -2.0185   -0.1688   -0.7824 C   0  0  0  0  0  0  0  0  0  0  0  0
   -0.3630   -1.4323   -1.3540 H   0  0  0  0  0  0  0  0  0  0  0  0
    1.4260    0.2372   -0.7214 H   0  0  0  0  0  0  0  0  0  0  0  0
   -1.9631    3.6466    0.7989 H   0  0  0  0  0  0  0  0  0  0  0  0
   -3.5205    1.2853   -0.1362 H   0  0  0  0  0  0  0  0  0  0  0  0
    5.0851   -6.0984   -2.9225 N   0  0  0  0  0  0  0  0  0  0  0  0
    5.7331   -6.9157   -3.2882 N   0  0  0  0  0  0  0  0  0  0  0  0
   -2.5154    4.7453    1.2752 Cl  0  0  0  0  0  0  0  0  0  0  0  0
   -2.7546   -0.9156   -1.0681 H   0  0  0  0  0  0  0  0  0  0  0  0
  1  6  2  0  0  0  0
  1  2  1  0  0  0  0
  2  3  2  0  0  0  0
  3  4  1  0  0  0  0
  5 10  1  0  0  0  0
  5  4  2  0  0  0  0
  6  5  1  0  0  0  0
  7  1  1  0  0  0  0
  8  2  1  0  0  0  0
  9 13  1  0  0  0  0
 12 11  3  0  0  0  0
 14  6  1  0  0  0  0
M  RAD  2   3   2   4   2
M  END
