Coordinates from ORCA-job Ph-N2-Cl-B3LYPG-6-31G_dp-MTMO-d009-169-n800
 OpenBabel09051908143D

 14 12  0  0  0  0  0  0  0  0999 V2000
   -1.6616   -1.4985   -1.3274 C   0  0  0  0  0  0  0  0  0  0  0  0
   -0.2489   -1.5759   -1.3226 C   0  0  0  0  0  0  0  0  0  0  0  0
    0.2219   -0.3910   -0.8312 C   0  0  0  0  0  0  0  0  0  0  0  0
   -0.2714    0.6909   -0.4060 C   0  0  0  0  0  0  0  0  0  0  0  0
   -1.6777    0.7847   -0.4042 C   0  0  0  0  0  0  0  0  0  0  0  0
   -2.3485   -0.3546   -0.8824 C   0  0  0  0  0  0  0  0  0  0  0  0
   -2.2215   -2.3572   -1.6891 H   0  0  0  0  0  0  0  0  0  0  0  0
    0.3151   -2.4370   -1.6565 H   0  0  0  0  0  0  0  0  0  0  0  0
    0.6489    2.1224    0.1977 H   0  0  0  0  0  0  0  0  0  0  0  0
   -2.2161    1.6634   -0.0622 H   0  0  0  0  0  0  0  0  0  0  0  0
    2.7354   -0.5964   -0.8528 N   0  0  0  0  0  0  0  0  0  0  0  0
    3.6086    0.0216   -0.5725 N   0  0  0  0  0  0  0  0  0  0  0  0
    1.2595    3.2209    0.6606 Cl  0  0  0  0  0  0  0  0  0  0  0  0
   -3.4352   -0.3533   -0.9101 H   0  0  0  0  0  0  0  0  0  0  0  0
  1  2  2  0  0  0  0
  1  6  1  0  0  0  0
  2  3  1  0  0  0  0
  3  4  2  0  0  0  0
  4  5  1  0  0  0  0
  5 10  1  0  0  0  0
  6  5  2  0  0  0  0
  7  1  1  0  0  0  0
  8  2  1  0  0  0  0
  9 13  1  0  0  0  0
 11 12  3  0  0  0  0
 14  6  1  0  0  0  0
M  RAD  2   3   2   4   2
M  END
