Coordinates from ORCA-job Ph-N2-Cl-B3LYPG-6-31G_dp-MTMO-d009-169-n800
 OpenBabel09051908143D

 14 12  0  0  0  0  0  0  0  0999 V2000
   -0.7561    0.1497   -0.7656 C   0  0  0  0  0  0  0  0  0  0  0  0
    0.1096    1.2074   -0.3955 C   0  0  0  0  0  0  0  0  0  0  0  0
   -0.6660    2.2325    0.0827 C   0  0  0  0  0  0  0  0  0  0  0  0
   -1.9012    2.3988    0.2432 C   0  0  0  0  0  0  0  0  0  0  0  0
   -2.7942    1.3770   -0.1097 C   0  0  0  0  0  0  0  0  0  0  0  0
   -2.1529    0.2346   -0.6268 C   0  0  0  0  0  0  0  0  0  0  0  0
   -0.3133   -0.7574   -1.1696 H   0  0  0  0  0  0  0  0  0  0  0  0
    1.1871    1.1630   -0.4943 H   0  0  0  0  0  0  0  0  0  0  0  0
   -2.7153    4.0062    0.9697 H   0  0  0  0  0  0  0  0  0  0  0  0
   -3.8727    1.4360   -0.0035 H   0  0  0  0  0  0  0  0  0  0  0  0
    7.0723   -9.0371   -3.9632 N   0  0  0  0  0  0  0  0  0  0  0  0
    7.7102   -9.8602   -4.3336 N   0  0  0  0  0  0  0  0  0  0  0  0
   -3.4388    5.0036    1.4377 Cl  0  0  0  0  0  0  0  0  0  0  0  0
   -2.7602   -0.6143   -0.9303 H   0  0  0  0  0  0  0  0  0  0  0  0
  1  6  2  0  0  0  0
  1  2  1  0  0  0  0
  2  3  2  0  0  0  0
  3  4  1  0  0  0  0
  5 10  1  0  0  0  0
  5  4  2  0  0  0  0
  6  5  1  0  0  0  0
  7  1  1  0  0  0  0
  8  2  1  0  0  0  0
  9 13  1  0  0  0  0
 12 11  3  0  0  0  0
 14  6  1  0  0  0  0
M  RAD  2   3   2   4   2
M  END
