Coordinates from ORCA-job Ph-N2-Cl-B3LYPG-6-31G_dp-MTMO-d009-169-n800
 OpenBabel09051908143D

 14 12  0  0  0  0  0  0  0  0999 V2000
   -0.6483   -0.5092   -0.9616 C   0  0  0  0  0  0  0  0  0  0  0  0
    0.3872    0.3933   -0.6185 C   0  0  0  0  0  0  0  0  0  0  0  0
   -0.1991    1.5336   -0.1316 C   0  0  0  0  0  0  0  0  0  0  0  0
   -1.3861    1.9021    0.0545 C   0  0  0  0  0  0  0  0  0  0  0  0
   -2.4418    1.0385   -0.2721 C   0  0  0  0  0  0  0  0  0  0  0  0
   -2.0089   -0.1958   -0.7936 C   0  0  0  0  0  0  0  0  0  0  0  0
   -0.3687   -1.4775   -1.3691 H   0  0  0  0  0  0  0  0  0  0  0  0
    1.4400    0.1723   -0.7405 H   0  0  0  0  0  0  0  0  0  0  0  0
   -1.9080    3.6178    0.7879 H   0  0  0  0  0  0  0  0  0  0  0  0
   -3.4932    1.2748   -0.1439 H   0  0  0  0  0  0  0  0  0  0  0  0
    4.9465   -5.8884   -2.8472 N   0  0  0  0  0  0  0  0  0  0  0  0
    5.5906   -6.7094   -3.2115 N   0  0  0  0  0  0  0  0  0  0  0  0
   -2.4476    4.7222    1.2660 Cl  0  0  0  0  0  0  0  0  0  0  0  0
   -2.7538   -0.9344   -1.0776 H   0  0  0  0  0  0  0  0  0  0  0  0
  1  6  2  0  0  0  0
  1  2  1  0  0  0  0
  2  3  2  0  0  0  0
  3  4  1  0  0  0  0
  5 10  1  0  0  0  0
  5  4  2  0  0  0  0
  6  5  1  0  0  0  0
  7  1  1  0  0  0  0
  8  2  1  0  0  0  0
  9 13  1  0  0  0  0
 12 11  3  0  0  0  0
 14  6  1  0  0  0  0
M  RAD  2   3   2   4   2
M  END
