Coordinates from ORCA-job Ph-N2-Cl-B3LYPG-6-31G_dp-MTMO-d009-169-n800
 OpenBabel09051908143D

 14 12  0  0  0  0  0  0  0  0999 V2000
   -0.7087   -0.0126   -0.8055 C   0  0  0  0  0  0  0  0  0  0  0  0
    0.1916    1.0169   -0.4390 C   0  0  0  0  0  0  0  0  0  0  0  0
   -0.5494    2.0689    0.0359 C   0  0  0  0  0  0  0  0  0  0  0  0
   -1.7784    2.2765    0.1957 C   0  0  0  0  0  0  0  0  0  0  0  0
   -2.7048    1.2838   -0.1538 C   0  0  0  0  0  0  0  0  0  0  0  0
   -2.1020    0.1190   -0.6670 C   0  0  0  0  0  0  0  0  0  0  0  0
   -0.2962   -0.9350   -1.2067 H   0  0  0  0  0  0  0  0  0  0  0  0
    1.2670    0.9365   -0.5377 H   0  0  0  0  0  0  0  0  0  0  0  0
   -2.5382    3.9135    0.9146 H   0  0  0  0  0  0  0  0  0  0  0  0
   -3.7808    1.3790   -0.0479 H   0  0  0  0  0  0  0  0  0  0  0  0
    6.5178   -8.2552   -3.6932 N   0  0  0  0  0  0  0  0  0  0  0  0
    7.1558   -9.0781   -4.0641 N   0  0  0  0  0  0  0  0  0  0  0  0
   -3.2279    4.9370    1.3775 Cl  0  0  0  0  0  0  0  0  0  0  0  0
   -2.7371   -0.7103   -0.9676 H   0  0  0  0  0  0  0  0  0  0  0  0
  1  6  2  0  0  0  0
  1  2  1  0  0  0  0
  2  3  2  0  0  0  0
  3  4  1  0  0  0  0
  5 10  1  0  0  0  0
  5  4  2  0  0  0  0
  6  5  1  0  0  0  0
  7  1  1  0  0  0  0
  8  2  1  0  0  0  0
  9 13  1  0  0  0  0
 12 11  3  0  0  0  0
 14  6  1  0  0  0  0
M  RAD  2   3   2   4   2
M  END
