Coordinates from ORCA-job Ph-N2-Cl-B3LYPG-6-31G_dp-MTMO-d009-169-n800
 OpenBabel09051908143D

 14 12  0  0  0  0  0  0  0  0999 V2000
   -0.8260    0.3281   -0.7235 C   0  0  0  0  0  0  0  0  0  0  0  0
    0.0085    1.4096   -0.3504 C   0  0  0  0  0  0  0  0  0  0  0  0
   -0.7965    2.4087    0.1341 C   0  0  0  0  0  0  0  0  0  0  0  0
   -2.0357    2.5374    0.2979 C   0  0  0  0  0  0  0  0  0  0  0  0
   -2.8985    1.4909   -0.0580 C   0  0  0  0  0  0  0  0  0  0  0  0
   -2.2244    0.3706   -0.5815 C   0  0  0  0  0  0  0  0  0  0  0  0
   -0.3573   -0.5637   -1.1323 H   0  0  0  0  0  0  0  0  0  0  0  0
    1.0866    1.3980   -0.4515 H   0  0  0  0  0  0  0  0  0  0  0  0
   -2.8958    4.1150    1.0359 H   0  0  0  0  0  0  0  0  0  0  0  0
   -3.9780    1.5170    0.0507 H   0  0  0  0  0  0  0  0  0  0  0  0
    7.7208   -9.9212   -4.2664 N   0  0  0  0  0  0  0  0  0  0  0  0
    8.3592  -10.7434   -4.6380 N   0  0  0  0  0  0  0  0  0  0  0  0
   -3.6477    5.0874    1.5121 Cl  0  0  0  0  0  0  0  0  0  0  0  0
   -2.8066   -0.4947   -0.8878 H   0  0  0  0  0  0  0  0  0  0  0  0
  1  6  2  0  0  0  0
  1  2  1  0  0  0  0
  2  3  2  0  0  0  0
  3  4  1  0  0  0  0
  5 10  1  0  0  0  0
  5  4  2  0  0  0  0
  6  5  1  0  0  0  0
  7  1  1  0  0  0  0
  8  2  1  0  0  0  0
  9 13  1  0  0  0  0
 12 11  3  0  0  0  0
 14  6  1  0  0  0  0
M  RAD  2   3   2   4   2
M  END
