Coordinates from ORCA-job Ph-N2-Cl-B3LYPG-6-31G_dp-MTMO-d009-169-n800
 OpenBabel09051908143D

 14 12  0  0  0  0  0  0  0  0999 V2000
   -1.3730   -1.3357   -1.2610 C   0  0  0  0  0  0  0  0  0  0  0  0
    0.0119   -1.0848   -1.1043 C   0  0  0  0  0  0  0  0  0  0  0  0
    0.1444    0.1751   -0.5812 C   0  0  0  0  0  0  0  0  0  0  0  0
   -0.6546    1.0833   -0.2385 C   0  0  0  0  0  0  0  0  0  0  0  0
   -2.0351    0.8714   -0.3787 C   0  0  0  0  0  0  0  0  0  0  0  0
   -2.3554   -0.3921   -0.9110 C   0  0  0  0  0  0  0  0  0  0  0  0
   -1.6762   -2.2971   -1.6677 H   0  0  0  0  0  0  0  0  0  0  0  0
    0.7886   -1.7916   -1.3652 H   0  0  0  0  0  0  0  0  0  0  0  0
   -0.1460    2.7941    0.4796 H   0  0  0  0  0  0  0  0  0  0  0  0
   -2.7978    1.5949   -0.1099 H   0  0  0  0  0  0  0  0  0  0  0  0
    3.5372   -2.0145   -1.4189 N   0  0  0  0  0  0  0  0  0  0  0  0
    4.6422   -2.0182   -1.4250 N   0  0  0  0  0  0  0  0  0  0  0  0
    0.0237    4.0038    0.9811 Cl  0  0  0  0  0  0  0  0  0  0  0  0
   -3.4014   -0.6486   -1.0581 H   0  0  0  0  0  0  0  0  0  0  0  0
  1  2  2  0  0  0  0
  1  6  1  0  0  0  0
  2  3  1  0  0  0  0
  3  4  2  0  0  0  0
  5  4  1  0  0  0  0
  5 10  1  0  0  0  0
  6  5  2  0  0  0  0
  7  1  1  0  0  0  0
  8  2  1  0  0  0  0
  9 13  1  0  0  0  0
 12 11  3  0  0  0  0
 14  6  1  0  0  0  0
M  RAD  2   3   2   4   2
M  END
