Coordinates from ORCA-job Ph-N2-Cl-B3LYPG-6-31G_dp-MTMO-d009-169-n800
 OpenBabel09051908143D

 14 12  0  0  0  0  0  0  0  0999 V2000
   -1.4040   -1.3500   -1.2656 C   0  0  0  0  0  0  0  0  0  0  0  0
   -0.0141   -1.1249   -1.1148 C   0  0  0  0  0  0  0  0  0  0  0  0
    0.1444    0.1327   -0.5931 C   0  0  0  0  0  0  0  0  0  0  0  0
   -0.6363    1.0557   -0.2479 C   0  0  0  0  0  0  0  0  0  0  0  0
   -2.0211    0.8696   -0.3821 C   0  0  0  0  0  0  0  0  0  0  0  0
   -2.3671   -0.3881   -0.9122 C   0  0  0  0  0  0  0  0  0  0  0  0
   -1.7268   -2.3059   -1.6704 H   0  0  0  0  0  0  0  0  0  0  0  0
    0.7484   -1.8460   -1.3784 H   0  0  0  0  0  0  0  0  0  0  0  0
   -0.0929    2.7575    0.4672 H   0  0  0  0  0  0  0  0  0  0  0  0
   -2.7690    1.6075   -0.1106 H   0  0  0  0  0  0  0  0  0  0  0  0
    3.5303   -1.9310   -1.3870 N   0  0  0  0  0  0  0  0  0  0  0  0
    4.6339   -1.8764   -1.3762 N   0  0  0  0  0  0  0  0  0  0  0  0
    0.1015    3.9642    0.9671 Cl  0  0  0  0  0  0  0  0  0  0  0  0
   -3.4184   -0.6250   -1.0548 H   0  0  0  0  0  0  0  0  0  0  0  0
  1  2  2  0  0  0  0
  1  6  1  0  0  0  0
  2  3  1  0  0  0  0
  3  4  2  0  0  0  0
  5  4  1  0  0  0  0
  5 10  1  0  0  0  0
  6  5  2  0  0  0  0
  7  1  1  0  0  0  0
  8  2  1  0  0  0  0
  9 13  1  0  0  0  0
 11 12  3  0  0  0  0
 14  6  1  0  0  0  0
M  RAD  2   3   2   4   2
M  END
