Coordinates from ORCA-job Ph-N2-Cl-B3LYPG-6-31G_dp-MTMO-d009-169-n800
 OpenBabel09051908143D

 14 12  0  0  0  0  0  0  0  0999 V2000
   -0.7533   -0.8836   -1.0867 C   0  0  0  0  0  0  0  0  0  0  0  0
    0.4201   -0.1545   -0.7759 C   0  0  0  0  0  0  0  0  0  0  0  0
    0.0324    1.0591   -0.2694 C   0  0  0  0  0  0  0  0  0  0  0  0
   -1.0754    1.6084   -0.0439 C   0  0  0  0  0  0  0  0  0  0  0  0
   -2.2617    0.9199   -0.3376 C   0  0  0  0  0  0  0  0  0  0  0  0
   -2.0426   -0.3633   -0.8744 C   0  0  0  0  0  0  0  0  0  0  0  0
   -0.6409   -1.8809   -1.5037 H   0  0  0  0  0  0  0  0  0  0  0  0
    1.4213   -0.5357   -0.9318 H   0  0  0  0  0  0  0  0  0  0  0  0
   -1.3061    3.3767    0.6921 H   0  0  0  0  0  0  0  0  0  0  0  0
   -3.2587    1.3158   -0.1754 H   0  0  0  0  0  0  0  0  0  0  0  0
    4.0364   -4.1394   -2.2264 N   0  0  0  0  0  0  0  0  0  0  0  0
    4.6917   -4.9599   -2.5713 N   0  0  0  0  0  0  0  0  0  0  0  0
   -1.6526    4.5527    1.1807 Cl  0  0  0  0  0  0  0  0  0  0  0  0
   -2.9020   -0.9753   -1.1351 H   0  0  0  0  0  0  0  0  0  0  0  0
  1  6  2  0  0  0  0
  1  2  1  0  0  0  0
  2  3  2  0  0  0  0
  3  4  1  0  0  0  0
  5 10  1  0  0  0  0
  5  4  2  0  0  0  0
  6  5  1  0  0  0  0
  7  1  1  0  0  0  0
  8  2  1  0  0  0  0
  9 13  1  0  0  0  0
 12 11  3  0  0  0  0
 14  6  1  0  0  0  0
M  RAD  2   3   2   4   2
M  END
