Coordinates from ORCA-job Ph-N2-Cl-B3LYPG-6-31G_dp-MTMO-d009-169-n800
 OpenBabel09051908143D

 14 12  0  0  0  0  0  0  0  0999 V2000
   -0.6524   -0.4750   -0.9496 C   0  0  0  0  0  0  0  0  0  0  0  0
    0.3740    0.4371   -0.6044 C   0  0  0  0  0  0  0  0  0  0  0  0
   -0.2238    1.5720   -0.1190 C   0  0  0  0  0  0  0  0  0  0  0  0
   -1.4145    1.9295    0.0646 C   0  0  0  0  0  0  0  0  0  0  0  0
   -2.4616    1.0562   -0.2640 C   0  0  0  0  0  0  0  0  0  0  0  0
   -2.0161   -0.1741   -0.7844 C   0  0  0  0  0  0  0  0  0  0  0  0
   -0.3630   -1.4406   -1.3564 H   0  0  0  0  0  0  0  0  0  0  0  0
    1.4291    0.2258   -0.7243 H   0  0  0  0  0  0  0  0  0  0  0  0
   -1.9535    3.6412    0.7966 H   0  0  0  0  0  0  0  0  0  0  0  0
   -3.5154    1.2827   -0.1380 H   0  0  0  0  0  0  0  0  0  0  0  0
    5.0580   -6.0591   -2.9088 N   0  0  0  0  0  0  0  0  0  0  0  0
    5.7052   -6.8773   -3.2741 N   0  0  0  0  0  0  0  0  0  0  0  0
   -2.5038    4.7409    1.2730 Cl  0  0  0  0  0  0  0  0  0  0  0  0
   -2.7536   -0.9196   -1.0699 H   0  0  0  0  0  0  0  0  0  0  0  0
  1  6  2  0  0  0  0
  1  2  1  0  0  0  0
  2  3  2  0  0  0  0
  3  4  1  0  0  0  0
  5 10  1  0  0  0  0
  5  4  2  0  0  0  0
  6  5  1  0  0  0  0
  7  1  1  0  0  0  0
  8  2  1  0  0  0  0
  9 13  1  0  0  0  0
 12 11  3  0  0  0  0
 14  6  1  0  0  0  0
M  RAD  2   3   2   4   2
M  END
