Coordinates from ORCA-job Ph-N2-Cl-B3LYPG-6-31G_dp-MTMO-d009-169-n800
 OpenBabel09051908143D

 14 12  0  0  0  0  0  0  0  0999 V2000
   -0.8582    0.3942   -0.7088 C   0  0  0  0  0  0  0  0  0  0  0  0
   -0.0325    1.4820   -0.3346 C   0  0  0  0  0  0  0  0  0  0  0  0
   -0.8454    2.4730    0.1533 C   0  0  0  0  0  0  0  0  0  0  0  0
   -2.0854    2.5906    0.3194 C   0  0  0  0  0  0  0  0  0  0  0  0
   -2.9396    1.5375   -0.0375 C   0  0  0  0  0  0  0  0  0  0  0  0
   -2.2567    0.4242   -0.5646 C   0  0  0  0  0  0  0  0  0  0  0  0
   -0.3824   -0.4927   -1.1203 H   0  0  0  0  0  0  0  0  0  0  0  0
    1.0455    1.4800   -0.4375 H   0  0  0  0  0  0  0  0  0  0  0  0
   -2.9580    4.1586    1.0630 H   0  0  0  0  0  0  0  0  0  0  0  0
   -4.0192    1.5540    0.0730 H   0  0  0  0  0  0  0  0  0  0  0  0
    7.9754  -10.2588   -4.3815 N   0  0  0  0  0  0  0  0  0  0  0  0
    8.6143  -11.0801   -4.7540 N   0  0  0  0  0  0  0  0  0  0  0  0
   -3.7175    5.1230    1.5432 Cl  0  0  0  0  0  0  0  0  0  0  0  0
   -2.8318   -0.4455   -0.8719 H   0  0  0  0  0  0  0  0  0  0  0  0
  1  6  2  0  0  0  0
  1  2  1  0  0  0  0
  2  3  2  0  0  0  0
  3  4  1  0  0  0  0
  5 10  1  0  0  0  0
  5  4  2  0  0  0  0
  6  5  1  0  0  0  0
  7  1  1  0  0  0  0
  8  2  1  0  0  0  0
  9 13  1  0  0  0  0
 12 11  3  0  0  0  0
 14  6  1  0  0  0  0
M  RAD  2   3   2   4   2
M  END
