Coordinates from ORCA-job Ph-N2-Cl-B3LYPG-6-31G_dp-MTMO-d009-169-n800
 OpenBabel09051908143D

 14 12  0  0  0  0  0  0  0  0999 V2000
   -0.8011    0.2713   -0.7366 C   0  0  0  0  0  0  0  0  0  0  0  0
    0.0422    1.3461   -0.3645 C   0  0  0  0  0  0  0  0  0  0  0  0
   -0.7546    2.3530    0.1176 C   0  0  0  0  0  0  0  0  0  0  0  0
   -1.9929    2.4925    0.2800 C   0  0  0  0  0  0  0  0  0  0  0  0
   -2.8642    1.4529   -0.0750 C   0  0  0  0  0  0  0  0  0  0  0  0
   -2.1993    0.3259   -0.5961 C   0  0  0  0  0  0  0  0  0  0  0  0
   -0.3397   -0.6251   -1.1436 H   0  0  0  0  0  0  0  0  0  0  0  0
    1.1203    1.3252   -0.4646 H   0  0  0  0  0  0  0  0  0  0  0  0
   -2.8402    4.0790    1.0139 H   0  0  0  0  0  0  0  0  0  0  0  0
   -3.9436    1.4884    0.0326 H   0  0  0  0  0  0  0  0  0  0  0  0
    7.5082   -9.6354   -4.1686 N   0  0  0  0  0  0  0  0  0  0  0  0
    8.1463  -10.4581   -4.5396 N   0  0  0  0  0  0  0  0  0  0  0  0
   -3.5842    5.0588    1.4872 Cl  0  0  0  0  0  0  0  0  0  0  0  0
   -2.7886   -0.5348   -0.9015 H   0  0  0  0  0  0  0  0  0  0  0  0
  1  6  2  0  0  0  0
  1  2  1  0  0  0  0
  2  3  2  0  0  0  0
  3  4  1  0  0  0  0
  5 10  1  0  0  0  0
  5  4  2  0  0  0  0
  6  5  1  0  0  0  0
  7  1  1  0  0  0  0
  8  2  1  0  0  0  0
  9 13  1  0  0  0  0
 12 11  3  0  0  0  0
 14  6  1  0  0  0  0
M  RAD  2   3   2   4   2
M  END
