Coordinates from ORCA-job Ph-N2-Cl-B3LYPG-6-31G_dp-MTMO-d009-169-n800
 OpenBabel09051908143D

 14 12  0  0  0  0  0  0  0  0999 V2000
   -0.7547    0.1472   -0.7659 C   0  0  0  0  0  0  0  0  0  0  0  0
    0.1112    1.2046   -0.3959 C   0  0  0  0  0  0  0  0  0  0  0  0
   -0.6638    2.2302    0.0821 C   0  0  0  0  0  0  0  0  0  0  0  0
   -1.8990    2.3964    0.2422 C   0  0  0  0  0  0  0  0  0  0  0  0
   -2.7926    1.3753   -0.1105 C   0  0  0  0  0  0  0  0  0  0  0  0
   -2.1516    0.2325   -0.6273 C   0  0  0  0  0  0  0  0  0  0  0  0
   -0.3122   -0.7601   -1.1697 H   0  0  0  0  0  0  0  0  0  0  0  0
    1.1887    1.1594   -0.4947 H   0  0  0  0  0  0  0  0  0  0  0  0
   -2.7132    4.0046    0.9684 H   0  0  0  0  0  0  0  0  0  0  0  0
   -3.8711    1.4349   -0.0044 H   0  0  0  0  0  0  0  0  0  0  0  0
    7.0624   -9.0240   -3.9589 N   0  0  0  0  0  0  0  0  0  0  0  0
    7.7003   -9.8472   -4.3293 N   0  0  0  0  0  0  0  0  0  0  0  0
   -3.4365    5.0023    1.4361 Cl  0  0  0  0  0  0  0  0  0  0  0  0
   -2.7591   -0.6162   -0.9308 H   0  0  0  0  0  0  0  0  0  0  0  0
  1  6  2  0  0  0  0
  1  2  1  0  0  0  0
  2  3  2  0  0  0  0
  3  4  1  0  0  0  0
  5 10  1  0  0  0  0
  5  4  2  0  0  0  0
  6  5  1  0  0  0  0
  7  1  1  0  0  0  0
  8  2  1  0  0  0  0
  9 13  1  0  0  0  0
 12 11  3  0  0  0  0
 14  6  1  0  0  0  0
M  RAD  2   3   2   4   2
M  END
