Coordinates from ORCA-job Ph-N2-Cl-B3LYPG-6-31G_dp-MTMO-d009-169-n800
 OpenBabel09051908143D

 14 12  0  0  0  0  0  0  0  0999 V2000
   -0.7088   -0.7449   -1.0395 C   0  0  0  0  0  0  0  0  0  0  0  0
    0.4142    0.0540   -0.7147 C   0  0  0  0  0  0  0  0  0  0  0  0
   -0.0520    1.2430   -0.2154 C   0  0  0  0  0  0  0  0  0  0  0  0
   -1.1944    1.7231   -0.0062 C   0  0  0  0  0  0  0  0  0  0  0  0
   -2.3333    0.9648   -0.3141 C   0  0  0  0  0  0  0  0  0  0  0  0
   -2.0300   -0.3035   -0.8453 C   0  0  0  0  0  0  0  0  0  0  0  0
   -0.5308   -1.7340   -1.4535 H   0  0  0  0  0  0  0  0  0  0  0  0
    1.4385   -0.2660   -0.8571 H   0  0  0  0  0  0  0  0  0  0  0  0
   -1.5399    3.4761    0.7318 H   0  0  0  0  0  0  0  0  0  0  0  0
   -3.3546    1.3001   -0.1658 H   0  0  0  0  0  0  0  0  0  0  0  0
    4.3810   -4.8054   -2.4633 N   0  0  0  0  0  0  0  0  0  0  0  0
    5.0292   -5.6272   -2.8182 N   0  0  0  0  0  0  0  0  0  0  0  0
   -1.9635    4.6268    1.2186 Cl  0  0  0  0  0  0  0  0  0  0  0  0
   -2.8471   -0.9668   -1.1163 H   0  0  0  0  0  0  0  0  0  0  0  0
  1  6  2  0  0  0  0
  1  2  1  0  0  0  0
  2  3  2  0  0  0  0
  3  4  1  0  0  0  0
  5 10  1  0  0  0  0
  5  4  2  0  0  0  0
  6  5  1  0  0  0  0
  7  1  1  0  0  0  0
  8  2  1  0  0  0  0
  9 13  1  0  0  0  0
 12 11  3  0  0  0  0
 14  6  1  0  0  0  0
M  RAD  2   3   2   4   2
M  END
