Coordinates from ORCA-job Ph-N2-Cl-B3LYPG-6-31G_dp-MTMO-d009-169-n800
 OpenBabel09051908143D

 14 12  0  0  0  0  0  0  0  0999 V2000
   -0.8495   -1.0699   -1.1503 C   0  0  0  0  0  0  0  0  0  0  0  0
    0.3955   -0.4573   -0.8667 C   0  0  0  0  0  0  0  0  0  0  0  0
    0.1348    0.7860   -0.3513 C   0  0  0  0  0  0  0  0  0  0  0  0
   -0.9084    1.4409   -0.0996 C   0  0  0  0  0  0  0  0  0  0  0  0
   -2.1611    0.8676   -0.3670 C   0  0  0  0  0  0  0  0  0  0  0  0
   -2.0779   -0.4293   -0.9087 C   0  0  0  0  0  0  0  0  0  0  0  0
   -0.8422   -2.0725   -1.5698 H   0  0  0  0  0  0  0  0  0  0  0  0
    1.3511   -0.9338   -1.0459 H   0  0  0  0  0  0  0  0  0  0  0  0
   -0.9554    3.2188    0.6309 H   0  0  0  0  0  0  0  0  0  0  0  0
   -3.1118    1.3566   -0.1826 H   0  0  0  0  0  0  0  0  0  0  0  0
    3.5617   -3.2550   -1.9198 N   0  0  0  0  0  0  0  0  0  0  0  0
    4.3463   -3.9816   -2.1987 N   0  0  0  0  0  0  0  0  0  0  0  0
   -1.1767    4.4250    1.1210 Cl  0  0  0  0  0  0  0  0  0  0  0  0
   -2.9976   -0.9556   -1.1501 H   0  0  0  0  0  0  0  0  0  0  0  0
  1  6  2  0  0  0  0
  1  2  1  0  0  0  0
  2  3  2  0  0  0  0
  3  4  1  0  0  0  0
  5 10  1  0  0  0  0
  5  4  2  0  0  0  0
  6  5  1  0  0  0  0
  7  1  1  0  0  0  0
  8  2  1  0  0  0  0
  9 13  1  0  0  0  0
 12 11  3  0  0  0  0
 14  6  1  0  0  0  0
M  RAD  2   3   2   4   2
M  END
