Coordinates from ORCA-job Ph-N2-Cl-B3LYPG-6-31G_dp-MTMO-d009-169-n800
 OpenBabel09051908143D

 14 12  0  0  0  0  0  0  0  0999 V2000
   -1.6462   -1.4982   -1.3268 C   0  0  0  0  0  0  0  0  0  0  0  0
   -0.2345   -1.5770   -1.3229 C   0  0  0  0  0  0  0  0  0  0  0  0
    0.2397   -0.3940   -0.8323 C   0  0  0  0  0  0  0  0  0  0  0  0
   -0.2414    0.6962   -0.4036 C   0  0  0  0  0  0  0  0  0  0  0  0
   -1.6502    0.7828   -0.4044 C   0  0  0  0  0  0  0  0  0  0  0  0
   -2.3281   -0.3519   -0.8806 C   0  0  0  0  0  0  0  0  0  0  0  0
   -2.2080   -2.3557   -1.6878 H   0  0  0  0  0  0  0  0  0  0  0  0
    0.3294   -2.4382   -1.6569 H   0  0  0  0  0  0  0  0  0  0  0  0
    0.6507    2.0762    0.1790 H   0  0  0  0  0  0  0  0  0  0  0  0
   -2.1854    1.6635   -0.0616 H   0  0  0  0  0  0  0  0  0  0  0  0
    2.6161   -0.5554   -0.8393 N   0  0  0  0  0  0  0  0  0  0  0  0
    3.4873    0.0653   -0.5574 N   0  0  0  0  0  0  0  0  0  0  0  0
    1.2940    3.1724    0.6421 Cl  0  0  0  0  0  0  0  0  0  0  0  0
   -3.4147   -0.3460   -0.9063 H   0  0  0  0  0  0  0  0  0  0  0  0
  1  2  2  0  0  0  0
  1  6  1  0  0  0  0
  2  3  1  0  0  0  0
  3  4  2  0  0  0  0
  5  4  1  0  0  0  0
  5 10  1  0  0  0  0
  6  5  2  0  0  0  0
  7  1  1  0  0  0  0
  8  2  1  0  0  0  0
  9 13  1  0  0  0  0
 11 12  3  0  0  0  0
 14  6  1  0  0  0  0
M  RAD  2   3   2   4   2
M  END
