Coordinates from ORCA-job Ph-N2-Cl-B3LYPG-6-31G_dp-MTMO-d009-169-n800
 OpenBabel09051908143D

 14 12  0  0  0  0  0  0  0  0999 V2000
   -0.7926    0.2504   -0.7416 C   0  0  0  0  0  0  0  0  0  0  0  0
    0.0542    1.3226   -0.3697 C   0  0  0  0  0  0  0  0  0  0  0  0
   -0.7393    2.3324    0.1116 C   0  0  0  0  0  0  0  0  0  0  0  0
   -1.9771    2.4762    0.2735 C   0  0  0  0  0  0  0  0  0  0  0  0
   -2.8519    1.4393   -0.0811 C   0  0  0  0  0  0  0  0  0  0  0  0
   -2.1907    0.3099   -0.6014 C   0  0  0  0  0  0  0  0  0  0  0  0
   -0.3341   -0.6477   -1.1480 H   0  0  0  0  0  0  0  0  0  0  0  0
    1.1323    1.2979   -0.4695 H   0  0  0  0  0  0  0  0  0  0  0  0
   -2.8193    4.0662    1.0061 H   0  0  0  0  0  0  0  0  0  0  0  0
   -3.9312    1.4786    0.0262 H   0  0  0  0  0  0  0  0  0  0  0  0
    7.4316   -9.5314   -4.1330 N   0  0  0  0  0  0  0  0  0  0  0  0
    8.0696  -10.3542   -4.5038 N   0  0  0  0  0  0  0  0  0  0  0  0
   -3.5601    5.0488    1.4784 Cl  0  0  0  0  0  0  0  0  0  0  0  0
   -2.7828   -0.5491   -0.9065 H   0  0  0  0  0  0  0  0  0  0  0  0
  1  6  2  0  0  0  0
  1  2  1  0  0  0  0
  2  3  2  0  0  0  0
  3  4  1  0  0  0  0
  5 10  1  0  0  0  0
  5  4  2  0  0  0  0
  6  5  1  0  0  0  0
  7  1  1  0  0  0  0
  8  2  1  0  0  0  0
  9 13  1  0  0  0  0
 12 11  3  0  0  0  0
 14  6  1  0  0  0  0
M  RAD  2   3   2   4   2
M  END
