Coordinates from ORCA-job Ph-N2-Cl-B3LYPG-6-31G_dp-MTMO-d009-169-n800
 OpenBabel09051908143D

 14 12  0  0  0  0  0  0  0  0999 V2000
   -0.6711   -0.1901   -0.8552 C   0  0  0  0  0  0  0  0  0  0  0  0
    0.2721    0.8023   -0.4944 C   0  0  0  0  0  0  0  0  0  0  0  0
   -0.4229    1.8849   -0.0190 C   0  0  0  0  0  0  0  0  0  0  0  0
   -1.6418    2.1429    0.1446 C   0  0  0  0  0  0  0  0  0  0  0  0
   -2.6098    1.1887   -0.1992 C   0  0  0  0  0  0  0  0  0  0  0  0
   -2.0573   -0.0011   -0.7120 C   0  0  0  0  0  0  0  0  0  0  0  0
   -0.2982   -1.1292   -1.2563 H   0  0  0  0  0  0  0  0  0  0  0  0
    1.3428    0.6770   -0.5971 H   0  0  0  0  0  0  0  0  0  0  0  0
   -2.3300    3.8117    0.8628 H   0  0  0  0  0  0  0  0  0  0  0  0
   -3.6805    1.3288   -0.0897 H   0  0  0  0  0  0  0  0  0  0  0  0
    5.9350   -7.4066   -3.3942 N   0  0  0  0  0  0  0  0  0  0  0  0
    6.5717   -8.2297   -3.7664 N   0  0  0  0  0  0  0  0  0  0  0  0
   -2.9742    4.8645    1.3257 Cl  0  0  0  0  0  0  0  0  0  0  0  0
   -2.7271   -0.8041   -1.0085 H   0  0  0  0  0  0  0  0  0  0  0  0
  1  6  2  0  0  0  0
  1  2  1  0  0  0  0
  2  3  2  0  0  0  0
  3  4  1  0  0  0  0
  5 10  1  0  0  0  0
  5  4  2  0  0  0  0
  6  5  1  0  0  0  0
  7  1  1  0  0  0  0
  8  2  1  0  0  0  0
  9 13  1  0  0  0  0
 12 11  3  0  0  0  0
 14  6  1  0  0  0  0
M  RAD  2   3   2   4   2
M  END
