Coordinates from ORCA-job Ph-N2-Cl-B3LYPG-6-31G_dp-MTMO-d009-169-n800
 OpenBabel09051908143D

 14 12  0  0  0  0  0  0  0  0999 V2000
   -1.0673   -1.2073   -1.2065 C   0  0  0  0  0  0  0  0  0  0  0  0
    0.2525   -0.7478   -0.9751 C   0  0  0  0  0  0  0  0  0  0  0  0
    0.1594    0.5148   -0.4507 C   0  0  0  0  0  0  0  0  0  0  0  0
   -0.7856    1.2901   -0.1558 C   0  0  0  0  0  0  0  0  0  0  0  0
   -2.1072    0.8681   -0.3712 C   0  0  0  0  0  0  0  0  0  0  0  0
   -2.2004   -0.4272   -0.9148 C   0  0  0  0  0  0  0  0  0  0  0  0
   -1.1960   -2.2020   -1.6253 H   0  0  0  0  0  0  0  0  0  0  0  0
    1.1387   -1.3300   -1.1920 H   0  0  0  0  0  0  0  0  0  0  0  0
   -0.5887    3.0553    0.5704 H   0  0  0  0  0  0  0  0  0  0  0  0
   -2.9853    1.4651   -0.1483 H   0  0  0  0  0  0  0  0  0  0  0  0
    3.4576   -2.6667   -1.6810 N   0  0  0  0  0  0  0  0  0  0  0  0
    4.4537   -3.1100   -1.8600 N   0  0  0  0  0  0  0  0  0  0  0  0
   -0.6380    4.2776    1.0695 Cl  0  0  0  0  0  0  0  0  0  0  0  0
   -3.1849   -0.8402   -1.1181 H   0  0  0  0  0  0  0  0  0  0  0  0
  1  2  2  0  0  0  0
  1  6  1  0  0  0  0
  2  3  1  0  0  0  0
  3  4  2  0  0  0  0
  5  4  1  0  0  0  0
  5 10  1  0  0  0  0
  6  5  2  0  0  0  0
  7  1  1  0  0  0  0
  8  2  1  0  0  0  0
  9 13  1  0  0  0  0
 12 11  3  0  0  0  0
 14  6  1  0  0  0  0
M  RAD  2   3   2   4   2
M  END
