Coordinates from ORCA-job Ph-N2-Cl-B3LYPG-6-31G_dp-MTMO-d009-169-n800
 OpenBabel09051908143D

 14 12  0  0  0  0  0  0  0  0999 V2000
   -0.6866   -0.1023   -0.8290 C   0  0  0  0  0  0  0  0  0  0  0  0
    0.2342    0.9098   -0.4650 C   0  0  0  0  0  0  0  0  0  0  0  0
   -0.4852    1.9770    0.0090 C   0  0  0  0  0  0  0  0  0  0  0  0
   -1.7098    2.2088    0.1695 C   0  0  0  0  0  0  0  0  0  0  0  0
   -2.6561    1.2342   -0.1775 C   0  0  0  0  0  0  0  0  0  0  0  0
   -2.0769    0.0569   -0.6894 C   0  0  0  0  0  0  0  0  0  0  0  0
   -0.2926   -1.0331   -1.2295 H   0  0  0  0  0  0  0  0  0  0  0  0
    1.3076    0.8075   -0.5648 H   0  0  0  0  0  0  0  0  0  0  0  0
   -2.4362    3.8620    0.8863 H   0  0  0  0  0  0  0  0  0  0  0  0
   -3.7299    1.3512   -0.0707 H   0  0  0  0  0  0  0  0  0  0  0  0
    6.2179   -7.8247   -3.5429 N   0  0  0  0  0  0  0  0  0  0  0  0
    6.8553   -8.6476   -3.9145 N   0  0  0  0  0  0  0  0  0  0  0  0
   -3.1046    4.9001    1.3479 Cl  0  0  0  0  0  0  0  0  0  0  0  0
   -2.7285   -0.7601   -0.9882 H   0  0  0  0  0  0  0  0  0  0  0  0
  1  6  2  0  0  0  0
  1  2  1  0  0  0  0
  2  3  2  0  0  0  0
  3  4  1  0  0  0  0
  5 10  1  0  0  0  0
  5  4  2  0  0  0  0
  6  5  1  0  0  0  0
  7  1  1  0  0  0  0
  8  2  1  0  0  0  0
  9 13  1  0  0  0  0
 12 11  3  0  0  0  0
 14  6  1  0  0  0  0
M  RAD  2   3   2   4   2
M  END
