Coordinates from ORCA-job Ph-N2-Cl-B3LYPG-6-31G_dp-MTMO-d009-169-n800
 OpenBabel09051908143D

 14 12  0  0  0  0  0  0  0  0999 V2000
   -0.7144    0.0091   -0.7999 C   0  0  0  0  0  0  0  0  0  0  0  0
    0.1810    1.0427   -0.4329 C   0  0  0  0  0  0  0  0  0  0  0  0
   -0.5649    2.0910    0.0422 C   0  0  0  0  0  0  0  0  0  0  0  0
   -1.7949    2.2929    0.2020 C   0  0  0  0  0  0  0  0  0  0  0  0
   -2.7167    1.2959   -0.1480 C   0  0  0  0  0  0  0  0  0  0  0  0
   -2.1083    0.1342   -0.6616 C   0  0  0  0  0  0  0  0  0  0  0  0
   -0.2976   -0.9112   -1.2015 H   0  0  0  0  0  0  0  0  0  0  0  0
    1.2568    0.9673   -0.5315 H   0  0  0  0  0  0  0  0  0  0  0  0
   -2.5626    3.9259    0.9217 H   0  0  0  0  0  0  0  0  0  0  0  0
   -3.7931    1.3861   -0.0422 H   0  0  0  0  0  0  0  0  0  0  0  0
    6.5909   -8.3596   -3.7294 N   0  0  0  0  0  0  0  0  0  0  0  0
    7.2290   -9.1824   -4.1001 N   0  0  0  0  0  0  0  0  0  0  0  0
   -3.2572    4.9458    1.3851 Cl  0  0  0  0  0  0  0  0  0  0  0  0
   -2.7395   -0.6979   -0.9626 H   0  0  0  0  0  0  0  0  0  0  0  0
  1  6  2  0  0  0  0
  1  2  1  0  0  0  0
  2  3  2  0  0  0  0
  3  4  1  0  0  0  0
  5 10  1  0  0  0  0
  5  4  2  0  0  0  0
  6  5  1  0  0  0  0
  7  1  1  0  0  0  0
  8  2  1  0  0  0  0
  9 13  1  0  0  0  0
 12 11  3  0  0  0  0
 14  6  1  0  0  0  0
M  RAD  2   3   2   4   2
M  END
