Coordinates from ORCA-job Ph-N2-Cl-B3LYPG-6-31G_dp-MTMO-d009-169-n800
 OpenBabel09051908143D

 14 12  0  0  0  0  0  0  0  0999 V2000
   -0.6605   -0.3122   -0.8960 C   0  0  0  0  0  0  0  0  0  0  0  0
    0.3179    0.6477   -0.5412 C   0  0  0  0  0  0  0  0  0  0  0  0
   -0.3371    1.7530   -0.0611 C   0  0  0  0  0  0  0  0  0  0  0  0
   -1.5455    2.0518    0.1107 C   0  0  0  0  0  0  0  0  0  0  0  0
   -2.5473    1.1308   -0.2270 C   0  0  0  0  0  0  0  0  0  0  0  0
   -2.0385   -0.0768   -0.7435 C   0  0  0  0  0  0  0  0  0  0  0  0
   -0.3219   -1.2630   -1.2998 H   0  0  0  0  0  0  0  0  0  0  0  0
    1.3830    0.4866   -0.6511 H   0  0  0  0  0  0  0  0  0  0  0  0
   -2.1720    3.7412    0.8355 H   0  0  0  0  0  0  0  0  0  0  0  0
   -3.6118    1.3069   -0.1105 H   0  0  0  0  0  0  0  0  0  0  0  0
    5.5593   -6.8308   -3.1855 N   0  0  0  0  0  0  0  0  0  0  0  0
    6.1971   -7.6533   -3.5575 N   0  0  0  0  0  0  0  0  0  0  0  0
   -2.7773    4.8144    1.3040 Cl  0  0  0  0  0  0  0  0  0  0  0  0
   -2.7369   -0.8566   -1.0358 H   0  0  0  0  0  0  0  0  0  0  0  0
  1  6  2  0  0  0  0
  1  2  1  0  0  0  0
  2  3  2  0  0  0  0
  3  4  1  0  0  0  0
  5 10  1  0  0  0  0
  5  4  2  0  0  0  0
  6  5  1  0  0  0  0
  7  1  1  0  0  0  0
  8  2  1  0  0  0  0
  9 13  1  0  0  0  0
 12 11  3  0  0  0  0
 14  6  1  0  0  0  0
M  RAD  2   3   2   4   2
M  END
