Coordinates from ORCA-job Ph-N2-Cl-B3LYPG-6-31G_dp-MTMO-d009-169-n800
 OpenBabel09051908143D

 14 12  0  0  0  0  0  0  0  0999 V2000
   -0.7578    0.1551   -0.7643 C   0  0  0  0  0  0  0  0  0  0  0  0
    0.1068    1.2136   -0.3941 C   0  0  0  0  0  0  0  0  0  0  0  0
   -0.6698    2.2379    0.0842 C   0  0  0  0  0  0  0  0  0  0  0  0
   -1.9052    2.4028    0.2448 C   0  0  0  0  0  0  0  0  0  0  0  0
   -2.7972    1.3802   -0.1082 C   0  0  0  0  0  0  0  0  0  0  0  0
   -2.1548    0.2385   -0.6254 C   0  0  0  0  0  0  0  0  0  0  0  0
   -0.3142   -0.7515   -1.1684 H   0  0  0  0  0  0  0  0  0  0  0  0
    1.1843    1.1703   -0.4930 H   0  0  0  0  0  0  0  0  0  0  0  0
   -2.7209    4.0093    0.9716 H   0  0  0  0  0  0  0  0  0  0  0  0
   -3.8758    1.4381   -0.0020 H   0  0  0  0  0  0  0  0  0  0  0  0
    7.0910   -9.0631   -3.9721 N   0  0  0  0  0  0  0  0  0  0  0  0
    7.7289   -9.8862   -4.3426 N   0  0  0  0  0  0  0  0  0  0  0  0
   -3.4454    5.0059    1.4398 Cl  0  0  0  0  0  0  0  0  0  0  0  0
   -2.7612   -0.6109   -0.9291 H   0  0  0  0  0  0  0  0  0  0  0  0
  1  6  2  0  0  0  0
  1  2  1  0  0  0  0
  2  3  2  0  0  0  0
  3  4  1  0  0  0  0
  5 10  1  0  0  0  0
  5  4  2  0  0  0  0
  6  5  1  0  0  0  0
  7  1  1  0  0  0  0
  8  2  1  0  0  0  0
  9 13  1  0  0  0  0
 12 11  3  0  0  0  0
 14  6  1  0  0  0  0
M  RAD  2   3   2   4   2
M  END
