Coordinates from ORCA-job Ph-N2-Cl-B3LYPG-6-31G_dp-MTMO-d009-169-n800
 OpenBabel09051908143D

 14 12  0  0  0  0  0  0  0  0999 V2000
   -0.8634    0.4042   -0.7067 C   0  0  0  0  0  0  0  0  0  0  0  0
   -0.0389    1.4929   -0.3323 C   0  0  0  0  0  0  0  0  0  0  0  0
   -0.8529    2.4827    0.1562 C   0  0  0  0  0  0  0  0  0  0  0  0
   -2.0930    2.5988    0.3227 C   0  0  0  0  0  0  0  0  0  0  0  0
   -2.9460    1.5448   -0.0343 C   0  0  0  0  0  0  0  0  0  0  0  0
   -2.2619    0.4325   -0.5620 C   0  0  0  0  0  0  0  0  0  0  0  0
   -0.3867   -0.4819   -1.1186 H   0  0  0  0  0  0  0  0  0  0  0  0
    1.0391    1.4923   -0.4355 H   0  0  0  0  0  0  0  0  0  0  0  0
   -2.9672    4.1654    1.0673 H   0  0  0  0  0  0  0  0  0  0  0  0
   -4.0256    1.5599    0.0765 H   0  0  0  0  0  0  0  0  0  0  0  0
    8.0149  -10.3107   -4.3991 N   0  0  0  0  0  0  0  0  0  0  0  0
    8.6539  -11.1319   -4.7718 N   0  0  0  0  0  0  0  0  0  0  0  0
   -3.7277    5.1287    1.5482 Cl  0  0  0  0  0  0  0  0  0  0  0  0
   -2.8361   -0.4377   -0.8695 H   0  0  0  0  0  0  0  0  0  0  0  0
  1  6  2  0  0  0  0
  1  2  1  0  0  0  0
  2  3  2  0  0  0  0
  3  4  1  0  0  0  0
  5 10  1  0  0  0  0
  5  4  2  0  0  0  0
  6  5  1  0  0  0  0
  7  1  1  0  0  0  0
  8  2  1  0  0  0  0
  9 13  1  0  0  0  0
 12 11  3  0  0  0  0
 14  6  1  0  0  0  0
M  RAD  2   3   2   4   2
M  END
