Coordinates from ORCA-job Ph-N2-Cl-B3LYPG-6-31G_dp-MTMO-d009-169-n800
 OpenBabel09051908143D

 14 12  0  0  0  0  0  0  0  0999 V2000
   -0.8407   -1.0560   -1.1451 C   0  0  0  0  0  0  0  0  0  0  0  0
    0.3988   -0.4338   -0.8588 C   0  0  0  0  0  0  0  0  0  0  0  0
    0.1276    0.8077   -0.3443 C   0  0  0  0  0  0  0  0  0  0  0  0
   -0.9213    1.4543   -0.0952 C   0  0  0  0  0  0  0  0  0  0  0  0
   -2.1690    0.8715   -0.3652 C   0  0  0  0  0  0  0  0  0  0  0  0
   -2.0746   -0.4248   -0.9063 C   0  0  0  0  0  0  0  0  0  0  0  0
   -0.8248   -2.0586   -1.5642 H   0  0  0  0  0  0  0  0  0  0  0  0
    1.3585   -0.9029   -1.0356 H   0  0  0  0  0  0  0  0  0  0  0  0
   -0.9835    3.2322    0.6359 H   0  0  0  0  0  0  0  0  0  0  0  0
   -3.1238    1.3533   -0.1830 H   0  0  0  0  0  0  0  0  0  0  0  0
    3.5962   -3.3223   -1.9452 N   0  0  0  0  0  0  0  0  0  0  0  0
    4.3701   -4.0587   -2.2281 N   0  0  0  0  0  0  0  0  0  0  0  0
   -1.2154    4.4362    1.1259 Cl  0  0  0  0  0  0  0  0  0  0  0  0
   -2.9897   -0.9582   -1.1497 H   0  0  0  0  0  0  0  0  0  0  0  0
  1  6  2  0  0  0  0
  1  2  1  0  0  0  0
  2  3  2  0  0  0  0
  3  4  1  0  0  0  0
  5 10  1  0  0  0  0
  5  4  2  0  0  0  0
  6  5  1  0  0  0  0
  7  1  1  0  0  0  0
  8  2  1  0  0  0  0
  9 13  1  0  0  0  0
 12 11  3  0  0  0  0
 14  6  1  0  0  0  0
M  RAD  2   3   2   4   2
M  END
