Coordinates from ORCA-job Ph-N2-Cl-B3LYPG-6-31G_dp-MTMO-d009-169-n800
 OpenBabel09051908143D

 14 12  0  0  0  0  0  0  0  0999 V2000
   -0.6560   -0.4316   -0.9358 C   0  0  0  0  0  0  0  0  0  0  0  0
    0.3584    0.4929   -0.5882 C   0  0  0  0  0  0  0  0  0  0  0  0
   -0.2536    1.6206   -0.1035 C   0  0  0  0  0  0  0  0  0  0  0  0
   -1.4494    1.9622    0.0770 C   0  0  0  0  0  0  0  0  0  0  0  0
   -2.4855    1.0772   -0.2536 C   0  0  0  0  0  0  0  0  0  0  0  0
   -2.0237   -0.1475   -0.7735 C   0  0  0  0  0  0  0  0  0  0  0  0
   -0.3541   -1.3937   -1.3419 H   0  0  0  0  0  0  0  0  0  0  0  0
    1.4162    0.2941   -0.7057 H   0  0  0  0  0  0  0  0  0  0  0  0
   -2.0115    3.6696    0.8081 H   0  0  0  0  0  0  0  0  0  0  0  0
   -3.5421    1.2912   -0.1297 H   0  0  0  0  0  0  0  0  0  0  0  0
    5.1961   -6.2684   -2.9829 N   0  0  0  0  0  0  0  0  0  0  0  0
    5.8415   -7.0869   -3.3508 N   0  0  0  0  0  0  0  0  0  0  0  0
   -2.5764    4.7623    1.2826 Cl  0  0  0  0  0  0  0  0  0  0  0  0
   -2.7513   -0.9021   -1.0608 H   0  0  0  0  0  0  0  0  0  0  0  0
  1  6  2  0  0  0  0
  1  2  1  0  0  0  0
  2  3  2  0  0  0  0
  3  4  1  0  0  0  0
  5 10  1  0  0  0  0
  5  4  2  0  0  0  0
  6  5  1  0  0  0  0
  7  1  1  0  0  0  0
  8  2  1  0  0  0  0
  9 13  1  0  0  0  0
 12 11  3  0  0  0  0
 14  6  1  0  0  0  0
M  RAD  2   3   2   4   2
M  END
