Coordinates from ORCA-job Ph-N2-Cl-B3LYPG-6-31G_dp-MTMO-d009-169-n800
 OpenBabel09051908143D

 14 12  0  0  0  0  0  0  0  0999 V2000
   -0.6965   -0.0616   -0.8182 C   0  0  0  0  0  0  0  0  0  0  0  0
    0.2150    0.9585   -0.4530 C   0  0  0  0  0  0  0  0  0  0  0  0
   -0.5145    2.0188    0.0213 C   0  0  0  0  0  0  0  0  0  0  0  0
   -1.7411    2.2398    0.1815 C   0  0  0  0  0  0  0  0  0  0  0  0
   -2.6783    1.2567   -0.1667 C   0  0  0  0  0  0  0  0  0  0  0  0
   -2.0882    0.0850   -0.6792 C   0  0  0  0  0  0  0  0  0  0  0  0
   -0.2940   -0.9886   -1.2190 H   0  0  0  0  0  0  0  0  0  0  0  0
    1.2894    0.8664   -0.5522 H   0  0  0  0  0  0  0  0  0  0  0  0
   -2.4827    3.8855    0.8990 H   0  0  0  0  0  0  0  0  0  0  0  0
   -3.7531    1.3636   -0.0605 H   0  0  0  0  0  0  0  0  0  0  0  0
    6.3539   -8.0204   -3.6114 N   0  0  0  0  0  0  0  0  0  0  0  0
    6.9918   -8.8432   -3.9826 N   0  0  0  0  0  0  0  0  0  0  0  0
   -3.1608    4.9171    1.3611 Cl  0  0  0  0  0  0  0  0  0  0  0  0
   -2.7323   -0.7376   -0.9788 H   0  0  0  0  0  0  0  0  0  0  0  0
  1  6  2  0  0  0  0
  1  2  1  0  0  0  0
  2  3  2  0  0  0  0
  3  4  1  0  0  0  0
  5 10  1  0  0  0  0
  5  4  2  0  0  0  0
  6  5  1  0  0  0  0
  7  1  1  0  0  0  0
  8  2  1  0  0  0  0
  9 13  1  0  0  0  0
 12 11  3  0  0  0  0
 14  6  1  0  0  0  0
M  RAD  2   3   2   4   2
M  END
