Coordinates from ORCA-job Ph-N2-Cl-B3LYPG-6-31G_dp-MTMO-d009-169-n800
 OpenBabel09051908143D

 14 12  0  0  0  0  0  0  0  0999 V2000
   -1.2353   -1.2763   -1.2397 C   0  0  0  0  0  0  0  0  0  0  0  0
    0.1238   -0.9222   -1.0558 C   0  0  0  0  0  0  0  0  0  0  0  0
    0.1492    0.3427   -0.5293 C   0  0  0  0  0  0  0  0  0  0  0  0
   -0.7213    1.1887   -0.2014 C   0  0  0  0  0  0  0  0  0  0  0  0
   -2.0788    0.8725   -0.3691 C   0  0  0  0  0  0  0  0  0  0  0  0
   -2.2926   -0.4104   -0.9083 C   0  0  0  0  0  0  0  0  0  0  0  0
   -1.4568   -2.2570   -1.6529 H   0  0  0  0  0  0  0  0  0  0  0  0
    0.9555   -1.5690   -1.3025 H   0  0  0  0  0  0  0  0  0  0  0  0
   -0.3564    2.9291    0.5252 H   0  0  0  0  0  0  0  0  0  0  0  0
   -2.8990    1.5358   -0.1150 H   0  0  0  0  0  0  0  0  0  0  0  0
    3.5209   -2.3321   -1.5552 N   0  0  0  0  0  0  0  0  0  0  0  0
    4.5997   -2.5646   -1.6100 N   0  0  0  0  0  0  0  0  0  0  0  0
   -0.2871    4.1472    1.0312 Cl  0  0  0  0  0  0  0  0  0  0  0  0
   -3.3131   -0.7446   -1.0760 H   0  0  0  0  0  0  0  0  0  0  0  0
  1  2  2  0  0  0  0
  1  6  1  0  0  0  0
  2  3  1  0  0  0  0
  3  4  2  0  0  0  0
  5  4  1  0  0  0  0
  5 10  1  0  0  0  0
  6  5  2  0  0  0  0
  7  1  1  0  0  0  0
  8  2  1  0  0  0  0
  9 13  1  0  0  0  0
 12 11  3  0  0  0  0
 14  6  1  0  0  0  0
M  RAD  2   3   2   4   2
M  END
