Coordinates from ORCA-job Ph-N2-Cl-B3LYPG-6-31G_dp-MTMO-d009-169-n800
 OpenBabel09051908143D

 14 12  0  0  0  0  0  0  0  0999 V2000
   -1.5158   -1.4002   -1.2828 C   0  0  0  0  0  0  0  0  0  0  0  0
   -0.1113   -1.2687   -1.1605 C   0  0  0  0  0  0  0  0  0  0  0  0
    0.1426   -0.0239   -0.6459 C   0  0  0  0  0  0  0  0  0  0  0  0
   -0.5671    0.9500   -0.2876 C   0  0  0  0  0  0  0  0  0  0  0  0
   -1.9636    0.8576   -0.3936 C   0  0  0  0  0  0  0  0  0  0  0  0
   -2.4045   -0.3748   -0.9128 C   0  0  0  0  0  0  0  0  0  0  0  0
   -1.9102   -2.3329   -1.6784 H   0  0  0  0  0  0  0  0  0  0  0  0
    0.5956   -2.0397   -1.4378 H   0  0  0  0  0  0  0  0  0  0  0  0
    0.1088    2.6102    0.4125 H   0  0  0  0  0  0  0  0  0  0  0  0
   -2.6545    1.6448   -0.1094 H   0  0  0  0  0  0  0  0  0  0  0  0
    3.4912   -1.5847   -1.2503 N   0  0  0  0  0  0  0  0  0  0  0  0
    4.5706   -1.3574   -1.1851 N   0  0  0  0  0  0  0  0  0  0  0  0
    0.3990    3.8001    0.9062 Cl  0  0  0  0  0  0  0  0  0  0  0  0
   -3.4721   -0.5404   -1.0334 H   0  0  0  0  0  0  0  0  0  0  0  0
  1  2  2  0  0  0  0
  1  6  1  0  0  0  0
  2  3  1  0  0  0  0
  3  4  2  0  0  0  0
  5  4  1  0  0  0  0
  5 10  1  0  0  0  0
  6  5  2  0  0  0  0
  7  1  1  0  0  0  0
  8  2  1  0  0  0  0
  9 13  1  0  0  0  0
 11 12  3  0  0  0  0
 14  6  1  0  0  0  0
M  RAD  2   3   2   4   2
M  END
