Coordinates from ORCA-job Ph-N2-Cl-B3LYPG-6-31G_dp-MTMO-d009-169-n800
 OpenBabel09051908143D

 14 12  0  0  0  0  0  0  0  0999 V2000
   -0.7159    0.0146   -0.7986 C   0  0  0  0  0  0  0  0  0  0  0  0
    0.1784    1.0491   -0.4314 C   0  0  0  0  0  0  0  0  0  0  0  0
   -0.5688    2.0965    0.0438 C   0  0  0  0  0  0  0  0  0  0  0  0
   -1.7990    2.2969    0.2036 C   0  0  0  0  0  0  0  0  0  0  0  0
   -2.7196    1.2990   -0.1465 C   0  0  0  0  0  0  0  0  0  0  0  0
   -2.1099    0.1380   -0.6602 C   0  0  0  0  0  0  0  0  0  0  0  0
   -0.2979   -0.9052   -1.2002 H   0  0  0  0  0  0  0  0  0  0  0  0
    1.2542    0.9750   -0.5300 H   0  0  0  0  0  0  0  0  0  0  0  0
   -2.5686    3.9290    0.9235 H   0  0  0  0  0  0  0  0  0  0  0  0
   -3.7962    1.3879   -0.0408 H   0  0  0  0  0  0  0  0  0  0  0  0
    6.6093   -8.3857   -3.7385 N   0  0  0  0  0  0  0  0  0  0  0  0
    7.2473   -9.2085   -4.1092 N   0  0  0  0  0  0  0  0  0  0  0  0
   -3.2644    4.9480    1.3870 Cl  0  0  0  0  0  0  0  0  0  0  0  0
   -2.7401   -0.6948   -0.9614 H   0  0  0  0  0  0  0  0  0  0  0  0
  1  6  2  0  0  0  0
  1  2  1  0  0  0  0
  2  3  2  0  0  0  0
  3  4  1  0  0  0  0
  5 10  1  0  0  0  0
  5  4  2  0  0  0  0
  6  5  1  0  0  0  0
  7  1  1  0  0  0  0
  8  2  1  0  0  0  0
  9 13  1  0  0  0  0
 12 11  3  0  0  0  0
 14  6  1  0  0  0  0
M  RAD  2   3   2   4   2
M  END
