Coordinates from ORCA-job Ph-N2-Cl-B3LYPG-6-31G_dp-MTMO-d009-169-n800
 OpenBabel09051908143D

 14 12  0  0  0  0  0  0  0  0999 V2000
   -0.6784   -0.6674   -1.0188 C   0  0  0  0  0  0  0  0  0  0  0  0
    0.4139    0.1708   -0.6889 C   0  0  0  0  0  0  0  0  0  0  0  0
   -0.0959    1.3427   -0.1911 C   0  0  0  0  0  0  0  0  0  0  0  0
   -1.2561    1.7806    0.0129 C   0  0  0  0  0  0  0  0  0  0  0  0
   -2.3661    0.9828   -0.3001 C   0  0  0  0  0  0  0  0  0  0  0  0
   -2.0153   -0.2736   -0.8304 C   0  0  0  0  0  0  0  0  0  0  0  0
   -0.4633   -1.6493   -1.4324 H   0  0  0  0  0  0  0  0  0  0  0  0
    1.4497   -0.1125   -0.8269 H   0  0  0  0  0  0  0  0  0  0  0  0
   -1.6667    3.5210    0.7541 H   0  0  0  0  0  0  0  0  0  0  0  0
   -3.3993    1.2815   -0.1561 H   0  0  0  0  0  0  0  0  0  0  0  0
    4.5404   -5.1514   -2.5805 N   0  0  0  0  0  0  0  0  0  0  0  0
    5.1868   -5.9741   -2.9367 N   0  0  0  0  0  0  0  0  0  0  0  0
   -2.1340    4.6542    1.2412 Cl  0  0  0  0  0  0  0  0  0  0  0  0
   -2.8070   -0.9656   -1.1052 H   0  0  0  0  0  0  0  0  0  0  0  0
  1  6  2  0  0  0  0
  1  2  1  0  0  0  0
  2  3  2  0  0  0  0
  3  4  1  0  0  0  0
  5 10  1  0  0  0  0
  5  4  2  0  0  0  0
  6  5  1  0  0  0  0
  7  1  1  0  0  0  0
  8  2  1  0  0  0  0
  9 13  1  0  0  0  0
 12 11  3  0  0  0  0
 14  6  1  0  0  0  0
M  RAD  2   3   2   4   2
M  END
