Coordinates from ORCA-job Ph-N2-Cl-B3LYPG-6-31G_dp-MTMO-d009-169-n800
 OpenBabel09051908143D

 14 12  0  0  0  0  0  0  0  0999 V2000
   -0.7839   -0.9567   -1.1112 C   0  0  0  0  0  0  0  0  0  0  0  0
    0.4167   -0.2694   -0.8094 C   0  0  0  0  0  0  0  0  0  0  0  0
    0.0750    0.9565   -0.2992 C   0  0  0  0  0  0  0  0  0  0  0  0
   -1.0107    1.5448   -0.0647 C   0  0  0  0  0  0  0  0  0  0  0  0
   -2.2225    0.8979   -0.3498 C   0  0  0  0  0  0  0  0  0  0  0  0
   -2.0526   -0.3917   -0.8887 C   0  0  0  0  0  0  0  0  0  0  0  0
   -0.7097   -1.9571   -1.5294 H   0  0  0  0  0  0  0  0  0  0  0  0
    1.4025   -0.6857   -0.9736 H   0  0  0  0  0  0  0  0  0  0  0  0
   -1.1754    3.3190    0.6693 H   0  0  0  0  0  0  0  0  0  0  0  0
   -3.2037    1.3284   -0.1799 H   0  0  0  0  0  0  0  0  0  0  0  0
    3.8527   -3.7885   -2.0999 N   0  0  0  0  0  0  0  0  0  0  0  0
    4.5326   -4.5920   -2.4370 N   0  0  0  0  0  0  0  0  0  0  0  0
   -1.4777    4.5074    1.1580 Cl  0  0  0  0  0  0  0  0  0  0  0  0
   -2.9348   -0.9730   -1.1433 H   0  0  0  0  0  0  0  0  0  0  0  0
  1  6  2  0  0  0  0
  1  2  1  0  0  0  0
  2  3  2  0  0  0  0
  3  4  1  0  0  0  0
  5 10  1  0  0  0  0
  5  4  2  0  0  0  0
  6  5  1  0  0  0  0
  7  1  1  0  0  0  0
  8  2  1  0  0  0  0
  9 13  1  0  0  0  0
 12 11  3  0  0  0  0
 14  6  1  0  0  0  0
M  RAD  2   3   2   4   2
M  END
