Coordinates from ORCA-job Ph-N2-Cl-B3LYPG-6-31G_dp-MTMO-d009-169-n800
 OpenBabel09051908143D

 14 12  0  0  0  0  0  0  0  0999 V2000
   -0.9951   -1.1680   -1.1904 C   0  0  0  0  0  0  0  0  0  0  0  0
    0.3019   -0.6562   -0.9405 C   0  0  0  0  0  0  0  0  0  0  0  0
    0.1516    0.6019   -0.4181 C   0  0  0  0  0  0  0  0  0  0  0  0
   -0.8279    1.3386   -0.1372 C   0  0  0  0  0  0  0  0  0  0  0  0
   -2.1284    0.8646   -0.3711 C   0  0  0  0  0  0  0  0  0  0  0  0
   -2.1623   -0.4334   -0.9152 C   0  0  0  0  0  0  0  0  0  0  0  0
   -1.0783   -2.1670   -1.6102 H   0  0  0  0  0  0  0  0  0  0  0  0
    1.2130   -1.2044   -1.1444 H   0  0  0  0  0  0  0  0  0  0  0  0
   -0.7104    3.1111    0.5909 H   0  0  0  0  0  0  0  0  0  0  0  0
   -3.0325    1.4263   -0.1610 H   0  0  0  0  0  0  0  0  0  0  0  0
    3.5170   -2.8030   -1.7345 N   0  0  0  0  0  0  0  0  0  0  0  0
    4.4021   -3.4162   -1.9824 N   0  0  0  0  0  0  0  0  0  0  0  0
   -0.8153    4.3307    1.0874 Cl  0  0  0  0  0  0  0  0  0  0  0  0
   -3.1267   -0.8851   -1.1320 H   0  0  0  0  0  0  0  0  0  0  0  0
  1  2  2  0  0  0  0
  1  6  1  0  0  0  0
  2  3  1  0  0  0  0
  3  4  2  0  0  0  0
  5 10  1  0  0  0  0
  5  4  1  0  0  0  0
  6  5  2  0  0  0  0
  7  1  1  0  0  0  0
  8  2  1  0  0  0  0
  9 13  1  0  0  0  0
 12 11  3  0  0  0  0
 14  6  1  0  0  0  0
M  RAD  2   3   2   4   2
M  END
