Coordinates from ORCA-job Ph-N2-Cl-B3LYPG-6-31G_dp-MTMO-d009-169-n800
 OpenBabel09051908143D

 14 12  0  0  0  0  0  0  0  0999 V2000
   -0.7692   -0.9232   -1.0996 C   0  0  0  0  0  0  0  0  0  0  0  0
    0.4188   -0.2163   -0.7933 C   0  0  0  0  0  0  0  0  0  0  0  0
    0.0555    1.0042   -0.2850 C   0  0  0  0  0  0  0  0  0  0  0  0
   -1.0407    1.5744   -0.0551 C   0  0  0  0  0  0  0  0  0  0  0  0
   -2.2408    0.9080   -0.3445 C   0  0  0  0  0  0  0  0  0  0  0  0
   -2.0478   -0.3789   -0.8823 C   0  0  0  0  0  0  0  0  0  0  0  0
   -0.6771   -1.9224   -1.5172 H   0  0  0  0  0  0  0  0  0  0  0  0
    1.4120   -0.6163   -0.9530 H   0  0  0  0  0  0  0  0  0  0  0  0
   -1.2363    3.3462    0.6798 H   0  0  0  0  0  0  0  0  0  0  0  0
   -3.2296    1.3225   -0.1784 H   0  0  0  0  0  0  0  0  0  0  0  0
    3.9392   -3.9488   -2.1589 N   0  0  0  0  0  0  0  0  0  0  0  0
    4.6032   -4.7639   -2.4999 N   0  0  0  0  0  0  0  0  0  0  0  0
   -1.5592    4.5291    1.1684 Cl  0  0  0  0  0  0  0  0  0  0  0  0
   -2.9194   -0.9746   -1.1399 H   0  0  0  0  0  0  0  0  0  0  0  0
  1  6  2  0  0  0  0
  1  2  1  0  0  0  0
  2  3  2  0  0  0  0
  3  4  1  0  0  0  0
  5 10  1  0  0  0  0
  5  4  2  0  0  0  0
  6  5  1  0  0  0  0
  7  1  1  0  0  0  0
  8  2  1  0  0  0  0
  9 13  1  0  0  0  0
 12 11  3  0  0  0  0
 14  6  1  0  0  0  0
M  RAD  2   3   2   4   2
M  END
