Coordinates from ORCA-job Ph-N2-Cl-B3LYPG-6-31G_dp-MTMO-d009-169-n800
 OpenBabel09051908143D

 14 12  0  0  0  0  0  0  0  0999 V2000
   -0.9119    0.4887   -0.6914 C   0  0  0  0  0  0  0  0  0  0  0  0
   -0.0951    1.5824   -0.3152 C   0  0  0  0  0  0  0  0  0  0  0  0
   -0.9156    2.5631    0.1808 C   0  0  0  0  0  0  0  0  0  0  0  0
   -2.1559    2.6689    0.3526 C   0  0  0  0  0  0  0  0  0  0  0  0
   -3.0013    1.6090   -0.0062 C   0  0  0  0  0  0  0  0  0  0  0  0
   -2.3102    0.5049   -0.5415 C   0  0  0  0  0  0  0  0  0  0  0  0
   -0.4296   -0.3916   -1.1090 H   0  0  0  0  0  0  0  0  0  0  0  0
    0.9824    1.5913   -0.4224 H   0  0  0  0  0  0  0  0  0  0  0  0
   -3.0399    4.2235    1.1079 H   0  0  0  0  0  0  0  0  0  0  0  0
   -4.0805    1.6147    0.1085 H   0  0  0  0  0  0  0  0  0  0  0  0
    8.3555  -10.7525   -4.5471 N   0  0  0  0  0  0  0  0  0  0  0  0
    8.9957  -11.5720   -4.9215 N   0  0  0  0  0  0  0  0  0  0  0  0
   -3.8066    5.1780    1.5966 Cl  0  0  0  0  0  0  0  0  0  0  0  0
   -2.8784   -0.3686   -0.8508 H   0  0  0  0  0  0  0  0  0  0  0  0
  1  6  2  0  0  0  0
  1  2  1  0  0  0  0
  2  3  2  0  0  0  0
  3  4  1  0  0  0  0
  5 10  1  0  0  0  0
  5  4  2  0  0  0  0
  6  5  1  0  0  0  0
  7  1  1  0  0  0  0
  8  2  1  0  0  0  0
  9 13  1  0  0  0  0
 12 11  3  0  0  0  0
 14  6  1  0  0  0  0
M  RAD  2   3   2   4   2
M  END
