Coordinates from ORCA-job Ph-N2-Cl-B3LYPG-6-31G_dp-MTMO-d009-169-n800
 OpenBabel09051908143D

 14 12  0  0  0  0  0  0  0  0999 V2000
   -0.6557   -0.4567   -0.9437 C   0  0  0  0  0  0  0  0  0  0  0  0
    0.3663    0.4599   -0.5976 C   0  0  0  0  0  0  0  0  0  0  0  0
   -0.2363    1.5925   -0.1125 C   0  0  0  0  0  0  0  0  0  0  0  0
   -1.4291    1.9436    0.0699 C   0  0  0  0  0  0  0  0  0  0  0  0
   -2.4724    1.0663   -0.2593 C   0  0  0  0  0  0  0  0  0  0  0  0
   -2.0209   -0.1620   -0.7795 C   0  0  0  0  0  0  0  0  0  0  0  0
   -0.3619   -1.4211   -1.3504 H   0  0  0  0  0  0  0  0  0  0  0  0
    1.4224    0.2530   -0.7168 H   0  0  0  0  0  0  0  0  0  0  0  0
   -1.9773    3.6540    0.8018 H   0  0  0  0  0  0  0  0  0  0  0  0
   -3.5272    1.2885   -0.1339 H   0  0  0  0  0  0  0  0  0  0  0  0
    5.1202   -6.1507   -2.9411 N   0  0  0  0  0  0  0  0  0  0  0  0
    5.7684   -6.9676   -3.3074 N   0  0  0  0  0  0  0  0  0  0  0  0
   -2.5331    4.7510    1.2776 Cl  0  0  0  0  0  0  0  0  0  0  0  0
   -2.7548   -0.9109   -1.0657 H   0  0  0  0  0  0  0  0  0  0  0  0
  1  6  2  0  0  0  0
  1  2  1  0  0  0  0
  2  3  2  0  0  0  0
  3  4  1  0  0  0  0
  5 10  1  0  0  0  0
  5  4  2  0  0  0  0
  6  5  1  0  0  0  0
  7  1  1  0  0  0  0
  8  2  1  0  0  0  0
  9 13  1  0  0  0  0
 12 11  3  0  0  0  0
 14  6  1  0  0  0  0
M  RAD  2   3   2   4   2
M  END
