Coordinates from ORCA-job Ph-N2-Cl-B3LYPG-6-31G_dp-MTMO-d009-169-n800
 OpenBabel09051908143D

 14 12  0  0  0  0  0  0  0  0999 V2000
   -1.2548   -1.2845   -1.2432 C   0  0  0  0  0  0  0  0  0  0  0  0
    0.1083   -0.9439   -1.0641 C   0  0  0  0  0  0  0  0  0  0  0  0
    0.1484    0.3207   -0.5377 C   0  0  0  0  0  0  0  0  0  0  0  0
   -0.7127    1.1751   -0.2067 C   0  0  0  0  0  0  0  0  0  0  0  0
   -2.0738    0.8725   -0.3695 C   0  0  0  0  0  0  0  0  0  0  0  0
   -2.3022   -0.4081   -0.9080 C   0  0  0  0  0  0  0  0  0  0  0  0
   -1.4876   -2.2629   -1.6556 H   0  0  0  0  0  0  0  0  0  0  0  0
    0.9328   -1.5987   -1.3137 H   0  0  0  0  0  0  0  0  0  0  0  0
   -0.3279    2.9119    0.5191 H   0  0  0  0  0  0  0  0  0  0  0  0
   -2.8865    1.5439   -0.1124 H   0  0  0  0  0  0  0  0  0  0  0  0
    3.5254   -2.2902   -1.5384 N   0  0  0  0  0  0  0  0  0  0  0  0
    4.6107   -2.4932   -1.5815 N   0  0  0  0  0  0  0  0  0  0  0  0
   -0.2448    4.1292    1.0250 Cl  0  0  0  0  0  0  0  0  0  0  0  0
   -3.3267   -0.7322   -1.0721 H   0  0  0  0  0  0  0  0  0  0  0  0
  1  2  2  0  0  0  0
  1  6  1  0  0  0  0
  2  3  1  0  0  0  0
  3  4  2  0  0  0  0
  5  4  1  0  0  0  0
  5 10  1  0  0  0  0
  6  5  2  0  0  0  0
  7  1  1  0  0  0  0
  8  2  1  0  0  0  0
  9 13  1  0  0  0  0
 12 11  3  0  0  0  0
 14  6  1  0  0  0  0
M  RAD  2   3   2   4   2
M  END
