Coordinates from ORCA-job Ph-N2-Cl-B3LYPG-6-31G_dp-MTMO-d009-169-n800
 OpenBabel09051908143D

 14 12  0  0  0  0  0  0  0  0999 V2000
   -0.7021   -0.0370   -0.8116 C   0  0  0  0  0  0  0  0  0  0  0  0
    0.2035    0.9881   -0.4457 C   0  0  0  0  0  0  0  0  0  0  0  0
   -0.5317    2.0442    0.0287 C   0  0  0  0  0  0  0  0  0  0  0  0
   -1.7597    2.2579    0.1884 C   0  0  0  0  0  0  0  0  0  0  0  0
   -2.6915    1.2701   -0.1604 C   0  0  0  0  0  0  0  0  0  0  0  0
   -2.0947    0.1018   -0.6730 C   0  0  0  0  0  0  0  0  0  0  0  0
   -0.2943   -0.9616   -1.2124 H   0  0  0  0  0  0  0  0  0  0  0  0
    1.2784    0.9016   -0.5446 H   0  0  0  0  0  0  0  0  0  0  0  0
   -2.5112    3.8995    0.9065 H   0  0  0  0  0  0  0  0  0  0  0  0
   -3.7669    1.3712   -0.0544 H   0  0  0  0  0  0  0  0  0  0  0  0
    6.4352   -8.1379   -3.6525 N   0  0  0  0  0  0  0  0  0  0  0  0
    7.0731   -8.9607   -4.0236 N   0  0  0  0  0  0  0  0  0  0  0  0
   -3.1955    4.9269    1.3688 Cl  0  0  0  0  0  0  0  0  0  0  0  0
   -2.7341   -0.7243   -0.9732 H   0  0  0  0  0  0  0  0  0  0  0  0
  1  6  2  0  0  0  0
  1  2  1  0  0  0  0
  2  3  2  0  0  0  0
  3  4  1  0  0  0  0
  5 10  1  0  0  0  0
  5  4  2  0  0  0  0
  6  5  1  0  0  0  0
  7  1  1  0  0  0  0
  8  2  1  0  0  0  0
  9 13  1  0  0  0  0
 12 11  3  0  0  0  0
 14  6  1  0  0  0  0
M  RAD  2   3   2   4   2
M  END
