Coordinates from ORCA-job Ph-N2-Cl-B3LYPG-6-31G_dp-MTMO-d009-169-n800
 OpenBabel09051908143D

 14 12  0  0  0  0  0  0  0  0999 V2000
   -1.6303   -1.4998   -1.3275 C   0  0  0  0  0  0  0  0  0  0  0  0
   -0.2223   -1.5362   -1.3060 C   0  0  0  0  0  0  0  0  0  0  0  0
    0.2869   -0.3709   -0.8208 C   0  0  0  0  0  0  0  0  0  0  0  0
   -0.2308    0.7812   -0.3678 C   0  0  0  0  0  0  0  0  0  0  0  0
   -1.6431    0.7618   -0.4122 C   0  0  0  0  0  0  0  0  0  0  0  0
   -2.3212   -0.3650   -0.8861 C   0  0  0  0  0  0  0  0  0  0  0  0
   -2.1678   -2.3696   -1.6935 H   0  0  0  0  0  0  0  0  0  0  0  0
    0.3643   -2.3842   -1.6340 H   0  0  0  0  0  0  0  0  0  0  0  0
    0.3921    1.6284   -0.0086 H   0  0  0  0  0  0  0  0  0  0  0  0
   -2.1858    1.6384   -0.0711 H   0  0  0  0  0  0  0  0  0  0  0  0
    2.3447   -0.2836   -0.7343 N   0  0  0  0  0  0  0  0  0  0  0  0
    3.0248    0.5419   -0.3828 N   0  0  0  0  0  0  0  0  0  0  0  0
    2.1035    2.7588    0.4993 Cl  0  0  0  0  0  0  0  0  0  0  0  0
   -3.4064   -0.3614   -0.9132 H   0  0  0  0  0  0  0  0  0  0  0  0
  1  2  2  0  0  0  0
  1  6  1  0  0  0  0
  2  3  1  0  0  0  0
  3  4  2  0  0  0  0
  4  9  1  0  0  0  0
  5  4  1  0  0  0  0
  5 10  1  0  0  0  0
  6  5  2  0  0  0  0
  7  1  1  0  0  0  0
  8  2  1  0  0  0  0
 11 12  3  0  0  0  0
 14  6  1  0  0  0  0
M  RAD  2   3   2  13   2
M  END
