Coordinates from ORCA-job Ph-N2-Cl-B3LYPG-6-31G_dp-MTMO-d009-169-n800
 OpenBabel09051908143D

 14 12  0  0  0  0  0  0  0  0999 V2000
   -0.8355    0.3486   -0.7188 C   0  0  0  0  0  0  0  0  0  0  0  0
   -0.0040    1.4321   -0.3454 C   0  0  0  0  0  0  0  0  0  0  0  0
   -0.8116    2.4287    0.1400 C   0  0  0  0  0  0  0  0  0  0  0  0
   -2.0511    2.5538    0.3044 C   0  0  0  0  0  0  0  0  0  0  0  0
   -2.9110    1.5051   -0.0517 C   0  0  0  0  0  0  0  0  0  0  0  0
   -2.2341    0.3870   -0.5763 C   0  0  0  0  0  0  0  0  0  0  0  0
   -0.3645   -0.5416   -1.1284 H   0  0  0  0  0  0  0  0  0  0  0  0
    1.0741    1.4237   -0.4470 H   0  0  0  0  0  0  0  0  0  0  0  0
   -2.9154    4.1283    1.0441 H   0  0  0  0  0  0  0  0  0  0  0  0
   -3.9906    1.5280    0.0575 H   0  0  0  0  0  0  0  0  0  0  0  0
    7.7987  -10.0251   -4.3019 N   0  0  0  0  0  0  0  0  0  0  0  0
    8.4373  -10.8470   -4.6738 N   0  0  0  0  0  0  0  0  0  0  0  0
   -3.6698    5.0981    1.5214 Cl  0  0  0  0  0  0  0  0  0  0  0  0
   -2.8139   -0.4798   -0.8829 H   0  0  0  0  0  0  0  0  0  0  0  0
  1  6  2  0  0  0  0
  1  2  1  0  0  0  0
  2  3  2  0  0  0  0
  3  4  1  0  0  0  0
  5 10  1  0  0  0  0
  5  4  2  0  0  0  0
  6  5  1  0  0  0  0
  7  1  1  0  0  0  0
  8  2  1  0  0  0  0
  9 13  1  0  0  0  0
 12 11  3  0  0  0  0
 14  6  1  0  0  0  0
M  RAD  2   3   2   4   2
M  END
