Coordinates from ORCA-job Ph-N2-Cl-B3LYPG-6-31G_dp-MTMO-d009-169-n800
 OpenBabel09051908143D

 14 12  0  0  0  0  0  0  0  0999 V2000
   -0.6500   -0.4772   -0.9497 C   0  0  0  0  0  0  0  0  0  0  0  0
    0.3762    0.4351   -0.6044 C   0  0  0  0  0  0  0  0  0  0  0  0
   -0.2209    1.5706   -0.1193 C   0  0  0  0  0  0  0  0  0  0  0  0
   -1.4122    1.9265    0.0632 C   0  0  0  0  0  0  0  0  0  0  0  0
   -2.4597    1.0542   -0.2651 C   0  0  0  0  0  0  0  0  0  0  0  0
   -2.0138   -0.1764   -0.7851 C   0  0  0  0  0  0  0  0  0  0  0  0
   -0.3607   -1.4430   -1.3562 H   0  0  0  0  0  0  0  0  0  0  0  0
    1.4313    0.2234   -0.7239 H   0  0  0  0  0  0  0  0  0  0  0  0
   -1.9528    3.6402    0.7956 H   0  0  0  0  0  0  0  0  0  0  0  0
   -3.5134    1.2811   -0.1393 H   0  0  0  0  0  0  0  0  0  0  0  0
    5.0470   -6.0463   -2.9048 N   0  0  0  0  0  0  0  0  0  0  0  0
    5.6927   -6.8655   -3.2704 N   0  0  0  0  0  0  0  0  0  0  0  0
   -2.5040    4.7393    1.2714 Cl  0  0  0  0  0  0  0  0  0  0  0  0
   -2.7511   -0.9221   -1.0707 H   0  0  0  0  0  0  0  0  0  0  0  0
  1  6  2  0  0  0  0
  1  2  1  0  0  0  0
  2  3  2  0  0  0  0
  3  4  1  0  0  0  0
  5 10  1  0  0  0  0
  5  4  2  0  0  0  0
  6  5  1  0  0  0  0
  7  1  1  0  0  0  0
  8  2  1  0  0  0  0
  9 13  1  0  0  0  0
 12 11  3  0  0  0  0
 14  6  1  0  0  0  0
M  RAD  2   3   2   4   2
M  END
