Coordinates from ORCA-job Ph-N2-Cl-B3LYPG-6-31G_dp-MTMO-d009-169-n800
 OpenBabel09051908143D

 14 12  0  0  0  0  0  0  0  0999 V2000
   -0.8649   -1.0876   -1.1573 C   0  0  0  0  0  0  0  0  0  0  0  0
    0.3877   -0.4889   -0.8779 C   0  0  0  0  0  0  0  0  0  0  0  0
    0.1422    0.7569   -0.3612 C   0  0  0  0  0  0  0  0  0  0  0  0
   -0.8925    1.4236   -0.1055 C   0  0  0  0  0  0  0  0  0  0  0  0
   -2.1524    0.8639   -0.3688 C   0  0  0  0  0  0  0  0  0  0  0  0
   -2.0854   -0.4336   -0.9111 C   0  0  0  0  0  0  0  0  0  0  0  0
   -0.8702   -2.0900   -1.5771 H   0  0  0  0  0  0  0  0  0  0  0  0
    1.3375   -0.9758   -1.0606 H   0  0  0  0  0  0  0  0  0  0  0  0
   -0.9173    3.2014    0.6243 H   0  0  0  0  0  0  0  0  0  0  0  0
   -3.0969    1.3634   -0.1809 H   0  0  0  0  0  0  0  0  0  0  0  0
    3.5279   -3.1709   -1.8876 N   0  0  0  0  0  0  0  0  0  0  0  0
    4.3276   -3.8831   -2.1607 N   0  0  0  0  0  0  0  0  0  0  0  0
   -1.1231    4.4102    1.1149 Cl  0  0  0  0  0  0  0  0  0  0  0  0
   -3.0117   -0.9496   -1.1495 H   0  0  0  0  0  0  0  0  0  0  0  0
  1  6  2  0  0  0  0
  1  2  1  0  0  0  0
  2  3  2  0  0  0  0
  3  4  1  0  0  0  0
  5 10  1  0  0  0  0
  5  4  2  0  0  0  0
  6  5  1  0  0  0  0
  7  1  1  0  0  0  0
  8  2  1  0  0  0  0
  9 13  1  0  0  0  0
 12 11  3  0  0  0  0
 14  6  1  0  0  0  0
M  RAD  2   3   2   4   2
M  END
