Coordinates from ORCA-job Ph-N2-Cl-B3LYPG-6-31G_dp-MTMO-d009-169-n800
 OpenBabel09051908143D

 14 12  0  0  0  0  0  0  0  0999 V2000
   -0.6594   -0.3429   -0.9064 C   0  0  0  0  0  0  0  0  0  0  0  0
    0.3284    0.6081   -0.5535 C   0  0  0  0  0  0  0  0  0  0  0  0
   -0.3156    1.7192   -0.0720 C   0  0  0  0  0  0  0  0  0  0  0  0
   -1.5210    2.0290    0.1022 C   0  0  0  0  0  0  0  0  0  0  0  0
   -2.5316    1.1170   -0.2338 C   0  0  0  0  0  0  0  0  0  0  0  0
   -2.0349   -0.0950   -0.7513 C   0  0  0  0  0  0  0  0  0  0  0  0
   -0.3301   -1.2967   -1.3110 H   0  0  0  0  0  0  0  0  0  0  0  0
    1.3918    0.4373   -0.6654 H   0  0  0  0  0  0  0  0  0  0  0  0
   -2.1309    3.7232    0.8288 H   0  0  0  0  0  0  0  0  0  0  0  0
   -3.5943    1.3029   -0.1152 H   0  0  0  0  0  0  0  0  0  0  0  0
    5.4668   -6.6868   -3.1333 N   0  0  0  0  0  0  0  0  0  0  0  0
    6.1060   -7.5085   -3.5046 N   0  0  0  0  0  0  0  0  0  0  0  0
   -2.7258    4.8016    1.2990 Cl  0  0  0  0  0  0  0  0  0  0  0  0
   -2.7409   -0.8685   -1.0423 H   0  0  0  0  0  0  0  0  0  0  0  0
  1  6  2  0  0  0  0
  1  2  1  0  0  0  0
  2  3  2  0  0  0  0
  3  4  1  0  0  0  0
  5 10  1  0  0  0  0
  5  4  2  0  0  0  0
  6  5  1  0  0  0  0
  7  1  1  0  0  0  0
  8  2  1  0  0  0  0
  9 13  1  0  0  0  0
 12 11  3  0  0  0  0
 14  6  1  0  0  0  0
M  RAD  2   3   2   4   2
M  END
