Coordinates from ORCA-job Ph-N2-Cl-B3LYPG-6-31G_dp-MTMO-d009-169-n800
 OpenBabel09051908143D

 14 12  0  0  0  0  0  0  0  0999 V2000
   -0.7147    0.0120   -0.7990 C   0  0  0  0  0  0  0  0  0  0  0  0
    0.1799    1.0463   -0.4319 C   0  0  0  0  0  0  0  0  0  0  0  0
   -0.5667    2.0942    0.0432 C   0  0  0  0  0  0  0  0  0  0  0  0
   -1.7969    2.2946    0.2026 C   0  0  0  0  0  0  0  0  0  0  0  0
   -2.7181    1.2973   -0.1473 C   0  0  0  0  0  0  0  0  0  0  0  0
   -2.1087    0.1359   -0.6608 C   0  0  0  0  0  0  0  0  0  0  0  0
   -0.2971   -0.9080   -1.2005 H   0  0  0  0  0  0  0  0  0  0  0  0
    1.2557    0.9712   -0.5305 H   0  0  0  0  0  0  0  0  0  0  0  0
   -2.5663    3.9274    0.9223 H   0  0  0  0  0  0  0  0  0  0  0  0
   -3.7946    1.3869   -0.0416 H   0  0  0  0  0  0  0  0  0  0  0  0
    6.5996   -8.3726   -3.7341 N   0  0  0  0  0  0  0  0  0  0  0  0
    7.2376   -9.1955   -4.1048 N   0  0  0  0  0  0  0  0  0  0  0  0
   -3.2618    4.9467    1.3856 Cl  0  0  0  0  0  0  0  0  0  0  0  0
   -2.7393   -0.6966   -0.9619 H   0  0  0  0  0  0  0  0  0  0  0  0
  1  6  2  0  0  0  0
  1  2  1  0  0  0  0
  2  3  2  0  0  0  0
  3  4  1  0  0  0  0
  5 10  1  0  0  0  0
  5  4  2  0  0  0  0
  6  5  1  0  0  0  0
  7  1  1  0  0  0  0
  8  2  1  0  0  0  0
  9 13  1  0  0  0  0
 12 11  3  0  0  0  0
 14  6  1  0  0  0  0
M  RAD  2   3   2   4   2
M  END
