Coordinates from ORCA-job Ph-N2-Cl-B3LYPG-6-31G_dp-MTMO-d009-169-n800
 OpenBabel09051908143D

 14 12  0  0  0  0  0  0  0  0999 V2000
   -0.8932   -1.1150   -1.1683 C   0  0  0  0  0  0  0  0  0  0  0  0
    0.3722   -0.5396   -0.8965 C   0  0  0  0  0  0  0  0  0  0  0  0
    0.1521    0.7101   -0.3779 C   0  0  0  0  0  0  0  0  0  0  0  0
   -0.8681    1.3963   -0.1153 C   0  0  0  0  0  0  0  0  0  0  0  0
   -2.1396    0.8594   -0.3711 C   0  0  0  0  0  0  0  0  0  0  0  0
   -2.0998   -0.4388   -0.9143 C   0  0  0  0  0  0  0  0  0  0  0  0
   -0.9194   -2.1170   -1.5884 H   0  0  0  0  0  0  0  0  0  0  0  0
    1.3118   -1.0434   -1.0850 H   0  0  0  0  0  0  0  0  0  0  0  0
   -0.8555    3.1730    0.6138 H   0  0  0  0  0  0  0  0  0  0  0  0
   -3.0737    1.3760   -0.1773 H   0  0  0  0  0  0  0  0  0  0  0  0
    3.4854   -3.0403   -1.8368 N   0  0  0  0  0  0  0  0  0  0  0  0
    4.3084   -3.7289   -2.1005 N   0  0  0  0  0  0  0  0  0  0  0  0
   -1.0349    4.3856    1.1058 Cl  0  0  0  0  0  0  0  0  0  0  0  0
   -3.0369   -0.9376   -1.1471 H   0  0  0  0  0  0  0  0  0  0  0  0
  1  6  2  0  0  0  0
  1  2  1  0  0  0  0
  2  3  2  0  0  0  0
  3  4  1  0  0  0  0
  5 10  1  0  0  0  0
  5  4  2  0  0  0  0
  6  5  1  0  0  0  0
  7  1  1  0  0  0  0
  8  2  1  0  0  0  0
  9 13  1  0  0  0  0
 12 11  3  0  0  0  0
 14  6  1  0  0  0  0
M  RAD  2   3   2   4   2
M  END
