Coordinates from ORCA-job Ph-N2-Cl-B3LYPG-6-31G_dp-MTMO-d009-169-n800
 OpenBabel09051908143D

 14 12  0  0  0  0  0  0  0  0999 V2000
   -1.6520   -1.4786   -1.3190 C   0  0  0  0  0  0  0  0  0  0  0  0
   -0.2412   -1.5768   -1.3271 C   0  0  0  0  0  0  0  0  0  0  0  0
    0.2557   -0.4088   -0.8426 C   0  0  0  0  0  0  0  0  0  0  0  0
   -0.1676    0.7247   -0.3932 C   0  0  0  0  0  0  0  0  0  0  0  0
   -1.5861    0.7901   -0.3989 C   0  0  0  0  0  0  0  0  0  0  0  0
   -2.3008   -0.3196   -0.8643 C   0  0  0  0  0  0  0  0  0  0  0  0
   -2.2270   -2.3287   -1.6761 H   0  0  0  0  0  0  0  0  0  0  0  0
    0.3083   -2.4448   -1.6663 H   0  0  0  0  0  0  0  0  0  0  0  0
    0.5102    1.7200    0.0275 H   0  0  0  0  0  0  0  0  0  0  0  0
   -2.0839    1.6890   -0.0459 H   0  0  0  0  0  0  0  0  0  0  0  0
    2.5768   -0.4216   -0.7883 N   0  0  0  0  0  0  0  0  0  0  0  0
    3.3528    0.2941   -0.4552 N   0  0  0  0  0  0  0  0  0  0  0  0
    1.3497    2.9862    0.5656 Cl  0  0  0  0  0  0  0  0  0  0  0  0
   -3.3863   -0.2853   -0.8750 H   0  0  0  0  0  0  0  0  0  0  0  0
  1  6  1  0  0  0  0
  2  1  2  0  0  0  0
  2  3  1  0  0  0  0
  3  4  2  0  0  0  0
  4  9  1  0  0  0  0
  5  4  1  0  0  0  0
  5 10  1  0  0  0  0
  6  5  2  0  0  0  0
  7  1  1  0  0  0  0
  8  2  1  0  0  0  0
 11 12  3  0  0  0  0
 14  6  1  0  0  0  0
M  RAD  2   3   2  13   2
M  END
