Coordinates from ORCA-job Ph-N2-Cl-B3LYPG-6-31G_dp-MTMO-d009-169-n800
 OpenBabel09051908143D

 14 13  0  0  0  0  0  0  0  0999 V2000
   -1.4973   -1.4832   -1.3152 C   0  0  0  0  0  0  0  0  0  0  0  0
   -0.1168   -1.3979   -1.2472 C   0  0  0  0  0  0  0  0  0  0  0  0
    0.5180   -0.2192   -0.7562 C   0  0  0  0  0  0  0  0  0  0  0  0
   -0.3028    0.8742   -0.3358 C   0  0  0  0  0  0  0  0  0  0  0  0
   -1.6835    0.7662   -0.4137 C   0  0  0  0  0  0  0  0  0  0  0  0
   -2.2824   -0.4013   -0.8989 C   0  0  0  0  0  0  0  0  0  0  0  0
   -1.9660   -2.3869   -1.6909 H   0  0  0  0  0  0  0  0  0  0  0  0
    0.5146   -2.2221   -1.5642 H   0  0  0  0  0  0  0  0  0  0  0  0
    0.1864    1.7679    0.0363 H   0  0  0  0  0  0  0  0  0  0  0  0
   -2.3009    1.5995   -0.0933 H   0  0  0  0  0  0  0  0  0  0  0  0
    1.7172   -0.1868   -0.7139 N   0  0  0  0  0  0  0  0  0  0  0  0
    2.7369    0.3377   -0.4728 N   0  0  0  0  0  0  0  0  0  0  0  0
    2.5505    2.3615    0.3607 Cl  0  0  0  0  0  0  0  0  0  0  0  0
   -3.3652   -0.4695   -0.9537 H   0  0  0  0  0  0  0  0  0  0  0  0
  1  2  2  0  0  0  0
  1  6  1  0  0  0  0
  2  3  1  0  0  0  0
  3 11  1  0  0  0  0
  3  4  2  0  0  0  0
  4  9  1  0  0  0  0
  5  4  1  0  0  0  0
  5 10  1  0  0  0  0
  6  5  2  0  0  0  0
  7  1  1  0  0  0  0
  8  2  1  0  0  0  0
 11 12  2  0  0  0  0
 14  6  1  0  0  0  0
M  RAD  2  12   2  13   2
M  END
