Coordinates from ORCA-job Ph-N2-Cl-B3LYPG-6-31G_dp-MTMO-d009-169-n800
 OpenBabel09051908143D

 14 12  0  0  0  0  0  0  0  0999 V2000
   -0.7248    0.0472   -0.7905 C   0  0  0  0  0  0  0  0  0  0  0  0
    0.1623    1.0876   -0.4226 C   0  0  0  0  0  0  0  0  0  0  0  0
   -0.5921    2.1295    0.0533 C   0  0  0  0  0  0  0  0  0  0  0  0
   -1.8237    2.3214    0.2131 C   0  0  0  0  0  0  0  0  0  0  0  0
   -2.7374    1.3174   -0.1378 C   0  0  0  0  0  0  0  0  0  0  0  0
   -2.1197    0.1609   -0.6522 C   0  0  0  0  0  0  0  0  0  0  0  0
   -0.3006   -0.8695   -1.1926 H   0  0  0  0  0  0  0  0  0  0  0  0
    1.2386    1.0209   -0.5211 H   0  0  0  0  0  0  0  0  0  0  0  0
   -2.6047    3.9475    0.9343 H   0  0  0  0  0  0  0  0  0  0  0  0
   -3.8146    1.3988   -0.0320 H   0  0  0  0  0  0  0  0  0  0  0  0
    6.7195   -8.5421   -3.7926 N   0  0  0  0  0  0  0  0  0  0  0  0
    7.3576   -9.3650   -4.1631 N   0  0  0  0  0  0  0  0  0  0  0  0
   -3.3076    4.9612    1.3988 Cl  0  0  0  0  0  0  0  0  0  0  0  0
   -2.7442   -0.6760   -0.9539 H   0  0  0  0  0  0  0  0  0  0  0  0
  1  6  2  0  0  0  0
  1  2  1  0  0  0  0
  2  3  2  0  0  0  0
  3  4  1  0  0  0  0
  5 10  1  0  0  0  0
  5  4  2  0  0  0  0
  6  5  1  0  0  0  0
  7  1  1  0  0  0  0
  8  2  1  0  0  0  0
  9 13  1  0  0  0  0
 12 11  3  0  0  0  0
 14  6  1  0  0  0  0
M  RAD  2   3   2   4   2
M  END
