Coordinates from ORCA-job Ph-N2-Cl-B3LYPG-6-31G_dp-MTMO-d009-169-n800
 OpenBabel09051908143D

 14 12  0  0  0  0  0  0  0  0999 V2000
   -1.7012   -1.4866   -1.3236 C   0  0  0  0  0  0  0  0  0  0  0  0
   -0.2867   -1.5479   -1.3043 C   0  0  0  0  0  0  0  0  0  0  0  0
    0.1674   -0.3553   -0.8086 C   0  0  0  0  0  0  0  0  0  0  0  0
   -0.3649    0.7076   -0.3959 C   0  0  0  0  0  0  0  0  0  0  0  0
   -1.7673    0.8002   -0.4024 C   0  0  0  0  0  0  0  0  0  0  0  0
   -2.4111   -0.3532   -0.8884 C   0  0  0  0  0  0  0  0  0  0  0  0
   -2.2465   -2.3528   -1.6902 H   0  0  0  0  0  0  0  0  0  0  0  0
    0.2865   -2.4051   -1.6325 H   0  0  0  0  0  0  0  0  0  0  0  0
    0.5635    2.2275    0.2453 H   0  0  0  0  0  0  0  0  0  0  0  0
   -2.3217    1.6712   -0.0677 H   0  0  0  0  0  0  0  0  0  0  0  0
    3.1420   -0.7527   -0.9068 N   0  0  0  0  0  0  0  0  0  0  0  0
    4.0675   -0.1966   -0.6706 N   0  0  0  0  0  0  0  0  0  0  0  0
    1.0786    3.3533    0.7165 Cl  0  0  0  0  0  0  0  0  0  0  0  0
   -3.4973   -0.3697   -0.9296 H   0  0  0  0  0  0  0  0  0  0  0  0
  1  2  2  0  0  0  0
  1  6  1  0  0  0  0
  2  3  1  0  0  0  0
  3  4  2  0  0  0  0
  5  4  1  0  0  0  0
  5 10  1  0  0  0  0
  6  5  2  0  0  0  0
  7  1  1  0  0  0  0
  8  2  1  0  0  0  0
  9 13  1  0  0  0  0
 11 12  3  0  0  0  0
 14  6  1  0  0  0  0
M  RAD  2   3   2   4   2
M  END
