Coordinates from ORCA-job Ph-N2-Cl-B3LYPG-6-31G_dp-MTMO-d009-169-n800
 OpenBabel09051908143D

 14 12  0  0  0  0  0  0  0  0999 V2000
   -0.8307    0.3384   -0.7211 C   0  0  0  0  0  0  0  0  0  0  0  0
    0.0023    1.4209   -0.3479 C   0  0  0  0  0  0  0  0  0  0  0  0
   -0.8041    2.4187    0.1370 C   0  0  0  0  0  0  0  0  0  0  0  0
   -2.0435    2.5456    0.3011 C   0  0  0  0  0  0  0  0  0  0  0  0
   -2.9047    1.4980   -0.0548 C   0  0  0  0  0  0  0  0  0  0  0  0
   -2.2292    0.3788   -0.5789 C   0  0  0  0  0  0  0  0  0  0  0  0
   -0.3608   -0.5526   -1.1303 H   0  0  0  0  0  0  0  0  0  0  0  0
    1.0804    1.4109   -0.4493 H   0  0  0  0  0  0  0  0  0  0  0  0
   -2.9057    4.1217    1.0400 H   0  0  0  0  0  0  0  0  0  0  0  0
   -3.9843    1.5225    0.0541 H   0  0  0  0  0  0  0  0  0  0  0  0
    7.7597   -9.9731   -4.2842 N   0  0  0  0  0  0  0  0  0  0  0  0
    8.3982  -10.7952   -4.6559 N   0  0  0  0  0  0  0  0  0  0  0  0
   -3.6588    5.0927    1.5167 Cl  0  0  0  0  0  0  0  0  0  0  0  0
   -2.8102   -0.4873   -0.8853 H   0  0  0  0  0  0  0  0  0  0  0  0
  1  6  2  0  0  0  0
  1  2  1  0  0  0  0
  2  3  2  0  0  0  0
  3  4  1  0  0  0  0
  5 10  1  0  0  0  0
  5  4  2  0  0  0  0
  6  5  1  0  0  0  0
  7  1  1  0  0  0  0
  8  2  1  0  0  0  0
  9 13  1  0  0  0  0
 12 11  3  0  0  0  0
 14  6  1  0  0  0  0
M  RAD  2   3   2   4   2
M  END
