Coordinates from ORCA-job Ph-N2-Cl-B3LYPG-6-31G_dp-MTMO-d009-169-n800
 OpenBabel09051908143D

 14 12  0  0  0  0  0  0  0  0999 V2000
   -0.6482   -0.5447   -0.9747 C   0  0  0  0  0  0  0  0  0  0  0  0
    0.3980    0.3464   -0.6341 C   0  0  0  0  0  0  0  0  0  0  0  0
   -0.1736    1.4933   -0.1451 C   0  0  0  0  0  0  0  0  0  0  0  0
   -1.3565    1.8733    0.0440 C   0  0  0  0  0  0  0  0  0  0  0  0
   -2.4229    1.0224   -0.2795 C   0  0  0  0  0  0  0  0  0  0  0  0
   -2.0048   -0.2164   -0.8027 C   0  0  0  0  0  0  0  0  0  0  0  0
   -0.3806   -1.5158   -1.3834 H   0  0  0  0  0  0  0  0  0  0  0  0
    1.4479    0.1136   -0.7595 H   0  0  0  0  0  0  0  0  0  0  0  0
   -1.8587    3.5957    0.7805 H   0  0  0  0  0  0  0  0  0  0  0  0
   -3.4711    1.2706   -0.1480 H   0  0  0  0  0  0  0  0  0  0  0  0
    4.8409   -5.7166   -2.7846 N   0  0  0  0  0  0  0  0  0  0  0  0
    5.4826   -6.5400   -3.1476 N   0  0  0  0  0  0  0  0  0  0  0  0
   -2.3858    4.7049    1.2606 Cl  0  0  0  0  0  0  0  0  0  0  0  0
   -2.7585   -0.9469   -1.0849 H   0  0  0  0  0  0  0  0  0  0  0  0
  1  6  2  0  0  0  0
  1  2  1  0  0  0  0
  2  3  2  0  0  0  0
  3  4  1  0  0  0  0
  5 10  1  0  0  0  0
  5  4  2  0  0  0  0
  6  5  1  0  0  0  0
  7  1  1  0  0  0  0
  8  2  1  0  0  0  0
  9 13  1  0  0  0  0
 12 11  3  0  0  0  0
 14  6  1  0  0  0  0
M  RAD  2   3   2   4   2
M  END
