Coordinates from ORCA-job Ph-N2-Cl-B3LYPG-6-31G_dp-MTMO-d009-169-n800
 OpenBabel09051908143D

 14 12  0  0  0  0  0  0  0  0999 V2000
   -0.7211   -0.7805   -1.0497 C   0  0  0  0  0  0  0  0  0  0  0  0
    0.4151    0.0005   -0.7276 C   0  0  0  0  0  0  0  0  0  0  0  0
   -0.0311    1.1967   -0.2274 C   0  0  0  0  0  0  0  0  0  0  0  0
   -1.1651    1.6953   -0.0155 C   0  0  0  0  0  0  0  0  0  0  0  0
   -2.3166    0.9549   -0.3207 C   0  0  0  0  0  0  0  0  0  0  0  0
   -2.0346   -0.3181   -0.8525 C   0  0  0  0  0  0  0  0  0  0  0  0
   -0.5597   -1.7724   -1.4638 H   0  0  0  0  0  0  0  0  0  0  0  0
    1.4340   -0.3359   -0.8719 H   0  0  0  0  0  0  0  0  0  0  0  0
   -1.4811    3.4533    0.7211 H   0  0  0  0  0  0  0  0  0  0  0  0
   -3.3320    1.3062   -0.1700 H   0  0  0  0  0  0  0  0  0  0  0  0
    4.2999   -4.6411   -2.4058 N   0  0  0  0  0  0  0  0  0  0  0  0
    4.9489   -5.4621   -2.7614 N   0  0  0  0  0  0  0  0  0  0  0  0
   -1.8850    4.6113    1.2078 Cl  0  0  0  0  0  0  0  0  0  0  0  0
   -2.8629   -0.9683   -1.1214 H   0  0  0  0  0  0  0  0  0  0  0  0
  1  6  2  0  0  0  0
  1  2  1  0  0  0  0
  2  3  2  0  0  0  0
  3  4  1  0  0  0  0
  5 10  1  0  0  0  0
  5  4  2  0  0  0  0
  6  5  1  0  0  0  0
  7  1  1  0  0  0  0
  8  2  1  0  0  0  0
  9 13  1  0  0  0  0
 12 11  3  0  0  0  0
 14  6  1  0  0  0  0
M  RAD  2   3   2   4   2
M  END
