Coordinates from ORCA-job Ph-N2-Cl-B3LYPG-6-31G_dp-MTMO-d009-169-n800
 OpenBabel09051908143D

 14 12  0  0  0  0  0  0  0  0999 V2000
   -0.6876   -0.0997   -0.8285 C   0  0  0  0  0  0  0  0  0  0  0  0
    0.2328    0.9127   -0.4644 C   0  0  0  0  0  0  0  0  0  0  0  0
   -0.4873    1.9795    0.0097 C   0  0  0  0  0  0  0  0  0  0  0  0
   -1.7119    2.2111    0.1705 C   0  0  0  0  0  0  0  0  0  0  0  0
   -2.6577    1.2358   -0.1767 C   0  0  0  0  0  0  0  0  0  0  0  0
   -2.0779    0.0589   -0.6888 C   0  0  0  0  0  0  0  0  0  0  0  0
   -0.2932   -1.0303   -1.2290 H   0  0  0  0  0  0  0  0  0  0  0  0
    1.3063    0.8114   -0.5641 H   0  0  0  0  0  0  0  0  0  0  0  0
   -2.4387    3.8636    0.8873 H   0  0  0  0  0  0  0  0  0  0  0  0
   -3.7315    1.3521   -0.0700 H   0  0  0  0  0  0  0  0  0  0  0  0
    6.2274   -7.8377   -3.5474 N   0  0  0  0  0  0  0  0  0  0  0  0
    6.8649   -8.6606   -3.9189 N   0  0  0  0  0  0  0  0  0  0  0  0
   -3.1075    4.9015    1.3491 Cl  0  0  0  0  0  0  0  0  0  0  0  0
   -2.7292   -0.7584   -0.9876 H   0  0  0  0  0  0  0  0  0  0  0  0
  1  6  2  0  0  0  0
  1  2  1  0  0  0  0
  2  3  2  0  0  0  0
  3  4  1  0  0  0  0
  5 10  1  0  0  0  0
  5  4  2  0  0  0  0
  6  5  1  0  0  0  0
  7  1  1  0  0  0  0
  8  2  1  0  0  0  0
  9 13  1  0  0  0  0
 12 11  3  0  0  0  0
 14  6  1  0  0  0  0
M  RAD  2   3   2   4   2
M  END
