Coordinates from ORCA-job Ph-N2-Cl-B3LYPG-6-31G_dp-MTMO-d009-169-n800
 OpenBabel09051908143D

 14 12  0  0  0  0  0  0  0  0999 V2000
   -0.8380    0.3537   -0.7177 C   0  0  0  0  0  0  0  0  0  0  0  0
   -0.0071    1.4377   -0.3442 C   0  0  0  0  0  0  0  0  0  0  0  0
   -0.8154    2.4336    0.1415 C   0  0  0  0  0  0  0  0  0  0  0  0
   -2.0550    2.5579    0.3061 C   0  0  0  0  0  0  0  0  0  0  0  0
   -2.9142    1.5086   -0.0501 C   0  0  0  0  0  0  0  0  0  0  0  0
   -2.2365    0.3911   -0.5750 C   0  0  0  0  0  0  0  0  0  0  0  0
   -0.3664   -0.5362   -1.1275 H   0  0  0  0  0  0  0  0  0  0  0  0
    1.0710    1.4301   -0.4459 H   0  0  0  0  0  0  0  0  0  0  0  0
   -2.9202    4.1317    1.0462 H   0  0  0  0  0  0  0  0  0  0  0  0
   -3.9938    1.5308    0.0592 H   0  0  0  0  0  0  0  0  0  0  0  0
    7.8183  -10.0510   -4.3108 N   0  0  0  0  0  0  0  0  0  0  0  0
    8.4569  -10.8729   -4.6827 N   0  0  0  0  0  0  0  0  0  0  0  0
   -3.6752    5.1009    1.5238 Cl  0  0  0  0  0  0  0  0  0  0  0  0
   -2.8158   -0.4760   -0.8816 H   0  0  0  0  0  0  0  0  0  0  0  0
  1  6  2  0  0  0  0
  1  2  1  0  0  0  0
  2  3  2  0  0  0  0
  3  4  1  0  0  0  0
  5 10  1  0  0  0  0
  5  4  2  0  0  0  0
  6  5  1  0  0  0  0
  7  1  1  0  0  0  0
  8  2  1  0  0  0  0
  9 13  1  0  0  0  0
 12 11  3  0  0  0  0
 14  6  1  0  0  0  0
M  RAD  2   3   2   4   2
M  END
