Coordinates from ORCA-job Ph-N2-Cl-B3LYPG-6-31G_dp-MTMO-d009-169-n800
 OpenBabel09051908143D

 14 12  0  0  0  0  0  0  0  0999 V2000
   -0.7656    0.1793   -0.7582 C   0  0  0  0  0  0  0  0  0  0  0  0
    0.0940    1.2416   -0.3876 C   0  0  0  0  0  0  0  0  0  0  0  0
   -0.6871    2.2622    0.0912 C   0  0  0  0  0  0  0  0  0  0  0  0
   -1.9232    2.4209    0.2517 C   0  0  0  0  0  0  0  0  0  0  0  0
   -2.8107    1.3946   -0.1016 C   0  0  0  0  0  0  0  0  0  0  0  0
   -2.1630    0.2561   -0.6193 C   0  0  0  0  0  0  0  0  0  0  0  0
   -0.3178   -0.7251   -1.1627 H   0  0  0  0  0  0  0  0  0  0  0  0
    1.1717    1.2029   -0.4867 H   0  0  0  0  0  0  0  0  0  0  0  0
   -2.7469    4.0233    0.9797 H   0  0  0  0  0  0  0  0  0  0  0  0
   -3.8895    1.4476    0.0049 H   0  0  0  0  0  0  0  0  0  0  0  0
    7.1751   -9.1802   -4.0126 N   0  0  0  0  0  0  0  0  0  0  0  0
    7.8129  -10.0033   -4.3831 N   0  0  0  0  0  0  0  0  0  0  0  0
   -3.4760    5.0161    1.4487 Cl  0  0  0  0  0  0  0  0  0  0  0  0
   -2.7654   -0.5961   -0.9233 H   0  0  0  0  0  0  0  0  0  0  0  0
  1  6  2  0  0  0  0
  1  2  1  0  0  0  0
  2  3  2  0  0  0  0
  3  4  1  0  0  0  0
  5 10  1  0  0  0  0
  5  4  2  0  0  0  0
  6  5  1  0  0  0  0
  7  1  1  0  0  0  0
  8  2  1  0  0  0  0
  9 13  1  0  0  0  0
 12 11  3  0  0  0  0
 14  6  1  0  0  0  0
M  RAD  2   3   2   4   2
M  END
