Coordinates from ORCA-job Ph-N2-Cl-B3LYPG-6-31G_dp-MTMO-d009-169-n800
 OpenBabel09051908143D

 14 12  0  0  0  0  0  0  0  0999 V2000
   -0.8899   -1.1119   -1.1670 C   0  0  0  0  0  0  0  0  0  0  0  0
    0.3740   -0.5339   -0.8944 C   0  0  0  0  0  0  0  0  0  0  0  0
    0.1510    0.7154   -0.3760 C   0  0  0  0  0  0  0  0  0  0  0  0
   -0.8709    1.3994   -0.1142 C   0  0  0  0  0  0  0  0  0  0  0  0
   -2.1410    0.8599   -0.3709 C   0  0  0  0  0  0  0  0  0  0  0  0
   -2.0981   -0.4383   -0.9139 C   0  0  0  0  0  0  0  0  0  0  0  0
   -0.9137   -2.1140   -1.5871 H   0  0  0  0  0  0  0  0  0  0  0  0
    1.3148   -1.0357   -1.0822 H   0  0  0  0  0  0  0  0  0  0  0  0
   -0.8625    3.1762    0.6150 H   0  0  0  0  0  0  0  0  0  0  0  0
   -3.0763    1.3746   -0.1777 H   0  0  0  0  0  0  0  0  0  0  0  0
    3.4898   -3.0550   -1.8425 N   0  0  0  0  0  0  0  0  0  0  0  0
    4.3103   -3.7463   -2.1073 N   0  0  0  0  0  0  0  0  0  0  0  0
   -1.0450    4.3884    1.1069 Cl  0  0  0  0  0  0  0  0  0  0  0  0
   -3.0340   -0.9390   -1.1474 H   0  0  0  0  0  0  0  0  0  0  0  0
  1  6  2  0  0  0  0
  1  2  1  0  0  0  0
  2  3  2  0  0  0  0
  3  4  1  0  0  0  0
  5 10  1  0  0  0  0
  5  4  2  0  0  0  0
  6  5  1  0  0  0  0
  7  1  1  0  0  0  0
  8  2  1  0  0  0  0
  9 13  1  0  0  0  0
 12 11  3  0  0  0  0
 14  6  1  0  0  0  0
M  RAD  2   3   2   4   2
M  END
