Coordinates from ORCA-job Ph-N2-Cl-B3LYPG-6-31G_dp-MTMO-d009-169-n800
 OpenBabel09051908143D

 14 13  0  0  0  0  0  0  0  0999 V2000
   -1.4858   -1.4840   -1.3137 C   0  0  0  0  0  0  0  0  0  0  0  0
   -0.1088   -1.3955   -1.2465 C   0  0  0  0  0  0  0  0  0  0  0  0
    0.5486   -0.2091   -0.7535 C   0  0  0  0  0  0  0  0  0  0  0  0
   -0.3074    0.8831   -0.3346 C   0  0  0  0  0  0  0  0  0  0  0  0
   -1.6845    0.7679   -0.4144 C   0  0  0  0  0  0  0  0  0  0  0  0
   -2.2766   -0.4038   -0.8990 C   0  0  0  0  0  0  0  0  0  0  0  0
   -1.9520   -2.3896   -1.6884 H   0  0  0  0  0  0  0  0  0  0  0  0
    0.5242   -2.2196   -1.5629 H   0  0  0  0  0  0  0  0  0  0  0  0
    0.1793    1.7795    0.0374 H   0  0  0  0  0  0  0  0  0  0  0  0
   -2.3076    1.5979   -0.0960 H   0  0  0  0  0  0  0  0  0  0  0  0
    1.6465   -0.1556   -0.7058 N   0  0  0  0  0  0  0  0  0  0  0  0
    2.7089    0.2951   -0.4932 N   0  0  0  0  0  0  0  0  0  0  0  0
    2.5827    2.3512    0.3667 Cl  0  0  0  0  0  0  0  0  0  0  0  0
   -3.3590   -0.4777   -0.9550 H   0  0  0  0  0  0  0  0  0  0  0  0
  1  2  2  0  0  0  0
  1  6  1  0  0  0  0
  2  3  1  0  0  0  0
  3 11  1  0  0  0  0
  3  4  2  0  0  0  0
  4  9  1  0  0  0  0
  5  4  1  0  0  0  0
  5 10  1  0  0  0  0
  6  5  2  0  0  0  0
  7  1  1  0  0  0  0
  8  2  1  0  0  0  0
 11 12  1  0  0  0  0
 14  6  1  0  0  0  0
M  RAD  3  11   2  12   3  13   2
M  END
