Coordinates from ORCA-job Ph-N2-Cl-B3LYPG-6-31G_dp-MTMO-d009-169-n800
 OpenBabel09051908143D

 14 12  0  0  0  0  0  0  0  0999 V2000
   -0.7295   -0.8137   -1.0618 C   0  0  0  0  0  0  0  0  0  0  0  0
    0.4183   -0.0483   -0.7432 C   0  0  0  0  0  0  0  0  0  0  0  0
   -0.0102    1.1535   -0.2409 C   0  0  0  0  0  0  0  0  0  0  0  0
   -1.1364    1.6677   -0.0246 C   0  0  0  0  0  0  0  0  0  0  0  0
   -2.2987    0.9429   -0.3262 C   0  0  0  0  0  0  0  0  0  0  0  0
   -2.0360   -0.3334   -0.8598 C   0  0  0  0  0  0  0  0  0  0  0  0
   -0.5831   -1.8074   -1.4769 H   0  0  0  0  0  0  0  0  0  0  0  0
    1.4320   -0.3984   -0.8911 H   0  0  0  0  0  0  0  0  0  0  0  0
   -1.4263    3.4290    0.7121 H   0  0  0  0  0  0  0  0  0  0  0  0
   -3.3088    1.3079   -0.1719 H   0  0  0  0  0  0  0  0  0  0  0  0
    4.2119   -4.4793   -2.3480 N   0  0  0  0  0  0  0  0  0  0  0  0
    4.8618   -5.3011   -2.6999 N   0  0  0  0  0  0  0  0  0  0  0  0
   -1.8126    4.5928    1.1996 Cl  0  0  0  0  0  0  0  0  0  0  0  0
   -2.8739   -0.9721   -1.1262 H   0  0  0  0  0  0  0  0  0  0  0  0
  1  6  2  0  0  0  0
  1  2  1  0  0  0  0
  2  3  2  0  0  0  0
  3  4  1  0  0  0  0
  5 10  1  0  0  0  0
  5  4  2  0  0  0  0
  6  5  1  0  0  0  0
  7  1  1  0  0  0  0
  8  2  1  0  0  0  0
  9 13  1  0  0  0  0
 12 11  3  0  0  0  0
 14  6  1  0  0  0  0
M  RAD  2   3   2   4   2
M  END
