Coordinates from ORCA-job Ph-N2-Cl-B3LYPG-6-31G_dp-MTMO-d009-169-n800
 OpenBabel09051908143D

 14 12  0  0  0  0  0  0  0  0999 V2000
   -0.6994   -0.7229   -1.0342 C   0  0  0  0  0  0  0  0  0  0  0  0
    0.4148    0.0876   -0.7081 C   0  0  0  0  0  0  0  0  0  0  0  0
   -0.0641    1.2717   -0.2089 C   0  0  0  0  0  0  0  0  0  0  0  0
   -1.2118    1.7394   -0.0008 C   0  0  0  0  0  0  0  0  0  0  0  0
   -2.3425    0.9694   -0.3099 C   0  0  0  0  0  0  0  0  0  0  0  0
   -2.0253   -0.2954   -0.8413 C   0  0  0  0  0  0  0  0  0  0  0  0
   -0.5106   -1.7099   -1.4483 H   0  0  0  0  0  0  0  0  0  0  0  0
    1.4426   -0.2217   -0.8496 H   0  0  0  0  0  0  0  0  0  0  0  0
   -1.5763    3.4888    0.7386 H   0  0  0  0  0  0  0  0  0  0  0  0
   -3.3673    1.2940   -0.1625 H   0  0  0  0  0  0  0  0  0  0  0  0
    4.4239   -4.9032   -2.4961 N   0  0  0  0  0  0  0  0  0  0  0  0
    5.0724   -5.7251   -2.8504 N   0  0  0  0  0  0  0  0  0  0  0  0
   -2.0126    4.6344    1.2259 Cl  0  0  0  0  0  0  0  0  0  0  0  0
   -2.8352   -0.9672   -1.1132 H   0  0  0  0  0  0  0  0  0  0  0  0
  1  6  2  0  0  0  0
  1  2  1  0  0  0  0
  2  3  2  0  0  0  0
  3  4  1  0  0  0  0
  5 10  1  0  0  0  0
  5  4  2  0  0  0  0
  6  5  1  0  0  0  0
  7  1  1  0  0  0  0
  8  2  1  0  0  0  0
  9 13  1  0  0  0  0
 12 11  3  0  0  0  0
 14  6  1  0  0  0  0
M  RAD  2   3   2   4   2
M  END
