Coordinates from ORCA-job Ph-N2-Cl-B3LYPG-6-31G_dp-MTMO-d009-169-n800
 OpenBabel09051908143D

 14 12  0  0  0  0  0  0  0  0999 V2000
   -0.7206    0.0338   -0.7936 C   0  0  0  0  0  0  0  0  0  0  0  0
    0.1692    1.0720   -0.4259 C   0  0  0  0  0  0  0  0  0  0  0  0
   -0.5822    2.1162    0.0495 C   0  0  0  0  0  0  0  0  0  0  0  0
   -1.8134    2.3109    0.2089 C   0  0  0  0  0  0  0  0  0  0  0  0
   -2.7299    1.3096   -0.1415 C   0  0  0  0  0  0  0  0  0  0  0  0
   -2.1152    0.1512   -0.6555 C   0  0  0  0  0  0  0  0  0  0  0  0
   -0.2988   -0.8842   -1.1953 H   0  0  0  0  0  0  0  0  0  0  0  0
    1.2453    1.0019   -0.5245 H   0  0  0  0  0  0  0  0  0  0  0  0
   -2.5904    3.9397    0.9295 H   0  0  0  0  0  0  0  0  0  0  0  0
   -3.8068    1.3942   -0.0358 H   0  0  0  0  0  0  0  0  0  0  0  0
    6.6730   -8.4769   -3.7702 N   0  0  0  0  0  0  0  0  0  0  0  0
    7.3110   -9.2999   -4.1409 N   0  0  0  0  0  0  0  0  0  0  0  0
   -3.2907    4.9555    1.3934 Cl  0  0  0  0  0  0  0  0  0  0  0  0
   -2.7419   -0.6841   -0.9570 H   0  0  0  0  0  0  0  0  0  0  0  0
  1  6  2  0  0  0  0
  1  2  1  0  0  0  0
  2  3  2  0  0  0  0
  3  4  1  0  0  0  0
  5 10  1  0  0  0  0
  5  4  2  0  0  0  0
  6  5  1  0  0  0  0
  7  1  1  0  0  0  0
  8  2  1  0  0  0  0
  9 13  1  0  0  0  0
 12 11  3  0  0  0  0
 14  6  1  0  0  0  0
M  RAD  2   3   2   4   2
M  END
