Coordinates from ORCA-job Ph-N2-Cl-B3LYPG-6-31G_dp-MTMO-d009-169-n800
 OpenBabel09051908143D

 14 12  0  0  0  0  0  0  0  0999 V2000
   -0.7694    0.1899   -0.7557 C   0  0  0  0  0  0  0  0  0  0  0  0
    0.0882    1.2539   -0.3849 C   0  0  0  0  0  0  0  0  0  0  0  0
   -0.6948    2.2728    0.0943 C   0  0  0  0  0  0  0  0  0  0  0  0
   -1.9313    2.4290    0.2549 C   0  0  0  0  0  0  0  0  0  0  0  0
   -2.8167    1.4011   -0.0986 C   0  0  0  0  0  0  0  0  0  0  0  0
   -2.1669    0.2640   -0.6167 C   0  0  0  0  0  0  0  0  0  0  0  0
   -0.3198   -0.7135   -1.1604 H   0  0  0  0  0  0  0  0  0  0  0  0
    1.1660    1.2173   -0.4840 H   0  0  0  0  0  0  0  0  0  0  0  0
   -2.7579    4.0296    0.9836 H   0  0  0  0  0  0  0  0  0  0  0  0
   -3.8957    1.4520    0.0080 H   0  0  0  0  0  0  0  0  0  0  0  0
    7.2128   -9.2322   -4.0305 N   0  0  0  0  0  0  0  0  0  0  0  0
    7.8506  -10.0553   -4.4010 N   0  0  0  0  0  0  0  0  0  0  0  0
   -3.4890    5.0208    1.4529 Cl  0  0  0  0  0  0  0  0  0  0  0  0
   -2.7676   -0.5893   -0.9208 H   0  0  0  0  0  0  0  0  0  0  0  0
  1  6  2  0  0  0  0
  1  2  1  0  0  0  0
  2  3  2  0  0  0  0
  3  4  1  0  0  0  0
  5 10  1  0  0  0  0
  5  4  2  0  0  0  0
  6  5  1  0  0  0  0
  7  1  1  0  0  0  0
  8  2  1  0  0  0  0
  9 13  1  0  0  0  0
 12 11  3  0  0  0  0
 14  6  1  0  0  0  0
M  RAD  2   3   2   4   2
M  END
