Coordinates from ORCA-job Ph-N2-Cl-B3LYPG-6-31G_dp-MTMO-d009-169-n800
 OpenBabel09051908143D

 14 12  0  0  0  0  0  0  0  0999 V2000
   -0.6627   -0.6164   -1.0021 C   0  0  0  0  0  0  0  0  0  0  0  0
    0.4099    0.2453   -0.6680 C   0  0  0  0  0  0  0  0  0  0  0  0
   -0.1269    1.4063   -0.1731 C   0  0  0  0  0  0  0  0  0  0  0  0
   -1.2973    1.8186    0.0255 C   0  0  0  0  0  0  0  0  0  0  0  0
   -2.3887    0.9973   -0.2915 C   0  0  0  0  0  0  0  0  0  0  0  0
   -2.0085   -0.2516   -0.8195 C   0  0  0  0  0  0  0  0  0  0  0  0
   -0.4247   -1.5938   -1.4141 H   0  0  0  0  0  0  0  0  0  0  0  0
    1.4521   -0.0158   -0.8015 H   0  0  0  0  0  0  0  0  0  0  0  0
   -1.7480    3.5512    0.7662 H   0  0  0  0  0  0  0  0  0  0  0  0
   -3.4288    1.2737   -0.1521 H   0  0  0  0  0  0  0  0  0  0  0  0
    4.6571   -5.3821   -2.6619 N   0  0  0  0  0  0  0  0  0  0  0  0
    5.3006   -6.2059   -3.0209 N   0  0  0  0  0  0  0  0  0  0  0  0
   -2.2417    4.6737    1.2515 Cl  0  0  0  0  0  0  0  0  0  0  0  0
   -2.7839   -0.9607   -1.0973 H   0  0  0  0  0  0  0  0  0  0  0  0
  1  6  2  0  0  0  0
  1  2  1  0  0  0  0
  2  3  2  0  0  0  0
  3  4  1  0  0  0  0
  5 10  1  0  0  0  0
  5  4  2  0  0  0  0
  6  5  1  0  0  0  0
  7  1  1  0  0  0  0
  8  2  1  0  0  0  0
  9 13  1  0  0  0  0
 12 11  3  0  0  0  0
 14  6  1  0  0  0  0
M  RAD  2   3   2   4   2
M  END
