Coordinates from ORCA-job Ph-N2-Cl-B3LYPG-6-31G_dp-MTMO-d009-169-n800
 OpenBabel09051908143D

 14 12  0  0  0  0  0  0  0  0999 V2000
   -0.7362    0.0880   -0.7802 C   0  0  0  0  0  0  0  0  0  0  0  0
    0.1420    1.1357   -0.4114 C   0  0  0  0  0  0  0  0  0  0  0  0
   -0.6211    2.1709    0.0651 C   0  0  0  0  0  0  0  0  0  0  0  0
   -1.8543    2.3517    0.2247 C   0  0  0  0  0  0  0  0  0  0  0  0
   -2.7597    1.3405   -0.1268 C   0  0  0  0  0  0  0  0  0  0  0  0
   -2.1320    0.1897   -0.6421 C   0  0  0  0  0  0  0  0  0  0  0  0
   -0.3042   -0.8249   -1.1829 H   0  0  0  0  0  0  0  0  0  0  0  0
    1.2188    1.0777   -0.5100 H   0  0  0  0  0  0  0  0  0  0  0  0
   -2.6497    3.9705    0.9478 H   0  0  0  0  0  0  0  0  0  0  0  0
   -3.8374    1.4129   -0.0210 H   0  0  0  0  0  0  0  0  0  0  0  0
    6.8576   -8.7375   -3.8602 N   0  0  0  0  0  0  0  0  0  0  0  0
    7.4955   -9.5606   -4.2307 N   0  0  0  0  0  0  0  0  0  0  0  0
   -3.3614    4.9775    1.4134 Cl  0  0  0  0  0  0  0  0  0  0  0  0
   -2.7493   -0.6523   -0.9445 H   0  0  0  0  0  0  0  0  0  0  0  0
  1  6  2  0  0  0  0
  1  2  1  0  0  0  0
  2  3  2  0  0  0  0
  3  4  1  0  0  0  0
  5 10  1  0  0  0  0
  5  4  2  0  0  0  0
  6  5  1  0  0  0  0
  7  1  1  0  0  0  0
  8  2  1  0  0  0  0
  9 13  1  0  0  0  0
 12 11  3  0  0  0  0
 14  6  1  0  0  0  0
M  RAD  2   3   2   4   2
M  END
