Coordinates from ORCA-job Ph-N2-Cl-B3LYPG-6-31G_dp-MTMO-d009-169-n800
 OpenBabel09051908143D

 14 12  0  0  0  0  0  0  0  0999 V2000
   -0.6562   -0.5902   -0.9925 C   0  0  0  0  0  0  0  0  0  0  0  0
    0.4065    0.2828   -0.6561 C   0  0  0  0  0  0  0  0  0  0  0  0
   -0.1436    1.4386   -0.1632 C   0  0  0  0  0  0  0  0  0  0  0  0
   -1.3188    1.8385    0.0321 C   0  0  0  0  0  0  0  0  0  0  0  0
   -2.4009    1.0058   -0.2872 C   0  0  0  0  0  0  0  0  0  0  0  0
   -2.0063   -0.2393   -0.8136 C   0  0  0  0  0  0  0  0  0  0  0  0
   -0.4070   -1.5652   -1.4034 H   0  0  0  0  0  0  0  0  0  0  0  0
    1.4517    0.0325   -0.7868 H   0  0  0  0  0  0  0  0  0  0  0  0
   -1.7892    3.5671    0.7718 H   0  0  0  0  0  0  0  0  0  0  0  0
   -3.4441    1.2714   -0.1505 H   0  0  0  0  0  0  0  0  0  0  0  0
    4.7215   -5.5032   -2.7058 N   0  0  0  0  0  0  0  0  0  0  0  0
    5.3641   -6.3270   -3.0662 N   0  0  0  0  0  0  0  0  0  0  0  0
   -2.2956    4.6845    1.2555 Cl  0  0  0  0  0  0  0  0  0  0  0  0
   -2.7735   -0.9566   -1.0930 H   0  0  0  0  0  0  0  0  0  0  0  0
  1  6  2  0  0  0  0
  1  2  1  0  0  0  0
  2  3  2  0  0  0  0
  3  4  1  0  0  0  0
  5 10  1  0  0  0  0
  5  4  2  0  0  0  0
  6  5  1  0  0  0  0
  7  1  1  0  0  0  0
  8  2  1  0  0  0  0
  9 13  1  0  0  0  0
 12 11  3  0  0  0  0
 14  6  1  0  0  0  0
M  RAD  2   3   2   4   2
M  END
