Coordinates from ORCA-job Ph-N2-Cl-B3LYPG-6-31G_dp-MTMO-d009-169-n800
 OpenBabel09051908143D

 14 12  0  0  0  0  0  0  0  0999 V2000
   -1.5135   -1.3982   -1.2820 C   0  0  0  0  0  0  0  0  0  0  0  0
   -0.1094   -1.2638   -1.1579 C   0  0  0  0  0  0  0  0  0  0  0  0
    0.1412   -0.0185   -0.6431 C   0  0  0  0  0  0  0  0  0  0  0  0
   -0.5707    0.9541   -0.2855 C   0  0  0  0  0  0  0  0  0  0  0  0
   -1.9669    0.8586   -0.3933 C   0  0  0  0  0  0  0  0  0  0  0  0
   -2.4047   -0.3746   -0.9130 C   0  0  0  0  0  0  0  0  0  0  0  0
   -1.9055   -2.3317   -1.6780 H   0  0  0  0  0  0  0  0  0  0  0  0
    0.5995   -2.0333   -1.4344 H   0  0  0  0  0  0  0  0  0  0  0  0
    0.1000    2.6155    0.4148 H   0  0  0  0  0  0  0  0  0  0  0  0
   -2.6598    1.6444   -0.1099 H   0  0  0  0  0  0  0  0  0  0  0  0
    3.5010   -1.5996   -1.2564 N   0  0  0  0  0  0  0  0  0  0  0  0
    4.5815   -1.3766   -1.1937 N   0  0  0  0  0  0  0  0  0  0  0  0
    0.3878    3.8060    0.9086 Cl  0  0  0  0  0  0  0  0  0  0  0  0
   -3.4718   -0.5423   -1.0349 H   0  0  0  0  0  0  0  0  0  0  0  0
  1  2  2  0  0  0  0
  1  6  1  0  0  0  0
  2  3  1  0  0  0  0
  3  4  2  0  0  0  0
  5  4  1  0  0  0  0
  5 10  1  0  0  0  0
  6  5  2  0  0  0  0
  7  1  1  0  0  0  0
  8  2  1  0  0  0  0
  9 13  1  0  0  0  0
 11 12  3  0  0  0  0
 14  6  1  0  0  0  0
M  RAD  2   3   2   4   2
M  END
