Coordinates from ORCA-job Ph-N2-Cl-B3LYPG-6-31G_dp-MTMO-d009-169-n800
 OpenBabel09051908143D

 14 12  0  0  0  0  0  0  0  0999 V2000
   -0.7192   -0.7723   -1.0467 C   0  0  0  0  0  0  0  0  0  0  0  0
    0.4141    0.0125   -0.7238 C   0  0  0  0  0  0  0  0  0  0  0  0
   -0.0364    1.2074   -0.2241 C   0  0  0  0  0  0  0  0  0  0  0  0
   -1.1723    1.7022   -0.0132 C   0  0  0  0  0  0  0  0  0  0  0  0
   -2.3210    0.9579   -0.3192 C   0  0  0  0  0  0  0  0  0  0  0  0
   -2.0345   -0.3141   -0.8507 C   0  0  0  0  0  0  0  0  0  0  0  0
   -0.5543   -1.7637   -1.4605 H   0  0  0  0  0  0  0  0  0  0  0  0
    1.4342   -0.3205   -0.8672 H   0  0  0  0  0  0  0  0  0  0  0  0
   -1.4946    3.4592    0.7234 H   0  0  0  0  0  0  0  0  0  0  0  0
   -3.3378    1.3060   -0.1694 H   0  0  0  0  0  0  0  0  0  0  0  0
    4.3226   -4.6810   -2.4204 N   0  0  0  0  0  0  0  0  0  0  0  0
    4.9708   -5.5024   -2.7765 N   0  0  0  0  0  0  0  0  0  0  0  0
   -1.9027    4.6158    1.2098 Cl  0  0  0  0  0  0  0  0  0  0  0  0
   -2.8603   -0.9671   -1.1202 H   0  0  0  0  0  0  0  0  0  0  0  0
  1  6  2  0  0  0  0
  1  2  1  0  0  0  0
  2  3  2  0  0  0  0
  3  4  1  0  0  0  0
  5 10  1  0  0  0  0
  5  4  2  0  0  0  0
  6  5  1  0  0  0  0
  7  1  1  0  0  0  0
  8  2  1  0  0  0  0
  9 13  1  0  0  0  0
 12 11  3  0  0  0  0
 14  6  1  0  0  0  0
M  RAD  2   3   2   4   2
M  END
