Coordinates from ORCA-job Ph-N2-Cl-B3LYPG-6-31G_dp-MTMO-d009-169-n800
 OpenBabel09051908143D

 14 12  0  0  0  0  0  0  0  0999 V2000
   -0.8339    0.3462   -0.7190 C   0  0  0  0  0  0  0  0  0  0  0  0
   -0.0022    1.4297   -0.3457 C   0  0  0  0  0  0  0  0  0  0  0  0
   -0.8095    2.4266    0.1394 C   0  0  0  0  0  0  0  0  0  0  0  0
   -2.0491    2.5514    0.3033 C   0  0  0  0  0  0  0  0  0  0  0  0
   -2.9094    1.5031   -0.0526 C   0  0  0  0  0  0  0  0  0  0  0  0
   -2.2325    0.3847   -0.5768 C   0  0  0  0  0  0  0  0  0  0  0  0
   -0.3629   -0.5442   -1.1283 H   0  0  0  0  0  0  0  0  0  0  0  0
    1.0759    1.4205   -0.4473 H   0  0  0  0  0  0  0  0  0  0  0  0
   -2.9137    4.1266    1.0426 H   0  0  0  0  0  0  0  0  0  0  0  0
   -3.9890    1.5266    0.0565 H   0  0  0  0  0  0  0  0  0  0  0  0
    7.7885  -10.0120   -4.2977 N   0  0  0  0  0  0  0  0  0  0  0  0
    8.4269  -10.8341   -4.6695 N   0  0  0  0  0  0  0  0  0  0  0  0
   -3.6681    5.0966    1.5195 Cl  0  0  0  0  0  0  0  0  0  0  0  0
   -2.8124   -0.4820   -0.8833 H   0  0  0  0  0  0  0  0  0  0  0  0
  1  6  2  0  0  0  0
  1  2  1  0  0  0  0
  2  3  2  0  0  0  0
  3  4  1  0  0  0  0
  5 10  1  0  0  0  0
  5  4  2  0  0  0  0
  6  5  1  0  0  0  0
  7  1  1  0  0  0  0
  8  2  1  0  0  0  0
  9 13  1  0  0  0  0
 12 11  3  0  0  0  0
 14  6  1  0  0  0  0
M  RAD  2   3   2   4   2
M  END
