Coordinates from ORCA-job Ph-N2-Cl-B3LYPG-6-31G_dp-MTMO-d009-169-n800
 OpenBabel09051908143D

 14 12  0  0  0  0  0  0  0  0999 V2000
   -0.6762   -0.1571   -0.8451 C   0  0  0  0  0  0  0  0  0  0  0  0
    0.2583    0.8430   -0.4829 C   0  0  0  0  0  0  0  0  0  0  0  0
   -0.4463    1.9198   -0.0083 C   0  0  0  0  0  0  0  0  0  0  0  0
   -1.6675    2.1676    0.1539 C   0  0  0  0  0  0  0  0  0  0  0  0
   -2.6271    1.2054   -0.1912 C   0  0  0  0  0  0  0  0  0  0  0  0
   -2.0641    0.0203   -0.7035 C   0  0  0  0  0  0  0  0  0  0  0  0
   -0.2950   -1.0931   -1.2457 H   0  0  0  0  0  0  0  0  0  0  0  0
    1.3301    0.7267   -0.5843 H   0  0  0  0  0  0  0  0  0  0  0  0
   -2.3707    3.8307    0.8713 H   0  0  0  0  0  0  0  0  0  0  0  0
   -3.6990    1.3366   -0.0830 H   0  0  0  0  0  0  0  0  0  0  0  0
    6.0401   -7.5634   -3.4503 N   0  0  0  0  0  0  0  0  0  0  0  0
    6.6771   -8.3865   -3.8223 N   0  0  0  0  0  0  0  0  0  0  0  0
   -3.0244    4.8779    1.3333 Cl  0  0  0  0  0  0  0  0  0  0  0  0
   -2.7268   -0.7882   -1.0009 H   0  0  0  0  0  0  0  0  0  0  0  0
  1  6  2  0  0  0  0
  1  2  1  0  0  0  0
  2  3  2  0  0  0  0
  3  4  1  0  0  0  0
  5 10  1  0  0  0  0
  5  4  2  0  0  0  0
  6  5  1  0  0  0  0
  7  1  1  0  0  0  0
  8  2  1  0  0  0  0
  9 13  1  0  0  0  0
 12 11  3  0  0  0  0
 14  6  1  0  0  0  0
M  RAD  2   3   2   4   2
M  END
