Coordinates from ORCA-job Ph-N2-Cl-B3LYPG-6-31G_dp-MTMO-d009-169-n800
 OpenBabel09051908143D

 14 12  0  0  0  0  0  0  0  0999 V2000
   -0.8429    0.3638   -0.7154 C   0  0  0  0  0  0  0  0  0  0  0  0
   -0.0134    1.4489   -0.3417 C   0  0  0  0  0  0  0  0  0  0  0  0
   -0.8229    2.4435    0.1444 C   0  0  0  0  0  0  0  0  0  0  0  0
   -2.0626    2.5661    0.3094 C   0  0  0  0  0  0  0  0  0  0  0  0
   -2.9205    1.5158   -0.0470 C   0  0  0  0  0  0  0  0  0  0  0  0
   -2.2415    0.3993   -0.5723 C   0  0  0  0  0  0  0  0  0  0  0  0
   -0.3702   -0.5252   -1.1256 H   0  0  0  0  0  0  0  0  0  0  0  0
    1.0647    1.4427   -0.4438 H   0  0  0  0  0  0  0  0  0  0  0  0
   -2.9298    4.1384    1.0503 H   0  0  0  0  0  0  0  0  0  0  0  0
   -4.0001    1.5365    0.0626 H   0  0  0  0  0  0  0  0  0  0  0  0
    7.8574  -10.1030   -4.3285 N   0  0  0  0  0  0  0  0  0  0  0  0
    8.4961  -10.9248   -4.7005 N   0  0  0  0  0  0  0  0  0  0  0  0
   -3.6860    5.1063    1.5286 Cl  0  0  0  0  0  0  0  0  0  0  0  0
   -2.8197   -0.4685   -0.8792 H   0  0  0  0  0  0  0  0  0  0  0  0
  1  6  2  0  0  0  0
  1  2  1  0  0  0  0
  2  3  2  0  0  0  0
  3  4  1  0  0  0  0
  5 10  1  0  0  0  0
  5  4  2  0  0  0  0
  6  5  1  0  0  0  0
  7  1  1  0  0  0  0
  8  2  1  0  0  0  0
  9 13  1  0  0  0  0
 12 11  3  0  0  0  0
 14  6  1  0  0  0  0
M  RAD  2   3   2   4   2
M  END
