Coordinates from ORCA-job Ph-N2-Cl-B3LYPG-6-31G_dp-MTMO-d009-169-n800
 OpenBabel09051908143D

 14 12  0  0  0  0  0  0  0  0999 V2000
   -0.8283    0.3333   -0.7223 C   0  0  0  0  0  0  0  0  0  0  0  0
    0.0054    1.4152   -0.3491 C   0  0  0  0  0  0  0  0  0  0  0  0
   -0.8003    2.4137    0.1355 C   0  0  0  0  0  0  0  0  0  0  0  0
   -2.0396    2.5415    0.2995 C   0  0  0  0  0  0  0  0  0  0  0  0
   -2.9016    1.4944   -0.0564 C   0  0  0  0  0  0  0  0  0  0  0  0
   -2.2268    0.3747   -0.5802 C   0  0  0  0  0  0  0  0  0  0  0  0
   -0.3590   -0.5581   -1.1313 H   0  0  0  0  0  0  0  0  0  0  0  0
    1.0835    1.4045   -0.4504 H   0  0  0  0  0  0  0  0  0  0  0  0
   -2.9008    4.1184    1.0379 H   0  0  0  0  0  0  0  0  0  0  0  0
   -3.9812    1.5198    0.0524 H   0  0  0  0  0  0  0  0  0  0  0  0
    7.7402   -9.9471   -4.2753 N   0  0  0  0  0  0  0  0  0  0  0  0
    8.3787  -10.7693   -4.6469 N   0  0  0  0  0  0  0  0  0  0  0  0
   -3.6532    5.0901    1.5144 Cl  0  0  0  0  0  0  0  0  0  0  0  0
   -2.8084   -0.4910   -0.8866 H   0  0  0  0  0  0  0  0  0  0  0  0
  1  6  2  0  0  0  0
  1  2  1  0  0  0  0
  2  3  2  0  0  0  0
  3  4  1  0  0  0  0
  5 10  1  0  0  0  0
  5  4  2  0  0  0  0
  6  5  1  0  0  0  0
  7  1  1  0  0  0  0
  8  2  1  0  0  0  0
  9 13  1  0  0  0  0
 12 11  3  0  0  0  0
 14  6  1  0  0  0  0
M  RAD  2   3   2   4   2
M  END
