Coordinates from ORCA-job Ph-N2-Cl-B3LYPG-6-31G_dp-MTMO-d009-169-n800
 OpenBabel09051908143D

 14 12  0  0  0  0  0  0  0  0999 V2000
   -0.6623   -0.2815   -0.8856 C   0  0  0  0  0  0  0  0  0  0  0  0
    0.3070    0.6870   -0.5291 C   0  0  0  0  0  0  0  0  0  0  0  0
   -0.3585    1.7865   -0.0503 C   0  0  0  0  0  0  0  0  0  0  0  0
   -1.5699    2.0746    0.1192 C   0  0  0  0  0  0  0  0  0  0  0  0
   -2.5629    1.1448   -0.2202 C   0  0  0  0  0  0  0  0  0  0  0  0
   -2.0426   -0.0583   -0.7357 C   0  0  0  0  0  0  0  0  0  0  0  0
   -0.3145   -1.2294   -1.2886 H   0  0  0  0  0  0  0  0  0  0  0  0
    1.3737    0.5352   -0.6370 H   0  0  0  0  0  0  0  0  0  0  0  0
   -2.2124    3.7590    0.8421 H   0  0  0  0  0  0  0  0  0  0  0  0
   -3.6292    1.3115   -0.1057 H   0  0  0  0  0  0  0  0  0  0  0  0
    5.6522   -6.9748   -3.2378 N   0  0  0  0  0  0  0  0  0  0  0  0
    6.2893   -7.7976   -3.6101 N   0  0  0  0  0  0  0  0  0  0  0  0
   -2.8279    4.8272    1.3089 Cl  0  0  0  0  0  0  0  0  0  0  0  0
   -2.7335   -0.8443   -1.0291 H   0  0  0  0  0  0  0  0  0  0  0  0
  1  6  2  0  0  0  0
  1  2  1  0  0  0  0
  2  3  2  0  0  0  0
  3  4  1  0  0  0  0
  5 10  1  0  0  0  0
  5  4  2  0  0  0  0
  6  5  1  0  0  0  0
  7  1  1  0  0  0  0
  8  2  1  0  0  0  0
  9 13  1  0  0  0  0
 12 11  3  0  0  0  0
 14  6  1  0  0  0  0
M  RAD  2   3   2   4   2
M  END
