Coordinates from ORCA-job Ph-N2-Cl-B3LYPG-6-31G_dp-MTMO-d009-169-n800
 OpenBabel09051908143D

 14 12  0  0  0  0  0  0  0  0999 V2000
   -0.7115   -0.0017   -0.8027 C   0  0  0  0  0  0  0  0  0  0  0  0
    0.1863    1.0298   -0.4359 C   0  0  0  0  0  0  0  0  0  0  0  0
   -0.5572    2.0800    0.0391 C   0  0  0  0  0  0  0  0  0  0  0  0
   -1.7867    2.2847    0.1989 C   0  0  0  0  0  0  0  0  0  0  0  0
   -2.7108    1.2899   -0.1509 C   0  0  0  0  0  0  0  0  0  0  0  0
   -2.1051    0.1266   -0.6643 C   0  0  0  0  0  0  0  0  0  0  0  0
   -0.2968   -0.9231   -1.2041 H   0  0  0  0  0  0  0  0  0  0  0  0
    1.2619    0.9519   -0.5346 H   0  0  0  0  0  0  0  0  0  0  0  0
   -2.5504    3.9197    0.9181 H   0  0  0  0  0  0  0  0  0  0  0  0
   -3.7870    1.3825   -0.0451 H   0  0  0  0  0  0  0  0  0  0  0  0
    6.5543   -8.3074   -3.7113 N   0  0  0  0  0  0  0  0  0  0  0  0
    7.1924   -9.1302   -4.0821 N   0  0  0  0  0  0  0  0  0  0  0  0
   -3.2426    4.9414    1.3813 Cl  0  0  0  0  0  0  0  0  0  0  0  0
   -2.7383   -0.7041   -0.9651 H   0  0  0  0  0  0  0  0  0  0  0  0
  1  6  2  0  0  0  0
  1  2  1  0  0  0  0
  2  3  2  0  0  0  0
  3  4  1  0  0  0  0
  5 10  1  0  0  0  0
  5  4  2  0  0  0  0
  6  5  1  0  0  0  0
  7  1  1  0  0  0  0
  8  2  1  0  0  0  0
  9 13  1  0  0  0  0
 12 11  3  0  0  0  0
 14  6  1  0  0  0  0
M  RAD  2   3   2   4   2
M  END
