Coordinates from ORCA-job Ph-N2-Cl-B3LYPG-6-31G_dp-MTMO-d009-169-n800
 OpenBabel09051908143D

 14 12  0  0  0  0  0  0  0  0999 V2000
   -0.7638    0.1740   -0.7595 C   0  0  0  0  0  0  0  0  0  0  0  0
    0.0969    1.2355   -0.3890 C   0  0  0  0  0  0  0  0  0  0  0  0
   -0.6832    2.2569    0.0897 C   0  0  0  0  0  0  0  0  0  0  0  0
   -1.9192    2.4168    0.2501 C   0  0  0  0  0  0  0  0  0  0  0  0
   -2.8077    1.3913   -0.1031 C   0  0  0  0  0  0  0  0  0  0  0  0
   -2.1611    0.2521   -0.6207 C   0  0  0  0  0  0  0  0  0  0  0  0
   -0.3168   -0.7309   -1.1638 H   0  0  0  0  0  0  0  0  0  0  0  0
    1.1746    1.1957   -0.4880 H   0  0  0  0  0  0  0  0  0  0  0  0
   -2.7413    4.0202    0.9778 H   0  0  0  0  0  0  0  0  0  0  0  0
   -3.8864    1.4455    0.0033 H   0  0  0  0  0  0  0  0  0  0  0  0
    7.1562   -9.1542   -4.0036 N   0  0  0  0  0  0  0  0  0  0  0  0
    7.7941   -9.9773   -4.3741 N   0  0  0  0  0  0  0  0  0  0  0  0
   -3.4695    5.0138    1.4466 Cl  0  0  0  0  0  0  0  0  0  0  0  0
   -2.7643   -0.5995   -0.9246 H   0  0  0  0  0  0  0  0  0  0  0  0
  1  6  2  0  0  0  0
  1  2  1  0  0  0  0
  2  3  2  0  0  0  0
  3  4  1  0  0  0  0
  5 10  1  0  0  0  0
  5  4  2  0  0  0  0
  6  5  1  0  0  0  0
  7  1  1  0  0  0  0
  8  2  1  0  0  0  0
  9 13  1  0  0  0  0
 12 11  3  0  0  0  0
 14  6  1  0  0  0  0
M  RAD  2   3   2   4   2
M  END
