Coordinates from ORCA-job Ph-N2-Cl-B3LYPG-6-31G_dp-MTMO-d009-169-n800
 OpenBabel09051908143D

 14 12  0  0  0  0  0  0  0  0999 V2000
   -1.5175   -1.4019   -1.2835 C   0  0  0  0  0  0  0  0  0  0  0  0
   -0.1127   -1.2732   -1.1629 C   0  0  0  0  0  0  0  0  0  0  0  0
    0.1445   -0.0289   -0.6485 C   0  0  0  0  0  0  0  0  0  0  0  0
   -0.5636    0.9459   -0.2897 C   0  0  0  0  0  0  0  0  0  0  0  0
   -1.9605    0.8566   -0.3938 C   0  0  0  0  0  0  0  0  0  0  0  0
   -2.4040   -0.3750   -0.9125 C   0  0  0  0  0  0  0  0  0  0  0  0
   -1.9141   -2.3339   -1.6786 H   0  0  0  0  0  0  0  0  0  0  0  0
    0.5925   -2.0453   -1.4409 H   0  0  0  0  0  0  0  0  0  0  0  0
    0.1169    2.6053    0.4103 H   0  0  0  0  0  0  0  0  0  0  0  0
   -2.6495    1.6451   -0.1088 H   0  0  0  0  0  0  0  0  0  0  0  0
    3.4808   -1.5710   -1.2447 N   0  0  0  0  0  0  0  0  0  0  0  0
    4.5594   -1.3400   -1.1773 N   0  0  0  0  0  0  0  0  0  0  0  0
    0.4085    3.7947    0.9041 Cl  0  0  0  0  0  0  0  0  0  0  0  0
   -3.4721   -0.5386   -1.0320 H   0  0  0  0  0  0  0  0  0  0  0  0
  1  2  2  0  0  0  0
  1  6  1  0  0  0  0
  2  3  1  0  0  0  0
  3  4  2  0  0  0  0
  5  4  1  0  0  0  0
  5 10  1  0  0  0  0
  6  5  2  0  0  0  0
  7  1  1  0  0  0  0
  8  2  1  0  0  0  0
  9 13  1  0  0  0  0
 11 12  3  0  0  0  0
 14  6  1  0  0  0  0
M  RAD  2   3   2   4   2
M  END
