Coordinates from ORCA-job Ph-N2-Cl-B3LYPG-6-31G_dp-MTMO-d009-169-n800
 OpenBabel09051908143D

 14 12  0  0  0  0  0  0  0  0999 V2000
   -0.7007   -0.0424   -0.8130 C   0  0  0  0  0  0  0  0  0  0  0  0
    0.2061    0.9816   -0.4472 C   0  0  0  0  0  0  0  0  0  0  0  0
   -0.5278    2.0387    0.0271 C   0  0  0  0  0  0  0  0  0  0  0  0
   -1.7555    2.2538    0.1868 C   0  0  0  0  0  0  0  0  0  0  0  0
   -2.6885    1.2670   -0.1618 C   0  0  0  0  0  0  0  0  0  0  0  0
   -2.0931    0.0980   -0.6744 C   0  0  0  0  0  0  0  0  0  0  0  0
   -0.2941   -0.9676   -1.2138 H   0  0  0  0  0  0  0  0  0  0  0  0
    1.2809    0.8938   -0.5462 H   0  0  0  0  0  0  0  0  0  0  0  0
   -2.5051    3.8964    0.9048 H   0  0  0  0  0  0  0  0  0  0  0  0
   -3.7638    1.3695   -0.0558 H   0  0  0  0  0  0  0  0  0  0  0  0
    6.4170   -8.1118   -3.6434 N   0  0  0  0  0  0  0  0  0  0  0  0
    7.0549   -8.9346   -4.0145 N   0  0  0  0  0  0  0  0  0  0  0  0
   -3.1881    4.9247    1.3670 Cl  0  0  0  0  0  0  0  0  0  0  0  0
   -2.7335   -0.7273   -0.9744 H   0  0  0  0  0  0  0  0  0  0  0  0
  1  6  2  0  0  0  0
  1  2  1  0  0  0  0
  2  3  2  0  0  0  0
  3  4  1  0  0  0  0
  5 10  1  0  0  0  0
  5  4  2  0  0  0  0
  6  5  1  0  0  0  0
  7  1  1  0  0  0  0
  8  2  1  0  0  0  0
  9 13  1  0  0  0  0
 12 11  3  0  0  0  0
 14  6  1  0  0  0  0
M  RAD  2   3   2   4   2
M  END
