Coordinates from ORCA-job Ph-N2-Cl-B3LYPG-6-31G_dp-MTMO-d009-169-n800
 OpenBabel09051908143D

 14 12  0  0  0  0  0  0  0  0999 V2000
   -0.6967   -0.0587   -0.8173 C   0  0  0  0  0  0  0  0  0  0  0  0
    0.2139    0.9621   -0.4520 C   0  0  0  0  0  0  0  0  0  0  0  0
   -0.5162    2.0219    0.0222 C   0  0  0  0  0  0  0  0  0  0  0  0
   -1.7431    2.2416    0.1821 C   0  0  0  0  0  0  0  0  0  0  0  0
   -2.6797    1.2580   -0.1661 C   0  0  0  0  0  0  0  0  0  0  0  0
   -2.0886    0.0868   -0.6785 C   0  0  0  0  0  0  0  0  0  0  0  0
   -0.2934   -0.9854   -1.2179 H   0  0  0  0  0  0  0  0  0  0  0  0
    1.2883    0.8704   -0.5511 H   0  0  0  0  0  0  0  0  0  0  0  0
   -2.4865    3.8871    0.8996 H   0  0  0  0  0  0  0  0  0  0  0  0
   -3.7546    1.3644   -0.0599 H   0  0  0  0  0  0  0  0  0  0  0  0
    6.3625   -8.0335   -3.6161 N   0  0  0  0  0  0  0  0  0  0  0  0
    7.0003   -8.8563   -3.9873 N   0  0  0  0  0  0  0  0  0  0  0  0
   -3.1656    4.9180    1.3616 Cl  0  0  0  0  0  0  0  0  0  0  0  0
   -2.7320   -0.7364   -0.9782 H   0  0  0  0  0  0  0  0  0  0  0  0
  1  6  2  0  0  0  0
  1  2  1  0  0  0  0
  2  3  2  0  0  0  0
  3  4  1  0  0  0  0
  5 10  1  0  0  0  0
  5  4  2  0  0  0  0
  6  5  1  0  0  0  0
  7  1  1  0  0  0  0
  8  2  1  0  0  0  0
  9 13  1  0  0  0  0
 12 11  3  0  0  0  0
 14  6  1  0  0  0  0
M  RAD  2   3   2   4   2
M  END
