Coordinates from ORCA-job Ph-N2-Cl-B3LYPG-6-31G_dp-MTMO-d009-169-n800
 OpenBabel09051908143D

 14 12  0  0  0  0  0  0  0  0999 V2000
   -0.8310   -1.0409   -1.1421 C   0  0  0  0  0  0  0  0  0  0  0  0
    0.4027   -0.4078   -0.8550 C   0  0  0  0  0  0  0  0  0  0  0  0
    0.1208    0.8311   -0.3398 C   0  0  0  0  0  0  0  0  0  0  0  0
   -0.9343    1.4676   -0.0909 C   0  0  0  0  0  0  0  0  0  0  0  0
   -2.1767    0.8743   -0.3616 C   0  0  0  0  0  0  0  0  0  0  0  0
   -2.0706   -0.4208   -0.9034 C   0  0  0  0  0  0  0  0  0  0  0  0
   -0.8061   -2.0430   -1.5619 H   0  0  0  0  0  0  0  0  0  0  0  0
    1.3666   -0.8680   -1.0321 H   0  0  0  0  0  0  0  0  0  0  0  0
   -1.0122    3.2453    0.6420 H   0  0  0  0  0  0  0  0  0  0  0  0
   -3.1359    1.3475   -0.1794 H   0  0  0  0  0  0  0  0  0  0  0  0
    3.6296   -3.3911   -1.9674 N   0  0  0  0  0  0  0  0  0  0  0  0
    4.3916   -4.1389   -2.2524 N   0  0  0  0  0  0  0  0  0  0  0  0
   -1.2552    4.4468    1.1327 Cl  0  0  0  0  0  0  0  0  0  0  0  0
   -2.9807   -0.9623   -1.1474 H   0  0  0  0  0  0  0  0  0  0  0  0
  1  6  2  0  0  0  0
  1  2  1  0  0  0  0
  2  3  2  0  0  0  0
  3  4  1  0  0  0  0
  5 10  1  0  0  0  0
  5  4  2  0  0  0  0
  6  5  1  0  0  0  0
  7  1  1  0  0  0  0
  8  2  1  0  0  0  0
  9 13  1  0  0  0  0
 12 11  3  0  0  0  0
 14  6  1  0  0  0  0
M  RAD  2   3   2   4   2
M  END
