Coordinates from ORCA-job Ph-N2-Cl-B3LYPG-6-31G_dp-MTMO-d009-169-n800
 OpenBabel09051908143D

 14 12  0  0  0  0  0  0  0  0999 V2000
   -0.8030   -0.9937   -1.1234 C   0  0  0  0  0  0  0  0  0  0  0  0
    0.4118   -0.3295   -0.8267 C   0  0  0  0  0  0  0  0  0  0  0  0
    0.0953    0.9026   -0.3150 C   0  0  0  0  0  0  0  0  0  0  0  0
   -0.9777    1.5118   -0.0758 C   0  0  0  0  0  0  0  0  0  0  0  0
   -2.2028    0.8879   -0.3558 C   0  0  0  0  0  0  0  0  0  0  0  0
   -2.0597   -0.4047   -0.8955 C   0  0  0  0  0  0  0  0  0  0  0  0
   -0.7497   -1.9952   -1.5419 H   0  0  0  0  0  0  0  0  0  0  0  0
    1.3886   -0.7649   -0.9951 H   0  0  0  0  0  0  0  0  0  0  0  0
   -1.1059    3.2885    0.6571 H   0  0  0  0  0  0  0  0  0  0  0  0
   -3.1750    1.3370   -0.1819 H   0  0  0  0  0  0  0  0  0  0  0  0
    3.7547   -3.6190   -2.0374 N   0  0  0  0  0  0  0  0  0  0  0  0
    4.4694   -4.3950   -2.3667 N   0  0  0  0  0  0  0  0  0  0  0  0
   -1.3834    4.4830    1.1458 Cl  0  0  0  0  0  0  0  0  0  0  0  0
   -2.9540   -0.9690   -1.1464 H   0  0  0  0  0  0  0  0  0  0  0  0
  1  6  2  0  0  0  0
  1  2  1  0  0  0  0
  2  3  2  0  0  0  0
  3  4  1  0  0  0  0
  5 10  1  0  0  0  0
  5  4  2  0  0  0  0
  6  5  1  0  0  0  0
  7  1  1  0  0  0  0
  8  2  1  0  0  0  0
  9 13  1  0  0  0  0
 12 11  3  0  0  0  0
 14  6  1  0  0  0  0
M  RAD  2   3   2   4   2
M  END
