Coordinates from ORCA-job Ph-N2-Cl-B3LYPG-6-31G_dp-MTMO-d009-169-n800
 OpenBabel09051908143D

 14 12  0  0  0  0  0  0  0  0999 V2000
   -0.7411    0.1042   -0.7763 C   0  0  0  0  0  0  0  0  0  0  0  0
    0.1337    1.1546   -0.4071 C   0  0  0  0  0  0  0  0  0  0  0  0
   -0.6328    2.1872    0.0698 C   0  0  0  0  0  0  0  0  0  0  0  0
   -1.8666    2.3639    0.2295 C   0  0  0  0  0  0  0  0  0  0  0  0
   -2.7686    1.3499   -0.1224 C   0  0  0  0  0  0  0  0  0  0  0  0
   -2.1372    0.2013   -0.6380 C   0  0  0  0  0  0  0  0  0  0  0  0
   -0.3061   -0.8071   -1.1792 H   0  0  0  0  0  0  0  0  0  0  0  0
    1.2107    1.1002   -0.5058 H   0  0  0  0  0  0  0  0  0  0  0  0
   -2.6672    3.9798    0.9534 H   0  0  0  0  0  0  0  0  0  0  0  0
   -3.8466    1.4188   -0.0165 H   0  0  0  0  0  0  0  0  0  0  0  0
    6.9133   -8.8157   -3.8872 N   0  0  0  0  0  0  0  0  0  0  0  0
    7.5511   -9.6388   -4.2576 N   0  0  0  0  0  0  0  0  0  0  0  0
   -3.3822    4.9842    1.4195 Cl  0  0  0  0  0  0  0  0  0  0  0  0
   -2.7518   -0.6426   -0.9408 H   0  0  0  0  0  0  0  0  0  0  0  0
  1  6  2  0  0  0  0
  1  2  1  0  0  0  0
  2  3  2  0  0  0  0
  3  4  1  0  0  0  0
  5 10  1  0  0  0  0
  5  4  2  0  0  0  0
  6  5  1  0  0  0  0
  7  1  1  0  0  0  0
  8  2  1  0  0  0  0
  9 13  1  0  0  0  0
 12 11  3  0  0  0  0
 14  6  1  0  0  0  0
M  RAD  2   3   2   4   2
M  END
