Coordinates from ORCA-job Ph-N2-Cl-B3LYPG-6-31G_dp-MTMO-d009-169-n800
 OpenBabel09051908143D

 14 12  0  0  0  0  0  0  0  0999 V2000
   -0.7897   -0.9682   -1.1148 C   0  0  0  0  0  0  0  0  0  0  0  0
    0.4153   -0.2880   -0.8143 C   0  0  0  0  0  0  0  0  0  0  0  0
    0.0813    0.9398   -0.3037 C   0  0  0  0  0  0  0  0  0  0  0  0
   -1.0005    1.5347   -0.0680 C   0  0  0  0  0  0  0  0  0  0  0  0
   -2.2165    0.8949   -0.3517 C   0  0  0  0  0  0  0  0  0  0  0  0
   -2.0548   -0.3957   -0.8909 C   0  0  0  0  0  0  0  0  0  0  0  0
   -0.7219   -1.9690   -1.5330 H   0  0  0  0  0  0  0  0  0  0  0  0
    1.3984   -0.7103   -0.9796 H   0  0  0  0  0  0  0  0  0  0  0  0
   -1.1542    3.3098    0.6654 H   0  0  0  0  0  0  0  0  0  0  0  0
   -3.1950    1.3312   -0.1808 H   0  0  0  0  0  0  0  0  0  0  0  0
    3.8236   -3.7354   -2.0809 N   0  0  0  0  0  0  0  0  0  0  0  0
    4.5122   -4.5323   -2.4160 N   0  0  0  0  0  0  0  0  0  0  0  0
   -1.4489    4.5002    1.1539 Cl  0  0  0  0  0  0  0  0  0  0  0  0
   -2.9407   -0.9718   -1.1444 H   0  0  0  0  0  0  0  0  0  0  0  0
  1  6  2  0  0  0  0
  1  2  1  0  0  0  0
  2  3  2  0  0  0  0
  3  4  1  0  0  0  0
  5 10  1  0  0  0  0
  5  4  2  0  0  0  0
  6  5  1  0  0  0  0
  7  1  1  0  0  0  0
  8  2  1  0  0  0  0
  9 13  1  0  0  0  0
 12 11  3  0  0  0  0
 14  6  1  0  0  0  0
M  RAD  2   3   2   4   2
M  END
