Coordinates from ORCA-job Ph-N2-Cl-B3LYPG-6-31G_dp-MTMO-d009-169-n800
 OpenBabel09051908143D

 14 12  0  0  0  0  0  0  0  0999 V2000
   -0.7511   -0.8780   -1.0847 C   0  0  0  0  0  0  0  0  0  0  0  0
    0.4202   -0.1459   -0.7733 C   0  0  0  0  0  0  0  0  0  0  0  0
    0.0290    1.0668   -0.2670 C   0  0  0  0  0  0  0  0  0  0  0  0
   -1.0803    1.6133   -0.0423 C   0  0  0  0  0  0  0  0  0  0  0  0
   -2.2647    0.9217   -0.3367 C   0  0  0  0  0  0  0  0  0  0  0  0
   -2.0420   -0.3610   -0.8732 C   0  0  0  0  0  0  0  0  0  0  0  0
   -0.6359   -1.8751   -1.5016 H   0  0  0  0  0  0  0  0  0  0  0  0
    1.4224   -0.5245   -0.9285 H   0  0  0  0  0  0  0  0  0  0  0  0
   -1.3160    3.3810    0.6937 H   0  0  0  0  0  0  0  0  0  0  0  0
   -3.2628    1.3151   -0.1752 H   0  0  0  0  0  0  0  0  0  0  0  0
    4.0502   -4.1667   -2.2362 N   0  0  0  0  0  0  0  0  0  0  0  0
    4.7048   -4.9875   -2.5816 N   0  0  0  0  0  0  0  0  0  0  0  0
   -1.6658    4.5560    1.1823 Cl  0  0  0  0  0  0  0  0  0  0  0  0
   -2.8996   -0.9752   -1.1345 H   0  0  0  0  0  0  0  0  0  0  0  0
  1  6  2  0  0  0  0
  1  2  1  0  0  0  0
  2  3  2  0  0  0  0
  3  4  1  0  0  0  0
  5 10  1  0  0  0  0
  5  4  2  0  0  0  0
  6  5  1  0  0  0  0
  7  1  1  0  0  0  0
  8  2  1  0  0  0  0
  9 13  1  0  0  0  0
 12 11  3  0  0  0  0
 14  6  1  0  0  0  0
M  RAD  2   3   2   4   2
M  END
