Coordinates from ORCA-job Ph-N2-Cl-B3LYPG-6-31G_dp-MTMO-d009-169-n800
 OpenBabel09051908143D

 14 12  0  0  0  0  0  0  0  0999 V2000
   -0.6602   -0.3206   -0.8989 C   0  0  0  0  0  0  0  0  0  0  0  0
    0.3208    0.6369   -0.5446 C   0  0  0  0  0  0  0  0  0  0  0  0
   -0.3312    1.7438   -0.0641 C   0  0  0  0  0  0  0  0  0  0  0  0
   -1.5388    2.0456    0.1084 C   0  0  0  0  0  0  0  0  0  0  0  0
   -2.5430    1.1270   -0.2288 C   0  0  0  0  0  0  0  0  0  0  0  0
   -2.0376   -0.0817   -0.7456 C   0  0  0  0  0  0  0  0  0  0  0  0
   -0.3241   -1.2722   -1.3029 H   0  0  0  0  0  0  0  0  0  0  0  0
    1.3854    0.4731   -0.6551 H   0  0  0  0  0  0  0  0  0  0  0  0
   -2.1607    3.7363    0.8337 H   0  0  0  0  0  0  0  0  0  0  0  0
   -3.6070    1.3059   -0.1118 H   0  0  0  0  0  0  0  0  0  0  0  0
    5.5341   -6.7915   -3.1712 N   0  0  0  0  0  0  0  0  0  0  0  0
    6.1723   -7.6138   -3.5430 N   0  0  0  0  0  0  0  0  0  0  0  0
   -2.7632    4.8109    1.3027 Cl  0  0  0  0  0  0  0  0  0  0  0  0
   -2.7380   -0.8599   -1.0376 H   0  0  0  0  0  0  0  0  0  0  0  0
  1  6  2  0  0  0  0
  1  2  1  0  0  0  0
  2  3  2  0  0  0  0
  3  4  1  0  0  0  0
  5 10  1  0  0  0  0
  5  4  2  0  0  0  0
  6  5  1  0  0  0  0
  7  1  1  0  0  0  0
  8  2  1  0  0  0  0
  9 13  1  0  0  0  0
 12 11  3  0  0  0  0
 14  6  1  0  0  0  0
M  RAD  2   3   2   4   2
M  END
