Coordinates from ORCA-job Ph-N2-Cl-B3LYPG-6-31G_dp-MTMO-d009-169-n800
 OpenBabel09051908143D

 14 12  0  0  0  0  0  0  0  0999 V2000
   -1.7010   -1.4729   -1.3178 C   0  0  0  0  0  0  0  0  0  0  0  0
   -0.2860   -1.5072   -1.2823 C   0  0  0  0  0  0  0  0  0  0  0  0
    0.1419   -0.3058   -0.7828 C   0  0  0  0  0  0  0  0  0  0  0  0
   -0.4203    0.7441   -0.3789 C   0  0  0  0  0  0  0  0  0  0  0  0
   -1.8230    0.8136   -0.3999 C   0  0  0  0  0  0  0  0  0  0  0  0
   -2.4380   -0.3531   -0.8921 C   0  0  0  0  0  0  0  0  0  0  0  0
   -2.2251   -2.3499   -1.6897 H   0  0  0  0  0  0  0  0  0  0  0  0
    0.3061   -2.3543   -1.6034 H   0  0  0  0  0  0  0  0  0  0  0  0
    0.4787    2.2941    0.2751 H   0  0  0  0  0  0  0  0  0  0  0  0
   -2.3975    1.6743   -0.0725 H   0  0  0  0  0  0  0  0  0  0  0  0
    3.3449   -0.8997   -0.9689 N   0  0  0  0  0  0  0  0  0  0  0  0
    4.2994   -0.3869   -0.7512 N   0  0  0  0  0  0  0  0  0  0  0  0
    0.9518    3.4340    0.7513 Cl  0  0  0  0  0  0  0  0  0  0  0  0
   -3.5232   -0.3905   -0.9459 H   0  0  0  0  0  0  0  0  0  0  0  0
  1  2  2  0  0  0  0
  1  6  1  0  0  0  0
  2  3  1  0  0  0  0
  3  4  2  0  0  0  0
  5  4  1  0  0  0  0
  5 10  1  0  0  0  0
  6  5  2  0  0  0  0
  7  1  1  0  0  0  0
  8  2  1  0  0  0  0
  9 13  1  0  0  0  0
 11 12  3  0  0  0  0
 14  6  1  0  0  0  0
M  RAD  2   3   2   4   2
M  END
