Coordinates from ORCA-job Ph-N2-Cl-B3LYPG-6-31G_dp-MTMO-d009-169-n800
 OpenBabel09051908143D

 14 13  0  0  0  0  0  0  0  0999 V2000
   -1.4996   -1.4831   -1.3154 C   0  0  0  0  0  0  0  0  0  0  0  0
   -0.1184   -1.3983   -1.2474 C   0  0  0  0  0  0  0  0  0  0  0  0
    0.5122   -0.2207   -0.7567 C   0  0  0  0  0  0  0  0  0  0  0  0
   -0.3024    0.8730   -0.3360 C   0  0  0  0  0  0  0  0  0  0  0  0
   -1.6838    0.7659   -0.4136 C   0  0  0  0  0  0  0  0  0  0  0  0
   -2.2837   -0.4010   -0.8989 C   0  0  0  0  0  0  0  0  0  0  0  0
   -1.9687   -2.3866   -1.6913 H   0  0  0  0  0  0  0  0  0  0  0  0
    0.5130   -2.2224   -1.5644 H   0  0  0  0  0  0  0  0  0  0  0  0
    0.1872    1.7662    0.0361 H   0  0  0  0  0  0  0  0  0  0  0  0
   -2.3004    1.5997   -0.0930 H   0  0  0  0  0  0  0  0  0  0  0  0
    1.7316   -0.1925   -0.7154 N   0  0  0  0  0  0  0  0  0  0  0  0
    2.7430    0.3450   -0.4693 N   0  0  0  0  0  0  0  0  0  0  0  0
    2.5451    2.3629    0.3599 Cl  0  0  0  0  0  0  0  0  0  0  0  0
   -3.3665   -0.4682   -0.9535 H   0  0  0  0  0  0  0  0  0  0  0  0
  1  2  2  0  0  0  0
  1  6  1  0  0  0  0
  2  3  1  0  0  0  0
  3 11  1  0  0  0  0
  3  4  2  0  0  0  0
  4  9  1  0  0  0  0
  5  4  1  0  0  0  0
  5 10  1  0  0  0  0
  6  5  2  0  0  0  0
  7  1  1  0  0  0  0
  8  2  1  0  0  0  0
 11 12  2  0  0  0  0
 14  6  1  0  0  0  0
M  RAD  2  12   2  13   2
M  END
