Coordinates from ORCA-job Ph-N2-Cl-B3LYPG-6-31G_dp-MTMO-d009-169-n800
 OpenBabel09051908143D

 14 12  0  0  0  0  0  0  0  0999 V2000
   -0.8083    0.2897   -0.7320 C   0  0  0  0  0  0  0  0  0  0  0  0
    0.0318    1.3669   -0.3596 C   0  0  0  0  0  0  0  0  0  0  0  0
   -0.7678    2.3713    0.1230 C   0  0  0  0  0  0  0  0  0  0  0  0
   -2.0065    2.5065    0.2854 C   0  0  0  0  0  0  0  0  0  0  0  0
   -2.8750    1.4647   -0.0697 C   0  0  0  0  0  0  0  0  0  0  0  0
   -2.2067    0.3399   -0.5913 C   0  0  0  0  0  0  0  0  0  0  0  0
   -0.3442   -0.6052   -1.1394 H   0  0  0  0  0  0  0  0  0  0  0  0
    1.1099    1.3487   -0.4600 H   0  0  0  0  0  0  0  0  0  0  0  0
   -2.8590    4.0904    1.0204 H   0  0  0  0  0  0  0  0  0  0  0  0
   -3.9545    1.4972    0.0382 H   0  0  0  0  0  0  0  0  0  0  0  0
    7.5751   -9.7263   -4.2000 N   0  0  0  0  0  0  0  0  0  0  0  0
    8.2132  -10.5489   -4.5712 N   0  0  0  0  0  0  0  0  0  0  0  0
   -3.6059    5.0675    1.4943 Cl  0  0  0  0  0  0  0  0  0  0  0  0
   -2.7934   -0.5225   -0.8970 H   0  0  0  0  0  0  0  0  0  0  0  0
  1  6  2  0  0  0  0
  1  2  1  0  0  0  0
  2  3  2  0  0  0  0
  3  4  1  0  0  0  0
  5 10  1  0  0  0  0
  5  4  2  0  0  0  0
  6  5  1  0  0  0  0
  7  1  1  0  0  0  0
  8  2  1  0  0  0  0
  9 13  1  0  0  0  0
 12 11  3  0  0  0  0
 14  6  1  0  0  0  0
M  RAD  2   3   2   4   2
M  END
