Coordinates from ORCA-job Ph-N2-Cl-B3LYPG-6-31G_dp-MTMO-d009-169-n800
 OpenBabel09051908143D

 14 12  0  0  0  0  0  0  0  0999 V2000
   -1.1932   -1.2592   -1.2318 C   0  0  0  0  0  0  0  0  0  0  0  0
    0.1569   -0.8774   -1.0367 C   0  0  0  0  0  0  0  0  0  0  0  0
    0.1517    0.3878   -0.5103 C   0  0  0  0  0  0  0  0  0  0  0  0
   -0.7385    1.2161   -0.1899 C   0  0  0  0  0  0  0  0  0  0  0  0
   -2.0877    0.8719   -0.3689 C   0  0  0  0  0  0  0  0  0  0  0  0
   -2.2707   -0.4151   -0.9095 C   0  0  0  0  0  0  0  0  0  0  0  0
   -1.3910   -2.2442   -1.6467 H   0  0  0  0  0  0  0  0  0  0  0  0
    1.0032   -1.5076   -1.2765 H   0  0  0  0  0  0  0  0  0  0  0  0
   -0.4160    2.9636    0.5375 H   0  0  0  0  0  0  0  0  0  0  0  0
   -2.9235    1.5183   -0.1220 H   0  0  0  0  0  0  0  0  0  0  0  0
    3.5073   -2.4170   -1.5890 N   0  0  0  0  0  0  0  0  0  0  0  0
    4.5692   -2.7108   -1.6722 N   0  0  0  0  0  0  0  0  0  0  0  0
   -0.3764    4.1835    1.0429 Cl  0  0  0  0  0  0  0  0  0  0  0  0
   -3.2827   -0.7701   -1.0858 H   0  0  0  0  0  0  0  0  0  0  0  0
  1  2  2  0  0  0  0
  1  6  1  0  0  0  0
  2  3  1  0  0  0  0
  3  4  2  0  0  0  0
  5  4  1  0  0  0  0
  5 10  1  0  0  0  0
  6  5  2  0  0  0  0
  7  1  1  0  0  0  0
  8  2  1  0  0  0  0
  9 13  1  0  0  0  0
 12 11  3  0  0  0  0
 14  6  1  0  0  0  0
M  RAD  2   3   2   4   2
M  END
