Coordinates from ORCA-job Ph-N2-Cl-B3LYPG-6-31G_dp-MTMO-d009-169-n800
 OpenBabel09051908143D

 14 12  0  0  0  0  0  0  0  0999 V2000
   -0.8439   -1.0615   -1.1471 C   0  0  0  0  0  0  0  0  0  0  0  0
    0.3977   -0.4430   -0.8619 C   0  0  0  0  0  0  0  0  0  0  0  0
    0.1306    0.7993   -0.3471 C   0  0  0  0  0  0  0  0  0  0  0  0
   -0.9162    1.4490   -0.0970 C   0  0  0  0  0  0  0  0  0  0  0  0
   -2.1658    0.8699   -0.3660 C   0  0  0  0  0  0  0  0  0  0  0  0
   -2.0757   -0.4267   -0.9073 C   0  0  0  0  0  0  0  0  0  0  0  0
   -0.8313   -2.0641   -1.5664 H   0  0  0  0  0  0  0  0  0  0  0  0
    1.3559   -0.9149   -1.0396 H   0  0  0  0  0  0  0  0  0  0  0  0
   -0.9726    3.2269    0.6339 H   0  0  0  0  0  0  0  0  0  0  0  0
   -3.1191    1.3545   -0.1829 H   0  0  0  0  0  0  0  0  0  0  0  0
    3.5819   -3.2956   -1.9351 N   0  0  0  0  0  0  0  0  0  0  0  0
    4.3599   -4.0283   -2.2165 N   0  0  0  0  0  0  0  0  0  0  0  0
   -1.2004    4.4318    1.1240 Cl  0  0  0  0  0  0  0  0  0  0  0  0
   -2.9925   -0.9574   -1.1499 H   0  0  0  0  0  0  0  0  0  0  0  0
  1  6  2  0  0  0  0
  1  2  1  0  0  0  0
  2  3  2  0  0  0  0
  3  4  1  0  0  0  0
  5 10  1  0  0  0  0
  5  4  2  0  0  0  0
  6  5  1  0  0  0  0
  7  1  1  0  0  0  0
  8  2  1  0  0  0  0
  9 13  1  0  0  0  0
 12 11  3  0  0  0  0
 14  6  1  0  0  0  0
M  RAD  2   3   2   4   2
M  END
