Coordinates from ORCA-job Ph-N2-Cl-B3LYPG-6-31G_dp-MTMO-d009-169-n800
 OpenBabel09051908143D

 14 12  0  0  0  0  0  0  0  0999 V2000
   -0.8121    0.2973   -0.7306 C   0  0  0  0  0  0  0  0  0  0  0  0
    0.0270    1.3752   -0.3580 C   0  0  0  0  0  0  0  0  0  0  0  0
   -0.7737    2.3785    0.1251 C   0  0  0  0  0  0  0  0  0  0  0  0
   -2.0125    2.5129    0.2881 C   0  0  0  0  0  0  0  0  0  0  0  0
   -2.8797    1.4700   -0.0673 C   0  0  0  0  0  0  0  0  0  0  0  0
   -2.2105    0.3462   -0.5894 C   0  0  0  0  0  0  0  0  0  0  0  0
   -0.3473   -0.5970   -1.1384 H   0  0  0  0  0  0  0  0  0  0  0  0
    1.1051    1.3587   -0.4585 H   0  0  0  0  0  0  0  0  0  0  0  0
   -2.8658    4.0953    1.0238 H   0  0  0  0  0  0  0  0  0  0  0  0
   -3.9592    1.5011    0.0408 H   0  0  0  0  0  0  0  0  0  0  0  0
    7.6045   -9.7653   -4.2131 N   0  0  0  0  0  0  0  0  0  0  0  0
    8.2427  -10.5878   -4.5844 N   0  0  0  0  0  0  0  0  0  0  0  0
   -3.6135    5.0716    1.4984 Cl  0  0  0  0  0  0  0  0  0  0  0  0
   -2.7964   -0.5168   -0.8953 H   0  0  0  0  0  0  0  0  0  0  0  0
  1  6  2  0  0  0  0
  1  2  1  0  0  0  0
  2  3  2  0  0  0  0
  3  4  1  0  0  0  0
  5 10  1  0  0  0  0
  5  4  2  0  0  0  0
  6  5  1  0  0  0  0
  7  1  1  0  0  0  0
  8  2  1  0  0  0  0
  9 13  1  0  0  0  0
 12 11  3  0  0  0  0
 14  6  1  0  0  0  0
M  RAD  2   3   2   4   2
M  END
