Coordinates from ORCA-job Ph-N2-Cl-B3LYPG-6-31G_dp-MTMO-d009-169-n800
 OpenBabel09051908143D

 14 12  0  0  0  0  0  0  0  0999 V2000
   -0.8831    0.4419   -0.6985 C   0  0  0  0  0  0  0  0  0  0  0  0
   -0.0630    1.5336   -0.3234 C   0  0  0  0  0  0  0  0  0  0  0  0
   -0.8805    2.5194    0.1673 C   0  0  0  0  0  0  0  0  0  0  0  0
   -2.1210    2.6293    0.3351 C   0  0  0  0  0  0  0  0  0  0  0  0
   -2.9700    1.5723   -0.0223 C   0  0  0  0  0  0  0  0  0  0  0  0
   -2.2816    0.4637   -0.5523 C   0  0  0  0  0  0  0  0  0  0  0  0
   -0.4030   -0.4416   -1.1121 H   0  0  0  0  0  0  0  0  0  0  0  0
    1.0148    1.5374   -0.4280 H   0  0  0  0  0  0  0  0  0  0  0  0
   -3.0018    4.1910    1.0834 H   0  0  0  0  0  0  0  0  0  0  0  0
   -4.0495    1.5829    0.0898 H   0  0  0  0  0  0  0  0  0  0  0  0
    8.1632  -10.5054   -4.4653 N   0  0  0  0  0  0  0  0  0  0  0  0
    8.8026  -11.3260   -4.8387 N   0  0  0  0  0  0  0  0  0  0  0  0
   -3.7662    5.1499    1.5666 Cl  0  0  0  0  0  0  0  0  0  0  0  0
   -2.8523   -0.4085   -0.8604 H   0  0  0  0  0  0  0  0  0  0  0  0
  1  6  2  0  0  0  0
  1  2  1  0  0  0  0
  2  3  2  0  0  0  0
  3  4  1  0  0  0  0
  5 10  1  0  0  0  0
  5  4  2  0  0  0  0
  6  5  1  0  0  0  0
  7  1  1  0  0  0  0
  8  2  1  0  0  0  0
  9 13  1  0  0  0  0
 12 11  3  0  0  0  0
 14  6  1  0  0  0  0
M  RAD  2   3   2   4   2
M  END
