Coordinates from ORCA-job Ph-N2-Cl-B3LYPG-6-31G_dp-MTMO-d009-169-n800
 OpenBabel09051908143D

 14 12  0  0  0  0  0  0  0  0999 V2000
   -0.6758   -0.1628   -0.8470 C   0  0  0  0  0  0  0  0  0  0  0  0
    0.2604    0.8359   -0.4851 C   0  0  0  0  0  0  0  0  0  0  0  0
   -0.4426    1.9136   -0.0102 C   0  0  0  0  0  0  0  0  0  0  0  0
   -1.6633    2.1638    0.1526 C   0  0  0  0  0  0  0  0  0  0  0  0
   -2.6243    1.2028   -0.1925 C   0  0  0  0  0  0  0  0  0  0  0  0
   -2.0633    0.0169   -0.7049 C   0  0  0  0  0  0  0  0  0  0  0  0
   -0.2962   -1.0993   -1.2478 H   0  0  0  0  0  0  0  0  0  0  0  0
    1.3320    0.7183   -0.5866 H   0  0  0  0  0  0  0  0  0  0  0  0
   -2.3632    3.8275    0.8700 H   0  0  0  0  0  0  0  0  0  0  0  0
   -3.6960    1.3354   -0.0840 H   0  0  0  0  0  0  0  0  0  0  0  0
    6.0231   -7.5373   -3.4408 N   0  0  0  0  0  0  0  0  0  0  0  0
    6.6602   -8.3602   -3.8128 N   0  0  0  0  0  0  0  0  0  0  0  0
   -3.0150    4.8758    1.3324 Cl  0  0  0  0  0  0  0  0  0  0  0  0
   -2.7275   -0.7905   -1.0021 H   0  0  0  0  0  0  0  0  0  0  0  0
  1  6  2  0  0  0  0
  1  2  1  0  0  0  0
  2  3  2  0  0  0  0
  3  4  1  0  0  0  0
  5 10  1  0  0  0  0
  5  4  2  0  0  0  0
  6  5  1  0  0  0  0
  7  1  1  0  0  0  0
  8  2  1  0  0  0  0
  9 13  1  0  0  0  0
 12 11  3  0  0  0  0
 14  6  1  0  0  0  0
M  RAD  2   3   2   4   2
M  END
