Coordinates from ORCA-job Ph-N2-Cl-B3LYPG-6-31G_dp-MTMO-d009-169-n800
 OpenBabel09051908143D

 14 12  0  0  0  0  0  0  0  0999 V2000
   -0.6610   -0.2981   -0.8912 C   0  0  0  0  0  0  0  0  0  0  0  0
    0.3131    0.6658   -0.5356 C   0  0  0  0  0  0  0  0  0  0  0  0
   -0.3468    1.7684   -0.0561 C   0  0  0  0  0  0  0  0  0  0  0  0
   -1.5567    2.0622    0.1146 C   0  0  0  0  0  0  0  0  0  0  0  0
   -2.5543    1.1370   -0.2240 C   0  0  0  0  0  0  0  0  0  0  0  0
   -2.0401   -0.0685   -0.7400 C   0  0  0  0  0  0  0  0  0  0  0  0
   -0.3181   -1.2476   -1.2947 H   0  0  0  0  0  0  0  0  0  0  0  0
    1.3790    0.5091   -0.6446 H   0  0  0  0  0  0  0  0  0  0  0  0
   -2.1907    3.7492    0.8385 H   0  0  0  0  0  0  0  0  0  0  0  0
   -3.6197    1.3087   -0.1084 H   0  0  0  0  0  0  0  0  0  0  0  0
    5.6012   -6.8963   -3.2092 N   0  0  0  0  0  0  0  0  0  0  0  0
    6.2384   -7.7191   -3.5815 N   0  0  0  0  0  0  0  0  0  0  0  0
   -2.8009    4.8201    1.3062 Cl  0  0  0  0  0  0  0  0  0  0  0  0
   -2.7350   -0.8512   -1.0328 H   0  0  0  0  0  0  0  0  0  0  0  0
  1  6  2  0  0  0  0
  1  2  1  0  0  0  0
  2  3  2  0  0  0  0
  3  4  1  0  0  0  0
  5 10  1  0  0  0  0
  5  4  2  0  0  0  0
  6  5  1  0  0  0  0
  7  1  1  0  0  0  0
  8  2  1  0  0  0  0
  9 13  1  0  0  0  0
 12 11  3  0  0  0  0
 14  6  1  0  0  0  0
M  RAD  2   3   2   4   2
M  END
