Coordinates from ORCA-job Ph-N2-Cl-B3LYPG-6-31G_dp-MTMO-d009-169-n800
 OpenBabel09051908143D

 14 12  0  0  0  0  0  0  0  0999 V2000
   -0.7018   -0.0398   -0.8125 C   0  0  0  0  0  0  0  0  0  0  0  0
    0.2047    0.9845   -0.4467 C   0  0  0  0  0  0  0  0  0  0  0  0
   -0.5300    2.0411    0.0278 C   0  0  0  0  0  0  0  0  0  0  0  0
   -1.7577    2.2561    0.1878 C   0  0  0  0  0  0  0  0  0  0  0  0
   -2.6901    1.2687   -0.1610 C   0  0  0  0  0  0  0  0  0  0  0  0
   -2.0943    0.1001   -0.6737 C   0  0  0  0  0  0  0  0  0  0  0  0
   -0.2948   -0.9648   -1.2135 H   0  0  0  0  0  0  0  0  0  0  0  0
    1.2795    0.8976   -0.5456 H   0  0  0  0  0  0  0  0  0  0  0  0
   -2.5075    3.8980    0.9059 H   0  0  0  0  0  0  0  0  0  0  0  0
   -3.7655    1.3704   -0.0550 H   0  0  0  0  0  0  0  0  0  0  0  0
    6.4266   -8.1248   -3.6478 N   0  0  0  0  0  0  0  0  0  0  0  0
    7.0646   -8.9476   -4.0188 N   0  0  0  0  0  0  0  0  0  0  0  0
   -3.1908    4.9260    1.3683 Cl  0  0  0  0  0  0  0  0  0  0  0  0
   -2.7344   -0.7255   -0.9738 H   0  0  0  0  0  0  0  0  0  0  0  0
  1  6  2  0  0  0  0
  1  2  1  0  0  0  0
  2  3  2  0  0  0  0
  3  4  1  0  0  0  0
  5 10  1  0  0  0  0
  5  4  2  0  0  0  0
  6  5  1  0  0  0  0
  7  1  1  0  0  0  0
  8  2  1  0  0  0  0
  9 13  1  0  0  0  0
 12 11  3  0  0  0  0
 14  6  1  0  0  0  0
M  RAD  2   3   2   4   2
M  END
