Coordinates from ORCA-job Ph-N2-Cl-B3LYPG-6-31G_dp-MTMO-d009-169-n800
 OpenBabel09051908143D

 14 12  0  0  0  0  0  0  0  0999 V2000
   -0.6571   -0.3984   -0.9249 C   0  0  0  0  0  0  0  0  0  0  0  0
    0.3473    0.5362   -0.5752 C   0  0  0  0  0  0  0  0  0  0  0  0
   -0.2768    1.6578   -0.0917 C   0  0  0  0  0  0  0  0  0  0  0  0
   -1.4763    1.9873    0.0865 C   0  0  0  0  0  0  0  0  0  0  0  0
   -2.5029    1.0920   -0.2462 C   0  0  0  0  0  0  0  0  0  0  0  0
   -2.0278   -0.1280   -0.7653 C   0  0  0  0  0  0  0  0  0  0  0  0
   -0.3448   -1.3574   -1.3305 H   0  0  0  0  0  0  0  0  0  0  0  0
    1.4074    0.3480   -0.6907 H   0  0  0  0  0  0  0  0  0  0  0  0
   -2.0565    3.6899    0.8160 H   0  0  0  0  0  0  0  0  0  0  0  0
   -3.5619    1.2954   -0.1242 H   0  0  0  0  0  0  0  0  0  0  0  0
    5.2977   -6.4253   -3.0391 N   0  0  0  0  0  0  0  0  0  0  0  0
    5.9402   -7.2452   -3.4085 N   0  0  0  0  0  0  0  0  0  0  0  0
   -2.6327    4.7773    1.2890 Cl  0  0  0  0  0  0  0  0  0  0  0  0
   -2.7473   -0.8897   -1.0540 H   0  0  0  0  0  0  0  0  0  0  0  0
  1  6  2  0  0  0  0
  1  2  1  0  0  0  0
  2  3  2  0  0  0  0
  3  4  1  0  0  0  0
  5 10  1  0  0  0  0
  5  4  2  0  0  0  0
  6  5  1  0  0  0  0
  7  1  1  0  0  0  0
  8  2  1  0  0  0  0
  9 13  1  0  0  0  0
 12 11  3  0  0  0  0
 14  6  1  0  0  0  0
M  RAD  2   3   2   4   2
M  END
