Coordinates from ORCA-job Ph-N2-Cl-B3LYPG-6-31G_dp-MTMO-d009-169-n800
 OpenBabel09051908143D

 14 12  0  0  0  0  0  0  0  0999 V2000
   -0.7973   -0.9824   -1.1195 C   0  0  0  0  0  0  0  0  0  0  0  0
    0.4133   -0.3112   -0.8211 C   0  0  0  0  0  0  0  0  0  0  0  0
    0.0891    0.9190   -0.3099 C   0  0  0  0  0  0  0  0  0  0  0  0
   -0.9879    1.5220   -0.0723 C   0  0  0  0  0  0  0  0  0  0  0  0
   -2.2089    0.8910   -0.3540 C   0  0  0  0  0  0  0  0  0  0  0  0
   -2.0577   -0.4007   -0.8935 C   0  0  0  0  0  0  0  0  0  0  0  0
   -0.7375   -1.9837   -1.5379 H   0  0  0  0  0  0  0  0  0  0  0  0
    1.3929   -0.7409   -0.9881 H   0  0  0  0  0  0  0  0  0  0  0  0
   -1.1273    3.2980    0.6608 H   0  0  0  0  0  0  0  0  0  0  0  0
   -3.1839    1.3346   -0.1815 H   0  0  0  0  0  0  0  0  0  0  0  0
    3.7861   -3.6701   -2.0569 N   0  0  0  0  0  0  0  0  0  0  0  0
    4.4884   -4.4564   -2.3887 N   0  0  0  0  0  0  0  0  0  0  0  0
   -1.4124    4.4907    1.1493 Cl  0  0  0  0  0  0  0  0  0  0  0  0
   -2.9483   -0.9701   -1.1456 H   0  0  0  0  0  0  0  0  0  0  0  0
  1  6  2  0  0  0  0
  1  2  1  0  0  0  0
  2  3  2  0  0  0  0
  3  4  1  0  0  0  0
  5 10  1  0  0  0  0
  5  4  2  0  0  0  0
  6  5  1  0  0  0  0
  7  1  1  0  0  0  0
  8  2  1  0  0  0  0
  9 13  1  0  0  0  0
 12 11  3  0  0  0  0
 14  6  1  0  0  0  0
M  RAD  2   3   2   4   2
M  END
