Coordinates from ORCA-job Ph-N2-Cl-B3LYPG-6-31G_dp-MTMO-d009-169-n800
 OpenBabel09051908143D

 14 12  0  0  0  0  0  0  0  0999 V2000
   -0.6500   -0.4799   -0.9509 C   0  0  0  0  0  0  0  0  0  0  0  0
    0.3770    0.4315   -0.6058 C   0  0  0  0  0  0  0  0  0  0  0  0
   -0.2191    1.5675   -0.1204 C   0  0  0  0  0  0  0  0  0  0  0  0
   -1.4100    1.9245    0.0626 C   0  0  0  0  0  0  0  0  0  0  0  0
   -2.4582    1.0529   -0.2656 C   0  0  0  0  0  0  0  0  0  0  0  0
   -2.0135   -0.1779   -0.7858 C   0  0  0  0  0  0  0  0  0  0  0  0
   -0.3616   -1.4458   -1.3575 H   0  0  0  0  0  0  0  0  0  0  0  0
    1.4319    0.2190   -0.7257 H   0  0  0  0  0  0  0  0  0  0  0  0
   -1.9490    3.6381    0.7950 H   0  0  0  0  0  0  0  0  0  0  0  0
   -3.5117    1.2808   -0.1395 H   0  0  0  0  0  0  0  0  0  0  0  0
    5.0387   -6.0332   -2.8999 N   0  0  0  0  0  0  0  0  0  0  0  0
    5.6845   -6.8524   -3.2653 N   0  0  0  0  0  0  0  0  0  0  0  0
   -2.4991    4.7378    1.2712 Cl  0  0  0  0  0  0  0  0  0  0  0  0
   -2.7515   -0.9230   -1.0713 H   0  0  0  0  0  0  0  0  0  0  0  0
  1  6  2  0  0  0  0
  1  2  1  0  0  0  0
  2  3  2  0  0  0  0
  3  4  1  0  0  0  0
  5 10  1  0  0  0  0
  5  4  2  0  0  0  0
  6  5  1  0  0  0  0
  7  1  1  0  0  0  0
  8  2  1  0  0  0  0
  9 13  1  0  0  0  0
 12 11  3  0  0  0  0
 14  6  1  0  0  0  0
M  RAD  2   3   2   4   2
M  END
