Coordinates from ORCA-job Ph-N2-Cl-B3LYPG-6-31G_dp-MTMO-d009-169-n800
 OpenBabel09051908143D

 14 12  0  0  0  0  0  0  0  0999 V2000
   -0.6498   -0.5559   -0.9792 C   0  0  0  0  0  0  0  0  0  0  0  0
    0.4004    0.3309   -0.6397 C   0  0  0  0  0  0  0  0  0  0  0  0
   -0.1661    1.4799   -0.1497 C   0  0  0  0  0  0  0  0  0  0  0  0
   -1.3471    1.8646    0.0410 C   0  0  0  0  0  0  0  0  0  0  0  0
   -2.4174    1.0181   -0.2814 C   0  0  0  0  0  0  0  0  0  0  0  0
   -2.0049   -0.2223   -0.8054 C   0  0  0  0  0  0  0  0  0  0  0  0
   -0.3866   -1.5279   -1.3885 H   0  0  0  0  0  0  0  0  0  0  0  0
    1.4492    0.0939   -0.7664 H   0  0  0  0  0  0  0  0  0  0  0  0
   -1.8418    3.5885    0.7785 H   0  0  0  0  0  0  0  0  0  0  0  0
   -3.4644    1.2704   -0.1486 H   0  0  0  0  0  0  0  0  0  0  0  0
    4.8104   -5.6635   -2.7648 N   0  0  0  0  0  0  0  0  0  0  0  0
    5.4523   -6.4870   -3.1272 N   0  0  0  0  0  0  0  0  0  0  0  0
   -2.3639    4.6997    1.2595 Cl  0  0  0  0  0  0  0  0  0  0  0  0
   -2.7618   -0.9496   -1.0870 H   0  0  0  0  0  0  0  0  0  0  0  0
  1  6  2  0  0  0  0
  1  2  1  0  0  0  0
  2  3  2  0  0  0  0
  3  4  1  0  0  0  0
  5 10  1  0  0  0  0
  5  4  2  0  0  0  0
  6  5  1  0  0  0  0
  7  1  1  0  0  0  0
  8  2  1  0  0  0  0
  9 13  1  0  0  0  0
 12 11  3  0  0  0  0
 14  6  1  0  0  0  0
M  RAD  2   3   2   4   2
M  END
