Coordinates from ORCA-job Ph-N2-OOCCH3-B3LYPG-aug-cc-pVDZ-scan-d09-49-n400
 OpenBabel10311713213D

 20 18  0  0  0  0  0  0  0  0999 V2000
   13.4270    6.0811    2.4044 C   0  0  0  0  0  0  0  0  0  0  0  0
   12.7505    5.4510    1.3289 C   0  0  0  0  0  0  0  0  0  0  0  0
   12.0944    4.3554    1.8363 C   0  0  0  0  0  0  0  0  0  0  0  0
   11.9892    3.8489    2.9809 C   0  0  0  0  0  0  0  0  0  0  0  0
   12.6409    4.4357    4.0766 C   0  0  0  0  0  0  0  0  0  0  0  0
   13.3724    5.5902    3.7240 C   0  0  0  0  0  0  0  0  0  0  0  0
   14.0094    6.9798    2.1918 H   0  0  0  0  0  0  0  0  0  0  0  0
   12.7763    5.8103    0.3038 H   0  0  0  0  0  0  0  0  0  0  0  0
   10.7983    3.4286   -1.3434 N   0  0  0  0  0  0  0  0  0  0  0  0
   10.4345    2.5923   -1.9659 N   0  0  0  0  0  0  0  0  0  0  0  0
   13.9172    6.1247    4.5046 H   0  0  0  0  0  0  0  0  0  0  0  0
   12.6054    4.0656    5.1003 H   0  0  0  0  0  0  0  0  0  0  0  0
   10.6667    2.0348    3.0302 H   0  0  0  0  0  0  0  0  0  0  0  0
    9.4375    1.2005    1.2325 O   0  0  0  0  0  0  0  0  0  0  0  0
    9.3800    0.7886    2.3718 C   0  0  0  0  0  0  0  0  0  0  0  0
   10.1183    1.3045    3.3827 O   0  0  0  0  0  0  0  0  0  0  0  0
    8.5009   -0.3391    2.8481 C   0  0  0  0  0  0  0  0  0  0  0  0
    7.9236   -0.7328    2.0072 H   0  0  0  0  0  0  0  0  0  0  0  0
    9.1196   -1.1330    3.2877 H   0  0  0  0  0  0  0  0  0  0  0  0
    7.8254    0.0226    3.6350 H   0  0  0  0  0  0  0  0  0  0  0  0
  1  6  2  0  0  0  0
  2  3  2  0  0  0  0
  2  1  1  0  0  0  0
  3  4  1  0  0  0  0
  4  5  2  0  0  0  0
  5 12  1  0  0  0  0
  6  5  1  0  0  0  0
  6 11  1  0  0  0  0
  7  1  1  0  0  0  0
  8  2  1  0  0  0  0
 10  9  3  0  0  0  0
 13 16  1  0  0  0  0
 14 15  2  0  0  0  0
 15 17  1  0  0  0  0
 15 16  1  0  0  0  0
 17 19  1  0  0  0  0
 17 20  1  0  0  0  0
 18 17  1  0  0  0  0
M  RAD  2   3   2   4   2
M  END
