Coordinates from ORCA-job Ph-N2-OOCCH3-B3LYPG-aug-cc-pVDZ-scan-d09-49-n400
 OpenBabel10311713213D

 20 18  0  0  0  0  0  0  0  0999 V2000
   13.3615    6.0803    2.3675 C   0  0  0  0  0  0  0  0  0  0  0  0
   12.7480    5.5101    1.2220 C   0  0  0  0  0  0  0  0  0  0  0  0
   12.1055    4.3711    1.6305 C   0  0  0  0  0  0  0  0  0  0  0  0
   11.9474    3.7645    2.7218 C   0  0  0  0  0  0  0  0  0  0  0  0
   12.5445    4.3028    3.8776 C   0  0  0  0  0  0  0  0  0  0  0  0
   13.2613    5.4955    3.6449 C   0  0  0  0  0  0  0  0  0  0  0  0
   13.9283    7.0050    2.2427 H   0  0  0  0  0  0  0  0  0  0  0  0
   12.8071    5.9382    0.2256 H   0  0  0  0  0  0  0  0  0  0  0  0
   11.1023    3.5605   -0.8940 N   0  0  0  0  0  0  0  0  0  0  0  0
   10.7005    2.7202   -1.4866 N   0  0  0  0  0  0  0  0  0  0  0  0
   13.7562    5.9853    4.4855 H   0  0  0  0  0  0  0  0  0  0  0  0
   12.4743    3.8623    4.8718 H   0  0  0  0  0  0  0  0  0  0  0  0
   10.7571    2.0002    2.9541 H   0  0  0  0  0  0  0  0  0  0  0  0
    9.3415    1.2386    1.2524 O   0  0  0  0  0  0  0  0  0  0  0  0
    9.3727    0.8072    2.3857 C   0  0  0  0  0  0  0  0  0  0  0  0
   10.2155    1.2748    3.3349 O   0  0  0  0  0  0  0  0  0  0  0  0
    8.4980   -0.2992    2.9188 C   0  0  0  0  0  0  0  0  0  0  0  0
    7.8386   -0.6585    2.1242 H   0  0  0  0  0  0  0  0  0  0  0  0
    9.1232   -1.1208    3.2934 H   0  0  0  0  0  0  0  0  0  0  0  0
    7.9038    0.0716    3.7649 H   0  0  0  0  0  0  0  0  0  0  0  0
  1  6  2  0  0  0  0
  2  3  2  0  0  0  0
  2  1  1  0  0  0  0
  3  4  1  0  0  0  0
  4  5  2  0  0  0  0
  5 12  1  0  0  0  0
  6  5  1  0  0  0  0
  6 11  1  0  0  0  0
  7  1  1  0  0  0  0
  8  2  1  0  0  0  0
 10  9  3  0  0  0  0
 13 16  1  0  0  0  0
 14 15  2  0  0  0  0
 15 17  1  0  0  0  0
 15 16  1  0  0  0  0
 17 19  1  0  0  0  0
 17 20  1  0  0  0  0
 18 17  1  0  0  0  0
M  RAD  2   3   2   4   2
M  END
