Coordinates from ORCA-job Ph-N2-OOCCH3-B3LYPG-aug-cc-pVDZ-scan-d09-49-n400
 OpenBabel10311713213D

 20 18  0  0  0  0  0  0  0  0999 V2000
   13.4401    6.0800    2.4139 C   0  0  0  0  0  0  0  0  0  0  0  0
   12.7501    5.4379    1.3542 C   0  0  0  0  0  0  0  0  0  0  0  0
   12.0923    4.3520    1.8814 C   0  0  0  0  0  0  0  0  0  0  0  0
   11.9985    3.8671    3.0360 C   0  0  0  0  0  0  0  0  0  0  0  0
   12.6614    4.4639    4.1180 C   0  0  0  0  0  0  0  0  0  0  0  0
   13.3955    5.6093    3.7411 C   0  0  0  0  0  0  0  0  0  0  0  0
   14.0250    6.9724    2.1827 H   0  0  0  0  0  0  0  0  0  0  0  0
   12.7693    5.7833    0.3241 H   0  0  0  0  0  0  0  0  0  0  0  0
   10.7309    3.4003   -1.4438 N   0  0  0  0  0  0  0  0  0  0  0  0
   10.3766    2.5594   -2.0654 N   0  0  0  0  0  0  0  0  0  0  0  0
   13.9503    6.1525    4.5085 H   0  0  0  0  0  0  0  0  0  0  0  0
   12.6331    4.1088    5.1472 H   0  0  0  0  0  0  0  0  0  0  0  0
   10.6491    2.0431    3.0433 H   0  0  0  0  0  0  0  0  0  0  0  0
    9.4574    1.1930    1.2276 O   0  0  0  0  0  0  0  0  0  0  0  0
    9.3824    0.7860    2.3674 C   0  0  0  0  0  0  0  0  0  0  0  0
   10.0988    1.3117    3.3891 O   0  0  0  0  0  0  0  0  0  0  0  0
    8.5029   -0.3457    2.8334 C   0  0  0  0  0  0  0  0  0  0  0  0
    7.9436   -0.7474    1.9843 H   0  0  0  0  0  0  0  0  0  0  0  0
    9.1192   -1.1330    3.2880 H   0  0  0  0  0  0  0  0  0  0  0  0
    7.8107    0.0149    3.6063 H   0  0  0  0  0  0  0  0  0  0  0  0
  1  6  2  0  0  0  0
  2  3  2  0  0  0  0
  2  1  1  0  0  0  0
  3  4  1  0  0  0  0
  4  5  2  0  0  0  0
  5 12  1  0  0  0  0
  6  5  1  0  0  0  0
  6 11  1  0  0  0  0
  7  1  1  0  0  0  0
  8  2  1  0  0  0  0
 10  9  3  0  0  0  0
 13 16  1  0  0  0  0
 14 15  2  0  0  0  0
 15 17  1  0  0  0  0
 15 16  1  0  0  0  0
 17 19  1  0  0  0  0
 17 20  1  0  0  0  0
 18 17  1  0  0  0  0
M  RAD  2   3   2   4   2
M  END
