Coordinates from ORCA-job Ph-N2-OOCCH3-B3LYPG-aug-cc-pVDZ-scan-d09-49-n400
 OpenBabel10311713213D

 20 18  0  0  0  0  0  0  0  0999 V2000
   13.3736    6.0835    2.3748 C   0  0  0  0  0  0  0  0  0  0  0  0
   12.7469    5.4959    1.2450 C   0  0  0  0  0  0  0  0  0  0  0  0
   12.1056    4.3653    1.6798 C   0  0  0  0  0  0  0  0  0  0  0  0
   11.9608    3.7812    2.7842 C   0  0  0  0  0  0  0  0  0  0  0  0
   12.5692    4.3342    3.9258 C   0  0  0  0  0  0  0  0  0  0  0  0
   13.2860    5.5211    3.6633 C   0  0  0  0  0  0  0  0  0  0  0  0
   13.9413    7.0045    2.2287 H   0  0  0  0  0  0  0  0  0  0  0  0
   12.7969    5.9076    0.2412 H   0  0  0  0  0  0  0  0  0  0  0  0
   11.0488    3.5391   -0.9982 N   0  0  0  0  0  0  0  0  0  0  0  0
   10.6567    2.7037   -1.6040 N   0  0  0  0  0  0  0  0  0  0  0  0
   13.7913    6.0244    4.4897 H   0  0  0  0  0  0  0  0  0  0  0  0
   12.5088    3.9107    4.9278 H   0  0  0  0  0  0  0  0  0  0  0  0
   10.7435    1.9962    2.9609 H   0  0  0  0  0  0  0  0  0  0  0  0
    9.3473    1.2252    1.2453 O   0  0  0  0  0  0  0  0  0  0  0  0
    9.3688    0.7975    2.3802 C   0  0  0  0  0  0  0  0  0  0  0  0
   10.2004    1.2707    3.3368 O   0  0  0  0  0  0  0  0  0  0  0  0
    8.4927   -0.3101    2.9084 C   0  0  0  0  0  0  0  0  0  0  0  0
    7.8415   -0.6735    2.1089 H   0  0  0  0  0  0  0  0  0  0  0  0
    9.1171   -1.1288    3.2905 H   0  0  0  0  0  0  0  0  0  0  0  0
    7.8900    0.0610    3.7483 H   0  0  0  0  0  0  0  0  0  0  0  0
  1  6  2  0  0  0  0
  2  3  2  0  0  0  0
  2  1  1  0  0  0  0
  3  4  1  0  0  0  0
  4  5  2  0  0  0  0
  5 12  1  0  0  0  0
  6  5  1  0  0  0  0
  6 11  1  0  0  0  0
  7  1  1  0  0  0  0
  8  2  1  0  0  0  0
 10  9  3  0  0  0  0
 13 16  1  0  0  0  0
 14 15  2  0  0  0  0
 15 17  1  0  0  0  0
 15 16  1  0  0  0  0
 17 19  1  0  0  0  0
 17 20  1  0  0  0  0
 18 17  1  0  0  0  0
M  RAD  2   3   2   4   2
M  END
