Coordinates from ORCA-job Ph-N2-OOCCH3-B3LYPG-aug-cc-pVDZ-scan-d09-49-n400
 OpenBabel10311713213D

 20 18  0  0  0  0  0  0  0  0999 V2000
   13.3967    6.0828    2.3854 C   0  0  0  0  0  0  0  0  0  0  0  0
   12.7477    5.4772    1.2793 C   0  0  0  0  0  0  0  0  0  0  0  0
   12.0981    4.3591    1.7416 C   0  0  0  0  0  0  0  0  0  0  0  0
   11.9742    3.8131    2.8666 C   0  0  0  0  0  0  0  0  0  0  0  0
   12.6006    4.3773    3.9899 C   0  0  0  0  0  0  0  0  0  0  0  0
   13.3240    5.5508    3.6879 C   0  0  0  0  0  0  0  0  0  0  0  0
   13.9711    6.9945    2.2104 H   0  0  0  0  0  0  0  0  0  0  0  0
   12.7872    5.8672    0.2660 H   0  0  0  0  0  0  0  0  0  0  0  0
   10.9430    3.4863   -1.1298 N   0  0  0  0  0  0  0  0  0  0  0  0
   10.5590    2.6559   -1.7478 N   0  0  0  0  0  0  0  0  0  0  0  0
   13.8470    6.0674    4.4949 H   0  0  0  0  0  0  0  0  0  0  0  0
   12.5508    3.9759    5.0013 H   0  0  0  0  0  0  0  0  0  0  0  0
   10.7074    2.0142    2.9937 H   0  0  0  0  0  0  0  0  0  0  0  0
    9.3913    1.2170    1.2407 O   0  0  0  0  0  0  0  0  0  0  0  0
    9.3743    0.7945    2.3774 C   0  0  0  0  0  0  0  0  0  0  0  0
   10.1628    1.2871    3.3612 O   0  0  0  0  0  0  0  0  0  0  0  0
    8.4960   -0.3231    2.8788 C   0  0  0  0  0  0  0  0  0  0  0  0
    7.8785   -0.6987    2.0585 H   0  0  0  0  0  0  0  0  0  0  0  0
    9.1182   -1.1314    3.2858 H   0  0  0  0  0  0  0  0  0  0  0  0
    7.8591    0.0423    3.6956 H   0  0  0  0  0  0  0  0  0  0  0  0
  1  6  2  0  0  0  0
  2  3  2  0  0  0  0
  2  1  1  0  0  0  0
  3  4  1  0  0  0  0
  4  5  2  0  0  0  0
  5 12  1  0  0  0  0
  6  5  1  0  0  0  0
  6 11  1  0  0  0  0
  7  1  1  0  0  0  0
  8  2  1  0  0  0  0
 10  9  3  0  0  0  0
 13 16  1  0  0  0  0
 14 15  2  0  0  0  0
 15 17  1  0  0  0  0
 15 16  1  0  0  0  0
 17 19  1  0  0  0  0
 17 20  1  0  0  0  0
 18 17  1  0  0  0  0
M  RAD  2   3   2   4   2
M  END
