Coordinates from ORCA-job Ph-N2-OOCCH3-B3LYPG-aug-cc-pVDZ-scan-d09-49-n400
 OpenBabel11081710403D

 20 19  0  0  0  0  0  0  0  0999 V2000
   12.8944    5.9900    2.2198 C   0  0  0  0  0  0  0  0  0  0  0  0
   12.4725    5.1651    1.1821 C   0  0  0  0  0  0  0  0  0  0  0  0
   11.9776    3.8757    1.4745 C   0  0  0  0  0  0  0  0  0  0  0  0
   11.9658    3.3938    2.8031 C   0  0  0  0  0  0  0  0  0  0  0  0
   12.4251    4.2240    3.8216 C   0  0  0  0  0  0  0  0  0  0  0  0
   12.8738    5.5199    3.5389 C   0  0  0  0  0  0  0  0  0  0  0  0
   13.2539    6.9947    1.9999 H   0  0  0  0  0  0  0  0  0  0  0  0
   12.4940    5.5025    0.1464 H   0  0  0  0  0  0  0  0  0  0  0  0
   11.5877    3.1302    0.4953 N   0  0  0  0  0  0  0  0  0  0  0  0
   10.8589    2.2908    0.1586 N   0  0  0  0  0  0  0  0  0  0  0  0
   13.2229    6.1620    4.3479 H   0  0  0  0  0  0  0  0  0  0  0  0
   12.4338    3.8549    4.8470 H   0  0  0  0  0  0  0  0  0  0  0  0
   11.6479    2.3690    2.9883 H   0  0  0  0  0  0  0  0  0  0  0  0
    9.5111    1.9551    1.4246 O   0  0  0  0  0  0  0  0  0  0  0  0
    9.7975    0.8585    2.0762 C   0  0  0  0  0  0  0  0  0  0  0  0
   10.9330    0.3870    2.1870 O   0  0  0  0  0  0  0  0  0  0  0  0
    8.5837    0.1892    2.7058 C   0  0  0  0  0  0  0  0  0  0  0  0
    7.8614    0.9326    3.0638 H   0  0  0  0  0  0  0  0  0  0  0  0
    8.0870   -0.4180    1.9353 H   0  0  0  0  0  0  0  0  0  0  0  0
    8.9053   -0.4673    3.5214 H   0  0  0  0  0  0  0  0  0  0  0  0
  1  6  2  0  0  0  0
  2  3  2  0  0  0  0
  2  1  1  0  0  0  0
  3  4  1  0  0  0  0
  4 13  1  0  0  0  0
  4  5  2  0  0  0  0
  5 12  1  0  0  0  0
  6  5  1  0  0  0  0
  6 11  1  0  0  0  0
  7  1  1  0  0  0  0
  8  2  1  0  0  0  0
  9  3  1  0  0  0  0
 10  9  2  0  0  0  0
 14 15  2  0  0  0  0
 15 16  1  0  0  0  0
 15 17  1  0  0  0  0
 17 18  1  0  0  0  0
 17 20  1  0  0  0  0
 19 17  1  0  0  0  0
M  RAD  2  10   2  16   2
M  END
