Coordinates from ORCA-job Ph-N2-OOCCH3-B3LYPG-aug-cc-pVDZ-scan-d09-49-n400
 OpenBabel10311713213D

 20 18  0  0  0  0  0  0  0  0999 V2000
   13.4509    6.0730    2.4302 C   0  0  0  0  0  0  0  0  0  0  0  0
   12.7250    5.3631    1.4408 C   0  0  0  0  0  0  0  0  0  0  0  0
   12.0950    4.3024    2.0529 C   0  0  0  0  0  0  0  0  0  0  0  0
   12.0621    3.9039    3.2421 C   0  0  0  0  0  0  0  0  0  0  0  0
   12.7571    4.5606    4.2635 C   0  0  0  0  0  0  0  0  0  0  0  0
   13.4647    5.6854    3.7850 C   0  0  0  0  0  0  0  0  0  0  0  0
   14.0184    6.9532    2.1221 H   0  0  0  0  0  0  0  0  0  0  0  0
   12.7015    5.6469    0.3919 H   0  0  0  0  0  0  0  0  0  0  0  0
   10.5883    3.3630   -1.7845 N   0  0  0  0  0  0  0  0  0  0  0  0
   10.2551    2.5319   -2.4304 N   0  0  0  0  0  0  0  0  0  0  0  0
   14.0451    6.2789    4.4940 H   0  0  0  0  0  0  0  0  0  0  0  0
   12.7722    4.2689    5.3123 H   0  0  0  0  0  0  0  0  0  0  0  0
   10.6098    2.0341    3.0822 H   0  0  0  0  0  0  0  0  0  0  0  0
    9.5032    1.1676    1.2229 O   0  0  0  0  0  0  0  0  0  0  0  0
    9.3807    0.7676    2.3611 C   0  0  0  0  0  0  0  0  0  0  0  0
   10.0489    1.3049    3.4099 O   0  0  0  0  0  0  0  0  0  0  0  0
    8.4888   -0.3664    2.7963 C   0  0  0  0  0  0  0  0  0  0  0  0
    7.9683   -0.7765    1.9267 H   0  0  0  0  0  0  0  0  0  0  0  0
    9.0898   -1.1474    3.2813 H   0  0  0  0  0  0  0  0  0  0  0  0
    7.7626   -0.0054    3.5370 H   0  0  0  0  0  0  0  0  0  0  0  0
  1  6  2  0  0  0  0
  2  3  2  0  0  0  0
  2  1  1  0  0  0  0
  3  4  1  0  0  0  0
  4  5  2  0  0  0  0
  5 12  1  0  0  0  0
  6  5  1  0  0  0  0
  6 11  1  0  0  0  0
  7  1  1  0  0  0  0
  8  2  1  0  0  0  0
 10  9  3  0  0  0  0
 13 16  1  0  0  0  0
 14 15  2  0  0  0  0
 15 17  1  0  0  0  0
 15 16  1  0  0  0  0
 17 19  1  0  0  0  0
 17 20  1  0  0  0  0
 18 17  1  0  0  0  0
M  RAD  2   3   2   4   2
M  END
