Coordinates from ORCA-job Ph-N2-OOCCH3-B3LYPG-aug-cc-pVDZ-scan-d09-49-n400
 OpenBabel10311713213D

 20 18  0  0  0  0  0  0  0  0999 V2000
   13.4222    6.0817    2.4006 C   0  0  0  0  0  0  0  0  0  0  0  0
   12.7500    5.4556    1.3199 C   0  0  0  0  0  0  0  0  0  0  0  0
   12.0949    4.3564    1.8203 C   0  0  0  0  0  0  0  0  0  0  0  0
   11.9865    3.8428    2.9615 C   0  0  0  0  0  0  0  0  0  0  0  0
   12.6343    4.4261    4.0617 C   0  0  0  0  0  0  0  0  0  0  0  0
   13.3646    5.5838    3.7175 C   0  0  0  0  0  0  0  0  0  0  0  0
   14.0033    6.9826    2.1942 H   0  0  0  0  0  0  0  0  0  0  0  0
   12.7780    5.8200    0.2967 H   0  0  0  0  0  0  0  0  0  0  0  0
   10.8239    3.4392   -1.3052 N   0  0  0  0  0  0  0  0  0  0  0  0
   10.4566    2.6042   -1.9274 N   0  0  0  0  0  0  0  0  0  0  0  0
   13.9059    6.1153    4.5024 H   0  0  0  0  0  0  0  0  0  0  0  0
   12.5965    4.0508    5.0835 H   0  0  0  0  0  0  0  0  0  0  0  0
   10.6729    2.0310    3.0250 H   0  0  0  0  0  0  0  0  0  0  0  0
    9.4295    1.2030    1.2340 O   0  0  0  0  0  0  0  0  0  0  0  0
    9.3786    0.7892    2.3728 C   0  0  0  0  0  0  0  0  0  0  0  0
   10.1251    1.3011    3.3797 O   0  0  0  0  0  0  0  0  0  0  0  0
    8.4996   -0.3371    2.8530 C   0  0  0  0  0  0  0  0  0  0  0  0
    7.9157   -0.7276    2.0153 H   0  0  0  0  0  0  0  0  0  0  0  0
    9.1191   -1.1335    3.2869 H   0  0  0  0  0  0  0  0  0  0  0  0
    7.8304    0.0250    3.6451 H   0  0  0  0  0  0  0  0  0  0  0  0
  1  6  2  0  0  0  0
  2  3  2  0  0  0  0
  2  1  1  0  0  0  0
  3  4  1  0  0  0  0
  4  5  2  0  0  0  0
  5 12  1  0  0  0  0
  6  5  1  0  0  0  0
  6 11  1  0  0  0  0
  7  1  1  0  0  0  0
  8  2  1  0  0  0  0
 10  9  3  0  0  0  0
 13 16  1  0  0  0  0
 14 15  2  0  0  0  0
 15 17  1  0  0  0  0
 15 16  1  0  0  0  0
 17 19  1  0  0  0  0
 17 20  1  0  0  0  0
 18 17  1  0  0  0  0
M  RAD  2   3   2   4   2
M  END
