Coordinates from ORCA-job Ph-N2-OOCCH3-B3LYPG-aug-cc-pVDZ-scan-d09-49-n400
 OpenBabel10311713213D

 20 18  0  0  0  0  0  0  0  0999 V2000
   13.4095    6.0426    2.4255 C   0  0  0  0  0  0  0  0  0  0  0  0
   12.6379    5.2281    1.5596 C   0  0  0  0  0  0  0  0  0  0  0  0
   12.0910    4.2054    2.3047 C   0  0  0  0  0  0  0  0  0  0  0  0
   12.1652    3.9207    3.5237 C   0  0  0  0  0  0  0  0  0  0  0  0
   12.9079    4.6801    4.4319 C   0  0  0  0  0  0  0  0  0  0  0  0
   13.5378    5.7776    3.8039 C   0  0  0  0  0  0  0  0  0  0  0  0
   13.9221    6.9080    2.0008 H   0  0  0  0  0  0  0  0  0  0  0  0
   12.5271    5.4181    0.4951 H   0  0  0  0  0  0  0  0  0  0  0  0
   10.3625    3.1441   -1.9012 N   0  0  0  0  0  0  0  0  0  0  0  0
   10.0829    2.2372   -2.4655 N   0  0  0  0  0  0  0  0  0  0  0  0
   14.1481    6.4482    4.4119 H   0  0  0  0  0  0  0  0  0  0  0  0
   13.0106    4.4831    5.4978 H   0  0  0  0  0  0  0  0  0  0  0  0
   10.6216    2.0278    3.1979 H   0  0  0  0  0  0  0  0  0  0  0  0
    9.5964    1.3447    1.2236 O   0  0  0  0  0  0  0  0  0  0  0  0
    9.4185    0.8452    2.3145 C   0  0  0  0  0  0  0  0  0  0  0  0
   10.0466    1.2759    3.4345 O   0  0  0  0  0  0  0  0  0  0  0  0
    8.4938   -0.3078    2.6066 C   0  0  0  0  0  0  0  0  0  0  0  0
    8.0160   -0.6372    1.6801 H   0  0  0  0  0  0  0  0  0  0  0  0
    9.0595   -1.1347    3.0567 H   0  0  0  0  0  0  0  0  0  0  0  0
    7.7326    0.0024    3.3353 H   0  0  0  0  0  0  0  0  0  0  0  0
  1  6  2  0  0  0  0
  2  3  2  0  0  0  0
  2  1  1  0  0  0  0
  3  4  1  0  0  0  0
  4  5  2  0  0  0  0
  5 12  1  0  0  0  0
  6 11  1  0  0  0  0
  6  5  1  0  0  0  0
  7  1  1  0  0  0  0
  8  2  1  0  0  0  0
 10  9  3  0  0  0  0
 13 16  1  0  0  0  0
 14 15  2  0  0  0  0
 15 17  1  0  0  0  0
 15 16  1  0  0  0  0
 17 19  1  0  0  0  0
 17 20  1  0  0  0  0
 18 17  1  0  0  0  0
M  RAD  2   3   2   4   2
M  END
