Coordinates from ORCA-job Ph-N2-OOCCH3-B3LYPG-aug-cc-pVDZ-scan-d09-49-n400
 OpenBabel10311713213D

 20 18  0  0  0  0  0  0  0  0999 V2000
   13.3199    6.0674    2.3493 C   0  0  0  0  0  0  0  0  0  0  0  0
   12.7439    5.5320    1.1709 C   0  0  0  0  0  0  0  0  0  0  0  0
   12.1046    4.3717    1.5140 C   0  0  0  0  0  0  0  0  0  0  0  0
   11.9093    3.7023    2.5688 C   0  0  0  0  0  0  0  0  0  0  0  0
   12.4797    4.2225    3.7525 C   0  0  0  0  0  0  0  0  0  0  0  0
   13.1893    5.4293    3.5976 C   0  0  0  0  0  0  0  0  0  0  0  0
   13.8781    7.0023    2.2743 H   0  0  0  0  0  0  0  0  0  0  0  0
   12.8233    5.9963    0.1918 H   0  0  0  0  0  0  0  0  0  0  0  0
   11.2371    3.5936   -0.5998 N   0  0  0  0  0  0  0  0  0  0  0  0
   10.8127    2.7348   -1.1493 N   0  0  0  0  0  0  0  0  0  0  0  0
   13.6528    5.8876    4.4731 H   0  0  0  0  0  0  0  0  0  0  0  0
   12.3867    3.7428    4.7273 H   0  0  0  0  0  0  0  0  0  0  0  0
   10.8176    2.0119    2.9131 H   0  0  0  0  0  0  0  0  0  0  0  0
    9.3064    1.3111    1.2704 O   0  0  0  0  0  0  0  0  0  0  0  0
    9.3869    0.8516    2.3913 C   0  0  0  0  0  0  0  0  0  0  0  0
   10.2846    1.2791    3.3042 O   0  0  0  0  0  0  0  0  0  0  0  0
    8.5195   -0.2546    2.9378 C   0  0  0  0  0  0  0  0  0  0  0  0
    7.8269   -0.5934    2.1626 H   0  0  0  0  0  0  0  0  0  0  0  0
    9.1478   -1.0888    3.2774 H   0  0  0  0  0  0  0  0  0  0  0  0
    7.9604    0.1099    3.8102 H   0  0  0  0  0  0  0  0  0  0  0  0
  1  6  2  0  0  0  0
  2  3  2  0  0  0  0
  2  1  1  0  0  0  0
  3  4  1  0  0  0  0
  4  5  2  0  0  0  0
  5 12  1  0  0  0  0
  6  5  1  0  0  0  0
  6 11  1  0  0  0  0
  7  1  1  0  0  0  0
  8  2  1  0  0  0  0
 10  9  3  0  0  0  0
 13 16  1  0  0  0  0
 14 15  2  0  0  0  0
 15 17  1  0  0  0  0
 15 16  1  0  0  0  0
 17 19  1  0  0  0  0
 17 20  1  0  0  0  0
 18 17  1  0  0  0  0
M  RAD  2   3   2   4   2
M  END
