Coordinates from ORCA-job Ph-N2-OOCCH3-B3LYPG-aug-cc-pVDZ-scan-d09-49-n400
 OpenBabel11081710403D

 20 19  0  0  0  0  0  0  0  0999 V2000
   12.2131    5.8457    2.3212 C   0  0  0  0  0  0  0  0  0  0  0  0
   11.9208    4.9070    1.3544 C   0  0  0  0  0  0  0  0  0  0  0  0
   12.2113    3.4912    1.5634 C   0  0  0  0  0  0  0  0  0  0  0  0
   12.7998    3.1457    2.8558 C   0  0  0  0  0  0  0  0  0  0  0  0
   13.0714    4.1240    3.7925 C   0  0  0  0  0  0  0  0  0  0  0  0
   12.7912    5.4729    3.5440 C   0  0  0  0  0  0  0  0  0  0  0  0
   11.9820    6.8918    2.1199 H   0  0  0  0  0  0  0  0  0  0  0  0
   11.4655    5.1739    0.4016 H   0  0  0  0  0  0  0  0  0  0  0  0
   11.9946    2.7948    0.8789 N   0  0  0  0  0  0  0  0  0  0  0  0
   11.6466    1.9846    0.1387 N   0  0  0  0  0  0  0  0  0  0  0  0
   13.0157    6.2281    4.2959 H   0  0  0  0  0  0  0  0  0  0  0  0
   13.5051    3.8209    4.7454 H   0  0  0  0  0  0  0  0  0  0  0  0
   12.9702    2.0882    3.0358 H   0  0  0  0  0  0  0  0  0  0  0  0
    9.5803    1.5832    0.7672 O   0  0  0  0  0  0  0  0  0  0  0  0
    9.6365    1.1872    1.9874 C   0  0  0  0  0  0  0  0  0  0  0  0
   10.6287    1.2674    2.7421 O   0  0  0  0  0  0  0  0  0  0  0  0
    8.3299    0.5803    2.5101 C   0  0  0  0  0  0  0  0  0  0  0  0
    7.5474    1.3514    2.5224 H   0  0  0  0  0  0  0  0  0  0  0  0
    7.9948   -0.2202    1.8382 H   0  0  0  0  0  0  0  0  0  0  0  0
    8.4825    0.1915    3.5227 H   0  0  0  0  0  0  0  0  0  0  0  0
  1  6  2  0  0  0  0
  2  3  2  0  0  0  0
  2  1  1  0  0  0  0
  3  4  1  0  0  0  0
  4 13  1  0  0  0  0
  4  5  2  0  0  0  0
  5 12  1  0  0  0  0
  6  5  1  0  0  0  0
  6 11  1  0  0  0  0
  7  1  1  0  0  0  0
  8  2  1  0  0  0  0
  9  3  1  0  0  0  0
 10  9  1  0  0  0  0
 14 15  2  0  0  0  0
 15 17  1  0  0  0  0
 15 16  1  0  0  0  0
 17 18  1  0  0  0  0
 17 20  1  0  0  0  0
 19 17  1  0  0  0  0
M  RAD  3   9   2  10   3  16   2
M  END
