Coordinates from ORCA-job Ph-N2-OOCCH3-B3LYPG-aug-cc-pVDZ-scan-d09-49-n400
 OpenBabel10311713213D

 20 18  0  0  0  0  0  0  0  0999 V2000
   13.3904    6.0830    2.3831 C   0  0  0  0  0  0  0  0  0  0  0  0
   12.7474    5.4827    1.2705 C   0  0  0  0  0  0  0  0  0  0  0  0
   12.0988    4.3598    1.7225 C   0  0  0  0  0  0  0  0  0  0  0  0
   11.9711    3.8054    2.8439 C   0  0  0  0  0  0  0  0  0  0  0  0
   12.5921    4.3652    3.9727 C   0  0  0  0  0  0  0  0  0  0  0  0
   13.3137    5.5424    3.6817 C   0  0  0  0  0  0  0  0  0  0  0  0
   13.9630    6.9974    2.2163 H   0  0  0  0  0  0  0  0  0  0  0  0
   12.7900    5.8794    0.2601 H   0  0  0  0  0  0  0  0  0  0  0  0
   10.9699    3.4990   -1.0958 N   0  0  0  0  0  0  0  0  0  0  0  0
   10.5842    2.6672   -1.7105 N   0  0  0  0  0  0  0  0  0  0  0  0
   13.8319    6.0552    4.4942 H   0  0  0  0  0  0  0  0  0  0  0  0
   12.5392    3.9573    4.9814 H   0  0  0  0  0  0  0  0  0  0  0  0
   10.7172    2.0094    2.9850 H   0  0  0  0  0  0  0  0  0  0  0  0
    9.3821    1.2198    1.2427 O   0  0  0  0  0  0  0  0  0  0  0  0
    9.3739    0.7956    2.3789 C   0  0  0  0  0  0  0  0  0  0  0  0
   10.1734    1.2833    3.3562 O   0  0  0  0  0  0  0  0  0  0  0  0
    8.4953   -0.3190    2.8866 C   0  0  0  0  0  0  0  0  0  0  0  0
    7.8693   -0.6911    2.0712 H   0  0  0  0  0  0  0  0  0  0  0  0
    9.1176   -1.1303    3.2875 H   0  0  0  0  0  0  0  0  0  0  0  0
    7.8668    0.0481    3.7092 H   0  0  0  0  0  0  0  0  0  0  0  0
  1  6  2  0  0  0  0
  2  3  2  0  0  0  0
  2  1  1  0  0  0  0
  3  4  1  0  0  0  0
  4  5  2  0  0  0  0
  5 12  1  0  0  0  0
  6  5  1  0  0  0  0
  6 11  1  0  0  0  0
  7  1  1  0  0  0  0
  8  2  1  0  0  0  0
 10  9  3  0  0  0  0
 13 16  1  0  0  0  0
 14 15  2  0  0  0  0
 15 17  1  0  0  0  0
 15 16  1  0  0  0  0
 17 19  1  0  0  0  0
 17 20  1  0  0  0  0
 18 17  1  0  0  0  0
M  RAD  2   3   2   4   2
M  END
