Coordinates from ORCA-job Ph-N2-OOCCH3-B3LYPG-aug-cc-pVDZ-scan-d09-49-n400
 OpenBabel10311713213D

 20 18  0  0  0  0  0  0  0  0999 V2000
   13.4518    6.0733    2.4273 C   0  0  0  0  0  0  0  0  0  0  0  0
   12.7307    5.3764    1.4250 C   0  0  0  0  0  0  0  0  0  0  0  0
   12.0926    4.3133    2.0230 C   0  0  0  0  0  0  0  0  0  0  0  0
   12.0464    3.8995    3.2067 C   0  0  0  0  0  0  0  0  0  0  0  0
   12.7373    4.5448    4.2389 C   0  0  0  0  0  0  0  0  0  0  0  0
   13.4532    5.6716    3.7781 C   0  0  0  0  0  0  0  0  0  0  0  0
   14.0251    6.9543    2.1326 H   0  0  0  0  0  0  0  0  0  0  0  0
   12.7161    5.6706    0.3789 H   0  0  0  0  0  0  0  0  0  0  0  0
   10.6065    3.3651   -1.7209 N   0  0  0  0  0  0  0  0  0  0  0  0
   10.2687    2.5326   -2.3624 N   0  0  0  0  0  0  0  0  0  0  0  0
   14.0304    6.2553    4.4977 H   0  0  0  0  0  0  0  0  0  0  0  0
   12.7433    4.2424    5.2849 H   0  0  0  0  0  0  0  0  0  0  0  0
   10.6164    2.0376    3.0765 H   0  0  0  0  0  0  0  0  0  0  0  0
    9.4989    1.1735    1.2231 O   0  0  0  0  0  0  0  0  0  0  0  0
    9.3830    0.7718    2.3615 C   0  0  0  0  0  0  0  0  0  0  0  0
   10.0578    1.3074    3.4069 O   0  0  0  0  0  0  0  0  0  0  0  0
    8.4933   -0.3625    2.8003 C   0  0  0  0  0  0  0  0  0  0  0  0
    7.9680   -0.7715    1.9331 H   0  0  0  0  0  0  0  0  0  0  0  0
    9.0967   -1.1441    3.2812 H   0  0  0  0  0  0  0  0  0  0  0  0
    7.7712   -0.0021    3.5453 H   0  0  0  0  0  0  0  0  0  0  0  0
  1  6  2  0  0  0  0
  2  3  2  0  0  0  0
  2  1  1  0  0  0  0
  3  4  1  0  0  0  0
  4  5  2  0  0  0  0
  5 12  1  0  0  0  0
  6  5  1  0  0  0  0
  6 11  1  0  0  0  0
  7  1  1  0  0  0  0
  8  2  1  0  0  0  0
 10  9  3  0  0  0  0
 13 16  1  0  0  0  0
 14 15  2  0  0  0  0
 15 17  1  0  0  0  0
 15 16  1  0  0  0  0
 17 19  1  0  0  0  0
 17 20  1  0  0  0  0
 18 17  1  0  0  0  0
M  RAD  2   3   2   4   2
M  END
