Coordinates from ORCA-job Ph-N2-OOCCH3-B3LYPG-aug-cc-pVDZ-scan-d09-49-n400
 OpenBabel10311713213D

 20 18  0  0  0  0  0  0  0  0999 V2000
   13.4510    6.0739    2.4245 C   0  0  0  0  0  0  0  0  0  0  0  0
   12.7340    5.3860    1.4130 C   0  0  0  0  0  0  0  0  0  0  0  0
   12.0910    4.3208    2.0008 C   0  0  0  0  0  0  0  0  0  0  0  0
   12.0364    3.8943    3.1799 C   0  0  0  0  0  0  0  0  0  0  0  0
   12.7239    4.5328    4.2196 C   0  0  0  0  0  0  0  0  0  0  0  0
   13.4444    5.6616    3.7719 C   0  0  0  0  0  0  0  0  0  0  0  0
   14.0274    6.9561    2.1394 H   0  0  0  0  0  0  0  0  0  0  0  0
   12.7254    5.6883    0.3691 H   0  0  0  0  0  0  0  0  0  0  0  0
   10.6242    3.3690   -1.6722 N   0  0  0  0  0  0  0  0  0  0  0  0
   10.2829    2.5352   -2.3103 N   0  0  0  0  0  0  0  0  0  0  0  0
   14.0189    6.2385    4.4992 H   0  0  0  0  0  0  0  0  0  0  0  0
   12.7244    4.2222    5.2633 H   0  0  0  0  0  0  0  0  0  0  0  0
   10.6220    2.0391    3.0745 H   0  0  0  0  0  0  0  0  0  0  0  0
    9.4941    1.1778    1.2234 O   0  0  0  0  0  0  0  0  0  0  0  0
    9.3839    0.7748    2.3618 C   0  0  0  0  0  0  0  0  0  0  0  0
   10.0639    1.3081    3.4046 O   0  0  0  0  0  0  0  0  0  0  0  0
    8.4956   -0.3597    2.8035 C   0  0  0  0  0  0  0  0  0  0  0  0
    7.9661   -0.7674    1.9384 H   0  0  0  0  0  0  0  0  0  0  0  0
    9.1009   -1.1421    3.2808 H   0  0  0  0  0  0  0  0  0  0  0  0
    7.7771    0.0002    3.5523 H   0  0  0  0  0  0  0  0  0  0  0  0
  1  6  2  0  0  0  0
  2  3  2  0  0  0  0
  2  1  1  0  0  0  0
  3  4  1  0  0  0  0
  4  5  2  0  0  0  0
  5 12  1  0  0  0  0
  6  5  1  0  0  0  0
  6 11  1  0  0  0  0
  7  1  1  0  0  0  0
  8  2  1  0  0  0  0
 10  9  3  0  0  0  0
 13 16  1  0  0  0  0
 14 15  2  0  0  0  0
 15 17  1  0  0  0  0
 15 16  1  0  0  0  0
 17 19  1  0  0  0  0
 17 20  1  0  0  0  0
 18 17  1  0  0  0  0
M  RAD  2   3   2   4   2
M  END
