Coordinates from ORCA-job Ph-N2-OOCCH3-B3LYPG-aug-cc-pVDZ-scan-d09-49-n400
 OpenBabel10311713213D

 20 18  0  0  0  0  0  0  0  0999 V2000
   13.4452    6.0782    2.4211 C   0  0  0  0  0  0  0  0  0  0  0  0
   12.7402    5.4054    1.3910 C   0  0  0  0  0  0  0  0  0  0  0  0
   12.0948    4.3290    1.9551 C   0  0  0  0  0  0  0  0  0  0  0  0
   12.0283    3.8828    3.1263 C   0  0  0  0  0  0  0  0  0  0  0  0
   12.7039    4.5057    4.1831 C   0  0  0  0  0  0  0  0  0  0  0  0
   13.4260    5.6437    3.7614 C   0  0  0  0  0  0  0  0  0  0  0  0
   14.0223    6.9663    2.1563 H   0  0  0  0  0  0  0  0  0  0  0  0
   12.7411    5.7244    0.3522 H   0  0  0  0  0  0  0  0  0  0  0  0
   10.6601    3.3745   -1.5854 N   0  0  0  0  0  0  0  0  0  0  0  0
   10.3131    2.5386   -2.2175 N   0  0  0  0  0  0  0  0  0  0  0  0
   13.9916    6.2099    4.5039 H   0  0  0  0  0  0  0  0  0  0  0  0
   12.6943    4.1781    5.2215 H   0  0  0  0  0  0  0  0  0  0  0  0
   10.6339    2.0393    3.0667 H   0  0  0  0  0  0  0  0  0  0  0  0
    9.4846    1.1845    1.2248 O   0  0  0  0  0  0  0  0  0  0  0  0
    9.3848    0.7797    2.3634 C   0  0  0  0  0  0  0  0  0  0  0  0
   10.0772    1.3083    3.4005 O   0  0  0  0  0  0  0  0  0  0  0  0
    8.4970   -0.3525    2.8119 C   0  0  0  0  0  0  0  0  0  0  0  0
    7.9580   -0.7573    1.9512 H   0  0  0  0  0  0  0  0  0  0  0  0
    9.1042   -1.1376    3.2823 H   0  0  0  0  0  0  0  0  0  0  0  0
    7.7868    0.0085    3.5679 H   0  0  0  0  0  0  0  0  0  0  0  0
  1  6  2  0  0  0  0
  2  3  2  0  0  0  0
  2  1  1  0  0  0  0
  3  4  1  0  0  0  0
  4  5  2  0  0  0  0
  5 12  1  0  0  0  0
  6  5  1  0  0  0  0
  6 11  1  0  0  0  0
  7  1  1  0  0  0  0
  8  2  1  0  0  0  0
 10  9  3  0  0  0  0
 13 16  1  0  0  0  0
 14 15  2  0  0  0  0
 15 17  1  0  0  0  0
 15 16  1  0  0  0  0
 17 19  1  0  0  0  0
 17 20  1  0  0  0  0
 18 17  1  0  0  0  0
M  RAD  2   3   2   4   2
M  END
