Coordinates from ORCA-job Ph-N2-OOCCH3-B3LYPG-aug-cc-pVDZ-scan-d09-49-n400
 OpenBabel10311713213D

 20 18  0  0  0  0  0  0  0  0999 V2000
   13.4279    6.0811    2.4050 C   0  0  0  0  0  0  0  0  0  0  0  0
   12.7506    5.4503    1.3304 C   0  0  0  0  0  0  0  0  0  0  0  0
   12.0943    4.3553    1.8390 C   0  0  0  0  0  0  0  0  0  0  0  0
   11.9897    3.8500    2.9842 C   0  0  0  0  0  0  0  0  0  0  0  0
   12.6421    4.4374    4.0790 C   0  0  0  0  0  0  0  0  0  0  0  0
   13.3738    5.5913    3.7251 C   0  0  0  0  0  0  0  0  0  0  0  0
   14.0104    6.9794    2.1914 H   0  0  0  0  0  0  0  0  0  0  0  0
   12.7761    5.8087    0.3050 H   0  0  0  0  0  0  0  0  0  0  0  0
   10.7940    3.4269   -1.3498 N   0  0  0  0  0  0  0  0  0  0  0  0
   10.4308    2.5903   -1.9722 N   0  0  0  0  0  0  0  0  0  0  0  0
   13.9191    6.1263    4.5049 H   0  0  0  0  0  0  0  0  0  0  0  0
   12.6070    4.0681    5.1031 H   0  0  0  0  0  0  0  0  0  0  0  0
   10.6656    2.0353    3.0311 H   0  0  0  0  0  0  0  0  0  0  0  0
    9.4387    1.2000    1.2323 O   0  0  0  0  0  0  0  0  0  0  0  0
    9.3802    0.7885    2.3716 C   0  0  0  0  0  0  0  0  0  0  0  0
   10.1171    1.3050    3.3832 O   0  0  0  0  0  0  0  0  0  0  0  0
    8.5011   -0.3395    2.8473 C   0  0  0  0  0  0  0  0  0  0  0  0
    7.9249   -0.7337    2.0059 H   0  0  0  0  0  0  0  0  0  0  0  0
    9.1196   -1.1330    3.2879 H   0  0  0  0  0  0  0  0  0  0  0  0
    7.8245    0.0221    3.6333 H   0  0  0  0  0  0  0  0  0  0  0  0
  1  6  2  0  0  0  0
  2  3  2  0  0  0  0
  2  1  1  0  0  0  0
  3  4  1  0  0  0  0
  4  5  2  0  0  0  0
  5 12  1  0  0  0  0
  6  5  1  0  0  0  0
  6 11  1  0  0  0  0
  7  1  1  0  0  0  0
  8  2  1  0  0  0  0
 10  9  3  0  0  0  0
 13 16  1  0  0  0  0
 14 15  2  0  0  0  0
 15 17  1  0  0  0  0
 15 16  1  0  0  0  0
 17 19  1  0  0  0  0
 17 20  1  0  0  0  0
 18 17  1  0  0  0  0
M  RAD  2   3   2   4   2
M  END
