Coordinates from ORCA-job Ph-N2-OOCCH3-B3LYPG-aug-cc-pVDZ-scan-d09-49-n400
 OpenBabel10311713213D

 20 18  0  0  0  0  0  0  0  0999 V2000
   13.2814    6.0473    2.3112 C   0  0  0  0  0  0  0  0  0  0  0  0
   12.7265    5.4913    1.1421 C   0  0  0  0  0  0  0  0  0  0  0  0
   12.0877    4.3176    1.4563 C   0  0  0  0  0  0  0  0  0  0  0  0
   11.8723    3.6188    2.5136 C   0  0  0  0  0  0  0  0  0  0  0  0
   12.4398    4.1925    3.6819 C   0  0  0  0  0  0  0  0  0  0  0  0
   13.1373    5.4045    3.5553 C   0  0  0  0  0  0  0  0  0  0  0  0
   13.8266    6.9891    2.2388 H   0  0  0  0  0  0  0  0  0  0  0  0
   12.8068    5.9451    0.1571 H   0  0  0  0  0  0  0  0  0  0  0  0
   11.3454    3.5765   -0.2380 N   0  0  0  0  0  0  0  0  0  0  0  0
   10.8265    2.7486   -0.7570 N   0  0  0  0  0  0  0  0  0  0  0  0
   13.5795    5.8630    4.4417 H   0  0  0  0  0  0  0  0  0  0  0  0
   12.3418    3.7145    4.6584 H   0  0  0  0  0  0  0  0  0  0  0  0
   10.9056    2.0262    2.8531 H   0  0  0  0  0  0  0  0  0  0  0  0
    9.2449    1.4423    1.2816 O   0  0  0  0  0  0  0  0  0  0  0  0
    9.4077    0.9133    2.3664 C   0  0  0  0  0  0  0  0  0  0  0  0
   10.3842    1.2533    3.2205 O   0  0  0  0  0  0  0  0  0  0  0  0
    8.5492   -0.2060    2.9047 C   0  0  0  0  0  0  0  0  0  0  0  0
    7.8352   -0.5227    2.1395 H   0  0  0  0  0  0  0  0  0  0  0  0
    9.1793   -1.0497    3.2149 H   0  0  0  0  0  0  0  0  0  0  0  0
    8.0096    0.1442    3.7955 H   0  0  0  0  0  0  0  0  0  0  0  0
  1  6  2  0  0  0  0
  2  3  2  0  0  0  0
  2  1  1  0  0  0  0
  3  4  1  0  0  0  0
  4  5  2  0  0  0  0
  5 12  1  0  0  0  0
  6  5  1  0  0  0  0
  6 11  1  0  0  0  0
  7  1  1  0  0  0  0
  8  2  1  0  0  0  0
 10  9  3  0  0  0  0
 13 16  1  0  0  0  0
 14 15  2  0  0  0  0
 15 17  1  0  0  0  0
 15 16  1  0  0  0  0
 17 19  1  0  0  0  0
 17 20  1  0  0  0  0
 18 17  1  0  0  0  0
M  RAD  2   3   2   4   2
M  END
