Coordinates from ORCA-job Ph-N2-OOCCH3-B3LYPG-aug-cc-pVDZ-scan-d09-49-n400
 OpenBabel10311713213D

 20 18  0  0  0  0  0  0  0  0999 V2000
   13.4430    6.0790    2.4199 C   0  0  0  0  0  0  0  0  0  0  0  0
   12.7438    5.4168    1.3794 C   0  0  0  0  0  0  0  0  0  0  0  0
   12.0934    4.3347    1.9276 C   0  0  0  0  0  0  0  0  0  0  0  0
   12.0195    3.8778    3.0945 C   0  0  0  0  0  0  0  0  0  0  0  0
   12.6895    4.4902    4.1611 C   0  0  0  0  0  0  0  0  0  0  0  0
   13.4152    5.6314    3.7555 C   0  0  0  0  0  0  0  0  0  0  0  0
   14.0223    6.9691    2.1670 H   0  0  0  0  0  0  0  0  0  0  0  0
   12.7510    5.7456    0.3436 H   0  0  0  0  0  0  0  0  0  0  0  0
   10.6832    3.3840   -1.5457 N   0  0  0  0  0  0  0  0  0  0  0  0
   10.3347    2.5468   -2.1755 N   0  0  0  0  0  0  0  0  0  0  0  0
   13.9765    6.1897    4.5073 H   0  0  0  0  0  0  0  0  0  0  0  0
   12.6731    4.1523    5.1961 H   0  0  0  0  0  0  0  0  0  0  0  0
   10.6392    2.0406    3.0587 H   0  0  0  0  0  0  0  0  0  0  0  0
    9.4775    1.1873    1.2282 O   0  0  0  0  0  0  0  0  0  0  0  0
    9.3847    0.7818    2.3669 C   0  0  0  0  0  0  0  0  0  0  0  0
   10.0852    1.3099    3.3986 O   0  0  0  0  0  0  0  0  0  0  0  0
    8.4990   -0.3498    2.8211 C   0  0  0  0  0  0  0  0  0  0  0  0
    7.9537   -0.7537    1.9640 H   0  0  0  0  0  0  0  0  0  0  0  0
    9.1086   -1.1356    3.2870 H   0  0  0  0  0  0  0  0  0  0  0  0
    7.7943    0.0117    3.5821 H   0  0  0  0  0  0  0  0  0  0  0  0
  1  6  2  0  0  0  0
  2  3  2  0  0  0  0
  2  1  1  0  0  0  0
  3  4  1  0  0  0  0
  4  5  2  0  0  0  0
  5 12  1  0  0  0  0
  6  5  1  0  0  0  0
  6 11  1  0  0  0  0
  7  1  1  0  0  0  0
  8  2  1  0  0  0  0
 10  9  3  0  0  0  0
 13 16  1  0  0  0  0
 14 15  2  0  0  0  0
 15 17  1  0  0  0  0
 15 16  1  0  0  0  0
 17 19  1  0  0  0  0
 17 20  1  0  0  0  0
 18 17  1  0  0  0  0
M  RAD  2   3   2   4   2
M  END
