Coordinates from ORCA-job Ph-N2-OOCCH3-B3LYPG-aug-cc-pVDZ-scan-d09-49-n400
 OpenBabel10311713213D

 20 18  0  0  0  0  0  0  0  0999 V2000
   13.4121    6.0815    2.3944 C   0  0  0  0  0  0  0  0  0  0  0  0
   12.7487    5.4636    1.3036 C   0  0  0  0  0  0  0  0  0  0  0  0
   12.0956    4.3574    1.7899 C   0  0  0  0  0  0  0  0  0  0  0  0
   11.9805    3.8302    2.9245 C   0  0  0  0  0  0  0  0  0  0  0  0
   12.6204    4.4064    4.0335 C   0  0  0  0  0  0  0  0  0  0  0  0
   13.3484    5.5702    3.7058 C   0  0  0  0  0  0  0  0  0  0  0  0
   13.9909    6.9866    2.2003 H   0  0  0  0  0  0  0  0  0  0  0  0
   12.7811    5.8377    0.2841 H   0  0  0  0  0  0  0  0  0  0  0  0
   10.8708    3.4582   -1.2363 N   0  0  0  0  0  0  0  0  0  0  0  0
   10.4972    2.6253   -1.8574 N   0  0  0  0  0  0  0  0  0  0  0  0
   13.8828    6.0959    4.4993 H   0  0  0  0  0  0  0  0  0  0  0  0
   12.5780    4.0210    5.0514 H   0  0  0  0  0  0  0  0  0  0  0  0
   10.6864    2.0257    3.0135 H   0  0  0  0  0  0  0  0  0  0  0  0
    9.4149    1.2087    1.2364 O   0  0  0  0  0  0  0  0  0  0  0  0
    9.3773    0.7919    2.3747 C   0  0  0  0  0  0  0  0  0  0  0  0
   10.1397    1.2968    3.3730 O   0  0  0  0  0  0  0  0  0  0  0  0
    8.4989   -0.3313    2.8631 C   0  0  0  0  0  0  0  0  0  0  0  0
    7.9017   -0.7161    2.0321 H   0  0  0  0  0  0  0  0  0  0  0  0
    9.1198   -1.1322    3.2864 H   0  0  0  0  0  0  0  0  0  0  0  0
    7.8421    0.0319    3.6651 H   0  0  0  0  0  0  0  0  0  0  0  0
  1  6  2  0  0  0  0
  2  3  2  0  0  0  0
  2  1  1  0  0  0  0
  3  4  1  0  0  0  0
  4  5  2  0  0  0  0
  5 12  1  0  0  0  0
  6  5  1  0  0  0  0
  6 11  1  0  0  0  0
  7  1  1  0  0  0  0
  8  2  1  0  0  0  0
 10  9  3  0  0  0  0
 13 16  1  0  0  0  0
 14 15  2  0  0  0  0
 15 17  1  0  0  0  0
 15 16  1  0  0  0  0
 17 19  1  0  0  0  0
 17 20  1  0  0  0  0
 18 17  1  0  0  0  0
M  RAD  2   3   2   4   2
M  END
