Coordinates from ORCA-job Ph-N2-OOCCH3-B3LYPG-aug-cc-pVDZ-scan-d09-49-n400
 OpenBabel10311713213D

 20 18  0  0  0  0  0  0  0  0999 V2000
   13.3639    6.0812    2.3689 C   0  0  0  0  0  0  0  0  0  0  0  0
   12.7480    5.5077    1.2262 C   0  0  0  0  0  0  0  0  0  0  0  0
   12.1058    4.3704    1.6399 C   0  0  0  0  0  0  0  0  0  0  0  0
   11.9499    3.7676    2.7334 C   0  0  0  0  0  0  0  0  0  0  0  0
   12.5491    4.3087    3.8865 C   0  0  0  0  0  0  0  0  0  0  0  0
   13.2659    5.5004    3.6484 C   0  0  0  0  0  0  0  0  0  0  0  0
   13.9309    7.0052    2.2403 H   0  0  0  0  0  0  0  0  0  0  0  0
   12.8054    5.9328    0.2284 H   0  0  0  0  0  0  0  0  0  0  0  0
   11.0929    3.5567   -0.9135 N   0  0  0  0  0  0  0  0  0  0  0  0
   10.6929    2.7174   -1.5087 N   0  0  0  0  0  0  0  0  0  0  0  0
   13.7628    5.9927    4.4864 H   0  0  0  0  0  0  0  0  0  0  0  0
   12.4807    3.8714    4.8822 H   0  0  0  0  0  0  0  0  0  0  0  0
   10.7545    1.9993    2.9547 H   0  0  0  0  0  0  0  0  0  0  0  0
    9.3414    1.2356    1.2507 O   0  0  0  0  0  0  0  0  0  0  0  0
    9.3715    0.8051    2.3844 C   0  0  0  0  0  0  0  0  0  0  0  0
   10.2127    1.2738    3.3345 O   0  0  0  0  0  0  0  0  0  0  0  0
    8.4969   -0.3015    2.9172 C   0  0  0  0  0  0  0  0  0  0  0  0
    7.8384   -0.6616    2.1222 H   0  0  0  0  0  0  0  0  0  0  0  0
    9.1222   -1.1225    3.2929 H   0  0  0  0  0  0  0  0  0  0  0  0
    7.9017    0.0695    3.7625 H   0  0  0  0  0  0  0  0  0  0  0  0
  1  6  2  0  0  0  0
  2  3  2  0  0  0  0
  2  1  1  0  0  0  0
  3  4  1  0  0  0  0
  4  5  2  0  0  0  0
  5 12  1  0  0  0  0
  6  5  1  0  0  0  0
  6 11  1  0  0  0  0
  7  1  1  0  0  0  0
  8  2  1  0  0  0  0
 10  9  3  0  0  0  0
 13 16  1  0  0  0  0
 14 15  2  0  0  0  0
 15 17  1  0  0  0  0
 15 16  1  0  0  0  0
 17 19  1  0  0  0  0
 17 20  1  0  0  0  0
 18 17  1  0  0  0  0
M  RAD  2   3   2   4   2
M  END
