Coordinates from ORCA-job Ph-N2-OOCCH3-B3LYPG-aug-cc-pVDZ-scan-d09-49-n400
 OpenBabel11081710403D

 20 19  0  0  0  0  0  0  0  0999 V2000
   12.9789    5.9775    2.2023 C   0  0  0  0  0  0  0  0  0  0  0  0
   12.5076    5.1653    1.1797 C   0  0  0  0  0  0  0  0  0  0  0  0
   11.9396    3.8988    1.4815 C   0  0  0  0  0  0  0  0  0  0  0  0
   11.9091    3.4455    2.8289 C   0  0  0  0  0  0  0  0  0  0  0  0
   12.4194    4.2621    3.8317 C   0  0  0  0  0  0  0  0  0  0  0  0
   12.9396    5.5262    3.5287 C   0  0  0  0  0  0  0  0  0  0  0  0
   13.3914    6.9582    1.9680 H   0  0  0  0  0  0  0  0  0  0  0  0
   12.5390    5.4906    0.1400 H   0  0  0  0  0  0  0  0  0  0  0  0
   11.5107    3.1982    0.5650 N   0  0  0  0  0  0  0  0  0  0  0  0
   10.7981    2.3902    0.1434 N   0  0  0  0  0  0  0  0  0  0  0  0
   13.3283    6.1588    4.3271 H   0  0  0  0  0  0  0  0  0  0  0  0
   12.4115    3.9081    4.8624 H   0  0  0  0  0  0  0  0  0  0  0  0
   11.5358    2.4415    3.0282 H   0  0  0  0  0  0  0  0  0  0  0  0
    9.4007    1.9257    1.4070 O   0  0  0  0  0  0  0  0  0  0  0  0
    9.7560    0.8710    2.0811 C   0  0  0  0  0  0  0  0  0  0  0  0
   10.9252    0.4929    2.2375 O   0  0  0  0  0  0  0  0  0  0  0  0
    8.5883    0.1001    2.6855 C   0  0  0  0  0  0  0  0  0  0  0  0
    7.7749    0.7746    2.9783 H   0  0  0  0  0  0  0  0  0  0  0  0
    8.1980   -0.5864    1.9201 H   0  0  0  0  0  0  0  0  0  0  0  0
    8.9354   -0.4892    3.5414 H   0  0  0  0  0  0  0  0  0  0  0  0
  1  6  2  0  0  0  0
  2  3  2  0  0  0  0
  2  1  1  0  0  0  0
  3  4  1  0  0  0  0
  4 13  1  0  0  0  0
  4  5  2  0  0  0  0
  5 12  1  0  0  0  0
  6  5  1  0  0  0  0
  6 11  1  0  0  0  0
  7  1  1  0  0  0  0
  8  2  1  0  0  0  0
  9  3  1  0  0  0  0
 10  9  2  0  0  0  0
 14 15  2  0  0  0  0
 15 16  1  0  0  0  0
 15 17  1  0  0  0  0
 17 18  1  0  0  0  0
 17 20  1  0  0  0  0
 19 17  1  0  0  0  0
M  RAD  2  10   2  16   2
M  END
