Coordinates from ORCA-job Ph-N2-OOCCH3-B3LYPG-aug-cc-pVDZ-scan-d09-49-n400
 OpenBabel11081710403D

 20 20  0  0  0  0  0  0  0  0999 V2000
   12.5557    5.9736    2.2846 C   0  0  0  0  0  0  0  0  0  0  0  0
   12.2781    5.1198    1.2141 C   0  0  0  0  0  0  0  0  0  0  0  0
   12.0870    3.7663    1.4847 C   0  0  0  0  0  0  0  0  0  0  0  0
   12.2221    3.2170    2.7595 C   0  0  0  0  0  0  0  0  0  0  0  0
   12.5255    4.0856    3.8110 C   0  0  0  0  0  0  0  0  0  0  0  0
   12.6809    5.4573    3.5789 C   0  0  0  0  0  0  0  0  0  0  0  0
   12.6877    7.0401    2.1033 H   0  0  0  0  0  0  0  0  0  0  0  0
   12.1990    5.4921    0.1940 H   0  0  0  0  0  0  0  0  0  0  0  0
   11.8492    2.8711    0.3157 N   0  0  0  0  0  0  0  0  0  0  0  0
   11.0472    2.0270    0.1398 N   0  0  0  0  0  0  0  0  0  0  0  0
   12.9128    6.1251    4.4088 H   0  0  0  0  0  0  0  0  0  0  0  0
   12.6416    3.6848    4.8179 H   0  0  0  0  0  0  0  0  0  0  0  0
   12.1095    2.1450    2.9117 H   0  0  0  0  0  0  0  0  0  0  0  0
    9.8193    1.9867    1.3349 O   0  0  0  0  0  0  0  0  0  0  0  0
    9.8946    0.8640    2.0408 C   0  0  0  0  0  0  0  0  0  0  0  0
   10.9019    0.1765    2.1305 O   0  0  0  0  0  0  0  0  0  0  0  0
    8.5875    0.5350    2.7369 C   0  0  0  0  0  0  0  0  0  0  0  0
    8.1048    1.4418    3.1211 H   0  0  0  0  0  0  0  0  0  0  0  0
    7.9076    0.0785    2.0036 H   0  0  0  0  0  0  0  0  0  0  0  0
    8.7756   -0.1780    3.5459 H   0  0  0  0  0  0  0  0  0  0  0  0
  1  6  2  0  0  0  0
  2  3  2  0  0  0  0
  2  1  1  0  0  0  0
  3  4  1  0  0  0  0
  4 13  1  0  0  0  0
  4  5  2  0  0  0  0
  5 12  1  0  0  0  0
  6  5  1  0  0  0  0
  6 11  1  0  0  0  0
  7  1  1  0  0  0  0
  8  2  1  0  0  0  0
  9  3  1  0  0  0  0
 10  9  1  0  0  0  0
 10 14  1  0  0  0  0
 14 15  1  0  0  0  0
 15 16  2  0  0  0  0
 15 17  1  0  0  0  0
 17 18  1  0  0  0  0
 17 20  1  0  0  0  0
 19 17  1  0  0  0  0
M  RAD  2   9   2  10   2
M  END
