Coordinates from ORCA-job Ph-N2-OOCCH3-B3LYPG-aug-cc-pVDZ-scan-d09-49-n400
 OpenBabel10311713223D

 20 18  0  0  0  0  0  0  0  0999 V2000
   13.3933    6.0264    2.4275 C   0  0  0  0  0  0  0  0  0  0  0  0
   12.6087    5.1819    1.6027 C   0  0  0  0  0  0  0  0  0  0  0  0
   12.0890    4.1760    2.3896 C   0  0  0  0  0  0  0  0  0  0  0  0
   12.1974    3.9278    3.6134 C   0  0  0  0  0  0  0  0  0  0  0  0
   12.9543    4.7159    4.4838 C   0  0  0  0  0  0  0  0  0  0  0  0
   13.5580    5.8010    3.8094 C   0  0  0  0  0  0  0  0  0  0  0  0
   13.8881    6.8842    1.9675 H   0  0  0  0  0  0  0  0  0  0  0  0
   12.4707    5.3418    0.5365 H   0  0  0  0  0  0  0  0  0  0  0  0
   10.3099    3.1176   -2.0184 N   0  0  0  0  0  0  0  0  0  0  0  0
   10.0648    2.1848   -2.5559 N   0  0  0  0  0  0  0  0  0  0  0  0
   14.1771    6.4938    4.3828 H   0  0  0  0  0  0  0  0  0  0  0  0
   13.0850    4.5494    5.5518 H   0  0  0  0  0  0  0  0  0  0  0  0
   10.6204    2.0235    3.2262 H   0  0  0  0  0  0  0  0  0  0  0  0
    9.5998    1.3921    1.2367 O   0  0  0  0  0  0  0  0  0  0  0  0
    9.4185    0.8651    2.3141 C   0  0  0  0  0  0  0  0  0  0  0  0
   10.0396    1.2717    3.4473 O   0  0  0  0  0  0  0  0  0  0  0  0
    8.4962   -0.2974    2.5735 C   0  0  0  0  0  0  0  0  0  0  0  0
    8.0236   -0.6053    1.6371 H   0  0  0  0  0  0  0  0  0  0  0  0
    9.0623   -1.1333    3.0060 H   0  0  0  0  0  0  0  0  0  0  0  0
    7.7306   -0.0074    3.3059 H   0  0  0  0  0  0  0  0  0  0  0  0
  1  6  2  0  0  0  0
  2  3  2  0  0  0  0
  2  1  1  0  0  0  0
  3  4  1  0  0  0  0
  4  5  2  0  0  0  0
  5 12  1  0  0  0  0
  6 11  1  0  0  0  0
  6  5  1  0  0  0  0
  7  1  1  0  0  0  0
  8  2  1  0  0  0  0
 10  9  3  0  0  0  0
 13 16  1  0  0  0  0
 14 15  2  0  0  0  0
 15 17  1  0  0  0  0
 15 16  1  0  0  0  0
 17 19  1  0  0  0  0
 17 20  1  0  0  0  0
 18 17  1  0  0  0  0
M  RAD  2   3   2   4   2
M  END
