Coordinates from ORCA-job Ph-N2-OOCCH3-B3LYPG-aug-cc-pVDZ-scan-d09-49-n400
 OpenBabel10311713213D

 20 18  0  0  0  0  0  0  0  0999 V2000
   13.4284    6.0560    2.4203 C   0  0  0  0  0  0  0  0  0  0  0  0
   12.6704    5.2785    1.5090 C   0  0  0  0  0  0  0  0  0  0  0  0
   12.0919    4.2434    2.2101 C   0  0  0  0  0  0  0  0  0  0  0  0
   12.1251    3.9167    3.4205 C   0  0  0  0  0  0  0  0  0  0  0  0
   12.8538    4.6405    4.3695 C   0  0  0  0  0  0  0  0  0  0  0  0
   13.5151    5.7478    3.7930 C   0  0  0  0  0  0  0  0  0  0  0  0
   13.9636    6.9265    2.0360 H   0  0  0  0  0  0  0  0  0  0  0  0
   12.5913    5.5010    0.4481 H   0  0  0  0  0  0  0  0  0  0  0  0
   10.4155    3.1505   -1.7296 N   0  0  0  0  0  0  0  0  0  0  0  0
   10.0905    2.2709   -2.3123 N   0  0  0  0  0  0  0  0  0  0  0  0
   14.1169    6.3914    4.4374 H   0  0  0  0  0  0  0  0  0  0  0  0
   12.9246    4.4104    5.4313 H   0  0  0  0  0  0  0  0  0  0  0  0
   10.6174    2.0377    3.1809 H   0  0  0  0  0  0  0  0  0  0  0  0
    9.5932    1.3221    1.2173 O   0  0  0  0  0  0  0  0  0  0  0  0
    9.4175    0.8379    2.3154 C   0  0  0  0  0  0  0  0  0  0  0  0
   10.0429    1.2885    3.4294 O   0  0  0  0  0  0  0  0  0  0  0  0
    8.4992   -0.3159    2.6242 C   0  0  0  0  0  0  0  0  0  0  0  0
    8.0188   -0.6575    1.7035 H   0  0  0  0  0  0  0  0  0  0  0  0
    9.0710   -1.1352    3.0802 H   0  0  0  0  0  0  0  0  0  0  0  0
    7.7401   -0.0017    3.3532 H   0  0  0  0  0  0  0  0  0  0  0  0
  1  6  2  0  0  0  0
  2  3  2  0  0  0  0
  2  1  1  0  0  0  0
  3  4  1  0  0  0  0
  4  5  2  0  0  0  0
  5 12  1  0  0  0  0
  6  5  1  0  0  0  0
  6 11  1  0  0  0  0
  7  1  1  0  0  0  0
  8  2  1  0  0  0  0
 10  9  3  0  0  0  0
 13 16  1  0  0  0  0
 14 15  2  0  0  0  0
 15 17  1  0  0  0  0
 15 16  1  0  0  0  0
 17 19  1  0  0  0  0
 17 20  1  0  0  0  0
 18 17  1  0  0  0  0
M  RAD  2   3   2   4   2
M  END
