Coordinates from ORCA-job Ph-N2-OOCCH3-B3LYPG-aug-cc-pVDZ-scan-d09-49-n400
 OpenBabel11081710403D

 20 19  0  0  0  0  0  0  0  0999 V2000
   12.9796    5.9759    2.2009 C   0  0  0  0  0  0  0  0  0  0  0  0
   12.5091    5.1632    1.1787 C   0  0  0  0  0  0  0  0  0  0  0  0
   11.9381    3.8964    1.4798 C   0  0  0  0  0  0  0  0  0  0  0  0
   11.9070    3.4451    2.8287 C   0  0  0  0  0  0  0  0  0  0  0  0
   12.4175    4.2621    3.8311 C   0  0  0  0  0  0  0  0  0  0  0  0
   12.9389    5.5255    3.5277 C   0  0  0  0  0  0  0  0  0  0  0  0
   13.3927    6.9564    1.9666 H   0  0  0  0  0  0  0  0  0  0  0  0
   12.5413    5.4884    0.1390 H   0  0  0  0  0  0  0  0  0  0  0  0
   11.5093    3.2037    0.5706 N   0  0  0  0  0  0  0  0  0  0  0  0
   10.7952    2.3983    0.1441 N   0  0  0  0  0  0  0  0  0  0  0  0
   13.3278    6.1581    4.3261 H   0  0  0  0  0  0  0  0  0  0  0  0
   12.4096    3.9088    4.8620 H   0  0  0  0  0  0  0  0  0  0  0  0
   11.5344    2.4415    3.0298 H   0  0  0  0  0  0  0  0  0  0  0  0
    9.4025    1.9267    1.4096 O   0  0  0  0  0  0  0  0  0  0  0  0
    9.7574    0.8710    2.0819 C   0  0  0  0  0  0  0  0  0  0  0  0
   10.9262    0.4923    2.2386 O   0  0  0  0  0  0  0  0  0  0  0  0
    8.5894    0.0995    2.6850 C   0  0  0  0  0  0  0  0  0  0  0  0
    7.7755    0.7736    2.9775 H   0  0  0  0  0  0  0  0  0  0  0  0
    8.1999   -0.5866    1.9189 H   0  0  0  0  0  0  0  0  0  0  0  0
    8.9360   -0.4902    3.5408 H   0  0  0  0  0  0  0  0  0  0  0  0
  1  6  2  0  0  0  0
  2  3  2  0  0  0  0
  2  1  1  0  0  0  0
  3  4  1  0  0  0  0
  4 13  1  0  0  0  0
  4  5  2  0  0  0  0
  5 12  1  0  0  0  0
  6  5  1  0  0  0  0
  6 11  1  0  0  0  0
  7  1  1  0  0  0  0
  8  2  1  0  0  0  0
  9  3  1  0  0  0  0
 10  9  2  0  0  0  0
 14 15  2  0  0  0  0
 15 16  1  0  0  0  0
 15 17  1  0  0  0  0
 17 18  1  0  0  0  0
 17 20  1  0  0  0  0
 19 17  1  0  0  0  0
M  RAD  2  10   2  16   2
M  END
