Coordinates from ORCA-job Ph-N2-OOCCH3-B3LYPG-aug-cc-pVDZ-scan-d09-49-n400
 OpenBabel10311713213D

 20 18  0  0  0  0  0  0  0  0999 V2000
   13.4254    6.0812    2.4032 C   0  0  0  0  0  0  0  0  0  0  0  0
   12.7502    5.4525    1.3259 C   0  0  0  0  0  0  0  0  0  0  0  0
   12.0945    4.3557    1.8310 C   0  0  0  0  0  0  0  0  0  0  0  0
   11.9882    3.8468    2.9745 C   0  0  0  0  0  0  0  0  0  0  0  0
   12.6387    4.4324    4.0716 C   0  0  0  0  0  0  0  0  0  0  0  0
   13.3697    5.5880    3.7219 C   0  0  0  0  0  0  0  0  0  0  0  0
   14.0073    6.9806    2.1926 H   0  0  0  0  0  0  0  0  0  0  0  0
   12.7768    5.8134    0.3015 H   0  0  0  0  0  0  0  0  0  0  0  0
   10.8068    3.4321   -1.3307 N   0  0  0  0  0  0  0  0  0  0  0  0
   10.4418    2.5963   -1.9531 N   0  0  0  0  0  0  0  0  0  0  0  0
   13.9133    6.1215    4.5039 H   0  0  0  0  0  0  0  0  0  0  0  0
   12.6024    4.0605    5.0947 H   0  0  0  0  0  0  0  0  0  0  0  0
   10.6688    2.0337    3.0285 H   0  0  0  0  0  0  0  0  0  0  0  0
    9.4349    1.2014    1.2330 O   0  0  0  0  0  0  0  0  0  0  0  0
    9.3796    0.7889    2.3721 C   0  0  0  0  0  0  0  0  0  0  0  0
   10.1206    1.3035    3.3817 O   0  0  0  0  0  0  0  0  0  0  0  0
    8.5006   -0.3383    2.8497 C   0  0  0  0  0  0  0  0  0  0  0  0
    7.9211   -0.7309    2.0099 H   0  0  0  0  0  0  0  0  0  0  0  0
    9.1195   -1.1330    3.2875 H   0  0  0  0  0  0  0  0  0  0  0  0
    7.8271    0.0235    3.6383 H   0  0  0  0  0  0  0  0  0  0  0  0
  1  6  2  0  0  0  0
  2  3  2  0  0  0  0
  2  1  1  0  0  0  0
  3  4  1  0  0  0  0
  4  5  2  0  0  0  0
  5 12  1  0  0  0  0
  6  5  1  0  0  0  0
  6 11  1  0  0  0  0
  7  1  1  0  0  0  0
  8  2  1  0  0  0  0
 10  9  3  0  0  0  0
 13 16  1  0  0  0  0
 14 15  2  0  0  0  0
 15 17  1  0  0  0  0
 15 16  1  0  0  0  0
 17 19  1  0  0  0  0
 17 20  1  0  0  0  0
 18 17  1  0  0  0  0
M  RAD  2   3   2   4   2
M  END
