Coordinates from ORCA-job Ph-N2-OOCCH3-B3LYPG-aug-cc-pVDZ-scan-d09-49-n400
 OpenBabel10311713213D

 20 18  0  0  0  0  0  0  0  0999 V2000
   13.4515    6.0735    2.4256 C   0  0  0  0  0  0  0  0  0  0  0  0
   12.7326    5.3820    1.4179 C   0  0  0  0  0  0  0  0  0  0  0  0
   12.0915    4.3180    2.0103 C   0  0  0  0  0  0  0  0  0  0  0  0
   12.0401    3.8967    3.1914 C   0  0  0  0  0  0  0  0  0  0  0  0
   12.7293    4.5380    4.2277 C   0  0  0  0  0  0  0  0  0  0  0  0
   13.4481    5.6658    3.7744 C   0  0  0  0  0  0  0  0  0  0  0  0
   14.0269    6.9551    2.1363 H   0  0  0  0  0  0  0  0  0  0  0  0
   12.7213    5.6807    0.3730 H   0  0  0  0  0  0  0  0  0  0  0  0
   10.6171    3.3680   -1.6933 N   0  0  0  0  0  0  0  0  0  0  0  0
   10.2773    2.5348   -2.3331 N   0  0  0  0  0  0  0  0  0  0  0  0
   14.0240    6.2454    4.4984 H   0  0  0  0  0  0  0  0  0  0  0  0
   12.7320    4.2310    5.2724 H   0  0  0  0  0  0  0  0  0  0  0  0
   10.6196    2.0383    3.0759 H   0  0  0  0  0  0  0  0  0  0  0  0
    9.4961    1.1760    1.2236 O   0  0  0  0  0  0  0  0  0  0  0  0
    9.3836    0.7734    2.3620 C   0  0  0  0  0  0  0  0  0  0  0  0
   10.0615    1.3073    3.4060 O   0  0  0  0  0  0  0  0  0  0  0  0
    8.4946   -0.3610    2.8023 C   0  0  0  0  0  0  0  0  0  0  0  0
    7.9667   -0.7691    1.9362 H   0  0  0  0  0  0  0  0  0  0  0  0
    9.0990   -1.1432    3.2809 H   0  0  0  0  0  0  0  0  0  0  0  0
    7.7747   -0.0010    3.5496 H   0  0  0  0  0  0  0  0  0  0  0  0
  1  6  2  0  0  0  0
  2  3  2  0  0  0  0
  2  1  1  0  0  0  0
  3  4  1  0  0  0  0
  4  5  2  0  0  0  0
  5 12  1  0  0  0  0
  6  5  1  0  0  0  0
  6 11  1  0  0  0  0
  7  1  1  0  0  0  0
  8  2  1  0  0  0  0
 10  9  3  0  0  0  0
 13 16  1  0  0  0  0
 14 15  2  0  0  0  0
 15 17  1  0  0  0  0
 15 16  1  0  0  0  0
 17 19  1  0  0  0  0
 17 20  1  0  0  0  0
 18 17  1  0  0  0  0
M  RAD  2   3   2   4   2
M  END
