Coordinates from ORCA-job Ph-N2-OOCCH3-B3LYPG-aug-cc-pVDZ-scan-d09-49-n400
 OpenBabel10311713213D

 20 18  0  0  0  0  0  0  0  0999 V2000
   13.4027    6.0350    2.4267 C   0  0  0  0  0  0  0  0  0  0  0  0
   12.6239    5.2047    1.5828 C   0  0  0  0  0  0  0  0  0  0  0  0
   12.0896    4.1897    2.3482 C   0  0  0  0  0  0  0  0  0  0  0  0
   12.1827    3.9264    3.5705 C   0  0  0  0  0  0  0  0  0  0  0  0
   12.9324    4.7004    4.4597 C   0  0  0  0  0  0  0  0  0  0  0  0
   13.5495    5.7911    3.8073 C   0  0  0  0  0  0  0  0  0  0  0  0
   13.9063    6.8962    1.9832 H   0  0  0  0  0  0  0  0  0  0  0  0
   12.4993    5.3790    0.5171 H   0  0  0  0  0  0  0  0  0  0  0  0
   10.3356    3.1395   -1.9722 N   0  0  0  0  0  0  0  0  0  0  0  0
   10.0766    2.2193   -2.5245 N   0  0  0  0  0  0  0  0  0  0  0  0
   14.1645    6.4732    4.3975 H   0  0  0  0  0  0  0  0  0  0  0  0
   13.0490    4.5193    5.5269 H   0  0  0  0  0  0  0  0  0  0  0  0
   10.6192    2.0242    3.2104 H   0  0  0  0  0  0  0  0  0  0  0  0
    9.5979    1.3607    1.2295 O   0  0  0  0  0  0  0  0  0  0  0  0
    9.4173    0.8508    2.3150 C   0  0  0  0  0  0  0  0  0  0  0  0
   10.0424    1.2719    3.4405 O   0  0  0  0  0  0  0  0  0  0  0  0
    8.4930   -0.3058    2.5941 C   0  0  0  0  0  0  0  0  0  0  0  0
    8.0196   -0.6283    1.6629 H   0  0  0  0  0  0  0  0  0  0  0  0
    9.0577   -1.1354    3.0401 H   0  0  0  0  0  0  0  0  0  0  0  0
    7.7282   -0.0023    3.3218 H   0  0  0  0  0  0  0  0  0  0  0  0
  1  6  2  0  0  0  0
  2  3  2  0  0  0  0
  2  1  1  0  0  0  0
  3  4  1  0  0  0  0
  4  5  2  0  0  0  0
  5 12  1  0  0  0  0
  6 11  1  0  0  0  0
  6  5  1  0  0  0  0
  7  1  1  0  0  0  0
  8  2  1  0  0  0  0
 10  9  3  0  0  0  0
 13 16  1  0  0  0  0
 14 15  2  0  0  0  0
 15 17  1  0  0  0  0
 15 16  1  0  0  0  0
 17 19  1  0  0  0  0
 17 20  1  0  0  0  0
 18 17  1  0  0  0  0
M  RAD  2   3   2   4   2
M  END
