Coordinates from ORCA-job Ph-N2-OOCCH3-B3LYPG-aug-cc-pVDZ-scan-d09-49-n400
 OpenBabel10311713213D

 20 18  0  0  0  0  0  0  0  0999 V2000
   13.4418    6.0798    2.4149 C   0  0  0  0  0  0  0  0  0  0  0  0
   12.7479    5.4320    1.3612 C   0  0  0  0  0  0  0  0  0  0  0  0
   12.0916    4.3480    1.8955 C   0  0  0  0  0  0  0  0  0  0  0  0
   12.0028    3.8709    3.0538 C   0  0  0  0  0  0  0  0  0  0  0  0
   12.6693    4.4728    4.1303 C   0  0  0  0  0  0  0  0  0  0  0  0
   13.4020    5.6162    3.7446 C   0  0  0  0  0  0  0  0  0  0  0  0
   14.0257    6.9709    2.1768 H   0  0  0  0  0  0  0  0  0  0  0  0
   12.7636    5.7726    0.3295 H   0  0  0  0  0  0  0  0  0  0  0  0
   10.7195    3.3972   -1.4705 N   0  0  0  0  0  0  0  0  0  0  0  0
   10.3673    2.5575   -2.0947 N   0  0  0  0  0  0  0  0  0  0  0  0
   13.9595    6.1634    4.5071 H   0  0  0  0  0  0  0  0  0  0  0  0
   12.6448    4.1232    5.1614 H   0  0  0  0  0  0  0  0  0  0  0  0
   10.6457    2.0420    3.0470 H   0  0  0  0  0  0  0  0  0  0  0  0
    9.4605    1.1904    1.2274 O   0  0  0  0  0  0  0  0  0  0  0  0
    9.3819    0.7839    2.3666 C   0  0  0  0  0  0  0  0  0  0  0  0
   10.0948    1.3099    3.3901 O   0  0  0  0  0  0  0  0  0  0  0  0
    8.5012   -0.3481    2.8300 C   0  0  0  0  0  0  0  0  0  0  0  0
    7.9450   -0.7503    1.9791 H   0  0  0  0  0  0  0  0  0  0  0  0
    9.1162   -1.1350    3.2869 H   0  0  0  0  0  0  0  0  0  0  0  0
    7.8063    0.0124    3.6004 H   0  0  0  0  0  0  0  0  0  0  0  0
  1  6  2  0  0  0  0
  2  3  2  0  0  0  0
  2  1  1  0  0  0  0
  3  4  1  0  0  0  0
  4  5  2  0  0  0  0
  5 12  1  0  0  0  0
  6  5  1  0  0  0  0
  6 11  1  0  0  0  0
  7  1  1  0  0  0  0
  8  2  1  0  0  0  0
 10  9  3  0  0  0  0
 13 16  1  0  0  0  0
 14 15  2  0  0  0  0
 15 17  1  0  0  0  0
 15 16  1  0  0  0  0
 17 19  1  0  0  0  0
 17 20  1  0  0  0  0
 18 17  1  0  0  0  0
M  RAD  2   3   2   4   2
M  END
