Coordinates from ORCA-job Ph-N2-OOCCH3-B3LYPG-aug-cc-pVDZ-scan-d09-49-n400
 OpenBabel11081710403D

 20 20  0  0  0  0  0  0  0  0999 V2000
   12.5902    5.9790    2.2779 C   0  0  0  0  0  0  0  0  0  0  0  0
   12.3010    5.1276    1.2092 C   0  0  0  0  0  0  0  0  0  0  0  0
   12.0767    3.7779    1.4806 C   0  0  0  0  0  0  0  0  0  0  0  0
   12.1916    3.2325    2.7605 C   0  0  0  0  0  0  0  0  0  0  0  0
   12.5082    4.0975    3.8104 C   0  0  0  0  0  0  0  0  0  0  0  0
   12.6955    5.4646    3.5748 C   0  0  0  0  0  0  0  0  0  0  0  0
   12.7470    7.0415    2.0937 H   0  0  0  0  0  0  0  0  0  0  0  0
   12.2367    5.4982    0.1874 H   0  0  0  0  0  0  0  0  0  0  0  0
   11.8249    2.8977    0.3286 N   0  0  0  0  0  0  0  0  0  0  0  0
   11.0303    2.0501    0.1441 N   0  0  0  0  0  0  0  0  0  0  0  0
   12.9370    6.1299    4.4039 H   0  0  0  0  0  0  0  0  0  0  0  0
   12.6096    3.6976    4.8192 H   0  0  0  0  0  0  0  0  0  0  0  0
   12.0562    2.1635    2.9154 H   0  0  0  0  0  0  0  0  0  0  0  0
    9.7998    1.9860    1.3511 O   0  0  0  0  0  0  0  0  0  0  0  0
    9.8902    0.8581    2.0437 C   0  0  0  0  0  0  0  0  0  0  0  0
   10.9069    0.1822    2.1257 O   0  0  0  0  0  0  0  0  0  0  0  0
    8.5889    0.5021    2.7383 C   0  0  0  0  0  0  0  0  0  0  0  0
    8.0912    1.3977    3.1295 H   0  0  0  0  0  0  0  0  0  0  0  0
    7.9165    0.0398    2.0017 H   0  0  0  0  0  0  0  0  0  0  0  0
    8.7890   -0.2140    3.5417 H   0  0  0  0  0  0  0  0  0  0  0  0
  1  6  2  0  0  0  0
  2  3  2  0  0  0  0
  2  1  1  0  0  0  0
  3  4  1  0  0  0  0
  4 13  1  0  0  0  0
  4  5  2  0  0  0  0
  5 12  1  0  0  0  0
  6  5  1  0  0  0  0
  6 11  1  0  0  0  0
  7  1  1  0  0  0  0
  8  2  1  0  0  0  0
  9  3  1  0  0  0  0
 10  9  1  0  0  0  0
 10 14  1  0  0  0  0
 14 15  1  0  0  0  0
 15 16  2  0  0  0  0
 15 17  1  0  0  0  0
 17 18  1  0  0  0  0
 17 20  1  0  0  0  0
 19 17  1  0  0  0  0
M  RAD  2   9   2  10   2
M  END
