Coordinates from ORCA-job Ph-N2-OOCCH3-B3LYPG-aug-cc-pVDZ-scan-d09-49-n400
 OpenBabel10311713213D

 20 18  0  0  0  0  0  0  0  0999 V2000
   13.4396    6.0802    2.4139 C   0  0  0  0  0  0  0  0  0  0  0  0
   12.7509    5.4397    1.3523 C   0  0  0  0  0  0  0  0  0  0  0  0
   12.0929    4.3530    1.8775 C   0  0  0  0  0  0  0  0  0  0  0  0
   11.9974    3.8655    3.0308 C   0  0  0  0  0  0  0  0  0  0  0  0
   12.6591    4.4613    4.1144 C   0  0  0  0  0  0  0  0  0  0  0  0
   13.3934    5.6073    3.7402 C   0  0  0  0  0  0  0  0  0  0  0  0
   14.0245    6.9731    2.1847 H   0  0  0  0  0  0  0  0  0  0  0  0
   12.7710    5.7864    0.3227 H   0  0  0  0  0  0  0  0  0  0  0  0
   10.7347    3.4017   -1.4380 N   0  0  0  0  0  0  0  0  0  0  0  0
   10.3798    2.5610   -2.0597 N   0  0  0  0  0  0  0  0  0  0  0  0
   13.9472    6.1494    4.5091 H   0  0  0  0  0  0  0  0  0  0  0  0
   12.6298    4.1046    5.1430 H   0  0  0  0  0  0  0  0  0  0  0  0
   10.6505    2.0430    3.0422 H   0  0  0  0  0  0  0  0  0  0  0  0
    9.4561    1.1934    1.2281 O   0  0  0  0  0  0  0  0  0  0  0  0
    9.3825    0.7864    2.3680 C   0  0  0  0  0  0  0  0  0  0  0  0
   10.1005    1.3117    3.3888 O   0  0  0  0  0  0  0  0  0  0  0  0
    8.5031   -0.3450    2.8351 C   0  0  0  0  0  0  0  0  0  0  0  0
    7.9425   -0.7464    1.9867 H   0  0  0  0  0  0  0  0  0  0  0  0
    9.1197   -1.1326    3.2887 H   0  0  0  0  0  0  0  0  0  0  0  0
    7.8122    0.0158    3.6090 H   0  0  0  0  0  0  0  0  0  0  0  0
  1  6  2  0  0  0  0
  2  3  2  0  0  0  0
  2  1  1  0  0  0  0
  3  4  1  0  0  0  0
  4  5  2  0  0  0  0
  5 12  1  0  0  0  0
  6  5  1  0  0  0  0
  6 11  1  0  0  0  0
  7  1  1  0  0  0  0
  8  2  1  0  0  0  0
 10  9  3  0  0  0  0
 13 16  1  0  0  0  0
 14 15  2  0  0  0  0
 15 17  1  0  0  0  0
 15 16  1  0  0  0  0
 17 19  1  0  0  0  0
 17 20  1  0  0  0  0
 18 17  1  0  0  0  0
M  RAD  2   3   2   4   2
M  END
