Coordinates from ORCA-job Ph-N2-OOCCH3-B3LYPG-aug-cc-pVDZ-scan-d09-49-n400
 OpenBabel10311713213D

 20 18  0  0  0  0  0  0  0  0999 V2000
   13.4041    6.0823    2.3896 C   0  0  0  0  0  0  0  0  0  0  0  0
   12.7484    5.4711    1.2904 C   0  0  0  0  0  0  0  0  0  0  0  0
   12.0972    4.3589    1.7645 C   0  0  0  0  0  0  0  0  0  0  0  0
   11.9767    3.8207    2.8936 C   0  0  0  0  0  0  0  0  0  0  0  0
   12.6097    4.3909    4.0101 C   0  0  0  0  0  0  0  0  0  0  0  0
   13.3354    5.5598    3.6962 C   0  0  0  0  0  0  0  0  0  0  0  0
   13.9808    6.9910    2.2059 H   0  0  0  0  0  0  0  0  0  0  0  0
   12.7846    5.8535    0.2742 H   0  0  0  0  0  0  0  0  0  0  0  0
   10.9097    3.4737   -1.1800 N   0  0  0  0  0  0  0  0  0  0  0  0
   10.5306    2.6423   -1.7998 N   0  0  0  0  0  0  0  0  0  0  0  0
   13.8638    6.0806    4.4970 H   0  0  0  0  0  0  0  0  0  0  0  0
   12.5633    3.9970    5.0247 H   0  0  0  0  0  0  0  0  0  0  0  0
   10.6973    2.0198    3.0030 H   0  0  0  0  0  0  0  0  0  0  0  0
    9.4017    1.2127    1.2386 O   0  0  0  0  0  0  0  0  0  0  0  0
    9.3754    0.7931    2.3762 C   0  0  0  0  0  0  0  0  0  0  0  0
   10.1518    1.2917    3.3667 O   0  0  0  0  0  0  0  0  0  0  0  0
    8.4973   -0.3272    2.8718 C   0  0  0  0  0  0  0  0  0  0  0  0
    7.8891   -0.7073    2.0467 H   0  0  0  0  0  0  0  0  0  0  0  0
    9.1192   -1.1320    3.2862 H   0  0  0  0  0  0  0  0  0  0  0  0
    7.8513    0.0371    3.6820 H   0  0  0  0  0  0  0  0  0  0  0  0
  1  6  2  0  0  0  0
  2  3  2  0  0  0  0
  2  1  1  0  0  0  0
  3  4  1  0  0  0  0
  4  5  2  0  0  0  0
  5 12  1  0  0  0  0
  6  5  1  0  0  0  0
  6 11  1  0  0  0  0
  7  1  1  0  0  0  0
  8  2  1  0  0  0  0
 10  9  3  0  0  0  0
 13 16  1  0  0  0  0
 14 15  2  0  0  0  0
 15 17  1  0  0  0  0
 15 16  1  0  0  0  0
 17 19  1  0  0  0  0
 17 20  1  0  0  0  0
 18 17  1  0  0  0  0
M  RAD  2   3   2   4   2
M  END
