Coordinates from ORCA-job Ph-N2-OOCCH3-B3LYPG-aug-cc-pVDZ-scan-d09-49-n400
 OpenBabel11081710403D

 20 20  0  0  0  0  0  0  0  0999 V2000
   12.4734    5.9571    2.3033 C   0  0  0  0  0  0  0  0  0  0  0  0
   12.2255    5.0997    1.2264 C   0  0  0  0  0  0  0  0  0  0  0  0
   12.1122    3.7419    1.4963 C   0  0  0  0  0  0  0  0  0  0  0  0
   12.2876    3.1816    2.7565 C   0  0  0  0  0  0  0  0  0  0  0  0
   12.5548    4.0570    3.8139 C   0  0  0  0  0  0  0  0  0  0  0  0
   12.6390    5.4365    3.5913 C   0  0  0  0  0  0  0  0  0  0  0  0
   12.5486    7.0306    2.1307 H   0  0  0  0  0  0  0  0  0  0  0  0
   12.1147    5.4753    0.2107 H   0  0  0  0  0  0  0  0  0  0  0  0
   11.9102    2.7975    0.2690 N   0  0  0  0  0  0  0  0  0  0  0  0
   11.0873    1.9671    0.1163 N   0  0  0  0  0  0  0  0  0  0  0  0
   12.8449    6.1083    4.4247 H   0  0  0  0  0  0  0  0  0  0  0  0
   12.6984    3.6547    4.8167 H   0  0  0  0  0  0  0  0  0  0  0  0
   12.2218    2.1044    2.9002 H   0  0  0  0  0  0  0  0  0  0  0  0
    9.8682    1.9854    1.2898 O   0  0  0  0  0  0  0  0  0  0  0  0
    9.9095    0.8780    2.0287 C   0  0  0  0  0  0  0  0  0  0  0  0
   10.8912    0.1590    2.1304 O   0  0  0  0  0  0  0  0  0  0  0  0
    8.5952    0.6211    2.7399 C   0  0  0  0  0  0  0  0  0  0  0  0
    8.1575    1.5559    3.1106 H   0  0  0  0  0  0  0  0  0  0  0  0
    7.8887    0.1825    2.0210 H   0  0  0  0  0  0  0  0  0  0  0  0
    8.7587   -0.0839    3.5611 H   0  0  0  0  0  0  0  0  0  0  0  0
  1  6  2  0  0  0  0
  2  3  2  0  0  0  0
  2  1  1  0  0  0  0
  3  4  1  0  0  0  0
  4 13  1  0  0  0  0
  4  5  2  0  0  0  0
  5 12  1  0  0  0  0
  6  5  1  0  0  0  0
  6 11  1  0  0  0  0
  7  1  1  0  0  0  0
  8  2  1  0  0  0  0
  9  3  1  0  0  0  0
 10  9  1  0  0  0  0
 10 14  1  0  0  0  0
 14 15  1  0  0  0  0
 15 16  2  0  0  0  0
 15 17  1  0  0  0  0
 17 18  1  0  0  0  0
 17 20  1  0  0  0  0
 19 17  1  0  0  0  0
M  RAD  2   9   2  10   2
M  END
