Coordinates from ORCA-job Ph-N2-OOCCH3-B3LYPG-aug-cc-pVDZ-scan-d09-49-n400
 OpenBabel10311713213D

 20 18  0  0  0  0  0  0  0  0999 V2000
   13.2838    6.0478    2.3155 C   0  0  0  0  0  0  0  0  0  0  0  0
   12.7259    5.4974    1.1443 C   0  0  0  0  0  0  0  0  0  0  0  0
   12.0868    4.3246    1.4586 C   0  0  0  0  0  0  0  0  0  0  0  0
   11.8718    3.6242    2.5126 C   0  0  0  0  0  0  0  0  0  0  0  0
   12.4415    4.1905    3.6834 C   0  0  0  0  0  0  0  0  0  0  0  0
   13.1410    5.4018    3.5579 C   0  0  0  0  0  0  0  0  0  0  0  0
   13.8311    6.9886    2.2452 H   0  0  0  0  0  0  0  0  0  0  0  0
   12.8060    5.9541    0.1608 H   0  0  0  0  0  0  0  0  0  0  0  0
   11.3317    3.5815   -0.2646 N   0  0  0  0  0  0  0  0  0  0  0  0
   10.8190    2.7523   -0.7874 N   0  0  0  0  0  0  0  0  0  0  0  0
   13.5857    5.8572    4.4447 H   0  0  0  0  0  0  0  0  0  0  0  0
   12.3440    3.7097    4.6584 H   0  0  0  0  0  0  0  0  0  0  0  0
   10.8978    2.0292    2.8629 H   0  0  0  0  0  0  0  0  0  0  0  0
    9.2694    1.4167    1.2717 O   0  0  0  0  0  0  0  0  0  0  0  0
    9.4178    0.9005    2.3644 C   0  0  0  0  0  0  0  0  0  0  0  0
   10.3730    1.2629    3.2343 O   0  0  0  0  0  0  0  0  0  0  0  0
    8.5480   -0.2068    2.9088 C   0  0  0  0  0  0  0  0  0  0  0  0
    7.8399   -0.5294    2.1407 H   0  0  0  0  0  0  0  0  0  0  0  0
    9.1711   -1.0499    3.2347 H   0  0  0  0  0  0  0  0  0  0  0  0
    8.0022    0.1567    3.7906 H   0  0  0  0  0  0  0  0  0  0  0  0
  1  6  2  0  0  0  0
  2  3  2  0  0  0  0
  2  1  1  0  0  0  0
  3  4  1  0  0  0  0
  4  5  2  0  0  0  0
  5 12  1  0  0  0  0
  6  5  1  0  0  0  0
  6 11  1  0  0  0  0
  7  1  1  0  0  0  0
  8  2  1  0  0  0  0
 10  9  3  0  0  0  0
 13 16  1  0  0  0  0
 14 15  2  0  0  0  0
 15 17  1  0  0  0  0
 15 16  1  0  0  0  0
 17 19  1  0  0  0  0
 17 20  1  0  0  0  0
 18 17  1  0  0  0  0
M  RAD  2   3   2   4   2
M  END
