Coordinates from ORCA-job Ph-N2-OOCCH3-B3LYPG-aug-cc-pVDZ-scan-d09-49-n400
 OpenBabel11081710403D

 20 19  0  0  0  0  0  0  0  0999 V2000
   12.2269    5.8571    2.3237 C   0  0  0  0  0  0  0  0  0  0  0  0
   11.9327    4.9172    1.3563 C   0  0  0  0  0  0  0  0  0  0  0  0
   12.2167    3.5111    1.5755 C   0  0  0  0  0  0  0  0  0  0  0  0
   12.7950    3.1533    2.8583 C   0  0  0  0  0  0  0  0  0  0  0  0
   13.0724    4.1296    3.7979 C   0  0  0  0  0  0  0  0  0  0  0  0
   12.8003    5.4795    3.5470 C   0  0  0  0  0  0  0  0  0  0  0  0
   12.0015    6.9044    2.1232 H   0  0  0  0  0  0  0  0  0  0  0  0
   11.4801    5.1893    0.4036 H   0  0  0  0  0  0  0  0  0  0  0  0
   11.9881    2.7811    0.8557 N   0  0  0  0  0  0  0  0  0  0  0  0
   11.6285    1.9758    0.1241 N   0  0  0  0  0  0  0  0  0  0  0  0
   13.0269    6.2336    4.2997 H   0  0  0  0  0  0  0  0  0  0  0  0
   13.5011    3.8250    4.7524 H   0  0  0  0  0  0  0  0  0  0  0  0
   12.9568    2.0950    3.0417 H   0  0  0  0  0  0  0  0  0  0  0  0
    9.5661    1.5668    0.7581 O   0  0  0  0  0  0  0  0  0  0  0  0
    9.6274    1.1769    1.9801 C   0  0  0  0  0  0  0  0  0  0  0  0
   10.6241    1.2638    2.7294 O   0  0  0  0  0  0  0  0  0  0  0  0
    8.3264    0.5681    2.5130 C   0  0  0  0  0  0  0  0  0  0  0  0
    7.5371    1.3325    2.5139 H   0  0  0  0  0  0  0  0  0  0  0  0
    7.9975   -0.2450    1.8530 H   0  0  0  0  0  0  0  0  0  0  0  0
    8.4819    0.1946    3.5310 H   0  0  0  0  0  0  0  0  0  0  0  0
  1  6  2  0  0  0  0
  2  3  2  0  0  0  0
  2  1  1  0  0  0  0
  3  4  1  0  0  0  0
  4 13  1  0  0  0  0
  4  5  2  0  0  0  0
  5 12  1  0  0  0  0
  6  5  1  0  0  0  0
  6 11  1  0  0  0  0
  7  1  1  0  0  0  0
  8  2  1  0  0  0  0
  9  3  1  0  0  0  0
 10  9  1  0  0  0  0
 14 15  2  0  0  0  0
 15 17  1  0  0  0  0
 15 16  1  0  0  0  0
 17 18  1  0  0  0  0
 17 20  1  0  0  0  0
 19 17  1  0  0  0  0
M  RAD  3   9   2  10   3  16   2
M  END
