Coordinates from ORCA-job Ph-N2-OOCCH3-B3LYPG-aug-cc-pVDZ-scan-d09-49-n400
 OpenBabel10311713213D

 20 18  0  0  0  0  0  0  0  0999 V2000
   13.4068    6.0821    2.3912 C   0  0  0  0  0  0  0  0  0  0  0  0
   12.7486    5.4687    1.2947 C   0  0  0  0  0  0  0  0  0  0  0  0
   12.0967    4.3585    1.7729 C   0  0  0  0  0  0  0  0  0  0  0  0
   11.9778    3.8238    2.9038 C   0  0  0  0  0  0  0  0  0  0  0  0
   12.6132    4.3960    4.0178 C   0  0  0  0  0  0  0  0  0  0  0  0
   13.3397    5.5632    3.6994 C   0  0  0  0  0  0  0  0  0  0  0  0
   13.9842    6.9895    2.2041 H   0  0  0  0  0  0  0  0  0  0  0  0
   12.7835    5.8483    0.2774 H   0  0  0  0  0  0  0  0  0  0  0  0
   10.8969    3.4687   -1.1989 N   0  0  0  0  0  0  0  0  0  0  0  0
   10.5196    2.6368   -1.8192 N   0  0  0  0  0  0  0  0  0  0  0  0
   13.8701    6.0856    4.4978 H   0  0  0  0  0  0  0  0  0  0  0  0
   12.5681    4.0049    5.0335 H   0  0  0  0  0  0  0  0  0  0  0  0
   10.6936    2.0218    3.0066 H   0  0  0  0  0  0  0  0  0  0  0  0
    9.4060    1.2113    1.2379 O   0  0  0  0  0  0  0  0  0  0  0  0
    9.3760    0.7926    2.3757 C   0  0  0  0  0  0  0  0  0  0  0  0
   10.1477    1.2934    3.3689 O   0  0  0  0  0  0  0  0  0  0  0  0
    8.4978   -0.3286    2.8690 C   0  0  0  0  0  0  0  0  0  0  0  0
    7.8932   -0.7103    2.0420 H   0  0  0  0  0  0  0  0  0  0  0  0
    9.1195   -1.1322    3.2863 H   0  0  0  0  0  0  0  0  0  0  0  0
    7.8483    0.0352    3.6766 H   0  0  0  0  0  0  0  0  0  0  0  0
  1  6  2  0  0  0  0
  2  3  2  0  0  0  0
  2  1  1  0  0  0  0
  3  4  1  0  0  0  0
  4  5  2  0  0  0  0
  5 12  1  0  0  0  0
  6  5  1  0  0  0  0
  6 11  1  0  0  0  0
  7  1  1  0  0  0  0
  8  2  1  0  0  0  0
 10  9  3  0  0  0  0
 13 16  1  0  0  0  0
 14 15  2  0  0  0  0
 15 17  1  0  0  0  0
 15 16  1  0  0  0  0
 17 19  1  0  0  0  0
 17 20  1  0  0  0  0
 18 17  1  0  0  0  0
M  RAD  2   3   2   4   2
M  END
