Coordinates from ORCA-job Ph-N2-OOCCH3-B3LYPG-aug-cc-pVDZ-scan-d09-49-n400
 OpenBabel10311713213D

 20 19  0  0  0  0  0  0  0  0999 V2000
   12.5033    5.9675    2.3300 C   0  0  0  0  0  0  0  0  0  0  0  0
   12.2625    5.1334    1.2281 C   0  0  0  0  0  0  0  0  0  0  0  0
   12.1469    3.7916    1.5174 C   0  0  0  0  0  0  0  0  0  0  0  0
   12.2858    3.1741    2.7389 C   0  0  0  0  0  0  0  0  0  0  0  0
   12.5373    4.0390    3.8153 C   0  0  0  0  0  0  0  0  0  0  0  0
   12.6410    5.4201    3.6108 C   0  0  0  0  0  0  0  0  0  0  0  0
   12.5893    7.0434    2.1775 H   0  0  0  0  0  0  0  0  0  0  0  0
   12.1647    5.5190    0.2159 H   0  0  0  0  0  0  0  0  0  0  0  0
   11.9157    2.7264    0.1201 N   0  0  0  0  0  0  0  0  0  0  0  0
   11.0910    1.9259   -0.0223 N   0  0  0  0  0  0  0  0  0  0  0  0
   12.8371    6.0771    4.4582 H   0  0  0  0  0  0  0  0  0  0  0  0
   12.6518    3.6208    4.8154 H   0  0  0  0  0  0  0  0  0  0  0  0
   12.1837    2.0940    2.8510 H   0  0  0  0  0  0  0  0  0  0  0  0
    9.7588    1.9531    1.2200 O   0  0  0  0  0  0  0  0  0  0  0  0
    9.8880    0.9419    2.0502 C   0  0  0  0  0  0  0  0  0  0  0  0
   10.9321    0.3238    2.2463 O   0  0  0  0  0  0  0  0  0  0  0  0
    8.5903    0.6075    2.7716 C   0  0  0  0  0  0  0  0  0  0  0  0
    8.0455    1.5187    3.0468 H   0  0  0  0  0  0  0  0  0  0  0  0
    7.9524    0.0290    2.0885 H   0  0  0  0  0  0  0  0  0  0  0  0
    8.8104    0.0033    3.6578 H   0  0  0  0  0  0  0  0  0  0  0  0
  1  6  2  0  0  0  0
  2  3  2  0  0  0  0
  2  1  1  0  0  0  0
  3  4  1  0  0  0  0
  4 13  1  0  0  0  0
  4  5  2  0  0  0  0
  5 12  1  0  0  0  0
  6  5  1  0  0  0  0
  6 11  1  0  0  0  0
  7  1  1  0  0  0  0
  8  2  1  0  0  0  0
  9  3  1  0  0  0  0
 10  9  2  0  0  0  0
 14 15  2  0  0  0  0
 15 16  1  0  0  0  0
 15 17  1  0  0  0  0
 17 18  1  0  0  0  0
 17 20  1  0  0  0  0
 19 17  1  0  0  0  0
M  RAD  2  10   2  16   2
M  END
