Coordinates from ORCA-job Ph-N2-OOCCH3-B3LYPG-aug-cc-pVDZ-scan-d09-49-n400
 OpenBabel10311713213D

 20 18  0  0  0  0  0  0  0  0999 V2000
   13.4521    6.0733    2.4273 C   0  0  0  0  0  0  0  0  0  0  0  0
   12.7317    5.3779    1.4236 C   0  0  0  0  0  0  0  0  0  0  0  0
   12.0914    4.3140    2.0189 C   0  0  0  0  0  0  0  0  0  0  0  0
   12.0446    3.8993    3.2027 C   0  0  0  0  0  0  0  0  0  0  0  0
   12.7350    4.5437    4.2360 C   0  0  0  0  0  0  0  0  0  0  0  0
   13.4520    5.6703    3.7773 C   0  0  0  0  0  0  0  0  0  0  0  0
   14.0263    6.9542    2.1339 H   0  0  0  0  0  0  0  0  0  0  0  0
   12.7184    5.6736    0.3779 H   0  0  0  0  0  0  0  0  0  0  0  0
   10.6087    3.3663   -1.7153 N   0  0  0  0  0  0  0  0  0  0  0  0
   10.2703    2.5337   -2.3566 N   0  0  0  0  0  0  0  0  0  0  0  0
   14.0290    6.2528    4.4982 H   0  0  0  0  0  0  0  0  0  0  0  0
   12.7401    4.2400    5.2816 H   0  0  0  0  0  0  0  0  0  0  0  0
   10.6167    2.0380    3.0756 H   0  0  0  0  0  0  0  0  0  0  0  0
    9.4987    1.1738    1.2242 O   0  0  0  0  0  0  0  0  0  0  0  0
    9.3831    0.7718    2.3619 C   0  0  0  0  0  0  0  0  0  0  0  0
   10.0586    1.3074    3.4062 O   0  0  0  0  0  0  0  0  0  0  0  0
    8.4936   -0.3625    2.8012 C   0  0  0  0  0  0  0  0  0  0  0  0
    7.9678   -0.7715    1.9343 H   0  0  0  0  0  0  0  0  0  0  0  0
    9.0972   -1.1442    3.2817 H   0  0  0  0  0  0  0  0  0  0  0  0
    7.7719   -0.0022    3.5467 H   0  0  0  0  0  0  0  0  0  0  0  0
  1  6  2  0  0  0  0
  2  3  2  0  0  0  0
  2  1  1  0  0  0  0
  3  4  1  0  0  0  0
  4  5  2  0  0  0  0
  5 12  1  0  0  0  0
  6  5  1  0  0  0  0
  6 11  1  0  0  0  0
  7  1  1  0  0  0  0
  8  2  1  0  0  0  0
 10  9  3  0  0  0  0
 13 16  1  0  0  0  0
 14 15  2  0  0  0  0
 15 17  1  0  0  0  0
 15 16  1  0  0  0  0
 17 19  1  0  0  0  0
 17 20  1  0  0  0  0
 18 17  1  0  0  0  0
M  RAD  2   3   2   4   2
M  END
