Coordinates from ORCA-job Ph-N2-OOCCH3-B3LYPG-aug-cc-pVDZ-scan-d09-49-n400
 OpenBabel10311713213D

 20 20  0  0  0  0  0  0  0  0999 V2000
   12.4209    5.9433    2.3240 C   0  0  0  0  0  0  0  0  0  0  0  0
   12.1952    5.0894    1.2370 C   0  0  0  0  0  0  0  0  0  0  0  0
   12.1344    3.7342    1.5103 C   0  0  0  0  0  0  0  0  0  0  0  0
   12.3294    3.1550    2.7523 C   0  0  0  0  0  0  0  0  0  0  0  0
   12.5676    4.0317    3.8183 C   0  0  0  0  0  0  0  0  0  0  0  0
   12.6075    5.4149    3.6061 C   0  0  0  0  0  0  0  0  0  0  0  0
   12.4596    7.0204    2.1621 H   0  0  0  0  0  0  0  0  0  0  0  0
   12.0653    5.4683    0.2252 H   0  0  0  0  0  0  0  0  0  0  0  0
   11.9517    2.7268    0.2012 N   0  0  0  0  0  0  0  0  0  0  0  0
   11.1121    1.9174    0.0607 N   0  0  0  0  0  0  0  0  0  0  0  0
   12.7931    6.0856    4.4451 H   0  0  0  0  0  0  0  0  0  0  0  0
   12.7232    3.6258    4.8179 H   0  0  0  0  0  0  0  0  0  0  0  0
   12.2880    2.0748    2.8834 H   0  0  0  0  0  0  0  0  0  0  0  0
    9.8715    1.9768    1.2316 O   0  0  0  0  0  0  0  0  0  0  0  0
    9.9179    0.9065    2.0202 C   0  0  0  0  0  0  0  0  0  0  0  0
   10.9003    0.1927    2.1543 O   0  0  0  0  0  0  0  0  0  0  0  0
    8.6069    0.6829    2.7500 C   0  0  0  0  0  0  0  0  0  0  0  0
    8.1733    1.6338    3.0829 H   0  0  0  0  0  0  0  0  0  0  0  0
    7.8952    0.2154    2.0550 H   0  0  0  0  0  0  0  0  0  0  0  0
    8.7743    0.0138    3.6000 H   0  0  0  0  0  0  0  0  0  0  0  0
  1  6  2  0  0  0  0
  2  3  2  0  0  0  0
  2  1  1  0  0  0  0
  3  4  1  0  0  0  0
  4 13  1  0  0  0  0
  4  5  2  0  0  0  0
  5 12  1  0  0  0  0
  6  5  1  0  0  0  0
  6 11  1  0  0  0  0
  7  1  1  0  0  0  0
  8  2  1  0  0  0  0
  9  3  1  0  0  0  0
 10  9  1  0  0  0  0
 10 14  1  0  0  0  0
 14 15  1  0  0  0  0
 15 16  2  0  0  0  0
 15 17  1  0  0  0  0
 17 18  1  0  0  0  0
 17 20  1  0  0  0  0
 19 17  1  0  0  0  0
M  RAD  2   9   2  10   2
M  END
