Coordinates from ORCA-job Ph-N2-OOCCH3-B3LYPG-aug-cc-pVDZ-scan-d09-49-n400
 OpenBabel11081710403D

 20 19  0  0  0  0  0  0  0  0999 V2000
   12.2350    5.8639    2.3250 C   0  0  0  0  0  0  0  0  0  0  0  0
   11.9392    4.9229    1.3576 C   0  0  0  0  0  0  0  0  0  0  0  0
   12.2191    3.5229    1.5836 C   0  0  0  0  0  0  0  0  0  0  0  0
   12.7919    3.1581    2.8604 C   0  0  0  0  0  0  0  0  0  0  0  0
   13.0731    4.1335    3.8011 C   0  0  0  0  0  0  0  0  0  0  0  0
   12.8060    5.4840    3.5486 C   0  0  0  0  0  0  0  0  0  0  0  0
   12.0132    6.9119    2.1245 H   0  0  0  0  0  0  0  0  0  0  0  0
   11.4882    5.1972    0.4048 H   0  0  0  0  0  0  0  0  0  0  0  0
   11.9833    2.7728    0.8426 N   0  0  0  0  0  0  0  0  0  0  0  0
   11.6165    1.9703    0.1163 N   0  0  0  0  0  0  0  0  0  0  0  0
   13.0343    6.2376    4.3013 H   0  0  0  0  0  0  0  0  0  0  0  0
   13.4993    3.8282    4.7565 H   0  0  0  0  0  0  0  0  0  0  0  0
   12.9482    2.0992    3.0455 H   0  0  0  0  0  0  0  0  0  0  0  0
    9.5593    1.5571    0.7532 O   0  0  0  0  0  0  0  0  0  0  0  0
    9.6229    1.1700    1.9761 C   0  0  0  0  0  0  0  0  0  0  0  0
   10.6220    1.2596    2.7224 O   0  0  0  0  0  0  0  0  0  0  0  0
    8.3245    0.5610    2.5139 C   0  0  0  0  0  0  0  0  0  0  0  0
    7.5328    1.3229    2.5112 H   0  0  0  0  0  0  0  0  0  0  0  0
    7.9972   -0.2569    1.8589 H   0  0  0  0  0  0  0  0  0  0  0  0
    8.4816    0.1934    3.5339 H   0  0  0  0  0  0  0  0  0  0  0  0
  1  6  2  0  0  0  0
  2  3  2  0  0  0  0
  2  1  1  0  0  0  0
  3  4  1  0  0  0  0
  4 13  1  0  0  0  0
  4  5  2  0  0  0  0
  5 12  1  0  0  0  0
  6  5  1  0  0  0  0
  6 11  1  0  0  0  0
  7  1  1  0  0  0  0
  8  2  1  0  0  0  0
  9  3  1  0  0  0  0
 10  9  1  0  0  0  0
 14 15  2  0  0  0  0
 15 17  1  0  0  0  0
 15 16  1  0  0  0  0
 17 20  1  0  0  0  0
 18 17  1  0  0  0  0
 19 17  1  0  0  0  0
M  RAD  3   9   2  10   3  16   2
M  END
