Coordinates from ORCA-job Ph-N2-OOCCH3-B3LYPG-aug-cc-pVDZ-scan-d09-49-n400
 OpenBabel10311713213D

 20 18  0  0  0  0  0  0  0  0999 V2000
   13.2951    6.0568    2.3309 C   0  0  0  0  0  0  0  0  0  0  0  0
   12.7349    5.5207    1.1504 C   0  0  0  0  0  0  0  0  0  0  0  0
   12.0963    4.3507    1.4672 C   0  0  0  0  0  0  0  0  0  0  0  0
   11.8837    3.6558    2.5139 C   0  0  0  0  0  0  0  0  0  0  0  0
   12.4488    4.1948    3.6969 C   0  0  0  0  0  0  0  0  0  0  0  0
   13.1525    5.4054    3.5708 C   0  0  0  0  0  0  0  0  0  0  0  0
   13.8465    6.9960    2.2673 H   0  0  0  0  0  0  0  0  0  0  0  0
   12.8178    5.9864    0.1717 H   0  0  0  0  0  0  0  0  0  0  0  0
   11.3089    3.5908   -0.3872 N   0  0  0  0  0  0  0  0  0  0  0  0
   10.8553    2.7307   -0.9129 N   0  0  0  0  0  0  0  0  0  0  0  0
   13.6007    5.8563    4.4581 H   0  0  0  0  0  0  0  0  0  0  0  0
   12.3487    3.7076    4.6680 H   0  0  0  0  0  0  0  0  0  0  0  0
   10.8652    2.0230    2.8735 H   0  0  0  0  0  0  0  0  0  0  0  0
    9.2622    1.3865    1.2786 O   0  0  0  0  0  0  0  0  0  0  0  0
    9.3988    0.8853    2.3779 C   0  0  0  0  0  0  0  0  0  0  0  0
   10.3423    1.2698    3.2568 O   0  0  0  0  0  0  0  0  0  0  0  0
    8.5375   -0.2246    2.9285 C   0  0  0  0  0  0  0  0  0  0  0  0
    7.8177   -0.5415    2.1689 H   0  0  0  0  0  0  0  0  0  0  0  0
    9.1667   -1.0706    3.2348 H   0  0  0  0  0  0  0  0  0  0  0  0
    8.0076    0.1296    3.8234 H   0  0  0  0  0  0  0  0  0  0  0  0
  1  6  2  0  0  0  0
  2  3  2  0  0  0  0
  2  1  1  0  0  0  0
  3  4  1  0  0  0  0
  4  5  2  0  0  0  0
  5 12  1  0  0  0  0
  6  5  1  0  0  0  0
  6 11  1  0  0  0  0
  7  1  1  0  0  0  0
  8  2  1  0  0  0  0
 10  9  3  0  0  0  0
 13 16  1  0  0  0  0
 14 15  2  0  0  0  0
 15 17  1  0  0  0  0
 15 16  1  0  0  0  0
 17 19  1  0  0  0  0
 17 20  1  0  0  0  0
 18 17  1  0  0  0  0
M  RAD  2   3   2   4   2
M  END
