Coordinates from ORCA-job Ph-N2-OOCCH3-B3LYPG-aug-cc-pVDZ-scan-d09-49-n400
 OpenBabel10311713213D

 20 18  0  0  0  0  0  0  0  0999 V2000
   13.2992    6.0580    2.3332 C   0  0  0  0  0  0  0  0  0  0  0  0
   12.7366    5.5234    1.1526 C   0  0  0  0  0  0  0  0  0  0  0  0
   12.0970    4.3548    1.4718 C   0  0  0  0  0  0  0  0  0  0  0  0
   11.8857    3.6622    2.5187 C   0  0  0  0  0  0  0  0  0  0  0  0
   12.4521    4.1977    3.7021 C   0  0  0  0  0  0  0  0  0  0  0  0
   13.1576    5.4073    3.5736 C   0  0  0  0  0  0  0  0  0  0  0  0
   13.8522    6.9963    2.2687 H   0  0  0  0  0  0  0  0  0  0  0  0
   12.8190    5.9892    0.1740 H   0  0  0  0  0  0  0  0  0  0  0  0
   11.2976    3.5883   -0.4096 N   0  0  0  0  0  0  0  0  0  0  0  0
   10.8497    2.7248   -0.9341 N   0  0  0  0  0  0  0  0  0  0  0  0
   13.6079    5.8579    4.4599 H   0  0  0  0  0  0  0  0  0  0  0  0
   12.3524    3.7107    4.6732 H   0  0  0  0  0  0  0  0  0  0  0  0
   10.8580    2.0244    2.8786 H   0  0  0  0  0  0  0  0  0  0  0  0
    9.2664    1.3796    1.2774 O   0  0  0  0  0  0  0  0  0  0  0  0
    9.3938    0.8862    2.3811 C   0  0  0  0  0  0  0  0  0  0  0  0
   10.3338    1.2739    3.2632 O   0  0  0  0  0  0  0  0  0  0  0  0
    8.5364   -0.2282    2.9285 C   0  0  0  0  0  0  0  0  0  0  0  0
    7.8224   -0.5501    2.1656 H   0  0  0  0  0  0  0  0  0  0  0  0
    9.1692   -1.0705    3.2383 H   0  0  0  0  0  0  0  0  0  0  0  0
    8.0003    0.1234    3.8206 H   0  0  0  0  0  0  0  0  0  0  0  0
  1  6  2  0  0  0  0
  2  3  2  0  0  0  0
  2  1  1  0  0  0  0
  3  4  1  0  0  0  0
  4  5  2  0  0  0  0
  5 12  1  0  0  0  0
  6  5  1  0  0  0  0
  6 11  1  0  0  0  0
  7  1  1  0  0  0  0
  8  2  1  0  0  0  0
 10  9  3  0  0  0  0
 13 16  1  0  0  0  0
 14 15  2  0  0  0  0
 15 17  1  0  0  0  0
 15 16  1  0  0  0  0
 17 19  1  0  0  0  0
 17 20  1  0  0  0  0
 18 17  1  0  0  0  0
M  RAD  2   3   2   4   2
M  END
