Coordinates from ORCA-job Ph-N2-OOCCH3-B3LYPG-aug-cc-pVDZ-scan-d09-49-n400
 OpenBabel10311713213D

 20 18  0  0  0  0  0  0  0  0999 V2000
   13.3996    6.0827    2.3869 C   0  0  0  0  0  0  0  0  0  0  0  0
   12.7481    5.4750    1.2833 C   0  0  0  0  0  0  0  0  0  0  0  0
   12.0979    4.3593    1.7504 C   0  0  0  0  0  0  0  0  0  0  0  0
   11.9751    3.8158    2.8767 C   0  0  0  0  0  0  0  0  0  0  0  0
   12.6041    4.3825    3.9975 C   0  0  0  0  0  0  0  0  0  0  0  0
   13.3283    5.5543    3.6910 C   0  0  0  0  0  0  0  0  0  0  0  0
   13.9749    6.9933    2.2088 H   0  0  0  0  0  0  0  0  0  0  0  0
   12.7862    5.8620    0.2689 H   0  0  0  0  0  0  0  0  0  0  0  0
   10.9308    3.4819   -1.1485 N   0  0  0  0  0  0  0  0  0  0  0  0
   10.5486    2.6511   -1.7673 N   0  0  0  0  0  0  0  0  0  0  0  0
   13.8534    6.0725    4.4956 H   0  0  0  0  0  0  0  0  0  0  0  0
   12.5556    3.9840    5.0101 H   0  0  0  0  0  0  0  0  0  0  0  0
   10.7034    2.0162    2.9972 H   0  0  0  0  0  0  0  0  0  0  0  0
    9.3948    1.2152    1.2398 O   0  0  0  0  0  0  0  0  0  0  0  0
    9.3745    0.7938    2.3769 C   0  0  0  0  0  0  0  0  0  0  0  0
   10.1585    1.2887    3.3632 O   0  0  0  0  0  0  0  0  0  0  0  0
    8.4964   -0.3249    2.8762 C   0  0  0  0  0  0  0  0  0  0  0  0
    7.8823   -0.7022    2.0542 H   0  0  0  0  0  0  0  0  0  0  0  0
    9.1186   -1.1318    3.2860 H   0  0  0  0  0  0  0  0  0  0  0  0
    7.8561    0.0401    3.6907 H   0  0  0  0  0  0  0  0  0  0  0  0
  1  6  2  0  0  0  0
  2  3  2  0  0  0  0
  2  1  1  0  0  0  0
  3  4  1  0  0  0  0
  4  5  2  0  0  0  0
  5 12  1  0  0  0  0
  6  5  1  0  0  0  0
  6 11  1  0  0  0  0
  7  1  1  0  0  0  0
  8  2  1  0  0  0  0
 10  9  3  0  0  0  0
 13 16  1  0  0  0  0
 14 15  2  0  0  0  0
 15 17  1  0  0  0  0
 15 16  1  0  0  0  0
 17 19  1  0  0  0  0
 17 20  1  0  0  0  0
 18 17  1  0  0  0  0
M  RAD  2   3   2   4   2
M  END
