Coordinates from ORCA-job Ph-N2-OOCCH3-B3LYPG-aug-cc-pVDZ-scan-d09-49-n400
 OpenBabel10311713213D

 20 18  0  0  0  0  0  0  0  0999 V2000
   13.3947    6.0827    2.3848 C   0  0  0  0  0  0  0  0  0  0  0  0
   12.7475    5.4788    1.2765 C   0  0  0  0  0  0  0  0  0  0  0  0
   12.0980    4.3590    1.7350 C   0  0  0  0  0  0  0  0  0  0  0  0
   11.9731    3.8105    2.8595 C   0  0  0  0  0  0  0  0  0  0  0  0
   12.5979    4.3734    3.9844 C   0  0  0  0  0  0  0  0  0  0  0  0
   13.3207    5.5480    3.6860 C   0  0  0  0  0  0  0  0  0  0  0  0
   13.9685    6.9953    2.2124 H   0  0  0  0  0  0  0  0  0  0  0  0
   12.7882    5.8712    0.2643 H   0  0  0  0  0  0  0  0  0  0  0  0
   10.9514    3.4898   -1.1186 N   0  0  0  0  0  0  0  0  0  0  0  0
   10.5667    2.6593   -1.7357 N   0  0  0  0  0  0  0  0  0  0  0  0
   13.8422    6.0635    4.4947 H   0  0  0  0  0  0  0  0  0  0  0  0
   12.5471    3.9700    4.9950 H   0  0  0  0  0  0  0  0  0  0  0  0
   10.7105    2.0130    2.9910 H   0  0  0  0  0  0  0  0  0  0  0  0
    9.3887    1.2182    1.2413 O   0  0  0  0  0  0  0  0  0  0  0  0
    9.3744    0.7951    2.3779 C   0  0  0  0  0  0  0  0  0  0  0  0
   10.1663    1.2861    3.3597 O   0  0  0  0  0  0  0  0  0  0  0  0
    8.4959   -0.3216    2.8811 C   0  0  0  0  0  0  0  0  0  0  0  0
    7.8758   -0.6961    2.0624 H   0  0  0  0  0  0  0  0  0  0  0  0
    9.1181   -1.1309    3.2863 H   0  0  0  0  0  0  0  0  0  0  0  0
    7.8616    0.0443    3.6998 H   0  0  0  0  0  0  0  0  0  0  0  0
  1  6  2  0  0  0  0
  2  3  2  0  0  0  0
  2  1  1  0  0  0  0
  3  4  1  0  0  0  0
  4  5  2  0  0  0  0
  5 12  1  0  0  0  0
  6  5  1  0  0  0  0
  6 11  1  0  0  0  0
  7  1  1  0  0  0  0
  8  2  1  0  0  0  0
 10  9  3  0  0  0  0
 13 16  1  0  0  0  0
 14 15  2  0  0  0  0
 15 17  1  0  0  0  0
 15 16  1  0  0  0  0
 17 19  1  0  0  0  0
 17 20  1  0  0  0  0
 18 17  1  0  0  0  0
M  RAD  2   3   2   4   2
M  END
