Coordinates from ORCA-job Ph-N2-OOCCH3-B3LYPG-aug-cc-pVDZ-scan-d09-49-n400
 OpenBabel11081710403D

 20 19  0  0  0  0  0  0  0  0999 V2000
   12.9143    5.9868    2.2166 C   0  0  0  0  0  0  0  0  0  0  0  0
   12.4819    5.1648    1.1816 C   0  0  0  0  0  0  0  0  0  0  0  0
   11.9681    3.8815    1.4751 C   0  0  0  0  0  0  0  0  0  0  0  0
   11.9488    3.4059    2.8075 C   0  0  0  0  0  0  0  0  0  0  0  0
   12.4186    4.2326    3.8235 C   0  0  0  0  0  0  0  0  0  0  0  0
   12.8859    5.5212    3.5373 C   0  0  0  0  0  0  0  0  0  0  0  0
   13.2879    6.9857    1.9938 H   0  0  0  0  0  0  0  0  0  0  0  0
   12.5085    5.4992    0.1450 H   0  0  0  0  0  0  0  0  0  0  0  0
   11.5695    3.1454    0.5055 N   0  0  0  0  0  0  0  0  0  0  0  0
   10.8433    2.3090    0.1573 N   0  0  0  0  0  0  0  0  0  0  0  0
   13.2432    6.1609    4.3446 H   0  0  0  0  0  0  0  0  0  0  0  0
   12.4213    3.8666    4.8500 H   0  0  0  0  0  0  0  0  0  0  0  0
   11.6177    2.3859    2.9953 H   0  0  0  0  0  0  0  0  0  0  0  0
    9.4910    1.9506    1.4235 O   0  0  0  0  0  0  0  0  0  0  0  0
    9.7919    0.8581    2.0743 C   0  0  0  0  0  0  0  0  0  0  0  0
   10.9349    0.4056    2.1918 O   0  0  0  0  0  0  0  0  0  0  0  0
    8.5876    0.1710    2.7032 C   0  0  0  0  0  0  0  0  0  0  0  0
    7.8513    0.9034    3.0552 H   0  0  0  0  0  0  0  0  0  0  0  0
    8.1044   -0.4481    1.9335 H   0  0  0  0  0  0  0  0  0  0  0  0
    8.9172   -0.4765    3.5228 H   0  0  0  0  0  0  0  0  0  0  0  0
  1  6  2  0  0  0  0
  2  3  2  0  0  0  0
  2  1  1  0  0  0  0
  3  4  1  0  0  0  0
  4 13  1  0  0  0  0
  4  5  2  0  0  0  0
  5 12  1  0  0  0  0
  6  5  1  0  0  0  0
  6 11  1  0  0  0  0
  7  1  1  0  0  0  0
  8  2  1  0  0  0  0
  9  3  1  0  0  0  0
 10  9  2  0  0  0  0
 14 15  2  0  0  0  0
 15 16  1  0  0  0  0
 15 17  1  0  0  0  0
 17 18  1  0  0  0  0
 17 20  1  0  0  0  0
 19 17  1  0  0  0  0
M  RAD  2  10   2  16   2
M  END
