Coordinates from ORCA-job Ph-N2-OOCCH3-B3LYPG-aug-cc-pVDZ-scan-d09-49-n400
 OpenBabel10311713213D

 20 18  0  0  0  0  0  0  0  0999 V2000
   13.4520    6.0733    2.4264 C   0  0  0  0  0  0  0  0  0  0  0  0
   12.7326    5.3807    1.4201 C   0  0  0  0  0  0  0  0  0  0  0  0
   12.0908    4.3163    2.0125 C   0  0  0  0  0  0  0  0  0  0  0  0
   12.0413    3.8980    3.1949 C   0  0  0  0  0  0  0  0  0  0  0  0
   12.7309    4.5402    4.2304 C   0  0  0  0  0  0  0  0  0  0  0  0
   13.4495    5.6673    3.7755 C   0  0  0  0  0  0  0  0  0  0  0  0
   14.0273    6.9545    2.1358 H   0  0  0  0  0  0  0  0  0  0  0  0
   12.7210    5.6786    0.3750 H   0  0  0  0  0  0  0  0  0  0  0  0
   10.6139    3.3678   -1.7017 N   0  0  0  0  0  0  0  0  0  0  0  0
   10.2747    2.5349   -2.3421 N   0  0  0  0  0  0  0  0  0  0  0  0
   14.0257    6.2477    4.4986 H   0  0  0  0  0  0  0  0  0  0  0  0
   12.7343    4.2342    5.2754 H   0  0  0  0  0  0  0  0  0  0  0  0
   10.6183    2.0384    3.0752 H   0  0  0  0  0  0  0  0  0  0  0  0
    9.4974    1.1750    1.2246 O   0  0  0  0  0  0  0  0  0  0  0  0
    9.3834    0.7726    2.3622 C   0  0  0  0  0  0  0  0  0  0  0  0
   10.0605    1.3075    3.4058 O   0  0  0  0  0  0  0  0  0  0  0  0
    8.4943   -0.3618    2.8023 C   0  0  0  0  0  0  0  0  0  0  0  0
    7.9673   -0.7703    1.9360 H   0  0  0  0  0  0  0  0  0  0  0  0
    9.0985   -1.1437    3.2817 H   0  0  0  0  0  0  0  0  0  0  0  0
    7.7737   -0.0016    3.5489 H   0  0  0  0  0  0  0  0  0  0  0  0
  1  6  2  0  0  0  0
  2  3  2  0  0  0  0
  2  1  1  0  0  0  0
  3  4  1  0  0  0  0
  4  5  2  0  0  0  0
  5 12  1  0  0  0  0
  6  5  1  0  0  0  0
  6 11  1  0  0  0  0
  7  1  1  0  0  0  0
  8  2  1  0  0  0  0
 10  9  3  0  0  0  0
 13 16  1  0  0  0  0
 14 15  2  0  0  0  0
 15 17  1  0  0  0  0
 15 16  1  0  0  0  0
 17 19  1  0  0  0  0
 17 20  1  0  0  0  0
 18 17  1  0  0  0  0
M  RAD  2   3   2   4   2
M  END
