Coordinates from ORCA-job Ph-N2-OOCCH3-B3LYPG-aug-cc-pVDZ-scan-d09-49-n400
 OpenBabel10311713213D

 20 18  0  0  0  0  0  0  0  0999 V2000
   13.4426    6.0633    2.4198 C   0  0  0  0  0  0  0  0  0  0  0  0
   12.6917    5.3102    1.4832 C   0  0  0  0  0  0  0  0  0  0  0  0
   12.0875    4.2659    2.1508 C   0  0  0  0  0  0  0  0  0  0  0  0
   12.1046    3.9257    3.3576 C   0  0  0  0  0  0  0  0  0  0  0  0
   12.8223    4.6199    4.3343 C   0  0  0  0  0  0  0  0  0  0  0  0
   13.5042    5.7304    3.7879 C   0  0  0  0  0  0  0  0  0  0  0  0
   13.9927    6.9349    2.0597 H   0  0  0  0  0  0  0  0  0  0  0  0
   12.6339    5.5546    0.4255 H   0  0  0  0  0  0  0  0  0  0  0  0
   10.4325    3.1469   -1.6326 N   0  0  0  0  0  0  0  0  0  0  0  0
   10.0881    2.2751   -2.2158 N   0  0  0  0  0  0  0  0  0  0  0  0
   14.1022    6.3561    4.4535 H   0  0  0  0  0  0  0  0  0  0  0  0
   12.8728    4.3690    5.3924 H   0  0  0  0  0  0  0  0  0  0  0  0
   10.6119    2.0445    3.1729 H   0  0  0  0  0  0  0  0  0  0  0  0
    9.5925    1.3142    1.2155 O   0  0  0  0  0  0  0  0  0  0  0  0
    9.4166    0.8356    2.3158 C   0  0  0  0  0  0  0  0  0  0  0  0
   10.0376    1.2973    3.4281 O   0  0  0  0  0  0  0  0  0  0  0  0
    8.5042   -0.3212    2.6302 C   0  0  0  0  0  0  0  0  0  0  0  0
    8.0257   -0.6697    1.7111 H   0  0  0  0  0  0  0  0  0  0  0  0
    9.0803   -1.1354    3.0900 H   0  0  0  0  0  0  0  0  0  0  0  0
    7.7435   -0.0076    3.3578 H   0  0  0  0  0  0  0  0  0  0  0  0
  1  6  2  0  0  0  0
  2  3  2  0  0  0  0
  2  1  1  0  0  0  0
  3  4  1  0  0  0  0
  4  5  2  0  0  0  0
  5 12  1  0  0  0  0
  6  5  1  0  0  0  0
  6 11  1  0  0  0  0
  7  1  1  0  0  0  0
  8  2  1  0  0  0  0
 10  9  3  0  0  0  0
 13 16  1  0  0  0  0
 14 15  2  0  0  0  0
 15 17  1  0  0  0  0
 15 16  1  0  0  0  0
 17 19  1  0  0  0  0
 17 20  1  0  0  0  0
 18 17  1  0  0  0  0
M  RAD  2   3   2   4   2
M  END
