Coordinates from ORCA-job Ph-N2-OOCCH3-B3LYPG-aug-cc-pVDZ-scan-d09-49-n400
 OpenBabel10311713213D

 20 18  0  0  0  0  0  0  0  0999 V2000
   13.3578    6.0788    2.3657 C   0  0  0  0  0  0  0  0  0  0  0  0
   12.7476    5.5130    1.2166 C   0  0  0  0  0  0  0  0  0  0  0  0
   12.1046    4.3716    1.6174 C   0  0  0  0  0  0  0  0  0  0  0  0
   11.9440    3.7602    2.7059 C   0  0  0  0  0  0  0  0  0  0  0  0
   12.5379    4.2942    3.8654 C   0  0  0  0  0  0  0  0  0  0  0  0
   13.2546    5.4884    3.6402 C   0  0  0  0  0  0  0  0  0  0  0  0
   13.9243    7.0044    2.2462 H   0  0  0  0  0  0  0  0  0  0  0  0
   12.8091    5.9456    0.2221 H   0  0  0  0  0  0  0  0  0  0  0  0
   11.1147    3.5655   -0.8687 N   0  0  0  0  0  0  0  0  0  0  0  0
   10.7107    2.7240   -1.4581 N   0  0  0  0  0  0  0  0  0  0  0  0
   13.7469    5.9747    4.4844 H   0  0  0  0  0  0  0  0  0  0  0  0
   12.4652    3.8494    4.8574 H   0  0  0  0  0  0  0  0  0  0  0  0
   10.7610    2.0015    2.9533 H   0  0  0  0  0  0  0  0  0  0  0  0
    9.3433    1.2434    1.2554 O   0  0  0  0  0  0  0  0  0  0  0  0
    9.3753    0.8104    2.3882 C   0  0  0  0  0  0  0  0  0  0  0  0
   10.2202    1.2762    3.3362 O   0  0  0  0  0  0  0  0  0  0  0  0
    8.4998   -0.2955    2.9210 C   0  0  0  0  0  0  0  0  0  0  0  0
    7.8392   -0.6532    2.1267 H   0  0  0  0  0  0  0  0  0  0  0  0
    9.1244   -1.1181    3.2942 H   0  0  0  0  0  0  0  0  0  0  0  0
    7.9069    0.0753    3.7680 H   0  0  0  0  0  0  0  0  0  0  0  0
  1  6  2  0  0  0  0
  2  3  2  0  0  0  0
  2  1  1  0  0  0  0
  3  4  1  0  0  0  0
  4  5  2  0  0  0  0
  5 12  1  0  0  0  0
  6  5  1  0  0  0  0
  6 11  1  0  0  0  0
  7  1  1  0  0  0  0
  8  2  1  0  0  0  0
 10  9  3  0  0  0  0
 13 16  1  0  0  0  0
 14 15  2  0  0  0  0
 15 17  1  0  0  0  0
 15 16  1  0  0  0  0
 17 19  1  0  0  0  0
 17 20  1  0  0  0  0
 18 17  1  0  0  0  0
M  RAD  2   3   2   4   2
M  END
