Coordinates from ORCA-job Ph-N2-OOCCH3-B3LYPG-aug-cc-pVDZ-scan-d09-49-n400
 OpenBabel11081710403D

 20 19  0  0  0  0  0  0  0  0999 V2000
   12.2323    5.8616    2.3247 C   0  0  0  0  0  0  0  0  0  0  0  0
   11.9370    4.9210    1.3572 C   0  0  0  0  0  0  0  0  0  0  0  0
   12.2183    3.5189    1.5808 C   0  0  0  0  0  0  0  0  0  0  0  0
   12.7930    3.1566    2.8596 C   0  0  0  0  0  0  0  0  0  0  0  0
   13.0729    4.1322    3.8000 C   0  0  0  0  0  0  0  0  0  0  0  0
   12.8041    5.4825    3.5481 C   0  0  0  0  0  0  0  0  0  0  0  0
   12.0092    6.9094    2.1241 H   0  0  0  0  0  0  0  0  0  0  0  0
   11.4853    5.1945    0.4045 H   0  0  0  0  0  0  0  0  0  0  0  0
   11.9849    2.7754    0.8470 N   0  0  0  0  0  0  0  0  0  0  0  0
   11.6208    1.9720    0.1189 N   0  0  0  0  0  0  0  0  0  0  0  0
   13.0318    6.2363    4.3008 H   0  0  0  0  0  0  0  0  0  0  0  0
   13.5000    3.8271    4.7551 H   0  0  0  0  0  0  0  0  0  0  0  0
   12.9511    2.0979    3.0441 H   0  0  0  0  0  0  0  0  0  0  0  0
    9.5615    1.5603    0.7548 O   0  0  0  0  0  0  0  0  0  0  0  0
    9.6244    1.1724    1.9775 C   0  0  0  0  0  0  0  0  0  0  0  0
   10.6226    1.2611    2.7248 O   0  0  0  0  0  0  0  0  0  0  0  0
    8.3251    0.5634    2.5136 C   0  0  0  0  0  0  0  0  0  0  0  0
    7.5342    1.3261    2.5120 H   0  0  0  0  0  0  0  0  0  0  0  0
    7.9973   -0.2529    1.8570 H   0  0  0  0  0  0  0  0  0  0  0  0
    8.4817    0.1939    3.5330 H   0  0  0  0  0  0  0  0  0  0  0  0
  1  6  2  0  0  0  0
  2  3  2  0  0  0  0
  2  1  1  0  0  0  0
  3  4  1  0  0  0  0
  4 13  1  0  0  0  0
  4  5  2  0  0  0  0
  5 12  1  0  0  0  0
  6  5  1  0  0  0  0
  6 11  1  0  0  0  0
  7  1  1  0  0  0  0
  8  2  1  0  0  0  0
  9  3  1  0  0  0  0
 10  9  1  0  0  0  0
 14 15  2  0  0  0  0
 15 17  1  0  0  0  0
 15 16  1  0  0  0  0
 17 20  1  0  0  0  0
 18 17  1  0  0  0  0
 19 17  1  0  0  0  0
M  RAD  3   9   2  10   3  16   2
M  END
