Coordinates from ORCA-job Ph-N2-OOCCH3-B3LYPG-aug-cc-pVDZ-scan-d09-49-n400
 OpenBabel10311713213D

 20 18  0  0  0  0  0  0  0  0999 V2000
   13.4088    6.0422    2.4255 C   0  0  0  0  0  0  0  0  0  0  0  0
   12.6367    5.2263    1.5612 C   0  0  0  0  0  0  0  0  0  0  0  0
   12.0916    4.2046    2.3089 C   0  0  0  0  0  0  0  0  0  0  0  0
   12.1670    3.9212    3.5279 C   0  0  0  0  0  0  0  0  0  0  0  0
   12.9103    4.6818    4.4346 C   0  0  0  0  0  0  0  0  0  0  0  0
   13.5388    5.7789    3.8043 C   0  0  0  0  0  0  0  0  0  0  0  0
   13.9206    6.9073    1.9994 H   0  0  0  0  0  0  0  0  0  0  0  0
   12.5245    5.4148    0.4966 H   0  0  0  0  0  0  0  0  0  0  0  0
   10.3605    3.1437   -1.9072 N   0  0  0  0  0  0  0  0  0  0  0  0
   10.0823    2.2360   -2.4708 N   0  0  0  0  0  0  0  0  0  0  0  0
   14.1495    6.4507    4.4106 H   0  0  0  0  0  0  0  0  0  0  0  0
   13.0142    4.4862    5.5006 H   0  0  0  0  0  0  0  0  0  0  0  0
   10.6215    2.0272    3.1993 H   0  0  0  0  0  0  0  0  0  0  0  0
    9.5964    1.3452    1.2236 O   0  0  0  0  0  0  0  0  0  0  0  0
    9.4183    0.8453    2.3143 C   0  0  0  0  0  0  0  0  0  0  0  0
   10.0462    1.2752    3.4350 O   0  0  0  0  0  0  0  0  0  0  0  0
    8.4934   -0.3077    2.6056 C   0  0  0  0  0  0  0  0  0  0  0  0
    8.0159   -0.6366    1.6788 H   0  0  0  0  0  0  0  0  0  0  0  0
    9.0589   -1.1348    3.0555 H   0  0  0  0  0  0  0  0  0  0  0  0
    7.7320    0.0022    3.3341 H   0  0  0  0  0  0  0  0  0  0  0  0
  1  6  2  0  0  0  0
  2  3  2  0  0  0  0
  2  1  1  0  0  0  0
  3  4  1  0  0  0  0
  4  5  2  0  0  0  0
  5 12  1  0  0  0  0
  6 11  1  0  0  0  0
  6  5  1  0  0  0  0
  7  1  1  0  0  0  0
  8  2  1  0  0  0  0
 10  9  3  0  0  0  0
 13 16  1  0  0  0  0
 14 15  2  0  0  0  0
 15 17  1  0  0  0  0
 15 16  1  0  0  0  0
 17 19  1  0  0  0  0
 17 20  1  0  0  0  0
 18 17  1  0  0  0  0
M  RAD  2   3   2   4   2
M  END
