Coordinates from ORCA-job Ph-N2-OOCCH3-B3LYPG-aug-cc-pVDZ-scan-d09-49-n400
 OpenBabel11081710403D

 20 19  0  0  0  0  0  0  0  0999 V2000
   12.2441    5.8712    2.3260 C   0  0  0  0  0  0  0  0  0  0  0  0
   11.9461    4.9292    1.3584 C   0  0  0  0  0  0  0  0  0  0  0  0
   12.2208    3.5350    1.5922 C   0  0  0  0  0  0  0  0  0  0  0  0
   12.7880    3.1627    2.8629 C   0  0  0  0  0  0  0  0  0  0  0  0
   13.0734    4.1375    3.8046 C   0  0  0  0  0  0  0  0  0  0  0  0
   12.8119    5.4887    3.5499 C   0  0  0  0  0  0  0  0  0  0  0  0
   12.0267    6.9200    2.1252 H   0  0  0  0  0  0  0  0  0  0  0  0
   11.4975    5.2059    0.4053 H   0  0  0  0  0  0  0  0  0  0  0  0
   11.9777    2.7651    0.8296 N   0  0  0  0  0  0  0  0  0  0  0  0
   11.6020    1.9655    0.1088 N   0  0  0  0  0  0  0  0  0  0  0  0
   13.0421    6.2419    4.3026 H   0  0  0  0  0  0  0  0  0  0  0  0
   13.4967    3.8318    4.7610 H   0  0  0  0  0  0  0  0  0  0  0  0
   12.9383    2.1034    3.0502 H   0  0  0  0  0  0  0  0  0  0  0  0
    9.5526    1.5471    0.7483 O   0  0  0  0  0  0  0  0  0  0  0  0
    9.6187    1.1624    1.9722 C   0  0  0  0  0  0  0  0  0  0  0  0
   10.6201    1.2546    2.7153 O   0  0  0  0  0  0  0  0  0  0  0  0
    8.3229    0.5531    2.5149 C   0  0  0  0  0  0  0  0  0  0  0  0
    7.5290    1.3128    2.5093 H   0  0  0  0  0  0  0  0  0  0  0  0
    7.9968   -0.2688    1.8643 H   0  0  0  0  0  0  0  0  0  0  0  0
    8.4819    0.1906    3.5364 H   0  0  0  0  0  0  0  0  0  0  0  0
  1  6  2  0  0  0  0
  2  3  2  0  0  0  0
  2  1  1  0  0  0  0
  3  4  1  0  0  0  0
  4 13  1  0  0  0  0
  4  5  2  0  0  0  0
  5 12  1  0  0  0  0
  6  5  1  0  0  0  0
  6 11  1  0  0  0  0
  7  1  1  0  0  0  0
  8  2  1  0  0  0  0
  9  3  1  0  0  0  0
 10  9  1  0  0  0  0
 14 15  2  0  0  0  0
 15 17  1  0  0  0  0
 15 16  1  0  0  0  0
 17 20  1  0  0  0  0
 18 17  1  0  0  0  0
 19 17  1  0  0  0  0
M  RAD  3   9   2  10   3  16   2
M  END
