Coordinates from ORCA-job Ph-N2-OOCCH3-B3LYPG-aug-cc-pVDZ-scan-d09-49-n400
 OpenBabel10311713213D

 20 18  0  0  0  0  0  0  0  0999 V2000
   13.4021    6.0332    2.4266 C   0  0  0  0  0  0  0  0  0  0  0  0
   12.6218    5.2000    1.5867 C   0  0  0  0  0  0  0  0  0  0  0  0
   12.0904    4.1879    2.3578 C   0  0  0  0  0  0  0  0  0  0  0  0
   12.1859    3.9282    3.5804 C   0  0  0  0  0  0  0  0  0  0  0  0
   12.9373    4.7050    4.4656 C   0  0  0  0  0  0  0  0  0  0  0  0
   13.5523    5.7939    3.8078 C   0  0  0  0  0  0  0  0  0  0  0  0
   13.9044    6.8933    1.9794 H   0  0  0  0  0  0  0  0  0  0  0  0
   12.4945    5.3703    0.5207 H   0  0  0  0  0  0  0  0  0  0  0  0
   10.3294    3.1344   -1.9811 N   0  0  0  0  0  0  0  0  0  0  0  0
   10.0716    2.2122   -2.5308 N   0  0  0  0  0  0  0  0  0  0  0  0
   14.1684    6.4784    4.3941 H   0  0  0  0  0  0  0  0  0  0  0  0
   13.0565    4.5277    5.5332 H   0  0  0  0  0  0  0  0  0  0  0  0
   10.6174    2.0241    3.2149 H   0  0  0  0  0  0  0  0  0  0  0  0
    9.5965    1.3681    1.2313 O   0  0  0  0  0  0  0  0  0  0  0  0
    9.4162    0.8537    2.3148 C   0  0  0  0  0  0  0  0  0  0  0  0
   10.0391    1.2722    3.4428 O   0  0  0  0  0  0  0  0  0  0  0  0
    8.4939   -0.3055    2.5887 C   0  0  0  0  0  0  0  0  0  0  0  0
    8.0217   -0.6253    1.6559 H   0  0  0  0  0  0  0  0  0  0  0  0
    9.0599   -1.1358    3.0319 H   0  0  0  0  0  0  0  0  0  0  0  0
    7.7280   -0.0063    3.3170 H   0  0  0  0  0  0  0  0  0  0  0  0
  1  6  2  0  0  0  0
  2  3  2  0  0  0  0
  2  1  1  0  0  0  0
  3  4  1  0  0  0  0
  4  5  2  0  0  0  0
  5 12  1  0  0  0  0
  6 11  1  0  0  0  0
  6  5  1  0  0  0  0
  7  1  1  0  0  0  0
  8  2  1  0  0  0  0
 10  9  3  0  0  0  0
 13 16  1  0  0  0  0
 14 15  2  0  0  0  0
 15 17  1  0  0  0  0
 15 16  1  0  0  0  0
 17 19  1  0  0  0  0
 17 20  1  0  0  0  0
 18 17  1  0  0  0  0
M  RAD  2   3   2   4   2
M  END
