Coordinates from ORCA-job Ph-N2-OOCCH3-B3LYPG-aug-cc-pVDZ-scan-d09-49-n400
 OpenBabel11081710403D

 20 20  0  0  0  0  0  0  0  0999 V2000
   12.4439    5.9496    2.3122 C   0  0  0  0  0  0  0  0  0  0  0  0
   12.2088    5.0928    1.2309 C   0  0  0  0  0  0  0  0  0  0  0  0
   12.1224    3.7353    1.5015 C   0  0  0  0  0  0  0  0  0  0  0  0
   12.3075    3.1680    2.7544 C   0  0  0  0  0  0  0  0  0  0  0  0
   12.5590    4.0447    3.8158 C   0  0  0  0  0  0  0  0  0  0  0  0
   12.6198    5.4262    3.5977 C   0  0  0  0  0  0  0  0  0  0  0  0
   12.4999    7.0250    2.1441 H   0  0  0  0  0  0  0  0  0  0  0  0
   12.0889    5.4697    0.2169 H   0  0  0  0  0  0  0  0  0  0  0  0
   11.9324    2.7658    0.2408 N   0  0  0  0  0  0  0  0  0  0  0  0
   11.1016    1.9437    0.0951 N   0  0  0  0  0  0  0  0  0  0  0  0
   12.8145    6.0983    4.4336 H   0  0  0  0  0  0  0  0  0  0  0  0
   12.7085    3.6413    4.8173 H   0  0  0  0  0  0  0  0  0  0  0  0
   12.2558    2.0892    2.8931 H   0  0  0  0  0  0  0  0  0  0  0  0
    9.8800    1.9835    1.2665 O   0  0  0  0  0  0  0  0  0  0  0  0
    9.9169    0.8884    2.0237 C   0  0  0  0  0  0  0  0  0  0  0  0
   10.8935    0.1638    2.1343 O   0  0  0  0  0  0  0  0  0  0  0  0
    8.6035    0.6542    2.7446 C   0  0  0  0  0  0  0  0  0  0  0  0
    8.1765    1.5984    3.1037 H   0  0  0  0  0  0  0  0  0  0  0  0
    7.8895    0.2118    2.0357 H   0  0  0  0  0  0  0  0  0  0  0  0
    8.7645   -0.0401    3.5754 H   0  0  0  0  0  0  0  0  0  0  0  0
  1  6  2  0  0  0  0
  2  3  2  0  0  0  0
  2  1  1  0  0  0  0
  3  4  1  0  0  0  0
  4 13  1  0  0  0  0
  4  5  2  0  0  0  0
  5 12  1  0  0  0  0
  6  5  1  0  0  0  0
  6 11  1  0  0  0  0
  7  1  1  0  0  0  0
  8  2  1  0  0  0  0
  9  3  1  0  0  0  0
 10  9  1  0  0  0  0
 10 14  1  0  0  0  0
 14 15  1  0  0  0  0
 15 16  2  0  0  0  0
 15 17  1  0  0  0  0
 17 18  1  0  0  0  0
 17 20  1  0  0  0  0
 19 17  1  0  0  0  0
M  RAD  2   9   2  10   2
M  END
