Coordinates from ORCA-job Ph-N2-OOCCH3-B3LYPG-aug-cc-pVDZ-scan-d09-49-n400
 OpenBabel10311713213D

 20 18  0  0  0  0  0  0  0  0999 V2000
   13.3261    6.0694    2.3530 C   0  0  0  0  0  0  0  0  0  0  0  0
   12.7454    5.5320    1.1772 C   0  0  0  0  0  0  0  0  0  0  0  0
   12.1048    4.3742    1.5268 C   0  0  0  0  0  0  0  0  0  0  0  0
   11.9144    3.7126    2.5858 C   0  0  0  0  0  0  0  0  0  0  0  0
   12.4872    4.2313    3.7677 C   0  0  0  0  0  0  0  0  0  0  0  0
   13.1987    5.4364    3.6042 C   0  0  0  0  0  0  0  0  0  0  0  0
   13.8862    7.0028    2.2733 H   0  0  0  0  0  0  0  0  0  0  0  0
   12.8234    5.9937    0.1968 H   0  0  0  0  0  0  0  0  0  0  0  0
   11.2172    3.5932   -0.6464 N   0  0  0  0  0  0  0  0  0  0  0  0
   10.7923    2.7393   -1.2030 N   0  0  0  0  0  0  0  0  0  0  0  0
   13.6664    5.8974    4.4761 H   0  0  0  0  0  0  0  0  0  0  0  0
   12.3964    3.7551    4.7442 H   0  0  0  0  0  0  0  0  0  0  0  0
   10.8082    2.0096    2.9229 H   0  0  0  0  0  0  0  0  0  0  0  0
    9.3237    1.2903    1.2663 O   0  0  0  0  0  0  0  0  0  0  0  0
    9.3907    0.8394    2.3914 C   0  0  0  0  0  0  0  0  0  0  0  0
   10.2722    1.2806    3.3144 O   0  0  0  0  0  0  0  0  0  0  0  0
    8.5157   -0.2608    2.9376 C   0  0  0  0  0  0  0  0  0  0  0  0
    7.8308   -0.6046    2.1579 H   0  0  0  0  0  0  0  0  0  0  0  0
    9.1392   -1.0933    3.2899 H   0  0  0  0  0  0  0  0  0  0  0  0
    7.9482    0.1112    3.8015 H   0  0  0  0  0  0  0  0  0  0  0  0
  1  6  2  0  0  0  0
  2  3  2  0  0  0  0
  2  1  1  0  0  0  0
  3  4  1  0  0  0  0
  4  5  2  0  0  0  0
  5 12  1  0  0  0  0
  6  5  1  0  0  0  0
  6 11  1  0  0  0  0
  7  1  1  0  0  0  0
  8  2  1  0  0  0  0
 10  9  3  0  0  0  0
 13 16  1  0  0  0  0
 14 15  2  0  0  0  0
 15 17  1  0  0  0  0
 15 16  1  0  0  0  0
 17 19  1  0  0  0  0
 17 20  1  0  0  0  0
 18 17  1  0  0  0  0
M  RAD  2   3   2   4   2
M  END
