Coordinates from ORCA-job Ph-N2-OOCCH3-B3LYPG-aug-cc-pVDZ-scan-d09-49-n400
 OpenBabel10311713213D

 20 19  0  0  0  0  0  0  0  0999 V2000
   12.7178    6.0195    2.3220 C   0  0  0  0  0  0  0  0  0  0  0  0
   12.4271    5.2223    1.2020 C   0  0  0  0  0  0  0  0  0  0  0  0
   12.1532    3.9148    1.5143 C   0  0  0  0  0  0  0  0  0  0  0  0
   12.1559    3.2599    2.7104 C   0  0  0  0  0  0  0  0  0  0  0  0
   12.4612    4.0976    3.8003 C   0  0  0  0  0  0  0  0  0  0  0  0
   12.7349    5.4562    3.6041 C   0  0  0  0  0  0  0  0  0  0  0  0
   12.9333    7.0782    2.1780 H   0  0  0  0  0  0  0  0  0  0  0  0
   12.4122    5.6105    0.1869 H   0  0  0  0  0  0  0  0  0  0  0  0
   11.8020    2.8207    0.0487 N   0  0  0  0  0  0  0  0  0  0  0  0
   11.0200    2.0084   -0.1051 N   0  0  0  0  0  0  0  0  0  0  0  0
   12.9698    6.0861    4.4621 H   0  0  0  0  0  0  0  0  0  0  0  0
   12.4824    3.6678    4.8019 H   0  0  0  0  0  0  0  0  0  0  0  0
   11.9190    2.1897    2.7994 H   0  0  0  0  0  0  0  0  0  0  0  0
    9.5571    1.9049    1.2755 O   0  0  0  0  0  0  0  0  0  0  0  0
    9.8032    0.9652    2.1269 C   0  0  0  0  0  0  0  0  0  0  0  0
   10.9311    0.5326    2.4200 O   0  0  0  0  0  0  0  0  0  0  0  0
    8.5552    0.3836    2.7904 C   0  0  0  0  0  0  0  0  0  0  0  0
    7.8069    1.1638    2.9734 H   0  0  0  0  0  0  0  0  0  0  0  0
    8.1134   -0.3522    2.1033 H   0  0  0  0  0  0  0  0  0  0  0  0
    8.8318   -0.1199    3.7229 H   0  0  0  0  0  0  0  0  0  0  0  0
  1  6  2  0  0  0  0
  2  3  2  0  0  0  0
  2  1  1  0  0  0  0
  3  4  1  0  0  0  0
  4 13  1  0  0  0  0
  4  5  2  0  0  0  0
  5 12  1  0  0  0  0
  6  5  1  0  0  0  0
  6 11  1  0  0  0  0
  7  1  1  0  0  0  0
  8  2  1  0  0  0  0
  9  3  1  0  0  0  0
 10  9  2  0  0  0  0
 14 15  2  0  0  0  0
 15 16  1  0  0  0  0
 15 17  1  0  0  0  0
 17 18  1  0  0  0  0
 17 20  1  0  0  0  0
 19 17  1  0  0  0  0
M  RAD  2  10   2  16   2
M  END
