Coordinates from ORCA-job Ph-N2-OOCCH3-B3LYPG-aug-cc-pVDZ-scan-d09-49-n400
 OpenBabel10311713213D

 20 18  0  0  0  0  0  0  0  0999 V2000
   13.3556    6.0784    2.3649 C   0  0  0  0  0  0  0  0  0  0  0  0
   12.7482    5.5160    1.2129 C   0  0  0  0  0  0  0  0  0  0  0  0
   12.1043    4.3727    1.6074 C   0  0  0  0  0  0  0  0  0  0  0  0
   11.9416    3.7578    2.6938 C   0  0  0  0  0  0  0  0  0  0  0  0
   12.5330    4.2885    3.8561 C   0  0  0  0  0  0  0  0  0  0  0  0
   13.2498    5.4835    3.6371 C   0  0  0  0  0  0  0  0  0  0  0  0
   13.9220    7.0045    2.2495 H   0  0  0  0  0  0  0  0  0  0  0  0
   12.8116    5.9518    0.2199 H   0  0  0  0  0  0  0  0  0  0  0  0
   11.1237    3.5682   -0.8491 N   0  0  0  0  0  0  0  0  0  0  0  0
   10.7180    2.7252   -1.4353 N   0  0  0  0  0  0  0  0  0  0  0  0
   13.7400    5.9670    4.4842 H   0  0  0  0  0  0  0  0  0  0  0  0
   12.4581    3.8402    4.8465 H   0  0  0  0  0  0  0  0  0  0  0  0
   10.7640    2.0019    2.9500 H   0  0  0  0  0  0  0  0  0  0  0  0
    9.3423    1.2463    1.2567 O   0  0  0  0  0  0  0  0  0  0  0  0
    9.3764    0.8123    2.3891 C   0  0  0  0  0  0  0  0  0  0  0  0
   10.2241    1.2768    3.3350 O   0  0  0  0  0  0  0  0  0  0  0  0
    8.5009   -0.2931    2.9230 C   0  0  0  0  0  0  0  0  0  0  0  0
    7.8383   -0.6498    2.1300 H   0  0  0  0  0  0  0  0  0  0  0  0
    9.1255   -1.1165    3.2946 H   0  0  0  0  0  0  0  0  0  0  0  0
    7.9101    0.0778    3.7714 H   0  0  0  0  0  0  0  0  0  0  0  0
  1  6  2  0  0  0  0
  2  3  2  0  0  0  0
  2  1  1  0  0  0  0
  3  4  1  0  0  0  0
  4  5  2  0  0  0  0
  5 12  1  0  0  0  0
  6  5  1  0  0  0  0
  6 11  1  0  0  0  0
  7  1  1  0  0  0  0
  8  2  1  0  0  0  0
 10  9  3  0  0  0  0
 13 16  1  0  0  0  0
 14 15  2  0  0  0  0
 15 17  1  0  0  0  0
 15 16  1  0  0  0  0
 17 19  1  0  0  0  0
 17 20  1  0  0  0  0
 18 17  1  0  0  0  0
M  RAD  2   3   2   4   2
M  END
