Coordinates from ORCA-job Ph-N2-OOCCH3-B3LYPG-aug-cc-pVDZ-scan-d09-49-n400
 OpenBabel10311713213D

 20 18  0  0  0  0  0  0  0  0999 V2000
   13.3707    6.0829    2.3731 C   0  0  0  0  0  0  0  0  0  0  0  0
   12.7474    5.4997    1.2392 C   0  0  0  0  0  0  0  0  0  0  0  0
   12.1058    4.3671    1.6675 C   0  0  0  0  0  0  0  0  0  0  0  0
   11.9573    3.7769    2.7684 C   0  0  0  0  0  0  0  0  0  0  0  0
   12.5629    4.3263    3.9136 C   0  0  0  0  0  0  0  0  0  0  0  0
   13.2797    5.5147    3.6588 C   0  0  0  0  0  0  0  0  0  0  0  0
   13.9382    7.0049    2.2325 H   0  0  0  0  0  0  0  0  0  0  0  0
   12.7997    5.9156    0.2372 H   0  0  0  0  0  0  0  0  0  0  0  0
   11.0628    3.5446   -0.9723 N   0  0  0  0  0  0  0  0  0  0  0  0
   10.6683    2.7081   -1.5749 N   0  0  0  0  0  0  0  0  0  0  0  0
   13.7824    6.0146    4.4889 H   0  0  0  0  0  0  0  0  0  0  0  0
   12.5000    3.8985    4.9137 H   0  0  0  0  0  0  0  0  0  0  0  0
   10.7470    1.9970    2.9584 H   0  0  0  0  0  0  0  0  0  0  0  0
    9.3447    1.2281    1.2468 O   0  0  0  0  0  0  0  0  0  0  0  0
    9.3694    0.7997    2.3814 C   0  0  0  0  0  0  0  0  0  0  0  0
   10.2044    1.2715    3.3356 O   0  0  0  0  0  0  0  0  0  0  0  0
    8.4939   -0.3075    2.9114 C   0  0  0  0  0  0  0  0  0  0  0  0
    7.8401   -0.6699    2.1137 H   0  0  0  0  0  0  0  0  0  0  0  0
    9.1188   -1.1269    3.2914 H   0  0  0  0  0  0  0  0  0  0  0  0
    7.8940    0.0637    3.7533 H   0  0  0  0  0  0  0  0  0  0  0  0
  1  6  2  0  0  0  0
  2  3  2  0  0  0  0
  2  1  1  0  0  0  0
  3  4  1  0  0  0  0
  4  5  2  0  0  0  0
  5 12  1  0  0  0  0
  6  5  1  0  0  0  0
  6 11  1  0  0  0  0
  7  1  1  0  0  0  0
  8  2  1  0  0  0  0
 10  9  3  0  0  0  0
 13 16  1  0  0  0  0
 14 15  2  0  0  0  0
 15 17  1  0  0  0  0
 15 16  1  0  0  0  0
 17 19  1  0  0  0  0
 17 20  1  0  0  0  0
 18 17  1  0  0  0  0
M  RAD  2   3   2   4   2
M  END
