Coordinates from ORCA-job Ph-N2-OOCCH3-B3LYPG-aug-cc-pVDZ-scan-d09-49-n400
 OpenBabel10311713213D

 20 18  0  0  0  0  0  0  0  0999 V2000
   13.3158    6.0671    2.3477 C   0  0  0  0  0  0  0  0  0  0  0  0
   12.7420    5.5323    1.1684 C   0  0  0  0  0  0  0  0  0  0  0  0
   12.1040    4.3701    1.5080 C   0  0  0  0  0  0  0  0  0  0  0  0
   11.9075    3.6970    2.5611 C   0  0  0  0  0  0  0  0  0  0  0  0
   12.4767    4.2183    3.7455 C   0  0  0  0  0  0  0  0  0  0  0  0
   13.1845    5.4264    3.5945 C   0  0  0  0  0  0  0  0  0  0  0  0
   13.8724    7.0030    2.2746 H   0  0  0  0  0  0  0  0  0  0  0  0
   12.8213    5.9976    0.1897 H   0  0  0  0  0  0  0  0  0  0  0  0
   11.2460    3.5924   -0.5755 N   0  0  0  0  0  0  0  0  0  0  0  0
   10.8219    2.7306   -1.1209 N   0  0  0  0  0  0  0  0  0  0  0  0
   13.6460    5.8835    4.4717 H   0  0  0  0  0  0  0  0  0  0  0  0
   12.3833    3.7369    4.7194 H   0  0  0  0  0  0  0  0  0  0  0  0
   10.8241    2.0115    2.9078 H   0  0  0  0  0  0  0  0  0  0  0  0
    9.3008    1.3203    1.2713 O   0  0  0  0  0  0  0  0  0  0  0  0
    9.3900    0.8535    2.3888 C   0  0  0  0  0  0  0  0  0  0  0  0
   10.2929    1.2765    3.2982 O   0  0  0  0  0  0  0  0  0  0  0  0
    8.5207   -0.2502    2.9372 C   0  0  0  0  0  0  0  0  0  0  0  0
    7.8222   -0.5838    2.1651 H   0  0  0  0  0  0  0  0  0  0  0  0
    9.1472   -1.0881    3.2712 H   0  0  0  0  0  0  0  0  0  0  0  0
    7.9681    0.1146    3.8137 H   0  0  0  0  0  0  0  0  0  0  0  0
  1  6  2  0  0  0  0
  2  3  2  0  0  0  0
  2  1  1  0  0  0  0
  3  4  1  0  0  0  0
  4  5  2  0  0  0  0
  5 12  1  0  0  0  0
  6  5  1  0  0  0  0
  6 11  1  0  0  0  0
  7  1  1  0  0  0  0
  8  2  1  0  0  0  0
 10  9  3  0  0  0  0
 13 16  1  0  0  0  0
 14 15  2  0  0  0  0
 15 17  1  0  0  0  0
 15 16  1  0  0  0  0
 17 19  1  0  0  0  0
 17 20  1  0  0  0  0
 18 17  1  0  0  0  0
M  RAD  2   3   2   4   2
M  END
