Coordinates from ORCA-job Ph-N2-OOCCH3-B3LYPG-aug-cc-pVDZ-scan-d09-49-n400
 OpenBabel10311713213D

 20 18  0  0  0  0  0  0  0  0999 V2000
   13.3067    6.0643    2.3417 C   0  0  0  0  0  0  0  0  0  0  0  0
   12.7389    5.5313    1.1600 C   0  0  0  0  0  0  0  0  0  0  0  0
   12.1023    4.3656    1.4901 C   0  0  0  0  0  0  0  0  0  0  0  0
   11.8996    3.6823    2.5387 C   0  0  0  0  0  0  0  0  0  0  0  0
   12.4661    4.2072    3.7244 C   0  0  0  0  0  0  0  0  0  0  0  0
   13.1715    5.4173    3.5848 C   0  0  0  0  0  0  0  0  0  0  0  0
   13.8607    7.0021    2.2744 H   0  0  0  0  0  0  0  0  0  0  0  0
   12.8199    5.9995    0.1827 H   0  0  0  0  0  0  0  0  0  0  0  0
   11.2731    3.5917   -0.5033 N   0  0  0  0  0  0  0  0  0  0  0  0
   10.8481    2.7220   -1.0358 N   0  0  0  0  0  0  0  0  0  0  0  0
   13.6275    5.8711    4.4666 H   0  0  0  0  0  0  0  0  0  0  0  0
   12.3700    3.7217    4.6962 H   0  0  0  0  0  0  0  0  0  0  0  0
   10.8391    2.0147    2.8921 H   0  0  0  0  0  0  0  0  0  0  0  0
    9.2779    1.3502    1.2765 O   0  0  0  0  0  0  0  0  0  0  0  0
    9.3888    0.8681    2.3860 C   0  0  0  0  0  0  0  0  0  0  0  0
   10.3125    1.2728    3.2809 O   0  0  0  0  0  0  0  0  0  0  0  0
    8.5262   -0.2406    2.9355 C   0  0  0  0  0  0  0  0  0  0  0  0
    7.8155   -0.5651    2.1706 H   0  0  0  0  0  0  0  0  0  0  0  0
    9.1560   -1.0827    3.2519 H   0  0  0  0  0  0  0  0  0  0  0  0
    7.9869    0.1161    3.8236 H   0  0  0  0  0  0  0  0  0  0  0  0
  1  6  2  0  0  0  0
  2  3  2  0  0  0  0
  2  1  1  0  0  0  0
  3  4  1  0  0  0  0
  4  5  2  0  0  0  0
  5 12  1  0  0  0  0
  6  5  1  0  0  0  0
  6 11  1  0  0  0  0
  7  1  1  0  0  0  0
  8  2  1  0  0  0  0
 10  9  3  0  0  0  0
 13 16  1  0  0  0  0
 14 15  2  0  0  0  0
 15 17  1  0  0  0  0
 15 16  1  0  0  0  0
 17 19  1  0  0  0  0
 17 20  1  0  0  0  0
 18 17  1  0  0  0  0
M  RAD  2   3   2   4   2
M  END
