Coordinates from ORCA-job Ph-N2-OOCCH3-B3LYPG-aug-cc-pVDZ-scan-d09-49-n400
 OpenBabel10311713213D

 20 18  0  0  0  0  0  0  0  0999 V2000
   13.4082    6.0418    2.4256 C   0  0  0  0  0  0  0  0  0  0  0  0
   12.6355    5.2246    1.5629 C   0  0  0  0  0  0  0  0  0  0  0  0
   12.0920    4.2037    2.3128 C   0  0  0  0  0  0  0  0  0  0  0  0
   12.1687    3.9216    3.5320 C   0  0  0  0  0  0  0  0  0  0  0  0
   12.9126    4.6835    4.4371 C   0  0  0  0  0  0  0  0  0  0  0  0
   13.5399    5.7802    3.8046 C   0  0  0  0  0  0  0  0  0  0  0  0
   13.9192    6.9067    1.9980 H   0  0  0  0  0  0  0  0  0  0  0  0
   12.5221    5.4116    0.4982 H   0  0  0  0  0  0  0  0  0  0  0  0
   10.3587    3.1436   -1.9136 N   0  0  0  0  0  0  0  0  0  0  0  0
   10.0820    2.2351   -2.4767 N   0  0  0  0  0  0  0  0  0  0  0  0
   14.1509    6.4531    4.4093 H   0  0  0  0  0  0  0  0  0  0  0  0
   13.0178    4.4894    5.5032 H   0  0  0  0  0  0  0  0  0  0  0  0
   10.6213    2.0265    3.2004 H   0  0  0  0  0  0  0  0  0  0  0  0
    9.5963    1.3457    1.2238 O   0  0  0  0  0  0  0  0  0  0  0  0
    9.4181    0.8453    2.3143 C   0  0  0  0  0  0  0  0  0  0  0  0
   10.0458    1.2745    3.4354 O   0  0  0  0  0  0  0  0  0  0  0  0
    8.4930   -0.3078    2.6048 C   0  0  0  0  0  0  0  0  0  0  0  0
    8.0157   -0.6362    1.6777 H   0  0  0  0  0  0  0  0  0  0  0  0
    9.0582   -1.1351    3.0545 H   0  0  0  0  0  0  0  0  0  0  0  0
    7.7315    0.0020    3.3332 H   0  0  0  0  0  0  0  0  0  0  0  0
  1  6  2  0  0  0  0
  2  3  2  0  0  0  0
  2  1  1  0  0  0  0
  3  4  1  0  0  0  0
  4  5  2  0  0  0  0
  5 12  1  0  0  0  0
  6 11  1  0  0  0  0
  6  5  1  0  0  0  0
  7  1  1  0  0  0  0
  8  2  1  0  0  0  0
 10  9  3  0  0  0  0
 13 16  1  0  0  0  0
 14 15  2  0  0  0  0
 15 17  1  0  0  0  0
 15 16  1  0  0  0  0
 17 19  1  0  0  0  0
 17 20  1  0  0  0  0
 18 17  1  0  0  0  0
M  RAD  2   3   2   4   2
M  END
