Coordinates from ORCA-job Ph-N2-OOCCH3-B3LYPG-aug-cc-pVDZ-scan-d09-49-n400
 OpenBabel10311713213D

 20 18  0  0  0  0  0  0  0  0999 V2000
   13.4505    6.0725    2.4314 C   0  0  0  0  0  0  0  0  0  0  0  0
   12.7233    5.3583    1.4464 C   0  0  0  0  0  0  0  0  0  0  0  0
   12.0951    4.2980    2.0624 C   0  0  0  0  0  0  0  0  0  0  0  0
   12.0670    3.9054    3.2538 C   0  0  0  0  0  0  0  0  0  0  0  0
   12.7633    4.5660    4.2714 C   0  0  0  0  0  0  0  0  0  0  0  0
   13.4683    5.6899    3.7874 C   0  0  0  0  0  0  0  0  0  0  0  0
   14.0163    6.9524    2.1188 H   0  0  0  0  0  0  0  0  0  0  0  0
   12.6971    5.6389    0.3968 H   0  0  0  0  0  0  0  0  0  0  0  0
   10.5826    3.3636   -1.8072 N   0  0  0  0  0  0  0  0  0  0  0  0
   10.2510    2.5331   -2.4546 N   0  0  0  0  0  0  0  0  0  0  0  0
   14.0498    6.2866    4.4928 H   0  0  0  0  0  0  0  0  0  0  0  0
   12.7815    4.2779    5.3212 H   0  0  0  0  0  0  0  0  0  0  0  0
   10.6073    2.0332    3.0827 H   0  0  0  0  0  0  0  0  0  0  0  0
    9.5052    1.1654    1.2239 O   0  0  0  0  0  0  0  0  0  0  0  0
    9.3799    0.7658    2.3614 C   0  0  0  0  0  0  0  0  0  0  0  0
   10.0462    1.3042    3.4104 O   0  0  0  0  0  0  0  0  0  0  0  0
    8.4873   -0.3680    2.7957 C   0  0  0  0  0  0  0  0  0  0  0  0
    7.9683   -0.7785    1.9255 H   0  0  0  0  0  0  0  0  0  0  0  0
    9.0875   -1.1487    3.2821 H   0  0  0  0  0  0  0  0  0  0  0  0
    7.7598   -0.0067    3.5350 H   0  0  0  0  0  0  0  0  0  0  0  0
  1  6  2  0  0  0  0
  2  3  2  0  0  0  0
  2  1  1  0  0  0  0
  3  4  1  0  0  0  0
  4  5  2  0  0  0  0
  5 12  1  0  0  0  0
  6  5  1  0  0  0  0
  6 11  1  0  0  0  0
  7  1  1  0  0  0  0
  8  2  1  0  0  0  0
 10  9  3  0  0  0  0
 13 16  1  0  0  0  0
 14 15  2  0  0  0  0
 15 17  1  0  0  0  0
 15 16  1  0  0  0  0
 17 19  1  0  0  0  0
 17 20  1  0  0  0  0
 18 17  1  0  0  0  0
M  RAD  2   3   2   4   2
M  END
