Coordinates from ORCA-job Ph-N2-OOCCH3-B3LYPG-aug-cc-pVDZ-scan-d09-49-n400
 OpenBabel11081710403D

 20 20  0  0  0  0  0  0  0  0999 V2000
   12.7214    5.9930    2.2523 C   0  0  0  0  0  0  0  0  0  0  0  0
   12.3799    5.1502    1.1953 C   0  0  0  0  0  0  0  0  0  0  0  0
   12.0368    3.8202    1.4734 C   0  0  0  0  0  0  0  0  0  0  0  0
   12.0919    3.2974    2.7738 C   0  0  0  0  0  0  0  0  0  0  0  0
   12.4672    4.1496    3.8122 C   0  0  0  0  0  0  0  0  0  0  0  0
   12.7672    5.4933    3.5588 C   0  0  0  0  0  0  0  0  0  0  0  0
   12.9668    7.0360    2.0538 H   0  0  0  0  0  0  0  0  0  0  0  0
   12.3586    5.5091    0.1672 H   0  0  0  0  0  0  0  0  0  0  0  0
   11.7255    2.9993    0.3942 N   0  0  0  0  0  0  0  0  0  0  0  0
   10.9595    2.1461    0.1574 N   0  0  0  0  0  0  0  0  0  0  0  0
   13.0521    6.1503    4.3809 H   0  0  0  0  0  0  0  0  0  0  0  0
   12.5265    3.7588    4.8279 H   0  0  0  0  0  0  0  0  0  0  0  0
   11.8805    2.2429    2.9413 H   0  0  0  0  0  0  0  0  0  0  0  0
    9.6918    1.9781    1.3965 O   0  0  0  0  0  0  0  0  0  0  0  0
    9.8578    0.8502    2.0597 C   0  0  0  0  0  0  0  0  0  0  0  0
   10.9244    0.2483    2.1436 O   0  0  0  0  0  0  0  0  0  0  0  0
    8.5821    0.3665    2.7283 C   0  0  0  0  0  0  0  0  0  0  0  0
    7.9971    1.2067    3.1214 H   0  0  0  0  0  0  0  0  0  0  0  0
    7.9681   -0.1454    1.9736 H   0  0  0  0  0  0  0  0  0  0  0  0
    8.8323   -0.3409    3.5257 H   0  0  0  0  0  0  0  0  0  0  0  0
  1  6  2  0  0  0  0
  2  3  2  0  0  0  0
  2  1  1  0  0  0  0
  3  4  1  0  0  0  0
  4 13  1  0  0  0  0
  4  5  2  0  0  0  0
  5 12  1  0  0  0  0
  6  5  1  0  0  0  0
  6 11  1  0  0  0  0
  7  1  1  0  0  0  0
  8  2  1  0  0  0  0
  9  3  1  0  0  0  0
 10  9  1  0  0  0  0
 10 14  1  0  0  0  0
 14 15  1  0  0  0  0
 15 16  2  0  0  0  0
 15 17  1  0  0  0  0
 17 18  1  0  0  0  0
 17 20  1  0  0  0  0
 19 17  1  0  0  0  0
M  RAD  2   9   2  10   2
M  END
