Coordinates from ORCA-job Ph-N2-OOCCH3-B3LYPG-aug-cc-pVDZ-scan-d09-49-n400
 OpenBabel10311713213D

 20 18  0  0  0  0  0  0  0  0999 V2000
   13.4516    6.0734    2.4297 C   0  0  0  0  0  0  0  0  0  0  0  0
   12.7276    5.3680    1.4358 C   0  0  0  0  0  0  0  0  0  0  0  0
   12.0939    4.3059    2.0420 C   0  0  0  0  0  0  0  0  0  0  0  0
   12.0570    3.9028    3.2298 C   0  0  0  0  0  0  0  0  0  0  0  0
   12.7504    4.5557    4.2550 C   0  0  0  0  0  0  0  0  0  0  0  0
   13.4610    5.6811    3.7829 C   0  0  0  0  0  0  0  0  0  0  0  0
   14.0212    6.9540    2.1262 H   0  0  0  0  0  0  0  0  0  0  0  0
   12.7074    5.6557    0.3880 H   0  0  0  0  0  0  0  0  0  0  0  0
   10.5942    3.3640   -1.7644 N   0  0  0  0  0  0  0  0  0  0  0  0
   10.2595    2.5325   -2.4090 N   0  0  0  0  0  0  0  0  0  0  0  0
   14.0402    6.2712    4.4957 H   0  0  0  0  0  0  0  0  0  0  0  0
   12.7624    4.2602    5.3029 H   0  0  0  0  0  0  0  0  0  0  0  0
   10.6117    2.0350    3.0790 H   0  0  0  0  0  0  0  0  0  0  0  0
    9.5019    1.1690    1.2239 O   0  0  0  0  0  0  0  0  0  0  0  0
    9.3812    0.7683    2.3615 C   0  0  0  0  0  0  0  0  0  0  0  0
   10.0518    1.3054    3.4082 O   0  0  0  0  0  0  0  0  0  0  0  0
    8.4899   -0.3656    2.7982 C   0  0  0  0  0  0  0  0  0  0  0  0
    7.9677   -0.7754    1.9296 H   0  0  0  0  0  0  0  0  0  0  0  0
    9.0917   -1.1468    3.2819 H   0  0  0  0  0  0  0  0  0  0  0  0
    7.7652   -0.0046    3.5404 H   0  0  0  0  0  0  0  0  0  0  0  0
  1  6  2  0  0  0  0
  2  3  2  0  0  0  0
  2  1  1  0  0  0  0
  3  4  1  0  0  0  0
  4  5  2  0  0  0  0
  5 12  1  0  0  0  0
  6  5  1  0  0  0  0
  6 11  1  0  0  0  0
  7  1  1  0  0  0  0
  8  2  1  0  0  0  0
 10  9  3  0  0  0  0
 13 16  1  0  0  0  0
 14 15  2  0  0  0  0
 15 17  1  0  0  0  0
 15 16  1  0  0  0  0
 17 19  1  0  0  0  0
 17 20  1  0  0  0  0
 18 17  1  0  0  0  0
M  RAD  2   3   2   4   2
M  END
