Coordinates from ORCA-job Ph-N2-OOCCH3-B3LYPG-aug-cc-pVDZ-scan-d09-49-n400
 OpenBabel10311713213D

 20 18  0  0  0  0  0  0  0  0999 V2000
   13.3451    6.0769    2.3608 C   0  0  0  0  0  0  0  0  0  0  0  0
   12.7492    5.5265    1.1976 C   0  0  0  0  0  0  0  0  0  0  0  0
   12.1061    4.3770    1.5724 C   0  0  0  0  0  0  0  0  0  0  0  0
   11.9316    3.7421    2.6469 C   0  0  0  0  0  0  0  0  0  0  0  0
   12.5144    4.2653    3.8188 C   0  0  0  0  0  0  0  0  0  0  0  0
   13.2296    5.4648    3.6239 C   0  0  0  0  0  0  0  0  0  0  0  0
   13.9093    7.0061    2.2617 H   0  0  0  0  0  0  0  0  0  0  0  0
   12.8189    5.9738    0.2101 H   0  0  0  0  0  0  0  0  0  0  0  0
   11.1627    3.5781   -0.7651 N   0  0  0  0  0  0  0  0  0  0  0  0
   10.7488    2.7297   -1.3378 N   0  0  0  0  0  0  0  0  0  0  0  0
   13.7104    5.9381    4.4820 H   0  0  0  0  0  0  0  0  0  0  0  0
   12.4324    3.8043    4.8030 H   0  0  0  0  0  0  0  0  0  0  0  0
   10.7809    2.0030    2.9355 H   0  0  0  0  0  0  0  0  0  0  0  0
    9.3327    1.2584    1.2583 O   0  0  0  0  0  0  0  0  0  0  0  0
    9.3799    0.8209    2.3891 C   0  0  0  0  0  0  0  0  0  0  0  0
   10.2423    1.2776    3.3245 O   0  0  0  0  0  0  0  0  0  0  0  0
    8.5053   -0.2816    2.9308 C   0  0  0  0  0  0  0  0  0  0  0  0
    7.8326   -0.6342    2.1444 H   0  0  0  0  0  0  0  0  0  0  0  0
    9.1301   -1.1082    3.2948 H   0  0  0  0  0  0  0  0  0  0  0  0
    7.9251    0.0910    3.7858 H   0  0  0  0  0  0  0  0  0  0  0  0
  1  6  2  0  0  0  0
  2  3  2  0  0  0  0
  2  1  1  0  0  0  0
  3  4  1  0  0  0  0
  4  5  2  0  0  0  0
  5 12  1  0  0  0  0
  6  5  1  0  0  0  0
  6 11  1  0  0  0  0
  7  1  1  0  0  0  0
  8  2  1  0  0  0  0
 10  9  3  0  0  0  0
 13 16  1  0  0  0  0
 14 15  2  0  0  0  0
 15 17  1  0  0  0  0
 15 16  1  0  0  0  0
 17 19  1  0  0  0  0
 17 20  1  0  0  0  0
 18 17  1  0  0  0  0
M  RAD  2   3   2   4   2
M  END
