Coordinates from ORCA-job Ph-N2-OOCCH3-B3LYPG-aug-cc-pVDZ-scan-d09-49-n400
 OpenBabel11081710403D

 20 19  0  0  0  0  0  0  0  0999 V2000
   12.2027    5.8375    2.3198 C   0  0  0  0  0  0  0  0  0  0  0  0
   11.9102    4.9003    1.3541 C   0  0  0  0  0  0  0  0  0  0  0  0
   12.2042    3.4741    1.5533 C   0  0  0  0  0  0  0  0  0  0  0  0
   12.8031    3.1407    2.8555 C   0  0  0  0  0  0  0  0  0  0  0  0
   13.0709    4.1211    3.7884 C   0  0  0  0  0  0  0  0  0  0  0  0
   12.7852    5.4694    3.5423 C   0  0  0  0  0  0  0  0  0  0  0  0
   11.9679    6.8827    2.1169 H   0  0  0  0  0  0  0  0  0  0  0  0
   11.4531    5.1612    0.4004 H   0  0  0  0  0  0  0  0  0  0  0  0
   11.9963    2.8041    0.8977 N   0  0  0  0  0  0  0  0  0  0  0  0
   11.6564    1.9876    0.1515 N   0  0  0  0  0  0  0  0  0  0  0  0
   13.0092    6.2257    4.2928 H   0  0  0  0  0  0  0  0  0  0  0  0
   13.5095    3.8188    4.7396 H   0  0  0  0  0  0  0  0  0  0  0  0
   12.9787    2.0834    3.0309 H   0  0  0  0  0  0  0  0  0  0  0  0
    9.5956    1.5928    0.7739 O   0  0  0  0  0  0  0  0  0  0  0  0
    9.6460    1.1934    1.9939 C   0  0  0  0  0  0  0  0  0  0  0  0
   10.6332    1.2689    2.7540 O   0  0  0  0  0  0  0  0  0  0  0  0
    8.3332    0.5902    2.5063 C   0  0  0  0  0  0  0  0  0  0  0  0
    7.5588    1.3691    2.5310 H   0  0  0  0  0  0  0  0  0  0  0  0
    7.9904   -0.1966    1.8224 H   0  0  0  0  0  0  0  0  0  0  0  0
    8.4829    0.1854    3.5131 H   0  0  0  0  0  0  0  0  0  0  0  0
  1  6  2  0  0  0  0
  2  3  2  0  0  0  0
  2  1  1  0  0  0  0
  3  4  1  0  0  0  0
  4 13  1  0  0  0  0
  4  5  2  0  0  0  0
  5 12  1  0  0  0  0
  6  5  1  0  0  0  0
  6 11  1  0  0  0  0
  7  1  1  0  0  0  0
  8  2  1  0  0  0  0
  9  3  1  0  0  0  0
 10  9  1  0  0  0  0
 14 15  2  0  0  0  0
 15 17  1  0  0  0  0
 15 16  1  0  0  0  0
 17 18  1  0  0  0  0
 17 20  1  0  0  0  0
 19 17  1  0  0  0  0
M  RAD  3   9   2  10   3  16   2
M  END
