Coordinates from ORCA-job Ph-N2-OOCCH3-B3LYPG-aug-cc-pVDZ-scan-d09-49-n400
 OpenBabel10311713213D

 20 18  0  0  0  0  0  0  0  0999 V2000
   13.3606    6.0800    2.3670 C   0  0  0  0  0  0  0  0  0  0  0  0
   12.7480    5.5108    1.2206 C   0  0  0  0  0  0  0  0  0  0  0  0
   12.1053    4.3713    1.6273 C   0  0  0  0  0  0  0  0  0  0  0  0
   11.9466    3.7635    2.7179 C   0  0  0  0  0  0  0  0  0  0  0  0
   12.5429    4.3007    3.8746 C   0  0  0  0  0  0  0  0  0  0  0  0
   13.2597    5.4938    3.6437 C   0  0  0  0  0  0  0  0  0  0  0  0
   13.9274    7.0049    2.2435 H   0  0  0  0  0  0  0  0  0  0  0  0
   12.8076    5.9400    0.2247 H   0  0  0  0  0  0  0  0  0  0  0  0
   11.1054    3.5617   -0.8875 N   0  0  0  0  0  0  0  0  0  0  0  0
   10.7031    2.7212   -1.4793 N   0  0  0  0  0  0  0  0  0  0  0  0
   13.7540    5.9828    4.4852 H   0  0  0  0  0  0  0  0  0  0  0  0
   12.4722    3.8592    4.8683 H   0  0  0  0  0  0  0  0  0  0  0  0
   10.7579    2.0005    2.9540 H   0  0  0  0  0  0  0  0  0  0  0  0
    9.3418    1.2397    1.2530 O   0  0  0  0  0  0  0  0  0  0  0  0
    9.3732    0.8079    2.3863 C   0  0  0  0  0  0  0  0  0  0  0  0
   10.2165    1.2751    3.3351 O   0  0  0  0  0  0  0  0  0  0  0  0
    8.4984   -0.2984    2.9193 C   0  0  0  0  0  0  0  0  0  0  0  0
    7.8387   -0.6574    2.1248 H   0  0  0  0  0  0  0  0  0  0  0  0
    9.1235   -1.1202    3.2935 H   0  0  0  0  0  0  0  0  0  0  0  0
    7.9045    0.0724    3.7656 H   0  0  0  0  0  0  0  0  0  0  0  0
  1  6  2  0  0  0  0
  2  3  2  0  0  0  0
  2  1  1  0  0  0  0
  3  4  1  0  0  0  0
  4  5  2  0  0  0  0
  5 12  1  0  0  0  0
  6  5  1  0  0  0  0
  6 11  1  0  0  0  0
  7  1  1  0  0  0  0
  8  2  1  0  0  0  0
 10  9  3  0  0  0  0
 13 16  1  0  0  0  0
 14 15  2  0  0  0  0
 15 17  1  0  0  0  0
 15 16  1  0  0  0  0
 17 19  1  0  0  0  0
 17 20  1  0  0  0  0
 18 17  1  0  0  0  0
M  RAD  2   3   2   4   2
M  END
