Coordinates from ORCA-job Ph-N2-OOCCH3-B3LYPG-aug-cc-pVDZ-scan-d09-49-n400
 OpenBabel10311713213D

 20 18  0  0  0  0  0  0  0  0999 V2000
   13.2967    6.0554    2.3288 C   0  0  0  0  0  0  0  0  0  0  0  0
   12.7342    5.5193    1.1494 C   0  0  0  0  0  0  0  0  0  0  0  0
   12.0942    4.3503    1.4675 C   0  0  0  0  0  0  0  0  0  0  0  0
   11.8817    3.6559    2.5149 C   0  0  0  0  0  0  0  0  0  0  0  0
   12.4493    4.1953    3.6967 C   0  0  0  0  0  0  0  0  0  0  0  0
   13.1546    5.4048    3.5691 C   0  0  0  0  0  0  0  0  0  0  0  0
   13.8494    6.9937    2.2638 H   0  0  0  0  0  0  0  0  0  0  0  0
   12.8164    5.9842    0.1703 H   0  0  0  0  0  0  0  0  0  0  0  0
   11.3060    3.5934   -0.3760 N   0  0  0  0  0  0  0  0  0  0  0  0
   10.8472    2.7352   -0.9005 N   0  0  0  0  0  0  0  0  0  0  0  0
   13.6046    5.8555    4.4556 H   0  0  0  0  0  0  0  0  0  0  0  0
   12.3498    3.7088    4.6682 H   0  0  0  0  0  0  0  0  0  0  0  0
   10.8627    2.0263    2.8764 H   0  0  0  0  0  0  0  0  0  0  0  0
    9.2711    1.3804    1.2737 O   0  0  0  0  0  0  0  0  0  0  0  0
    9.3990    0.8867    2.3775 C   0  0  0  0  0  0  0  0  0  0  0  0
   10.3378    1.2745    3.2599 O   0  0  0  0  0  0  0  0  0  0  0  0
    8.5383   -0.2251    2.9255 C   0  0  0  0  0  0  0  0  0  0  0  0
    7.8264   -0.5485    2.1613 H   0  0  0  0  0  0  0  0  0  0  0  0
    9.1688   -1.0669    3.2407 H   0  0  0  0  0  0  0  0  0  0  0  0
    7.9993    0.1305    3.8144 H   0  0  0  0  0  0  0  0  0  0  0  0
  1  6  2  0  0  0  0
  2  3  2  0  0  0  0
  2  1  1  0  0  0  0
  3  4  1  0  0  0  0
  4  5  2  0  0  0  0
  5 12  1  0  0  0  0
  6  5  1  0  0  0  0
  6 11  1  0  0  0  0
  7  1  1  0  0  0  0
  8  2  1  0  0  0  0
 10  9  3  0  0  0  0
 13 16  1  0  0  0  0
 14 15  2  0  0  0  0
 15 17  1  0  0  0  0
 15 16  1  0  0  0  0
 17 19  1  0  0  0  0
 17 20  1  0  0  0  0
 18 17  1  0  0  0  0
M  RAD  2   3   2   4   2
M  END
