Coordinates from ORCA-job Ph-N2-OOCCH3-B3LYPG-aug-cc-pVDZ-scan-d09-49-n400
 OpenBabel10311713213D

 20 18  0  0  0  0  0  0  0  0999 V2000
   13.3515    6.0778    2.3637 C   0  0  0  0  0  0  0  0  0  0  0  0
   12.7491    5.5210    1.2069 C   0  0  0  0  0  0  0  0  0  0  0  0
   12.1048    4.3747    1.5916 C   0  0  0  0  0  0  0  0  0  0  0  0
   11.9373    3.7519    2.6733 C   0  0  0  0  0  0  0  0  0  0  0  0
   12.5247    4.2785    3.8401 C   0  0  0  0  0  0  0  0  0  0  0  0
   13.2411    5.4753    3.6319 C   0  0  0  0  0  0  0  0  0  0  0  0
   13.9171    7.0052    2.2555 H   0  0  0  0  0  0  0  0  0  0  0  0
   12.8155    5.9619    0.2163 H   0  0  0  0  0  0  0  0  0  0  0  0
   11.1398    3.5723   -0.8154 N   0  0  0  0  0  0  0  0  0  0  0  0
   10.7310    2.7269   -1.3960 N   0  0  0  0  0  0  0  0  0  0  0  0
   13.7272    5.9540    4.4840 H   0  0  0  0  0  0  0  0  0  0  0  0
   12.4463    3.8244    4.8276 H   0  0  0  0  0  0  0  0  0  0  0  0
   10.7707    2.0026    2.9428 H   0  0  0  0  0  0  0  0  0  0  0  0
    9.3381    1.2510    1.2575 O   0  0  0  0  0  0  0  0  0  0  0  0
    9.3778    0.8158    2.3893 C   0  0  0  0  0  0  0  0  0  0  0  0
   10.2318    1.2777    3.3305 O   0  0  0  0  0  0  0  0  0  0  0  0
    8.5029   -0.2883    2.9270 C   0  0  0  0  0  0  0  0  0  0  0  0
    7.8359   -0.6436    2.1371 H   0  0  0  0  0  0  0  0  0  0  0  0
    9.1279   -1.1128    3.2954 H   0  0  0  0  0  0  0  0  0  0  0  0
    7.9168    0.0835    3.7784 H   0  0  0  0  0  0  0  0  0  0  0  0
  1  6  2  0  0  0  0
  2  3  2  0  0  0  0
  2  1  1  0  0  0  0
  3  4  1  0  0  0  0
  4  5  2  0  0  0  0
  5 12  1  0  0  0  0
  6  5  1  0  0  0  0
  6 11  1  0  0  0  0
  7  1  1  0  0  0  0
  8  2  1  0  0  0  0
 10  9  3  0  0  0  0
 13 16  1  0  0  0  0
 14 15  2  0  0  0  0
 15 17  1  0  0  0  0
 15 16  1  0  0  0  0
 17 19  1  0  0  0  0
 17 20  1  0  0  0  0
 18 17  1  0  0  0  0
M  RAD  2   3   2   4   2
M  END
