Coordinates from ORCA-job Ph-N2-OOCCH3-B3LYPG-aug-cc-pVDZ-scan-d09-49-n400
 OpenBabel10311713213D

 20 18  0  0  0  0  0  0  0  0999 V2000
   13.2937    6.0520    2.3250 C   0  0  0  0  0  0  0  0  0  0  0  0
   12.7341    5.5116    1.1477 C   0  0  0  0  0  0  0  0  0  0  0  0
   12.0928    4.3420    1.4630 C   0  0  0  0  0  0  0  0  0  0  0  0
   11.8763    3.6443    2.5114 C   0  0  0  0  0  0  0  0  0  0  0  0
   12.4439    4.1931    3.6901 C   0  0  0  0  0  0  0  0  0  0  0  0
   13.1487    5.4025    3.5655 C   0  0  0  0  0  0  0  0  0  0  0  0
   13.8455    6.9906    2.2592 H   0  0  0  0  0  0  0  0  0  0  0  0
   12.8174    5.9736    0.1671 H   0  0  0  0  0  0  0  0  0  0  0  0
   11.3159    3.5888   -0.3403 N   0  0  0  0  0  0  0  0  0  0  0  0
   10.8344    2.7437   -0.8660 N   0  0  0  0  0  0  0  0  0  0  0  0
   13.5957    5.8537    4.4531 H   0  0  0  0  0  0  0  0  0  0  0  0
   12.3430    3.7083    4.6625 H   0  0  0  0  0  0  0  0  0  0  0  0
   10.8737    2.0304    2.8725 H   0  0  0  0  0  0  0  0  0  0  0  0
    9.2676    1.3946    1.2749 O   0  0  0  0  0  0  0  0  0  0  0  0
    9.4018    0.8959    2.3763 C   0  0  0  0  0  0  0  0  0  0  0  0
   10.3486    1.2737    3.2525 O   0  0  0  0  0  0  0  0  0  0  0  0
    8.5435   -0.2196    2.9211 C   0  0  0  0  0  0  0  0  0  0  0  0
    7.8341   -0.5445    2.1553 H   0  0  0  0  0  0  0  0  0  0  0  0
    9.1755   -1.0597    3.2380 H   0  0  0  0  0  0  0  0  0  0  0  0
    8.0011    0.1344    3.8086 H   0  0  0  0  0  0  0  0  0  0  0  0
  1  6  2  0  0  0  0
  2  3  2  0  0  0  0
  2  1  1  0  0  0  0
  3  4  1  0  0  0  0
  4  5  2  0  0  0  0
  5 12  1  0  0  0  0
  6  5  1  0  0  0  0
  6 11  1  0  0  0  0
  7  1  1  0  0  0  0
  8  2  1  0  0  0  0
 10  9  3  0  0  0  0
 13 16  1  0  0  0  0
 14 15  2  0  0  0  0
 15 17  1  0  0  0  0
 15 16  1  0  0  0  0
 17 19  1  0  0  0  0
 17 20  1  0  0  0  0
 18 17  1  0  0  0  0
M  RAD  2   3   2   4   2
M  END
