Coordinates from ORCA-job Ph-N2-OOCCH3-B3LYPG-aug-cc-pVDZ-scan-d09-49-n400
 OpenBabel10311713213D

 20 18  0  0  0  0  0  0  0  0999 V2000
   13.3054    6.0645    2.3416 C   0  0  0  0  0  0  0  0  0  0  0  0
   12.7395    5.5315    1.1592 C   0  0  0  0  0  0  0  0  0  0  0  0
   12.1029    4.3647    1.4869 C   0  0  0  0  0  0  0  0  0  0  0  0
   11.8992    3.6807    2.5352 C   0  0  0  0  0  0  0  0  0  0  0  0
   12.4641    4.2060    3.7216 C   0  0  0  0  0  0  0  0  0  0  0  0
   13.1689    5.4165    3.5840 C   0  0  0  0  0  0  0  0  0  0  0  0
   13.8588    7.0027    2.2754 H   0  0  0  0  0  0  0  0  0  0  0  0
   12.8212    5.9998    0.1820 H   0  0  0  0  0  0  0  0  0  0  0  0
   11.2785    3.5898   -0.4965 N   0  0  0  0  0  0  0  0  0  0  0  0
   10.8543    2.7188   -1.0275 N   0  0  0  0  0  0  0  0  0  0  0  0
   13.6232    5.8700    4.4668 H   0  0  0  0  0  0  0  0  0  0  0  0
   12.3671    3.7198    4.6931 H   0  0  0  0  0  0  0  0  0  0  0  0
   10.8416    2.0142    2.8882 H   0  0  0  0  0  0  0  0  0  0  0  0
    9.2689    1.3585    1.2798 O   0  0  0  0  0  0  0  0  0  0  0  0
    9.3867    0.8713    2.3863 C   0  0  0  0  0  0  0  0  0  0  0  0
   10.3168    1.2707    3.2769 O   0  0  0  0  0  0  0  0  0  0  0  0
    8.5270   -0.2396    2.9361 C   0  0  0  0  0  0  0  0  0  0  0  0
    7.8116   -0.5604    2.1742 H   0  0  0  0  0  0  0  0  0  0  0  0
    9.1584   -1.0833    3.2450 H   0  0  0  0  0  0  0  0  0  0  0  0
    7.9933    0.1135    3.8291 H   0  0  0  0  0  0  0  0  0  0  0  0
  1  6  2  0  0  0  0
  2  3  2  0  0  0  0
  2  1  1  0  0  0  0
  3  4  1  0  0  0  0
  4  5  2  0  0  0  0
  5 12  1  0  0  0  0
  6  5  1  0  0  0  0
  6 11  1  0  0  0  0
  7  1  1  0  0  0  0
  8  2  1  0  0  0  0
 10  9  3  0  0  0  0
 13 16  1  0  0  0  0
 14 15  2  0  0  0  0
 15 17  1  0  0  0  0
 15 16  1  0  0  0  0
 17 19  1  0  0  0  0
 17 20  1  0  0  0  0
 18 17  1  0  0  0  0
M  RAD  2   3   2   4   2
M  END
