Coordinates from ORCA-job Ph-N2-OOCCH3-B3LYPG-aug-cc-pVDZ-scan-d09-49-n400
 OpenBabel10311713213D

 20 19  0  0  0  0  0  0  0  0999 V2000
   12.5665    5.9851    2.3250 C   0  0  0  0  0  0  0  0  0  0  0  0
   12.3107    5.1596    1.2194 C   0  0  0  0  0  0  0  0  0  0  0  0
   12.1458    3.8261    1.5166 C   0  0  0  0  0  0  0  0  0  0  0  0
   12.2442    3.1987    2.7339 C   0  0  0  0  0  0  0  0  0  0  0  0
   12.5119    4.0574    3.8126 C   0  0  0  0  0  0  0  0  0  0  0  0
   12.6675    5.4335    3.6077 C   0  0  0  0  0  0  0  0  0  0  0  0
   12.6922    7.0571    2.1730 H   0  0  0  0  0  0  0  0  0  0  0  0
   12.2389    5.5453    0.2052 H   0  0  0  0  0  0  0  0  0  0  0  0
   11.8829    2.7541    0.1046 N   0  0  0  0  0  0  0  0  0  0  0  0
   11.0710    1.9501   -0.0422 N   0  0  0  0  0  0  0  0  0  0  0  0
   12.8756    6.0841    4.4571 H   0  0  0  0  0  0  0  0  0  0  0  0
   12.5981    3.6364    4.8144 H   0  0  0  0  0  0  0  0  0  0  0  0
   12.1008    2.1212    2.8405 H   0  0  0  0  0  0  0  0  0  0  0  0
    9.7037    1.9402    1.2374 O   0  0  0  0  0  0  0  0  0  0  0  0
    9.8691    0.9463    2.0719 C   0  0  0  0  0  0  0  0  0  0  0  0
   10.9407    0.3785    2.2922 O   0  0  0  0  0  0  0  0  0  0  0  0
    8.5802    0.5404    2.7762 C   0  0  0  0  0  0  0  0  0  0  0  0
    7.9762    1.4194    3.0313 H   0  0  0  0  0  0  0  0  0  0  0  0
    7.9916   -0.0829    2.0882 H   0  0  0  0  0  0  0  0  0  0  0  0
    8.8199   -0.0411    3.6725 H   0  0  0  0  0  0  0  0  0  0  0  0
  1  6  2  0  0  0  0
  2  3  2  0  0  0  0
  2  1  1  0  0  0  0
  3  4  1  0  0  0  0
  4 13  1  0  0  0  0
  4  5  2  0  0  0  0
  5 12  1  0  0  0  0
  6  5  1  0  0  0  0
  6 11  1  0  0  0  0
  7  1  1  0  0  0  0
  8  2  1  0  0  0  0
  9  3  1  0  0  0  0
 10  9  2  0  0  0  0
 14 15  2  0  0  0  0
 15 16  1  0  0  0  0
 15 17  1  0  0  0  0
 17 18  1  0  0  0  0
 17 20  1  0  0  0  0
 19 17  1  0  0  0  0
M  RAD  2  10   2  16   2
M  END
