Coordinates from ORCA-job Ph-N2-OOCCH3-B3LYPG-aug-cc-pVDZ-scan-d09-49-n400
 OpenBabel10311713213D

 20 18  0  0  0  0  0  0  0  0999 V2000
   13.3839    6.0834    2.3805 C   0  0  0  0  0  0  0  0  0  0  0  0
   12.7472    5.4881    1.2616 C   0  0  0  0  0  0  0  0  0  0  0  0
   12.1003    4.3609    1.7044 C   0  0  0  0  0  0  0  0  0  0  0  0
   11.9682    3.7975    2.8211 C   0  0  0  0  0  0  0  0  0  0  0  0
   12.5838    4.3534    3.9553 C   0  0  0  0  0  0  0  0  0  0  0  0
   13.3033    5.5344    3.6752 C   0  0  0  0  0  0  0  0  0  0  0  0
   13.9545    7.0004    2.2216 H   0  0  0  0  0  0  0  0  0  0  0  0
   12.7926    5.8908    0.2537 H   0  0  0  0  0  0  0  0  0  0  0  0
   10.9987    3.5138   -1.0616 N   0  0  0  0  0  0  0  0  0  0  0  0
   10.6112    2.6803   -1.6730 N   0  0  0  0  0  0  0  0  0  0  0  0
   13.8165    6.0434    4.4932 H   0  0  0  0  0  0  0  0  0  0  0  0
   12.5279    3.9392    4.9614 H   0  0  0  0  0  0  0  0  0  0  0  0
   10.7274    2.0031    2.9753 H   0  0  0  0  0  0  0  0  0  0  0  0
    9.3712    1.2221    1.2449 O   0  0  0  0  0  0  0  0  0  0  0  0
    9.3726    0.7961    2.3804 C   0  0  0  0  0  0  0  0  0  0  0  0
   10.1843    1.2781    3.3502 O   0  0  0  0  0  0  0  0  0  0  0  0
    8.4939   -0.3154    2.8951 C   0  0  0  0  0  0  0  0  0  0  0  0
    7.8587   -0.6837    2.0851 H   0  0  0  0  0  0  0  0  0  0  0  0
    9.1163   -1.1299    3.2892 H   0  0  0  0  0  0  0  0  0  0  0  0
    7.8748    0.0536    3.7239 H   0  0  0  0  0  0  0  0  0  0  0  0
  1  6  2  0  0  0  0
  2  3  2  0  0  0  0
  2  1  1  0  0  0  0
  3  4  1  0  0  0  0
  4  5  2  0  0  0  0
  5 12  1  0  0  0  0
  6  5  1  0  0  0  0
  6 11  1  0  0  0  0
  7  1  1  0  0  0  0
  8  2  1  0  0  0  0
 10  9  3  0  0  0  0
 13 16  1  0  0  0  0
 14 15  2  0  0  0  0
 15 17  1  0  0  0  0
 15 16  1  0  0  0  0
 17 19  1  0  0  0  0
 17 20  1  0  0  0  0
 18 17  1  0  0  0  0
M  RAD  2   3   2   4   2
M  END
