Coordinates from ORCA-job Ph-N2-OOCCH3-B3LYPG-aug-cc-pVDZ-scan-d09-49-n400
 OpenBabel10311713213D

 20 18  0  0  0  0  0  0  0  0999 V2000
   13.2795    6.0489    2.3160 C   0  0  0  0  0  0  0  0  0  0  0  0
   12.7287    5.4954    1.1433 C   0  0  0  0  0  0  0  0  0  0  0  0
   12.0915    4.3204    1.4543 C   0  0  0  0  0  0  0  0  0  0  0  0
   11.8740    3.6193    2.5086 C   0  0  0  0  0  0  0  0  0  0  0  0
   12.4371    4.1897    3.6807 C   0  0  0  0  0  0  0  0  0  0  0  0
   13.1331    5.4031    3.5581 C   0  0  0  0  0  0  0  0  0  0  0  0
   13.8239    6.9915    2.2474 H   0  0  0  0  0  0  0  0  0  0  0  0
   12.8117    5.9515    0.1597 H   0  0  0  0  0  0  0  0  0  0  0  0
   11.3497    3.5762   -0.2624 N   0  0  0  0  0  0  0  0  0  0  0  0
   10.8403    2.7460   -0.7870 N   0  0  0  0  0  0  0  0  0  0  0  0
   13.5723    5.8604    4.4467 H   0  0  0  0  0  0  0  0  0  0  0  0
   12.3370    3.7093    4.6557 H   0  0  0  0  0  0  0  0  0  0  0  0
   10.9061    2.0232    2.8509 H   0  0  0  0  0  0  0  0  0  0  0  0
    9.2356    1.4458    1.2888 O   0  0  0  0  0  0  0  0  0  0  0  0
    9.4088    0.9091    2.3680 C   0  0  0  0  0  0  0  0  0  0  0  0
   10.3873    1.2506    3.2199 O   0  0  0  0  0  0  0  0  0  0  0  0
    8.5485   -0.2057    2.9123 C   0  0  0  0  0  0  0  0  0  0  0  0
    7.8231   -0.5139    2.1545 H   0  0  0  0  0  0  0  0  0  0  0  0
    9.1764   -1.0554    3.2106 H   0  0  0  0  0  0  0  0  0  0  0  0
    8.0227    0.1441    3.8115 H   0  0  0  0  0  0  0  0  0  0  0  0
  1  6  2  0  0  0  0
  2  3  2  0  0  0  0
  2  1  1  0  0  0  0
  3  4  1  0  0  0  0
  4  5  2  0  0  0  0
  5 12  1  0  0  0  0
  6  5  1  0  0  0  0
  6 11  1  0  0  0  0
  7  1  1  0  0  0  0
  8  2  1  0  0  0  0
 10  9  3  0  0  0  0
 13 16  1  0  0  0  0
 14 15  2  0  0  0  0
 15 17  1  0  0  0  0
 15 16  1  0  0  0  0
 17 19  1  0  0  0  0
 17 20  1  0  0  0  0
 18 17  1  0  0  0  0
M  RAD  2   3   2   4   2
M  END
