Coordinates from ORCA-job Ph-N2-OOCCH3-B3LYPG-aug-cc-pVDZ-scan-d09-49-n400
 OpenBabel10311713213D

 20 18  0  0  0  0  0  0  0  0999 V2000
   13.4516    6.0733    2.4265 C   0  0  0  0  0  0  0  0  0  0  0  0
   12.7316    5.3792    1.4215 C   0  0  0  0  0  0  0  0  0  0  0  0
   12.0919    4.3155    2.0166 C   0  0  0  0  0  0  0  0  0  0  0  0
   12.0432    3.8981    3.1990 C   0  0  0  0  0  0  0  0  0  0  0  0
   12.7332    4.5413    4.2333 C   0  0  0  0  0  0  0  0  0  0  0  0
   13.4506    5.6686    3.7762 C   0  0  0  0  0  0  0  0  0  0  0  0
   14.0260    6.9546    2.1344 H   0  0  0  0  0  0  0  0  0  0  0  0
   12.7186    5.6756    0.3759 H   0  0  0  0  0  0  0  0  0  0  0  0
   10.6117    3.3666   -1.7073 N   0  0  0  0  0  0  0  0  0  0  0  0
   10.2730    2.5338   -2.3480 N   0  0  0  0  0  0  0  0  0  0  0  0
   14.0272    6.2502    4.4981 H   0  0  0  0  0  0  0  0  0  0  0  0
   12.7376    4.2366    5.2787 H   0  0  0  0  0  0  0  0  0  0  0  0
   10.6180    2.0381    3.0762 H   0  0  0  0  0  0  0  0  0  0  0  0
    9.4977    1.1748    1.2235 O   0  0  0  0  0  0  0  0  0  0  0  0
    9.3834    0.7727    2.3618 C   0  0  0  0  0  0  0  0  0  0  0  0
   10.0596    1.3075    3.4066 O   0  0  0  0  0  0  0  0  0  0  0  0
    8.4941   -0.3617    2.8013 C   0  0  0  0  0  0  0  0  0  0  0  0
    7.9676   -0.7703    1.9347 H   0  0  0  0  0  0  0  0  0  0  0  0
    9.0980   -1.1436    3.2812 H   0  0  0  0  0  0  0  0  0  0  0  0
    7.7729   -0.0015    3.5474 H   0  0  0  0  0  0  0  0  0  0  0  0
  1  6  2  0  0  0  0
  2  3  2  0  0  0  0
  2  1  1  0  0  0  0
  3  4  1  0  0  0  0
  4  5  2  0  0  0  0
  5 12  1  0  0  0  0
  6  5  1  0  0  0  0
  6 11  1  0  0  0  0
  7  1  1  0  0  0  0
  8  2  1  0  0  0  0
 10  9  3  0  0  0  0
 13 16  1  0  0  0  0
 14 15  2  0  0  0  0
 15 17  1  0  0  0  0
 15 16  1  0  0  0  0
 17 19  1  0  0  0  0
 17 20  1  0  0  0  0
 18 17  1  0  0  0  0
M  RAD  2   3   2   4   2
M  END
