Coordinates from ORCA-job Ph-N2-OOCCH3-B3LYPG-aug-cc-pVDZ-scan-d09-49-n400
 OpenBabel10311713213D

 20 18  0  0  0  0  0  0  0  0999 V2000
   13.3805    6.0836    2.3791 C   0  0  0  0  0  0  0  0  0  0  0  0
   12.7470    5.4905    1.2572 C   0  0  0  0  0  0  0  0  0  0  0  0
   12.1013    4.3613    1.6959 C   0  0  0  0  0  0  0  0  0  0  0  0
   11.9665    3.7929    2.8100 C   0  0  0  0  0  0  0  0  0  0  0  0
   12.5796    4.3477    3.9466 C   0  0  0  0  0  0  0  0  0  0  0  0
   13.2979    5.5305    3.6719 C   0  0  0  0  0  0  0  0  0  0  0  0
   13.9500    7.0020    2.2239 H   0  0  0  0  0  0  0  0  0  0  0  0
   12.7936    5.8960    0.2505 H   0  0  0  0  0  0  0  0  0  0  0  0
   11.0140    3.5220   -1.0446 N   0  0  0  0  0  0  0  0  0  0  0  0
   10.6258    2.6879   -1.6546 N   0  0  0  0  0  0  0  0  0  0  0  0
   13.8086    6.0378    4.4926 H   0  0  0  0  0  0  0  0  0  0  0  0
   12.5223    3.9306    4.9514 H   0  0  0  0  0  0  0  0  0  0  0  0
   10.7329    1.9996    2.9698 H   0  0  0  0  0  0  0  0  0  0  0  0
    9.3646    1.2231    1.2458 O   0  0  0  0  0  0  0  0  0  0  0  0
    9.3717    0.7961    2.3810 C   0  0  0  0  0  0  0  0  0  0  0  0
   10.1902    1.2750    3.3465 O   0  0  0  0  0  0  0  0  0  0  0  0
    8.4931   -0.3136    2.8996 C   0  0  0  0  0  0  0  0  0  0  0  0
    7.8527   -0.6799    2.0929 H   0  0  0  0  0  0  0  0  0  0  0  0
    9.1156   -1.1298    3.2901 H   0  0  0  0  0  0  0  0  0  0  0  0
    7.8792    0.0564    3.7319 H   0  0  0  0  0  0  0  0  0  0  0  0
  1  6  2  0  0  0  0
  2  3  2  0  0  0  0
  2  1  1  0  0  0  0
  3  4  1  0  0  0  0
  4  5  2  0  0  0  0
  5 12  1  0  0  0  0
  6  5  1  0  0  0  0
  6 11  1  0  0  0  0
  7  1  1  0  0  0  0
  8  2  1  0  0  0  0
 10  9  3  0  0  0  0
 13 16  1  0  0  0  0
 14 15  2  0  0  0  0
 15 17  1  0  0  0  0
 15 16  1  0  0  0  0
 17 19  1  0  0  0  0
 17 20  1  0  0  0  0
 18 17  1  0  0  0  0
M  RAD  2   3   2   4   2
M  END
