Coordinates from ORCA-job Ph-N2-OOCCH3-B3LYPG-aug-cc-pVDZ-scan-d09-49-n400
 OpenBabel11081710403D

 20 19  0  0  0  0  0  0  0  0999 V2000
   12.1958    5.8312    2.3187 C   0  0  0  0  0  0  0  0  0  0  0  0
   11.8995    4.8957    1.3551 C   0  0  0  0  0  0  0  0  0  0  0  0
   12.1938    3.4573    1.5449 C   0  0  0  0  0  0  0  0  0  0  0  0
   12.8047    3.1369    2.8572 C   0  0  0  0  0  0  0  0  0  0  0  0
   13.0722    4.1199    3.7847 C   0  0  0  0  0  0  0  0  0  0  0  0
   12.7836    5.4681    3.5402 C   0  0  0  0  0  0  0  0  0  0  0  0
   11.9595    6.8758    2.1131 H   0  0  0  0  0  0  0  0  0  0  0  0
   11.4406    5.1497    0.4005 H   0  0  0  0  0  0  0  0  0  0  0  0
   11.9923    2.8142    0.9185 N   0  0  0  0  0  0  0  0  0  0  0  0
   11.6607    1.9911    0.1653 N   0  0  0  0  0  0  0  0  0  0  0  0
   13.0099    6.2257    4.2885 H   0  0  0  0  0  0  0  0  0  0  0  0
   13.5165    3.8182    4.7337 H   0  0  0  0  0  0  0  0  0  0  0  0
   12.9829    2.0794    3.0284 H   0  0  0  0  0  0  0  0  0  0  0  0
    9.6117    1.5971    0.7786 O   0  0  0  0  0  0  0  0  0  0  0  0
    9.6543    1.1980    1.9998 C   0  0  0  0  0  0  0  0  0  0  0  0
   10.6346    1.2740    2.7667 O   0  0  0  0  0  0  0  0  0  0  0  0
    8.3361    0.5964    2.5005 C   0  0  0  0  0  0  0  0  0  0  0  0
    7.5681    1.3811    2.5354 H   0  0  0  0  0  0  0  0  0  0  0  0
    7.9886   -0.1782    1.8055 H   0  0  0  0  0  0  0  0  0  0  0  0
    8.4822    0.1778    3.5021 H   0  0  0  0  0  0  0  0  0  0  0  0
  1  6  2  0  0  0  0
  2  3  2  0  0  0  0
  2  1  1  0  0  0  0
  3  4  1  0  0  0  0
  4 13  1  0  0  0  0
  4  5  2  0  0  0  0
  5 12  1  0  0  0  0
  6  5  1  0  0  0  0
  6 11  1  0  0  0  0
  7  1  1  0  0  0  0
  8  2  1  0  0  0  0
  9  3  1  0  0  0  0
 10  9  1  0  0  0  0
 14 15  2  0  0  0  0
 15 17  1  0  0  0  0
 15 16  1  0  0  0  0
 17 18  1  0  0  0  0
 17 20  1  0  0  0  0
 19 17  1  0  0  0  0
M  RAD  3   9   2  10   3  16   2
M  END
