Coordinates from ORCA-job Ph-N2-OOCCH3-B3LYPG-aug-cc-pVDZ-scan-d09-49-n400
 OpenBabel10311713213D

 20 18  0  0  0  0  0  0  0  0999 V2000
   13.3226    6.0692    2.3523 C   0  0  0  0  0  0  0  0  0  0  0  0
   12.7447    5.5323    1.1751 C   0  0  0  0  0  0  0  0  0  0  0  0
   12.1054    4.3730    1.5218 C   0  0  0  0  0  0  0  0  0  0  0  0
   11.9136    3.7085    2.5792 C   0  0  0  0  0  0  0  0  0  0  0  0
   12.4843    4.2276    3.7623 C   0  0  0  0  0  0  0  0  0  0  0  0
   13.1941    5.4340    3.6023 C   0  0  0  0  0  0  0  0  0  0  0  0
   13.8813    7.0036    2.2747 H   0  0  0  0  0  0  0  0  0  0  0  0
   12.8232    5.9952    0.1953 H   0  0  0  0  0  0  0  0  0  0  0  0
   11.2261    3.5923   -0.6320 N   0  0  0  0  0  0  0  0  0  0  0  0
   10.8026    2.7363   -1.1864 N   0  0  0  0  0  0  0  0  0  0  0  0
   13.6595    5.8942    4.4758 H   0  0  0  0  0  0  0  0  0  0  0  0
   12.3926    3.7499    4.7380 H   0  0  0  0  0  0  0  0  0  0  0  0
   10.8135    2.0088    2.9177 H   0  0  0  0  0  0  0  0  0  0  0  0
    9.3145    1.3001    1.2689 O   0  0  0  0  0  0  0  0  0  0  0  0
    9.3907    0.8423    2.3907 C   0  0  0  0  0  0  0  0  0  0  0  0
   10.2797    1.2776    3.3091 O   0  0  0  0  0  0  0  0  0  0  0  0
    8.5167   -0.2578    2.9387 C   0  0  0  0  0  0  0  0  0  0  0  0
    7.8250   -0.5963    2.1626 H   0  0  0  0  0  0  0  0  0  0  0  0
    9.1405   -1.0934    3.2830 H   0  0  0  0  0  0  0  0  0  0  0  0
    7.9566    0.1122    3.8083 H   0  0  0  0  0  0  0  0  0  0  0  0
  1  6  2  0  0  0  0
  2  3  2  0  0  0  0
  2  1  1  0  0  0  0
  3  4  1  0  0  0  0
  4  5  2  0  0  0  0
  5 12  1  0  0  0  0
  6  5  1  0  0  0  0
  6 11  1  0  0  0  0
  7  1  1  0  0  0  0
  8  2  1  0  0  0  0
 10  9  3  0  0  0  0
 13 16  1  0  0  0  0
 14 15  2  0  0  0  0
 15 17  1  0  0  0  0
 15 16  1  0  0  0  0
 17 19  1  0  0  0  0
 17 20  1  0  0  0  0
 18 17  1  0  0  0  0
M  RAD  2   3   2   4   2
M  END
