Coordinates from ORCA-job Ph-N2-OOCCH3-B3LYPG-aug-cc-pVDZ-scan-d09-49-n400
 OpenBabel10311713213D

 20 18  0  0  0  0  0  0  0  0999 V2000
   13.2915    6.0517    2.3241 C   0  0  0  0  0  0  0  0  0  0  0  0
   12.7317    5.5108    1.1474 C   0  0  0  0  0  0  0  0  0  0  0  0
   12.0914    4.3403    1.4624 C   0  0  0  0  0  0  0  0  0  0  0  0
   11.8760    3.6418    2.5111 C   0  0  0  0  0  0  0  0  0  0  0  0
   12.4441    4.1919    3.6891 C   0  0  0  0  0  0  0  0  0  0  0  0
   13.1477    5.4019    3.5646 C   0  0  0  0  0  0  0  0  0  0  0  0
   13.8424    6.9909    2.2581 H   0  0  0  0  0  0  0  0  0  0  0  0
   12.8139    5.9728    0.1668 H   0  0  0  0  0  0  0  0  0  0  0  0
   11.3169    3.5892   -0.3311 N   0  0  0  0  0  0  0  0  0  0  0  0
   10.8325    2.7454   -0.8563 N   0  0  0  0  0  0  0  0  0  0  0  0
   13.5948    5.8533    4.4521 H   0  0  0  0  0  0  0  0  0  0  0  0
   12.3442    3.7070    4.6615 H   0  0  0  0  0  0  0  0  0  0  0  0
   10.8772    2.0296    2.8719 H   0  0  0  0  0  0  0  0  0  0  0  0
    9.2742    1.3922    1.2718 O   0  0  0  0  0  0  0  0  0  0  0  0
    9.4094    0.8911    2.3721 C   0  0  0  0  0  0  0  0  0  0  0  0
   10.3518    1.2722    3.2512 O   0  0  0  0  0  0  0  0  0  0  0  0
    8.5433   -0.2168    2.9200 C   0  0  0  0  0  0  0  0  0  0  0  0
    7.8328   -0.5402    2.1544 H   0  0  0  0  0  0  0  0  0  0  0  0
    9.1697   -1.0595    3.2409 H   0  0  0  0  0  0  0  0  0  0  0  0
    8.0018    0.1438    3.8054 H   0  0  0  0  0  0  0  0  0  0  0  0
  1  6  2  0  0  0  0
  2  3  2  0  0  0  0
  2  1  1  0  0  0  0
  3  4  1  0  0  0  0
  4  5  2  0  0  0  0
  5 12  1  0  0  0  0
  6  5  1  0  0  0  0
  6 11  1  0  0  0  0
  7  1  1  0  0  0  0
  8  2  1  0  0  0  0
 10  9  3  0  0  0  0
 13 16  1  0  0  0  0
 14 15  2  0  0  0  0
 15 17  1  0  0  0  0
 15 16  1  0  0  0  0
 17 19  1  0  0  0  0
 17 20  1  0  0  0  0
 18 17  1  0  0  0  0
M  RAD  2   3   2   4   2
M  END
