Coordinates from ORCA-job Ph-N2-OOCCH3-B3LYPG-aug-cc-pVDZ-scan-d09-49-n400
 OpenBabel10311713213D

 20 18  0  0  0  0  0  0  0  0999 V2000
   13.2988    6.0604    2.3357 C   0  0  0  0  0  0  0  0  0  0  0  0
   12.7368    5.5267    1.1539 C   0  0  0  0  0  0  0  0  0  0  0  0
   12.0990    4.3575    1.4735 C   0  0  0  0  0  0  0  0  0  0  0  0
   11.8897    3.6661    2.5201 C   0  0  0  0  0  0  0  0  0  0  0  0
   12.4543    4.1984    3.7052 C   0  0  0  0  0  0  0  0  0  0  0  0
   13.1583    5.4092    3.5759 C   0  0  0  0  0  0  0  0  0  0  0  0
   13.8510    6.9994    2.2719 H   0  0  0  0  0  0  0  0  0  0  0  0
   12.8190    5.9939    0.1759 H   0  0  0  0  0  0  0  0  0  0  0  0
   11.2970    3.5884   -0.4291 N   0  0  0  0  0  0  0  0  0  0  0  0
   10.8607    2.7196   -0.9546 N   0  0  0  0  0  0  0  0  0  0  0  0
   13.6086    5.8602    4.4620 H   0  0  0  0  0  0  0  0  0  0  0  0
   12.3551    3.7107    4.6759 H   0  0  0  0  0  0  0  0  0  0  0  0
   10.8562    2.0195    2.8776 H   0  0  0  0  0  0  0  0  0  0  0  0
    9.2605    1.3794    1.2806 O   0  0  0  0  0  0  0  0  0  0  0  0
    9.3927    0.8814    2.3815 C   0  0  0  0  0  0  0  0  0  0  0  0
   10.3337    1.2696    3.2631 O   0  0  0  0  0  0  0  0  0  0  0  0
    8.5335   -0.2300    2.9319 C   0  0  0  0  0  0  0  0  0  0  0  0
    7.8129   -0.5463    2.1729 H   0  0  0  0  0  0  0  0  0  0  0  0
    9.1644   -1.0761    3.2349 H   0  0  0  0  0  0  0  0  0  0  0  0
    8.0052    0.1216    3.8287 H   0  0  0  0  0  0  0  0  0  0  0  0
  1  6  2  0  0  0  0
  2  3  2  0  0  0  0
  2  1  1  0  0  0  0
  3  4  1  0  0  0  0
  4  5  2  0  0  0  0
  5 12  1  0  0  0  0
  6  5  1  0  0  0  0
  6 11  1  0  0  0  0
  7  1  1  0  0  0  0
  8  2  1  0  0  0  0
 10  9  3  0  0  0  0
 13 16  1  0  0  0  0
 14 15  2  0  0  0  0
 15 17  1  0  0  0  0
 15 16  1  0  0  0  0
 17 19  1  0  0  0  0
 17 20  1  0  0  0  0
 18 17  1  0  0  0  0
M  RAD  2   3   2   4   2
M  END
