Coordinates from ORCA-job Ph-N2-OOCCH3-B3LYPG-aug-cc-pVDZ-scan-d09-49-n400
 OpenBabel10311713213D

 20 18  0  0  0  0  0  0  0  0999 V2000
   13.3290    6.0699    2.3533 C   0  0  0  0  0  0  0  0  0  0  0  0
   12.7453    5.5313    1.1791 C   0  0  0  0  0  0  0  0  0  0  0  0
   12.1045    4.3754    1.5333 C   0  0  0  0  0  0  0  0  0  0  0  0
   11.9157    3.7161    2.5935 C   0  0  0  0  0  0  0  0  0  0  0  0
   12.4910    4.2352    3.7738 C   0  0  0  0  0  0  0  0  0  0  0  0
   13.2036    5.4393    3.6060 C   0  0  0  0  0  0  0  0  0  0  0  0
   13.8901    7.0025    2.2709 H   0  0  0  0  0  0  0  0  0  0  0  0
   12.8218    5.9912    0.1979 H   0  0  0  0  0  0  0  0  0  0  0  0
   11.2079    3.5932   -0.6586 N   0  0  0  0  0  0  0  0  0  0  0  0
   10.7823    2.7409   -1.2171 N   0  0  0  0  0  0  0  0  0  0  0  0
   13.6738    5.9015    4.4759 H   0  0  0  0  0  0  0  0  0  0  0  0
   12.4017    3.7608    4.7513 H   0  0  0  0  0  0  0  0  0  0  0  0
   10.8039    2.0102    2.9279 H   0  0  0  0  0  0  0  0  0  0  0  0
    9.3331    1.2801    1.2626 O   0  0  0  0  0  0  0  0  0  0  0  0
    9.3910    0.8362    2.3909 C   0  0  0  0  0  0  0  0  0  0  0  0
   10.2656    1.2826    3.3184 O   0  0  0  0  0  0  0  0  0  0  0  0
    8.5143   -0.2632    2.9358 C   0  0  0  0  0  0  0  0  0  0  0  0
    7.8356   -0.6117    2.1526 H   0  0  0  0  0  0  0  0  0  0  0  0
    9.1371   -1.0929    3.2959 H   0  0  0  0  0  0  0  0  0  0  0  0
    7.9399    0.1111    3.7941 H   0  0  0  0  0  0  0  0  0  0  0  0
  1  6  2  0  0  0  0
  2  3  2  0  0  0  0
  2  1  1  0  0  0  0
  3  4  1  0  0  0  0
  4  5  2  0  0  0  0
  5 12  1  0  0  0  0
  6  5  1  0  0  0  0
  6 11  1  0  0  0  0
  7  1  1  0  0  0  0
  8  2  1  0  0  0  0
 10  9  3  0  0  0  0
 13 16  1  0  0  0  0
 14 15  2  0  0  0  0
 15 17  1  0  0  0  0
 15 16  1  0  0  0  0
 17 19  1  0  0  0  0
 17 20  1  0  0  0  0
 18 17  1  0  0  0  0
M  RAD  2   3   2   4   2
M  END
