Coordinates from ORCA-job Ph-N2-OOCCH3-B3LYPG-aug-cc-pVDZ-scan-d09-49-n400
 OpenBabel10311713213D

 20 18  0  0  0  0  0  0  0  0999 V2000
   13.4403    6.0798    2.4138 C   0  0  0  0  0  0  0  0  0  0  0  0
   12.7492    5.4361    1.3556 C   0  0  0  0  0  0  0  0  0  0  0  0
   12.0924    4.3513    1.8860 C   0  0  0  0  0  0  0  0  0  0  0  0
   11.9997    3.8681    3.0411 C   0  0  0  0  0  0  0  0  0  0  0  0
   12.6636    4.4662    4.1217 C   0  0  0  0  0  0  0  0  0  0  0  0
   13.3972    5.6111    3.7419 C   0  0  0  0  0  0  0  0  0  0  0  0
   14.0250    6.9718    2.1806 H   0  0  0  0  0  0  0  0  0  0  0  0
   12.7674    5.7801    0.3251 H   0  0  0  0  0  0  0  0  0  0  0  0
   10.7280    3.3989   -1.4490 N   0  0  0  0  0  0  0  0  0  0  0  0
   10.3742    2.5582   -2.0709 N   0  0  0  0  0  0  0  0  0  0  0  0
   13.9529    6.1556    4.5078 H   0  0  0  0  0  0  0  0  0  0  0  0
   12.6365    4.1127    5.1514 H   0  0  0  0  0  0  0  0  0  0  0  0
   10.6485    2.0430    3.0444 H   0  0  0  0  0  0  0  0  0  0  0  0
    9.4575    1.1924    1.2265 O   0  0  0  0  0  0  0  0  0  0  0  0
    9.3822    0.7857    2.3665 C   0  0  0  0  0  0  0  0  0  0  0  0
   10.0979    1.3113    3.3889 O   0  0  0  0  0  0  0  0  0  0  0  0
    8.5025   -0.3461    2.8320 C   0  0  0  0  0  0  0  0  0  0  0  0
    7.9438   -0.7479    1.9826 H   0  0  0  0  0  0  0  0  0  0  0  0
    9.1187   -1.1333    3.2870 H   0  0  0  0  0  0  0  0  0  0  0  0
    7.8099    0.0145    3.6045 H   0  0  0  0  0  0  0  0  0  0  0  0
  1  6  2  0  0  0  0
  2  3  2  0  0  0  0
  2  1  1  0  0  0  0
  3  4  1  0  0  0  0
  4  5  2  0  0  0  0
  5 12  1  0  0  0  0
  6  5  1  0  0  0  0
  6 11  1  0  0  0  0
  7  1  1  0  0  0  0
  8  2  1  0  0  0  0
 10  9  3  0  0  0  0
 13 16  1  0  0  0  0
 14 15  2  0  0  0  0
 15 17  1  0  0  0  0
 15 16  1  0  0  0  0
 17 19  1  0  0  0  0
 17 20  1  0  0  0  0
 18 17  1  0  0  0  0
M  RAD  2   3   2   4   2
M  END
