Coordinates from ORCA-job Ph-N2-OOCCH3-B3LYPG-aug-cc-pVDZ-scan-d09-49-n400
 OpenBabel11081710403D

 20 20  0  0  0  0  0  0  0  0999 V2000
   12.4392    5.9486    2.3145 C   0  0  0  0  0  0  0  0  0  0  0  0
   12.2051    5.0921    1.2325 C   0  0  0  0  0  0  0  0  0  0  0  0
   12.1244    3.7349    1.5035 C   0  0  0  0  0  0  0  0  0  0  0  0
   12.3136    3.1658    2.7545 C   0  0  0  0  0  0  0  0  0  0  0  0
   12.5632    4.0427    3.8163 C   0  0  0  0  0  0  0  0  0  0  0  0
   12.6189    5.4245    3.5993 C   0  0  0  0  0  0  0  0  0  0  0  0
   12.4912    7.0244    2.1475 H   0  0  0  0  0  0  0  0  0  0  0  0
   12.0821    5.4693    0.2191 H   0  0  0  0  0  0  0  0  0  0  0  0
   11.9361    2.7583    0.2352 N   0  0  0  0  0  0  0  0  0  0  0  0
   11.1032    1.9385    0.0901 N   0  0  0  0  0  0  0  0  0  0  0  0
   12.8125    6.0965    4.4354 H   0  0  0  0  0  0  0  0  0  0  0  0
   12.7155    3.6389    4.8173 H   0  0  0  0  0  0  0  0  0  0  0  0
   12.2645    2.0868    2.8920 H   0  0  0  0  0  0  0  0  0  0  0  0
    9.8768    1.9816    1.2584 O   0  0  0  0  0  0  0  0  0  0  0  0
    9.9161    0.8921    2.0234 C   0  0  0  0  0  0  0  0  0  0  0  0
   10.8949    0.1716    2.1409 O   0  0  0  0  0  0  0  0  0  0  0  0
    8.6025    0.6587    2.7442 C   0  0  0  0  0  0  0  0  0  0  0  0
    8.1722    1.6040    3.0965 H   0  0  0  0  0  0  0  0  0  0  0  0
    7.8907    0.2096    2.0372 H   0  0  0  0  0  0  0  0  0  0  0  0
    8.7645   -0.0295    3.5798 H   0  0  0  0  0  0  0  0  0  0  0  0
  1  6  2  0  0  0  0
  2  3  2  0  0  0  0
  2  1  1  0  0  0  0
  3  4  1  0  0  0  0
  4 13  1  0  0  0  0
  4  5  2  0  0  0  0
  5 12  1  0  0  0  0
  6  5  1  0  0  0  0
  6 11  1  0  0  0  0
  7  1  1  0  0  0  0
  8  2  1  0  0  0  0
  9  3  1  0  0  0  0
 10  9  1  0  0  0  0
 10 14  1  0  0  0  0
 14 15  1  0  0  0  0
 15 16  2  0  0  0  0
 15 17  1  0  0  0  0
 17 18  1  0  0  0  0
 17 20  1  0  0  0  0
 19 17  1  0  0  0  0
M  RAD  2   9   2  10   2
M  END
