Coordinates from ORCA-job Ph-N2-OOCCH3-B3LYPG-aug-cc-pVDZ-scan-d09-49-n400
 OpenBabel10311713213D

 20 18  0  0  0  0  0  0  0  0999 V2000
   12.9093    6.0420    2.3114 C   0  0  0  0  0  0  0  0  0  0  0  0
   12.5634    5.2833    1.1778 C   0  0  0  0  0  0  0  0  0  0  0  0
   12.1459    4.0231    1.5085 C   0  0  0  0  0  0  0  0  0  0  0  0
   12.0302    3.3558    2.6768 C   0  0  0  0  0  0  0  0  0  0  0  0
   12.3967    4.1606    3.7789 C   0  0  0  0  0  0  0  0  0  0  0  0
   12.8260    5.4794    3.5922 C   0  0  0  0  0  0  0  0  0  0  0  0
   13.2439    7.0705    2.1750 H   0  0  0  0  0  0  0  0  0  0  0  0
   12.6159    5.6661    0.1624 H   0  0  0  0  0  0  0  0  0  0  0  0
   11.6818    2.9422   -0.0121 N   0  0  0  0  0  0  0  0  0  0  0  0
   10.9294    2.1214   -0.1825 N   0  0  0  0  0  0  0  0  0  0  0  0
   13.1051    6.0802    4.4578 H   0  0  0  0  0  0  0  0  0  0  0  0
   12.3401    3.7293    4.7788 H   0  0  0  0  0  0  0  0  0  0  0  0
   11.6722    2.2988    2.7572 H   0  0  0  0  0  0  0  0  0  0  0  0
    9.4129    1.8408    1.3404 O   0  0  0  0  0  0  0  0  0  0  0  0
    9.7208    0.9770    2.2286 C   0  0  0  0  0  0  0  0  0  0  0  0
   10.8763    0.7366    2.6548 O   0  0  0  0  0  0  0  0  0  0  0  0
    8.5428    0.1785    2.7950 C   0  0  0  0  0  0  0  0  0  0  0  0
    7.6564    0.8157    2.8943 H   0  0  0  0  0  0  0  0  0  0  0  0
    8.3024   -0.6253    2.0845 H   0  0  0  0  0  0  0  0  0  0  0  0
    8.8161   -0.2664    3.7578 H   0  0  0  0  0  0  0  0  0  0  0  0
  1  6  2  0  0  0  0
  2  3  2  0  0  0  0
  2  1  1  0  0  0  0
  3  4  1  0  0  0  0
  4 13  1  0  0  0  0
  4  5  2  0  0  0  0
  5 12  1  0  0  0  0
  6  5  1  0  0  0  0
  6 11  1  0  0  0  0
  7  1  1  0  0  0  0
  8  2  1  0  0  0  0
 10  9  3  0  0  0  0
 14 15  2  0  0  0  0
 15 16  1  0  0  0  0
 15 17  1  0  0  0  0
 17 18  1  0  0  0  0
 17 20  1  0  0  0  0
 19 17  1  0  0  0  0
M  RAD  2   3   2  16   2
M  END
