Coordinates from ORCA-job Ph-N2-OOCCH3-B3LYPG-aug-cc-pVDZ-scan-d09-49-n400
 OpenBabel10311713213D

 20 18  0  0  0  0  0  0  0  0999 V2000
   13.2942    6.0552    2.3290 C   0  0  0  0  0  0  0  0  0  0  0  0
   12.7361    5.5174    1.1488 C   0  0  0  0  0  0  0  0  0  0  0  0
   12.0966    4.3473    1.4643 C   0  0  0  0  0  0  0  0  0  0  0  0
   11.8812    3.6510    2.5112 C   0  0  0  0  0  0  0  0  0  0  0  0
   12.4455    4.1939    3.6933 C   0  0  0  0  0  0  0  0  0  0  0  0
   13.1493    5.4044    3.5688 C   0  0  0  0  0  0  0  0  0  0  0  0
   13.8455    6.9945    2.2653 H   0  0  0  0  0  0  0  0  0  0  0  0
   12.8203    5.9818    0.1696 H   0  0  0  0  0  0  0  0  0  0  0  0
   11.3164    3.5903   -0.3710 N   0  0  0  0  0  0  0  0  0  0  0  0
   10.8540    2.7357   -0.8983 N   0  0  0  0  0  0  0  0  0  0  0  0
   13.5956    5.8555    4.4569 H   0  0  0  0  0  0  0  0  0  0  0  0
   12.3439    3.7075    4.6647 H   0  0  0  0  0  0  0  0  0  0  0  0
   10.8690    2.0245    2.8708 H   0  0  0  0  0  0  0  0  0  0  0  0
    9.2547    1.3960    1.2818 O   0  0  0  0  0  0  0  0  0  0  0  0
    9.3959    0.8919    2.3794 C   0  0  0  0  0  0  0  0  0  0  0  0
   10.3468    1.2689    3.2529 O   0  0  0  0  0  0  0  0  0  0  0  0
    8.5399   -0.2235    2.9275 C   0  0  0  0  0  0  0  0  0  0  0  0
    7.8201   -0.5407    2.1680 H   0  0  0  0  0  0  0  0  0  0  0  0
    9.1727   -1.0681    3.2304 H   0  0  0  0  0  0  0  0  0  0  0  0
    8.0098    0.1261    3.8241 H   0  0  0  0  0  0  0  0  0  0  0  0
  1  6  2  0  0  0  0
  2  3  2  0  0  0  0
  2  1  1  0  0  0  0
  3  4  1  0  0  0  0
  4  5  2  0  0  0  0
  5 12  1  0  0  0  0
  6  5  1  0  0  0  0
  6 11  1  0  0  0  0
  7  1  1  0  0  0  0
  8  2  1  0  0  0  0
 10  9  3  0  0  0  0
 13 16  1  0  0  0  0
 14 15  2  0  0  0  0
 15 17  1  0  0  0  0
 15 16  1  0  0  0  0
 17 19  1  0  0  0  0
 17 20  1  0  0  0  0
 18 17  1  0  0  0  0
M  RAD  2   3   2   4   2
M  END
