Coordinates from ORCA-job Ph-N2-OOCCH3-B3LYPG-aug-cc-pVDZ-scan-d09-49-n400
 OpenBabel10311713213D

 20 18  0  0  0  0  0  0  0  0999 V2000
   12.9131    6.0430    2.3127 C   0  0  0  0  0  0  0  0  0  0  0  0
   12.5663    5.2855    1.1786 C   0  0  0  0  0  0  0  0  0  0  0  0
   12.1463    4.0261    1.5091 C   0  0  0  0  0  0  0  0  0  0  0  0
   12.0285    3.3585    2.6766 C   0  0  0  0  0  0  0  0  0  0  0  0
   12.3959    4.1621    3.7793 C   0  0  0  0  0  0  0  0  0  0  0  0
   12.8279    5.4801    3.5933 C   0  0  0  0  0  0  0  0  0  0  0  0
   13.2498    7.0709    2.1768 H   0  0  0  0  0  0  0  0  0  0  0  0
   12.6200    5.6684    0.1633 H   0  0  0  0  0  0  0  0  0  0  0  0
   11.6780    2.9397   -0.0190 N   0  0  0  0  0  0  0  0  0  0  0  0
   10.9257    2.1190   -0.1884 N   0  0  0  0  0  0  0  0  0  0  0  0
   13.1076    6.0801    4.4592 H   0  0  0  0  0  0  0  0  0  0  0  0
   12.3378    3.7306    4.7790 H   0  0  0  0  0  0  0  0  0  0  0  0
   11.6683    2.3018    2.7564 H   0  0  0  0  0  0  0  0  0  0  0  0
    9.4089    1.8383    1.3392 O   0  0  0  0  0  0  0  0  0  0  0  0
    9.7185    0.9773    2.2291 C   0  0  0  0  0  0  0  0  0  0  0  0
   10.8744    0.7407    2.6573 O   0  0  0  0  0  0  0  0  0  0  0  0
    8.5430    0.1754    2.7958 C   0  0  0  0  0  0  0  0  0  0  0  0
    7.6539    0.8092    2.8921 H   0  0  0  0  0  0  0  0  0  0  0  0
    8.3070   -0.6312    2.0869 H   0  0  0  0  0  0  0  0  0  0  0  0
    8.8166   -0.2660    3.7601 H   0  0  0  0  0  0  0  0  0  0  0  0
  1  6  2  0  0  0  0
  2  3  2  0  0  0  0
  2  1  1  0  0  0  0
  3  4  1  0  0  0  0
  4 13  1  0  0  0  0
  4  5  2  0  0  0  0
  5 12  1  0  0  0  0
  6  5  1  0  0  0  0
  6 11  1  0  0  0  0
  7  1  1  0  0  0  0
  8  2  1  0  0  0  0
 10  9  3  0  0  0  0
 14 15  2  0  0  0  0
 15 16  1  0  0  0  0
 15 17  1  0  0  0  0
 17 18  1  0  0  0  0
 17 20  1  0  0  0  0
 19 17  1  0  0  0  0
M  RAD  2   3   2  16   2
M  END
