Coordinates from ORCA-job Ph-N2-OOCCH3-B3LYPG-aug-cc-pVDZ-scan-d09-49-n400
 OpenBabel11081710403D

 20 19  0  0  0  0  0  0  0  0999 V2000
   12.2099    5.8437    2.3212 C   0  0  0  0  0  0  0  0  0  0  0  0
   11.9174    4.9057    1.3548 C   0  0  0  0  0  0  0  0  0  0  0  0
   12.2090    3.4860    1.5601 C   0  0  0  0  0  0  0  0  0  0  0  0
   12.8011    3.1449    2.8562 C   0  0  0  0  0  0  0  0  0  0  0  0
   13.0715    4.1238    3.7916 C   0  0  0  0  0  0  0  0  0  0  0  0
   12.7896    5.4725    3.5439 C   0  0  0  0  0  0  0  0  0  0  0  0
   11.9777    6.8895    2.1193 H   0  0  0  0  0  0  0  0  0  0  0  0
   11.4615    5.1704    0.4016 H   0  0  0  0  0  0  0  0  0  0  0  0
   11.9946    2.7956    0.8835 N   0  0  0  0  0  0  0  0  0  0  0  0
   11.6497    1.9830    0.1414 N   0  0  0  0  0  0  0  0  0  0  0  0
   13.0140    6.2281    4.2953 H   0  0  0  0  0  0  0  0  0  0  0  0
   13.5068    3.8208    4.7439 H   0  0  0  0  0  0  0  0  0  0  0  0
   12.9729    2.0873    3.0343 H   0  0  0  0  0  0  0  0  0  0  0  0
    9.5849    1.5853    0.7689 O   0  0  0  0  0  0  0  0  0  0  0  0
    9.6395    1.1884    1.9891 C   0  0  0  0  0  0  0  0  0  0  0  0
   10.6304    1.2667    2.7454 O   0  0  0  0  0  0  0  0  0  0  0  0
    8.3306    0.5834    2.5089 C   0  0  0  0  0  0  0  0  0  0  0  0
    7.5514    1.3577    2.5259 H   0  0  0  0  0  0  0  0  0  0  0  0
    7.9921   -0.2121    1.8328 H   0  0  0  0  0  0  0  0  0  0  0  0
    8.4826    0.1889    3.5194 H   0  0  0  0  0  0  0  0  0  0  0  0
  1  6  2  0  0  0  0
  2  3  2  0  0  0  0
  2  1  1  0  0  0  0
  3  4  1  0  0  0  0
  4 13  1  0  0  0  0
  4  5  2  0  0  0  0
  5 12  1  0  0  0  0
  6  5  1  0  0  0  0
  6 11  1  0  0  0  0
  7  1  1  0  0  0  0
  8  2  1  0  0  0  0
  9  3  1  0  0  0  0
 10  9  1  0  0  0  0
 14 15  2  0  0  0  0
 15 17  1  0  0  0  0
 15 16  1  0  0  0  0
 17 18  1  0  0  0  0
 17 20  1  0  0  0  0
 19 17  1  0  0  0  0
M  RAD  3   9   2  10   3  16   2
M  END
