Coordinates from ORCA-job Ph-N2-OOCCH3-B3LYPG-aug-cc-pVDZ-scan-d09-49-n400
 OpenBabel10311713213D

 20 18  0  0  0  0  0  0  0  0999 V2000
   13.3327    6.0721    2.3554 C   0  0  0  0  0  0  0  0  0  0  0  0
   12.7462    5.5303    1.1836 C   0  0  0  0  0  0  0  0  0  0  0  0
   12.1061    4.3762    1.5447 C   0  0  0  0  0  0  0  0  0  0  0  0
   11.9199    3.7212    2.6072 C   0  0  0  0  0  0  0  0  0  0  0  0
   12.4973    4.2425    3.7852 C   0  0  0  0  0  0  0  0  0  0  0  0
   13.2099    5.4460    3.6107 C   0  0  0  0  0  0  0  0  0  0  0  0
   13.8941    7.0042    2.2690 H   0  0  0  0  0  0  0  0  0  0  0  0
   12.8203    5.9865    0.2005 H   0  0  0  0  0  0  0  0  0  0  0  0
   11.1972    3.5889   -0.6859 N   0  0  0  0  0  0  0  0  0  0  0  0
   10.7744    2.7379   -1.2483 N   0  0  0  0  0  0  0  0  0  0  0  0
   13.6826    5.9113    4.4776 H   0  0  0  0  0  0  0  0  0  0  0  0
   12.4103    3.7717    4.7646 H   0  0  0  0  0  0  0  0  0  0  0  0
   10.7994    2.0077    2.9299 H   0  0  0  0  0  0  0  0  0  0  0  0
    9.3313    1.2746    1.2609 O   0  0  0  0  0  0  0  0  0  0  0  0
    9.3877    0.8326    2.3899 C   0  0  0  0  0  0  0  0  0  0  0  0
   10.2605    1.2804    3.3186 O   0  0  0  0  0  0  0  0  0  0  0  0
    8.5117   -0.2675    2.9347 C   0  0  0  0  0  0  0  0  0  0  0  0
    7.8340   -0.6170    2.1513 H   0  0  0  0  0  0  0  0  0  0  0  0
    9.1350   -1.0965    3.2956 H   0  0  0  0  0  0  0  0  0  0  0  0
    7.9366    0.1067    3.7925 H   0  0  0  0  0  0  0  0  0  0  0  0
  1  6  2  0  0  0  0
  2  3  2  0  0  0  0
  2  1  1  0  0  0  0
  3  4  1  0  0  0  0
  4  5  2  0  0  0  0
  5 12  1  0  0  0  0
  6  5  1  0  0  0  0
  6 11  1  0  0  0  0
  7  1  1  0  0  0  0
  8  2  1  0  0  0  0
 10  9  3  0  0  0  0
 13 16  1  0  0  0  0
 14 15  2  0  0  0  0
 15 17  1  0  0  0  0
 15 16  1  0  0  0  0
 17 19  1  0  0  0  0
 17 20  1  0  0  0  0
 18 17  1  0  0  0  0
M  RAD  2   3   2   4   2
M  END
