Coordinates from ORCA-job Ph-N2-OOCCH3-B3LYPG-aug-cc-pVDZ-scan-d09-49-n400
 OpenBabel10311713213D

 20 18  0  0  0  0  0  0  0  0999 V2000
   13.4450    6.0786    2.4213 C   0  0  0  0  0  0  0  0  0  0  0  0
   12.7410    5.4072    1.3898 C   0  0  0  0  0  0  0  0  0  0  0  0
   12.0944    4.3292    1.9503 C   0  0  0  0  0  0  0  0  0  0  0  0
   12.0274    3.8821    3.1214 C   0  0  0  0  0  0  0  0  0  0  0  0
   12.7020    4.5036    4.1797 C   0  0  0  0  0  0  0  0  0  0  0  0
   13.4245    5.6421    3.7607 C   0  0  0  0  0  0  0  0  0  0  0  0
   14.0222    6.9671    2.1583 H   0  0  0  0  0  0  0  0  0  0  0  0
   12.7429    5.7279    0.3514 H   0  0  0  0  0  0  0  0  0  0  0  0
   10.6630    3.3757   -1.5806 N   0  0  0  0  0  0  0  0  0  0  0  0
   10.3158    2.5396   -2.2125 N   0  0  0  0  0  0  0  0  0  0  0  0
   13.9892    6.2072    4.5047 H   0  0  0  0  0  0  0  0  0  0  0  0
   12.6914    4.1744    5.2176 H   0  0  0  0  0  0  0  0  0  0  0  0
   10.6347    2.0393    3.0652 H   0  0  0  0  0  0  0  0  0  0  0  0
    9.4844    1.1848    1.2260 O   0  0  0  0  0  0  0  0  0  0  0  0
    9.3849    0.7798    2.3643 C   0  0  0  0  0  0  0  0  0  0  0  0
   10.0785    1.3084    3.4002 O   0  0  0  0  0  0  0  0  0  0  0  0
    8.4971   -0.3522    2.8134 C   0  0  0  0  0  0  0  0  0  0  0  0
    7.9572   -0.7567    1.9531 H   0  0  0  0  0  0  0  0  0  0  0  0
    9.1043   -1.1375    3.2833 H   0  0  0  0  0  0  0  0  0  0  0  0
    7.7875    0.0091    3.5700 H   0  0  0  0  0  0  0  0  0  0  0  0
  1  6  2  0  0  0  0
  2  3  2  0  0  0  0
  2  1  1  0  0  0  0
  3  4  1  0  0  0  0
  4  5  2  0  0  0  0
  5 12  1  0  0  0  0
  6  5  1  0  0  0  0
  6 11  1  0  0  0  0
  7  1  1  0  0  0  0
  8  2  1  0  0  0  0
 10  9  3  0  0  0  0
 13 16  1  0  0  0  0
 14 15  2  0  0  0  0
 15 17  1  0  0  0  0
 15 16  1  0  0  0  0
 17 19  1  0  0  0  0
 17 20  1  0  0  0  0
 18 17  1  0  0  0  0
M  RAD  2   3   2   4   2
M  END
