Coordinates from ORCA-job Ph-N2-OOCCH3-B3LYPG-aug-cc-pVDZ-scan-d09-49-n400
 OpenBabel10311713213D

 20 18  0  0  0  0  0  0  0  0999 V2000
   13.4177    6.0817    2.3977 C   0  0  0  0  0  0  0  0  0  0  0  0
   12.7494    5.4593    1.3124 C   0  0  0  0  0  0  0  0  0  0  0  0
   12.0953    4.3570    1.8065 C   0  0  0  0  0  0  0  0  0  0  0  0
   11.9838    3.8372    2.9448 C   0  0  0  0  0  0  0  0  0  0  0  0
   12.6282    4.4174    4.0489 C   0  0  0  0  0  0  0  0  0  0  0  0
   13.3574    5.5779    3.7121 C   0  0  0  0  0  0  0  0  0  0  0  0
   13.9978    6.9845    2.1967 H   0  0  0  0  0  0  0  0  0  0  0  0
   12.7794    5.8280    0.2909 H   0  0  0  0  0  0  0  0  0  0  0  0
   10.8453    3.4480   -1.2738 N   0  0  0  0  0  0  0  0  0  0  0  0
   10.4751    2.6140   -1.8956 N   0  0  0  0  0  0  0  0  0  0  0  0
   13.8957    6.1068    4.5009 H   0  0  0  0  0  0  0  0  0  0  0  0
   12.5884    4.0375    5.0690 H   0  0  0  0  0  0  0  0  0  0  0  0
   10.6788    2.0284    3.0203 H   0  0  0  0  0  0  0  0  0  0  0  0
    9.4230    1.2055    1.2353 O   0  0  0  0  0  0  0  0  0  0  0  0
    9.3779    0.7902    2.3738 C   0  0  0  0  0  0  0  0  0  0  0  0
   10.1314    1.2989    3.3770 O   0  0  0  0  0  0  0  0  0  0  0  0
    8.4991   -0.3347    2.8574 C   0  0  0  0  0  0  0  0  0  0  0  0
    7.9093   -0.7226    2.0226 H   0  0  0  0  0  0  0  0  0  0  0  0
    9.1192   -1.1332    3.2866 H   0  0  0  0  0  0  0  0  0  0  0  0
    7.8353    0.0277    3.6539 H   0  0  0  0  0  0  0  0  0  0  0  0
  1  6  2  0  0  0  0
  2  3  2  0  0  0  0
  2  1  1  0  0  0  0
  3  4  1  0  0  0  0
  4  5  2  0  0  0  0
  5 12  1  0  0  0  0
  6  5  1  0  0  0  0
  6 11  1  0  0  0  0
  7  1  1  0  0  0  0
  8  2  1  0  0  0  0
 10  9  3  0  0  0  0
 13 16  1  0  0  0  0
 14 15  2  0  0  0  0
 15 17  1  0  0  0  0
 15 16  1  0  0  0  0
 17 19  1  0  0  0  0
 17 20  1  0  0  0  0
 18 17  1  0  0  0  0
M  RAD  2   3   2   4   2
M  END
