Coordinates from ORCA-job Ph-N2-OOCCH3-B3LYPG-aug-cc-pVDZ-scan-d09-49-n400
 OpenBabel11081710403D

 20 20  0  0  0  0  0  0  0  0999 V2000
   12.5465    5.9718    2.2869 C   0  0  0  0  0  0  0  0  0  0  0  0
   12.2730    5.1179    1.2151 C   0  0  0  0  0  0  0  0  0  0  0  0
   12.0893    3.7640    1.4852 C   0  0  0  0  0  0  0  0  0  0  0  0
   12.2262    3.2129    2.7583 C   0  0  0  0  0  0  0  0  0  0  0  0
   12.5244    4.0819    3.8112 C   0  0  0  0  0  0  0  0  0  0  0  0
   12.6737    5.4545    3.5806 C   0  0  0  0  0  0  0  0  0  0  0  0
   12.6733    7.0391    2.1070 H   0  0  0  0  0  0  0  0  0  0  0  0
   12.1923    5.4911    0.1955 H   0  0  0  0  0  0  0  0  0  0  0  0
   11.8568    2.8620    0.3075 N   0  0  0  0  0  0  0  0  0  0  0  0
   11.0519    2.0190    0.1367 N   0  0  0  0  0  0  0  0  0  0  0  0
   12.9019    6.1224    4.4114 H   0  0  0  0  0  0  0  0  0  0  0  0
   12.6412    3.6806    4.8178 H   0  0  0  0  0  0  0  0  0  0  0  0
   12.1165    2.1404    2.9095 H   0  0  0  0  0  0  0  0  0  0  0  0
    9.8300    1.9863    1.3309 O   0  0  0  0  0  0  0  0  0  0  0  0
    9.8984    0.8623    2.0369 C   0  0  0  0  0  0  0  0  0  0  0  0
   10.9001    0.1670    2.1233 O   0  0  0  0  0  0  0  0  0  0  0  0
    8.5917    0.5471    2.7396 C   0  0  0  0  0  0  0  0  0  0  0  0
    8.1208    1.4589    3.1267 H   0  0  0  0  0  0  0  0  0  0  0  0
    7.9029    0.0982    2.0100 H   0  0  0  0  0  0  0  0  0  0  0  0
    8.7765   -0.1680    3.5475 H   0  0  0  0  0  0  0  0  0  0  0  0
  1  6  2  0  0  0  0
  2  3  2  0  0  0  0
  2  1  1  0  0  0  0
  3  4  1  0  0  0  0
  4 13  1  0  0  0  0
  4  5  2  0  0  0  0
  5 12  1  0  0  0  0
  6  5  1  0  0  0  0
  6 11  1  0  0  0  0
  7  1  1  0  0  0  0
  8  2  1  0  0  0  0
  9  3  1  0  0  0  0
 10  9  1  0  0  0  0
 10 14  1  0  0  0  0
 14 15  1  0  0  0  0
 15 16  2  0  0  0  0
 15 17  1  0  0  0  0
 17 18  1  0  0  0  0
 17 20  1  0  0  0  0
 19 17  1  0  0  0  0
M  RAD  2   9   2  10   2
M  END
