Coordinates from ORCA-job Ph-N2-OOCCH3-B3LYPG-aug-cc-pVDZ-scan-d09-49-n400
 OpenBabel10311713213D

 20 18  0  0  0  0  0  0  0  0999 V2000
   13.3178    6.0667    2.3480 C   0  0  0  0  0  0  0  0  0  0  0  0
   12.7433    5.5318    1.1688 C   0  0  0  0  0  0  0  0  0  0  0  0
   12.1044    4.3708    1.5100 C   0  0  0  0  0  0  0  0  0  0  0  0
   11.9076    3.6989    2.5636 C   0  0  0  0  0  0  0  0  0  0  0  0
   12.4772    4.2198    3.7477 C   0  0  0  0  0  0  0  0  0  0  0  0
   13.1863    5.4271    3.5954 C   0  0  0  0  0  0  0  0  0  0  0  0
   13.8755    7.0020    2.2742 H   0  0  0  0  0  0  0  0  0  0  0  0
   12.8232    5.9967    0.1901 H   0  0  0  0  0  0  0  0  0  0  0  0
   11.2435    3.5937   -0.5840 N   0  0  0  0  0  0  0  0  0  0  0  0
   10.8190    2.7333   -1.1311 N   0  0  0  0  0  0  0  0  0  0  0  0
   13.6485    5.8846    4.4720 H   0  0  0  0  0  0  0  0  0  0  0  0
   12.3835    3.7392    4.7219 H   0  0  0  0  0  0  0  0  0  0  0  0
   10.8207    2.0128    2.9100 H   0  0  0  0  0  0  0  0  0  0  0  0
    9.3008    1.3182    1.2718 O   0  0  0  0  0  0  0  0  0  0  0  0
    9.3858    0.8557    2.3913 C   0  0  0  0  0  0  0  0  0  0  0  0
   10.2887    1.2786    3.3008 O   0  0  0  0  0  0  0  0  0  0  0  0
    8.5208   -0.2526    2.9375 C   0  0  0  0  0  0  0  0  0  0  0  0
    7.8258   -0.5896    2.1637 H   0  0  0  0  0  0  0  0  0  0  0  0
    9.1506   -1.0874    3.2729 H   0  0  0  0  0  0  0  0  0  0  0  0
    7.9643    0.1094    3.8127 H   0  0  0  0  0  0  0  0  0  0  0  0
  1  6  2  0  0  0  0
  2  3  2  0  0  0  0
  2  1  1  0  0  0  0
  3  4  1  0  0  0  0
  4  5  2  0  0  0  0
  5 12  1  0  0  0  0
  6  5  1  0  0  0  0
  6 11  1  0  0  0  0
  7  1  1  0  0  0  0
  8  2  1  0  0  0  0
 10  9  3  0  0  0  0
 13 16  1  0  0  0  0
 14 15  2  0  0  0  0
 15 17  1  0  0  0  0
 15 16  1  0  0  0  0
 17 19  1  0  0  0  0
 17 20  1  0  0  0  0
 18 17  1  0  0  0  0
M  RAD  2   3   2   4   2
M  END
