Coordinates from ORCA-job Ph-N2-OOCCH3-B3LYPG-aug-cc-pVDZ-scan-d09-49-n400
 OpenBabel10311713213D

 20 18  0  0  0  0  0  0  0  0999 V2000
   13.4419    6.0795    2.4169 C   0  0  0  0  0  0  0  0  0  0  0  0
   12.7463    5.4269    1.3676 C   0  0  0  0  0  0  0  0  0  0  0  0
   12.0922    4.3431    1.9059 C   0  0  0  0  0  0  0  0  0  0  0  0
   12.0086    3.8732    3.0673 C   0  0  0  0  0  0  0  0  0  0  0  0
   12.6761    4.4781    4.1408 C   0  0  0  0  0  0  0  0  0  0  0  0
   13.4063    5.6210    3.7485 C   0  0  0  0  0  0  0  0  0  0  0  0
   14.0242    6.9704    2.1739 H   0  0  0  0  0  0  0  0  0  0  0  0
   12.7589    5.7633    0.3343 H   0  0  0  0  0  0  0  0  0  0  0  0
   10.7075    3.3939   -1.5001 N   0  0  0  0  0  0  0  0  0  0  0  0
   10.3571    2.5553   -2.1268 N   0  0  0  0  0  0  0  0  0  0  0  0
   13.9649    6.1718    4.5076 H   0  0  0  0  0  0  0  0  0  0  0  0
   12.6542    4.1322    5.1732 H   0  0  0  0  0  0  0  0  0  0  0  0
   10.6435    2.0413    3.0518 H   0  0  0  0  0  0  0  0  0  0  0  0
    9.4668    1.1893    1.2287 O   0  0  0  0  0  0  0  0  0  0  0  0
    9.3831    0.7831    2.3679 C   0  0  0  0  0  0  0  0  0  0  0  0
   10.0918    1.3098    3.3943 O   0  0  0  0  0  0  0  0  0  0  0  0
    8.5005   -0.3486    2.8279 C   0  0  0  0  0  0  0  0  0  0  0  0
    7.9482   -0.7514    1.9748 H   0  0  0  0  0  0  0  0  0  0  0  0
    9.1135   -1.1352    3.2882 H   0  0  0  0  0  0  0  0  0  0  0  0
    7.8020    0.0124    3.5949 H   0  0  0  0  0  0  0  0  0  0  0  0
  1  6  2  0  0  0  0
  2  3  2  0  0  0  0
  2  1  1  0  0  0  0
  3  4  1  0  0  0  0
  4  5  2  0  0  0  0
  5 12  1  0  0  0  0
  6  5  1  0  0  0  0
  6 11  1  0  0  0  0
  7  1  1  0  0  0  0
  8  2  1  0  0  0  0
 10  9  3  0  0  0  0
 13 16  1  0  0  0  0
 14 15  2  0  0  0  0
 15 17  1  0  0  0  0
 15 16  1  0  0  0  0
 17 19  1  0  0  0  0
 17 20  1  0  0  0  0
 18 17  1  0  0  0  0
M  RAD  2   3   2   4   2
M  END
