Coordinates from ORCA-job Ph-N2-OOCCH3-B3LYPG-aug-cc-pVDZ-scan-d09-49-n400
 OpenBabel10311713223D

 20 18  0  0  0  0  0  0  0  0999 V2000
   13.3909    6.0250    2.4279 C   0  0  0  0  0  0  0  0  0  0  0  0
   12.6051    5.1773    1.6075 C   0  0  0  0  0  0  0  0  0  0  0  0
   12.0888    4.1728    2.3986 C   0  0  0  0  0  0  0  0  0  0  0  0
   12.2011    3.9280    3.6227 C   0  0  0  0  0  0  0  0  0  0  0  0
   12.9595    4.7193    4.4889 C   0  0  0  0  0  0  0  0  0  0  0  0
   13.5598    5.8034    3.8099 C   0  0  0  0  0  0  0  0  0  0  0  0
   13.8833    6.8822    1.9643 H   0  0  0  0  0  0  0  0  0  0  0  0
   12.4638    5.3343    0.5413 H   0  0  0  0  0  0  0  0  0  0  0  0
   10.3046    3.1126   -2.0291 N   0  0  0  0  0  0  0  0  0  0  0  0
   10.0631    2.1769   -2.5631 N   0  0  0  0  0  0  0  0  0  0  0  0
   14.1796    6.4984    4.3797 H   0  0  0  0  0  0  0  0  0  0  0  0
   13.0935    4.5557    5.5569 H   0  0  0  0  0  0  0  0  0  0  0  0
   10.6216    2.0227    3.2291 H   0  0  0  0  0  0  0  0  0  0  0  0
    9.6010    1.3978    1.2378 O   0  0  0  0  0  0  0  0  0  0  0  0
    9.4191    0.8677    2.3136 C   0  0  0  0  0  0  0  0  0  0  0  0
   10.0402    1.2707    3.4482 O   0  0  0  0  0  0  0  0  0  0  0  0
    8.4962   -0.2952    2.5694 C   0  0  0  0  0  0  0  0  0  0  0  0
    8.0232   -0.5997    1.6320 H   0  0  0  0  0  0  0  0  0  0  0  0
    9.0620   -1.1328    2.9988 H   0  0  0  0  0  0  0  0  0  0  0  0
    7.7310   -0.0072    3.3030 H   0  0  0  0  0  0  0  0  0  0  0  0
  1  6  2  0  0  0  0
  2  3  2  0  0  0  0
  2  1  1  0  0  0  0
  3  4  1  0  0  0  0
  4  5  2  0  0  0  0
  5 12  1  0  0  0  0
  6 11  1  0  0  0  0
  6  5  1  0  0  0  0
  7  1  1  0  0  0  0
  8  2  1  0  0  0  0
 10  9  3  0  0  0  0
 13 16  1  0  0  0  0
 14 15  2  0  0  0  0
 15 17  1  0  0  0  0
 15 16  1  0  0  0  0
 17 19  1  0  0  0  0
 17 20  1  0  0  0  0
 18 17  1  0  0  0  0
M  RAD  2   3   2   4   2
M  END
