Coordinates from ORCA-job Ph-N2-OOCCH3-B3LYPG-aug-cc-pVDZ-scan-d09-49-n400
 OpenBabel10311713213D

 20 18  0  0  0  0  0  0  0  0999 V2000
   13.4213    6.0817    2.4000 C   0  0  0  0  0  0  0  0  0  0  0  0
   12.7499    5.4564    1.3184 C   0  0  0  0  0  0  0  0  0  0  0  0
   12.0950    4.3565    1.8175 C   0  0  0  0  0  0  0  0  0  0  0  0
   11.9860    3.8417    2.9582 C   0  0  0  0  0  0  0  0  0  0  0  0
   12.6331    4.4244    4.0591 C   0  0  0  0  0  0  0  0  0  0  0  0
   13.3632    5.5826    3.7164 C   0  0  0  0  0  0  0  0  0  0  0  0
   14.0022    6.9830    2.1947 H   0  0  0  0  0  0  0  0  0  0  0  0
   12.7783    5.8216    0.2955 H   0  0  0  0  0  0  0  0  0  0  0  0
   10.8282    3.4409   -1.2989 N   0  0  0  0  0  0  0  0  0  0  0  0
   10.4603    2.6062   -1.9210 N   0  0  0  0  0  0  0  0  0  0  0  0
   13.9038    6.1136    4.5021 H   0  0  0  0  0  0  0  0  0  0  0  0
   12.5949    4.0482    5.0806 H   0  0  0  0  0  0  0  0  0  0  0  0
   10.6741    2.0304    3.0241 H   0  0  0  0  0  0  0  0  0  0  0  0
    9.4282    1.2035    1.2343 O   0  0  0  0  0  0  0  0  0  0  0  0
    9.3784    0.7894    2.3730 C   0  0  0  0  0  0  0  0  0  0  0  0
   10.1263    1.3007    3.3792 O   0  0  0  0  0  0  0  0  0  0  0  0
    8.4995   -0.3367    2.8539 C   0  0  0  0  0  0  0  0  0  0  0  0
    7.9144   -0.7266    2.0167 H   0  0  0  0  0  0  0  0  0  0  0  0
    9.1191   -1.1334    3.2869 H   0  0  0  0  0  0  0  0  0  0  0  0
    7.8313    0.0255    3.6468 H   0  0  0  0  0  0  0  0  0  0  0  0
  1  6  2  0  0  0  0
  2  3  2  0  0  0  0
  2  1  1  0  0  0  0
  3  4  1  0  0  0  0
  4  5  2  0  0  0  0
  5 12  1  0  0  0  0
  6  5  1  0  0  0  0
  6 11  1  0  0  0  0
  7  1  1  0  0  0  0
  8  2  1  0  0  0  0
 10  9  3  0  0  0  0
 13 16  1  0  0  0  0
 14 15  2  0  0  0  0
 15 17  1  0  0  0  0
 15 16  1  0  0  0  0
 17 19  1  0  0  0  0
 17 20  1  0  0  0  0
 18 17  1  0  0  0  0
M  RAD  2   3   2   4   2
M  END
