Coordinates from ORCA-job Ph-N2-OOCCH3-B3LYPG-aug-cc-pVDZ-scan-d09-49-n400
 OpenBabel10311713213D

 20 19  0  0  0  0  0  0  0  0999 V2000
   12.6517    6.0060    2.3224 C   0  0  0  0  0  0  0  0  0  0  0  0
   12.3739    5.1941    1.2110 C   0  0  0  0  0  0  0  0  0  0  0  0
   12.1469    3.8742    1.5180 C   0  0  0  0  0  0  0  0  0  0  0  0
   12.1947    3.2336    2.7262 C   0  0  0  0  0  0  0  0  0  0  0  0
   12.4858    4.0821    3.8090 C   0  0  0  0  0  0  0  0  0  0  0  0
   12.7079    5.4492    3.6059 C   0  0  0  0  0  0  0  0  0  0  0  0
   12.8282    7.0711    2.1727 H   0  0  0  0  0  0  0  0  0  0  0  0
   12.3326    5.5799    0.1955 H   0  0  0  0  0  0  0  0  0  0  0  0
   11.8361    2.7889    0.0747 N   0  0  0  0  0  0  0  0  0  0  0  0
   11.0377    1.9830   -0.0776 N   0  0  0  0  0  0  0  0  0  0  0  0
   12.9332    6.0898    4.4586 H   0  0  0  0  0  0  0  0  0  0  0  0
   12.5372    3.6573    4.8116 H   0  0  0  0  0  0  0  0  0  0  0  0
   11.9988    2.1602    2.8236 H   0  0  0  0  0  0  0  0  0  0  0  0
    9.6263    1.9161    1.2551 O   0  0  0  0  0  0  0  0  0  0  0  0
    9.8365    0.9521    2.1023 C   0  0  0  0  0  0  0  0  0  0  0  0
   10.9407    0.4597    2.3656 O   0  0  0  0  0  0  0  0  0  0  0  0
    8.5639    0.4523    2.7803 C   0  0  0  0  0  0  0  0  0  0  0  0
    7.8804    1.2821    2.9964 H   0  0  0  0  0  0  0  0  0  0  0  0
    8.0523   -0.2331    2.0897 H   0  0  0  0  0  0  0  0  0  0  0  0
    8.8228   -0.0889    3.6965 H   0  0  0  0  0  0  0  0  0  0  0  0
  1  6  2  0  0  0  0
  2  3  2  0  0  0  0
  2  1  1  0  0  0  0
  3  4  1  0  0  0  0
  4 13  1  0  0  0  0
  4  5  2  0  0  0  0
  5 12  1  0  0  0  0
  6  5  1  0  0  0  0
  6 11  1  0  0  0  0
  7  1  1  0  0  0  0
  8  2  1  0  0  0  0
  9  3  1  0  0  0  0
 10  9  2  0  0  0  0
 14 15  2  0  0  0  0
 15 16  1  0  0  0  0
 15 17  1  0  0  0  0
 17 18  1  0  0  0  0
 17 20  1  0  0  0  0
 19 17  1  0  0  0  0
M  RAD  2  10   2  16   2
M  END
