Coordinates from ORCA-job Ph-N2-OOCCH3-B3LYPG-aug-cc-pVDZ-scan-d09-49-n400
 OpenBabel10311713213D

 20 18  0  0  0  0  0  0  0  0999 V2000
   13.4417    6.0796    2.4172 C   0  0  0  0  0  0  0  0  0  0  0  0
   12.7457    5.4256    1.3690 C   0  0  0  0  0  0  0  0  0  0  0  0
   12.0929    4.3422    1.9090 C   0  0  0  0  0  0  0  0  0  0  0  0
   12.0102    3.8734    3.0707 C   0  0  0  0  0  0  0  0  0  0  0  0
   12.6780    4.4792    4.1433 C   0  0  0  0  0  0  0  0  0  0  0  0
   13.4072    5.6223    3.7494 C   0  0  0  0  0  0  0  0  0  0  0  0
   14.0234    6.9706    2.1729 H   0  0  0  0  0  0  0  0  0  0  0  0
   12.7572    5.7605    0.3353 H   0  0  0  0  0  0  0  0  0  0  0  0
   10.7050    3.3931   -1.5069 N   0  0  0  0  0  0  0  0  0  0  0  0
   10.3552    2.5547   -2.1341 N   0  0  0  0  0  0  0  0  0  0  0  0
   13.9661    6.1742    4.5076 H   0  0  0  0  0  0  0  0  0  0  0  0
   12.6568    4.1343    5.1760 H   0  0  0  0  0  0  0  0  0  0  0  0
   10.6434    2.0408    3.0535 H   0  0  0  0  0  0  0  0  0  0  0  0
    9.4674    1.1891    1.2283 O   0  0  0  0  0  0  0  0  0  0  0  0
    9.3833    0.7831    2.3680 C   0  0  0  0  0  0  0  0  0  0  0  0
   10.0913    1.3094    3.3957 O   0  0  0  0  0  0  0  0  0  0  0  0
    8.5002   -0.3485    2.8273 C   0  0  0  0  0  0  0  0  0  0  0  0
    7.9485   -0.7512    1.9737 H   0  0  0  0  0  0  0  0  0  0  0  0
    9.1128   -1.1352    3.2879 H   0  0  0  0  0  0  0  0  0  0  0  0
    7.8012    0.0125    3.5938 H   0  0  0  0  0  0  0  0  0  0  0  0
  1  6  2  0  0  0  0
  2  3  2  0  0  0  0
  2  1  1  0  0  0  0
  3  4  1  0  0  0  0
  4  5  2  0  0  0  0
  5 12  1  0  0  0  0
  6  5  1  0  0  0  0
  6 11  1  0  0  0  0
  7  1  1  0  0  0  0
  8  2  1  0  0  0  0
 10  9  3  0  0  0  0
 13 16  1  0  0  0  0
 14 15  2  0  0  0  0
 15 17  1  0  0  0  0
 15 16  1  0  0  0  0
 17 19  1  0  0  0  0
 17 20  1  0  0  0  0
 18 17  1  0  0  0  0
M  RAD  2   3   2   4   2
M  END
