Coordinates from ORCA-job Ph-N2-OOCCH3-B3LYPG-aug-cc-pVDZ-scan-d09-49-n400
 OpenBabel10311713213D

 20 18  0  0  0  0  0  0  0  0999 V2000
   13.0469    6.0349    2.3069 C   0  0  0  0  0  0  0  0  0  0  0  0
   12.6529    5.3100    1.1663 C   0  0  0  0  0  0  0  0  0  0  0  0
   12.1317    4.0924    1.5057 C   0  0  0  0  0  0  0  0  0  0  0  0
   11.9372    3.4303    2.6546 C   0  0  0  0  0  0  0  0  0  0  0  0
   12.3554    4.2029    3.7656 C   0  0  0  0  0  0  0  0  0  0  0  0
   12.8979    5.4801    3.5862 C   0  0  0  0  0  0  0  0  0  0  0  0
   13.4692    7.0314    2.1762 H   0  0  0  0  0  0  0  0  0  0  0  0
   12.7480    5.6857    0.1515 H   0  0  0  0  0  0  0  0  0  0  0  0
   11.5745    3.0504   -0.0488 N   0  0  0  0  0  0  0  0  0  0  0  0
   10.8355    2.2372   -0.2635 N   0  0  0  0  0  0  0  0  0  0  0  0
   13.2147    6.0554    4.4562 H   0  0  0  0  0  0  0  0  0  0  0  0
   12.2474    3.7760    4.7633 H   0  0  0  0  0  0  0  0  0  0  0  0
   11.4890    2.3825    2.7452 H   0  0  0  0  0  0  0  0  0  0  0  0
    9.3022    1.7917    1.3642 O   0  0  0  0  0  0  0  0  0  0  0  0
    9.6409    0.9995    2.2909 C   0  0  0  0  0  0  0  0  0  0  0  0
   10.7857    0.9179    2.8244 O   0  0  0  0  0  0  0  0  0  0  0  0
    8.5573    0.0413    2.7964 C   0  0  0  0  0  0  0  0  0  0  0  0
    7.5711    0.5160    2.7434 H   0  0  0  0  0  0  0  0  0  0  0  0
    8.5478   -0.8380    2.1360 H   0  0  0  0  0  0  0  0  0  0  0  0
    8.7820   -0.2880    3.8166 H   0  0  0  0  0  0  0  0  0  0  0  0
  1  6  2  0  0  0  0
  2  3  2  0  0  0  0
  2  1  1  0  0  0  0
  3  4  1  0  0  0  0
  4 13  1  0  0  0  0
  4  5  2  0  0  0  0
  5 12  1  0  0  0  0
  6  5  1  0  0  0  0
  6 11  1  0  0  0  0
  7  1  1  0  0  0  0
  8  2  1  0  0  0  0
 10  9  3  0  0  0  0
 14 15  2  0  0  0  0
 15 17  1  0  0  0  0
 15 16  1  0  0  0  0
 17 20  1  0  0  0  0
 18 17  1  0  0  0  0
 19 17  1  0  0  0  0
M  RAD  2   3   2  16   2
M  END
