Coordinates from ORCA-job Ph-N2-OOCCH3-B3LYPG-aug-cc-pVDZ-scan-d09-49-n400
 OpenBabel10311713213D

 20 18  0  0  0  0  0  0  0  0999 V2000
   13.3003    6.0619    2.3375 C   0  0  0  0  0  0  0  0  0  0  0  0
   12.7377    5.5288    1.1554 C   0  0  0  0  0  0  0  0  0  0  0  0
   12.1002    4.3598    1.4761 C   0  0  0  0  0  0  0  0  0  0  0  0
   11.8921    3.6699    2.5227 C   0  0  0  0  0  0  0  0  0  0  0  0
   12.4564    4.2000    3.7086 C   0  0  0  0  0  0  0  0  0  0  0  0
   13.1605    5.4108    3.5780 C   0  0  0  0  0  0  0  0  0  0  0  0
   13.8526    7.0007    2.2737 H   0  0  0  0  0  0  0  0  0  0  0  0
   12.8197    5.9963    0.1776 H   0  0  0  0  0  0  0  0  0  0  0  0
   11.2923    3.5868   -0.4456 N   0  0  0  0  0  0  0  0  0  0  0  0
   10.8610    2.7155   -0.9710 N   0  0  0  0  0  0  0  0  0  0  0  0
   13.6113    5.8620    4.4637 H   0  0  0  0  0  0  0  0  0  0  0  0
   12.3575    3.7121    4.6792 H   0  0  0  0  0  0  0  0  0  0  0  0
   10.8533    2.0181    2.8793 H   0  0  0  0  0  0  0  0  0  0  0  0
    9.2600    1.3769    1.2815 O   0  0  0  0  0  0  0  0  0  0  0  0
    9.3904    0.8801    2.3829 C   0  0  0  0  0  0  0  0  0  0  0  0
   10.3308    1.2694    3.2654 O   0  0  0  0  0  0  0  0  0  0  0  0
    8.5321   -0.2320    2.9330 C   0  0  0  0  0  0  0  0  0  0  0  0
    7.8114   -0.5482    2.1741 H   0  0  0  0  0  0  0  0  0  0  0  0
    9.1637   -1.0780    3.2350 H   0  0  0  0  0  0  0  0  0  0  0  0
    8.0041    0.1186    3.8303 H   0  0  0  0  0  0  0  0  0  0  0  0
  1  6  2  0  0  0  0
  2  3  2  0  0  0  0
  2  1  1  0  0  0  0
  3  4  1  0  0  0  0
  4  5  2  0  0  0  0
  5 12  1  0  0  0  0
  6  5  1  0  0  0  0
  6 11  1  0  0  0  0
  7  1  1  0  0  0  0
  8  2  1  0  0  0  0
 10  9  3  0  0  0  0
 13 16  1  0  0  0  0
 14 15  2  0  0  0  0
 15 17  1  0  0  0  0
 15 16  1  0  0  0  0
 17 19  1  0  0  0  0
 17 20  1  0  0  0  0
 18 17  1  0  0  0  0
M  RAD  2   3   2   4   2
M  END
