Coordinates from ORCA-job Ph-N2-OOCCH3-B3LYPG-aug-cc-pVDZ-scan-d09-49-n400
 OpenBabel10311713213D

 20 18  0  0  0  0  0  0  0  0999 V2000
   13.4139    6.0815    2.3955 C   0  0  0  0  0  0  0  0  0  0  0  0
   12.7489    5.4621    1.3065 C   0  0  0  0  0  0  0  0  0  0  0  0
   12.0955    4.3572    1.7955 C   0  0  0  0  0  0  0  0  0  0  0  0
   11.9815    3.8325    2.9313 C   0  0  0  0  0  0  0  0  0  0  0  0
   12.6230    4.4101    4.0387 C   0  0  0  0  0  0  0  0  0  0  0  0
   13.3514    5.5727    3.7079 C   0  0  0  0  0  0  0  0  0  0  0  0
   13.9932    6.9859    2.1991 H   0  0  0  0  0  0  0  0  0  0  0  0
   12.7805    5.8344    0.2864 H   0  0  0  0  0  0  0  0  0  0  0  0
   10.8622    3.4547   -1.2488 N   0  0  0  0  0  0  0  0  0  0  0  0
   10.4898    2.6215   -1.8701 N   0  0  0  0  0  0  0  0  0  0  0  0
   13.8871    6.0995    4.4998 H   0  0  0  0  0  0  0  0  0  0  0  0
   12.5814    4.0265    5.0573 H   0  0  0  0  0  0  0  0  0  0  0  0
   10.6839    2.0267    3.0159 H   0  0  0  0  0  0  0  0  0  0  0  0
    9.4177    1.2077    1.2360 O   0  0  0  0  0  0  0  0  0  0  0  0
    9.3775    0.7914    2.3744 C   0  0  0  0  0  0  0  0  0  0  0  0
   10.1370    1.2976    3.3743 O   0  0  0  0  0  0  0  0  0  0  0  0
    8.4990   -0.3324    2.8612 C   0  0  0  0  0  0  0  0  0  0  0  0
    7.9043   -0.7182    2.0289 H   0  0  0  0  0  0  0  0  0  0  0  0
    9.1197   -1.1324    3.2865 H   0  0  0  0  0  0  0  0  0  0  0  0
    7.8399    0.0306    3.6613 H   0  0  0  0  0  0  0  0  0  0  0  0
  1  6  2  0  0  0  0
  2  3  2  0  0  0  0
  2  1  1  0  0  0  0
  3  4  1  0  0  0  0
  4  5  2  0  0  0  0
  5 12  1  0  0  0  0
  6  5  1  0  0  0  0
  6 11  1  0  0  0  0
  7  1  1  0  0  0  0
  8  2  1  0  0  0  0
 10  9  3  0  0  0  0
 13 16  1  0  0  0  0
 14 15  2  0  0  0  0
 15 17  1  0  0  0  0
 15 16  1  0  0  0  0
 17 19  1  0  0  0  0
 17 20  1  0  0  0  0
 18 17  1  0  0  0  0
M  RAD  2   3   2   4   2
M  END
