Coordinates from ORCA-job Ph-N2-OOCCH3-B3LYPG-aug-cc-pVDZ-scan-d09-49-n400
 OpenBabel10311713213D

 20 18  0  0  0  0  0  0  0  0999 V2000
   13.3311    6.0711    2.3542 C   0  0  0  0  0  0  0  0  0  0  0  0
   12.7459    5.5308    1.1813 C   0  0  0  0  0  0  0  0  0  0  0  0
   12.1054    4.3759    1.5392 C   0  0  0  0  0  0  0  0  0  0  0  0
   11.9178    3.7188    2.6005 C   0  0  0  0  0  0  0  0  0  0  0  0
   12.4943    4.2390    3.7797 C   0  0  0  0  0  0  0  0  0  0  0  0
   13.2069    5.4428    3.6083 C   0  0  0  0  0  0  0  0  0  0  0  0
   13.8924    7.0034    2.2699 H   0  0  0  0  0  0  0  0  0  0  0  0
   12.8211    5.9887    0.1990 H   0  0  0  0  0  0  0  0  0  0  0  0
   11.2025    3.5910   -0.6719 N   0  0  0  0  0  0  0  0  0  0  0  0
   10.7782    2.7393   -1.2322 N   0  0  0  0  0  0  0  0  0  0  0  0
   13.6785    5.9066    4.4766 H   0  0  0  0  0  0  0  0  0  0  0  0
   12.4061    3.7666    4.7581 H   0  0  0  0  0  0  0  0  0  0  0  0
   10.8014    2.0090    2.9290 H   0  0  0  0  0  0  0  0  0  0  0  0
    9.3317    1.2773    1.2616 O   0  0  0  0  0  0  0  0  0  0  0  0
    9.3889    0.8346    2.3904 C   0  0  0  0  0  0  0  0  0  0  0  0
   10.2627    1.2816    3.3184 O   0  0  0  0  0  0  0  0  0  0  0  0
    8.5130   -0.2656    2.9351 C   0  0  0  0  0  0  0  0  0  0  0  0
    7.8349   -0.6148    2.1518 H   0  0  0  0  0  0  0  0  0  0  0  0
    9.1363   -1.0948    3.2955 H   0  0  0  0  0  0  0  0  0  0  0  0
    7.9382    0.1084    3.7932 H   0  0  0  0  0  0  0  0  0  0  0  0
  1  6  2  0  0  0  0
  2  3  2  0  0  0  0
  2  1  1  0  0  0  0
  3  4  1  0  0  0  0
  4  5  2  0  0  0  0
  5 12  1  0  0  0  0
  6  5  1  0  0  0  0
  6 11  1  0  0  0  0
  7  1  1  0  0  0  0
  8  2  1  0  0  0  0
 10  9  3  0  0  0  0
 13 16  1  0  0  0  0
 14 15  2  0  0  0  0
 15 17  1  0  0  0  0
 15 16  1  0  0  0  0
 17 19  1  0  0  0  0
 17 20  1  0  0  0  0
 18 17  1  0  0  0  0
M  RAD  2   3   2   4   2
M  END
