Coordinates from ORCA-job Ph-N2-OOCCH3-B3LYPG-aug-cc-pVDZ-scan-d09-49-n400
 OpenBabel11081710403D

 20 20  0  0  0  0  0  0  0  0999 V2000
   12.4593    5.9527    2.3082 C   0  0  0  0  0  0  0  0  0  0  0  0
   12.2187    5.0964    1.2283 C   0  0  0  0  0  0  0  0  0  0  0  0
   12.1160    3.7387    1.4977 C   0  0  0  0  0  0  0  0  0  0  0  0
   12.2930    3.1744    2.7544 C   0  0  0  0  0  0  0  0  0  0  0  0
   12.5516    4.0495    3.8148 C   0  0  0  0  0  0  0  0  0  0  0  0
   12.6267    5.4300    3.5952 C   0  0  0  0  0  0  0  0  0  0  0  0
   12.5270    7.0272    2.1385 H   0  0  0  0  0  0  0  0  0  0  0  0
   12.1060    5.4733    0.2134 H   0  0  0  0  0  0  0  0  0  0  0  0
   11.9213    2.7820    0.2533 N   0  0  0  0  0  0  0  0  0  0  0  0
   11.0939    1.9558    0.1034 N   0  0  0  0  0  0  0  0  0  0  0  0
   12.8266    6.1013    4.4304 H   0  0  0  0  0  0  0  0  0  0  0  0
   12.6955    3.6460    4.8170 H   0  0  0  0  0  0  0  0  0  0  0  0
   12.2317    2.0964    2.8954 H   0  0  0  0  0  0  0  0  0  0  0  0
    9.8739    1.9835    1.2744 O   0  0  0  0  0  0  0  0  0  0  0  0
    9.9147    0.8822    2.0228 C   0  0  0  0  0  0  0  0  0  0  0  0
   10.8958    0.1637    2.1312 O   0  0  0  0  0  0  0  0  0  0  0  0
    8.6036    0.6389    2.7445 C   0  0  0  0  0  0  0  0  0  0  0  0
    8.1721    1.5796    3.1076 H   0  0  0  0  0  0  0  0  0  0  0  0
    7.8910    0.1956    2.0346 H   0  0  0  0  0  0  0  0  0  0  0  0
    8.7690   -0.0577    3.5725 H   0  0  0  0  0  0  0  0  0  0  0  0
  1  6  2  0  0  0  0
  2  3  2  0  0  0  0
  2  1  1  0  0  0  0
  3  4  1  0  0  0  0
  4 13  1  0  0  0  0
  4  5  2  0  0  0  0
  5 12  1  0  0  0  0
  6  5  1  0  0  0  0
  6 11  1  0  0  0  0
  7  1  1  0  0  0  0
  8  2  1  0  0  0  0
  9  3  1  0  0  0  0
 10  9  1  0  0  0  0
 10 14  1  0  0  0  0
 14 15  1  0  0  0  0
 15 16  2  0  0  0  0
 15 17  1  0  0  0  0
 17 18  1  0  0  0  0
 17 20  1  0  0  0  0
 19 17  1  0  0  0  0
M  RAD  2   9   2  10   2
M  END
