Coordinates from ORCA-job Ph-N2-OOCCH3-B3LYPG-aug-cc-pVDZ-scan-d09-49-n400
 OpenBabel10311713213D

 20 18  0  0  0  0  0  0  0  0999 V2000
   13.3471    6.0774    2.3623 C   0  0  0  0  0  0  0  0  0  0  0  0
   12.7505    5.5269    1.2002 C   0  0  0  0  0  0  0  0  0  0  0  0
   12.1046    4.3761    1.5724 C   0  0  0  0  0  0  0  0  0  0  0  0
   11.9317    3.7443    2.6494 C   0  0  0  0  0  0  0  0  0  0  0  0
   12.5153    4.2676    3.8209 C   0  0  0  0  0  0  0  0  0  0  0  0
   13.2314    5.4662    3.6254 C   0  0  0  0  0  0  0  0  0  0  0  0
   13.9121    7.0061    2.2624 H   0  0  0  0  0  0  0  0  0  0  0  0
   12.8206    5.9738    0.2125 H   0  0  0  0  0  0  0  0  0  0  0  0
   11.1589    3.5780   -0.7759 N   0  0  0  0  0  0  0  0  0  0  0  0
   10.7463    2.7301   -1.3503 N   0  0  0  0  0  0  0  0  0  0  0  0
   13.7127    5.9393    4.4833 H   0  0  0  0  0  0  0  0  0  0  0  0
   12.4332    3.8073    4.8053 H   0  0  0  0  0  0  0  0  0  0  0  0
   10.7779    2.0029    2.9351 H   0  0  0  0  0  0  0  0  0  0  0  0
    9.3340    1.2565    1.2595 O   0  0  0  0  0  0  0  0  0  0  0  0
    9.3792    0.8194    2.3902 C   0  0  0  0  0  0  0  0  0  0  0  0
   10.2400    1.2783    3.3258 O   0  0  0  0  0  0  0  0  0  0  0  0
    8.5049   -0.2834    2.9316 C   0  0  0  0  0  0  0  0  0  0  0  0
    7.8333   -0.6370    2.1448 H   0  0  0  0  0  0  0  0  0  0  0  0
    9.1300   -1.1094    3.2966 H   0  0  0  0  0  0  0  0  0  0  0  0
    7.9237    0.0891    3.7859 H   0  0  0  0  0  0  0  0  0  0  0  0
  1  6  2  0  0  0  0
  2  3  2  0  0  0  0
  2  1  1  0  0  0  0
  3  4  1  0  0  0  0
  4  5  2  0  0  0  0
  5 12  1  0  0  0  0
  6  5  1  0  0  0  0
  6 11  1  0  0  0  0
  7  1  1  0  0  0  0
  8  2  1  0  0  0  0
 10  9  3  0  0  0  0
 13 16  1  0  0  0  0
 14 15  2  0  0  0  0
 15 17  1  0  0  0  0
 15 16  1  0  0  0  0
 17 19  1  0  0  0  0
 17 20  1  0  0  0  0
 18 17  1  0  0  0  0
M  RAD  2   3   2   4   2
M  END
