Coordinates from ORCA-job Ph-N2-OOCCH3-B3LYPG-aug-cc-pVDZ-scan-d09-49-n400
 OpenBabel10311713213D

 20 18  0  0  0  0  0  0  0  0999 V2000
   13.4446    6.0786    2.4206 C   0  0  0  0  0  0  0  0  0  0  0  0
   12.7411    5.4086    1.3877 C   0  0  0  0  0  0  0  0  0  0  0  0
   12.0948    4.3308    1.9477 C   0  0  0  0  0  0  0  0  0  0  0  0
   12.0263    3.8816    3.1176 C   0  0  0  0  0  0  0  0  0  0  0  0
   12.7002    4.5015    4.1772 C   0  0  0  0  0  0  0  0  0  0  0  0
   13.4232    5.6405    3.7597 C   0  0  0  0  0  0  0  0  0  0  0  0
   14.0221    6.9674    2.1591 H   0  0  0  0  0  0  0  0  0  0  0  0
   12.7437    5.7304    0.3497 H   0  0  0  0  0  0  0  0  0  0  0  0
   10.6663    3.3763   -1.5730 N   0  0  0  0  0  0  0  0  0  0  0  0
   10.3186    2.5400   -2.2042 N   0  0  0  0  0  0  0  0  0  0  0  0
   13.9876    6.2047    4.5047 H   0  0  0  0  0  0  0  0  0  0  0  0
   12.6890    4.1711    5.2147 H   0  0  0  0  0  0  0  0  0  0  0  0
   10.6354    2.0396    3.0646 H   0  0  0  0  0  0  0  0  0  0  0  0
    9.4826    1.1853    1.2252 O   0  0  0  0  0  0  0  0  0  0  0  0
    9.3847    0.7803    2.3640 C   0  0  0  0  0  0  0  0  0  0  0  0
   10.0792    1.3087    3.3998 O   0  0  0  0  0  0  0  0  0  0  0  0
    8.4975   -0.3518    2.8139 C   0  0  0  0  0  0  0  0  0  0  0  0
    7.9568   -0.7562    1.9541 H   0  0  0  0  0  0  0  0  0  0  0  0
    9.1053   -1.1371    3.2831 H   0  0  0  0  0  0  0  0  0  0  0  0
    7.7887    0.0094    3.5712 H   0  0  0  0  0  0  0  0  0  0  0  0
  1  6  2  0  0  0  0
  2  3  2  0  0  0  0
  2  1  1  0  0  0  0
  3  4  1  0  0  0  0
  4  5  2  0  0  0  0
  5 12  1  0  0  0  0
  6  5  1  0  0  0  0
  6 11  1  0  0  0  0
  7  1  1  0  0  0  0
  8  2  1  0  0  0  0
 10  9  3  0  0  0  0
 13 16  1  0  0  0  0
 14 15  2  0  0  0  0
 15 17  1  0  0  0  0
 15 16  1  0  0  0  0
 17 19  1  0  0  0  0
 17 20  1  0  0  0  0
 18 17  1  0  0  0  0
M  RAD  2   3   2   4   2
M  END
