Coordinates from ORCA-job Ph-N2-OOCCH3-B3LYPG-aug-cc-pVDZ-scan-d09-49-n400
 OpenBabel10311713213D

 20 18  0  0  0  0  0  0  0  0999 V2000
   13.3729    6.0834    2.3744 C   0  0  0  0  0  0  0  0  0  0  0  0
   12.7471    5.4969    1.2435 C   0  0  0  0  0  0  0  0  0  0  0  0
   12.1057    4.3658    1.6767 C   0  0  0  0  0  0  0  0  0  0  0  0
   11.9599    3.7802    2.7802 C   0  0  0  0  0  0  0  0  0  0  0  0
   12.5677    4.3322    3.9227 C   0  0  0  0  0  0  0  0  0  0  0  0
   13.2844    5.5195    3.6622 C   0  0  0  0  0  0  0  0  0  0  0  0
   13.9406    7.0046    2.2297 H   0  0  0  0  0  0  0  0  0  0  0  0
   12.7976    5.9096    0.2402 H   0  0  0  0  0  0  0  0  0  0  0  0
   11.0524    3.5405   -0.9917 N   0  0  0  0  0  0  0  0  0  0  0  0
   10.6596    2.7048   -1.5968 N   0  0  0  0  0  0  0  0  0  0  0  0
   13.7891    6.0220    4.4895 H   0  0  0  0  0  0  0  0  0  0  0  0
   12.5066    3.9077    4.9243 H   0  0  0  0  0  0  0  0  0  0  0  0
   10.7444    1.9964    2.9602 H   0  0  0  0  0  0  0  0  0  0  0  0
    9.3466    1.2259    1.2457 O   0  0  0  0  0  0  0  0  0  0  0  0
    9.3689    0.7981    2.3805 C   0  0  0  0  0  0  0  0  0  0  0  0
   10.2014    1.2708    3.3365 O   0  0  0  0  0  0  0  0  0  0  0  0
    8.4930   -0.3094    2.9092 C   0  0  0  0  0  0  0  0  0  0  0  0
    7.8411   -0.6726    2.1102 H   0  0  0  0  0  0  0  0  0  0  0  0
    9.1175   -1.1283    3.2908 H   0  0  0  0  0  0  0  0  0  0  0  0
    7.8910    0.0617    3.7496 H   0  0  0  0  0  0  0  0  0  0  0  0
  1  6  2  0  0  0  0
  2  3  2  0  0  0  0
  2  1  1  0  0  0  0
  3  4  1  0  0  0  0
  4  5  2  0  0  0  0
  5 12  1  0  0  0  0
  6  5  1  0  0  0  0
  6 11  1  0  0  0  0
  7  1  1  0  0  0  0
  8  2  1  0  0  0  0
 10  9  3  0  0  0  0
 13 16  1  0  0  0  0
 14 15  2  0  0  0  0
 15 17  1  0  0  0  0
 15 16  1  0  0  0  0
 17 19  1  0  0  0  0
 17 20  1  0  0  0  0
 18 17  1  0  0  0  0
M  RAD  2   3   2   4   2
M  END
