Coordinates from ORCA-job Ph-N2-OOCCH3-B3LYPG-aug-cc-pVDZ-scan-d09-49-n400
 OpenBabel10311713213D

 20 18  0  0  0  0  0  0  0  0999 V2000
   13.3506    6.0780    2.3639 C   0  0  0  0  0  0  0  0  0  0  0  0
   12.7503    5.5237    1.2053 C   0  0  0  0  0  0  0  0  0  0  0  0
   12.1041    4.3749    1.5836 C   0  0  0  0  0  0  0  0  0  0  0  0
   11.9350    3.7496    2.6646 C   0  0  0  0  0  0  0  0  0  0  0  0
   12.5213    4.2751    3.8331 C   0  0  0  0  0  0  0  0  0  0  0  0
   13.2379    5.4723    3.6299 C   0  0  0  0  0  0  0  0  0  0  0  0
   13.9163    7.0056    2.2588 H   0  0  0  0  0  0  0  0  0  0  0  0
   12.8184    5.9670    0.2159 H   0  0  0  0  0  0  0  0  0  0  0  0
   11.1461    3.5747   -0.8043 N   0  0  0  0  0  0  0  0  0  0  0  0
   10.7364    2.7285   -1.3832 N   0  0  0  0  0  0  0  0  0  0  0  0
   13.7223    5.9486    4.4843 H   0  0  0  0  0  0  0  0  0  0  0  0
   12.4414    3.8188    4.8195 H   0  0  0  0  0  0  0  0  0  0  0  0
   10.7723    2.0025    2.9395 H   0  0  0  0  0  0  0  0  0  0  0  0
    9.3370    1.2523    1.2590 O   0  0  0  0  0  0  0  0  0  0  0  0
    9.3780    0.8165    2.3903 C   0  0  0  0  0  0  0  0  0  0  0  0
   10.2340    1.2781    3.3292 O   0  0  0  0  0  0  0  0  0  0  0  0
    8.5035   -0.2872    2.9294 C   0  0  0  0  0  0  0  0  0  0  0  0
    7.8350   -0.6422    2.1405 H   0  0  0  0  0  0  0  0  0  0  0  0
    9.1286   -1.1121    3.2968 H   0  0  0  0  0  0  0  0  0  0  0  0
    7.9189    0.0848    3.7817 H   0  0  0  0  0  0  0  0  0  0  0  0
  1  6  2  0  0  0  0
  2  3  2  0  0  0  0
  2  1  1  0  0  0  0
  3  4  1  0  0  0  0
  4  5  2  0  0  0  0
  5 12  1  0  0  0  0
  6  5  1  0  0  0  0
  6 11  1  0  0  0  0
  7  1  1  0  0  0  0
  8  2  1  0  0  0  0
 10  9  3  0  0  0  0
 13 16  1  0  0  0  0
 14 15  2  0  0  0  0
 15 17  1  0  0  0  0
 15 16  1  0  0  0  0
 17 19  1  0  0  0  0
 17 20  1  0  0  0  0
 18 17  1  0  0  0  0
M  RAD  2   3   2   4   2
M  END
