Coordinates from ORCA-job Ph-N2-OOCCH3-B3LYPG-aug-cc-pVDZ-scan-d09-49-n400
 OpenBabel10311713213D

 20 18  0  0  0  0  0  0  0  0999 V2000
   13.3156    6.0677    2.3474 C   0  0  0  0  0  0  0  0  0  0  0  0
   12.7435    5.5330    1.1675 C   0  0  0  0  0  0  0  0  0  0  0  0
   12.1049    4.3698    1.5047 C   0  0  0  0  0  0  0  0  0  0  0  0
   11.9071    3.6961    2.5575 C   0  0  0  0  0  0  0  0  0  0  0  0
   12.4751    4.2178    3.7425 C   0  0  0  0  0  0  0  0  0  0  0  0
   13.1828    5.4261    3.5935 C   0  0  0  0  0  0  0  0  0  0  0  0
   13.8720    7.0038    2.2754 H   0  0  0  0  0  0  0  0  0  0  0  0
   12.8237    5.9983    0.1890 H   0  0  0  0  0  0  0  0  0  0  0  0
   11.2517    3.5918   -0.5692 N   0  0  0  0  0  0  0  0  0  0  0  0
   10.8281    2.7290   -1.1133 N   0  0  0  0  0  0  0  0  0  0  0  0
   13.6428    5.8828    4.4717 H   0  0  0  0  0  0  0  0  0  0  0  0
   12.3806    3.7360    4.7161 H   0  0  0  0  0  0  0  0  0  0  0  0
   10.8248    2.0110    2.9046 H   0  0  0  0  0  0  0  0  0  0  0  0
    9.2906    1.3274    1.2745 O   0  0  0  0  0  0  0  0  0  0  0  0
    9.3855    0.8571    2.3900 C   0  0  0  0  0  0  0  0  0  0  0  0
   10.2951    1.2747    3.2951 O   0  0  0  0  0  0  0  0  0  0  0  0
    8.5211   -0.2508    2.9381 C   0  0  0  0  0  0  0  0  0  0  0  0
    7.8191   -0.5821    2.1682 H   0  0  0  0  0  0  0  0  0  0  0  0
    9.1508   -1.0891    3.2649 H   0  0  0  0  0  0  0  0  0  0  0  0
    7.9725    0.1091    3.8191 H   0  0  0  0  0  0  0  0  0  0  0  0
  1  6  2  0  0  0  0
  2  3  2  0  0  0  0
  2  1  1  0  0  0  0
  3  4  1  0  0  0  0
  4  5  2  0  0  0  0
  5 12  1  0  0  0  0
  6  5  1  0  0  0  0
  6 11  1  0  0  0  0
  7  1  1  0  0  0  0
  8  2  1  0  0  0  0
 10  9  3  0  0  0  0
 13 16  1  0  0  0  0
 14 15  2  0  0  0  0
 15 17  1  0  0  0  0
 15 16  1  0  0  0  0
 17 19  1  0  0  0  0
 17 20  1  0  0  0  0
 18 17  1  0  0  0  0
M  RAD  2   3   2   4   2
M  END
