Coordinates from ORCA-job Ph-N2-OOCCH3-B3LYPG-aug-cc-pVDZ-scan-d09-49-n400
 OpenBabel10311713213D

 20 18  0  0  0  0  0  0  0  0999 V2000
   13.4025    6.0340    2.4266 C   0  0  0  0  0  0  0  0  0  0  0  0
   12.6229    5.2023    1.5846 C   0  0  0  0  0  0  0  0  0  0  0  0
   12.0900    4.1889    2.3531 C   0  0  0  0  0  0  0  0  0  0  0  0
   12.1843    3.9275    3.5756 C   0  0  0  0  0  0  0  0  0  0  0  0
   12.9349    4.7028    4.4628 C   0  0  0  0  0  0  0  0  0  0  0  0
   13.5510    5.7925    3.8075 C   0  0  0  0  0  0  0  0  0  0  0  0
   13.9055    6.8946    1.9811 H   0  0  0  0  0  0  0  0  0  0  0  0
   12.4970    5.3745    0.5188 H   0  0  0  0  0  0  0  0  0  0  0  0
   10.3324    3.1369   -1.9764 N   0  0  0  0  0  0  0  0  0  0  0  0
   10.0739    2.2157   -2.5274 N   0  0  0  0  0  0  0  0  0  0  0  0
   14.1666    6.4758    4.3958 H   0  0  0  0  0  0  0  0  0  0  0  0
   13.0527    4.5236    5.5302 H   0  0  0  0  0  0  0  0  0  0  0  0
   10.6181    2.0242    3.2129 H   0  0  0  0  0  0  0  0  0  0  0  0
    9.5970    1.3646    1.2304 O   0  0  0  0  0  0  0  0  0  0  0  0
    9.4166    0.8524    2.3149 C   0  0  0  0  0  0  0  0  0  0  0  0
   10.0405    1.2722    3.4418 O   0  0  0  0  0  0  0  0  0  0  0  0
    8.4935   -0.3058    2.5912 C   0  0  0  0  0  0  0  0  0  0  0  0
    8.0209   -0.6269    1.6592 H   0  0  0  0  0  0  0  0  0  0  0  0
    9.0590   -1.1356    3.0358 H   0  0  0  0  0  0  0  0  0  0  0  0
    7.7280   -0.0046    3.3191 H   0  0  0  0  0  0  0  0  0  0  0  0
  1  6  2  0  0  0  0
  2  3  2  0  0  0  0
  2  1  1  0  0  0  0
  3  4  1  0  0  0  0
  4  5  2  0  0  0  0
  5 12  1  0  0  0  0
  6 11  1  0  0  0  0
  6  5  1  0  0  0  0
  7  1  1  0  0  0  0
  8  2  1  0  0  0  0
 10  9  3  0  0  0  0
 13 16  1  0  0  0  0
 14 15  2  0  0  0  0
 15 17  1  0  0  0  0
 15 16  1  0  0  0  0
 17 19  1  0  0  0  0
 17 20  1  0  0  0  0
 18 17  1  0  0  0  0
M  RAD  2   3   2   4   2
M  END
