Coordinates from ORCA-job Ph-N2-OOCCH3-B3LYPG-aug-cc-pVDZ-scan-d09-49-n400
 OpenBabel10311713213D

 20 18  0  0  0  0  0  0  0  0999 V2000
   13.4106    6.0435    2.4256 C   0  0  0  0  0  0  0  0  0  0  0  0
   12.6395    5.2303    1.5582 C   0  0  0  0  0  0  0  0  0  0  0  0
   12.0904    4.2065    2.3000 C   0  0  0  0  0  0  0  0  0  0  0  0
   12.1635    3.9203    3.5192 C   0  0  0  0  0  0  0  0  0  0  0  0
   12.9058    4.6789    4.4288 C   0  0  0  0  0  0  0  0  0  0  0  0
   13.5371    5.7768    3.8035 C   0  0  0  0  0  0  0  0  0  0  0  0
   13.9240    6.9092    2.0025 H   0  0  0  0  0  0  0  0  0  0  0  0
   12.5303    5.4222    0.4941 H   0  0  0  0  0  0  0  0  0  0  0  0
   10.3653    3.1456   -1.8963 N   0  0  0  0  0  0  0  0  0  0  0  0
   10.0843    2.2397   -2.4616 N   0  0  0  0  0  0  0  0  0  0  0  0
   14.1470    6.4464    4.4130 H   0  0  0  0  0  0  0  0  0  0  0  0
   13.0073    4.4806    5.4946 H   0  0  0  0  0  0  0  0  0  0  0  0
   10.6212    2.0276    3.1962 H   0  0  0  0  0  0  0  0  0  0  0  0
    9.5961    1.3433    1.2249 O   0  0  0  0  0  0  0  0  0  0  0  0
    9.4180    0.8441    2.3152 C   0  0  0  0  0  0  0  0  0  0  0  0
   10.0466    1.2757    3.4338 O   0  0  0  0  0  0  0  0  0  0  0  0
    8.4934   -0.3088    2.6082 C   0  0  0  0  0  0  0  0  0  0  0  0
    8.0152   -0.6385    1.6821 H   0  0  0  0  0  0  0  0  0  0  0  0
    9.0593   -1.1355    3.0583 H   0  0  0  0  0  0  0  0  0  0  0  0
    7.7326    0.0016    3.3371 H   0  0  0  0  0  0  0  0  0  0  0  0
  1  6  2  0  0  0  0
  2  3  2  0  0  0  0
  2  1  1  0  0  0  0
  3  4  1  0  0  0  0
  4  5  2  0  0  0  0
  5 12  1  0  0  0  0
  6 11  1  0  0  0  0
  6  5  1  0  0  0  0
  7  1  1  0  0  0  0
  8  2  1  0  0  0  0
 10  9  3  0  0  0  0
 13 16  1  0  0  0  0
 14 15  2  0  0  0  0
 15 17  1  0  0  0  0
 15 16  1  0  0  0  0
 17 19  1  0  0  0  0
 17 20  1  0  0  0  0
 18 17  1  0  0  0  0
M  RAD  2   3   2   4   2
M  END
