Coordinates from ORCA-job Ph-N2-OOCCH3-B3LYPG-aug-cc-pVDZ-scan-d09-49-n400
 OpenBabel10311713213D

 20 18  0  0  0  0  0  0  0  0999 V2000
   13.2930    6.0536    2.3265 C   0  0  0  0  0  0  0  0  0  0  0  0
   12.7344    5.5143    1.1477 C   0  0  0  0  0  0  0  0  0  0  0  0
   12.0946    4.3441    1.4632 C   0  0  0  0  0  0  0  0  0  0  0  0
   11.8789    3.6468    2.5107 C   0  0  0  0  0  0  0  0  0  0  0  0
   12.4446    4.1931    3.6911 C   0  0  0  0  0  0  0  0  0  0  0  0
   13.1483    5.4033    3.5667 C   0  0  0  0  0  0  0  0  0  0  0  0
   13.8441    6.9928    2.2618 H   0  0  0  0  0  0  0  0  0  0  0  0
   12.8180    5.9775    0.1678 H   0  0  0  0  0  0  0  0  0  0  0  0
   11.3179    3.5903   -0.3516 N   0  0  0  0  0  0  0  0  0  0  0  0
   10.8452    2.7410   -0.8783 N   0  0  0  0  0  0  0  0  0  0  0  0
   13.5948    5.8547    4.4546 H   0  0  0  0  0  0  0  0  0  0  0  0
   12.3436    3.7074    4.6630 H   0  0  0  0  0  0  0  0  0  0  0  0
   10.8727    2.0264    2.8711 H   0  0  0  0  0  0  0  0  0  0  0  0
    9.2619    1.3953    1.2780 O   0  0  0  0  0  0  0  0  0  0  0  0
    9.4011    0.8920    2.3765 C   0  0  0  0  0  0  0  0  0  0  0  0
   10.3492    1.2700    3.2518 O   0  0  0  0  0  0  0  0  0  0  0  0
    8.5414   -0.2208    2.9242 C   0  0  0  0  0  0  0  0  0  0  0  0
    7.8255   -0.5405    2.1621 H   0  0  0  0  0  0  0  0  0  0  0  0
    9.1719   -1.0645    3.2343 H   0  0  0  0  0  0  0  0  0  0  0  0
    8.0064    0.1329    3.8163 H   0  0  0  0  0  0  0  0  0  0  0  0
  1  6  2  0  0  0  0
  2  3  2  0  0  0  0
  2  1  1  0  0  0  0
  3  4  1  0  0  0  0
  4  5  2  0  0  0  0
  5 12  1  0  0  0  0
  6  5  1  0  0  0  0
  6 11  1  0  0  0  0
  7  1  1  0  0  0  0
  8  2  1  0  0  0  0
 10  9  3  0  0  0  0
 13 16  1  0  0  0  0
 14 15  2  0  0  0  0
 15 17  1  0  0  0  0
 15 16  1  0  0  0  0
 17 19  1  0  0  0  0
 17 20  1  0  0  0  0
 18 17  1  0  0  0  0
M  RAD  2   3   2   4   2
M  END
