Coordinates from ORCA-job Ph-N2-OOCCH3-B3LYPG-aug-cc-pVDZ-scan-d09-49-n400
 OpenBabel10311713213D

 20 18  0  0  0  0  0  0  0  0999 V2000
   13.3744    6.0836    2.3752 C   0  0  0  0  0  0  0  0  0  0  0  0
   12.7468    5.4948    1.2465 C   0  0  0  0  0  0  0  0  0  0  0  0
   12.1055    4.3648    1.6830 C   0  0  0  0  0  0  0  0  0  0  0  0
   11.9617    3.7823    2.7882 C   0  0  0  0  0  0  0  0  0  0  0  0
   12.5709    4.3362    3.9289 C   0  0  0  0  0  0  0  0  0  0  0  0
   13.2876    5.5227    3.6644 C   0  0  0  0  0  0  0  0  0  0  0  0
   13.9421    7.0044    2.2277 H   0  0  0  0  0  0  0  0  0  0  0  0
   12.7961    5.9054    0.2422 H   0  0  0  0  0  0  0  0  0  0  0  0
   11.0453    3.5376   -1.0046 N   0  0  0  0  0  0  0  0  0  0  0  0
   10.6537    2.7026   -1.6112 N   0  0  0  0  0  0  0  0  0  0  0  0
   13.7936    6.0269    4.4898 H   0  0  0  0  0  0  0  0  0  0  0  0
   12.5111    3.9139    4.9314 H   0  0  0  0  0  0  0  0  0  0  0  0
   10.7426    1.9960    2.9617 H   0  0  0  0  0  0  0  0  0  0  0  0
    9.3481    1.2245    1.2450 O   0  0  0  0  0  0  0  0  0  0  0  0
    9.3687    0.7970    2.3799 C   0  0  0  0  0  0  0  0  0  0  0  0
   10.1994    1.2705    3.3372 O   0  0  0  0  0  0  0  0  0  0  0  0
    8.4924   -0.3107    2.9075 C   0  0  0  0  0  0  0  0  0  0  0  0
    7.8419   -0.6743    2.1076 H   0  0  0  0  0  0  0  0  0  0  0  0
    9.1167   -1.1292    3.2903 H   0  0  0  0  0  0  0  0  0  0  0  0
    7.8890    0.0604    3.7469 H   0  0  0  0  0  0  0  0  0  0  0  0
  1  6  2  0  0  0  0
  2  3  2  0  0  0  0
  2  1  1  0  0  0  0
  3  4  1  0  0  0  0
  4  5  2  0  0  0  0
  5 12  1  0  0  0  0
  6  5  1  0  0  0  0
  6 11  1  0  0  0  0
  7  1  1  0  0  0  0
  8  2  1  0  0  0  0
 10  9  3  0  0  0  0
 13 16  1  0  0  0  0
 14 15  2  0  0  0  0
 15 17  1  0  0  0  0
 15 16  1  0  0  0  0
 17 19  1  0  0  0  0
 17 20  1  0  0  0  0
 18 17  1  0  0  0  0
M  RAD  2   3   2   4   2
M  END
