Coordinates from ORCA-job Ph-N2-OOCCH3-B3LYPG-aug-cc-pVDZ-scan-d09-49-n400
 OpenBabel10311713213D

 20 18  0  0  0  0  0  0  0  0999 V2000
   13.4515    6.0734    2.4290 C   0  0  0  0  0  0  0  0  0  0  0  0
   12.7278    5.3694    1.4337 C   0  0  0  0  0  0  0  0  0  0  0  0
   12.0942    4.3076    2.0394 C   0  0  0  0  0  0  0  0  0  0  0  0
   12.0552    3.9020    3.2261 C   0  0  0  0  0  0  0  0  0  0  0  0
   12.7483    4.5536    4.2524 C   0  0  0  0  0  0  0  0  0  0  0  0
   13.4596    5.6794    3.7820 C   0  0  0  0  0  0  0  0  0  0  0  0
   14.0216    6.9541    2.1270 H   0  0  0  0  0  0  0  0  0  0  0  0
   12.7083    5.6579    0.3860 H   0  0  0  0  0  0  0  0  0  0  0  0
   10.5963    3.3637   -1.7562 N   0  0  0  0  0  0  0  0  0  0  0  0
   10.2611    2.5319   -2.4001 N   0  0  0  0  0  0  0  0  0  0  0  0
   14.0386    6.2685    4.4959 H   0  0  0  0  0  0  0  0  0  0  0  0
   12.7593    4.2570    5.3000 H   0  0  0  0  0  0  0  0  0  0  0  0
   10.6127    2.0354    3.0796 H   0  0  0  0  0  0  0  0  0  0  0  0
    9.5010    1.1700    1.2229 O   0  0  0  0  0  0  0  0  0  0  0  0
    9.3816    0.7693    2.3612 C   0  0  0  0  0  0  0  0  0  0  0  0
   10.0527    1.3058    3.4085 O   0  0  0  0  0  0  0  0  0  0  0  0
    8.4906   -0.3648    2.7981 C   0  0  0  0  0  0  0  0  0  0  0  0
    7.9679   -0.7744    1.9297 H   0  0  0  0  0  0  0  0  0  0  0  0
    9.0927   -1.1461    3.2813 H   0  0  0  0  0  0  0  0  0  0  0  0
    7.7663   -0.0041    3.5408 H   0  0  0  0  0  0  0  0  0  0  0  0
  1  6  2  0  0  0  0
  2  3  2  0  0  0  0
  2  1  1  0  0  0  0
  3  4  1  0  0  0  0
  4  5  2  0  0  0  0
  5 12  1  0  0  0  0
  6  5  1  0  0  0  0
  6 11  1  0  0  0  0
  7  1  1  0  0  0  0
  8  2  1  0  0  0  0
 10  9  3  0  0  0  0
 13 16  1  0  0  0  0
 14 15  2  0  0  0  0
 15 17  1  0  0  0  0
 15 16  1  0  0  0  0
 17 19  1  0  0  0  0
 17 20  1  0  0  0  0
 18 17  1  0  0  0  0
M  RAD  2   3   2   4   2
M  END
