Coordinates from ORCA-job Ph-N2-OOCCH3-B3LYPG-aug-cc-pVDZ-scan-d09-49-n400
 OpenBabel10311713213D

 20 18  0  0  0  0  0  0  0  0999 V2000
   13.4511    6.0743    2.4250 C   0  0  0  0  0  0  0  0  0  0  0  0
   12.7350    5.3880    1.4118 C   0  0  0  0  0  0  0  0  0  0  0  0
   12.0904    4.3209    1.9958 C   0  0  0  0  0  0  0  0  0  0  0  0
   12.0352    3.8933    3.1750 C   0  0  0  0  0  0  0  0  0  0  0  0
   12.7221    4.5309    4.2159 C   0  0  0  0  0  0  0  0  0  0  0  0
   13.4430    5.6602    3.7713 C   0  0  0  0  0  0  0  0  0  0  0  0
   14.0278    6.9569    2.1417 H   0  0  0  0  0  0  0  0  0  0  0  0
   12.7277    5.6921    0.3685 H   0  0  0  0  0  0  0  0  0  0  0  0
   10.6270    3.3704   -1.6677 N   0  0  0  0  0  0  0  0  0  0  0  0
   10.2855    2.5366   -2.3058 N   0  0  0  0  0  0  0  0  0  0  0  0
   14.0168    6.2359    4.5001 H   0  0  0  0  0  0  0  0  0  0  0  0
   12.7215    4.2189    5.2592 H   0  0  0  0  0  0  0  0  0  0  0  0
   10.6223    2.0390    3.0725 H   0  0  0  0  0  0  0  0  0  0  0  0
    9.4938    1.1779    1.2249 O   0  0  0  0  0  0  0  0  0  0  0  0
    9.3838    0.7747    2.3628 C   0  0  0  0  0  0  0  0  0  0  0  0
   10.0646    1.3083    3.4041 O   0  0  0  0  0  0  0  0  0  0  0  0
    8.4956   -0.3597    2.8053 C   0  0  0  0  0  0  0  0  0  0  0  0
    7.9656   -0.7675    1.9405 H   0  0  0  0  0  0  0  0  0  0  0  0
    9.1011   -1.1421    3.2823 H   0  0  0  0  0  0  0  0  0  0  0  0
    7.7776    0.0004    3.5544 H   0  0  0  0  0  0  0  0  0  0  0  0
  1  6  2  0  0  0  0
  2  3  2  0  0  0  0
  2  1  1  0  0  0  0
  3  4  1  0  0  0  0
  4  5  2  0  0  0  0
  5 12  1  0  0  0  0
  6  5  1  0  0  0  0
  6 11  1  0  0  0  0
  7  1  1  0  0  0  0
  8  2  1  0  0  0  0
 10  9  3  0  0  0  0
 13 16  1  0  0  0  0
 14 15  2  0  0  0  0
 15 17  1  0  0  0  0
 15 16  1  0  0  0  0
 17 19  1  0  0  0  0
 17 20  1  0  0  0  0
 18 17  1  0  0  0  0
M  RAD  2   3   2   4   2
M  END
