Coordinates from ORCA-job Ph-N2-OOCCH3-B3LYPG-aug-cc-pVDZ-scan-d09-49-n400
 OpenBabel11081710403D

 20 19  0  0  0  0  0  0  0  0999 V2000
   12.1994    5.8345    2.3192 C   0  0  0  0  0  0  0  0  0  0  0  0
   11.9050    4.8981    1.3546 C   0  0  0  0  0  0  0  0  0  0  0  0
   12.1993    3.4660    1.5491 C   0  0  0  0  0  0  0  0  0  0  0  0
   12.8040    3.1390    2.8563 C   0  0  0  0  0  0  0  0  0  0  0  0
   13.0716    4.1206    3.7866 C   0  0  0  0  0  0  0  0  0  0  0  0
   12.7845    5.4689    3.5412 C   0  0  0  0  0  0  0  0  0  0  0  0
   11.9639    6.8794    2.1149 H   0  0  0  0  0  0  0  0  0  0  0  0
   11.4471    5.1556    0.4004 H   0  0  0  0  0  0  0  0  0  0  0  0
   11.9946    2.8094    0.9082 N   0  0  0  0  0  0  0  0  0  0  0  0
   11.6591    1.9895    0.1586 N   0  0  0  0  0  0  0  0  0  0  0  0
   13.0096    6.2259    4.2907 H   0  0  0  0  0  0  0  0  0  0  0  0
   13.5130    3.8186    4.7368 H   0  0  0  0  0  0  0  0  0  0  0  0
   12.9808    2.0815    3.0296 H   0  0  0  0  0  0  0  0  0  0  0  0
    9.6028    1.5951    0.7761 O   0  0  0  0  0  0  0  0  0  0  0  0
    9.6497    1.1954    1.9965 C   0  0  0  0  0  0  0  0  0  0  0  0
   10.6339    1.2707    2.7596 O   0  0  0  0  0  0  0  0  0  0  0  0
    8.3344    0.5930    2.5035 C   0  0  0  0  0  0  0  0  0  0  0  0
    7.5631    1.3748    2.5332 H   0  0  0  0  0  0  0  0  0  0  0  0
    7.9891   -0.1879    1.8143 H   0  0  0  0  0  0  0  0  0  0  0  0
    8.4825    0.1816    3.5078 H   0  0  0  0  0  0  0  0  0  0  0  0
  1  6  2  0  0  0  0
  2  3  2  0  0  0  0
  2  1  1  0  0  0  0
  3  4  1  0  0  0  0
  4 13  1  0  0  0  0
  4  5  2  0  0  0  0
  5 12  1  0  0  0  0
  6  5  1  0  0  0  0
  6 11  1  0  0  0  0
  7  1  1  0  0  0  0
  8  2  1  0  0  0  0
  9  3  1  0  0  0  0
 10  9  1  0  0  0  0
 14 15  2  0  0  0  0
 15 17  1  0  0  0  0
 15 16  1  0  0  0  0
 17 18  1  0  0  0  0
 17 20  1  0  0  0  0
 19 17  1  0  0  0  0
M  RAD  3   9   2  10   3  16   2
M  END
