Coordinates from ORCA-job Ph-N2-OOCCH3-B3LYPG-aug-cc-pVDZ-scan-d09-49-n400
 OpenBabel10311713213D

 20 19  0  0  0  0  0  0  0  0999 V2000
   12.5944    5.9911    2.3243 C   0  0  0  0  0  0  0  0  0  0  0  0
   12.3310    5.1697    1.2171 C   0  0  0  0  0  0  0  0  0  0  0  0
   12.1458    3.8402    1.5174 C   0  0  0  0  0  0  0  0  0  0  0  0
   12.2287    3.2086    2.7321 C   0  0  0  0  0  0  0  0  0  0  0  0
   12.5044    4.0642    3.8118 C   0  0  0  0  0  0  0  0  0  0  0  0
   12.6814    5.4377    3.6073 C   0  0  0  0  0  0  0  0  0  0  0  0
   12.7365    7.0611    2.1728 H   0  0  0  0  0  0  0  0  0  0  0  0
   12.2687    5.5555    0.2025 H   0  0  0  0  0  0  0  0  0  0  0  0
   11.8670    2.7671    0.0965 N   0  0  0  0  0  0  0  0  0  0  0  0
   11.0590    1.9636   -0.0559 N   0  0  0  0  0  0  0  0  0  0  0  0
   12.8954    6.0852    4.4576 H   0  0  0  0  0  0  0  0  0  0  0  0
   12.5796    3.6419    4.8139 H   0  0  0  0  0  0  0  0  0  0  0  0
   12.0684    2.1323    2.8358 H   0  0  0  0  0  0  0  0  0  0  0  0
    9.6758    1.9314    1.2395 O   0  0  0  0  0  0  0  0  0  0  0  0
    9.8583    0.9494    2.0804 C   0  0  0  0  0  0  0  0  0  0  0  0
   10.9424    0.4093    2.3172 O   0  0  0  0  0  0  0  0  0  0  0  0
    8.5745    0.5127    2.7775 C   0  0  0  0  0  0  0  0  0  0  0  0
    7.9426    1.3761    3.0177 H   0  0  0  0  0  0  0  0  0  0  0  0
    8.0113   -0.1345    2.0902 H   0  0  0  0  0  0  0  0  0  0  0  0
    8.8221   -0.0529    3.6819 H   0  0  0  0  0  0  0  0  0  0  0  0
  1  6  2  0  0  0  0
  2  3  2  0  0  0  0
  2  1  1  0  0  0  0
  3  4  1  0  0  0  0
  4 13  1  0  0  0  0
  4  5  2  0  0  0  0
  5 12  1  0  0  0  0
  6  5  1  0  0  0  0
  6 11  1  0  0  0  0
  7  1  1  0  0  0  0
  8  2  1  0  0  0  0
  9  3  1  0  0  0  0
 10  9  2  0  0  0  0
 14 15  2  0  0  0  0
 15 16  1  0  0  0  0
 15 17  1  0  0  0  0
 17 18  1  0  0  0  0
 17 20  1  0  0  0  0
 19 17  1  0  0  0  0
M  RAD  2  10   2  16   2
M  END
