Coordinates from ORCA-job Ph-N2-OOCCH3-B3LYPG-aug-cc-pVDZ-scan-d09-49-n400
 OpenBabel11081710403D

 20 20  0  0  0  0  0  0  0  0999 V2000
   12.8060    5.9928    2.2352 C   0  0  0  0  0  0  0  0  0  0  0  0
   12.4279    5.1568    1.1877 C   0  0  0  0  0  0  0  0  0  0  0  0
   12.0063    3.8440    1.4701 C   0  0  0  0  0  0  0  0  0  0  0  0
   12.0256    3.3432    2.7867 C   0  0  0  0  0  0  0  0  0  0  0  0
   12.4412    4.1854    3.8156 C   0  0  0  0  0  0  0  0  0  0  0  0
   12.8156    5.5078    3.5484 C   0  0  0  0  0  0  0  0  0  0  0  0
   13.1089    7.0183    2.0257 H   0  0  0  0  0  0  0  0  0  0  0  0
   12.4314    5.5054    0.1557 H   0  0  0  0  0  0  0  0  0  0  0  0
   11.6580    3.0672    0.4468 N   0  0  0  0  0  0  0  0  0  0  0  0
   10.9084    2.2178    0.1635 N   0  0  0  0  0  0  0  0  0  0  0  0
   13.1307    6.1585    4.3644 H   0  0  0  0  0  0  0  0  0  0  0  0
   12.4740    3.8043    4.8361 H   0  0  0  0  0  0  0  0  0  0  0  0
   11.7628    2.3021    2.9644 H   0  0  0  0  0  0  0  0  0  0  0  0
    9.6137    1.9703    1.4166 O   0  0  0  0  0  0  0  0  0  0  0  0
    9.8351    0.8503    2.0681 C   0  0  0  0  0  0  0  0  0  0  0  0
   10.9340    0.3048    2.1579 O   0  0  0  0  0  0  0  0  0  0  0  0
    8.5841    0.2810    2.7185 C   0  0  0  0  0  0  0  0  0  0  0  0
    7.9392    1.0796    3.1046 H   0  0  0  0  0  0  0  0  0  0  0  0
    8.0164   -0.2683    1.9537 H   0  0  0  0  0  0  0  0  0  0  0  0
    8.8681   -0.4117    3.5176 H   0  0  0  0  0  0  0  0  0  0  0  0
  1  6  2  0  0  0  0
  2  3  2  0  0  0  0
  2  1  1  0  0  0  0
  3  4  1  0  0  0  0
  4 13  1  0  0  0  0
  4  5  2  0  0  0  0
  5 12  1  0  0  0  0
  6  5  1  0  0  0  0
  6 11  1  0  0  0  0
  7  1  1  0  0  0  0
  8  2  1  0  0  0  0
  9  3  1  0  0  0  0
 10  9  1  0  0  0  0
 10 14  1  0  0  0  0
 14 15  1  0  0  0  0
 15 16  2  0  0  0  0
 15 17  1  0  0  0  0
 17 18  1  0  0  0  0
 17 20  1  0  0  0  0
 19 17  1  0  0  0  0
M  RAD  2   9   2  10   2
M  END
