Coordinates from ORCA-job Ph-N2-OOCCH3-B3LYPG-aug-cc-pVDZ-scan-d09-49-n400
 OpenBabel11081710403D

 20 19  0  0  0  0  0  0  0  0999 V2000
   12.2508    5.8763    2.3265 C   0  0  0  0  0  0  0  0  0  0  0  0
   11.9511    4.9338    1.3588 C   0  0  0  0  0  0  0  0  0  0  0  0
   12.2214    3.5431    1.5979 C   0  0  0  0  0  0  0  0  0  0  0  0
   12.7847    3.1659    2.8649 C   0  0  0  0  0  0  0  0  0  0  0  0
   13.0730    4.1403    3.8071 C   0  0  0  0  0  0  0  0  0  0  0  0
   12.8159    5.4920    3.5508 C   0  0  0  0  0  0  0  0  0  0  0  0
   12.0370    6.9258    2.1254 H   0  0  0  0  0  0  0  0  0  0  0  0
   11.5047    5.2121    0.4052 H   0  0  0  0  0  0  0  0  0  0  0  0
   11.9735    2.7604    0.8207 N   0  0  0  0  0  0  0  0  0  0  0  0
   11.5910    1.9627    0.1038 N   0  0  0  0  0  0  0  0  0  0  0  0
   13.0478    6.2448    4.3035 H   0  0  0  0  0  0  0  0  0  0  0  0
   13.4943    3.8342    4.7642 H   0  0  0  0  0  0  0  0  0  0  0  0
   12.9306    2.1062    3.0536 H   0  0  0  0  0  0  0  0  0  0  0  0
    9.5483    1.5403    0.7453 O   0  0  0  0  0  0  0  0  0  0  0  0
    9.6162    1.1569    1.9698 C   0  0  0  0  0  0  0  0  0  0  0  0
   10.6192    1.2506    2.7106 O   0  0  0  0  0  0  0  0  0  0  0  0
    8.3221    0.5475    2.5155 C   0  0  0  0  0  0  0  0  0  0  0  0
    7.5269    1.3058    2.5086 H   0  0  0  0  0  0  0  0  0  0  0  0
    7.9964   -0.2768    1.8676 H   0  0  0  0  0  0  0  0  0  0  0  0
    8.4824    0.1878    3.5378 H   0  0  0  0  0  0  0  0  0  0  0  0
  1  6  2  0  0  0  0
  2  3  2  0  0  0  0
  2  1  1  0  0  0  0
  3  4  1  0  0  0  0
  4 13  1  0  0  0  0
  4  5  2  0  0  0  0
  5 12  1  0  0  0  0
  6  5  1  0  0  0  0
  6 11  1  0  0  0  0
  7  1  1  0  0  0  0
  8  2  1  0  0  0  0
  9  3  1  0  0  0  0
 10  9  1  0  0  0  0
 14 15  2  0  0  0  0
 15 17  1  0  0  0  0
 15 16  1  0  0  0  0
 17 20  1  0  0  0  0
 18 17  1  0  0  0  0
 19 17  1  0  0  0  0
M  RAD  3   9   2  10   3  16   2
M  END
