Coordinates from ORCA-job Ph-N2-OOCCH3-B3LYPG-aug-cc-pVDZ-scan-d09-49-n400
 OpenBabel10311713213D

 20 18  0  0  0  0  0  0  0  0999 V2000
   13.4395    6.0617    2.4199 C   0  0  0  0  0  0  0  0  0  0  0  0
   12.6878    5.3045    1.4871 C   0  0  0  0  0  0  0  0  0  0  0  0
   12.0879    4.2613    2.1599 C   0  0  0  0  0  0  0  0  0  0  0  0
   12.1062    3.9215    3.3673 C   0  0  0  0  0  0  0  0  0  0  0  0
   12.8263    4.6221    4.3387 C   0  0  0  0  0  0  0  0  0  0  0  0
   13.5048    5.7323    3.7885 C   0  0  0  0  0  0  0  0  0  0  0  0
   13.9870    6.9333    2.0561 H   0  0  0  0  0  0  0  0  0  0  0  0
   12.6265    5.5455    0.4290 H   0  0  0  0  0  0  0  0  0  0  0  0
   10.4315    3.1482   -1.6472 N   0  0  0  0  0  0  0  0  0  0  0  0
   10.0898    2.2759   -2.2312 N   0  0  0  0  0  0  0  0  0  0  0  0
   14.1031    6.3608    4.4510 H   0  0  0  0  0  0  0  0  0  0  0  0
   12.8802    4.3747    5.3975 H   0  0  0  0  0  0  0  0  0  0  0  0
   10.6143    2.0442    3.1724 H   0  0  0  0  0  0  0  0  0  0  0  0
    9.5936    1.3158    1.2161 O   0  0  0  0  0  0  0  0  0  0  0  0
    9.4177    0.8365    2.3159 C   0  0  0  0  0  0  0  0  0  0  0  0
   10.0405    1.2964    3.4272 O   0  0  0  0  0  0  0  0  0  0  0  0
    8.5038   -0.3192    2.6302 C   0  0  0  0  0  0  0  0  0  0  0  0
    8.0239   -0.6663    1.7113 H   0  0  0  0  0  0  0  0  0  0  0  0
    9.0791   -1.1346    3.0889 H   0  0  0  0  0  0  0  0  0  0  0  0
    7.7442   -0.0049    3.3588 H   0  0  0  0  0  0  0  0  0  0  0  0
  1  6  2  0  0  0  0
  2  3  2  0  0  0  0
  2  1  1  0  0  0  0
  3  4  1  0  0  0  0
  4  5  2  0  0  0  0
  5 12  1  0  0  0  0
  6  5  1  0  0  0  0
  6 11  1  0  0  0  0
  7  1  1  0  0  0  0
  8  2  1  0  0  0  0
 10  9  3  0  0  0  0
 13 16  1  0  0  0  0
 14 15  2  0  0  0  0
 15 17  1  0  0  0  0
 15 16  1  0  0  0  0
 17 19  1  0  0  0  0
 17 20  1  0  0  0  0
 18 17  1  0  0  0  0
M  RAD  2   3   2   4   2
M  END
