Coordinates from ORCA-job Ph-N2-OOCCH3-B3LYPG-aug-cc-pVDZ-scan-d09-49-n400
 OpenBabel10311713213D

 20 18  0  0  0  0  0  0  0  0999 V2000
   13.2951    6.0539    2.3265 C   0  0  0  0  0  0  0  0  0  0  0  0
   12.7328    5.5160    1.1484 C   0  0  0  0  0  0  0  0  0  0  0  0
   12.0927    4.3468    1.4662 C   0  0  0  0  0  0  0  0  0  0  0  0
   11.8794    3.6510    2.5140 C   0  0  0  0  0  0  0  0  0  0  0  0
   12.4480    4.1943    3.6940 C   0  0  0  0  0  0  0  0  0  0  0  0
   13.1529    5.4038    3.5671 C   0  0  0  0  0  0  0  0  0  0  0  0
   13.8473    6.9924    2.2607 H   0  0  0  0  0  0  0  0  0  0  0  0
   12.8146    5.9797    0.1686 H   0  0  0  0  0  0  0  0  0  0  0  0
   11.3084    3.5924   -0.3567 N   0  0  0  0  0  0  0  0  0  0  0  0
   10.8381    2.7405   -0.8811 N   0  0  0  0  0  0  0  0  0  0  0  0
   13.6023    5.8547    4.4537 H   0  0  0  0  0  0  0  0  0  0  0  0
   12.3487    3.7085    4.6660 H   0  0  0  0  0  0  0  0  0  0  0  0
   10.8678    2.0276    2.8763 H   0  0  0  0  0  0  0  0  0  0  0  0
    9.2770    1.3816    1.2710 O   0  0  0  0  0  0  0  0  0  0  0  0
    9.4048    0.8867    2.3745 C   0  0  0  0  0  0  0  0  0  0  0  0
   10.3419    1.2743    3.2580 O   0  0  0  0  0  0  0  0  0  0  0  0
    8.5399   -0.2219    2.9225 C   0  0  0  0  0  0  0  0  0  0  0  0
    7.8307   -0.5468    2.1564 H   0  0  0  0  0  0  0  0  0  0  0  0
    9.1676   -1.0637    3.2436 H   0  0  0  0  0  0  0  0  0  0  0  0
    7.9975    0.1377    3.8076 H   0  0  0  0  0  0  0  0  0  0  0  0
  1  6  2  0  0  0  0
  2  3  2  0  0  0  0
  2  1  1  0  0  0  0
  3  4  1  0  0  0  0
  4  5  2  0  0  0  0
  5 12  1  0  0  0  0
  6  5  1  0  0  0  0
  6 11  1  0  0  0  0
  7  1  1  0  0  0  0
  8  2  1  0  0  0  0
 10  9  3  0  0  0  0
 13 16  1  0  0  0  0
 14 15  2  0  0  0  0
 15 17  1  0  0  0  0
 15 16  1  0  0  0  0
 17 19  1  0  0  0  0
 17 20  1  0  0  0  0
 18 17  1  0  0  0  0
M  RAD  2   3   2   4   2
M  END
