Coordinates from ORCA-job Ph-N2-OOCCH3-B3LYPG-aug-cc-pVDZ-scan-d09-49-n400
 OpenBabel10311713213D

 20 18  0  0  0  0  0  0  0  0999 V2000
   13.3438    6.0764    2.3604 C   0  0  0  0  0  0  0  0  0  0  0  0
   12.7496    5.5281    1.1958 C   0  0  0  0  0  0  0  0  0  0  0  0
   12.1055    4.3771    1.5657 C   0  0  0  0  0  0  0  0  0  0  0  0
   11.9297    3.7402    2.6392 C   0  0  0  0  0  0  0  0  0  0  0  0
   12.5112    4.2618    3.8127 C   0  0  0  0  0  0  0  0  0  0  0  0
   13.2265    5.4616    3.6219 C   0  0  0  0  0  0  0  0  0  0  0  0
   13.9079    7.0059    2.2637 H   0  0  0  0  0  0  0  0  0  0  0  0
   12.8205    5.9772    0.2092 H   0  0  0  0  0  0  0  0  0  0  0  0
   11.1680    3.5794   -0.7520 N   0  0  0  0  0  0  0  0  0  0  0  0
   10.7528    2.7303   -1.3226 N   0  0  0  0  0  0  0  0  0  0  0  0
   13.7058    5.9329    4.4819 H   0  0  0  0  0  0  0  0  0  0  0  0
   12.4278    3.7987    4.7958 H   0  0  0  0  0  0  0  0  0  0  0  0
   10.7829    2.0038    2.9332 H   0  0  0  0  0  0  0  0  0  0  0  0
    9.3324    1.2606    1.2589 O   0  0  0  0  0  0  0  0  0  0  0  0
    9.3808    0.8224    2.3894 C   0  0  0  0  0  0  0  0  0  0  0  0
   10.2448    1.2786    3.3235 O   0  0  0  0  0  0  0  0  0  0  0  0
    8.5064   -0.2798    2.9319 C   0  0  0  0  0  0  0  0  0  0  0  0
    7.8327   -0.6321    2.1462 H   0  0  0  0  0  0  0  0  0  0  0  0
    9.1312   -1.1066    3.2952 H   0  0  0  0  0  0  0  0  0  0  0  0
    7.9272    0.0929    3.7876 H   0  0  0  0  0  0  0  0  0  0  0  0
  1  6  2  0  0  0  0
  2  3  2  0  0  0  0
  2  1  1  0  0  0  0
  3  4  1  0  0  0  0
  4  5  2  0  0  0  0
  5 12  1  0  0  0  0
  6  5  1  0  0  0  0
  6 11  1  0  0  0  0
  7  1  1  0  0  0  0
  8  2  1  0  0  0  0
 10  9  3  0  0  0  0
 13 16  1  0  0  0  0
 14 15  2  0  0  0  0
 15 17  1  0  0  0  0
 15 16  1  0  0  0  0
 17 19  1  0  0  0  0
 17 20  1  0  0  0  0
 18 17  1  0  0  0  0
M  RAD  2   3   2   4   2
M  END
