Coordinates from ORCA-job Ph-N2-OOCCH3-B3LYPG-aug-cc-pVDZ-scan-d09-49-n400
 OpenBabel10311713213D

 20 18  0  0  0  0  0  0  0  0999 V2000
   13.3401    6.0758    2.3587 C   0  0  0  0  0  0  0  0  0  0  0  0
   12.7503    5.5324    1.1901 C   0  0  0  0  0  0  0  0  0  0  0  0
   12.1052    4.3778    1.5501 C   0  0  0  0  0  0  0  0  0  0  0  0
   11.9255    3.7343    2.6201 C   0  0  0  0  0  0  0  0  0  0  0  0
   12.5039    4.2529    3.7972 C   0  0  0  0  0  0  0  0  0  0  0  0
   13.2188    5.4542    3.6162 C   0  0  0  0  0  0  0  0  0  0  0  0
   13.9036    7.0063    2.2685 H   0  0  0  0  0  0  0  0  0  0  0  0
   12.8238    5.9859    0.2056 H   0  0  0  0  0  0  0  0  0  0  0  0
   11.1830    3.5842   -0.7184 N   0  0  0  0  0  0  0  0  0  0  0  0
   10.7641    2.7333   -1.2840 N   0  0  0  0  0  0  0  0  0  0  0  0
   13.6944    5.9211    4.4807 H   0  0  0  0  0  0  0  0  0  0  0  0
   12.4174    3.7849    4.7777 H   0  0  0  0  0  0  0  0  0  0  0  0
   10.7886    2.0043    2.9291 H   0  0  0  0  0  0  0  0  0  0  0  0
    9.3310    1.2659    1.2612 O   0  0  0  0  0  0  0  0  0  0  0  0
    9.3827    0.8257    2.3907 C   0  0  0  0  0  0  0  0  0  0  0  0
   10.2510    1.2792    3.3214 O   0  0  0  0  0  0  0  0  0  0  0  0
    8.5080   -0.2758    2.9345 C   0  0  0  0  0  0  0  0  0  0  0  0
    7.8321   -0.6268    2.1502 H   0  0  0  0  0  0  0  0  0  0  0  0
    9.1326   -1.1036    3.2961 H   0  0  0  0  0  0  0  0  0  0  0  0
    7.9312    0.0973    3.7917 H   0  0  0  0  0  0  0  0  0  0  0  0
  1  6  2  0  0  0  0
  2  3  2  0  0  0  0
  2  1  1  0  0  0  0
  3  4  1  0  0  0  0
  4  5  2  0  0  0  0
  5 12  1  0  0  0  0
  6  5  1  0  0  0  0
  6 11  1  0  0  0  0
  7  1  1  0  0  0  0
  8  2  1  0  0  0  0
 10  9  3  0  0  0  0
 13 16  1  0  0  0  0
 14 15  2  0  0  0  0
 15 17  1  0  0  0  0
 15 16  1  0  0  0  0
 17 19  1  0  0  0  0
 17 20  1  0  0  0  0
 18 17  1  0  0  0  0
M  RAD  2   3   2   4   2
M  END
