Coordinates from ORCA-job Ph-N2-OOCCH3-B3LYPG-aug-cc-pVDZ-scan-d09-49-n400
 OpenBabel10311713213D

 20 18  0  0  0  0  0  0  0  0999 V2000
   13.3987    6.0828    2.3864 C   0  0  0  0  0  0  0  0  0  0  0  0
   12.7480    5.4758    1.2819 C   0  0  0  0  0  0  0  0  0  0  0  0
   12.0981    4.3593    1.7475 C   0  0  0  0  0  0  0  0  0  0  0  0
   11.9749    3.8149    2.8734 C   0  0  0  0  0  0  0  0  0  0  0  0
   12.6030    4.3808    3.9950 C   0  0  0  0  0  0  0  0  0  0  0  0
   13.3269    5.5531    3.6900 C   0  0  0  0  0  0  0  0  0  0  0  0
   13.9737    6.9938    2.2093 H   0  0  0  0  0  0  0  0  0  0  0  0
   12.7866    5.8637    0.2678 H   0  0  0  0  0  0  0  0  0  0  0  0
   10.9350    3.4834   -1.1423 N   0  0  0  0  0  0  0  0  0  0  0  0
   10.5522    2.6528   -1.7607 N   0  0  0  0  0  0  0  0  0  0  0  0
   13.8513    6.0709    4.4953 H   0  0  0  0  0  0  0  0  0  0  0  0
   12.5540    3.9814    5.0072 H   0  0  0  0  0  0  0  0  0  0  0  0
   10.7047    2.0155    2.9960 H   0  0  0  0  0  0  0  0  0  0  0  0
    9.3935    1.2158    1.2401 O   0  0  0  0  0  0  0  0  0  0  0  0
    9.3744    0.7940    2.3770 C   0  0  0  0  0  0  0  0  0  0  0  0
   10.1598    1.2881    3.3626 O   0  0  0  0  0  0  0  0  0  0  0  0
    8.4962   -0.3244    2.8771 C   0  0  0  0  0  0  0  0  0  0  0  0
    7.8810   -0.7011    2.0557 H   0  0  0  0  0  0  0  0  0  0  0  0
    9.1185   -1.1318    3.2859 H   0  0  0  0  0  0  0  0  0  0  0  0
    7.8571    0.0407    3.6923 H   0  0  0  0  0  0  0  0  0  0  0  0
  1  6  2  0  0  0  0
  2  3  2  0  0  0  0
  2  1  1  0  0  0  0
  3  4  1  0  0  0  0
  4  5  2  0  0  0  0
  5 12  1  0  0  0  0
  6  5  1  0  0  0  0
  6 11  1  0  0  0  0
  7  1  1  0  0  0  0
  8  2  1  0  0  0  0
 10  9  3  0  0  0  0
 13 16  1  0  0  0  0
 14 15  2  0  0  0  0
 15 17  1  0  0  0  0
 15 16  1  0  0  0  0
 17 19  1  0  0  0  0
 17 20  1  0  0  0  0
 18 17  1  0  0  0  0
M  RAD  2   3   2   4   2
M  END
