Coordinates from ORCA-job Ph-N2-OOCCH3-B3LYPG-aug-cc-pVDZ-scan-d09-49-n400
 OpenBabel10311713213D

 20 18  0  0  0  0  0  0  0  0999 V2000
   13.3977    6.0828    2.3859 C   0  0  0  0  0  0  0  0  0  0  0  0
   12.7479    5.4766    1.2805 C   0  0  0  0  0  0  0  0  0  0  0  0
   12.0981    4.3593    1.7446 C   0  0  0  0  0  0  0  0  0  0  0  0
   11.9746    3.8140    2.8700 C   0  0  0  0  0  0  0  0  0  0  0  0
   12.6018    4.3791    3.9925 C   0  0  0  0  0  0  0  0  0  0  0  0
   13.3255    5.5520    3.6889 C   0  0  0  0  0  0  0  0  0  0  0  0
   13.9724    6.9942    2.2099 H   0  0  0  0  0  0  0  0  0  0  0  0
   12.7869    5.8655    0.2669 H   0  0  0  0  0  0  0  0  0  0  0  0
   10.9391    3.4849   -1.1360 N   0  0  0  0  0  0  0  0  0  0  0  0
   10.5556    2.6544   -1.7543 N   0  0  0  0  0  0  0  0  0  0  0  0
   13.8492    6.0692    4.4951 H   0  0  0  0  0  0  0  0  0  0  0  0
   12.5525    3.9787    5.0043 H   0  0  0  0  0  0  0  0  0  0  0  0
   10.7060    2.0148    2.9949 H   0  0  0  0  0  0  0  0  0  0  0  0
    9.3924    1.2164    1.2404 O   0  0  0  0  0  0  0  0  0  0  0  0
    9.3743    0.7942    2.3772 C   0  0  0  0  0  0  0  0  0  0  0  0
   10.1613    1.2876    3.3619 O   0  0  0  0  0  0  0  0  0  0  0  0
    8.4961   -0.3238    2.8779 C   0  0  0  0  0  0  0  0  0  0  0  0
    7.8797   -0.7000    2.0571 H   0  0  0  0  0  0  0  0  0  0  0  0
    9.1183   -1.1317    3.2859 H   0  0  0  0  0  0  0  0  0  0  0  0
    7.8580    0.0414    3.6940 H   0  0  0  0  0  0  0  0  0  0  0  0
  1  6  2  0  0  0  0
  2  3  2  0  0  0  0
  2  1  1  0  0  0  0
  3  4  1  0  0  0  0
  4  5  2  0  0  0  0
  5 12  1  0  0  0  0
  6  5  1  0  0  0  0
  6 11  1  0  0  0  0
  7  1  1  0  0  0  0
  8  2  1  0  0  0  0
 10  9  3  0  0  0  0
 13 16  1  0  0  0  0
 14 15  2  0  0  0  0
 15 17  1  0  0  0  0
 15 16  1  0  0  0  0
 17 19  1  0  0  0  0
 17 20  1  0  0  0  0
 18 17  1  0  0  0  0
M  RAD  2   3   2   4   2
M  END
