Coordinates from ORCA-job Ph-N2-OOCCH3-B3LYPG-aug-cc-pVDZ-scan-d09-49-n400
 OpenBabel10311713213D

 20 18  0  0  0  0  0  0  0  0999 V2000
   13.4516    6.0735    2.4276 C   0  0  0  0  0  0  0  0  0  0  0  0
   12.7301    5.3753    1.4264 C   0  0  0  0  0  0  0  0  0  0  0  0
   12.0937    4.3126    2.0265 C   0  0  0  0  0  0  0  0  0  0  0  0
   12.0482    3.8997    3.2104 C   0  0  0  0  0  0  0  0  0  0  0  0
   12.7395    4.5463    4.2415 C   0  0  0  0  0  0  0  0  0  0  0  0
   13.4544    5.6731    3.7788 C   0  0  0  0  0  0  0  0  0  0  0  0
   14.0243    6.9547    2.1316 H   0  0  0  0  0  0  0  0  0  0  0  0
   12.7143    5.6683    0.3799 H   0  0  0  0  0  0  0  0  0  0  0  0
   10.6049    3.3649   -1.7274 N   0  0  0  0  0  0  0  0  0  0  0  0
   10.2677    2.5325   -2.3695 N   0  0  0  0  0  0  0  0  0  0  0  0
   14.0319    6.2579    4.4973 H   0  0  0  0  0  0  0  0  0  0  0  0
   12.7466    4.2451    5.2878 H   0  0  0  0  0  0  0  0  0  0  0  0
   10.6158    2.0369    3.0770 H   0  0  0  0  0  0  0  0  0  0  0  0
    9.4988    1.1727    1.2229 O   0  0  0  0  0  0  0  0  0  0  0  0
    9.3826    0.7712    2.3614 C   0  0  0  0  0  0  0  0  0  0  0  0
   10.0569    1.3068    3.4072 O   0  0  0  0  0  0  0  0  0  0  0  0
    8.4926   -0.3630    2.7999 C   0  0  0  0  0  0  0  0  0  0  0  0
    7.9676   -0.7720    1.9326 H   0  0  0  0  0  0  0  0  0  0  0  0
    9.0958   -1.1446    3.2811 H   0  0  0  0  0  0  0  0  0  0  0  0
    7.7702   -0.0024    3.5446 H   0  0  0  0  0  0  0  0  0  0  0  0
  1  6  2  0  0  0  0
  2  3  2  0  0  0  0
  2  1  1  0  0  0  0
  3  4  1  0  0  0  0
  4  5  2  0  0  0  0
  5 12  1  0  0  0  0
  6  5  1  0  0  0  0
  6 11  1  0  0  0  0
  7  1  1  0  0  0  0
  8  2  1  0  0  0  0
 10  9  3  0  0  0  0
 13 16  1  0  0  0  0
 14 15  2  0  0  0  0
 15 17  1  0  0  0  0
 15 16  1  0  0  0  0
 17 19  1  0  0  0  0
 17 20  1  0  0  0  0
 18 17  1  0  0  0  0
M  RAD  2   3   2   4   2
M  END
