Coordinates from ORCA-job Ph-N2-OOCCH3-B3LYPG-aug-cc-pVDZ-scan-d09-49-n400
 OpenBabel11081710403D

 20 20  0  0  0  0  0  0  0  0999 V2000
   12.4299    5.9461    2.3185 C   0  0  0  0  0  0  0  0  0  0  0  0
   12.1999    5.0904    1.2345 C   0  0  0  0  0  0  0  0  0  0  0  0
   12.1287    3.7339    1.5063 C   0  0  0  0  0  0  0  0  0  0  0  0
   12.3210    3.1610    2.7536 C   0  0  0  0  0  0  0  0  0  0  0  0
   12.5653    4.0379    3.8172 C   0  0  0  0  0  0  0  0  0  0  0  0
   12.6131    5.4204    3.6022 C   0  0  0  0  0  0  0  0  0  0  0  0
   12.4754    7.0225    2.1536 H   0  0  0  0  0  0  0  0  0  0  0  0
   12.0735    5.4683    0.2218 H   0  0  0  0  0  0  0  0  0  0  0  0
   11.9437    2.7448    0.2216 N   0  0  0  0  0  0  0  0  0  0  0  0
   11.1078    1.9292    0.0787 N   0  0  0  0  0  0  0  0  0  0  0  0
   12.8029    6.0921    4.4395 H   0  0  0  0  0  0  0  0  0  0  0  0
   12.7195    3.6334    4.8176 H   0  0  0  0  0  0  0  0  0  0  0  0
   12.2762    2.0814    2.8886 H   0  0  0  0  0  0  0  0  0  0  0  0
    9.8768    1.9798    1.2472 O   0  0  0  0  0  0  0  0  0  0  0  0
    9.9173    0.8973    2.0213 C   0  0  0  0  0  0  0  0  0  0  0  0
   10.8965    0.1780    2.1450 O   0  0  0  0  0  0  0  0  0  0  0  0
    8.6048    0.6703    2.7465 C   0  0  0  0  0  0  0  0  0  0  0  0
    8.1753    1.6186    3.0915 H   0  0  0  0  0  0  0  0  0  0  0  0
    7.8917    0.2153    2.0445 H   0  0  0  0  0  0  0  0  0  0  0  0
    8.7681   -0.0109    3.5876 H   0  0  0  0  0  0  0  0  0  0  0  0
  1  6  2  0  0  0  0
  2  3  2  0  0  0  0
  2  1  1  0  0  0  0
  3  4  1  0  0  0  0
  4 13  1  0  0  0  0
  4  5  2  0  0  0  0
  5 12  1  0  0  0  0
  6  5  1  0  0  0  0
  6 11  1  0  0  0  0
  7  1  1  0  0  0  0
  8  2  1  0  0  0  0
  9  3  1  0  0  0  0
 10  9  1  0  0  0  0
 10 14  1  0  0  0  0
 14 15  1  0  0  0  0
 15 16  2  0  0  0  0
 15 17  1  0  0  0  0
 17 18  1  0  0  0  0
 17 20  1  0  0  0  0
 19 17  1  0  0  0  0
M  RAD  2   9   2  10   2
M  END
