Coordinates from ORCA-job Ph-N2-OOCCH3-B3LYPG-aug-cc-pVDZ-scan-d09-49-n400
 OpenBabel10311713213D

 20 18  0  0  0  0  0  0  0  0999 V2000
   13.4078    6.0820    2.3917 C   0  0  0  0  0  0  0  0  0  0  0  0
   12.7487    5.4679    1.2962 C   0  0  0  0  0  0  0  0  0  0  0  0
   12.0965    4.3584    1.7757 C   0  0  0  0  0  0  0  0  0  0  0  0
   11.9783    3.8249    2.9072 C   0  0  0  0  0  0  0  0  0  0  0  0
   12.6144    4.3978    4.0204 C   0  0  0  0  0  0  0  0  0  0  0  0
   13.3412    5.5645    3.7004 C   0  0  0  0  0  0  0  0  0  0  0  0
   13.9854    6.9891    2.2034 H   0  0  0  0  0  0  0  0  0  0  0  0
   12.7832    5.8466    0.2785 H   0  0  0  0  0  0  0  0  0  0  0  0
   10.8926    3.4670   -1.2051 N   0  0  0  0  0  0  0  0  0  0  0  0
   10.5159    2.6350   -1.8256 N   0  0  0  0  0  0  0  0  0  0  0  0
   13.8722    6.0874    4.4980 H   0  0  0  0  0  0  0  0  0  0  0  0
   12.5698    4.0077    5.0365 H   0  0  0  0  0  0  0  0  0  0  0  0
   10.6923    2.0224    3.0078 H   0  0  0  0  0  0  0  0  0  0  0  0
    9.4075    1.2108    1.2377 O   0  0  0  0  0  0  0  0  0  0  0  0
    9.3761    0.7924    2.3756 C   0  0  0  0  0  0  0  0  0  0  0  0
   10.1463    1.2939    3.3696 O   0  0  0  0  0  0  0  0  0  0  0  0
    8.4979   -0.3292    2.8680 C   0  0  0  0  0  0  0  0  0  0  0  0
    7.8946   -0.7113    2.0403 H   0  0  0  0  0  0  0  0  0  0  0  0
    9.1195   -1.1323    3.2863 H   0  0  0  0  0  0  0  0  0  0  0  0
    7.8472    0.0346    3.6747 H   0  0  0  0  0  0  0  0  0  0  0  0
  1  6  2  0  0  0  0
  2  3  2  0  0  0  0
  2  1  1  0  0  0  0
  3  4  1  0  0  0  0
  4  5  2  0  0  0  0
  5 12  1  0  0  0  0
  6  5  1  0  0  0  0
  6 11  1  0  0  0  0
  7  1  1  0  0  0  0
  8  2  1  0  0  0  0
 10  9  3  0  0  0  0
 13 16  1  0  0  0  0
 14 15  2  0  0  0  0
 15 17  1  0  0  0  0
 15 16  1  0  0  0  0
 17 19  1  0  0  0  0
 17 20  1  0  0  0  0
 18 17  1  0  0  0  0
M  RAD  2   3   2   4   2
M  END
