Coordinates from ORCA-job Ph-N2-OOCCH3-B3LYPG-aug-cc-pVDZ-scan-d09-49-n400
 OpenBabel10311713213D

 20 18  0  0  0  0  0  0  0  0999 V2000
   13.4053    6.0390    2.4263 C   0  0  0  0  0  0  0  0  0  0  0  0
   12.6301    5.2160    1.5717 C   0  0  0  0  0  0  0  0  0  0  0  0
   12.0909    4.1973    2.3283 C   0  0  0  0  0  0  0  0  0  0  0  0
   12.1753    3.9235    3.5488 C   0  0  0  0  0  0  0  0  0  0  0  0
   12.9215    4.6906    4.4471 C   0  0  0  0  0  0  0  0  0  0  0  0
   13.5439    5.7850    3.8060 C   0  0  0  0  0  0  0  0  0  0  0  0
   13.9127    6.9026    1.9918 H   0  0  0  0  0  0  0  0  0  0  0  0
   12.5116    5.3976    0.5066 H   0  0  0  0  0  0  0  0  0  0  0  0
   10.3486    3.1423   -1.9403 N   0  0  0  0  0  0  0  0  0  0  0  0
   10.0805    2.2283   -2.4986 N   0  0  0  0  0  0  0  0  0  0  0  0
   14.1565    6.4620    4.4044 H   0  0  0  0  0  0  0  0  0  0  0  0
   13.0318    4.5020    5.5137 H   0  0  0  0  0  0  0  0  0  0  0  0
   10.6212    2.0251    3.2041 H   0  0  0  0  0  0  0  0  0  0  0  0
    9.5977    1.3507    1.2256 O   0  0  0  0  0  0  0  0  0  0  0  0
    9.4184    0.8470    2.3143 C   0  0  0  0  0  0  0  0  0  0  0  0
   10.0455    1.2727    3.4371 O   0  0  0  0  0  0  0  0  0  0  0  0
    8.4925   -0.3065    2.6007 C   0  0  0  0  0  0  0  0  0  0  0  0
    8.0165   -0.6325    1.6721 H   0  0  0  0  0  0  0  0  0  0  0  0
    9.0568   -1.1351    3.0493 H   0  0  0  0  0  0  0  0  0  0  0  0
    7.7300    0.0018    3.3287 H   0  0  0  0  0  0  0  0  0  0  0  0
  1  6  2  0  0  0  0
  2  3  2  0  0  0  0
  2  1  1  0  0  0  0
  3  4  1  0  0  0  0
  4  5  2  0  0  0  0
  5 12  1  0  0  0  0
  6 11  1  0  0  0  0
  6  5  1  0  0  0  0
  7  1  1  0  0  0  0
  8  2  1  0  0  0  0
 10  9  3  0  0  0  0
 13 16  1  0  0  0  0
 14 15  2  0  0  0  0
 15 17  1  0  0  0  0
 15 16  1  0  0  0  0
 17 19  1  0  0  0  0
 17 20  1  0  0  0  0
 18 17  1  0  0  0  0
M  RAD  2   3   2   4   2
M  END
