Coordinates from ORCA-job Ph-N2-OOCCH3-B3LYPG-aug-cc-pVDZ-scan-d09-49-n400
 OpenBabel10311713213D

 20 18  0  0  0  0  0  0  0  0999 V2000
   13.3996    6.0309    2.4267 C   0  0  0  0  0  0  0  0  0  0  0  0
   12.6180    5.1944    1.5910 C   0  0  0  0  0  0  0  0  0  0  0  0
   12.0899    4.1844    2.3671 C   0  0  0  0  0  0  0  0  0  0  0  0
   12.1889    3.9281    3.5901 C   0  0  0  0  0  0  0  0  0  0  0  0
   12.9421    4.7081    4.4709 C   0  0  0  0  0  0  0  0  0  0  0  0
   13.5540    5.7957    3.8081 C   0  0  0  0  0  0  0  0  0  0  0  0
   13.8999    6.8902    1.9758 H   0  0  0  0  0  0  0  0  0  0  0  0
   12.4878    5.3618    0.5249 H   0  0  0  0  0  0  0  0  0  0  0  0
   10.3238    3.1298   -1.9917 N   0  0  0  0  0  0  0  0  0  0  0  0
   10.0695    2.2046   -2.5379 N   0  0  0  0  0  0  0  0  0  0  0  0
   14.1710    6.4827    4.3906 H   0  0  0  0  0  0  0  0  0  0  0  0
   13.0646    4.5340    5.5386 H   0  0  0  0  0  0  0  0  0  0  0  0
   10.6177    2.0243    3.2187 H   0  0  0  0  0  0  0  0  0  0  0  0
    9.5971    1.3759    1.2333 O   0  0  0  0  0  0  0  0  0  0  0  0
    9.4166    0.8574    2.3149 C   0  0  0  0  0  0  0  0  0  0  0  0
   10.0385    1.2726    3.4447 O   0  0  0  0  0  0  0  0  0  0  0  0
    8.4949   -0.3034    2.5841 C   0  0  0  0  0  0  0  0  0  0  0  0
    8.0231   -0.6198    1.6501 H   0  0  0  0  0  0  0  0  0  0  0  0
    9.0613   -1.1351    3.0242 H   0  0  0  0  0  0  0  0  0  0  0  0
    7.7288   -0.0074    3.3135 H   0  0  0  0  0  0  0  0  0  0  0  0
  1  6  2  0  0  0  0
  2  3  2  0  0  0  0
  2  1  1  0  0  0  0
  3  4  1  0  0  0  0
  4  5  2  0  0  0  0
  5 12  1  0  0  0  0
  6 11  1  0  0  0  0
  6  5  1  0  0  0  0
  7  1  1  0  0  0  0
  8  2  1  0  0  0  0
 10  9  3  0  0  0  0
 13 16  1  0  0  0  0
 14 15  2  0  0  0  0
 15 17  1  0  0  0  0
 15 16  1  0  0  0  0
 17 19  1  0  0  0  0
 17 20  1  0  0  0  0
 18 17  1  0  0  0  0
M  RAD  2   3   2   4   2
M  END
