Coordinates from ORCA-job Ph-N2-OOCCH3-B3LYPG-aug-cc-pVDZ-scan-d09-49-n400
 OpenBabel10311713213D

 20 18  0  0  0  0  0  0  0  0999 V2000
   13.2681    6.0499    2.3092 C   0  0  0  0  0  0  0  0  0  0  0  0
   12.7293    5.4766    1.1417 C   0  0  0  0  0  0  0  0  0  0  0  0
   12.0986    4.2981    1.4582 C   0  0  0  0  0  0  0  0  0  0  0  0
   11.8840    3.6060    2.5219 C   0  0  0  0  0  0  0  0  0  0  0  0
   12.4348    4.1980    3.6887 C   0  0  0  0  0  0  0  0  0  0  0  0
   13.1200    5.4164    3.5578 C   0  0  0  0  0  0  0  0  0  0  0  0
   13.8031    6.9972    2.2328 H   0  0  0  0  0  0  0  0  0  0  0  0
   12.8122    5.9222    0.1531 H   0  0  0  0  0  0  0  0  0  0  0  0
   11.3770    3.5453   -0.2163 N   0  0  0  0  0  0  0  0  0  0  0  0
   10.8430    2.7147   -0.7164 N   0  0  0  0  0  0  0  0  0  0  0  0
   13.5490    5.8865    4.4446 H   0  0  0  0  0  0  0  0  0  0  0  0
   12.3345    3.7272    4.6685 H   0  0  0  0  0  0  0  0  0  0  0  0
   10.9380    2.0035    2.8100 H   0  0  0  0  0  0  0  0  0  0  0  0
    9.1751    1.5197    1.3184 O   0  0  0  0  0  0  0  0  0  0  0  0
    9.3998    0.9312    2.3611 C   0  0  0  0  0  0  0  0  0  0  0  0
   10.4328    1.2142    3.1664 O   0  0  0  0  0  0  0  0  0  0  0  0
    8.5511   -0.1955    2.9000 C   0  0  0  0  0  0  0  0  0  0  0  0
    7.7932   -0.4709    2.1615 H   0  0  0  0  0  0  0  0  0  0  0  0
    9.1808   -1.0601    3.1468 H   0  0  0  0  0  0  0  0  0  0  0  0
    8.0630    0.1293    3.8296 H   0  0  0  0  0  0  0  0  0  0  0  0
  1  6  2  0  0  0  0
  2  3  2  0  0  0  0
  2  1  1  0  0  0  0
  3  4  1  0  0  0  0
  4  5  2  0  0  0  0
  5 12  1  0  0  0  0
  6  5  1  0  0  0  0
  6 11  1  0  0  0  0
  7  1  1  0  0  0  0
  8  2  1  0  0  0  0
 10  9  3  0  0  0  0
 13 16  1  0  0  0  0
 14 15  2  0  0  0  0
 15 17  1  0  0  0  0
 15 16  1  0  0  0  0
 17 19  1  0  0  0  0
 17 20  1  0  0  0  0
 18 17  1  0  0  0  0
M  RAD  2   3   2   4   2
M  END
