Coordinates from ORCA-job Ph-N2-OOCCH3-B3LYPG-aug-cc-pVDZ-scan-d09-49-n400
 OpenBabel10311713213D

 20 18  0  0  0  0  0  0  0  0999 V2000
   13.3009    6.0606    2.3362 C   0  0  0  0  0  0  0  0  0  0  0  0
   12.7378    5.5273    1.1546 C   0  0  0  0  0  0  0  0  0  0  0  0
   12.0992    4.3588    1.4751 C   0  0  0  0  0  0  0  0  0  0  0  0
   11.8900    3.6684    2.5219 C   0  0  0  0  0  0  0  0  0  0  0  0
   12.4553    4.1997    3.7070 C   0  0  0  0  0  0  0  0  0  0  0  0
   13.1604    5.4098    3.5768 C   0  0  0  0  0  0  0  0  0  0  0  0
   13.8539    6.9989    2.2721 H   0  0  0  0  0  0  0  0  0  0  0  0
   12.8201    5.9942    0.1766 H   0  0  0  0  0  0  0  0  0  0  0  0
   11.2927    3.5875   -0.4363 N   0  0  0  0  0  0  0  0  0  0  0  0
   10.8572    2.7181   -0.9613 N   0  0  0  0  0  0  0  0  0  0  0  0
   13.6115    5.8607    4.4625 H   0  0  0  0  0  0  0  0  0  0  0  0
   12.3559    3.7122    4.6778 H   0  0  0  0  0  0  0  0  0  0  0  0
   10.8531    2.0209    2.8798 H   0  0  0  0  0  0  0  0  0  0  0  0
    9.2617    1.3772    1.2803 O   0  0  0  0  0  0  0  0  0  0  0  0
    9.3893    0.8835    2.3835 C   0  0  0  0  0  0  0  0  0  0  0  0
   10.3298    1.2721    3.2658 O   0  0  0  0  0  0  0  0  0  0  0  0
    8.5336   -0.2317    2.9315 C   0  0  0  0  0  0  0  0  0  0  0  0
    7.8164   -0.5512    2.1706 H   0  0  0  0  0  0  0  0  0  0  0  0
    9.1673   -1.0751    3.2363 H   0  0  0  0  0  0  0  0  0  0  0  0
    8.0014    0.1176    3.8269 H   0  0  0  0  0  0  0  0  0  0  0  0
  1  6  2  0  0  0  0
  2  3  2  0  0  0  0
  2  1  1  0  0  0  0
  3  4  1  0  0  0  0
  4  5  2  0  0  0  0
  5 12  1  0  0  0  0
  6  5  1  0  0  0  0
  6 11  1  0  0  0  0
  7  1  1  0  0  0  0
  8  2  1  0  0  0  0
 10  9  3  0  0  0  0
 13 16  1  0  0  0  0
 14 15  2  0  0  0  0
 15 17  1  0  0  0  0
 15 16  1  0  0  0  0
 17 19  1  0  0  0  0
 17 20  1  0  0  0  0
 18 17  1  0  0  0  0
M  RAD  2   3   2   4   2
M  END
