Coordinates from ORCA-job Ph-N2-OOCCH3-B3LYPG-aug-cc-pVDZ-scan-d09-49-n400
 OpenBabel10311713213D

 20 18  0  0  0  0  0  0  0  0999 V2000
   13.4427    6.0790    2.4196 C   0  0  0  0  0  0  0  0  0  0  0  0
   12.7442    5.4184    1.3776 C   0  0  0  0  0  0  0  0  0  0  0  0
   12.0933    4.3359    1.9240 C   0  0  0  0  0  0  0  0  0  0  0  0
   12.0177    3.8769    3.0900 C   0  0  0  0  0  0  0  0  0  0  0  0
   12.6873    4.4880    4.1578 C   0  0  0  0  0  0  0  0  0  0  0  0
   13.4136    5.6296    3.7545 C   0  0  0  0  0  0  0  0  0  0  0  0
   14.0224    6.9693    2.1683 H   0  0  0  0  0  0  0  0  0  0  0  0
   12.7523    5.7485    0.3422 H   0  0  0  0  0  0  0  0  0  0  0  0
   10.6871    3.3860   -1.5401 N   0  0  0  0  0  0  0  0  0  0  0  0
   10.3386    2.5487   -2.1695 N   0  0  0  0  0  0  0  0  0  0  0  0
   13.9744    6.1866    4.5075 H   0  0  0  0  0  0  0  0  0  0  0  0
   12.6699    4.1488    5.1924 H   0  0  0  0  0  0  0  0  0  0  0  0
   10.6400    2.0408    3.0577 H   0  0  0  0  0  0  0  0  0  0  0  0
    9.4758    1.1875    1.2286 O   0  0  0  0  0  0  0  0  0  0  0  0
    9.3845    0.7820    2.3674 C   0  0  0  0  0  0  0  0  0  0  0  0
   10.0864    1.3100    3.3981 O   0  0  0  0  0  0  0  0  0  0  0  0
    8.4993   -0.3495    2.8226 C   0  0  0  0  0  0  0  0  0  0  0  0
    7.9528   -0.7533    1.9662 H   0  0  0  0  0  0  0  0  0  0  0  0
    9.1095   -1.1354    3.2877 H   0  0  0  0  0  0  0  0  0  0  0  0
    7.7957    0.0120    3.5846 H   0  0  0  0  0  0  0  0  0  0  0  0
  1  6  2  0  0  0  0
  2  3  2  0  0  0  0
  2  1  1  0  0  0  0
  3  4  1  0  0  0  0
  4  5  2  0  0  0  0
  5 12  1  0  0  0  0
  6  5  1  0  0  0  0
  6 11  1  0  0  0  0
  7  1  1  0  0  0  0
  8  2  1  0  0  0  0
 10  9  3  0  0  0  0
 13 16  1  0  0  0  0
 14 15  2  0  0  0  0
 15 17  1  0  0  0  0
 15 16  1  0  0  0  0
 17 19  1  0  0  0  0
 17 20  1  0  0  0  0
 18 17  1  0  0  0  0
M  RAD  2   3   2   4   2
M  END
