Coordinates from ORCA-job Ph-N2-OOCCH3-B3LYPG-aug-cc-pVDZ-scan-d09-49-n400
 OpenBabel10311713213D

 20 18  0  0  0  0  0  0  0  0999 V2000
   13.4129    6.0815    2.3950 C   0  0  0  0  0  0  0  0  0  0  0  0
   12.7487    5.4628    1.3051 C   0  0  0  0  0  0  0  0  0  0  0  0
   12.0955    4.3572    1.7927 C   0  0  0  0  0  0  0  0  0  0  0  0
   11.9809    3.8312    2.9279 C   0  0  0  0  0  0  0  0  0  0  0  0
   12.6217    4.4082    4.0361 C   0  0  0  0  0  0  0  0  0  0  0  0
   13.3498    5.5714    3.7068 C   0  0  0  0  0  0  0  0  0  0  0  0
   13.9920    6.9862    2.1997 H   0  0  0  0  0  0  0  0  0  0  0  0
   12.7807    5.8360    0.2853 H   0  0  0  0  0  0  0  0  0  0  0  0
   10.8665    3.4564   -1.2425 N   0  0  0  0  0  0  0  0  0  0  0  0
   10.4934    2.6233   -1.8638 N   0  0  0  0  0  0  0  0  0  0  0  0
   13.8849    6.0976    4.4996 H   0  0  0  0  0  0  0  0  0  0  0  0
   12.5797    4.0236    5.0544 H   0  0  0  0  0  0  0  0  0  0  0  0
   10.6852    2.0263    3.0147 H   0  0  0  0  0  0  0  0  0  0  0  0
    9.4164    1.2083    1.2362 O   0  0  0  0  0  0  0  0  0  0  0  0
    9.3775    0.7918    2.3745 C   0  0  0  0  0  0  0  0  0  0  0  0
   10.1384    1.2973    3.3736 O   0  0  0  0  0  0  0  0  0  0  0  0
    8.4990   -0.3317    2.8621 C   0  0  0  0  0  0  0  0  0  0  0  0
    7.9031   -0.7170    2.0305 H   0  0  0  0  0  0  0  0  0  0  0  0
    9.1198   -1.1322    3.2864 H   0  0  0  0  0  0  0  0  0  0  0  0
    7.8411    0.0314    3.6632 H   0  0  0  0  0  0  0  0  0  0  0  0
  1  6  2  0  0  0  0
  2  3  2  0  0  0  0
  2  1  1  0  0  0  0
  3  4  1  0  0  0  0
  4  5  2  0  0  0  0
  5 12  1  0  0  0  0
  6  5  1  0  0  0  0
  6 11  1  0  0  0  0
  7  1  1  0  0  0  0
  8  2  1  0  0  0  0
 10  9  3  0  0  0  0
 13 16  1  0  0  0  0
 14 15  2  0  0  0  0
 15 17  1  0  0  0  0
 15 16  1  0  0  0  0
 17 19  1  0  0  0  0
 17 20  1  0  0  0  0
 18 17  1  0  0  0  0
M  RAD  2   3   2   4   2
M  END
