Coordinates from ORCA-job Ph-N2-OOCCH3-B3LYPG-aug-cc-pVDZ-scan-d09-49-n400
 OpenBabel10311713213D

 20 18  0  0  0  0  0  0  0  0999 V2000
   13.3546    6.0784    2.3644 C   0  0  0  0  0  0  0  0  0  0  0  0
   12.7490    5.5183    1.2107 C   0  0  0  0  0  0  0  0  0  0  0  0
   12.1042    4.3737    1.6007 C   0  0  0  0  0  0  0  0  0  0  0  0
   11.9401    3.7566    2.6857 C   0  0  0  0  0  0  0  0  0  0  0  0
   12.5299    4.2852    3.8499 C   0  0  0  0  0  0  0  0  0  0  0  0
   13.2469    5.4806    3.6351 C   0  0  0  0  0  0  0  0  0  0  0  0
   13.9209    7.0048    2.2517 H   0  0  0  0  0  0  0  0  0  0  0  0
   12.8136    5.9560    0.2186 H   0  0  0  0  0  0  0  0  0  0  0  0
   11.1295    3.5696   -0.8358 N   0  0  0  0  0  0  0  0  0  0  0  0
   10.7225    2.7256   -1.4196 N   0  0  0  0  0  0  0  0  0  0  0  0
   13.7356    5.9620    4.4842 H   0  0  0  0  0  0  0  0  0  0  0  0
   12.4535    3.8345    4.8392 H   0  0  0  0  0  0  0  0  0  0  0  0
   10.7656    2.0021    2.9472 H   0  0  0  0  0  0  0  0  0  0  0  0
    9.3408    1.2478    1.2571 O   0  0  0  0  0  0  0  0  0  0  0  0
    9.3766    0.8133    2.3893 C   0  0  0  0  0  0  0  0  0  0  0  0
   10.2263    1.2773    3.3337 O   0  0  0  0  0  0  0  0  0  0  0  0
    8.5015   -0.2918    2.9244 C   0  0  0  0  0  0  0  0  0  0  0  0
    7.8376   -0.6482    2.1323 H   0  0  0  0  0  0  0  0  0  0  0  0
    9.1265   -1.1155    3.2948 H   0  0  0  0  0  0  0  0  0  0  0  0
    7.9122    0.0791    3.7738 H   0  0  0  0  0  0  0  0  0  0  0  0
  1  6  2  0  0  0  0
  2  3  2  0  0  0  0
  2  1  1  0  0  0  0
  3  4  1  0  0  0  0
  4  5  2  0  0  0  0
  5 12  1  0  0  0  0
  6  5  1  0  0  0  0
  6 11  1  0  0  0  0
  7  1  1  0  0  0  0
  8  2  1  0  0  0  0
 10  9  3  0  0  0  0
 13 16  1  0  0  0  0
 14 15  2  0  0  0  0
 15 17  1  0  0  0  0
 15 16  1  0  0  0  0
 17 19  1  0  0  0  0
 17 20  1  0  0  0  0
 18 17  1  0  0  0  0
M  RAD  2   3   2   4   2
M  END
