Coordinates from ORCA-job Ph-N2-OOCCH3-B3LYPG-aug-cc-pVDZ-scan-d09-49-n400
 OpenBabel10311713213D

 20 18  0  0  0  0  0  0  0  0999 V2000
   13.3828    6.0834    2.3800 C   0  0  0  0  0  0  0  0  0  0  0  0
   12.7471    5.4889    1.2602 C   0  0  0  0  0  0  0  0  0  0  0  0
   12.1006    4.3610    1.7015 C   0  0  0  0  0  0  0  0  0  0  0  0
   11.9677    3.7960    2.8174 C   0  0  0  0  0  0  0  0  0  0  0  0
   12.5824    4.3514    3.9525 C   0  0  0  0  0  0  0  0  0  0  0  0
   13.3015    5.5331    3.6741 C   0  0  0  0  0  0  0  0  0  0  0  0
   13.9530    7.0009    2.2224 H   0  0  0  0  0  0  0  0  0  0  0  0
   12.7929    5.8926    0.2527 H   0  0  0  0  0  0  0  0  0  0  0  0
   11.0037    3.5164   -1.0560 N   0  0  0  0  0  0  0  0  0  0  0  0
   10.6160    2.6827   -1.6668 N   0  0  0  0  0  0  0  0  0  0  0  0
   13.8139    6.0415    4.4930 H   0  0  0  0  0  0  0  0  0  0  0  0
   12.5260    3.9363    4.9581 H   0  0  0  0  0  0  0  0  0  0  0  0
   10.7292    2.0020    2.9735 H   0  0  0  0  0  0  0  0  0  0  0  0
    9.3692    1.2225    1.2452 O   0  0  0  0  0  0  0  0  0  0  0  0
    9.3724    0.7961    2.3806 C   0  0  0  0  0  0  0  0  0  0  0  0
   10.1862    1.2771    3.3491 O   0  0  0  0  0  0  0  0  0  0  0  0
    8.4937   -0.3147    2.8965 C   0  0  0  0  0  0  0  0  0  0  0  0
    7.8568   -0.6824    2.0876 H   0  0  0  0  0  0  0  0  0  0  0  0
    9.1161   -1.1298    3.2895 H   0  0  0  0  0  0  0  0  0  0  0  0
    7.8762    0.0546    3.7265 H   0  0  0  0  0  0  0  0  0  0  0  0
  1  6  2  0  0  0  0
  2  3  2  0  0  0  0
  2  1  1  0  0  0  0
  3  4  1  0  0  0  0
  4  5  2  0  0  0  0
  5 12  1  0  0  0  0
  6  5  1  0  0  0  0
  6 11  1  0  0  0  0
  7  1  1  0  0  0  0
  8  2  1  0  0  0  0
 10  9  3  0  0  0  0
 13 16  1  0  0  0  0
 14 15  2  0  0  0  0
 15 17  1  0  0  0  0
 15 16  1  0  0  0  0
 17 19  1  0  0  0  0
 17 20  1  0  0  0  0
 18 17  1  0  0  0  0
M  RAD  2   3   2   4   2
M  END
