Coordinates from ORCA-job Ph-N2-OOCCH3-B3LYPG-aug-cc-pVDZ-scan-d09-49-n400
 OpenBabel10311713213D

 20 18  0  0  0  0  0  0  0  0999 V2000
   13.4433    6.0790    2.4202 C   0  0  0  0  0  0  0  0  0  0  0  0
   12.7433    5.4152    1.3813 C   0  0  0  0  0  0  0  0  0  0  0  0
   12.0937    4.3336    1.9313 C   0  0  0  0  0  0  0  0  0  0  0  0
   12.0212    3.8787    3.0990 C   0  0  0  0  0  0  0  0  0  0  0  0
   12.6918    4.4924    4.1644 C   0  0  0  0  0  0  0  0  0  0  0  0
   13.4168    5.6333    3.7565 C   0  0  0  0  0  0  0  0  0  0  0  0
   14.0221    6.9690    2.1656 H   0  0  0  0  0  0  0  0  0  0  0  0
   12.7496    5.7427    0.3451 H   0  0  0  0  0  0  0  0  0  0  0  0
   10.6793    3.3819   -1.5513 N   0  0  0  0  0  0  0  0  0  0  0  0
   10.3309    2.5450   -2.1814 N   0  0  0  0  0  0  0  0  0  0  0  0
   13.9786    6.1928    4.5069 H   0  0  0  0  0  0  0  0  0  0  0  0
   12.6764    4.1559    5.1999 H   0  0  0  0  0  0  0  0  0  0  0  0
   10.6384    2.0404    3.0597 H   0  0  0  0  0  0  0  0  0  0  0  0
    9.4791    1.1869    1.2278 O   0  0  0  0  0  0  0  0  0  0  0  0
    9.3849    0.7815    2.3665 C   0  0  0  0  0  0  0  0  0  0  0  0
   10.0839    1.3098    3.3990 O   0  0  0  0  0  0  0  0  0  0  0  0
    8.4987   -0.3501    2.8195 C   0  0  0  0  0  0  0  0  0  0  0  0
    7.9545   -0.7541    1.9617 H   0  0  0  0  0  0  0  0  0  0  0  0
    9.1077   -1.1358    3.2863 H   0  0  0  0  0  0  0  0  0  0  0  0
    7.7930    0.0115    3.5796 H   0  0  0  0  0  0  0  0  0  0  0  0
  1  6  2  0  0  0  0
  2  3  2  0  0  0  0
  2  1  1  0  0  0  0
  3  4  1  0  0  0  0
  4  5  2  0  0  0  0
  5 12  1  0  0  0  0
  6  5  1  0  0  0  0
  6 11  1  0  0  0  0
  7  1  1  0  0  0  0
  8  2  1  0  0  0  0
 10  9  3  0  0  0  0
 13 16  1  0  0  0  0
 14 15  2  0  0  0  0
 15 17  1  0  0  0  0
 15 16  1  0  0  0  0
 17 19  1  0  0  0  0
 17 20  1  0  0  0  0
 18 17  1  0  0  0  0
M  RAD  2   3   2   4   2
M  END
