Coordinates from ORCA-job Ph-N2-OOCCH3-B3LYPG-aug-cc-pVDZ-scan-d09-49-n400
 OpenBabel10311713213D

 20 18  0  0  0  0  0  0  0  0999 V2000
   13.4262    6.0812    2.4038 C   0  0  0  0  0  0  0  0  0  0  0  0
   12.7503    5.4518    1.3274 C   0  0  0  0  0  0  0  0  0  0  0  0
   12.0944    4.3555    1.8336 C   0  0  0  0  0  0  0  0  0  0  0  0
   11.9887    3.8479    2.9777 C   0  0  0  0  0  0  0  0  0  0  0  0
   12.6398    4.4341    4.0741 C   0  0  0  0  0  0  0  0  0  0  0  0
   13.3711    5.5891    3.7229 C   0  0  0  0  0  0  0  0  0  0  0  0
   14.0083    6.9802    2.1922 H   0  0  0  0  0  0  0  0  0  0  0  0
   12.7766    5.8119    0.3026 H   0  0  0  0  0  0  0  0  0  0  0  0
   10.8025    3.4304   -1.3371 N   0  0  0  0  0  0  0  0  0  0  0  0
   10.4382    2.5943   -1.9595 N   0  0  0  0  0  0  0  0  0  0  0  0
   13.9153    6.1231    4.5042 H   0  0  0  0  0  0  0  0  0  0  0  0
   12.6039    4.0631    5.0975 H   0  0  0  0  0  0  0  0  0  0  0  0
   10.6677    2.0342    3.0293 H   0  0  0  0  0  0  0  0  0  0  0  0
    9.4362    1.2009    1.2328 O   0  0  0  0  0  0  0  0  0  0  0  0
    9.3798    0.7888    2.3719 C   0  0  0  0  0  0  0  0  0  0  0  0
   10.1195    1.3040    3.3822 O   0  0  0  0  0  0  0  0  0  0  0  0
    8.5007   -0.3388    2.8489 C   0  0  0  0  0  0  0  0  0  0  0  0
    7.9223   -0.7319    2.0086 H   0  0  0  0  0  0  0  0  0  0  0  0
    9.1196   -1.1330    3.2876 H   0  0  0  0  0  0  0  0  0  0  0  0
    7.8262    0.0230    3.6367 H   0  0  0  0  0  0  0  0  0  0  0  0
  1  6  2  0  0  0  0
  2  3  2  0  0  0  0
  2  1  1  0  0  0  0
  3  4  1  0  0  0  0
  4  5  2  0  0  0  0
  5 12  1  0  0  0  0
  6  5  1  0  0  0  0
  6 11  1  0  0  0  0
  7  1  1  0  0  0  0
  8  2  1  0  0  0  0
 10  9  3  0  0  0  0
 13 16  1  0  0  0  0
 14 15  2  0  0  0  0
 15 17  1  0  0  0  0
 15 16  1  0  0  0  0
 17 19  1  0  0  0  0
 17 20  1  0  0  0  0
 18 17  1  0  0  0  0
M  RAD  2   3   2   4   2
M  END
