Coordinates from ORCA-job Ph-N2-OOCCH3-B3LYPG-aug-cc-pVDZ-scan-d09-49-n400
 OpenBabel10311713213D

 20 18  0  0  0  0  0  0  0  0999 V2000
   13.4237    6.0813    2.4019 C   0  0  0  0  0  0  0  0  0  0  0  0
   12.7500    5.4540    1.3229 C   0  0  0  0  0  0  0  0  0  0  0  0
   12.0946    4.3559    1.8256 C   0  0  0  0  0  0  0  0  0  0  0  0
   11.9873    3.8447    2.9680 C   0  0  0  0  0  0  0  0  0  0  0  0
   12.6364    4.4291    4.0666 C   0  0  0  0  0  0  0  0  0  0  0  0
   13.3670    5.5857    3.7197 C   0  0  0  0  0  0  0  0  0  0  0  0
   14.0052    6.9815    2.1935 H   0  0  0  0  0  0  0  0  0  0  0  0
   12.7773    5.8166    0.2991 H   0  0  0  0  0  0  0  0  0  0  0  0
   10.8153    3.4355   -1.3180 N   0  0  0  0  0  0  0  0  0  0  0  0
   10.4492    2.6002   -1.9403 N   0  0  0  0  0  0  0  0  0  0  0  0
   13.9095    6.1182    4.5032 H   0  0  0  0  0  0  0  0  0  0  0  0
   12.5993    4.0555    5.0891 H   0  0  0  0  0  0  0  0  0  0  0  0
   10.6710    2.0325    3.0267 H   0  0  0  0  0  0  0  0  0  0  0  0
    9.4323    1.2023    1.2335 O   0  0  0  0  0  0  0  0  0  0  0  0
    9.3792    0.7892    2.3724 C   0  0  0  0  0  0  0  0  0  0  0  0
   10.1230    1.3025    3.3807 O   0  0  0  0  0  0  0  0  0  0  0  0
    8.5003   -0.3375    2.8514 C   0  0  0  0  0  0  0  0  0  0  0  0
    7.9185   -0.7291    2.0127 H   0  0  0  0  0  0  0  0  0  0  0  0
    9.1195   -1.1330    3.2873 H   0  0  0  0  0  0  0  0  0  0  0  0
    7.8289    0.0244    3.6417 H   0  0  0  0  0  0  0  0  0  0  0  0
  1  6  2  0  0  0  0
  2  3  2  0  0  0  0
  2  1  1  0  0  0  0
  3  4  1  0  0  0  0
  4  5  2  0  0  0  0
  5 12  1  0  0  0  0
  6  5  1  0  0  0  0
  6 11  1  0  0  0  0
  7  1  1  0  0  0  0
  8  2  1  0  0  0  0
 10  9  3  0  0  0  0
 13 16  1  0  0  0  0
 14 15  2  0  0  0  0
 15 17  1  0  0  0  0
 15 16  1  0  0  0  0
 17 19  1  0  0  0  0
 17 20  1  0  0  0  0
 18 17  1  0  0  0  0
M  RAD  2   3   2   4   2
M  END
