Coordinates from ORCA-job Ph-N2-OOCCH3-B3LYPG-aug-cc-pVDZ-scan-d09-49-n400
 OpenBabel10311713213D

 20 18  0  0  0  0  0  0  0  0999 V2000
   13.4348    6.0591    2.4196 C   0  0  0  0  0  0  0  0  0  0  0  0
   12.6809    5.2943    1.4946 C   0  0  0  0  0  0  0  0  0  0  0  0
   12.0890    4.2540    2.1778 C   0  0  0  0  0  0  0  0  0  0  0  0
   12.1118    3.9179    3.3863 C   0  0  0  0  0  0  0  0  0  0  0  0
   12.8355    4.6281    4.3489 C   0  0  0  0  0  0  0  0  0  0  0  0
   13.5077    5.7373    3.7896 C   0  0  0  0  0  0  0  0  0  0  0  0
   13.9777    6.9304    2.0481 H   0  0  0  0  0  0  0  0  0  0  0  0
   12.6131    5.5285    0.4354 H   0  0  0  0  0  0  0  0  0  0  0  0
   10.4279    3.1509   -1.6754 N   0  0  0  0  0  0  0  0  0  0  0  0
   10.0917    2.2766   -2.2598 N   0  0  0  0  0  0  0  0  0  0  0  0
   14.1071    6.3713    4.4458 H   0  0  0  0  0  0  0  0  0  0  0  0
   12.8956    4.3870    5.4090 H   0  0  0  0  0  0  0  0  0  0  0  0
   10.6161    2.0422    3.1748 H   0  0  0  0  0  0  0  0  0  0  0  0
    9.5941    1.3183    1.2171 O   0  0  0  0  0  0  0  0  0  0  0  0
    9.4182    0.8373    2.3161 C   0  0  0  0  0  0  0  0  0  0  0  0
   10.0423    1.2938    3.4279 O   0  0  0  0  0  0  0  0  0  0  0  0
    8.5023   -0.3174    2.6287 C   0  0  0  0  0  0  0  0  0  0  0  0
    8.0219   -0.6624    1.7092 H   0  0  0  0  0  0  0  0  0  0  0  0
    9.0763   -1.1345    3.0861 H   0  0  0  0  0  0  0  0  0  0  0  0
    7.7433   -0.0030    3.3576 H   0  0  0  0  0  0  0  0  0  0  0  0
  1  6  2  0  0  0  0
  2  3  2  0  0  0  0
  2  1  1  0  0  0  0
  3  4  1  0  0  0  0
  4  5  2  0  0  0  0
  5 12  1  0  0  0  0
  6  5  1  0  0  0  0
  6 11  1  0  0  0  0
  7  1  1  0  0  0  0
  8  2  1  0  0  0  0
 10  9  3  0  0  0  0
 13 16  1  0  0  0  0
 14 15  2  0  0  0  0
 15 17  1  0  0  0  0
 15 16  1  0  0  0  0
 17 19  1  0  0  0  0
 17 20  1  0  0  0  0
 18 17  1  0  0  0  0
M  RAD  2   3   2   4   2
M  END
