Coordinates from ORCA-job Ph-N2-OOCCH3-B3LYPG-aug-cc-pVDZ-scan-d09-49-n400
 OpenBabel10311713213D

 20 18  0  0  0  0  0  0  0  0999 V2000
   13.2863    6.0500    2.3205 C   0  0  0  0  0  0  0  0  0  0  0  0
   12.7306    5.5047    1.1449 C   0  0  0  0  0  0  0  0  0  0  0  0
   12.0913    4.3322    1.4571 C   0  0  0  0  0  0  0  0  0  0  0  0
   11.8740    3.6315    2.5074 C   0  0  0  0  0  0  0  0  0  0  0  0
   12.4400    4.1896    3.6834 C   0  0  0  0  0  0  0  0  0  0  0  0
   13.1407    5.4010    3.5611 C   0  0  0  0  0  0  0  0  0  0  0  0
   13.8347    6.9906    2.2544 H   0  0  0  0  0  0  0  0  0  0  0  0
   12.8137    5.9649    0.1634 H   0  0  0  0  0  0  0  0  0  0  0  0
   11.3332    3.5874   -0.2993 N   0  0  0  0  0  0  0  0  0  0  0  0
   10.8375    2.7510   -0.8264 N   0  0  0  0  0  0  0  0  0  0  0  0
   13.5842    5.8541    4.4496 H   0  0  0  0  0  0  0  0  0  0  0  0
   12.3394    3.7060    4.6566 H   0  0  0  0  0  0  0  0  0  0  0  0
   10.8889    2.0276    2.8633 H   0  0  0  0  0  0  0  0  0  0  0  0
    9.2593    1.4119    1.2778 O   0  0  0  0  0  0  0  0  0  0  0  0
    9.4099    0.8975    2.3705 C   0  0  0  0  0  0  0  0  0  0  0  0
   10.3659    1.2645    3.2393 O   0  0  0  0  0  0  0  0  0  0  0  0
    8.5457   -0.2123    2.9182 C   0  0  0  0  0  0  0  0  0  0  0  0
    7.8294   -0.5305    2.1558 H   0  0  0  0  0  0  0  0  0  0  0  0
    9.1725   -1.0575    3.2315 H   0  0  0  0  0  0  0  0  0  0  0  0
    8.0102    0.1454    3.8085 H   0  0  0  0  0  0  0  0  0  0  0  0
  1  6  2  0  0  0  0
  2  3  2  0  0  0  0
  2  1  1  0  0  0  0
  3  4  1  0  0  0  0
  4  5  2  0  0  0  0
  5 12  1  0  0  0  0
  6  5  1  0  0  0  0
  6 11  1  0  0  0  0
  7  1  1  0  0  0  0
  8  2  1  0  0  0  0
 10  9  3  0  0  0  0
 13 16  1  0  0  0  0
 14 15  2  0  0  0  0
 15 17  1  0  0  0  0
 15 16  1  0  0  0  0
 17 19  1  0  0  0  0
 17 20  1  0  0  0  0
 18 17  1  0  0  0  0
M  RAD  2   3   2   4   2
M  END
