Coordinates from ORCA-job Ph-N2-OOCCH3-B3LYPG-aug-cc-pVDZ-scan-d09-49-n400
 OpenBabel10311713213D

 20 18  0  0  0  0  0  0  0  0999 V2000
   13.4157    6.0815    2.3966 C   0  0  0  0  0  0  0  0  0  0  0  0
   12.7490    5.4606    1.3095 C   0  0  0  0  0  0  0  0  0  0  0  0
   12.0952    4.3569    1.8010 C   0  0  0  0  0  0  0  0  0  0  0  0
   11.9825    3.8347    2.9381 C   0  0  0  0  0  0  0  0  0  0  0  0
   12.6255    4.4136    4.0439 C   0  0  0  0  0  0  0  0  0  0  0  0
   13.3543    5.5751    3.7100 C   0  0  0  0  0  0  0  0  0  0  0  0
   13.9954    6.9850    2.1979 H   0  0  0  0  0  0  0  0  0  0  0  0
   12.7798    5.8311    0.2887 H   0  0  0  0  0  0  0  0  0  0  0  0
   10.8536    3.4512   -1.2613 N   0  0  0  0  0  0  0  0  0  0  0  0
   10.4823    2.6176   -1.8828 N   0  0  0  0  0  0  0  0  0  0  0  0
   13.8913    6.1030    4.5004 H   0  0  0  0  0  0  0  0  0  0  0  0
   12.5848    4.0319    5.0632 H   0  0  0  0  0  0  0  0  0  0  0  0
   10.6815    2.0278    3.0180 H   0  0  0  0  0  0  0  0  0  0  0  0
    9.4205    1.2068    1.2355 O   0  0  0  0  0  0  0  0  0  0  0  0
    9.3779    0.7910    2.3740 C   0  0  0  0  0  0  0  0  0  0  0  0
   10.1343    1.2985    3.3756 O   0  0  0  0  0  0  0  0  0  0  0  0
    8.4992   -0.3333    2.8593 C   0  0  0  0  0  0  0  0  0  0  0  0
    7.9070   -0.7202    2.0257 H   0  0  0  0  0  0  0  0  0  0  0  0
    9.1197   -1.1325    3.2866 H   0  0  0  0  0  0  0  0  0  0  0  0
    7.8378    0.0294    3.6576 H   0  0  0  0  0  0  0  0  0  0  0  0
  1  6  2  0  0  0  0
  2  3  2  0  0  0  0
  2  1  1  0  0  0  0
  3  4  1  0  0  0  0
  4  5  2  0  0  0  0
  5 12  1  0  0  0  0
  6  5  1  0  0  0  0
  6 11  1  0  0  0  0
  7  1  1  0  0  0  0
  8  2  1  0  0  0  0
 10  9  3  0  0  0  0
 13 16  1  0  0  0  0
 14 15  2  0  0  0  0
 15 17  1  0  0  0  0
 15 16  1  0  0  0  0
 17 19  1  0  0  0  0
 17 20  1  0  0  0  0
 18 17  1  0  0  0  0
M  RAD  2   3   2   4   2
M  END
