Coordinates from ORCA-job Ph-N2-OOCCH3-B3LYPG-aug-cc-pVDZ-scan-d09-49-n400
 OpenBabel10311713213D

 20 18  0  0  0  0  0  0  0  0999 V2000
   13.4147    6.0474    2.4240 C   0  0  0  0  0  0  0  0  0  0  0  0
   12.6464    5.2413    1.5471 C   0  0  0  0  0  0  0  0  0  0  0  0
   12.0929    4.2158    2.2826 C   0  0  0  0  0  0  0  0  0  0  0  0
   12.1569    3.9203    3.4995 C   0  0  0  0  0  0  0  0  0  0  0  0
   12.8964    4.6718    4.4175 C   0  0  0  0  0  0  0  0  0  0  0  0
   13.5334    5.7720    3.8014 C   0  0  0  0  0  0  0  0  0  0  0  0
   13.9325    6.9143    2.0089 H   0  0  0  0  0  0  0  0  0  0  0  0
   12.5428    5.4388    0.4832 H   0  0  0  0  0  0  0  0  0  0  0  0
   10.3766    3.1457   -1.8592 N   0  0  0  0  0  0  0  0  0  0  0  0
   10.0848    2.2462   -2.4291 N   0  0  0  0  0  0  0  0  0  0  0  0
   14.1417    6.4366    4.4180 H   0  0  0  0  0  0  0  0  0  0  0  0
   12.9917    4.4670    5.4826 H   0  0  0  0  0  0  0  0  0  0  0  0
   10.6195    2.0282    3.1940 H   0  0  0  0  0  0  0  0  0  0  0  0
    9.5940    1.3372    1.2215 O   0  0  0  0  0  0  0  0  0  0  0  0
    9.4169    0.8416    2.3143 C   0  0  0  0  0  0  0  0  0  0  0  0
   10.0445    1.2768    3.4331 O   0  0  0  0  0  0  0  0  0  0  0  0
    8.4934   -0.3113    2.6107 C   0  0  0  0  0  0  0  0  0  0  0  0
    8.0149   -0.6436    1.6856 H   0  0  0  0  0  0  0  0  0  0  0  0
    9.0604   -1.1365    3.0623 H   0  0  0  0  0  0  0  0  0  0  0  0
    7.7329    0.0001    3.3394 H   0  0  0  0  0  0  0  0  0  0  0  0
  1  6  2  0  0  0  0
  2  3  2  0  0  0  0
  2  1  1  0  0  0  0
  3  4  1  0  0  0  0
  4  5  2  0  0  0  0
  5 12  1  0  0  0  0
  6  5  1  0  0  0  0
  6 11  1  0  0  0  0
  7  1  1  0  0  0  0
  8  2  1  0  0  0  0
 10  9  3  0  0  0  0
 13 16  1  0  0  0  0
 14 15  2  0  0  0  0
 15 17  1  0  0  0  0
 15 16  1  0  0  0  0
 17 19  1  0  0  0  0
 17 20  1  0  0  0  0
 18 17  1  0  0  0  0
M  RAD  2   3   2   4   2
M  END
