Coordinates from ORCA-job Ph-N2-OOCCH3-B3LYPG-aug-cc-pVDZ-scan-d09-49-n400
 OpenBabel10311713213D

 20 18  0  0  0  0  0  0  0  0999 V2000
   13.4014    6.0826    2.3880 C   0  0  0  0  0  0  0  0  0  0  0  0
   12.7482    5.4735    1.2861 C   0  0  0  0  0  0  0  0  0  0  0  0
   12.0977    4.3592    1.7560 C   0  0  0  0  0  0  0  0  0  0  0  0
   11.9757    3.8177    2.8834 C   0  0  0  0  0  0  0  0  0  0  0  0
   12.6063    4.3859    4.0025 C   0  0  0  0  0  0  0  0  0  0  0  0
   13.3312    5.5565    3.6931 C   0  0  0  0  0  0  0  0  0  0  0  0
   13.9772    6.9924    2.2076 H   0  0  0  0  0  0  0  0  0  0  0  0
   12.7856    5.8586    0.2710 H   0  0  0  0  0  0  0  0  0  0  0  0
   10.9225    3.4787   -1.1611 N   0  0  0  0  0  0  0  0  0  0  0  0
   10.5415    2.6477   -1.7803 N   0  0  0  0  0  0  0  0  0  0  0  0
   13.8575    6.0758    4.4962 H   0  0  0  0  0  0  0  0  0  0  0  0
   12.5587    3.9892    5.0159 H   0  0  0  0  0  0  0  0  0  0  0  0
   10.7010    2.0176    2.9995 H   0  0  0  0  0  0  0  0  0  0  0  0
    9.3975    1.2142    1.2393 O   0  0  0  0  0  0  0  0  0  0  0  0
    9.3748    0.7935    2.3766 C   0  0  0  0  0  0  0  0  0  0  0  0
   10.1558    1.2899    3.3646 O   0  0  0  0  0  0  0  0  0  0  0  0
    8.4967   -0.3258    2.8745 C   0  0  0  0  0  0  0  0  0  0  0  0
    7.8850   -0.7043    2.0513 H   0  0  0  0  0  0  0  0  0  0  0  0
    9.1189   -1.1319    3.2861 H   0  0  0  0  0  0  0  0  0  0  0  0
    7.8542    0.0388    3.6873 H   0  0  0  0  0  0  0  0  0  0  0  0
  1  6  2  0  0  0  0
  2  3  2  0  0  0  0
  2  1  1  0  0  0  0
  3  4  1  0  0  0  0
  4  5  2  0  0  0  0
  5 12  1  0  0  0  0
  6  5  1  0  0  0  0
  6 11  1  0  0  0  0
  7  1  1  0  0  0  0
  8  2  1  0  0  0  0
 10  9  3  0  0  0  0
 13 16  1  0  0  0  0
 14 15  2  0  0  0  0
 15 17  1  0  0  0  0
 15 16  1  0  0  0  0
 17 19  1  0  0  0  0
 17 20  1  0  0  0  0
 18 17  1  0  0  0  0
M  RAD  2   3   2   4   2
M  END
