Coordinates from ORCA-job Ph-N2-OOCCH3-B3LYPG-aug-cc-pVDZ-scan-d09-49-n400
 OpenBabel10311713213D

 20 18  0  0  0  0  0  0  0  0999 V2000
   13.4457    6.0780    2.4211 C   0  0  0  0  0  0  0  0  0  0  0  0
   12.7396    5.4039    1.3923 C   0  0  0  0  0  0  0  0  0  0  0  0
   12.0952    4.3289    1.9593 C   0  0  0  0  0  0  0  0  0  0  0  0
   12.0291    3.8835    3.1307 C   0  0  0  0  0  0  0  0  0  0  0  0
   12.7057    4.5079    4.1861 C   0  0  0  0  0  0  0  0  0  0  0  0
   13.4275    5.6453    3.7620 C   0  0  0  0  0  0  0  0  0  0  0  0
   14.0226    6.9658    2.1548 H   0  0  0  0  0  0  0  0  0  0  0  0
   12.7397    5.7216    0.3531 H   0  0  0  0  0  0  0  0  0  0  0  0
   10.6576    3.3740   -1.5911 N   0  0  0  0  0  0  0  0  0  0  0  0
   10.3110    2.5382   -2.2236 N   0  0  0  0  0  0  0  0  0  0  0  0
   13.9938    6.2126    4.5032 H   0  0  0  0  0  0  0  0  0  0  0  0
   12.6972    4.1819    5.2249 H   0  0  0  0  0  0  0  0  0  0  0  0
   10.6331    2.0390    3.0678 H   0  0  0  0  0  0  0  0  0  0  0  0
    9.4846    1.1839    1.2242 O   0  0  0  0  0  0  0  0  0  0  0  0
    9.3844    0.7792    2.3630 C   0  0  0  0  0  0  0  0  0  0  0  0
   10.0759    1.3079    3.4006 O   0  0  0  0  0  0  0  0  0  0  0  0
    8.4967   -0.3533    2.8109 C   0  0  0  0  0  0  0  0  0  0  0  0
    7.9583   -0.7582    1.9499 H   0  0  0  0  0  0  0  0  0  0  0  0
    9.1038   -1.1382    3.2817 H   0  0  0  0  0  0  0  0  0  0  0  0
    7.7859    0.0076    3.5665 H   0  0  0  0  0  0  0  0  0  0  0  0
  1  6  2  0  0  0  0
  2  3  2  0  0  0  0
  2  1  1  0  0  0  0
  3  4  1  0  0  0  0
  4  5  2  0  0  0  0
  5 12  1  0  0  0  0
  6  5  1  0  0  0  0
  6 11  1  0  0  0  0
  7  1  1  0  0  0  0
  8  2  1  0  0  0  0
 10  9  3  0  0  0  0
 13 16  1  0  0  0  0
 14 15  2  0  0  0  0
 15 17  1  0  0  0  0
 15 16  1  0  0  0  0
 17 19  1  0  0  0  0
 17 20  1  0  0  0  0
 18 17  1  0  0  0  0
M  RAD  2   3   2   4   2
M  END
