Coordinates from ORCA-job Ph-N2-OOCCH3-B3LYPG-aug-cc-pVDZ-scan-d09-49-n400
 OpenBabel11081710403D

 20 20  0  0  0  0  0  0  0  0999 V2000
   12.5789    5.9772    2.2806 C   0  0  0  0  0  0  0  0  0  0  0  0
   12.2940    5.1254    1.2108 C   0  0  0  0  0  0  0  0  0  0  0  0
   12.0800    3.7747    1.4818 C   0  0  0  0  0  0  0  0  0  0  0  0
   12.1999    3.2273    2.7596 C   0  0  0  0  0  0  0  0  0  0  0  0
   12.5113    4.0931    3.8107 C   0  0  0  0  0  0  0  0  0  0  0  0
   12.6893    5.4618    3.5767 C   0  0  0  0  0  0  0  0  0  0  0  0
   12.7282    7.0411    2.0977 H   0  0  0  0  0  0  0  0  0  0  0  0
   12.2258    5.4969    0.1896 H   0  0  0  0  0  0  0  0  0  0  0  0
   11.8334    2.8877    0.3211 N   0  0  0  0  0  0  0  0  0  0  0  0
   11.0360    2.0413    0.1409 N   0  0  0  0  0  0  0  0  0  0  0  0
   12.9270    6.1276    4.4064 H   0  0  0  0  0  0  0  0  0  0  0  0
   12.6159    3.6926    4.8189 H   0  0  0  0  0  0  0  0  0  0  0  0
   12.0706    2.1573    2.9133 H   0  0  0  0  0  0  0  0  0  0  0  0
    9.8084    1.9856    1.3451 O   0  0  0  0  0  0  0  0  0  0  0  0
    9.8926    0.8582    2.0408 C   0  0  0  0  0  0  0  0  0  0  0  0
   10.9051    0.1768    2.1237 O   0  0  0  0  0  0  0  0  0  0  0  0
    8.5905    0.5147    2.7396 C   0  0  0  0  0  0  0  0  0  0  0  0
    8.1011    1.4153    3.1299 H   0  0  0  0  0  0  0  0  0  0  0  0
    7.9122    0.0561    2.0060 H   0  0  0  0  0  0  0  0  0  0  0  0
    8.7869   -0.2010    3.5442 H   0  0  0  0  0  0  0  0  0  0  0  0
  1  6  2  0  0  0  0
  2  3  2  0  0  0  0
  2  1  1  0  0  0  0
  3  4  1  0  0  0  0
  4 13  1  0  0  0  0
  4  5  2  0  0  0  0
  5 12  1  0  0  0  0
  6  5  1  0  0  0  0
  6 11  1  0  0  0  0
  7  1  1  0  0  0  0
  8  2  1  0  0  0  0
  9  3  1  0  0  0  0
 10  9  1  0  0  0  0
 10 14  1  0  0  0  0
 14 15  1  0  0  0  0
 15 16  2  0  0  0  0
 15 17  1  0  0  0  0
 17 18  1  0  0  0  0
 17 20  1  0  0  0  0
 19 17  1  0  0  0  0
M  RAD  2   9   2  10   2
M  END
