Coordinates from ORCA-job Ph-N2-OOCCH3-B3LYPG-aug-cc-pVDZ-scan-d09-49-n400
 OpenBabel10311713213D

 20 18  0  0  0  0  0  0  0  0999 V2000
   13.4372    6.0808    2.4123 C   0  0  0  0  0  0  0  0  0  0  0  0
   12.7522    5.4427    1.3470 C   0  0  0  0  0  0  0  0  0  0  0  0
   12.0941    4.3542    1.8682 C   0  0  0  0  0  0  0  0  0  0  0  0
   11.9956    3.8617    3.0192 C   0  0  0  0  0  0  0  0  0  0  0  0
   12.6547    4.4554    4.1059 C   0  0  0  0  0  0  0  0  0  0  0  0
   13.3884    5.6035    3.7372 C   0  0  0  0  0  0  0  0  0  0  0  0
   14.0217    6.9751    2.1875 H   0  0  0  0  0  0  0  0  0  0  0  0
   12.7739    5.7921    0.3183 H   0  0  0  0  0  0  0  0  0  0  0  0
   10.7471    3.4071   -1.4195 N   0  0  0  0  0  0  0  0  0  0  0  0
   10.3902    2.5676   -2.0415 N   0  0  0  0  0  0  0  0  0  0  0  0
   13.9397    6.1438    4.5091 H   0  0  0  0  0  0  0  0  0  0  0  0
   12.6236    4.0956    5.1334 H   0  0  0  0  0  0  0  0  0  0  0  0
   10.6540    2.0412    3.0396 H   0  0  0  0  0  0  0  0  0  0  0  0
    9.4523    1.1947    1.2294 O   0  0  0  0  0  0  0  0  0  0  0  0
    9.3821    0.7867    2.3693 C   0  0  0  0  0  0  0  0  0  0  0  0
   10.1045    1.3102    3.3879 O   0  0  0  0  0  0  0  0  0  0  0  0
    8.5028   -0.3438    2.8384 C   0  0  0  0  0  0  0  0  0  0  0  0
    7.9385   -0.7436    1.9917 H   0  0  0  0  0  0  0  0  0  0  0  0
    9.1198   -1.1328    3.2891 H   0  0  0  0  0  0  0  0  0  0  0  0
    7.8152    0.0173    3.6151 H   0  0  0  0  0  0  0  0  0  0  0  0
  1  6  2  0  0  0  0
  2  3  2  0  0  0  0
  2  1  1  0  0  0  0
  3  4  1  0  0  0  0
  4  5  2  0  0  0  0
  5 12  1  0  0  0  0
  6  5  1  0  0  0  0
  6 11  1  0  0  0  0
  7  1  1  0  0  0  0
  8  2  1  0  0  0  0
 10  9  3  0  0  0  0
 13 16  1  0  0  0  0
 14 15  2  0  0  0  0
 15 17  1  0  0  0  0
 15 16  1  0  0  0  0
 17 19  1  0  0  0  0
 17 20  1  0  0  0  0
 18 17  1  0  0  0  0
M  RAD  2   3   2   4   2
M  END
