Coordinates from ORCA-job Ph-N2-OOCCH3-B3LYPG-aug-cc-pVDZ-scan-d09-49-n400
 OpenBabel10311713213D

 20 18  0  0  0  0  0  0  0  0999 V2000
   13.3647    6.0814    2.3694 C   0  0  0  0  0  0  0  0  0  0  0  0
   12.7480    5.5069    1.2277 C   0  0  0  0  0  0  0  0  0  0  0  0
   12.1059    4.3701    1.6429 C   0  0  0  0  0  0  0  0  0  0  0  0
   11.9507    3.7686    2.7372 C   0  0  0  0  0  0  0  0  0  0  0  0
   12.5506    4.3107    3.8895 C   0  0  0  0  0  0  0  0  0  0  0  0
   13.2674    5.5020    3.6495 C   0  0  0  0  0  0  0  0  0  0  0  0
   13.9318    7.0052    2.2395 H   0  0  0  0  0  0  0  0  0  0  0  0
   12.8049    5.9310    0.2293 H   0  0  0  0  0  0  0  0  0  0  0  0
   11.0897    3.5554   -0.9201 N   0  0  0  0  0  0  0  0  0  0  0  0
   10.6904    2.7164   -1.5161 N   0  0  0  0  0  0  0  0  0  0  0  0
   13.7649    5.9951    4.4867 H   0  0  0  0  0  0  0  0  0  0  0  0
   12.4828    3.8744    4.8857 H   0  0  0  0  0  0  0  0  0  0  0  0
   10.7537    1.9989    2.9549 H   0  0  0  0  0  0  0  0  0  0  0  0
    9.3415    1.2346    1.2502 O   0  0  0  0  0  0  0  0  0  0  0  0
    9.3712    0.8044    2.3840 C   0  0  0  0  0  0  0  0  0  0  0  0
   10.2118    1.2734    3.3344 O   0  0  0  0  0  0  0  0  0  0  0  0
    8.4965   -0.3022    2.9167 C   0  0  0  0  0  0  0  0  0  0  0  0
    7.8384   -0.6626    2.1215 H   0  0  0  0  0  0  0  0  0  0  0  0
    9.1218   -1.1230    3.2928 H   0  0  0  0  0  0  0  0  0  0  0  0
    7.9009    0.0688    3.7617 H   0  0  0  0  0  0  0  0  0  0  0  0
  1  6  2  0  0  0  0
  2  3  2  0  0  0  0
  2  1  1  0  0  0  0
  3  4  1  0  0  0  0
  4  5  2  0  0  0  0
  5 12  1  0  0  0  0
  6  5  1  0  0  0  0
  6 11  1  0  0  0  0
  7  1  1  0  0  0  0
  8  2  1  0  0  0  0
 10  9  3  0  0  0  0
 13 16  1  0  0  0  0
 14 15  2  0  0  0  0
 15 17  1  0  0  0  0
 15 16  1  0  0  0  0
 17 19  1  0  0  0  0
 17 20  1  0  0  0  0
 18 17  1  0  0  0  0
M  RAD  2   3   2   4   2
M  END
