Coordinates from ORCA-job Ph-N2-OOCCH3-B3LYPG-aug-cc-pVDZ-scan-d09-49-n400
 OpenBabel10311713213D

 20 18  0  0  0  0  0  0  0  0999 V2000
   13.3027    6.0646    2.3413 C   0  0  0  0  0  0  0  0  0  0  0  0
   12.7404    5.5318    1.1578 C   0  0  0  0  0  0  0  0  0  0  0  0
   12.1039    4.3634    1.4812 C   0  0  0  0  0  0  0  0  0  0  0  0
   11.8976    3.6766    2.5282 C   0  0  0  0  0  0  0  0  0  0  0  0
   12.4600    4.2032    3.7156 C   0  0  0  0  0  0  0  0  0  0  0  0
   13.1637    5.4145    3.5823 C   0  0  0  0  0  0  0  0  0  0  0  0
   13.8550    7.0036    2.2774 H   0  0  0  0  0  0  0  0  0  0  0  0
   12.8230    6.0002    0.1806 H   0  0  0  0  0  0  0  0  0  0  0  0
   11.2878    3.5860   -0.4816 N   0  0  0  0  0  0  0  0  0  0  0  0
   10.8643    2.7129   -1.0099 N   0  0  0  0  0  0  0  0  0  0  0  0
   13.6149    5.8670    4.4672 H   0  0  0  0  0  0  0  0  0  0  0  0
   12.3612    3.7158    4.6863 H   0  0  0  0  0  0  0  0  0  0  0  0
   10.8476    2.0136    2.8816 H   0  0  0  0  0  0  0  0  0  0  0  0
    9.2541    1.3739    1.2857 O   0  0  0  0  0  0  0  0  0  0  0  0
    9.3845    0.8771    2.3868 C   0  0  0  0  0  0  0  0  0  0  0  0
   10.3259    1.2667    3.2692 O   0  0  0  0  0  0  0  0  0  0  0  0
    8.5289   -0.2369    2.9369 C   0  0  0  0  0  0  0  0  0  0  0  0
    7.8056   -0.5514    2.1797 H   0  0  0  0  0  0  0  0  0  0  0  0
    9.1621   -1.0835    3.2339 H   0  0  0  0  0  0  0  0  0  0  0  0
    8.0042    0.1106    3.8373 H   0  0  0  0  0  0  0  0  0  0  0  0
  1  6  2  0  0  0  0
  2  3  2  0  0  0  0
  2  1  1  0  0  0  0
  3  4  1  0  0  0  0
  4  5  2  0  0  0  0
  5 12  1  0  0  0  0
  6  5  1  0  0  0  0
  6 11  1  0  0  0  0
  7  1  1  0  0  0  0
  8  2  1  0  0  0  0
 10  9  3  0  0  0  0
 13 16  1  0  0  0  0
 14 15  2  0  0  0  0
 15 17  1  0  0  0  0
 15 16  1  0  0  0  0
 17 19  1  0  0  0  0
 17 20  1  0  0  0  0
 18 17  1  0  0  0  0
M  RAD  2   3   2   4   2
M  END
