Coordinates from ORCA-job p-NO2-Ph-N2-HSO4-B3LYPG-aug-cc-pVDZ-scan-d09-49-n400
 OpenBabel12261916533D

 21 20  0  0  0  0  0  0  0  0999 V2000
    2.6279   -0.5914    0.0845 C   0  0  0  0  0  0  0  0  0  0  0  0
    1.8080    0.0360    1.0229 C   0  0  0  0  0  0  0  0  0  0  0  0
    0.6879    0.7384    0.5723 C   0  0  0  0  0  0  0  0  0  0  0  0
    0.3737    0.8269   -0.7890 C   0  0  0  0  0  0  0  0  0  0  0  0
    1.1897    0.1944   -1.7209 C   0  0  0  0  0  0  0  0  0  0  0  0
    2.3102   -0.5074   -1.2704 C   0  0  0  0  0  0  0  0  0  0  0  0
    3.5088   -1.1462    0.3969 H   0  0  0  0  0  0  0  0  0  0  0  0
    2.0524   -0.0263    2.0787 H   0  0  0  0  0  0  0  0  0  0  0  0
   -0.5055    1.3885   -1.0983 H   0  0  0  0  0  0  0  0  0  0  0  0
    0.9723    0.2412   -2.7848 H   0  0  0  0  0  0  0  0  0  0  0  0
    3.1787   -1.1775   -2.2533 N   0  0  0  0  0  0  0  0  0  0  0  0
    4.1606   -1.7831   -1.8301 O   0  0  0  0  0  0  0  0  0  0  0  0
    2.8763   -1.0818   -3.4407 O   0  0  0  0  0  0  0  0  0  0  0  0
    2.1637    4.1762    0.1313 N   0  0  0  0  0  0  0  0  0  0  0  0
    2.9885    4.7681   -0.3030 N   0  0  0  0  0  0  0  0  0  0  0  0
    0.0986    1.8302    2.9698 S   0  0  0  0  0  0  0  0  0  0  0  0
    0.0611    0.3748    3.7387 O   0  0  0  0  0  0  0  0  0  0  0  0
   -0.8693    0.1750    3.9430 H   0  0  0  0  0  0  0  0  0  0  0  0
   -0.2397    1.3717    1.4029 O   0  0  0  0  0  0  0  0  0  0  0  0
   -1.0830    2.6037    3.3549 O   0  0  0  0  0  0  0  0  0  0  0  0
    1.4766    2.3037    3.0869 O   0  0  0  0  0  0  0  0  0  0  0  0
  1  7  1  0  0  0  0
  1  2  2  0  0  0  0
  2  8  1  0  0  0  0
  3  2  1  0  0  0  0
  3 19  1  0  0  0  0
  4  3  2  0  0  0  0
  5  6  2  0  0  0  0
  5  4  1  0  0  0  0
  6  1  1  0  0  0  0
  9  4  1  0  0  0  0
 10  5  1  0  0  0  0
 11 12  2  0  0  0  0
 11  6  1  0  0  0  0
 13 11  2  0  0  0  0
 15 14  3  0  0  0  0
 16 21  2  0  0  0  0
 16 20  2  0  0  0  0
 16 17  1  0  0  0  0
 17 18  1  0  0  0  0
 19 16  1  0  0  0  0
M  END
