Coordinates from ORCA-job p-NO2-Ph-N2-HSO4-B3LYPG-aug-cc-pVDZ-scan-d09-49-n400
 OpenBabel12261916533D

 21 20  0  0  0  0  0  0  0  0999 V2000
    2.7273   -0.3478    0.0626 C   0  0  0  0  0  0  0  0  0  0  0  0
    1.9580    0.3461    0.9893 C   0  0  0  0  0  0  0  0  0  0  0  0
    0.8764    1.1270    0.5332 C   0  0  0  0  0  0  0  0  0  0  0  0
    0.4254    0.9933   -0.7984 C   0  0  0  0  0  0  0  0  0  0  0  0
    1.1925    0.2978   -1.7187 C   0  0  0  0  0  0  0  0  0  0  0  0
    2.3597   -0.3411   -1.2848 C   0  0  0  0  0  0  0  0  0  0  0  0
    3.6018   -0.9121    0.3766 H   0  0  0  0  0  0  0  0  0  0  0  0
    2.2415    0.3445    2.0369 H   0  0  0  0  0  0  0  0  0  0  0  0
   -0.4938    1.4949   -1.0943 H   0  0  0  0  0  0  0  0  0  0  0  0
    0.8939    0.2248   -2.7612 H   0  0  0  0  0  0  0  0  0  0  0  0
    3.1772   -1.0790   -2.2567 N   0  0  0  0  0  0  0  0  0  0  0  0
    4.1813   -1.6542   -1.8411 O   0  0  0  0  0  0  0  0  0  0  0  0
    2.8097   -1.0774   -3.4304 O   0  0  0  0  0  0  0  0  0  0  0  0
    1.7783    2.8738    0.3700 N   0  0  0  0  0  0  0  0  0  0  0  0
    2.6309    3.2555   -0.2297 N   0  0  0  0  0  0  0  0  0  0  0  0
    0.1080    1.9265    3.0031 S   0  0  0  0  0  0  0  0  0  0  0  0
    0.0279    0.3965    3.5990 O   0  0  0  0  0  0  0  0  0  0  0  0
   -0.9127    0.1663    3.6969 H   0  0  0  0  0  0  0  0  0  0  0  0
   -0.1166    1.6469    1.3765 O   0  0  0  0  0  0  0  0  0  0  0  0
   -1.1017    2.6545    3.3882 O   0  0  0  0  0  0  0  0  0  0  0  0
    1.4726    2.3786    3.2751 O   0  0  0  0  0  0  0  0  0  0  0  0
  1  7  1  0  0  0  0
  1  2  2  0  0  0  0
  2  8  1  0  0  0  0
  3  2  1  0  0  0  0
  3 19  1  0  0  0  0
  4  3  2  0  0  0  0
  5  6  2  0  0  0  0
  5  4  1  0  0  0  0
  6  1  1  0  0  0  0
  9  4  1  0  0  0  0
 10  5  1  0  0  0  0
 11 12  2  0  0  0  0
 11  6  1  0  0  0  0
 13 11  2  0  0  0  0
 15 14  3  0  0  0  0
 16 21  2  0  0  0  0
 16 20  2  0  0  0  0
 16 17  1  0  0  0  0
 17 18  1  0  0  0  0
 19 16  1  0  0  0  0
M  END
