Coordinates from ORCA-job p-NO2-Ph-N2-HSO4-B3LYPG-aug-cc-pVDZ-scan-d09-49-n400
 OpenBabel12261916533D

 21 20  0  0  0  0  0  0  0  0999 V2000
    2.6685   -0.4087    0.0603 C   0  0  0  0  0  0  0  0  0  0  0  0
    2.2980    0.7518    0.7466 C   0  0  0  0  0  0  0  0  0  0  0  0
    1.6334    1.6936   -0.0079 C   0  0  0  0  0  0  0  0  0  0  0  0
    1.2830    1.6257   -1.3470 C   0  0  0  0  0  0  0  0  0  0  0  0
    1.6564    0.4529   -2.0050 C   0  0  0  0  0  0  0  0  0  0  0  0
    2.3430   -0.5318   -1.2907 C   0  0  0  0  0  0  0  0  0  0  0  0
    3.1913   -1.2141    0.5693 H   0  0  0  0  0  0  0  0  0  0  0  0
    2.4732    0.9070    1.8077 H   0  0  0  0  0  0  0  0  0  0  0  0
    0.7397    2.4206   -1.8505 H   0  0  0  0  0  0  0  0  0  0  0  0
    1.4181    0.2980   -3.0541 H   0  0  0  0  0  0  0  0  0  0  0  0
    2.7399   -1.7715   -2.0065 N   0  0  0  0  0  0  0  0  0  0  0  0
    3.3523   -2.6181   -1.3676 O   0  0  0  0  0  0  0  0  0  0  0  0
    2.4313   -1.8599   -3.1896 O   0  0  0  0  0  0  0  0  0  0  0  0
    1.2471    3.0961    0.7090 N   0  0  0  0  0  0  0  0  0  0  0  0
    1.0227    4.1833    0.6456 N   0  0  0  0  0  0  0  0  0  0  0  0
   -0.2027    1.6731    2.9540 S   0  0  0  0  0  0  0  0  0  0  0  0
    0.2636    0.0631    3.1865 O   0  0  0  0  0  0  0  0  0  0  0  0
    0.0059   -0.1466    4.0975 H   0  0  0  0  0  0  0  0  0  0  0  0
   -0.8915    1.6631    1.6271 O   0  0  0  0  0  0  0  0  0  0  0  0
   -0.9803    2.0296    4.1645 O   0  0  0  0  0  0  0  0  0  0  0  0
    1.1448    2.4083    2.8431 O   0  0  0  0  0  0  0  0  0  0  0  0
  1  7  1  0  0  0  0
  1  2  1  0  0  0  0
  2  8  1  0  0  0  0
  3 14  1  0  0  0  0
  3  2  2  0  0  0  0
  4  3  1  0  0  0  0
  5  4  2  0  0  0  0
  5  6  1  0  0  0  0
  6  1  2  0  0  0  0
  9  4  1  0  0  0  0
 10  5  1  0  0  0  0
 11 12  2  0  0  0  0
 11  6  1  0  0  0  0
 13 11  2  0  0  0  0
 15 14  2  0  0  0  0
 16 17  1  0  0  0  0
 16 20  1  0  0  0  0
 17 18  1  0  0  0  0
 19 16  2  0  0  0  0
 21 16  2  0  0  0  0
M  RAD  2  15   2  20   2
M  END
