Coordinates from ORCA-job p-NO2-Ph-N2-HSO4-B3LYPG-aug-cc-pVDZ-scan-d09-49-n400
 OpenBabel12261916533D

 21 20  0  0  0  0  0  0  0  0999 V2000
    2.6698   -0.4080    0.0632 C   0  0  0  0  0  0  0  0  0  0  0  0
    2.3063    0.7582    0.7469 C   0  0  0  0  0  0  0  0  0  0  0  0
    1.6431    1.6807   -0.0223 C   0  0  0  0  0  0  0  0  0  0  0  0
    1.2785    1.6256   -1.3516 C   0  0  0  0  0  0  0  0  0  0  0  0
    1.6493    0.4456   -2.0033 C   0  0  0  0  0  0  0  0  0  0  0  0
    2.3373   -0.5362   -1.2863 C   0  0  0  0  0  0  0  0  0  0  0  0
    3.1930   -1.2118    0.5744 H   0  0  0  0  0  0  0  0  0  0  0  0
    2.4804    0.9234    1.8071 H   0  0  0  0  0  0  0  0  0  0  0  0
    0.7327    2.4198   -1.8529 H   0  0  0  0  0  0  0  0  0  0  0  0
    1.4057    0.2855   -3.0505 H   0  0  0  0  0  0  0  0  0  0  0  0
    2.7281   -1.7800   -1.9973 N   0  0  0  0  0  0  0  0  0  0  0  0
    3.3413   -2.6248   -1.3567 O   0  0  0  0  0  0  0  0  0  0  0  0
    2.4132   -1.8745   -3.1782 O   0  0  0  0  0  0  0  0  0  0  0  0
    1.2505    3.1527    0.7366 N   0  0  0  0  0  0  0  0  0  0  0  0
    1.0376    4.2405    0.6665 N   0  0  0  0  0  0  0  0  0  0  0  0
   -0.2002    1.6615    2.9415 S   0  0  0  0  0  0  0  0  0  0  0  0
    0.2916    0.0582    3.1746 O   0  0  0  0  0  0  0  0  0  0  0  0
    0.0187   -0.1616    4.0787 H   0  0  0  0  0  0  0  0  0  0  0  0
   -0.8591    1.6452    1.5991 O   0  0  0  0  0  0  0  0  0  0  0  0
   -1.0144    1.9933    4.1349 O   0  0  0  0  0  0  0  0  0  0  0  0
    1.1343    2.4222    2.8677 O   0  0  0  0  0  0  0  0  0  0  0  0
  1  7  1  0  0  0  0
  1  2  1  0  0  0  0
  2  8  1  0  0  0  0
  3 14  1  0  0  0  0
  3  2  2  0  0  0  0
  4  3  1  0  0  0  0
  5  4  2  0  0  0  0
  5  6  1  0  0  0  0
  6  1  2  0  0  0  0
  9  4  1  0  0  0  0
 10  5  1  0  0  0  0
 11 12  2  0  0  0  0
 11  6  1  0  0  0  0
 13 11  2  0  0  0  0
 15 14  2  0  0  0  0
 16 17  1  0  0  0  0
 16 20  1  0  0  0  0
 17 18  1  0  0  0  0
 19 16  2  0  0  0  0
 21 16  2  0  0  0  0
M  RAD  2  15   2  20   2
M  END
