Coordinates from ORCA-job p-NO2-Ph-N2-HSO4-B3LYPG-aug-cc-pVDZ-scan-d09-49-n400
 OpenBabel12261916533D

 21 20  0  0  0  0  0  0  0  0999 V2000
    2.6037   -0.6441    0.0909 C   0  0  0  0  0  0  0  0  0  0  0  0
    1.7732   -0.0329    1.0305 C   0  0  0  0  0  0  0  0  0  0  0  0
    0.6688    0.6932    0.5788 C   0  0  0  0  0  0  0  0  0  0  0  0
    0.3793    0.8205   -0.7848 C   0  0  0  0  0  0  0  0  0  0  0  0
    1.2048    0.2027   -1.7186 C   0  0  0  0  0  0  0  0  0  0  0  0
    2.3102   -0.5217   -1.2666 C   0  0  0  0  0  0  0  0  0  0  0  0
    3.4733   -1.2163    0.4038 H   0  0  0  0  0  0  0  0  0  0  0  0
    1.9955   -0.1276    2.0890 H   0  0  0  0  0  0  0  0  0  0  0  0
   -0.4882    1.3999   -1.0944 H   0  0  0  0  0  0  0  0  0  0  0  0
    1.0071    0.2791   -2.7846 H   0  0  0  0  0  0  0  0  0  0  0  0
    3.1893   -1.1754   -2.2516 N   0  0  0  0  0  0  0  0  0  0  0  0
    4.1537   -1.8074   -1.8269 O   0  0  0  0  0  0  0  0  0  0  0  0
    2.9046   -1.0523   -3.4407 O   0  0  0  0  0  0  0  0  0  0  0  0
    2.1948    4.3327    0.0819 N   0  0  0  0  0  0  0  0  0  0  0  0
    2.9993    4.9538   -0.3497 N   0  0  0  0  0  0  0  0  0  0  0  0
    0.0953    1.8206    2.9596 S   0  0  0  0  0  0  0  0  0  0  0  0
    0.0915    0.3905    3.7761 O   0  0  0  0  0  0  0  0  0  0  0  0
   -0.8319    0.1880    4.0078 H   0  0  0  0  0  0  0  0  0  0  0  0
   -0.2675    1.3072    1.4145 O   0  0  0  0  0  0  0  0  0  0  0  0
   -1.0886    2.5907    3.3451 O   0  0  0  0  0  0  0  0  0  0  0  0
    1.4694    2.3140    3.0320 O   0  0  0  0  0  0  0  0  0  0  0  0
  1  7  1  0  0  0  0
  1  2  2  0  0  0  0
  2  8  1  0  0  0  0
  3  2  1  0  0  0  0
  3 19  1  0  0  0  0
  4  3  2  0  0  0  0
  5  6  2  0  0  0  0
  5  4  1  0  0  0  0
  6  1  1  0  0  0  0
  9  4  1  0  0  0  0
 10  5  1  0  0  0  0
 11 12  2  0  0  0  0
 11  6  1  0  0  0  0
 13 11  2  0  0  0  0
 15 14  3  0  0  0  0
 16 21  2  0  0  0  0
 16 20  2  0  0  0  0
 16 17  1  0  0  0  0
 17 18  1  0  0  0  0
 19 16  1  0  0  0  0
M  END
