Coordinates from ORCA-job p-NO2-Ph-N2-HSO4-B3LYPG-aug-cc-pVDZ-scan-d09-49-n400
 OpenBabel12261916533D

 21 20  0  0  0  0  0  0  0  0999 V2000
    2.5882   -0.6769    0.0949 C   0  0  0  0  0  0  0  0  0  0  0  0
    1.7517   -0.0753    1.0353 C   0  0  0  0  0  0  0  0  0  0  0  0
    0.6567    0.6646    0.5841 C   0  0  0  0  0  0  0  0  0  0  0  0
    0.3819    0.8162   -0.7800 C   0  0  0  0  0  0  0  0  0  0  0  0
    1.2127    0.2073   -1.7150 C   0  0  0  0  0  0  0  0  0  0  0  0
    2.3088   -0.5312   -1.2634 C   0  0  0  0  0  0  0  0  0  0  0  0
    3.4511   -1.2596    0.4071 H   0  0  0  0  0  0  0  0  0  0  0  0
    1.9611   -0.1885    2.0948 H   0  0  0  0  0  0  0  0  0  0  0  0
   -0.4783    1.4066   -1.0889 H   0  0  0  0  0  0  0  0  0  0  0  0
    1.0265    0.3017   -2.7817 H   0  0  0  0  0  0  0  0  0  0  0  0
    3.1937   -1.1753   -2.2499 N   0  0  0  0  0  0  0  0  0  0  0  0
    4.1537   -1.8142   -1.8257 O   0  0  0  0  0  0  0  0  0  0  0  0
    2.9255   -1.0262   -3.4398 O   0  0  0  0  0  0  0  0  0  0  0  0
    2.2172    4.4263    0.0454 N   0  0  0  0  0  0  0  0  0  0  0  0
    3.0095    5.0629   -0.3862 N   0  0  0  0  0  0  0  0  0  0  0  0
    0.0930    1.8136    2.9543 S   0  0  0  0  0  0  0  0  0  0  0  0
    0.1070    0.3990    3.7978 O   0  0  0  0  0  0  0  0  0  0  0  0
   -0.8123    0.1968    4.0454 H   0  0  0  0  0  0  0  0  0  0  0  0
   -0.2838    1.2681    1.4230 O   0  0  0  0  0  0  0  0  0  0  0  0
   -1.0912    2.5832    3.3398 O   0  0  0  0  0  0  0  0  0  0  0  0
    1.4648    2.3162    3.0008 O   0  0  0  0  0  0  0  0  0  0  0  0
  1  7  1  0  0  0  0
  1  2  2  0  0  0  0
  2  8  1  0  0  0  0
  3  2  1  0  0  0  0
  3 19  1  0  0  0  0
  4  3  2  0  0  0  0
  5  6  2  0  0  0  0
  5  4  1  0  0  0  0
  6  1  1  0  0  0  0
  9  4  1  0  0  0  0
 10  5  1  0  0  0  0
 11 12  2  0  0  0  0
 11  6  1  0  0  0  0
 13 11  2  0  0  0  0
 15 14  3  0  0  0  0
 16 21  2  0  0  0  0
 16 20  2  0  0  0  0
 16 17  1  0  0  0  0
 17 18  1  0  0  0  0
 19 16  1  0  0  0  0
M  END
