Coordinates from ORCA-job p-NO2-Ph-N2-HSO4-B3LYPG-aug-cc-pVDZ-scan-d09-49-n400
 OpenBabel12261916533D

 21 20  0  0  0  0  0  0  0  0999 V2000
    2.5876   -0.6790    0.0953 C   0  0  0  0  0  0  0  0  0  0  0  0
    1.7506   -0.0781    1.0355 C   0  0  0  0  0  0  0  0  0  0  0  0
    0.6568    0.6648    0.5839 C   0  0  0  0  0  0  0  0  0  0  0  0
    0.3833    0.8171   -0.7800 C   0  0  0  0  0  0  0  0  0  0  0  0
    1.2145    0.2087   -1.7154 C   0  0  0  0  0  0  0  0  0  0  0  0
    2.3097   -0.5310   -1.2633 C   0  0  0  0  0  0  0  0  0  0  0  0
    3.4494   -1.2631    0.4075 H   0  0  0  0  0  0  0  0  0  0  0  0
    1.9580   -0.1937    2.0952 H   0  0  0  0  0  0  0  0  0  0  0  0
   -0.4767    1.4078   -1.0894 H   0  0  0  0  0  0  0  0  0  0  0  0
    1.0296    0.3045   -2.7821 H   0  0  0  0  0  0  0  0  0  0  0  0
    3.1952   -1.1742   -2.2497 N   0  0  0  0  0  0  0  0  0  0  0  0
    4.1510   -1.8192   -1.8252 O   0  0  0  0  0  0  0  0  0  0  0  0
    2.9250   -1.0284   -3.4396 O   0  0  0  0  0  0  0  0  0  0  0  0
    2.2187    4.4364    0.0418 N   0  0  0  0  0  0  0  0  0  0  0  0
    3.0095    5.0748   -0.3898 N   0  0  0  0  0  0  0  0  0  0  0  0
    0.0920    1.8118    2.9544 S   0  0  0  0  0  0  0  0  0  0  0  0
    0.1083    0.3990    3.8009 O   0  0  0  0  0  0  0  0  0  0  0  0
   -0.8104    0.1966    4.0502 H   0  0  0  0  0  0  0  0  0  0  0  0
   -0.2853    1.2647    1.4239 O   0  0  0  0  0  0  0  0  0  0  0  0
   -1.0926    2.5809    3.3400 O   0  0  0  0  0  0  0  0  0  0  0  0
    1.4636    2.3151    2.9981 O   0  0  0  0  0  0  0  0  0  0  0  0
  1  7  1  0  0  0  0
  1  2  2  0  0  0  0
  2  8  1  0  0  0  0
  3  2  1  0  0  0  0
  3 19  1  0  0  0  0
  4  3  2  0  0  0  0
  5  6  2  0  0  0  0
  5  4  1  0  0  0  0
  6  1  1  0  0  0  0
  9  4  1  0  0  0  0
 10  5  1  0  0  0  0
 11 12  2  0  0  0  0
 11  6  1  0  0  0  0
 13 11  2  0  0  0  0
 15 14  3  0  0  0  0
 16 21  2  0  0  0  0
 16 20  2  0  0  0  0
 16 17  1  0  0  0  0
 17 18  1  0  0  0  0
 19 16  1  0  0  0  0
M  END
