Coordinates from ORCA-job p-NO2-Ph-N2-HSO4-B3LYPG-aug-cc-pVDZ-scan-d09-49-n400
 OpenBabel12261916533D

 21 20  0  0  0  0  0  0  0  0999 V2000
    2.5416   -0.7759    0.1067 C   0  0  0  0  0  0  0  0  0  0  0  0
    1.6902   -0.1982    1.0479 C   0  0  0  0  0  0  0  0  0  0  0  0
    0.6319    0.5959    0.5991 C   0  0  0  0  0  0  0  0  0  0  0  0
    0.4050    0.8213   -0.7625 C   0  0  0  0  0  0  0  0  0  0  0  0
    1.2495    0.2344   -1.7004 C   0  0  0  0  0  0  0  0  0  0  0  0
    2.3101   -0.5550   -1.2512 C   0  0  0  0  0  0  0  0  0  0  0  0
    3.3774   -1.3985    0.4154 H   0  0  0  0  0  0  0  0  0  0  0  0
    1.8553   -0.3706    2.1078 H   0  0  0  0  0  0  0  0  0  0  0  0
   -0.4297    1.4486   -1.0690 H   0  0  0  0  0  0  0  0  0  0  0  0
    1.1009    0.3845   -2.7666 H   0  0  0  0  0  0  0  0  0  0  0  0
    3.2096   -1.1750   -2.2405 N   0  0  0  0  0  0  0  0  0  0  0  0
    4.1340   -1.8658   -1.8186 O   0  0  0  0  0  0  0  0  0  0  0  0
    2.9804   -0.9666   -3.4296 O   0  0  0  0  0  0  0  0  0  0  0  0
    2.2506    4.6961   -0.0719 N   0  0  0  0  0  0  0  0  0  0  0  0
    3.0025    5.3777   -0.5074 N   0  0  0  0  0  0  0  0  0  0  0  0
    0.0895    1.7904    2.9427 S   0  0  0  0  0  0  0  0  0  0  0  0
    0.1553    0.4165    3.8496 O   0  0  0  0  0  0  0  0  0  0  0  0
   -0.7515    0.2144    4.1396 H   0  0  0  0  0  0  0  0  0  0  0  0
   -0.3197    1.1693    1.4475 O   0  0  0  0  0  0  0  0  0  0  0  0
   -1.0979    2.5541    3.3321 O   0  0  0  0  0  0  0  0  0  0  0  0
    1.4525    2.3179    2.9216 O   0  0  0  0  0  0  0  0  0  0  0  0
  1  7  1  0  0  0  0
  1  2  2  0  0  0  0
  2  8  1  0  0  0  0
  3  2  1  0  0  0  0
  3 19  1  0  0  0  0
  4  3  2  0  0  0  0
  5  6  2  0  0  0  0
  5  4  1  0  0  0  0
  6  1  1  0  0  0  0
  9  4  1  0  0  0  0
 10  5  1  0  0  0  0
 11 12  2  0  0  0  0
 11  6  1  0  0  0  0
 13 11  2  0  0  0  0
 15 14  3  0  0  0  0
 16 20  2  0  0  0  0
 16 17  1  0  0  0  0
 17 18  1  0  0  0  0
 19 16  1  0  0  0  0
 21 16  2  0  0  0  0
M  END
