Coordinates from ORCA-job p-NO2-Ph-N2-HSO4-B3LYPG-aug-cc-pVDZ-scan-d09-49-n400
 OpenBabel12261916533D

 21 20  0  0  0  0  0  0  0  0999 V2000
    2.6516   -0.4123    0.0592 C   0  0  0  0  0  0  0  0  0  0  0  0
    2.2739    0.7438    0.7453 C   0  0  0  0  0  0  0  0  0  0  0  0
    1.6201    1.7096    0.0007 C   0  0  0  0  0  0  0  0  0  0  0  0
    1.2957    1.6334   -1.3512 C   0  0  0  0  0  0  0  0  0  0  0  0
    1.6721    0.4664   -2.0131 C   0  0  0  0  0  0  0  0  0  0  0  0
    2.3452   -0.5260   -1.2966 C   0  0  0  0  0  0  0  0  0  0  0  0
    3.1644   -1.2225    0.5704 H   0  0  0  0  0  0  0  0  0  0  0  0
    2.4407    0.8881    1.8090 H   0  0  0  0  0  0  0  0  0  0  0  0
    0.7641    2.4328   -1.8609 H   0  0  0  0  0  0  0  0  0  0  0  0
    1.4483    0.3198   -3.0665 H   0  0  0  0  0  0  0  0  0  0  0  0
    2.7481   -1.7626   -2.0157 N   0  0  0  0  0  0  0  0  0  0  0  0
    3.3485   -2.6155   -1.3741 O   0  0  0  0  0  0  0  0  0  0  0  0
    2.4551   -1.8417   -3.2034 O   0  0  0  0  0  0  0  0  0  0  0  0
    1.2436    3.0442    0.6743 N   0  0  0  0  0  0  0  0  0  0  0  0
    1.0060    4.1306    0.6200 N   0  0  0  0  0  0  0  0  0  0  0  0
   -0.2027    1.6750    2.9678 S   0  0  0  0  0  0  0  0  0  0  0  0
    0.2578    0.0671    3.2228 O   0  0  0  0  0  0  0  0  0  0  0  0
    0.0266   -0.1201    4.1457 H   0  0  0  0  0  0  0  0  0  0  0  0
   -0.9100    1.6442    1.6515 O   0  0  0  0  0  0  0  0  0  0  0  0
   -0.9586    2.0598    4.1835 O   0  0  0  0  0  0  0  0  0  0  0  0
    1.1471    2.4014    2.8234 O   0  0  0  0  0  0  0  0  0  0  0  0
  1  7  1  0  0  0  0
  1  2  1  0  0  0  0
  2  8  1  0  0  0  0
  3 14  1  0  0  0  0
  3  2  2  0  0  0  0
  4  3  1  0  0  0  0
  5  4  2  0  0  0  0
  5  6  1  0  0  0  0
  6  1  2  0  0  0  0
  9  4  1  0  0  0  0
 10  5  1  0  0  0  0
 11 12  2  0  0  0  0
 11  6  1  0  0  0  0
 13 11  2  0  0  0  0
 15 14  2  0  0  0  0
 16 17  1  0  0  0  0
 16 20  1  0  0  0  0
 17 18  1  0  0  0  0
 19 16  2  0  0  0  0
 21 16  2  0  0  0  0
M  RAD  2  15   2  20   2
M  END
