Coordinates from ORCA-job p-NO2-Ph-N2-HSO4-B3LYPG-aug-cc-pVDZ-scan-d09-49-n400
 OpenBabel12261916533D

 21 20  0  0  0  0  0  0  0  0999 V2000
    2.7093   -0.4083    0.0671 C   0  0  0  0  0  0  0  0  0  0  0  0
    1.9235    0.2658    1.0026 C   0  0  0  0  0  0  0  0  0  0  0  0
    0.7650    0.9122    0.5647 C   0  0  0  0  0  0  0  0  0  0  0  0
    0.3768    0.8894   -0.7803 C   0  0  0  0  0  0  0  0  0  0  0  0
    1.1618    0.2160   -1.7093 C   0  0  0  0  0  0  0  0  0  0  0  0
    2.3234   -0.4256   -1.2723 C   0  0  0  0  0  0  0  0  0  0  0  0
    3.6187   -0.9202    0.3711 H   0  0  0  0  0  0  0  0  0  0  0  0
    2.2278    0.2893    2.0439 H   0  0  0  0  0  0  0  0  0  0  0  0
   -0.5341    1.4037   -1.0802 H   0  0  0  0  0  0  0  0  0  0  0  0
    0.8877    0.1817   -2.7605 H   0  0  0  0  0  0  0  0  0  0  0  0
    3.1580   -1.1422   -2.2509 N   0  0  0  0  0  0  0  0  0  0  0  0
    4.1729   -1.6990   -1.8385 O   0  0  0  0  0  0  0  0  0  0  0  0
    2.7906   -1.1406   -3.4238 O   0  0  0  0  0  0  0  0  0  0  0  0
    2.0171    3.5125    0.2333 N   0  0  0  0  0  0  0  0  0  0  0  0
    2.8891    3.9663   -0.2697 N   0  0  0  0  0  0  0  0  0  0  0  0
    0.1025    1.8573    3.0122 S   0  0  0  0  0  0  0  0  0  0  0  0
   -0.0372    0.3289    3.6050 O   0  0  0  0  0  0  0  0  0  0  0  0
   -0.9861    0.1415    3.7138 H   0  0  0  0  0  0  0  0  0  0  0  0
   -0.1352    1.5920    1.3853 O   0  0  0  0  0  0  0  0  0  0  0  0
   -1.0760    2.6353    3.3960 O   0  0  0  0  0  0  0  0  0  0  0  0
    1.4819    2.2594    3.2828 O   0  0  0  0  0  0  0  0  0  0  0  0
  1  7  1  0  0  0  0
  1  2  2  0  0  0  0
  2  8  1  0  0  0  0
  3  2  1  0  0  0  0
  3 19  1  0  0  0  0
  4  3  2  0  0  0  0
  5  6  2  0  0  0  0
  5  4  1  0  0  0  0
  6  1  1  0  0  0  0
  9  4  1  0  0  0  0
 10  5  1  0  0  0  0
 11 12  2  0  0  0  0
 11  6  1  0  0  0  0
 13 11  2  0  0  0  0
 15 14  3  0  0  0  0
 16 21  2  0  0  0  0
 16 20  2  0  0  0  0
 16 17  1  0  0  0  0
 17 18  1  0  0  0  0
 19 16  1  0  0  0  0
M  END
