Coordinates from ORCA-job p-NO2-Ph-N2-HSO4-B3LYPG-aug-cc-pVDZ-scan-d09-49-n400
 OpenBabel12261916533D

 21 20  0  0  0  0  0  0  0  0999 V2000
    2.6707   -0.4984    0.0744 C   0  0  0  0  0  0  0  0  0  0  0  0
    1.8705    0.1572    1.0109 C   0  0  0  0  0  0  0  0  0  0  0  0
    0.7272    0.8258    0.5655 C   0  0  0  0  0  0  0  0  0  0  0  0
    0.3719    0.8509   -0.7887 C   0  0  0  0  0  0  0  0  0  0  0  0
    1.1702    0.1934   -1.7182 C   0  0  0  0  0  0  0  0  0  0  0  0
    2.3137   -0.4743   -1.2730 C   0  0  0  0  0  0  0  0  0  0  0  0
    3.5680   -1.0282    0.3835 H   0  0  0  0  0  0  0  0  0  0  0  0
    2.1499    0.1447    2.0595 H   0  0  0  0  0  0  0  0  0  0  0  0
   -0.5255    1.3850   -1.0949 H   0  0  0  0  0  0  0  0  0  0  0  0
    0.9210    0.1932   -2.7761 H   0  0  0  0  0  0  0  0  0  0  0  0
    3.1629   -1.1725   -2.2528 N   0  0  0  0  0  0  0  0  0  0  0  0
    4.1654   -1.7470   -1.8345 O   0  0  0  0  0  0  0  0  0  0  0  0
    2.8256   -1.1288   -3.4338 O   0  0  0  0  0  0  0  0  0  0  0  0
    2.0959    3.8782    0.1905 N   0  0  0  0  0  0  0  0  0  0  0  0
    2.9536    4.4116   -0.2560 N   0  0  0  0  0  0  0  0  0  0  0  0
    0.1020    1.8425    2.9923 S   0  0  0  0  0  0  0  0  0  0  0  0
    0.0070    0.3442    3.6665 O   0  0  0  0  0  0  0  0  0  0  0  0
   -0.9345    0.1493    3.8178 H   0  0  0  0  0  0  0  0  0  0  0  0
   -0.1833    1.4912    1.3887 O   0  0  0  0  0  0  0  0  0  0  0  0
   -1.0775    2.6190    3.3767 O   0  0  0  0  0  0  0  0  0  0  0  0
    1.4828    2.2782    3.1939 O   0  0  0  0  0  0  0  0  0  0  0  0
  1  7  1  0  0  0  0
  1  2  2  0  0  0  0
  2  8  1  0  0  0  0
  3  2  1  0  0  0  0
  3 19  1  0  0  0  0
  4  3  2  0  0  0  0
  5  6  2  0  0  0  0
  5  4  1  0  0  0  0
  6  1  1  0  0  0  0
  9  4  1  0  0  0  0
 10  5  1  0  0  0  0
 11 12  2  0  0  0  0
 11  6  1  0  0  0  0
 13 11  2  0  0  0  0
 15 14  3  0  0  0  0
 16 21  2  0  0  0  0
 16 20  2  0  0  0  0
 16 17  1  0  0  0  0
 17 18  1  0  0  0  0
 19 16  1  0  0  0  0
M  END
