Coordinates from ORCA-job p-NO2-Ph-N2-HSO4-B3LYPG-aug-cc-pVDZ-scan-d09-49-n400
 OpenBabel12261916533D

 21 21  0  0  1  0  0  0  0  0999 V2000
    2.1417   -0.0513    0.3290 C   0  0  0  0  0  0  0  0  0  0  0  0
    1.7100    1.2904    0.8211 C   0  0  1  0  0  0  0  0  0  0  0  0
    1.5538    2.3517   -0.2992 C   0  0  0  0  0  0  0  0  0  0  0  0
    1.3721    1.8377   -1.6812 C   0  0  0  0  0  0  0  0  0  0  0  0
    1.5988    0.5481   -2.0029 C   0  0  0  0  0  0  0  0  0  0  0  0
    2.0407   -0.3701   -0.9738 C   0  0  0  0  0  0  0  0  0  0  0  0
    2.4951   -0.7794    1.0551 H   0  0  0  0  0  0  0  0  0  0  0  0
    2.3806    1.6857    1.5928 H   0  0  0  0  0  0  0  0  0  0  0  0
    1.0620    2.5705   -2.4260 H   0  0  0  0  0  0  0  0  0  0  0  0
    1.4797    0.1848   -3.0193 H   0  0  0  0  0  0  0  0  0  0  0  0
    2.4173   -1.7463   -1.3927 N   0  0  0  0  0  0  0  0  0  0  0  0
    2.8205   -2.5220   -0.5336 O   0  0  0  0  0  0  0  0  0  0  0  0
    2.3119   -2.0112   -2.5863 O   0  0  0  0  0  0  0  0  0  0  0  0
    1.5466    3.3239   -0.0642 N   0  0  0  0  0  0  0  0  0  0  0  0
    1.5386    4.4560    0.2169 N   0  0  0  0  0  0  0  0  0  0  0  0
    0.2604    1.0971    3.0872 S   0  0  0  0  0  0  0  0  0  0  0  0
    0.6876   -0.4677    3.3848 O   0  0  0  0  0  0  0  0  0  0  0  0
   -0.1124   -1.0133    3.2888 H   0  0  0  0  0  0  0  0  0  0  0  0
    0.3641    1.1629    1.4361 O   0  0  0  0  0  0  0  0  0  0  0  0
   -1.1653    1.2650    3.3815 O   0  0  0  0  0  0  0  0  0  0  0  0
    1.3338    1.9029    3.6780 O   0  0  0  0  0  0  0  0  0  0  0  0
  1  2  1  0  0  0  0
  1  7  1  0  0  0  0
  2 19  1  0  0  0  0
  2  8  1  1  0  0  0
  3 14  1  0  0  0  0
  3  2  1  0  0  0  0
  4  3  2  0  0  0  0
  5  4  1  0  0  0  0
  5  6  1  0  0  0  0
  6  1  2  0  0  0  0
  9  4  1  0  0  0  0
 10  5  1  0  0  0  0
 11  6  1  0  0  0  0
 11 12  2  0  0  0  0
 13 11  2  0  0  0  0
 14 15  1  0  0  0  0
 16 20  2  0  0  0  0
 16 17  1  0  0  0  0
 16 21  2  0  0  0  0
 18 17  1  0  0  0  0
 19 16  1  0  0  0  0
M  RAD  3   5   2  14   2  15   3
M  END
