Coordinates from ORCA-job p-NO2-Ph-N2-HSO4-B3LYPG-aug-cc-pVDZ-scan-d09-49-n400
 OpenBabel12261916533D

 21 20  0  0  0  0  0  0  0  0999 V2000
    2.5677   -0.7210    0.1002 C   0  0  0  0  0  0  0  0  0  0  0  0
    1.7232   -0.1325    1.0416 C   0  0  0  0  0  0  0  0  0  0  0  0
    0.6418    0.6277    0.5917 C   0  0  0  0  0  0  0  0  0  0  0  0
    0.3874    0.8124   -0.7720 C   0  0  0  0  0  0  0  0  0  0  0  0
    1.2255    0.2160   -1.7089 C   0  0  0  0  0  0  0  0  0  0  0  0
    2.3083   -0.5425   -1.2582 C   0  0  0  0  0  0  0  0  0  0  0  0
    3.4207   -1.3187    0.4110 H   0  0  0  0  0  0  0  0  0  0  0  0
    1.9142   -0.2716    2.1017 H   0  0  0  0  0  0  0  0  0  0  0  0
   -0.4627    1.4179   -1.0797 H   0  0  0  0  0  0  0  0  0  0  0  0
    1.0555    0.3355   -2.7757 H   0  0  0  0  0  0  0  0  0  0  0  0
    3.2010   -1.1732   -2.2466 N   0  0  0  0  0  0  0  0  0  0  0  0
    4.1489   -1.8305   -1.8234 O   0  0  0  0  0  0  0  0  0  0  0  0
    2.9505   -0.9961   -3.4365 O   0  0  0  0  0  0  0  0  0  0  0  0
    2.2472    4.5587   -0.0091 N   0  0  0  0  0  0  0  0  0  0  0  0
    3.0221    5.2161   -0.4414 N   0  0  0  0  0  0  0  0  0  0  0  0
    0.0889    1.8016    2.9481 S   0  0  0  0  0  0  0  0  0  0  0  0
    0.1275    0.4080    3.8255 O   0  0  0  0  0  0  0  0  0  0  0  0
   -0.7859    0.2061    4.0940 H   0  0  0  0  0  0  0  0  0  0  0  0
   -0.3047    1.2156    1.4353 O   0  0  0  0  0  0  0  0  0  0  0  0
   -1.0965    2.5696    3.3341 O   0  0  0  0  0  0  0  0  0  0  0  0
    1.4569    2.3163    2.9606 O   0  0  0  0  0  0  0  0  0  0  0  0
  1  7  1  0  0  0  0
  1  2  2  0  0  0  0
  2  8  1  0  0  0  0
  3  2  1  0  0  0  0
  3 19  1  0  0  0  0
  4  3  2  0  0  0  0
  5  6  2  0  0  0  0
  5  4  1  0  0  0  0
  6  1  1  0  0  0  0
  9  4  1  0  0  0  0
 10  5  1  0  0  0  0
 11 12  2  0  0  0  0
 11  6  1  0  0  0  0
 13 11  2  0  0  0  0
 15 14  3  0  0  0  0
 16 21  2  0  0  0  0
 16 20  2  0  0  0  0
 16 17  1  0  0  0  0
 17 18  1  0  0  0  0
 19 16  1  0  0  0  0
M  END
