Coordinates from ORCA-job p-NO2-Ph-N2-HSO4-B3LYPG-aug-cc-pVDZ-scan-d09-49-n400
 OpenBabel12261916533D

 21 20  0  0  0  0  0  0  0  0999 V2000
    2.4908   -0.8779    0.1158 C   0  0  0  0  0  0  0  0  0  0  0  0
    1.6276   -0.3193    1.0573 C   0  0  0  0  0  0  0  0  0  0  0  0
    0.6152    0.5375    0.6180 C   0  0  0  0  0  0  0  0  0  0  0  0
    0.4438    0.8440   -0.7345 C   0  0  0  0  0  0  0  0  0  0  0  0
    1.2988    0.2758   -1.6755 C   0  0  0  0  0  0  0  0  0  0  0  0
    2.3137   -0.5756   -1.2349 C   0  0  0  0  0  0  0  0  0  0  0  0
    3.2924   -1.5474    0.4166 H   0  0  0  0  0  0  0  0  0  0  0  0
    1.7450   -0.5528    2.1123 H   0  0  0  0  0  0  0  0  0  0  0  0
   -0.3567    1.5177   -1.0337 H   0  0  0  0  0  0  0  0  0  0  0  0
    1.1940    0.4883   -2.7363 H   0  0  0  0  0  0  0  0  0  0  0  0
    3.2244   -1.1758   -2.2272 N   0  0  0  0  0  0  0  0  0  0  0  0
    4.1082   -1.9221   -1.8135 O   0  0  0  0  0  0  0  0  0  0  0  0
    3.0447   -0.8948   -3.4097 O   0  0  0  0  0  0  0  0  0  0  0  0
    2.2503    4.9383   -0.2238 N   0  0  0  0  0  0  0  0  0  0  0  0
    2.9571    5.6594   -0.6709 N   0  0  0  0  0  0  0  0  0  0  0  0
    0.0924    1.7607    2.9409 S   0  0  0  0  0  0  0  0  0  0  0  0
    0.1877    0.4210    3.8957 O   0  0  0  0  0  0  0  0  0  0  0  0
   -0.7099    0.2303    4.2200 H   0  0  0  0  0  0  0  0  0  0  0  0
   -0.3440    1.0855    1.4764 O   0  0  0  0  0  0  0  0  0  0  0  0
   -1.0901    2.5308    3.3337 O   0  0  0  0  0  0  0  0  0  0  0  0
    1.4521    2.2917    2.8654 O   0  0  0  0  0  0  0  0  0  0  0  0
  1  7  1  0  0  0  0
  1  2  2  0  0  0  0
  2  8  1  0  0  0  0
  3  2  1  0  0  0  0
  3 19  1  0  0  0  0
  4  3  2  0  0  0  0
  5  6  2  0  0  0  0
  5  4  1  0  0  0  0
  6  1  1  0  0  0  0
  9  4  1  0  0  0  0
 10  5  1  0  0  0  0
 11 12  2  0  0  0  0
 11  6  1  0  0  0  0
 13 11  2  0  0  0  0
 15 14  3  0  0  0  0
 16 20  2  0  0  0  0
 16 17  1  0  0  0  0
 17 18  1  0  0  0  0
 19 16  1  0  0  0  0
 21 16  2  0  0  0  0
M  END
