Coordinates from ORCA-job p-NO2-Ph-N2-HSO4-B3LYPG-aug-cc-pVDZ-scan-d09-49-n400
 OpenBabel12261916533D

 21 20  0  0  0  0  0  0  0  0999 V2000
    2.7110   -0.4048    0.0666 C   0  0  0  0  0  0  0  0  0  0  0  0
    1.9252    0.2692    1.0022 C   0  0  0  0  0  0  0  0  0  0  0  0
    0.7668    0.9154    0.5647 C   0  0  0  0  0  0  0  0  0  0  0  0
    0.3779    0.8919   -0.7802 C   0  0  0  0  0  0  0  0  0  0  0  0
    1.1628    0.2185   -1.7093 C   0  0  0  0  0  0  0  0  0  0  0  0
    2.3248   -0.4225   -1.2726 C   0  0  0  0  0  0  0  0  0  0  0  0
    3.6207   -0.9164    0.3705 H   0  0  0  0  0  0  0  0  0  0  0  0
    2.2300    0.2934    2.0434 H   0  0  0  0  0  0  0  0  0  0  0  0
   -0.5333    1.4057   -1.0798 H   0  0  0  0  0  0  0  0  0  0  0  0
    0.8882    0.1838   -2.7604 H   0  0  0  0  0  0  0  0  0  0  0  0
    3.1594   -1.1390   -2.2514 N   0  0  0  0  0  0  0  0  0  0  0  0
    4.1721   -1.6994   -1.8384 O   0  0  0  0  0  0  0  0  0  0  0  0
    2.7890   -1.1419   -3.4233 O   0  0  0  0  0  0  0  0  0  0  0  0
    2.0123    3.4967    0.2350 N   0  0  0  0  0  0  0  0  0  0  0  0
    2.8835    3.9471   -0.2725 N   0  0  0  0  0  0  0  0  0  0  0  0
    0.1022    1.8575    3.0132 S   0  0  0  0  0  0  0  0  0  0  0  0
   -0.0392    0.3289    3.6048 O   0  0  0  0  0  0  0  0  0  0  0  0
   -0.9883    0.1423    3.7131 H   0  0  0  0  0  0  0  0  0  0  0  0
   -0.1336    1.5943    1.3853 O   0  0  0  0  0  0  0  0  0  0  0  0
   -1.0758    2.6363    3.3966 O   0  0  0  0  0  0  0  0  0  0  0  0
    1.4819    2.2584    3.2849 O   0  0  0  0  0  0  0  0  0  0  0  0
  1  7  1  0  0  0  0
  1  2  2  0  0  0  0
  2  8  1  0  0  0  0
  3  2  1  0  0  0  0
  3 19  1  0  0  0  0
  4  3  2  0  0  0  0
  5  6  2  0  0  0  0
  5  4  1  0  0  0  0
  6  1  1  0  0  0  0
  9  4  1  0  0  0  0
 10  5  1  0  0  0  0
 11 12  2  0  0  0  0
 11  6  1  0  0  0  0
 13 11  2  0  0  0  0
 15 14  3  0  0  0  0
 16 21  2  0  0  0  0
 16 20  2  0  0  0  0
 16 17  1  0  0  0  0
 17 18  1  0  0  0  0
 19 16  1  0  0  0  0
M  END
