Coordinates from ORCA-job p-NO2-Ph-N2-HSO4-B3LYPG-aug-cc-pVDZ-scan-d09-49-n400
 OpenBabel12261916533D

 21 20  0  0  0  0  0  0  0  0999 V2000
    2.7283   -0.3469    0.0621 C   0  0  0  0  0  0  0  0  0  0  0  0
    1.9603    0.3480    0.9882 C   0  0  0  0  0  0  0  0  0  0  0  0
    0.8835    1.1379    0.5312 C   0  0  0  0  0  0  0  0  0  0  0  0
    0.4275    0.9957   -0.7995 C   0  0  0  0  0  0  0  0  0  0  0  0
    1.1934    0.2989   -1.7192 C   0  0  0  0  0  0  0  0  0  0  0  0
    2.3617   -0.3389   -1.2860 C   0  0  0  0  0  0  0  0  0  0  0  0
    3.6006   -0.9143    0.3765 H   0  0  0  0  0  0  0  0  0  0  0  0
    2.2427    0.3455    2.0362 H   0  0  0  0  0  0  0  0  0  0  0  0
   -0.4926    1.4962   -1.0947 H   0  0  0  0  0  0  0  0  0  0  0  0
    0.8926    0.2229   -2.7609 H   0  0  0  0  0  0  0  0  0  0  0  0
    3.1781   -1.0777   -2.2575 N   0  0  0  0  0  0  0  0  0  0  0  0
    4.1820   -1.6535   -1.8419 O   0  0  0  0  0  0  0  0  0  0  0  0
    2.8104   -1.0762   -3.4312 O   0  0  0  0  0  0  0  0  0  0  0  0
    1.7699    2.8592    0.3738 N   0  0  0  0  0  0  0  0  0  0  0  0
    2.6226    3.2441   -0.2249 N   0  0  0  0  0  0  0  0  0  0  0  0
    0.1081    1.9270    3.0025 S   0  0  0  0  0  0  0  0  0  0  0  0
    0.0266    0.3983    3.6013 O   0  0  0  0  0  0  0  0  0  0  0  0
   -0.9142    0.1692    3.6997 H   0  0  0  0  0  0  0  0  0  0  0  0
   -0.1168    1.6451    1.3764 O   0  0  0  0  0  0  0  0  0  0  0  0
   -1.1006    2.6569    3.3873 O   0  0  0  0  0  0  0  0  0  0  0  0
    1.4736    2.3779    3.2728 O   0  0  0  0  0  0  0  0  0  0  0  0
  1  7  1  0  0  0  0
  1  2  2  0  0  0  0
  2  8  1  0  0  0  0
  3  2  1  0  0  0  0
  3 19  1  0  0  0  0
  4  3  2  0  0  0  0
  5  6  2  0  0  0  0
  5  4  1  0  0  0  0
  6  1  1  0  0  0  0
  9  4  1  0  0  0  0
 10  5  1  0  0  0  0
 11 12  2  0  0  0  0
 11  6  1  0  0  0  0
 13 11  2  0  0  0  0
 15 14  3  0  0  0  0
 16 21  2  0  0  0  0
 16 20  2  0  0  0  0
 16 17  1  0  0  0  0
 17 18  1  0  0  0  0
 19 16  1  0  0  0  0
M  END
