Coordinates from ORCA-job p-NO2-Ph-N2-HSO4-B3LYPG-aug-cc-pVDZ-scan-d09-49-n400
 OpenBabel12261916533D

 21 20  0  0  0  0  0  0  0  0999 V2000
    2.5516   -0.7551    0.1045 C   0  0  0  0  0  0  0  0  0  0  0  0
    1.7025   -0.1737    1.0457 C   0  0  0  0  0  0  0  0  0  0  0  0
    0.6354    0.6081    0.5960 C   0  0  0  0  0  0  0  0  0  0  0  0
    0.3978    0.8174   -0.7665 C   0  0  0  0  0  0  0  0  0  0  0  0
    1.2402    0.2271   -1.7040 C   0  0  0  0  0  0  0  0  0  0  0  0
    2.3096   -0.5500   -1.2539 C   0  0  0  0  0  0  0  0  0  0  0  0
    3.3938   -1.3684    0.4142 H   0  0  0  0  0  0  0  0  0  0  0  0
    1.8768   -0.3341    2.1059 H   0  0  0  0  0  0  0  0  0  0  0  0
   -0.4436    1.4353   -1.0738 H   0  0  0  0  0  0  0  0  0  0  0  0
    1.0832    0.3650   -2.7706 H   0  0  0  0  0  0  0  0  0  0  0  0
    3.2069   -1.1736   -2.2428 N   0  0  0  0  0  0  0  0  0  0  0  0
    4.1391   -1.8533   -1.8201 O   0  0  0  0  0  0  0  0  0  0  0  0
    2.9683   -0.9791   -3.4324 O   0  0  0  0  0  0  0  0  0  0  0  0
    2.2520    4.6480   -0.0480 N   0  0  0  0  0  0  0  0  0  0  0  0
    3.0126    5.3209   -0.4818 N   0  0  0  0  0  0  0  0  0  0  0  0
    0.0886    1.7943    2.9445 S   0  0  0  0  0  0  0  0  0  0  0  0
    0.1460    0.4133    3.8410 O   0  0  0  0  0  0  0  0  0  0  0  0
   -0.7631    0.2104    4.1233 H   0  0  0  0  0  0  0  0  0  0  0  0
   -0.3148    1.1858    1.4428 O   0  0  0  0  0  0  0  0  0  0  0  0
   -1.0986    2.5586    3.3329 O   0  0  0  0  0  0  0  0  0  0  0  0
    1.4532    2.3183    2.9351 O   0  0  0  0  0  0  0  0  0  0  0  0
  1  7  1  0  0  0  0
  1  2  2  0  0  0  0
  2  8  1  0  0  0  0
  3  2  1  0  0  0  0
  3 19  1  0  0  0  0
  4  3  2  0  0  0  0
  5  6  2  0  0  0  0
  5  4  1  0  0  0  0
  6  1  1  0  0  0  0
  9  4  1  0  0  0  0
 10  5  1  0  0  0  0
 11 12  2  0  0  0  0
 11  6  1  0  0  0  0
 13 11  2  0  0  0  0
 15 14  3  0  0  0  0
 16 20  2  0  0  0  0
 16 17  1  0  0  0  0
 17 18  1  0  0  0  0
 19 16  1  0  0  0  0
 21 16  2  0  0  0  0
M  END
