Coordinates from ORCA-job p-NO2-Ph-N2-HSO4-B3LYPG-aug-cc-pVDZ-scan-d09-49-n400
 OpenBabel12261916533D

 21 20  0  0  0  0  0  0  0  0999 V2000
    2.6019   -0.6473    0.0913 C   0  0  0  0  0  0  0  0  0  0  0  0
    1.7711   -0.0366    1.0310 C   0  0  0  0  0  0  0  0  0  0  0  0
    0.6673    0.6901    0.5794 C   0  0  0  0  0  0  0  0  0  0  0  0
    0.3788    0.8194   -0.7842 C   0  0  0  0  0  0  0  0  0  0  0  0
    1.2045    0.2021   -1.7181 C   0  0  0  0  0  0  0  0  0  0  0  0
    2.3092   -0.5235   -1.2663 C   0  0  0  0  0  0  0  0  0  0  0  0
    3.4711   -1.2202    0.4040 H   0  0  0  0  0  0  0  0  0  0  0  0
    1.9928   -0.1323    2.0896 H   0  0  0  0  0  0  0  0  0  0  0  0
   -0.4879    1.4000   -1.0937 H   0  0  0  0  0  0  0  0  0  0  0  0
    1.0075    0.2798   -2.7841 H   0  0  0  0  0  0  0  0  0  0  0  0
    3.1885   -1.1767   -2.2514 N   0  0  0  0  0  0  0  0  0  0  0  0
    4.1561   -1.8039   -1.8271 O   0  0  0  0  0  0  0  0  0  0  0  0
    2.9084   -1.0465   -3.4409 O   0  0  0  0  0  0  0  0  0  0  0  0
    2.1971    4.3385    0.0791 N   0  0  0  0  0  0  0  0  0  0  0  0
    3.0010    4.9604   -0.3527 N   0  0  0  0  0  0  0  0  0  0  0  0
    0.0955    1.8207    2.9591 S   0  0  0  0  0  0  0  0  0  0  0  0
    0.0925    0.3916    3.7775 O   0  0  0  0  0  0  0  0  0  0  0  0
   -0.8306    0.1894    4.0104 H   0  0  0  0  0  0  0  0  0  0  0  0
   -0.2687    1.3045    1.4151 O   0  0  0  0  0  0  0  0  0  0  0  0
   -1.0881    2.5911    3.3446 O   0  0  0  0  0  0  0  0  0  0  0  0
    1.4695    2.3146    3.0297 O   0  0  0  0  0  0  0  0  0  0  0  0
  1  7  1  0  0  0  0
  1  2  2  0  0  0  0
  2  8  1  0  0  0  0
  3  2  1  0  0  0  0
  3 19  1  0  0  0  0
  4  3  2  0  0  0  0
  5  6  2  0  0  0  0
  5  4  1  0  0  0  0
  6  1  1  0  0  0  0
  9  4  1  0  0  0  0
 10  5  1  0  0  0  0
 11 12  2  0  0  0  0
 11  6  1  0  0  0  0
 13 11  2  0  0  0  0
 15 14  3  0  0  0  0
 16 21  2  0  0  0  0
 16 20  2  0  0  0  0
 16 17  1  0  0  0  0
 17 18  1  0  0  0  0
 19 16  1  0  0  0  0
M  END
