Coordinates from ORCA-job p-NO2-Ph-N2-HSO4-B3LYPG-aug-cc-pVDZ-scan-d09-49-n400
 OpenBabel12261916533D

 21 20  0  0  0  0  0  0  0  0999 V2000
    2.7047   -0.4202    0.0672 C   0  0  0  0  0  0  0  0  0  0  0  0
    1.9170    0.2517    1.0028 C   0  0  0  0  0  0  0  0  0  0  0  0
    0.7586    0.8973    0.5643 C   0  0  0  0  0  0  0  0  0  0  0  0
    0.3743    0.8803   -0.7819 C   0  0  0  0  0  0  0  0  0  0  0  0
    1.1612    0.2088   -1.7109 C   0  0  0  0  0  0  0  0  0  0  0  0
    2.3213   -0.4345   -1.2729 C   0  0  0  0  0  0  0  0  0  0  0  0
    3.6138   -0.9324    0.3718 H   0  0  0  0  0  0  0  0  0  0  0  0
    2.2193    0.2729    2.0448 H   0  0  0  0  0  0  0  0  0  0  0  0
   -0.5354    1.3962   -1.0825 H   0  0  0  0  0  0  0  0  0  0  0  0
    0.8897    0.1779   -2.7629 H   0  0  0  0  0  0  0  0  0  0  0  0
    3.1580   -1.1488   -2.2515 N   0  0  0  0  0  0  0  0  0  0  0  0
    4.1682   -1.7127   -1.8372 O   0  0  0  0  0  0  0  0  0  0  0  0
    2.7894   -1.1500   -3.4240 O   0  0  0  0  0  0  0  0  0  0  0  0
    2.0358    3.5855    0.2266 N   0  0  0  0  0  0  0  0  0  0  0  0
    2.9105    4.0562   -0.2557 N   0  0  0  0  0  0  0  0  0  0  0  0
    0.1013    1.8532    3.0089 S   0  0  0  0  0  0  0  0  0  0  0  0
   -0.0312    0.3276    3.6108 O   0  0  0  0  0  0  0  0  0  0  0  0
   -0.9791    0.1381    3.7248 H   0  0  0  0  0  0  0  0  0  0  0  0
   -0.1421    1.5776    1.3847 O   0  0  0  0  0  0  0  0  0  0  0  0
   -1.0782    2.6295    3.3932 O   0  0  0  0  0  0  0  0  0  0  0  0
    1.4805    2.2612    3.2715 O   0  0  0  0  0  0  0  0  0  0  0  0
  1  7  1  0  0  0  0
  1  2  2  0  0  0  0
  2  8  1  0  0  0  0
  3  2  1  0  0  0  0
  3 19  1  0  0  0  0
  4  3  2  0  0  0  0
  5  6  2  0  0  0  0
  5  4  1  0  0  0  0
  6  1  1  0  0  0  0
  9  4  1  0  0  0  0
 10  5  1  0  0  0  0
 11 12  2  0  0  0  0
 11  6  1  0  0  0  0
 13 11  2  0  0  0  0
 15 14  3  0  0  0  0
 16 21  2  0  0  0  0
 16 20  2  0  0  0  0
 16 17  1  0  0  0  0
 17 18  1  0  0  0  0
 19 16  1  0  0  0  0
M  END
