Coordinates from ORCA-job p-NO2-Ph-N2-HSO4-B3LYPG-aug-cc-pVDZ-scan-d09-49-n400
 OpenBabel12261916533D

 21 20  0  0  0  0  0  0  0  0999 V2000
    2.6424   -0.4146    0.0586 C   0  0  0  0  0  0  0  0  0  0  0  0
    2.2615    0.7395    0.7450 C   0  0  0  0  0  0  0  0  0  0  0  0
    1.6138    1.7156    0.0042 C   0  0  0  0  0  0  0  0  0  0  0  0
    1.3016    1.6372   -1.3535 C   0  0  0  0  0  0  0  0  0  0  0  0
    1.6794    0.4727   -2.0170 C   0  0  0  0  0  0  0  0  0  0  0  0
    2.3455   -0.5236   -1.2995 C   0  0  0  0  0  0  0  0  0  0  0  0
    3.1499   -1.2274    0.5710 H   0  0  0  0  0  0  0  0  0  0  0  0
    2.4240    0.8786    1.8100 H   0  0  0  0  0  0  0  0  0  0  0  0
    0.7759    2.4390   -1.8659 H   0  0  0  0  0  0  0  0  0  0  0  0
    1.4627    0.3303   -3.0724 H   0  0  0  0  0  0  0  0  0  0  0  0
    2.7512   -1.7586   -2.0202 N   0  0  0  0  0  0  0  0  0  0  0  0
    3.3455   -2.6148   -1.3773 O   0  0  0  0  0  0  0  0  0  0  0  0
    2.4660   -1.8331   -3.2100 O   0  0  0  0  0  0  0  0  0  0  0  0
    1.2424    3.0249    0.6620 N   0  0  0  0  0  0  0  0  0  0  0  0
    1.0011    4.1113    0.6073 N   0  0  0  0  0  0  0  0  0  0  0  0
   -0.2029    1.6741    2.9728 S   0  0  0  0  0  0  0  0  0  0  0  0
    0.2600    0.0695    3.2429 O   0  0  0  0  0  0  0  0  0  0  0  0
    0.0397   -0.1060    4.1707 H   0  0  0  0  0  0  0  0  0  0  0  0
   -0.9155    1.6285    1.6602 O   0  0  0  0  0  0  0  0  0  0  0  0
   -0.9527    2.0719    4.1880 O   0  0  0  0  0  0  0  0  0  0  0  0
    1.1460    2.4006    2.8151 O   0  0  0  0  0  0  0  0  0  0  0  0
  1  7  1  0  0  0  0
  1  2  1  0  0  0  0
  2  8  1  0  0  0  0
  3 14  1  0  0  0  0
  3  2  2  0  0  0  0
  4  3  1  0  0  0  0
  5  4  2  0  0  0  0
  5  6  1  0  0  0  0
  6  1  2  0  0  0  0
  9  4  1  0  0  0  0
 10  5  1  0  0  0  0
 11 12  2  0  0  0  0
 11  6  1  0  0  0  0
 13 11  2  0  0  0  0
 15 14  2  0  0  0  0
 16 17  1  0  0  0  0
 16 20  1  0  0  0  0
 17 18  1  0  0  0  0
 19 16  2  0  0  0  0
 21 16  2  0  0  0  0
M  RAD  2  15   2  20   2
M  END
