Coordinates from ORCA-job p-NO2-Ph-N2-HSO4-B3LYPG-aug-cc-pVDZ-scan-d09-49-n400
 OpenBabel12261916533D

 21 20  0  0  0  0  0  0  0  0999 V2000
    2.7179   -0.3860    0.0664 C   0  0  0  0  0  0  0  0  0  0  0  0
    1.9348    0.2913    1.0016 C   0  0  0  0  0  0  0  0  0  0  0  0
    0.7796    0.9440    0.5638 C   0  0  0  0  0  0  0  0  0  0  0  0
    0.3845    0.9103   -0.7793 C   0  0  0  0  0  0  0  0  0  0  0  0
    1.1667    0.2339   -1.7081 C   0  0  0  0  0  0  0  0  0  0  0  0
    2.3301   -0.4055   -1.2725 C   0  0  0  0  0  0  0  0  0  0  0  0
    3.6263   -0.8999    0.3703 H   0  0  0  0  0  0  0  0  0  0  0  0
    2.2411    0.3144    2.0424 H   0  0  0  0  0  0  0  0  0  0  0  0
   -0.5282    1.4221   -1.0781 H   0  0  0  0  0  0  0  0  0  0  0  0
    0.8884    0.1941   -2.7580 H   0  0  0  0  0  0  0  0  0  0  0  0
    3.1618   -1.1255   -2.2509 N   0  0  0  0  0  0  0  0  0  0  0  0
    4.1772   -1.6819   -1.8393 O   0  0  0  0  0  0  0  0  0  0  0  0
    2.7909   -1.1282   -3.4227 O   0  0  0  0  0  0  0  0  0  0  0  0
    1.9727    3.3626    0.2541 N   0  0  0  0  0  0  0  0  0  0  0  0
    2.8332    3.7911   -0.2898 N   0  0  0  0  0  0  0  0  0  0  0  0
    0.1057    1.8676    3.0165 S   0  0  0  0  0  0  0  0  0  0  0  0
   -0.0423    0.3350    3.5955 O   0  0  0  0  0  0  0  0  0  0  0  0
   -0.9924    0.1493    3.6963 H   0  0  0  0  0  0  0  0  0  0  0  0
   -0.1229    1.6173    1.3854 O   0  0  0  0  0  0  0  0  0  0  0  0
   -1.0724    2.6464    3.3996 O   0  0  0  0  0  0  0  0  0  0  0  0
    1.4849    2.2630    3.2988 O   0  0  0  0  0  0  0  0  0  0  0  0
  1  7  1  0  0  0  0
  1  2  2  0  0  0  0
  2  8  1  0  0  0  0
  3  2  1  0  0  0  0
  3 19  1  0  0  0  0
  4  3  2  0  0  0  0
  5  6  2  0  0  0  0
  5  4  1  0  0  0  0
  6  1  1  0  0  0  0
  9  4  1  0  0  0  0
 10  5  1  0  0  0  0
 11 12  2  0  0  0  0
 11  6  1  0  0  0  0
 13 11  2  0  0  0  0
 15 14  3  0  0  0  0
 16 21  2  0  0  0  0
 16 20  2  0  0  0  0
 16 17  1  0  0  0  0
 17 18  1  0  0  0  0
 19 16  1  0  0  0  0
M  END
