Coordinates from ORCA-job p-NO2-Ph-N2-HSO4-B3LYPG-aug-cc-pVDZ-scan-d09-49-n400
 OpenBabel12261916533D

 21 21  0  0  1  0  0  0  0  0999 V2000
    2.7272   -0.3481    0.0622 C   0  0  0  0  0  0  0  0  0  0  0  0
    1.9621    0.3498    0.9869 C   0  0  0  0  0  0  0  0  0  0  0  0
    0.8953    1.1576    0.5279 C   0  0  2  0  0  0  0  0  0  0  0  0
    0.4323    1.0023   -0.8021 C   0  0  0  0  0  0  0  0  0  0  0  0
    1.1955    0.3022   -1.7202 C   0  0  0  0  0  0  0  0  0  0  0  0
    2.3640   -0.3365   -1.2874 C   0  0  2  0  0  0  0  0  0  0  0  0
    3.5942   -0.9228    0.3782 H   0  0  0  0  0  0  0  0  0  0  0  0
    2.2418    0.3432    2.0357 H   0  0  0  0  0  0  0  0  0  0  0  0
   -0.4877    1.5030   -1.0973 H   0  0  0  0  0  0  0  0  0  0  0  0
    0.8918    0.2223   -2.7608 H   0  0  0  0  0  0  0  0  0  0  0  0
    3.1780   -1.0779   -2.2576 N   0  0  0  0  0  0  0  0  0  0  0  0
    4.1807   -1.6558   -1.8415 O   0  0  0  0  0  0  0  0  0  0  0  0
    2.8120   -1.0742   -3.4320 O   0  0  0  0  0  0  0  0  0  0  0  0
    1.7583    2.8355    0.3817 N   0  0  0  0  0  0  0  0  0  0  0  0
    2.6084    3.2287   -0.2174 N   0  0  0  0  0  0  0  0  0  0  0  0
    0.1063    1.9300    3.0005 S   0  0  0  0  0  0  0  0  0  0  0  0
    0.0357    0.4024    3.6030 O   0  0  0  0  0  0  0  0  0  0  0  0
   -0.9035    0.1670    3.7027 H   0  0  0  0  0  0  0  0  0  0  0  0
   -0.1179    1.6442    1.3754 O   0  0  0  0  0  0  0  0  0  0  0  0
   -1.1064    2.6526    3.3865 O   0  0  0  0  0  0  0  0  0  0  0  0
    1.4696    2.3900    3.2679 O   0  0  0  0  0  0  0  0  0  0  0  0
  1  7  1  0  0  0  0
  1  2  2  0  0  0  0
  2  8  1  0  0  0  0
  3 14  1  6  0  0  0
  3  2  1  0  0  0  0
  3 19  1  0  0  0  0
  4  3  1  0  0  0  0
  5  6  1  0  0  0  0
  5  4  2  0  0  0  0
  6 11  1  1  0  0  0
  6  1  1  0  0  0  0
  9  4  1  0  0  0  0
 10  5  1  0  0  0  0
 11 12  2  0  0  0  0
 13 11  2  0  0  0  0
 15 14  2  0  0  0  0
 16 21  2  0  0  0  0
 16 20  2  0  0  0  0
 16 17  1  0  0  0  0
 17 18  1  0  0  0  0
 19 16  1  0  0  0  0
M  RAD  2   6   2  15   2
M  END
