Coordinates from ORCA-job p-NO2-Ph-N2-HSO4-B3LYPG-aug-cc-pVDZ-scan-d09-49-n400
 OpenBabel12261916533D

 21 20  0  0  0  0  0  0  0  0999 V2000
    2.5745   -0.7064    0.0985 C   0  0  0  0  0  0  0  0  0  0  0  0
    1.7326   -0.1136    1.0396 C   0  0  0  0  0  0  0  0  0  0  0  0
    0.6467    0.6399    0.5891 C   0  0  0  0  0  0  0  0  0  0  0  0
    0.3856    0.8136   -0.7748 C   0  0  0  0  0  0  0  0  0  0  0  0
    1.2213    0.2131   -1.7111 C   0  0  0  0  0  0  0  0  0  0  0  0
    2.3084   -0.5388   -1.2600 C   0  0  0  0  0  0  0  0  0  0  0  0
    3.4308   -1.2991    0.4098 H   0  0  0  0  0  0  0  0  0  0  0  0
    1.9297   -0.2442    2.0996 H   0  0  0  0  0  0  0  0  0  0  0  0
   -0.4679    1.4141   -1.0830 H   0  0  0  0  0  0  0  0  0  0  0  0
    1.0458    0.3242   -2.7779 H   0  0  0  0  0  0  0  0  0  0  0  0
    3.1986   -1.1739   -2.2478 N   0  0  0  0  0  0  0  0  0  0  0  0
    4.1506   -1.8250   -1.8242 O   0  0  0  0  0  0  0  0  0  0  0  0
    2.9423   -1.0059   -3.4378 O   0  0  0  0  0  0  0  0  0  0  0  0
    2.2372    4.5146    0.0092 N   0  0  0  0  0  0  0  0  0  0  0  0
    3.0179    5.1652   -0.4228 N   0  0  0  0  0  0  0  0  0  0  0  0
    0.0903    1.8056    2.9501 S   0  0  0  0  0  0  0  0  0  0  0  0
    0.1207    0.4051    3.8166 O   0  0  0  0  0  0  0  0  0  0  0  0
   -0.7947    0.2032    4.0782 H   0  0  0  0  0  0  0  0  0  0  0  0
   -0.2979    1.2329    1.4312 O   0  0  0  0  0  0  0  0  0  0  0  0
   -1.0946    2.5743    3.3359 O   0  0  0  0  0  0  0  0  0  0  0  0
    1.4597    2.3164    2.9738 O   0  0  0  0  0  0  0  0  0  0  0  0
  1  7  1  0  0  0  0
  1  2  2  0  0  0  0
  2  8  1  0  0  0  0
  3  2  1  0  0  0  0
  3 19  1  0  0  0  0
  4  3  2  0  0  0  0
  5  6  2  0  0  0  0
  5  4  1  0  0  0  0
  6  1  1  0  0  0  0
  9  4  1  0  0  0  0
 10  5  1  0  0  0  0
 11 12  2  0  0  0  0
 11  6  1  0  0  0  0
 13 11  2  0  0  0  0
 15 14  3  0  0  0  0
 16 21  2  0  0  0  0
 16 20  2  0  0  0  0
 16 17  1  0  0  0  0
 17 18  1  0  0  0  0
 19 16  1  0  0  0  0
M  END
