Coordinates from ORCA-job p-NO2-Ph-N2-HSO4-B3LYPG-aug-cc-pVDZ-scan-d09-49-n400
 OpenBabel12261916533D

 21 20  0  0  0  0  0  0  0  0999 V2000
    2.6592   -0.5239    0.0774 C   0  0  0  0  0  0  0  0  0  0  0  0
    1.8540    0.1247    1.0142 C   0  0  0  0  0  0  0  0  0  0  0  0
    0.7167    0.8022    0.5669 C   0  0  0  0  0  0  0  0  0  0  0  0
    0.3726    0.8440   -0.7897 C   0  0  0  0  0  0  0  0  0  0  0  0
    1.1756    0.1927   -1.7197 C   0  0  0  0  0  0  0  0  0  0  0  0
    2.3128   -0.4843   -1.2724 C   0  0  0  0  0  0  0  0  0  0  0  0
    3.5522   -1.0604    0.3878 H   0  0  0  0  0  0  0  0  0  0  0  0
    2.1242    0.0994    2.0651 H   0  0  0  0  0  0  0  0  0  0  0  0
   -0.5197    1.3857   -1.0972 H   0  0  0  0  0  0  0  0  0  0  0  0
    0.9351    0.2050   -2.7796 H   0  0  0  0  0  0  0  0  0  0  0  0
    3.1671   -1.1754   -2.2529 N   0  0  0  0  0  0  0  0  0  0  0  0
    4.1610   -1.7628   -1.8321 O   0  0  0  0  0  0  0  0  0  0  0  0
    2.8363   -1.1226   -3.4354 O   0  0  0  0  0  0  0  0  0  0  0  0
    2.1168    3.9711    0.1750 N   0  0  0  0  0  0  0  0  0  0  0  0
    2.9647    4.5229   -0.2676 N   0  0  0  0  0  0  0  0  0  0  0  0
    0.1008    1.8381    2.9868 S   0  0  0  0  0  0  0  0  0  0  0  0
    0.0223    0.3497    3.6853 O   0  0  0  0  0  0  0  0  0  0  0  0
   -0.9164    0.1519    3.8500 H   0  0  0  0  0  0  0  0  0  0  0  0
   -0.1984    1.4598    1.3917 O   0  0  0  0  0  0  0  0  0  0  0  0
   -1.0800    2.6122    3.3719 O   0  0  0  0  0  0  0  0  0  0  0  0
    1.4808    2.2854    3.1668 O   0  0  0  0  0  0  0  0  0  0  0  0
  1  7  1  0  0  0  0
  1  2  2  0  0  0  0
  2  8  1  0  0  0  0
  3  2  1  0  0  0  0
  3 19  1  0  0  0  0
  4  3  2  0  0  0  0
  5  6  2  0  0  0  0
  5  4  1  0  0  0  0
  6  1  1  0  0  0  0
  9  4  1  0  0  0  0
 10  5  1  0  0  0  0
 11 12  2  0  0  0  0
 11  6  1  0  0  0  0
 13 11  2  0  0  0  0
 15 14  3  0  0  0  0
 16 21  2  0  0  0  0
 16 20  2  0  0  0  0
 16 17  1  0  0  0  0
 17 18  1  0  0  0  0
 19 16  1  0  0  0  0
M  END
