Coordinates from ORCA-job p-NO2-Ph-N2-HSO4-B3LYPG-aug-cc-pVDZ-scan-d09-49-n400
 OpenBabel12261916533D

 21 20  0  0  0  0  0  0  0  0999 V2000
    2.5193   -0.8217    0.1110 C   0  0  0  0  0  0  0  0  0  0  0  0
    1.6629   -0.2516    1.0522 C   0  0  0  0  0  0  0  0  0  0  0  0
    0.6244    0.5697    0.6064 C   0  0  0  0  0  0  0  0  0  0  0  0
    0.4214    0.8298   -0.7522 C   0  0  0  0  0  0  0  0  0  0  0  0
    1.2702    0.2502   -1.6914 C   0  0  0  0  0  0  0  0  0  0  0  0
    2.3111   -0.5662   -1.2446 C   0  0  0  0  0  0  0  0  0  0  0  0
    3.3404   -1.4647    0.4171 H   0  0  0  0  0  0  0  0  0  0  0  0
    1.8074   -0.4504    2.1107 H   0  0  0  0  0  0  0  0  0  0  0  0
   -0.3985    1.4775   -1.0562 H   0  0  0  0  0  0  0  0  0  0  0  0
    1.1404    0.4271   -2.7559 H   0  0  0  0  0  0  0  0  0  0  0  0
    3.2154   -1.1782   -2.2350 N   0  0  0  0  0  0  0  0  0  0  0  0
    4.1226   -1.8927   -1.8156 O   0  0  0  0  0  0  0  0  0  0  0  0
    3.0077   -0.9384   -3.4220 O   0  0  0  0  0  0  0  0  0  0  0  0
    2.2507    4.8081   -0.1311 N   0  0  0  0  0  0  0  0  0  0  0  0
    2.9826    5.5085   -0.5706 N   0  0  0  0  0  0  0  0  0  0  0  0
    0.0908    1.7790    2.9403 S   0  0  0  0  0  0  0  0  0  0  0  0
    0.1731    0.4205    3.8692 O   0  0  0  0  0  0  0  0  0  0  0  0
   -0.7291    0.2217    4.1753 H   0  0  0  0  0  0  0  0  0  0  0  0
   -0.3307    1.1325    1.4589 O   0  0  0  0  0  0  0  0  0  0  0  0
   -1.0956    2.5433    3.3319 O   0  0  0  0  0  0  0  0  0  0  0  0
    1.4513    2.3113    2.8939 O   0  0  0  0  0  0  0  0  0  0  0  0
  1  7  1  0  0  0  0
  1  2  2  0  0  0  0
  2  8  1  0  0  0  0
  3  2  1  0  0  0  0
  3 19  1  0  0  0  0
  4  3  2  0  0  0  0
  5  6  2  0  0  0  0
  5  4  1  0  0  0  0
  6  1  1  0  0  0  0
  9  4  1  0  0  0  0
 10  5  1  0  0  0  0
 11 12  2  0  0  0  0
 11  6  1  0  0  0  0
 13 11  2  0  0  0  0
 15 14  3  0  0  0  0
 16 20  2  0  0  0  0
 16 17  1  0  0  0  0
 17 18  1  0  0  0  0
 19 16  1  0  0  0  0
 21 16  2  0  0  0  0
M  END
