Coordinates from ORCA-job p-NO2-Ph-N2-HSO4-B3LYPG-aug-cc-pVDZ-scan-d09-49-n400
 OpenBabel12261916533D

 21 20  0  0  0  0  0  0  0  0999 V2000
    2.5831   -0.6885    0.0964 C   0  0  0  0  0  0  0  0  0  0  0  0
    1.7441   -0.0909    1.0370 C   0  0  0  0  0  0  0  0  0  0  0  0
    0.6531    0.6552    0.5859 C   0  0  0  0  0  0  0  0  0  0  0  0
    0.3841    0.8158   -0.7781 C   0  0  0  0  0  0  0  0  0  0  0  0
    1.2172    0.2107   -1.7137 C   0  0  0  0  0  0  0  0  0  0  0  0
    2.3096   -0.5333   -1.2621 C   0  0  0  0  0  0  0  0  0  0  0  0
    3.4431   -1.2755    0.4084 H   0  0  0  0  0  0  0  0  0  0  0  0
    1.9479   -0.2118    2.0968 H   0  0  0  0  0  0  0  0  0  0  0  0
   -0.4735    1.4101   -1.0870 H   0  0  0  0  0  0  0  0  0  0  0  0
    1.0357    0.3121   -2.7805 H   0  0  0  0  0  0  0  0  0  0  0  0
    3.1970   -1.1733   -2.2490 N   0  0  0  0  0  0  0  0  0  0  0  0
    4.1498   -1.8229   -1.8248 O   0  0  0  0  0  0  0  0  0  0  0  0
    2.9301   -1.0218   -3.4390 O   0  0  0  0  0  0  0  0  0  0  0  0
    2.2249    4.4646    0.0307 N   0  0  0  0  0  0  0  0  0  0  0  0
    3.0121    5.1076   -0.4009 N   0  0  0  0  0  0  0  0  0  0  0  0
    0.0916    1.8097    2.9526 S   0  0  0  0  0  0  0  0  0  0  0  0
    0.1130    0.4012    3.8061 O   0  0  0  0  0  0  0  0  0  0  0  0
   -0.8046    0.1988    4.0597 H   0  0  0  0  0  0  0  0  0  0  0  0
   -0.2898    1.2529    1.4263 O   0  0  0  0  0  0  0  0  0  0  0  0
   -1.0933    2.5785    3.3383 O   0  0  0  0  0  0  0  0  0  0  0  0
    1.4622    2.3161    2.9892 O   0  0  0  0  0  0  0  0  0  0  0  0
  1  7  1  0  0  0  0
  1  2  2  0  0  0  0
  2  8  1  0  0  0  0
  3  2  1  0  0  0  0
  3 19  1  0  0  0  0
  4  3  2  0  0  0  0
  5  6  2  0  0  0  0
  5  4  1  0  0  0  0
  6  1  1  0  0  0  0
  9  4  1  0  0  0  0
 10  5  1  0  0  0  0
 11 12  2  0  0  0  0
 11  6  1  0  0  0  0
 13 11  2  0  0  0  0
 15 14  3  0  0  0  0
 16 21  2  0  0  0  0
 16 20  2  0  0  0  0
 16 17  1  0  0  0  0
 17 18  1  0  0  0  0
 19 16  1  0  0  0  0
M  END
