Coordinates from ORCA-job p-NO2-Ph-N2-HSO4-B3LYPG-aug-cc-pVDZ-scan-d09-49-n400
 OpenBabel12261916533D

 21 20  0  0  0  0  0  0  0  0999 V2000
    2.5773   -0.7011    0.0980 C   0  0  0  0  0  0  0  0  0  0  0  0
    1.7362   -0.1068    1.0387 C   0  0  0  0  0  0  0  0  0  0  0  0
    0.6492    0.6461    0.5877 C   0  0  0  0  0  0  0  0  0  0  0  0
    0.3860    0.8152   -0.7761 C   0  0  0  0  0  0  0  0  0  0  0  0
    1.2209    0.2130   -1.7123 C   0  0  0  0  0  0  0  0  0  0  0  0
    2.3094   -0.5367   -1.2608 C   0  0  0  0  0  0  0  0  0  0  0  0
    3.4342   -1.2927    0.4096 H   0  0  0  0  0  0  0  0  0  0  0  0
    1.9345   -0.2354    2.0988 H   0  0  0  0  0  0  0  0  0  0  0  0
   -0.4690    1.4135   -1.0849 H   0  0  0  0  0  0  0  0  0  0  0  0
    1.0441    0.3213   -2.7792 H   0  0  0  0  0  0  0  0  0  0  0  0
    3.1989   -1.1732   -2.2482 N   0  0  0  0  0  0  0  0  0  0  0  0
    4.1486   -1.8273   -1.8241 O   0  0  0  0  0  0  0  0  0  0  0  0
    2.9376   -1.0131   -3.4382 O   0  0  0  0  0  0  0  0  0  0  0  0
    2.2336    4.5024    0.0147 N   0  0  0  0  0  0  0  0  0  0  0  0
    3.0157    5.1514   -0.4172 N   0  0  0  0  0  0  0  0  0  0  0  0
    0.0901    1.8059    2.9512 S   0  0  0  0  0  0  0  0  0  0  0  0
    0.1187    0.4036    3.8149 O   0  0  0  0  0  0  0  0  0  0  0  0
   -0.7972    0.2013    4.0747 H   0  0  0  0  0  0  0  0  0  0  0  0
   -0.2958    1.2384    1.4300 O   0  0  0  0  0  0  0  0  0  0  0  0
   -1.0951    2.5743    3.3371 O   0  0  0  0  0  0  0  0  0  0  0  0
    1.4598    2.3153    2.9778 O   0  0  0  0  0  0  0  0  0  0  0  0
  1  7  1  0  0  0  0
  1  2  2  0  0  0  0
  2  8  1  0  0  0  0
  3  2  1  0  0  0  0
  3 19  1  0  0  0  0
  4  3  2  0  0  0  0
  5  6  2  0  0  0  0
  5  4  1  0  0  0  0
  6  1  1  0  0  0  0
  9  4  1  0  0  0  0
 10  5  1  0  0  0  0
 11 12  2  0  0  0  0
 11  6  1  0  0  0  0
 13 11  2  0  0  0  0
 15 14  3  0  0  0  0
 16 21  2  0  0  0  0
 16 20  2  0  0  0  0
 16 17  1  0  0  0  0
 17 18  1  0  0  0  0
 19 16  1  0  0  0  0
M  END
