Coordinates from ORCA-job p-NO2-Ph-N2-HSO4-B3LYPG-aug-cc-pVDZ-scan-d09-49-n400
 OpenBabel12261916533D

 21 20  0  0  0  0  0  0  0  0999 V2000
    2.6649   -0.5112    0.0759 C   0  0  0  0  0  0  0  0  0  0  0  0
    1.8623    0.1411    1.0126 C   0  0  0  0  0  0  0  0  0  0  0  0
    0.7217    0.8137    0.5663 C   0  0  0  0  0  0  0  0  0  0  0  0
    0.3719    0.8472   -0.7892 C   0  0  0  0  0  0  0  0  0  0  0  0
    1.1725    0.1926   -1.7189 C   0  0  0  0  0  0  0  0  0  0  0  0
    2.3129   -0.4797   -1.2726 C   0  0  0  0  0  0  0  0  0  0  0  0
    3.5602   -1.0441    0.3857 H   0  0  0  0  0  0  0  0  0  0  0  0
    2.1374    0.1229    2.0623 H   0  0  0  0  0  0  0  0  0  0  0  0
   -0.5228    1.3853   -1.0959 H   0  0  0  0  0  0  0  0  0  0  0  0
    0.9276    0.1987   -2.7778 H   0  0  0  0  0  0  0  0  0  0  0  0
    3.1645   -1.1745   -2.2528 N   0  0  0  0  0  0  0  0  0  0  0  0
    4.1638   -1.7539   -1.8335 O   0  0  0  0  0  0  0  0  0  0  0  0
    2.8313   -1.1249   -3.4347 O   0  0  0  0  0  0  0  0  0  0  0  0
    2.1067    3.9241    0.1826 N   0  0  0  0  0  0  0  0  0  0  0  0
    2.9597    4.4665   -0.2620 N   0  0  0  0  0  0  0  0  0  0  0  0
    0.1014    1.8405    2.9897 S   0  0  0  0  0  0  0  0  0  0  0  0
    0.0146    0.3468    3.6755 O   0  0  0  0  0  0  0  0  0  0  0  0
   -0.9256    0.1502    3.8329 H   0  0  0  0  0  0  0  0  0  0  0  0
   -0.1905    1.4762    1.3902 O   0  0  0  0  0  0  0  0  0  0  0  0
   -1.0788    2.6157    3.3744 O   0  0  0  0  0  0  0  0  0  0  0  0
    1.4817    2.2822    3.1813 O   0  0  0  0  0  0  0  0  0  0  0  0
  1  7  1  0  0  0  0
  1  2  2  0  0  0  0
  2  8  1  0  0  0  0
  3  2  1  0  0  0  0
  3 19  1  0  0  0  0
  4  3  2  0  0  0  0
  5  6  2  0  0  0  0
  5  4  1  0  0  0  0
  6  1  1  0  0  0  0
  9  4  1  0  0  0  0
 10  5  1  0  0  0  0
 11 12  2  0  0  0  0
 11  6  1  0  0  0  0
 13 11  2  0  0  0  0
 15 14  3  0  0  0  0
 16 21  2  0  0  0  0
 16 20  2  0  0  0  0
 16 17  1  0  0  0  0
 17 18  1  0  0  0  0
 19 16  1  0  0  0  0
M  END
