Coordinates from ORCA-job p-NO2-Ph-N2-HSO4-B3LYPG-aug-cc-pVDZ-scan-d09-49-n400
 OpenBabel12261916533D

 21 21  0  0  1  0  0  0  0  0999 V2000
    2.1826   -0.2669    0.2053 C   0  0  0  0  0  0  0  0  0  0  0  0
    1.7572    1.0083    0.8338 C   0  0  1  0  0  0  0  0  0  0  0  0
    1.6268    2.0711   -0.1821 C   0  0  1  0  0  0  0  0  0  0  0  0
    1.4425    1.8278   -1.5773 C   0  0  0  0  0  0  0  0  0  0  0  0
    1.6232    0.5638   -2.0578 C   0  0  0  0  0  0  0  0  0  0  0  0
    2.0471   -0.4502   -1.1315 C   0  0  0  0  0  0  0  0  0  0  0  0
    2.5551   -1.0662    0.8391 H   0  0  0  0  0  0  0  0  0  0  0  0
    2.3639    1.2917    1.6961 H   0  0  0  0  0  0  0  0  0  0  0  0
    1.1771    2.6525   -2.2367 H   0  0  0  0  0  0  0  0  0  0  0  0
    1.4977    0.3202   -3.1071 H   0  0  0  0  0  0  0  0  0  0  0  0
    2.4047   -1.7837   -1.6875 N   0  0  0  0  0  0  0  0  0  0  0  0
    2.8385   -2.6343   -0.9182 O   0  0  0  0  0  0  0  0  0  0  0  0
    2.2338   -1.9502   -2.8912 O   0  0  0  0  0  0  0  0  0  0  0  0
    1.6039    3.3981    0.2675 N   0  0  0  0  0  0  0  0  0  0  0  0
    1.5872    4.4687    0.6216 N   0  0  0  0  0  0  0  0  0  0  0  0
    0.0281    1.2666    2.9330 S   0  0  0  0  0  0  0  0  0  0  0  0
    0.8965    0.2404    3.8998 O   0  0  0  0  0  0  0  0  0  0  0  0
    0.3447   -0.5457    4.0531 H   0  0  0  0  0  0  0  0  0  0  0  0
    0.3426    0.6874    1.4468 O   0  0  0  0  0  0  0  0  0  0  0  0
   -1.4024    1.0436    3.1795 O   0  0  0  0  0  0  0  0  0  0  0  0
    0.6868    2.5722    3.1061 O   0  0  0  0  0  0  0  0  0  0  0  0
  1  2  1  0  0  0  0
  1  7  1  0  0  0  0
  2 19  1  0  0  0  0
  2  8  1  1  0  0  0
  3 14  1  1  0  0  0
  3  2  1  0  0  0  0
  4  3  1  0  0  0  0
  5  4  2  0  0  0  0
  5  6  1  0  0  0  0
  6  1  2  0  0  0  0
  9  4  1  0  0  0  0
 10  5  1  0  0  0  0
 11  6  1  0  0  0  0
 11 12  2  0  0  0  0
 13 11  2  0  0  0  0
 14 15  1  0  0  0  0
 16 21  2  0  0  0  0
 16 20  2  0  0  0  0
 16 17  1  0  0  0  0
 17 18  1  0  0  0  0
 19 16  1  0  0  0  0
M  RAD  3   3   2  14   2  15   3
M  END
