Coordinates from ORCA-job p-NO2-Ph-N2-HSO4-B3LYPG-aug-cc-pVDZ-scan-d09-49-n400
 OpenBabel12261916533D

 21 21  0  0  1  0  0  0  0  0999 V2000
    2.1358   -0.0586    0.3264 C   0  0  0  0  0  0  0  0  0  0  0  0
    1.7065    1.2810    0.8245 C   0  0  1  0  0  0  0  0  0  0  0  0
    1.5455    2.3713   -0.2949 C   0  0  0  0  0  0  0  0  0  0  0  0
    1.3742    1.8396   -1.6850 C   0  0  0  0  0  0  0  0  0  0  0  0
    1.6117    0.5542   -2.0059 C   0  0  0  0  0  0  0  0  0  0  0  0
    2.0479   -0.3697   -0.9780 C   0  0  0  0  0  0  0  0  0  0  0  0
    2.4808   -0.7920    1.0518 H   0  0  0  0  0  0  0  0  0  0  0  0
    2.3867    1.6816    1.5856 H   0  0  0  0  0  0  0  0  0  0  0  0
    1.0612    2.5752   -2.4260 H   0  0  0  0  0  0  0  0  0  0  0  0
    1.5012    0.1933   -3.0245 H   0  0  0  0  0  0  0  0  0  0  0  0
    2.4282   -1.7433   -1.4019 N   0  0  0  0  0  0  0  0  0  0  0  0
    2.8123   -2.5276   -0.5421 O   0  0  0  0  0  0  0  0  0  0  0  0
    2.3260   -2.0029   -2.5970 O   0  0  0  0  0  0  0  0  0  0  0  0
    1.5275    3.2829   -0.0658 N   0  0  0  0  0  0  0  0  0  0  0  0
    1.5050    4.4224    0.2264 N   0  0  0  0  0  0  0  0  0  0  0  0
    0.2689    1.1074    3.0943 S   0  0  0  0  0  0  0  0  0  0  0  0
    0.6782   -0.4611    3.3948 O   0  0  0  0  0  0  0  0  0  0  0  0
   -0.1293   -0.9971    3.3068 H   0  0  0  0  0  0  0  0  0  0  0  0
    0.3705    1.1629    1.4389 O   0  0  0  0  0  0  0  0  0  0  0  0
   -1.1545    1.2929    3.3872 O   0  0  0  0  0  0  0  0  0  0  0  0
    1.3534    1.9031    3.6768 O   0  0  0  0  0  0  0  0  0  0  0  0
  1  2  1  0  0  0  0
  1  7  1  0  0  0  0
  2 19  1  0  0  0  0
  2  8  1  1  0  0  0
  3 14  1  0  0  0  0
  3  2  1  0  0  0  0
  4  3  2  0  0  0  0
  5  4  1  0  0  0  0
  5  6  1  0  0  0  0
  6  1  2  0  0  0  0
  9  4  1  0  0  0  0
 10  5  1  0  0  0  0
 11  6  1  0  0  0  0
 11 12  2  0  0  0  0
 13 11  2  0  0  0  0
 14 15  1  0  0  0  0
 16 20  2  0  0  0  0
 16 17  1  0  0  0  0
 16 21  2  0  0  0  0
 18 17  1  0  0  0  0
 19 16  1  0  0  0  0
M  RAD  3   5   2  14   2  15   3
M  END
