Coordinates from ORCA-job p-NO2-Ph-N2-HSO4-B3LYPG-aug-cc-pVDZ-scan-d09-49-n400
 OpenBabel12261916533D

 21 20  0  0  0  0  0  0  0  0999 V2000
    2.6954   -0.4427    0.0687 C   0  0  0  0  0  0  0  0  0  0  0  0
    1.9050    0.2260    1.0042 C   0  0  0  0  0  0  0  0  0  0  0  0
    0.7497    0.8772    0.5636 C   0  0  0  0  0  0  0  0  0  0  0  0
    0.3722    0.8689   -0.7849 C   0  0  0  0  0  0  0  0  0  0  0  0
    1.1617    0.2001   -1.7136 C   0  0  0  0  0  0  0  0  0  0  0  0
    2.3180   -0.4487   -1.2733 C   0  0  0  0  0  0  0  0  0  0  0  0
    3.6016   -0.9591    0.3746 H   0  0  0  0  0  0  0  0  0  0  0  0
    2.2020    0.2384    2.0479 H   0  0  0  0  0  0  0  0  0  0  0  0
   -0.5352    1.3878   -1.0877 H   0  0  0  0  0  0  0  0  0  0  0  0
    0.8954    0.1755   -2.7671 H   0  0  0  0  0  0  0  0  0  0  0  0
    3.1575   -1.1600   -2.2518 N   0  0  0  0  0  0  0  0  0  0  0  0
    4.1675   -1.7236   -1.8368 O   0  0  0  0  0  0  0  0  0  0  0  0
    2.7977   -1.1489   -3.4270 O   0  0  0  0  0  0  0  0  0  0  0  0
    2.0568    3.6840    0.2172 N   0  0  0  0  0  0  0  0  0  0  0  0
    2.9303    4.1775   -0.2441 N   0  0  0  0  0  0  0  0  0  0  0  0
    0.1014    1.8488    3.0039 S   0  0  0  0  0  0  0  0  0  0  0  0
   -0.0221    0.3303    3.6256 O   0  0  0  0  0  0  0  0  0  0  0  0
   -0.9684    0.1400    3.7504 H   0  0  0  0  0  0  0  0  0  0  0  0
   -0.1531    1.5547    1.3843 O   0  0  0  0  0  0  0  0  0  0  0  0
   -1.0775    2.6260    3.3886 O   0  0  0  0  0  0  0  0  0  0  0  0
    1.4818    2.2632    3.2494 O   0  0  0  0  0  0  0  0  0  0  0  0
  1  7  1  0  0  0  0
  1  2  2  0  0  0  0
  2  8  1  0  0  0  0
  3  2  1  0  0  0  0
  3 19  1  0  0  0  0
  4  3  2  0  0  0  0
  5  6  2  0  0  0  0
  5  4  1  0  0  0  0
  6  1  1  0  0  0  0
  9  4  1  0  0  0  0
 10  5  1  0  0  0  0
 11 12  2  0  0  0  0
 11  6  1  0  0  0  0
 13 11  2  0  0  0  0
 15 14  3  0  0  0  0
 16 21  2  0  0  0  0
 16 20  2  0  0  0  0
 16 17  1  0  0  0  0
 17 18  1  0  0  0  0
 19 16  1  0  0  0  0
M  END
