Coordinates from ORCA-job p-NO2-Ph-N2-HSO4-B3LYPG-aug-cc-pVDZ-scan-d09-49-n400
 OpenBabel12261916533D

 21 20  0  0  0  0  0  0  0  0999 V2000
    2.6898   -0.4567    0.0697 C   0  0  0  0  0  0  0  0  0  0  0  0
    1.8967    0.2085    1.0055 C   0  0  0  0  0  0  0  0  0  0  0  0
    0.7439    0.8631    0.5636 C   0  0  0  0  0  0  0  0  0  0  0  0
    0.3720    0.8634   -0.7864 C   0  0  0  0  0  0  0  0  0  0  0  0
    1.1641    0.1976   -1.7152 C   0  0  0  0  0  0  0  0  0  0  0  0
    2.3174   -0.4555   -1.2737 C   0  0  0  0  0  0  0  0  0  0  0  0
    3.5941   -0.9759    0.3764 H   0  0  0  0  0  0  0  0  0  0  0  0
    2.1896    0.2153    2.0504 H   0  0  0  0  0  0  0  0  0  0  0  0
   -0.5330    1.3858   -1.0900 H   0  0  0  0  0  0  0  0  0  0  0  0
    0.9020    0.1791   -2.7699 H   0  0  0  0  0  0  0  0  0  0  0  0
    3.1596   -1.1631   -2.2526 N   0  0  0  0  0  0  0  0  0  0  0  0
    4.1650   -1.7337   -1.8359 O   0  0  0  0  0  0  0  0  0  0  0  0
    2.8024   -1.1487   -3.4285 O   0  0  0  0  0  0  0  0  0  0  0  0
    2.0667    3.7399    0.2130 N   0  0  0  0  0  0  0  0  0  0  0  0
    2.9361    4.2456   -0.2428 N   0  0  0  0  0  0  0  0  0  0  0  0
    0.1019    1.8468    3.0006 S   0  0  0  0  0  0  0  0  0  0  0  0
   -0.0155    0.3332    3.6355 O   0  0  0  0  0  0  0  0  0  0  0  0
   -0.9609    0.1424    3.7671 H   0  0  0  0  0  0  0  0  0  0  0  0
   -0.1607    1.5382    1.3849 O   0  0  0  0  0  0  0  0  0  0  0  0
   -1.0766    2.6245    3.3853 O   0  0  0  0  0  0  0  0  0  0  0  0
    1.4828    2.2658    3.2351 O   0  0  0  0  0  0  0  0  0  0  0  0
  1  7  1  0  0  0  0
  1  2  2  0  0  0  0
  2  8  1  0  0  0  0
  3  2  1  0  0  0  0
  3 19  1  0  0  0  0
  4  3  2  0  0  0  0
  5  6  2  0  0  0  0
  5  4  1  0  0  0  0
  6  1  1  0  0  0  0
  9  4  1  0  0  0  0
 10  5  1  0  0  0  0
 11 12  2  0  0  0  0
 11  6  1  0  0  0  0
 13 11  2  0  0  0  0
 15 14  3  0  0  0  0
 16 21  2  0  0  0  0
 16 20  2  0  0  0  0
 16 17  1  0  0  0  0
 17 18  1  0  0  0  0
 19 16  1  0  0  0  0
M  END
