Coordinates from ORCA-job p-NO2-Ph-N2-HSO4-B3LYPG-aug-cc-pVDZ-scan-d09-49-n400
 OpenBabel12261916533D

 21 20  0  0  0  0  0  0  0  0999 V2000
    2.6406   -0.5646    0.0817 C   0  0  0  0  0  0  0  0  0  0  0  0
    1.8263    0.0711    1.0195 C   0  0  0  0  0  0  0  0  0  0  0  0
    0.6991    0.7637    0.5698 C   0  0  0  0  0  0  0  0  0  0  0  0
    0.3730    0.8328   -0.7899 C   0  0  0  0  0  0  0  0  0  0  0  0
    1.1839    0.1928   -1.7212 C   0  0  0  0  0  0  0  0  0  0  0  0
    2.3113   -0.4986   -1.2714 C   0  0  0  0  0  0  0  0  0  0  0  0
    3.5264   -1.1118    0.3936 H   0  0  0  0  0  0  0  0  0  0  0  0
    2.0810    0.0238    2.0736 H   0  0  0  0  0  0  0  0  0  0  0  0
   -0.5118    1.3859   -1.0989 H   0  0  0  0  0  0  0  0  0  0  0  0
    0.9575    0.2257   -2.7837 H   0  0  0  0  0  0  0  0  0  0  0  0
    3.1745   -1.1769   -2.2533 N   0  0  0  0  0  0  0  0  0  0  0  0
    4.1590   -1.7784   -1.8304 O   0  0  0  0  0  0  0  0  0  0  0  0
    2.8584   -1.1021   -3.4386 O   0  0  0  0  0  0  0  0  0  0  0  0
    2.1494    4.1052    0.1485 N   0  0  0  0  0  0  0  0  0  0  0  0
    2.9829    4.6821   -0.2893 N   0  0  0  0  0  0  0  0  0  0  0  0
    0.0986    1.8319    2.9770 S   0  0  0  0  0  0  0  0  0  0  0  0
    0.0454    0.3632    3.7187 O   0  0  0  0  0  0  0  0  0  0  0  0
   -0.8883    0.1634    3.9074 H   0  0  0  0  0  0  0  0  0  0  0  0
   -0.2242    1.4056    1.3982 O   0  0  0  0  0  0  0  0  0  0  0  0
   -1.0830    2.6052    3.3621 O   0  0  0  0  0  0  0  0  0  0  0  0
    1.4775    2.2958    3.1189 O   0  0  0  0  0  0  0  0  0  0  0  0
  1  7  1  0  0  0  0
  1  2  2  0  0  0  0
  2  8  1  0  0  0  0
  3  2  1  0  0  0  0
  3 19  1  0  0  0  0
  4  3  2  0  0  0  0
  5  6  2  0  0  0  0
  5  4  1  0  0  0  0
  6  1  1  0  0  0  0
  9  4  1  0  0  0  0
 10  5  1  0  0  0  0
 11 12  2  0  0  0  0
 11  6  1  0  0  0  0
 13 11  2  0  0  0  0
 15 14  3  0  0  0  0
 16 21  2  0  0  0  0
 16 20  2  0  0  0  0
 16 17  1  0  0  0  0
 17 18  1  0  0  0  0
 19 16  1  0  0  0  0
M  END
