Coordinates from ORCA-job p-NO2-Ph-N2-HSO4-B3LYPG-aug-cc-pVDZ-scan-d09-49-n400
 OpenBabel12261916533D

 21 20  0  0  0  0  0  0  0  0999 V2000
    2.6567   -0.5316    0.0780 C   0  0  0  0  0  0  0  0  0  0  0  0
    1.8481    0.1121    1.0154 C   0  0  0  0  0  0  0  0  0  0  0  0
    0.7124    0.7924    0.5675 C   0  0  0  0  0  0  0  0  0  0  0  0
    0.3731    0.8415   -0.7902 C   0  0  0  0  0  0  0  0  0  0  0  0
    1.1792    0.1945   -1.7208 C   0  0  0  0  0  0  0  0  0  0  0  0
    2.3148   -0.4849   -1.2729 C   0  0  0  0  0  0  0  0  0  0  0  0
    3.5485   -1.0697    0.3887 H   0  0  0  0  0  0  0  0  0  0  0  0
    2.1143    0.0810    2.0674 H   0  0  0  0  0  0  0  0  0  0  0  0
   -0.5179    1.3854   -1.0981 H   0  0  0  0  0  0  0  0  0  0  0  0
    0.9426    0.2126   -2.7815 H   0  0  0  0  0  0  0  0  0  0  0  0
    3.1727   -1.1707   -2.2540 N   0  0  0  0  0  0  0  0  0  0  0  0
    4.1540   -1.7770   -1.8306 O   0  0  0  0  0  0  0  0  0  0  0  0
    2.8348   -1.1287   -3.4349 O   0  0  0  0  0  0  0  0  0  0  0  0
    2.1263    4.0095    0.1689 N   0  0  0  0  0  0  0  0  0  0  0  0
    2.9709    4.5691   -0.2723 N   0  0  0  0  0  0  0  0  0  0  0  0
    0.0988    1.8353    2.9846 S   0  0  0  0  0  0  0  0  0  0  0  0
    0.0282    0.3517    3.6942 O   0  0  0  0  0  0  0  0  0  0  0  0
   -0.9091    0.1521    3.8645 H   0  0  0  0  0  0  0  0  0  0  0  0
   -0.2057    1.4447    1.3934 O   0  0  0  0  0  0  0  0  0  0  0  0
   -1.0831    2.6080    3.3695 O   0  0  0  0  0  0  0  0  0  0  0  0
    1.4781    2.2884    3.1555 O   0  0  0  0  0  0  0  0  0  0  0  0
  1  7  1  0  0  0  0
  1  2  2  0  0  0  0
  2  8  1  0  0  0  0
  3  2  1  0  0  0  0
  3 19  1  0  0  0  0
  4  3  2  0  0  0  0
  5  6  2  0  0  0  0
  5  4  1  0  0  0  0
  6  1  1  0  0  0  0
  9  4  1  0  0  0  0
 10  5  1  0  0  0  0
 11 12  2  0  0  0  0
 11  6  1  0  0  0  0
 13 11  2  0  0  0  0
 15 14  3  0  0  0  0
 16 21  2  0  0  0  0
 16 20  2  0  0  0  0
 16 17  1  0  0  0  0
 17 18  1  0  0  0  0
 19 16  1  0  0  0  0
M  END
