Coordinates from ORCA-job p-NO2-Ph-N2-HSO4-B3LYPG-aug-cc-pVDZ-scan-d09-49-n400
 OpenBabel12261916533D

 21 20  0  0  0  0  0  0  0  0999 V2000
    2.7205   -0.3787    0.0658 C   0  0  0  0  0  0  0  0  0  0  0  0
    1.9383    0.2998    1.0007 C   0  0  0  0  0  0  0  0  0  0  0  0
    0.7843    0.9547    0.5628 C   0  0  0  0  0  0  0  0  0  0  0  0
    0.3862    0.9161   -0.7794 C   0  0  0  0  0  0  0  0  0  0  0  0
    1.1675    0.2385   -1.7080 C   0  0  0  0  0  0  0  0  0  0  0  0
    2.3319   -0.3996   -1.2729 C   0  0  0  0  0  0  0  0  0  0  0  0
    3.6287   -0.8929    0.3697 H   0  0  0  0  0  0  0  0  0  0  0  0
    2.2453    0.3240    2.0412 H   0  0  0  0  0  0  0  0  0  0  0  0
   -0.5274    1.4265   -1.0778 H   0  0  0  0  0  0  0  0  0  0  0  0
    0.8875    0.1963   -2.7573 H   0  0  0  0  0  0  0  0  0  0  0  0
    3.1626   -1.1209   -2.2510 N   0  0  0  0  0  0  0  0  0  0  0  0
    4.1785   -1.6765   -1.8397 O   0  0  0  0  0  0  0  0  0  0  0  0
    2.7906   -1.1250   -3.4225 O   0  0  0  0  0  0  0  0  0  0  0  0
    1.9603    3.3156    0.2639 N   0  0  0  0  0  0  0  0  0  0  0  0
    2.8179    3.7368   -0.2902 N   0  0  0  0  0  0  0  0  0  0  0  0
    0.1065    1.8715    3.0169 S   0  0  0  0  0  0  0  0  0  0  0  0
   -0.0422    0.3377    3.5922 O   0  0  0  0  0  0  0  0  0  0  0  0
   -0.9925    0.1513    3.6903 H   0  0  0  0  0  0  0  0  0  0  0  0
   -0.1199    1.6246    1.3849 O   0  0  0  0  0  0  0  0  0  0  0  0
   -1.0723    2.6494    3.3999 O   0  0  0  0  0  0  0  0  0  0  0  0
    1.4852    2.2664    3.3026 O   0  0  0  0  0  0  0  0  0  0  0  0
  1  7  1  0  0  0  0
  1  2  2  0  0  0  0
  2  8  1  0  0  0  0
  3  2  1  0  0  0  0
  3 19  1  0  0  0  0
  4  3  2  0  0  0  0
  5  6  2  0  0  0  0
  5  4  1  0  0  0  0
  6  1  1  0  0  0  0
  9  4  1  0  0  0  0
 10  5  1  0  0  0  0
 11 12  2  0  0  0  0
 11  6  1  0  0  0  0
 13 11  2  0  0  0  0
 15 14  3  0  0  0  0
 16 21  2  0  0  0  0
 16 20  2  0  0  0  0
 16 17  1  0  0  0  0
 17 18  1  0  0  0  0
 19 16  1  0  0  0  0
M  END
