Coordinates from ORCA-job p-NO2-Ph-N2-HSO4-B3LYPG-aug-cc-pVDZ-scan-d09-49-n400
 OpenBabel12261916533D

 21 20  0  0  0  0  0  0  0  0999 V2000
    2.7302   -0.3504    0.0632 C   0  0  0  0  0  0  0  0  0  0  0  0
    1.9539    0.3357    0.9949 C   0  0  0  0  0  0  0  0  0  0  0  0
    0.8297    1.0423    0.5497 C   0  0  0  0  0  0  0  0  0  0  0  0
    0.4078    0.9616   -0.7866 C   0  0  0  0  0  0  0  0  0  0  0  0
    1.1820    0.2752   -1.7122 C   0  0  0  0  0  0  0  0  0  0  0  0
    2.3482   -0.3621   -1.2783 C   0  0  0  0  0  0  0  0  0  0  0  0
    3.6252   -0.8850    0.3711 H   0  0  0  0  0  0  0  0  0  0  0  0
    2.2528    0.3496    2.0379 H   0  0  0  0  0  0  0  0  0  0  0  0
   -0.5095    1.4655   -1.0844 H   0  0  0  0  0  0  0  0  0  0  0  0
    0.8925    0.2181   -2.7583 H   0  0  0  0  0  0  0  0  0  0  0  0
    3.1720   -1.0927   -2.2540 N   0  0  0  0  0  0  0  0  0  0  0  0
    4.1841   -1.6548   -1.8415 O   0  0  0  0  0  0  0  0  0  0  0  0
    2.7999   -1.0965   -3.4257 O   0  0  0  0  0  0  0  0  0  0  0  0
    1.8486    3.0284    0.3262 N   0  0  0  0  0  0  0  0  0  0  0  0
    2.6936    3.4169   -0.2731 N   0  0  0  0  0  0  0  0  0  0  0  0
    0.1130    1.9021    3.0132 S   0  0  0  0  0  0  0  0  0  0  0  0
   -0.0202    0.3684    3.5911 O   0  0  0  0  0  0  0  0  0  0  0  0
   -0.9685    0.1692    3.6830 H   0  0  0  0  0  0  0  0  0  0  0  0
   -0.1108    1.6482    1.3814 O   0  0  0  0  0  0  0  0  0  0  0  0
   -1.0751    2.6663    3.3946 O   0  0  0  0  0  0  0  0  0  0  0  0
    1.4880    2.3093    3.3001 O   0  0  0  0  0  0  0  0  0  0  0  0
  1  7  1  0  0  0  0
  1  2  2  0  0  0  0
  2  8  1  0  0  0  0
  3  2  1  0  0  0  0
  3 19  1  0  0  0  0
  4  3  2  0  0  0  0
  5  6  2  0  0  0  0
  5  4  1  0  0  0  0
  6  1  1  0  0  0  0
  9  4  1  0  0  0  0
 10  5  1  0  0  0  0
 11 12  2  0  0  0  0
 11  6  1  0  0  0  0
 13 11  2  0  0  0  0
 15 14  3  0  0  0  0
 16 21  2  0  0  0  0
 16 20  2  0  0  0  0
 16 17  1  0  0  0  0
 17 18  1  0  0  0  0
 19 16  1  0  0  0  0
M  END
