Coordinates from ORCA-job p-NO2-Ph-N2-HSO4-B3LYPG-aug-cc-pVDZ-scan-d09-49-n400
 OpenBabel12261916533D

 21 20  0  0  0  0  0  0  0  0999 V2000
    2.7212   -0.3773    0.0657 C   0  0  0  0  0  0  0  0  0  0  0  0
    1.9393    0.3014    1.0006 C   0  0  0  0  0  0  0  0  0  0  0  0
    0.7854    0.9572    0.5626 C   0  0  0  0  0  0  0  0  0  0  0  0
    0.3865    0.9172   -0.7797 C   0  0  0  0  0  0  0  0  0  0  0  0
    1.1675    0.2393   -1.7082 C   0  0  0  0  0  0  0  0  0  0  0  0
    2.3322   -0.3984   -1.2729 C   0  0  0  0  0  0  0  0  0  0  0  0
    3.6293   -0.8917    0.3696 H   0  0  0  0  0  0  0  0  0  0  0  0
    2.2463    0.3257    2.0411 H   0  0  0  0  0  0  0  0  0  0  0  0
   -0.5275    1.4268   -1.0784 H   0  0  0  0  0  0  0  0  0  0  0  0
    0.8873    0.1963   -2.7574 H   0  0  0  0  0  0  0  0  0  0  0  0
    3.1627   -1.1202   -2.2510 N   0  0  0  0  0  0  0  0  0  0  0  0
    4.1785   -1.6761   -1.8396 O   0  0  0  0  0  0  0  0  0  0  0  0
    2.7901   -1.1253   -3.4223 O   0  0  0  0  0  0  0  0  0  0  0  0
    1.9582    3.3086    0.2653 N   0  0  0  0  0  0  0  0  0  0  0  0
    2.8156    3.7287   -0.2900 N   0  0  0  0  0  0  0  0  0  0  0  0
    0.1066    1.8719    3.0172 S   0  0  0  0  0  0  0  0  0  0  0  0
   -0.0426    0.3378    3.5917 O   0  0  0  0  0  0  0  0  0  0  0  0
   -0.9929    0.1514    3.6894 H   0  0  0  0  0  0  0  0  0  0  0  0
   -0.1194    1.6261    1.3850 O   0  0  0  0  0  0  0  0  0  0  0  0
   -1.0721    2.6498    3.4002 O   0  0  0  0  0  0  0  0  0  0  0  0
    1.4853    2.2661    3.3033 O   0  0  0  0  0  0  0  0  0  0  0  0
  1  7  1  0  0  0  0
  1  2  2  0  0  0  0
  2  8  1  0  0  0  0
  3  2  1  0  0  0  0
  3 19  1  0  0  0  0
  4  3  2  0  0  0  0
  5  6  2  0  0  0  0
  5  4  1  0  0  0  0
  6  1  1  0  0  0  0
  9  4  1  0  0  0  0
 10  5  1  0  0  0  0
 11 12  2  0  0  0  0
 11  6  1  0  0  0  0
 13 11  2  0  0  0  0
 15 14  3  0  0  0  0
 16 21  2  0  0  0  0
 16 20  2  0  0  0  0
 16 17  1  0  0  0  0
 17 18  1  0  0  0  0
 19 16  1  0  0  0  0
M  END
