Coordinates from ORCA-job p-NO2-Ph-N2-HSO4-B3LYPG-aug-cc-pVDZ-scan-d09-49-n400
 OpenBabel12261916533D

 21 20  0  0  0  0  0  0  0  0999 V2000
    2.7296   -0.3458    0.0615 C   0  0  0  0  0  0  0  0  0  0  0  0
    1.9624    0.3495    0.9873 C   0  0  0  0  0  0  0  0  0  0  0  0
    0.8887    1.1457    0.5299 C   0  0  0  0  0  0  0  0  0  0  0  0
    0.4294    0.9976   -0.8004 C   0  0  0  0  0  0  0  0  0  0  0  0
    1.1946    0.3003   -1.7196 C   0  0  0  0  0  0  0  0  0  0  0  0
    2.3638   -0.3366   -1.2870 C   0  0  0  0  0  0  0  0  0  0  0  0
    3.6004   -0.9153    0.3763 H   0  0  0  0  0  0  0  0  0  0  0  0
    2.2440    0.3462    2.0356 H   0  0  0  0  0  0  0  0  0  0  0  0
   -0.4914    1.4972   -1.0950 H   0  0  0  0  0  0  0  0  0  0  0  0
    0.8923    0.2222   -2.7607 H   0  0  0  0  0  0  0  0  0  0  0  0
    3.1797   -1.0755   -2.2583 N   0  0  0  0  0  0  0  0  0  0  0  0
    4.1807   -1.6559   -1.8420 O   0  0  0  0  0  0  0  0  0  0  0  0
    2.8091   -1.0783   -3.4312 O   0  0  0  0  0  0  0  0  0  0  0  0
    1.7643    2.8504    0.3769 N   0  0  0  0  0  0  0  0  0  0  0  0
    2.6152    3.2392   -0.2227 N   0  0  0  0  0  0  0  0  0  0  0  0
    0.1080    1.9268    3.0022 S   0  0  0  0  0  0  0  0  0  0  0  0
    0.0251    0.3990    3.6030 O   0  0  0  0  0  0  0  0  0  0  0  0
   -0.9160    0.1709    3.7017 H   0  0  0  0  0  0  0  0  0  0  0  0
   -0.1169    1.6435    1.3765 O   0  0  0  0  0  0  0  0  0  0  0  0
   -1.0998    2.6583    3.3867 O   0  0  0  0  0  0  0  0  0  0  0  0
    1.4743    2.3763    3.2715 O   0  0  0  0  0  0  0  0  0  0  0  0
  1  7  1  0  0  0  0
  1  2  2  0  0  0  0
  2  8  1  0  0  0  0
  3  2  1  0  0  0  0
  3 19  1  0  0  0  0
  4  3  2  0  0  0  0
  5  6  2  0  0  0  0
  5  4  1  0  0  0  0
  6  1  1  0  0  0  0
  9  4  1  0  0  0  0
 10  5  1  0  0  0  0
 11 12  2  0  0  0  0
 11  6  1  0  0  0  0
 13 11  2  0  0  0  0
 15 14  3  0  0  0  0
 16 21  2  0  0  0  0
 16 20  2  0  0  0  0
 16 17  1  0  0  0  0
 17 18  1  0  0  0  0
 19 16  1  0  0  0  0
M  END
