Coordinates from ORCA-job p-NO2-Ph-N2-HSO4-B3LYPG-aug-cc-pVDZ-scan-d09-49-n400
 OpenBabel12261916533D

 21 20  0  0  0  0  0  0  0  0999 V2000
    2.5847   -0.6844    0.0958 C   0  0  0  0  0  0  0  0  0  0  0  0
    1.7468   -0.0850    1.0364 C   0  0  0  0  0  0  0  0  0  0  0  0
    0.6541    0.6584    0.5853 C   0  0  0  0  0  0  0  0  0  0  0  0
    0.3827    0.8154   -0.7787 C   0  0  0  0  0  0  0  0  0  0  0  0
    1.2147    0.2086   -1.7141 C   0  0  0  0  0  0  0  0  0  0  0  0
    2.3085   -0.5333   -1.2625 C   0  0  0  0  0  0  0  0  0  0  0  0
    3.4458   -1.2697    0.4078 H   0  0  0  0  0  0  0  0  0  0  0  0
    1.9531   -0.2026    2.0961 H   0  0  0  0  0  0  0  0  0  0  0  0
   -0.4758    1.4084   -1.0875 H   0  0  0  0  0  0  0  0  0  0  0  0
    1.0312    0.3072   -2.7808 H   0  0  0  0  0  0  0  0  0  0  0  0
    3.1947   -1.1752   -2.2494 N   0  0  0  0  0  0  0  0  0  0  0  0
    4.1534   -1.8160   -1.8253 O   0  0  0  0  0  0  0  0  0  0  0  0
    2.9302   -1.0203   -3.4394 O   0  0  0  0  0  0  0  0  0  0  0  0
    2.2224    4.4482    0.0364 N   0  0  0  0  0  0  0  0  0  0  0  0
    3.0118    5.0883   -0.3954 N   0  0  0  0  0  0  0  0  0  0  0  0
    0.0924    1.8116    2.9532 S   0  0  0  0  0  0  0  0  0  0  0  0
    0.1104    0.4007    3.8027 O   0  0  0  0  0  0  0  0  0  0  0  0
   -0.8079    0.1986    4.0539 H   0  0  0  0  0  0  0  0  0  0  0  0
   -0.2874    1.2592    1.4250 O   0  0  0  0  0  0  0  0  0  0  0  0
   -1.0920    2.5812    3.3388 O   0  0  0  0  0  0  0  0  0  0  0  0
    1.4637    2.3163    2.9938 O   0  0  0  0  0  0  0  0  0  0  0  0
  1  7  1  0  0  0  0
  1  2  2  0  0  0  0
  2  8  1  0  0  0  0
  3  2  1  0  0  0  0
  3 19  1  0  0  0  0
  4  3  2  0  0  0  0
  5  6  2  0  0  0  0
  5  4  1  0  0  0  0
  6  1  1  0  0  0  0
  9  4  1  0  0  0  0
 10  5  1  0  0  0  0
 11 12  2  0  0  0  0
 11  6  1  0  0  0  0
 13 11  2  0  0  0  0
 15 14  3  0  0  0  0
 16 21  2  0  0  0  0
 16 20  2  0  0  0  0
 16 17  1  0  0  0  0
 17 18  1  0  0  0  0
 19 16  1  0  0  0  0
M  END
