Coordinates from ORCA-job p-NO2-Ph-N2-HSO4-B3LYPG-aug-cc-pVDZ-scan-d09-49-n400
 OpenBabel12261916533D

 21 20  0  0  0  0  0  0  0  0999 V2000
    2.6853   -0.4664    0.0707 C   0  0  0  0  0  0  0  0  0  0  0  0
    1.8905    0.1963    1.0068 C   0  0  0  0  0  0  0  0  0  0  0  0
    0.7398    0.8540    0.5641 C   0  0  0  0  0  0  0  0  0  0  0  0
    0.3717    0.8600   -0.7869 C   0  0  0  0  0  0  0  0  0  0  0  0
    1.1653    0.1965   -1.7160 C   0  0  0  0  0  0  0  0  0  0  0  0
    2.3166   -0.4598   -1.2736 C   0  0  0  0  0  0  0  0  0  0  0  0
    3.5882   -0.9879    0.3780 H   0  0  0  0  0  0  0  0  0  0  0  0
    2.1803    0.1987    2.0525 H   0  0  0  0  0  0  0  0  0  0  0  0
   -0.5317    1.3850   -1.0910 H   0  0  0  0  0  0  0  0  0  0  0  0
    0.9062    0.1822   -2.7714 H   0  0  0  0  0  0  0  0  0  0  0  0
    3.1605   -1.1649   -2.2528 N   0  0  0  0  0  0  0  0  0  0  0  0
    4.1663   -1.7348   -1.8361 O   0  0  0  0  0  0  0  0  0  0  0  0
    2.8088   -1.1422   -3.4303 O   0  0  0  0  0  0  0  0  0  0  0  0
    2.0729    3.7697    0.2076 N   0  0  0  0  0  0  0  0  0  0  0  0
    2.9400    4.2815   -0.2458 N   0  0  0  0  0  0  0  0  0  0  0  0
    0.1023    1.8461    2.9987 S   0  0  0  0  0  0  0  0  0  0  0  0
   -0.0113    0.3364    3.6435 O   0  0  0  0  0  0  0  0  0  0  0  0
   -0.9560    0.1456    3.7800 H   0  0  0  0  0  0  0  0  0  0  0  0
   -0.1661    1.5270    1.3858 O   0  0  0  0  0  0  0  0  0  0  0  0
   -1.0756    2.6248    3.3831 O   0  0  0  0  0  0  0  0  0  0  0  0
    1.4837    2.2677    3.2251 O   0  0  0  0  0  0  0  0  0  0  0  0
  1  7  1  0  0  0  0
  1  2  2  0  0  0  0
  2  8  1  0  0  0  0
  3  2  1  0  0  0  0
  3 19  1  0  0  0  0
  4  3  2  0  0  0  0
  5  6  2  0  0  0  0
  5  4  1  0  0  0  0
  6  1  1  0  0  0  0
  9  4  1  0  0  0  0
 10  5  1  0  0  0  0
 11 12  2  0  0  0  0
 11  6  1  0  0  0  0
 13 11  2  0  0  0  0
 15 14  3  0  0  0  0
 16 21  2  0  0  0  0
 16 20  2  0  0  0  0
 16 17  1  0  0  0  0
 17 18  1  0  0  0  0
 19 16  1  0  0  0  0
M  END
