Coordinates from ORCA-job p-NO2-Ph-N2-HSO4-B3LYPG-aug-cc-pVDZ-scan-d09-49-n400
 OpenBabel12261916533D

 21 20  0  0  0  0  0  0  0  0999 V2000
    2.5600   -0.7374    0.1023 C   0  0  0  0  0  0  0  0  0  0  0  0
    1.7131   -0.1530    1.0438 C   0  0  0  0  0  0  0  0  0  0  0  0
    0.6376    0.6165    0.5940 C   0  0  0  0  0  0  0  0  0  0  0  0
    0.3903    0.8124   -0.7692 C   0  0  0  0  0  0  0  0  0  0  0  0
    1.2308    0.2196   -1.7064 C   0  0  0  0  0  0  0  0  0  0  0  0
    2.3082   -0.5466   -1.2562 C   0  0  0  0  0  0  0  0  0  0  0  0
    3.4085   -1.3418    0.4124 H   0  0  0  0  0  0  0  0  0  0  0  0
    1.8966   -0.3020    2.1040 H   0  0  0  0  0  0  0  0  0  0  0  0
   -0.4563    1.4229   -1.0765 H   0  0  0  0  0  0  0  0  0  0  0  0
    1.0664    0.3475   -2.7732 H   0  0  0  0  0  0  0  0  0  0  0  0
    3.2034   -1.1732   -2.2451 N   0  0  0  0  0  0  0  0  0  0  0  0
    4.1466   -1.8375   -1.8223 O   0  0  0  0  0  0  0  0  0  0  0  0
    2.9598   -0.9855   -3.4348 O   0  0  0  0  0  0  0  0  0  0  0  0
    2.2550    4.6050   -0.0282 N   0  0  0  0  0  0  0  0  0  0  0  0
    3.0235    5.2696   -0.4607 N   0  0  0  0  0  0  0  0  0  0  0  0
    0.0880    1.7979    2.9460 S   0  0  0  0  0  0  0  0  0  0  0  0
    0.1360    0.4111    3.8339 O   0  0  0  0  0  0  0  0  0  0  0  0
   -0.7753    0.2087    4.1092 H   0  0  0  0  0  0  0  0  0  0  0  0
   -0.3107    1.1993    1.4392 O   0  0  0  0  0  0  0  0  0  0  0  0
   -1.0983    2.5644    3.3326 O   0  0  0  0  0  0  0  0  0  0  0  0
    1.4543    2.3175    2.9473 O   0  0  0  0  0  0  0  0  0  0  0  0
  1  7  1  0  0  0  0
  1  2  2  0  0  0  0
  2  8  1  0  0  0  0
  3  2  1  0  0  0  0
  3 19  1  0  0  0  0
  4  3  2  0  0  0  0
  5  6  2  0  0  0  0
  5  4  1  0  0  0  0
  6  1  1  0  0  0  0
  9  4  1  0  0  0  0
 10  5  1  0  0  0  0
 11 12  2  0  0  0  0
 11  6  1  0  0  0  0
 13 11  2  0  0  0  0
 15 14  3  0  0  0  0
 16 21  2  0  0  0  0
 16 20  2  0  0  0  0
 16 17  1  0  0  0  0
 17 18  1  0  0  0  0
 19 16  1  0  0  0  0
M  END
