Coordinates from ORCA-job p-NO2-Ph-N2-HSO4-B3LYPG-aug-cc-pVDZ-scan-d09-49-n400
 OpenBabel12261916533D

 21 21  0  0  1  0  0  0  0  0999 V2000
    2.1822   -0.2705    0.2029 C   0  0  0  0  0  0  0  0  0  0  0  0
    1.7581    1.0035    0.8341 C   0  0  1  0  0  0  0  0  0  0  0  0
    1.6290    2.0622   -0.1827 C   0  0  1  0  0  0  0  0  0  0  0  0
    1.4458    1.8271   -1.5769 C   0  0  0  0  0  0  0  0  0  0  0  0
    1.6253    0.5629   -2.0603 C   0  0  0  0  0  0  0  0  0  0  0  0
    2.0464   -0.4519   -1.1348 C   0  0  0  0  0  0  0  0  0  0  0  0
    2.5539   -1.0717    0.8348 H   0  0  0  0  0  0  0  0  0  0  0  0
    2.3650    1.2853    1.6968 H   0  0  0  0  0  0  0  0  0  0  0  0
    1.1829    2.6537   -2.2346 H   0  0  0  0  0  0  0  0  0  0  0  0
    1.5008    0.3214   -3.1101 H   0  0  0  0  0  0  0  0  0  0  0  0
    2.4022   -1.7857   -1.6919 N   0  0  0  0  0  0  0  0  0  0  0  0
    2.8390   -2.6360   -0.9239 O   0  0  0  0  0  0  0  0  0  0  0  0
    2.2338   -1.9503   -2.8962 O   0  0  0  0  0  0  0  0  0  0  0  0
    1.6014    3.4077    0.2745 N   0  0  0  0  0  0  0  0  0  0  0  0
    1.5815    4.4767    0.6288 N   0  0  0  0  0  0  0  0  0  0  0  0
    0.0254    1.2674    2.9321 S   0  0  0  0  0  0  0  0  0  0  0  0
    0.8981    0.2517    3.9062 O   0  0  0  0  0  0  0  0  0  0  0  0
    0.3500   -0.5360    4.0644 H   0  0  0  0  0  0  0  0  0  0  0  0
    0.3419    0.6797    1.4505 O   0  0  0  0  0  0  0  0  0  0  0  0
   -1.4042    1.0413    3.1818 O   0  0  0  0  0  0  0  0  0  0  0  0
    0.6791    2.5768    3.0966 O   0  0  0  0  0  0  0  0  0  0  0  0
  1  2  1  0  0  0  0
  1  7  1  0  0  0  0
  2 19  1  0  0  0  0
  2  8  1  1  0  0  0
  3 14  1  1  0  0  0
  3  2  1  0  0  0  0
  4  3  1  0  0  0  0
  5  4  2  0  0  0  0
  5  6  1  0  0  0  0
  6  1  2  0  0  0  0
  9  4  1  0  0  0  0
 10  5  1  0  0  0  0
 11  6  1  0  0  0  0
 11 12  2  0  0  0  0
 13 11  2  0  0  0  0
 14 15  1  0  0  0  0
 16 21  2  0  0  0  0
 16 20  2  0  0  0  0
 16 17  1  0  0  0  0
 17 18  1  0  0  0  0
 19 16  1  0  0  0  0
M  RAD  3   3   2  14   2  15   3
M  END
