Coordinates from ORCA-job p-NO2-Ph-N2-HSO4-B3LYPG-aug-cc-pVDZ-scan-d09-49-n400
 OpenBabel12261916533D

 21 20  0  0  0  0  0  0  0  0999 V2000
    2.6602   -0.5216    0.0772 C   0  0  0  0  0  0  0  0  0  0  0  0
    1.8554    0.1276    1.0139 C   0  0  0  0  0  0  0  0  0  0  0  0
    0.7179    0.8050    0.5666 C   0  0  0  0  0  0  0  0  0  0  0  0
    0.3729    0.8450   -0.7898 C   0  0  0  0  0  0  0  0  0  0  0  0
    1.1754    0.1930   -1.7198 C   0  0  0  0  0  0  0  0  0  0  0  0
    2.3131   -0.4831   -1.2725 C   0  0  0  0  0  0  0  0  0  0  0  0
    3.5533   -1.0578    0.3876 H   0  0  0  0  0  0  0  0  0  0  0  0
    2.1262    0.1027    2.0645 H   0  0  0  0  0  0  0  0  0  0  0  0
   -0.5199    1.3857   -1.0973 H   0  0  0  0  0  0  0  0  0  0  0  0
    0.9343    0.2041   -2.7795 H   0  0  0  0  0  0  0  0  0  0  0  0
    3.1670   -1.1750   -2.2528 N   0  0  0  0  0  0  0  0  0  0  0  0
    4.1606   -1.7629   -1.8319 O   0  0  0  0  0  0  0  0  0  0  0  0
    2.8347   -1.1245   -3.4350 O   0  0  0  0  0  0  0  0  0  0  0  0
    2.1149    3.9644    0.1763 N   0  0  0  0  0  0  0  0  0  0  0  0
    2.9633    4.5149   -0.2664 N   0  0  0  0  0  0  0  0  0  0  0  0
    0.1008    1.8381    2.9873 S   0  0  0  0  0  0  0  0  0  0  0  0
    0.0213    0.3490    3.6839 O   0  0  0  0  0  0  0  0  0  0  0  0
   -0.9175    0.1512    3.8477 H   0  0  0  0  0  0  0  0  0  0  0  0
   -0.1971    1.4624    1.3914 O   0  0  0  0  0  0  0  0  0  0  0  0
   -1.0801    2.6122    3.3724 O   0  0  0  0  0  0  0  0  0  0  0  0
    1.4808    2.2848    3.1687 O   0  0  0  0  0  0  0  0  0  0  0  0
  1  7  1  0  0  0  0
  1  2  2  0  0  0  0
  2  8  1  0  0  0  0
  3  2  1  0  0  0  0
  3 19  1  0  0  0  0
  4  3  2  0  0  0  0
  5  6  2  0  0  0  0
  5  4  1  0  0  0  0
  6  1  1  0  0  0  0
  9  4  1  0  0  0  0
 10  5  1  0  0  0  0
 11 12  2  0  0  0  0
 11  6  1  0  0  0  0
 13 11  2  0  0  0  0
 15 14  3  0  0  0  0
 16 21  2  0  0  0  0
 16 20  2  0  0  0  0
 16 17  1  0  0  0  0
 17 18  1  0  0  0  0
 19 16  1  0  0  0  0
M  END
