Coordinates from ORCA-job p-NO2-Ph-N2-HSO4-B3LYPG-aug-cc-pVDZ-scan-d09-49-n400
 OpenBabel12261916533D

 21 20  0  0  0  0  0  0  0  0999 V2000
    2.6428   -0.5588    0.0812 C   0  0  0  0  0  0  0  0  0  0  0  0
    1.8304    0.0796    1.0188 C   0  0  0  0  0  0  0  0  0  0  0  0
    0.7017    0.7701    0.5694 C   0  0  0  0  0  0  0  0  0  0  0  0
    0.3723    0.8342   -0.7898 C   0  0  0  0  0  0  0  0  0  0  0  0
    1.1816    0.1917   -1.7208 C   0  0  0  0  0  0  0  0  0  0  0  0
    2.3105   -0.4976   -1.2714 C   0  0  0  0  0  0  0  0  0  0  0  0
    3.5295   -1.1046    0.3929 H   0  0  0  0  0  0  0  0  0  0  0  0
    2.0879    0.0359    2.0724 H   0  0  0  0  0  0  0  0  0  0  0  0
   -0.5137    1.3853   -1.0988 H   0  0  0  0  0  0  0  0  0  0  0  0
    0.9526    0.2207   -2.7829 H   0  0  0  0  0  0  0  0  0  0  0  0
    3.1717   -1.1788   -2.2530 N   0  0  0  0  0  0  0  0  0  0  0  0
    4.1625   -1.7706   -1.8312 O   0  0  0  0  0  0  0  0  0  0  0  0
    2.8579   -1.1005   -3.4387 O   0  0  0  0  0  0  0  0  0  0  0  0
    2.1451    4.0820    0.1520 N   0  0  0  0  0  0  0  0  0  0  0  0
    2.9814    4.6544   -0.2871 N   0  0  0  0  0  0  0  0  0  0  0  0
    0.0992    1.8332    2.9788 S   0  0  0  0  0  0  0  0  0  0  0  0
    0.0412    0.3613    3.7137 O   0  0  0  0  0  0  0  0  0  0  0  0
   -0.8934    0.1623    3.8989 H   0  0  0  0  0  0  0  0  0  0  0  0
   -0.2201    1.4148    1.3972 O   0  0  0  0  0  0  0  0  0  0  0  0
   -1.0820    2.6071    3.3639 O   0  0  0  0  0  0  0  0  0  0  0  0
    1.4786    2.2936    3.1265 O   0  0  0  0  0  0  0  0  0  0  0  0
  1  7  1  0  0  0  0
  1  2  2  0  0  0  0
  2  8  1  0  0  0  0
  3  2  1  0  0  0  0
  3 19  1  0  0  0  0
  4  3  2  0  0  0  0
  5  6  2  0  0  0  0
  5  4  1  0  0  0  0
  6  1  1  0  0  0  0
  9  4  1  0  0  0  0
 10  5  1  0  0  0  0
 11 12  2  0  0  0  0
 11  6  1  0  0  0  0
 13 11  2  0  0  0  0
 15 14  3  0  0  0  0
 16 21  2  0  0  0  0
 16 20  2  0  0  0  0
 16 17  1  0  0  0  0
 17 18  1  0  0  0  0
 19 16  1  0  0  0  0
M  END
