Coordinates from ORCA-job p-NO2-Ph-N2-HSO4-B3LYPG-aug-cc-pVDZ-scan-d09-49-n400
 OpenBabel12261916533D

 21 20  0  0  0  0  0  0  0  0999 V2000
    2.6699   -0.4088    0.0608 C   0  0  0  0  0  0  0  0  0  0  0  0
    2.3009    0.7529    0.7469 C   0  0  0  0  0  0  0  0  0  0  0  0
    1.6360    1.6895   -0.0112 C   0  0  0  0  0  0  0  0  0  0  0  0
    1.2814    1.6253   -1.3475 C   0  0  0  0  0  0  0  0  0  0  0  0
    1.6545    0.4509   -2.0043 C   0  0  0  0  0  0  0  0  0  0  0  0
    2.3422   -0.5329   -1.2897 C   0  0  0  0  0  0  0  0  0  0  0  0
    3.1935   -1.2136    0.5698 H   0  0  0  0  0  0  0  0  0  0  0  0
    2.4763    0.9102    1.8077 H   0  0  0  0  0  0  0  0  0  0  0  0
    0.7370    2.4200   -1.8499 H   0  0  0  0  0  0  0  0  0  0  0  0
    1.4145    0.2948   -3.0529 H   0  0  0  0  0  0  0  0  0  0  0  0
    2.7379   -1.7733   -2.0048 N   0  0  0  0  0  0  0  0  0  0  0  0
    3.3507   -2.6195   -1.3658 O   0  0  0  0  0  0  0  0  0  0  0  0
    2.4269   -1.8633   -3.1872 O   0  0  0  0  0  0  0  0  0  0  0  0
    1.2474    3.1092    0.7162 N   0  0  0  0  0  0  0  0  0  0  0  0
    1.0260    4.1966    0.6499 N   0  0  0  0  0  0  0  0  0  0  0  0
   -0.2026    1.6712    2.9512 S   0  0  0  0  0  0  0  0  0  0  0  0
    0.2686    0.0623    3.1829 O   0  0  0  0  0  0  0  0  0  0  0  0
    0.0066   -0.1503    4.0919 H   0  0  0  0  0  0  0  0  0  0  0  0
   -0.8857    1.6609    1.6213 O   0  0  0  0  0  0  0  0  0  0  0  0
   -0.9872    2.0224    4.1588 O   0  0  0  0  0  0  0  0  0  0  0  0
    1.1428    2.4110    2.8480 O   0  0  0  0  0  0  0  0  0  0  0  0
  1  7  1  0  0  0  0
  1  2  1  0  0  0  0
  2  8  1  0  0  0  0
  3 14  1  0  0  0  0
  3  2  2  0  0  0  0
  4  3  1  0  0  0  0
  5  4  2  0  0  0  0
  5  6  1  0  0  0  0
  6  1  2  0  0  0  0
  9  4  1  0  0  0  0
 10  5  1  0  0  0  0
 11 12  2  0  0  0  0
 11  6  1  0  0  0  0
 13 11  2  0  0  0  0
 15 14  2  0  0  0  0
 16 17  1  0  0  0  0
 16 20  1  0  0  0  0
 17 18  1  0  0  0  0
 19 16  2  0  0  0  0
 21 16  2  0  0  0  0
M  RAD  2  15   2  20   2
M  END
