Coordinates from ORCA-job p-NO2-Ph-N2-HSO4-B3LYPG-aug-cc-pVDZ-scan-d09-49-n400
 OpenBabel12261916533D

 21 20  0  0  0  0  0  0  0  0999 V2000
    2.6501   -0.5434    0.0795 C   0  0  0  0  0  0  0  0  0  0  0  0
    1.8406    0.0991    1.0169 C   0  0  0  0  0  0  0  0  0  0  0  0
    0.7078    0.7834    0.5683 C   0  0  0  0  0  0  0  0  0  0  0  0
    0.3721    0.8379   -0.7898 C   0  0  0  0  0  0  0  0  0  0  0  0
    1.1789    0.1919   -1.7204 C   0  0  0  0  0  0  0  0  0  0  0  0
    2.3116   -0.4916   -1.2719 C   0  0  0  0  0  0  0  0  0  0  0  0
    3.5399   -1.0847    0.3907 H   0  0  0  0  0  0  0  0  0  0  0  0
    2.1037    0.0637    2.0693 H   0  0  0  0  0  0  0  0  0  0  0  0
   -0.5168    1.3847   -1.0981 H   0  0  0  0  0  0  0  0  0  0  0  0
    0.9449    0.2138   -2.7816 H   0  0  0  0  0  0  0  0  0  0  0  0
    3.1702   -1.1767   -2.2531 N   0  0  0  0  0  0  0  0  0  0  0  0
    4.1608   -1.7689   -1.8315 O   0  0  0  0  0  0  0  0  0  0  0  0
    2.8472   -1.1122   -3.4372 O   0  0  0  0  0  0  0  0  0  0  0  0
    2.1353    4.0375    0.1614 N   0  0  0  0  0  0  0  0  0  0  0  0
    2.9765    4.6015   -0.2789 N   0  0  0  0  0  0  0  0  0  0  0  0
    0.0993    1.8348    2.9824 S   0  0  0  0  0  0  0  0  0  0  0  0
    0.0330    0.3556    3.7016 O   0  0  0  0  0  0  0  0  0  0  0  0
   -0.9033    0.1566    3.8778 H   0  0  0  0  0  0  0  0  0  0  0  0
   -0.2111    1.4337    1.3948 O   0  0  0  0  0  0  0  0  0  0  0  0
   -1.0820    2.6083    3.3674 O   0  0  0  0  0  0  0  0  0  0  0  0
    1.4788    2.2903    3.1444 O   0  0  0  0  0  0  0  0  0  0  0  0
  1  7  1  0  0  0  0
  1  2  2  0  0  0  0
  2  8  1  0  0  0  0
  3  2  1  0  0  0  0
  3 19  1  0  0  0  0
  4  3  2  0  0  0  0
  5  6  2  0  0  0  0
  5  4  1  0  0  0  0
  6  1  1  0  0  0  0
  9  4  1  0  0  0  0
 10  5  1  0  0  0  0
 11 12  2  0  0  0  0
 11  6  1  0  0  0  0
 13 11  2  0  0  0  0
 15 14  3  0  0  0  0
 16 21  2  0  0  0  0
 16 20  2  0  0  0  0
 16 17  1  0  0  0  0
 17 18  1  0  0  0  0
 19 16  1  0  0  0  0
M  END
