Coordinates from ORCA-job p-NO2-Ph-N2-HSO4-B3LYPG-aug-cc-pVDZ-scan-d09-49-n400
 OpenBabel12261916533D

 21 20  0  0  0  0  0  0  0  0999 V2000
    2.7303   -0.3476    0.0617 C   0  0  0  0  0  0  0  0  0  0  0  0
    1.9564    0.3411    0.9912 C   0  0  0  0  0  0  0  0  0  0  0  0
    0.8534    1.0840    0.5408 C   0  0  0  0  0  0  0  0  0  0  0  0
    0.4179    0.9784   -0.7930 C   0  0  0  0  0  0  0  0  0  0  0  0
    1.1891    0.2884   -1.7164 C   0  0  0  0  0  0  0  0  0  0  0  0
    2.3557   -0.3496   -1.2827 C   0  0  0  0  0  0  0  0  0  0  0  0
    3.6153   -0.8969    0.3727 H   0  0  0  0  0  0  0  0  0  0  0  0
    2.2472    0.3459    2.0368 H   0  0  0  0  0  0  0  0  0  0  0  0
   -0.5005    1.4809   -1.0898 H   0  0  0  0  0  0  0  0  0  0  0  0
    0.8953    0.2241   -2.7609 H   0  0  0  0  0  0  0  0  0  0  0  0
    3.1770   -1.0831   -2.2569 N   0  0  0  0  0  0  0  0  0  0  0  0
    4.1838   -1.6537   -1.8423 O   0  0  0  0  0  0  0  0  0  0  0  0
    2.8058   -1.0861   -3.4290 O   0  0  0  0  0  0  0  0  0  0  0  0
    1.8047    2.9388    0.3531 N   0  0  0  0  0  0  0  0  0  0  0  0
    2.6516    3.3247   -0.2482 N   0  0  0  0  0  0  0  0  0  0  0  0
    0.1127    1.9152    3.0074 S   0  0  0  0  0  0  0  0  0  0  0  0
    0.0004    0.3855    3.5995 O   0  0  0  0  0  0  0  0  0  0  0  0
   -0.9450    0.1747    3.6954 H   0  0  0  0  0  0  0  0  0  0  0  0
   -0.1146    1.6431    1.3790 O   0  0  0  0  0  0  0  0  0  0  0  0
   -1.0833    2.6672    3.3888 O   0  0  0  0  0  0  0  0  0  0  0  0
    1.4845    2.3403    3.2848 O   0  0  0  0  0  0  0  0  0  0  0  0
  1  7  1  0  0  0  0
  1  2  2  0  0  0  0
  2  8  1  0  0  0  0
  3  2  1  0  0  0  0
  3 19  1  0  0  0  0
  4  3  2  0  0  0  0
  5  6  2  0  0  0  0
  5  4  1  0  0  0  0
  6  1  1  0  0  0  0
  9  4  1  0  0  0  0
 10  5  1  0  0  0  0
 11 12  2  0  0  0  0
 11  6  1  0  0  0  0
 13 11  2  0  0  0  0
 15 14  3  0  0  0  0
 16 21  2  0  0  0  0
 16 20  2  0  0  0  0
 16 17  1  0  0  0  0
 17 18  1  0  0  0  0
 19 16  1  0  0  0  0
M  END
