Coordinates from ORCA-job p-NO2-Ph-N2-HSO4-B3LYPG-aug-cc-pVDZ-scan-d09-49-n400
 OpenBabel12261916533D

 21 20  0  0  0  0  0  0  0  0999 V2000
    2.6745   -0.4909    0.0733 C   0  0  0  0  0  0  0  0  0  0  0  0
    1.8752    0.1657    1.0098 C   0  0  0  0  0  0  0  0  0  0  0  0
    0.7298    0.8312    0.5651 C   0  0  0  0  0  0  0  0  0  0  0  0
    0.3719    0.8525   -0.7885 C   0  0  0  0  0  0  0  0  0  0  0  0
    1.1696    0.1944   -1.7180 C   0  0  0  0  0  0  0  0  0  0  0  0
    2.3150   -0.4703   -1.2734 C   0  0  0  0  0  0  0  0  0  0  0  0
    3.5734   -1.0184    0.3819 H   0  0  0  0  0  0  0  0  0  0  0  0
    2.1569    0.1566    2.0578 H   0  0  0  0  0  0  0  0  0  0  0  0
   -0.5269    1.3845   -1.0941 H   0  0  0  0  0  0  0  0  0  0  0  0
    0.9184    0.1915   -2.7755 H   0  0  0  0  0  0  0  0  0  0  0  0
    3.1635   -1.1690   -2.2531 N   0  0  0  0  0  0  0  0  0  0  0  0
    4.1640   -1.7468   -1.8345 O   0  0  0  0  0  0  0  0  0  0  0  0
    2.8201   -1.1342   -3.4327 O   0  0  0  0  0  0  0  0  0  0  0  0
    2.0901    3.8549    0.1952 N   0  0  0  0  0  0  0  0  0  0  0  0
    2.9500    4.3837   -0.2520 N   0  0  0  0  0  0  0  0  0  0  0  0
    0.1022    1.8434    2.9934 S   0  0  0  0  0  0  0  0  0  0  0  0
    0.0028    0.3428    3.6620 O   0  0  0  0  0  0  0  0  0  0  0  0
   -0.9395    0.1488    3.8095 H   0  0  0  0  0  0  0  0  0  0  0  0
   -0.1797    1.4983    1.3880 O   0  0  0  0  0  0  0  0  0  0  0  0
   -1.0768    2.6209    3.3774 O   0  0  0  0  0  0  0  0  0  0  0  0
    1.4832    2.2759    3.2007 O   0  0  0  0  0  0  0  0  0  0  0  0
  1  7  1  0  0  0  0
  1  2  2  0  0  0  0
  2  8  1  0  0  0  0
  3  2  1  0  0  0  0
  3 19  1  0  0  0  0
  4  3  2  0  0  0  0
  5  6  2  0  0  0  0
  5  4  1  0  0  0  0
  6  1  1  0  0  0  0
  9  4  1  0  0  0  0
 10  5  1  0  0  0  0
 11 12  2  0  0  0  0
 11  6  1  0  0  0  0
 13 11  2  0  0  0  0
 15 14  3  0  0  0  0
 16 21  2  0  0  0  0
 16 20  2  0  0  0  0
 16 17  1  0  0  0  0
 17 18  1  0  0  0  0
 19 16  1  0  0  0  0
M  END
