Coordinates from ORCA-job p-NO2-Ph-N2-HSO4-B3LYPG-aug-cc-pVDZ-scan-d09-49-n400
 OpenBabel12261916533D

 21 20  0  0  0  0  0  0  0  0999 V2000
    2.7054   -0.4182    0.0675 C   0  0  0  0  0  0  0  0  0  0  0  0
    1.9185    0.2548    1.0028 C   0  0  0  0  0  0  0  0  0  0  0  0
    0.7607    0.9029    0.5640 C   0  0  0  0  0  0  0  0  0  0  0  0
    0.3748    0.8825   -0.7822 C   0  0  0  0  0  0  0  0  0  0  0  0
    1.1609    0.2098   -1.7108 C   0  0  0  0  0  0  0  0  0  0  0  0
    2.3214   -0.4331   -1.2726 C   0  0  0  0  0  0  0  0  0  0  0  0
    3.6139   -0.9314    0.3720 H   0  0  0  0  0  0  0  0  0  0  0  0
    2.2210    0.2748    2.0448 H   0  0  0  0  0  0  0  0  0  0  0  0
   -0.5359    1.3966   -1.0834 H   0  0  0  0  0  0  0  0  0  0  0  0
    0.8886    0.1771   -2.7625 H   0  0  0  0  0  0  0  0  0  0  0  0
    3.1572   -1.1488   -2.2509 N   0  0  0  0  0  0  0  0  0  0  0  0
    4.1705   -1.7078   -1.8377 O   0  0  0  0  0  0  0  0  0  0  0  0
    2.7911   -1.1461   -3.4243 O   0  0  0  0  0  0  0  0  0  0  0  0
    2.0322    3.5715    0.2270 N   0  0  0  0  0  0  0  0  0  0  0  0
    2.9068    4.0387   -0.2589 N   0  0  0  0  0  0  0  0  0  0  0  0
    0.1013    1.8536    3.0101 S   0  0  0  0  0  0  0  0  0  0  0  0
   -0.0329    0.3278    3.6109 O   0  0  0  0  0  0  0  0  0  0  0  0
   -0.9810    0.1389    3.7242 H   0  0  0  0  0  0  0  0  0  0  0  0
   -0.1405    1.5816    1.3848 O   0  0  0  0  0  0  0  0  0  0  0  0
   -1.0776    2.6308    3.3944 O   0  0  0  0  0  0  0  0  0  0  0  0
    1.4811    2.2594    3.2732 O   0  0  0  0  0  0  0  0  0  0  0  0
  1  7  1  0  0  0  0
  1  2  2  0  0  0  0
  2  8  1  0  0  0  0
  3  2  1  0  0  0  0
  3 19  1  0  0  0  0
  4  3  2  0  0  0  0
  5  6  2  0  0  0  0
  5  4  1  0  0  0  0
  6  1  1  0  0  0  0
  9  4  1  0  0  0  0
 10  5  1  0  0  0  0
 11 12  2  0  0  0  0
 11  6  1  0  0  0  0
 13 11  2  0  0  0  0
 15 14  3  0  0  0  0
 16 21  2  0  0  0  0
 16 20  2  0  0  0  0
 16 17  1  0  0  0  0
 17 18  1  0  0  0  0
 19 16  1  0  0  0  0
M  END
