Coordinates from ORCA-job p-NO2-Ph-N2-HSO4-B3LYPG-aug-cc-pVDZ-scan-d09-49-n400
 OpenBabel12261916533D

 21 20  0  0  0  0  0  0  0  0999 V2000
    2.7256   -0.3653    0.0647 C   0  0  0  0  0  0  0  0  0  0  0  0
    1.9452    0.3155    0.9990 C   0  0  0  0  0  0  0  0  0  0  0  0
    0.7965    0.9797    0.5602 C   0  0  0  0  0  0  0  0  0  0  0  0
    0.3916    0.9299   -0.7801 C   0  0  0  0  0  0  0  0  0  0  0  0
    1.1709    0.2498   -1.7082 C   0  0  0  0  0  0  0  0  0  0  0  0
    2.3368   -0.3863   -1.2740 C   0  0  0  0  0  0  0  0  0  0  0  0
    3.6318   -0.8826    0.3691 H   0  0  0  0  0  0  0  0  0  0  0  0
    2.2519    0.3395    2.0396 H   0  0  0  0  0  0  0  0  0  0  0  0
   -0.5241    1.4361   -1.0789 H   0  0  0  0  0  0  0  0  0  0  0  0
    0.8874    0.2025   -2.7564 H   0  0  0  0  0  0  0  0  0  0  0  0
    3.1656   -1.1102   -2.2518 N   0  0  0  0  0  0  0  0  0  0  0  0
    4.1799   -1.6686   -1.8400 O   0  0  0  0  0  0  0  0  0  0  0  0
    2.7904   -1.1188   -3.4222 O   0  0  0  0  0  0  0  0  0  0  0  0
    1.9284    3.2187    0.2834 N   0  0  0  0  0  0  0  0  0  0  0  0
    2.7807    3.6262   -0.2897 N   0  0  0  0  0  0  0  0  0  0  0  0
    0.1089    1.8802    3.0175 S   0  0  0  0  0  0  0  0  0  0  0  0
   -0.0404    0.3444    3.5872 O   0  0  0  0  0  0  0  0  0  0  0  0
   -0.9908    0.1563    3.6805 H   0  0  0  0  0  0  0  0  0  0  0  0
   -0.1140    1.6378    1.3840 O   0  0  0  0  0  0  0  0  0  0  0  0
   -1.0714    2.6560    3.4001 O   0  0  0  0  0  0  0  0  0  0  0  0
    1.4867    2.2744    3.3084 O   0  0  0  0  0  0  0  0  0  0  0  0
  1  7  1  0  0  0  0
  1  2  2  0  0  0  0
  2  8  1  0  0  0  0
  3  2  1  0  0  0  0
  3 19  1  0  0  0  0
  4  3  2  0  0  0  0
  5  6  2  0  0  0  0
  5  4  1  0  0  0  0
  6  1  1  0  0  0  0
  9  4  1  0  0  0  0
 10  5  1  0  0  0  0
 11 12  2  0  0  0  0
 11  6  1  0  0  0  0
 13 11  2  0  0  0  0
 15 14  3  0  0  0  0
 16 21  2  0  0  0  0
 16 20  2  0  0  0  0
 16 17  1  0  0  0  0
 17 18  1  0  0  0  0
 19 16  1  0  0  0  0
M  END
