Coordinates from ORCA-job p-NO2-Ph-N2-HSO4-B3LYPG-aug-cc-pVDZ-scan-d09-49-n400
 OpenBabel12261916533D

 21 20  0  0  0  0  0  0  0  0999 V2000
    2.6862   -0.4643    0.0706 C   0  0  0  0  0  0  0  0  0  0  0  0
    1.8920    0.1991    1.0065 C   0  0  0  0  0  0  0  0  0  0  0  0
    0.7411    0.8571    0.5639 C   0  0  0  0  0  0  0  0  0  0  0  0
    0.3721    0.8611   -0.7869 C   0  0  0  0  0  0  0  0  0  0  0  0
    1.1651    0.1968   -1.7160 C   0  0  0  0  0  0  0  0  0  0  0  0
    2.3167   -0.4588   -1.2736 C   0  0  0  0  0  0  0  0  0  0  0  0
    3.5891   -0.9858    0.3778 H   0  0  0  0  0  0  0  0  0  0  0  0
    2.1822    0.2016    2.0521 H   0  0  0  0  0  0  0  0  0  0  0  0
   -0.5318    1.3852   -1.0911 H   0  0  0  0  0  0  0  0  0  0  0  0
    0.9052    0.1813   -2.7712 H   0  0  0  0  0  0  0  0  0  0  0  0
    3.1602   -1.1648   -2.2526 N   0  0  0  0  0  0  0  0  0  0  0  0
    4.1661   -1.7345   -1.8359 O   0  0  0  0  0  0  0  0  0  0  0  0
    2.8076   -1.1435   -3.4299 O   0  0  0  0  0  0  0  0  0  0  0  0
    2.0713    3.7632    0.2085 N   0  0  0  0  0  0  0  0  0  0  0  0
    2.9387    4.2739   -0.2454 N   0  0  0  0  0  0  0  0  0  0  0  0
    0.1022    1.8460    2.9992 S   0  0  0  0  0  0  0  0  0  0  0  0
   -0.0123    0.3357    3.6422 O   0  0  0  0  0  0  0  0  0  0  0  0
   -0.9571    0.1449    3.7778 H   0  0  0  0  0  0  0  0  0  0  0  0
   -0.1648    1.5296    1.3856 O   0  0  0  0  0  0  0  0  0  0  0  0
   -1.0759    2.6246    3.3836 O   0  0  0  0  0  0  0  0  0  0  0  0
    1.4836    2.2669    3.2270 O   0  0  0  0  0  0  0  0  0  0  0  0
  1  7  1  0  0  0  0
  1  2  2  0  0  0  0
  2  8  1  0  0  0  0
  3  2  1  0  0  0  0
  3 19  1  0  0  0  0
  4  3  2  0  0  0  0
  5  6  2  0  0  0  0
  5  4  1  0  0  0  0
  6  1  1  0  0  0  0
  9  4  1  0  0  0  0
 10  5  1  0  0  0  0
 11 12  2  0  0  0  0
 11  6  1  0  0  0  0
 13 11  2  0  0  0  0
 15 14  3  0  0  0  0
 16 21  2  0  0  0  0
 16 20  2  0  0  0  0
 16 17  1  0  0  0  0
 17 18  1  0  0  0  0
 19 16  1  0  0  0  0
M  END
