Coordinates from ORCA-job p-NO2-Ph-N2-HSO4-B3LYPG-aug-cc-pVDZ-scan-d09-49-n400
 OpenBabel12261916533D

 21 21  0  0  1  0  0  0  0  0999 V2000
    2.1463   -0.0734    0.3129 C   0  0  0  0  0  0  0  0  0  0  0  0
    1.7202    1.2666    0.8095 C   0  0  1  0  0  0  0  0  0  0  0  0
    1.5803    2.2609   -0.3082 C   0  0  0  0  0  0  0  0  0  0  0  0
    1.4100    1.8334   -1.6802 C   0  0  0  0  0  0  0  0  0  0  0  0
    1.6109    0.5357   -2.0232 C   0  0  0  0  0  0  0  0  0  0  0  0
    2.0313   -0.3868   -0.9956 C   0  0  0  0  0  0  0  0  0  0  0  0
    2.5008   -0.8072    1.0314 H   0  0  0  0  0  0  0  0  0  0  0  0
    2.3595    1.6425    1.6143 H   0  0  0  0  0  0  0  0  0  0  0  0
    1.1339    2.5789   -2.4248 H   0  0  0  0  0  0  0  0  0  0  0  0
    1.4979    0.1855   -3.0438 H   0  0  0  0  0  0  0  0  0  0  0  0
    2.3904   -1.7684   -1.4161 N   0  0  0  0  0  0  0  0  0  0  0  0
    2.7709   -2.5550   -0.5561 O   0  0  0  0  0  0  0  0  0  0  0  0
    2.2603   -2.0394   -2.6060 O   0  0  0  0  0  0  0  0  0  0  0  0
    1.5504    3.4758   -0.0116 N   0  0  0  0  0  0  0  0  0  0  0  0
    1.5242    4.5805    0.2701 N   0  0  0  0  0  0  0  0  0  0  0  0
    0.2237    1.1054    3.0699 S   0  0  0  0  0  0  0  0  0  0  0  0
    0.7636   -0.4084    3.4518 O   0  0  0  0  0  0  0  0  0  0  0  0
    0.0092   -1.0167    3.3662 H   0  0  0  0  0  0  0  0  0  0  0  0
    0.3378    1.1082    1.4314 O   0  0  0  0  0  0  0  0  0  0  0  0
   -1.2120    1.1827    3.3625 O   0  0  0  0  0  0  0  0  0  0  0  0
    1.2279    2.0146    3.6378 O   0  0  0  0  0  0  0  0  0  0  0  0
  1  2  1  0  0  0  0
  1  7  1  0  0  0  0
  2 19  1  0  0  0  0
  2  8  1  1  0  0  0
  3 14  1  0  0  0  0
  3  2  1  0  0  0  0
  4  3  2  0  0  0  0
  5  4  1  0  0  0  0
  5  6  1  0  0  0  0
  6  1  2  0  0  0  0
  9  4  1  0  0  0  0
 10  5  1  0  0  0  0
 11  6  1  0  0  0  0
 11 12  2  0  0  0  0
 13 11  2  0  0  0  0
 14 15  1  0  0  0  0
 16 20  2  0  0  0  0
 16 17  1  0  0  0  0
 16 21  2  0  0  0  0
 18 17  1  0  0  0  0
 19 16  1  0  0  0  0
M  RAD  3   5   2  14   2  15   3
M  END
