Coordinates from ORCA-job p-NO2-Ph-N2-HSO4-B3LYPG-aug-cc-pVDZ-scan-d09-49-n400
 OpenBabel12261916533D

 21 20  0  0  0  0  0  0  0  0999 V2000
    2.6782   -0.4823    0.0724 C   0  0  0  0  0  0  0  0  0  0  0  0
    1.8803    0.1763    1.0087 C   0  0  0  0  0  0  0  0  0  0  0  0
    0.7331    0.8390    0.5647 C   0  0  0  0  0  0  0  0  0  0  0  0
    0.3716    0.8550   -0.7880 C   0  0  0  0  0  0  0  0  0  0  0  0
    1.1680    0.1950   -1.7174 C   0  0  0  0  0  0  0  0  0  0  0  0
    2.3156   -0.4667   -1.2736 C   0  0  0  0  0  0  0  0  0  0  0  0
    3.5784   -1.0077    0.3806 H   0  0  0  0  0  0  0  0  0  0  0  0
    2.1648    0.1710    2.0559 H   0  0  0  0  0  0  0  0  0  0  0  0
   -0.5289    1.3843   -1.0932 H   0  0  0  0  0  0  0  0  0  0  0  0
    0.9140    0.1880   -2.7741 H   0  0  0  0  0  0  0  0  0  0  0  0
    3.1626   -1.1677   -2.2532 N   0  0  0  0  0  0  0  0  0  0  0  0
    4.1659   -1.7411   -1.8355 O   0  0  0  0  0  0  0  0  0  0  0  0
    2.8173   -1.1358   -3.4323 O   0  0  0  0  0  0  0  0  0  0  0  0
    2.0832    3.8236    0.1999 N   0  0  0  0  0  0  0  0  0  0  0  0
    2.9460    4.3463   -0.2490 N   0  0  0  0  0  0  0  0  0  0  0  0
    0.1026    1.8445    2.9951 S   0  0  0  0  0  0  0  0  0  0  0  0
   -0.0029    0.3410    3.6561 O   0  0  0  0  0  0  0  0  0  0  0  0
   -0.9461    0.1494    3.8008 H   0  0  0  0  0  0  0  0  0  0  0  0
   -0.1754    1.5080    1.3872 O   0  0  0  0  0  0  0  0  0  0  0  0
   -1.0751    2.6236    3.3794 O   0  0  0  0  0  0  0  0  0  0  0  0
    1.4844    2.2719    3.2077 O   0  0  0  0  0  0  0  0  0  0  0  0
  1  7  1  0  0  0  0
  1  2  2  0  0  0  0
  2  8  1  0  0  0  0
  3  2  1  0  0  0  0
  3 19  1  0  0  0  0
  4  3  2  0  0  0  0
  5  6  2  0  0  0  0
  5  4  1  0  0  0  0
  6  1  1  0  0  0  0
  9  4  1  0  0  0  0
 10  5  1  0  0  0  0
 11 12  2  0  0  0  0
 11  6  1  0  0  0  0
 13 11  2  0  0  0  0
 15 14  3  0  0  0  0
 16 21  2  0  0  0  0
 16 20  2  0  0  0  0
 16 17  1  0  0  0  0
 17 18  1  0  0  0  0
 19 16  1  0  0  0  0
M  END
