Coordinates from ORCA-job p-NO2-Ph-N2-HSO4-B3LYPG-aug-cc-pVDZ-scan-d09-49-n400
 OpenBabel12261916533D

 21 20  0  0  0  0  0  0  0  0999 V2000
    2.6372   -0.5717    0.0824 C   0  0  0  0  0  0  0  0  0  0  0  0
    1.8212    0.0615    1.0204 C   0  0  0  0  0  0  0  0  0  0  0  0
    0.6958    0.7559    0.5705 C   0  0  0  0  0  0  0  0  0  0  0  0
    0.3730    0.8309   -0.7896 C   0  0  0  0  0  0  0  0  0  0  0  0
    1.1856    0.1933   -1.7210 C   0  0  0  0  0  0  0  0  0  0  0  0
    2.3112   -0.5009   -1.2711 C   0  0  0  0  0  0  0  0  0  0  0  0
    3.5219   -1.1207    0.3945 H   0  0  0  0  0  0  0  0  0  0  0  0
    2.0731    0.0109    2.0750 H   0  0  0  0  0  0  0  0  0  0  0  0
   -0.5101    1.3865   -1.0986 H   0  0  0  0  0  0  0  0  0  0  0  0
    0.9616    0.2301   -2.7839 H   0  0  0  0  0  0  0  0  0  0  0  0
    3.1760   -1.1767   -2.2533 N   0  0  0  0  0  0  0  0  0  0  0  0
    4.1586   -1.7811   -1.8302 O   0  0  0  0  0  0  0  0  0  0  0  0
    2.8624   -1.0981   -3.4391 O   0  0  0  0  0  0  0  0  0  0  0  0
    2.1539    4.1263    0.1441 N   0  0  0  0  0  0  0  0  0  0  0  0
    2.9850    4.7077   -0.2925 N   0  0  0  0  0  0  0  0  0  0  0  0
    0.0986    1.8313    2.9748 S   0  0  0  0  0  0  0  0  0  0  0  0
    0.0499    0.3660    3.7236 O   0  0  0  0  0  0  0  0  0  0  0  0
   -0.8829    0.1661    3.9167 H   0  0  0  0  0  0  0  0  0  0  0  0
   -0.2286    1.3957    1.3994 O   0  0  0  0  0  0  0  0  0  0  0  0
   -1.0830    2.6044    3.3601 O   0  0  0  0  0  0  0  0  0  0  0  0
    1.4773    2.2981    3.1099 O   0  0  0  0  0  0  0  0  0  0  0  0
  1  7  1  0  0  0  0
  1  2  2  0  0  0  0
  2  8  1  0  0  0  0
  3  2  1  0  0  0  0
  3 19  1  0  0  0  0
  4  3  2  0  0  0  0
  5  6  2  0  0  0  0
  5  4  1  0  0  0  0
  6  1  1  0  0  0  0
  9  4  1  0  0  0  0
 10  5  1  0  0  0  0
 11 12  2  0  0  0  0
 11  6  1  0  0  0  0
 13 11  2  0  0  0  0
 15 14  3  0  0  0  0
 16 21  2  0  0  0  0
 16 20  2  0  0  0  0
 16 17  1  0  0  0  0
 17 18  1  0  0  0  0
 19 16  1  0  0  0  0
M  END
