Coordinates from ORCA-job p-NO2-Ph-N2-HSO4-B3LYPG-aug-cc-pVDZ-scan-d09-49-n400
 OpenBabel12261916533D

 21 20  0  0  0  0  0  0  0  0999 V2000
    2.6765   -0.4865    0.0727 C   0  0  0  0  0  0  0  0  0  0  0  0
    1.8778    0.1708    1.0092 C   0  0  0  0  0  0  0  0  0  0  0  0
    0.7315    0.8350    0.5649 C   0  0  0  0  0  0  0  0  0  0  0  0
    0.3719    0.8538   -0.7883 C   0  0  0  0  0  0  0  0  0  0  0  0
    1.1690    0.1949   -1.7178 C   0  0  0  0  0  0  0  0  0  0  0  0
    2.3156   -0.4683   -1.2736 C   0  0  0  0  0  0  0  0  0  0  0  0
    3.5761   -1.0130    0.3812 H   0  0  0  0  0  0  0  0  0  0  0  0
    2.1607    0.1634    2.0569 H   0  0  0  0  0  0  0  0  0  0  0  0
   -0.5278    1.3844   -1.0936 H   0  0  0  0  0  0  0  0  0  0  0  0
    0.9165    0.1901   -2.7749 H   0  0  0  0  0  0  0  0  0  0  0  0
    3.1635   -1.1680   -2.2534 N   0  0  0  0  0  0  0  0  0  0  0  0
    4.1646   -1.7448   -1.8351 O   0  0  0  0  0  0  0  0  0  0  0  0
    2.8185   -1.1357   -3.4326 O   0  0  0  0  0  0  0  0  0  0  0  0
    2.0861    3.8394    0.1978 N   0  0  0  0  0  0  0  0  0  0  0  0
    2.9476    4.3653   -0.2501 N   0  0  0  0  0  0  0  0  0  0  0  0
    0.1024    1.8439    2.9942 S   0  0  0  0  0  0  0  0  0  0  0  0
   -0.0002    0.3421    3.6593 O   0  0  0  0  0  0  0  0  0  0  0  0
   -0.9430    0.1495    3.8057 H   0  0  0  0  0  0  0  0  0  0  0  0
   -0.1777    1.5028    1.3876 O   0  0  0  0  0  0  0  0  0  0  0  0
   -1.0758    2.6225    3.3783 O   0  0  0  0  0  0  0  0  0  0  0  0
    1.4839    2.2737    3.2040 O   0  0  0  0  0  0  0  0  0  0  0  0
  1  7  1  0  0  0  0
  1  2  2  0  0  0  0
  2  8  1  0  0  0  0
  3  2  1  0  0  0  0
  3 19  1  0  0  0  0
  4  3  2  0  0  0  0
  5  6  2  0  0  0  0
  5  4  1  0  0  0  0
  6  1  1  0  0  0  0
  9  4  1  0  0  0  0
 10  5  1  0  0  0  0
 11 12  2  0  0  0  0
 11  6  1  0  0  0  0
 13 11  2  0  0  0  0
 15 14  3  0  0  0  0
 16 21  2  0  0  0  0
 16 20  2  0  0  0  0
 16 17  1  0  0  0  0
 17 18  1  0  0  0  0
 19 16  1  0  0  0  0
M  END
