Coordinates from ORCA-job p-NO2-Ph-N2-HSO4-B3LYPG-aug-cc-pVDZ-scan-d09-49-n400
 OpenBabel12261916533D

 21 20  0  0  0  0  0  0  0  0999 V2000
    2.7149   -0.3951    0.0667 C   0  0  0  0  0  0  0  0  0  0  0  0
    1.9307    0.2809    1.0022 C   0  0  0  0  0  0  0  0  0  0  0  0
    0.7737    0.9309    0.5645 C   0  0  0  0  0  0  0  0  0  0  0  0
    0.3814    0.9018   -0.7798 C   0  0  0  0  0  0  0  0  0  0  0  0
    1.1647    0.2266   -1.7087 C   0  0  0  0  0  0  0  0  0  0  0  0
    2.3274   -0.4138   -1.2723 C   0  0  0  0  0  0  0  0  0  0  0  0
    3.6239   -0.9078    0.3705 H   0  0  0  0  0  0  0  0  0  0  0  0
    2.2363    0.3050    2.0432 H   0  0  0  0  0  0  0  0  0  0  0  0
   -0.5305    1.4147   -1.0794 H   0  0  0  0  0  0  0  0  0  0  0  0
    0.8884    0.1893   -2.7592 H   0  0  0  0  0  0  0  0  0  0  0  0
    3.1603   -1.1325   -2.2508 N   0  0  0  0  0  0  0  0  0  0  0  0
    4.1752   -1.6895   -1.8389 O   0  0  0  0  0  0  0  0  0  0  0  0
    2.7904   -1.1338   -3.4230 O   0  0  0  0  0  0  0  0  0  0  0  0
    1.9911    3.4259    0.2438 N   0  0  0  0  0  0  0  0  0  0  0  0
    2.8566    3.8644   -0.2838 N   0  0  0  0  0  0  0  0  0  0  0  0
    0.1042    1.8624    3.0155 S   0  0  0  0  0  0  0  0  0  0  0  0
   -0.0418    0.3316    3.6001 O   0  0  0  0  0  0  0  0  0  0  0  0
   -0.9916    0.1460    3.7041 H   0  0  0  0  0  0  0  0  0  0  0  0
   -0.1277    1.6071    1.3858 O   0  0  0  0  0  0  0  0  0  0  0  0
   -1.0735    2.6419    3.3987 O   0  0  0  0  0  0  0  0  0  0  0  0
    1.4838    2.2593    3.2931 O   0  0  0  0  0  0  0  0  0  0  0  0
  1  7  1  0  0  0  0
  1  2  2  0  0  0  0
  2  8  1  0  0  0  0
  3  2  1  0  0  0  0
  3 19  1  0  0  0  0
  4  3  2  0  0  0  0
  5  6  2  0  0  0  0
  5  4  1  0  0  0  0
  6  1  1  0  0  0  0
  9  4  1  0  0  0  0
 10  5  1  0  0  0  0
 11 12  2  0  0  0  0
 11  6  1  0  0  0  0
 13 11  2  0  0  0  0
 15 14  3  0  0  0  0
 16 21  2  0  0  0  0
 16 20  2  0  0  0  0
 16 17  1  0  0  0  0
 17 18  1  0  0  0  0
 19 16  1  0  0  0  0
M  END
