Coordinates from ORCA-job p-NO2-Ph-N2-HSO4-B3LYPG-aug-cc-pVDZ-scan-d09-49-n400
 OpenBabel12261916533D

 21 21  0  0  1  0  0  0  0  0999 V2000
    2.1461   -0.0631    0.3196 C   0  0  0  0  0  0  0  0  0  0  0  0
    1.7182    1.2788    0.8118 C   0  0  1  0  0  0  0  0  0  0  0  0
    1.5739    2.2847   -0.3075 C   0  0  0  0  0  0  0  0  0  0  0  0
    1.3981    1.8345   -1.6801 C   0  0  0  0  0  0  0  0  0  0  0  0
    1.6039    0.5379   -2.0158 C   0  0  0  0  0  0  0  0  0  0  0  0
    2.0318   -0.3811   -0.9864 C   0  0  0  0  0  0  0  0  0  0  0  0
    2.5020   -0.7934    1.0411 H   0  0  0  0  0  0  0  0  0  0  0  0
    2.3643    1.6593    1.6095 H   0  0  0  0  0  0  0  0  0  0  0  0
    1.1133    2.5743   -2.4273 H   0  0  0  0  0  0  0  0  0  0  0  0
    1.4873    0.1823   -3.0343 H   0  0  0  0  0  0  0  0  0  0  0  0
    2.3947   -1.7624   -1.4038 N   0  0  0  0  0  0  0  0  0  0  0  0
    2.7869   -2.5430   -0.5436 O   0  0  0  0  0  0  0  0  0  0  0  0
    2.2713   -2.0340   -2.5943 O   0  0  0  0  0  0  0  0  0  0  0  0
    1.5538    3.4424   -0.0295 N   0  0  0  0  0  0  0  0  0  0  0  0
    1.5355    4.5534    0.2482 N   0  0  0  0  0  0  0  0  0  0  0  0
    0.2345    1.0983    3.0738 S   0  0  0  0  0  0  0  0  0  0  0  0
    0.7425   -0.4333    3.4246 O   0  0  0  0  0  0  0  0  0  0  0  0
   -0.0253   -1.0236    3.3319 H   0  0  0  0  0  0  0  0  0  0  0  0
    0.3444    1.1277    1.4325 O   0  0  0  0  0  0  0  0  0  0  0  0
   -1.1988    1.2003    3.3682 O   0  0  0  0  0  0  0  0  0  0  0  0
    1.2594    1.9754    3.6536 O   0  0  0  0  0  0  0  0  0  0  0  0
  1  2  1  0  0  0  0
  1  7  1  0  0  0  0
  2 19  1  0  0  0  0
  2  8  1  1  0  0  0
  3 14  1  0  0  0  0
  3  2  1  0  0  0  0
  4  3  2  0  0  0  0
  5  4  1  0  0  0  0
  5  6  1  0  0  0  0
  6  1  2  0  0  0  0
  9  4  1  0  0  0  0
 10  5  1  0  0  0  0
 11  6  1  0  0  0  0
 11 12  2  0  0  0  0
 13 11  2  0  0  0  0
 14 15  1  0  0  0  0
 16 20  2  0  0  0  0
 16 17  1  0  0  0  0
 16 21  2  0  0  0  0
 18 17  1  0  0  0  0
 19 16  1  0  0  0  0
M  RAD  3   5   2  14   2  15   3
M  END
