Coordinates from ORCA-job p-NO2-Ph-N2-HSO4-B3LYPG-aug-cc-pVDZ-scan-d09-49-n400
 OpenBabel12261916533D

 21 20  0  0  0  0  0  0  0  0999 V2000
    2.6987   -0.4347    0.0682 C   0  0  0  0  0  0  0  0  0  0  0  0
    1.9096    0.2358    1.0035 C   0  0  0  0  0  0  0  0  0  0  0  0
    0.7531    0.8853    0.5635 C   0  0  0  0  0  0  0  0  0  0  0  0
    0.3724    0.8723   -0.7841 C   0  0  0  0  0  0  0  0  0  0  0  0
    1.1607    0.2019   -1.7127 C   0  0  0  0  0  0  0  0  0  0  0  0
    2.3186   -0.4445   -1.2731 C   0  0  0  0  0  0  0  0  0  0  0  0
    3.6059   -0.9496    0.3735 H   0  0  0  0  0  0  0  0  0  0  0  0
    2.2088    0.2514    2.0465 H   0  0  0  0  0  0  0  0  0  0  0  0
   -0.5362    1.3893   -1.0863 H   0  0  0  0  0  0  0  0  0  0  0  0
    0.8921    0.1741   -2.7655 H   0  0  0  0  0  0  0  0  0  0  0  0
    3.1567   -1.1574   -2.2514 N   0  0  0  0  0  0  0  0  0  0  0  0
    4.1682   -1.7190   -1.8370 O   0  0  0  0  0  0  0  0  0  0  0  0
    2.7947   -1.1496   -3.4260 O   0  0  0  0  0  0  0  0  0  0  0  0
    2.0508    3.6522    0.2193 N   0  0  0  0  0  0  0  0  0  0  0  0
    2.9266    4.1386   -0.2452 N   0  0  0  0  0  0  0  0  0  0  0  0
    0.1010    1.8499    3.0058 S   0  0  0  0  0  0  0  0  0  0  0  0
   -0.0256    0.3287    3.6201 O   0  0  0  0  0  0  0  0  0  0  0  0
   -0.9725    0.1385    3.7410 H   0  0  0  0  0  0  0  0  0  0  0  0
   -0.1490    1.5637    1.3841 O   0  0  0  0  0  0  0  0  0  0  0  0
   -1.0781    2.6265    3.3905 O   0  0  0  0  0  0  0  0  0  0  0  0
    1.4811    2.2619    3.2574 O   0  0  0  0  0  0  0  0  0  0  0  0
  1  7  1  0  0  0  0
  1  2  2  0  0  0  0
  2  8  1  0  0  0  0
  3  2  1  0  0  0  0
  3 19  1  0  0  0  0
  4  3  2  0  0  0  0
  5  6  2  0  0  0  0
  5  4  1  0  0  0  0
  6  1  1  0  0  0  0
  9  4  1  0  0  0  0
 10  5  1  0  0  0  0
 11 12  2  0  0  0  0
 11  6  1  0  0  0  0
 13 11  2  0  0  0  0
 15 14  3  0  0  0  0
 16 21  2  0  0  0  0
 16 20  2  0  0  0  0
 16 17  1  0  0  0  0
 17 18  1  0  0  0  0
 19 16  1  0  0  0  0
M  END
