Coordinates from ORCA-job p-NO2-Ph-N2-HSO4-B3LYPG-aug-cc-pVDZ-scan-d09-49-n400
 OpenBabel12261916533D

 21 20  0  0  0  0  0  0  0  0999 V2000
    2.6653   -0.4092    0.0607 C   0  0  0  0  0  0  0  0  0  0  0  0
    2.2926    0.7498    0.7469 C   0  0  0  0  0  0  0  0  0  0  0  0
    1.6296    1.6990   -0.0036 C   0  0  0  0  0  0  0  0  0  0  0  0
    1.2853    1.6284   -1.3461 C   0  0  0  0  0  0  0  0  0  0  0  0
    1.6596    0.4572   -2.0054 C   0  0  0  0  0  0  0  0  0  0  0  0
    2.3437   -0.5295   -1.2914 C   0  0  0  0  0  0  0  0  0  0  0  0
    3.1863   -1.2156    0.5698 H   0  0  0  0  0  0  0  0  0  0  0  0
    2.4664    0.9021    1.8084 H   0  0  0  0  0  0  0  0  0  0  0  0
    0.7444    2.4242   -1.8511 H   0  0  0  0  0  0  0  0  0  0  0  0
    1.4245    0.3046   -3.0556 H   0  0  0  0  0  0  0  0  0  0  0  0
    2.7421   -1.7680   -2.0089 N   0  0  0  0  0  0  0  0  0  0  0  0
    3.3522   -2.6162   -1.3701 O   0  0  0  0  0  0  0  0  0  0  0  0
    2.4366   -1.8536   -3.1930 O   0  0  0  0  0  0  0  0  0  0  0  0
    1.2474    3.0762    0.6969 N   0  0  0  0  0  0  0  0  0  0  0  0
    1.0191    4.1633    0.6350 N   0  0  0  0  0  0  0  0  0  0  0  0
   -0.2026    1.6742    2.9569 S   0  0  0  0  0  0  0  0  0  0  0  0
    0.2603    0.0642    3.1950 O   0  0  0  0  0  0  0  0  0  0  0  0
    0.0086   -0.1398    4.1089 H   0  0  0  0  0  0  0  0  0  0  0  0
   -0.8968    1.6597    1.6329 O   0  0  0  0  0  0  0  0  0  0  0  0
   -0.9736    2.0394    4.1691 O   0  0  0  0  0  0  0  0  0  0  0  0
    1.1465    2.4050    2.8369 O   0  0  0  0  0  0  0  0  0  0  0  0
  1  7  1  0  0  0  0
  1  2  1  0  0  0  0
  2  8  1  0  0  0  0
  3 14  1  0  0  0  0
  3  2  2  0  0  0  0
  4  3  1  0  0  0  0
  5  4  2  0  0  0  0
  5  6  1  0  0  0  0
  6  1  2  0  0  0  0
  9  4  1  0  0  0  0
 10  5  1  0  0  0  0
 11 12  2  0  0  0  0
 11  6  1  0  0  0  0
 13 11  2  0  0  0  0
 15 14  2  0  0  0  0
 16 17  1  0  0  0  0
 16 20  1  0  0  0  0
 17 18  1  0  0  0  0
 19 16  2  0  0  0  0
 21 16  2  0  0  0  0
M  RAD  2  15   2  20   2
M  END
