Coordinates from ORCA-job p-NO2-Ph-N2-HSO4-B3LYPG-aug-cc-pVDZ-scan-d09-49-n400
 OpenBabel12261916533D

 21 20  0  0  0  0  0  0  0  0999 V2000
    2.5066   -0.8479    0.1133 C   0  0  0  0  0  0  0  0  0  0  0  0
    1.6469   -0.2837    1.0550 C   0  0  0  0  0  0  0  0  0  0  0  0
    0.6198    0.5532    0.6119 C   0  0  0  0  0  0  0  0  0  0  0  0
    0.4309    0.8353   -0.7444 C   0  0  0  0  0  0  0  0  0  0  0  0
    1.2828    0.2615   -1.6843 C   0  0  0  0  0  0  0  0  0  0  0  0
    2.3123   -0.5706   -1.2403 C   0  0  0  0  0  0  0  0  0  0  0  0
    3.3192   -1.5026    0.4170 H   0  0  0  0  0  0  0  0  0  0  0  0
    1.7794   -0.4983    2.1120 H   0  0  0  0  0  0  0  0  0  0  0  0
   -0.3803    1.4947   -1.0463 H   0  0  0  0  0  0  0  0  0  0  0  0
    1.1640    0.4546   -2.7473 H   0  0  0  0  0  0  0  0  0  0  0  0
    3.2196   -1.1769   -2.2317 N   0  0  0  0  0  0  0  0  0  0  0  0
    4.1161   -1.9063   -1.8149 O   0  0  0  0  0  0  0  0  0  0  0  0
    3.0241   -0.9186   -3.4169 O   0  0  0  0  0  0  0  0  0  0  0  0
    2.2509    4.8688   -0.1707 N   0  0  0  0  0  0  0  0  0  0  0  0
    2.9714    5.5791   -0.6134 N   0  0  0  0  0  0  0  0  0  0  0  0
    0.0917    1.7716    2.9394 S   0  0  0  0  0  0  0  0  0  0  0  0
    0.1803    0.4223    3.8811 O   0  0  0  0  0  0  0  0  0  0  0  0
   -0.7196    0.2273    4.1961 H   0  0  0  0  0  0  0  0  0  0  0  0
   -0.3370    1.1098    1.4666 O   0  0  0  0  0  0  0  0  0  0  0  0
   -1.0932    2.5383    3.3312 O   0  0  0  0  0  0  0  0  0  0  0  0
    1.4517    2.3039    2.8788 O   0  0  0  0  0  0  0  0  0  0  0  0
  1  7  1  0  0  0  0
  1  2  2  0  0  0  0
  2  8  1  0  0  0  0
  3  2  1  0  0  0  0
  3 19  1  0  0  0  0
  4  3  2  0  0  0  0
  5  6  2  0  0  0  0
  5  4  1  0  0  0  0
  6  1  1  0  0  0  0
  9  4  1  0  0  0  0
 10  5  1  0  0  0  0
 11 12  2  0  0  0  0
 11  6  1  0  0  0  0
 13 11  2  0  0  0  0
 15 14  3  0  0  0  0
 16 20  2  0  0  0  0
 16 17  1  0  0  0  0
 17 18  1  0  0  0  0
 19 16  1  0  0  0  0
 21 16  2  0  0  0  0
M  END
