Coordinates from ORCA-job p-NO2-Ph-N2-HSO4-B3LYPG-aug-cc-pVDZ-scan-d09-49-n400
 OpenBabel12261916533D

 21 20  0  0  0  0  0  0  0  0999 V2000
    2.6297   -0.5879    0.0841 C   0  0  0  0  0  0  0  0  0  0  0  0
    1.8102    0.0400    1.0223 C   0  0  0  0  0  0  0  0  0  0  0  0
    0.6895    0.7419    0.5717 C   0  0  0  0  0  0  0  0  0  0  0  0
    0.3744    0.8282   -0.7894 C   0  0  0  0  0  0  0  0  0  0  0  0
    1.1900    0.1952   -1.7213 C   0  0  0  0  0  0  0  0  0  0  0  0
    2.3112   -0.5054   -1.2707 C   0  0  0  0  0  0  0  0  0  0  0  0
    3.5109   -1.1423    0.3966 H   0  0  0  0  0  0  0  0  0  0  0  0
    2.0550   -0.0209    2.0781 H   0  0  0  0  0  0  0  0  0  0  0  0
   -0.5056    1.3885   -1.0990 H   0  0  0  0  0  0  0  0  0  0  0  0
    0.9720    0.2406   -2.7852 H   0  0  0  0  0  0  0  0  0  0  0  0
    3.1795   -1.1761   -2.2535 N   0  0  0  0  0  0  0  0  0  0  0  0
    4.1579   -1.7868   -1.8296 O   0  0  0  0  0  0  0  0  0  0  0  0
    2.8723   -1.0879   -3.4402 O   0  0  0  0  0  0  0  0  0  0  0  0
    2.1618    4.1707    0.1335 N   0  0  0  0  0  0  0  0  0  0  0  0
    2.9871    4.7618   -0.3008 N   0  0  0  0  0  0  0  0  0  0  0  0
    0.0982    1.8297    2.9704 S   0  0  0  0  0  0  0  0  0  0  0  0
    0.0599    0.3734    3.7374 O   0  0  0  0  0  0  0  0  0  0  0  0
   -0.8707    0.1733    3.9406 H   0  0  0  0  0  0  0  0  0  0  0  0
   -0.2384    1.3743    1.4024 O   0  0  0  0  0  0  0  0  0  0  0  0
   -1.0836    2.6027    3.3556 O   0  0  0  0  0  0  0  0  0  0  0  0
    1.4764    2.3024    3.0891 O   0  0  0  0  0  0  0  0  0  0  0  0
  1  7  1  0  0  0  0
  1  2  2  0  0  0  0
  2  8  1  0  0  0  0
  3  2  1  0  0  0  0
  3 19  1  0  0  0  0
  4  3  2  0  0  0  0
  5  6  2  0  0  0  0
  5  4  1  0  0  0  0
  6  1  1  0  0  0  0
  9  4  1  0  0  0  0
 10  5  1  0  0  0  0
 11 12  2  0  0  0  0
 11  6  1  0  0  0  0
 13 11  2  0  0  0  0
 15 14  3  0  0  0  0
 16 21  2  0  0  0  0
 16 20  2  0  0  0  0
 16 17  1  0  0  0  0
 17 18  1  0  0  0  0
 19 16  1  0  0  0  0
M  END
