Coordinates from ORCA-job p-NO2-Ph-N2-HSO4-B3LYPG-aug-cc-pVDZ-scan-d09-49-n400
 OpenBabel12261916533D

 21 20  0  0  0  0  0  0  0  0999 V2000
    2.6711   -0.4084    0.0603 C   0  0  0  0  0  0  0  0  0  0  0  0
    2.3027    0.7540    0.7464 C   0  0  0  0  0  0  0  0  0  0  0  0
    1.6380    1.6861   -0.0150 C   0  0  0  0  0  0  0  0  0  0  0  0
    1.2813    1.6243   -1.3496 C   0  0  0  0  0  0  0  0  0  0  0  0
    1.6545    0.4491   -2.0054 C   0  0  0  0  0  0  0  0  0  0  0  0
    2.3427   -0.5338   -1.2900 C   0  0  0  0  0  0  0  0  0  0  0  0
    3.1950   -1.2128    0.5698 H   0  0  0  0  0  0  0  0  0  0  0  0
    2.4776    0.9130    1.8071 H   0  0  0  0  0  0  0  0  0  0  0  0
    0.7363    2.4189   -1.8515 H   0  0  0  0  0  0  0  0  0  0  0  0
    1.4141    0.2920   -3.0537 H   0  0  0  0  0  0  0  0  0  0  0  0
    2.7384   -1.7748   -2.0039 N   0  0  0  0  0  0  0  0  0  0  0  0
    3.3467   -2.6227   -1.3627 O   0  0  0  0  0  0  0  0  0  0  0  0
    2.4220   -1.8685   -3.1845 O   0  0  0  0  0  0  0  0  0  0  0  0
    1.2460    3.1226    0.7230 N   0  0  0  0  0  0  0  0  0  0  0  0
    1.0260    4.2099    0.6567 N   0  0  0  0  0  0  0  0  0  0  0  0
   -0.2025    1.6697    2.9503 S   0  0  0  0  0  0  0  0  0  0  0  0
    0.2722    0.0614    3.1796 O   0  0  0  0  0  0  0  0  0  0  0  0
    0.0082   -0.1539    4.0875 H   0  0  0  0  0  0  0  0  0  0  0  0
   -0.8822    1.6606    1.6186 O   0  0  0  0  0  0  0  0  0  0  0  0
   -0.9915    2.0155    4.1566 O   0  0  0  0  0  0  0  0  0  0  0  0
    1.1411    2.4132    2.8524 O   0  0  0  0  0  0  0  0  0  0  0  0
  1  7  1  0  0  0  0
  1  2  1  0  0  0  0
  2  8  1  0  0  0  0
  3 14  1  0  0  0  0
  3  2  2  0  0  0  0
  4  3  1  0  0  0  0
  5  4  2  0  0  0  0
  5  6  1  0  0  0  0
  6  1  2  0  0  0  0
  9  4  1  0  0  0  0
 10  5  1  0  0  0  0
 11 12  2  0  0  0  0
 11  6  1  0  0  0  0
 13 11  2  0  0  0  0
 15 14  2  0  0  0  0
 16 17  1  0  0  0  0
 16 20  1  0  0  0  0
 17 18  1  0  0  0  0
 19 16  2  0  0  0  0
 21 16  2  0  0  0  0
M  RAD  2  15   2  20   2
M  END
