Coordinates from ORCA-job p-NO2-Ph-N2-HSO4-B3LYPG-aug-cc-pVDZ-scan-d09-49-n400
 OpenBabel12261916533D

 21 20  0  0  0  0  0  0  0  0999 V2000
    2.7028   -0.4242    0.0676 C   0  0  0  0  0  0  0  0  0  0  0  0
    1.9150    0.2477    1.0031 C   0  0  0  0  0  0  0  0  0  0  0  0
    0.7569    0.8939    0.5642 C   0  0  0  0  0  0  0  0  0  0  0  0
    0.3734    0.8779   -0.7822 C   0  0  0  0  0  0  0  0  0  0  0  0
    1.1604    0.2063   -1.7111 C   0  0  0  0  0  0  0  0  0  0  0  0
    2.3199   -0.4379   -1.2727 C   0  0  0  0  0  0  0  0  0  0  0  0
    3.6116   -0.9369    0.3723 H   0  0  0  0  0  0  0  0  0  0  0  0
    2.2168    0.2682    2.0452 H   0  0  0  0  0  0  0  0  0  0  0  0
   -0.5359    1.3944   -1.0831 H   0  0  0  0  0  0  0  0  0  0  0  0
    0.8895    0.1760   -2.7632 H   0  0  0  0  0  0  0  0  0  0  0  0
    3.1567   -1.1523   -2.2512 N   0  0  0  0  0  0  0  0  0  0  0  0
    4.1698   -1.7113   -1.8377 O   0  0  0  0  0  0  0  0  0  0  0  0
    2.7921   -1.1474   -3.4250 O   0  0  0  0  0  0  0  0  0  0  0  0
    2.0402    3.6012    0.2245 N   0  0  0  0  0  0  0  0  0  0  0  0
    2.9155    4.0754   -0.2532 N   0  0  0  0  0  0  0  0  0  0  0  0
    0.1013    1.8526    3.0081 S   0  0  0  0  0  0  0  0  0  0  0  0
   -0.0300    0.3280    3.6128 O   0  0  0  0  0  0  0  0  0  0  0  0
   -0.9777    0.1384    3.7283 H   0  0  0  0  0  0  0  0  0  0  0  0
   -0.1437    1.5745    1.3846 O   0  0  0  0  0  0  0  0  0  0  0  0
   -1.0779    2.6293    3.3925 O   0  0  0  0  0  0  0  0  0  0  0  0
    1.4807    2.2615    3.2684 O   0  0  0  0  0  0  0  0  0  0  0  0
  1  7  1  0  0  0  0
  1  2  2  0  0  0  0
  2  8  1  0  0  0  0
  3  2  1  0  0  0  0
  3 19  1  0  0  0  0
  4  3  2  0  0  0  0
  5  6  2  0  0  0  0
  5  4  1  0  0  0  0
  6  1  1  0  0  0  0
  9  4  1  0  0  0  0
 10  5  1  0  0  0  0
 11 12  2  0  0  0  0
 11  6  1  0  0  0  0
 13 11  2  0  0  0  0
 15 14  3  0  0  0  0
 16 21  2  0  0  0  0
 16 20  2  0  0  0  0
 16 17  1  0  0  0  0
 17 18  1  0  0  0  0
 19 16  1  0  0  0  0
M  END
