Coordinates from ORCA-job p-NO2-Ph-N2-HSO4-B3LYPG-aug-cc-pVDZ-scan-d09-49-n400
 OpenBabel12261916533D

 21 21  0  0  1  0  0  0  0  0999 V2000
    2.1438   -0.0941    0.3002 C   0  0  0  0  0  0  0  0  0  0  0  0
    1.7226    1.2419    0.8077 C   0  0  1  0  0  0  0  0  0  0  0  0
    1.5898    2.2274   -0.3046 C   0  0  0  0  0  0  0  0  0  0  0  0
    1.4257    1.8331   -1.6781 C   0  0  0  0  0  0  0  0  0  0  0  0
    1.6198    0.5350   -2.0349 C   0  0  0  0  0  0  0  0  0  0  0  0
    2.0284   -0.3960   -1.0130 C   0  0  0  0  0  0  0  0  0  0  0  0
    2.4951   -0.8359    1.0119 H   0  0  0  0  0  0  0  0  0  0  0  0
    2.3523    1.6083    1.6236 H   0  0  0  0  0  0  0  0  0  0  0  0
    1.1613    2.5891   -2.4160 H   0  0  0  0  0  0  0  0  0  0  0  0
    1.5114    0.1955   -3.0594 H   0  0  0  0  0  0  0  0  0  0  0  0
    2.3807   -1.7770   -1.4424 N   0  0  0  0  0  0  0  0  0  0  0  0
    2.7637   -2.5692   -0.5885 O   0  0  0  0  0  0  0  0  0  0  0  0
    2.2600   -2.0372   -2.6357 O   0  0  0  0  0  0  0  0  0  0  0  0
    1.5466    3.4975    0.0177 N   0  0  0  0  0  0  0  0  0  0  0  0
    1.5105    4.5943    0.3096 N   0  0  0  0  0  0  0  0  0  0  0  0
    0.2043    1.1247    3.0637 S   0  0  0  0  0  0  0  0  0  0  0  0
    0.7931   -0.3554    3.5049 O   0  0  0  0  0  0  0  0  0  0  0  0
    0.0599   -0.9913    3.4377 H   0  0  0  0  0  0  0  0  0  0  0  0
    0.3272    1.0724    1.4308 O   0  0  0  0  0  0  0  0  0  0  0  0
   -1.2339    1.1655    3.3534 O   0  0  0  0  0  0  0  0  0  0  0  0
    1.1752    2.0869    3.6036 O   0  0  0  0  0  0  0  0  0  0  0  0
  1  2  1  0  0  0  0
  1  7  1  0  0  0  0
  2 19  1  0  0  0  0
  2  8  1  1  0  0  0
  3 14  1  0  0  0  0
  3  2  1  0  0  0  0
  4  3  2  0  0  0  0
  5  4  1  0  0  0  0
  5  6  1  0  0  0  0
  6  1  2  0  0  0  0
  9  4  1  0  0  0  0
 10  5  1  0  0  0  0
 11  6  1  0  0  0  0
 11 12  2  0  0  0  0
 13 11  2  0  0  0  0
 14 15  1  0  0  0  0
 16 20  2  0  0  0  0
 16 17  1  0  0  0  0
 16 21  2  0  0  0  0
 18 17  1  0  0  0  0
 19 16  1  0  0  0  0
M  RAD  3   5   2  14   2  15   3
M  END
