Coordinates from ORCA-job p-NO2-Ph-N2-HSO4-B3LYPG-aug-cc-pVDZ-scan-d09-49-n400
 OpenBabel12261916533D

 21 20  0  0  0  0  0  0  0  0999 V2000
    2.5011   -0.8579    0.1142 C   0  0  0  0  0  0  0  0  0  0  0  0
    1.6402   -0.2956    1.0555 C   0  0  0  0  0  0  0  0  0  0  0  0
    0.6182    0.5486    0.6138 C   0  0  0  0  0  0  0  0  0  0  0  0
    0.4355    0.8387   -0.7410 C   0  0  0  0  0  0  0  0  0  0  0  0
    1.2885    0.2667   -1.6815 C   0  0  0  0  0  0  0  0  0  0  0  0
    2.3129   -0.5721   -1.2385 C   0  0  0  0  0  0  0  0  0  0  0  0
    3.3098   -1.5179    0.4171 H   0  0  0  0  0  0  0  0  0  0  0  0
    1.7671   -0.5170    2.1119 H   0  0  0  0  0  0  0  0  0  0  0  0
   -0.3721    1.5029   -1.0422 H   0  0  0  0  0  0  0  0  0  0  0  0
    1.1748    0.4666   -2.7438 H   0  0  0  0  0  0  0  0  0  0  0  0
    3.2214   -1.1763   -2.2302 N   0  0  0  0  0  0  0  0  0  0  0  0
    4.1137   -1.9112   -1.8143 O   0  0  0  0  0  0  0  0  0  0  0  0
    3.0316   -0.9098   -3.4145 O   0  0  0  0  0  0  0  0  0  0  0  0
    2.2511    4.8922   -0.1902 N   0  0  0  0  0  0  0  0  0  0  0  0
    2.9668    5.6062   -0.6347 N   0  0  0  0  0  0  0  0  0  0  0  0
    0.0916    1.7669    2.9402 S   0  0  0  0  0  0  0  0  0  0  0  0
    0.1823    0.4217    3.8875 O   0  0  0  0  0  0  0  0  0  0  0  0
   -0.7168    0.2289    4.2064 H   0  0  0  0  0  0  0  0  0  0  0  0
   -0.3400    1.1006    1.4705 O   0  0  0  0  0  0  0  0  0  0  0  0
   -1.0919    2.5355    3.3324 O   0  0  0  0  0  0  0  0  0  0  0  0
    1.4519    2.2976    2.8735 O   0  0  0  0  0  0  0  0  0  0  0  0
  1  7  1  0  0  0  0
  1  2  2  0  0  0  0
  2  8  1  0  0  0  0
  3  2  1  0  0  0  0
  3 19  1  0  0  0  0
  4  3  2  0  0  0  0
  5  6  2  0  0  0  0
  5  4  1  0  0  0  0
  6  1  1  0  0  0  0
  9  4  1  0  0  0  0
 10  5  1  0  0  0  0
 11 12  2  0  0  0  0
 11  6  1  0  0  0  0
 13 11  2  0  0  0  0
 15 14  3  0  0  0  0
 16 20  2  0  0  0  0
 16 17  1  0  0  0  0
 17 18  1  0  0  0  0
 19 16  1  0  0  0  0
 21 16  2  0  0  0  0
M  END
