Coordinates from ORCA-job p-NO2-Ph-N2-HSO4-B3LYPG-aug-cc-pVDZ-scan-d09-49-n400
 OpenBabel12261916533D

 21 20  0  0  0  0  0  0  0  0999 V2000
    2.6843   -0.4687    0.0710 C   0  0  0  0  0  0  0  0  0  0  0  0
    1.8891    0.1934    1.0070 C   0  0  0  0  0  0  0  0  0  0  0  0
    0.7391    0.8526    0.5641 C   0  0  0  0  0  0  0  0  0  0  0  0
    0.3719    0.8596   -0.7872 C   0  0  0  0  0  0  0  0  0  0  0  0
    1.1658    0.1963   -1.7164 C   0  0  0  0  0  0  0  0  0  0  0  0
    2.3165   -0.4607   -1.2737 C   0  0  0  0  0  0  0  0  0  0  0  0
    3.5865   -0.9911    0.3785 H   0  0  0  0  0  0  0  0  0  0  0  0
    2.1779    0.1940    2.0531 H   0  0  0  0  0  0  0  0  0  0  0  0
   -0.5312    1.3849   -1.0917 H   0  0  0  0  0  0  0  0  0  0  0  0
    0.9075    0.1830   -2.7720 H   0  0  0  0  0  0  0  0  0  0  0  0
    3.1609   -1.1653   -2.2528 N   0  0  0  0  0  0  0  0  0  0  0  0
    4.1659   -1.7363   -1.8358 O   0  0  0  0  0  0  0  0  0  0  0  0
    2.8099   -1.1417   -3.4305 O   0  0  0  0  0  0  0  0  0  0  0  0
    2.0744    3.7783    0.2063 N   0  0  0  0  0  0  0  0  0  0  0  0
    2.9406    4.2919   -0.2463 N   0  0  0  0  0  0  0  0  0  0  0  0
    0.1022    1.8456    2.9982 S   0  0  0  0  0  0  0  0  0  0  0  0
   -0.0100    0.3370    3.6459 O   0  0  0  0  0  0  0  0  0  0  0  0
   -0.9544    0.1460    3.7837 H   0  0  0  0  0  0  0  0  0  0  0  0
   -0.1675    1.5242    1.3860 O   0  0  0  0  0  0  0  0  0  0  0  0
   -1.0757    2.6244    3.3826 O   0  0  0  0  0  0  0  0  0  0  0  0
    1.4837    2.2681    3.2223 O   0  0  0  0  0  0  0  0  0  0  0  0
  1  7  1  0  0  0  0
  1  2  2  0  0  0  0
  2  8  1  0  0  0  0
  3  2  1  0  0  0  0
  3 19  1  0  0  0  0
  4  3  2  0  0  0  0
  5  6  2  0  0  0  0
  5  4  1  0  0  0  0
  6  1  1  0  0  0  0
  9  4  1  0  0  0  0
 10  5  1  0  0  0  0
 11 12  2  0  0  0  0
 11  6  1  0  0  0  0
 13 11  2  0  0  0  0
 15 14  3  0  0  0  0
 16 21  2  0  0  0  0
 16 20  2  0  0  0  0
 16 17  1  0  0  0  0
 17 18  1  0  0  0  0
 19 16  1  0  0  0  0
M  END
