Coordinates from ORCA-job p-NO2-Ph-N2-HSO4-B3LYPG-aug-cc-pVDZ-scan-d09-49-n400
 OpenBabel12261916533D

 21 20  0  0  0  0  0  0  0  0999 V2000
    2.5636   -0.7303    0.1014 C   0  0  0  0  0  0  0  0  0  0  0  0
    1.7173   -0.1446    1.0427 C   0  0  0  0  0  0  0  0  0  0  0  0
    0.6394    0.6217    0.5928 C   0  0  0  0  0  0  0  0  0  0  0  0
    0.3896    0.8127   -0.7704 C   0  0  0  0  0  0  0  0  0  0  0  0
    1.2293    0.2186   -1.7078 C   0  0  0  0  0  0  0  0  0  0  0  0
    2.3089   -0.5443   -1.2572 C   0  0  0  0  0  0  0  0  0  0  0  0
    3.4140   -1.3319    0.4119 H   0  0  0  0  0  0  0  0  0  0  0  0
    1.9035   -0.2900    2.1029 H   0  0  0  0  0  0  0  0  0  0  0  0
   -0.4586    1.4210   -1.0782 H   0  0  0  0  0  0  0  0  0  0  0  0
    1.0632    0.3436   -2.7746 H   0  0  0  0  0  0  0  0  0  0  0  0
    3.2036   -1.1720   -2.2457 N   0  0  0  0  0  0  0  0  0  0  0  0
    4.1455   -1.8380   -1.8227 O   0  0  0  0  0  0  0  0  0  0  0  0
    2.9541   -0.9931   -3.4356 O   0  0  0  0  0  0  0  0  0  0  0  0
    2.2538    4.5906   -0.0219 N   0  0  0  0  0  0  0  0  0  0  0  0
    3.0245    5.2530   -0.4541 N   0  0  0  0  0  0  0  0  0  0  0  0
    0.0872    1.7978    2.9471 S   0  0  0  0  0  0  0  0  0  0  0  0
    0.1324    0.4094    3.8325 O   0  0  0  0  0  0  0  0  0  0  0  0
   -0.7795    0.2072    4.1059 H   0  0  0  0  0  0  0  0  0  0  0  0
   -0.3094    1.2040    1.4382 O   0  0  0  0  0  0  0  0  0  0  0  0
   -1.0988    2.5648    3.3334 O   0  0  0  0  0  0  0  0  0  0  0  0
    1.4541    2.3152    2.9515 O   0  0  0  0  0  0  0  0  0  0  0  0
  1  7  1  0  0  0  0
  1  2  2  0  0  0  0
  2  8  1  0  0  0  0
  3  2  1  0  0  0  0
  3 19  1  0  0  0  0
  4  3  2  0  0  0  0
  5  6  2  0  0  0  0
  5  4  1  0  0  0  0
  6  1  1  0  0  0  0
  9  4  1  0  0  0  0
 10  5  1  0  0  0  0
 11 12  2  0  0  0  0
 11  6  1  0  0  0  0
 13 11  2  0  0  0  0
 15 14  3  0  0  0  0
 16 21  2  0  0  0  0
 16 20  2  0  0  0  0
 16 17  1  0  0  0  0
 17 18  1  0  0  0  0
 19 16  1  0  0  0  0
M  END
