Coordinates from ORCA-job p-NO2-Ph-N2-HSO4-B3LYPG-aug-cc-pVDZ-scan-d09-49-n400
 OpenBabel12261916533D

 21 20  0  0  0  0  0  0  0  0999 V2000
    2.6471   -0.5502    0.0802 C   0  0  0  0  0  0  0  0  0  0  0  0
    1.8360    0.0900    1.0177 C   0  0  0  0  0  0  0  0  0  0  0  0
    0.7050    0.7769    0.5687 C   0  0  0  0  0  0  0  0  0  0  0  0
    0.3725    0.8363   -0.7900 C   0  0  0  0  0  0  0  0  0  0  0  0
    1.1807    0.1924   -1.7208 C   0  0  0  0  0  0  0  0  0  0  0  0
    2.3117   -0.4936   -1.2718 C   0  0  0  0  0  0  0  0  0  0  0  0
    3.5356   -1.0934    0.3916 H   0  0  0  0  0  0  0  0  0  0  0  0
    2.0964    0.0506    2.0706 H   0  0  0  0  0  0  0  0  0  0  0  0
   -0.5150    1.3850   -1.0985 H   0  0  0  0  0  0  0  0  0  0  0  0
    0.9493    0.2179   -2.7825 H   0  0  0  0  0  0  0  0  0  0  0  0
    3.1718   -1.1761   -2.2530 N   0  0  0  0  0  0  0  0  0  0  0  0
    4.1595   -1.7729   -1.8307 O   0  0  0  0  0  0  0  0  0  0  0  0
    2.8502   -1.1097   -3.4373 O   0  0  0  0  0  0  0  0  0  0  0  0
    2.1399    4.0603    0.1573 N   0  0  0  0  0  0  0  0  0  0  0  0
    2.9784    4.6286   -0.2822 N   0  0  0  0  0  0  0  0  0  0  0  0
    0.0991    1.8337    2.9806 S   0  0  0  0  0  0  0  0  0  0  0  0
    0.0371    0.3579    3.7072 O   0  0  0  0  0  0  0  0  0  0  0  0
   -0.8983    0.1586    3.8876 H   0  0  0  0  0  0  0  0  0  0  0  0
   -0.2155    1.4244    1.3958 O   0  0  0  0  0  0  0  0  0  0  0  0
   -1.0824    2.6070    3.3657 O   0  0  0  0  0  0  0  0  0  0  0  0
    1.4784    2.2920    3.1359 O   0  0  0  0  0  0  0  0  0  0  0  0
  1  7  1  0  0  0  0
  1  2  2  0  0  0  0
  2  8  1  0  0  0  0
  3  2  1  0  0  0  0
  3 19  1  0  0  0  0
  4  3  2  0  0  0  0
  5  6  2  0  0  0  0
  5  4  1  0  0  0  0
  6  1  1  0  0  0  0
  9  4  1  0  0  0  0
 10  5  1  0  0  0  0
 11 12  2  0  0  0  0
 11  6  1  0  0  0  0
 13 11  2  0  0  0  0
 15 14  3  0  0  0  0
 16 21  2  0  0  0  0
 16 20  2  0  0  0  0
 16 17  1  0  0  0  0
 17 18  1  0  0  0  0
 19 16  1  0  0  0  0
M  END
