Coordinates from ORCA-job p-NO2-Ph-N2-HSO4-B3LYPG-aug-cc-pVDZ-scan-d09-49-n400
 OpenBabel12261916533D

 21 20  0  0  0  0  0  0  0  0999 V2000
    2.7278   -0.3599    0.0645 C   0  0  0  0  0  0  0  0  0  0  0  0
    1.9489    0.3227    0.9984 C   0  0  0  0  0  0  0  0  0  0  0  0
    0.8044    0.9947    0.5586 C   0  0  0  0  0  0  0  0  0  0  0  0
    0.3954    0.9378   -0.7805 C   0  0  0  0  0  0  0  0  0  0  0  0
    1.1730    0.2558   -1.7082 C   0  0  0  0  0  0  0  0  0  0  0  0
    2.3393   -0.3802   -1.2744 C   0  0  0  0  0  0  0  0  0  0  0  0
    3.6321   -0.8803    0.3694 H   0  0  0  0  0  0  0  0  0  0  0  0
    2.2549    0.3456    2.0392 H   0  0  0  0  0  0  0  0  0  0  0  0
   -0.5210    1.4431   -1.0790 H   0  0  0  0  0  0  0  0  0  0  0  0
    0.8877    0.2058   -2.7558 H   0  0  0  0  0  0  0  0  0  0  0  0
    3.1664   -1.1063   -2.2518 N   0  0  0  0  0  0  0  0  0  0  0  0
    4.1819   -1.6629   -1.8406 O   0  0  0  0  0  0  0  0  0  0  0  0
    2.7923   -1.1128   -3.4226 O   0  0  0  0  0  0  0  0  0  0  0  0
    1.9092    3.1694    0.2907 N   0  0  0  0  0  0  0  0  0  0  0  0
    2.7588    3.5699   -0.2918 N   0  0  0  0  0  0  0  0  0  0  0  0
    0.1104    1.8843    3.0180 S   0  0  0  0  0  0  0  0  0  0  0  0
   -0.0401    0.3482    3.5860 O   0  0  0  0  0  0  0  0  0  0  0  0
   -0.9907    0.1598    3.6771 H   0  0  0  0  0  0  0  0  0  0  0  0
   -0.1109    1.6438    1.3841 O   0  0  0  0  0  0  0  0  0  0  0  0
   -1.0702    2.6598    3.4001 O   0  0  0  0  0  0  0  0  0  0  0  0
    1.4882    2.2771    3.3108 O   0  0  0  0  0  0  0  0  0  0  0  0
  1  7  1  0  0  0  0
  1  2  2  0  0  0  0
  2  8  1  0  0  0  0
  3  2  1  0  0  0  0
  3 19  1  0  0  0  0
  4  3  2  0  0  0  0
  5  6  2  0  0  0  0
  5  4  1  0  0  0  0
  6  1  1  0  0  0  0
  9  4  1  0  0  0  0
 10  5  1  0  0  0  0
 11 12  2  0  0  0  0
 11  6  1  0  0  0  0
 13 11  2  0  0  0  0
 15 14  3  0  0  0  0
 16 21  2  0  0  0  0
 16 20  2  0  0  0  0
 16 17  1  0  0  0  0
 17 18  1  0  0  0  0
 19 16  1  0  0  0  0
M  END
