Coordinates from ORCA-job p-NO2-Ph-N2-HSO4-B3LYPG-aug-cc-pVDZ-scan-d09-49-n400
 OpenBabel12261916533D

 21 20  0  0  0  0  0  0  0  0999 V2000
    2.7284   -0.3580    0.0643 C   0  0  0  0  0  0  0  0  0  0  0  0
    1.9498    0.3251    0.9979 C   0  0  0  0  0  0  0  0  0  0  0  0
    0.8077    1.0008    0.5577 C   0  0  0  0  0  0  0  0  0  0  0  0
    0.3972    0.9413   -0.7811 C   0  0  0  0  0  0  0  0  0  0  0  0
    1.1743    0.2588   -1.7086 C   0  0  0  0  0  0  0  0  0  0  0  0
    2.3406   -0.3774   -1.2749 C   0  0  0  0  0  0  0  0  0  0  0  0
    3.6317   -0.8800    0.3695 H   0  0  0  0  0  0  0  0  0  0  0  0
    2.2553    0.3469    2.0389 H   0  0  0  0  0  0  0  0  0  0  0  0
   -0.5193    1.4465   -1.0795 H   0  0  0  0  0  0  0  0  0  0  0  0
    0.8884    0.2079   -2.7560 H   0  0  0  0  0  0  0  0  0  0  0  0
    3.1672   -1.1041   -2.2521 N   0  0  0  0  0  0  0  0  0  0  0  0
    4.1822   -1.6616   -1.8408 O   0  0  0  0  0  0  0  0  0  0  0  0
    2.7930   -1.1107   -3.4229 O   0  0  0  0  0  0  0  0  0  0  0  0
    1.9009    3.1482    0.2957 N   0  0  0  0  0  0  0  0  0  0  0  0
    2.7491    3.5465   -0.2905 N   0  0  0  0  0  0  0  0  0  0  0  0
    0.1107    1.8866    3.0176 S   0  0  0  0  0  0  0  0  0  0  0  0
   -0.0381    0.3509    3.5869 O   0  0  0  0  0  0  0  0  0  0  0  0
   -0.9885    0.1613    3.6777 H   0  0  0  0  0  0  0  0  0  0  0  0
   -0.1103    1.6450    1.3837 O   0  0  0  0  0  0  0  0  0  0  0  0
   -1.0709    2.6609    3.3990 O   0  0  0  0  0  0  0  0  0  0  0  0
    1.4882    2.2807    3.3099 O   0  0  0  0  0  0  0  0  0  0  0  0
  1  7  1  0  0  0  0
  1  2  2  0  0  0  0
  2  8  1  0  0  0  0
  3  2  1  0  0  0  0
  3 19  1  0  0  0  0
  4  3  2  0  0  0  0
  5  6  2  0  0  0  0
  5  4  1  0  0  0  0
  6  1  1  0  0  0  0
  9  4  1  0  0  0  0
 10  5  1  0  0  0  0
 11 12  2  0  0  0  0
 11  6  1  0  0  0  0
 13 11  2  0  0  0  0
 15 14  3  0  0  0  0
 16 21  2  0  0  0  0
 16 20  2  0  0  0  0
 16 17  1  0  0  0  0
 17 18  1  0  0  0  0
 19 16  1  0  0  0  0
M  END
