Coordinates from ORCA-job p-NO2-Ph-N2-HSO4-B3LYPG-aug-cc-pVDZ-scan-d09-49-n400
 OpenBabel12261916533D

 21 20  0  0  0  0  0  0  0  0999 V2000
    2.7285   -0.3583    0.0642 C   0  0  0  0  0  0  0  0  0  0  0  0
    1.9495    0.3243    0.9980 C   0  0  0  0  0  0  0  0  0  0  0  0
    0.8066    0.9986    0.5580 C   0  0  0  0  0  0  0  0  0  0  0  0
    0.3968    0.9403   -0.7810 C   0  0  0  0  0  0  0  0  0  0  0  0
    1.1743    0.2583   -1.7086 C   0  0  0  0  0  0  0  0  0  0  0  0
    2.3406   -0.3778   -1.2749 C   0  0  0  0  0  0  0  0  0  0  0  0
    3.6322   -0.8797    0.3693 H   0  0  0  0  0  0  0  0  0  0  0  0
    2.2552    0.3463    2.0389 H   0  0  0  0  0  0  0  0  0  0  0  0
   -0.5197    1.4455   -1.0794 H   0  0  0  0  0  0  0  0  0  0  0  0
    0.8886    0.2080   -2.7561 H   0  0  0  0  0  0  0  0  0  0  0  0
    3.1676   -1.1039   -2.2523 N   0  0  0  0  0  0  0  0  0  0  0  0
    4.1811   -1.6637   -1.8405 O   0  0  0  0  0  0  0  0  0  0  0  0
    2.7919   -1.1128   -3.4226 O   0  0  0  0  0  0  0  0  0  0  0  0
    1.9035    3.1552    0.2945 N   0  0  0  0  0  0  0  0  0  0  0  0
    2.7519    3.5543   -0.2907 N   0  0  0  0  0  0  0  0  0  0  0  0
    0.1104    1.8858    3.0177 S   0  0  0  0  0  0  0  0  0  0  0  0
   -0.0386    0.3501    3.5871 O   0  0  0  0  0  0  0  0  0  0  0  0
   -0.9890    0.1607    3.6781 H   0  0  0  0  0  0  0  0  0  0  0  0
   -0.1106    1.6441    1.3838 O   0  0  0  0  0  0  0  0  0  0  0  0
   -1.0711    2.6602    3.3990 O   0  0  0  0  0  0  0  0  0  0  0  0
    1.4879    2.2798    3.3100 O   0  0  0  0  0  0  0  0  0  0  0  0
  1  7  1  0  0  0  0
  1  2  2  0  0  0  0
  2  8  1  0  0  0  0
  3  2  1  0  0  0  0
  3 19  1  0  0  0  0
  4  3  2  0  0  0  0
  5  6  2  0  0  0  0
  5  4  1  0  0  0  0
  6  1  1  0  0  0  0
  9  4  1  0  0  0  0
 10  5  1  0  0  0  0
 11 12  2  0  0  0  0
 11  6  1  0  0  0  0
 13 11  2  0  0  0  0
 15 14  3  0  0  0  0
 16 21  2  0  0  0  0
 16 20  2  0  0  0  0
 16 17  1  0  0  0  0
 17 18  1  0  0  0  0
 19 16  1  0  0  0  0
M  END
