Coordinates from ORCA-job p-NO2-Ph-N2-HSO4-B3LYPG-aug-cc-pVDZ-scan-d09-49-n400
 OpenBabel12261916533D

 21 20  0  0  0  0  0  0  0  0999 V2000
    2.5368   -0.7861    0.1077 C   0  0  0  0  0  0  0  0  0  0  0  0
    1.6842   -0.2101    1.0490 C   0  0  0  0  0  0  0  0  0  0  0  0
    0.6302    0.5899    0.6007 C   0  0  0  0  0  0  0  0  0  0  0  0
    0.4085    0.8231   -0.7604 C   0  0  0  0  0  0  0  0  0  0  0  0
    1.2540    0.2379   -1.6986 C   0  0  0  0  0  0  0  0  0  0  0  0
    2.3104   -0.5575   -1.2498 C   0  0  0  0  0  0  0  0  0  0  0  0
    3.3694   -1.4131    0.4158 H   0  0  0  0  0  0  0  0  0  0  0  0
    1.8448   -0.3884    2.1086 H   0  0  0  0  0  0  0  0  0  0  0  0
   -0.4229    1.4549   -1.0664 H   0  0  0  0  0  0  0  0  0  0  0  0
    1.1094    0.3939   -2.7644 H   0  0  0  0  0  0  0  0  0  0  0  0
    3.2109   -1.1757   -2.2394 N   0  0  0  0  0  0  0  0  0  0  0  0
    4.1315   -1.8718   -1.8180 O   0  0  0  0  0  0  0  0  0  0  0  0
    2.9863   -0.9604   -3.4281 O   0  0  0  0  0  0  0  0  0  0  0  0
    2.2502    4.7200   -0.0840 N   0  0  0  0  0  0  0  0  0  0  0  0
    2.9978    5.4058   -0.5202 N   0  0  0  0  0  0  0  0  0  0  0  0
    0.0899    1.7883    2.9419 S   0  0  0  0  0  0  0  0  0  0  0  0
    0.1596    0.4178    3.8538 O   0  0  0  0  0  0  0  0  0  0  0  0
   -0.7462    0.2163    4.1473 H   0  0  0  0  0  0  0  0  0  0  0  0
   -0.3221    1.1612    1.4499 O   0  0  0  0  0  0  0  0  0  0  0  0
   -1.0974    2.5520    3.3318 O   0  0  0  0  0  0  0  0  0  0  0  0
    1.4523    2.3173    2.9151 O   0  0  0  0  0  0  0  0  0  0  0  0
  1  7  1  0  0  0  0
  1  2  2  0  0  0  0
  2  8  1  0  0  0  0
  3  2  1  0  0  0  0
  3 19  1  0  0  0  0
  4  3  2  0  0  0  0
  5  6  2  0  0  0  0
  5  4  1  0  0  0  0
  6  1  1  0  0  0  0
  9  4  1  0  0  0  0
 10  5  1  0  0  0  0
 11 12  2  0  0  0  0
 11  6  1  0  0  0  0
 13 11  2  0  0  0  0
 15 14  3  0  0  0  0
 16 20  2  0  0  0  0
 16 17  1  0  0  0  0
 17 18  1  0  0  0  0
 19 16  1  0  0  0  0
 21 16  2  0  0  0  0
M  END
