Coordinates from ORCA-job p-NO2-Ph-N2-HSO4-B3LYPG-aug-cc-pVDZ-scan-d09-49-n400
 OpenBabel12261916533D

 21 21  0  0  1  0  0  0  0  0999 V2000
    2.1460   -0.0619    0.3201 C   0  0  0  0  0  0  0  0  0  0  0  0
    1.7178    1.2801    0.8122 C   0  0  1  0  0  0  0  0  0  0  0  0
    1.5731    2.2872   -0.3071 C   0  0  0  0  0  0  0  0  0  0  0  0
    1.3972    1.8352   -1.6801 C   0  0  0  0  0  0  0  0  0  0  0  0
    1.6036    0.5386   -2.0153 C   0  0  0  0  0  0  0  0  0  0  0  0
    2.0318   -0.3801   -0.9858 C   0  0  0  0  0  0  0  0  0  0  0  0
    2.5021   -0.7920    1.0417 H   0  0  0  0  0  0  0  0  0  0  0  0
    2.3644    1.6609    1.6094 H   0  0  0  0  0  0  0  0  0  0  0  0
    1.1119    2.5746   -2.4275 H   0  0  0  0  0  0  0  0  0  0  0  0
    1.4869    0.1827   -3.0337 H   0  0  0  0  0  0  0  0  0  0  0  0
    2.3952   -1.7613   -1.4030 N   0  0  0  0  0  0  0  0  0  0  0  0
    2.7879   -2.5415   -0.5428 O   0  0  0  0  0  0  0  0  0  0  0  0
    2.2723   -2.0329   -2.5935 O   0  0  0  0  0  0  0  0  0  0  0  0
    1.5539    3.4351   -0.0317 N   0  0  0  0  0  0  0  0  0  0  0  0
    1.5364    4.5469    0.2458 N   0  0  0  0  0  0  0  0  0  0  0  0
    0.2353    1.0981    3.0743 S   0  0  0  0  0  0  0  0  0  0  0  0
    0.7407   -0.4348    3.4228 O   0  0  0  0  0  0  0  0  0  0  0  0
   -0.0282   -1.0237    3.3297 H   0  0  0  0  0  0  0  0  0  0  0  0
    0.3447    1.1294    1.4328 O   0  0  0  0  0  0  0  0  0  0  0  0
   -1.1977    1.2023    3.3691 O   0  0  0  0  0  0  0  0  0  0  0  0
    1.2621    1.9726    3.6548 O   0  0  0  0  0  0  0  0  0  0  0  0
  1  2  1  0  0  0  0
  1  7  1  0  0  0  0
  2 19  1  0  0  0  0
  2  8  1  1  0  0  0
  3 14  1  0  0  0  0
  3  2  1  0  0  0  0
  4  3  2  0  0  0  0
  5  4  1  0  0  0  0
  5  6  1  0  0  0  0
  6  1  2  0  0  0  0
  9  4  1  0  0  0  0
 10  5  1  0  0  0  0
 11  6  1  0  0  0  0
 11 12  2  0  0  0  0
 13 11  2  0  0  0  0
 14 15  1  0  0  0  0
 16 20  2  0  0  0  0
 16 17  1  0  0  0  0
 16 21  2  0  0  0  0
 18 17  1  0  0  0  0
 19 16  1  0  0  0  0
M  RAD  3   5   2  14   2  15   3
M  END
