Coordinates from ORCA-job p-NO2-Ph-N2-HSO4-B3LYPG-aug-cc-pVDZ-scan-d09-49-n400
 OpenBabel12261916533D

 21 20  0  0  0  0  0  0  0  0999 V2000
    2.6682   -0.5042    0.0751 C   0  0  0  0  0  0  0  0  0  0  0  0
    1.8667    0.1495    1.0116 C   0  0  0  0  0  0  0  0  0  0  0  0
    0.7250    0.8208    0.5656 C   0  0  0  0  0  0  0  0  0  0  0  0
    0.3727    0.8499   -0.7892 C   0  0  0  0  0  0  0  0  0  0  0  0
    1.1722    0.1939   -1.7189 C   0  0  0  0  0  0  0  0  0  0  0  0
    2.3141   -0.4760   -1.2730 C   0  0  0  0  0  0  0  0  0  0  0  0
    3.5643   -1.0358    0.3846 H   0  0  0  0  0  0  0  0  0  0  0  0
    2.1436    0.1332    2.0609 H   0  0  0  0  0  0  0  0  0  0  0  0
   -0.5236    1.3856   -1.0958 H   0  0  0  0  0  0  0  0  0  0  0  0
    0.9253    0.1969   -2.7773 H   0  0  0  0  0  0  0  0  0  0  0  0
    3.1648   -1.1722   -2.2529 N   0  0  0  0  0  0  0  0  0  0  0  0
    4.1623   -1.7544   -1.8332 O   0  0  0  0  0  0  0  0  0  0  0  0
    2.8264   -1.1306   -3.4337 O   0  0  0  0  0  0  0  0  0  0  0  0
    2.1006    3.9028    0.1867 N   0  0  0  0  0  0  0  0  0  0  0  0
    2.9556    4.4414   -0.2586 N   0  0  0  0  0  0  0  0  0  0  0  0
    0.1014    1.8410    2.9910 S   0  0  0  0  0  0  0  0  0  0  0  0
    0.0113    0.3450    3.6712 O   0  0  0  0  0  0  0  0  0  0  0  0
   -0.9294    0.1489    3.8259 H   0  0  0  0  0  0  0  0  0  0  0  0
   -0.1870    1.4835    1.3894 O   0  0  0  0  0  0  0  0  0  0  0  0
   -1.0788    2.6162    3.3757 O   0  0  0  0  0  0  0  0  0  0  0  0
    1.4819    2.2802    3.1872 O   0  0  0  0  0  0  0  0  0  0  0  0
  1  7  1  0  0  0  0
  1  2  2  0  0  0  0
  2  8  1  0  0  0  0
  3  2  1  0  0  0  0
  3 19  1  0  0  0  0
  4  3  2  0  0  0  0
  5  6  2  0  0  0  0
  5  4  1  0  0  0  0
  6  1  1  0  0  0  0
  9  4  1  0  0  0  0
 10  5  1  0  0  0  0
 11 12  2  0  0  0  0
 11  6  1  0  0  0  0
 13 11  2  0  0  0  0
 15 14  3  0  0  0  0
 16 21  2  0  0  0  0
 16 20  2  0  0  0  0
 16 17  1  0  0  0  0
 17 18  1  0  0  0  0
 19 16  1  0  0  0  0
M  END
