Coordinates from ORCA-job p-NO2-Ph-N2-HSO4-B3LYPG-aug-cc-pVDZ-scan-d09-49-n400
 OpenBabel12261916533D

 21 20  0  0  0  0  0  0  0  0999 V2000
    2.6773   -0.4845    0.0726 C   0  0  0  0  0  0  0  0  0  0  0  0
    1.8790    0.1734    1.0089 C   0  0  0  0  0  0  0  0  0  0  0  0
    0.7325    0.8376    0.5646 C   0  0  0  0  0  0  0  0  0  0  0  0
    0.3720    0.8546   -0.7883 C   0  0  0  0  0  0  0  0  0  0  0  0
    1.1687    0.1951   -1.7178 C   0  0  0  0  0  0  0  0  0  0  0  0
    2.3157   -0.4674   -1.2737 C   0  0  0  0  0  0  0  0  0  0  0  0
    3.5770   -1.0108    0.3810 H   0  0  0  0  0  0  0  0  0  0  0  0
    2.1624    0.1664    2.0564 H   0  0  0  0  0  0  0  0  0  0  0  0
   -0.5282    1.3844   -1.0938 H   0  0  0  0  0  0  0  0  0  0  0  0
    0.9156    0.1892   -2.7747 H   0  0  0  0  0  0  0  0  0  0  0  0
    3.1632   -1.1678   -2.2533 N   0  0  0  0  0  0  0  0  0  0  0  0
    4.1650   -1.7436   -1.8351 O   0  0  0  0  0  0  0  0  0  0  0  0
    2.8179   -1.1361   -3.4324 O   0  0  0  0  0  0  0  0  0  0  0  0
    2.0843    3.8324    0.1989 N   0  0  0  0  0  0  0  0  0  0  0  0
    2.9463    4.3570   -0.2493 N   0  0  0  0  0  0  0  0  0  0  0  0
    0.1025    1.8440    2.9945 S   0  0  0  0  0  0  0  0  0  0  0  0
   -0.0014    0.3416    3.6582 O   0  0  0  0  0  0  0  0  0  0  0  0
   -0.9444    0.1496    3.8042 H   0  0  0  0  0  0  0  0  0  0  0  0
   -0.1767    1.5051    1.3874 O   0  0  0  0  0  0  0  0  0  0  0  0
   -1.0753    2.6230    3.3789 O   0  0  0  0  0  0  0  0  0  0  0  0
    1.4843    2.2724    3.2049 O   0  0  0  0  0  0  0  0  0  0  0  0
  1  7  1  0  0  0  0
  1  2  2  0  0  0  0
  2  8  1  0  0  0  0
  3  2  1  0  0  0  0
  3 19  1  0  0  0  0
  4  3  2  0  0  0  0
  5  6  2  0  0  0  0
  5  4  1  0  0  0  0
  6  1  1  0  0  0  0
  9  4  1  0  0  0  0
 10  5  1  0  0  0  0
 11 12  2  0  0  0  0
 11  6  1  0  0  0  0
 13 11  2  0  0  0  0
 15 14  3  0  0  0  0
 16 21  2  0  0  0  0
 16 20  2  0  0  0  0
 16 17  1  0  0  0  0
 17 18  1  0  0  0  0
 19 16  1  0  0  0  0
M  END
