Coordinates from ORCA-job p-NO2-Ph-N2-HSO4-B3LYPG-aug-cc-pVDZ-scan-d09-49-n400
 OpenBabel12261916533D

 21 20  0  0  0  0  0  0  0  0999 V2000
    2.6322   -0.5825    0.0836 C   0  0  0  0  0  0  0  0  0  0  0  0
    1.8139    0.0473    1.0217 C   0  0  0  0  0  0  0  0  0  0  0  0
    0.6917    0.7468    0.5713 C   0  0  0  0  0  0  0  0  0  0  0  0
    0.3740    0.8292   -0.7896 C   0  0  0  0  0  0  0  0  0  0  0  0
    1.1885    0.1945   -1.7213 C   0  0  0  0  0  0  0  0  0  0  0  0
    2.3111   -0.5039   -1.2708 C   0  0  0  0  0  0  0  0  0  0  0  0
    3.5145   -1.1351    0.3960 H   0  0  0  0  0  0  0  0  0  0  0  0
    2.0610   -0.0103    2.0771 H   0  0  0  0  0  0  0  0  0  0  0  0
   -0.5072    1.3878   -1.0990 H   0  0  0  0  0  0  0  0  0  0  0  0
    0.9685    0.2369   -2.7848 H   0  0  0  0  0  0  0  0  0  0  0  0
    3.1782   -1.1765   -2.2534 N   0  0  0  0  0  0  0  0  0  0  0  0
    4.1582   -1.7848   -1.8297 O   0  0  0  0  0  0  0  0  0  0  0  0
    2.8690   -1.0914   -3.4398 O   0  0  0  0  0  0  0  0  0  0  0  0
    2.1593    4.1562    0.1371 N   0  0  0  0  0  0  0  0  0  0  0  0
    2.9865    4.7441   -0.2980 N   0  0  0  0  0  0  0  0  0  0  0  0
    0.0984    1.8302    2.9719 S   0  0  0  0  0  0  0  0  0  0  0  0
    0.0566    0.3708    3.7328 O   0  0  0  0  0  0  0  0  0  0  0  0
   -0.8747    0.1708    3.9328 H   0  0  0  0  0  0  0  0  0  0  0  0
   -0.2352    1.3815    1.4013 O   0  0  0  0  0  0  0  0  0  0  0  0
   -1.0834    2.6032    3.3572 O   0  0  0  0  0  0  0  0  0  0  0  0
    1.4767    2.3009    3.0960 O   0  0  0  0  0  0  0  0  0  0  0  0
  1  7  1  0  0  0  0
  1  2  2  0  0  0  0
  2  8  1  0  0  0  0
  3  2  1  0  0  0  0
  3 19  1  0  0  0  0
  4  3  2  0  0  0  0
  5  6  2  0  0  0  0
  5  4  1  0  0  0  0
  6  1  1  0  0  0  0
  9  4  1  0  0  0  0
 10  5  1  0  0  0  0
 11 12  2  0  0  0  0
 11  6  1  0  0  0  0
 13 11  2  0  0  0  0
 15 14  3  0  0  0  0
 16 21  2  0  0  0  0
 16 20  2  0  0  0  0
 16 17  1  0  0  0  0
 17 18  1  0  0  0  0
 19 16  1  0  0  0  0
M  END
