Coordinates from ORCA-job p-NO2-Ph-N2-HSO4-B3LYPG-aug-cc-pVDZ-scan-d09-49-n400
 OpenBabel12261916533D

 21 20  0  0  0  0  0  0  0  0999 V2000
    2.4691   -0.9196    0.1187 C   0  0  0  0  0  0  0  0  0  0  0  0
    1.6020   -0.3680    1.0609 C   0  0  0  0  0  0  0  0  0  0  0  0
    0.6096    0.5140    0.6269 C   0  0  0  0  0  0  0  0  0  0  0  0
    0.4614    0.8543   -0.7207 C   0  0  0  0  0  0  0  0  0  0  0  0
    1.3202    0.2932   -1.6624 C   0  0  0  0  0  0  0  0  0  0  0  0
    2.3151   -0.5843   -1.2271 C   0  0  0  0  0  0  0  0  0  0  0  0
    3.2560   -1.6084    0.4147 H   0  0  0  0  0  0  0  0  0  0  0  0
    1.7005   -0.6250    2.1124 H   0  0  0  0  0  0  0  0  0  0  0  0
   -0.3239    1.5475   -1.0154 H   0  0  0  0  0  0  0  0  0  0  0  0
    1.2333    0.5305   -2.7195 H   0  0  0  0  0  0  0  0  0  0  0  0
    3.2297   -1.1773   -2.2205 N   0  0  0  0  0  0  0  0  0  0  0  0
    4.0953   -1.9473   -1.8118 O   0  0  0  0  0  0  0  0  0  0  0  0
    3.0705   -0.8676   -3.3987 O   0  0  0  0  0  0  0  0  0  0  0  0
    2.2479    5.0398   -0.2915 N   0  0  0  0  0  0  0  0  0  0  0  0
    2.9367    5.7754   -0.7431 N   0  0  0  0  0  0  0  0  0  0  0  0
    0.0944    1.7491    2.9422 S   0  0  0  0  0  0  0  0  0  0  0  0
    0.1999    0.4183    3.9085 O   0  0  0  0  0  0  0  0  0  0  0  0
   -0.6945    0.2302    4.2428 H   0  0  0  0  0  0  0  0  0  0  0  0
   -0.3505    1.0577    1.4872 O   0  0  0  0  0  0  0  0  0  0  0  0
   -1.0871    2.5198    3.3371 O   0  0  0  0  0  0  0  0  0  0  0  0
    1.4521    2.2833    2.8513 O   0  0  0  0  0  0  0  0  0  0  0  0
  1  7  1  0  0  0  0
  1  2  2  0  0  0  0
  2  8  1  0  0  0  0
  3  2  1  0  0  0  0
  3 19  1  0  0  0  0
  4  3  2  0  0  0  0
  5  6  2  0  0  0  0
  5  4  1  0  0  0  0
  6  1  1  0  0  0  0
  9  4  1  0  0  0  0
 10  5  1  0  0  0  0
 11 12  2  0  0  0  0
 11  6  1  0  0  0  0
 13 11  2  0  0  0  0
 15 14  3  0  0  0  0
 16 20  2  0  0  0  0
 16 17  1  0  0  0  0
 17 18  1  0  0  0  0
 19 16  1  0  0  0  0
 21 16  2  0  0  0  0
M  END
