Coordinates from ORCA-job p-NO2-Ph-N2-HSO4-B3LYPG-aug-cc-pVDZ-scan-d09-49-n400
 OpenBabel12261916533D

 21 20  0  0  0  0  0  0  0  0999 V2000
    2.6869   -0.4625    0.0704 C   0  0  0  0  0  0  0  0  0  0  0  0
    1.8932    0.2018    1.0063 C   0  0  0  0  0  0  0  0  0  0  0  0
    0.7415    0.8582    0.5640 C   0  0  0  0  0  0  0  0  0  0  0  0
    0.3714    0.8612   -0.7865 C   0  0  0  0  0  0  0  0  0  0  0  0
    1.1640    0.1962   -1.7154 C   0  0  0  0  0  0  0  0  0  0  0  0
    2.3162   -0.4588   -1.2734 C   0  0  0  0  0  0  0  0  0  0  0  0
    3.5903   -0.9830    0.3774 H   0  0  0  0  0  0  0  0  0  0  0  0
    2.1846    0.2065    2.0516 H   0  0  0  0  0  0  0  0  0  0  0  0
   -0.5327    1.3851   -1.0903 H   0  0  0  0  0  0  0  0  0  0  0  0
    0.9032    0.1796   -2.7704 H   0  0  0  0  0  0  0  0  0  0  0  0
    3.1589   -1.1656   -2.2524 N   0  0  0  0  0  0  0  0  0  0  0  0
    4.1681   -1.7302   -1.8367 O   0  0  0  0  0  0  0  0  0  0  0  0
    2.8081   -1.1413   -3.4301 O   0  0  0  0  0  0  0  0  0  0  0  0
    2.0704    3.7539    0.2097 N   0  0  0  0  0  0  0  0  0  0  0  0
    2.9388    4.2623   -0.2451 N   0  0  0  0  0  0  0  0  0  0  0  0
    0.1023    1.8468    2.9997 S   0  0  0  0  0  0  0  0  0  0  0  0
   -0.0137    0.3353    3.6398 O   0  0  0  0  0  0  0  0  0  0  0  0
   -0.9587    0.1449    3.7740 H   0  0  0  0  0  0  0  0  0  0  0  0
   -0.1634    1.5328    1.3854 O   0  0  0  0  0  0  0  0  0  0  0  0
   -1.0755    2.6256    3.3841 O   0  0  0  0  0  0  0  0  0  0  0  0
    1.4837    2.2667    3.2299 O   0  0  0  0  0  0  0  0  0  0  0  0
  1  7  1  0  0  0  0
  1  2  2  0  0  0  0
  2  8  1  0  0  0  0
  3  2  1  0  0  0  0
  3 19  1  0  0  0  0
  4  3  2  0  0  0  0
  5  6  2  0  0  0  0
  5  4  1  0  0  0  0
  6  1  1  0  0  0  0
  9  4  1  0  0  0  0
 10  5  1  0  0  0  0
 11 12  2  0  0  0  0
 11  6  1  0  0  0  0
 13 11  2  0  0  0  0
 15 14  3  0  0  0  0
 16 21  2  0  0  0  0
 16 20  2  0  0  0  0
 16 17  1  0  0  0  0
 17 18  1  0  0  0  0
 19 16  1  0  0  0  0
M  END
