Coordinates from ORCA-job p-NO2-Ph-N2-HSO4-B3LYPG-aug-cc-pVDZ-scan-d09-49-n400
 OpenBabel12261916533D

 21 20  0  0  0  0  0  0  0  0999 V2000
    2.4874   -0.8844    0.1163 C   0  0  0  0  0  0  0  0  0  0  0  0
    1.6236   -0.3269    1.0579 C   0  0  0  0  0  0  0  0  0  0  0  0
    0.6142    0.5340    0.6193 C   0  0  0  0  0  0  0  0  0  0  0  0
    0.4466    0.8458   -0.7323 C   0  0  0  0  0  0  0  0  0  0  0  0
    1.3023    0.2787   -1.6735 C   0  0  0  0  0  0  0  0  0  0  0  0
    2.3140   -0.5768   -1.2337 C   0  0  0  0  0  0  0  0  0  0  0  0
    3.2866   -1.5570    0.4165 H   0  0  0  0  0  0  0  0  0  0  0  0
    1.7379   -0.5643    2.1123 H   0  0  0  0  0  0  0  0  0  0  0  0
   -0.3515    1.5226   -1.0308 H   0  0  0  0  0  0  0  0  0  0  0  0
    1.2003    0.4952   -2.7337 H   0  0  0  0  0  0  0  0  0  0  0  0
    3.2253   -1.1759   -2.2262 N   0  0  0  0  0  0  0  0  0  0  0  0
    4.1062   -1.9259   -1.8131 O   0  0  0  0  0  0  0  0  0  0  0  0
    3.0489   -0.8902   -3.4080 O   0  0  0  0  0  0  0  0  0  0  0  0
    2.2500    4.9539   -0.2348 N   0  0  0  0  0  0  0  0  0  0  0  0
    2.9539    5.6773   -0.6828 N   0  0  0  0  0  0  0  0  0  0  0  0
    0.0927    1.7587    2.9412 S   0  0  0  0  0  0  0  0  0  0  0  0
    0.1895    0.4205    3.8981 O   0  0  0  0  0  0  0  0  0  0  0  0
   -0.7076    0.2305    4.2242 H   0  0  0  0  0  0  0  0  0  0  0  0
   -0.3452    1.0809    1.4783 O   0  0  0  0  0  0  0  0  0  0  0  0
   -1.0895    2.5290    3.3343 O   0  0  0  0  0  0  0  0  0  0  0  0
    1.4522    2.2898    2.8630 O   0  0  0  0  0  0  0  0  0  0  0  0
  1  7  1  0  0  0  0
  1  2  2  0  0  0  0
  2  8  1  0  0  0  0
  3  2  1  0  0  0  0
  3 19  1  0  0  0  0
  4  3  2  0  0  0  0
  5  6  2  0  0  0  0
  5  4  1  0  0  0  0
  6  1  1  0  0  0  0
  9  4  1  0  0  0  0
 10  5  1  0  0  0  0
 11 12  2  0  0  0  0
 11  6  1  0  0  0  0
 13 11  2  0  0  0  0
 15 14  3  0  0  0  0
 16 20  2  0  0  0  0
 16 17  1  0  0  0  0
 17 18  1  0  0  0  0
 19 16  1  0  0  0  0
 21 16  2  0  0  0  0
M  END
