Coordinates from ORCA-job p-NO2-Ph-N2-HSO4-B3LYPG-aug-cc-pVDZ-scan-d09-49-n400
 OpenBabel12261916533D

 21 20  0  0  0  0  0  0  0  0999 V2000
    2.6588   -0.4111    0.0601 C   0  0  0  0  0  0  0  0  0  0  0  0
    2.2831    0.7463    0.7461 C   0  0  0  0  0  0  0  0  0  0  0  0
    1.6246    1.7045   -0.0009 C   0  0  0  0  0  0  0  0  0  0  0  0
    1.2904    1.6317   -1.3478 C   0  0  0  0  0  0  0  0  0  0  0  0
    1.6660    0.4626   -2.0087 C   0  0  0  0  0  0  0  0  0  0  0  0
    2.3448   -0.5275   -1.2938 C   0  0  0  0  0  0  0  0  0  0  0  0
    3.1758   -1.2194    0.5701 H   0  0  0  0  0  0  0  0  0  0  0  0
    2.4535    0.8944    1.8086 H   0  0  0  0  0  0  0  0  0  0  0  0
    0.7542    2.4295   -1.8549 H   0  0  0  0  0  0  0  0  0  0  0  0
    1.4366    0.3134   -3.0606 H   0  0  0  0  0  0  0  0  0  0  0  0
    2.7456   -1.7647   -2.0126 N   0  0  0  0  0  0  0  0  0  0  0  0
    3.3507   -2.6157   -1.3728 O   0  0  0  0  0  0  0  0  0  0  0  0
    2.4461   -1.8466   -3.1985 O   0  0  0  0  0  0  0  0  0  0  0  0
    1.2457    3.0564    0.6830 N   0  0  0  0  0  0  0  0  0  0  0  0
    1.0120    4.1434    0.6251 N   0  0  0  0  0  0  0  0  0  0  0  0
   -0.2029    1.6751    2.9627 S   0  0  0  0  0  0  0  0  0  0  0  0
    0.2579    0.0660    3.2093 O   0  0  0  0  0  0  0  0  0  0  0  0
    0.0174   -0.1291    4.1282 H   0  0  0  0  0  0  0  0  0  0  0  0
   -0.9046    1.6525    1.6429 O   0  0  0  0  0  0  0  0  0  0  0  0
   -0.9651    2.0512    4.1771 O   0  0  0  0  0  0  0  0  0  0  0  0
    1.1470    2.4024    2.8296 O   0  0  0  0  0  0  0  0  0  0  0  0
  1  7  1  0  0  0  0
  1  2  1  0  0  0  0
  2  8  1  0  0  0  0
  3 14  1  0  0  0  0
  3  2  2  0  0  0  0
  4  3  1  0  0  0  0
  5  4  2  0  0  0  0
  5  6  1  0  0  0  0
  6  1  2  0  0  0  0
  9  4  1  0  0  0  0
 10  5  1  0  0  0  0
 11 12  2  0  0  0  0
 11  6  1  0  0  0  0
 13 11  2  0  0  0  0
 15 14  2  0  0  0  0
 16 17  1  0  0  0  0
 16 20  1  0  0  0  0
 17 18  1  0  0  0  0
 19 16  2  0  0  0  0
 21 16  2  0  0  0  0
M  RAD  2  15   2  20   2
M  END
