Coordinates from ORCA-job p-NO2-Ph-N2-HSO4-B3LYPG-aug-cc-pVDZ-scan-d09-49-n400
 OpenBabel12261916533D

 21 21  0  0  1  0  0  0  0  0999 V2000
    2.1448   -0.1231    0.2826 C   0  0  0  0  0  0  0  0  0  0  0  0
    1.7268    1.2052    0.8067 C   0  0  1  0  0  0  0  0  0  0  0  0
    1.6017    2.1895   -0.2953 C   0  0  1  0  0  0  0  0  0  0  0  0
    1.4412    1.8319   -1.6714 C   0  0  0  0  0  0  0  0  0  0  0  0
    1.6303    0.5358   -2.0476 C   0  0  0  0  0  0  0  0  0  0  0  0
    2.0299   -0.4078   -1.0366 C   0  0  0  0  0  0  0  0  0  0  0  0
    2.4938   -0.8753    0.9841 H   0  0  0  0  0  0  0  0  0  0  0  0
    2.3460    1.5597    1.6349 H   0  0  0  0  0  0  0  0  0  0  0  0
    1.1852    2.6013   -2.3980 H   0  0  0  0  0  0  0  0  0  0  0  0
    1.5251    0.2116   -3.0772 H   0  0  0  0  0  0  0  0  0  0  0  0
    2.3778   -1.7851   -1.4816 N   0  0  0  0  0  0  0  0  0  0  0  0
    2.7578   -2.5883   -0.6365 O   0  0  0  0  0  0  0  0  0  0  0  0
    2.2561   -2.0321   -2.6775 O   0  0  0  0  0  0  0  0  0  0  0  0
    1.5439    3.5126    0.0601 N   0  0  0  0  0  0  0  0  0  0  0  0
    1.4977    4.6003    0.3672 N   0  0  0  0  0  0  0  0  0  0  0  0
    0.1770    1.1518    3.0512 S   0  0  0  0  0  0  0  0  0  0  0  0
    0.8260   -0.2756    3.5772 O   0  0  0  0  0  0  0  0  0  0  0  0
    0.1212   -0.9449    3.5400 H   0  0  0  0  0  0  0  0  0  0  0  0
    0.3175    1.0184    1.4285 O   0  0  0  0  0  0  0  0  0  0  0  0
   -1.2635    1.1466    3.3348 O   0  0  0  0  0  0  0  0  0  0  0  0
    1.1012    2.1830    3.5464 O   0  0  0  0  0  0  0  0  0  0  0  0
  1  2  1  0  0  0  0
  1  7  1  0  0  0  0
  2 19  1  0  0  0  0
  2  8  1  1  0  0  0
  3 14  1  1  0  0  0
  3  2  1  0  0  0  0
  4  3  1  0  0  0  0
  5  4  2  0  0  0  0
  5  6  1  0  0  0  0
  6  1  2  0  0  0  0
  9  4  1  0  0  0  0
 10  5  1  0  0  0  0
 11  6  1  0  0  0  0
 11 12  2  0  0  0  0
 13 11  2  0  0  0  0
 14 15  1  0  0  0  0
 16 20  2  0  0  0  0
 16 21  2  0  0  0  0
 16 17  1  0  0  0  0
 18 17  1  0  0  0  0
 19 16  1  0  0  0  0
M  RAD  3   3   2  14   2  15   3
M  END
