Coordinates from ORCA-job p-NO2-Ph-N2-HSO4-B3LYPG-aug-cc-pVDZ-scan-d09-49-n400
 OpenBabel12261916533D

 21 20  0  0  0  0  0  0  0  0999 V2000
    2.6104   -0.4274    0.0555 C   0  0  0  0  0  0  0  0  0  0  0  0
    2.2270    0.7250    0.7426 C   0  0  0  0  0  0  0  0  0  0  0  0
    1.6062    1.7208    0.0011 C   0  0  0  0  0  0  0  0  0  0  0  0
    1.3277    1.6507   -1.3676 C   0  0  0  0  0  0  0  0  0  0  0  0
    1.7086    0.4900   -2.0336 C   0  0  0  0  0  0  0  0  0  0  0  0
    2.3456   -0.5209   -1.3101 C   0  0  0  0  0  0  0  0  0  0  0  0
    3.0958   -1.2511    0.5718 H   0  0  0  0  0  0  0  0  0  0  0  0
    2.3672    0.8504    1.8125 H   0  0  0  0  0  0  0  0  0  0  0  0
    0.8228    2.4620   -1.8862 H   0  0  0  0  0  0  0  0  0  0  0  0
    1.5165    0.3605   -3.0954 H   0  0  0  0  0  0  0  0  0  0  0  0
    2.7545   -1.7539   -2.0327 N   0  0  0  0  0  0  0  0  0  0  0  0
    3.3203   -2.6242   -1.3831 O   0  0  0  0  0  0  0  0  0  0  0  0
    2.5015   -1.8118   -3.2307 O   0  0  0  0  0  0  0  0  0  0  0  0
    1.2244    2.9988    0.6457 N   0  0  0  0  0  0  0  0  0  0  0  0
    0.9653    4.0812    0.5729 N   0  0  0  0  0  0  0  0  0  0  0  0
   -0.2026    1.6701    2.9918 S   0  0  0  0  0  0  0  0  0  0  0  0
    0.2888    0.0825    3.3051 O   0  0  0  0  0  0  0  0  0  0  0  0
    0.0960   -0.0659    4.2438 H   0  0  0  0  0  0  0  0  0  0  0  0
   -0.9239    1.5714    1.6874 O   0  0  0  0  0  0  0  0  0  0  0  0
   -0.9480    2.0943    4.2006 O   0  0  0  0  0  0  0  0  0  0  0  0
    1.1336    2.4128    2.8009 O   0  0  0  0  0  0  0  0  0  0  0  0
  1  7  1  0  0  0  0
  1  2  1  0  0  0  0
  2  8  1  0  0  0  0
  3 14  1  0  0  0  0
  3  2  2  0  0  0  0
  4  3  1  0  0  0  0
  5  4  2  0  0  0  0
  5  6  1  0  0  0  0
  6  1  2  0  0  0  0
  9  4  1  0  0  0  0
 10  5  1  0  0  0  0
 11 12  2  0  0  0  0
 11  6  1  0  0  0  0
 13 11  2  0  0  0  0
 15 14  2  0  0  0  0
 16 17  1  0  0  0  0
 16 20  1  0  0  0  0
 17 18  1  0  0  0  0
 19 16  2  0  0  0  0
 21 16  2  0  0  0  0
M  RAD  2  15   2  20   2
M  END
