Coordinates from ORCA-job p-NO2-Ph-N2-HSO4-B3LYPG-aug-cc-pVDZ-scan-d09-49-n400
 OpenBabel12261916533D

 21 20  0  0  0  0  0  0  0  0999 V2000
    2.5763   -0.7032    0.0982 C   0  0  0  0  0  0  0  0  0  0  0  0
    1.7346   -0.1100    1.0391 C   0  0  0  0  0  0  0  0  0  0  0  0
    0.6481    0.6429    0.5884 C   0  0  0  0  0  0  0  0  0  0  0  0
    0.3860    0.8146   -0.7755 C   0  0  0  0  0  0  0  0  0  0  0  0
    1.2215    0.2135   -1.7117 C   0  0  0  0  0  0  0  0  0  0  0  0
    2.3094   -0.5371   -1.2604 C   0  0  0  0  0  0  0  0  0  0  0  0
    3.4330   -1.2953    0.4097 H   0  0  0  0  0  0  0  0  0  0  0  0
    1.9323   -0.2395    2.0992 H   0  0  0  0  0  0  0  0  0  0  0  0
   -0.4683    1.4139   -1.0839 H   0  0  0  0  0  0  0  0  0  0  0  0
    1.0454    0.3234   -2.7785 H   0  0  0  0  0  0  0  0  0  0  0  0
    3.1994   -1.1727   -2.2479 N   0  0  0  0  0  0  0  0  0  0  0  0
    4.1482   -1.8283   -1.8241 O   0  0  0  0  0  0  0  0  0  0  0  0
    2.9386   -1.0117   -3.4379 O   0  0  0  0  0  0  0  0  0  0  0  0
    2.2349    4.5087    0.0124 N   0  0  0  0  0  0  0  0  0  0  0  0
    3.0162    5.1587   -0.4194 N   0  0  0  0  0  0  0  0  0  0  0  0
    0.0902    1.8057    2.9506 S   0  0  0  0  0  0  0  0  0  0  0  0
    0.1198    0.4042    3.8154 O   0  0  0  0  0  0  0  0  0  0  0  0
   -0.7959    0.2019    4.0760 H   0  0  0  0  0  0  0  0  0  0  0  0
   -0.2968    1.2355    1.4304 O   0  0  0  0  0  0  0  0  0  0  0  0
   -1.0950    2.5740    3.3364 O   0  0  0  0  0  0  0  0  0  0  0  0
    1.4596    2.3161    2.9758 O   0  0  0  0  0  0  0  0  0  0  0  0
  1  7  1  0  0  0  0
  1  2  2  0  0  0  0
  2  8  1  0  0  0  0
  3  2  1  0  0  0  0
  3 19  1  0  0  0  0
  4  3  2  0  0  0  0
  5  6  2  0  0  0  0
  5  4  1  0  0  0  0
  6  1  1  0  0  0  0
  9  4  1  0  0  0  0
 10  5  1  0  0  0  0
 11 12  2  0  0  0  0
 11  6  1  0  0  0  0
 13 11  2  0  0  0  0
 15 14  3  0  0  0  0
 16 21  2  0  0  0  0
 16 20  2  0  0  0  0
 16 17  1  0  0  0  0
 17 18  1  0  0  0  0
 19 16  1  0  0  0  0
M  END
