Coordinates from ORCA-job p-NO2-Ph-N2-HSO4-B3LYPG-aug-cc-pVDZ-scan-d09-49-n400
 OpenBabel12261916533D

 21 20  0  0  0  0  0  0  0  0999 V2000
    2.5465   -0.7656    0.1056 C   0  0  0  0  0  0  0  0  0  0  0  0
    1.6963   -0.1860    1.0468 C   0  0  0  0  0  0  0  0  0  0  0  0
    0.6337    0.6020    0.5975 C   0  0  0  0  0  0  0  0  0  0  0  0
    0.4015    0.8194   -0.7646 C   0  0  0  0  0  0  0  0  0  0  0  0
    1.2449    0.2308   -1.7022 C   0  0  0  0  0  0  0  0  0  0  0  0
    2.3099   -0.5525   -1.2525 C   0  0  0  0  0  0  0  0  0  0  0  0
    3.3855   -1.3836    0.4148 H   0  0  0  0  0  0  0  0  0  0  0  0
    1.8659   -0.3525    2.1069 H   0  0  0  0  0  0  0  0  0  0  0  0
   -0.4365    1.4421   -1.0714 H   0  0  0  0  0  0  0  0  0  0  0  0
    1.0921    0.3749   -2.7686 H   0  0  0  0  0  0  0  0  0  0  0  0
    3.2083   -1.1744   -2.2416 N   0  0  0  0  0  0  0  0  0  0  0  0
    4.1365   -1.8597   -1.8193 O   0  0  0  0  0  0  0  0  0  0  0  0
    2.9744   -0.9728   -3.4310 O   0  0  0  0  0  0  0  0  0  0  0  0
    2.2512    4.6721   -0.0599 N   0  0  0  0  0  0  0  0  0  0  0  0
    3.0074    5.3494   -0.4945 N   0  0  0  0  0  0  0  0  0  0  0  0
    0.0891    1.7924    2.9436 S   0  0  0  0  0  0  0  0  0  0  0  0
    0.1508    0.4150    3.8453 O   0  0  0  0  0  0  0  0  0  0  0  0
   -0.7571    0.2124    4.1315 H   0  0  0  0  0  0  0  0  0  0  0  0
   -0.3172    1.1775    1.4451 O   0  0  0  0  0  0  0  0  0  0  0  0
   -1.0983    2.5563    3.3325 O   0  0  0  0  0  0  0  0  0  0  0  0
    1.4528    2.3183    2.9282 O   0  0  0  0  0  0  0  0  0  0  0  0
  1  7  1  0  0  0  0
  1  2  2  0  0  0  0
  2  8  1  0  0  0  0
  3  2  1  0  0  0  0
  3 19  1  0  0  0  0
  4  3  2  0  0  0  0
  5  6  2  0  0  0  0
  5  4  1  0  0  0  0
  6  1  1  0  0  0  0
  9  4  1  0  0  0  0
 10  5  1  0  0  0  0
 11 12  2  0  0  0  0
 11  6  1  0  0  0  0
 13 11  2  0  0  0  0
 15 14  3  0  0  0  0
 16 20  2  0  0  0  0
 16 17  1  0  0  0  0
 17 18  1  0  0  0  0
 19 16  1  0  0  0  0
 21 16  2  0  0  0  0
M  END
