Coordinates from ORCA-job p-NO2-Ph-N2-HSO4-B3LYPG-aug-cc-pVDZ-scan-d09-49-n400
 OpenBabel12261916533D

 21 20  0  0  0  0  0  0  0  0999 V2000
    2.5286   -0.8024    0.1092 C   0  0  0  0  0  0  0  0  0  0  0  0
    1.6743   -0.2290    1.0504 C   0  0  0  0  0  0  0  0  0  0  0  0
    0.6276    0.5811    0.6031 C   0  0  0  0  0  0  0  0  0  0  0  0
    0.4145    0.8264   -0.7569 C   0  0  0  0  0  0  0  0  0  0  0  0
    1.2614    0.2435   -1.6955 C   0  0  0  0  0  0  0  0  0  0  0  0
    2.3106   -0.5616   -1.2475 C   0  0  0  0  0  0  0  0  0  0  0  0
    3.3558   -1.4370    0.4166 H   0  0  0  0  0  0  0  0  0  0  0  0
    1.8273   -0.4168    2.1095 H   0  0  0  0  0  0  0  0  0  0  0  0
   -0.4115    1.4656   -1.0621 H   0  0  0  0  0  0  0  0  0  0  0  0
    1.1239    0.4092   -2.7609 H   0  0  0  0  0  0  0  0  0  0  0  0
    3.2129   -1.1771   -2.2373 N   0  0  0  0  0  0  0  0  0  0  0  0
    4.1275   -1.8814   -1.8167 O   0  0  0  0  0  0  0  0  0  0  0  0
    2.9964   -0.9502   -3.4254 O   0  0  0  0  0  0  0  0  0  0  0  0
    2.2504    4.7605   -0.1056 N   0  0  0  0  0  0  0  0  0  0  0  0
    2.9907    5.4532   -0.5434 N   0  0  0  0  0  0  0  0  0  0  0  0
    0.0902    1.7838    2.9412 S   0  0  0  0  0  0  0  0  0  0  0  0
    0.1660    0.4191    3.8613 O   0  0  0  0  0  0  0  0  0  0  0  0
   -0.7380    0.2189    4.1611 H   0  0  0  0  0  0  0  0  0  0  0  0
   -0.3263    1.1478    1.4541 O   0  0  0  0  0  0  0  0  0  0  0  0
   -1.0966    2.5478    3.3320 O   0  0  0  0  0  0  0  0  0  0  0  0
    1.4517    2.3142    2.9048 O   0  0  0  0  0  0  0  0  0  0  0  0
  1  7  1  0  0  0  0
  1  2  2  0  0  0  0
  2  8  1  0  0  0  0
  3  2  1  0  0  0  0
  3 19  1  0  0  0  0
  4  3  2  0  0  0  0
  5  6  2  0  0  0  0
  5  4  1  0  0  0  0
  6  1  1  0  0  0  0
  9  4  1  0  0  0  0
 10  5  1  0  0  0  0
 11 12  2  0  0  0  0
 11  6  1  0  0  0  0
 13 11  2  0  0  0  0
 15 14  3  0  0  0  0
 16 20  2  0  0  0  0
 16 17  1  0  0  0  0
 17 18  1  0  0  0  0
 19 16  1  0  0  0  0
 21 16  2  0  0  0  0
M  END
