Coordinates from ORCA-job p-NO2-Ph-N2-HSO4-B3LYPG-aug-cc-pVDZ-scan-d09-49-n400
 OpenBabel12261916533D

 21 20  0  0  0  0  0  0  0  0999 V2000
    2.7299   -0.3532    0.0636 C   0  0  0  0  0  0  0  0  0  0  0  0
    1.9523    0.3313    0.9965 C   0  0  0  0  0  0  0  0  0  0  0  0
    0.8182    1.0207    0.5540 C   0  0  0  0  0  0  0  0  0  0  0  0
    0.4025    0.9516   -0.7836 C   0  0  0  0  0  0  0  0  0  0  0  0
    1.1783    0.2673   -1.7103 C   0  0  0  0  0  0  0  0  0  0  0  0
    2.3445   -0.3693   -1.2765 C   0  0  0  0  0  0  0  0  0  0  0  0
    3.6295   -0.8808    0.3701 H   0  0  0  0  0  0  0  0  0  0  0  0
    2.2550    0.3496    2.0383 H   0  0  0  0  0  0  0  0  0  0  0  0
   -0.5144    1.4561   -1.0817 H   0  0  0  0  0  0  0  0  0  0  0  0
    0.8907    0.2135   -2.7570 H   0  0  0  0  0  0  0  0  0  0  0  0
    3.1699   -1.0978   -2.2531 N   0  0  0  0  0  0  0  0  0  0  0  0
    4.1826   -1.6589   -1.8408 O   0  0  0  0  0  0  0  0  0  0  0  0
    2.7955   -1.1050   -3.4238 O   0  0  0  0  0  0  0  0  0  0  0  0
    1.8747    3.0872    0.3109 N   0  0  0  0  0  0  0  0  0  0  0  0
    2.7204    3.4802   -0.2832 N   0  0  0  0  0  0  0  0  0  0  0  0
    0.1121    1.8939    3.0157 S   0  0  0  0  0  0  0  0  0  0  0  0
   -0.0303    0.3589    3.5881 O   0  0  0  0  0  0  0  0  0  0  0  0
   -0.9799    0.1652    3.6790 H   0  0  0  0  0  0  0  0  0  0  0  0
   -0.1099    1.6476    1.3826 O   0  0  0  0  0  0  0  0  0  0  0  0
   -1.0723    2.6639    3.3971 O   0  0  0  0  0  0  0  0  0  0  0  0
    1.4885    2.2933    3.3062 O   0  0  0  0  0  0  0  0  0  0  0  0
  1  7  1  0  0  0  0
  1  2  2  0  0  0  0
  2  8  1  0  0  0  0
  3  2  1  0  0  0  0
  3 19  1  0  0  0  0
  4  3  2  0  0  0  0
  5  6  2  0  0  0  0
  5  4  1  0  0  0  0
  6  1  1  0  0  0  0
  9  4  1  0  0  0  0
 10  5  1  0  0  0  0
 11 12  2  0  0  0  0
 11  6  1  0  0  0  0
 13 11  2  0  0  0  0
 15 14  3  0  0  0  0
 16 21  2  0  0  0  0
 16 20  2  0  0  0  0
 16 17  1  0  0  0  0
 17 18  1  0  0  0  0
 19 16  1  0  0  0  0
M  END
