Coordinates from ORCA-job p-NO2-Ph-N2-HSO4-B3LYPG-aug-cc-pVDZ-scan-d09-49-n400
 OpenBabel12261916533D

 21 21  0  0  1  0  0  0  0  0999 V2000
    2.1821   -0.2631    0.2070 C   0  0  0  0  0  0  0  0  0  0  0  0
    1.7565    1.0131    0.8332 C   0  0  1  0  0  0  0  0  0  0  0  0
    1.6260    2.0757   -0.1836 C   0  0  1  0  0  0  0  0  0  0  0  0
    1.4409    1.8286   -1.5788 C   0  0  0  0  0  0  0  0  0  0  0  0
    1.6214    0.5638   -2.0571 C   0  0  0  0  0  0  0  0  0  0  0  0
    2.0462   -0.4489   -1.1293 C   0  0  0  0  0  0  0  0  0  0  0  0
    2.5553   -1.0610    0.8423 H   0  0  0  0  0  0  0  0  0  0  0  0
    2.3627    1.2975    1.6957 H   0  0  0  0  0  0  0  0  0  0  0  0
    1.1750    2.6519   -2.2396 H   0  0  0  0  0  0  0  0  0  0  0  0
    1.4952    0.3184   -3.1059 H   0  0  0  0  0  0  0  0  0  0  0  0
    2.4044   -1.7828   -1.6834 N   0  0  0  0  0  0  0  0  0  0  0  0
    2.8405   -2.6314   -0.9132 O   0  0  0  0  0  0  0  0  0  0  0  0
    2.2354   -1.9504   -2.8872 O   0  0  0  0  0  0  0  0  0  0  0  0
    1.6061    3.3941    0.2603 N   0  0  0  0  0  0  0  0  0  0  0  0
    1.5917    4.4659    0.6125 N   0  0  0  0  0  0  0  0  0  0  0  0
    0.0302    1.2648    2.9358 S   0  0  0  0  0  0  0  0  0  0  0  0
    0.8942    0.2287    3.8958 O   0  0  0  0  0  0  0  0  0  0  0  0
    0.3389   -0.5559    4.0444 H   0  0  0  0  0  0  0  0  0  0  0  0
    0.3417    0.6934    1.4458 O   0  0  0  0  0  0  0  0  0  0  0  0
   -1.4013    1.0464    3.1809 O   0  0  0  0  0  0  0  0  0  0  0  0
    0.6945    2.5664    3.1167 O   0  0  0  0  0  0  0  0  0  0  0  0
  1  2  1  0  0  0  0
  1  7  1  0  0  0  0
  2 19  1  0  0  0  0
  2  8  1  1  0  0  0
  3 14  1  1  0  0  0
  3  2  1  0  0  0  0
  4  3  1  0  0  0  0
  5  4  2  0  0  0  0
  5  6  1  0  0  0  0
  6  1  2  0  0  0  0
  9  4  1  0  0  0  0
 10  5  1  0  0  0  0
 11  6  1  0  0  0  0
 11 12  2  0  0  0  0
 13 11  2  0  0  0  0
 14 15  1  0  0  0  0
 16 21  2  0  0  0  0
 16 20  2  0  0  0  0
 16 17  1  0  0  0  0
 17 18  1  0  0  0  0
 19 16  1  0  0  0  0
M  RAD  3   3   2  14   2  15   3
M  END
