Coordinates from ORCA-job p-NO2-Ph-N2-HSO4-B3LYPG-aug-cc-pVDZ-scan-d09-49-n400
 OpenBabel12261916533D

 21 20  0  0  0  0  0  0  0  0999 V2000
    2.7304   -0.3480    0.0623 C   0  0  0  0  0  0  0  0  0  0  0  0
    1.9556    0.3399    0.9926 C   0  0  0  0  0  0  0  0  0  0  0  0
    0.8448    1.0694    0.5440 C   0  0  0  0  0  0  0  0  0  0  0  0
    0.4142    0.9728   -0.7905 C   0  0  0  0  0  0  0  0  0  0  0  0
    1.1866    0.2840   -1.7148 C   0  0  0  0  0  0  0  0  0  0  0  0
    2.3530   -0.3537   -1.2810 C   0  0  0  0  0  0  0  0  0  0  0  0
    3.6191   -0.8918    0.3722 H   0  0  0  0  0  0  0  0  0  0  0  0
    2.2495    0.3481    2.0372 H   0  0  0  0  0  0  0  0  0  0  0  0
   -0.5039    1.4756   -1.0878 H   0  0  0  0  0  0  0  0  0  0  0  0
    0.8942    0.2222   -2.7598 H   0  0  0  0  0  0  0  0  0  0  0  0
    3.1752   -1.0863   -2.2557 N   0  0  0  0  0  0  0  0  0  0  0  0
    4.1843   -1.6532   -1.8420 O   0  0  0  0  0  0  0  0  0  0  0  0
    2.8039   -1.0892   -3.4277 O   0  0  0  0  0  0  0  0  0  0  0  0
    1.8197    2.9674    0.3437 N   0  0  0  0  0  0  0  0  0  0  0  0
    2.6656    3.3532   -0.2579 N   0  0  0  0  0  0  0  0  0  0  0  0
    0.1131    1.9107    3.0096 S   0  0  0  0  0  0  0  0  0  0  0  0
   -0.0073    0.3793    3.5959 O   0  0  0  0  0  0  0  0  0  0  0  0
   -0.9538    0.1729    3.6901 H   0  0  0  0  0  0  0  0  0  0  0  0
   -0.1129    1.6460    1.3798 O   0  0  0  0  0  0  0  0  0  0  0  0
   -1.0799    2.6674    3.3911 O   0  0  0  0  0  0  0  0  0  0  0  0
    1.4862    2.3288    3.2908 O   0  0  0  0  0  0  0  0  0  0  0  0
  1  7  1  0  0  0  0
  1  2  2  0  0  0  0
  2  8  1  0  0  0  0
  3  2  1  0  0  0  0
  3 19  1  0  0  0  0
  4  3  2  0  0  0  0
  5  6  2  0  0  0  0
  5  4  1  0  0  0  0
  6  1  1  0  0  0  0
  9  4  1  0  0  0  0
 10  5  1  0  0  0  0
 11 12  2  0  0  0  0
 11  6  1  0  0  0  0
 13 11  2  0  0  0  0
 15 14  3  0  0  0  0
 16 21  2  0  0  0  0
 16 20  2  0  0  0  0
 16 17  1  0  0  0  0
 17 18  1  0  0  0  0
 19 16  1  0  0  0  0
M  END
