Coordinates from ORCA-job p-NO2-Ph-N2-HSO4-B3LYPG-aug-cc-pVDZ-scan-d09-49-n400
 OpenBabel12261916533D

 21 20  0  0  0  0  0  0  0  0999 V2000
    2.6426   -0.5599    0.0813 C   0  0  0  0  0  0  0  0  0  0  0  0
    1.8294    0.0772    1.0189 C   0  0  0  0  0  0  0  0  0  0  0  0
    0.7011    0.7680    0.5694 C   0  0  0  0  0  0  0  0  0  0  0  0
    0.3729    0.8341   -0.7899 C   0  0  0  0  0  0  0  0  0  0  0  0
    1.1830    0.1928   -1.7210 C   0  0  0  0  0  0  0  0  0  0  0  0
    2.3115   -0.4969   -1.2716 C   0  0  0  0  0  0  0  0  0  0  0  0
    3.5292   -1.1059    0.3930 H   0  0  0  0  0  0  0  0  0  0  0  0
    2.0859    0.0324    2.0725 H   0  0  0  0  0  0  0  0  0  0  0  0
   -0.5127    1.3857   -1.0988 H   0  0  0  0  0  0  0  0  0  0  0  0
    0.9550    0.2233   -2.7833 H   0  0  0  0  0  0  0  0  0  0  0  0
    3.1736   -1.1766   -2.2532 N   0  0  0  0  0  0  0  0  0  0  0  0
    4.1592   -1.7766   -1.8305 O   0  0  0  0  0  0  0  0  0  0  0  0
    2.8559   -1.1045   -3.4383 O   0  0  0  0  0  0  0  0  0  0  0  0
    2.1461    4.0902    0.1513 N   0  0  0  0  0  0  0  0  0  0  0  0
    2.9808    4.6639   -0.2869 N   0  0  0  0  0  0  0  0  0  0  0  0
    0.0989    1.8326    2.9781 S   0  0  0  0  0  0  0  0  0  0  0  0
    0.0427    0.3616    3.7151 O   0  0  0  0  0  0  0  0  0  0  0  0
   -0.8916    0.1621    3.9012 H   0  0  0  0  0  0  0  0  0  0  0  0
   -0.2214    1.4117    1.3974 O   0  0  0  0  0  0  0  0  0  0  0  0
   -1.0826    2.6059    3.3632 O   0  0  0  0  0  0  0  0  0  0  0  0
    1.4780    2.2944    3.1242 O   0  0  0  0  0  0  0  0  0  0  0  0
  1  7  1  0  0  0  0
  1  2  2  0  0  0  0
  2  8  1  0  0  0  0
  3  2  1  0  0  0  0
  3 19  1  0  0  0  0
  4  3  2  0  0  0  0
  5  6  2  0  0  0  0
  5  4  1  0  0  0  0
  6  1  1  0  0  0  0
  9  4  1  0  0  0  0
 10  5  1  0  0  0  0
 11 12  2  0  0  0  0
 11  6  1  0  0  0  0
 13 11  2  0  0  0  0
 15 14  3  0  0  0  0
 16 21  2  0  0  0  0
 16 20  2  0  0  0  0
 16 17  1  0  0  0  0
 17 18  1  0  0  0  0
 19 16  1  0  0  0  0
M  END
