Coordinates from ORCA-job p-NO2-Ph-N2-HSO4-B3LYPG-aug-cc-pVDZ-scan-d09-49-n400
 OpenBabel12261916533D

 21 20  0  0  0  0  0  0  0  0999 V2000
    2.7254   -0.3662    0.0649 C   0  0  0  0  0  0  0  0  0  0  0  0
    1.9452    0.3148    0.9992 C   0  0  0  0  0  0  0  0  0  0  0  0
    0.7958    0.9787    0.5603 C   0  0  0  0  0  0  0  0  0  0  0  0
    0.3909    0.9287   -0.7803 C   0  0  0  0  0  0  0  0  0  0  0  0
    1.1701    0.2484   -1.7082 C   0  0  0  0  0  0  0  0  0  0  0  0
    2.3361   -0.3877   -1.2737 C   0  0  0  0  0  0  0  0  0  0  0  0
    3.6319   -0.8833    0.3692 H   0  0  0  0  0  0  0  0  0  0  0  0
    2.2520    0.3391    2.0397 H   0  0  0  0  0  0  0  0  0  0  0  0
   -0.5248    1.4349   -1.0792 H   0  0  0  0  0  0  0  0  0  0  0  0
    0.8868    0.2010   -2.7564 H   0  0  0  0  0  0  0  0  0  0  0  0
    3.1647   -1.1119   -2.2514 N   0  0  0  0  0  0  0  0  0  0  0  0
    4.1804   -1.6680   -1.8401 O   0  0  0  0  0  0  0  0  0  0  0  0
    2.7907   -1.1187   -3.4223 O   0  0  0  0  0  0  0  0  0  0  0  0
    1.9315    3.2268    0.2811 N   0  0  0  0  0  0  0  0  0  0  0  0
    2.7845    3.6352   -0.2901 N   0  0  0  0  0  0  0  0  0  0  0  0
    0.1087    1.8790    3.0178 S   0  0  0  0  0  0  0  0  0  0  0  0
   -0.0415    0.3434    3.5875 O   0  0  0  0  0  0  0  0  0  0  0  0
   -0.9921    0.1558    3.6810 H   0  0  0  0  0  0  0  0  0  0  0  0
   -0.1142    1.6378    1.3844 O   0  0  0  0  0  0  0  0  0  0  0  0
   -1.0711    2.6555    3.4005 O   0  0  0  0  0  0  0  0  0  0  0  0
    1.4868    2.2721    3.3084 O   0  0  0  0  0  0  0  0  0  0  0  0
  1  7  1  0  0  0  0
  1  2  2  0  0  0  0
  2  8  1  0  0  0  0
  3  2  1  0  0  0  0
  3 19  1  0  0  0  0
  4  3  2  0  0  0  0
  5  6  2  0  0  0  0
  5  4  1  0  0  0  0
  6  1  1  0  0  0  0
  9  4  1  0  0  0  0
 10  5  1  0  0  0  0
 11 12  2  0  0  0  0
 11  6  1  0  0  0  0
 13 11  2  0  0  0  0
 15 14  3  0  0  0  0
 16 21  2  0  0  0  0
 16 20  2  0  0  0  0
 16 17  1  0  0  0  0
 17 18  1  0  0  0  0
 19 16  1  0  0  0  0
M  END
