Coordinates from ORCA-job p-NO2-Ph-N2-HSO4-B3LYPG-aug-cc-pVDZ-scan-d09-49-n400
 OpenBabel12261916533D

 21 20  0  0  0  0  0  0  0  0999 V2000
    2.5814   -0.6917    0.0967 C   0  0  0  0  0  0  0  0  0  0  0  0
    1.7421   -0.0945    1.0375 C   0  0  0  0  0  0  0  0  0  0  0  0
    0.6517    0.6522    0.5866 C   0  0  0  0  0  0  0  0  0  0  0  0
    0.3837    0.8148   -0.7775 C   0  0  0  0  0  0  0  0  0  0  0  0
    1.2170    0.2101   -1.7132 C   0  0  0  0  0  0  0  0  0  0  0  0
    2.3086   -0.5351   -1.2617 C   0  0  0  0  0  0  0  0  0  0  0  0
    3.4409   -1.2794    0.4085 H   0  0  0  0  0  0  0  0  0  0  0  0
    1.9453   -0.2165    2.0973 H   0  0  0  0  0  0  0  0  0  0  0  0
   -0.4732    1.4103   -1.0861 H   0  0  0  0  0  0  0  0  0  0  0  0
    1.0361    0.3129   -2.7800 H   0  0  0  0  0  0  0  0  0  0  0  0
    3.1961   -1.1746   -2.2489 N   0  0  0  0  0  0  0  0  0  0  0  0
    4.1522   -1.8195   -1.8249 O   0  0  0  0  0  0  0  0  0  0  0  0
    2.9340   -1.0160   -3.4389 O   0  0  0  0  0  0  0  0  0  0  0  0
    2.2272    4.4704    0.0276 N   0  0  0  0  0  0  0  0  0  0  0  0
    3.0137    5.1141   -0.4042 N   0  0  0  0  0  0  0  0  0  0  0  0
    0.0917    1.8097    2.9521 S   0  0  0  0  0  0  0  0  0  0  0  0
    0.1139    0.4022    3.8074 O   0  0  0  0  0  0  0  0  0  0  0  0
   -0.8034    0.2001    4.0621 H   0  0  0  0  0  0  0  0  0  0  0  0
   -0.2910    1.2503    1.4270 O   0  0  0  0  0  0  0  0  0  0  0  0
   -1.0929    2.5789    3.3378 O   0  0  0  0  0  0  0  0  0  0  0  0
    1.4623    2.3165    2.9871 O   0  0  0  0  0  0  0  0  0  0  0  0
  1  7  1  0  0  0  0
  1  2  2  0  0  0  0
  2  8  1  0  0  0  0
  3  2  1  0  0  0  0
  3 19  1  0  0  0  0
  4  3  2  0  0  0  0
  5  6  2  0  0  0  0
  5  4  1  0  0  0  0
  6  1  1  0  0  0  0
  9  4  1  0  0  0  0
 10  5  1  0  0  0  0
 11 12  2  0  0  0  0
 11  6  1  0  0  0  0
 13 11  2  0  0  0  0
 15 14  3  0  0  0  0
 16 21  2  0  0  0  0
 16 20  2  0  0  0  0
 16 17  1  0  0  0  0
 17 18  1  0  0  0  0
 19 16  1  0  0  0  0
M  END
