Coordinates from ORCA-job p-NO2-Ph-N2-HSO4-B3LYPG-aug-cc-pVDZ-scan-d09-49-n400
 OpenBabel12261916533D

 21 20  0  0  0  0  0  0  0  0999 V2000
    2.6921   -0.4509    0.0693 C   0  0  0  0  0  0  0  0  0  0  0  0
    1.9005    0.2163    1.0049 C   0  0  0  0  0  0  0  0  0  0  0  0
    0.7468    0.8700    0.5635 C   0  0  0  0  0  0  0  0  0  0  0  0
    0.3722    0.8658   -0.7858 C   0  0  0  0  0  0  0  0  0  0  0  0
    1.1627    0.1981   -1.7146 C   0  0  0  0  0  0  0  0  0  0  0  0
    2.3173   -0.4531   -1.2734 C   0  0  0  0  0  0  0  0  0  0  0  0
    3.5971   -0.9691    0.3757 H   0  0  0  0  0  0  0  0  0  0  0  0
    2.1952    0.2253    2.0492 H   0  0  0  0  0  0  0  0  0  0  0  0
   -0.5340    1.3865   -1.0893 H   0  0  0  0  0  0  0  0  0  0  0  0
    0.8986    0.1765   -2.7687 H   0  0  0  0  0  0  0  0  0  0  0  0
    3.1580   -1.1629   -2.2520 N   0  0  0  0  0  0  0  0  0  0  0  0
    4.1666   -1.7286   -1.8364 O   0  0  0  0  0  0  0  0  0  0  0  0
    2.8007   -1.1484   -3.4280 O   0  0  0  0  0  0  0  0  0  0  0  0
    2.0629    3.7168    0.2150 N   0  0  0  0  0  0  0  0  0  0  0  0
    2.9340    4.2174   -0.2429 N   0  0  0  0  0  0  0  0  0  0  0  0
    0.1016    1.8475    3.0021 S   0  0  0  0  0  0  0  0  0  0  0  0
   -0.0184    0.3318    3.6312 O   0  0  0  0  0  0  0  0  0  0  0  0
   -0.9642    0.1411    3.7598 H   0  0  0  0  0  0  0  0  0  0  0  0
   -0.1572    1.5458    1.3845 O   0  0  0  0  0  0  0  0  0  0  0  0
   -1.0771    2.6249    3.3868 O   0  0  0  0  0  0  0  0  0  0  0  0
    1.4824    2.2645    3.2414 O   0  0  0  0  0  0  0  0  0  0  0  0
  1  7  1  0  0  0  0
  1  2  2  0  0  0  0
  2  8  1  0  0  0  0
  3  2  1  0  0  0  0
  3 19  1  0  0  0  0
  4  3  2  0  0  0  0
  5  6  2  0  0  0  0
  5  4  1  0  0  0  0
  6  1  1  0  0  0  0
  9  4  1  0  0  0  0
 10  5  1  0  0  0  0
 11 12  2  0  0  0  0
 11  6  1  0  0  0  0
 13 11  2  0  0  0  0
 15 14  3  0  0  0  0
 16 21  2  0  0  0  0
 16 20  2  0  0  0  0
 16 17  1  0  0  0  0
 17 18  1  0  0  0  0
 19 16  1  0  0  0  0
M  END
