Coordinates from ORCA-job p-NO2-Ph-N2-HSO4-B3LYPG-aug-cc-pVDZ-scan-d09-49-n400
 OpenBabel12261916533D

 21 20  0  0  0  0  0  0  0  0999 V2000
    2.5738   -0.7085    0.0989 C   0  0  0  0  0  0  0  0  0  0  0  0
    1.7315   -0.1163    1.0398 C   0  0  0  0  0  0  0  0  0  0  0  0
    0.6468    0.6402    0.5889 C   0  0  0  0  0  0  0  0  0  0  0  0
    0.3869    0.8147   -0.7748 C   0  0  0  0  0  0  0  0  0  0  0  0
    1.2231    0.2144   -1.7113 C   0  0  0  0  0  0  0  0  0  0  0  0
    2.3093   -0.5386   -1.2599 C   0  0  0  0  0  0  0  0  0  0  0  0
    3.4290   -1.3027    0.4102 H   0  0  0  0  0  0  0  0  0  0  0  0
    1.9266   -0.2492    2.0999 H   0  0  0  0  0  0  0  0  0  0  0  0
   -0.4663    1.4154   -1.0834 H   0  0  0  0  0  0  0  0  0  0  0  0
    1.0490    0.3269   -2.7782 H   0  0  0  0  0  0  0  0  0  0  0  0
    3.2001   -1.1730   -2.2476 N   0  0  0  0  0  0  0  0  0  0  0  0
    4.1478   -1.8301   -1.8237 O   0  0  0  0  0  0  0  0  0  0  0  0
    2.9419   -1.0081   -3.4376 O   0  0  0  0  0  0  0  0  0  0  0  0
    2.2387    4.5247    0.0054 N   0  0  0  0  0  0  0  0  0  0  0  0
    3.0178    5.1771   -0.4266 N   0  0  0  0  0  0  0  0  0  0  0  0
    0.0893    1.8038    2.9503 S   0  0  0  0  0  0  0  0  0  0  0  0
    0.1221    0.4050    3.8196 O   0  0  0  0  0  0  0  0  0  0  0  0
   -0.7928    0.2028    4.0829 H   0  0  0  0  0  0  0  0  0  0  0  0
   -0.2993    1.2297    1.4321 O   0  0  0  0  0  0  0  0  0  0  0  0
   -1.0960    2.5719    3.3362 O   0  0  0  0  0  0  0  0  0  0  0  0
    1.4584    2.3151    2.9712 O   0  0  0  0  0  0  0  0  0  0  0  0
  1  7  1  0  0  0  0
  1  2  2  0  0  0  0
  2  8  1  0  0  0  0
  3  2  1  0  0  0  0
  3 19  1  0  0  0  0
  4  3  2  0  0  0  0
  5  6  2  0  0  0  0
  5  4  1  0  0  0  0
  6  1  1  0  0  0  0
  9  4  1  0  0  0  0
 10  5  1  0  0  0  0
 11 12  2  0  0  0  0
 11  6  1  0  0  0  0
 13 11  2  0  0  0  0
 15 14  3  0  0  0  0
 16 21  2  0  0  0  0
 16 20  2  0  0  0  0
 16 17  1  0  0  0  0
 17 18  1  0  0  0  0
 19 16  1  0  0  0  0
M  END
