Coordinates from ORCA-job p-NO2-Ph-N2-HSO4-B3LYPG-aug-cc-pVDZ-scan-d09-49-n400
 OpenBabel12261916533D

 21 20  0  0  0  0  0  0  0  0999 V2000
    2.7303   -0.3521    0.0638 C   0  0  0  0  0  0  0  0  0  0  0  0
    1.9532    0.3331    0.9963 C   0  0  0  0  0  0  0  0  0  0  0  0
    0.8207    1.0260    0.5531 C   0  0  0  0  0  0  0  0  0  0  0  0
    0.4034    0.9538   -0.7843 C   0  0  0  0  0  0  0  0  0  0  0  0
    1.1788    0.2687   -1.7106 C   0  0  0  0  0  0  0  0  0  0  0  0
    2.3451   -0.3678   -1.2766 C   0  0  0  0  0  0  0  0  0  0  0  0
    3.6292   -0.8808    0.3704 H   0  0  0  0  0  0  0  0  0  0  0  0
    2.2553    0.3509    2.0383 H   0  0  0  0  0  0  0  0  0  0  0  0
   -0.5137    1.4580   -1.0825 H   0  0  0  0  0  0  0  0  0  0  0  0
    0.8907    0.2139   -2.7572 H   0  0  0  0  0  0  0  0  0  0  0  0
    3.1700   -1.0971   -2.2529 N   0  0  0  0  0  0  0  0  0  0  0  0
    4.1831   -1.6576   -1.8407 O   0  0  0  0  0  0  0  0  0  0  0  0
    2.7962   -1.1035   -3.4239 O   0  0  0  0  0  0  0  0  0  0  0  0
    1.8688    3.0745    0.3131 N   0  0  0  0  0  0  0  0  0  0  0  0
    2.7145    3.4662   -0.2822 N   0  0  0  0  0  0  0  0  0  0  0  0
    0.1127    1.8951    3.0157 S   0  0  0  0  0  0  0  0  0  0  0  0
   -0.0295    0.3599    3.5877 O   0  0  0  0  0  0  0  0  0  0  0  0
   -0.9790    0.1659    3.6783 H   0  0  0  0  0  0  0  0  0  0  0  0
   -0.1097    1.6491    1.3826 O   0  0  0  0  0  0  0  0  0  0  0  0
   -1.0718    2.6648    3.3977 O   0  0  0  0  0  0  0  0  0  0  0  0
    1.4892    2.2944    3.3060 O   0  0  0  0  0  0  0  0  0  0  0  0
  1  7  1  0  0  0  0
  1  2  2  0  0  0  0
  2  8  1  0  0  0  0
  3  2  1  0  0  0  0
  3 19  1  0  0  0  0
  4  3  2  0  0  0  0
  5  6  2  0  0  0  0
  5  4  1  0  0  0  0
  6  1  1  0  0  0  0
  9  4  1  0  0  0  0
 10  5  1  0  0  0  0
 11 12  2  0  0  0  0
 11  6  1  0  0  0  0
 13 11  2  0  0  0  0
 15 14  3  0  0  0  0
 16 21  2  0  0  0  0
 16 20  2  0  0  0  0
 16 17  1  0  0  0  0
 17 18  1  0  0  0  0
 19 16  1  0  0  0  0
M  END
