Coordinates from ORCA-job p-NO2-Ph-N2-HSO4-B3LYPG-aug-cc-pVDZ-scan-d09-49-n400
 OpenBabel12261916533D

 21 20  0  0  0  0  0  0  0  0999 V2000
    2.4962   -0.8683    0.1149 C   0  0  0  0  0  0  0  0  0  0  0  0
    1.6341   -0.3085    1.0568 C   0  0  0  0  0  0  0  0  0  0  0  0
    0.6164    0.5412    0.6163 C   0  0  0  0  0  0  0  0  0  0  0  0
    0.4390    0.8404   -0.7377 C   0  0  0  0  0  0  0  0  0  0  0  0
    1.2932    0.2710   -1.6784 C   0  0  0  0  0  0  0  0  0  0  0  0
    2.3133   -0.5738   -1.2367 C   0  0  0  0  0  0  0  0  0  0  0  0
    3.3019   -1.5326    0.4164 H   0  0  0  0  0  0  0  0  0  0  0  0
    1.7568   -0.5357    2.1125 H   0  0  0  0  0  0  0  0  0  0  0  0
   -0.3653    1.5092   -1.0377 H   0  0  0  0  0  0  0  0  0  0  0  0
    1.1834    0.4771   -2.7398 H   0  0  0  0  0  0  0  0  0  0  0  0
    3.2230   -1.1755   -2.2289 N   0  0  0  0  0  0  0  0  0  0  0  0
    4.1111   -1.9163   -1.8143 O   0  0  0  0  0  0  0  0  0  0  0  0
    3.0379   -0.9020   -3.4123 O   0  0  0  0  0  0  0  0  0  0  0  0
    2.2501    4.9140   -0.2044 N   0  0  0  0  0  0  0  0  0  0  0  0
    2.9617    5.6314   -0.6499 N   0  0  0  0  0  0  0  0  0  0  0  0
    0.0925    1.7654    2.9396 S   0  0  0  0  0  0  0  0  0  0  0  0
    0.1855    0.4227    3.8904 O   0  0  0  0  0  0  0  0  0  0  0  0
   -0.7129    0.2306    4.2115 H   0  0  0  0  0  0  0  0  0  0  0  0
   -0.3416    1.0932    1.4729 O   0  0  0  0  0  0  0  0  0  0  0  0
   -1.0909    2.5345    3.3317 O   0  0  0  0  0  0  0  0  0  0  0  0
    1.4522    2.2974    2.8692 O   0  0  0  0  0  0  0  0  0  0  0  0
  1  7  1  0  0  0  0
  1  2  2  0  0  0  0
  2  8  1  0  0  0  0
  3  2  1  0  0  0  0
  3 19  1  0  0  0  0
  4  3  2  0  0  0  0
  5  6  2  0  0  0  0
  5  4  1  0  0  0  0
  6  1  1  0  0  0  0
  9  4  1  0  0  0  0
 10  5  1  0  0  0  0
 11 12  2  0  0  0  0
 11  6  1  0  0  0  0
 13 11  2  0  0  0  0
 15 14  3  0  0  0  0
 16 20  2  0  0  0  0
 16 17  1  0  0  0  0
 17 18  1  0  0  0  0
 19 16  1  0  0  0  0
 21 16  2  0  0  0  0
M  END
