Coordinates from ORCA-job p-NO2-Ph-N2-HSO4-B3LYPG-aug-cc-pVDZ-scan-d09-49-n400
 OpenBabel12261916533D

 21 20  0  0  0  0  0  0  0  0999 V2000
    2.4772   -0.9036    0.1178 C   0  0  0  0  0  0  0  0  0  0  0  0
    1.6116   -0.3492    1.0594 C   0  0  0  0  0  0  0  0  0  0  0  0
    0.6117    0.5239    0.6233 C   0  0  0  0  0  0  0  0  0  0  0  0
    0.4550    0.8510   -0.7259 C   0  0  0  0  0  0  0  0  0  0  0  0
    1.3124    0.2870   -1.6676 C   0  0  0  0  0  0  0  0  0  0  0  0
    2.3146   -0.5808   -1.2301 C   0  0  0  0  0  0  0  0  0  0  0  0
    3.2694   -1.5854    0.4159 H   0  0  0  0  0  0  0  0  0  0  0  0
    1.7168   -0.5976    2.1123 H   0  0  0  0  0  0  0  0  0  0  0  0
   -0.3360    1.5370   -1.0225 H   0  0  0  0  0  0  0  0  0  0  0  0
    1.2190    0.5151   -2.7261 H   0  0  0  0  0  0  0  0  0  0  0  0
    3.2277   -1.1767   -2.2230 N   0  0  0  0  0  0  0  0  0  0  0  0
    4.1002   -1.9377   -1.8122 O   0  0  0  0  0  0  0  0  0  0  0  0
    3.0611   -0.8775   -3.4029 O   0  0  0  0  0  0  0  0  0  0  0  0
    2.2491    5.0012   -0.2674 N   0  0  0  0  0  0  0  0  0  0  0  0
    2.9445    5.7314   -0.7177 N   0  0  0  0  0  0  0  0  0  0  0  0
    0.0934    1.7526    2.9422 S   0  0  0  0  0  0  0  0  0  0  0  0
    0.1950    0.4188    3.9047 O   0  0  0  0  0  0  0  0  0  0  0  0
   -0.7006    0.2301    4.2357 H   0  0  0  0  0  0  0  0  0  0  0  0
   -0.3485    1.0678    1.4836 O   0  0  0  0  0  0  0  0  0  0  0  0
   -1.0882    2.5233    3.3365 O   0  0  0  0  0  0  0  0  0  0  0  0
    1.4521    2.2848    2.8565 O   0  0  0  0  0  0  0  0  0  0  0  0
  1  7  1  0  0  0  0
  1  2  2  0  0  0  0
  2  8  1  0  0  0  0
  3  2  1  0  0  0  0
  3 19  1  0  0  0  0
  4  3  2  0  0  0  0
  5  6  2  0  0  0  0
  5  4  1  0  0  0  0
  6  1  1  0  0  0  0
  9  4  1  0  0  0  0
 10  5  1  0  0  0  0
 11 12  2  0  0  0  0
 11  6  1  0  0  0  0
 13 11  2  0  0  0  0
 15 14  3  0  0  0  0
 16 20  2  0  0  0  0
 16 17  1  0  0  0  0
 17 18  1  0  0  0  0
 19 16  1  0  0  0  0
 21 16  2  0  0  0  0
M  END
