Coordinates from ORCA-job p-NO2-Ph-N2-HSO4-B3LYPG-aug-cc-pVDZ-scan-d09-49-n400
 OpenBabel12261916533D

 21 20  0  0  0  0  0  0  0  0999 V2000
    2.7075   -0.4130    0.0671 C   0  0  0  0  0  0  0  0  0  0  0  0
    1.9208    0.2600    1.0027 C   0  0  0  0  0  0  0  0  0  0  0  0
    0.7619    0.9051    0.5646 C   0  0  0  0  0  0  0  0  0  0  0  0
    0.3755    0.8853   -0.7810 C   0  0  0  0  0  0  0  0  0  0  0  0
    1.1614    0.2128   -1.7100 C   0  0  0  0  0  0  0  0  0  0  0  0
    2.3225   -0.4294   -1.2725 C   0  0  0  0  0  0  0  0  0  0  0  0
    3.6171   -0.9245    0.3712 H   0  0  0  0  0  0  0  0  0  0  0  0
    2.2245    0.2835    2.0442 H   0  0  0  0  0  0  0  0  0  0  0  0
   -0.5347    1.4008   -1.0809 H   0  0  0  0  0  0  0  0  0  0  0  0
    0.8886    0.1802   -2.7615 H   0  0  0  0  0  0  0  0  0  0  0  0
    3.1581   -1.1449   -2.2512 N   0  0  0  0  0  0  0  0  0  0  0  0
    4.1702   -1.7059   -1.8377 O   0  0  0  0  0  0  0  0  0  0  0  0
    2.7892   -1.1460   -3.4236 O   0  0  0  0  0  0  0  0  0  0  0  0
    2.0259    3.5442    0.2314 N   0  0  0  0  0  0  0  0  0  0  0  0
    2.8988    4.0052   -0.2634 N   0  0  0  0  0  0  0  0  0  0  0  0
    0.1019    1.8556    3.0107 S   0  0  0  0  0  0  0  0  0  0  0  0
   -0.0341    0.3280    3.6066 O   0  0  0  0  0  0  0  0  0  0  0  0
   -0.9825    0.1391    3.7171 H   0  0  0  0  0  0  0  0  0  0  0  0
   -0.1383    1.5858    1.3850 O   0  0  0  0  0  0  0  0  0  0  0  0
   -1.0774    2.6324    3.3948 O   0  0  0  0  0  0  0  0  0  0  0  0
    1.4808    2.2609    3.2786 O   0  0  0  0  0  0  0  0  0  0  0  0
  1  7  1  0  0  0  0
  1  2  2  0  0  0  0
  2  8  1  0  0  0  0
  3  2  1  0  0  0  0
  3 19  1  0  0  0  0
  4  3  2  0  0  0  0
  5  6  2  0  0  0  0
  5  4  1  0  0  0  0
  6  1  1  0  0  0  0
  9  4  1  0  0  0  0
 10  5  1  0  0  0  0
 11 12  2  0  0  0  0
 11  6  1  0  0  0  0
 13 11  2  0  0  0  0
 15 14  3  0  0  0  0
 16 21  2  0  0  0  0
 16 20  2  0  0  0  0
 16 17  1  0  0  0  0
 17 18  1  0  0  0  0
 19 16  1  0  0  0  0
M  END
