Coordinates from ORCA-job p-NO2-Ph-N2-HSO4-B3LYPG-aug-cc-pVDZ-scan-d09-49-n400
 OpenBabel12261916533D

 21 21  0  0  1  0  0  0  0  0999 V2000
    2.1398   -0.0538    0.3281 C   0  0  0  0  0  0  0  0  0  0  0  0
    1.7082    1.2867    0.8228 C   0  0  1  0  0  0  0  0  0  0  0  0
    1.5491    2.3621   -0.2972 C   0  0  0  0  0  0  0  0  0  0  0  0
    1.3723    1.8386   -1.6829 C   0  0  0  0  0  0  0  0  0  0  0  0
    1.6050    0.5511   -2.0038 C   0  0  0  0  0  0  0  0  0  0  0  0
    2.0453   -0.3693   -0.9753 C   0  0  0  0  0  0  0  0  0  0  0  0
    2.4898   -0.7838    1.0541 H   0  0  0  0  0  0  0  0  0  0  0  0
    2.3835    1.6853    1.5890 H   0  0  0  0  0  0  0  0  0  0  0  0
    1.0600    2.5725   -2.4258 H   0  0  0  0  0  0  0  0  0  0  0  0
    1.4898    0.1887   -3.0211 H   0  0  0  0  0  0  0  0  0  0  0  0
    2.4248   -1.7440   -1.3965 N   0  0  0  0  0  0  0  0  0  0  0  0
    2.8145   -2.5250   -0.5362 O   0  0  0  0  0  0  0  0  0  0  0  0
    2.3156   -2.0084   -2.5899 O   0  0  0  0  0  0  0  0  0  0  0  0
    1.5380    3.3042   -0.0656 N   0  0  0  0  0  0  0  0  0  0  0  0
    1.5249    4.4400    0.2202 N   0  0  0  0  0  0  0  0  0  0  0  0
    0.2644    1.1010    3.0903 S   0  0  0  0  0  0  0  0  0  0  0  0
    0.6829   -0.4659    3.3879 O   0  0  0  0  0  0  0  0  0  0  0  0
   -0.1207   -1.0068    3.2954 H   0  0  0  0  0  0  0  0  0  0  0  0
    0.3675    1.1633    1.4370 O   0  0  0  0  0  0  0  0  0  0  0  0
   -1.1602    1.2772    3.3836 O   0  0  0  0  0  0  0  0  0  0  0  0
    1.3431    1.9015    3.6779 O   0  0  0  0  0  0  0  0  0  0  0  0
  1  2  1  0  0  0  0
  1  7  1  0  0  0  0
  2 19  1  0  0  0  0
  2  8  1  1  0  0  0
  3 14  1  0  0  0  0
  3  2  1  0  0  0  0
  4  3  2  0  0  0  0
  5  4  1  0  0  0  0
  5  6  1  0  0  0  0
  6  1  2  0  0  0  0
  9  4  1  0  0  0  0
 10  5  1  0  0  0  0
 11  6  1  0  0  0  0
 11 12  2  0  0  0  0
 13 11  2  0  0  0  0
 14 15  1  0  0  0  0
 16 20  2  0  0  0  0
 16 17  1  0  0  0  0
 16 21  2  0  0  0  0
 18 17  1  0  0  0  0
 19 16  1  0  0  0  0
M  RAD  3   5   2  14   2  15   3
M  END
