Coordinates from ORCA-job p-NO2-Ph-N2-HSO4-B3LYPG-aug-cc-pVDZ-scan-d09-49-n400
 OpenBabel12261916533D

 21 20  0  0  0  0  0  0  0  0999 V2000
    2.7307   -0.3489    0.0629 C   0  0  0  0  0  0  0  0  0  0  0  0
    1.9549    0.3378    0.9941 C   0  0  0  0  0  0  0  0  0  0  0  0
    0.8352    1.0528    0.5475 C   0  0  0  0  0  0  0  0  0  0  0  0
    0.4100    0.9659   -0.7884 C   0  0  0  0  0  0  0  0  0  0  0  0
    1.1837    0.2786   -1.7134 C   0  0  0  0  0  0  0  0  0  0  0  0
    2.3501   -0.3585   -1.2792 C   0  0  0  0  0  0  0  0  0  0  0  0
    3.6237   -0.8865    0.3715 H   0  0  0  0  0  0  0  0  0  0  0  0
    2.2520    0.3498    2.0378 H   0  0  0  0  0  0  0  0  0  0  0  0
   -0.5076    1.4692   -1.0862 H   0  0  0  0  0  0  0  0  0  0  0  0
    0.8934    0.2197   -2.7591 H   0  0  0  0  0  0  0  0  0  0  0  0
    3.1736   -1.0897   -2.2545 N   0  0  0  0  0  0  0  0  0  0  0  0
    4.1843   -1.6539   -1.8414 O   0  0  0  0  0  0  0  0  0  0  0  0
    2.8014   -1.0940   -3.4262 O   0  0  0  0  0  0  0  0  0  0  0  0
    1.8364    3.0036    0.3327 N   0  0  0  0  0  0  0  0  0  0  0  0
    2.6815    3.3908   -0.2681 N   0  0  0  0  0  0  0  0  0  0  0  0
    0.1137    1.9050    3.0122 S   0  0  0  0  0  0  0  0  0  0  0  0
   -0.0167    0.3721    3.5926 O   0  0  0  0  0  0  0  0  0  0  0  0
   -0.9647    0.1715    3.6853 H   0  0  0  0  0  0  0  0  0  0  0  0
   -0.1116    1.6479    1.3811 O   0  0  0  0  0  0  0  0  0  0  0  0
   -1.0751    2.6680    3.3940 O   0  0  0  0  0  0  0  0  0  0  0  0
    1.4886    2.3142    3.2969 O   0  0  0  0  0  0  0  0  0  0  0  0
  1  7  1  0  0  0  0
  1  2  2  0  0  0  0
  2  8  1  0  0  0  0
  3  2  1  0  0  0  0
  3 19  1  0  0  0  0
  4  3  2  0  0  0  0
  5  6  2  0  0  0  0
  5  4  1  0  0  0  0
  6  1  1  0  0  0  0
  9  4  1  0  0  0  0
 10  5  1  0  0  0  0
 11 12  2  0  0  0  0
 11  6  1  0  0  0  0
 13 11  2  0  0  0  0
 15 14  3  0  0  0  0
 16 21  2  0  0  0  0
 16 20  2  0  0  0  0
 16 17  1  0  0  0  0
 17 18  1  0  0  0  0
 19 16  1  0  0  0  0
M  END
