Coordinates from ORCA-job p-NO2-Ph-N2-HSO4-B3LYPG-aug-cc-pVDZ-scan-d09-49-n400
 OpenBabel12261916533D

 21 20  0  0  0  0  0  0  0  0999 V2000
    2.6003   -0.6515    0.0919 C   0  0  0  0  0  0  0  0  0  0  0  0
    1.7683   -0.0426    1.0316 C   0  0  0  0  0  0  0  0  0  0  0  0
    0.6661    0.6868    0.5798 C   0  0  0  0  0  0  0  0  0  0  0  0
    0.3801    0.8197   -0.7838 C   0  0  0  0  0  0  0  0  0  0  0  0
    1.2069    0.2040   -1.7179 C   0  0  0  0  0  0  0  0  0  0  0  0
    2.3101   -0.5236   -1.2660 C   0  0  0  0  0  0  0  0  0  0  0  0
    3.4683   -1.2261    0.4046 H   0  0  0  0  0  0  0  0  0  0  0  0
    1.9875   -0.1417    2.0904 H   0  0  0  0  0  0  0  0  0  0  0  0
   -0.4858    1.4015   -1.0934 H   0  0  0  0  0  0  0  0  0  0  0  0
    1.0118    0.2845   -2.7841 H   0  0  0  0  0  0  0  0  0  0  0  0
    3.1906   -1.1750   -2.2513 N   0  0  0  0  0  0  0  0  0  0  0  0
    4.1530   -1.8100   -1.8265 O   0  0  0  0  0  0  0  0  0  0  0  0
    2.9088   -1.0474   -3.4406 O   0  0  0  0  0  0  0  0  0  0  0  0
    2.1998    4.3548    0.0738 N   0  0  0  0  0  0  0  0  0  0  0  0
    3.0015    4.9796   -0.3577 N   0  0  0  0  0  0  0  0  0  0  0  0
    0.0947    1.8189    2.9583 S   0  0  0  0  0  0  0  0  0  0  0  0
    0.0952    0.3924    3.7813 O   0  0  0  0  0  0  0  0  0  0  0  0
   -0.8271    0.1899    4.0169 H   0  0  0  0  0  0  0  0  0  0  0  0
   -0.2714    1.2980    1.4164 O   0  0  0  0  0  0  0  0  0  0  0  0
   -1.0894    2.5887    3.3439 O   0  0  0  0  0  0  0  0  0  0  0  0
    1.4682    2.3146    3.0245 O   0  0  0  0  0  0  0  0  0  0  0  0
  1  7  1  0  0  0  0
  1  2  2  0  0  0  0
  2  8  1  0  0  0  0
  3  2  1  0  0  0  0
  3 19  1  0  0  0  0
  4  3  2  0  0  0  0
  5  6  2  0  0  0  0
  5  4  1  0  0  0  0
  6  1  1  0  0  0  0
  9  4  1  0  0  0  0
 10  5  1  0  0  0  0
 11 12  2  0  0  0  0
 11  6  1  0  0  0  0
 13 11  2  0  0  0  0
 15 14  3  0  0  0  0
 16 21  2  0  0  0  0
 16 20  2  0  0  0  0
 16 17  1  0  0  0  0
 17 18  1  0  0  0  0
 19 16  1  0  0  0  0
M  END
