Coordinates from ORCA-job p-NO2-Ph-N2-HSO4-B3LYPG-aug-cc-pVDZ-scan-d09-49-n400
 OpenBabel12261916533D

 21 21  0  0  1  0  0  0  0  0999 V2000
    2.1461   -0.0499    0.3289 C   0  0  0  0  0  0  0  0  0  0  0  0
    1.7131    1.2923    0.8186 C   0  0  1  0  0  0  0  0  0  0  0  0
    1.5597    2.3374   -0.3022 C   0  0  0  0  0  0  0  0  0  0  0  0
    1.3753    1.8361   -1.6800 C   0  0  0  0  0  0  0  0  0  0  0  0
    1.5969    0.5445   -2.0033 C   0  0  0  0  0  0  0  0  0  0  0  0
    2.0396   -0.3714   -0.9736 C   0  0  0  0  0  0  0  0  0  0  0  0
    2.5028   -0.7762    1.0548 H   0  0  0  0  0  0  0  0  0  0  0  0
    2.3771    1.6848    1.5970 H   0  0  0  0  0  0  0  0  0  0  0  0
    1.0685    2.5684   -2.4266 H   0  0  0  0  0  0  0  0  0  0  0  0
    1.4754    0.1811   -3.0192 H   0  0  0  0  0  0  0  0  0  0  0  0
    2.4145   -1.7489   -1.3905 N   0  0  0  0  0  0  0  0  0  0  0  0
    2.8121   -2.5255   -0.5296 O   0  0  0  0  0  0  0  0  0  0  0  0
    2.2953   -2.0202   -2.5814 O   0  0  0  0  0  0  0  0  0  0  0  0
    1.5524    3.3591   -0.0585 N   0  0  0  0  0  0  0  0  0  0  0  0
    1.5450    4.4859    0.2185 N   0  0  0  0  0  0  0  0  0  0  0  0
    0.2550    1.0925    3.0824 S   0  0  0  0  0  0  0  0  0  0  0  0
    0.6979   -0.4675    3.3849 O   0  0  0  0  0  0  0  0  0  0  0  0
   -0.0957   -1.0217    3.2860 H   0  0  0  0  0  0  0  0  0  0  0  0
    0.3606    1.1583    1.4339 O   0  0  0  0  0  0  0  0  0  0  0  0
   -1.1727    1.2463    3.3765 O   0  0  0  0  0  0  0  0  0  0  0  0
    1.3186    1.9101    3.6757 O   0  0  0  0  0  0  0  0  0  0  0  0
  1  2  1  0  0  0  0
  1  7  1  0  0  0  0
  2 19  1  0  0  0  0
  2  8  1  1  0  0  0
  3 14  1  0  0  0  0
  3  2  1  0  0  0  0
  4  3  2  0  0  0  0
  5  4  1  0  0  0  0
  5  6  1  0  0  0  0
  6  1  2  0  0  0  0
  9  4  1  0  0  0  0
 10  5  1  0  0  0  0
 11  6  1  0  0  0  0
 11 12  2  0  0  0  0
 13 11  2  0  0  0  0
 14 15  1  0  0  0  0
 16 20  2  0  0  0  0
 16 17  1  0  0  0  0
 16 21  2  0  0  0  0
 18 17  1  0  0  0  0
 19 16  1  0  0  0  0
M  RAD  3   5   2  14   2  15   3
M  END
