Coordinates from ORCA-job p-NO2-Ph-N2-HSO4-B3LYPG-aug-cc-pVDZ-scan-d09-49-n400
 OpenBabel12261916533D

 21 20  0  0  0  0  0  0  0  0999 V2000
    2.4859   -0.8880    0.1165 C   0  0  0  0  0  0  0  0  0  0  0  0
    1.6217   -0.3317    1.0585 C   0  0  0  0  0  0  0  0  0  0  0  0
    0.6136    0.5304    0.6204 C   0  0  0  0  0  0  0  0  0  0  0  0
    0.4473    0.8458   -0.7312 C   0  0  0  0  0  0  0  0  0  0  0  0
    1.3035    0.2798   -1.6724 C   0  0  0  0  0  0  0  0  0  0  0  0
    2.3141   -0.5775   -1.2331 C   0  0  0  0  0  0  0  0  0  0  0  0
    3.2845   -1.5617    0.4159 H   0  0  0  0  0  0  0  0  0  0  0  0
    1.7351   -0.5706    2.1127 H   0  0  0  0  0  0  0  0  0  0  0  0
   -0.3498    1.5239   -1.0292 H   0  0  0  0  0  0  0  0  0  0  0  0
    1.2025    0.4982   -2.7323 H   0  0  0  0  0  0  0  0  0  0  0  0
    3.2258   -1.1755   -2.2258 N   0  0  0  0  0  0  0  0  0  0  0  0
    4.1054   -1.9275   -1.8134 O   0  0  0  0  0  0  0  0  0  0  0  0
    3.0507   -0.8877   -3.4073 O   0  0  0  0  0  0  0  0  0  0  0  0
    2.2492    4.9605   -0.2378 N   0  0  0  0  0  0  0  0  0  0  0  0
    2.9522    5.6848   -0.6859 N   0  0  0  0  0  0  0  0  0  0  0  0
    0.0933    1.7592    2.9405 S   0  0  0  0  0  0  0  0  0  0  0  0
    0.1908    0.4215    3.8980 O   0  0  0  0  0  0  0  0  0  0  0  0
   -0.7061    0.2313    4.2244 H   0  0  0  0  0  0  0  0  0  0  0  0
   -0.3453    1.0789    1.4786 O   0  0  0  0  0  0  0  0  0  0  0  0
   -1.0892    2.5294    3.3334 O   0  0  0  0  0  0  0  0  0  0  0  0
    1.4524    2.2917    2.8617 O   0  0  0  0  0  0  0  0  0  0  0  0
  1  7  1  0  0  0  0
  1  2  2  0  0  0  0
  2  8  1  0  0  0  0
  3  2  1  0  0  0  0
  3 19  1  0  0  0  0
  4  3  2  0  0  0  0
  5  6  2  0  0  0  0
  5  4  1  0  0  0  0
  6  1  1  0  0  0  0
  9  4  1  0  0  0  0
 10  5  1  0  0  0  0
 11 12  2  0  0  0  0
 11  6  1  0  0  0  0
 13 11  2  0  0  0  0
 15 14  3  0  0  0  0
 16 20  2  0  0  0  0
 16 17  1  0  0  0  0
 17 18  1  0  0  0  0
 19 16  1  0  0  0  0
 21 16  2  0  0  0  0
M  END
