Coordinates from ORCA-job p-NO2-Ph-N2-HSO4-B3LYPG-aug-cc-pVDZ-scan-d09-49-n400
 OpenBabel12261916533D

 21 20  0  0  0  0  0  0  0  0999 V2000
    2.6156   -0.6177    0.0876 C   0  0  0  0  0  0  0  0  0  0  0  0
    1.7906    0.0020    1.0267 C   0  0  0  0  0  0  0  0  0  0  0  0
    0.6781    0.7157    0.5753 C   0  0  0  0  0  0  0  0  0  0  0  0
    0.3760    0.8233   -0.7873 C   0  0  0  0  0  0  0  0  0  0  0  0
    1.1966    0.1978   -1.7200 C   0  0  0  0  0  0  0  0  0  0  0  0
    2.3097   -0.5151   -1.2687 C   0  0  0  0  0  0  0  0  0  0  0  0
    3.4910   -1.1809    0.4005 H   0  0  0  0  0  0  0  0  0  0  0  0
    2.0244   -0.0765    2.0839 H   0  0  0  0  0  0  0  0  0  0  0  0
   -0.4973    1.3939   -1.0968 H   0  0  0  0  0  0  0  0  0  0  0  0
    0.9888    0.2591   -2.7851 H   0  0  0  0  0  0  0  0  0  0  0  0
    3.1834   -1.1773   -2.2526 N   0  0  0  0  0  0  0  0  0  0  0  0
    4.1588   -1.7926   -1.8287 O   0  0  0  0  0  0  0  0  0  0  0  0
    2.8916   -1.0652   -3.4412 O   0  0  0  0  0  0  0  0  0  0  0  0
    2.1775    4.2500    0.1090 N   0  0  0  0  0  0  0  0  0  0  0  0
    2.9928    4.8561   -0.3237 N   0  0  0  0  0  0  0  0  0  0  0  0
    0.0978    1.8268    2.9644 S   0  0  0  0  0  0  0  0  0  0  0  0
    0.0767    0.3835    3.7568 O   0  0  0  0  0  0  0  0  0  0  0  0
   -0.8504    0.1822    3.9744 H   0  0  0  0  0  0  0  0  0  0  0  0
   -0.2532    1.3409    1.4081 O   0  0  0  0  0  0  0  0  0  0  0  0
   -1.0848    2.5988    3.3497 O   0  0  0  0  0  0  0  0  0  0  0  0
    1.4739    2.3105    3.0599 O   0  0  0  0  0  0  0  0  0  0  0  0
  1  7  1  0  0  0  0
  1  2  2  0  0  0  0
  2  8  1  0  0  0  0
  3  2  1  0  0  0  0
  3 19  1  0  0  0  0
  4  3  2  0  0  0  0
  5  6  2  0  0  0  0
  5  4  1  0  0  0  0
  6  1  1  0  0  0  0
  9  4  1  0  0  0  0
 10  5  1  0  0  0  0
 11 12  2  0  0  0  0
 11  6  1  0  0  0  0
 13 11  2  0  0  0  0
 15 14  3  0  0  0  0
 16 21  2  0  0  0  0
 16 20  2  0  0  0  0
 16 17  1  0  0  0  0
 17 18  1  0  0  0  0
 19 16  1  0  0  0  0
M  END
