Coordinates from ORCA-job p-NO2-Ph-N2-HSO4-B3LYPG-aug-cc-pVDZ-scan-d09-49-n400
 OpenBabel12261916533D

 21 20  0  0  0  0  0  0  0  0999 V2000
    2.6974   -0.4371    0.0684 C   0  0  0  0  0  0  0  0  0  0  0  0
    1.9082    0.2330    1.0038 C   0  0  0  0  0  0  0  0  0  0  0  0
    0.7517    0.8824    0.5638 C   0  0  0  0  0  0  0  0  0  0  0  0
    0.3719    0.8709   -0.7840 C   0  0  0  0  0  0  0  0  0  0  0  0
    1.1603    0.2007   -1.7127 C   0  0  0  0  0  0  0  0  0  0  0  0
    2.3178   -0.4464   -1.2729 C   0  0  0  0  0  0  0  0  0  0  0  0
    3.6046   -0.9522    0.3739 H   0  0  0  0  0  0  0  0  0  0  0  0
    2.2072    0.2486    2.0469 H   0  0  0  0  0  0  0  0  0  0  0  0
   -0.5363    1.3888   -1.0862 H   0  0  0  0  0  0  0  0  0  0  0  0
    0.8922    0.1737   -2.7656 H   0  0  0  0  0  0  0  0  0  0  0  0
    3.1561   -1.1592   -2.2513 N   0  0  0  0  0  0  0  0  0  0  0  0
    4.1698   -1.7170   -1.8376 O   0  0  0  0  0  0  0  0  0  0  0  0
    2.7970   -1.1465   -3.4268 O   0  0  0  0  0  0  0  0  0  0  0  0
    2.0528    3.6588    0.2186 N   0  0  0  0  0  0  0  0  0  0  0  0
    2.9283    4.1464   -0.2452 N   0  0  0  0  0  0  0  0  0  0  0  0
    0.1013    1.8501    3.0053 S   0  0  0  0  0  0  0  0  0  0  0  0
   -0.0249    0.3295    3.6211 O   0  0  0  0  0  0  0  0  0  0  0  0
   -0.9717    0.1395    3.7429 H   0  0  0  0  0  0  0  0  0  0  0  0
   -0.1500    1.5617    1.3842 O   0  0  0  0  0  0  0  0  0  0  0  0
   -1.0776    2.6271    3.3900 O   0  0  0  0  0  0  0  0  0  0  0  0
    1.4815    2.2625    3.2556 O   0  0  0  0  0  0  0  0  0  0  0  0
  1  7  1  0  0  0  0
  1  2  2  0  0  0  0
  2  8  1  0  0  0  0
  3  2  1  0  0  0  0
  3 19  1  0  0  0  0
  4  3  2  0  0  0  0
  5  6  2  0  0  0  0
  5  4  1  0  0  0  0
  6  1  1  0  0  0  0
  9  4  1  0  0  0  0
 10  5  1  0  0  0  0
 11 12  2  0  0  0  0
 11  6  1  0  0  0  0
 13 11  2  0  0  0  0
 15 14  3  0  0  0  0
 16 21  2  0  0  0  0
 16 20  2  0  0  0  0
 16 17  1  0  0  0  0
 17 18  1  0  0  0  0
 19 16  1  0  0  0  0
M  END
