Coordinates from ORCA-job p-NO2-Ph-N2-HSO4-B3LYPG-aug-cc-pVDZ-scan-d09-49-n400
 OpenBabel12261916533D

 21 20  0  0  0  0  0  0  0  0999 V2000
    2.7193   -0.3823    0.0661 C   0  0  0  0  0  0  0  0  0  0  0  0
    1.9366    0.2956    1.0012 C   0  0  0  0  0  0  0  0  0  0  0  0
    0.7820    0.9495    0.5634 C   0  0  0  0  0  0  0  0  0  0  0  0
    0.3854    0.9133   -0.7793 C   0  0  0  0  0  0  0  0  0  0  0  0
    1.1670    0.2362   -1.7080 C   0  0  0  0  0  0  0  0  0  0  0  0
    2.3309   -0.4026   -1.2726 C   0  0  0  0  0  0  0  0  0  0  0  0
    3.6275   -0.8964    0.3700 H   0  0  0  0  0  0  0  0  0  0  0  0
    2.2432    0.3193    2.0418 H   0  0  0  0  0  0  0  0  0  0  0  0
   -0.5278    1.4243   -1.0780 H   0  0  0  0  0  0  0  0  0  0  0  0
    0.8879    0.1951   -2.7576 H   0  0  0  0  0  0  0  0  0  0  0  0
    3.1621   -1.1234   -2.2509 N   0  0  0  0  0  0  0  0  0  0  0  0
    4.1779   -1.6791   -1.8395 O   0  0  0  0  0  0  0  0  0  0  0  0
    2.7907   -1.1265   -3.4226 O   0  0  0  0  0  0  0  0  0  0  0  0
    1.9665    3.3392    0.2589 N   0  0  0  0  0  0  0  0  0  0  0  0
    2.8256    3.7640   -0.2902 N   0  0  0  0  0  0  0  0  0  0  0  0
    0.1061    1.8695    3.0167 S   0  0  0  0  0  0  0  0  0  0  0  0
   -0.0424    0.3362    3.5937 O   0  0  0  0  0  0  0  0  0  0  0  0
   -0.9926    0.1502    3.6932 H   0  0  0  0  0  0  0  0  0  0  0  0
   -0.1213    1.6211    1.3852 O   0  0  0  0  0  0  0  0  0  0  0  0
   -1.0723    2.6479    3.3998 O   0  0  0  0  0  0  0  0  0  0  0  0
    1.4851    2.2645    3.3008 O   0  0  0  0  0  0  0  0  0  0  0  0
  1  7  1  0  0  0  0
  1  2  2  0  0  0  0
  2  8  1  0  0  0  0
  3  2  1  0  0  0  0
  3 19  1  0  0  0  0
  4  3  2  0  0  0  0
  5  6  2  0  0  0  0
  5  4  1  0  0  0  0
  6  1  1  0  0  0  0
  9  4  1  0  0  0  0
 10  5  1  0  0  0  0
 11 12  2  0  0  0  0
 11  6  1  0  0  0  0
 13 11  2  0  0  0  0
 15 14  3  0  0  0  0
 16 21  2  0  0  0  0
 16 20  2  0  0  0  0
 16 17  1  0  0  0  0
 17 18  1  0  0  0  0
 19 16  1  0  0  0  0
M  END
