Coordinates from ORCA-job p-NO2-Ph-N2-HSO4-B3LYPG-aug-cc-pVDZ-scan-d09-49-n400
 OpenBabel12261916533D

 21 21  0  0  1  0  0  0  0  0999 V2000
    2.1380   -0.0549    0.3272 C   0  0  0  0  0  0  0  0  0  0  0  0
    1.7058    1.2846    0.8236 C   0  0  1  0  0  0  0  0  0  0  0  0
    1.5436    2.3677   -0.2960 C   0  0  0  0  0  0  0  0  0  0  0  0
    1.3737    1.8401   -1.6845 C   0  0  0  0  0  0  0  0  0  0  0  0
    1.6106    0.5541   -2.0052 C   0  0  0  0  0  0  0  0  0  0  0  0
    2.0486   -0.3680   -0.9768 C   0  0  0  0  0  0  0  0  0  0  0  0
    2.4859   -0.7863    1.0530 H   0  0  0  0  0  0  0  0  0  0  0  0
    2.3837    1.6854    1.5866 H   0  0  0  0  0  0  0  0  0  0  0  0
    1.0618    2.5749   -2.4267 H   0  0  0  0  0  0  0  0  0  0  0  0
    1.5000    0.1926   -3.0235 H   0  0  0  0  0  0  0  0  0  0  0  0
    2.4310   -1.7414   -1.3994 N   0  0  0  0  0  0  0  0  0  0  0  0
    2.8056   -2.5277   -0.5373 O   0  0  0  0  0  0  0  0  0  0  0  0
    2.3150   -2.0069   -2.5919 O   0  0  0  0  0  0  0  0  0  0  0  0
    1.5319    3.2898   -0.0670 N   0  0  0  0  0  0  0  0  0  0  0  0
    1.5176    4.4274    0.2217 N   0  0  0  0  0  0  0  0  0  0  0  0
    0.2664    1.1034    3.0928 S   0  0  0  0  0  0  0  0  0  0  0  0
    0.6828   -0.4636    3.3919 O   0  0  0  0  0  0  0  0  0  0  0  0
   -0.1220   -1.0033    3.3021 H   0  0  0  0  0  0  0  0  0  0  0  0
    0.3683    1.1622    1.4382 O   0  0  0  0  0  0  0  0  0  0  0  0
   -1.1578    1.2821    3.3861 O   0  0  0  0  0  0  0  0  0  0  0  0
    1.3470    1.9033    3.6773 O   0  0  0  0  0  0  0  0  0  0  0  0
  1  2  1  0  0  0  0
  1  7  1  0  0  0  0
  2 19  1  0  0  0  0
  2  8  1  1  0  0  0
  3 14  1  0  0  0  0
  3  2  1  0  0  0  0
  4  3  2  0  0  0  0
  5  4  1  0  0  0  0
  5  6  1  0  0  0  0
  6  1  2  0  0  0  0
  9  4  1  0  0  0  0
 10  5  1  0  0  0  0
 11  6  1  0  0  0  0
 11 12  2  0  0  0  0
 13 11  2  0  0  0  0
 14 15  1  0  0  0  0
 16 20  2  0  0  0  0
 16 17  1  0  0  0  0
 16 21  2  0  0  0  0
 18 17  1  0  0  0  0
 19 16  1  0  0  0  0
M  RAD  3   5   2  14   2  15   3
M  END
