Coordinates from ORCA-job p-NO2-Ph-N2-HSO4-B3LYPG-aug-cc-pVDZ-scan-d09-49-n400
 OpenBabel12261916533D

 21 20  0  0  0  0  0  0  0  0999 V2000
    2.7307   -0.3471    0.0625 C   0  0  0  0  0  0  0  0  0  0  0  0
    1.9565    0.3414    0.9924 C   0  0  0  0  0  0  0  0  0  0  0  0
    0.8480    1.0757    0.5429 C   0  0  0  0  0  0  0  0  0  0  0  0
    0.4152    0.9750   -0.7915 C   0  0  0  0  0  0  0  0  0  0  0  0
    1.1870    0.2854   -1.7153 C   0  0  0  0  0  0  0  0  0  0  0  0
    2.3537   -0.3521   -1.2811 C   0  0  0  0  0  0  0  0  0  0  0  0
    3.6184   -0.8925    0.3726 H   0  0  0  0  0  0  0  0  0  0  0  0
    2.2496    0.3490    2.0372 H   0  0  0  0  0  0  0  0  0  0  0  0
   -0.5030    1.4775   -1.0888 H   0  0  0  0  0  0  0  0  0  0  0  0
    0.8942    0.2223   -2.7601 H   0  0  0  0  0  0  0  0  0  0  0  0
    3.1755   -1.0855   -2.2556 N   0  0  0  0  0  0  0  0  0  0  0  0
    4.1843   -1.6527   -1.8417 O   0  0  0  0  0  0  0  0  0  0  0  0
    2.8043   -1.0884   -3.4276 O   0  0  0  0  0  0  0  0  0  0  0  0
    1.8139    2.9560    0.3458 N   0  0  0  0  0  0  0  0  0  0  0  0
    2.6603    3.3409   -0.2561 N   0  0  0  0  0  0  0  0  0  0  0  0
    0.1134    1.9118    3.0095 S   0  0  0  0  0  0  0  0  0  0  0  0
   -0.0057    0.3803    3.5956 O   0  0  0  0  0  0  0  0  0  0  0  0
   -0.9521    0.1731    3.6897 H   0  0  0  0  0  0  0  0  0  0  0  0
   -0.1130    1.6471    1.3799 O   0  0  0  0  0  0  0  0  0  0  0  0
   -1.0800    2.6676    3.3916 O   0  0  0  0  0  0  0  0  0  0  0  0
    1.4863    2.3307    3.2902 O   0  0  0  0  0  0  0  0  0  0  0  0
  1  7  1  0  0  0  0
  1  2  2  0  0  0  0
  2  8  1  0  0  0  0
  3  2  1  0  0  0  0
  3 19  1  0  0  0  0
  4  3  2  0  0  0  0
  5  6  2  0  0  0  0
  5  4  1  0  0  0  0
  6  1  1  0  0  0  0
  9  4  1  0  0  0  0
 10  5  1  0  0  0  0
 11 12  2  0  0  0  0
 11  6  1  0  0  0  0
 13 11  2  0  0  0  0
 15 14  3  0  0  0  0
 16 21  2  0  0  0  0
 16 20  2  0  0  0  0
 16 17  1  0  0  0  0
 17 18  1  0  0  0  0
 19 16  1  0  0  0  0
M  END
