Coordinates from ORCA-job p-NO2-Ph-N2-HSO4-B3LYPG-aug-cc-pVDZ-scan-d09-49-n400
 OpenBabel12261916533D

 21 20  0  0  0  0  0  0  0  0999 V2000
    2.6669   -0.4054    0.0659 C   0  0  0  0  0  0  0  0  0  0  0  0
    2.3088    0.7652    0.7483 C   0  0  0  0  0  0  0  0  0  0  0  0
    1.6464    1.6700   -0.0341 C   0  0  0  0  0  0  0  0  0  0  0  0
    1.2713    1.6266   -1.3557 C   0  0  0  0  0  0  0  0  0  0  0  0
    1.6404    0.4406   -2.0019 C   0  0  0  0  0  0  0  0  0  0  0  0
    2.3296   -0.5386   -1.2823 C   0  0  0  0  0  0  0  0  0  0  0  0
    3.1896   -1.2080    0.5798 H   0  0  0  0  0  0  0  0  0  0  0  0
    2.4822    0.9372    1.8079 H   0  0  0  0  0  0  0  0  0  0  0  0
    0.7239    2.4202   -1.8553 H   0  0  0  0  0  0  0  0  0  0  0  0
    1.3929    0.2766   -3.0478 H   0  0  0  0  0  0  0  0  0  0  0  0
    2.7164   -1.7857   -1.9887 N   0  0  0  0  0  0  0  0  0  0  0  0
    3.3310   -2.6281   -1.3463 O   0  0  0  0  0  0  0  0  0  0  0  0
    2.3971   -1.8853   -3.1681 O   0  0  0  0  0  0  0  0  0  0  0  0
    1.2612    3.2089    0.7557 N   0  0  0  0  0  0  0  0  0  0  0  0
    1.0625    4.2983    0.6861 N   0  0  0  0  0  0  0  0  0  0  0  0
   -0.1944    1.6439    2.9255 S   0  0  0  0  0  0  0  0  0  0  0  0
    0.3175    0.0488    3.1785 O   0  0  0  0  0  0  0  0  0  0  0  0
    0.0374   -0.1670    4.0813 H   0  0  0  0  0  0  0  0  0  0  0  0
   -0.8103    1.6072    1.5619 O   0  0  0  0  0  0  0  0  0  0  0  0
   -1.0573    1.9617    4.0884 O   0  0  0  0  0  0  0  0  0  0  0  0
    1.1247    2.4285    2.8931 O   0  0  0  0  0  0  0  0  0  0  0  0
  1  7  1  0  0  0  0
  1  2  1  0  0  0  0
  2  8  1  0  0  0  0
  3  2  2  0  0  0  0
  3 14  1  0  0  0  0
  4  3  1  0  0  0  0
  5  4  2  0  0  0  0
  5  6  1  0  0  0  0
  6  1  2  0  0  0  0
  9  4  1  0  0  0  0
 10  5  1  0  0  0  0
 11 12  2  0  0  0  0
 11  6  1  0  0  0  0
 13 11  2  0  0  0  0
 15 14  2  0  0  0  0
 16 17  1  0  0  0  0
 16 20  1  0  0  0  0
 17 18  1  0  0  0  0
 19 16  2  0  0  0  0
 21 16  2  0  0  0  0
M  RAD  2  15   2  20   2
M  END
