Coordinates from ORCA-job p-NO2-Ph-N2-HSO4-B3LYPG-aug-cc-pVDZ-scan-d09-49-n400
 OpenBabel12261916533D

 21 20  0  0  0  0  0  0  0  0999 V2000
    2.7218   -0.3752    0.0654 C   0  0  0  0  0  0  0  0  0  0  0  0
    1.9400    0.3038    1.0002 C   0  0  0  0  0  0  0  0  0  0  0  0
    0.7867    0.9599    0.5623 C   0  0  0  0  0  0  0  0  0  0  0  0
    0.3870    0.9189   -0.7794 C   0  0  0  0  0  0  0  0  0  0  0  0
    1.1678    0.2407   -1.7079 C   0  0  0  0  0  0  0  0  0  0  0  0
    2.3327   -0.3967   -1.2731 C   0  0  0  0  0  0  0  0  0  0  0  0
    3.6298   -0.8897    0.3694 H   0  0  0  0  0  0  0  0  0  0  0  0
    2.2473    0.3285    2.0406 H   0  0  0  0  0  0  0  0  0  0  0  0
   -0.5271    1.4282   -1.0777 H   0  0  0  0  0  0  0  0  0  0  0  0
    0.8869    0.1971   -2.7570 H   0  0  0  0  0  0  0  0  0  0  0  0
    3.1630   -1.1186   -2.2512 N   0  0  0  0  0  0  0  0  0  0  0  0
    4.1795   -1.6734   -1.8401 O   0  0  0  0  0  0  0  0  0  0  0  0
    2.7907   -1.1229   -3.4226 O   0  0  0  0  0  0  0  0  0  0  0  0
    1.9540    3.2920    0.2690 N   0  0  0  0  0  0  0  0  0  0  0  0
    2.8105    3.7096   -0.2898 N   0  0  0  0  0  0  0  0  0  0  0  0
    0.1069    1.8737    3.0170 S   0  0  0  0  0  0  0  0  0  0  0  0
   -0.0422    0.3393    3.5907 O   0  0  0  0  0  0  0  0  0  0  0  0
   -0.9925    0.1526    3.6876 H   0  0  0  0  0  0  0  0  0  0  0  0
   -0.1184    1.6280    1.3846 O   0  0  0  0  0  0  0  0  0  0  0  0
   -1.0721    2.6512    3.3999 O   0  0  0  0  0  0  0  0  0  0  0  0
    1.4854    2.2683    3.3042 O   0  0  0  0  0  0  0  0  0  0  0  0
  1  7  1  0  0  0  0
  1  2  2  0  0  0  0
  2  8  1  0  0  0  0
  3  2  1  0  0  0  0
  3 19  1  0  0  0  0
  4  3  2  0  0  0  0
  5  6  2  0  0  0  0
  5  4  1  0  0  0  0
  6  1  1  0  0  0  0
  9  4  1  0  0  0  0
 10  5  1  0  0  0  0
 11 12  2  0  0  0  0
 11  6  1  0  0  0  0
 13 11  2  0  0  0  0
 15 14  3  0  0  0  0
 16 21  2  0  0  0  0
 16 20  2  0  0  0  0
 16 17  1  0  0  0  0
 17 18  1  0  0  0  0
 19 16  1  0  0  0  0
M  END
