Coordinates from ORCA-job p-NO2-Ph-N2-HSO4-B3LYPG-aug-cc-pVDZ-scan-d09-49-n400
 OpenBabel12261916533D

 21 21  0  0  1  0  0  0  0  0999 V2000
    2.1254   -0.0723    0.3205 C   0  0  0  0  0  0  0  0  0  0  0  0
    1.7012    1.2652    0.8266 C   0  0  1  0  0  0  0  0  0  0  0  0
    1.5373    2.3806   -0.2893 C   0  0  0  0  0  0  0  0  0  0  0  0
    1.3811    1.8420   -1.6883 C   0  0  0  0  0  0  0  0  0  0  0  0
    1.6260    0.5602   -2.0121 C   0  0  0  0  0  0  0  0  0  0  0  0
    2.0508   -0.3726   -0.9866 C   0  0  0  0  0  0  0  0  0  0  0  0
    2.4594   -0.8135    1.0436 H   0  0  0  0  0  0  0  0  0  0  0  0
    2.3888    1.6671    1.5807 H   0  0  0  0  0  0  0  0  0  0  0  0
    1.0709    2.5826   -2.4255 H   0  0  0  0  0  0  0  0  0  0  0  0
    1.5268    0.2052   -3.0342 H   0  0  0  0  0  0  0  0  0  0  0  0
    2.4320   -1.7437   -1.4176 N   0  0  0  0  0  0  0  0  0  0  0  0
    2.7957   -2.5388   -0.5589 O   0  0  0  0  0  0  0  0  0  0  0  0
    2.3542   -1.9892   -2.6174 O   0  0  0  0  0  0  0  0  0  0  0  0
    1.5090    3.2507   -0.0610 N   0  0  0  0  0  0  0  0  0  0  0  0
    1.4715    4.3946    0.2433 N   0  0  0  0  0  0  0  0  0  0  0  0
    0.2725    1.1232    3.1006 S   0  0  0  0  0  0  0  0  0  0  0  0
    0.6815   -0.4411    3.4216 O   0  0  0  0  0  0  0  0  0  0  0  0
   -0.1269   -0.9776    3.3452 H   0  0  0  0  0  0  0  0  0  0  0  0
    0.3721    1.1523    1.4421 O   0  0  0  0  0  0  0  0  0  0  0  0
   -1.1505    1.3138    3.3908 O   0  0  0  0  0  0  0  0  0  0  0  0
    1.3588    1.9267    3.6681 O   0  0  0  0  0  0  0  0  0  0  0  0
  1  2  1  0  0  0  0
  1  7  1  0  0  0  0
  2 19  1  0  0  0  0
  2  8  1  1  0  0  0
  3 14  1  0  0  0  0
  3  2  1  0  0  0  0
  4  3  2  0  0  0  0
  5  4  1  0  0  0  0
  5  6  1  0  0  0  0
  6  1  2  0  0  0  0
  9  4  1  0  0  0  0
 10  5  1  0  0  0  0
 11  6  1  0  0  0  0
 11 12  2  0  0  0  0
 13 11  2  0  0  0  0
 14 15  1  0  0  0  0
 16 20  2  0  0  0  0
 16 17  1  0  0  0  0
 16 21  2  0  0  0  0
 18 17  1  0  0  0  0
 19 16  1  0  0  0  0
M  RAD  3   5   2  14   2  15   3
M  END
