Coordinates from ORCA-job p-NO2-Ph-N2-HSO4-B3LYPG-aug-cc-pVDZ-scan-d09-49-n400
 OpenBabel12261916533D

 21 20  0  0  0  0  0  0  0  0999 V2000
    2.6219   -0.6046    0.0861 C   0  0  0  0  0  0  0  0  0  0  0  0
    1.7993    0.0186    1.0247 C   0  0  0  0  0  0  0  0  0  0  0  0
    0.6837    0.7289    0.5733 C   0  0  0  0  0  0  0  0  0  0  0  0
    0.3760    0.8264   -0.7888 C   0  0  0  0  0  0  0  0  0  0  0  0
    1.1944    0.1973   -1.7214 C   0  0  0  0  0  0  0  0  0  0  0  0
    2.3109   -0.5103   -1.2699 C   0  0  0  0  0  0  0  0  0  0  0  0
    3.4994   -1.1647    0.3990 H   0  0  0  0  0  0  0  0  0  0  0  0
    2.0372   -0.0536    2.0814 H   0  0  0  0  0  0  0  0  0  0  0  0
   -0.5005    1.3920   -1.0988 H   0  0  0  0  0  0  0  0  0  0  0  0
    0.9825    0.2516   -2.7860 H   0  0  0  0  0  0  0  0  0  0  0  0
    3.1825   -1.1761   -2.2531 N   0  0  0  0  0  0  0  0  0  0  0  0
    4.1573   -1.7922   -1.8288 O   0  0  0  0  0  0  0  0  0  0  0  0
    2.8826   -1.0771   -3.4408 O   0  0  0  0  0  0  0  0  0  0  0  0
    2.1695    4.2158    0.1199 N   0  0  0  0  0  0  0  0  0  0  0  0
    2.9889    4.8159   -0.3134 N   0  0  0  0  0  0  0  0  0  0  0  0
    0.0977    1.8278    2.9673 S   0  0  0  0  0  0  0  0  0  0  0  0
    0.0698    0.3793    3.7497 O   0  0  0  0  0  0  0  0  0  0  0  0
   -0.8586    0.1784    3.9617 H   0  0  0  0  0  0  0  0  0  0  0  0
   -0.2469    1.3554    1.4056 O   0  0  0  0  0  0  0  0  0  0  0  0
   -1.0847    2.6000    3.3525 O   0  0  0  0  0  0  0  0  0  0  0  0
    1.4747    2.3067    3.0718 O   0  0  0  0  0  0  0  0  0  0  0  0
  1  7  1  0  0  0  0
  1  2  2  0  0  0  0
  2  8  1  0  0  0  0
  3  2  1  0  0  0  0
  3 19  1  0  0  0  0
  4  3  2  0  0  0  0
  5  6  2  0  0  0  0
  5  4  1  0  0  0  0
  6  1  1  0  0  0  0
  9  4  1  0  0  0  0
 10  5  1  0  0  0  0
 11 12  2  0  0  0  0
 11  6  1  0  0  0  0
 13 11  2  0  0  0  0
 15 14  3  0  0  0  0
 16 21  2  0  0  0  0
 16 20  2  0  0  0  0
 16 17  1  0  0  0  0
 17 18  1  0  0  0  0
 19 16  1  0  0  0  0
M  END
