Coordinates from ORCA-job p-NO2-Ph-N2-HSO4-B3LYPG-aug-cc-pVDZ-scan-d09-49-n400
 OpenBabel12261916533D

 21 20  0  0  0  0  0  0  0  0999 V2000
    2.6356   -0.5753    0.0829 C   0  0  0  0  0  0  0  0  0  0  0  0
    1.8192    0.0573    1.0207 C   0  0  0  0  0  0  0  0  0  0  0  0
    0.6956    0.7560    0.5702 C   0  0  0  0  0  0  0  0  0  0  0  0
    0.3741    0.8314   -0.7902 C   0  0  0  0  0  0  0  0  0  0  0  0
    1.1868    0.1938   -1.7218 C   0  0  0  0  0  0  0  0  0  0  0  0
    2.3113   -0.5018   -1.2713 C   0  0  0  0  0  0  0  0  0  0  0  0
    3.5188   -1.1265    0.3952 H   0  0  0  0  0  0  0  0  0  0  0  0
    2.0690    0.0023    2.0757 H   0  0  0  0  0  0  0  0  0  0  0  0
   -0.5089    1.3871   -1.0999 H   0  0  0  0  0  0  0  0  0  0  0  0
    0.9641    0.2317   -2.7850 H   0  0  0  0  0  0  0  0  0  0  0  0
    3.1765   -1.1772   -2.2534 N   0  0  0  0  0  0  0  0  0  0  0  0
    4.1584   -1.7827   -1.8298 O   0  0  0  0  0  0  0  0  0  0  0  0
    2.8649   -1.0963   -3.4394 O   0  0  0  0  0  0  0  0  0  0  0  0
    2.1552    4.1365    0.1415 N   0  0  0  0  0  0  0  0  0  0  0  0
    2.9847    4.7204   -0.2946 N   0  0  0  0  0  0  0  0  0  0  0  0
    0.0980    1.8304    2.9744 S   0  0  0  0  0  0  0  0  0  0  0  0
    0.0522    0.3676    3.7282 O   0  0  0  0  0  0  0  0  0  0  0  0
   -0.8800    0.1675    3.9240 H   0  0  0  0  0  0  0  0  0  0  0  0
   -0.2307    1.3918    1.4001 O   0  0  0  0  0  0  0  0  0  0  0  0
   -1.0838    2.6033    3.3596 O   0  0  0  0  0  0  0  0  0  0  0  0
    1.4767    2.2983    3.1050 O   0  0  0  0  0  0  0  0  0  0  0  0
  1  7  1  0  0  0  0
  1  2  2  0  0  0  0
  2  8  1  0  0  0  0
  3  2  1  0  0  0  0
  3 19  1  0  0  0  0
  4  3  2  0  0  0  0
  5  6  2  0  0  0  0
  5  4  1  0  0  0  0
  6  1  1  0  0  0  0
  9  4  1  0  0  0  0
 10  5  1  0  0  0  0
 11 12  2  0  0  0  0
 11  6  1  0  0  0  0
 13 11  2  0  0  0  0
 15 14  3  0  0  0  0
 16 21  2  0  0  0  0
 16 20  2  0  0  0  0
 16 17  1  0  0  0  0
 17 18  1  0  0  0  0
 19 16  1  0  0  0  0
M  END
