Coordinates from ORCA-job p-NO2-Ph-N2-HSO4-B3LYPG-aug-cc-pVDZ-scan-d09-49-n400
 OpenBabel12261916533D

 21 21  0  0  1  0  0  0  0  0999 V2000
    2.7289   -0.3459    0.0622 C   0  0  0  0  0  0  0  0  0  0  0  0
    1.9635    0.3518    0.9873 C   0  0  0  0  0  0  0  0  0  0  0  0
    0.8934    1.1540    0.5290 C   0  0  2  0  0  0  0  0  0  0  0  0
    0.4310    1.0009   -0.8007 C   0  0  0  0  0  0  0  0  0  0  0  0
    1.1944    0.3011   -1.7191 C   0  0  0  0  0  0  0  0  0  0  0  0
    2.3636   -0.3363   -1.2866 C   0  0  2  0  0  0  0  0  0  0  0  0
    3.5979   -0.9177    0.3774 H   0  0  0  0  0  0  0  0  0  0  0  0
    2.2445    0.3478    2.0357 H   0  0  0  0  0  0  0  0  0  0  0  0
   -0.4895    1.5009   -1.0953 H   0  0  0  0  0  0  0  0  0  0  0  0
    0.8908    0.2213   -2.7598 H   0  0  0  0  0  0  0  0  0  0  0  0
    3.1779   -1.0772   -2.2574 N   0  0  0  0  0  0  0  0  0  0  0  0
    4.1806   -1.6551   -1.8416 O   0  0  0  0  0  0  0  0  0  0  0  0
    2.8095   -1.0766   -3.4310 O   0  0  0  0  0  0  0  0  0  0  0  0
    1.7615    2.8401    0.3772 N   0  0  0  0  0  0  0  0  0  0  0  0
    2.6124    3.2295   -0.2229 N   0  0  0  0  0  0  0  0  0  0  0  0
    0.1070    1.9279    3.0022 S   0  0  0  0  0  0  0  0  0  0  0  0
    0.0292    0.3991    3.6010 O   0  0  0  0  0  0  0  0  0  0  0  0
   -0.9110    0.1672    3.6985 H   0  0  0  0  0  0  0  0  0  0  0  0
   -0.1159    1.6461    1.3760 O   0  0  0  0  0  0  0  0  0  0  0  0
   -1.1036    2.6545    3.3872 O   0  0  0  0  0  0  0  0  0  0  0  0
    1.4715    2.3820    3.2728 O   0  0  0  0  0  0  0  0  0  0  0  0
  1  7  1  0  0  0  0
  1  2  2  0  0  0  0
  2  8  1  0  0  0  0
  3 14  1  6  0  0  0
  3  2  1  0  0  0  0
  3 19  1  0  0  0  0
  4  3  1  0  0  0  0
  5  6  1  0  0  0  0
  5  4  2  0  0  0  0
  6 11  1  1  0  0  0
  6  1  1  0  0  0  0
  9  4  1  0  0  0  0
 10  5  1  0  0  0  0
 11 12  2  0  0  0  0
 13 11  2  0  0  0  0
 15 14  2  0  0  0  0
 16 21  2  0  0  0  0
 16 20  2  0  0  0  0
 16 17  1  0  0  0  0
 17 18  1  0  0  0  0
 19 16  1  0  0  0  0
M  RAD  2   6   2  15   2
M  END
