Coordinates from ORCA-job p-NO2-Ph-N2-HSO4-B3LYPG-aug-cc-pVDZ-scan-d09-49-n400
 OpenBabel12261916533D

 21 20  0  0  0  0  0  0  0  0999 V2000
    2.6116   -0.6272    0.0889 C   0  0  0  0  0  0  0  0  0  0  0  0
    1.7846   -0.0105    1.0280 C   0  0  0  0  0  0  0  0  0  0  0  0
    0.6754    0.7092    0.5761 C   0  0  0  0  0  0  0  0  0  0  0  0
    0.3779    0.8231   -0.7869 C   0  0  0  0  0  0  0  0  0  0  0  0
    1.2002    0.2000   -1.7202 C   0  0  0  0  0  0  0  0  0  0  0  0
    2.3104   -0.5171   -1.2682 C   0  0  0  0  0  0  0  0  0  0  0  0
    3.4845   -1.1942    0.4018 H   0  0  0  0  0  0  0  0  0  0  0  0
    2.0136   -0.0955    2.0858 H   0  0  0  0  0  0  0  0  0  0  0  0
   -0.4935    1.3965   -1.0969 H   0  0  0  0  0  0  0  0  0  0  0  0
    0.9964    0.2668   -2.7857 H   0  0  0  0  0  0  0  0  0  0  0  0
    3.1862   -1.1762   -2.2524 N   0  0  0  0  0  0  0  0  0  0  0  0
    4.1553   -1.8009   -1.8277 O   0  0  0  0  0  0  0  0  0  0  0  0
    2.8952   -1.0632   -3.4410 O   0  0  0  0  0  0  0  0  0  0  0  0
    2.1836    4.2822    0.0991 N   0  0  0  0  0  0  0  0  0  0  0  0
    2.9946    4.8944   -0.3331 N   0  0  0  0  0  0  0  0  0  0  0  0
    0.0963    1.8239    2.9630 S   0  0  0  0  0  0  0  0  0  0  0  0
    0.0825    0.3858    3.7651 O   0  0  0  0  0  0  0  0  0  0  0  0
   -0.8431    0.1837    3.9883 H   0  0  0  0  0  0  0  0  0  0  0  0
   -0.2586    1.3284    1.4105 O   0  0  0  0  0  0  0  0  0  0  0  0
   -1.0870    2.5947    3.3484 O   0  0  0  0  0  0  0  0  0  0  0  0
    1.4716    2.3113    3.0493 O   0  0  0  0  0  0  0  0  0  0  0  0
  1  7  1  0  0  0  0
  1  2  2  0  0  0  0
  2  8  1  0  0  0  0
  3  2  1  0  0  0  0
  3 19  1  0  0  0  0
  4  3  2  0  0  0  0
  5  6  2  0  0  0  0
  5  4  1  0  0  0  0
  6  1  1  0  0  0  0
  9  4  1  0  0  0  0
 10  5  1  0  0  0  0
 11 12  2  0  0  0  0
 11  6  1  0  0  0  0
 13 11  2  0  0  0  0
 15 14  3  0  0  0  0
 16 21  2  0  0  0  0
 16 20  2  0  0  0  0
 16 17  1  0  0  0  0
 17 18  1  0  0  0  0
 19 16  1  0  0  0  0
M  END
