Coordinates from ORCA-job p-NO2-Ph-N2-HSO4-B3LYPG-aug-cc-pVDZ-scan-d09-49-n400
 OpenBabel12261916533D

 21 20  0  0  0  0  0  0  0  0999 V2000
    2.7263   -0.3639    0.0648 C   0  0  0  0  0  0  0  0  0  0  0  0
    1.9465    0.3178    0.9989 C   0  0  0  0  0  0  0  0  0  0  0  0
    0.7988    0.9846    0.5597 C   0  0  0  0  0  0  0  0  0  0  0  0
    0.3925    0.9321   -0.7805 C   0  0  0  0  0  0  0  0  0  0  0  0
    1.1711    0.2512   -1.7083 C   0  0  0  0  0  0  0  0  0  0  0  0
    2.3372   -0.3849   -1.2739 C   0  0  0  0  0  0  0  0  0  0  0  0
    3.6320   -0.8821    0.3693 H   0  0  0  0  0  0  0  0  0  0  0  0
    2.2530    0.3415    2.0396 H   0  0  0  0  0  0  0  0  0  0  0  0
   -0.5234    1.4381   -1.0793 H   0  0  0  0  0  0  0  0  0  0  0  0
    0.8872    0.2029   -2.7564 H   0  0  0  0  0  0  0  0  0  0  0  0
    3.1653   -1.1098   -2.2515 N   0  0  0  0  0  0  0  0  0  0  0  0
    4.1809   -1.6662   -1.8402 O   0  0  0  0  0  0  0  0  0  0  0  0
    2.7913   -1.1166   -3.4223 O   0  0  0  0  0  0  0  0  0  0  0  0
    1.9232    3.2051    0.2849 N   0  0  0  0  0  0  0  0  0  0  0  0
    2.7749    3.6105   -0.2906 N   0  0  0  0  0  0  0  0  0  0  0  0
    0.1093    1.8811    3.0179 S   0  0  0  0  0  0  0  0  0  0  0  0
   -0.0406    0.3452    3.5868 O   0  0  0  0  0  0  0  0  0  0  0  0
   -0.9911    0.1571    3.6795 H   0  0  0  0  0  0  0  0  0  0  0  0
   -0.1130    1.6403    1.3842 O   0  0  0  0  0  0  0  0  0  0  0  0
   -1.0709    2.6570    3.4005 O   0  0  0  0  0  0  0  0  0  0  0  0
    1.4872    2.2744    3.3092 O   0  0  0  0  0  0  0  0  0  0  0  0
  1  7  1  0  0  0  0
  1  2  2  0  0  0  0
  2  8  1  0  0  0  0
  3  2  1  0  0  0  0
  3 19  1  0  0  0  0
  4  3  2  0  0  0  0
  5  6  2  0  0  0  0
  5  4  1  0  0  0  0
  6  1  1  0  0  0  0
  9  4  1  0  0  0  0
 10  5  1  0  0  0  0
 11 12  2  0  0  0  0
 11  6  1  0  0  0  0
 13 11  2  0  0  0  0
 15 14  3  0  0  0  0
 16 21  2  0  0  0  0
 16 20  2  0  0  0  0
 16 17  1  0  0  0  0
 17 18  1  0  0  0  0
 19 16  1  0  0  0  0
M  END
