Coordinates from ORCA-job p-NO2-Ph-N2-HSO4-B3LYPG-aug-cc-pVDZ-scan-d09-49-n400
 OpenBabel12261916533D

 21 21  0  0  1  0  0  0  0  0999 V2000
    2.1474   -0.0528    0.3263 C   0  0  0  0  0  0  0  0  0  0  0  0
    1.7158    1.2899    0.8155 C   0  0  1  0  0  0  0  0  0  0  0  0
    1.5661    2.3157   -0.3050 C   0  0  0  0  0  0  0  0  0  0  0  0
    1.3832    1.8354   -1.6796 C   0  0  0  0  0  0  0  0  0  0  0  0
    1.5975    0.5412   -2.0071 C   0  0  0  0  0  0  0  0  0  0  0  0
    2.0359   -0.3746   -0.9771 C   0  0  0  0  0  0  0  0  0  0  0  0
    2.5053   -0.7795    1.0509 H   0  0  0  0  0  0  0  0  0  0  0  0
    2.3718    1.6772    1.6026 H   0  0  0  0  0  0  0  0  0  0  0  0
    1.0849    2.5694   -2.4275 H   0  0  0  0  0  0  0  0  0  0  0  0
    1.4764    0.1799   -3.0235 H   0  0  0  0  0  0  0  0  0  0  0  0
    2.4059   -1.7540   -1.3929 N   0  0  0  0  0  0  0  0  0  0  0  0
    2.8035   -2.5309   -0.5320 O   0  0  0  0  0  0  0  0  0  0  0  0
    2.2833   -2.0271   -2.5831 O   0  0  0  0  0  0  0  0  0  0  0  0
    1.5556    3.3962   -0.0486 N   0  0  0  0  0  0  0  0  0  0  0  0
    1.5454    4.5161    0.2267 N   0  0  0  0  0  0  0  0  0  0  0  0
    0.2470    1.0923    3.0783 S   0  0  0  0  0  0  0  0  0  0  0  0
    0.7147   -0.4581    3.3962 O   0  0  0  0  0  0  0  0  0  0  0  0
   -0.0692   -1.0261    3.2974 H   0  0  0  0  0  0  0  0  0  0  0  0
    0.3542    1.1482    1.4331 O   0  0  0  0  0  0  0  0  0  0  0  0
   -1.1831    1.2259    3.3728 O   0  0  0  0  0  0  0  0  0  0  0  0
    1.2961    1.9313    3.6690 O   0  0  0  0  0  0  0  0  0  0  0  0
  1  2  1  0  0  0  0
  1  7  1  0  0  0  0
  2 19  1  0  0  0  0
  2  8  1  1  0  0  0
  3 14  1  0  0  0  0
  3  2  1  0  0  0  0
  4  3  2  0  0  0  0
  5  4  1  0  0  0  0
  5  6  1  0  0  0  0
  6  1  2  0  0  0  0
  9  4  1  0  0  0  0
 10  5  1  0  0  0  0
 11  6  1  0  0  0  0
 11 12  2  0  0  0  0
 13 11  2  0  0  0  0
 14 15  1  0  0  0  0
 16 20  2  0  0  0  0
 16 17  1  0  0  0  0
 16 21  2  0  0  0  0
 18 17  1  0  0  0  0
 19 16  1  0  0  0  0
M  RAD  3   5   2  14   2  15   3
M  END
