Coordinates from ORCA-job p-NO2-Ph-N2-HSO4-B3LYPG-aug-cc-pVDZ-scan-d09-49-n400
 OpenBabel12261916533D

 21 20  0  0  0  0  0  0  0  0999 V2000
    2.6641   -0.5140    0.0761 C   0  0  0  0  0  0  0  0  0  0  0  0
    1.8603    0.1366    1.0129 C   0  0  0  0  0  0  0  0  0  0  0  0
    0.7206    0.8106    0.5662 C   0  0  0  0  0  0  0  0  0  0  0  0
    0.3728    0.8469   -0.7896 C   0  0  0  0  0  0  0  0  0  0  0  0
    1.1746    0.1939   -1.7195 C   0  0  0  0  0  0  0  0  0  0  0  0
    2.3142   -0.4796   -1.2729 C   0  0  0  0  0  0  0  0  0  0  0  0
    3.5588   -1.0478    0.3861 H   0  0  0  0  0  0  0  0  0  0  0  0
    2.1336    0.1158    2.0631 H   0  0  0  0  0  0  0  0  0  0  0  0
   -0.5214    1.3858   -1.0966 H   0  0  0  0  0  0  0  0  0  0  0  0
    0.9312    0.2020   -2.7788 H   0  0  0  0  0  0  0  0  0  0  0  0
    3.1672   -1.1725   -2.2532 N   0  0  0  0  0  0  0  0  0  0  0  0
    4.1591   -1.7630   -1.8321 O   0  0  0  0  0  0  0  0  0  0  0  0
    2.8291   -1.1305   -3.4341 O   0  0  0  0  0  0  0  0  0  0  0  0
    2.1093    3.9412    0.1810 N   0  0  0  0  0  0  0  0  0  0  0  0
    2.9604    4.4874   -0.2626 N   0  0  0  0  0  0  0  0  0  0  0  0
    0.1008    1.8391    2.9888 S   0  0  0  0  0  0  0  0  0  0  0  0
    0.0174    0.3469    3.6782 O   0  0  0  0  0  0  0  0  0  0  0  0
   -0.9222    0.1493    3.8379 H   0  0  0  0  0  0  0  0  0  0  0  0
   -0.1930    1.4707    1.3905 O   0  0  0  0  0  0  0  0  0  0  0  0
   -1.0801    2.6132    3.3737 O   0  0  0  0  0  0  0  0  0  0  0  0
    1.4808    2.2834    3.1769 O   0  0  0  0  0  0  0  0  0  0  0  0
  1  7  1  0  0  0  0
  1  2  2  0  0  0  0
  2  8  1  0  0  0  0
  3  2  1  0  0  0  0
  3 19  1  0  0  0  0
  4  3  2  0  0  0  0
  5  6  2  0  0  0  0
  5  4  1  0  0  0  0
  6  1  1  0  0  0  0
  9  4  1  0  0  0  0
 10  5  1  0  0  0  0
 11 12  2  0  0  0  0
 11  6  1  0  0  0  0
 13 11  2  0  0  0  0
 15 14  3  0  0  0  0
 16 21  2  0  0  0  0
 16 20  2  0  0  0  0
 16 17  1  0  0  0  0
 17 18  1  0  0  0  0
 19 16  1  0  0  0  0
M  END
