Coordinates from ORCA-job p-NO2-Ph-N2-HSO4-B3LYPG-aug-cc-pVDZ-scan-d09-49-n400
 OpenBabel12261916533D

 21 20  0  0  0  0  0  0  0  0999 V2000
    2.6722   -0.4954    0.0740 C   0  0  0  0  0  0  0  0  0  0  0  0
    1.8724    0.1605    1.0104 C   0  0  0  0  0  0  0  0  0  0  0  0
    0.7287    0.8290    0.5651 C   0  0  0  0  0  0  0  0  0  0  0  0
    0.3725    0.8522   -0.7889 C   0  0  0  0  0  0  0  0  0  0  0  0
    1.1706    0.1944   -1.7185 C   0  0  0  0  0  0  0  0  0  0  0  0
    2.3147   -0.4723   -1.2733 C   0  0  0  0  0  0  0  0  0  0  0  0
    3.5698   -1.0249    0.3831 H   0  0  0  0  0  0  0  0  0  0  0  0
    2.1521    0.1481    2.0589 H   0  0  0  0  0  0  0  0  0  0  0  0
   -0.5255    1.3851   -1.0951 H   0  0  0  0  0  0  0  0  0  0  0  0
    0.9208    0.1931   -2.7762 H   0  0  0  0  0  0  0  0  0  0  0  0
    3.1638   -1.1707   -2.2530 N   0  0  0  0  0  0  0  0  0  0  0  0
    4.1631   -1.7501   -1.8339 O   0  0  0  0  0  0  0  0  0  0  0  0
    2.8222   -1.1337   -3.4330 O   0  0  0  0  0  0  0  0  0  0  0  0
    2.0936    3.8723    0.1922 N   0  0  0  0  0  0  0  0  0  0  0  0
    2.9518    4.4048   -0.2543 N   0  0  0  0  0  0  0  0  0  0  0  0
    0.1017    1.8423    2.9927 S   0  0  0  0  0  0  0  0  0  0  0  0
    0.0061    0.3433    3.6652 O   0  0  0  0  0  0  0  0  0  0  0  0
   -0.9356    0.1482    3.8154 H   0  0  0  0  0  0  0  0  0  0  0  0
   -0.1821    1.4935    1.3884 O   0  0  0  0  0  0  0  0  0  0  0  0
   -1.0780    2.6185    3.3771 O   0  0  0  0  0  0  0  0  0  0  0  0
    1.4825    2.2774    3.1957 O   0  0  0  0  0  0  0  0  0  0  0  0
  1  7  1  0  0  0  0
  1  2  2  0  0  0  0
  2  8  1  0  0  0  0
  3  2  1  0  0  0  0
  3 19  1  0  0  0  0
  4  3  2  0  0  0  0
  5  6  2  0  0  0  0
  5  4  1  0  0  0  0
  6  1  1  0  0  0  0
  9  4  1  0  0  0  0
 10  5  1  0  0  0  0
 11 12  2  0  0  0  0
 11  6  1  0  0  0  0
 13 11  2  0  0  0  0
 15 14  3  0  0  0  0
 16 21  2  0  0  0  0
 16 20  2  0  0  0  0
 16 17  1  0  0  0  0
 17 18  1  0  0  0  0
 19 16  1  0  0  0  0
M  END
