Coordinates from ORCA-job p-NO2-Ph-N2-HSO4-B3LYPG-aug-cc-pVDZ-scan-d09-49-n400
 OpenBabel12261916533D

 21 21  0  0  1  0  0  0  0  0999 V2000
    2.1447   -0.1149    0.2876 C   0  0  0  0  0  0  0  0  0  0  0  0
    1.7258    1.2157    0.8066 C   0  0  1  0  0  0  0  0  0  0  0  0
    1.5986    2.1995   -0.2986 C   0  0  0  0  0  0  0  0  0  0  0  0
    1.4376    1.8318   -1.6739 C   0  0  0  0  0  0  0  0  0  0  0  0
    1.6280    0.5350   -2.0443 C   0  0  0  0  0  0  0  0  0  0  0  0
    2.0299   -0.4048   -1.0299 C   0  0  0  0  0  0  0  0  0  0  0  0
    2.4941   -0.8641    0.9922 H   0  0  0  0  0  0  0  0  0  0  0  0
    2.3475    1.5737    1.6316 H   0  0  0  0  0  0  0  0  0  0  0  0
    1.1795    2.5974   -2.4039 H   0  0  0  0  0  0  0  0  0  0  0  0
    1.5223    0.2063   -3.0724 H   0  0  0  0  0  0  0  0  0  0  0  0
    2.3788   -1.7834   -1.4700 N   0  0  0  0  0  0  0  0  0  0  0  0
    2.7569   -2.5840   -0.6218 O   0  0  0  0  0  0  0  0  0  0  0  0
    2.2551   -2.0352   -2.6648 O   0  0  0  0  0  0  0  0  0  0  0  0
    1.5441    3.5144    0.0488 N   0  0  0  0  0  0  0  0  0  0  0  0
    1.5001    4.6045    0.3513 N   0  0  0  0  0  0  0  0  0  0  0  0
    0.1848    1.1434    3.0547 S   0  0  0  0  0  0  0  0  0  0  0  0
    0.8178   -0.2996    3.5564 O   0  0  0  0  0  0  0  0  0  0  0  0
    0.1051   -0.9600    3.5102 H   0  0  0  0  0  0  0  0  0  0  0  0
    0.3200    1.0336    1.4287 O   0  0  0  0  0  0  0  0  0  0  0  0
   -1.2553    1.1504    3.3400 O   0  0  0  0  0  0  0  0  0  0  0  0
    1.1220    2.1557    3.5635 O   0  0  0  0  0  0  0  0  0  0  0  0
  1  2  1  0  0  0  0
  1  7  1  0  0  0  0
  2 19  1  0  0  0  0
  2  8  1  1  0  0  0
  3 14  1  0  0  0  0
  3  2  1  0  0  0  0
  4  3  2  0  0  0  0
  5  4  1  0  0  0  0
  5  6  1  0  0  0  0
  6  1  2  0  0  0  0
  9  4  1  0  0  0  0
 10  5  1  0  0  0  0
 11  6  1  0  0  0  0
 11 12  2  0  0  0  0
 13 11  2  0  0  0  0
 14 15  1  0  0  0  0
 16 20  2  0  0  0  0
 16 17  1  0  0  0  0
 16 21  2  0  0  0  0
 18 17  1  0  0  0  0
 19 16  1  0  0  0  0
M  RAD  3   5   2  14   2  15   3
M  END
