Coordinates from ORCA-job p-NO2-Ph-N2-HSO4-B3LYPG-aug-cc-pVDZ-scan-d09-49-n400
 OpenBabel12261916533D

 21 20  0  0  0  0  0  0  0  0999 V2000
    2.6970   -0.4388    0.0685 C   0  0  0  0  0  0  0  0  0  0  0  0
    1.9072    0.2308    1.0039 C   0  0  0  0  0  0  0  0  0  0  0  0
    0.7515    0.8815    0.5635 C   0  0  0  0  0  0  0  0  0  0  0  0
    0.3724    0.8707   -0.7845 C   0  0  0  0  0  0  0  0  0  0  0  0
    1.1613    0.2011   -1.7132 C   0  0  0  0  0  0  0  0  0  0  0  0
    2.3183   -0.4466   -1.2732 C   0  0  0  0  0  0  0  0  0  0  0  0
    3.6036   -0.9546    0.3741 H   0  0  0  0  0  0  0  0  0  0  0  0
    2.2053    0.2445    2.0472 H   0  0  0  0  0  0  0  0  0  0  0  0
   -0.5357    1.3884   -1.0871 H   0  0  0  0  0  0  0  0  0  0  0  0
    0.8938    0.1748   -2.7663 H   0  0  0  0  0  0  0  0  0  0  0  0
    3.1572   -1.1587   -2.2516 N   0  0  0  0  0  0  0  0  0  0  0  0
    4.1678   -1.7213   -1.8369 O   0  0  0  0  0  0  0  0  0  0  0  0
    2.7963   -1.1492   -3.4265 O   0  0  0  0  0  0  0  0  0  0  0  0
    2.0537    3.6684    0.2181 N   0  0  0  0  0  0  0  0  0  0  0  0
    2.9283    4.1585   -0.2447 N   0  0  0  0  0  0  0  0  0  0  0  0
    0.1012    1.8493    3.0049 S   0  0  0  0  0  0  0  0  0  0  0  0
   -0.0239    0.3296    3.6230 O   0  0  0  0  0  0  0  0  0  0  0  0
   -0.9705    0.1394    3.7460 H   0  0  0  0  0  0  0  0  0  0  0  0
   -0.1511    1.5592    1.3842 O   0  0  0  0  0  0  0  0  0  0  0  0
   -1.0777    2.6263    3.3896 O   0  0  0  0  0  0  0  0  0  0  0  0
    1.4816    2.2624    3.2531 O   0  0  0  0  0  0  0  0  0  0  0  0
  1  7  1  0  0  0  0
  1  2  2  0  0  0  0
  2  8  1  0  0  0  0
  3  2  1  0  0  0  0
  3 19  1  0  0  0  0
  4  3  2  0  0  0  0
  5  6  2  0  0  0  0
  5  4  1  0  0  0  0
  6  1  1  0  0  0  0
  9  4  1  0  0  0  0
 10  5  1  0  0  0  0
 11 12  2  0  0  0  0
 11  6  1  0  0  0  0
 13 11  2  0  0  0  0
 15 14  3  0  0  0  0
 16 21  2  0  0  0  0
 16 20  2  0  0  0  0
 16 17  1  0  0  0  0
 17 18  1  0  0  0  0
 19 16  1  0  0  0  0
M  END
