Coordinates from ORCA-job p-NO2-Ph-N2-HSO4-B3LYPG-aug-cc-pVDZ-scan-d09-49-n400
 OpenBabel12261916533D

 21 20  0  0  0  0  0  0  0  0999 V2000
    2.6184   -0.6123    0.0870 C   0  0  0  0  0  0  0  0  0  0  0  0
    1.7943    0.0088    1.0258 C   0  0  0  0  0  0  0  0  0  0  0  0
    0.6808    0.7220    0.5742 C   0  0  0  0  0  0  0  0  0  0  0  0
    0.3765    0.8251   -0.7883 C   0  0  0  0  0  0  0  0  0  0  0  0
    1.1963    0.1981   -1.7210 C   0  0  0  0  0  0  0  0  0  0  0  0
    2.3107   -0.5126   -1.2694 C   0  0  0  0  0  0  0  0  0  0  0  0
    3.4945   -1.1745    0.3999 H   0  0  0  0  0  0  0  0  0  0  0  0
    2.0293   -0.0677    2.0829 H   0  0  0  0  0  0  0  0  0  0  0  0
   -0.4981    1.3935   -1.0982 H   0  0  0  0  0  0  0  0  0  0  0  0
    0.9871    0.2567   -2.7860 H   0  0  0  0  0  0  0  0  0  0  0  0
    3.1838   -1.1761   -2.2530 N   0  0  0  0  0  0  0  0  0  0  0  0
    4.1567   -1.7950   -1.8285 O   0  0  0  0  0  0  0  0  0  0  0  0
    2.8869   -1.0723   -3.4410 O   0  0  0  0  0  0  0  0  0  0  0  0
    2.1740    4.2377    0.1134 N   0  0  0  0  0  0  0  0  0  0  0  0
    2.9906    4.8418   -0.3195 N   0  0  0  0  0  0  0  0  0  0  0  0
    0.0973    1.8267    2.9657 S   0  0  0  0  0  0  0  0  0  0  0  0
    0.0742    0.3817    3.7548 O   0  0  0  0  0  0  0  0  0  0  0  0
   -0.8533    0.1803    3.9705 H   0  0  0  0  0  0  0  0  0  0  0  0
   -0.2508    1.3465    1.4072 O   0  0  0  0  0  0  0  0  0  0  0  0
   -1.0853    2.5985    3.3510 O   0  0  0  0  0  0  0  0  0  0  0  0
    1.4738    2.3087    3.0644 O   0  0  0  0  0  0  0  0  0  0  0  0
  1  7  1  0  0  0  0
  1  2  2  0  0  0  0
  2  8  1  0  0  0  0
  3  2  1  0  0  0  0
  3 19  1  0  0  0  0
  4  3  2  0  0  0  0
  5  6  2  0  0  0  0
  5  4  1  0  0  0  0
  6  1  1  0  0  0  0
  9  4  1  0  0  0  0
 10  5  1  0  0  0  0
 11 12  2  0  0  0  0
 11  6  1  0  0  0  0
 13 11  2  0  0  0  0
 15 14  3  0  0  0  0
 16 21  2  0  0  0  0
 16 20  2  0  0  0  0
 16 17  1  0  0  0  0
 17 18  1  0  0  0  0
 19 16  1  0  0  0  0
M  END
