Coordinates from ORCA-job p-NO2-Ph-N2-HSO4-B3LYPG-aug-cc-pVDZ-scan-d09-49-n400
 OpenBabel12261916533D

 21 20  0  0  0  0  0  0  0  0999 V2000
    2.6719   -0.4077    0.0620 C   0  0  0  0  0  0  0  0  0  0  0  0
    2.3068    0.7565    0.7470 C   0  0  0  0  0  0  0  0  0  0  0  0
    1.6415    1.6856   -0.0161 C   0  0  0  0  0  0  0  0  0  0  0  0
    1.2798    1.6254   -1.3483 C   0  0  0  0  0  0  0  0  0  0  0  0
    1.6508    0.4480   -2.0026 C   0  0  0  0  0  0  0  0  0  0  0  0
    2.3397   -0.5345   -1.2874 C   0  0  0  0  0  0  0  0  0  0  0  0
    3.1964   -1.2116    0.5716 H   0  0  0  0  0  0  0  0  0  0  0  0
    2.4830    0.9180    1.8073 H   0  0  0  0  0  0  0  0  0  0  0  0
    0.7337    2.4194   -1.8495 H   0  0  0  0  0  0  0  0  0  0  0  0
    1.4075    0.2894   -3.0501 H   0  0  0  0  0  0  0  0  0  0  0  0
    2.7319   -1.7770   -2.0004 N   0  0  0  0  0  0  0  0  0  0  0  0
    3.3457   -2.6222   -1.3611 O   0  0  0  0  0  0  0  0  0  0  0  0
    2.4171   -1.8698   -3.1816 O   0  0  0  0  0  0  0  0  0  0  0  0
    1.2495    3.1309    0.7273 N   0  0  0  0  0  0  0  0  0  0  0  0
    1.0321    4.2185    0.6586 N   0  0  0  0  0  0  0  0  0  0  0  0
   -0.2023    1.6662    2.9450 S   0  0  0  0  0  0  0  0  0  0  0  0
    0.2794    0.0600    3.1763 O   0  0  0  0  0  0  0  0  0  0  0  0
    0.0105   -0.1573    4.0822 H   0  0  0  0  0  0  0  0  0  0  0  0
   -0.8731    1.6542    1.6087 O   0  0  0  0  0  0  0  0  0  0  0  0
   -1.0019    2.0069    4.1457 O   0  0  0  0  0  0  0  0  0  0  0  0
    1.1378    2.4165    2.8575 O   0  0  0  0  0  0  0  0  0  0  0  0
  1  7  1  0  0  0  0
  1  2  1  0  0  0  0
  2  8  1  0  0  0  0
  3 14  1  0  0  0  0
  3  2  2  0  0  0  0
  4  3  1  0  0  0  0
  5  4  2  0  0  0  0
  5  6  1  0  0  0  0
  6  1  2  0  0  0  0
  9  4  1  0  0  0  0
 10  5  1  0  0  0  0
 11 12  2  0  0  0  0
 11  6  1  0  0  0  0
 13 11  2  0  0  0  0
 15 14  2  0  0  0  0
 16 17  1  0  0  0  0
 16 20  1  0  0  0  0
 17 18  1  0  0  0  0
 19 16  2  0  0  0  0
 21 16  2  0  0  0  0
M  RAD  2  15   2  20   2
M  END
