Coordinates from ORCA-job p-NO2-Ph-N2-HSO4-B3LYPG-aug-cc-pVDZ-scan-d09-49-n400
 OpenBabel12261916533D

 21 20  0  0  0  0  0  0  0  0999 V2000
    2.7302   -0.3514    0.0632 C   0  0  0  0  0  0  0  0  0  0  0  0
    1.9531    0.3337    0.9955 C   0  0  0  0  0  0  0  0  0  0  0  0
    0.8243    1.0322    0.5516 C   0  0  0  0  0  0  0  0  0  0  0  0
    0.4055    0.9572   -0.7853 C   0  0  0  0  0  0  0  0  0  0  0  0
    1.1806    0.2720   -1.7115 C   0  0  0  0  0  0  0  0  0  0  0  0
    2.3468   -0.3650   -1.2776 C   0  0  0  0  0  0  0  0  0  0  0  0
    3.6274   -0.8827    0.3705 H   0  0  0  0  0  0  0  0  0  0  0  0
    2.2538    0.3495    2.0380 H   0  0  0  0  0  0  0  0  0  0  0  0
   -0.5116    1.4613   -1.0833 H   0  0  0  0  0  0  0  0  0  0  0  0
    0.8921    0.2166   -2.7579 H   0  0  0  0  0  0  0  0  0  0  0  0
    3.1716   -1.0943   -2.2538 N   0  0  0  0  0  0  0  0  0  0  0  0
    4.1831   -1.6572   -1.8411 O   0  0  0  0  0  0  0  0  0  0  0  0
    2.7977   -1.1008   -3.4248 O   0  0  0  0  0  0  0  0  0  0  0  0
    1.8599    3.0541    0.3200 N   0  0  0  0  0  0  0  0  0  0  0  0
    2.7048    3.4448   -0.2776 N   0  0  0  0  0  0  0  0  0  0  0  0
    0.1128    1.8984    3.0143 S   0  0  0  0  0  0  0  0  0  0  0  0
   -0.0250    0.3643    3.5902 O   0  0  0  0  0  0  0  0  0  0  0  0
   -0.9739    0.1679    3.6818 H   0  0  0  0  0  0  0  0  0  0  0  0
   -0.1105    1.6474    1.3819 O   0  0  0  0  0  0  0  0  0  0  0  0
   -1.0734    2.6657    3.3955 O   0  0  0  0  0  0  0  0  0  0  0  0
    1.4885    2.3017    3.3025 O   0  0  0  0  0  0  0  0  0  0  0  0
  1  7  1  0  0  0  0
  1  2  2  0  0  0  0
  2  8  1  0  0  0  0
  3  2  1  0  0  0  0
  3 19  1  0  0  0  0
  4  3  2  0  0  0  0
  5  6  2  0  0  0  0
  5  4  1  0  0  0  0
  6  1  1  0  0  0  0
  9  4  1  0  0  0  0
 10  5  1  0  0  0  0
 11 12  2  0  0  0  0
 11  6  1  0  0  0  0
 13 11  2  0  0  0  0
 15 14  3  0  0  0  0
 16 21  2  0  0  0  0
 16 20  2  0  0  0  0
 16 17  1  0  0  0  0
 17 18  1  0  0  0  0
 19 16  1  0  0  0  0
M  END
