Coordinates from ORCA-job p-NO2-Ph-N2-HSO4-B3LYPG-aug-cc-pVDZ-scan-d09-49-n400
 OpenBabel12261916533D

 21 20  0  0  0  0  0  0  0  0999 V2000
    2.5393   -0.7802    0.1070 C   0  0  0  0  0  0  0  0  0  0  0  0
    1.6878   -0.2028    1.0484 C   0  0  0  0  0  0  0  0  0  0  0  0
    0.6309    0.5932    0.5998 C   0  0  0  0  0  0  0  0  0  0  0  0
    0.4055    0.8212   -0.7618 C   0  0  0  0  0  0  0  0  0  0  0  0
    1.2501    0.2347   -1.6997 C   0  0  0  0  0  0  0  0  0  0  0  0
    2.3093   -0.5568   -1.2507 C   0  0  0  0  0  0  0  0  0  0  0  0
    3.3740   -1.4043    0.4154 H   0  0  0  0  0  0  0  0  0  0  0  0
    1.8516   -0.3770    2.1082 H   0  0  0  0  0  0  0  0  0  0  0  0
   -0.4281    1.4501   -1.0678 H   0  0  0  0  0  0  0  0  0  0  0  0
    1.1026    0.3866   -2.7658 H   0  0  0  0  0  0  0  0  0  0  0  0
    3.2089   -1.1765   -2.2402 N   0  0  0  0  0  0  0  0  0  0  0  0
    4.1357   -1.8640   -1.8184 O   0  0  0  0  0  0  0  0  0  0  0  0
    2.9847   -0.9607   -3.4289 O   0  0  0  0  0  0  0  0  0  0  0  0
    2.2509    4.7029   -0.0759 N   0  0  0  0  0  0  0  0  0  0  0  0
    3.0016    5.3856   -0.5117 N   0  0  0  0  0  0  0  0  0  0  0  0
    0.0900    1.7904    2.9424 S   0  0  0  0  0  0  0  0  0  0  0  0
    0.1569    0.4175    3.8507 O   0  0  0  0  0  0  0  0  0  0  0  0
   -0.7496    0.2157    4.1417 H   0  0  0  0  0  0  0  0  0  0  0  0
   -0.3203    1.1670    1.4482 O   0  0  0  0  0  0  0  0  0  0  0  0
   -1.0971    2.5543    3.3318 O   0  0  0  0  0  0  0  0  0  0  0  0
    1.4529    2.3185    2.9195 O   0  0  0  0  0  0  0  0  0  0  0  0
  1  7  1  0  0  0  0
  1  2  2  0  0  0  0
  2  8  1  0  0  0  0
  3  2  1  0  0  0  0
  3 19  1  0  0  0  0
  4  3  2  0  0  0  0
  5  6  2  0  0  0  0
  5  4  1  0  0  0  0
  6  1  1  0  0  0  0
  9  4  1  0  0  0  0
 10  5  1  0  0  0  0
 11 12  2  0  0  0  0
 11  6  1  0  0  0  0
 13 11  2  0  0  0  0
 15 14  3  0  0  0  0
 16 20  2  0  0  0  0
 16 17  1  0  0  0  0
 17 18  1  0  0  0  0
 19 16  1  0  0  0  0
 21 16  2  0  0  0  0
M  END
