Coordinates from ORCA-job p-NO2-Ph-N2-HSO4-B3LYPG-aug-cc-pVDZ-scan-d09-49-n400
 OpenBabel12261916533D

 21 20  0  0  0  0  0  0  0  0999 V2000
    2.7301   -0.3478    0.0618 C   0  0  0  0  0  0  0  0  0  0  0  0
    1.9566    0.3415    0.9911 C   0  0  0  0  0  0  0  0  0  0  0  0
    0.8551    1.0872    0.5403 C   0  0  0  0  0  0  0  0  0  0  0  0
    0.4184    0.9795   -0.7933 C   0  0  0  0  0  0  0  0  0  0  0  0
    1.1893    0.2889   -1.7165 C   0  0  0  0  0  0  0  0  0  0  0  0
    2.3558   -0.3492   -1.2827 C   0  0  0  0  0  0  0  0  0  0  0  0
    3.6143   -0.8981    0.3730 H   0  0  0  0  0  0  0  0  0  0  0  0
    2.2470    0.3459    2.0368 H   0  0  0  0  0  0  0  0  0  0  0  0
   -0.5000    1.4820   -1.0901 H   0  0  0  0  0  0  0  0  0  0  0  0
    0.8951    0.2239   -2.7609 H   0  0  0  0  0  0  0  0  0  0  0  0
    3.1767   -1.0833   -2.2567 N   0  0  0  0  0  0  0  0  0  0  0  0
    4.1844   -1.6526   -1.8425 O   0  0  0  0  0  0  0  0  0  0  0  0
    2.8067   -1.0845   -3.4293 O   0  0  0  0  0  0  0  0  0  0  0  0
    1.8021    2.9331    0.3542 N   0  0  0  0  0  0  0  0  0  0  0  0
    2.6495    3.3186   -0.2470 N   0  0  0  0  0  0  0  0  0  0  0  0
    0.1126    1.9161    3.0072 S   0  0  0  0  0  0  0  0  0  0  0  0
    0.0019    0.3864    3.5995 O   0  0  0  0  0  0  0  0  0  0  0  0
   -0.9433    0.1747    3.6955 H   0  0  0  0  0  0  0  0  0  0  0  0
   -0.1146    1.6435    1.3789 O   0  0  0  0  0  0  0  0  0  0  0  0
   -1.0841    2.6670    3.3887 O   0  0  0  0  0  0  0  0  0  0  0  0
    1.4840    2.3425    3.2843 O   0  0  0  0  0  0  0  0  0  0  0  0
  1  7  1  0  0  0  0
  1  2  2  0  0  0  0
  2  8  1  0  0  0  0
  3  2  1  0  0  0  0
  3 19  1  0  0  0  0
  4  3  2  0  0  0  0
  5  6  2  0  0  0  0
  5  4  1  0  0  0  0
  6  1  1  0  0  0  0
  9  4  1  0  0  0  0
 10  5  1  0  0  0  0
 11 12  2  0  0  0  0
 11  6  1  0  0  0  0
 13 11  2  0  0  0  0
 15 14  3  0  0  0  0
 16 21  2  0  0  0  0
 16 20  2  0  0  0  0
 16 17  1  0  0  0  0
 17 18  1  0  0  0  0
 19 16  1  0  0  0  0
M  END
