Coordinates from ORCA-job p-NO2-Ph-N2-HSO4-B3LYPG-aug-cc-pVDZ-scan-d09-49-n400
 OpenBabel12261916533D

 21 20  0  0  0  0  0  0  0  0999 V2000
    2.6793   -0.4800    0.0721 C   0  0  0  0  0  0  0  0  0  0  0  0
    1.8819    0.1792    1.0084 C   0  0  0  0  0  0  0  0  0  0  0  0
    0.7344    0.8420    0.5644 C   0  0  0  0  0  0  0  0  0  0  0  0
    0.3720    0.8561   -0.7880 C   0  0  0  0  0  0  0  0  0  0  0  0
    1.1679    0.1955   -1.7174 C   0  0  0  0  0  0  0  0  0  0  0  0
    2.3159   -0.4655   -1.2737 C   0  0  0  0  0  0  0  0  0  0  0  0
    3.5797   -1.0052    0.3803 H   0  0  0  0  0  0  0  0  0  0  0  0
    2.1668    0.1742    2.0555 H   0  0  0  0  0  0  0  0  0  0  0  0
   -0.5290    1.3845   -1.0932 H   0  0  0  0  0  0  0  0  0  0  0  0
    0.9132    0.1873   -2.7740 H   0  0  0  0  0  0  0  0  0  0  0  0
    3.1625   -1.1671   -2.2531 N   0  0  0  0  0  0  0  0  0  0  0  0
    4.1653   -1.7415   -1.8353 O   0  0  0  0  0  0  0  0  0  0  0  0
    2.8156   -1.1378   -3.4319 O   0  0  0  0  0  0  0  0  0  0  0  0
    2.0815    3.8170    0.2009 N   0  0  0  0  0  0  0  0  0  0  0  0
    2.9448    4.3385   -0.2485 N   0  0  0  0  0  0  0  0  0  0  0  0
    0.1024    1.8444    2.9956 S   0  0  0  0  0  0  0  0  0  0  0  0
   -0.0040    0.3402    3.6547 O   0  0  0  0  0  0  0  0  0  0  0  0
   -0.9473    0.1485    3.7985 H   0  0  0  0  0  0  0  0  0  0  0  0
   -0.1741    1.5105    1.3870 O   0  0  0  0  0  0  0  0  0  0  0  0
   -1.0754    2.6233    3.3800 O   0  0  0  0  0  0  0  0  0  0  0  0
    1.4842    2.2710    3.2098 O   0  0  0  0  0  0  0  0  0  0  0  0
  1  7  1  0  0  0  0
  1  2  2  0  0  0  0
  2  8  1  0  0  0  0
  3  2  1  0  0  0  0
  3 19  1  0  0  0  0
  4  3  2  0  0  0  0
  5  6  2  0  0  0  0
  5  4  1  0  0  0  0
  6  1  1  0  0  0  0
  9  4  1  0  0  0  0
 10  5  1  0  0  0  0
 11 12  2  0  0  0  0
 11  6  1  0  0  0  0
 13 11  2  0  0  0  0
 15 14  3  0  0  0  0
 16 21  2  0  0  0  0
 16 20  2  0  0  0  0
 16 17  1  0  0  0  0
 17 18  1  0  0  0  0
 19 16  1  0  0  0  0
M  END
