Coordinates from ORCA-job p-NO2-Ph-N2-HSO4-B3LYPG-aug-cc-pVDZ-scan-d09-49-n400
 OpenBabel12261916533D

 21 20  0  0  0  0  0  0  0  0999 V2000
    2.7239   -0.3698    0.0650 C   0  0  0  0  0  0  0  0  0  0  0  0
    1.9429    0.3103    0.9995 C   0  0  0  0  0  0  0  0  0  0  0  0
    0.7916    0.9702    0.5612 C   0  0  0  0  0  0  0  0  0  0  0  0
    0.3889    0.9240   -0.7797 C   0  0  0  0  0  0  0  0  0  0  0  0
    1.1688    0.2448   -1.7079 C   0  0  0  0  0  0  0  0  0  0  0  0
    2.3346   -0.3915   -1.2735 C   0  0  0  0  0  0  0  0  0  0  0  0
    3.6312   -0.8854    0.3690 H   0  0  0  0  0  0  0  0  0  0  0  0
    2.2501    0.3351    2.0399 H   0  0  0  0  0  0  0  0  0  0  0  0
   -0.5266    1.4307   -1.0786 H   0  0  0  0  0  0  0  0  0  0  0  0
    0.8863    0.1988   -2.7565 H   0  0  0  0  0  0  0  0  0  0  0  0
    3.1640   -1.1145   -2.2515 N   0  0  0  0  0  0  0  0  0  0  0  0
    4.1801   -1.6701   -1.8403 O   0  0  0  0  0  0  0  0  0  0  0  0
    2.7905   -1.1206   -3.4225 O   0  0  0  0  0  0  0  0  0  0  0  0
    1.9423    3.2551    0.2764 N   0  0  0  0  0  0  0  0  0  0  0  0
    2.7971    3.6674   -0.2893 N   0  0  0  0  0  0  0  0  0  0  0  0
    0.1079    1.8768    3.0175 S   0  0  0  0  0  0  0  0  0  0  0  0
   -0.0421    0.3416    3.5886 O   0  0  0  0  0  0  0  0  0  0  0  0
   -0.9926    0.1545    3.6834 H   0  0  0  0  0  0  0  0  0  0  0  0
   -0.1159    1.6337    1.3844 O   0  0  0  0  0  0  0  0  0  0  0  0
   -1.0715    2.6539    3.4002 O   0  0  0  0  0  0  0  0  0  0  0  0
    1.4862    2.2704    3.3069 O   0  0  0  0  0  0  0  0  0  0  0  0
  1  7  1  0  0  0  0
  1  2  2  0  0  0  0
  2  8  1  0  0  0  0
  3  2  1  0  0  0  0
  3 19  1  0  0  0  0
  4  3  2  0  0  0  0
  5  6  2  0  0  0  0
  5  4  1  0  0  0  0
  6  1  1  0  0  0  0
  9  4  1  0  0  0  0
 10  5  1  0  0  0  0
 11 12  2  0  0  0  0
 11  6  1  0  0  0  0
 13 11  2  0  0  0  0
 15 14  3  0  0  0  0
 16 21  2  0  0  0  0
 16 20  2  0  0  0  0
 16 17  1  0  0  0  0
 17 18  1  0  0  0  0
 19 16  1  0  0  0  0
M  END
