Coordinates from ORCA-job p-NO2-Ph-N2-HSO4-B3LYPG-aug-cc-pVDZ-scan-d09-49-n400
 OpenBabel12261916533D

 21 20  0  0  0  0  0  0  0  0999 V2000
    2.6209   -0.6068    0.0864 C   0  0  0  0  0  0  0  0  0  0  0  0
    1.7976    0.0154    1.0251 C   0  0  0  0  0  0  0  0  0  0  0  0
    0.6824    0.7255    0.5738 C   0  0  0  0  0  0  0  0  0  0  0  0
    0.3759    0.8256   -0.7884 C   0  0  0  0  0  0  0  0  0  0  0  0
    1.1950    0.1977   -1.7208 C   0  0  0  0  0  0  0  0  0  0  0  0
    2.3110   -0.5108   -1.2696 C   0  0  0  0  0  0  0  0  0  0  0  0
    3.4982   -1.1671    0.3992 H   0  0  0  0  0  0  0  0  0  0  0  0
    2.0349   -0.0578    2.0819 H   0  0  0  0  0  0  0  0  0  0  0  0
   -0.4999    1.3923   -1.0980 H   0  0  0  0  0  0  0  0  0  0  0  0
    0.9838    0.2535   -2.7855 H   0  0  0  0  0  0  0  0  0  0  0  0
    3.1830   -1.1756   -2.2531 N   0  0  0  0  0  0  0  0  0  0  0  0
    4.1569   -1.7932   -1.8287 O   0  0  0  0  0  0  0  0  0  0  0  0
    2.8835   -1.0758   -3.4408 O   0  0  0  0  0  0  0  0  0  0  0  0
    2.1707    4.2220    0.1183 N   0  0  0  0  0  0  0  0  0  0  0  0
    2.9894    4.8232   -0.3148 N   0  0  0  0  0  0  0  0  0  0  0  0
    0.0979    1.8278    2.9664 S   0  0  0  0  0  0  0  0  0  0  0  0
    0.0712    0.3801    3.7503 O   0  0  0  0  0  0  0  0  0  0  0  0
   -0.8570    0.1790    3.9631 H   0  0  0  0  0  0  0  0  0  0  0  0
   -0.2481    1.3525    1.4059 O   0  0  0  0  0  0  0  0  0  0  0  0
   -1.0846    2.5999    3.3517 O   0  0  0  0  0  0  0  0  0  0  0  0
    1.4747    2.3079    3.0696 O   0  0  0  0  0  0  0  0  0  0  0  0
  1  7  1  0  0  0  0
  1  2  2  0  0  0  0
  2  8  1  0  0  0  0
  3  2  1  0  0  0  0
  3 19  1  0  0  0  0
  4  3  2  0  0  0  0
  5  6  2  0  0  0  0
  5  4  1  0  0  0  0
  6  1  1  0  0  0  0
  9  4  1  0  0  0  0
 10  5  1  0  0  0  0
 11 12  2  0  0  0  0
 11  6  1  0  0  0  0
 13 11  2  0  0  0  0
 15 14  3  0  0  0  0
 16 21  2  0  0  0  0
 16 20  2  0  0  0  0
 16 17  1  0  0  0  0
 17 18  1  0  0  0  0
 19 16  1  0  0  0  0
M  END
