Coordinates from ORCA-job p-NO2-Ph-N2-HSO4-B3LYPG-aug-cc-pVDZ-scan-d09-49-n400
 OpenBabel12261916533D

 21 20  0  0  0  0  0  0  0  0999 V2000
    2.4893   -0.8815    0.1160 C   0  0  0  0  0  0  0  0  0  0  0  0
    1.6258   -0.3241    1.0580 C   0  0  0  0  0  0  0  0  0  0  0  0
    0.6145    0.5339    0.6191 C   0  0  0  0  0  0  0  0  0  0  0  0
    0.4445    0.8440   -0.7334 C   0  0  0  0  0  0  0  0  0  0  0  0
    1.3001    0.2770   -1.6744 C   0  0  0  0  0  0  0  0  0  0  0  0
    2.3139   -0.5762   -1.2343 C   0  0  0  0  0  0  0  0  0  0  0  0
    3.2903   -1.5521    0.4161 H   0  0  0  0  0  0  0  0  0  0  0  0
    1.7422   -0.5592    2.1127 H   0  0  0  0  0  0  0  0  0  0  0  0
   -0.3550    1.5190   -1.0320 H   0  0  0  0  0  0  0  0  0  0  0  0
    1.1962    0.4913   -2.7348 H   0  0  0  0  0  0  0  0  0  0  0  0
    3.2250   -1.1754   -2.2268 N   0  0  0  0  0  0  0  0  0  0  0  0
    4.1074   -1.9237   -1.8137 O   0  0  0  0  0  0  0  0  0  0  0  0
    3.0465   -0.8923   -3.4090 O   0  0  0  0  0  0  0  0  0  0  0  0
    2.2495    4.9449   -0.2267 N   0  0  0  0  0  0  0  0  0  0  0  0
    2.9553    5.6669   -0.6740 N   0  0  0  0  0  0  0  0  0  0  0  0
    0.0930    1.7613    2.9402 S   0  0  0  0  0  0  0  0  0  0  0  0
    0.1890    0.4220    3.8955 O   0  0  0  0  0  0  0  0  0  0  0  0
   -0.7084    0.2312    4.2203 H   0  0  0  0  0  0  0  0  0  0  0  0
   -0.3441    1.0835    1.4768 O   0  0  0  0  0  0  0  0  0  0  0  0
   -1.0897    2.5312    3.3327 O   0  0  0  0  0  0  0  0  0  0  0  0
    1.4524    2.2936    2.8640 O   0  0  0  0  0  0  0  0  0  0  0  0
  1  7  1  0  0  0  0
  1  2  2  0  0  0  0
  2  8  1  0  0  0  0
  3  2  1  0  0  0  0
  3 19  1  0  0  0  0
  4  3  2  0  0  0  0
  5  6  2  0  0  0  0
  5  4  1  0  0  0  0
  6  1  1  0  0  0  0
  9  4  1  0  0  0  0
 10  5  1  0  0  0  0
 11 12  2  0  0  0  0
 11  6  1  0  0  0  0
 13 11  2  0  0  0  0
 15 14  3  0  0  0  0
 16 20  2  0  0  0  0
 16 17  1  0  0  0  0
 17 18  1  0  0  0  0
 19 16  1  0  0  0  0
 21 16  2  0  0  0  0
M  END
