Coordinates from ORCA-job p-NO2-Ph-N2-HSO4-B3LYPG-aug-cc-pVDZ-scan-d09-49-n400
 OpenBabel12261916533D

 21 20  0  0  0  0  0  0  0  0999 V2000
    2.7303   -0.3473    0.0619 C   0  0  0  0  0  0  0  0  0  0  0  0
    1.9572    0.3423    0.9909 C   0  0  0  0  0  0  0  0  0  0  0  0
    0.8568    1.0905    0.5397 C   0  0  0  0  0  0  0  0  0  0  0  0
    0.4189    0.9805   -0.7940 C   0  0  0  0  0  0  0  0  0  0  0  0
    1.1895    0.2895   -1.7168 C   0  0  0  0  0  0  0  0  0  0  0  0
    2.3563   -0.3484   -1.2829 C   0  0  0  0  0  0  0  0  0  0  0  0
    3.6140   -0.8984    0.3732 H   0  0  0  0  0  0  0  0  0  0  0  0
    2.2471    0.3464    2.0368 H   0  0  0  0  0  0  0  0  0  0  0  0
   -0.4996    1.4829   -1.0908 H   0  0  0  0  0  0  0  0  0  0  0  0
    0.8951    0.2239   -2.7610 H   0  0  0  0  0  0  0  0  0  0  0  0
    3.1770   -1.0828   -2.2567 N   0  0  0  0  0  0  0  0  0  0  0  0
    4.1844   -1.6524   -1.8423 O   0  0  0  0  0  0  0  0  0  0  0  0
    2.8069   -1.0842   -3.4292 O   0  0  0  0  0  0  0  0  0  0  0  0
    1.7990    2.9277    0.3552 N   0  0  0  0  0  0  0  0  0  0  0  0
    2.6467    3.3129   -0.2461 N   0  0  0  0  0  0  0  0  0  0  0  0
    0.1128    1.9165    3.0072 S   0  0  0  0  0  0  0  0  0  0  0  0
    0.0022    0.3868    3.5995 O   0  0  0  0  0  0  0  0  0  0  0  0
   -0.9429    0.1750    3.6956 H   0  0  0  0  0  0  0  0  0  0  0  0
   -0.1147    1.6439    1.3790 O   0  0  0  0  0  0  0  0  0  0  0  0
   -1.0838    2.6673    3.3891 O   0  0  0  0  0  0  0  0  0  0  0  0
    1.4844    2.3428    3.2838 O   0  0  0  0  0  0  0  0  0  0  0  0
  1  7  1  0  0  0  0
  1  2  2  0  0  0  0
  2  8  1  0  0  0  0
  3  2  1  0  0  0  0
  3 19  1  0  0  0  0
  4  3  2  0  0  0  0
  5  6  2  0  0  0  0
  5  4  1  0  0  0  0
  6  1  1  0  0  0  0
  9  4  1  0  0  0  0
 10  5  1  0  0  0  0
 11 12  2  0  0  0  0
 11  6  1  0  0  0  0
 13 11  2  0  0  0  0
 15 14  3  0  0  0  0
 16 21  2  0  0  0  0
 16 20  2  0  0  0  0
 16 17  1  0  0  0  0
 17 18  1  0  0  0  0
 19 16  1  0  0  0  0
M  END
