Coordinates from ORCA-job p-NO2-Ph-N2-HSO4-B3LYPG-aug-cc-pVDZ-scan-d09-49-n400
 OpenBabel12261916533D

 21 20  0  0  0  0  0  0  0  0999 V2000
    2.7036   -0.4227    0.0676 C   0  0  0  0  0  0  0  0  0  0  0  0
    1.9161    0.2494    1.0030 C   0  0  0  0  0  0  0  0  0  0  0  0
    0.7580    0.8967    0.5640 C   0  0  0  0  0  0  0  0  0  0  0  0
    0.3738    0.8791   -0.7826 C   0  0  0  0  0  0  0  0  0  0  0  0
    1.1605    0.2072   -1.7113 C   0  0  0  0  0  0  0  0  0  0  0  0
    2.3204   -0.4367   -1.2727 C   0  0  0  0  0  0  0  0  0  0  0  0
    3.6122   -0.9357    0.3722 H   0  0  0  0  0  0  0  0  0  0  0  0
    2.2180    0.2694    2.0452 H   0  0  0  0  0  0  0  0  0  0  0  0
   -0.5360    1.3948   -1.0837 H   0  0  0  0  0  0  0  0  0  0  0  0
    0.8894    0.1762   -2.7633 H   0  0  0  0  0  0  0  0  0  0  0  0
    3.1569   -1.1514   -2.2512 N   0  0  0  0  0  0  0  0  0  0  0  0
    4.1698   -1.7108   -1.8376 O   0  0  0  0  0  0  0  0  0  0  0  0
    2.7918   -1.1474   -3.4248 O   0  0  0  0  0  0  0  0  0  0  0  0
    2.0382    3.5944    0.2249 N   0  0  0  0  0  0  0  0  0  0  0  0
    2.9134    4.0670   -0.2546 N   0  0  0  0  0  0  0  0  0  0  0  0
    0.1011    1.8527    3.0088 S   0  0  0  0  0  0  0  0  0  0  0  0
   -0.0308    0.3279    3.6129 O   0  0  0  0  0  0  0  0  0  0  0  0
   -0.9786    0.1385    3.7280 H   0  0  0  0  0  0  0  0  0  0  0  0
   -0.1430    1.5764    1.3847 O   0  0  0  0  0  0  0  0  0  0  0  0
   -1.0780    2.6296    3.3932 O   0  0  0  0  0  0  0  0  0  0  0  0
    1.4807    2.2607    3.2696 O   0  0  0  0  0  0  0  0  0  0  0  0
  1  7  1  0  0  0  0
  1  2  2  0  0  0  0
  2  8  1  0  0  0  0
  3  2  1  0  0  0  0
  3 19  1  0  0  0  0
  4  3  2  0  0  0  0
  5  6  2  0  0  0  0
  5  4  1  0  0  0  0
  6  1  1  0  0  0  0
  9  4  1  0  0  0  0
 10  5  1  0  0  0  0
 11 12  2  0  0  0  0
 11  6  1  0  0  0  0
 13 11  2  0  0  0  0
 15 14  3  0  0  0  0
 16 21  2  0  0  0  0
 16 20  2  0  0  0  0
 16 17  1  0  0  0  0
 17 18  1  0  0  0  0
 19 16  1  0  0  0  0
M  END
