Coordinates from ORCA-job p-NO2-Ph-N2-HSO4-B3LYPG-aug-cc-pVDZ-scan-d09-49-n400
 OpenBabel12261916533D

 21 20  0  0  0  0  0  0  0  0999 V2000
    2.5113   -0.8380    0.1124 C   0  0  0  0  0  0  0  0  0  0  0  0
    1.6529   -0.2714    1.0537 C   0  0  0  0  0  0  0  0  0  0  0  0
    0.6215    0.5598    0.6096 C   0  0  0  0  0  0  0  0  0  0  0  0
    0.4273    0.8331   -0.7475 C   0  0  0  0  0  0  0  0  0  0  0  0
    1.2780    0.2570   -1.6872 C   0  0  0  0  0  0  0  0  0  0  0  0
    2.3118   -0.5692   -1.2421 C   0  0  0  0  0  0  0  0  0  0  0  0
    3.3270   -1.4884    0.4171 H   0  0  0  0  0  0  0  0  0  0  0  0
    1.7897   -0.4801    2.1114 H   0  0  0  0  0  0  0  0  0  0  0  0
   -0.3872    1.4881   -1.0503 H   0  0  0  0  0  0  0  0  0  0  0  0
    1.1552    0.4439   -2.7508 H   0  0  0  0  0  0  0  0  0  0  0  0
    3.2180   -1.1777   -2.2330 N   0  0  0  0  0  0  0  0  0  0  0  0
    4.1188   -1.9010   -1.8150 O   0  0  0  0  0  0  0  0  0  0  0  0
    3.0182   -0.9261   -3.4189 O   0  0  0  0  0  0  0  0  0  0  0  0
    2.2511    4.8465   -0.1556 N   0  0  0  0  0  0  0  0  0  0  0  0
    2.9758    5.5531   -0.5971 N   0  0  0  0  0  0  0  0  0  0  0  0
    0.0912    1.7742    2.9398 S   0  0  0  0  0  0  0  0  0  0  0  0
    0.1777    0.4216    3.8771 O   0  0  0  0  0  0  0  0  0  0  0  0
   -0.7231    0.2253    4.1890 H   0  0  0  0  0  0  0  0  0  0  0  0
   -0.3348    1.1183    1.4638 O   0  0  0  0  0  0  0  0  0  0  0  0
   -1.0941    2.5401    3.3316 O   0  0  0  0  0  0  0  0  0  0  0  0
    1.4514    2.3064    2.8843 O   0  0  0  0  0  0  0  0  0  0  0  0
  1  7  1  0  0  0  0
  1  2  2  0  0  0  0
  2  8  1  0  0  0  0
  3  2  1  0  0  0  0
  3 19  1  0  0  0  0
  4  3  2  0  0  0  0
  5  6  2  0  0  0  0
  5  4  1  0  0  0  0
  6  1  1  0  0  0  0
  9  4  1  0  0  0  0
 10  5  1  0  0  0  0
 11 12  2  0  0  0  0
 11  6  1  0  0  0  0
 13 11  2  0  0  0  0
 15 14  3  0  0  0  0
 16 20  2  0  0  0  0
 16 17  1  0  0  0  0
 17 18  1  0  0  0  0
 19 16  1  0  0  0  0
 21 16  2  0  0  0  0
M  END
