Coordinates from ORCA-job p-NO2-Ph-N2-HSO4-B3LYPG-aug-cc-pVDZ-scan-d09-49-n400
 OpenBabel12261916533D

 21 20  0  0  0  0  0  0  0  0999 V2000
    2.7132   -0.3994    0.0668 C   0  0  0  0  0  0  0  0  0  0  0  0
    1.9285    0.2759    1.0022 C   0  0  0  0  0  0  0  0  0  0  0  0
    0.7706    0.9243    0.5646 C   0  0  0  0  0  0  0  0  0  0  0  0
    0.3797    0.8973   -0.7801 C   0  0  0  0  0  0  0  0  0  0  0  0
    1.1636    0.2227   -1.7090 C   0  0  0  0  0  0  0  0  0  0  0  0
    2.3260   -0.4180   -1.2723 C   0  0  0  0  0  0  0  0  0  0  0  0
    3.6225   -0.9116    0.3705 H   0  0  0  0  0  0  0  0  0  0  0  0
    2.2339    0.3003    2.0432 H   0  0  0  0  0  0  0  0  0  0  0  0
   -0.5320    1.4106   -1.0798 H   0  0  0  0  0  0  0  0  0  0  0  0
    0.8879    0.1863   -2.7597 H   0  0  0  0  0  0  0  0  0  0  0  0
    3.1594   -1.1361   -2.2509 N   0  0  0  0  0  0  0  0  0  0  0  0
    4.1742   -1.6931   -1.8388 O   0  0  0  0  0  0  0  0  0  0  0  0
    2.7900   -1.1369   -3.4232 O   0  0  0  0  0  0  0  0  0  0  0  0
    2.0011    3.4574    0.2402 N   0  0  0  0  0  0  0  0  0  0  0  0
    2.8689    3.9010   -0.2792 N   0  0  0  0  0  0  0  0  0  0  0  0
    0.1033    1.8601    3.0146 S   0  0  0  0  0  0  0  0  0  0  0  0
   -0.0409    0.3302    3.6020 O   0  0  0  0  0  0  0  0  0  0  0  0
   -0.9905    0.1443    3.7078 H   0  0  0  0  0  0  0  0  0  0  0  0
   -0.1303    1.6018    1.3857 O   0  0  0  0  0  0  0  0  0  0  0  0
   -1.0745    2.6394    3.3979 O   0  0  0  0  0  0  0  0  0  0  0  0
    1.4829    2.2586    3.2898 O   0  0  0  0  0  0  0  0  0  0  0  0
  1  7  1  0  0  0  0
  1  2  2  0  0  0  0
  2  8  1  0  0  0  0
  3  2  1  0  0  0  0
  3 19  1  0  0  0  0
  4  3  2  0  0  0  0
  5  6  2  0  0  0  0
  5  4  1  0  0  0  0
  6  1  1  0  0  0  0
  9  4  1  0  0  0  0
 10  5  1  0  0  0  0
 11 12  2  0  0  0  0
 11  6  1  0  0  0  0
 13 11  2  0  0  0  0
 15 14  3  0  0  0  0
 16 21  2  0  0  0  0
 16 20  2  0  0  0  0
 16 17  1  0  0  0  0
 17 18  1  0  0  0  0
 19 16  1  0  0  0  0
M  END
