Coordinates from ORCA-job p-NO2-Ph-N2-HSO4-B3LYPG-aug-cc-pVDZ-scan-d09-49-n400
 OpenBabel12261916533D

 21 20  0  0  0  0  0  0  0  0999 V2000
    2.6244   -0.5991    0.0855 C   0  0  0  0  0  0  0  0  0  0  0  0
    1.8029    0.0258    1.0239 C   0  0  0  0  0  0  0  0  0  0  0  0
    0.6860    0.7343    0.5725 C   0  0  0  0  0  0  0  0  0  0  0  0
    0.3757    0.8272   -0.7893 C   0  0  0  0  0  0  0  0  0  0  0  0
    1.1930    0.1966   -1.7217 C   0  0  0  0  0  0  0  0  0  0  0  0
    2.3110   -0.5086   -1.2702 C   0  0  0  0  0  0  0  0  0  0  0  0
    3.5028   -1.1576    0.3984 H   0  0  0  0  0  0  0  0  0  0  0  0
    2.0428   -0.0434    2.0803 H   0  0  0  0  0  0  0  0  0  0  0  0
   -0.5020    1.3907   -1.0993 H   0  0  0  0  0  0  0  0  0  0  0  0
    0.9792    0.2477   -2.7860 H   0  0  0  0  0  0  0  0  0  0  0  0
    3.1815   -1.1763   -2.2532 N   0  0  0  0  0  0  0  0  0  0  0  0
    4.1572   -1.7909   -1.8288 O   0  0  0  0  0  0  0  0  0  0  0  0
    2.8790   -1.0812   -3.4406 O   0  0  0  0  0  0  0  0  0  0  0  0
    2.1671    4.2019    0.1243 N   0  0  0  0  0  0  0  0  0  0  0  0
    2.9883    4.7992   -0.3092 N   0  0  0  0  0  0  0  0  0  0  0  0
    0.0977    1.8281    2.9684 S   0  0  0  0  0  0  0  0  0  0  0  0
    0.0669    0.3772    3.7462 O   0  0  0  0  0  0  0  0  0  0  0  0
   -0.8622    0.1763    3.9553 H   0  0  0  0  0  0  0  0  0  0  0  0
   -0.2441    1.3619    1.4045 O   0  0  0  0  0  0  0  0  0  0  0  0
   -1.0846    2.6004    3.3537 O   0  0  0  0  0  0  0  0  0  0  0  0
    1.4750    2.3051    3.0774 O   0  0  0  0  0  0  0  0  0  0  0  0
  1  7  1  0  0  0  0
  1  2  2  0  0  0  0
  2  8  1  0  0  0  0
  3  2  1  0  0  0  0
  3 19  1  0  0  0  0
  4  3  2  0  0  0  0
  5  6  2  0  0  0  0
  5  4  1  0  0  0  0
  6  1  1  0  0  0  0
  9  4  1  0  0  0  0
 10  5  1  0  0  0  0
 11 12  2  0  0  0  0
 11  6  1  0  0  0  0
 13 11  2  0  0  0  0
 15 14  3  0  0  0  0
 16 21  2  0  0  0  0
 16 20  2  0  0  0  0
 16 17  1  0  0  0  0
 17 18  1  0  0  0  0
 19 16  1  0  0  0  0
M  END
