Coordinates from ORCA-job p-NO2-Ph-N2-HSO4-B3LYPG-aug-cc-pVDZ-scan-d09-49-n400
 OpenBabel12261916533D

 21 20  0  0  0  0  0  0  0  0999 V2000
    2.7008   -0.4290    0.0678 C   0  0  0  0  0  0  0  0  0  0  0  0
    1.9125    0.2423    1.0032 C   0  0  0  0  0  0  0  0  0  0  0  0
    0.7548    0.8891    0.5640 C   0  0  0  0  0  0  0  0  0  0  0  0
    0.3726    0.8747   -0.7828 C   0  0  0  0  0  0  0  0  0  0  0  0
    1.1600    0.2036   -1.7116 C   0  0  0  0  0  0  0  0  0  0  0  0
    2.3189   -0.4416   -1.2727 C   0  0  0  0  0  0  0  0  0  0  0  0
    3.6092   -0.9423    0.3728 H   0  0  0  0  0  0  0  0  0  0  0  0
    2.2134    0.2617    2.0456 H   0  0  0  0  0  0  0  0  0  0  0  0
   -0.5362    1.3920   -1.0840 H   0  0  0  0  0  0  0  0  0  0  0  0
    0.8901    0.1744   -2.7640 H   0  0  0  0  0  0  0  0  0  0  0  0
    3.1562   -1.1554   -2.2512 N   0  0  0  0  0  0  0  0  0  0  0  0
    4.1695   -1.7141   -1.8376 O   0  0  0  0  0  0  0  0  0  0  0  0
    2.7933   -1.1482   -3.4255 O   0  0  0  0  0  0  0  0  0  0  0  0
    2.0461    3.6258    0.2220 N   0  0  0  0  0  0  0  0  0  0  0  0
    2.9221    4.1056   -0.2487 N   0  0  0  0  0  0  0  0  0  0  0  0
    0.1012    1.8514    3.0069 S   0  0  0  0  0  0  0  0  0  0  0  0
   -0.0279    0.3281    3.6154 O   0  0  0  0  0  0  0  0  0  0  0  0
   -0.9753    0.1381    3.7330 H   0  0  0  0  0  0  0  0  0  0  0  0
   -0.1461    1.5695    1.3844 O   0  0  0  0  0  0  0  0  0  0  0  0
   -1.0781    2.6279    3.3915 O   0  0  0  0  0  0  0  0  0  0  0  0
    1.4807    2.2620    3.2638 O   0  0  0  0  0  0  0  0  0  0  0  0
  1  7  1  0  0  0  0
  1  2  2  0  0  0  0
  2  8  1  0  0  0  0
  3  2  1  0  0  0  0
  3 19  1  0  0  0  0
  4  3  2  0  0  0  0
  5  6  2  0  0  0  0
  5  4  1  0  0  0  0
  6  1  1  0  0  0  0
  9  4  1  0  0  0  0
 10  5  1  0  0  0  0
 11 12  2  0  0  0  0
 11  6  1  0  0  0  0
 13 11  2  0  0  0  0
 15 14  3  0  0  0  0
 16 21  2  0  0  0  0
 16 20  2  0  0  0  0
 16 17  1  0  0  0  0
 17 18  1  0  0  0  0
 19 16  1  0  0  0  0
M  END
