Coordinates from ORCA-job p-NO2-Ph-N2-HSO4-B3LYPG-aug-cc-pVDZ-scan-d09-49-n400
 OpenBabel12261916533D

 21 20  0  0  0  0  0  0  0  0999 V2000
    2.6053   -0.6400    0.0904 C   0  0  0  0  0  0  0  0  0  0  0  0
    1.7760   -0.0269    1.0299 C   0  0  0  0  0  0  0  0  0  0  0  0
    0.6700    0.6965    0.5783 C   0  0  0  0  0  0  0  0  0  0  0  0
    0.3781    0.8203   -0.7851 C   0  0  0  0  0  0  0  0  0  0  0  0
    1.2024    0.2009   -1.7187 C   0  0  0  0  0  0  0  0  0  0  0  0
    2.3092   -0.5216   -1.2669 C   0  0  0  0  0  0  0  0  0  0  0  0
    3.4760   -1.2105    0.4032 H   0  0  0  0  0  0  0  0  0  0  0  0
    2.0007   -0.1183    2.0882 H   0  0  0  0  0  0  0  0  0  0  0  0
   -0.4903    1.3984   -1.0946 H   0  0  0  0  0  0  0  0  0  0  0  0
    1.0027    0.2744   -2.7845 H   0  0  0  0  0  0  0  0  0  0  0  0
    3.1870   -1.1772   -2.2517 N   0  0  0  0  0  0  0  0  0  0  0  0
    4.1570   -1.8008   -1.8275 O   0  0  0  0  0  0  0  0  0  0  0  0
    2.9044   -1.0510   -3.4411 O   0  0  0  0  0  0  0  0  0  0  0  0
    2.1922    4.3165    0.0868 N   0  0  0  0  0  0  0  0  0  0  0  0
    2.9989    4.9345   -0.3451 N   0  0  0  0  0  0  0  0  0  0  0  0
    0.0962    1.8223    2.9604 S   0  0  0  0  0  0  0  0  0  0  0  0
    0.0887    0.3896    3.7724 O   0  0  0  0  0  0  0  0  0  0  0  0
   -0.8354    0.1876    4.0014 H   0  0  0  0  0  0  0  0  0  0  0  0
   -0.2649    1.3137    1.4133 O   0  0  0  0  0  0  0  0  0  0  0  0
   -1.0873    2.5931    3.3459 O   0  0  0  0  0  0  0  0  0  0  0  0
    1.4707    2.3138    3.0372 O   0  0  0  0  0  0  0  0  0  0  0  0
  1  7  1  0  0  0  0
  1  2  2  0  0  0  0
  2  8  1  0  0  0  0
  3  2  1  0  0  0  0
  3 19  1  0  0  0  0
  4  3  2  0  0  0  0
  5  6  2  0  0  0  0
  5  4  1  0  0  0  0
  6  1  1  0  0  0  0
  9  4  1  0  0  0  0
 10  5  1  0  0  0  0
 11 12  2  0  0  0  0
 11  6  1  0  0  0  0
 13 11  2  0  0  0  0
 15 14  3  0  0  0  0
 16 21  2  0  0  0  0
 16 20  2  0  0  0  0
 16 17  1  0  0  0  0
 17 18  1  0  0  0  0
 19 16  1  0  0  0  0
M  END
