Coordinates from ORCA-job p-NO2-Ph-N2-HSO4-B3LYPG-aug-cc-pVDZ-scan-d09-49-n400
 OpenBabel12261916533D

 21 20  0  0  0  0  0  0  0  0999 V2000
    2.6741   -0.4922    0.0734 C   0  0  0  0  0  0  0  0  0  0  0  0
    1.8742    0.1636    1.0100 C   0  0  0  0  0  0  0  0  0  0  0  0
    0.7291    0.8294    0.5652 C   0  0  0  0  0  0  0  0  0  0  0  0
    0.3720    0.8522   -0.7886 C   0  0  0  0  0  0  0  0  0  0  0  0
    1.1702    0.1947   -1.7182 C   0  0  0  0  0  0  0  0  0  0  0  0
    2.3154   -0.4706   -1.2735 C   0  0  0  0  0  0  0  0  0  0  0  0
    3.5728   -1.0200    0.3821 H   0  0  0  0  0  0  0  0  0  0  0  0
    2.1553    0.1537    2.0582 H   0  0  0  0  0  0  0  0  0  0  0  0
   -0.5265    1.3847   -1.0942 H   0  0  0  0  0  0  0  0  0  0  0  0
    0.9197    0.1928   -2.7758 H   0  0  0  0  0  0  0  0  0  0  0  0
    3.1645   -1.1686   -2.2535 N   0  0  0  0  0  0  0  0  0  0  0  0
    4.1623   -1.7505   -1.8342 O   0  0  0  0  0  0  0  0  0  0  0  0
    2.8195   -1.1365   -3.4327 O   0  0  0  0  0  0  0  0  0  0  0  0
    2.0917    3.8630    0.1944 N   0  0  0  0  0  0  0  0  0  0  0  0
    2.9510    4.3934   -0.2524 N   0  0  0  0  0  0  0  0  0  0  0  0
    0.1018    1.8429    2.9932 S   0  0  0  0  0  0  0  0  0  0  0  0
    0.0041    0.3428    3.6630 O   0  0  0  0  0  0  0  0  0  0  0  0
   -0.9379    0.1481    3.8112 H   0  0  0  0  0  0  0  0  0  0  0  0
   -0.1807    1.4961    1.3882 O   0  0  0  0  0  0  0  0  0  0  0  0
   -1.0776    2.6197    3.3772 O   0  0  0  0  0  0  0  0  0  0  0  0
    1.4825    2.2768    3.1993 O   0  0  0  0  0  0  0  0  0  0  0  0
  1  7  1  0  0  0  0
  1  2  2  0  0  0  0
  2  8  1  0  0  0  0
  3  2  1  0  0  0  0
  3 19  1  0  0  0  0
  4  3  2  0  0  0  0
  5  6  2  0  0  0  0
  5  4  1  0  0  0  0
  6  1  1  0  0  0  0
  9  4  1  0  0  0  0
 10  5  1  0  0  0  0
 11 12  2  0  0  0  0
 11  6  1  0  0  0  0
 13 11  2  0  0  0  0
 15 14  3  0  0  0  0
 16 21  2  0  0  0  0
 16 20  2  0  0  0  0
 16 17  1  0  0  0  0
 17 18  1  0  0  0  0
 19 16  1  0  0  0  0
M  END
