Coordinates from ORCA-job p-NO2-Ph-N2-HSO4-B3LYPG-aug-cc-pVDZ-scan-d09-49-n400
 OpenBabel12261916533D

 21 21  0  0  1  0  0  0  0  0999 V2000
    2.1443   -0.0961    0.2990 C   0  0  0  0  0  0  0  0  0  0  0  0
    1.7232    1.2393    0.8073 C   0  0  1  0  0  0  0  0  0  0  0  0
    1.5907    2.2244   -0.3044 C   0  0  0  0  0  0  0  0  0  0  0  0
    1.4269    1.8325   -1.6779 C   0  0  0  0  0  0  0  0  0  0  0  0
    1.6209    0.5345   -2.0358 C   0  0  0  0  0  0  0  0  0  0  0  0
    2.0291   -0.3971   -1.0146 C   0  0  0  0  0  0  0  0  0  0  0  0
    2.4955   -0.8384    1.0101 H   0  0  0  0  0  0  0  0  0  0  0  0
    2.3519    1.6052    1.6240 H   0  0  0  0  0  0  0  0  0  0  0  0
    1.1630    2.5892   -2.4152 H   0  0  0  0  0  0  0  0  0  0  0  0
    1.5128    0.1959   -3.0606 H   0  0  0  0  0  0  0  0  0  0  0  0
    2.3813   -1.7779   -1.4448 N   0  0  0  0  0  0  0  0  0  0  0  0
    2.7615   -2.5715   -0.5909 O   0  0  0  0  0  0  0  0  0  0  0  0
    2.2579   -2.0382   -2.6377 O   0  0  0  0  0  0  0  0  0  0  0  0
    1.5460    3.5039    0.0214 N   0  0  0  0  0  0  0  0  0  0  0  0
    1.5089    4.5999    0.3140 N   0  0  0  0  0  0  0  0  0  0  0  0
    0.2026    1.1258    3.0627 S   0  0  0  0  0  0  0  0  0  0  0  0
    0.7955   -0.3511    3.5094 O   0  0  0  0  0  0  0  0  0  0  0  0
    0.0642   -0.9893    3.4440 H   0  0  0  0  0  0  0  0  0  0  0  0
    0.3267    1.0685    1.4303 O   0  0  0  0  0  0  0  0  0  0  0  0
   -1.2359    1.1634    3.3518 O   0  0  0  0  0  0  0  0  0  0  0  0
    1.1704    2.0926    3.6001 O   0  0  0  0  0  0  0  0  0  0  0  0
  1  2  1  0  0  0  0
  1  7  1  0  0  0  0
  2 19  1  0  0  0  0
  2  8  1  1  0  0  0
  3 14  1  0  0  0  0
  3  2  1  0  0  0  0
  4  3  2  0  0  0  0
  5  4  1  0  0  0  0
  5  6  1  0  0  0  0
  6  1  2  0  0  0  0
  9  4  1  0  0  0  0
 10  5  1  0  0  0  0
 11  6  1  0  0  0  0
 11 12  2  0  0  0  0
 13 11  2  0  0  0  0
 14 15  1  0  0  0  0
 16 20  2  0  0  0  0
 16 17  1  0  0  0  0
 16 21  2  0  0  0  0
 18 17  1  0  0  0  0
 19 16  1  0  0  0  0
M  RAD  3   5   2  14   2  15   3
M  END
