Coordinates from ORCA-job p-NO2-Ph-N2-HSO4-B3LYPG-aug-cc-pVDZ-scan-d09-49-n400
 OpenBabel12261916533D

 21 20  0  0  0  0  0  0  0  0999 V2000
    2.5910   -0.6716    0.0943 C   0  0  0  0  0  0  0  0  0  0  0  0
    1.7553   -0.0685    1.0345 C   0  0  0  0  0  0  0  0  0  0  0  0
    0.6593    0.6709    0.5827 C   0  0  0  0  0  0  0  0  0  0  0  0
    0.3824    0.8178   -0.7811 C   0  0  0  0  0  0  0  0  0  0  0  0
    1.2124    0.2073   -1.7162 C   0  0  0  0  0  0  0  0  0  0  0  0
    2.3097   -0.5291   -1.2641 C   0  0  0  0  0  0  0  0  0  0  0  0
    3.4544   -1.2532    0.4068 H   0  0  0  0  0  0  0  0  0  0  0  0
    1.9660   -0.1797    2.0939 H   0  0  0  0  0  0  0  0  0  0  0  0
   -0.4792    1.4060   -1.0907 H   0  0  0  0  0  0  0  0  0  0  0  0
    1.0248    0.2990   -2.7828 H   0  0  0  0  0  0  0  0  0  0  0  0
    3.1940   -1.1745   -2.2502 N   0  0  0  0  0  0  0  0  0  0  0  0
    4.1516   -1.8166   -1.8256 O   0  0  0  0  0  0  0  0  0  0  0  0
    2.9208   -1.0333   -3.4400 O   0  0  0  0  0  0  0  0  0  0  0  0
    2.2136    4.4142    0.0507 N   0  0  0  0  0  0  0  0  0  0  0  0
    3.0073    5.0490   -0.3809 N   0  0  0  0  0  0  0  0  0  0  0  0
    0.0927    1.8137    2.9555 S   0  0  0  0  0  0  0  0  0  0  0  0
    0.1049    0.3974    3.7959 O   0  0  0  0  0  0  0  0  0  0  0  0
   -0.8148    0.1949    4.0416 H   0  0  0  0  0  0  0  0  0  0  0  0
   -0.2816    1.2737    1.4218 O   0  0  0  0  0  0  0  0  0  0  0  0
   -1.0917    2.5831    3.3410 O   0  0  0  0  0  0  0  0  0  0  0  0
    1.4648    2.3150    3.0051 O   0  0  0  0  0  0  0  0  0  0  0  0
  1  7  1  0  0  0  0
  1  2  2  0  0  0  0
  2  8  1  0  0  0  0
  3  2  1  0  0  0  0
  3 19  1  0  0  0  0
  4  3  2  0  0  0  0
  5  6  2  0  0  0  0
  5  4  1  0  0  0  0
  6  1  1  0  0  0  0
  9  4  1  0  0  0  0
 10  5  1  0  0  0  0
 11 12  2  0  0  0  0
 11  6  1  0  0  0  0
 13 11  2  0  0  0  0
 15 14  3  0  0  0  0
 16 21  2  0  0  0  0
 16 20  2  0  0  0  0
 16 17  1  0  0  0  0
 17 18  1  0  0  0  0
 19 16  1  0  0  0  0
M  END
