Coordinates from ORCA-job p-NO2-Ph-N2-HSO4-B3LYPG-aug-cc-pVDZ-scan-d09-49-n400
 OpenBabel12261916533D

 21 20  0  0  0  0  0  0  0  0999 V2000
    2.6191   -0.6101    0.0867 C   0  0  0  0  0  0  0  0  0  0  0  0
    1.7955    0.0117    1.0256 C   0  0  0  0  0  0  0  0  0  0  0  0
    0.6809    0.7222    0.5744 C   0  0  0  0  0  0  0  0  0  0  0  0
    0.3754    0.8244   -0.7879 C   0  0  0  0  0  0  0  0  0  0  0  0
    1.1947    0.1970   -1.7204 C   0  0  0  0  0  0  0  0  0  0  0  0
    2.3100   -0.5127   -1.2692 C   0  0  0  0  0  0  0  0  0  0  0  0
    3.4961   -1.1710    0.3995 H   0  0  0  0  0  0  0  0  0  0  0  0
    2.0323   -0.0625    2.0825 H   0  0  0  0  0  0  0  0  0  0  0  0
   -0.4996    1.3924   -1.0974 H   0  0  0  0  0  0  0  0  0  0  0  0
    0.9842    0.2541   -2.7852 H   0  0  0  0  0  0  0  0  0  0  0  0
    3.1822   -1.1771   -2.2529 N   0  0  0  0  0  0  0  0  0  0  0  0
    4.1594   -1.7898   -1.8291 O   0  0  0  0  0  0  0  0  0  0  0  0
    2.8873   -1.0700   -3.4411 O   0  0  0  0  0  0  0  0  0  0  0  0
    2.1728    4.2278    0.1158 N   0  0  0  0  0  0  0  0  0  0  0  0
    2.9909    4.8298   -0.3173 N   0  0  0  0  0  0  0  0  0  0  0  0
    0.0982    1.8281    2.9659 S   0  0  0  0  0  0  0  0  0  0  0  0
    0.0724    0.3813    3.7517 O   0  0  0  0  0  0  0  0  0  0  0  0
   -0.8556    0.1805    3.9656 H   0  0  0  0  0  0  0  0  0  0  0  0
   -0.2493    1.3499    1.4065 O   0  0  0  0  0  0  0  0  0  0  0  0
   -1.0841    2.6005    3.3511 O   0  0  0  0  0  0  0  0  0  0  0  0
    1.4749    2.3088    3.0674 O   0  0  0  0  0  0  0  0  0  0  0  0
  1  7  1  0  0  0  0
  1  2  2  0  0  0  0
  2  8  1  0  0  0  0
  3  2  1  0  0  0  0
  3 19  1  0  0  0  0
  4  3  2  0  0  0  0
  5  6  2  0  0  0  0
  5  4  1  0  0  0  0
  6  1  1  0  0  0  0
  9  4  1  0  0  0  0
 10  5  1  0  0  0  0
 11 12  2  0  0  0  0
 11  6  1  0  0  0  0
 13 11  2  0  0  0  0
 15 14  3  0  0  0  0
 16 21  2  0  0  0  0
 16 20  2  0  0  0  0
 16 17  1  0  0  0  0
 17 18  1  0  0  0  0
 19 16  1  0  0  0  0
M  END
