Coordinates from ORCA-job p-NO2-Ph-N2-HSO4-B3LYPG-aug-cc-pVDZ-scan-d09-49-n400
 OpenBabel12261916533D

 21 20  0  0  0  0  0  0  0  0999 V2000
    2.7126   -0.3995    0.0668 C   0  0  0  0  0  0  0  0  0  0  0  0
    1.9281    0.2763    1.0023 C   0  0  0  0  0  0  0  0  0  0  0  0
    0.7705    0.9239    0.5649 C   0  0  0  0  0  0  0  0  0  0  0  0
    0.3797    0.8978   -0.7794 C   0  0  0  0  0  0  0  0  0  0  0  0
    1.1632    0.2228   -1.7084 C   0  0  0  0  0  0  0  0  0  0  0  0
    2.3253   -0.4185   -1.2721 C   0  0  0  0  0  0  0  0  0  0  0  0
    3.6219   -0.9116    0.3707 H   0  0  0  0  0  0  0  0  0  0  0  0
    2.2338    0.3020    2.0431 H   0  0  0  0  0  0  0  0  0  0  0  0
   -0.5313    1.4123   -1.0786 H   0  0  0  0  0  0  0  0  0  0  0  0
    0.8874    0.1867   -2.7591 H   0  0  0  0  0  0  0  0  0  0  0  0
    3.1582   -1.1371   -2.2506 N   0  0  0  0  0  0  0  0  0  0  0  0
    4.1775   -1.6871   -1.8400 O   0  0  0  0  0  0  0  0  0  0  0  0
    2.7932   -1.1307   -3.4242 O   0  0  0  0  0  0  0  0  0  0  0  0
    1.9993    3.4468    0.2410 N   0  0  0  0  0  0  0  0  0  0  0  0
    2.8662    3.8884   -0.2815 N   0  0  0  0  0  0  0  0  0  0  0  0
    0.1038    1.8615    3.0146 S   0  0  0  0  0  0  0  0  0  0  0  0
   -0.0412    0.3317    3.6018 O   0  0  0  0  0  0  0  0  0  0  0  0
   -0.9908    0.1461    3.7074 H   0  0  0  0  0  0  0  0  0  0  0  0
   -0.1295    1.6026    1.3856 O   0  0  0  0  0  0  0  0  0  0  0  0
   -1.0737    2.6414    3.3976 O   0  0  0  0  0  0  0  0  0  0  0  0
    1.4834    2.2598    3.2904 O   0  0  0  0  0  0  0  0  0  0  0  0
  1  7  1  0  0  0  0
  1  2  2  0  0  0  0
  2  8  1  0  0  0  0
  3  2  1  0  0  0  0
  3 19  1  0  0  0  0
  4  3  2  0  0  0  0
  5  6  2  0  0  0  0
  5  4  1  0  0  0  0
  6  1  1  0  0  0  0
  9  4  1  0  0  0  0
 10  5  1  0  0  0  0
 11 12  2  0  0  0  0
 11  6  1  0  0  0  0
 13 11  2  0  0  0  0
 15 14  3  0  0  0  0
 16 21  2  0  0  0  0
 16 20  2  0  0  0  0
 16 17  1  0  0  0  0
 17 18  1  0  0  0  0
 19 16  1  0  0  0  0
M  END
