Coordinates from ORCA-job p-NO2-Ph-N2-HSO4-B3LYPG-aug-cc-pVDZ-scan-d09-49-n400
 OpenBabel12261916533D

 21 20  0  0  0  0  0  0  0  0999 V2000
    2.7297   -0.3455    0.0619 C   0  0  0  0  0  0  0  0  0  0  0  0
    1.9594    0.3471    0.9888 C   0  0  0  0  0  0  0  0  0  0  0  0
    0.8748    1.1235    0.5337 C   0  0  0  0  0  0  0  0  0  0  0  0
    0.4247    0.9908   -0.7980 C   0  0  0  0  0  0  0  0  0  0  0  0
    1.1925    0.2962   -1.7186 C   0  0  0  0  0  0  0  0  0  0  0  0
    2.3607   -0.3408   -1.2851 C   0  0  0  0  0  0  0  0  0  0  0  0
    3.6060   -0.9072    0.3754 H   0  0  0  0  0  0  0  0  0  0  0  0
    2.2441    0.3469    2.0362 H   0  0  0  0  0  0  0  0  0  0  0  0
   -0.4954    1.4910   -1.0936 H   0  0  0  0  0  0  0  0  0  0  0  0
    0.8937    0.2230   -2.7611 H   0  0  0  0  0  0  0  0  0  0  0  0
    3.1791   -1.0776   -2.2573 N   0  0  0  0  0  0  0  0  0  0  0  0
    4.1819   -1.6546   -1.8412 O   0  0  0  0  0  0  0  0  0  0  0  0
    2.8082   -1.0811   -3.4299 O   0  0  0  0  0  0  0  0  0  0  0  0
    1.7776    2.8810    0.3689 N   0  0  0  0  0  0  0  0  0  0  0  0
    2.6284    3.2653   -0.2314 N   0  0  0  0  0  0  0  0  0  0  0  0
    0.1107    1.9226    3.0038 S   0  0  0  0  0  0  0  0  0  0  0  0
    0.0168    0.3936    3.6003 O   0  0  0  0  0  0  0  0  0  0  0  0
   -0.9259    0.1721    3.6986 H   0  0  0  0  0  0  0  0  0  0  0  0
   -0.1162    1.6449    1.3770 O   0  0  0  0  0  0  0  0  0  0  0  0
   -1.0924    2.6617    3.3882 O   0  0  0  0  0  0  0  0  0  0  0  0
    1.4793    2.3625    3.2757 O   0  0  0  0  0  0  0  0  0  0  0  0
  1  7  1  0  0  0  0
  1  2  2  0  0  0  0
  2  8  1  0  0  0  0
  3  2  1  0  0  0  0
  3 19  1  0  0  0  0
  4  3  2  0  0  0  0
  5  6  2  0  0  0  0
  5  4  1  0  0  0  0
  6  1  1  0  0  0  0
  9  4  1  0  0  0  0
 10  5  1  0  0  0  0
 11 12  2  0  0  0  0
 11  6  1  0  0  0  0
 13 11  2  0  0  0  0
 15 14  3  0  0  0  0
 16 21  2  0  0  0  0
 16 20  2  0  0  0  0
 16 17  1  0  0  0  0
 17 18  1  0  0  0  0
 19 16  1  0  0  0  0
M  END
