Coordinates from ORCA-job p-NO2-Ph-N2-HSO4-B3LYPG-aug-cc-pVDZ-scan-d09-49-n400
 OpenBabel12261916533D

 21 20  0  0  0  0  0  0  0  0999 V2000
    2.4805   -0.8973    0.1173 C   0  0  0  0  0  0  0  0  0  0  0  0
    1.6155   -0.3419    1.0589 C   0  0  0  0  0  0  0  0  0  0  0  0
    0.6125    0.5272    0.6220 C   0  0  0  0  0  0  0  0  0  0  0  0
    0.4522    0.8493   -0.7280 C   0  0  0  0  0  0  0  0  0  0  0  0
    1.3090    0.2843   -1.6695 C   0  0  0  0  0  0  0  0  0  0  0  0
    2.3144   -0.5794   -1.2313 C   0  0  0  0  0  0  0  0  0  0  0  0
    3.2751   -1.5760    0.4161 H   0  0  0  0  0  0  0  0  0  0  0  0
    1.7237   -0.5867    2.1123 H   0  0  0  0  0  0  0  0  0  0  0  0
   -0.3411    1.5322   -1.0253 H   0  0  0  0  0  0  0  0  0  0  0  0
    1.2128    0.5086   -2.7286 H   0  0  0  0  0  0  0  0  0  0  0  0
    3.2269   -1.1763   -2.2241 N   0  0  0  0  0  0  0  0  0  0  0  0
    4.1023   -1.9337   -1.8125 O   0  0  0  0  0  0  0  0  0  0  0  0
    3.0572   -0.8815   -3.4046 O   0  0  0  0  0  0  0  0  0  0  0  0
    2.2494    4.9854   -0.2568 N   0  0  0  0  0  0  0  0  0  0  0  0
    2.9477    5.7133   -0.7063 N   0  0  0  0  0  0  0  0  0  0  0  0
    0.0932    1.7546    2.9418 S   0  0  0  0  0  0  0  0  0  0  0  0
    0.1931    0.4194    3.9026 O   0  0  0  0  0  0  0  0  0  0  0  0
   -0.7029    0.2303    4.2320 H   0  0  0  0  0  0  0  0  0  0  0  0
   -0.3475    1.0720    1.4819 O   0  0  0  0  0  0  0  0  0  0  0  0
   -1.0886    2.5252    3.3358 O   0  0  0  0  0  0  0  0  0  0  0  0
    1.4521    2.2864    2.8585 O   0  0  0  0  0  0  0  0  0  0  0  0
  1  7  1  0  0  0  0
  1  2  2  0  0  0  0
  2  8  1  0  0  0  0
  3  2  1  0  0  0  0
  3 19  1  0  0  0  0
  4  3  2  0  0  0  0
  5  6  2  0  0  0  0
  5  4  1  0  0  0  0
  6  1  1  0  0  0  0
  9  4  1  0  0  0  0
 10  5  1  0  0  0  0
 11 12  2  0  0  0  0
 11  6  1  0  0  0  0
 13 11  2  0  0  0  0
 15 14  3  0  0  0  0
 16 20  2  0  0  0  0
 16 17  1  0  0  0  0
 17 18  1  0  0  0  0
 19 16  1  0  0  0  0
 21 16  2  0  0  0  0
M  END
