Coordinates from ORCA-job p-NO2-Ph-N2-HSO4-B3LYPG-aug-cc-pVDZ-scan-d09-49-n400
 OpenBabel12261916533D

 21 20  0  0  0  0  0  0  0  0999 V2000
    2.6087   -0.6325    0.0895 C   0  0  0  0  0  0  0  0  0  0  0  0
    1.7809   -0.0173    1.0288 C   0  0  0  0  0  0  0  0  0  0  0  0
    0.6727    0.7029    0.5773 C   0  0  0  0  0  0  0  0  0  0  0  0
    0.3774    0.8213   -0.7859 C   0  0  0  0  0  0  0  0  0  0  0  0
    1.2005    0.1998   -1.7192 C   0  0  0  0  0  0  0  0  0  0  0  0
    2.3094   -0.5194   -1.2675 C   0  0  0  0  0  0  0  0  0  0  0  0
    3.4810   -1.2006    0.4023 H   0  0  0  0  0  0  0  0  0  0  0  0
    2.0086   -0.1043    2.0868 H   0  0  0  0  0  0  0  0  0  0  0  0
   -0.4926    1.3969   -1.0954 H   0  0  0  0  0  0  0  0  0  0  0  0
    0.9981    0.2693   -2.7848 H   0  0  0  0  0  0  0  0  0  0  0  0
    3.1858   -1.1772   -2.2521 N   0  0  0  0  0  0  0  0  0  0  0  0
    4.1575   -1.7983   -1.8279 O   0  0  0  0  0  0  0  0  0  0  0  0
    2.9001   -1.0559   -3.4411 O   0  0  0  0  0  0  0  0  0  0  0  0
    2.1872    4.2944    0.0945 N   0  0  0  0  0  0  0  0  0  0  0  0
    2.9968    4.9085   -0.3376 N   0  0  0  0  0  0  0  0  0  0  0  0
    0.0967    1.8239    2.9617 S   0  0  0  0  0  0  0  0  0  0  0  0
    0.0848    0.3876    3.7672 O   0  0  0  0  0  0  0  0  0  0  0  0
   -0.8403    0.1857    3.9924 H   0  0  0  0  0  0  0  0  0  0  0  0
   -0.2610    1.3228    1.4115 O   0  0  0  0  0  0  0  0  0  0  0  0
   -1.0865    2.5950    3.3471 O   0  0  0  0  0  0  0  0  0  0  0  0
    1.4717    2.3129    3.0447 O   0  0  0  0  0  0  0  0  0  0  0  0
  1  7  1  0  0  0  0
  1  2  2  0  0  0  0
  2  8  1  0  0  0  0
  3  2  1  0  0  0  0
  3 19  1  0  0  0  0
  4  3  2  0  0  0  0
  5  6  2  0  0  0  0
  5  4  1  0  0  0  0
  6  1  1  0  0  0  0
  9  4  1  0  0  0  0
 10  5  1  0  0  0  0
 11 12  2  0  0  0  0
 11  6  1  0  0  0  0
 13 11  2  0  0  0  0
 15 14  3  0  0  0  0
 16 21  2  0  0  0  0
 16 20  2  0  0  0  0
 16 17  1  0  0  0  0
 17 18  1  0  0  0  0
 19 16  1  0  0  0  0
M  END
