Coordinates from ORCA-job p-NO2-Ph-N2-HSO4-B3LYPG-aug-cc-pVDZ-scan-d09-49-n400
 OpenBabel12261916533D

 21 20  0  0  0  0  0  0  0  0999 V2000
    2.4724   -0.9134    0.1183 C   0  0  0  0  0  0  0  0  0  0  0  0
    1.6059   -0.3610    1.0605 C   0  0  0  0  0  0  0  0  0  0  0  0
    0.6103    0.5172    0.6257 C   0  0  0  0  0  0  0  0  0  0  0  0
    0.4586    0.8526   -0.7228 C   0  0  0  0  0  0  0  0  0  0  0  0
    1.3169    0.2906   -1.6644 C   0  0  0  0  0  0  0  0  0  0  0  0
    2.3149   -0.5829   -1.2283 C   0  0  0  0  0  0  0  0  0  0  0  0
    3.2617   -1.5993    0.4150 H   0  0  0  0  0  0  0  0  0  0  0  0
    1.7072   -0.6145    2.1125 H   0  0  0  0  0  0  0  0  0  0  0  0
   -0.3290    1.5429   -1.0181 H   0  0  0  0  0  0  0  0  0  0  0  0
    1.2272    0.5243   -2.7221 H   0  0  0  0  0  0  0  0  0  0  0  0
    3.2289   -1.1768   -2.2215 N   0  0  0  0  0  0  0  0  0  0  0  0
    4.0973   -1.9433   -1.8121 O   0  0  0  0  0  0  0  0  0  0  0  0
    3.0667   -0.8713   -3.4004 O   0  0  0  0  0  0  0  0  0  0  0  0
    2.2481    5.0238   -0.2810 N   0  0  0  0  0  0  0  0  0  0  0  0
    2.9397    5.7572   -0.7319 N   0  0  0  0  0  0  0  0  0  0  0  0
    0.0942    1.7511    2.9418 S   0  0  0  0  0  0  0  0  0  0  0  0
    0.1981    0.4190    3.9066 O   0  0  0  0  0  0  0  0  0  0  0  0
   -0.6968    0.2306    4.2393 H   0  0  0  0  0  0  0  0  0  0  0  0
   -0.3495    1.0617    1.4855 O   0  0  0  0  0  0  0  0  0  0  0  0
   -1.0875    2.5217    3.3363 O   0  0  0  0  0  0  0  0  0  0  0  0
    1.4522    2.2850    2.8532 O   0  0  0  0  0  0  0  0  0  0  0  0
  1  7  1  0  0  0  0
  1  2  2  0  0  0  0
  2  8  1  0  0  0  0
  3  2  1  0  0  0  0
  3 19  1  0  0  0  0
  4  3  2  0  0  0  0
  5  6  2  0  0  0  0
  5  4  1  0  0  0  0
  6  1  1  0  0  0  0
  9  4  1  0  0  0  0
 10  5  1  0  0  0  0
 11 12  2  0  0  0  0
 11  6  1  0  0  0  0
 13 11  2  0  0  0  0
 15 14  3  0  0  0  0
 16 20  2  0  0  0  0
 16 17  1  0  0  0  0
 17 18  1  0  0  0  0
 19 16  1  0  0  0  0
 21 16  2  0  0  0  0
M  END
