Coordinates from ORCA-job p-NO2-Ph-N2-HSO4-B3LYPG-aug-cc-pVDZ-scan-d09-49-n400
 OpenBabel12261916533D

 21 21  0  0  1  0  0  0  0  0999 V2000
    2.1282   -0.0666    0.3230 C   0  0  0  0  0  0  0  0  0  0  0  0
    1.7016    1.2716    0.8261 C   0  0  1  0  0  0  0  0  0  0  0  0
    1.5362    2.3791   -0.2917 C   0  0  0  0  0  0  0  0  0  0  0  0
    1.3778    1.8412   -1.6881 C   0  0  0  0  0  0  0  0  0  0  0  0
    1.6212    0.5582   -2.0100 C   0  0  0  0  0  0  0  0  0  0  0  0
    2.0497   -0.3710   -0.9831 C   0  0  0  0  0  0  0  0  0  0  0  0
    2.4664   -0.8047    1.0472 H   0  0  0  0  0  0  0  0  0  0  0  0
    2.3874    1.6744    1.5812 H   0  0  0  0  0  0  0  0  0  0  0  0
    1.0675    2.5800   -2.4271 H   0  0  0  0  0  0  0  0  0  0  0  0
    1.5194    0.2007   -3.0308 H   0  0  0  0  0  0  0  0  0  0  0  0
    2.4315   -1.7429   -1.4110 N   0  0  0  0  0  0  0  0  0  0  0  0
    2.8044   -2.5332   -0.5518 O   0  0  0  0  0  0  0  0  0  0  0  0
    2.3432   -1.9945   -2.6089 O   0  0  0  0  0  0  0  0  0  0  0  0
    1.5150    3.2601   -0.0645 N   0  0  0  0  0  0  0  0  0  0  0  0
    1.4872    4.4034    0.2352 N   0  0  0  0  0  0  0  0  0  0  0  0
    0.2722    1.1164    3.0997 S   0  0  0  0  0  0  0  0  0  0  0  0
    0.6787   -0.4506    3.4103 O   0  0  0  0  0  0  0  0  0  0  0  0
   -0.1306   -0.9853    3.3300 H   0  0  0  0  0  0  0  0  0  0  0  0
    0.3712    1.1575    1.4419 O   0  0  0  0  0  0  0  0  0  0  0  0
   -1.1503    1.3071    3.3922 O   0  0  0  0  0  0  0  0  0  0  0  0
    1.3598    1.9144    3.6726 O   0  0  0  0  0  0  0  0  0  0  0  0
  1  2  1  0  0  0  0
  1  7  1  0  0  0  0
  2 19  1  0  0  0  0
  2  8  1  1  0  0  0
  3 14  1  0  0  0  0
  3  2  1  0  0  0  0
  4  3  2  0  0  0  0
  5  4  1  0  0  0  0
  5  6  1  0  0  0  0
  6  1  2  0  0  0  0
  9  4  1  0  0  0  0
 10  5  1  0  0  0  0
 11  6  1  0  0  0  0
 11 12  2  0  0  0  0
 13 11  2  0  0  0  0
 14 15  1  0  0  0  0
 16 20  2  0  0  0  0
 16 17  1  0  0  0  0
 16 21  2  0  0  0  0
 18 17  1  0  0  0  0
 19 16  1  0  0  0  0
M  RAD  3   5   2  14   2  15   3
M  END
