Coordinates from ORCA-job p-NO2-Ph-N2-HSO4-B3LYPG-aug-cc-pVDZ-scan-d09-49-n400
 OpenBabel12261916533D

 21 20  0  0  0  0  0  0  0  0999 V2000
    2.5099   -0.8414    0.1127 C   0  0  0  0  0  0  0  0  0  0  0  0
    1.6510   -0.2758    1.0544 C   0  0  0  0  0  0  0  0  0  0  0  0
    0.6208    0.5567    0.6105 C   0  0  0  0  0  0  0  0  0  0  0  0
    0.4281    0.8333   -0.7466 C   0  0  0  0  0  0  0  0  0  0  0  0
    1.2793    0.2582   -1.6862 C   0  0  0  0  0  0  0  0  0  0  0  0
    2.3120   -0.5698   -1.2415 C   0  0  0  0  0  0  0  0  0  0  0  0
    3.3249   -1.4929    0.4169 H   0  0  0  0  0  0  0  0  0  0  0  0
    1.7868   -0.4862    2.1118 H   0  0  0  0  0  0  0  0  0  0  0  0
   -0.3854    1.4896   -1.0489 H   0  0  0  0  0  0  0  0  0  0  0  0
    1.1575    0.4470   -2.7496 H   0  0  0  0  0  0  0  0  0  0  0  0
    3.2186   -1.1773   -2.2326 N   0  0  0  0  0  0  0  0  0  0  0  0
    4.1178   -1.9030   -1.8152 O   0  0  0  0  0  0  0  0  0  0  0  0
    3.0196   -0.9241   -3.4184 O   0  0  0  0  0  0  0  0  0  0  0  0
    2.2506    4.8535   -0.1588 N   0  0  0  0  0  0  0  0  0  0  0  0
    2.9742    5.5613   -0.6005 N   0  0  0  0  0  0  0  0  0  0  0  0
    0.0917    1.7743    2.9392 S   0  0  0  0  0  0  0  0  0  0  0  0
    0.1790    0.4224    3.8773 O   0  0  0  0  0  0  0  0  0  0  0  0
   -0.7215    0.2259    4.1898 H   0  0  0  0  0  0  0  0  0  0  0  0
   -0.3351    1.1160    1.4643 O   0  0  0  0  0  0  0  0  0  0  0  0
   -1.0938    2.5401    3.3309 O   0  0  0  0  0  0  0  0  0  0  0  0
    1.4515    2.3076    2.8828 O   0  0  0  0  0  0  0  0  0  0  0  0
  1  7  1  0  0  0  0
  1  2  2  0  0  0  0
  2  8  1  0  0  0  0
  3  2  1  0  0  0  0
  3 19  1  0  0  0  0
  4  3  2  0  0  0  0
  5  6  2  0  0  0  0
  5  4  1  0  0  0  0
  6  1  1  0  0  0  0
  9  4  1  0  0  0  0
 10  5  1  0  0  0  0
 11 12  2  0  0  0  0
 11  6  1  0  0  0  0
 13 11  2  0  0  0  0
 15 14  3  0  0  0  0
 16 20  2  0  0  0  0
 16 17  1  0  0  0  0
 17 18  1  0  0  0  0
 19 16  1  0  0  0  0
 21 16  2  0  0  0  0
M  END
