Coordinates from ORCA-job p-NO2-Ph-N2-HSO4-B3LYPG-aug-cc-pVDZ-scan-d09-49-n400
 OpenBabel12261916533D

 21 20  0  0  0  0  0  0  0  0999 V2000
    2.7308   -0.3479    0.0621 C   0  0  0  0  0  0  0  0  0  0  0  0
    1.9552    0.3389    0.9929 C   0  0  0  0  0  0  0  0  0  0  0  0
    0.8416    1.0634    0.5450 C   0  0  0  0  0  0  0  0  0  0  0  0
    0.4132    0.9707   -0.7900 C   0  0  0  0  0  0  0  0  0  0  0  0
    1.1864    0.2831   -1.7147 C   0  0  0  0  0  0  0  0  0  0  0  0
    2.3529   -0.3544   -1.2809 C   0  0  0  0  0  0  0  0  0  0  0  0
    3.6210   -0.8897    0.3716 H   0  0  0  0  0  0  0  0  0  0  0  0
    2.2501    0.3479    2.0372 H   0  0  0  0  0  0  0  0  0  0  0  0
   -0.5048    1.4736   -1.0873 H   0  0  0  0  0  0  0  0  0  0  0  0
    0.8949    0.2226   -2.7600 H   0  0  0  0  0  0  0  0  0  0  0  0
    3.1759   -1.0858   -2.2560 N   0  0  0  0  0  0  0  0  0  0  0  0
    4.1827   -1.6561   -1.8415 O   0  0  0  0  0  0  0  0  0  0  0  0
    2.8017   -1.0931   -3.4270 O   0  0  0  0  0  0  0  0  0  0  0  0
    1.8247    2.9794    0.3415 N   0  0  0  0  0  0  0  0  0  0  0  0
    2.6700    3.3664   -0.2598 N   0  0  0  0  0  0  0  0  0  0  0  0
    0.1130    1.9090    3.0101 S   0  0  0  0  0  0  0  0  0  0  0  0
   -0.0098    0.3775    3.5958 O   0  0  0  0  0  0  0  0  0  0  0  0
   -0.9566    0.1726    3.6900 H   0  0  0  0  0  0  0  0  0  0  0  0
   -0.1130    1.6451    1.3801 O   0  0  0  0  0  0  0  0  0  0  0  0
   -1.0789    2.6674    3.3913 O   0  0  0  0  0  0  0  0  0  0  0  0
    1.4865    2.3250    3.2919 O   0  0  0  0  0  0  0  0  0  0  0  0
  1  7  1  0  0  0  0
  1  2  2  0  0  0  0
  2  8  1  0  0  0  0
  3  2  1  0  0  0  0
  3 19  1  0  0  0  0
  4  3  2  0  0  0  0
  5  6  2  0  0  0  0
  5  4  1  0  0  0  0
  6  1  1  0  0  0  0
  9  4  1  0  0  0  0
 10  5  1  0  0  0  0
 11 12  2  0  0  0  0
 11  6  1  0  0  0  0
 13 11  2  0  0  0  0
 15 14  3  0  0  0  0
 16 21  2  0  0  0  0
 16 20  2  0  0  0  0
 16 17  1  0  0  0  0
 17 18  1  0  0  0  0
 19 16  1  0  0  0  0
M  END
