Coordinates from ORCA-job p-NO2-Ph-N2-HSO4-B3LYPG-aug-cc-pVDZ-scan-d09-49-n400
 OpenBabel12261916533D

 21 20  0  0  0  0  0  0  0  0999 V2000
    2.6698   -0.4082    0.0601 C   0  0  0  0  0  0  0  0  0  0  0  0
    2.2995    0.7526    0.7463 C   0  0  0  0  0  0  0  0  0  0  0  0
    1.6346    1.6919   -0.0098 C   0  0  0  0  0  0  0  0  0  0  0  0
    1.2830    1.6253   -1.3479 C   0  0  0  0  0  0  0  0  0  0  0  0
    1.6567    0.4522   -2.0055 C   0  0  0  0  0  0  0  0  0  0  0  0
    2.3439   -0.5319   -1.2908 C   0  0  0  0  0  0  0  0  0  0  0  0
    3.1932   -1.2132    0.5691 H   0  0  0  0  0  0  0  0  0  0  0  0
    2.4744    0.9086    1.8074 H   0  0  0  0  0  0  0  0  0  0  0  0
    0.7391    2.4200   -1.8510 H   0  0  0  0  0  0  0  0  0  0  0  0
    1.4181    0.2968   -3.0544 H   0  0  0  0  0  0  0  0  0  0  0  0
    2.7411   -1.7718   -2.0062 N   0  0  0  0  0  0  0  0  0  0  0  0
    3.3488   -2.6204   -1.3655 O   0  0  0  0  0  0  0  0  0  0  0  0
    2.4270   -1.8634   -3.1876 O   0  0  0  0  0  0  0  0  0  0  0  0
    1.2462    3.1027    0.7125 N   0  0  0  0  0  0  0  0  0  0  0  0
    1.0222    4.1898    0.6490 N   0  0  0  0  0  0  0  0  0  0  0  0
   -0.2029    1.6722    2.9534 S   0  0  0  0  0  0  0  0  0  0  0  0
    0.2651    0.0625    3.1842 O   0  0  0  0  0  0  0  0  0  0  0  0
    0.0064   -0.1489    4.0945 H   0  0  0  0  0  0  0  0  0  0  0  0
   -0.8902    1.6634    1.6257 O   0  0  0  0  0  0  0  0  0  0  0  0
   -0.9824    2.0259    4.1635 O   0  0  0  0  0  0  0  0  0  0  0  0
    1.1439    2.4093    2.8452 O   0  0  0  0  0  0  0  0  0  0  0  0
  1  7  1  0  0  0  0
  1  2  1  0  0  0  0
  2  8  1  0  0  0  0
  3 14  1  0  0  0  0
  3  2  2  0  0  0  0
  4  3  1  0  0  0  0
  5  4  2  0  0  0  0
  5  6  1  0  0  0  0
  6  1  2  0  0  0  0
  9  4  1  0  0  0  0
 10  5  1  0  0  0  0
 11 12  2  0  0  0  0
 11  6  1  0  0  0  0
 13 11  2  0  0  0  0
 15 14  2  0  0  0  0
 16 17  1  0  0  0  0
 16 20  1  0  0  0  0
 17 18  1  0  0  0  0
 19 16  2  0  0  0  0
 21 16  2  0  0  0  0
M  RAD  2  15   2  20   2
M  END
