Coordinates from ORCA-job p-NO2-Ph-N2-HSO4-B3LYPG-aug-cc-pVDZ-scan-d09-49-n400
 OpenBabel12261916533D

 21 20  0  0  0  0  0  0  0  0999 V2000
    2.6781   -0.3934    0.0694 C   0  0  0  0  0  0  0  0  0  0  0  0
    2.3252    0.7818    0.7492 C   0  0  0  0  0  0  0  0  0  0  0  0
    1.6430    1.6583   -0.0399 C   0  0  0  0  0  0  0  0  0  0  0  0
    1.2410    1.6192   -1.3480 C   0  0  0  0  0  0  0  0  0  0  0  0
    1.6097    0.4275   -1.9885 C   0  0  0  0  0  0  0  0  0  0  0  0
    2.3183   -0.5405   -1.2723 C   0  0  0  0  0  0  0  0  0  0  0  0
    3.2131   -1.1884    0.5829 H   0  0  0  0  0  0  0  0  0  0  0  0
    2.5090    0.9681    1.8054 H   0  0  0  0  0  0  0  0  0  0  0  0
    0.6774    2.4050   -1.8415 H   0  0  0  0  0  0  0  0  0  0  0  0
    1.3451    0.2533   -3.0287 H   0  0  0  0  0  0  0  0  0  0  0  0
    2.7020   -1.7900   -1.9742 N   0  0  0  0  0  0  0  0  0  0  0  0
    3.3337   -2.6224   -1.3351 O   0  0  0  0  0  0  0  0  0  0  0  0
    2.3632   -1.9024   -3.1470 O   0  0  0  0  0  0  0  0  0  0  0  0
    1.2991    3.2853    0.7761 N   0  0  0  0  0  0  0  0  0  0  0  0
    1.1277    4.3788    0.7283 N   0  0  0  0  0  0  0  0  0  0  0  0
   -0.1824    1.6188    2.8919 S   0  0  0  0  0  0  0  0  0  0  0  0
    0.3300    0.0282    3.1730 O   0  0  0  0  0  0  0  0  0  0  0  0
    0.0290   -0.1812    4.0705 H   0  0  0  0  0  0  0  0  0  0  0  0
   -0.7141    1.5665    1.4902 O   0  0  0  0  0  0  0  0  0  0  0  0
   -1.1292    1.9212    3.9920 O   0  0  0  0  0  0  0  0  0  0  0  0
    1.1189    2.4217    2.9387 O   0  0  0  0  0  0  0  0  0  0  0  0
  1  7  1  0  0  0  0
  1  2  1  0  0  0  0
  2  8  1  0  0  0  0
  3  2  2  0  0  0  0
  3 14  1  0  0  0  0
  4  3  1  0  0  0  0
  5  4  2  0  0  0  0
  5  6  1  0  0  0  0
  6  1  2  0  0  0  0
  9  4  1  0  0  0  0
 10  5  1  0  0  0  0
 11 12  2  0  0  0  0
 11  6  1  0  0  0  0
 13 11  2  0  0  0  0
 15 14  2  0  0  0  0
 16 21  2  0  0  0  0
 16 17  1  0  0  0  0
 16 20  1  0  0  0  0
 17 18  1  0  0  0  0
 19 16  2  0  0  0  0
M  RAD  2  15   2  20   2
M  END
