Coordinates from ORCA-job p-NO2-Ph-N2-HSO4-B3LYPG-aug-cc-pVDZ-scan-d09-49-n400
 OpenBabel12261916533D

 21 21  0  0  1  0  0  0  0  0999 V2000
    2.1470   -0.0597    0.3218 C   0  0  0  0  0  0  0  0  0  0  0  0
    1.7177    1.2826    0.8128 C   0  0  1  0  0  0  0  0  0  0  0  0
    1.5719    2.2935   -0.3071 C   0  0  0  0  0  0  0  0  0  0  0  0
    1.3934    1.8344   -1.6798 C   0  0  0  0  0  0  0  0  0  0  0  0
    1.6013    0.5384   -2.0128 C   0  0  0  0  0  0  0  0  0  0  0  0
    2.0329   -0.3794   -0.9832 C   0  0  0  0  0  0  0  0  0  0  0  0
    2.5038   -0.7885    1.0445 H   0  0  0  0  0  0  0  0  0  0  0  0
    2.3666    1.6653    1.6073 H   0  0  0  0  0  0  0  0  0  0  0  0
    1.1043    2.5723   -2.4273 H   0  0  0  0  0  0  0  0  0  0  0  0
    1.4827    0.1808   -3.0305 H   0  0  0  0  0  0  0  0  0  0  0  0
    2.3980   -1.7602   -1.3999 N   0  0  0  0  0  0  0  0  0  0  0  0
    2.7920   -2.5394   -0.5393 O   0  0  0  0  0  0  0  0  0  0  0  0
    2.2739   -2.0328   -2.5900 O   0  0  0  0  0  0  0  0  0  0  0  0
    1.5551    3.4320   -0.0351 N   0  0  0  0  0  0  0  0  0  0  0  0
    1.5397    4.5454    0.2413 N   0  0  0  0  0  0  0  0  0  0  0  0
    0.2382    1.0957    3.0748 S   0  0  0  0  0  0  0  0  0  0  0  0
    0.7341   -0.4418    3.4151 O   0  0  0  0  0  0  0  0  0  0  0  0
   -0.0385   -1.0255    3.3199 H   0  0  0  0  0  0  0  0  0  0  0  0
    0.3475    1.1341    1.4323 O   0  0  0  0  0  0  0  0  0  0  0  0
   -1.1944    1.2069    3.3687 O   0  0  0  0  0  0  0  0  0  0  0  0
    1.2702    1.9612    3.6588 O   0  0  0  0  0  0  0  0  0  0  0  0
  1  2  1  0  0  0  0
  1  7  1  0  0  0  0
  2 19  1  0  0  0  0
  2  8  1  1  0  0  0
  3 14  1  0  0  0  0
  3  2  1  0  0  0  0
  4  3  2  0  0  0  0
  5  4  1  0  0  0  0
  5  6  1  0  0  0  0
  6  1  2  0  0  0  0
  9  4  1  0  0  0  0
 10  5  1  0  0  0  0
 11  6  1  0  0  0  0
 11 12  2  0  0  0  0
 13 11  2  0  0  0  0
 14 15  1  0  0  0  0
 16 20  2  0  0  0  0
 16 17  1  0  0  0  0
 16 21  2  0  0  0  0
 18 17  1  0  0  0  0
 19 16  1  0  0  0  0
M  RAD  3   5   2  14   2  15   3
M  END
