Coordinates from ORCA-job p-NO2-Ph-N2-HSO4-B3LYPG-aug-cc-pVDZ-scan-d09-49-n400
 OpenBabel12261916533D

 21 20  0  0  0  0  0  0  0  0999 V2000
    2.7001   -0.4308    0.0680 C   0  0  0  0  0  0  0  0  0  0  0  0
    1.9116    0.2404    1.0033 C   0  0  0  0  0  0  0  0  0  0  0  0
    0.7545    0.8887    0.5636 C   0  0  0  0  0  0  0  0  0  0  0  0
    0.3726    0.8741   -0.7835 C   0  0  0  0  0  0  0  0  0  0  0  0
    1.1602    0.2030   -1.7121 C   0  0  0  0  0  0  0  0  0  0  0  0
    2.3188   -0.4424   -1.2728 C   0  0  0  0  0  0  0  0  0  0  0  0
    3.6079   -0.9448    0.3731 H   0  0  0  0  0  0  0  0  0  0  0  0
    2.2118    0.2581    2.0457 H   0  0  0  0  0  0  0  0  0  0  0  0
   -0.5362    1.3906   -1.0851 H   0  0  0  0  0  0  0  0  0  0  0  0
    0.8907    0.1738   -2.7645 H   0  0  0  0  0  0  0  0  0  0  0  0
    3.1563   -1.1563   -2.2512 N   0  0  0  0  0  0  0  0  0  0  0  0
    4.1689   -1.7161   -1.8372 O   0  0  0  0  0  0  0  0  0  0  0  0
    2.7936   -1.1492   -3.4255 O   0  0  0  0  0  0  0  0  0  0  0  0
    2.0476    3.6356    0.2205 N   0  0  0  0  0  0  0  0  0  0  0  0
    2.9241    4.1179   -0.2468 N   0  0  0  0  0  0  0  0  0  0  0  0
    0.1010    1.8506    3.0066 S   0  0  0  0  0  0  0  0  0  0  0  0
   -0.0272    0.3280    3.6172 O   0  0  0  0  0  0  0  0  0  0  0  0
   -0.9744    0.1379    3.7360 H   0  0  0  0  0  0  0  0  0  0  0  0
   -0.1470    1.5678    1.3842 O   0  0  0  0  0  0  0  0  0  0  0  0
   -1.0781    2.6272    3.3914 O   0  0  0  0  0  0  0  0  0  0  0  0
    1.4809    2.2614    3.2614 O   0  0  0  0  0  0  0  0  0  0  0  0
  1  7  1  0  0  0  0
  1  2  2  0  0  0  0
  2  8  1  0  0  0  0
  3  2  1  0  0  0  0
  3 19  1  0  0  0  0
  4  3  2  0  0  0  0
  5  6  2  0  0  0  0
  5  4  1  0  0  0  0
  6  1  1  0  0  0  0
  9  4  1  0  0  0  0
 10  5  1  0  0  0  0
 11 12  2  0  0  0  0
 11  6  1  0  0  0  0
 13 11  2  0  0  0  0
 15 14  3  0  0  0  0
 16 21  2  0  0  0  0
 16 20  2  0  0  0  0
 16 17  1  0  0  0  0
 17 18  1  0  0  0  0
 19 16  1  0  0  0  0
M  END
