Coordinates from ORCA-job p-NO2-Ph-N2-HSO4-B3LYPG-aug-cc-pVDZ-scan-d09-49-n400
 OpenBabel12261916533D

 21 20  0  0  0  0  0  0  0  0999 V2000
    2.5179   -0.8251    0.1113 C   0  0  0  0  0  0  0  0  0  0  0  0
    1.6611   -0.2560    1.0528 C   0  0  0  0  0  0  0  0  0  0  0  0
    0.6237    0.5667    0.6073 C   0  0  0  0  0  0  0  0  0  0  0  0
    0.4222    0.8300   -0.7513 C   0  0  0  0  0  0  0  0  0  0  0  0
    1.2715    0.2514   -1.6904 C   0  0  0  0  0  0  0  0  0  0  0  0
    2.3113   -0.5668   -1.2441 C   0  0  0  0  0  0  0  0  0  0  0  0
    3.3383   -1.4692    0.4170 H   0  0  0  0  0  0  0  0  0  0  0  0
    1.8045   -0.4565    2.1111 H   0  0  0  0  0  0  0  0  0  0  0  0
   -0.3967    1.4791   -1.0549 H   0  0  0  0  0  0  0  0  0  0  0  0
    1.1428    0.4302   -2.7547 H   0  0  0  0  0  0  0  0  0  0  0  0
    3.2159   -1.1779   -2.2347 N   0  0  0  0  0  0  0  0  0  0  0  0
    4.1216   -1.8946   -1.8157 O   0  0  0  0  0  0  0  0  0  0  0  0
    3.0092   -0.9363   -3.4215 O   0  0  0  0  0  0  0  0  0  0  0  0
    2.2503    4.8152   -0.1344 N   0  0  0  0  0  0  0  0  0  0  0  0
    2.9811    5.5168   -0.5741 N   0  0  0  0  0  0  0  0  0  0  0  0
    0.0912    1.7790    2.9397 S   0  0  0  0  0  0  0  0  0  0  0  0
    0.1744    0.4212    3.8696 O   0  0  0  0  0  0  0  0  0  0  0  0
   -0.7276    0.2224    4.1763 H   0  0  0  0  0  0  0  0  0  0  0  0
   -0.3311    1.1301    1.4594 O   0  0  0  0  0  0  0  0  0  0  0  0
   -1.0953    2.5432    3.3312 O   0  0  0  0  0  0  0  0  0  0  0  0
    1.4514    2.3123    2.8922 O   0  0  0  0  0  0  0  0  0  0  0  0
  1  7  1  0  0  0  0
  1  2  2  0  0  0  0
  2  8  1  0  0  0  0
  3  2  1  0  0  0  0
  3 19  1  0  0  0  0
  4  3  2  0  0  0  0
  5  6  2  0  0  0  0
  5  4  1  0  0  0  0
  6  1  1  0  0  0  0
  9  4  1  0  0  0  0
 10  5  1  0  0  0  0
 11 12  2  0  0  0  0
 11  6  1  0  0  0  0
 13 11  2  0  0  0  0
 15 14  3  0  0  0  0
 16 20  2  0  0  0  0
 16 17  1  0  0  0  0
 17 18  1  0  0  0  0
 19 16  1  0  0  0  0
 21 16  2  0  0  0  0
M  END
