Coordinates from ORCA-job p-NO2-Ph-N2-HSO4-B3LYPG-aug-cc-pVDZ-scan-d09-49-n400
 OpenBabel12261916533D

 21 20  0  0  0  0  0  0  0  0999 V2000
    2.7111   -0.4042    0.0668 C   0  0  0  0  0  0  0  0  0  0  0  0
    1.9257    0.2704    1.0023 C   0  0  0  0  0  0  0  0  0  0  0  0
    0.7677    0.9177    0.5646 C   0  0  0  0  0  0  0  0  0  0  0  0
    0.3781    0.8928   -0.7801 C   0  0  0  0  0  0  0  0  0  0  0  0
    1.1626    0.2189   -1.7091 C   0  0  0  0  0  0  0  0  0  0  0  0
    2.3246   -0.4222   -1.2724 C   0  0  0  0  0  0  0  0  0  0  0  0
    3.6204   -0.9163    0.3707 H   0  0  0  0  0  0  0  0  0  0  0  0
    2.2305    0.2941    2.0434 H   0  0  0  0  0  0  0  0  0  0  0  0
   -0.5334    1.4061   -1.0799 H   0  0  0  0  0  0  0  0  0  0  0  0
    0.8876    0.1833   -2.7600 H   0  0  0  0  0  0  0  0  0  0  0  0
    3.1587   -1.1394   -2.2510 N   0  0  0  0  0  0  0  0  0  0  0  0
    4.1737   -1.6962   -1.8388 O   0  0  0  0  0  0  0  0  0  0  0  0
    2.7904   -1.1389   -3.4236 O   0  0  0  0  0  0  0  0  0  0  0  0
    2.0103    3.4892    0.2355 N   0  0  0  0  0  0  0  0  0  0  0  0
    2.8812    3.9382   -0.2740 N   0  0  0  0  0  0  0  0  0  0  0  0
    0.1026    1.8581    3.0135 S   0  0  0  0  0  0  0  0  0  0  0  0
   -0.0397    0.3294    3.6043 O   0  0  0  0  0  0  0  0  0  0  0  0
   -0.9889    0.1430    3.7120 H   0  0  0  0  0  0  0  0  0  0  0  0
   -0.1328    1.5962    1.3854 O   0  0  0  0  0  0  0  0  0  0  0  0
   -1.0752    2.6372    3.3969 O   0  0  0  0  0  0  0  0  0  0  0  0
    1.4824    2.2580    3.2857 O   0  0  0  0  0  0  0  0  0  0  0  0
  1  7  1  0  0  0  0
  1  2  2  0  0  0  0
  2  8  1  0  0  0  0
  3  2  1  0  0  0  0
  3 19  1  0  0  0  0
  4  3  2  0  0  0  0
  5  6  2  0  0  0  0
  5  4  1  0  0  0  0
  6  1  1  0  0  0  0
  9  4  1  0  0  0  0
 10  5  1  0  0  0  0
 11 12  2  0  0  0  0
 11  6  1  0  0  0  0
 13 11  2  0  0  0  0
 15 14  3  0  0  0  0
 16 21  2  0  0  0  0
 16 20  2  0  0  0  0
 16 17  1  0  0  0  0
 17 18  1  0  0  0  0
 19 16  1  0  0  0  0
M  END
