Coordinates from ORCA-job p-NO2-Ph-N2-HSO4-B3LYPG-aug-cc-pVDZ-scan-d09-49-n400
 OpenBabel12261916533D

 21 20  0  0  0  0  0  0  0  0999 V2000
    2.7293   -0.3551    0.0640 C   0  0  0  0  0  0  0  0  0  0  0  0
    1.9515    0.3291    0.9972 C   0  0  0  0  0  0  0  0  0  0  0  0
    0.8136    1.0121    0.5557 C   0  0  0  0  0  0  0  0  0  0  0  0
    0.4001    0.9471   -0.7823 C   0  0  0  0  0  0  0  0  0  0  0  0
    1.1763    0.2634   -1.7093 C   0  0  0  0  0  0  0  0  0  0  0  0
    2.3426   -0.3730   -1.2756 C   0  0  0  0  0  0  0  0  0  0  0  0
    3.6307   -0.8800    0.3698 H   0  0  0  0  0  0  0  0  0  0  0  0
    2.2557    0.3493    2.0386 H   0  0  0  0  0  0  0  0  0  0  0  0
   -0.5166    1.4519   -1.0806 H   0  0  0  0  0  0  0  0  0  0  0  0
    0.8893    0.2107   -2.7564 H   0  0  0  0  0  0  0  0  0  0  0  0
    3.1683   -1.1011   -2.2524 N   0  0  0  0  0  0  0  0  0  0  0  0
    4.1823   -1.6601   -1.8407 O   0  0  0  0  0  0  0  0  0  0  0  0
    2.7940   -1.1078   -3.4232 O   0  0  0  0  0  0  0  0  0  0  0  0
    1.8866    3.1144    0.3034 N   0  0  0  0  0  0  0  0  0  0  0  0
    2.7337    3.5094   -0.2870 N   0  0  0  0  0  0  0  0  0  0  0  0
    0.1114    1.8905    3.0168 S   0  0  0  0  0  0  0  0  0  0  0  0
   -0.0340    0.3547    3.5866 O   0  0  0  0  0  0  0  0  0  0  0  0
   -0.9839    0.1627    3.6770 H   0  0  0  0  0  0  0  0  0  0  0  0
   -0.1095    1.6476    1.3831 O   0  0  0  0  0  0  0  0  0  0  0  0
   -1.0719    2.6620    3.3985 O   0  0  0  0  0  0  0  0  0  0  0  0
    1.4881    2.2874    3.3090 O   0  0  0  0  0  0  0  0  0  0  0  0
  1  7  1  0  0  0  0
  1  2  2  0  0  0  0
  2  8  1  0  0  0  0
  3  2  1  0  0  0  0
  3 19  1  0  0  0  0
  4  3  2  0  0  0  0
  5  6  2  0  0  0  0
  5  4  1  0  0  0  0
  6  1  1  0  0  0  0
  9  4  1  0  0  0  0
 10  5  1  0  0  0  0
 11 12  2  0  0  0  0
 11  6  1  0  0  0  0
 13 11  2  0  0  0  0
 15 14  3  0  0  0  0
 16 21  2  0  0  0  0
 16 20  2  0  0  0  0
 16 17  1  0  0  0  0
 17 18  1  0  0  0  0
 19 16  1  0  0  0  0
M  END
