Coordinates from ORCA-job p-NO2-Ph-N2-HSO4-B3LYPG-aug-cc-pVDZ-scan-d09-49-n400
 OpenBabel12261916533D

 21 21  0  0  1  0  0  0  0  0999 V2000
    2.1448   -0.1273    0.2804 C   0  0  0  0  0  0  0  0  0  0  0  0
    1.7273    1.2002    0.8066 C   0  0  1  0  0  0  0  0  0  0  0  0
    1.6030    2.1849   -0.2940 C   0  0  1  0  0  0  0  0  0  0  0  0
    1.4426    1.8312   -1.6705 C   0  0  0  0  0  0  0  0  0  0  0  0
    1.6310    0.5354   -2.0489 C   0  0  0  0  0  0  0  0  0  0  0  0
    2.0299   -0.4098   -1.0394 C   0  0  0  0  0  0  0  0  0  0  0  0
    2.4935   -0.8807    0.9807 H   0  0  0  0  0  0  0  0  0  0  0  0
    2.3456    1.5531    1.6360 H   0  0  0  0  0  0  0  0  0  0  0  0
    1.1871    2.6021   -2.3956 H   0  0  0  0  0  0  0  0  0  0  0  0
    1.5259    0.2130   -3.0791 H   0  0  0  0  0  0  0  0  0  0  0  0
    2.3771   -1.7867   -1.4864 N   0  0  0  0  0  0  0  0  0  0  0  0
    2.7589   -2.5906   -0.6429 O   0  0  0  0  0  0  0  0  0  0  0  0
    2.2571   -2.0314   -2.6830 O   0  0  0  0  0  0  0  0  0  0  0  0
    1.5438    3.5170    0.0662 N   0  0  0  0  0  0  0  0  0  0  0  0
    1.4968    4.6038    0.3750 N   0  0  0  0  0  0  0  0  0  0  0  0
    0.1738    1.1551    3.0495 S   0  0  0  0  0  0  0  0  0  0  0  0
    0.8293   -0.2656    3.5859 O   0  0  0  0  0  0  0  0  0  0  0  0
    0.1277   -0.9386    3.5525 H   0  0  0  0  0  0  0  0  0  0  0  0
    0.3168    1.0116    1.4282 O   0  0  0  0  0  0  0  0  0  0  0  0
   -1.2669    1.1448    3.3322 O   0  0  0  0  0  0  0  0  0  0  0  0
    1.0925    2.1940    3.5388 O   0  0  0  0  0  0  0  0  0  0  0  0
  1  2  1  0  0  0  0
  1  7  1  0  0  0  0
  2 19  1  0  0  0  0
  2  8  1  1  0  0  0
  3 14  1  1  0  0  0
  3  2  1  0  0  0  0
  4  3  1  0  0  0  0
  5  4  2  0  0  0  0
  5  6  1  0  0  0  0
  6  1  2  0  0  0  0
  9  4  1  0  0  0  0
 10  5  1  0  0  0  0
 11  6  1  0  0  0  0
 11 12  2  0  0  0  0
 13 11  2  0  0  0  0
 14 15  1  0  0  0  0
 16 20  2  0  0  0  0
 16 21  2  0  0  0  0
 16 17  1  0  0  0  0
 18 17  1  0  0  0  0
 19 16  1  0  0  0  0
M  RAD  3   3   2  14   2  15   3
M  END
