Coordinates from ORCA-job p-NO2-Ph-N2-HSO4-B3LYPG-aug-cc-pVDZ-scan-d09-49-n400
 OpenBabel12261916533D

 21 20  0  0  0  0  0  0  0  0999 V2000
    2.4977   -0.8646    0.1147 C   0  0  0  0  0  0  0  0  0  0  0  0
    1.6360   -0.3036    1.0562 C   0  0  0  0  0  0  0  0  0  0  0  0
    0.6171    0.5448    0.6152 C   0  0  0  0  0  0  0  0  0  0  0  0
    0.4383    0.8405   -0.7388 C   0  0  0  0  0  0  0  0  0  0  0  0
    1.2920    0.2698   -1.6795 C   0  0  0  0  0  0  0  0  0  0  0  0
    2.3132   -0.5732   -1.2374 C   0  0  0  0  0  0  0  0  0  0  0  0
    3.3040   -1.5278    0.4169 H   0  0  0  0  0  0  0  0  0  0  0  0
    1.7597   -0.5291    2.1121 H   0  0  0  0  0  0  0  0  0  0  0  0
   -0.3670    1.5079   -1.0393 H   0  0  0  0  0  0  0  0  0  0  0  0
    1.1812    0.4740   -2.7413 H   0  0  0  0  0  0  0  0  0  0  0  0
    3.2224   -1.1760   -2.2293 N   0  0  0  0  0  0  0  0  0  0  0  0
    4.1119   -1.9148   -1.8140 O   0  0  0  0  0  0  0  0  0  0  0  0
    3.0361   -0.9046   -3.4130 O   0  0  0  0  0  0  0  0  0  0  0  0
    2.2509    4.9075   -0.2014 N   0  0  0  0  0  0  0  0  0  0  0  0
    2.9636    5.6238   -0.6468 N   0  0  0  0  0  0  0  0  0  0  0  0
    0.0919    1.7648    2.9404 S   0  0  0  0  0  0  0  0  0  0  0  0
    0.1841    0.4216    3.8904 O   0  0  0  0  0  0  0  0  0  0  0  0
   -0.7145    0.2296    4.2112 H   0  0  0  0  0  0  0  0  0  0  0  0
   -0.3414    1.0953    1.4726 O   0  0  0  0  0  0  0  0  0  0  0  0
   -1.0913    2.5340    3.3327 O   0  0  0  0  0  0  0  0  0  0  0  0
    1.4520    2.2956    2.8706 O   0  0  0  0  0  0  0  0  0  0  0  0
  1  7  1  0  0  0  0
  1  2  2  0  0  0  0
  2  8  1  0  0  0  0
  3  2  1  0  0  0  0
  3 19  1  0  0  0  0
  4  3  2  0  0  0  0
  5  6  2  0  0  0  0
  5  4  1  0  0  0  0
  6  1  1  0  0  0  0
  9  4  1  0  0  0  0
 10  5  1  0  0  0  0
 11 12  2  0  0  0  0
 11  6  1  0  0  0  0
 13 11  2  0  0  0  0
 15 14  3  0  0  0  0
 16 20  2  0  0  0  0
 16 17  1  0  0  0  0
 17 18  1  0  0  0  0
 19 16  1  0  0  0  0
 21 16  2  0  0  0  0
M  END
