Coordinates from ORCA-job p-NO2-Ph-N2-HSO4-B3LYPG-aug-cc-pVDZ-scan-d09-49-n400
 OpenBabel12261916533D

 21 20  0  0  0  0  0  0  0  0999 V2000
    2.5661   -0.7251    0.1009 C   0  0  0  0  0  0  0  0  0  0  0  0
    1.7204   -0.1383    1.0421 C   0  0  0  0  0  0  0  0  0  0  0  0
    0.6408    0.6248    0.5922 C   0  0  0  0  0  0  0  0  0  0  0  0
    0.3888    0.8129   -0.7712 C   0  0  0  0  0  0  0  0  0  0  0  0
    1.2279    0.2178   -1.7083 C   0  0  0  0  0  0  0  0  0  0  0  0
    2.3091   -0.5427   -1.2577 C   0  0  0  0  0  0  0  0  0  0  0  0
    3.4178   -1.3247    0.4115 H   0  0  0  0  0  0  0  0  0  0  0  0
    1.9089   -0.2806    2.1023 H   0  0  0  0  0  0  0  0  0  0  0  0
   -0.4604    1.4196   -1.0790 H   0  0  0  0  0  0  0  0  0  0  0  0
    1.0599    0.3401   -2.7751 H   0  0  0  0  0  0  0  0  0  0  0  0
    3.2030   -1.1717   -2.2461 N   0  0  0  0  0  0  0  0  0  0  0  0
    4.1456   -1.8366   -1.8229 O   0  0  0  0  0  0  0  0  0  0  0  0
    2.9508   -0.9970   -3.4360 O   0  0  0  0  0  0  0  0  0  0  0  0
    2.2501    4.5751   -0.0152 N   0  0  0  0  0  0  0  0  0  0  0  0
    3.0227    5.2352   -0.4473 N   0  0  0  0  0  0  0  0  0  0  0  0
    0.0880    1.7995    2.9475 S   0  0  0  0  0  0  0  0  0  0  0  0
    0.1301    0.4084    3.8287 O   0  0  0  0  0  0  0  0  0  0  0  0
   -0.7826    0.2063    4.0996 H   0  0  0  0  0  0  0  0  0  0  0  0
   -0.3070    1.2096    1.4366 O   0  0  0  0  0  0  0  0  0  0  0  0
   -1.0979    2.5668    3.3337 O   0  0  0  0  0  0  0  0  0  0  0  0
    1.4554    2.3158    2.9559 O   0  0  0  0  0  0  0  0  0  0  0  0
  1  7  1  0  0  0  0
  1  2  2  0  0  0  0
  2  8  1  0  0  0  0
  3  2  1  0  0  0  0
  3 19  1  0  0  0  0
  4  3  2  0  0  0  0
  5  6  2  0  0  0  0
  5  4  1  0  0  0  0
  6  1  1  0  0  0  0
  9  4  1  0  0  0  0
 10  5  1  0  0  0  0
 11 12  2  0  0  0  0
 11  6  1  0  0  0  0
 13 11  2  0  0  0  0
 15 14  3  0  0  0  0
 16 21  2  0  0  0  0
 16 20  2  0  0  0  0
 16 17  1  0  0  0  0
 17 18  1  0  0  0  0
 19 16  1  0  0  0  0
M  END
