Coordinates from ORCA-job p-NO2-Ph-N2-HSO4-B3LYPG-aug-cc-pVDZ-scan-d09-49-n400
 OpenBabel12261916533D

 21 20  0  0  0  0  0  0  0  0999 V2000
    2.7120   -0.4018    0.0667 C   0  0  0  0  0  0  0  0  0  0  0  0
    1.9268    0.2730    1.0022 C   0  0  0  0  0  0  0  0  0  0  0  0
    0.7686    0.9197    0.5648 C   0  0  0  0  0  0  0  0  0  0  0  0
    0.3788    0.8949   -0.7798 C   0  0  0  0  0  0  0  0  0  0  0  0
    1.1630    0.2207   -1.7089 C   0  0  0  0  0  0  0  0  0  0  0  0
    2.3251   -0.4204   -1.2724 C   0  0  0  0  0  0  0  0  0  0  0  0
    3.6216   -0.9135    0.3705 H   0  0  0  0  0  0  0  0  0  0  0  0
    2.2321    0.2983    2.0432 H   0  0  0  0  0  0  0  0  0  0  0  0
   -0.5323    1.4092   -1.0792 H   0  0  0  0  0  0  0  0  0  0  0  0
    0.8879    0.1854   -2.7598 H   0  0  0  0  0  0  0  0  0  0  0  0
    3.1589   -1.1379   -2.2510 N   0  0  0  0  0  0  0  0  0  0  0  0
    4.1744   -1.6939   -1.8391 O   0  0  0  0  0  0  0  0  0  0  0  0
    2.7906   -1.1371   -3.4236 O   0  0  0  0  0  0  0  0  0  0  0  0
    2.0061    3.4716    0.2386 N   0  0  0  0  0  0  0  0  0  0  0  0
    2.8748    3.9175   -0.2772 N   0  0  0  0  0  0  0  0  0  0  0  0
    0.1029    1.8594    3.0139 S   0  0  0  0  0  0  0  0  0  0  0  0
   -0.0402    0.3301    3.6031 O   0  0  0  0  0  0  0  0  0  0  0  0
   -0.9895    0.1439    3.7099 H   0  0  0  0  0  0  0  0  0  0  0  0
   -0.1315    1.5986    1.3854 O   0  0  0  0  0  0  0  0  0  0  0  0
   -1.0750    2.6386    3.3972 O   0  0  0  0  0  0  0  0  0  0  0  0
    1.4825    2.2592    3.2879 O   0  0  0  0  0  0  0  0  0  0  0  0
  1  7  1  0  0  0  0
  1  2  2  0  0  0  0
  2  8  1  0  0  0  0
  3  2  1  0  0  0  0
  3 19  1  0  0  0  0
  4  3  2  0  0  0  0
  5  6  2  0  0  0  0
  5  4  1  0  0  0  0
  6  1  1  0  0  0  0
  9  4  1  0  0  0  0
 10  5  1  0  0  0  0
 11 12  2  0  0  0  0
 11  6  1  0  0  0  0
 13 11  2  0  0  0  0
 15 14  3  0  0  0  0
 16 21  2  0  0  0  0
 16 20  2  0  0  0  0
 16 17  1  0  0  0  0
 17 18  1  0  0  0  0
 19 16  1  0  0  0  0
M  END
