35
Coordinates from ORCA-job p-CH3O-Ph-N2-OTs-B3LYPG-aug-cc-pVDZ-scan-d09-49-n400
  C   0.43471991093259      0.27032095087253     -3.04390147997548
  C   0.91934514375302      1.46636121769773     -3.74117373973710
  C   0.10156164656295      2.63645596619266     -3.38747416262750
  C   -0.67350639480895      2.74284706578516     -2.20209871365715
  C   -0.87532824722487      1.61791784120380     -1.45133046512198
  C   -0.35109898310161      0.35572746350135     -1.92670194664408
  H   0.77834667019001     -0.70435453992949     -3.38172496053757
  H   1.09035241159570      1.34315189808047     -4.81074914088014
  H   -1.09896064718978      3.70200076025977     -1.91301846184243
  H   -1.44816298628147      1.68036271284242     -0.53172651120634
  N   0.18406140390168      3.78621464233980     -4.23597256125389
  N   0.24338694915460      4.68421989239091     -4.91482451261340
  C   5.19951044490204      0.51395828829439     -4.78726348580718
  C   6.36939466744333     -0.23378053760046     -4.63256167712471
  C   7.31139481305223      0.08896243637307     -3.64379188327627
  C   7.05738435804875      1.18972766703715     -2.80769189965490
  C   5.89524313726612      1.94981227233148     -2.94494023369893
  C   4.97687546400271      1.59610282119994     -3.93580261074032
  H   4.47518124010916      0.27439790350558     -5.56343056840469
  H   6.55479080484163     -1.07696300368848     -5.29926761704371
  H   7.78583905531389      1.45769859146329     -2.04068007392557
  H   5.70343107779957      2.81062882598634     -2.30742903887667
  S   3.46429095915606      2.55408165319884     -4.11283333105902
  O   2.43686721764733      1.66675504848041     -3.20192160660524
  O   3.00470394748871      2.49957867687847     -5.53258990896471
  O   3.66174097875498      3.88213012702071     -3.47858348312065
  C   8.57679532383715     -0.71737966375839     -3.47831604496582
  H   8.64419064513962     -1.14064992597476     -2.46561569989894
  H   8.62133300328268     -1.54713605010765     -4.19449232860072
  H   9.46715834834691     -0.08901280025718     -3.62647103388568
  O   -0.64275461209609     -0.82184581414746     -1.29985035413429
  C   -1.57445986768643     -0.82993633047346     -0.22055331224166
  H   -1.70355508823083     -1.88320809114822      0.04641015565520
  H   -2.54568433464442     -0.41063858883332     -0.52254709719350
  H   -1.18408846125886     -0.28270937701736      0.65071978966508
