35
Coordinates from ORCA-job p-CH3O-Ph-N2-OTs-B3LYPG-aug-cc-pVDZ-scan-d09-49-n400
  C   -0.06430325818102      0.24470410302449     -2.80172321944435
  C   0.67950507881767      1.43013002771304     -3.02198176734059
  C   0.10911575490189      2.40429736089498     -2.34607485047963
  C   -0.93885713091319      2.63854460983790     -1.52275910567136
  C   -1.64505423105375      1.42655163594675     -1.33753881146808
  C   -1.20385246257711      0.24378395969597     -1.96890350391811
  H   0.25139233532193     -0.68122234138331     -3.28186098670083
  H   1.66700972412172      1.46284715968570     -3.71315380454858
  H   -1.22238114602283      3.57870712321815     -1.06199974988704
  H   -2.53053245651655      1.44794552072512     -0.70736149046494
  N   1.12708079140369      4.39454110476200     -2.62964848407337
  N   1.48630701607128      5.43076173437251     -2.74396659336137
  C   5.42275719053984      0.24633139131504     -4.48804976873778
  C   6.63646691767703     -0.45138158289723     -4.47889826687250
  C   7.81759361372055      0.15098235263892     -4.02953204380345
  C   7.75705901750461      1.48519307900893     -3.58797166588234
  C   6.55733509996961      2.19466134445072     -3.59179048837908
  C   5.39245600665620      1.56510186587768     -4.04169740505940
  H   4.50705920107376     -0.22222355012664     -4.84153869333534
  H   6.65760268331063     -1.48491906287889     -4.82832805759842
  H   8.66496303976707      1.97671502838902     -3.23418472769392
  H   6.52463563604608      3.22832259867860     -3.25023439272092
  S   3.85366202775175      2.52277823132199     -4.04502766306901
  O   3.53920397061844      2.87689417394520     -2.61433768651239
  O   2.78751715858214      1.52271277395509     -4.59526477867333
  O   4.05591331005316      3.68208916856710     -4.96263110520538
  C   9.12804724622769     -0.59995163969036     -4.01048660318669
  H   9.50534236390851     -0.71303591810986     -2.98327617653435
  H   9.02023890962367     -1.60260982944716     -4.44279522580684
  H   9.89981697565834     -0.06527395999927     -4.58366383342232
  O   -1.81925245332923     -0.95880650447932     -1.83422476896784
  C   -2.97103078353372     -1.05110361875091     -0.99593807776711
  H   -3.25804320281109     -2.10613847774464     -1.00468177879949
  H   -3.79672317804603     -0.44174750296918     -1.39351991682596
  H   -2.73775076634267     -0.74438235954814      0.03484549221219
