35
Coordinates from ORCA-job p-CH3O-Ph-N2-OTs-B3LYPG-aug-cc-pVDZ-scan-d09-49-n400
  C   -0.52362510561845      0.08964798317627     -2.42620422849450
  C   0.50182748324860      1.03285574536935     -2.56391340486565
  C   0.09954409692987      2.27957484560578     -2.18394014798262
  C   -1.08059692164272      2.76020351228924     -1.68814690155339
  C   -2.07604888900621      1.77862207316682     -1.56605848299647
  C   -1.79486257389756      0.44810013252293     -1.93385305326220
  H   -0.32693021575431     -0.94709464773602     -2.69504568189297
  H   1.50601010601698      0.73814157925982     -2.91308688214145
  H   -1.24227408140335      3.79739046003742     -1.41088056804020
  H   -3.04874528177550      2.07331341795967     -1.18315069586635
  N   1.39291929026952      3.61190969629505     -2.32753892006829
  N   2.37371599234233      4.00015795452587     -2.68520481201297
  C   5.99030773468629     -0.12115951187433     -4.37154770988414
  C   7.30506037901755     -0.31580987656262     -4.81030365028774
  C   8.31810817286011      0.60345416651221     -4.50597226302865
  C   7.98119495841112      1.73622163948435     -3.74363824845894
  C   6.67677947802689      1.94536640005520     -3.29825531790126
  C   5.68825031834280      1.00948086921959     -3.61600437379725
  H   5.20726426318984     -0.84223056493914     -4.59967014732282
  H   7.54541875497395     -1.20371871680403     -5.39740425412614
  H   8.75335521069436      2.46681712394330     -3.49384491508822
  H   6.42348786658616      2.81766986068410     -2.69805049741033
  S   3.99624130898972      1.30741366564620     -3.04840373309974
  O   4.07680185169961      1.81410712773824     -1.63419608361814
  O   3.25761909609214     -0.00677759879308     -3.20399470153512
  O   3.41903960825948      2.37208136256279     -3.99289260224789
  C   9.73975632530510      0.38404801691715     -4.96605000208491
  H   10.41413292216421      0.23402347701774     -4.10953525182015
  H   9.81700641953151     -0.49918624790629     -5.61283228092709
  H   10.11642597178966      1.25178027421479     -5.52714045672822
  O   -2.68807574244390     -0.56556838275713     -1.84295948114055
  C   -3.98949919817176     -0.29012371638331     -1.32034577181100
  H   -4.51158266828024     -1.25068090869543     -1.30959229256784
  H   -4.53107226944185      0.41789890343110     -1.96534942656038
  H   -3.92665466199178      0.10386988481637     -0.29519275937638
