35
Coordinates from ORCA-job p-CH3O-Ph-N2-OTs-B3LYPG-aug-cc-pVDZ-scan-d09-49-n400
  C   -0.55247013074472     -0.02309441714581     -2.58120514232280
  C   0.55830771537484      0.81653401087832     -2.72499819720267
  C   0.37386439031712      2.02189807126322     -2.11701883724350
  C   -0.66934659966034      2.54529904904619     -1.40426964608847
  C   -1.75917318619737      1.66634227337983     -1.28184065461547
  C   -1.69721761290717      0.38771505591932     -1.86828288519686
  H   -0.53391754219336     -1.01500923870363     -3.02981936497748
  H   1.45900668758304      0.52429825996638     -3.28574381155053
  H   -0.67538630151643      3.54056163488140     -0.97016098516585
  H   -2.63106957507361      2.00364102412422     -0.72868904884519
  N   1.77890777292787      3.25208987111537     -2.25295767029126
  N   2.11488581314128      4.30634027303389     -2.17575718914134
  C   5.92632594145504     -0.07627366694460     -4.62178051482166
  C   7.29952611930147     -0.33580212271869     -4.70222116009245
  C   8.24534364222749      0.59478137772465     -4.25123078907914
  C   7.78085069528921      1.81092919090608     -3.71874549596955
  C   6.41764852233976      2.08811537403424     -3.63593070041986
  C   5.49860472815261      1.13690076033750     -4.08892010450304
  H   5.19275364839216     -0.80172253473599     -4.96860815945996
  H   7.63912781313247     -1.28186970859432     -5.12633897929239
  H   8.49823296099800      2.55505575270013     -3.36676834815787
  H   6.06588256095374      3.03442126359834     -3.22860401896442
  S   3.73337164114491      1.52280857744735     -3.99474941415726
  O   3.47999944768041      1.76183517002547     -2.48944321229115
  O   2.99117841734065      0.29613027770954     -4.47660846209170
  O   3.48954980370643      2.76893424214680     -4.79312055776072
  C   9.72489141239167      0.29922340897246     -4.31625455554591
  H   10.12870003701481      0.08266630510670     -3.31552735939970
  H   9.92917904989168     -0.56970488431142     -4.95486644443496
  H   10.28726492266182      1.15569854861514     -4.71451354501213
  O   -2.69738580630194     -0.52418435113058     -1.80392332795501
  C   -3.89965163237715     -0.17840022624119     -1.11436384663008
  H   -4.55023005253396     -1.05341792792559     -1.20041656516013
  H   -4.38565025443051      0.68935801908658     -1.58400144771679
  H   -3.70160504948176      0.02970128643265     -0.05251955844260
