35
Coordinates from ORCA-job p-CH3O-Ph-N2-OTs-B3LYPG-aug-cc-pVDZ-scan-d09-49-n400
  C   1.14303127476524      0.59838290411466     -2.84342222996702
  C   1.22735543686452      1.79896091978263     -3.70095499356565
  C   -0.01269492760216      2.62547742867650     -3.59889725706134
  C   -0.92217564661261      2.51996625689423     -2.49512430559400
  C   -0.79305992589556      1.49135386675682     -1.61201917694024
  C   0.23733645052392      0.49150090554451     -1.83127433544138
  H   1.87670793356963     -0.19193300735179     -2.98895201821803
  H   1.49273218834319      1.58233111998985     -4.73853166928018
  H   -1.70726210849243      3.26673972084335     -2.38277426087046
  H   -1.46981138740126      1.41597755351063     -0.76661171887102
  N   -0.20999560526983      3.55675290359124     -4.51485494427602
  N   -0.36230703258790      4.35299568125398     -5.31110516312225
  C   5.04618235468985      0.82162712426525     -4.91988739803089
  C   6.02714940783239     -0.14948954790963     -4.68636973417043
  C   6.80573976765437     -0.12946174182832     -3.52147727619178
  C   6.58266689786191      0.89529878461533     -2.58295937815417
  C   5.61395759750549      1.87286936594336     -2.79624739483590
  C   4.85099150535533      1.81974828003420     -3.96701608577148
  H   4.45603694725138      0.81808119148425     -5.83406999230528
  H   6.19263350645201     -0.92767702659347     -5.43282687943624
  H   7.18451202881339      0.93143693306475     -1.67362526773529
  H   5.45484885508119      2.67410347449640     -2.07676331052091
  S   3.60927072543634      3.09412375195342     -4.24314625049709
  O   2.40271884488428      2.68072741138305     -3.19546061603531
  O   3.10177531895061      2.96393842157505     -5.63629931287362
  O   4.13172658814610      4.38183395091191     -3.74000308450768
  C   7.87052432752922     -1.16887147734196     -3.27045926086261
  H   7.68708201853449     -1.70061358751949     -2.32530303005924
  H   7.90622407847916     -1.91469606806864     -4.07458631364963
  H   8.86357733691738     -0.70315304604975     -3.19268358971619
  O   0.33534948082643     -0.61596661119872     -1.03453917163874
  C   -0.74208865212088     -0.94879262581674     -0.16058466204477
  H   -0.48912190972941     -1.92988608247352      0.25267325082511
  H   -1.69416262399657     -1.01671811774628     -0.70671801553296
  H   -0.83715105255912     -0.22516901078708      0.66267484695275
