35
Coordinates from ORCA-job p-CH3O-Ph-N2-OTs-B3LYPG-aug-cc-pVDZ-scan-d09-49-n400
  C   -0.64741628223034      0.05860845086238     -2.58696908878815
  C   0.40021671655329      0.93248179254857     -2.82494880897663
  C   0.25397370606359      2.24132591766395     -2.33160644748105
  C   -0.86495314964752      2.68553481532846     -1.61909209633327
  C   -1.90228229106357      1.79095919755133     -1.39067628142266
  C   -1.79523497695951      0.46980159226611     -1.87576955045307
  H   -0.59155794362169     -0.96907962093773     -2.94128610626264
  H   1.30210652264963      0.60801393110983     -3.35388278629677
  H   -0.91747326458385      3.70914191573130     -1.25391773494158
  H   -2.77523669205140      2.12387985676848     -0.83742426435759
  N   1.30091175028234      3.20482475292610     -2.56201978627712
  N   2.19706984469516      3.79925988940682     -2.87391951618606
  C   6.05554913253431     -0.14901088034532     -4.50132881258770
  C   7.42564885066060     -0.31555333358823     -4.73140207345809
  C   8.35501599442934      0.65415694071808     -4.33179132466840
  C   7.87541579410336      1.81261562932242     -3.69405265177613
  C   6.51373158912149      1.99465312426571     -3.45841565411046
  C   5.61138372658056      1.00625189595370     -3.86323572243751
  H   5.33378374342951     -0.90383878417270     -4.80737735572603
  H   7.77755030086953     -1.21904143042500     -5.23220760110217
  H   8.58002795027974      2.58421131537689     -3.37724569715115
  H   6.14930636607400      2.89369398188321     -2.96403275694301
  S   3.84573526952293      1.23957674064081     -3.54588054770074
  O   3.67640344625903      1.44772223800321     -2.05839996426623
  O   3.14526802682315      0.00985884145772     -4.07357580294317
  O   3.44804557923082      2.50452906292387     -4.31925708497857
  C   9.83555252128735      0.45968282550536     -4.55839619211662
  H   10.35652357470850      0.25075100950914     -3.61148856874591
  H   10.02718454194075     -0.38104439010167     -5.23771410826098
  H   10.29640771454955      1.36005895799105     -4.98909497634412
  O   -2.74109472405312     -0.47373938665484     -1.70566725227319
  C   -3.93650822853793     -0.14496629684930     -0.98916235564400
  H   -4.52777904358054     -1.06448091050160     -0.97124097968126
  H   -4.49664400529393      0.64620715430918     -1.50769974911091
  H   -3.70633206102503      0.16475320355271      0.03997969980303
