Coordinates from ORCA-job 4-NO2-Ph-N2-BF4-B3LYPG-6-31G_dp-MTMO-d009-169-n800
 OpenBabel09051908343D

 20 18  0  0  0  0  0  0  0  0999 V2000
   -1.5643   -0.2690    0.5050 C   0  0  0  0  0  0  0  0  0  0  0  0
   -0.2659    0.2128    0.3679 C   0  0  0  0  0  0  0  0  0  0  0  0
   -0.0366    1.5659    0.5972 C   0  0  0  0  0  0  0  0  0  0  0  0
   -1.0429    2.4571    0.9567 C   0  0  0  0  0  0  0  0  0  0  0  0
   -2.3399    1.9716    1.0928 C   0  0  0  0  0  0  0  0  0  0  0  0
   -2.5803    0.6165    0.8647 C   0  0  0  0  0  0  0  0  0  0  0  0
   -1.8023   -1.3118    0.3379 H   0  0  0  0  0  0  0  0  0  0  0  0
    0.5588   -0.4325    0.0904 H   0  0  0  0  0  0  0  0  0  0  0  0
   -0.8042    3.5011    1.1242 H   0  0  0  0  0  0  0  0  0  0  0  0
   -3.1622    2.6188    1.3702 H   0  0  0  0  0  0  0  0  0  0  0  0
   -3.9509    0.1054    1.0084 N   0  0  0  0  0  0  0  0  0  0  0  0
   -4.1363   -1.0929    0.7999 O   0  0  0  0  0  0  0  0  0  0  0  0
   -4.8273    0.9077    1.3283 O   0  0  0  0  0  0  0  0  0  0  0  0
    7.4789    0.1387   -1.5624 N   0  0  0  0  0  0  0  0  0  0  0  0
    6.4317    0.2923   -1.2451 N   0  0  0  0  0  0  0  0  0  0  0  0
    3.5104    0.9564   -0.3642 B   0  0  0  0  0  0  0  0  0  0  0  0
    2.9603   -0.2493   -0.3415 F   0  0  0  0  0  0  0  0  0  0  0  0
    4.1076    1.4231    0.7124 F   0  0  0  0  0  0  0  0  0  0  0  0
    3.4850    1.6637   -1.4750 F   0  0  0  0  0  0  0  0  0  0  0  0
    1.2237    2.0432    0.4652 F   0  0  0  0  0  0  0  0  0  0  0  0
  1  6  1  0  0  0  0
  2  1  2  0  0  0  0
  2  3  1  0  0  0  0
  3  4  2  0  0  0  0
  4  5  1  0  0  0  0
  4  9  1  0  0  0  0
  5 10  1  0  0  0  0
  6 11  1  0  0  0  0
  6  5  2  0  0  0  0
  7  1  1  0  0  0  0
  8  2  1  0  0  0  0
 11 13  2  0  0  0  0
 12 11  2  0  0  0  0
 14 15  3  0  0  0  0
 16 17  1  0  0  0  0
 16 18  1  0  0  0  0
 19 16  1  0  0  0  0
 20  3  1  0  0  0  0
M  END
