Coordinates from ORCA-job 4-NO2-Ph-N2-BF4-B3LYPG-6-31G_dp-MTMO-d009-169-n800
 OpenBabel09051908343D

 20 18  0  0  0  0  0  0  0  0999 V2000
   -2.1371   -0.2181    0.6810 C   0  0  0  0  0  0  0  0  0  0  0  0
   -0.8457    0.2984    0.6296 C   0  0  0  0  0  0  0  0  0  0  0  0
   -0.6687    1.6545    0.8840 C   0  0  0  0  0  0  0  0  0  0  0  0
   -1.7187    2.5158    1.1859 C   0  0  0  0  0  0  0  0  0  0  0  0
   -3.0083    1.9952    1.2365 C   0  0  0  0  0  0  0  0  0  0  0  0
   -3.1970    0.6367    0.9832 C   0  0  0  0  0  0  0  0  0  0  0  0
   -2.3361   -1.2651    0.4909 H   0  0  0  0  0  0  0  0  0  0  0  0
    0.0102   -0.3236    0.3984 H   0  0  0  0  0  0  0  0  0  0  0  0
   -1.5188    3.5640    1.3763 H   0  0  0  0  0  0  0  0  0  0  0  0
   -3.8634    2.6177    1.4669 H   0  0  0  0  0  0  0  0  0  0  0  0
   -4.5599    0.0877    1.0369 N   0  0  0  0  0  0  0  0  0  0  0  0
   -4.6988   -1.1134    0.8099 O   0  0  0  0  0  0  0  0  0  0  0  0
   -5.4758    0.8638    1.3061 O   0  0  0  0  0  0  0  0  0  0  0  0
   13.2517   -0.7882   -3.4997 N   0  0  0  0  0  0  0  0  0  0  0  0
   12.2056   -0.6899   -3.1565 N   0  0  0  0  0  0  0  0  0  0  0  0
    2.7897    1.2891   -0.0024 B   0  0  0  0  0  0  0  0  0  0  0  0
    2.3698    0.0333    0.0591 F   0  0  0  0  0  0  0  0  0  0  0  0
    3.3924    1.8279    1.0372 F   0  0  0  0  0  0  0  0  0  0  0  0
    2.6681    1.9625   -1.1284 F   0  0  0  0  0  0  0  0  0  0  0  0
    0.5840    2.1706    0.8385 F   0  0  0  0  0  0  0  0  0  0  0  0
  1  6  1  0  0  0  0
  2  1  2  0  0  0  0
  2  3  1  0  0  0  0
  3  4  2  0  0  0  0
  4  5  1  0  0  0  0
  4  9  1  0  0  0  0
  5 10  1  0  0  0  0
  6 11  1  0  0  0  0
  6  5  2  0  0  0  0
  7  1  1  0  0  0  0
  8  2  1  0  0  0  0
 11 13  2  0  0  0  0
 12 11  2  0  0  0  0
 14 15  3  0  0  0  0
 16 17  1  0  0  0  0
 16 18  1  0  0  0  0
 19 16  1  0  0  0  0
 20  3  1  0  0  0  0
M  END
