Coordinates from ORCA-job 4-NO2-Ph-N2-BF4-B3LYPG-6-31G_dp-MTMO-d009-169-n800
 OpenBabel09051908343D

 20 18  0  0  0  0  0  0  0  0999 V2000
   -1.9757   -0.2386    0.6480 C   0  0  0  0  0  0  0  0  0  0  0  0
   -0.6775    0.2602    0.5935 C   0  0  0  0  0  0  0  0  0  0  0  0
   -0.4836    1.6177    0.8268 C   0  0  0  0  0  0  0  0  0  0  0  0
   -1.5235    2.4973    1.1105 C   0  0  0  0  0  0  0  0  0  0  0  0
   -2.8200    1.9945    1.1640 C   0  0  0  0  0  0  0  0  0  0  0  0
   -3.0255    0.6346    0.9319 C   0  0  0  0  0  0  0  0  0  0  0  0
   -2.1875   -1.2859    0.4739 H   0  0  0  0  0  0  0  0  0  0  0  0
    0.1710   -0.3766    0.3755 H   0  0  0  0  0  0  0  0  0  0  0  0
   -1.3106    3.5458    1.2848 H   0  0  0  0  0  0  0  0  0  0  0  0
   -3.6677    2.6318    1.3809 H   0  0  0  0  0  0  0  0  0  0  0  0
   -4.3956    0.1044    0.9890 N   0  0  0  0  0  0  0  0  0  0  0  0
   -4.5494   -1.0984    0.7814 O   0  0  0  0  0  0  0  0  0  0  0  0
   -5.3024    0.8968    1.2410 O   0  0  0  0  0  0  0  0  0  0  0  0
   11.6549   -0.4935   -3.0460 N   0  0  0  0  0  0  0  0  0  0  0  0
   10.6109   -0.4078   -2.6934 N   0  0  0  0  0  0  0  0  0  0  0  0
    2.9723    1.1911   -0.0456 B   0  0  0  0  0  0  0  0  0  0  0  0
    2.5297   -0.0569    0.0157 F   0  0  0  0  0  0  0  0  0  0  0  0
    3.5773    1.7215    0.9970 F   0  0  0  0  0  0  0  0  0  0  0  0
    2.8701    1.8641   -1.1737 F   0  0  0  0  0  0  0  0  0  0  0  0
    0.7760    2.1168    0.7782 F   0  0  0  0  0  0  0  0  0  0  0  0
  1  6  1  0  0  0  0
  2  1  2  0  0  0  0
  2  3  1  0  0  0  0
  3  4  2  0  0  0  0
  4  5  1  0  0  0  0
  4  9  1  0  0  0  0
  5 10  1  0  0  0  0
  6 11  1  0  0  0  0
  6  5  2  0  0  0  0
  7  1  1  0  0  0  0
  8  2  1  0  0  0  0
 11 13  2  0  0  0  0
 12 11  2  0  0  0  0
 14 15  3  0  0  0  0
 16 17  1  0  0  0  0
 16 18  1  0  0  0  0
 19 16  1  0  0  0  0
 20  3  1  0  0  0  0
M  END
