Coordinates from ORCA-job 4-NO2-Ph-N2-BF4-B3LYPG-6-31G_dp-MTMO-d009-169-n800
 OpenBabel09051908343D

 20 18  0  0  0  0  0  0  0  0999 V2000
   -1.5494   -0.2691    0.5027 C   0  0  0  0  0  0  0  0  0  0  0  0
   -0.2527    0.2186    0.3707 C   0  0  0  0  0  0  0  0  0  0  0  0
   -0.0303    1.5725    0.6024 C   0  0  0  0  0  0  0  0  0  0  0  0
   -1.0416    2.4590    0.9596 C   0  0  0  0  0  0  0  0  0  0  0  0
   -2.3369    1.9674    1.0907 C   0  0  0  0  0  0  0  0  0  0  0  0
   -2.5705    0.6116    0.8601 C   0  0  0  0  0  0  0  0  0  0  0  0
   -1.7823   -1.3127    0.3335 H   0  0  0  0  0  0  0  0  0  0  0  0
    0.5760   -0.4224    0.0950 H   0  0  0  0  0  0  0  0  0  0  0  0
   -0.8081    3.5038    1.1291 H   0  0  0  0  0  0  0  0  0  0  0  0
   -3.1630    2.6105    1.3660 H   0  0  0  0  0  0  0  0  0  0  0  0
   -3.9394    0.0942    0.9984 N   0  0  0  0  0  0  0  0  0  0  0  0
   -4.1187   -1.1047    0.7880 O   0  0  0  0  0  0  0  0  0  0  0  0
   -4.8204    0.8923    1.3159 O   0  0  0  0  0  0  0  0  0  0  0  0
    7.4063    0.0767   -1.5637 N   0  0  0  0  0  0  0  0  0  0  0  0
    6.3627    0.2489   -1.2440 N   0  0  0  0  0  0  0  0  0  0  0  0
    3.5157    0.9869   -0.3588 B   0  0  0  0  0  0  0  0  0  0  0  0
    2.9836   -0.2269   -0.3381 F   0  0  0  0  0  0  0  0  0  0  0  0
    4.1078    1.4601    0.7179 F   0  0  0  0  0  0  0  0  0  0  0  0
    3.4762    1.6972   -1.4674 F   0  0  0  0  0  0  0  0  0  0  0  0
    1.2284    2.0551    0.4751 F   0  0  0  0  0  0  0  0  0  0  0  0
  1  6  1  0  0  0  0
  2  1  2  0  0  0  0
  2  3  1  0  0  0  0
  3  4  2  0  0  0  0
  4  5  1  0  0  0  0
  4  9  1  0  0  0  0
  5 10  1  0  0  0  0
  6 11  1  0  0  0  0
  6  5  2  0  0  0  0
  7  1  1  0  0  0  0
  8  2  1  0  0  0  0
 11 13  2  0  0  0  0
 12 11  2  0  0  0  0
 14 15  3  0  0  0  0
 16 17  1  0  0  0  0
 16 18  1  0  0  0  0
 19 16  1  0  0  0  0
 20  3  1  0  0  0  0
M  END
