Coordinates from ORCA-job 4-NO2-Ph-N2-BF4-B3LYPG-6-31G_dp-MTMO-d009-169-n800
 OpenBabel09051908343D

 20 18  0  0  0  0  0  0  0  0999 V2000
   -1.7769   -0.2610    0.5932 C   0  0  0  0  0  0  0  0  0  0  0  0
   -0.4732    0.2213    0.5215 C   0  0  0  0  0  0  0  0  0  0  0  0
   -0.2601    1.5775    0.7458 C   0  0  0  0  0  0  0  0  0  0  0  0
   -1.2856    2.4714    1.0368 C   0  0  0  0  0  0  0  0  0  0  0  0
   -2.5875    1.9850    1.1074 C   0  0  0  0  0  0  0  0  0  0  0  0
   -2.8125    0.6265    0.8844 C   0  0  0  0  0  0  0  0  0  0  0  0
   -2.0035   -1.3065    0.4267 H   0  0  0  0  0  0  0  0  0  0  0  0
    0.3648   -0.4270    0.2971 H   0  0  0  0  0  0  0  0  0  0  0  0
   -1.0578    3.5179    1.2034 H   0  0  0  0  0  0  0  0  0  0  0  0
   -3.4248    2.6339    1.3304 H   0  0  0  0  0  0  0  0  0  0  0  0
   -4.1884    0.1138    0.9594 N   0  0  0  0  0  0  0  0  0  0  0  0
   -4.3594   -1.0880    0.7596 O   0  0  0  0  0  0  0  0  0  0  0  0
   -5.0824    0.9187    1.2174 O   0  0  0  0  0  0  0  0  0  0  0  0
    9.7173   -0.1670   -2.4208 N   0  0  0  0  0  0  0  0  0  0  0  0
    8.6748   -0.0824   -2.0635 N   0  0  0  0  0  0  0  0  0  0  0  0
    3.1840    1.0924   -0.1554 B   0  0  0  0  0  0  0  0  0  0  0  0
    2.7181   -0.1475   -0.0991 F   0  0  0  0  0  0  0  0  0  0  0  0
    3.8017    1.6060    0.8880 F   0  0  0  0  0  0  0  0  0  0  0  0
    3.0901    1.7732   -1.2795 F   0  0  0  0  0  0  0  0  0  0  0  0
    1.0048    2.0607    0.6803 F   0  0  0  0  0  0  0  0  0  0  0  0
  1  6  1  0  0  0  0
  2  1  2  0  0  0  0
  2  3  1  0  0  0  0
  3  4  2  0  0  0  0
  4  5  1  0  0  0  0
  4  9  1  0  0  0  0
  5 10  1  0  0  0  0
  6 11  1  0  0  0  0
  6  5  2  0  0  0  0
  7  1  1  0  0  0  0
  8  2  1  0  0  0  0
 11 13  2  0  0  0  0
 12 11  2  0  0  0  0
 14 15  3  0  0  0  0
 16 17  1  0  0  0  0
 16 18  1  0  0  0  0
 19 16  1  0  0  0  0
 20  3  1  0  0  0  0
M  END
