Coordinates from ORCA-job 4-NO2-Ph-N2-BF4-B3LYPG-6-31G_dp-MTMO-d009-169-n800
 OpenBabel09051908343D

 20 18  0  0  0  0  0  0  0  0999 V2000
   -2.0760   -0.2259    0.6701 C   0  0  0  0  0  0  0  0  0  0  0  0
   -0.7815    0.2829    0.6180 C   0  0  0  0  0  0  0  0  0  0  0  0
   -0.5974    1.6399    0.8621 C   0  0  0  0  0  0  0  0  0  0  0  0
   -1.6435    2.5094    1.1542 C   0  0  0  0  0  0  0  0  0  0  0  0
   -2.9361    1.9966    1.2054 C   0  0  0  0  0  0  0  0  0  0  0  0
   -3.1318    0.6371    0.9625 C   0  0  0  0  0  0  0  0  0  0  0  0
   -2.2802   -1.2733    0.4878 H   0  0  0  0  0  0  0  0  0  0  0  0
    0.0713   -0.3459    0.3940 H   0  0  0  0  0  0  0  0  0  0  0  0
   -1.4381    3.5580    1.3368 H   0  0  0  0  0  0  0  0  0  0  0  0
   -3.7882    2.6258    1.4285 H   0  0  0  0  0  0  0  0  0  0  0  0
   -4.4979    0.0963    1.0169 N   0  0  0  0  0  0  0  0  0  0  0  0
   -4.6430   -1.1058    0.7993 O   0  0  0  0  0  0  0  0  0  0  0  0
   -5.4102    0.8798    1.2768 O   0  0  0  0  0  0  0  0  0  0  0  0
   12.6400   -0.6693   -3.3314 N   0  0  0  0  0  0  0  0  0  0  0  0
   11.5948   -0.5762   -2.9843 N   0  0  0  0  0  0  0  0  0  0  0  0
    2.8605    1.2461   -0.0138 B   0  0  0  0  0  0  0  0  0  0  0  0
    2.4301   -0.0061    0.0477 F   0  0  0  0  0  0  0  0  0  0  0  0
    3.4630    1.7815    1.0277 F   0  0  0  0  0  0  0  0  0  0  0  0
    2.7493    1.9189   -1.1412 F   0  0  0  0  0  0  0  0  0  0  0  0
    0.6583    2.1489    0.8160 F   0  0  0  0  0  0  0  0  0  0  0  0
  1  6  1  0  0  0  0
  2  1  2  0  0  0  0
  2  3  1  0  0  0  0
  3  4  2  0  0  0  0
  4  5  1  0  0  0  0
  4  9  1  0  0  0  0
  5 10  1  0  0  0  0
  6 11  1  0  0  0  0
  6  5  2  0  0  0  0
  7  1  1  0  0  0  0
  8  2  1  0  0  0  0
 11 13  2  0  0  0  0
 12 11  2  0  0  0  0
 14 15  3  0  0  0  0
 16 17  1  0  0  0  0
 16 18  1  0  0  0  0
 19 16  1  0  0  0  0
 20  3  1  0  0  0  0
M  END
