Coordinates from ORCA-job 4-NO2-Ph-N2-BF4-B3LYPG-6-31G_dp-MTMO-d009-169-n800
 OpenBabel09051908343D

 20 18  0  0  0  0  0  0  0  0999 V2000
   -2.0264   -0.2324    0.6596 C   0  0  0  0  0  0  0  0  0  0  0  0
   -0.7298    0.2710    0.6064 C   0  0  0  0  0  0  0  0  0  0  0  0
   -0.5404    1.6283    0.8442 C   0  0  0  0  0  0  0  0  0  0  0  0
   -1.5832    2.5034    1.1313 C   0  0  0  0  0  0  0  0  0  0  0  0
   -2.8779    1.9961    1.1836 C   0  0  0  0  0  0  0  0  0  0  0  0
   -3.0790    0.6363    0.9469 C   0  0  0  0  0  0  0  0  0  0  0  0
   -2.2347   -1.2798    0.4821 H   0  0  0  0  0  0  0  0  0  0  0  0
    0.1206   -0.3623    0.3860 H   0  0  0  0  0  0  0  0  0  0  0  0
   -1.3737    3.5520    1.3091 H   0  0  0  0  0  0  0  0  0  0  0  0
   -3.7277    2.6299    1.4029 H   0  0  0  0  0  0  0  0  0  0  0  0
   -4.4473    0.1013    1.0027 N   0  0  0  0  0  0  0  0  0  0  0  0
   -4.5971   -1.1012    0.7909 O   0  0  0  0  0  0  0  0  0  0  0  0
   -5.3566    0.8899    1.2579 O   0  0  0  0  0  0  0  0  0  0  0  0
   12.1477   -0.5789   -3.1902 N   0  0  0  0  0  0  0  0  0  0  0  0
   11.1030   -0.4898   -2.8405 N   0  0  0  0  0  0  0  0  0  0  0  0
    2.9169    1.2169   -0.0281 B   0  0  0  0  0  0  0  0  0  0  0  0
    2.4798   -0.0331    0.0330 F   0  0  0  0  0  0  0  0  0  0  0  0
    3.5201    1.7495    1.0144 F   0  0  0  0  0  0  0  0  0  0  0  0
    2.8115    1.8898   -1.1560 F   0  0  0  0  0  0  0  0  0  0  0  0
    0.7174    2.1319    0.7969 F   0  0  0  0  0  0  0  0  0  0  0  0
  1  6  1  0  0  0  0
  2  1  2  0  0  0  0
  2  3  1  0  0  0  0
  3  4  2  0  0  0  0
  4  5  1  0  0  0  0
  4  9  1  0  0  0  0
  5 10  1  0  0  0  0
  6 11  1  0  0  0  0
  6  5  2  0  0  0  0
  7  1  1  0  0  0  0
  8  2  1  0  0  0  0
 11 13  2  0  0  0  0
 12 11  2  0  0  0  0
 14 15  3  0  0  0  0
 16 17  1  0  0  0  0
 16 18  1  0  0  0  0
 19 16  1  0  0  0  0
 20  3  1  0  0  0  0
M  END
