Coordinates from ORCA-job 4-NO2-Ph-N2-BF4-B3LYPG-6-31G_dp-MTMO-d009-169-n800
 OpenBabel09051908343D

 20 18  0  0  0  0  0  0  0  0999 V2000
   -1.0670   -0.0901    0.5299 C   0  0  0  0  0  0  0  0  0  0  0  0
    0.2756    0.2183    0.2171 C   0  0  0  0  0  0  0  0  0  0  0  0
    0.3274    1.4779   -0.2433 C   0  0  0  0  0  0  0  0  0  0  0  0
   -0.5137    2.5174   -0.4820 C   0  0  0  0  0  0  0  0  0  0  0  0
   -1.8271    2.1500   -0.1434 C   0  0  0  0  0  0  0  0  0  0  0  0
   -2.0677    0.8651    0.3472 C   0  0  0  0  0  0  0  0  0  0  0  0
   -1.3139   -1.0687    0.9252 H   0  0  0  0  0  0  0  0  0  0  0  0
    1.1513   -0.4532    0.3601 H   0  0  0  0  0  0  0  0  0  0  0  0
   -0.2380    3.4879   -0.8690 H   0  0  0  0  0  0  0  0  0  0  0  0
   -2.6442    2.8509   -0.2634 H   0  0  0  0  0  0  0  0  0  0  0  0
   -3.4617    0.5024    0.6900 N   0  0  0  0  0  0  0  0  0  0  0  0
   -3.6551   -0.6313    1.1129 O   0  0  0  0  0  0  0  0  0  0  0  0
   -4.3185    1.3650    0.5219 O   0  0  0  0  0  0  0  0  0  0  0  0
    2.2191    1.9878   -0.8168 N   0  0  0  0  0  0  0  0  0  0  0  0
    3.2427    2.1705   -1.1876 N   0  0  0  0  0  0  0  0  0  0  0  0
    3.4677   -0.0463    1.2150 B   0  0  0  0  0  0  0  0  0  0  0  0
    2.6794   -1.0480    0.5160 F   0  0  0  0  0  0  0  0  0  0  0  0
    3.9886   -0.5816    2.3612 F   0  0  0  0  0  0  0  0  0  0  0  0
    4.4384    0.4283    0.3336 F   0  0  0  0  0  0  0  0  0  0  0  0
    2.5600    1.0168    1.5086 F   0  0  0  0  0  0  0  0  0  0  0  0
  1  7  1  0  0  0  0
  2  8  1  0  0  0  0
  2  1  2  0  0  0  0
  3  2  1  0  0  0  0
  4  3  2  0  0  0  0
  4  5  1  0  0  0  0
  5  6  2  0  0  0  0
  6  1  1  0  0  0  0
  6 11  1  0  0  0  0
  9  4  1  0  0  0  0
 10  5  1  0  0  0  0
 11 12  2  0  0  0  0
 13 11  2  0  0  0  0
 15 14  3  0  0  0  0
 16 20  1  0  0  0  0
 16 18  1  0  0  0  0
 17 16  1  0  0  0  0
 19 16  1  0  0  0  0
M  RAD  1   3   2
M  END
