Coordinates from ORCA-job 4-NO2-Ph-N2-BF4-B3LYPG-6-31G_dp-MTMO-d009-169-n800
 OpenBabel09051908343D

 20 19  0  0  0  0  0  0  0  0999 V2000
   -1.1237   -0.1201    0.5632 C   0  0  0  0  0  0  0  0  0  0  0  0
    0.2198    0.1360    0.2687 C   0  0  0  0  0  0  0  0  0  0  0  0
    0.4299    1.3966   -0.2300 C   0  0  0  0  0  0  0  0  0  0  0  0
   -0.4451    2.4310   -0.4806 C   0  0  0  0  0  0  0  0  0  0  0  0
   -1.7730    2.1355   -0.1649 C   0  0  0  0  0  0  0  0  0  0  0  0
   -2.0778    0.8733    0.3445 C   0  0  0  0  0  0  0  0  0  0  0  0
   -1.4284   -1.0782    0.9656 H   0  0  0  0  0  0  0  0  0  0  0  0
    1.0465   -0.5609    0.4102 H   0  0  0  0  0  0  0  0  0  0  0  0
   -0.1403    3.3898   -0.8787 H   0  0  0  0  0  0  0  0  0  0  0  0
   -2.5609    2.8635   -0.3105 H   0  0  0  0  0  0  0  0  0  0  0  0
   -3.4943    0.5767    0.6672 N   0  0  0  0  0  0  0  0  0  0  0  0
   -3.7446   -0.5377    1.1116 O   0  0  0  0  0  0  0  0  0  0  0  0
   -4.3114    1.4694    0.4626 O   0  0  0  0  0  0  0  0  0  0  0  0
    2.0373    1.7532   -0.6573 N   0  0  0  0  0  0  0  0  0  0  0  0
    3.0288    2.0407   -1.0536 N   0  0  0  0  0  0  0  0  0  0  0  0
    3.5517    0.0532    1.1537 B   0  0  0  0  0  0  0  0  0  0  0  0
    2.8785   -0.8012    0.2150 F   0  0  0  0  0  0  0  0  0  0  0  0
    4.0787   -0.6652    2.1889 F   0  0  0  0  0  0  0  0  0  0  0  0
    4.5157    0.7880    0.4437 F   0  0  0  0  0  0  0  0  0  0  0  0
    2.5559    0.9753    1.6139 F   0  0  0  0  0  0  0  0  0  0  0  0
  1  7  1  0  0  0  0
  2  8  1  0  0  0  0
  2  1  2  0  0  0  0
  3  2  1  0  0  0  0
  4  3  2  0  0  0  0
  4  5  1  0  0  0  0
  5  6  2  0  0  0  0
  6  1  1  0  0  0  0
  6 11  1  0  0  0  0
  9  4  1  0  0  0  0
 10  5  1  0  0  0  0
 11 12  2  0  0  0  0
 13 11  2  0  0  0  0
 14  3  1  0  0  0  0
 15 14  1  0  0  0  0
 16 20  1  0  0  0  0
 16 18  1  0  0  0  0
 17 16  1  0  0  0  0
 19 16  1  0  0  0  0
M  RAD  2  14   2  15   3
M  END
