Coordinates from ORCA-job 4-NO2-Ph-N2-BF4-B3LYPG-6-31G_dp-MTMO-d009-169-n800
 OpenBabel09051908343D

 20 19  0  0  0  0  0  0  0  0999 V2000
   -1.1181   -0.1194    0.5537 C   0  0  0  0  0  0  0  0  0  0  0  0
    0.2209    0.1324    0.2626 C   0  0  0  0  0  0  0  0  0  0  0  0
    0.5029    1.3968   -0.2466 C   0  0  0  0  0  0  0  0  0  0  0  0
   -0.4204    2.4170   -0.4826 C   0  0  0  0  0  0  0  0  0  0  0  0
   -1.7465    2.1407   -0.1714 C   0  0  0  0  0  0  0  0  0  0  0  0
   -2.0636    0.8805    0.3358 C   0  0  0  0  0  0  0  0  0  0  0  0
   -1.4321   -1.0753    0.9535 H   0  0  0  0  0  0  0  0  0  0  0  0
    1.0284   -0.5809    0.4107 H   0  0  0  0  0  0  0  0  0  0  0  0
   -0.1178    3.3782   -0.8802 H   0  0  0  0  0  0  0  0  0  0  0  0
   -2.5285    2.8748   -0.3159 H   0  0  0  0  0  0  0  0  0  0  0  0
   -3.4845    0.5950    0.6561 N   0  0  0  0  0  0  0  0  0  0  0  0
   -3.7452   -0.5190    1.0951 O   0  0  0  0  0  0  0  0  0  0  0  0
   -4.2929    1.4963    0.4548 O   0  0  0  0  0  0  0  0  0  0  0  0
    1.9036    1.7053   -0.6144 N   0  0  0  0  0  0  0  0  0  0  0  0
    2.9065    2.0077   -0.9827 N   0  0  0  0  0  0  0  0  0  0  0  0
    3.5573    0.0575    1.1530 B   0  0  0  0  0  0  0  0  0  0  0  0
    2.9071   -0.8309    0.2397 F   0  0  0  0  0  0  0  0  0  0  0  0
    4.1893   -0.6191    2.1557 F   0  0  0  0  0  0  0  0  0  0  0  0
    4.4412    0.8622    0.3968 F   0  0  0  0  0  0  0  0  0  0  0  0
    2.5356    0.9192    1.6597 F   0  0  0  0  0  0  0  0  0  0  0  0
  1  7  1  0  0  0  0
  2  8  1  0  0  0  0
  2  1  2  0  0  0  0
  3  2  1  0  0  0  0
  4  3  2  0  0  0  0
  4  5  1  0  0  0  0
  5  6  2  0  0  0  0
  6  1  1  0  0  0  0
  6 11  1  0  0  0  0
  9  4  1  0  0  0  0
 10  5  1  0  0  0  0
 11 12  2  0  0  0  0
 13 11  2  0  0  0  0
 14  3  1  0  0  0  0
 15 14  1  0  0  0  0
 16 20  1  0  0  0  0
 16 18  1  0  0  0  0
 17 16  1  0  0  0  0
 19 16  1  0  0  0  0
M  RAD  2  14   2  15   3
M  END
