Coordinates from ORCA-job 4-NO2-Ph-N2-BF4-B3LYPG-6-31G_dp-MTMO-d009-169-n800
 OpenBabel09051908343D

 20 18  0  0  0  0  0  0  0  0999 V2000
   -2.0790   -0.1989    0.5668 C   0  0  0  0  0  0  0  0  0  0  0  0
   -0.8705    0.4916    0.5797 C   0  0  0  0  0  0  0  0  0  0  0  0
   -0.8741    1.8167    1.0030 C   0  0  0  0  0  0  0  0  0  0  0  0
   -2.0256    2.4820    1.4118 C   0  0  0  0  0  0  0  0  0  0  0  0
   -3.2316    1.7879    1.3975 C   0  0  0  0  0  0  0  0  0  0  0  0
   -3.2392    0.4585    0.9754 C   0  0  0  0  0  0  0  0  0  0  0  0
   -2.1372   -1.2314    0.2470 H   0  0  0  0  0  0  0  0  0  0  0  0
    0.0571    0.0262    0.2706 H   0  0  0  0  0  0  0  0  0  0  0  0
   -1.9665    3.5157    1.7319 H   0  0  0  0  0  0  0  0  0  0  0  0
   -4.1586    2.2541    1.7054 H   0  0  0  0  0  0  0  0  0  0  0  0
   -4.5141   -0.2742    0.9606 N   0  0  0  0  0  0  0  0  0  0  0  0
   -4.4935   -1.4452    0.5844 O   0  0  0  0  0  0  0  0  0  0  0  0
   -5.5218    0.3304    1.3250 O   0  0  0  0  0  0  0  0  0  0  0  0
   14.3165   -1.8648   -3.8934 N   0  0  0  0  0  0  0  0  0  0  0  0
   13.2921   -1.6667   -3.5286 N   0  0  0  0  0  0  0  0  0  0  0  0
    2.5813    2.0418    0.0762 B   0  0  0  0  0  0  0  0  0  0  0  0
    2.3362    0.7430   -0.0262 F   0  0  0  0  0  0  0  0  0  0  0  0
    3.1311    2.5188    1.1737 F   0  0  0  0  0  0  0  0  0  0  0  0
    2.3444    2.8325   -0.9507 F   0  0  0  0  0  0  0  0  0  0  0  0
    0.2964    2.5009    1.0232 F   0  0  0  0  0  0  0  0  0  0  0  0
  1  2  2  0  0  0  0
  1  6  1  0  0  0  0
  2  3  1  0  0  0  0
  3 20  1  0  0  0  0
  3  4  2  0  0  0  0
  4  9  1  0  0  0  0
  5  4  1  0  0  0  0
  5 10  1  0  0  0  0
  6  5  2  0  0  0  0
  7  1  1  0  0  0  0
  8  2  1  0  0  0  0
 11  6  1  0  0  0  0
 11 13  2  0  0  0  0
 12 11  2  0  0  0  0
 14 15  3  0  0  0  0
 16 18  1  0  0  0  0
 17 16  1  0  0  0  0
 19 16  1  0  0  0  0
M  END
