Coordinates from ORCA-job 4-NO2-Ph-N2-BF4-B3LYPG-6-31G_dp-MTMO-d009-169-n800
 OpenBabel09051908343D

 20 18  0  0  0  0  0  0  0  0999 V2000
   -2.1424   -0.2169    0.6815 C   0  0  0  0  0  0  0  0  0  0  0  0
   -0.8518    0.3016    0.6307 C   0  0  0  0  0  0  0  0  0  0  0  0
   -0.6766    1.6575    0.8870 C   0  0  0  0  0  0  0  0  0  0  0  0
   -1.7280    2.5167    1.1903 C   0  0  0  0  0  0  0  0  0  0  0  0
   -3.0168    1.9942    1.2403 C   0  0  0  0  0  0  0  0  0  0  0  0
   -3.2035    0.6358    0.9851 C   0  0  0  0  0  0  0  0  0  0  0  0
   -2.3398   -1.2639    0.4900 H   0  0  0  0  0  0  0  0  0  0  0  0
    0.0047   -0.3191    0.3985 H   0  0  0  0  0  0  0  0  0  0  0  0
   -1.5296    3.5649    1.3821 H   0  0  0  0  0  0  0  0  0  0  0  0
   -3.8727    2.6152    1.4718 H   0  0  0  0  0  0  0  0  0  0  0  0
   -4.5656    0.0846    1.0383 N   0  0  0  0  0  0  0  0  0  0  0  0
   -4.7027   -1.1162    0.8092 O   0  0  0  0  0  0  0  0  0  0  0  0
   -5.4826    0.8590    1.3086 O   0  0  0  0  0  0  0  0  0  0  0  0
   13.3185   -0.8050   -3.5189 N   0  0  0  0  0  0  0  0  0  0  0  0
   12.2725   -0.7059   -3.1760 N   0  0  0  0  0  0  0  0  0  0  0  0
    2.7807    1.2960   -0.0007 B   0  0  0  0  0  0  0  0  0  0  0  0
    2.3624    0.0397    0.0612 F   0  0  0  0  0  0  0  0  0  0  0  0
    3.3839    1.8355    1.0383 F   0  0  0  0  0  0  0  0  0  0  0  0
    2.6574    1.9693   -1.1266 F   0  0  0  0  0  0  0  0  0  0  0  0
    0.5753    2.1759    0.8422 F   0  0  0  0  0  0  0  0  0  0  0  0
  1  6  1  0  0  0  0
  2  1  2  0  0  0  0
  2  3  1  0  0  0  0
  3  4  2  0  0  0  0
  4  5  1  0  0  0  0
  4  9  1  0  0  0  0
  5 10  1  0  0  0  0
  6 11  1  0  0  0  0
  6  5  2  0  0  0  0
  7  1  1  0  0  0  0
  8  2  1  0  0  0  0
 11 13  2  0  0  0  0
 12 11  2  0  0  0  0
 14 15  3  0  0  0  0
 16 17  1  0  0  0  0
 16 18  1  0  0  0  0
 19 16  1  0  0  0  0
 20  3  1  0  0  0  0
M  END
