Coordinates from ORCA-job 4-NO2-Ph-N2-BF4-B3LYPG-6-31G_dp-MTMO-d009-169-n800
 OpenBabel09051908343D

 20 18  0  0  0  0  0  0  0  0999 V2000
   -2.0905   -0.1970    0.5689 C   0  0  0  0  0  0  0  0  0  0  0  0
   -0.8817    0.4928    0.5796 C   0  0  0  0  0  0  0  0  0  0  0  0
   -0.8838    1.8178    1.0036 C   0  0  0  0  0  0  0  0  0  0  0  0
   -2.0340    2.4837    1.4150 C   0  0  0  0  0  0  0  0  0  0  0  0
   -3.2404    1.7901    1.4027 C   0  0  0  0  0  0  0  0  0  0  0  0
   -3.2496    0.4609    0.9801 C   0  0  0  0  0  0  0  0  0  0  0  0
   -2.1500   -1.2293    0.2488 H   0  0  0  0  0  0  0  0  0  0  0  0
    0.0452    0.0274    0.2686 H   0  0  0  0  0  0  0  0  0  0  0  0
   -1.9738    3.5171    1.7354 H   0  0  0  0  0  0  0  0  0  0  0  0
   -4.1666    2.2566    1.7125 H   0  0  0  0  0  0  0  0  0  0  0  0
   -4.5249   -0.2710    0.9674 N   0  0  0  0  0  0  0  0  0  0  0  0
   -4.5056   -1.4419    0.5908 O   0  0  0  0  0  0  0  0  0  0  0  0
   -5.5316    0.3340    1.3339 O   0  0  0  0  0  0  0  0  0  0  0  0
   14.4044   -1.8769   -3.9148 N   0  0  0  0  0  0  0  0  0  0  0  0
   13.3798   -1.6814   -3.5495 N   0  0  0  0  0  0  0  0  0  0  0  0
    2.5729    2.0414    0.0751 B   0  0  0  0  0  0  0  0  0  0  0  0
    2.3251    0.7438   -0.0343 F   0  0  0  0  0  0  0  0  0  0  0  0
    3.1226    2.5116    1.1756 F   0  0  0  0  0  0  0  0  0  0  0  0
    2.3386    2.8381   -0.9479 F   0  0  0  0  0  0  0  0  0  0  0  0
    0.2872    2.5010    1.0219 F   0  0  0  0  0  0  0  0  0  0  0  0
  1  2  2  0  0  0  0
  1  6  1  0  0  0  0
  2  3  1  0  0  0  0
  3 20  1  0  0  0  0
  3  4  2  0  0  0  0
  4  9  1  0  0  0  0
  5  4  1  0  0  0  0
  5 10  1  0  0  0  0
  6  5  2  0  0  0  0
  7  1  1  0  0  0  0
  8  2  1  0  0  0  0
 11  6  1  0  0  0  0
 11 13  2  0  0  0  0
 12 11  2  0  0  0  0
 14 15  3  0  0  0  0
 16 18  1  0  0  0  0
 17 16  1  0  0  0  0
 19 16  1  0  0  0  0
M  END
