Coordinates from ORCA-job 4-NO2-Ph-N2-BF4-B3LYPG-6-31G_dp-MTMO-d009-169-n800
 OpenBabel09051908343D

 20 18  0  0  0  0  0  0  0  0999 V2000
   -1.5010   -0.3463    0.7871 C   0  0  0  0  0  0  0  0  0  0  0  0
   -0.1538   -0.1709    0.4852 C   0  0  0  0  0  0  0  0  0  0  0  0
    0.2861    1.1073    0.1569 C   0  0  0  0  0  0  0  0  0  0  0  0
   -0.5540    2.2151    0.1184 C   0  0  0  0  0  0  0  0  0  0  0  0
   -1.9004    2.0353    0.4204 C   0  0  0  0  0  0  0  0  0  0  0  0
   -2.3526    0.7577    0.7497 C   0  0  0  0  0  0  0  0  0  0  0  0
   -1.9004   -1.3174    1.0504 H   0  0  0  0  0  0  0  0  0  0  0  0
    0.5486   -0.9952    0.5038 H   0  0  0  0  0  0  0  0  0  0  0  0
   -0.1532    3.1870   -0.1451 H   0  0  0  0  0  0  0  0  0  0  0  0
   -2.6004    2.8610    0.4057 H   0  0  0  0  0  0  0  0  0  0  0  0
   -3.7756    0.5688    1.0682 N   0  0  0  0  0  0  0  0  0  0  0  0
   -4.1488   -0.5679    1.3544 O   0  0  0  0  0  0  0  0  0  0  0  0
   -4.5042    1.5593    1.0289 O   0  0  0  0  0  0  0  0  0  0  0  0
    4.6294    2.2468   -2.3961 N   0  0  0  0  0  0  0  0  0  0  0  0
    5.6910    2.1727   -2.6943 N   0  0  0  0  0  0  0  0  0  0  0  0
    3.4942    0.1427    0.9619 B   0  0  0  0  0  0  0  0  0  0  0  0
    3.0004   -1.0484    0.6578 F   0  0  0  0  0  0  0  0  0  0  0  0
    3.1776    0.7058    2.1112 F   0  0  0  0  0  0  0  0  0  0  0  0
    4.3642    0.7168    0.1551 F   0  0  0  0  0  0  0  0  0  0  0  0
    1.5961    1.2887   -0.1463 F   0  0  0  0  0  0  0  0  0  0  0  0
  1  7  1  0  0  0  0
  2  8  1  0  0  0  0
  2  1  2  0  0  0  0
  3  2  1  0  0  0  0
  4  3  2  0  0  0  0
  4  5  1  0  0  0  0
  5  6  2  0  0  0  0
  6  1  1  0  0  0  0
  6 11  1  0  0  0  0
  9  4  1  0  0  0  0
 10  5  1  0  0  0  0
 11 12  2  0  0  0  0
 13 11  2  0  0  0  0
 15 14  3  0  0  0  0
 16 18  1  0  0  0  0
 17 16  1  0  0  0  0
 19 16  1  0  0  0  0
 20  3  1  0  0  0  0
M  END
