Coordinates from ORCA-job 4-NO2-Ph-N2-BF4-B3LYPG-6-31G_dp-MTMO-d009-169-n800
 OpenBabel09051908343D

 20 18  0  0  0  0  0  0  0  0999 V2000
   -1.9019   -0.2480    0.6298 C   0  0  0  0  0  0  0  0  0  0  0  0
   -0.6011    0.2436    0.5716 C   0  0  0  0  0  0  0  0  0  0  0  0
   -0.3997    1.6010    0.7994 C   0  0  0  0  0  0  0  0  0  0  0  0
   -1.4342    2.4875    1.0810 C   0  0  0  0  0  0  0  0  0  0  0  0
   -2.7333    1.9918    1.1383 C   0  0  0  0  0  0  0  0  0  0  0  0
   -2.9465    0.6321    0.9118 C   0  0  0  0  0  0  0  0  0  0  0  0
   -2.1197   -1.2948    0.4602 H   0  0  0  0  0  0  0  0  0  0  0  0
    0.2440   -0.3981    0.3548 H   0  0  0  0  0  0  0  0  0  0  0  0
   -1.2154    3.5355    1.2510 H   0  0  0  0  0  0  0  0  0  0  0  0
   -3.5773    2.6344    1.3538 H   0  0  0  0  0  0  0  0  0  0  0  0
   -4.3194    0.1097    0.9729 N   0  0  0  0  0  0  0  0  0  0  0  0
   -4.4800   -1.0931    0.7704 O   0  0  0  0  0  0  0  0  0  0  0  0
   -5.2215    0.9081    1.2229 O   0  0  0  0  0  0  0  0  0  0  0  0
   10.9274   -0.3660   -2.8234 N   0  0  0  0  0  0  0  0  0  0  0  0
    9.8842   -0.2852   -2.4671 N   0  0  0  0  0  0  0  0  0  0  0  0
    3.0539    1.1531   -0.0793 B   0  0  0  0  0  0  0  0  0  0  0  0
    2.6036   -0.0922   -0.0187 F   0  0  0  0  0  0  0  0  0  0  0  0
    3.6627    1.6791    0.9634 F   0  0  0  0  0  0  0  0  0  0  0  0
    2.9549    1.8278   -1.2067 F   0  0  0  0  0  0  0  0  0  0  0  0
    0.8626    2.0926    0.7470 F   0  0  0  0  0  0  0  0  0  0  0  0
  1  6  1  0  0  0  0
  2  1  2  0  0  0  0
  2  3  1  0  0  0  0
  3  4  2  0  0  0  0
  4  5  1  0  0  0  0
  4  9  1  0  0  0  0
  5 10  1  0  0  0  0
  6 11  1  0  0  0  0
  6  5  2  0  0  0  0
  7  1  1  0  0  0  0
  8  2  1  0  0  0  0
 11 13  2  0  0  0  0
 12 11  2  0  0  0  0
 14 15  3  0  0  0  0
 16 17  1  0  0  0  0
 16 18  1  0  0  0  0
 19 16  1  0  0  0  0
 20  3  1  0  0  0  0
M  END
