Coordinates from ORCA-job 4-NO2-Ph-N2-BF4-B3LYPG-6-31G_dp-MTMO-d009-169-n800
 OpenBabel09051908343D

 20 18  0  0  0  0  0  0  0  0999 V2000
   -1.5528   -0.3595    0.8572 C   0  0  0  0  0  0  0  0  0  0  0  0
   -0.2357   -0.1568    0.4561 C   0  0  0  0  0  0  0  0  0  0  0  0
    0.1441    1.1233    0.0668 C   0  0  0  0  0  0  0  0  0  0  0  0
   -0.7269    2.2076    0.0618 C   0  0  0  0  0  0  0  0  0  0  0  0
   -2.0432    2.0006    0.4630 C   0  0  0  0  0  0  0  0  0  0  0  0
   -2.4352    0.7206    0.8540 C   0  0  0  0  0  0  0  0  0  0  0  0
   -1.9057   -1.3334    1.1715 H   0  0  0  0  0  0  0  0  0  0  0  0
    0.4890   -0.9619    0.4444 H   0  0  0  0  0  0  0  0  0  0  0  0
   -0.3729    3.1827   -0.2523 H   0  0  0  0  0  0  0  0  0  0  0  0
   -2.7652    2.8071    0.4788 H   0  0  0  0  0  0  0  0  0  0  0  0
   -3.8267    0.5027    1.2767 N   0  0  0  0  0  0  0  0  0  0  0  0
   -4.1469   -0.6359    1.6149 O   0  0  0  0  0  0  0  0  0  0  0  0
   -4.5835    1.4725    1.2654 O   0  0  0  0  0  0  0  0  0  0  0  0
    5.6272    2.4369   -2.4797 N   0  0  0  0  0  0  0  0  0  0  0  0
    6.4216    1.7616   -2.1133 N   0  0  0  0  0  0  0  0  0  0  0  0
    3.4182    0.2672    0.6917 B   0  0  0  0  0  0  0  0  0  0  0  0
    2.9535   -0.9459    0.4332 F   0  0  0  0  0  0  0  0  0  0  0  0
    3.1397    0.8400    1.8461 F   0  0  0  0  0  0  0  0  0  0  0  0
    4.2206    0.8591   -0.1704 F   0  0  0  0  0  0  0  0  0  0  0  0
    1.4242    1.3307   -0.3329 F   0  0  0  0  0  0  0  0  0  0  0  0
  1  7  1  0  0  0  0
  2  1  2  0  0  0  0
  3  2  1  0  0  0  0
  4  3  2  0  0  0  0
  4  5  1  0  0  0  0
  5 10  1  0  0  0  0
  5  6  2  0  0  0  0
  6  1  1  0  0  0  0
  6 11  1  0  0  0  0
  8  2  1  0  0  0  0
  9  4  1  0  0  0  0
 11 12  2  0  0  0  0
 13 11  2  0  0  0  0
 14 15  3  0  0  0  0
 16 18  1  0  0  0  0
 17 16  1  0  0  0  0
 19 16  1  0  0  0  0
 20  3  1  0  0  0  0
M  END
