Coordinates from ORCA-job 4-NO2-Ph-N2-BF4-B3LYPG-6-31G_dp-MTMO-d009-169-n800
 OpenBabel09051908343D

 20 19  0  0  1  0  0  0  0  0999 V2000
   -0.7648   -0.0253    0.4580 C   0  0  0  0  0  0  0  0  0  0  0  0
    0.6298    0.3555    0.1340 C   0  0  1  0  0  0  0  0  0  0  0  0
    0.6972    1.6566   -0.5800 C   0  0  0  0  0  0  0  0  0  0  0  0
   -0.3765    2.6156   -0.5398 C   0  0  0  0  0  0  0  0  0  0  0  0
   -1.5823    2.2537   -0.0332 C   0  0  0  0  0  0  0  0  0  0  0  0
   -1.7492    0.8990    0.4190 C   0  0  0  0  0  0  0  0  0  0  0  0
   -0.9705   -1.0367    0.7828 H   0  0  0  0  0  0  0  0  0  0  0  0
    1.1933   -0.4403   -0.3523 H   0  0  0  0  0  0  0  0  0  0  0  0
   -0.2050    3.6106   -0.9362 H   0  0  0  0  0  0  0  0  0  0  0  0
   -2.4212    2.9334    0.0101 H   0  0  0  0  0  0  0  0  0  0  0  0
   -3.1121    0.4813    0.8339 N   0  0  0  0  0  0  0  0  0  0  0  0
   -3.2797   -0.6892    1.1628 O   0  0  0  0  0  0  0  0  0  0  0  0
   -3.9861    1.3452    0.8215 O   0  0  0  0  0  0  0  0  0  0  0  0
    1.8064    1.9583   -1.1882 N   0  0  0  0  0  0  0  0  0  0  0  0
    2.7732    2.2173   -1.7244 N   0  0  0  0  0  0  0  0  0  0  0  0
    3.2322   -0.3395    1.4903 B   0  0  0  0  0  0  0  0  0  0  0  0
    2.8344   -1.5566    1.1199 F   0  0  0  0  0  0  0  0  0  0  0  0
    3.4577   -0.0761    2.7659 F   0  0  0  0  0  0  0  0  0  0  0  0
    3.7265    0.4683    0.5484 F   0  0  0  0  0  0  0  0  0  0  0  0
    1.3403    0.4878    1.4407 F   0  0  0  0  0  0  0  0  0  0  0  0
  1  7  1  0  0  0  0
  2  8  1  6  0  0  0
  2  1  1  0  0  0  0
  2 20  1  0  0  0  0
  3  4  2  0  0  0  0
  3  2  1  0  0  0  0
  4  5  1  0  0  0  0
  5 10  1  0  0  0  0
  5  6  1  0  0  0  0
  6  1  2  0  0  0  0
  6 11  1  0  0  0  0
  9  4  1  0  0  0  0
 11 12  2  0  0  0  0
 13 11  2  0  0  0  0
 14  3  1  0  0  0  0
 15 14  1  0  0  0  0
 16 18  1  0  0  0  0
 17 16  1  0  0  0  0
 19 16  1  0  0  0  0
M  RAD  3   5   2  14   2  15   3
M  END
