Coordinates from ORCA-job 4-NO2-Ph-N2-BF4-B3LYPG-6-31G_dp-MTMO-d009-169-n800
 OpenBabel09051908343D

 20 18  0  0  0  0  0  0  0  0999 V2000
   -1.6309   -0.2726    0.5242 C   0  0  0  0  0  0  0  0  0  0  0  0
   -0.3251    0.1874    0.3816 C   0  0  0  0  0  0  0  0  0  0  0  0
   -0.0742    1.5383    0.6012 C   0  0  0  0  0  0  0  0  0  0  0  0
   -1.0654    2.4479    0.9562 C   0  0  0  0  0  0  0  0  0  0  0  0
   -2.3697    1.9841    1.0978 C   0  0  0  0  0  0  0  0  0  0  0  0
   -2.6320    0.6314    0.8795 C   0  0  0  0  0  0  0  0  0  0  0  0
   -1.8857   -1.3126    0.3647 H   0  0  0  0  0  0  0  0  0  0  0  0
    0.4886   -0.4727    0.1070 H   0  0  0  0  0  0  0  0  0  0  0  0
   -0.8099    3.4891    1.1160 H   0  0  0  0  0  0  0  0  0  0  0  0
   -3.1811    2.6462    1.3721 H   0  0  0  0  0  0  0  0  0  0  0  0
   -4.0104    0.1430    1.0288 N   0  0  0  0  0  0  0  0  0  0  0  0
   -4.2151   -1.0535    0.8283 O   0  0  0  0  0  0  0  0  0  0  0  0
   -4.8732    0.9612    1.3451 O   0  0  0  0  0  0  0  0  0  0  0  0
    7.9287    0.2673   -1.6474 N   0  0  0  0  0  0  0  0  0  0  0  0
    6.8711    0.3665   -1.3421 N   0  0  0  0  0  0  0  0  0  0  0  0
    3.4503    0.9025   -0.3570 B   0  0  0  0  0  0  0  0  0  0  0  0
    2.8869   -0.2968   -0.3321 F   0  0  0  0  0  0  0  0  0  0  0  0
    4.0671    1.3575    0.7135 F   0  0  0  0  0  0  0  0  0  0  0  0
    3.4298    1.6095   -1.4680 F   0  0  0  0  0  0  0  0  0  0  0  0
    1.1935    1.9953    0.4637 F   0  0  0  0  0  0  0  0  0  0  0  0
  1  6  1  0  0  0  0
  2  1  2  0  0  0  0
  2  3  1  0  0  0  0
  3  4  2  0  0  0  0
  4  5  1  0  0  0  0
  4  9  1  0  0  0  0
  5 10  1  0  0  0  0
  6 11  1  0  0  0  0
  6  5  2  0  0  0  0
  7  1  1  0  0  0  0
  8  2  1  0  0  0  0
 11 13  2  0  0  0  0
 12 11  2  0  0  0  0
 14 15  3  0  0  0  0
 16 17  1  0  0  0  0
 16 18  1  0  0  0  0
 19 16  1  0  0  0  0
 20  3  1  0  0  0  0
M  END
