Coordinates from ORCA-job 4-NO2-Ph-N2-BF4-B3LYPG-6-31G_dp-MTMO-d009-169-n800
 OpenBabel09051908343D

 20 18  0  0  0  0  0  0  0  0999 V2000
   -1.1966   -0.3103    0.6433 C   0  0  0  0  0  0  0  0  0  0  0  0
    0.0686    0.1866    0.9417 C   0  0  0  0  0  0  0  0  0  0  0  0
    0.2031    1.5522    1.1700 C   0  0  0  0  0  0  0  0  0  0  0  0
   -0.8647    2.4417    1.1113 C   0  0  0  0  0  0  0  0  0  0  0  0
   -2.1286    1.9410    0.8138 C   0  0  0  0  0  0  0  0  0  0  0  0
   -2.2745    0.5730    0.5845 C   0  0  0  0  0  0  0  0  0  0  0  0
   -1.3615   -1.3636    0.4545 H   0  0  0  0  0  0  0  0  0  0  0  0
    0.9381   -0.4570    0.9946 H   0  0  0  0  0  0  0  0  0  0  0  0
   -0.6990    3.4963    1.2995 H   0  0  0  0  0  0  0  0  0  0  0  0
   -2.9962    2.5857    0.7558 H   0  0  0  0  0  0  0  0  0  0  0  0
   -3.6102    0.0450    0.2706 N   0  0  0  0  0  0  0  0  0  0  0  0
   -3.7117   -1.1650    0.0721 O   0  0  0  0  0  0  0  0  0  0  0  0
   -4.5428    0.8463    0.2264 O   0  0  0  0  0  0  0  0  0  0  0  0
    5.3388   -0.5719   -2.6560 N   0  0  0  0  0  0  0  0  0  0  0  0
    5.0687    0.0847   -1.8102 N   0  0  0  0  0  0  0  0  0  0  0  0
    3.3904    1.3044    0.0778 B   0  0  0  0  0  0  0  0  0  0  0  0
    3.3480    0.1111    0.6518 F   0  0  0  0  0  0  0  0  0  0  0  0
    4.2031    2.2305    0.5433 F   0  0  0  0  0  0  0  0  0  0  0  0
    2.6414    1.5432   -0.9830 F   0  0  0  0  0  0  0  0  0  0  0  0
    1.4290    2.0453    1.4714 F   0  0  0  0  0  0  0  0  0  0  0  0
  1  2  1  0  0  0  0
  2  8  1  0  0  0  0
  2  3  2  0  0  0  0
  3 20  1  0  0  0  0
  4  3  1  0  0  0  0
  4  9  1  0  0  0  0
  5  4  2  0  0  0  0
  6  1  2  0  0  0  0
  6  5  1  0  0  0  0
  7  1  1  0  0  0  0
 10  5  1  0  0  0  0
 11  6  1  0  0  0  0
 12 11  2  0  0  0  0
 13 11  2  0  0  0  0
 14 15  3  0  0  0  0
 16 18  1  0  0  0  0
 16 17  1  0  0  0  0
 19 16  1  0  0  0  0
M  END
