Coordinates from ORCA-job 4-NO2-Ph-N2-BF4-B3LYPG-6-31G_dp-MTMO-d009-169-n800
 OpenBabel09051908343D

 20 18  0  0  0  0  0  0  0  0999 V2000
   -2.0597   -0.2025    0.5630 C   0  0  0  0  0  0  0  0  0  0  0  0
   -0.8516    0.4886    0.5788 C   0  0  0  0  0  0  0  0  0  0  0  0
   -0.8570    1.8141    1.0009 C   0  0  0  0  0  0  0  0  0  0  0  0
   -2.0100    2.4792    1.4059 C   0  0  0  0  0  0  0  0  0  0  0  0
   -3.2156    1.7845    1.3888 C   0  0  0  0  0  0  0  0  0  0  0  0
   -3.2214    0.4547    0.9677 C   0  0  0  0  0  0  0  0  0  0  0  0
   -2.1165   -1.2352    0.2439 H   0  0  0  0  0  0  0  0  0  0  0  0
    0.0771    0.0233    0.2729 H   0  0  0  0  0  0  0  0  0  0  0  0
   -1.9523    3.5131    1.7253 H   0  0  0  0  0  0  0  0  0  0  0  0
   -4.1437    2.2505    1.6936 H   0  0  0  0  0  0  0  0  0  0  0  0
   -4.4959   -0.2785    0.9498 N   0  0  0  0  0  0  0  0  0  0  0  0
   -4.4737   -1.4497    0.5744 O   0  0  0  0  0  0  0  0  0  0  0  0
   -5.5049    0.3259    1.3110 O   0  0  0  0  0  0  0  0  0  0  0  0
   14.1595   -1.8405   -3.8531 N   0  0  0  0  0  0  0  0  0  0  0  0
   13.1353   -1.6372   -3.4907 N   0  0  0  0  0  0  0  0  0  0  0  0
    2.5982    2.0402    0.0772 B   0  0  0  0  0  0  0  0  0  0  0  0
    2.3580    0.7396   -0.0131 F   0  0  0  0  0  0  0  0  0  0  0  0
    3.1475    2.5292    1.1697 F   0  0  0  0  0  0  0  0  0  0  0  0
    2.3569    2.8208   -0.9565 F   0  0  0  0  0  0  0  0  0  0  0  0
    0.3131    2.4988    1.0239 F   0  0  0  0  0  0  0  0  0  0  0  0
  1  2  2  0  0  0  0
  1  6  1  0  0  0  0
  2  3  1  0  0  0  0
  3 20  1  0  0  0  0
  3  4  2  0  0  0  0
  4  9  1  0  0  0  0
  5  4  1  0  0  0  0
  5 10  1  0  0  0  0
  6  5  2  0  0  0  0
  7  1  1  0  0  0  0
  8  2  1  0  0  0  0
 11  6  1  0  0  0  0
 11 13  2  0  0  0  0
 12 11  2  0  0  0  0
 14 15  3  0  0  0  0
 16 18  1  0  0  0  0
 17 16  1  0  0  0  0
 19 16  1  0  0  0  0
M  END
