Coordinates from ORCA-job 4-NO2-Ph-N2-BF4-B3LYPG-6-31G_dp-MTMO-d009-169-n800
 OpenBabel09051908343D

 20 18  0  0  0  0  0  0  0  0999 V2000
   -1.2256   -0.3025    0.6280 C   0  0  0  0  0  0  0  0  0  0  0  0
    0.0471    0.1915    0.8978 C   0  0  0  0  0  0  0  0  0  0  0  0
    0.1879    1.5548    1.1362 C   0  0  0  0  0  0  0  0  0  0  0  0
   -0.8813    2.4445    1.1153 C   0  0  0  0  0  0  0  0  0  0  0  0
   -2.1527    1.9466    0.8464 C   0  0  0  0  0  0  0  0  0  0  0  0
   -2.3046    0.5811    0.6068 C   0  0  0  0  0  0  0  0  0  0  0  0
   -1.3955   -1.3538    0.4330 H   0  0  0  0  0  0  0  0  0  0  0  0
    0.9174   -0.4527    0.9221 H   0  0  0  0  0  0  0  0  0  0  0  0
   -0.7106    3.4972    1.3098 H   0  0  0  0  0  0  0  0  0  0  0  0
   -3.0215    2.5917    0.8186 H   0  0  0  0  0  0  0  0  0  0  0  0
   -3.6482    0.0559    0.3232 N   0  0  0  0  0  0  0  0  0  0  0  0
   -3.7548   -1.1518    0.1141 O   0  0  0  0  0  0  0  0  0  0  0  0
   -4.5817    0.8573    0.3128 O   0  0  0  0  0  0  0  0  0  0  0  0
    5.6082   -0.5165   -2.5741 N   0  0  0  0  0  0  0  0  0  0  0  0
    5.1814    0.1042   -1.7668 N   0  0  0  0  0  0  0  0  0  0  0  0
    3.3845    1.2636    0.0300 B   0  0  0  0  0  0  0  0  0  0  0  0
    3.3358    0.0788    0.6208 F   0  0  0  0  0  0  0  0  0  0  0  0
    4.1921    2.1965    0.4904 F   0  0  0  0  0  0  0  0  0  0  0  0
    2.6441    1.4874   -1.0399 F   0  0  0  0  0  0  0  0  0  0  0  0
    1.4214    2.0451    1.4087 F   0  0  0  0  0  0  0  0  0  0  0  0
  1  2  1  0  0  0  0
  2  8  1  0  0  0  0
  2  3  2  0  0  0  0
  3 20  1  0  0  0  0
  4  3  1  0  0  0  0
  4  9  1  0  0  0  0
  5  4  2  0  0  0  0
  6  1  2  0  0  0  0
  6  5  1  0  0  0  0
  7  1  1  0  0  0  0
 10  5  1  0  0  0  0
 11  6  1  0  0  0  0
 12 11  2  0  0  0  0
 13 11  2  0  0  0  0
 14 15  3  0  0  0  0
 16 18  1  0  0  0  0
 16 17  1  0  0  0  0
 19 16  1  0  0  0  0
M  END
