Coordinates from ORCA-job 4-NO2-Ph-N2-BF4-B3LYPG-6-31G_dp-MTMO-d009-169-n800
 OpenBabel09051908343D

 20 18  0  0  0  0  0  0  0  0999 V2000
   -2.1390   -0.2179    0.6814 C   0  0  0  0  0  0  0  0  0  0  0  0
   -0.8476    0.2987    0.6299 C   0  0  0  0  0  0  0  0  0  0  0  0
   -0.6707    1.6548    0.8846 C   0  0  0  0  0  0  0  0  0  0  0  0
   -1.7207    2.5160    1.1867 C   0  0  0  0  0  0  0  0  0  0  0  0
   -3.0102    1.9952    1.2374 C   0  0  0  0  0  0  0  0  0  0  0  0
   -3.1989    0.6367    0.9838 C   0  0  0  0  0  0  0  0  0  0  0  0
   -2.3379   -1.2649    0.4912 H   0  0  0  0  0  0  0  0  0  0  0  0
    0.0083   -0.3231    0.3985 H   0  0  0  0  0  0  0  0  0  0  0  0
   -1.5209    3.5642    1.3772 H   0  0  0  0  0  0  0  0  0  0  0  0
   -3.8654    2.6176    1.4680 H   0  0  0  0  0  0  0  0  0  0  0  0
   -4.5618    0.0876    1.0377 N   0  0  0  0  0  0  0  0  0  0  0  0
   -4.7006   -1.1134    0.8103 O   0  0  0  0  0  0  0  0  0  0  0  0
   -5.4776    0.8637    1.3070 O   0  0  0  0  0  0  0  0  0  0  0  0
   13.2688   -0.7910   -3.5043 N   0  0  0  0  0  0  0  0  0  0  0  0
   12.2227   -0.6927   -3.1612 N   0  0  0  0  0  0  0  0  0  0  0  0
    2.7879    1.2901   -0.0022 B   0  0  0  0  0  0  0  0  0  0  0  0
    2.3682    0.0342    0.0592 F   0  0  0  0  0  0  0  0  0  0  0  0
    3.3906    1.8289    1.0373 F   0  0  0  0  0  0  0  0  0  0  0  0
    2.6661    1.9635   -1.1282 F   0  0  0  0  0  0  0  0  0  0  0  0
    0.5820    2.1709    0.8390 F   0  0  0  0  0  0  0  0  0  0  0  0
  1  6  1  0  0  0  0
  2  1  2  0  0  0  0
  2  3  1  0  0  0  0
  3  4  2  0  0  0  0
  4  5  1  0  0  0  0
  4  9  1  0  0  0  0
  5 10  1  0  0  0  0
  6 11  1  0  0  0  0
  6  5  2  0  0  0  0
  7  1  1  0  0  0  0
  8  2  1  0  0  0  0
 11 13  2  0  0  0  0
 12 11  2  0  0  0  0
 14 15  3  0  0  0  0
 16 17  1  0  0  0  0
 16 18  1  0  0  0  0
 19 16  1  0  0  0  0
 20  3  1  0  0  0  0
M  END
