Coordinates from ORCA-job 4-NO2-Ph-N2-BF4-B3LYPG-6-31G_dp-MTMO-d009-169-n800
 OpenBabel09051908343D

 20 18  0  0  0  0  0  0  0  0999 V2000
   -1.6702   -0.2719    0.5516 C   0  0  0  0  0  0  0  0  0  0  0  0
   -0.3652    0.2015    0.4512 C   0  0  0  0  0  0  0  0  0  0  0  0
   -0.1365    1.5551    0.6765 C   0  0  0  0  0  0  0  0  0  0  0  0
   -1.1484    2.4548    0.9963 C   0  0  0  0  0  0  0  0  0  0  0  0
   -2.4518    1.9775    1.0957 C   0  0  0  0  0  0  0  0  0  0  0  0
   -2.6921    0.6218    0.8717 C   0  0  0  0  0  0  0  0  0  0  0  0
   -1.9084   -1.3149    0.3858 H   0  0  0  0  0  0  0  0  0  0  0  0
    0.4630   -0.4512    0.2041 H   0  0  0  0  0  0  0  0  0  0  0  0
   -0.9092    3.4989    1.1624 H   0  0  0  0  0  0  0  0  0  0  0  0
   -3.2787    2.6314    1.3416 H   0  0  0  0  0  0  0  0  0  0  0  0
   -4.0695    0.1187    0.9767 N   0  0  0  0  0  0  0  0  0  0  0  0
   -4.2542   -1.0806    0.7744 O   0  0  0  0  0  0  0  0  0  0  0  0
   -4.9511    0.9286    1.2606 O   0  0  0  0  0  0  0  0  0  0  0  0
    8.6097    0.0155   -1.9833 N   0  0  0  0  0  0  0  0  0  0  0  0
    7.5623    0.1258   -1.6480 N   0  0  0  0  0  0  0  0  0  0  0  0
    3.3156    1.0306   -0.2610 B   0  0  0  0  0  0  0  0  0  0  0  0
    2.8258   -0.2004   -0.2203 F   0  0  0  0  0  0  0  0  0  0  0  0
    3.9350    1.5227    0.7918 F   0  0  0  0  0  0  0  0  0  0  0  0
    3.2373    1.7266   -1.3768 F   0  0  0  0  0  0  0  0  0  0  0  0
    1.1300    2.0284    0.5821 F   0  0  0  0  0  0  0  0  0  0  0  0
  1  6  1  0  0  0  0
  2  1  2  0  0  0  0
  2  3  1  0  0  0  0
  3  4  2  0  0  0  0
  4  5  1  0  0  0  0
  4  9  1  0  0  0  0
  5 10  1  0  0  0  0
  6 11  1  0  0  0  0
  6  5  2  0  0  0  0
  7  1  1  0  0  0  0
  8  2  1  0  0  0  0
 11 13  2  0  0  0  0
 12 11  2  0  0  0  0
 14 15  3  0  0  0  0
 16 17  1  0  0  0  0
 16 18  1  0  0  0  0
 19 16  1  0  0  0  0
 20  3  1  0  0  0  0
M  END
