Coordinates from ORCA-job 4-NO2-Ph-N2-BF4-B3LYPG-6-31G_dp-MTMO-d009-169-n800
 OpenBabel09051908343D

 20 18  0  0  0  0  0  0  0  0999 V2000
   -1.9680   -0.2179    0.5383 C   0  0  0  0  0  0  0  0  0  0  0  0
   -0.7641    0.4802    0.5624 C   0  0  0  0  0  0  0  0  0  0  0  0
   -0.7800    1.8055    0.9851 C   0  0  0  0  0  0  0  0  0  0  0  0
   -1.9393    2.4637    1.3831 C   0  0  0  0  0  0  0  0  0  0  0  0
   -3.1407    1.7619    1.3578 C   0  0  0  0  0  0  0  0  0  0  0  0
   -3.1361    0.4324    0.9359 C   0  0  0  0  0  0  0  0  0  0  0  0
   -2.0168   -1.2507    0.2183 H   0  0  0  0  0  0  0  0  0  0  0  0
    0.1695    0.0205    0.2627 H   0  0  0  0  0  0  0  0  0  0  0  0
   -1.8897    3.4977    1.7035 H   0  0  0  0  0  0  0  0  0  0  0  0
   -4.0735    2.2223    1.6569 H   0  0  0  0  0  0  0  0  0  0  0  0
   -4.4062   -0.3082    0.9091 N   0  0  0  0  0  0  0  0  0  0  0  0
   -4.3747   -1.4790    0.5331 O   0  0  0  0  0  0  0  0  0  0  0  0
   -5.4209    0.2900    1.2643 O   0  0  0  0  0  0  0  0  0  0  0  0
   13.4248   -1.7485   -3.6477 N   0  0  0  0  0  0  0  0  0  0  0  0
   12.4016   -1.5096   -3.3049 N   0  0  0  0  0  0  0  0  0  0  0  0
    2.6759    2.0482    0.0727 B   0  0  0  0  0  0  0  0  0  0  0  0
    2.4511    0.7434    0.0072 F   0  0  0  0  0  0  0  0  0  0  0  0
    3.2207    2.5641    1.1550 F   0  0  0  0  0  0  0  0  0  0  0  0
    2.4238    2.8061   -0.9752 F   0  0  0  0  0  0  0  0  0  0  0  0
    0.3860    2.4969    1.0155 F   0  0  0  0  0  0  0  0  0  0  0  0
  1  2  2  0  0  0  0
  1  6  1  0  0  0  0
  2  3  1  0  0  0  0
  3 20  1  0  0  0  0
  3  4  2  0  0  0  0
  4  9  1  0  0  0  0
  5  4  1  0  0  0  0
  5 10  1  0  0  0  0
  6  5  2  0  0  0  0
  7  1  1  0  0  0  0
  8  2  1  0  0  0  0
 11  6  1  0  0  0  0
 11 13  2  0  0  0  0
 12 11  2  0  0  0  0
 14 15  3  0  0  0  0
 16 18  1  0  0  0  0
 17 16  1  0  0  0  0
 19 16  1  0  0  0  0
M  END
