Coordinates from ORCA-job 4-NO2-Ph-N2-BF4-B3LYPG-6-31G_dp-MTMO-d009-169-n800
 OpenBabel09051908343D

 20 19  0  0  0  0  0  0  0  0999 V2000
   -1.1234   -0.1211    0.5578 C   0  0  0  0  0  0  0  0  0  0  0  0
    0.2173    0.1298    0.2673 C   0  0  0  0  0  0  0  0  0  0  0  0
    0.4831    1.3925   -0.2391 C   0  0  0  0  0  0  0  0  0  0  0  0
   -0.4253    2.4174   -0.4806 C   0  0  0  0  0  0  0  0  0  0  0  0
   -1.7529    2.1384   -0.1698 C   0  0  0  0  0  0  0  0  0  0  0  0
   -2.0694    0.8784    0.3380 C   0  0  0  0  0  0  0  0  0  0  0  0
   -1.4372   -1.0769    0.9581 H   0  0  0  0  0  0  0  0  0  0  0  0
    1.0279   -0.5805    0.4150 H   0  0  0  0  0  0  0  0  0  0  0  0
   -0.1203    3.3773   -0.8785 H   0  0  0  0  0  0  0  0  0  0  0  0
   -2.5352    2.8720   -0.3158 H   0  0  0  0  0  0  0  0  0  0  0  0
   -3.4900    0.5924    0.6571 N   0  0  0  0  0  0  0  0  0  0  0  0
   -3.7504   -0.5215    1.0970 O   0  0  0  0  0  0  0  0  0  0  0  0
   -4.2992    1.4925    0.4538 O   0  0  0  0  0  0  0  0  0  0  0  0
    1.9409    1.7123   -0.6219 N   0  0  0  0  0  0  0  0  0  0  0  0
    2.9389    2.0164   -0.9971 N   0  0  0  0  0  0  0  0  0  0  0  0
    3.5599    0.0600    1.1501 B   0  0  0  0  0  0  0  0  0  0  0  0
    2.9033   -0.8158    0.2273 F   0  0  0  0  0  0  0  0  0  0  0  0
    4.1665   -0.6312    2.1587 F   0  0  0  0  0  0  0  0  0  0  0  0
    4.4644    0.8508    0.4077 F   0  0  0  0  0  0  0  0  0  0  0  0
    2.5444    0.9357    1.6480 F   0  0  0  0  0  0  0  0  0  0  0  0
  1  7  1  0  0  0  0
  2  8  1  0  0  0  0
  2  1  2  0  0  0  0
  3  2  1  0  0  0  0
  4  3  2  0  0  0  0
  4  5  1  0  0  0  0
  5  6  2  0  0  0  0
  6  1  1  0  0  0  0
  6 11  1  0  0  0  0
  9  4  1  0  0  0  0
 10  5  1  0  0  0  0
 11 12  2  0  0  0  0
 13 11  2  0  0  0  0
 14  3  1  0  0  0  0
 15 14  1  0  0  0  0
 16 20  1  0  0  0  0
 16 18  1  0  0  0  0
 17 16  1  0  0  0  0
 19 16  1  0  0  0  0
M  RAD  2  14   2  15   3
M  END
