Coordinates from ORCA-job 4-NO2-Ph-N2-BF4-B3LYPG-6-31G_dp-MTMO-d009-169-n800
 OpenBabel09051908343D

 20 18  0  0  0  0  0  0  0  0999 V2000
   -1.3004   -0.3025    0.6293 C   0  0  0  0  0  0  0  0  0  0  0  0
   -0.0113    0.1831    0.8273 C   0  0  0  0  0  0  0  0  0  0  0  0
    0.1525    1.5467    1.0488 C   0  0  0  0  0  0  0  0  0  0  0  0
   -0.9097    2.4447    1.0786 C   0  0  0  0  0  0  0  0  0  0  0  0
   -2.1973    1.9553    0.8813 C   0  0  0  0  0  0  0  0  0  0  0  0
   -2.3723    0.5894    0.6600 C   0  0  0  0  0  0  0  0  0  0  0  0
   -1.4885   -1.3538    0.4513 H   0  0  0  0  0  0  0  0  0  0  0  0
    0.8542   -0.4676    0.8085 H   0  0  0  0  0  0  0  0  0  0  0  0
   -0.7209    3.4973    1.2564 H   0  0  0  0  0  0  0  0  0  0  0  0
   -3.0615    2.6070    0.8956 H   0  0  0  0  0  0  0  0  0  0  0  0
   -3.7330    0.0728    0.4530 N   0  0  0  0  0  0  0  0  0  0  0  0
   -3.8599   -1.1357    0.2603 O   0  0  0  0  0  0  0  0  0  0  0  0
   -4.6597    0.8814    0.4860 O   0  0  0  0  0  0  0  0  0  0  0  0
    6.0832   -0.3509   -2.4197 N   0  0  0  0  0  0  0  0  0  0  0  0
    5.4214    0.1495   -1.6911 N   0  0  0  0  0  0  0  0  0  0  0  0
    3.4064    1.2005   -0.0571 B   0  0  0  0  0  0  0  0  0  0  0  0
    3.2482   -0.0200    0.4347 F   0  0  0  0  0  0  0  0  0  0  0  0
    4.2118    2.0518    0.5438 F   0  0  0  0  0  0  0  0  0  0  0  0
    2.7777    1.5411   -1.1660 F   0  0  0  0  0  0  0  0  0  0  0  0
    1.4023    2.0288    1.2521 F   0  0  0  0  0  0  0  0  0  0  0  0
  1  6  2  0  0  0  0
  1  2  1  0  0  0  0
  2  3  2  0  0  0  0
  3  4  1  0  0  0  0
  3 20  1  0  0  0  0
  4  9  1  0  0  0  0
  5 10  1  0  0  0  0
  5  4  2  0  0  0  0
  6  5  1  0  0  0  0
  7  1  1  0  0  0  0
  8  2  1  0  0  0  0
 11 13  2  0  0  0  0
 11  6  1  0  0  0  0
 12 11  2  0  0  0  0
 14 15  3  0  0  0  0
 16 17  1  0  0  0  0
 16 18  1  0  0  0  0
 19 16  1  0  0  0  0
M  END
