Coordinates from ORCA-job 4-NO2-Ph-N2-BF4-B3LYPG-6-31G_dp-MTMO-d009-169-n800
 OpenBabel09051908343D

 20 18  0  0  0  0  0  0  0  0999 V2000
   -1.4248   -0.3224    0.7175 C   0  0  0  0  0  0  0  0  0  0  0  0
   -0.0593   -0.1538    0.5080 C   0  0  0  0  0  0  0  0  0  0  0  0
    0.4116    1.1265    0.2358 C   0  0  0  0  0  0  0  0  0  0  0  0
   -0.4156    2.2425    0.1642 C   0  0  0  0  0  0  0  0  0  0  0  0
   -1.7802    2.0696    0.3742 C   0  0  0  0  0  0  0  0  0  0  0  0
   -2.2633    0.7900    0.6473 C   0  0  0  0  0  0  0  0  0  0  0  0
   -1.8483   -1.2949    0.9341 H   0  0  0  0  0  0  0  0  0  0  0  0
    0.6336   -0.9848    0.5558 H   0  0  0  0  0  0  0  0  0  0  0  0
    0.0094    3.2156   -0.0530 H   0  0  0  0  0  0  0  0  0  0  0  0
   -2.4711    2.9018    0.3306 H   0  0  0  0  0  0  0  0  0  0  0  0
   -3.7054    0.6085    0.8696 N   0  0  0  0  0  0  0  0  0  0  0  0
   -4.1062   -0.5302    1.1062 O   0  0  0  0  0  0  0  0  0  0  0  0
   -4.4215    1.6069    0.8054 O   0  0  0  0  0  0  0  0  0  0  0  0
    3.7573    2.0465   -2.2427 N   0  0  0  0  0  0  0  0  0  0  0  0
    4.6736    2.2740   -2.8171 N   0  0  0  0  0  0  0  0  0  0  0  0
    3.6144    0.0689    1.1092 B   0  0  0  0  0  0  0  0  0  0  0  0
    3.0631   -1.0986    0.8127 F   0  0  0  0  0  0  0  0  0  0  0  0
    3.3348    0.6494    2.2592 F   0  0  0  0  0  0  0  0  0  0  0  0
    4.5012    0.6006    0.2917 F   0  0  0  0  0  0  0  0  0  0  0  0
    1.7398    1.3027    0.0247 F   0  0  0  0  0  0  0  0  0  0  0  0
  1  7  1  0  0  0  0
  2  8  1  0  0  0  0
  2  1  2  0  0  0  0
  3  2  1  0  0  0  0
  4  3  2  0  0  0  0
  4  5  1  0  0  0  0
  5  6  2  0  0  0  0
  6  1  1  0  0  0  0
  6 11  1  0  0  0  0
  9  4  1  0  0  0  0
 10  5  1  0  0  0  0
 11 12  2  0  0  0  0
 13 11  2  0  0  0  0
 15 14  3  0  0  0  0
 16 18  1  0  0  0  0
 17 16  1  0  0  0  0
 19 16  1  0  0  0  0
 20  3  1  0  0  0  0
M  END
