Coordinates from ORCA-job 4-NO2-Ph-N2-BF4-B3LYPG-6-31G_dp-MTMO-d009-169-n800
 OpenBabel09051908343D

 20 18  0  0  0  0  0  0  0  0999 V2000
   -1.9330   -0.2442    0.6377 C   0  0  0  0  0  0  0  0  0  0  0  0
   -0.6332    0.2502    0.5812 C   0  0  0  0  0  0  0  0  0  0  0  0
   -0.4349    1.6078    0.8110 C   0  0  0  0  0  0  0  0  0  0  0  0
   -1.4715    2.4917    1.0930 C   0  0  0  0  0  0  0  0  0  0  0  0
   -2.7696    1.9930    1.1486 C   0  0  0  0  0  0  0  0  0  0  0  0
   -2.9797    0.6333    0.9201 C   0  0  0  0  0  0  0  0  0  0  0  0
   -2.1485   -1.2913    0.4665 H   0  0  0  0  0  0  0  0  0  0  0  0
    0.2134   -0.3894    0.3642 H   0  0  0  0  0  0  0  0  0  0  0  0
   -1.2551    3.5399    1.2646 H   0  0  0  0  0  0  0  0  0  0  0  0
   -3.6152    2.6336    1.3643 H   0  0  0  0  0  0  0  0  0  0  0  0
   -4.3516    0.1078    0.9793 N   0  0  0  0  0  0  0  0  0  0  0  0
   -4.5094   -1.0950    0.7749 O   0  0  0  0  0  0  0  0  0  0  0  0
   -5.2555    0.9039    1.2297 O   0  0  0  0  0  0  0  0  0  0  0  0
   11.2317   -0.4186   -2.9174 N   0  0  0  0  0  0  0  0  0  0  0  0
   10.1881   -0.3359   -2.5627 N   0  0  0  0  0  0  0  0  0  0  0  0
    3.0203    1.1687   -0.0645 B   0  0  0  0  0  0  0  0  0  0  0  0
    2.5732   -0.0778   -0.0037 F   0  0  0  0  0  0  0  0  0  0  0  0
    3.6272    1.6965    0.9783 F   0  0  0  0  0  0  0  0  0  0  0  0
    2.9203    1.8426   -1.1922 F   0  0  0  0  0  0  0  0  0  0  0  0
    0.8263    2.1021    0.7602 F   0  0  0  0  0  0  0  0  0  0  0  0
  1  6  1  0  0  0  0
  2  1  2  0  0  0  0
  2  3  1  0  0  0  0
  3  4  2  0  0  0  0
  4  5  1  0  0  0  0
  4  9  1  0  0  0  0
  5 10  1  0  0  0  0
  6 11  1  0  0  0  0
  6  5  2  0  0  0  0
  7  1  1  0  0  0  0
  8  2  1  0  0  0  0
 11 13  2  0  0  0  0
 12 11  2  0  0  0  0
 14 15  3  0  0  0  0
 16 17  1  0  0  0  0
 16 18  1  0  0  0  0
 19 16  1  0  0  0  0
 20  3  1  0  0  0  0
M  END
