Coordinates from ORCA-job 4-NO2-Ph-N2-BF4-B3LYPG-6-31G_dp-MTMO-d009-169-n800
 OpenBabel09051908343D

 20 18  0  0  0  0  0  0  0  0999 V2000
   -1.5155   -0.3478    0.8085 C   0  0  0  0  0  0  0  0  0  0  0  0
   -0.1731   -0.1704    0.4871 C   0  0  0  0  0  0  0  0  0  0  0  0
    0.2574    1.1061    0.1406 C   0  0  0  0  0  0  0  0  0  0  0  0
   -0.5873    2.2105    0.1022 C   0  0  0  0  0  0  0  0  0  0  0  0
   -1.9289    2.0285    0.4237 C   0  0  0  0  0  0  0  0  0  0  0  0
   -2.3717    0.7526    0.7715 C   0  0  0  0  0  0  0  0  0  0  0  0
   -1.9077   -1.3177    1.0866 H   0  0  0  0  0  0  0  0  0  0  0  0
    0.5326   -0.9920    0.5043 H   0  0  0  0  0  0  0  0  0  0  0  0
   -0.1938    3.1812   -0.1760 H   0  0  0  0  0  0  0  0  0  0  0  0
   -2.6323    2.8514    0.4101 H   0  0  0  0  0  0  0  0  0  0  0  0
   -3.7898    0.5615    1.1105 N   0  0  0  0  0  0  0  0  0  0  0  0
   -4.1546   -0.5737    1.4132 O   0  0  0  0  0  0  0  0  0  0  0  0
   -4.5228    1.5487    1.0704 O   0  0  0  0  0  0  0  0  0  0  0  0
    4.8085    2.2759   -2.4078 N   0  0  0  0  0  0  0  0  0  0  0  0
    5.8869    2.1689   -2.6246 N   0  0  0  0  0  0  0  0  0  0  0  0
    3.4786    0.1495    0.9142 B   0  0  0  0  0  0  0  0  0  0  0  0
    2.9858   -1.0422    0.6116 F   0  0  0  0  0  0  0  0  0  0  0  0
    3.1615    0.7140    2.0628 F   0  0  0  0  0  0  0  0  0  0  0  0
    4.3468    0.7242    0.1059 F   0  0  0  0  0  0  0  0  0  0  0  0
    1.5626    1.2896   -0.1815 F   0  0  0  0  0  0  0  0  0  0  0  0
  1  7  1  0  0  0  0
  2  8  1  0  0  0  0
  2  1  2  0  0  0  0
  3  2  1  0  0  0  0
  4  3  2  0  0  0  0
  4  5  1  0  0  0  0
  5  6  2  0  0  0  0
  6  1  1  0  0  0  0
  6 11  1  0  0  0  0
  9  4  1  0  0  0  0
 10  5  1  0  0  0  0
 11 12  2  0  0  0  0
 13 11  2  0  0  0  0
 15 14  3  0  0  0  0
 16 18  1  0  0  0  0
 17 16  1  0  0  0  0
 19 16  1  0  0  0  0
 20  3  1  0  0  0  0
M  END
