Coordinates from ORCA-job 4-NO2-Ph-N2-BF4-B3LYPG-6-31G_dp-MTMO-d009-169-n800
 OpenBabel09051908343D

 20 18  0  0  0  0  0  0  0  0999 V2000
   -2.0981   -0.2230    0.6743 C   0  0  0  0  0  0  0  0  0  0  0  0
   -0.8047    0.2885    0.6227 C   0  0  0  0  0  0  0  0  0  0  0  0
   -0.6233    1.6453    0.8702 C   0  0  0  0  0  0  0  0  0  0  0  0
   -1.6707    2.5120    1.1654 C   0  0  0  0  0  0  0  0  0  0  0  0
   -2.9623    1.9963    1.2162 C   0  0  0  0  0  0  0  0  0  0  0  0
   -3.1554    0.6372    0.9698 C   0  0  0  0  0  0  0  0  0  0  0  0
   -2.3005   -1.2704    0.4895 H   0  0  0  0  0  0  0  0  0  0  0  0
    0.0493   -0.3378    0.3964 H   0  0  0  0  0  0  0  0  0  0  0  0
   -1.4673    3.5605    1.3506 H   0  0  0  0  0  0  0  0  0  0  0  0
   -3.8155    2.6232    1.4415 H   0  0  0  0  0  0  0  0  0  0  0  0
   -4.5205    0.0935    1.0238 N   0  0  0  0  0  0  0  0  0  0  0  0
   -4.6633   -1.1083    0.8030 O   0  0  0  0  0  0  0  0  0  0  0  0
   -5.4340    0.8745    1.2866 O   0  0  0  0  0  0  0  0  0  0  0  0
   12.8607   -0.7112   -3.3928 N   0  0  0  0  0  0  0  0  0  0  0  0
   11.8152   -0.6164   -3.0472 N   0  0  0  0  0  0  0  0  0  0  0  0
    2.8353    1.2606   -0.0092 B   0  0  0  0  0  0  0  0  0  0  0  0
    2.4085    0.0071    0.0524 F   0  0  0  0  0  0  0  0  0  0  0  0
    3.4378    1.7972    1.0316 F   0  0  0  0  0  0  0  0  0  0  0  0
    2.7206    1.9335   -1.1362 F   0  0  0  0  0  0  0  0  0  0  0  0
    0.6315    2.1566    0.8244 F   0  0  0  0  0  0  0  0  0  0  0  0
  1  6  1  0  0  0  0
  2  1  2  0  0  0  0
  2  3  1  0  0  0  0
  3  4  2  0  0  0  0
  4  5  1  0  0  0  0
  4  9  1  0  0  0  0
  5 10  1  0  0  0  0
  6 11  1  0  0  0  0
  6  5  2  0  0  0  0
  7  1  1  0  0  0  0
  8  2  1  0  0  0  0
 11 13  2  0  0  0  0
 12 11  2  0  0  0  0
 14 15  3  0  0  0  0
 16 17  1  0  0  0  0
 16 18  1  0  0  0  0
 19 16  1  0  0  0  0
 20  3  1  0  0  0  0
M  END
