Coordinates from ORCA-job 4-NO2-Ph-N2-BF4-B3LYPG-6-31G_dp-MTMO-d009-169-n800
 OpenBabel09051908343D

 20 18  0  0  0  0  0  0  0  0999 V2000
   -1.4760   -0.3424    0.7598 C   0  0  0  0  0  0  0  0  0  0  0  0
   -0.1262   -0.1764    0.4645 C   0  0  0  0  0  0  0  0  0  0  0  0
    0.3258    1.0999    0.1457 C   0  0  0  0  0  0  0  0  0  0  0  0
   -0.5049    2.2150    0.1107 C   0  0  0  0  0  0  0  0  0  0  0  0
   -1.8540    2.0446    0.4062 C   0  0  0  0  0  0  0  0  0  0  0  0
   -2.3182    0.7688    0.7257 C   0  0  0  0  0  0  0  0  0  0  0  0
   -1.8845   -1.3117    1.0156 H   0  0  0  0  0  0  0  0  0  0  0  0
    0.5693   -1.0066    0.4816 H   0  0  0  0  0  0  0  0  0  0  0  0
   -0.0950    3.1851   -0.1453 H   0  0  0  0  0  0  0  0  0  0  0  0
   -2.5469    2.8762    0.3938 H   0  0  0  0  0  0  0  0  0  0  0  0
   -3.7441    0.5900    1.0372 N   0  0  0  0  0  0  0  0  0  0  0  0
   -4.1281   -0.5454    1.3143 O   0  0  0  0  0  0  0  0  0  0  0  0
   -4.4642    1.5868    1.0014 O   0  0  0  0  0  0  0  0  0  0  0  0
    4.3800    2.1127   -2.3454 N   0  0  0  0  0  0  0  0  0  0  0  0
    5.3902    2.3188   -2.7433 N   0  0  0  0  0  0  0  0  0  0  0  0
    3.5065    0.1211    1.0303 B   0  0  0  0  0  0  0  0  0  0  0  0
    3.0159   -1.0676    0.7132 F   0  0  0  0  0  0  0  0  0  0  0  0
    3.1378    0.6999    2.1562 F   0  0  0  0  0  0  0  0  0  0  0  0
    4.4216    0.6784    0.2626 F   0  0  0  0  0  0  0  0  0  0  0  0
    1.6384    1.2718   -0.1518 F   0  0  0  0  0  0  0  0  0  0  0  0
  1  7  1  0  0  0  0
  2  8  1  0  0  0  0
  2  1  2  0  0  0  0
  3  2  1  0  0  0  0
  4  3  2  0  0  0  0
  4  5  1  0  0  0  0
  5  6  2  0  0  0  0
  6  1  1  0  0  0  0
  6 11  1  0  0  0  0
  9  4  1  0  0  0  0
 10  5  1  0  0  0  0
 11 12  2  0  0  0  0
 13 11  2  0  0  0  0
 15 14  3  0  0  0  0
 16 18  1  0  0  0  0
 17 16  1  0  0  0  0
 19 16  1  0  0  0  0
 20  3  1  0  0  0  0
M  END
