Coordinates from ORCA-job 4-NO2-Ph-N2-BF4-B3LYPG-6-31G_dp-MTMO-d009-169-n800
 OpenBabel09051908343D

 20 18  0  0  0  0  0  0  0  0999 V2000
   -2.1252   -0.2190    0.6787 C   0  0  0  0  0  0  0  0  0  0  0  0
   -0.8337    0.2974    0.6279 C   0  0  0  0  0  0  0  0  0  0  0  0
   -0.6568    1.6536    0.8812 C   0  0  0  0  0  0  0  0  0  0  0  0
   -1.7072    2.5150    1.1813 C   0  0  0  0  0  0  0  0  0  0  0  0
   -2.9968    1.9947    1.2313 C   0  0  0  0  0  0  0  0  0  0  0  0
   -3.1854    0.6359    0.9791 C   0  0  0  0  0  0  0  0  0  0  0  0
   -2.3238   -1.2663    0.4894 H   0  0  0  0  0  0  0  0  0  0  0  0
    0.0220   -0.3254    0.3979 H   0  0  0  0  0  0  0  0  0  0  0  0
   -1.5073    3.5634    1.3709 H   0  0  0  0  0  0  0  0  0  0  0  0
   -3.8520    2.6176    1.4604 H   0  0  0  0  0  0  0  0  0  0  0  0
   -4.5483    0.0869    1.0322 N   0  0  0  0  0  0  0  0  0  0  0  0
   -4.6870   -1.1143    0.8060 O   0  0  0  0  0  0  0  0  0  0  0  0
   -5.4644    0.8634    1.2996 O   0  0  0  0  0  0  0  0  0  0  0  0
   13.1483   -0.7723   -3.4728 N   0  0  0  0  0  0  0  0  0  0  0  0
   12.1025   -0.6742   -3.1289 N   0  0  0  0  0  0  0  0  0  0  0  0
    2.8002    1.2841   -0.0032 B   0  0  0  0  0  0  0  0  0  0  0  0
    2.3786    0.0288    0.0587 F   0  0  0  0  0  0  0  0  0  0  0  0
    3.4034    1.8224    1.0364 F   0  0  0  0  0  0  0  0  0  0  0  0
    2.6801    1.9572   -1.1295 F   0  0  0  0  0  0  0  0  0  0  0  0
    0.5960    2.1701    0.8364 F   0  0  0  0  0  0  0  0  0  0  0  0
  1  6  1  0  0  0  0
  2  1  2  0  0  0  0
  2  3  1  0  0  0  0
  3  4  2  0  0  0  0
  4  5  1  0  0  0  0
  4  9  1  0  0  0  0
  5 10  1  0  0  0  0
  6 11  1  0  0  0  0
  6  5  2  0  0  0  0
  7  1  1  0  0  0  0
  8  2  1  0  0  0  0
 11 13  2  0  0  0  0
 12 11  2  0  0  0  0
 14 15  3  0  0  0  0
 16 17  1  0  0  0  0
 16 18  1  0  0  0  0
 19 16  1  0  0  0  0
 20  3  1  0  0  0  0
M  END
