Coordinates from ORCA-job 4-NO2-Ph-N2-BF4-B3LYPG-6-31G_dp-MTMO-d009-169-n800
 OpenBabel09051908343D

 20 18  0  0  0  0  0  0  0  0999 V2000
   -2.1398   -0.2175    0.6813 C   0  0  0  0  0  0  0  0  0  0  0  0
   -0.8487    0.2999    0.6301 C   0  0  0  0  0  0  0  0  0  0  0  0
   -0.6724    1.6559    0.8854 C   0  0  0  0  0  0  0  0  0  0  0  0
   -1.7232    2.5161    1.1879 C   0  0  0  0  0  0  0  0  0  0  0  0
   -3.0124    1.9947    1.2384 C   0  0  0  0  0  0  0  0  0  0  0  0
   -3.2003    0.6362    0.9842 C   0  0  0  0  0  0  0  0  0  0  0  0
   -2.3380   -1.2646    0.4906 H   0  0  0  0  0  0  0  0  0  0  0  0
    0.0072   -0.3218    0.3983 H   0  0  0  0  0  0  0  0  0  0  0  0
   -1.5239    3.5643    1.3790 H   0  0  0  0  0  0  0  0  0  0  0  0
   -3.8678    2.6166    1.4693 H   0  0  0  0  0  0  0  0  0  0  0  0
   -4.5628    0.0862    1.0377 N   0  0  0  0  0  0  0  0  0  0  0  0
   -4.7008   -1.1147    0.8097 O   0  0  0  0  0  0  0  0  0  0  0  0
   -5.4791    0.8616    1.3075 O   0  0  0  0  0  0  0  0  0  0  0  0
   13.2854   -0.7965   -3.5093 N   0  0  0  0  0  0  0  0  0  0  0  0
   12.2394   -0.6978   -3.1663 N   0  0  0  0  0  0  0  0  0  0  0  0
    2.7849    1.2927   -0.0015 B   0  0  0  0  0  0  0  0  0  0  0  0
    2.3655    0.0367    0.0600 F   0  0  0  0  0  0  0  0  0  0  0  0
    3.3878    1.8315    1.0380 F   0  0  0  0  0  0  0  0  0  0  0  0
    2.6627    1.9662   -1.1273 F   0  0  0  0  0  0  0  0  0  0  0  0
    0.5798    2.1733    0.8402 F   0  0  0  0  0  0  0  0  0  0  0  0
  1  6  1  0  0  0  0
  2  1  2  0  0  0  0
  2  3  1  0  0  0  0
  3  4  2  0  0  0  0
  4  5  1  0  0  0  0
  4  9  1  0  0  0  0
  5 10  1  0  0  0  0
  6 11  1  0  0  0  0
  6  5  2  0  0  0  0
  7  1  1  0  0  0  0
  8  2  1  0  0  0  0
 11 13  2  0  0  0  0
 12 11  2  0  0  0  0
 14 15  3  0  0  0  0
 16 17  1  0  0  0  0
 16 18  1  0  0  0  0
 19 16  1  0  0  0  0
 20  3  1  0  0  0  0
M  END
