Coordinates from ORCA-job 4-NO2-Ph-N2-BF4-B3LYPG-6-31G_dp-MTMO-d009-169-n800
 OpenBabel09051908343D

 20 18  0  0  0  0  0  0  0  0999 V2000
   -1.9641   -0.2403    0.6453 C   0  0  0  0  0  0  0  0  0  0  0  0
   -0.6653    0.2571    0.5901 C   0  0  0  0  0  0  0  0  0  0  0  0
   -0.4700    1.6147    0.8223 C   0  0  0  0  0  0  0  0  0  0  0  0
   -1.5088    2.4957    1.1054 C   0  0  0  0  0  0  0  0  0  0  0  0
   -2.8058    1.9943    1.1596 C   0  0  0  0  0  0  0  0  0  0  0  0
   -3.0128    0.6344    0.9287 C   0  0  0  0  0  0  0  0  0  0  0  0
   -2.1771   -1.2875    0.4722 H   0  0  0  0  0  0  0  0  0  0  0  0
    0.1826   -0.3805    0.3725 H   0  0  0  0  0  0  0  0  0  0  0  0
   -1.2948    3.5442    1.2788 H   0  0  0  0  0  0  0  0  0  0  0  0
   -3.6528    2.6326    1.3760 H   0  0  0  0  0  0  0  0  0  0  0  0
   -4.3836    0.1058    0.9865 N   0  0  0  0  0  0  0  0  0  0  0  0
   -4.5387   -1.0970    0.7800 O   0  0  0  0  0  0  0  0  0  0  0  0
   -5.2894    0.8995    1.2380 O   0  0  0  0  0  0  0  0  0  0  0  0
   11.5366   -0.4714   -3.0099 N   0  0  0  0  0  0  0  0  0  0  0  0
   10.4926   -0.3869   -2.6568 N   0  0  0  0  0  0  0  0  0  0  0  0
    2.9861    1.1842   -0.0510 B   0  0  0  0  0  0  0  0  0  0  0  0
    2.5423   -0.0634    0.0100 F   0  0  0  0  0  0  0  0  0  0  0  0
    3.5915    1.7138    0.9918 F   0  0  0  0  0  0  0  0  0  0  0  0
    2.8847    1.8576   -1.1790 F   0  0  0  0  0  0  0  0  0  0  0  0
    0.7901    2.1121    0.7729 F   0  0  0  0  0  0  0  0  0  0  0  0
  1  6  1  0  0  0  0
  2  1  2  0  0  0  0
  2  3  1  0  0  0  0
  3  4  2  0  0  0  0
  4  5  1  0  0  0  0
  4  9  1  0  0  0  0
  5 10  1  0  0  0  0
  6 11  1  0  0  0  0
  6  5  2  0  0  0  0
  7  1  1  0  0  0  0
  8  2  1  0  0  0  0
 11 13  2  0  0  0  0
 12 11  2  0  0  0  0
 14 15  3  0  0  0  0
 16 17  1  0  0  0  0
 16 18  1  0  0  0  0
 19 16  1  0  0  0  0
 20  3  1  0  0  0  0
M  END
