Coordinates from ORCA-job 4-NO2-Ph-N2-BF4-B3LYPG-6-31G_dp-MTMO-d009-169-n800
 OpenBabel09051908343D

 20 18  0  0  0  0  0  0  0  0999 V2000
   -1.5549   -0.3598    0.8624 C   0  0  0  0  0  0  0  0  0  0  0  0
   -0.2413   -0.1518    0.4525 C   0  0  0  0  0  0  0  0  0  0  0  0
    0.1302    1.1296    0.0593 C   0  0  0  0  0  0  0  0  0  0  0  0
   -0.7455    2.2101    0.0584 C   0  0  0  0  0  0  0  0  0  0  0  0
   -2.0582    1.9977    0.4684 C   0  0  0  0  0  0  0  0  0  0  0  0
   -2.4420    0.7164    0.8635 C   0  0  0  0  0  0  0  0  0  0  0  0
   -1.9015   -1.3348    1.1802 H   0  0  0  0  0  0  0  0  0  0  0  0
    0.4869   -0.9537    0.4369 H   0  0  0  0  0  0  0  0  0  0  0  0
   -0.3979    3.1863   -0.2592 H   0  0  0  0  0  0  0  0  0  0  0  0
   -2.7838    2.8009    0.4878 H   0  0  0  0  0  0  0  0  0  0  0  0
   -3.8298    0.4929    1.2955 N   0  0  0  0  0  0  0  0  0  0  0  0
   -4.1428   -0.6467    1.6369 O   0  0  0  0  0  0  0  0  0  0  0  0
   -4.5910    1.4592    1.2878 O   0  0  0  0  0  0  0  0  0  0  0  0
    5.7391    2.4413   -2.4593 N   0  0  0  0  0  0  0  0  0  0  0  0
    6.4729    1.7040   -2.0862 N   0  0  0  0  0  0  0  0  0  0  0  0
    3.4090    0.2834    0.6659 B   0  0  0  0  0  0  0  0  0  0  0  0
    2.9486   -0.9300    0.4016 F   0  0  0  0  0  0  0  0  0  0  0  0
    3.1284    0.8500    1.8229 F   0  0  0  0  0  0  0  0  0  0  0  0
    4.2101    0.8818   -0.1929 F   0  0  0  0  0  0  0  0  0  0  0  0
    1.4066    1.3423   -0.3489 F   0  0  0  0  0  0  0  0  0  0  0  0
  1  6  1  0  0  0  0
  1  7  1  0  0  0  0
  2  1  2  0  0  0  0
  3  2  1  0  0  0  0
  4  3  2  0  0  0  0
  4  5  1  0  0  0  0
  5 10  1  0  0  0  0
  5  6  2  0  0  0  0
  6 11  1  0  0  0  0
  8  2  1  0  0  0  0
  9  4  1  0  0  0  0
 11 12  2  0  0  0  0
 13 11  2  0  0  0  0
 14 15  3  0  0  0  0
 16 18  1  0  0  0  0
 17 16  1  0  0  0  0
 19 16  1  0  0  0  0
 20  3  1  0  0  0  0
M  END
