Coordinates from ORCA-job 4-NO2-Ph-N2-BF4-B3LYPG-6-31G_dp-MTMO-d009-169-n800
 OpenBabel09051908343D

 20 18  0  0  0  0  0  0  0  0999 V2000
   -2.0063   -0.2352    0.6552 C   0  0  0  0  0  0  0  0  0  0  0  0
   -0.7088    0.2657    0.6011 C   0  0  0  0  0  0  0  0  0  0  0  0
   -0.5170    1.6232    0.8367 C   0  0  0  0  0  0  0  0  0  0  0  0
   -1.5581    2.5008    1.1222 C   0  0  0  0  0  0  0  0  0  0  0  0
   -2.8537    1.9958    1.1753 C   0  0  0  0  0  0  0  0  0  0  0  0
   -3.0572    0.6360    0.9409 C   0  0  0  0  0  0  0  0  0  0  0  0
   -2.2166   -1.2826    0.4794 H   0  0  0  0  0  0  0  0  0  0  0  0
    0.1408   -0.3692    0.3819 H   0  0  0  0  0  0  0  0  0  0  0  0
   -1.3468    3.5493    1.2982 H   0  0  0  0  0  0  0  0  0  0  0  0
   -3.7024    2.6314    1.3934 H   0  0  0  0  0  0  0  0  0  0  0  0
   -4.4266    0.1036    0.9975 N   0  0  0  0  0  0  0  0  0  0  0  0
   -4.5786   -1.0990    0.7879 O   0  0  0  0  0  0  0  0  0  0  0  0
   -5.3344    0.8943    1.2512 O   0  0  0  0  0  0  0  0  0  0  0  0
   11.9443   -0.5415   -3.1303 N   0  0  0  0  0  0  0  0  0  0  0  0
   10.8998   -0.4540   -2.7795 N   0  0  0  0  0  0  0  0  0  0  0  0
    2.9407    1.2052   -0.0356 B   0  0  0  0  0  0  0  0  0  0  0  0
    2.5013   -0.0440    0.0253 F   0  0  0  0  0  0  0  0  0  0  0  0
    3.5443    1.7368    1.0072 F   0  0  0  0  0  0  0  0  0  0  0  0
    2.8369    1.8783   -1.1635 F   0  0  0  0  0  0  0  0  0  0  0  0
    0.7418    2.1240    0.7885 F   0  0  0  0  0  0  0  0  0  0  0  0
  1  6  1  0  0  0  0
  2  1  2  0  0  0  0
  2  3  1  0  0  0  0
  3  4  2  0  0  0  0
  4  5  1  0  0  0  0
  4  9  1  0  0  0  0
  5 10  1  0  0  0  0
  6 11  1  0  0  0  0
  6  5  2  0  0  0  0
  7  1  1  0  0  0  0
  8  2  1  0  0  0  0
 11 13  2  0  0  0  0
 12 11  2  0  0  0  0
 14 15  3  0  0  0  0
 16 17  1  0  0  0  0
 16 18  1  0  0  0  0
 19 16  1  0  0  0  0
 20  3  1  0  0  0  0
M  END
