Coordinates from ORCA-job 4-NO2-Ph-N2-BF4-B3LYPG-6-31G_dp-MTMO-d009-169-n800
 OpenBabel09051908343D

 20 18  0  0  0  0  0  0  0  0999 V2000
   -1.8910   -0.2491    0.6270 C   0  0  0  0  0  0  0  0  0  0  0  0
   -0.5900    0.2418    0.5683 C   0  0  0  0  0  0  0  0  0  0  0  0
   -0.3876    1.5992    0.7956 C   0  0  0  0  0  0  0  0  0  0  0  0
   -1.4219    2.4861    1.0772 C   0  0  0  0  0  0  0  0  0  0  0  0
   -2.7212    1.9912    1.1350 C   0  0  0  0  0  0  0  0  0  0  0  0
   -2.9352    0.6315    0.9090 C   0  0  0  0  0  0  0  0  0  0  0  0
   -2.1092   -1.2959    0.4577 H   0  0  0  0  0  0  0  0  0  0  0  0
    0.2544   -0.4008    0.3515 H   0  0  0  0  0  0  0  0  0  0  0  0
   -1.2025    3.5340    1.2468 H   0  0  0  0  0  0  0  0  0  0  0  0
   -3.5648    2.6344    1.3505 H   0  0  0  0  0  0  0  0  0  0  0  0
   -4.3083    0.1097    0.9705 N   0  0  0  0  0  0  0  0  0  0  0  0
   -4.4695   -1.0930    0.7684 O   0  0  0  0  0  0  0  0  0  0  0  0
   -5.2099    0.9086    1.2204 O   0  0  0  0  0  0  0  0  0  0  0  0
   10.8259   -0.3499   -2.7924 N   0  0  0  0  0  0  0  0  0  0  0  0
    9.7830   -0.2694   -2.4355 N   0  0  0  0  0  0  0  0  0  0  0  0
    3.0643    1.1487   -0.0839 B   0  0  0  0  0  0  0  0  0  0  0  0
    2.6128   -0.0962   -0.0232 F   0  0  0  0  0  0  0  0  0  0  0  0
    3.6740    1.6740    0.9586 F   0  0  0  0  0  0  0  0  0  0  0  0
    2.9654    1.8235   -1.2112 F   0  0  0  0  0  0  0  0  0  0  0  0
    0.8747    2.0905    0.7429 F   0  0  0  0  0  0  0  0  0  0  0  0
  1  6  1  0  0  0  0
  2  1  2  0  0  0  0
  2  3  1  0  0  0  0
  3  4  2  0  0  0  0
  4  5  1  0  0  0  0
  4  9  1  0  0  0  0
  5 10  1  0  0  0  0
  6 11  1  0  0  0  0
  6  5  2  0  0  0  0
  7  1  1  0  0  0  0
  8  2  1  0  0  0  0
 11 13  2  0  0  0  0
 12 11  2  0  0  0  0
 14 15  3  0  0  0  0
 16 17  1  0  0  0  0
 16 18  1  0  0  0  0
 19 16  1  0  0  0  0
 20  3  1  0  0  0  0
M  END
