Coordinates from ORCA-job 4-NO2-Ph-N2-BF4-B3LYPG-6-31G_dp-MTMO-d009-169-n800
 OpenBabel09051908343D

 20 18  0  0  0  0  0  0  0  0999 V2000
   -1.2755   -0.2990    0.6197 C   0  0  0  0  0  0  0  0  0  0  0  0
    0.0082    0.1899    0.8420 C   0  0  0  0  0  0  0  0  0  0  0  0
    0.1627    1.5521    1.0786 C   0  0  0  0  0  0  0  0  0  0  0  0
   -0.9033    2.4456    1.1009 C   0  0  0  0  0  0  0  0  0  0  0  0
   -2.1857    1.9526    0.8795 C   0  0  0  0  0  0  0  0  0  0  0  0
   -2.3515    0.5883    0.6423 C   0  0  0  0  0  0  0  0  0  0  0  0
   -1.4566   -1.3493    0.4287 H   0  0  0  0  0  0  0  0  0  0  0  0
    0.8768   -0.4569    0.8313 H   0  0  0  0  0  0  0  0  0  0  0  0
   -0.7216    3.4972    1.2916 H   0  0  0  0  0  0  0  0  0  0  0  0
   -3.0528    2.6006    0.8869 H   0  0  0  0  0  0  0  0  0  0  0  0
   -3.7068    0.0684    0.4094 N   0  0  0  0  0  0  0  0  0  0  0  0
   -3.8256   -1.1385    0.2018 O   0  0  0  0  0  0  0  0  0  0  0  0
   -4.6373    0.8729    0.4367 O   0  0  0  0  0  0  0  0  0  0  0  0
    5.9546   -0.4182   -2.4605 N   0  0  0  0  0  0  0  0  0  0  0  0
    5.3504    0.1287   -1.7153 N   0  0  0  0  0  0  0  0  0  0  0  0
    3.3953    1.2189   -0.0321 B   0  0  0  0  0  0  0  0  0  0  0  0
    3.2925    0.0198    0.5224 F   0  0  0  0  0  0  0  0  0  0  0  0
    4.1986    2.1203    0.4940 F   0  0  0  0  0  0  0  0  0  0  0  0
    2.7130    1.4884   -1.1292 F   0  0  0  0  0  0  0  0  0  0  0  0
    1.4076    2.0371    1.3046 F   0  0  0  0  0  0  0  0  0  0  0  0
  1  6  2  0  0  0  0
  1  2  1  0  0  0  0
  2  3  2  0  0  0  0
  3  4  1  0  0  0  0
  3 20  1  0  0  0  0
  4  9  1  0  0  0  0
  5 10  1  0  0  0  0
  5  4  2  0  0  0  0
  6  5  1  0  0  0  0
  7  1  1  0  0  0  0
  8  2  1  0  0  0  0
 11 13  2  0  0  0  0
 11  6  1  0  0  0  0
 12 11  2  0  0  0  0
 14 15  3  0  0  0  0
 16 18  1  0  0  0  0
 16 17  1  0  0  0  0
 19 16  1  0  0  0  0
M  END
