Coordinates from ORCA-job 4-NO2-Ph-N2-BF4-B3LYPG-6-31G_dp-MTMO-d009-169-n800
 OpenBabel09051908343D

 20 18  0  0  0  0  0  0  0  0999 V2000
   -1.5168   -0.2672    0.4966 C   0  0  0  0  0  0  0  0  0  0  0  0
   -0.2247    0.2350    0.3741 C   0  0  0  0  0  0  0  0  0  0  0  0
   -0.0183    1.5903    0.6124 C   0  0  0  0  0  0  0  0  0  0  0  0
   -1.0412    2.4644    0.9668 C   0  0  0  0  0  0  0  0  0  0  0  0
   -2.3319    1.9584    1.0883 C   0  0  0  0  0  0  0  0  0  0  0  0
   -2.5494    0.6011    0.8512 C   0  0  0  0  0  0  0  0  0  0  0  0
   -1.7374   -1.3125    0.3220 H   0  0  0  0  0  0  0  0  0  0  0  0
    0.6124   -0.3960    0.1006 H   0  0  0  0  0  0  0  0  0  0  0  0
   -0.8200    3.5110    1.1417 H   0  0  0  0  0  0  0  0  0  0  0  0
   -3.1665    2.5915    1.3611 H   0  0  0  0  0  0  0  0  0  0  0  0
   -3.9134    0.0684    0.9795 N   0  0  0  0  0  0  0  0  0  0  0  0
   -4.0785   -1.1316    0.7642 O   0  0  0  0  0  0  0  0  0  0  0  0
   -4.8050    0.8559    1.2941 O   0  0  0  0  0  0  0  0  0  0  0  0
    7.2567   -0.0614   -1.5549 N   0  0  0  0  0  0  0  0  0  0  0  0
    6.2246    0.1701   -1.2359 N   0  0  0  0  0  0  0  0  0  0  0  0
    3.5249    1.0456   -0.3533 B   0  0  0  0  0  0  0  0  0  0  0  0
    3.0144   -0.1773   -0.3316 F   0  0  0  0  0  0  0  0  0  0  0  0
    4.1152    1.5274    0.7208 F   0  0  0  0  0  0  0  0  0  0  0  0
    3.4624    1.7590   -1.4590 F   0  0  0  0  0  0  0  0  0  0  0  0
    1.2358    2.0868    0.4946 F   0  0  0  0  0  0  0  0  0  0  0  0
  1  6  1  0  0  0  0
  2  1  2  0  0  0  0
  2  3  1  0  0  0  0
  3  4  2  0  0  0  0
  4  5  1  0  0  0  0
  4  9  1  0  0  0  0
  5 10  1  0  0  0  0
  6 11  1  0  0  0  0
  6  5  2  0  0  0  0
  7  1  1  0  0  0  0
  8  2  1  0  0  0  0
 11 13  2  0  0  0  0
 12 11  2  0  0  0  0
 14 15  3  0  0  0  0
 16 17  1  0  0  0  0
 16 18  1  0  0  0  0
 19 16  1  0  0  0  0
 20  3  1  0  0  0  0
M  END
