Coordinates from ORCA-job 4-NO2-Ph-N2-BF4-B3LYPG-6-31G_dp-MTMO-d009-169-n800
 OpenBabel09051908343D

 20 18  0  0  0  0  0  0  0  0999 V2000
   -1.8417   -0.2549    0.6132 C   0  0  0  0  0  0  0  0  0  0  0  0
   -0.5391    0.2315    0.5495 C   0  0  0  0  0  0  0  0  0  0  0  0
   -0.3313    1.5884    0.7746 C   0  0  0  0  0  0  0  0  0  0  0  0
   -1.3615    2.4793    1.0586 C   0  0  0  0  0  0  0  0  0  0  0  0
   -2.6623    1.9889    1.1212 C   0  0  0  0  0  0  0  0  0  0  0  0
   -2.8818    0.6297    0.8975 C   0  0  0  0  0  0  0  0  0  0  0  0
   -2.0642   -1.3011    0.4459 H   0  0  0  0  0  0  0  0  0  0  0  0
    0.3024   -0.4141    0.3307 H   0  0  0  0  0  0  0  0  0  0  0  0
   -1.1380    3.5266    1.2262 H   0  0  0  0  0  0  0  0  0  0  0  0
   -3.5030    2.6353    1.3387 H   0  0  0  0  0  0  0  0  0  0  0  0
   -4.2565    0.1129    0.9643 N   0  0  0  0  0  0  0  0  0  0  0  0
   -4.4226   -1.0896    0.7642 O   0  0  0  0  0  0  0  0  0  0  0  0
   -5.1545    0.9152    1.2163 O   0  0  0  0  0  0  0  0  0  0  0  0
   10.3385   -0.2650   -2.6328 N   0  0  0  0  0  0  0  0  0  0  0  0
    9.2959   -0.1863   -2.2747 N   0  0  0  0  0  0  0  0  0  0  0  0
    3.1179    1.1230   -0.1132 B   0  0  0  0  0  0  0  0  0  0  0  0
    2.6605   -0.1198   -0.0541 F   0  0  0  0  0  0  0  0  0  0  0  0
    3.7309    1.6437    0.9296 F   0  0  0  0  0  0  0  0  0  0  0  0
    3.0211    1.8001   -1.2393 F   0  0  0  0  0  0  0  0  0  0  0  0
    0.9326    2.0751    0.7171 F   0  0  0  0  0  0  0  0  0  0  0  0
  1  6  1  0  0  0  0
  2  1  2  0  0  0  0
  2  3  1  0  0  0  0
  3  4  2  0  0  0  0
  4  5  1  0  0  0  0
  4  9  1  0  0  0  0
  5 10  1  0  0  0  0
  6 11  1  0  0  0  0
  6  5  2  0  0  0  0
  7  1  1  0  0  0  0
  8  2  1  0  0  0  0
 11 13  2  0  0  0  0
 12 11  2  0  0  0  0
 14 15  3  0  0  0  0
 16 17  1  0  0  0  0
 16 18  1  0  0  0  0
 19 16  1  0  0  0  0
 20  3  1  0  0  0  0
M  END
