Coordinates from ORCA-job 4-NO2-Ph-N2-BF4-B3LYPG-6-31G_dp-MTMO-d009-169-n800
 OpenBabel09051908343D

 20 18  0  0  0  0  0  0  0  0999 V2000
   -1.7474   -0.2648    0.5821 C   0  0  0  0  0  0  0  0  0  0  0  0
   -0.4428    0.2138    0.5026 C   0  0  0  0  0  0  0  0  0  0  0  0
   -0.2241    1.5692    0.7265 C   0  0  0  0  0  0  0  0  0  0  0  0
   -1.2453    2.4658    1.0246 C   0  0  0  0  0  0  0  0  0  0  0  0
   -2.5481    1.9832    1.1030 C   0  0  0  0  0  0  0  0  0  0  0  0
   -2.7786    0.6256    0.8805 C   0  0  0  0  0  0  0  0  0  0  0  0
   -1.9782   -1.3095    0.4164 H   0  0  0  0  0  0  0  0  0  0  0  0
    0.3921   -0.4366    0.2726 H   0  0  0  0  0  0  0  0  0  0  0  0
   -1.0134    3.5116    1.1906 H   0  0  0  0  0  0  0  0  0  0  0  0
   -3.3821    2.6344    1.3317 H   0  0  0  0  0  0  0  0  0  0  0  0
   -4.1554    0.1169    0.9636 N   0  0  0  0  0  0  0  0  0  0  0  0
   -4.3313   -1.0842    0.7639 O   0  0  0  0  0  0  0  0  0  0  0  0
   -5.0454    0.9242    1.2280 O   0  0  0  0  0  0  0  0  0  0  0  0
    9.4044   -0.1103   -2.2998 N   0  0  0  0  0  0  0  0  0  0  0  0
    8.3607   -0.0234   -1.9467 N   0  0  0  0  0  0  0  0  0  0  0  0
    3.2199    1.0749   -0.1839 B   0  0  0  0  0  0  0  0  0  0  0  0
    2.7486   -0.1631   -0.1315 F   0  0  0  0  0  0  0  0  0  0  0  0
    3.8384    1.5833    0.8617 F   0  0  0  0  0  0  0  0  0  0  0  0
    3.1293    1.7596   -1.3058 F   0  0  0  0  0  0  0  0  0  0  0  0
    1.0418    2.0484    0.6531 F   0  0  0  0  0  0  0  0  0  0  0  0
  1  6  1  0  0  0  0
  2  1  2  0  0  0  0
  2  3  1  0  0  0  0
  3  4  2  0  0  0  0
  4  5  1  0  0  0  0
  4  9  1  0  0  0  0
  5 10  1  0  0  0  0
  6 11  1  0  0  0  0
  6  5  2  0  0  0  0
  7  1  1  0  0  0  0
  8  2  1  0  0  0  0
 11 13  2  0  0  0  0
 12 11  2  0  0  0  0
 14 15  3  0  0  0  0
 16 17  1  0  0  0  0
 16 18  1  0  0  0  0
 19 16  1  0  0  0  0
 20  3  1  0  0  0  0
M  END
