Coordinates from ORCA-job 4-NO2-Ph-N2-BF4-B3LYPG-6-31G_dp-MTMO-d009-169-n800
 OpenBabel09051908343D

 20 18  0  0  0  0  0  0  0  0999 V2000
   -1.2556   -0.2484    0.5651 C   0  0  0  0  0  0  0  0  0  0  0  0
    0.0990   -0.0281    0.7966 C   0  0  0  0  0  0  0  0  0  0  0  0
    0.5558    1.2854    0.8313 C   0  0  0  0  0  0  0  0  0  0  0  0
   -0.2758    2.3849    0.6440 C   0  0  0  0  0  0  0  0  0  0  0  0
   -1.6292    2.1602    0.4126 C   0  0  0  0  0  0  0  0  0  0  0  0
   -2.0979    0.8470    0.3763 C   0  0  0  0  0  0  0  0  0  0  0  0
   -1.6681   -1.2487    0.5275 H   0  0  0  0  0  0  0  0  0  0  0  0
    0.7939   -0.8445    0.9485 H   0  0  0  0  0  0  0  0  0  0  0  0
    0.1378    3.3861    0.6813 H   0  0  0  0  0  0  0  0  0  0  0  0
   -2.3226    2.9771    0.2593 H   0  0  0  0  0  0  0  0  0  0  0  0
   -3.5277    0.6105    0.1295 N   0  0  0  0  0  0  0  0  0  0  0  0
   -3.9164   -0.5564    0.1061 O   0  0  0  0  0  0  0  0  0  0  0  0
   -4.2467    1.5948   -0.0391 O   0  0  0  0  0  0  0  0  0  0  0  0
    2.3513    1.5913   -2.0197 N   0  0  0  0  0  0  0  0  0  0  0  0
    2.6313    1.6147   -3.0884 N   0  0  0  0  0  0  0  0  0  0  0  0
    3.9214    0.0348    1.1107 B   0  0  0  0  0  0  0  0  0  0  0  0
    3.1773   -1.0582    1.1979 F   0  0  0  0  0  0  0  0  0  0  0  0
    4.3073    0.6535    2.2071 F   0  0  0  0  0  0  0  0  0  0  0  0
    4.3364    0.4477   -0.0707 F   0  0  0  0  0  0  0  0  0  0  0  0
    1.8719    1.5152    1.0576 F   0  0  0  0  0  0  0  0  0  0  0  0
  1  2  2  0  0  0  0
  2  3  1  0  0  0  0
  2  8  1  0  0  0  0
  3 20  1  0  0  0  0
  4  9  1  0  0  0  0
  4  3  2  0  0  0  0
  5  4  1  0  0  0  0
  6  5  2  0  0  0  0
  6  1  1  0  0  0  0
  7  1  1  0  0  0  0
 10  5  1  0  0  0  0
 11  6  1  0  0  0  0
 12 11  2  0  0  0  0
 13 11  2  0  0  0  0
 15 14  3  0  0  0  0
 16 17  1  0  0  0  0
 16 18  1  0  0  0  0
 19 16  1  0  0  0  0
M  END
