Coordinates from ORCA-job 4-NO2-Ph-N2-BF4-B3LYPG-6-31G_dp-MTMO-d009-169-n800
 OpenBabel09051908343D

 20 18  0  0  0  0  0  0  0  0999 V2000
   -1.6073   -0.2699    0.5173 C   0  0  0  0  0  0  0  0  0  0  0  0
   -0.3047    0.1987    0.3743 C   0  0  0  0  0  0  0  0  0  0  0  0
   -0.0617    1.5507    0.5964 C   0  0  0  0  0  0  0  0  0  0  0  0
   -1.0582    2.4534    0.9545 C   0  0  0  0  0  0  0  0  0  0  0  0
   -2.3595    1.9810    1.0964 C   0  0  0  0  0  0  0  0  0  0  0  0
   -2.6137    0.6272    0.8756 C   0  0  0  0  0  0  0  0  0  0  0  0
   -1.8559   -1.3111    0.3559 H   0  0  0  0  0  0  0  0  0  0  0  0
    0.5131   -0.4555    0.0974 H   0  0  0  0  0  0  0  0  0  0  0  0
   -0.8091    3.4959    1.1162 H   0  0  0  0  0  0  0  0  0  0  0  0
   -3.1748    2.6374    1.3729 H   0  0  0  0  0  0  0  0  0  0  0  0
   -3.9888    0.1301    1.0253 N   0  0  0  0  0  0  0  0  0  0  0  0
   -4.1864   -1.0673    0.8227 O   0  0  0  0  0  0  0  0  0  0  0  0
   -4.8565    0.9422    1.3439 O   0  0  0  0  0  0  0  0  0  0  0  0
    7.7204    0.2491   -1.5958 N   0  0  0  0  0  0  0  0  0  0  0  0
    6.6647    0.3623   -1.2890 N   0  0  0  0  0  0  0  0  0  0  0  0
    3.4984    0.9035   -0.3691 B   0  0  0  0  0  0  0  0  0  0  0  0
    2.9213   -0.2894   -0.3471 F   0  0  0  0  0  0  0  0  0  0  0  0
    4.1110    1.3535    0.7059 F   0  0  0  0  0  0  0  0  0  0  0  0
    3.4881    1.6124   -1.4788 F   0  0  0  0  0  0  0  0  0  0  0  0
    1.2029    2.0146    0.4582 F   0  0  0  0  0  0  0  0  0  0  0  0
  1  6  1  0  0  0  0
  2  1  2  0  0  0  0
  2  3  1  0  0  0  0
  3  4  2  0  0  0  0
  4  5  1  0  0  0  0
  4  9  1  0  0  0  0
  5 10  1  0  0  0  0
  6 11  1  0  0  0  0
  6  5  2  0  0  0  0
  7  1  1  0  0  0  0
  8  2  1  0  0  0  0
 11 13  2  0  0  0  0
 12 11  2  0  0  0  0
 14 15  3  0  0  0  0
 16 17  1  0  0  0  0
 16 18  1  0  0  0  0
 19 16  1  0  0  0  0
 20  3  1  0  0  0  0
M  END
