Coordinates from ORCA-job 4-NO2-Ph-N2-BF4-B3LYPG-6-31G_dp-MTMO-d009-169-n800
 OpenBabel09051908343D

 20 18  0  0  0  0  0  0  0  0999 V2000
   -1.7580   -0.2641    0.5858 C   0  0  0  0  0  0  0  0  0  0  0  0
   -0.4535    0.2148    0.5081 C   0  0  0  0  0  0  0  0  0  0  0  0
   -0.2355    1.5704    0.7317 C   0  0  0  0  0  0  0  0  0  0  0  0
   -1.2573    2.4669    1.0279 C   0  0  0  0  0  0  0  0  0  0  0  0
   -2.5601    1.9839    1.1046 C   0  0  0  0  0  0  0  0  0  0  0  0
   -2.7898    0.6262    0.8823 C   0  0  0  0  0  0  0  0  0  0  0  0
   -1.9883   -1.3089    0.4202 H   0  0  0  0  0  0  0  0  0  0  0  0
    0.3820   -0.4353    0.2795 H   0  0  0  0  0  0  0  0  0  0  0  0
   -1.0259    3.5129    1.1938 H   0  0  0  0  0  0  0  0  0  0  0  0
   -3.3946    2.6350    1.3318 H   0  0  0  0  0  0  0  0  0  0  0  0
   -4.1667    0.1172    0.9637 N   0  0  0  0  0  0  0  0  0  0  0  0
   -4.3419   -1.0840    0.7641 O   0  0  0  0  0  0  0  0  0  0  0  0
   -5.0573    0.9244    1.2262 O   0  0  0  0  0  0  0  0  0  0  0  0
    9.5048   -0.1253   -2.3361 N   0  0  0  0  0  0  0  0  0  0  0  0
    8.4613   -0.0395   -1.9820 N   0  0  0  0  0  0  0  0  0  0  0  0
    3.2092    1.0798   -0.1762 B   0  0  0  0  0  0  0  0  0  0  0  0
    2.7396   -0.1587   -0.1231 F   0  0  0  0  0  0  0  0  0  0  0  0
    3.8271    1.5896    0.8692 F   0  0  0  0  0  0  0  0  0  0  0  0
    3.1179    1.7638   -1.2985 F   0  0  0  0  0  0  0  0  0  0  0  0
    1.0304    2.0498    0.6600 F   0  0  0  0  0  0  0  0  0  0  0  0
  1  6  1  0  0  0  0
  2  1  2  0  0  0  0
  2  3  1  0  0  0  0
  3  4  2  0  0  0  0
  4  5  1  0  0  0  0
  4  9  1  0  0  0  0
  5 10  1  0  0  0  0
  6 11  1  0  0  0  0
  6  5  2  0  0  0  0
  7  1  1  0  0  0  0
  8  2  1  0  0  0  0
 11 13  2  0  0  0  0
 12 11  2  0  0  0  0
 14 15  3  0  0  0  0
 16 17  1  0  0  0  0
 16 18  1  0  0  0  0
 19 16  1  0  0  0  0
 20  3  1  0  0  0  0
M  END
