Coordinates from ORCA-job 4-NO2-Ph-N2-BF4-B3LYPG-6-31G_dp-MTMO-d009-169-n800
 OpenBabel09051908343D

 20 18  0  0  0  0  0  0  0  0999 V2000
   -1.9984   -0.2139    0.5480 C   0  0  0  0  0  0  0  0  0  0  0  0
   -0.7921    0.4801    0.5697 C   0  0  0  0  0  0  0  0  0  0  0  0
   -0.8031    1.8060    0.9905 C   0  0  0  0  0  0  0  0  0  0  0  0
   -1.9596    2.4690    1.3886 C   0  0  0  0  0  0  0  0  0  0  0  0
   -3.1634    1.7712    1.3656 C   0  0  0  0  0  0  0  0  0  0  0  0
   -3.1638    0.4411    0.9457 C   0  0  0  0  0  0  0  0  0  0  0  0
   -2.0512   -1.2470    0.2296 H   0  0  0  0  0  0  0  0  0  0  0  0
    0.1396    0.0170    0.2696 H   0  0  0  0  0  0  0  0  0  0  0  0
   -1.9061    3.5033    1.7074 H   0  0  0  0  0  0  0  0  0  0  0  0
   -4.0943    2.2353    1.6649 H   0  0  0  0  0  0  0  0  0  0  0  0
   -4.4366   -0.2951    0.9215 N   0  0  0  0  0  0  0  0  0  0  0  0
   -4.4095   -1.4666    0.5473 O   0  0  0  0  0  0  0  0  0  0  0  0
   -5.4488    0.3072    1.2767 O   0  0  0  0  0  0  0  0  0  0  0  0
   13.6547   -1.7692   -3.7133 N   0  0  0  0  0  0  0  0  0  0  0  0
   12.6309   -1.5432   -3.3632 N   0  0  0  0  0  0  0  0  0  0  0  0
    2.6529    2.0404    0.0743 B   0  0  0  0  0  0  0  0  0  0  0  0
    2.4235    0.7367    0.0041 F   0  0  0  0  0  0  0  0  0  0  0  0
    3.1994    2.5505    1.1585 F   0  0  0  0  0  0  0  0  0  0  0  0
    2.4037    2.8030   -0.9709 F   0  0  0  0  0  0  0  0  0  0  0  0
    0.3655    2.4932    1.0187 F   0  0  0  0  0  0  0  0  0  0  0  0
  1  2  2  0  0  0  0
  1  6  1  0  0  0  0
  2  3  1  0  0  0  0
  3 20  1  0  0  0  0
  3  4  2  0  0  0  0
  4  9  1  0  0  0  0
  5  4  1  0  0  0  0
  5 10  1  0  0  0  0
  6  5  2  0  0  0  0
  7  1  1  0  0  0  0
  8  2  1  0  0  0  0
 11  6  1  0  0  0  0
 11 13  2  0  0  0  0
 12 11  2  0  0  0  0
 14 15  3  0  0  0  0
 16 18  1  0  0  0  0
 17 16  1  0  0  0  0
 19 16  1  0  0  0  0
M  END
