Coordinates from ORCA-job 4-NO2-Ph-N2-BF4-B3LYPG-6-31G_dp-MTMO-d009-169-n800
 OpenBabel09051908343D

 20 18  0  0  0  0  0  0  0  0999 V2000
   -1.1651   -0.2307    0.4482 C   0  0  0  0  0  0  0  0  0  0  0  0
    0.1928    0.0003    0.6385 C   0  0  0  0  0  0  0  0  0  0  0  0
    0.6459    1.3158    0.6174 C   0  0  0  0  0  0  0  0  0  0  0  0
   -0.2073    2.4103    0.5146 C   0  0  0  0  0  0  0  0  0  0  0  0
   -1.5643    2.1759    0.3242 C   0  0  0  0  0  0  0  0  0  0  0  0
   -2.0215    0.8584    0.2841 C   0  0  0  0  0  0  0  0  0  0  0  0
   -1.5727   -1.2336    0.4342 H   0  0  0  0  0  0  0  0  0  0  0  0
    0.8975   -0.8104    0.7754 H   0  0  0  0  0  0  0  0  0  0  0  0
    0.1976    3.4150    0.5559 H   0  0  0  0  0  0  0  0  0  0  0  0
   -2.2717    2.9880    0.2159 H   0  0  0  0  0  0  0  0  0  0  0  0
   -3.4560    0.6110    0.0813 N   0  0  0  0  0  0  0  0  0  0  0  0
   -3.8350   -0.5591    0.0616 O   0  0  0  0  0  0  0  0  0  0  0  0
   -4.1883    1.5903   -0.0568 O   0  0  0  0  0  0  0  0  0  0  0  0
    1.2514    1.3154   -1.6862 N   0  0  0  0  0  0  0  0  0  0  0  0
    2.3038    1.5536   -1.9339 N   0  0  0  0  0  0  0  0  0  0  0  0
    4.0082    0.0543    1.1251 B   0  0  0  0  0  0  0  0  0  0  0  0
    3.2532   -1.0332    1.1890 F   0  0  0  0  0  0  0  0  0  0  0  0
    4.3341    0.6893    2.2317 F   0  0  0  0  0  0  0  0  0  0  0  0
    4.4800    0.4515   -0.0390 F   0  0  0  0  0  0  0  0  0  0  0  0
    1.9606    1.5568    0.8521 F   0  0  0  0  0  0  0  0  0  0  0  0
  1  2  2  0  0  0  0
  2  8  1  0  0  0  0
  3  2  1  0  0  0  0
  3 20  1  0  0  0  0
  4  9  1  0  0  0  0
  4  3  2  0  0  0  0
  5  4  1  0  0  0  0
  6  5  2  0  0  0  0
  6  1  1  0  0  0  0
  7  1  1  0  0  0  0
 10  5  1  0  0  0  0
 11  6  1  0  0  0  0
 12 11  2  0  0  0  0
 13 11  2  0  0  0  0
 15 14  3  0  0  0  0
 16 17  1  0  0  0  0
 16 18  1  0  0  0  0
 19 16  1  0  0  0  0
M  END
