Coordinates from ORCA-job 4-NO2-Ph-N2-BF4-B3LYPG-6-31G_dp-MTMO-d009-169-n800
 OpenBabel09051908343D

 20 18  0  0  0  0  0  0  0  0999 V2000
   -2.0226   -0.2098    0.5545 C   0  0  0  0  0  0  0  0  0  0  0  0
   -0.8151    0.4822    0.5742 C   0  0  0  0  0  0  0  0  0  0  0  0
   -0.8233    1.8083    0.9946 C   0  0  0  0  0  0  0  0  0  0  0  0
   -1.9782    2.4732    1.3943 C   0  0  0  0  0  0  0  0  0  0  0  0
   -3.1831    1.7774    1.3734 C   0  0  0  0  0  0  0  0  0  0  0  0
   -3.1863    0.4471    0.9539 C   0  0  0  0  0  0  0  0  0  0  0  0
   -2.0774   -1.2430    0.2365 H   0  0  0  0  0  0  0  0  0  0  0  0
    0.1154    0.0176    0.2727 H   0  0  0  0  0  0  0  0  0  0  0  0
   -1.9225    3.5075    1.7127 H   0  0  0  0  0  0  0  0  0  0  0  0
   -4.1128    2.2430    1.6740 H   0  0  0  0  0  0  0  0  0  0  0  0
   -4.4602   -0.2871    0.9319 N   0  0  0  0  0  0  0  0  0  0  0  0
   -4.4357   -1.4587    0.5580 O   0  0  0  0  0  0  0  0  0  0  0  0
   -5.4710    0.3170    1.2885 O   0  0  0  0  0  0  0  0  0  0  0  0
   13.8470   -1.7927   -3.7676 N   0  0  0  0  0  0  0  0  0  0  0  0
   12.8230   -1.5761   -3.4125 N   0  0  0  0  0  0  0  0  0  0  0  0
    2.6330    2.0376    0.0762 B   0  0  0  0  0  0  0  0  0  0  0  0
    2.3999    0.7348    0.0009 F   0  0  0  0  0  0  0  0  0  0  0  0
    3.1805    2.5420    1.1625 F   0  0  0  0  0  0  0  0  0  0  0  0
    2.3864    2.8049   -0.9662 F   0  0  0  0  0  0  0  0  0  0  0  0
    0.3464    2.4936    1.0209 F   0  0  0  0  0  0  0  0  0  0  0  0
  1  2  2  0  0  0  0
  1  6  1  0  0  0  0
  2  3  1  0  0  0  0
  3 20  1  0  0  0  0
  3  4  2  0  0  0  0
  4  9  1  0  0  0  0
  5  4  1  0  0  0  0
  5 10  1  0  0  0  0
  6  5  2  0  0  0  0
  7  1  1  0  0  0  0
  8  2  1  0  0  0  0
 11  6  1  0  0  0  0
 11 13  2  0  0  0  0
 12 11  2  0  0  0  0
 14 15  3  0  0  0  0
 16 18  1  0  0  0  0
 17 16  1  0  0  0  0
 19 16  1  0  0  0  0
M  END
