Coordinates from ORCA-job 4-NO2-Ph-N2-BF4-B3LYPG-6-31G_dp-MTMO-d009-169-n800
 OpenBabel09051908343D

 20 18  0  0  0  0  0  0  0  0999 V2000
   -1.4316   -0.2872    0.5629 C   0  0  0  0  0  0  0  0  0  0  0  0
   -0.1287    0.2015    0.5779 C   0  0  0  0  0  0  0  0  0  0  0  0
    0.0631    1.5606    0.8059 C   0  0  0  0  0  0  0  0  0  0  0  0
   -0.9848    2.4514    1.0167 C   0  0  0  0  0  0  0  0  0  0  0  0
   -2.2861    1.9587    1.0011 C   0  0  0  0  0  0  0  0  0  0  0  0
   -2.4890    0.5974    0.7747 C   0  0  0  0  0  0  0  0  0  0  0  0
   -1.6416   -1.3350    0.3896 H   0  0  0  0  0  0  0  0  0  0  0  0
    0.7267   -0.4427    0.4152 H   0  0  0  0  0  0  0  0  0  0  0  0
   -0.7741    3.5005    1.1901 H   0  0  0  0  0  0  0  0  0  0  0  0
   -3.1400    2.6048    1.1602 H   0  0  0  0  0  0  0  0  0  0  0  0
   -3.8642    0.0782    0.7595 N   0  0  0  0  0  0  0  0  0  0  0  0
   -4.0157   -1.1264    0.5600 O   0  0  0  0  0  0  0  0  0  0  0  0
   -4.7777    0.8806    0.9480 O   0  0  0  0  0  0  0  0  0  0  0  0
    6.8323   -0.1509   -1.9002 N   0  0  0  0  0  0  0  0  0  0  0  0
    5.8822    0.1505   -1.4243 N   0  0  0  0  0  0  0  0  0  0  0  0
    3.4816    1.1146   -0.2547 B   0  0  0  0  0  0  0  0  0  0  0  0
    3.0934   -0.1329   -0.0312 F   0  0  0  0  0  0  0  0  0  0  0  0
    4.1949    1.7514    0.6511 F   0  0  0  0  0  0  0  0  0  0  0  0
    3.1752    1.6980   -1.3964 F   0  0  0  0  0  0  0  0  0  0  0  0
    1.3273    2.0457    0.8270 F   0  0  0  0  0  0  0  0  0  0  0  0
  1  2  2  0  0  0  0
  1  6  1  0  0  0  0
  2  3  1  0  0  0  0
  3 20  1  0  0  0  0
  3  4  2  0  0  0  0
  4  9  1  0  0  0  0
  5  4  1  0  0  0  0
  5 10  1  0  0  0  0
  6  5  2  0  0  0  0
  7  1  1  0  0  0  0
  8  2  1  0  0  0  0
 11  6  1  0  0  0  0
 11 13  2  0  0  0  0
 12 11  2  0  0  0  0
 14 15  3  0  0  0  0
 16 17  1  0  0  0  0
 16 18  1  0  0  0  0
 19 16  1  0  0  0  0
M  END
