Coordinates from ORCA-job 4-NO2-Ph-N2-BF4-B3LYPG-6-31G_dp-MTMO-d009-169-n800
 OpenBabel09051908343D

 20 18  0  0  0  0  0  0  0  0999 V2000
   -1.9880   -0.2372    0.6509 C   0  0  0  0  0  0  0  0  0  0  0  0
   -0.6901    0.2627    0.5968 C   0  0  0  0  0  0  0  0  0  0  0  0
   -0.4973    1.6202    0.8311 C   0  0  0  0  0  0  0  0  0  0  0  0
   -1.5379    2.4987    1.1153 C   0  0  0  0  0  0  0  0  0  0  0  0
   -2.8339    1.9949    1.1686 C   0  0  0  0  0  0  0  0  0  0  0  0
   -3.0385    0.6350    0.9355 C   0  0  0  0  0  0  0  0  0  0  0  0
   -2.1990   -1.2845    0.4761 H   0  0  0  0  0  0  0  0  0  0  0  0
    0.1588   -0.3734    0.3784 H   0  0  0  0  0  0  0  0  0  0  0  0
   -1.3258    3.5473    1.2904 H   0  0  0  0  0  0  0  0  0  0  0  0
   -3.6821    2.6315    1.3858 H   0  0  0  0  0  0  0  0  0  0  0  0
   -4.4082    0.1038    0.9921 N   0  0  0  0  0  0  0  0  0  0  0  0
   -4.5610   -1.0990    0.7836 O   0  0  0  0  0  0  0  0  0  0  0  0
   -5.3155    0.8954    1.2446 O   0  0  0  0  0  0  0  0  0  0  0  0
   11.7737   -0.5140   -3.0812 N   0  0  0  0  0  0  0  0  0  0  0  0
   10.7296   -0.4273   -2.7293 N   0  0  0  0  0  0  0  0  0  0  0  0
    2.9591    1.1973   -0.0410 B   0  0  0  0  0  0  0  0  0  0  0  0
    2.5179   -0.0513    0.0202 F   0  0  0  0  0  0  0  0  0  0  0  0
    3.5635    1.7283    1.0016 F   0  0  0  0  0  0  0  0  0  0  0  0
    2.8561    1.8702   -1.1691 F   0  0  0  0  0  0  0  0  0  0  0  0
    0.7619    2.1203    0.7829 F   0  0  0  0  0  0  0  0  0  0  0  0
  1  6  1  0  0  0  0
  2  1  2  0  0  0  0
  2  3  1  0  0  0  0
  3  4  2  0  0  0  0
  4  5  1  0  0  0  0
  4  9  1  0  0  0  0
  5 10  1  0  0  0  0
  6 11  1  0  0  0  0
  6  5  2  0  0  0  0
  7  1  1  0  0  0  0
  8  2  1  0  0  0  0
 11 13  2  0  0  0  0
 12 11  2  0  0  0  0
 14 15  3  0  0  0  0
 16 17  1  0  0  0  0
 16 18  1  0  0  0  0
 19 16  1  0  0  0  0
 20  3  1  0  0  0  0
M  END
