Coordinates from ORCA-job 4-NO2-Ph-N2-BF4-B3LYPG-6-31G_dp-MTMO-d009-169-n800
 OpenBabel09051908343D

 20 18  0  0  0  0  0  0  0  0999 V2000
   -1.9940   -0.2146    0.5467 C   0  0  0  0  0  0  0  0  0  0  0  0
   -0.7879    0.4798    0.5687 C   0  0  0  0  0  0  0  0  0  0  0  0
   -0.7994    1.8057    0.9897 C   0  0  0  0  0  0  0  0  0  0  0  0
   -1.9563    2.4681    1.3876 C   0  0  0  0  0  0  0  0  0  0  0  0
   -3.1598    1.7700    1.3643 C   0  0  0  0  0  0  0  0  0  0  0  0
   -3.1597    0.4399    0.9443 C   0  0  0  0  0  0  0  0  0  0  0  0
   -2.0463   -1.2477    0.2281 H   0  0  0  0  0  0  0  0  0  0  0  0
    0.1440    0.0170    0.2688 H   0  0  0  0  0  0  0  0  0  0  0  0
   -1.9032    3.5025    1.7065 H   0  0  0  0  0  0  0  0  0  0  0  0
   -4.0910    2.2337    1.6635 H   0  0  0  0  0  0  0  0  0  0  0  0
   -4.4322   -0.2967    0.9197 N   0  0  0  0  0  0  0  0  0  0  0  0
   -4.4047   -1.4682    0.5453 O   0  0  0  0  0  0  0  0  0  0  0  0
   -5.4448    0.3052    1.2747 O   0  0  0  0  0  0  0  0  0  0  0  0
   13.6197   -1.7653   -3.7033 N   0  0  0  0  0  0  0  0  0  0  0  0
   12.5960   -1.5375   -3.3542 N   0  0  0  0  0  0  0  0  0  0  0  0
    2.6565    2.0412    0.0739 B   0  0  0  0  0  0  0  0  0  0  0  0
    2.4278    0.7372    0.0045 F   0  0  0  0  0  0  0  0  0  0  0  0
    3.2027    2.5522    1.1578 F   0  0  0  0  0  0  0  0  0  0  0  0
    2.4068    2.8030   -0.9718 F   0  0  0  0  0  0  0  0  0  0  0  0
    0.3688    2.4933    1.0182 F   0  0  0  0  0  0  0  0  0  0  0  0
  1  2  2  0  0  0  0
  1  6  1  0  0  0  0
  2  3  1  0  0  0  0
  3 20  1  0  0  0  0
  3  4  2  0  0  0  0
  4  9  1  0  0  0  0
  5  4  1  0  0  0  0
  5 10  1  0  0  0  0
  6  5  2  0  0  0  0
  7  1  1  0  0  0  0
  8  2  1  0  0  0  0
 11  6  1  0  0  0  0
 11 13  2  0  0  0  0
 12 11  2  0  0  0  0
 14 15  3  0  0  0  0
 16 18  1  0  0  0  0
 17 16  1  0  0  0  0
 19 16  1  0  0  0  0
M  END
