Coordinates from ORCA-job 4-NO2-Ph-N2-BF4-B3LYPG-6-31G_dp-MTMO-d009-169-n800
 OpenBabel09051908343D

 20 18  0  0  0  0  0  0  0  0999 V2000
   -1.4667   -0.3391    0.7513 C   0  0  0  0  0  0  0  0  0  0  0  0
   -0.1142   -0.1722    0.4696 C   0  0  0  0  0  0  0  0  0  0  0  0
    0.3409    1.1052    0.1595 C   0  0  0  0  0  0  0  0  0  0  0  0
   -0.4896    2.2203    0.1200 C   0  0  0  0  0  0  0  0  0  0  0  0
   -1.8414    2.0490    0.4020 C   0  0  0  0  0  0  0  0  0  0  0  0
   -2.3087    0.7722    0.7129 C   0  0  0  0  0  0  0  0  0  0  0  0
   -1.8777   -1.3093    0.9999 H   0  0  0  0  0  0  0  0  0  0  0  0
    0.5811   -1.0025    0.4905 H   0  0  0  0  0  0  0  0  0  0  0  0
   -0.0773    3.1912   -0.1288 H   0  0  0  0  0  0  0  0  0  0  0  0
   -2.5343    2.8807    0.3857 H   0  0  0  0  0  0  0  0  0  0  0  0
   -3.7374    0.5923    1.0103 N   0  0  0  0  0  0  0  0  0  0  0  0
   -4.1241   -0.5440    1.2798 O   0  0  0  0  0  0  0  0  0  0  0  0
   -4.4571    1.5893    0.9713 O   0  0  0  0  0  0  0  0  0  0  0  0
    4.2799    2.1005   -2.3301 N   0  0  0  0  0  0  0  0  0  0  0  0
    5.2709    2.3129   -2.7707 N   0  0  0  0  0  0  0  0  0  0  0  0
    3.5217    0.1119    1.0485 B   0  0  0  0  0  0  0  0  0  0  0  0
    3.0207   -1.0721    0.7299 F   0  0  0  0  0  0  0  0  0  0  0  0
    3.1616    0.6904    2.1773 F   0  0  0  0  0  0  0  0  0  0  0  0
    4.4387    0.6637    0.2791 F   0  0  0  0  0  0  0  0  0  0  0  0
    1.6563    1.2786   -0.1248 F   0  0  0  0  0  0  0  0  0  0  0  0
  1  7  1  0  0  0  0
  2  8  1  0  0  0  0
  2  1  2  0  0  0  0
  3  2  1  0  0  0  0
  4  3  2  0  0  0  0
  4  5  1  0  0  0  0
  5  6  2  0  0  0  0
  6  1  1  0  0  0  0
  6 11  1  0  0  0  0
  9  4  1  0  0  0  0
 10  5  1  0  0  0  0
 11 12  2  0  0  0  0
 13 11  2  0  0  0  0
 15 14  3  0  0  0  0
 16 18  1  0  0  0  0
 17 16  1  0  0  0  0
 19 16  1  0  0  0  0
 20  3  1  0  0  0  0
M  END
