Coordinates from ORCA-job 4-NO2-Ph-N2-BF4-B3LYPG-6-31G_dp-MTMO-d009-169-n800
 OpenBabel09051908343D

 20 18  0  0  0  0  0  0  0  0999 V2000
   -1.7155   -0.2682    0.5694 C   0  0  0  0  0  0  0  0  0  0  0  0
   -0.4105    0.2077    0.4809 C   0  0  0  0  0  0  0  0  0  0  0  0
   -0.1871    1.5623    0.7052 C   0  0  0  0  0  0  0  0  0  0  0  0
   -1.2038    2.4608    1.0124 C   0  0  0  0  0  0  0  0  0  0  0  0
   -2.5071    1.9810    1.0998 C   0  0  0  0  0  0  0  0  0  0  0  0
   -2.7423    0.6242    0.8769 C   0  0  0  0  0  0  0  0  0  0  0  0
   -1.9500   -1.3120    0.4038 H   0  0  0  0  0  0  0  0  0  0  0  0
    0.4214   -0.4439    0.2438 H   0  0  0  0  0  0  0  0  0  0  0  0
   -0.9684    3.5058    1.1782 H   0  0  0  0  0  0  0  0  0  0  0  0
   -3.3379    2.6337    1.3356 H   0  0  0  0  0  0  0  0  0  0  0  0
   -4.1197    0.1186    0.9694 N   0  0  0  0  0  0  0  0  0  0  0  0
   -4.2999   -1.0818    0.7688 O   0  0  0  0  0  0  0  0  0  0  0  0
   -5.0058    0.9275    1.2418 O   0  0  0  0  0  0  0  0  0  0  0  0
    9.0747   -0.0546   -2.1683 N   0  0  0  0  0  0  0  0  0  0  0  0
    8.0294    0.0386   -1.8217 N   0  0  0  0  0  0  0  0  0  0  0  0
    3.2578    1.0563   -0.2155 B   0  0  0  0  0  0  0  0  0  0  0  0
    2.7799   -0.1792   -0.1678 F   0  0  0  0  0  0  0  0  0  0  0  0
    3.8769    1.5583    0.8329 F   0  0  0  0  0  0  0  0  0  0  0  0
    3.1718    1.7455   -1.3351 F   0  0  0  0  0  0  0  0  0  0  0  0
    1.0794    2.0384    0.6227 F   0  0  0  0  0  0  0  0  0  0  0  0
  1  6  1  0  0  0  0
  2  1  2  0  0  0  0
  2  3  1  0  0  0  0
  3  4  2  0  0  0  0
  4  5  1  0  0  0  0
  4  9  1  0  0  0  0
  5 10  1  0  0  0  0
  6 11  1  0  0  0  0
  6  5  2  0  0  0  0
  7  1  1  0  0  0  0
  8  2  1  0  0  0  0
 11 13  2  0  0  0  0
 12 11  2  0  0  0  0
 14 15  3  0  0  0  0
 16 17  1  0  0  0  0
 16 18  1  0  0  0  0
 19 16  1  0  0  0  0
 20  3  1  0  0  0  0
M  END
