Coordinates from ORCA-job 4-NO2-Ph-N2-BF4-B3LYPG-6-31G_dp-MTMO-d009-169-n800
 OpenBabel09051908343D

 20 18  0  0  0  0  0  0  0  0999 V2000
   -1.9033   -0.2477    0.6302 C   0  0  0  0  0  0  0  0  0  0  0  0
   -0.6025    0.2442    0.5722 C   0  0  0  0  0  0  0  0  0  0  0  0
   -0.4013    1.6016    0.8001 C   0  0  0  0  0  0  0  0  0  0  0  0
   -1.4363    2.4876    1.0817 C   0  0  0  0  0  0  0  0  0  0  0  0
   -2.7353    1.9917    1.1388 C   0  0  0  0  0  0  0  0  0  0  0  0
   -2.9481    0.6320    0.9121 C   0  0  0  0  0  0  0  0  0  0  0  0
   -2.1206   -1.2946    0.4604 H   0  0  0  0  0  0  0  0  0  0  0  0
    0.2424   -0.3977    0.3554 H   0  0  0  0  0  0  0  0  0  0  0  0
   -1.2178    3.5356    1.2518 H   0  0  0  0  0  0  0  0  0  0  0  0
   -3.5794    2.6343    1.3542 H   0  0  0  0  0  0  0  0  0  0  0  0
   -4.3209    0.1092    0.9729 N   0  0  0  0  0  0  0  0  0  0  0  0
   -4.4811   -1.0936    0.7703 O   0  0  0  0  0  0  0  0  0  0  0  0
   -5.2232    0.9073    1.2228 O   0  0  0  0  0  0  0  0  0  0  0  0
   10.9443   -0.3699   -2.8292 N   0  0  0  0  0  0  0  0  0  0  0  0
    9.9012   -0.2889   -2.4729 N   0  0  0  0  0  0  0  0  0  0  0  0
    3.0512    1.1546   -0.0779 B   0  0  0  0  0  0  0  0  0  0  0  0
    2.6010   -0.0907   -0.0173 F   0  0  0  0  0  0  0  0  0  0  0  0
    3.6601    1.6806    0.9647 F   0  0  0  0  0  0  0  0  0  0  0  0
    2.9522    1.8293   -1.2054 F   0  0  0  0  0  0  0  0  0  0  0  0
    0.8608    2.0939    0.7481 F   0  0  0  0  0  0  0  0  0  0  0  0
  1  6  1  0  0  0  0
  2  1  2  0  0  0  0
  2  3  1  0  0  0  0
  3  4  2  0  0  0  0
  4  5  1  0  0  0  0
  4  9  1  0  0  0  0
  5 10  1  0  0  0  0
  6 11  1  0  0  0  0
  6  5  2  0  0  0  0
  7  1  1  0  0  0  0
  8  2  1  0  0  0  0
 11 13  2  0  0  0  0
 12 11  2  0  0  0  0
 14 15  3  0  0  0  0
 16 17  1  0  0  0  0
 16 18  1  0  0  0  0
 19 16  1  0  0  0  0
 20  3  1  0  0  0  0
M  END
