Coordinates from ORCA-job 4-NO2-Ph-N2-BF4-B3LYPG-6-31G_dp-MTMO-d009-169-n800
 OpenBabel09051908343D

 20 18  0  0  0  0  0  0  0  0999 V2000
   -1.5239   -0.2662    0.4973 C   0  0  0  0  0  0  0  0  0  0  0  0
   -0.2318    0.2354    0.3728 C   0  0  0  0  0  0  0  0  0  0  0  0
   -0.0242    1.5905    0.6109 C   0  0  0  0  0  0  0  0  0  0  0  0
   -1.0461    2.4651    0.9670 C   0  0  0  0  0  0  0  0  0  0  0  0
   -2.3368    1.9598    1.0905 C   0  0  0  0  0  0  0  0  0  0  0  0
   -2.5555    0.6026    0.8537 C   0  0  0  0  0  0  0  0  0  0  0  0
   -1.7454   -1.3114    0.3230 H   0  0  0  0  0  0  0  0  0  0  0  0
    0.6046   -0.3960    0.0980 H   0  0  0  0  0  0  0  0  0  0  0  0
   -0.8241    3.5116    1.1417 H   0  0  0  0  0  0  0  0  0  0  0  0
   -3.1707    2.5933    1.3647 H   0  0  0  0  0  0  0  0  0  0  0  0
   -3.9196    0.0707    0.9841 N   0  0  0  0  0  0  0  0  0  0  0  0
   -4.0856   -1.1293    0.7689 O   0  0  0  0  0  0  0  0  0  0  0  0
   -4.8102    0.8586    1.3004 O   0  0  0  0  0  0  0  0  0  0  0  0
    7.2967   -0.0454   -1.5579 N   0  0  0  0  0  0  0  0  0  0  0  0
    6.2625    0.1769   -1.2391 N   0  0  0  0  0  0  0  0  0  0  0  0
    3.5264    1.0361   -0.3560 B   0  0  0  0  0  0  0  0  0  0  0  0
    3.0086   -0.1837   -0.3345 F   0  0  0  0  0  0  0  0  0  0  0  0
    4.1168    1.5154    0.7191 F   0  0  0  0  0  0  0  0  0  0  0  0
    3.4712    1.7486   -1.4626 F   0  0  0  0  0  0  0  0  0  0  0  0
    1.2301    2.0862    0.4911 F   0  0  0  0  0  0  0  0  0  0  0  0
  1  6  1  0  0  0  0
  2  1  2  0  0  0  0
  2  3  1  0  0  0  0
  3  4  2  0  0  0  0
  4  5  1  0  0  0  0
  4  9  1  0  0  0  0
  5 10  1  0  0  0  0
  6 11  1  0  0  0  0
  6  5  2  0  0  0  0
  7  1  1  0  0  0  0
  8  2  1  0  0  0  0
 11 13  2  0  0  0  0
 12 11  2  0  0  0  0
 14 15  3  0  0  0  0
 16 17  1  0  0  0  0
 16 18  1  0  0  0  0
 19 16  1  0  0  0  0
 20  3  1  0  0  0  0
M  END
