Coordinates from ORCA-job 4-NO2-Ph-N2-BF4-B3LYPG-6-31G_dp-MTMO-d009-169-n800
 OpenBabel09051908343D

 20 18  0  0  0  0  0  0  0  0999 V2000
   -2.0843   -0.2247    0.6716 C   0  0  0  0  0  0  0  0  0  0  0  0
   -0.7903    0.2852    0.6198 C   0  0  0  0  0  0  0  0  0  0  0  0
   -0.6073    1.6421    0.8653 C   0  0  0  0  0  0  0  0  0  0  0  0
   -1.6540    2.5104    1.1585 C   0  0  0  0  0  0  0  0  0  0  0  0
   -2.9462    1.9964    1.2095 C   0  0  0  0  0  0  0  0  0  0  0  0
   -3.1408    0.6371    0.9652 C   0  0  0  0  0  0  0  0  0  0  0  0
   -2.2877   -1.2721    0.4883 H   0  0  0  0  0  0  0  0  0  0  0  0
    0.0629   -0.3427    0.3949 H   0  0  0  0  0  0  0  0  0  0  0  0
   -1.4495    3.5590    1.3421 H   0  0  0  0  0  0  0  0  0  0  0  0
   -3.7988    2.6247    1.4335 H   0  0  0  0  0  0  0  0  0  0  0  0
   -4.5065    0.0950    1.0195 N   0  0  0  0  0  0  0  0  0  0  0  0
   -4.6506   -1.1070    0.8007 O   0  0  0  0  0  0  0  0  0  0  0  0
   -5.4193    0.8775    1.2805 O   0  0  0  0  0  0  0  0  0  0  0  0
   12.7248   -0.6858   -3.3551 N   0  0  0  0  0  0  0  0  0  0  0  0
   11.6795   -0.5919   -3.0086 N   0  0  0  0  0  0  0  0  0  0  0  0
    2.8506    1.2519   -0.0118 B   0  0  0  0  0  0  0  0  0  0  0  0
    2.4216   -0.0008    0.0497 F   0  0  0  0  0  0  0  0  0  0  0  0
    3.4532    1.7877    1.0294 F   0  0  0  0  0  0  0  0  0  0  0  0
    2.7381    1.9247   -1.1391 F   0  0  0  0  0  0  0  0  0  0  0  0
    0.6480    2.1522    0.8194 F   0  0  0  0  0  0  0  0  0  0  0  0
  1  6  1  0  0  0  0
  2  1  2  0  0  0  0
  2  3  1  0  0  0  0
  3  4  2  0  0  0  0
  4  5  1  0  0  0  0
  4  9  1  0  0  0  0
  5 10  1  0  0  0  0
  6 11  1  0  0  0  0
  6  5  2  0  0  0  0
  7  1  1  0  0  0  0
  8  2  1  0  0  0  0
 11 13  2  0  0  0  0
 12 11  2  0  0  0  0
 14 15  3  0  0  0  0
 16 17  1  0  0  0  0
 16 18  1  0  0  0  0
 19 16  1  0  0  0  0
 20  3  1  0  0  0  0
M  END
