Coordinates from ORCA-job 4-NO2-Ph-N2-BF4-B3LYPG-6-31G_dp-MTMO-d009-169-n800
 OpenBabel09051908343D

 20 18  0  0  0  0  0  0  0  0999 V2000
   -2.1548   -0.2151    0.6830 C   0  0  0  0  0  0  0  0  0  0  0  0
   -0.8652    0.3061    0.6328 C   0  0  0  0  0  0  0  0  0  0  0  0
   -0.6926    1.6617    0.8926 C   0  0  0  0  0  0  0  0  0  0  0  0
   -1.7456    2.5179    1.1988 C   0  0  0  0  0  0  0  0  0  0  0  0
   -3.0333    1.9927    1.2481 C   0  0  0  0  0  0  0  0  0  0  0  0
   -3.2174    0.6346    0.9894 C   0  0  0  0  0  0  0  0  0  0  0  0
   -2.3502   -1.2621    0.4888 H   0  0  0  0  0  0  0  0  0  0  0  0
   -0.0075   -0.3123    0.3986 H   0  0  0  0  0  0  0  0  0  0  0  0
   -1.5491    3.5661    1.3932 H   0  0  0  0  0  0  0  0  0  0  0  0
   -3.8903    2.6114    1.4817 H   0  0  0  0  0  0  0  0  0  0  0  0
   -4.5784    0.0806    1.0418 N   0  0  0  0  0  0  0  0  0  0  0  0
   -4.7132   -1.1199    0.8094 O   0  0  0  0  0  0  0  0  0  0  0  0
   -5.4968    0.8524    1.3147 O   0  0  0  0  0  0  0  0  0  0  0  0
   13.4530   -0.8363   -3.5563 N   0  0  0  0  0  0  0  0  0  0  0  0
   12.4069   -0.7353   -3.2139 N   0  0  0  0  0  0  0  0  0  0  0  0
    2.7645    1.3093    0.0017 B   0  0  0  0  0  0  0  0  0  0  0  0
    2.3502    0.0517    0.0650 F   0  0  0  0  0  0  0  0  0  0  0  0
    3.3680    1.8510    1.0394 F   0  0  0  0  0  0  0  0  0  0  0  0
    2.6368    1.9817   -1.1242 F   0  0  0  0  0  0  0  0  0  0  0  0
    0.5582    2.1827    0.8485 F   0  0  0  0  0  0  0  0  0  0  0  0
  1  6  1  0  0  0  0
  2  1  2  0  0  0  0
  2  3  1  0  0  0  0
  3  4  2  0  0  0  0
  4  5  1  0  0  0  0
  4  9  1  0  0  0  0
  5 10  1  0  0  0  0
  6 11  1  0  0  0  0
  6  5  2  0  0  0  0
  7  1  1  0  0  0  0
  8  2  1  0  0  0  0
 11 13  2  0  0  0  0
 12 11  2  0  0  0  0
 14 15  3  0  0  0  0
 16 17  1  0  0  0  0
 16 18  1  0  0  0  0
 19 16  1  0  0  0  0
 20  3  1  0  0  0  0
M  END
