Coordinates from ORCA-job 4-NO2-Ph-N2-BF4-B3LYPG-6-31G_dp-MTMO-d009-169-n800
 OpenBabel09051908343D

 20 18  0  0  0  0  0  0  0  0999 V2000
   -1.2278   -0.2398    0.5286 C   0  0  0  0  0  0  0  0  0  0  0  0
    0.1217   -0.0192    0.7878 C   0  0  0  0  0  0  0  0  0  0  0  0
    0.5732    1.2949    0.8559 C   0  0  0  0  0  0  0  0  0  0  0  0
   -0.2597    2.3946    0.6766 C   0  0  0  0  0  0  0  0  0  0  0  0
   -1.6080    2.1700    0.4175 C   0  0  0  0  0  0  0  0  0  0  0  0
   -2.0710    0.8562    0.3469 C   0  0  0  0  0  0  0  0  0  0  0  0
   -1.6357   -1.2406    0.4643 H   0  0  0  0  0  0  0  0  0  0  0  0
    0.8167   -0.8361    0.9364 H   0  0  0  0  0  0  0  0  0  0  0  0
    0.1494    3.3963    0.7413 H   0  0  0  0  0  0  0  0  0  0  0  0
   -2.3018    2.9875    0.2686 H   0  0  0  0  0  0  0  0  0  0  0  0
   -3.4954    0.6195    0.0709 N   0  0  0  0  0  0  0  0  0  0  0  0
   -3.8791   -0.5481    0.0180 O   0  0  0  0  0  0  0  0  0  0  0  0
   -4.2152    1.6043   -0.0908 O   0  0  0  0  0  0  0  0  0  0  0  0
    2.1920    1.5168   -1.9221 N   0  0  0  0  0  0  0  0  0  0  0  0
    2.3854    1.5065   -3.0101 N   0  0  0  0  0  0  0  0  0  0  0  0
    3.9396    0.0480    1.1076 B   0  0  0  0  0  0  0  0  0  0  0  0
    3.1993   -1.0437    1.2336 F   0  0  0  0  0  0  0  0  0  0  0  0
    4.3574    0.6842    2.1821 F   0  0  0  0  0  0  0  0  0  0  0  0
    4.3189    0.4428   -0.0921 F   0  0  0  0  0  0  0  0  0  0  0  0
    1.8834    1.5246    1.1122 F   0  0  0  0  0  0  0  0  0  0  0  0
  1  2  2  0  0  0  0
  2  3  1  0  0  0  0
  2  8  1  0  0  0  0
  3 20  1  0  0  0  0
  4  9  1  0  0  0  0
  4  3  2  0  0  0  0
  5  4  1  0  0  0  0
  6  5  2  0  0  0  0
  6  1  1  0  0  0  0
  7  1  1  0  0  0  0
 10  5  1  0  0  0  0
 11  6  1  0  0  0  0
 12 11  2  0  0  0  0
 13 11  2  0  0  0  0
 15 14  3  0  0  0  0
 16 17  1  0  0  0  0
 16 18  1  0  0  0  0
 19 16  1  0  0  0  0
M  END
