Coordinates from ORCA-job 4-NO2-Ph-N2-BF4-B3LYPG-6-31G_dp-MTMO-d009-169-n800
 OpenBabel09051908343D

 20 18  0  0  0  0  0  0  0  0999 V2000
   -1.6283   -0.2724    0.5236 C   0  0  0  0  0  0  0  0  0  0  0  0
   -0.3227    0.1883    0.3812 C   0  0  0  0  0  0  0  0  0  0  0  0
   -0.0725    1.5392    0.6010 C   0  0  0  0  0  0  0  0  0  0  0  0
   -1.0640    2.4484    0.9559 C   0  0  0  0  0  0  0  0  0  0  0  0
   -2.3682    1.9840    1.0973 C   0  0  0  0  0  0  0  0  0  0  0  0
   -2.6299    0.6312    0.8788 C   0  0  0  0  0  0  0  0  0  0  0  0
   -1.8825   -1.3124    0.3639 H   0  0  0  0  0  0  0  0  0  0  0  0
    0.4914   -0.4716    0.1067 H   0  0  0  0  0  0  0  0  0  0  0  0
   -0.8090    3.4897    1.1159 H   0  0  0  0  0  0  0  0  0  0  0  0
   -3.1799    2.6457    1.3715 H   0  0  0  0  0  0  0  0  0  0  0  0
   -4.0080    0.1422    1.0279 N   0  0  0  0  0  0  0  0  0  0  0  0
   -4.2122   -1.0544    0.8273 O   0  0  0  0  0  0  0  0  0  0  0  0
   -4.8713    0.9599    1.3443 O   0  0  0  0  0  0  0  0  0  0  0  0
    7.9102    0.2673   -1.6442 N   0  0  0  0  0  0  0  0  0  0  0  0
    6.8527    0.3669   -1.3383 N   0  0  0  0  0  0  0  0  0  0  0  0
    3.4525    0.9019   -0.3571 B   0  0  0  0  0  0  0  0  0  0  0  0
    2.8884   -0.2972   -0.3321 F   0  0  0  0  0  0  0  0  0  0  0  0
    4.0689    1.3569    0.7137 F   0  0  0  0  0  0  0  0  0  0  0  0
    3.4328    1.6086   -1.4683 F   0  0  0  0  0  0  0  0  0  0  0  0
    1.1950    1.9968    0.4639 F   0  0  0  0  0  0  0  0  0  0  0  0
  1  6  1  0  0  0  0
  2  1  2  0  0  0  0
  2  3  1  0  0  0  0
  3  4  2  0  0  0  0
  4  5  1  0  0  0  0
  4  9  1  0  0  0  0
  5 10  1  0  0  0  0
  6 11  1  0  0  0  0
  6  5  2  0  0  0  0
  7  1  1  0  0  0  0
  8  2  1  0  0  0  0
 11 13  2  0  0  0  0
 12 11  2  0  0  0  0
 14 15  3  0  0  0  0
 16 17  1  0  0  0  0
 16 18  1  0  0  0  0
 19 16  1  0  0  0  0
 20  3  1  0  0  0  0
M  END
