Coordinates from ORCA-job 4-NO2-Ph-N2-BF4-B3LYPG-6-31G_dp-MTMO-d009-169-n800
 OpenBabel09051908343D

 20 19  0  0  1  0  0  0  0  0999 V2000
   -0.7918   -0.0179    0.4749 C   0  0  0  0  0  0  0  0  0  0  0  0
    0.6147    0.3529    0.1663 C   0  0  1  0  0  0  0  0  0  0  0  0
    0.7475    1.6607   -0.6172 C   0  0  0  0  0  0  0  0  0  0  0  0
   -0.3721    2.6183   -0.5435 C   0  0  0  0  0  0  0  0  0  0  0  0
   -1.5745    2.2611   -0.0484 C   0  0  0  0  0  0  0  0  0  0  0  0
   -1.7674    0.9053    0.4089 C   0  0  0  0  0  0  0  0  0  0  0  0
   -1.0039   -1.0246    0.8125 H   0  0  0  0  0  0  0  0  0  0  0  0
    1.1618   -0.4492   -0.3331 H   0  0  0  0  0  0  0  0  0  0  0  0
   -0.1879    3.6151   -0.9315 H   0  0  0  0  0  0  0  0  0  0  0  0
   -2.4066    2.9505   -0.0061 H   0  0  0  0  0  0  0  0  0  0  0  0
   -3.1402    0.5055    0.8051 N   0  0  0  0  0  0  0  0  0  0  0  0
   -3.3237   -0.6595    1.1442 O   0  0  0  0  0  0  0  0  0  0  0  0
   -4.0045    1.3784    0.7678 O   0  0  0  0  0  0  0  0  0  0  0  0
    1.6416    1.8669   -1.1482 N   0  0  0  0  0  0  0  0  0  0  0  0
    2.6153    2.0908   -1.7327 N   0  0  0  0  0  0  0  0  0  0  0  0
    3.3927   -0.3436    1.5033 B   0  0  0  0  0  0  0  0  0  0  0  0
    2.9847   -1.4797    0.9477 F   0  0  0  0  0  0  0  0  0  0  0  0
    3.4971   -0.2506    2.8138 F   0  0  0  0  0  0  0  0  0  0  0  0
    3.8632    0.6165    0.7219 F   0  0  0  0  0  0  0  0  0  0  0  0
    1.2973    0.5219    1.4275 F   0  0  0  0  0  0  0  0  0  0  0  0
  1  7  1  0  0  0  0
  2  8  1  6  0  0  0
  2  1  1  0  0  0  0
  2 20  1  0  0  0  0
  3  4  2  0  0  0  0
  3  2  1  0  0  0  0
  4  5  1  0  0  0  0
  5 10  1  0  0  0  0
  5  6  1  0  0  0  0
  6  1  2  0  0  0  0
  6 11  1  0  0  0  0
  9  4  1  0  0  0  0
 11 12  2  0  0  0  0
 13 11  2  0  0  0  0
 14  3  1  0  0  0  0
 15 14  1  0  0  0  0
 16 18  1  0  0  0  0
 17 16  1  0  0  0  0
 19 16  1  0  0  0  0
M  RAD  3   5   2  14   2  15   3
M  END
