Coordinates from ORCA-job 4-NO2-Ph-N2-BF4-B3LYPG-6-31G_dp-MTMO-d009-169-n800
 OpenBabel09051908343D

 20 18  0  0  0  0  0  0  0  0999 V2000
   -1.5568   -0.3612    0.8610 C   0  0  0  0  0  0  0  0  0  0  0  0
   -0.2453   -0.1455    0.4485 C   0  0  0  0  0  0  0  0  0  0  0  0
    0.1192    1.1392    0.0592 C   0  0  0  0  0  0  0  0  0  0  0  0
   -0.7616    2.2154    0.0650 C   0  0  0  0  0  0  0  0  0  0  0  0
   -2.0722    1.9954    0.4776 C   0  0  0  0  0  0  0  0  0  0  0  0
   -2.4490    0.7108    0.8687 C   0  0  0  0  0  0  0  0  0  0  0  0
   -1.8980   -1.3391    1.1760 H   0  0  0  0  0  0  0  0  0  0  0  0
    0.4866   -0.9439    0.4279 H   0  0  0  0  0  0  0  0  0  0  0  0
   -0.4194    3.1945   -0.2498 H   0  0  0  0  0  0  0  0  0  0  0  0
   -2.8015    2.7951    0.5021 H   0  0  0  0  0  0  0  0  0  0  0  0
   -3.8346    0.4791    1.3034 N   0  0  0  0  0  0  0  0  0  0  0  0
   -4.1412   -0.6633    1.6413 O   0  0  0  0  0  0  0  0  0  0  0  0
   -4.6002    1.4419    1.3017 O   0  0  0  0  0  0  0  0  0  0  0  0
    5.8482    2.4403   -2.4464 N   0  0  0  0  0  0  0  0  0  0  0  0
    6.4911    1.6203   -2.0783 N   0  0  0  0  0  0  0  0  0  0  0  0
    3.4062    0.3071    0.6485 B   0  0  0  0  0  0  0  0  0  0  0  0
    2.9493   -0.9090    0.3902 F   0  0  0  0  0  0  0  0  0  0  0  0
    3.1362    0.8724    1.8087 F   0  0  0  0  0  0  0  0  0  0  0  0
    4.1928    0.9101   -0.2204 F   0  0  0  0  0  0  0  0  0  0  0  0
    1.3936    1.3593   -0.3515 F   0  0  0  0  0  0  0  0  0  0  0  0
  1  6  1  0  0  0  0
  1  7  1  0  0  0  0
  2  1  2  0  0  0  0
  3  4  2  0  0  0  0
  3  2  1  0  0  0  0
  4  5  1  0  0  0  0
  5 10  1  0  0  0  0
  5  6  2  0  0  0  0
  6 11  1  0  0  0  0
  8  2  1  0  0  0  0
  9  4  1  0  0  0  0
 11 12  2  0  0  0  0
 13 11  2  0  0  0  0
 14 15  3  0  0  0  0
 16 18  1  0  0  0  0
 17 16  1  0  0  0  0
 19 16  1  0  0  0  0
 20  3  1  0  0  0  0
M  END
