Coordinates from ORCA-job 4-NO2-Ph-N2-BF4-B3LYPG-6-31G_dp-MTMO-d009-169-n800
 OpenBabel09051908343D

 20 18  0  0  0  0  0  0  0  0999 V2000
   -1.8944   -0.2486    0.6279 C   0  0  0  0  0  0  0  0  0  0  0  0
   -0.5934    0.2427    0.5695 C   0  0  0  0  0  0  0  0  0  0  0  0
   -0.3915    1.6000    0.7970 C   0  0  0  0  0  0  0  0  0  0  0  0
   -1.4261    2.4866    1.0786 C   0  0  0  0  0  0  0  0  0  0  0  0
   -2.7253    1.9913    1.1361 C   0  0  0  0  0  0  0  0  0  0  0  0
   -2.9388    0.6316    0.9098 C   0  0  0  0  0  0  0  0  0  0  0  0
   -2.1123   -1.2955    0.4584 H   0  0  0  0  0  0  0  0  0  0  0  0
    0.2512   -0.3997    0.3527 H   0  0  0  0  0  0  0  0  0  0  0  0
   -1.2071    3.5346    1.2483 H   0  0  0  0  0  0  0  0  0  0  0  0
   -3.5691    2.6343    1.3515 H   0  0  0  0  0  0  0  0  0  0  0  0
   -4.3118    0.1094    0.9710 N   0  0  0  0  0  0  0  0  0  0  0  0
   -4.4726   -1.0934    0.7687 O   0  0  0  0  0  0  0  0  0  0  0  0
   -5.2137    0.9080    1.2210 O   0  0  0  0  0  0  0  0  0  0  0  0
   10.8596   -0.3559   -2.8030 N   0  0  0  0  0  0  0  0  0  0  0  0
    9.8166   -0.2752   -2.4463 N   0  0  0  0  0  0  0  0  0  0  0  0
    3.0605    1.1504   -0.0821 B   0  0  0  0  0  0  0  0  0  0  0  0
    2.6095   -0.0946   -0.0214 F   0  0  0  0  0  0  0  0  0  0  0  0
    3.6700    1.6759    0.9604 F   0  0  0  0  0  0  0  0  0  0  0  0
    2.9616    1.8252   -1.2095 F   0  0  0  0  0  0  0  0  0  0  0  0
    0.8707    2.0918    0.7445 F   0  0  0  0  0  0  0  0  0  0  0  0
  1  6  1  0  0  0  0
  2  1  2  0  0  0  0
  2  3  1  0  0  0  0
  3  4  2  0  0  0  0
  4  5  1  0  0  0  0
  4  9  1  0  0  0  0
  5 10  1  0  0  0  0
  6 11  1  0  0  0  0
  6  5  2  0  0  0  0
  7  1  1  0  0  0  0
  8  2  1  0  0  0  0
 11 13  2  0  0  0  0
 12 11  2  0  0  0  0
 14 15  3  0  0  0  0
 16 17  1  0  0  0  0
 16 18  1  0  0  0  0
 19 16  1  0  0  0  0
 20  3  1  0  0  0  0
M  END
