Coordinates from ORCA-job 4-NO2-Ph-N2-BF4-B3LYPG-6-31G_dp-MTMO-d009-169-n800
 OpenBabel09051908343D

 20 18  0  0  0  0  0  0  0  0999 V2000
   -1.5560   -0.3612    0.8602 C   0  0  0  0  0  0  0  0  0  0  0  0
   -0.2438   -0.1465    0.4491 C   0  0  0  0  0  0  0  0  0  0  0  0
    0.1222    1.1378    0.0603 C   0  0  0  0  0  0  0  0  0  0  0  0
   -0.7577    2.2148    0.0651 C   0  0  0  0  0  0  0  0  0  0  0  0
   -2.0690    1.9958    0.4763 C   0  0  0  0  0  0  0  0  0  0  0  0
   -2.4472    0.7116    0.8669 C   0  0  0  0  0  0  0  0  0  0  0  0
   -1.8983   -1.3388    1.1747 H   0  0  0  0  0  0  0  0  0  0  0  0
    0.4874   -0.9455    0.4293 H   0  0  0  0  0  0  0  0  0  0  0  0
   -0.4144    3.1936   -0.2492 H   0  0  0  0  0  0  0  0  0  0  0  0
   -2.7976    2.7962    0.5000 H   0  0  0  0  0  0  0  0  0  0  0  0
   -3.8335    0.4810    1.3002 N   0  0  0  0  0  0  0  0  0  0  0  0
   -4.1415   -0.6611    1.6377 O   0  0  0  0  0  0  0  0  0  0  0  0
   -4.5983    1.4446    1.2978 O   0  0  0  0  0  0  0  0  0  0  0  0
    5.8268    2.4408   -2.4488 N   0  0  0  0  0  0  0  0  0  0  0  0
    6.4800    1.6284   -2.0818 N   0  0  0  0  0  0  0  0  0  0  0  0
    3.4067    0.3046    0.6528 B   0  0  0  0  0  0  0  0  0  0  0  0
    2.9505   -0.9119    0.3952 F   0  0  0  0  0  0  0  0  0  0  0  0
    3.1378    0.8698    1.8133 F   0  0  0  0  0  0  0  0  0  0  0  0
    4.1919    0.9080   -0.2171 F   0  0  0  0  0  0  0  0  0  0  0  0
    1.3973    1.3569   -0.3489 F   0  0  0  0  0  0  0  0  0  0  0  0
  1  6  1  0  0  0  0
  1  7  1  0  0  0  0
  2  1  2  0  0  0  0
  3  4  2  0  0  0  0
  3  2  1  0  0  0  0
  4  5  1  0  0  0  0
  5 10  1  0  0  0  0
  5  6  2  0  0  0  0
  6 11  1  0  0  0  0
  8  2  1  0  0  0  0
  9  4  1  0  0  0  0
 11 12  2  0  0  0  0
 13 11  2  0  0  0  0
 14 15  3  0  0  0  0
 16 18  1  0  0  0  0
 17 16  1  0  0  0  0
 19 16  1  0  0  0  0
 20  3  1  0  0  0  0
M  END
