Coordinates from ORCA-job 4-NO2-Ph-N2-BF4-B3LYPG-6-31G_dp-MTMO-d009-169-n800
 OpenBabel09051908343D

 20 18  0  0  0  0  0  0  0  0999 V2000
   -1.4422   -0.3291    0.7303 C   0  0  0  0  0  0  0  0  0  0  0  0
   -0.0822   -0.1589    0.4887 C   0  0  0  0  0  0  0  0  0  0  0  0
    0.3799    1.1215    0.2020 C   0  0  0  0  0  0  0  0  0  0  0  0
   -0.4503    2.2361    0.1471 C   0  0  0  0  0  0  0  0  0  0  0  0
   -1.8094    2.0614    0.3892 C   0  0  0  0  0  0  0  0  0  0  0  0
   -2.2839    0.7818    0.6766 C   0  0  0  0  0  0  0  0  0  0  0  0
   -1.8591   -1.3016    0.9593 H   0  0  0  0  0  0  0  0  0  0  0  0
    0.6130   -0.9887    0.5226 H   0  0  0  0  0  0  0  0  0  0  0  0
   -0.0321    3.2093   -0.0824 H   0  0  0  0  0  0  0  0  0  0  0  0
   -2.5025    2.8925    0.3596 H   0  0  0  0  0  0  0  0  0  0  0  0
   -3.7203    0.5984    0.9322 N   0  0  0  0  0  0  0  0  0  0  0  0
   -4.1135   -0.5403    1.1813 O   0  0  0  0  0  0  0  0  0  0  0  0
   -4.4395    1.5953    0.8814 O   0  0  0  0  0  0  0  0  0  0  0  0
    3.9923    2.0625   -2.2830 N   0  0  0  0  0  0  0  0  0  0  0  0
    4.9421    2.2805   -2.8044 N   0  0  0  0  0  0  0  0  0  0  0  0
    3.5731    0.0886    1.0841 B   0  0  0  0  0  0  0  0  0  0  0  0
    3.0425   -1.0843    0.7719 F   0  0  0  0  0  0  0  0  0  0  0  0
    3.2538    0.6664    2.2252 F   0  0  0  0  0  0  0  0  0  0  0  0
    4.4791    0.6286    0.2935 F   0  0  0  0  0  0  0  0  0  0  0  0
    1.7027    1.2989   -0.0421 F   0  0  0  0  0  0  0  0  0  0  0  0
  1  7  1  0  0  0  0
  2  8  1  0  0  0  0
  2  1  2  0  0  0  0
  3  2  1  0  0  0  0
  4  3  2  0  0  0  0
  4  5  1  0  0  0  0
  5  6  2  0  0  0  0
  6  1  1  0  0  0  0
  6 11  1  0  0  0  0
  9  4  1  0  0  0  0
 10  5  1  0  0  0  0
 11 12  2  0  0  0  0
 13 11  2  0  0  0  0
 15 14  3  0  0  0  0
 16 18  1  0  0  0  0
 17 16  1  0  0  0  0
 19 16  1  0  0  0  0
 20  3  1  0  0  0  0
M  END
