Coordinates from ORCA-job 4-NO2-Ph-N2-BF4-B3LYPG-6-31G_dp-MTMO-d009-169-n800
 OpenBabel09051908343D

 20 18  0  0  0  0  0  0  0  0999 V2000
   -1.4145   -0.3045    0.7099 C   0  0  0  0  0  0  0  0  0  0  0  0
   -0.0413   -0.1096    0.5935 C   0  0  0  0  0  0  0  0  0  0  0  0
    0.4235    1.1836    0.3769 C   0  0  0  0  0  0  0  0  0  0  0  0
   -0.4172    2.2868    0.2711 C   0  0  0  0  0  0  0  0  0  0  0  0
   -1.7893    2.0874    0.3880 C   0  0  0  0  0  0  0  0  0  0  0  0
   -2.2663    0.7950    0.6057 C   0  0  0  0  0  0  0  0  0  0  0  0
   -1.8339   -1.2880    0.8799 H   0  0  0  0  0  0  0  0  0  0  0  0
    0.6613   -0.9302    0.6688 H   0  0  0  0  0  0  0  0  0  0  0  0
    0.0037    3.2708    0.1000 H   0  0  0  0  0  0  0  0  0  0  0  0
   -2.4905    2.9087    0.3142 H   0  0  0  0  0  0  0  0  0  0  0  0
   -3.7164    0.5856    0.7303 N   0  0  0  0  0  0  0  0  0  0  0  0
   -4.1118   -0.5637    0.9198 O   0  0  0  0  0  0  0  0  0  0  0  0
   -4.4441    1.5733    0.6374 O   0  0  0  0  0  0  0  0  0  0  0  0
    3.5945    1.9746   -2.2993 N   0  0  0  0  0  0  0  0  0  0  0  0
    4.4717    2.1535   -2.9473 N   0  0  0  0  0  0  0  0  0  0  0  0
    3.6996    0.0413    1.1000 B   0  0  0  0  0  0  0  0  0  0  0  0
    3.0714   -1.0963    0.8415 F   0  0  0  0  0  0  0  0  0  0  0  0
    3.5917    0.5905    2.2929 F   0  0  0  0  0  0  0  0  0  0  0  0
    4.4924    0.5721    0.1906 F   0  0  0  0  0  0  0  0  0  0  0  0
    1.7590    1.3883    0.2591 F   0  0  0  0  0  0  0  0  0  0  0  0
  1  7  1  0  0  0  0
  2  8  1  0  0  0  0
  2  1  2  0  0  0  0
  3  2  1  0  0  0  0
  4  3  2  0  0  0  0
  4  5  1  0  0  0  0
  5  6  2  0  0  0  0
  6  1  1  0  0  0  0
  6 11  1  0  0  0  0
  9  4  1  0  0  0  0
 10  5  1  0  0  0  0
 11 12  2  0  0  0  0
 13 11  2  0  0  0  0
 15 14  3  0  0  0  0
 16 18  1  0  0  0  0
 17 16  1  0  0  0  0
 19 16  1  0  0  0  0
 20  3  1  0  0  0  0
M  END
