Coordinates from ORCA-job 4-NO2-Ph-N2-BF4-B3LYPG-6-31G_dp-MTMO-d009-169-n800
 OpenBabel09051908343D

 20 18  0  0  0  0  0  0  0  0999 V2000
   -1.9279   -0.2449    0.6364 C   0  0  0  0  0  0  0  0  0  0  0  0
   -0.6279    0.2491    0.5796 C   0  0  0  0  0  0  0  0  0  0  0  0
   -0.4291    1.6066    0.8091 C   0  0  0  0  0  0  0  0  0  0  0  0
   -1.4653    2.4910    1.0910 C   0  0  0  0  0  0  0  0  0  0  0  0
   -2.7635    1.9928    1.1468 C   0  0  0  0  0  0  0  0  0  0  0  0
   -2.9741    0.6331    0.9187 C   0  0  0  0  0  0  0  0  0  0  0  0
   -2.1437   -1.2919    0.4655 H   0  0  0  0  0  0  0  0  0  0  0  0
    0.2185   -0.3909    0.3628 H   0  0  0  0  0  0  0  0  0  0  0  0
   -1.2485    3.5392    1.2623 H   0  0  0  0  0  0  0  0  0  0  0  0
   -3.6088    2.6338    1.3624 H   0  0  0  0  0  0  0  0  0  0  0  0
   -4.3463    0.1081    0.9782 N   0  0  0  0  0  0  0  0  0  0  0  0
   -4.5046   -1.0947    0.7742 O   0  0  0  0  0  0  0  0  0  0  0  0
   -5.2499    0.9047    1.2285 O   0  0  0  0  0  0  0  0  0  0  0  0
   11.1809   -0.4098   -2.9019 N   0  0  0  0  0  0  0  0  0  0  0  0
   10.1374   -0.3274   -2.5469 N   0  0  0  0  0  0  0  0  0  0  0  0
    3.0259    1.1661   -0.0668 B   0  0  0  0  0  0  0  0  0  0  0  0
    2.5784   -0.0802   -0.0061 F   0  0  0  0  0  0  0  0  0  0  0  0
    3.6332    1.6937    0.9759 F   0  0  0  0  0  0  0  0  0  0  0  0
    2.9261    1.8402   -1.1945 F   0  0  0  0  0  0  0  0  0  0  0  0
    0.8324    2.1004    0.7581 F   0  0  0  0  0  0  0  0  0  0  0  0
  1  6  1  0  0  0  0
  2  1  2  0  0  0  0
  2  3  1  0  0  0  0
  3  4  2  0  0  0  0
  4  5  1  0  0  0  0
  4  9  1  0  0  0  0
  5 10  1  0  0  0  0
  6 11  1  0  0  0  0
  6  5  2  0  0  0  0
  7  1  1  0  0  0  0
  8  2  1  0  0  0  0
 11 13  2  0  0  0  0
 12 11  2  0  0  0  0
 14 15  3  0  0  0  0
 16 17  1  0  0  0  0
 16 18  1  0  0  0  0
 19 16  1  0  0  0  0
 20  3  1  0  0  0  0
M  END
