Coordinates from ORCA-job 4-NO2-Ph-N2-BF4-B3LYPG-6-31G_dp-MTMO-d009-169-n800
 OpenBabel09051908343D

 20 18  0  0  0  0  0  0  0  0999 V2000
   -1.2064   -0.3064    0.6372 C   0  0  0  0  0  0  0  0  0  0  0  0
    0.0611    0.1897    0.9266 C   0  0  0  0  0  0  0  0  0  0  0  0
    0.1970    1.5543    1.1601 C   0  0  0  0  0  0  0  0  0  0  0  0
   -0.8718    2.4435    1.1155 C   0  0  0  0  0  0  0  0  0  0  0  0
   -2.1381    1.9434    0.8271 C   0  0  0  0  0  0  0  0  0  0  0  0
   -2.2853    0.5766    0.5924 C   0  0  0  0  0  0  0  0  0  0  0  0
   -1.3724   -1.3589    0.4448 H   0  0  0  0  0  0  0  0  0  0  0  0
    0.9313   -0.4537    0.9689 H   0  0  0  0  0  0  0  0  0  0  0  0
   -0.7050    3.4973    1.3074 H   0  0  0  0  0  0  0  0  0  0  0  0
   -3.0066    2.5879    0.7803 H   0  0  0  0  0  0  0  0  0  0  0  0
   -3.6235    0.0493    0.2880 N   0  0  0  0  0  0  0  0  0  0  0  0
   -3.7260   -1.1597    0.0841 O   0  0  0  0  0  0  0  0  0  0  0  0
   -4.5569    0.8501    0.2566 O   0  0  0  0  0  0  0  0  0  0  0  0
    5.4471   -0.5528   -2.6264 N   0  0  0  0  0  0  0  0  0  0  0  0
    5.1083    0.0915   -1.7959 N   0  0  0  0  0  0  0  0  0  0  0  0
    3.3864    1.2871    0.0586 B   0  0  0  0  0  0  0  0  0  0  0  0
    3.3447    0.0997    0.6446 F   0  0  0  0  0  0  0  0  0  0  0  0
    4.1990    2.2181    0.5140 F   0  0  0  0  0  0  0  0  0  0  0  0
    2.6351    1.5152   -1.0029 F   0  0  0  0  0  0  0  0  0  0  0  0
    1.4254    2.0466    1.4522 F   0  0  0  0  0  0  0  0  0  0  0  0
  1  2  1  0  0  0  0
  2  8  1  0  0  0  0
  2  3  2  0  0  0  0
  3 20  1  0  0  0  0
  4  3  1  0  0  0  0
  4  9  1  0  0  0  0
  5  4  2  0  0  0  0
  6  1  2  0  0  0  0
  6  5  1  0  0  0  0
  7  1  1  0  0  0  0
 10  5  1  0  0  0  0
 11  6  1  0  0  0  0
 12 11  2  0  0  0  0
 13 11  2  0  0  0  0
 14 15  3  0  0  0  0
 16 18  1  0  0  0  0
 16 17  1  0  0  0  0
 19 16  1  0  0  0  0
M  END
