Coordinates from ORCA-job 4-NO2-Ph-N2-BF4-B3LYPG-6-31G_dp-MTMO-d009-169-n800
 OpenBabel09051908343D

 20 18  0  0  0  0  0  0  0  0999 V2000
   -1.5061   -0.2677    0.4981 C   0  0  0  0  0  0  0  0  0  0  0  0
   -0.2146    0.2373    0.3816 C   0  0  0  0  0  0  0  0  0  0  0  0
   -0.0124    1.5933    0.6199 C   0  0  0  0  0  0  0  0  0  0  0  0
   -1.0391    2.4653    0.9684 C   0  0  0  0  0  0  0  0  0  0  0  0
   -2.3292    1.9564    1.0839 C   0  0  0  0  0  0  0  0  0  0  0  0
   -2.5424    0.5984    0.8469 C   0  0  0  0  0  0  0  0  0  0  0  0
   -1.7234   -1.3137    0.3232 H   0  0  0  0  0  0  0  0  0  0  0  0
    0.6253   -0.3919    0.1126 H   0  0  0  0  0  0  0  0  0  0  0  0
   -0.8213    3.5126    1.1436 H   0  0  0  0  0  0  0  0  0  0  0  0
   -3.1667    2.5878    1.3520 H   0  0  0  0  0  0  0  0  0  0  0  0
   -3.9058    0.0627    0.9687 N   0  0  0  0  0  0  0  0  0  0  0  0
   -4.0670   -1.1380    0.7539 O   0  0  0  0  0  0  0  0  0  0  0  0
   -4.8009    0.8484    1.2779 O   0  0  0  0  0  0  0  0  0  0  0  0
    7.2065   -0.0944   -1.5639 N   0  0  0  0  0  0  0  0  0  0  0  0
    6.1773    0.1485   -1.2442 N   0  0  0  0  0  0  0  0  0  0  0  0
    3.5264    1.0622   -0.3470 B   0  0  0  0  0  0  0  0  0  0  0  0
    3.0234   -0.1639   -0.3246 F   0  0  0  0  0  0  0  0  0  0  0  0
    4.1177    1.5466    0.7254 F   0  0  0  0  0  0  0  0  0  0  0  0
    3.4545    1.7767   -1.4515 F   0  0  0  0  0  0  0  0  0  0  0  0
    1.2410    2.0926    0.5083 F   0  0  0  0  0  0  0  0  0  0  0  0
  1  6  1  0  0  0  0
  2  1  2  0  0  0  0
  2  3  1  0  0  0  0
  3  4  2  0  0  0  0
  4  5  1  0  0  0  0
  4  9  1  0  0  0  0
  5 10  1  0  0  0  0
  6 11  1  0  0  0  0
  6  5  2  0  0  0  0
  7  1  1  0  0  0  0
  8  2  1  0  0  0  0
 11 13  2  0  0  0  0
 12 11  2  0  0  0  0
 14 15  3  0  0  0  0
 16 17  1  0  0  0  0
 16 18  1  0  0  0  0
 19 16  1  0  0  0  0
 20  3  1  0  0  0  0
M  END
