Coordinates from ORCA-job 4-NO2-Ph-N2-BF4-B3LYPG-6-31G_dp-MTMO-d009-169-n800
 OpenBabel09051908343D

 20 18  0  0  0  0  0  0  0  0999 V2000
   -2.0776   -0.1995    0.5666 C   0  0  0  0  0  0  0  0  0  0  0  0
   -0.8689    0.4906    0.5797 C   0  0  0  0  0  0  0  0  0  0  0  0
   -0.8723    1.8159    1.0027 C   0  0  0  0  0  0  0  0  0  0  0  0
   -2.0235    2.4818    1.4110 C   0  0  0  0  0  0  0  0  0  0  0  0
   -3.2297    1.7880    1.3965 C   0  0  0  0  0  0  0  0  0  0  0  0
   -3.2377    0.4585    0.9747 C   0  0  0  0  0  0  0  0  0  0  0  0
   -2.1362   -1.2320    0.2470 H   0  0  0  0  0  0  0  0  0  0  0  0
    0.0588    0.0251    0.2711 H   0  0  0  0  0  0  0  0  0  0  0  0
   -1.9642    3.5155    1.7309 H   0  0  0  0  0  0  0  0  0  0  0  0
   -4.1567    2.2545    1.7040 H   0  0  0  0  0  0  0  0  0  0  0  0
   -4.5129   -0.2736    0.9596 N   0  0  0  0  0  0  0  0  0  0  0  0
   -4.4926   -1.4447    0.5838 O   0  0  0  0  0  0  0  0  0  0  0  0
   -5.5205    0.3315    1.3236 O   0  0  0  0  0  0  0  0  0  0  0  0
   14.2996   -1.8602   -3.8888 N   0  0  0  0  0  0  0  0  0  0  0  0
   13.2752   -1.6618   -3.5243 N   0  0  0  0  0  0  0  0  0  0  0  0
    2.5841    2.0402    0.0760 B   0  0  0  0  0  0  0  0  0  0  0  0
    2.3399    0.7411   -0.0243 F   0  0  0  0  0  0  0  0  0  0  0  0
    3.1337    2.5194    1.1726 F   0  0  0  0  0  0  0  0  0  0  0  0
    2.3463    2.8292   -0.9521 F   0  0  0  0  0  0  0  0  0  0  0  0
    0.2986    2.4993    1.0230 F   0  0  0  0  0  0  0  0  0  0  0  0
  1  2  2  0  0  0  0
  1  6  1  0  0  0  0
  2  3  1  0  0  0  0
  3 20  1  0  0  0  0
  3  4  2  0  0  0  0
  4  9  1  0  0  0  0
  5  4  1  0  0  0  0
  5 10  1  0  0  0  0
  6  5  2  0  0  0  0
  7  1  1  0  0  0  0
  8  2  1  0  0  0  0
 11  6  1  0  0  0  0
 11 13  2  0  0  0  0
 12 11  2  0  0  0  0
 14 15  3  0  0  0  0
 16 18  1  0  0  0  0
 17 16  1  0  0  0  0
 19 16  1  0  0  0  0
M  END
