Coordinates from ORCA-job 4-NO2-Ph-N2-BF4-B3LYPG-6-31G_dp-MTMO-d009-169-n800
 OpenBabel09051908343D

 20 18  0  0  0  0  0  0  0  0999 V2000
   -1.5464   -0.2692    0.5020 C   0  0  0  0  0  0  0  0  0  0  0  0
   -0.2497    0.2187    0.3701 C   0  0  0  0  0  0  0  0  0  0  0  0
   -0.0276    1.5726    0.6020 C   0  0  0  0  0  0  0  0  0  0  0  0
   -1.0390    2.4589    0.9591 C   0  0  0  0  0  0  0  0  0  0  0  0
   -2.3342    1.9672    1.0900 C   0  0  0  0  0  0  0  0  0  0  0  0
   -2.5676    0.6113    0.8593 C   0  0  0  0  0  0  0  0  0  0  0  0
   -1.7791   -1.3128    0.3327 H   0  0  0  0  0  0  0  0  0  0  0  0
    0.5790   -0.4224    0.0945 H   0  0  0  0  0  0  0  0  0  0  0  0
   -0.8056    3.5037    1.1288 H   0  0  0  0  0  0  0  0  0  0  0  0
   -3.1605    2.6102    1.3653 H   0  0  0  0  0  0  0  0  0  0  0  0
   -3.9365    0.0938    0.9973 N   0  0  0  0  0  0  0  0  0  0  0  0
   -4.1157   -1.1051    0.7869 O   0  0  0  0  0  0  0  0  0  0  0  0
   -4.8177    0.8917    1.3148 O   0  0  0  0  0  0  0  0  0  0  0  0
    7.3890    0.0772   -1.5600 N   0  0  0  0  0  0  0  0  0  0  0  0
    6.3457    0.2502   -1.2400 N   0  0  0  0  0  0  0  0  0  0  0  0
    3.5144    0.9869   -0.3584 B   0  0  0  0  0  0  0  0  0  0  0  0
    2.9824   -0.2270   -0.3369 F   0  0  0  0  0  0  0  0  0  0  0  0
    4.1069    1.4605    0.7179 F   0  0  0  0  0  0  0  0  0  0  0  0
    3.4743    1.6967   -1.4673 F   0  0  0  0  0  0  0  0  0  0  0  0
    1.2310    2.0556    0.4750 F   0  0  0  0  0  0  0  0  0  0  0  0
  1  6  1  0  0  0  0
  2  1  2  0  0  0  0
  2  3  1  0  0  0  0
  3  4  2  0  0  0  0
  4  5  1  0  0  0  0
  4  9  1  0  0  0  0
  5 10  1  0  0  0  0
  6 11  1  0  0  0  0
  6  5  2  0  0  0  0
  7  1  1  0  0  0  0
  8  2  1  0  0  0  0
 11 13  2  0  0  0  0
 12 11  2  0  0  0  0
 14 15  3  0  0  0  0
 16 17  1  0  0  0  0
 16 18  1  0  0  0  0
 19 16  1  0  0  0  0
 20  3  1  0  0  0  0
M  END
