Coordinates from ORCA-job 4-NO2-Ph-N2-BF4-B3LYPG-6-31G_dp-MTMO-d009-169-n800
 OpenBabel09051908343D

 20 18  0  0  0  0  0  0  0  0999 V2000
   -1.8163   -0.2578    0.6056 C   0  0  0  0  0  0  0  0  0  0  0  0
   -0.5131    0.2262    0.5387 C   0  0  0  0  0  0  0  0  0  0  0  0
   -0.3024    1.5829    0.7630 C   0  0  0  0  0  0  0  0  0  0  0  0
   -1.3302    2.4757    1.0493 C   0  0  0  0  0  0  0  0  0  0  0  0
   -2.6318    1.9876    1.1152 C   0  0  0  0  0  0  0  0  0  0  0  0
   -2.8541    0.6287    0.8923 C   0  0  0  0  0  0  0  0  0  0  0  0
   -2.0411   -1.3036    0.4390 H   0  0  0  0  0  0  0  0  0  0  0  0
    0.3270   -0.4207    0.3180 H   0  0  0  0  0  0  0  0  0  0  0  0
   -1.1045    3.5227    1.2161 H   0  0  0  0  0  0  0  0  0  0  0  0
   -3.4708    2.6355    1.3345 H   0  0  0  0  0  0  0  0  0  0  0  0
   -4.2297    0.1143    0.9623 N   0  0  0  0  0  0  0  0  0  0  0  0
   -4.3984   -1.0879    0.7627 O   0  0  0  0  0  0  0  0  0  0  0  0
   -5.1256    0.9182    1.2164 O   0  0  0  0  0  0  0  0  0  0  0  0
   10.0872   -0.2224   -2.5474 N   0  0  0  0  0  0  0  0  0  0  0  0
    9.0446   -0.1429   -2.1893 N   0  0  0  0  0  0  0  0  0  0  0  0
    3.1455    1.1100   -0.1303 B   0  0  0  0  0  0  0  0  0  0  0  0
    2.6848   -0.1316   -0.0724 F   0  0  0  0  0  0  0  0  0  0  0  0
    3.7602    1.6280    0.9129 F   0  0  0  0  0  0  0  0  0  0  0  0
    3.0499    1.7887   -1.2555 F   0  0  0  0  0  0  0  0  0  0  0  0
    0.9622    2.0673    0.7021 F   0  0  0  0  0  0  0  0  0  0  0  0
  1  6  1  0  0  0  0
  2  1  2  0  0  0  0
  2  3  1  0  0  0  0
  3  4  2  0  0  0  0
  4  5  1  0  0  0  0
  4  9  1  0  0  0  0
  5 10  1  0  0  0  0
  6 11  1  0  0  0  0
  6  5  2  0  0  0  0
  7  1  1  0  0  0  0
  8  2  1  0  0  0  0
 11 13  2  0  0  0  0
 12 11  2  0  0  0  0
 14 15  3  0  0  0  0
 16 17  1  0  0  0  0
 16 18  1  0  0  0  0
 19 16  1  0  0  0  0
 20  3  1  0  0  0  0
M  END
