Coordinates from ORCA-job 4-NO2-Ph-N2-BF4-B3LYPG-6-31G_dp-MTMO-d009-169-n800
 OpenBabel09051908343D

 20 18  0  0  0  0  0  0  0  0999 V2000
   -1.6913   -0.2703    0.5596 C   0  0  0  0  0  0  0  0  0  0  0  0
   -0.3863    0.2043    0.4643 C   0  0  0  0  0  0  0  0  0  0  0  0
   -0.1600    1.5583    0.6892 C   0  0  0  0  0  0  0  0  0  0  0  0
   -1.1740    2.4575    1.0037 C   0  0  0  0  0  0  0  0  0  0  0  0
   -2.4773    1.9790    1.0980 C   0  0  0  0  0  0  0  0  0  0  0  0
   -2.7153    0.6228    0.8744 C   0  0  0  0  0  0  0  0  0  0  0  0
   -1.9279   -1.3136    0.3938 H   0  0  0  0  0  0  0  0  0  0  0  0
    0.4436   -0.4478    0.2214 H   0  0  0  0  0  0  0  0  0  0  0  0
   -0.9364    3.5020    1.1697 H   0  0  0  0  0  0  0  0  0  0  0  0
   -3.3060    2.6323    1.3396 H   0  0  0  0  0  0  0  0  0  0  0  0
   -4.0927    0.1186    0.9740 N   0  0  0  0  0  0  0  0  0  0  0  0
   -4.2754   -1.0812    0.7723 O   0  0  0  0  0  0  0  0  0  0  0  0
   -4.9763    0.9280    1.2530 O   0  0  0  0  0  0  0  0  0  0  0  0
    8.8262   -0.0169   -2.0680 N   0  0  0  0  0  0  0  0  0  0  0  0
    7.7796    0.0841   -1.7274 N   0  0  0  0  0  0  0  0  0  0  0  0
    3.2883    1.0431   -0.2403 B   0  0  0  0  0  0  0  0  0  0  0  0
    2.8044   -0.1902   -0.1969 F   0  0  0  0  0  0  0  0  0  0  0  0
    3.9074    1.5396    0.8106 F   0  0  0  0  0  0  0  0  0  0  0  0
    3.2064    1.7362   -1.3578 F   0  0  0  0  0  0  0  0  0  0  0  0
    1.1065    2.0328    0.5999 F   0  0  0  0  0  0  0  0  0  0  0  0
  1  6  1  0  0  0  0
  2  1  2  0  0  0  0
  2  3  1  0  0  0  0
  3  4  2  0  0  0  0
  4  5  1  0  0  0  0
  4  9  1  0  0  0  0
  5 10  1  0  0  0  0
  6 11  1  0  0  0  0
  6  5  2  0  0  0  0
  7  1  1  0  0  0  0
  8  2  1  0  0  0  0
 11 13  2  0  0  0  0
 12 11  2  0  0  0  0
 14 15  3  0  0  0  0
 16 17  1  0  0  0  0
 16 18  1  0  0  0  0
 19 16  1  0  0  0  0
 20  3  1  0  0  0  0
M  END
