Coordinates from ORCA-job 4-NO2-Ph-N2-BF4-B3LYPG-6-31G_dp-MTMO-d009-169-n800
 OpenBabel09051908343D

 20 18  0  0  0  0  0  0  0  0999 V2000
   -1.1963   -0.2338    0.5004 C   0  0  0  0  0  0  0  0  0  0  0  0
    0.1480   -0.0160    0.7871 C   0  0  0  0  0  0  0  0  0  0  0  0
    0.5994    1.2972    0.8722 C   0  0  0  0  0  0  0  0  0  0  0  0
   -0.2297    2.3988    0.6862 C   0  0  0  0  0  0  0  0  0  0  0  0
   -1.5729    2.1769    0.3994 C   0  0  0  0  0  0  0  0  0  0  0  0
   -2.0353    0.8640    0.3103 C   0  0  0  0  0  0  0  0  0  0  0  0
   -1.6035   -1.2339    0.4217 H   0  0  0  0  0  0  0  0  0  0  0  0
    0.8397   -0.8344    0.9434 H   0  0  0  0  0  0  0  0  0  0  0  0
    0.1783    3.3997    0.7667 H   0  0  0  0  0  0  0  0  0  0  0  0
   -2.2633    2.9960    0.2437 H   0  0  0  0  0  0  0  0  0  0  0  0
   -3.4542    0.6303    0.0057 N   0  0  0  0  0  0  0  0  0  0  0  0
   -3.8377   -0.5366   -0.0622 O   0  0  0  0  0  0  0  0  0  0  0  0
   -4.1701    1.6168   -0.1632 O   0  0  0  0  0  0  0  0  0  0  0  0
    2.0202    1.4718   -1.7900 N   0  0  0  0  0  0  0  0  0  0  0  0
    2.0186    1.4427   -2.8948 N   0  0  0  0  0  0  0  0  0  0  0  0
    3.9606    0.0541    1.1112 B   0  0  0  0  0  0  0  0  0  0  0  0
    3.2276   -1.0399    1.2586 F   0  0  0  0  0  0  0  0  0  0  0  0
    4.4026    0.6947    2.1733 F   0  0  0  0  0  0  0  0  0  0  0  0
    4.3084    0.4471   -0.0985 F   0  0  0  0  0  0  0  0  0  0  0  0
    1.9027    1.5233    1.1620 F   0  0  0  0  0  0  0  0  0  0  0  0
  1  2  2  0  0  0  0
  2  3  1  0  0  0  0
  2  8  1  0  0  0  0
  3 20  1  0  0  0  0
  4  9  1  0  0  0  0
  4  3  2  0  0  0  0
  5  4  1  0  0  0  0
  6  5  2  0  0  0  0
  6  1  1  0  0  0  0
  7  1  1  0  0  0  0
 10  5  1  0  0  0  0
 11  6  1  0  0  0  0
 12 11  2  0  0  0  0
 13 11  2  0  0  0  0
 15 14  3  0  0  0  0
 16 17  1  0  0  0  0
 16 18  1  0  0  0  0
 19 16  1  0  0  0  0
M  END
