Coordinates from ORCA-job 4-NO2-Ph-N2-BF4-B3LYPG-6-31G_dp-MTMO-d009-169-n800
 OpenBabel09051908343D

 20 18  0  0  0  0  0  0  0  0999 V2000
   -1.8636   -0.2523    0.6196 C   0  0  0  0  0  0  0  0  0  0  0  0
   -0.5617    0.2362    0.5584 C   0  0  0  0  0  0  0  0  0  0  0  0
   -0.3565    1.5933    0.7844 C   0  0  0  0  0  0  0  0  0  0  0  0
   -1.3886    2.4824    1.0669 C   0  0  0  0  0  0  0  0  0  0  0  0
   -2.6888    1.9899    1.1271 C   0  0  0  0  0  0  0  0  0  0  0  0
   -2.9056    0.6305    0.9024 C   0  0  0  0  0  0  0  0  0  0  0  0
   -2.0841   -1.2988    0.4514 H   0  0  0  0  0  0  0  0  0  0  0  0
    0.2812   -0.4081    0.3408 H   0  0  0  0  0  0  0  0  0  0  0  0
   -1.1670    3.5300    1.2353 H   0  0  0  0  0  0  0  0  0  0  0  0
   -3.5308    2.6349    1.3433 H   0  0  0  0  0  0  0  0  0  0  0  0
   -4.2797    0.1114    0.9665 N   0  0  0  0  0  0  0  0  0  0  0  0
   -4.4434   -1.0913    0.7655 O   0  0  0  0  0  0  0  0  0  0  0  0
   -5.1794    0.9121    1.2172 O   0  0  0  0  0  0  0  0  0  0  0  0
   10.5567   -0.3031   -2.7053 N   0  0  0  0  0  0  0  0  0  0  0  0
    9.5139   -0.2240   -2.3476 N   0  0  0  0  0  0  0  0  0  0  0  0
    3.0937    1.1346   -0.0994 B   0  0  0  0  0  0  0  0  0  0  0  0
    2.6391   -0.1092   -0.0395 F   0  0  0  0  0  0  0  0  0  0  0  0
    3.7053    1.6575    0.9432 F   0  0  0  0  0  0  0  0  0  0  0  0
    2.9960    1.8106   -1.2261 F   0  0  0  0  0  0  0  0  0  0  0  0
    0.9067    2.0822    0.7292 F   0  0  0  0  0  0  0  0  0  0  0  0
  1  6  1  0  0  0  0
  2  1  2  0  0  0  0
  2  3  1  0  0  0  0
  3  4  2  0  0  0  0
  4  5  1  0  0  0  0
  4  9  1  0  0  0  0
  5 10  1  0  0  0  0
  6 11  1  0  0  0  0
  6  5  2  0  0  0  0
  7  1  1  0  0  0  0
  8  2  1  0  0  0  0
 11 13  2  0  0  0  0
 12 11  2  0  0  0  0
 14 15  3  0  0  0  0
 16 17  1  0  0  0  0
 16 18  1  0  0  0  0
 19 16  1  0  0  0  0
 20  3  1  0  0  0  0
M  END
