Coordinates from ORCA-job 4-NO2-Ph-N2-BF4-B3LYPG-6-31G_dp-MTMO-d009-169-n800
 OpenBabel09051908343D

 20 18  0  0  0  0  0  0  0  0999 V2000
   -1.3762   -0.2850    0.6885 C   0  0  0  0  0  0  0  0  0  0  0  0
   -0.0001   -0.0762    0.6988 C   0  0  0  0  0  0  0  0  0  0  0  0
    0.4691    1.2248    0.5490 C   0  0  0  0  0  0  0  0  0  0  0  0
   -0.3701    2.3226    0.3877 C   0  0  0  0  0  0  0  0  0  0  0  0
   -1.7450    2.1093    0.3780 C   0  0  0  0  0  0  0  0  0  0  0  0
   -2.2265    0.8090    0.5289 C   0  0  0  0  0  0  0  0  0  0  0  0
   -1.7991   -1.2751    0.8019 H   0  0  0  0  0  0  0  0  0  0  0  0
    0.7015   -0.8922    0.8202 H   0  0  0  0  0  0  0  0  0  0  0  0
    0.0543    3.3133    0.2734 H   0  0  0  0  0  0  0  0  0  0  0  0
   -2.4452    2.9257    0.2565 H   0  0  0  0  0  0  0  0  0  0  0  0
   -3.6797    0.5850    0.5198 N   0  0  0  0  0  0  0  0  0  0  0  0
   -4.0790   -0.5706    0.6548 O   0  0  0  0  0  0  0  0  0  0  0  0
   -4.4061    1.5680    0.3779 O   0  0  0  0  0  0  0  0  0  0  0  0
    3.1762    1.9021   -2.2378 N   0  0  0  0  0  0  0  0  0  0  0  0
    3.8986    2.0662   -3.0579 N   0  0  0  0  0  0  0  0  0  0  0  0
    3.8022    0.0017    1.1048 B   0  0  0  0  0  0  0  0  0  0  0  0
    3.0970   -1.1124    0.9730 F   0  0  0  0  0  0  0  0  0  0  0  0
    3.8982    0.5785    2.2851 F   0  0  0  0  0  0  0  0  0  0  0  0
    4.4664    0.4802    0.0717 F   0  0  0  0  0  0  0  0  0  0  0  0
    1.8069    1.4441    0.5588 F   0  0  0  0  0  0  0  0  0  0  0  0
  1  2  1  0  0  0  0
  1  7  1  0  0  0  0
  2  8  1  0  0  0  0
  3 20  1  0  0  0  0
  3  2  2  0  0  0  0
  4  3  1  0  0  0  0
  5  4  2  0  0  0  0
  5  6  1  0  0  0  0
  6  1  2  0  0  0  0
  9  4  1  0  0  0  0
 10  5  1  0  0  0  0
 11  6  1  0  0  0  0
 11 12  2  0  0  0  0
 13 11  2  0  0  0  0
 15 14  3  0  0  0  0
 16 18  1  0  0  0  0
 17 16  1  0  0  0  0
 19 16  1  0  0  0  0
M  END
