Coordinates from ORCA-job 4-NO2-Ph-N2-BF4-B3LYPG-6-31G_dp-MTMO-d009-169-n800
 OpenBabel09051908343D

 20 18  0  0  0  0  0  0  0  0999 V2000
   -1.3696   -0.2846    0.6802 C   0  0  0  0  0  0  0  0  0  0  0  0
    0.0067   -0.0779    0.7020 C   0  0  0  0  0  0  0  0  0  0  0  0
    0.4788    1.2230    0.5610 C   0  0  0  0  0  0  0  0  0  0  0  0
   -0.3575    2.3226    0.3977 C   0  0  0  0  0  0  0  0  0  0  0  0
   -1.7326    2.1115    0.3765 C   0  0  0  0  0  0  0  0  0  0  0  0
   -2.2171    0.8113    0.5183 C   0  0  0  0  0  0  0  0  0  0  0  0
   -1.7948   -1.2745    0.7862 H   0  0  0  0  0  0  0  0  0  0  0  0
    0.7059   -0.8955    0.8256 H   0  0  0  0  0  0  0  0  0  0  0  0
    0.0692    3.3132    0.2907 H   0  0  0  0  0  0  0  0  0  0  0  0
   -2.4305    2.9295    0.2529 H   0  0  0  0  0  0  0  0  0  0  0  0
   -3.6705    0.5895    0.4968 N   0  0  0  0  0  0  0  0  0  0  0  0
   -4.0726   -0.5660    0.6241 O   0  0  0  0  0  0  0  0  0  0  0  0
   -4.3943    1.5741    0.3529 O   0  0  0  0  0  0  0  0  0  0  0  0
    3.1022    1.8905   -2.2239 N   0  0  0  0  0  0  0  0  0  0  0  0
    3.8052    2.0573   -3.0601 N   0  0  0  0  0  0  0  0  0  0  0  0
    3.8105    0.0034    1.1139 B   0  0  0  0  0  0  0  0  0  0  0  0
    3.1046   -1.1124    1.0007 F   0  0  0  0  0  0  0  0  0  0  0  0
    3.9255    0.5875    2.2889 F   0  0  0  0  0  0  0  0  0  0  0  0
    4.4572    0.4762    0.0671 F   0  0  0  0  0  0  0  0  0  0  0  0
    1.8169    1.4402    0.5816 F   0  0  0  0  0  0  0  0  0  0  0  0
  1  2  1  0  0  0  0
  1  7  1  0  0  0  0
  2  8  1  0  0  0  0
  3 20  1  0  0  0  0
  3  2  2  0  0  0  0
  4  3  1  0  0  0  0
  5  4  2  0  0  0  0
  5  6  1  0  0  0  0
  6  1  2  0  0  0  0
  9  4  1  0  0  0  0
 10  5  1  0  0  0  0
 11  6  1  0  0  0  0
 11 12  2  0  0  0  0
 13 11  2  0  0  0  0
 15 14  3  0  0  0  0
 16 18  1  0  0  0  0
 17 16  1  0  0  0  0
 19 16  1  0  0  0  0
M  END
