Coordinates from ORCA-job 4-NO2-Ph-N2-BF4-B3LYPG-6-31G_dp-MTMO-d009-169-n800
 OpenBabel09051908343D

 20 18  0  0  0  0  0  0  0  0999 V2000
   -1.9257   -0.2450    0.6359 C   0  0  0  0  0  0  0  0  0  0  0  0
   -0.6257    0.2490    0.5792 C   0  0  0  0  0  0  0  0  0  0  0  0
   -0.4267    1.6065    0.8086 C   0  0  0  0  0  0  0  0  0  0  0  0
   -1.4633    2.4906    1.0904 C   0  0  0  0  0  0  0  0  0  0  0  0
   -2.7615    1.9926    1.1462 C   0  0  0  0  0  0  0  0  0  0  0  0
   -2.9721    0.6328    0.9180 C   0  0  0  0  0  0  0  0  0  0  0  0
   -2.1413   -1.2920    0.4649 H   0  0  0  0  0  0  0  0  0  0  0  0
    0.2204   -0.3914    0.3624 H   0  0  0  0  0  0  0  0  0  0  0  0
   -1.2466    3.5388    1.2617 H   0  0  0  0  0  0  0  0  0  0  0  0
   -3.6068    2.6336    1.3617 H   0  0  0  0  0  0  0  0  0  0  0  0
   -4.3441    0.1077    0.9774 N   0  0  0  0  0  0  0  0  0  0  0  0
   -4.5023   -1.0951    0.7734 O   0  0  0  0  0  0  0  0  0  0  0  0
   -5.2478    0.9042    1.2276 O   0  0  0  0  0  0  0  0  0  0  0  0
   11.1639   -0.4082   -2.8974 N   0  0  0  0  0  0  0  0  0  0  0  0
   10.1205   -0.3257   -2.5422 N   0  0  0  0  0  0  0  0  0  0  0  0
    3.0270    1.1660   -0.0670 B   0  0  0  0  0  0  0  0  0  0  0  0
    2.5792   -0.0802   -0.0061 F   0  0  0  0  0  0  0  0  0  0  0  0
    3.6345    1.6935    0.9756 F   0  0  0  0  0  0  0  0  0  0  0  0
    2.9271    1.8400   -1.1948 F   0  0  0  0  0  0  0  0  0  0  0  0
    0.8346    2.1009    0.7578 F   0  0  0  0  0  0  0  0  0  0  0  0
  1  6  1  0  0  0  0
  2  1  2  0  0  0  0
  2  3  1  0  0  0  0
  3  4  2  0  0  0  0
  4  5  1  0  0  0  0
  4  9  1  0  0  0  0
  5 10  1  0  0  0  0
  6 11  1  0  0  0  0
  6  5  2  0  0  0  0
  7  1  1  0  0  0  0
  8  2  1  0  0  0  0
 11 13  2  0  0  0  0
 12 11  2  0  0  0  0
 14 15  3  0  0  0  0
 16 17  1  0  0  0  0
 16 18  1  0  0  0  0
 19 16  1  0  0  0  0
 20  3  1  0  0  0  0
M  END
