Coordinates from ORCA-job 4-NO2-Ph-N2-BF4-B3LYPG-6-31G_dp-MTMO-d009-169-n800
 OpenBabel09051908343D

 20 18  0  0  0  0  0  0  0  0999 V2000
   -1.5204   -0.2659    0.4966 C   0  0  0  0  0  0  0  0  0  0  0  0
   -0.2285    0.2362    0.3724 C   0  0  0  0  0  0  0  0  0  0  0  0
   -0.0215    1.5914    0.6107 C   0  0  0  0  0  0  0  0  0  0  0  0
   -1.0441    2.4653    0.9668 C   0  0  0  0  0  0  0  0  0  0  0  0
   -2.3346    1.9595    1.0900 C   0  0  0  0  0  0  0  0  0  0  0  0
   -2.5526    0.6022    0.8529 C   0  0  0  0  0  0  0  0  0  0  0  0
   -1.7413   -1.3112    0.3220 H   0  0  0  0  0  0  0  0  0  0  0  0
    0.6081   -0.3949    0.0977 H   0  0  0  0  0  0  0  0  0  0  0  0
   -0.8226    3.5119    1.1417 H   0  0  0  0  0  0  0  0  0  0  0  0
   -3.1688    2.5926    1.3641 H   0  0  0  0  0  0  0  0  0  0  0  0
   -3.9164    0.0696    0.9828 N   0  0  0  0  0  0  0  0  0  0  0  0
   -4.0817   -1.1305    0.7675 O   0  0  0  0  0  0  0  0  0  0  0  0
   -4.8075    0.8570    1.2988 O   0  0  0  0  0  0  0  0  0  0  0  0
    7.2786   -0.0470   -1.5544 N   0  0  0  0  0  0  0  0  0  0  0  0
    6.2449    0.1772   -1.2352 N   0  0  0  0  0  0  0  0  0  0  0  0
    3.5257    1.0363   -0.3558 B   0  0  0  0  0  0  0  0  0  0  0  0
    3.0070   -0.1831   -0.3334 F   0  0  0  0  0  0  0  0  0  0  0  0
    4.1167    1.5157    0.7189 F   0  0  0  0  0  0  0  0  0  0  0  0
    3.4701    1.7484   -1.4626 F   0  0  0  0  0  0  0  0  0  0  0  0
    1.2323    2.0882    0.4914 F   0  0  0  0  0  0  0  0  0  0  0  0
  1  6  1  0  0  0  0
  2  1  2  0  0  0  0
  2  3  1  0  0  0  0
  3  4  2  0  0  0  0
  4  5  1  0  0  0  0
  4  9  1  0  0  0  0
  5 10  1  0  0  0  0
  6 11  1  0  0  0  0
  6  5  2  0  0  0  0
  7  1  1  0  0  0  0
  8  2  1  0  0  0  0
 11 13  2  0  0  0  0
 12 11  2  0  0  0  0
 14 15  3  0  0  0  0
 16 17  1  0  0  0  0
 16 18  1  0  0  0  0
 19 16  1  0  0  0  0
 20  3  1  0  0  0  0
M  END
