Coordinates from ORCA-job 4-NO2-Ph-N2-BF4-B3LYPG-6-31G_dp-MTMO-d009-169-n800
 OpenBabel09051908343D

 20 18  0  0  0  0  0  0  0  0999 V2000
   -2.0335   -0.2315    0.6612 C   0  0  0  0  0  0  0  0  0  0  0  0
   -0.7372    0.2724    0.6081 C   0  0  0  0  0  0  0  0  0  0  0  0
   -0.5485    1.6298    0.8467 C   0  0  0  0  0  0  0  0  0  0  0  0
   -1.5914    2.5044    1.1343 C   0  0  0  0  0  0  0  0  0  0  0  0
   -2.8859    1.9963    1.1865 C   0  0  0  0  0  0  0  0  0  0  0  0
   -3.0864    0.6366    0.9491 C   0  0  0  0  0  0  0  0  0  0  0  0
   -2.2415   -1.2789    0.4831 H   0  0  0  0  0  0  0  0  0  0  0  0
    0.1138   -0.3601    0.3873 H   0  0  0  0  0  0  0  0  0  0  0  0
   -1.3825    3.5530    1.3127 H   0  0  0  0  0  0  0  0  0  0  0  0
   -3.7360    2.6295    1.4063 H   0  0  0  0  0  0  0  0  0  0  0  0
   -4.4545    0.1010    1.0048 N   0  0  0  0  0  0  0  0  0  0  0  0
   -4.6038   -1.1015    0.7923 O   0  0  0  0  0  0  0  0  0  0  0  0
   -5.3641    0.8890    1.2605 O   0  0  0  0  0  0  0  0  0  0  0  0
   12.2155   -0.5905   -3.2097 N   0  0  0  0  0  0  0  0  0  0  0  0
   11.1707   -0.5009   -2.8603 N   0  0  0  0  0  0  0  0  0  0  0  0
    2.9097    1.2202   -0.0262 B   0  0  0  0  0  0  0  0  0  0  0  0
    2.4736   -0.0301    0.0349 F   0  0  0  0  0  0  0  0  0  0  0  0
    3.5127    1.7533    1.0162 F   0  0  0  0  0  0  0  0  0  0  0  0
    2.8035    1.8931   -1.1540 F   0  0  0  0  0  0  0  0  0  0  0  0
    0.7092    2.1337    0.7994 F   0  0  0  0  0  0  0  0  0  0  0  0
  1  6  1  0  0  0  0
  2  1  2  0  0  0  0
  2  3  1  0  0  0  0
  3  4  2  0  0  0  0
  4  5  1  0  0  0  0
  4  9  1  0  0  0  0
  5 10  1  0  0  0  0
  6 11  1  0  0  0  0
  6  5  2  0  0  0  0
  7  1  1  0  0  0  0
  8  2  1  0  0  0  0
 11 13  2  0  0  0  0
 12 11  2  0  0  0  0
 14 15  3  0  0  0  0
 16 17  1  0  0  0  0
 16 18  1  0  0  0  0
 19 16  1  0  0  0  0
 20  3  1  0  0  0  0
M  END
