Coordinates from ORCA-job 4-NO2-Ph-N2-BF4-B3LYPG-6-31G_dp-MTMO-d009-169-n800
 OpenBabel09051908343D

 20 19  0  0  1  0  0  0  0  0999 V2000
   -0.7908   -0.0180    0.4747 C   0  0  0  0  0  0  0  0  0  0  0  0
    0.6151    0.3532    0.1645 C   0  0  1  0  0  0  0  0  0  0  0  0
    0.7426    1.6598   -0.6134 C   0  0  0  0  0  0  0  0  0  0  0  0
   -0.3730    2.6173   -0.5446 C   0  0  0  0  0  0  0  0  0  0  0  0
   -1.5758    2.2606   -0.0487 C   0  0  0  0  0  0  0  0  0  0  0  0
   -1.7670    0.9053    0.4098 C   0  0  0  0  0  0  0  0  0  0  0  0
   -1.0025   -1.0245    0.8126 H   0  0  0  0  0  0  0  0  0  0  0  0
    1.1622   -0.4492   -0.3341 H   0  0  0  0  0  0  0  0  0  0  0  0
   -0.1901    3.6137   -0.9343 H   0  0  0  0  0  0  0  0  0  0  0  0
   -2.4085    2.9493   -0.0075 H   0  0  0  0  0  0  0  0  0  0  0  0
   -3.1391    0.5048    0.8079 N   0  0  0  0  0  0  0  0  0  0  0  0
   -3.3215   -0.6602    1.1478 O   0  0  0  0  0  0  0  0  0  0  0  0
   -4.0040    1.3770    0.7715 O   0  0  0  0  0  0  0  0  0  0  0  0
    1.6546    1.8729   -1.1515 N   0  0  0  0  0  0  0  0  0  0  0  0
    2.6276    2.0990   -1.7317 N   0  0  0  0  0  0  0  0  0  0  0  0
    3.3849   -0.3438    1.5022 B   0  0  0  0  0  0  0  0  0  0  0  0
    2.9791   -1.4832    0.9516 F   0  0  0  0  0  0  0  0  0  0  0  0
    3.4930   -0.2457    2.8121 F   0  0  0  0  0  0  0  0  0  0  0  0
    3.8570    0.6123    0.7158 F   0  0  0  0  0  0  0  0  0  0  0  0
    1.2995    0.5183    1.4285 F   0  0  0  0  0  0  0  0  0  0  0  0
  1  7  1  0  0  0  0
  2  8  1  6  0  0  0
  2  1  1  0  0  0  0
  2 20  1  0  0  0  0
  3  4  2  0  0  0  0
  3  2  1  0  0  0  0
  4  5  1  0  0  0  0
  5 10  1  0  0  0  0
  5  6  1  0  0  0  0
  6  1  2  0  0  0  0
  6 11  1  0  0  0  0
  9  4  1  0  0  0  0
 11 12  2  0  0  0  0
 13 11  2  0  0  0  0
 14  3  1  0  0  0  0
 15 14  1  0  0  0  0
 16 18  1  0  0  0  0
 17 16  1  0  0  0  0
 19 16  1  0  0  0  0
M  RAD  3   5   2  14   2  15   3
M  END
