Coordinates from ORCA-job 4-NO2-Ph-N2-BF4-B3LYPG-6-31G_dp-MTMO-d009-169-n800
 OpenBabel09051908343D

 20 18  0  0  0  0  0  0  0  0999 V2000
   -1.5394   -0.3511    0.8535 C   0  0  0  0  0  0  0  0  0  0  0  0
   -0.2066   -0.1773    0.4924 C   0  0  0  0  0  0  0  0  0  0  0  0
    0.2093    1.0913    0.1020 C   0  0  0  0  0  0  0  0  0  0  0  0
   -0.6405    2.1914    0.0575 C   0  0  0  0  0  0  0  0  0  0  0  0
   -1.9726    2.0131    0.4186 C   0  0  0  0  0  0  0  0  0  0  0  0
   -2.4008    0.7450    0.8106 C   0  0  0  0  0  0  0  0  0  0  0  0
   -1.9202   -1.3149    1.1665 H   0  0  0  0  0  0  0  0  0  0  0  0
    0.5026   -0.9959    0.5121 H   0  0  0  0  0  0  0  0  0  0  0  0
   -0.2584    3.1561   -0.2555 H   0  0  0  0  0  0  0  0  0  0  0  0
   -2.6794    2.8329    0.4023 H   0  0  0  0  0  0  0  0  0  0  0  0
   -3.8089    0.5578    1.1913 N   0  0  0  0  0  0  0  0  0  0  0  0
   -4.1610   -0.5705    1.5321 O   0  0  0  0  0  0  0  0  0  0  0  0
   -4.5467    1.5412    1.1452 O   0  0  0  0  0  0  0  0  0  0  0  0
    5.1218    2.4402   -2.3781 N   0  0  0  0  0  0  0  0  0  0  0  0
    6.1694    2.0902   -2.4125 N   0  0  0  0  0  0  0  0  0  0  0  0
    3.4526    0.1624    0.8045 B   0  0  0  0  0  0  0  0  0  0  0  0
    2.9610   -1.0389    0.5406 F   0  0  0  0  0  0  0  0  0  0  0  0
    3.1696    0.7452    1.9528 F   0  0  0  0  0  0  0  0  0  0  0  0
    4.2865    0.7299   -0.0440 F   0  0  0  0  0  0  0  0  0  0  0  0
    1.5049    1.2707   -0.2587 F   0  0  0  0  0  0  0  0  0  0  0  0
  1  7  1  0  0  0  0
  2  8  1  0  0  0  0
  2  1  2  0  0  0  0
  3  2  1  0  0  0  0
  4  3  2  0  0  0  0
  4  5  1  0  0  0  0
  5  6  2  0  0  0  0
  6  1  1  0  0  0  0
  6 11  1  0  0  0  0
  9  4  1  0  0  0  0
 10  5  1  0  0  0  0
 11 12  2  0  0  0  0
 13 11  2  0  0  0  0
 15 14  3  0  0  0  0
 16 18  1  0  0  0  0
 17 16  1  0  0  0  0
 19 16  1  0  0  0  0
 20  3  1  0  0  0  0
M  END
