Coordinates from ORCA-job 4-NO2-Ph-N2-BF4-B3LYPG-6-31G_dp-MTMO-d009-169-n800
 OpenBabel09051908343D

 20 18  0  0  0  0  0  0  0  0999 V2000
   -1.9620   -0.2404    0.6448 C   0  0  0  0  0  0  0  0  0  0  0  0
   -0.6632    0.2570    0.5897 C   0  0  0  0  0  0  0  0  0  0  0  0
   -0.4678    1.6146    0.8218 C   0  0  0  0  0  0  0  0  0  0  0  0
   -1.5068    2.4955    1.1048 C   0  0  0  0  0  0  0  0  0  0  0  0
   -2.8038    1.9941    1.1590 C   0  0  0  0  0  0  0  0  0  0  0  0
   -3.0108    0.6342    0.9281 C   0  0  0  0  0  0  0  0  0  0  0  0
   -2.1749   -1.2876    0.4717 H   0  0  0  0  0  0  0  0  0  0  0  0
    0.1845   -0.3808    0.3721 H   0  0  0  0  0  0  0  0  0  0  0  0
   -1.2928    3.5439    1.2782 H   0  0  0  0  0  0  0  0  0  0  0  0
   -3.6508    2.6325    1.3753 H   0  0  0  0  0  0  0  0  0  0  0  0
   -4.3815    0.1055    0.9858 N   0  0  0  0  0  0  0  0  0  0  0  0
   -4.5365   -1.0973    0.7793 O   0  0  0  0  0  0  0  0  0  0  0  0
   -5.2874    0.8992    1.2371 O   0  0  0  0  0  0  0  0  0  0  0  0
   11.5195   -0.4694   -3.0052 N   0  0  0  0  0  0  0  0  0  0  0  0
   10.4756   -0.3848   -2.6520 N   0  0  0  0  0  0  0  0  0  0  0  0
    2.9875    1.1838   -0.0513 B   0  0  0  0  0  0  0  0  0  0  0  0
    2.5434   -0.0637    0.0097 F   0  0  0  0  0  0  0  0  0  0  0  0
    3.5930    1.7134    0.9914 F   0  0  0  0  0  0  0  0  0  0  0  0
    2.8861    1.8572   -1.1793 F   0  0  0  0  0  0  0  0  0  0  0  0
    0.7922    2.1123    0.7726 F   0  0  0  0  0  0  0  0  0  0  0  0
  1  6  1  0  0  0  0
  2  1  2  0  0  0  0
  2  3  1  0  0  0  0
  3  4  2  0  0  0  0
  4  5  1  0  0  0  0
  4  9  1  0  0  0  0
  5 10  1  0  0  0  0
  6 11  1  0  0  0  0
  6  5  2  0  0  0  0
  7  1  1  0  0  0  0
  8  2  1  0  0  0  0
 11 13  2  0  0  0  0
 12 11  2  0  0  0  0
 14 15  3  0  0  0  0
 16 17  1  0  0  0  0
 16 18  1  0  0  0  0
 19 16  1  0  0  0  0
 20  3  1  0  0  0  0
M  END
