Coordinates from ORCA-job 4-NO2-Ph-N2-BF4-B3LYPG-6-31G_dp-MTMO-d009-169-n800
 OpenBabel09051908343D

 20 19  0  0  1  0  0  0  0  0999 V2000
   -0.7896   -0.0185    0.4737 C   0  0  0  0  0  0  0  0  0  0  0  0
    0.6158    0.3533    0.1623 C   0  0  1  0  0  0  0  0  0  0  0  0
    0.7378    1.6589   -0.6101 C   0  0  0  0  0  0  0  0  0  0  0  0
   -0.3735    2.6166   -0.5450 C   0  0  0  0  0  0  0  0  0  0  0  0
   -1.5767    2.2602   -0.0479 C   0  0  0  0  0  0  0  0  0  0  0  0
   -1.7662    0.9052    0.4108 C   0  0  0  0  0  0  0  0  0  0  0  0
   -1.0010   -1.0252    0.8111 H   0  0  0  0  0  0  0  0  0  0  0  0
    1.1631   -0.4492   -0.3358 H   0  0  0  0  0  0  0  0  0  0  0  0
   -0.1919    3.6127   -0.9358 H   0  0  0  0  0  0  0  0  0  0  0  0
   -2.4098    2.9483   -0.0070 H   0  0  0  0  0  0  0  0  0  0  0  0
   -3.1375    0.5038    0.8107 N   0  0  0  0  0  0  0  0  0  0  0  0
   -3.3191   -0.6615    1.1502 O   0  0  0  0  0  0  0  0  0  0  0  0
   -4.0031    1.3755    0.7759 O   0  0  0  0  0  0  0  0  0  0  0  0
    1.6676    1.8789   -1.1556 N   0  0  0  0  0  0  0  0  0  0  0  0
    2.6398    2.1074   -1.7320 N   0  0  0  0  0  0  0  0  0  0  0  0
    3.3757   -0.3435    1.5015 B   0  0  0  0  0  0  0  0  0  0  0  0
    2.9723   -1.4878    0.9590 F   0  0  0  0  0  0  0  0  0  0  0  0
    3.4882   -0.2370    2.8106 F   0  0  0  0  0  0  0  0  0  0  0  0
    3.8496    0.6062    0.7076 F   0  0  0  0  0  0  0  0  0  0  0  0
    1.3019    0.5147    1.4289 F   0  0  0  0  0  0  0  0  0  0  0  0
  1  7  1  0  0  0  0
  2  8  1  6  0  0  0
  2  1  1  0  0  0  0
  2 20  1  0  0  0  0
  3  4  2  0  0  0  0
  3  2  1  0  0  0  0
  4  5  1  0  0  0  0
  5 10  1  0  0  0  0
  5  6  1  0  0  0  0
  6  1  2  0  0  0  0
  6 11  1  0  0  0  0
  9  4  1  0  0  0  0
 11 12  2  0  0  0  0
 13 11  2  0  0  0  0
 14  3  1  0  0  0  0
 15 14  1  0  0  0  0
 16 18  1  0  0  0  0
 17 16  1  0  0  0  0
 19 16  1  0  0  0  0
M  RAD  3   5   2  14   2  15   3
M  END
