Coordinates from ORCA-job 4-NO2-Ph-N2-BF4-B3LYPG-6-31G_dp-MTMO-d009-169-n800
 OpenBabel09051908343D

 20 18  0  0  0  0  0  0  0  0999 V2000
   -1.2046   -0.2351    0.5111 C   0  0  0  0  0  0  0  0  0  0  0  0
    0.1398   -0.0166    0.7968 C   0  0  0  0  0  0  0  0  0  0  0  0
    0.5911    1.2967    0.8797 C   0  0  0  0  0  0  0  0  0  0  0  0
   -0.2381    2.3978    0.6917 C   0  0  0  0  0  0  0  0  0  0  0  0
   -1.5815    2.1754    0.4060 C   0  0  0  0  0  0  0  0  0  0  0  0
   -2.0438    0.8623    0.3194 C   0  0  0  0  0  0  0  0  0  0  0  0
   -1.6119   -1.2353    0.4342 H   0  0  0  0  0  0  0  0  0  0  0  0
    0.8315   -0.8348    0.9541 H   0  0  0  0  0  0  0  0  0  0  0  0
    0.1698    3.3989    0.7704 H   0  0  0  0  0  0  0  0  0  0  0  0
   -2.2720    2.9941    0.2490 H   0  0  0  0  0  0  0  0  0  0  0  0
   -3.4628    0.6280    0.0155 N   0  0  0  0  0  0  0  0  0  0  0  0
   -3.8461   -0.5391   -0.0504 O   0  0  0  0  0  0  0  0  0  0  0  0
   -4.1788    1.6141   -0.1547 O   0  0  0  0  0  0  0  0  0  0  0  0
    2.0747    1.4795   -1.8393 N   0  0  0  0  0  0  0  0  0  0  0  0
    2.0964    1.4533   -2.9439 N   0  0  0  0  0  0  0  0  0  0  0  0
    3.9568    0.0541    1.1072 B   0  0  0  0  0  0  0  0  0  0  0  0
    3.2198   -1.0386    1.2433 F   0  0  0  0  0  0  0  0  0  0  0  0
    4.3918    0.6886    2.1759 F   0  0  0  0  0  0  0  0  0  0  0  0
    4.3159    0.4517   -0.0976 F   0  0  0  0  0  0  0  0  0  0  0  0
    1.8954    1.5237    1.1648 F   0  0  0  0  0  0  0  0  0  0  0  0
  1  2  2  0  0  0  0
  2  3  1  0  0  0  0
  2  8  1  0  0  0  0
  3 20  1  0  0  0  0
  4  9  1  0  0  0  0
  4  3  2  0  0  0  0
  5  4  1  0  0  0  0
  6  5  2  0  0  0  0
  6  1  1  0  0  0  0
  7  1  1  0  0  0  0
 10  5  1  0  0  0  0
 11  6  1  0  0  0  0
 12 11  2  0  0  0  0
 13 11  2  0  0  0  0
 15 14  3  0  0  0  0
 16 17  1  0  0  0  0
 16 18  1  0  0  0  0
 19 16  1  0  0  0  0
M  END
