Coordinates from ORCA-job 4-NO2-Ph-N2-BF4-B3LYPG-6-31G_dp-MTMO-d009-169-n800
 OpenBabel09051908343D

 20 18  0  0  0  0  0  0  0  0999 V2000
   -1.1804   -0.2296    0.4893 C   0  0  0  0  0  0  0  0  0  0  0  0
    0.1597   -0.0127    0.7957 C   0  0  0  0  0  0  0  0  0  0  0  0
    0.6104    1.3002    0.8906 C   0  0  0  0  0  0  0  0  0  0  0  0
   -0.2166    2.4022    0.6976 C   0  0  0  0  0  0  0  0  0  0  0  0
   -1.5556    2.1815    0.3910 C   0  0  0  0  0  0  0  0  0  0  0  0
   -2.0166    0.8689    0.2907 C   0  0  0  0  0  0  0  0  0  0  0  0
   -1.5867   -1.2293    0.4017 H   0  0  0  0  0  0  0  0  0  0  0  0
    0.8491   -0.8317    0.9589 H   0  0  0  0  0  0  0  0  0  0  0  0
    0.1901    3.4029    0.7880 H   0  0  0  0  0  0  0  0  0  0  0  0
   -2.2439    3.0010    0.2287 H   0  0  0  0  0  0  0  0  0  0  0  0
   -3.4311    0.6362   -0.0346 N   0  0  0  0  0  0  0  0  0  0  0  0
   -3.8134   -0.5305   -0.1117 O   0  0  0  0  0  0  0  0  0  0  0  0
   -4.1446    1.6232   -0.2103 O   0  0  0  0  0  0  0  0  0  0  0  0
    1.9461    1.4442   -1.7274 N   0  0  0  0  0  0  0  0  0  0  0  0
    1.8149    1.3879   -2.8233 N   0  0  0  0  0  0  0  0  0  0  0  0
    3.9742    0.0600    1.1020 B   0  0  0  0  0  0  0  0  0  0  0  0
    3.2391   -1.0331    1.2464 F   0  0  0  0  0  0  0  0  0  0  0  0
    4.4239    0.6925    2.1657 F   0  0  0  0  0  0  0  0  0  0  0  0
    4.3163    0.4599   -0.1070 F   0  0  0  0  0  0  0  0  0  0  0  0
    1.9085    1.5253    1.2013 F   0  0  0  0  0  0  0  0  0  0  0  0
  1  2  2  0  0  0  0
  2  3  1  0  0  0  0
  2  8  1  0  0  0  0
  3 20  1  0  0  0  0
  4  9  1  0  0  0  0
  4  3  2  0  0  0  0
  5  4  1  0  0  0  0
  6  5  2  0  0  0  0
  6  1  1  0  0  0  0
  7  1  1  0  0  0  0
 10  5  1  0  0  0  0
 11  6  1  0  0  0  0
 12 11  2  0  0  0  0
 13 11  2  0  0  0  0
 15 14  3  0  0  0  0
 16 17  1  0  0  0  0
 16 18  1  0  0  0  0
 19 16  1  0  0  0  0
M  END
