Coordinates from ORCA-job 4-NO2-Ph-N2-BF4-B3LYPG-6-31G_dp-MTMO-d009-169-n800
 OpenBabel09051908343D

 20 18  0  0  0  0  0  0  0  0999 V2000
   -1.7797   -0.2612    0.5940 C   0  0  0  0  0  0  0  0  0  0  0  0
   -0.4759    0.2207    0.5223 C   0  0  0  0  0  0  0  0  0  0  0  0
   -0.2621    1.5769    0.7463 C   0  0  0  0  0  0  0  0  0  0  0  0
   -1.2873    2.4713    1.0371 C   0  0  0  0  0  0  0  0  0  0  0  0
   -2.5894    1.9853    1.1077 C   0  0  0  0  0  0  0  0  0  0  0  0
   -2.8149    0.6269    0.8850 C   0  0  0  0  0  0  0  0  0  0  0  0
   -2.0069   -1.3066    0.4278 H   0  0  0  0  0  0  0  0  0  0  0  0
    0.3622   -0.4276    0.2981 H   0  0  0  0  0  0  0  0  0  0  0  0
   -1.0592    3.5178    1.2035 H   0  0  0  0  0  0  0  0  0  0  0  0
   -3.4265    2.6345    1.3305 H   0  0  0  0  0  0  0  0  0  0  0  0
   -4.1911    0.1148    0.9601 N   0  0  0  0  0  0  0  0  0  0  0  0
   -4.3625   -1.0870    0.7606 O   0  0  0  0  0  0  0  0  0  0  0  0
   -5.0847    0.9201    1.2179 O   0  0  0  0  0  0  0  0  0  0  0  0
    9.7348   -0.1672   -2.4259 N   0  0  0  0  0  0  0  0  0  0  0  0
    8.6922   -0.0831   -2.0686 N   0  0  0  0  0  0  0  0  0  0  0  0
    3.1834    1.0923   -0.1549 B   0  0  0  0  0  0  0  0  0  0  0  0
    2.7182   -0.1477   -0.0985 F   0  0  0  0  0  0  0  0  0  0  0  0
    3.8006    1.6065    0.8886 F   0  0  0  0  0  0  0  0  0  0  0  0
    3.0892    1.7730   -1.2790 F   0  0  0  0  0  0  0  0  0  0  0  0
    1.0030    2.0592    0.6807 F   0  0  0  0  0  0  0  0  0  0  0  0
  1  6  1  0  0  0  0
  2  1  2  0  0  0  0
  2  3  1  0  0  0  0
  3  4  2  0  0  0  0
  4  5  1  0  0  0  0
  4  9  1  0  0  0  0
  5 10  1  0  0  0  0
  6 11  1  0  0  0  0
  6  5  2  0  0  0  0
  7  1  1  0  0  0  0
  8  2  1  0  0  0  0
 11 13  2  0  0  0  0
 12 11  2  0  0  0  0
 14 15  3  0  0  0  0
 16 17  1  0  0  0  0
 16 18  1  0  0  0  0
 19 16  1  0  0  0  0
 20  3  1  0  0  0  0
M  END
