Coordinates from ORCA-job 4-NO2-Ph-N2-BF4-B3LYPG-6-31G_dp-MTMO-d009-169-n800
 OpenBabel09051908343D

 20 18  0  0  0  0  0  0  0  0999 V2000
   -1.3299   -0.2679    0.6445 C   0  0  0  0  0  0  0  0  0  0  0  0
    0.0390   -0.0482    0.7673 C   0  0  0  0  0  0  0  0  0  0  0  0
    0.5037    1.2614    0.7016 C   0  0  0  0  0  0  0  0  0  0  0  0
   -0.3334    2.3572    0.5173 C   0  0  0  0  0  0  0  0  0  0  0  0
   -1.7011    2.1330    0.3950 C   0  0  0  0  0  0  0  0  0  0  0  0
   -2.1779    0.8239    0.4603 C   0  0  0  0  0  0  0  0  0  0  0  0
   -1.7491   -1.2652    0.6883 H   0  0  0  0  0  0  0  0  0  0  0  0
    0.7385   -0.8620    0.9111 H   0  0  0  0  0  0  0  0  0  0  0  0
    0.0872    3.3552    0.4726 H   0  0  0  0  0  0  0  0  0  0  0  0
   -2.3992    2.9473    0.2501 H   0  0  0  0  0  0  0  0  0  0  0  0
   -3.6233    0.5880    0.3301 N   0  0  0  0  0  0  0  0  0  0  0  0
   -4.0189   -0.5750    0.3930 O   0  0  0  0  0  0  0  0  0  0  0  0
   -4.3476    1.5692    0.1660 O   0  0  0  0  0  0  0  0  0  0  0  0
    2.8154    1.7788   -2.1713 N   0  0  0  0  0  0  0  0  0  0  0  0
    3.3674    1.8771   -3.1235 N   0  0  0  0  0  0  0  0  0  0  0  0
    3.8709    0.0034    1.1003 B   0  0  0  0  0  0  0  0  0  0  0  0
    3.1235   -1.0904    1.0784 F   0  0  0  0  0  0  0  0  0  0  0  0
    4.1260    0.5990    2.2468 F   0  0  0  0  0  0  0  0  0  0  0  0
    4.4181    0.4424   -0.0158 F   0  0  0  0  0  0  0  0  0  0  0  0
    1.8341    1.4915    0.8210 F   0  0  0  0  0  0  0  0  0  0  0  0
  1  7  1  0  0  0  0
  1  2  2  0  0  0  0
  2  8  1  0  0  0  0
  3  2  1  0  0  0  0
  3 20  1  0  0  0  0
  4  3  2  0  0  0  0
  5  6  2  0  0  0  0
  5  4  1  0  0  0  0
  6  1  1  0  0  0  0
  9  4  1  0  0  0  0
 10  5  1  0  0  0  0
 11 12  2  0  0  0  0
 11  6  1  0  0  0  0
 13 11  2  0  0  0  0
 15 14  3  0  0  0  0
 16 18  1  0  0  0  0
 17 16  1  0  0  0  0
 19 16  1  0  0  0  0
M  END
