Coordinates from ORCA-job 4-NO2-Ph-N2-BF4-B3LYPG-6-31G_dp-MTMO-d009-169-n800
 OpenBabel09051908343D

 20 18  0  0  0  0  0  0  0  0999 V2000
   -1.9188   -0.2458    0.6341 C   0  0  0  0  0  0  0  0  0  0  0  0
   -0.6186    0.2476    0.5772 C   0  0  0  0  0  0  0  0  0  0  0  0
   -0.4191    1.6052    0.8062 C   0  0  0  0  0  0  0  0  0  0  0  0
   -1.4552    2.4899    1.0878 C   0  0  0  0  0  0  0  0  0  0  0  0
   -2.7536    1.9924    1.1439 C   0  0  0  0  0  0  0  0  0  0  0  0
   -2.9647    0.6326    0.9161 C   0  0  0  0  0  0  0  0  0  0  0  0
   -2.1349   -1.2928    0.4635 H   0  0  0  0  0  0  0  0  0  0  0  0
    0.2274   -0.3929    0.3605 H   0  0  0  0  0  0  0  0  0  0  0  0
   -1.2380    3.5381    1.2588 H   0  0  0  0  0  0  0  0  0  0  0  0
   -3.5986    2.6337    1.3593 H   0  0  0  0  0  0  0  0  0  0  0  0
   -4.3370    0.1082    0.9758 N   0  0  0  0  0  0  0  0  0  0  0  0
   -4.4958   -1.0947    0.7722 O   0  0  0  0  0  0  0  0  0  0  0  0
   -5.2404    0.9051    1.2258 O   0  0  0  0  0  0  0  0  0  0  0  0
   11.0959   -0.3964   -2.8767 N   0  0  0  0  0  0  0  0  0  0  0  0
   10.0526   -0.3143   -2.5210 N   0  0  0  0  0  0  0  0  0  0  0  0
    3.0349    1.1623   -0.0703 B   0  0  0  0  0  0  0  0  0  0  0  0
    2.5867   -0.0837   -0.0092 F   0  0  0  0  0  0  0  0  0  0  0  0
    3.6428    1.6896    0.9722 F   0  0  0  0  0  0  0  0  0  0  0  0
    2.9351    1.8362   -1.1981 F   0  0  0  0  0  0  0  0  0  0  0  0
    0.8424    2.0987    0.7551 F   0  0  0  0  0  0  0  0  0  0  0  0
  1  6  1  0  0  0  0
  2  1  2  0  0  0  0
  2  3  1  0  0  0  0
  3  4  2  0  0  0  0
  4  5  1  0  0  0  0
  4  9  1  0  0  0  0
  5 10  1  0  0  0  0
  6 11  1  0  0  0  0
  6  5  2  0  0  0  0
  7  1  1  0  0  0  0
  8  2  1  0  0  0  0
 11 13  2  0  0  0  0
 12 11  2  0  0  0  0
 14 15  3  0  0  0  0
 16 17  1  0  0  0  0
 16 18  1  0  0  0  0
 19 16  1  0  0  0  0
 20  3  1  0  0  0  0
M  END
