Coordinates from ORCA-job 4-NO2-Ph-N2-BF4-B3LYPG-6-31G_dp-MTMO-d009-169-n800
 OpenBabel09051908343D

 20 18  0  0  0  0  0  0  0  0999 V2000
   -1.2755   -0.2552    0.5889 C   0  0  0  0  0  0  0  0  0  0  0  0
    0.0831   -0.0355    0.7962 C   0  0  0  0  0  0  0  0  0  0  0  0
    0.5439    1.2771    0.8033 C   0  0  0  0  0  0  0  0  0  0  0  0
   -0.2873    2.3761    0.6116 C   0  0  0  0  0  0  0  0  0  0  0  0
   -1.6447    2.1520    0.4048 C   0  0  0  0  0  0  0  0  0  0  0  0
   -2.1175    0.8398    0.3961 C   0  0  0  0  0  0  0  0  0  0  0  0
   -1.6914   -1.2547    0.5734 H   0  0  0  0  0  0  0  0  0  0  0  0
    0.7780   -0.8514    0.9503 H   0  0  0  0  0  0  0  0  0  0  0  0
    0.1298    3.3765    0.6266 H   0  0  0  0  0  0  0  0  0  0  0  0
   -2.3381    2.9685    0.2495 H   0  0  0  0  0  0  0  0  0  0  0  0
   -3.5518    0.6039    0.1753 N   0  0  0  0  0  0  0  0  0  0  0  0
   -3.9440   -0.5620    0.1756 O   0  0  0  0  0  0  0  0  0  0  0  0
   -4.2705    1.5877    0.0033 O   0  0  0  0  0  0  0  0  0  0  0  0
    2.4526    1.6587   -2.0611 N   0  0  0  0  0  0  0  0  0  0  0  0
    2.8259    1.7064   -3.1002 N   0  0  0  0  0  0  0  0  0  0  0  0
    3.9075    0.0214    1.1077 B   0  0  0  0  0  0  0  0  0  0  0  0
    3.1618   -1.0702    1.1972 F   0  0  0  0  0  0  0  0  0  0  0  0
    4.2782    0.6528    2.2022 F   0  0  0  0  0  0  0  0  0  0  0  0
    4.3389    0.4206   -0.0726 F   0  0  0  0  0  0  0  0  0  0  0  0
    1.8643    1.5064    1.0052 F   0  0  0  0  0  0  0  0  0  0  0  0
  1  2  2  0  0  0  0
  2  3  1  0  0  0  0
  2  8  1  0  0  0  0
  3 20  1  0  0  0  0
  4  9  1  0  0  0  0
  4  3  2  0  0  0  0
  5  4  1  0  0  0  0
  6  5  2  0  0  0  0
  6  1  1  0  0  0  0
  7  1  1  0  0  0  0
 10  5  1  0  0  0  0
 11 12  2  0  0  0  0
 11  6  1  0  0  0  0
 13 11  2  0  0  0  0
 15 14  3  0  0  0  0
 16 17  1  0  0  0  0
 16 18  1  0  0  0  0
 19 16  1  0  0  0  0
M  END
