Coordinates from ORCA-job 4-NO2-Ph-N2-BF4-B3LYPG-6-31G_dp-MTMO-d009-169-n800
 OpenBabel09051908343D

 20 18  0  0  0  0  0  0  0  0999 V2000
   -1.8997   -0.2481    0.6293 C   0  0  0  0  0  0  0  0  0  0  0  0
   -0.5989    0.2436    0.5712 C   0  0  0  0  0  0  0  0  0  0  0  0
   -0.3974    1.6010    0.7989 C   0  0  0  0  0  0  0  0  0  0  0  0
   -1.4322    2.4872    1.0805 C   0  0  0  0  0  0  0  0  0  0  0  0
   -2.7313    1.9916    1.1377 C   0  0  0  0  0  0  0  0  0  0  0  0
   -2.9444    0.6319    0.9112 C   0  0  0  0  0  0  0  0  0  0  0  0
   -2.1173   -1.2949    0.4596 H   0  0  0  0  0  0  0  0  0  0  0  0
    0.2459   -0.3985    0.3544 H   0  0  0  0  0  0  0  0  0  0  0  0
   -1.2135    3.5352    1.2505 H   0  0  0  0  0  0  0  0  0  0  0  0
   -3.5753    2.6343    1.3531 H   0  0  0  0  0  0  0  0  0  0  0  0
   -4.3173    0.1093    0.9721 N   0  0  0  0  0  0  0  0  0  0  0  0
   -4.4778   -1.0935    0.7696 O   0  0  0  0  0  0  0  0  0  0  0  0
   -5.2194    0.9076    1.2220 O   0  0  0  0  0  0  0  0  0  0  0  0
   10.9104   -0.3643   -2.8188 N   0  0  0  0  0  0  0  0  0  0  0  0
    9.8673   -0.2834   -2.4624 N   0  0  0  0  0  0  0  0  0  0  0  0
    3.0550    1.1529   -0.0795 B   0  0  0  0  0  0  0  0  0  0  0  0
    2.6045   -0.0923   -0.0187 F   0  0  0  0  0  0  0  0  0  0  0  0
    3.6641    1.6788    0.9630 F   0  0  0  0  0  0  0  0  0  0  0  0
    2.9559    1.8275   -1.2070 F   0  0  0  0  0  0  0  0  0  0  0  0
    0.8647    2.0930    0.7467 F   0  0  0  0  0  0  0  0  0  0  0  0
  1  6  1  0  0  0  0
  2  1  2  0  0  0  0
  2  3  1  0  0  0  0
  3  4  2  0  0  0  0
  4  5  1  0  0  0  0
  4  9  1  0  0  0  0
  5 10  1  0  0  0  0
  6 11  1  0  0  0  0
  6  5  2  0  0  0  0
  7  1  1  0  0  0  0
  8  2  1  0  0  0  0
 11 13  2  0  0  0  0
 12 11  2  0  0  0  0
 14 15  3  0  0  0  0
 16 17  1  0  0  0  0
 16 18  1  0  0  0  0
 19 16  1  0  0  0  0
 20  3  1  0  0  0  0
M  END
