Coordinates from ORCA-job 4-NO2-Ph-N2-BF4-B3LYPG-6-31G_dp-MTMO-d009-169-n800
 OpenBabel09051908343D

 20 18  0  0  0  0  0  0  0  0999 V2000
   -1.1923   -0.3112    0.6445 C   0  0  0  0  0  0  0  0  0  0  0  0
    0.0711    0.1866    0.9486 C   0  0  0  0  0  0  0  0  0  0  0  0
    0.2039    1.5524    1.1772 C   0  0  0  0  0  0  0  0  0  0  0  0
   -0.8641    2.4413    1.1132 C   0  0  0  0  0  0  0  0  0  0  0  0
   -2.1263    1.9397    0.8099 C   0  0  0  0  0  0  0  0  0  0  0  0
   -2.2703    0.5716    0.5804 C   0  0  0  0  0  0  0  0  0  0  0  0
   -1.3557   -1.3646    0.4552 H   0  0  0  0  0  0  0  0  0  0  0  0
    0.9410   -0.4562    1.0057 H   0  0  0  0  0  0  0  0  0  0  0  0
   -0.6999    3.4961    1.3018 H   0  0  0  0  0  0  0  0  0  0  0  0
   -2.9940    2.5839    0.7477 H   0  0  0  0  0  0  0  0  0  0  0  0
   -3.6043    0.0427    0.2605 N   0  0  0  0  0  0  0  0  0  0  0  0
   -3.7042   -1.1674    0.0621 O   0  0  0  0  0  0  0  0  0  0  0  0
   -4.5371    0.8435    0.2115 O   0  0  0  0  0  0  0  0  0  0  0  0
    5.2894   -0.5918   -2.6694 N   0  0  0  0  0  0  0  0  0  0  0  0
    5.0560    0.0783   -1.8232 N   0  0  0  0  0  0  0  0  0  0  0  0
    3.3951    1.3142    0.0865 B   0  0  0  0  0  0  0  0  0  0  0  0
    3.3577    0.1201    0.6587 F   0  0  0  0  0  0  0  0  0  0  0  0
    4.2066    2.2419    0.5506 F   0  0  0  0  0  0  0  0  0  0  0  0
    2.6426    1.5522   -0.9720 F   0  0  0  0  0  0  0  0  0  0  0  0
    1.4284    2.0456    1.4839 F   0  0  0  0  0  0  0  0  0  0  0  0
  1  2  1  0  0  0  0
  2  8  1  0  0  0  0
  2  3  2  0  0  0  0
  3 20  1  0  0  0  0
  4  3  1  0  0  0  0
  4  9  1  0  0  0  0
  5  4  2  0  0  0  0
  6  1  2  0  0  0  0
  6  5  1  0  0  0  0
  7  1  1  0  0  0  0
 10  5  1  0  0  0  0
 11  6  1  0  0  0  0
 12 11  2  0  0  0  0
 13 11  2  0  0  0  0
 14 15  3  0  0  0  0
 16 18  1  0  0  0  0
 16 17  1  0  0  0  0
 19 16  1  0  0  0  0
M  END
