Coordinates from ORCA-job 4-NO2-Ph-N2-BF4-B3LYPG-6-31G_dp-MTMO-d009-169-n800
 OpenBabel09051908343D

 20 18  0  0  0  0  0  0  0  0999 V2000
   -1.2859   -0.2570    0.6021 C   0  0  0  0  0  0  0  0  0  0  0  0
    0.0739   -0.0361    0.8002 C   0  0  0  0  0  0  0  0  0  0  0  0
    0.5351    1.2764    0.7957 C   0  0  0  0  0  0  0  0  0  0  0  0
   -0.2970    2.3741    0.6011 C   0  0  0  0  0  0  0  0  0  0  0  0
   -1.6556    2.1489    0.4035 C   0  0  0  0  0  0  0  0  0  0  0  0
   -2.1288    0.8369    0.4066 C   0  0  0  0  0  0  0  0  0  0  0  0
   -1.7019   -1.2565    0.5957 H   0  0  0  0  0  0  0  0  0  0  0  0
    0.7694   -0.8513    0.9558 H   0  0  0  0  0  0  0  0  0  0  0  0
    0.1205    3.3744    0.6067 H   0  0  0  0  0  0  0  0  0  0  0  0
   -2.3497    2.9646    0.2466 H   0  0  0  0  0  0  0  0  0  0  0  0
   -3.5643    0.5998    0.1957 N   0  0  0  0  0  0  0  0  0  0  0  0
   -3.9568   -0.5660    0.2058 O   0  0  0  0  0  0  0  0  0  0  0  0
   -4.2839    1.5826    0.0215 O   0  0  0  0  0  0  0  0  0  0  0  0
    2.5238    1.6799   -2.0846 N   0  0  0  0  0  0  0  0  0  0  0  0
    2.9209    1.7341   -3.1145 N   0  0  0  0  0  0  0  0  0  0  0  0
    3.9029    0.0169    1.1006 B   0  0  0  0  0  0  0  0  0  0  0  0
    3.1538   -1.0735    1.1747 F   0  0  0  0  0  0  0  0  0  0  0  0
    4.2648    0.6391    2.2033 F   0  0  0  0  0  0  0  0  0  0  0  0
    4.3457    0.4246   -0.0725 F   0  0  0  0  0  0  0  0  0  0  0  0
    1.8565    1.5070    0.9893 F   0  0  0  0  0  0  0  0  0  0  0  0
  1  2  2  0  0  0  0
  2  8  1  0  0  0  0
  3  2  1  0  0  0  0
  3 20  1  0  0  0  0
  4  9  1  0  0  0  0
  4  3  2  0  0  0  0
  5  6  2  0  0  0  0
  5  4  1  0  0  0  0
  6  1  1  0  0  0  0
  7  1  1  0  0  0  0
 10  5  1  0  0  0  0
 11 12  2  0  0  0  0
 11  6  1  0  0  0  0
 13 11  2  0  0  0  0
 15 14  3  0  0  0  0
 16 17  1  0  0  0  0
 16 18  1  0  0  0  0
 19 16  1  0  0  0  0
M  END
