Coordinates from ORCA-job 4-NO2-Ph-N2-BF4-B3LYPG-6-31G_dp-MTMO-d009-169-n800
 OpenBabel09051908343D

 20 18  0  0  0  0  0  0  0  0999 V2000
   -1.5367   -0.3596    0.7863 C   0  0  0  0  0  0  0  0  0  0  0  0
   -0.2287   -0.0686    0.4103 C   0  0  0  0  0  0  0  0  0  0  0  0
    0.0941    1.2533    0.1223 C   0  0  0  0  0  0  0  0  0  0  0  0
   -0.8248    2.2948    0.1931 C   0  0  0  0  0  0  0  0  0  0  0  0
   -2.1317    1.9994    0.5686 C   0  0  0  0  0  0  0  0  0  0  0  0
   -2.4667    0.6771    0.8591 C   0  0  0  0  0  0  0  0  0  0  0  0
   -1.8466   -1.3694    1.0237 H   0  0  0  0  0  0  0  0  0  0  0  0
    0.5314   -0.8372    0.3412 H   0  0  0  0  0  0  0  0  0  0  0  0
   -0.5140    3.3057   -0.0443 H   0  0  0  0  0  0  0  0  0  0  0  0
   -2.8897    2.7689    0.6412 H   0  0  0  0  0  0  0  0  0  0  0  0
   -3.8481    0.3659    1.2556 N   0  0  0  0  0  0  0  0  0  0  0  0
   -4.1170   -0.8077    1.5077 O   0  0  0  0  0  0  0  0  0  0  0  0
   -4.6482    1.2988    1.3102 O   0  0  0  0  0  0  0  0  0  0  0  0
    5.9624    1.8434   -2.7200 N   0  0  0  0  0  0  0  0  0  0  0  0
    6.6081    1.3524   -1.9695 N   0  0  0  0  0  0  0  0  0  0  0  0
    3.4182    0.4756    0.6427 B   0  0  0  0  0  0  0  0  0  0  0  0
    2.9853   -0.7316    0.3109 F   0  0  0  0  0  0  0  0  0  0  0  0
    3.1668    0.9501    1.8467 F   0  0  0  0  0  0  0  0  0  0  0  0
    4.1642    1.1591   -0.2020 F   0  0  0  0  0  0  0  0  0  0  0  0
    1.3649    1.5484   -0.2506 F   0  0  0  0  0  0  0  0  0  0  0  0
  1  6  1  0  0  0  0
  1  7  1  0  0  0  0
  2  1  2  0  0  0  0
  3  4  2  0  0  0  0
  3  2  1  0  0  0  0
  4  5  1  0  0  0  0
  5 10  1  0  0  0  0
  5  6  2  0  0  0  0
  6 11  1  0  0  0  0
  8  2  1  0  0  0  0
  9  4  1  0  0  0  0
 11 13  2  0  0  0  0
 11 12  2  0  0  0  0
 14 15  3  0  0  0  0
 16 18  1  0  0  0  0
 17 16  1  0  0  0  0
 19 16  1  0  0  0  0
 20  3  1  0  0  0  0
M  END
