Coordinates from ORCA-job 4-NO2-Ph-N2-BF4-B3LYPG-6-31G_dp-MTMO-d009-169-n800
 OpenBabel09051908343D

 20 18  0  0  0  0  0  0  0  0999 V2000
   -1.4385   -0.3274    0.7283 C   0  0  0  0  0  0  0  0  0  0  0  0
   -0.0775   -0.1569    0.4932 C   0  0  0  0  0  0  0  0  0  0  0  0
    0.3860    1.1237    0.2093 C   0  0  0  0  0  0  0  0  0  0  0  0
   -0.4445    2.2380    0.1510 C   0  0  0  0  0  0  0  0  0  0  0  0
   -1.8046    2.0631    0.3865 C   0  0  0  0  0  0  0  0  0  0  0  0
   -2.2802    0.7833    0.6712 C   0  0  0  0  0  0  0  0  0  0  0  0
   -1.8562   -1.3001    0.9549 H   0  0  0  0  0  0  0  0  0  0  0  0
    0.6175   -0.9867    0.5299 H   0  0  0  0  0  0  0  0  0  0  0  0
   -0.0253    3.2114   -0.0762 H   0  0  0  0  0  0  0  0  0  0  0  0
   -2.4977    2.8941    0.3540 H   0  0  0  0  0  0  0  0  0  0  0  0
   -3.7177    0.5995    0.9200 N   0  0  0  0  0  0  0  0  0  0  0  0
   -4.1119   -0.5394    1.1666 O   0  0  0  0  0  0  0  0  0  0  0  0
   -4.4369    1.5963    0.8663 O   0  0  0  0  0  0  0  0  0  0  0  0
    3.9489    2.0595   -2.2771 N   0  0  0  0  0  0  0  0  0  0  0  0
    4.8931    2.2780   -2.8083 N   0  0  0  0  0  0  0  0  0  0  0  0
    3.5808    0.0840    1.0886 B   0  0  0  0  0  0  0  0  0  0  0  0
    3.0448   -1.0870    0.7780 F   0  0  0  0  0  0  0  0  0  0  0  0
    3.2691    0.6618    2.2318 F   0  0  0  0  0  0  0  0  0  0  0  0
    4.4844    0.6218    0.2938 F   0  0  0  0  0  0  0  0  0  0  0  0
    1.7098    1.3018   -0.0282 F   0  0  0  0  0  0  0  0  0  0  0  0
  1  7  1  0  0  0  0
  2  8  1  0  0  0  0
  2  1  2  0  0  0  0
  3  2  1  0  0  0  0
  4  3  2  0  0  0  0
  4  5  1  0  0  0  0
  5  6  2  0  0  0  0
  6  1  1  0  0  0  0
  6 11  1  0  0  0  0
  9  4  1  0  0  0  0
 10  5  1  0  0  0  0
 11 12  2  0  0  0  0
 13 11  2  0  0  0  0
 15 14  3  0  0  0  0
 16 18  1  0  0  0  0
 17 16  1  0  0  0  0
 19 16  1  0  0  0  0
 20  3  1  0  0  0  0
M  END
