Coordinates from ORCA-job 4-NO2-Ph-N2-BF4-B3LYPG-6-31G_dp-MTMO-d009-169-n800
 OpenBabel09051908343D

 20 18  0  0  0  0  0  0  0  0999 V2000
   -1.3929   -0.2855    0.5660 C   0  0  0  0  0  0  0  0  0  0  0  0
   -0.0904    0.1974    0.6487 C   0  0  0  0  0  0  0  0  0  0  0  0
    0.0952    1.5534    0.8984 C   0  0  0  0  0  0  0  0  0  0  0  0
   -0.9581    2.4463    1.0684 C   0  0  0  0  0  0  0  0  0  0  0  0
   -2.2591    1.9593    0.9863 C   0  0  0  0  0  0  0  0  0  0  0  0
   -2.4559    0.6014    0.7360 C   0  0  0  0  0  0  0  0  0  0  0  0
   -1.5983   -1.3307    0.3721 H   0  0  0  0  0  0  0  0  0  0  0  0
    0.7692   -0.4495    0.5224 H   0  0  0  0  0  0  0  0  0  0  0  0
   -0.7519    3.4928    1.2623 H   0  0  0  0  0  0  0  0  0  0  0  0
   -3.1171    2.6072    1.1117 H   0  0  0  0  0  0  0  0  0  0  0  0
   -3.8308    0.0881    0.6495 N   0  0  0  0  0  0  0  0  0  0  0  0
   -3.9770   -1.1133    0.4285 O   0  0  0  0  0  0  0  0  0  0  0  0
   -4.7492    0.8922    0.8039 O   0  0  0  0  0  0  0  0  0  0  0  0
    6.6831   -0.1774   -2.0144 N   0  0  0  0  0  0  0  0  0  0  0  0
    5.7531    0.1448   -1.5134 N   0  0  0  0  0  0  0  0  0  0  0  0
    3.4367    1.1218   -0.2162 B   0  0  0  0  0  0  0  0  0  0  0  0
    3.1771   -0.1019    0.2218 F   0  0  0  0  0  0  0  0  0  0  0  0
    4.2021    1.9249    0.4935 F   0  0  0  0  0  0  0  0  0  0  0  0
    2.9483    1.5146   -1.3764 F   0  0  0  0  0  0  0  0  0  0  0  0
    1.3592    2.0329    0.9842 F   0  0  0  0  0  0  0  0  0  0  0  0
  1  2  2  0  0  0  0
  1  6  1  0  0  0  0
  2  3  1  0  0  0  0
  3 20  1  0  0  0  0
  3  4  2  0  0  0  0
  4  9  1  0  0  0  0
  5  4  1  0  0  0  0
  5 10  1  0  0  0  0
  6  5  2  0  0  0  0
  7  1  1  0  0  0  0
  8  2  1  0  0  0  0
 11  6  1  0  0  0  0
 11 13  2  0  0  0  0
 12 11  2  0  0  0  0
 14 15  3  0  0  0  0
 16 17  1  0  0  0  0
 16 18  1  0  0  0  0
 19 16  1  0  0  0  0
M  END
