Coordinates from ORCA-job 4-NO2-Ph-N2-BF4-B3LYPG-6-31G_dp-MTMO-d009-169-n800
 OpenBabel09051908343D

 20 18  0  0  0  0  0  0  0  0999 V2000
   -1.1590   -0.2287    0.4429 C   0  0  0  0  0  0  0  0  0  0  0  0
    0.1984    0.0028    0.6315 C   0  0  0  0  0  0  0  0  0  0  0  0
    0.6545    1.3179    0.5863 C   0  0  0  0  0  0  0  0  0  0  0  0
   -0.2024    2.4128    0.5043 C   0  0  0  0  0  0  0  0  0  0  0  0
   -1.5588    2.1780    0.3156 C   0  0  0  0  0  0  0  0  0  0  0  0
   -2.0153    0.8600    0.2733 C   0  0  0  0  0  0  0  0  0  0  0  0
   -1.5677   -1.2313    0.4382 H   0  0  0  0  0  0  0  0  0  0  0  0
    0.9032   -0.8068    0.7741 H   0  0  0  0  0  0  0  0  0  0  0  0
    0.2024    3.4175    0.5487 H   0  0  0  0  0  0  0  0  0  0  0  0
   -2.2677    2.9897    0.2141 H   0  0  0  0  0  0  0  0  0  0  0  0
   -3.4496    0.6121    0.0722 N   0  0  0  0  0  0  0  0  0  0  0  0
   -3.8284   -0.5582    0.0542 O   0  0  0  0  0  0  0  0  0  0  0  0
   -4.1823    1.5911   -0.0668 O   0  0  0  0  0  0  0  0  0  0  0  0
    1.1966    1.3079   -1.6095 N   0  0  0  0  0  0  0  0  0  0  0  0
    2.2475    1.5368   -1.8763 N   0  0  0  0  0  0  0  0  0  0  0  0
    4.0161    0.0531    1.1197 B   0  0  0  0  0  0  0  0  0  0  0  0
    3.2590   -1.0334    1.1763 F   0  0  0  0  0  0  0  0  0  0  0  0
    4.3372    0.6841    2.2300 F   0  0  0  0  0  0  0  0  0  0  0  0
    4.4940    0.4536   -0.0406 F   0  0  0  0  0  0  0  0  0  0  0  0
    1.9654    1.5600    0.8450 F   0  0  0  0  0  0  0  0  0  0  0  0
  1  2  2  0  0  0  0
  2  8  1  0  0  0  0
  3  2  1  0  0  0  0
  3 20  1  0  0  0  0
  4  9  1  0  0  0  0
  4  3  2  0  0  0  0
  5  4  1  0  0  0  0
  6  5  2  0  0  0  0
  6  1  1  0  0  0  0
  7  1  1  0  0  0  0
 10  5  1  0  0  0  0
 11  6  1  0  0  0  0
 12 11  2  0  0  0  0
 13 11  2  0  0  0  0
 15 14  3  0  0  0  0
 16 17  1  0  0  0  0
 16 18  1  0  0  0  0
 19 16  1  0  0  0  0
M  END
