Coordinates from ORCA-job 4-NO2-Ph-N2-BF4-B3LYPG-6-31G_dp-MTMO-d009-169-n800
 OpenBabel09051908343D

 20 18  0  0  0  0  0  0  0  0999 V2000
   -1.7836   -0.2611    0.5954 C   0  0  0  0  0  0  0  0  0  0  0  0
   -0.4797    0.2205    0.5241 C   0  0  0  0  0  0  0  0  0  0  0  0
   -0.2657    1.5767    0.7479 C   0  0  0  0  0  0  0  0  0  0  0  0
   -1.2910    2.4712    1.0379 C   0  0  0  0  0  0  0  0  0  0  0  0
   -2.5932    1.9856    1.1082 C   0  0  0  0  0  0  0  0  0  0  0  0
   -2.8189    0.6272    0.8858 C   0  0  0  0  0  0  0  0  0  0  0  0
   -2.0108   -1.3065    0.4293 H   0  0  0  0  0  0  0  0  0  0  0  0
    0.3582   -0.4281    0.3003 H   0  0  0  0  0  0  0  0  0  0  0  0
   -1.0627    3.5178    1.2042 H   0  0  0  0  0  0  0  0  0  0  0  0
   -3.4302    2.6351    1.3305 H   0  0  0  0  0  0  0  0  0  0  0  0
   -4.1951    0.1153    0.9603 N   0  0  0  0  0  0  0  0  0  0  0  0
   -4.3667   -1.0865    0.7610 O   0  0  0  0  0  0  0  0  0  0  0  0
   -5.0887    0.9209    1.2175 O   0  0  0  0  0  0  0  0  0  0  0  0
    9.7689   -0.1713   -2.4378 N   0  0  0  0  0  0  0  0  0  0  0  0
    8.7263   -0.0881   -2.0804 N   0  0  0  0  0  0  0  0  0  0  0  0
    3.1797    1.0940   -0.1524 B   0  0  0  0  0  0  0  0  0  0  0  0
    2.7150   -0.1462   -0.0958 F   0  0  0  0  0  0  0  0  0  0  0  0
    3.7966    1.6087    0.8911 F   0  0  0  0  0  0  0  0  0  0  0  0
    3.0853    1.7746   -1.2766 F   0  0  0  0  0  0  0  0  0  0  0  0
    0.9995    2.0589    0.6826 F   0  0  0  0  0  0  0  0  0  0  0  0
  1  6  1  0  0  0  0
  2  1  2  0  0  0  0
  2  3  1  0  0  0  0
  3  4  2  0  0  0  0
  4  5  1  0  0  0  0
  4  9  1  0  0  0  0
  5 10  1  0  0  0  0
  6 11  1  0  0  0  0
  6  5  2  0  0  0  0
  7  1  1  0  0  0  0
  8  2  1  0  0  0  0
 11 13  2  0  0  0  0
 12 11  2  0  0  0  0
 14 15  3  0  0  0  0
 16 17  1  0  0  0  0
 16 18  1  0  0  0  0
 19 16  1  0  0  0  0
 20  3  1  0  0  0  0
M  END
