Coordinates from ORCA-job 4-NO2-Ph-N2-BF4-B3LYPG-6-31G_dp-MTMO-d009-169-n800
 OpenBabel09051908343D

 20 18  0  0  0  0  0  0  0  0999 V2000
   -1.6133   -0.2707    0.5190 C   0  0  0  0  0  0  0  0  0  0  0  0
   -0.3099    0.1959    0.3760 C   0  0  0  0  0  0  0  0  0  0  0  0
   -0.0653    1.5477    0.5976 C   0  0  0  0  0  0  0  0  0  0  0  0
   -1.0605    2.4520    0.9550 C   0  0  0  0  0  0  0  0  0  0  0  0
   -2.3625    1.9815    1.0969 C   0  0  0  0  0  0  0  0  0  0  0  0
   -2.6185    0.6280    0.8765 C   0  0  0  0  0  0  0  0  0  0  0  0
   -1.8632   -1.3116    0.3580 H   0  0  0  0  0  0  0  0  0  0  0  0
    0.5068   -0.4598    0.0997 H   0  0  0  0  0  0  0  0  0  0  0  0
   -0.8098    3.4941    1.1163 H   0  0  0  0  0  0  0  0  0  0  0  0
   -3.1768    2.6393    1.3728 H   0  0  0  0  0  0  0  0  0  0  0  0
   -3.9944    0.1328    1.0261 N   0  0  0  0  0  0  0  0  0  0  0  0
   -4.1936   -1.0643    0.8239 O   0  0  0  0  0  0  0  0  0  0  0  0
   -4.8610    0.9464    1.3441 O   0  0  0  0  0  0  0  0  0  0  0  0
    7.7763    0.2506   -1.6107 N   0  0  0  0  0  0  0  0  0  0  0  0
    6.7201    0.3607   -1.3042 N   0  0  0  0  0  0  0  0  0  0  0  0
    3.4853    0.9053   -0.3649 B   0  0  0  0  0  0  0  0  0  0  0  0
    2.9096   -0.2882   -0.3416 F   0  0  0  0  0  0  0  0  0  0  0  0
    4.1002    1.3558    0.7086 F   0  0  0  0  0  0  0  0  0  0  0  0
    3.4739    1.6131   -1.4754 F   0  0  0  0  0  0  0  0  0  0  0  0
    1.2001    2.0103    0.4596 F   0  0  0  0  0  0  0  0  0  0  0  0
  1  6  1  0  0  0  0
  2  1  2  0  0  0  0
  2  3  1  0  0  0  0
  3  4  2  0  0  0  0
  4  5  1  0  0  0  0
  4  9  1  0  0  0  0
  5 10  1  0  0  0  0
  6 11  1  0  0  0  0
  6  5  2  0  0  0  0
  7  1  1  0  0  0  0
  8  2  1  0  0  0  0
 11 13  2  0  0  0  0
 12 11  2  0  0  0  0
 14 15  3  0  0  0  0
 16 17  1  0  0  0  0
 16 18  1  0  0  0  0
 19 16  1  0  0  0  0
 20  3  1  0  0  0  0
M  END
