Coordinates from ORCA-job 4-NO2-Ph-N2-BF4-B3LYPG-6-31G_dp-MTMO-d009-169-n800
 OpenBabel09051908343D

 20 18  0  0  0  0  0  0  0  0999 V2000
   -1.9104   -0.2469    0.6320 C   0  0  0  0  0  0  0  0  0  0  0  0
   -0.6099    0.2455    0.5744 C   0  0  0  0  0  0  0  0  0  0  0  0
   -0.4094    1.6030    0.8028 C   0  0  0  0  0  0  0  0  0  0  0  0
   -1.4446    2.4886    1.0844 C   0  0  0  0  0  0  0  0  0  0  0  0
   -2.7434    1.9921    1.1411 C   0  0  0  0  0  0  0  0  0  0  0  0
   -2.9557    0.6324    0.9140 C   0  0  0  0  0  0  0  0  0  0  0  0
   -2.1274   -1.2938    0.4619 H   0  0  0  0  0  0  0  0  0  0  0  0
    0.2356   -0.3956    0.3577 H   0  0  0  0  0  0  0  0  0  0  0  0
   -1.2266    3.5367    1.2548 H   0  0  0  0  0  0  0  0  0  0  0  0
   -3.5879    2.6342    1.3565 H   0  0  0  0  0  0  0  0  0  0  0  0
   -4.3283    0.1090    0.9744 N   0  0  0  0  0  0  0  0  0  0  0  0
   -4.4880   -1.0938    0.7713 O   0  0  0  0  0  0  0  0  0  0  0  0
   -5.2310    0.9067    1.2244 O   0  0  0  0  0  0  0  0  0  0  0  0
   11.0118   -0.3810   -2.8500 N   0  0  0  0  0  0  0  0  0  0  0  0
    9.9685   -0.2996   -2.4941 N   0  0  0  0  0  0  0  0  0  0  0  0
    3.0445    1.1577   -0.0748 B   0  0  0  0  0  0  0  0  0  0  0  0
    2.5951   -0.0880   -0.0140 F   0  0  0  0  0  0  0  0  0  0  0  0
    3.6528    1.6843    0.9678 F   0  0  0  0  0  0  0  0  0  0  0  0
    2.9450    1.8320   -1.2024 F   0  0  0  0  0  0  0  0  0  0  0  0
    0.8526    2.0955    0.7509 F   0  0  0  0  0  0  0  0  0  0  0  0
  1  6  1  0  0  0  0
  2  1  2  0  0  0  0
  2  3  1  0  0  0  0
  3  4  2  0  0  0  0
  4  5  1  0  0  0  0
  4  9  1  0  0  0  0
  5 10  1  0  0  0  0
  6 11  1  0  0  0  0
  6  5  2  0  0  0  0
  7  1  1  0  0  0  0
  8  2  1  0  0  0  0
 11 13  2  0  0  0  0
 12 11  2  0  0  0  0
 14 15  3  0  0  0  0
 16 17  1  0  0  0  0
 16 18  1  0  0  0  0
 19 16  1  0  0  0  0
 20  3  1  0  0  0  0
M  END
