Coordinates from ORCA-job 4-NO2-Ph-N2-BF4-B3LYPG-6-31G_dp-MTMO-d009-169-n800
 OpenBabel09051908343D

 20 18  0  0  0  0  0  0  0  0999 V2000
   -1.3947   -0.2960    0.6853 C   0  0  0  0  0  0  0  0  0  0  0  0
   -0.0193   -0.0935    0.6184 C   0  0  0  0  0  0  0  0  0  0  0  0
    0.4468    1.2051    0.4403 C   0  0  0  0  0  0  0  0  0  0  0  0
   -0.3953    2.3064    0.3252 C   0  0  0  0  0  0  0  0  0  0  0  0
   -1.7695    2.0996    0.3926 C   0  0  0  0  0  0  0  0  0  0  0  0
   -2.2477    0.8017    0.5718 C   0  0  0  0  0  0  0  0  0  0  0  0
   -1.8148   -1.2841    0.8239 H   0  0  0  0  0  0  0  0  0  0  0  0
    0.6839   -0.9127    0.7028 H   0  0  0  0  0  0  0  0  0  0  0  0
    0.0266    3.2950    0.1857 H   0  0  0  0  0  0  0  0  0  0  0  0
   -2.4715    2.9193    0.3096 H   0  0  0  0  0  0  0  0  0  0  0  0
   -3.7001    0.5844    0.6445 N   0  0  0  0  0  0  0  0  0  0  0  0
   -4.0964   -0.5696    0.8009 O   0  0  0  0  0  0  0  0  0  0  0  0
   -4.4288    1.5708    0.5446 O   0  0  0  0  0  0  0  0  0  0  0  0
    3.3888    1.9131   -2.2725 N   0  0  0  0  0  0  0  0  0  0  0  0
    4.2115    2.0776   -2.9917 N   0  0  0  0  0  0  0  0  0  0  0  0
    3.7457    0.0355    1.1145 B   0  0  0  0  0  0  0  0  0  0  0  0
    3.0892   -1.0938    0.8926 F   0  0  0  0  0  0  0  0  0  0  0  0
    3.7046    0.5917    2.3082 F   0  0  0  0  0  0  0  0  0  0  0  0
    4.4999    0.5509    0.1641 F   0  0  0  0  0  0  0  0  0  0  0  0
    1.7843    1.4174    0.3725 F   0  0  0  0  0  0  0  0  0  0  0  0
  1  7  1  0  0  0  0
  2  1  1  0  0  0  0
  2  8  1  0  0  0  0
  3  2  2  0  0  0  0
  4  5  2  0  0  0  0
  4  3  1  0  0  0  0
  5  6  1  0  0  0  0
  6 11  1  0  0  0  0
  6  1  2  0  0  0  0
  9  4  1  0  0  0  0
 10  5  1  0  0  0  0
 11 12  2  0  0  0  0
 13 11  2  0  0  0  0
 15 14  3  0  0  0  0
 16 18  1  0  0  0  0
 17 16  1  0  0  0  0
 19 16  1  0  0  0  0
 20  3  1  0  0  0  0
M  END
