Coordinates from ORCA-job 4-NO2-Ph-N2-BF4-B3LYPG-6-31G_dp-MTMO-d009-169-n800
 OpenBabel09051908343D

 20 18  0  0  0  0  0  0  0  0999 V2000
   -2.0780   -0.2257    0.6705 C   0  0  0  0  0  0  0  0  0  0  0  0
   -0.7836    0.2831    0.6184 C   0  0  0  0  0  0  0  0  0  0  0  0
   -0.5996    1.6401    0.8626 C   0  0  0  0  0  0  0  0  0  0  0  0
   -1.6455    2.5097    1.1550 C   0  0  0  0  0  0  0  0  0  0  0  0
   -2.9381    1.9967    1.2062 C   0  0  0  0  0  0  0  0  0  0  0  0
   -3.1338    0.6373    0.9631 C   0  0  0  0  0  0  0  0  0  0  0  0
   -2.2823   -1.2731    0.4882 H   0  0  0  0  0  0  0  0  0  0  0  0
    0.0694   -0.3454    0.3942 H   0  0  0  0  0  0  0  0  0  0  0  0
   -1.4402    3.5582    1.3376 H   0  0  0  0  0  0  0  0  0  0  0  0
   -3.7903    2.6258    1.4294 H   0  0  0  0  0  0  0  0  0  0  0  0
   -4.4999    0.0965    1.0177 N   0  0  0  0  0  0  0  0  0  0  0  0
   -4.6450   -1.1056    0.8000 O   0  0  0  0  0  0  0  0  0  0  0  0
   -5.4121    0.8799    1.2778 O   0  0  0  0  0  0  0  0  0  0  0  0
   12.6571   -0.6716   -3.3358 N   0  0  0  0  0  0  0  0  0  0  0  0
   11.6118   -0.5785   -2.9890 N   0  0  0  0  0  0  0  0  0  0  0  0
    2.8591    1.2467   -0.0137 B   0  0  0  0  0  0  0  0  0  0  0  0
    2.4289   -0.0057    0.0477 F   0  0  0  0  0  0  0  0  0  0  0  0
    3.4615    1.7821    1.0278 F   0  0  0  0  0  0  0  0  0  0  0  0
    2.7478    1.9195   -1.1410 F   0  0  0  0  0  0  0  0  0  0  0  0
    0.6562    2.1488    0.8164 F   0  0  0  0  0  0  0  0  0  0  0  0
  1  6  1  0  0  0  0
  2  1  2  0  0  0  0
  2  3  1  0  0  0  0
  3  4  2  0  0  0  0
  4  5  1  0  0  0  0
  4  9  1  0  0  0  0
  5 10  1  0  0  0  0
  6 11  1  0  0  0  0
  6  5  2  0  0  0  0
  7  1  1  0  0  0  0
  8  2  1  0  0  0  0
 11 13  2  0  0  0  0
 12 11  2  0  0  0  0
 14 15  3  0  0  0  0
 16 17  1  0  0  0  0
 16 18  1  0  0  0  0
 19 16  1  0  0  0  0
 20  3  1  0  0  0  0
M  END
