Coordinates from ORCA-job 4-NO2-Ph-N2-BF4-B3LYPG-6-31G_dp-MTMO-d009-169-n800
 OpenBabel09051908343D

 20 18  0  0  0  0  0  0  0  0999 V2000
   -1.9968   -0.2361    0.6529 C   0  0  0  0  0  0  0  0  0  0  0  0
   -0.6992    0.2645    0.5991 C   0  0  0  0  0  0  0  0  0  0  0  0
   -0.5072    1.6220    0.8341 C   0  0  0  0  0  0  0  0  0  0  0  0
   -1.5482    2.4999    1.1189 C   0  0  0  0  0  0  0  0  0  0  0  0
   -2.8440    1.9953    1.1719 C   0  0  0  0  0  0  0  0  0  0  0  0
   -3.0477    0.6354    0.9380 C   0  0  0  0  0  0  0  0  0  0  0  0
   -2.2072   -1.2835    0.4776 H   0  0  0  0  0  0  0  0  0  0  0  0
    0.1502   -0.3707    0.3803 H   0  0  0  0  0  0  0  0  0  0  0  0
   -1.3367    3.5485    1.2946 H   0  0  0  0  0  0  0  0  0  0  0  0
   -3.6926    2.6311    1.3896 H   0  0  0  0  0  0  0  0  0  0  0  0
   -4.4172    0.1033    0.9945 N   0  0  0  0  0  0  0  0  0  0  0  0
   -4.5693   -1.0994    0.7853 O   0  0  0  0  0  0  0  0  0  0  0  0
   -5.3249    0.8942    1.2476 O   0  0  0  0  0  0  0  0  0  0  0  0
   11.8586   -0.5285   -3.1061 N   0  0  0  0  0  0  0  0  0  0  0  0
   10.8143   -0.4413   -2.7547 N   0  0  0  0  0  0  0  0  0  0  0  0
    2.9498    1.2015   -0.0380 B   0  0  0  0  0  0  0  0  0  0  0  0
    2.5096   -0.0474    0.0232 F   0  0  0  0  0  0  0  0  0  0  0  0
    3.5539    1.7329    1.0046 F   0  0  0  0  0  0  0  0  0  0  0  0
    2.8463    1.8744   -1.1661 F   0  0  0  0  0  0  0  0  0  0  0  0
    0.7518    2.1227    0.7861 F   0  0  0  0  0  0  0  0  0  0  0  0
  1  6  1  0  0  0  0
  2  1  2  0  0  0  0
  2  3  1  0  0  0  0
  3  4  2  0  0  0  0
  4  5  1  0  0  0  0
  4  9  1  0  0  0  0
  5 10  1  0  0  0  0
  6 11  1  0  0  0  0
  6  5  2  0  0  0  0
  7  1  1  0  0  0  0
  8  2  1  0  0  0  0
 11 13  2  0  0  0  0
 12 11  2  0  0  0  0
 14 15  3  0  0  0  0
 16 17  1  0  0  0  0
 16 18  1  0  0  0  0
 19 16  1  0  0  0  0
 20  3  1  0  0  0  0
M  END
