Coordinates from ORCA-job 4-NO2-Ph-N2-BF4-B3LYPG-6-31G_dp-MTMO-d009-169-n800
 OpenBabel09051908343D

 20 18  0  0  0  0  0  0  0  0999 V2000
   -1.2612   -0.2982    0.6178 C   0  0  0  0  0  0  0  0  0  0  0  0
    0.0193    0.1928    0.8538 C   0  0  0  0  0  0  0  0  0  0  0  0
    0.1688    1.5546    1.0955 C   0  0  0  0  0  0  0  0  0  0  0  0
   -0.8992    2.4459    1.1100 C   0  0  0  0  0  0  0  0  0  0  0  0
   -2.1784    1.9509    0.8750 C   0  0  0  0  0  0  0  0  0  0  0  0
   -2.3391    0.5870    0.6324 C   0  0  0  0  0  0  0  0  0  0  0  0
   -1.4382   -1.3482    0.4222 H   0  0  0  0  0  0  0  0  0  0  0  0
    0.8893   -0.4523    0.8501 H   0  0  0  0  0  0  0  0  0  0  0  0
   -0.7216    3.4973    1.3053 H   0  0  0  0  0  0  0  0  0  0  0  0
   -3.0469    2.5971    0.8758 H   0  0  0  0  0  0  0  0  0  0  0  0
   -3.6910    0.0650    0.3847 N   0  0  0  0  0  0  0  0  0  0  0  0
   -3.8052   -1.1414    0.1721 O   0  0  0  0  0  0  0  0  0  0  0  0
   -4.6234    0.8675    0.4056 O   0  0  0  0  0  0  0  0  0  0  0  0
    5.8712   -0.4550   -2.4867 N   0  0  0  0  0  0  0  0  0  0  0  0
    5.3063    0.1182   -1.7305 N   0  0  0  0  0  0  0  0  0  0  0  0
    3.3911    1.2311   -0.0169 B   0  0  0  0  0  0  0  0  0  0  0  0
    3.3109    0.0405    0.5590 F   0  0  0  0  0  0  0  0  0  0  0  0
    4.1946    2.1493    0.4788 F   0  0  0  0  0  0  0  0  0  0  0  0
    2.6856    1.4754   -1.1054 F   0  0  0  0  0  0  0  0  0  0  0  0
    1.4105    2.0415    1.3345 F   0  0  0  0  0  0  0  0  0  0  0  0
  1  6  2  0  0  0  0
  1  2  1  0  0  0  0
  2  3  2  0  0  0  0
  3  4  1  0  0  0  0
  3 20  1  0  0  0  0
  4  9  1  0  0  0  0
  5 10  1  0  0  0  0
  5  4  2  0  0  0  0
  6  5  1  0  0  0  0
  7  1  1  0  0  0  0
  8  2  1  0  0  0  0
 11 13  2  0  0  0  0
 11  6  1  0  0  0  0
 12 11  2  0  0  0  0
 14 15  3  0  0  0  0
 16 18  1  0  0  0  0
 16 17  1  0  0  0  0
 19 16  1  0  0  0  0
M  END
