Coordinates from ORCA-job 4-NO2-Ph-N2-BF4-B3LYPG-6-31G_dp-MTMO-d009-169-n800
 OpenBabel09051908343D

 20 18  0  0  0  0  0  0  0  0999 V2000
   -2.0828   -0.2250    0.6713 C   0  0  0  0  0  0  0  0  0  0  0  0
   -0.7887    0.2847    0.6194 C   0  0  0  0  0  0  0  0  0  0  0  0
   -0.6054    1.6417    0.8646 C   0  0  0  0  0  0  0  0  0  0  0  0
   -1.6519    2.5103    1.1577 C   0  0  0  0  0  0  0  0  0  0  0  0
   -2.9442    1.9965    1.2087 C   0  0  0  0  0  0  0  0  0  0  0  0
   -3.1391    0.6371    0.9647 C   0  0  0  0  0  0  0  0  0  0  0  0
   -2.2864   -1.2724    0.4883 H   0  0  0  0  0  0  0  0  0  0  0  0
    0.0646   -0.3432    0.3947 H   0  0  0  0  0  0  0  0  0  0  0  0
   -1.4472    3.5588    1.3411 H   0  0  0  0  0  0  0  0  0  0  0  0
   -3.7967    2.6249    1.4325 H   0  0  0  0  0  0  0  0  0  0  0  0
   -4.5049    0.0954    1.0190 N   0  0  0  0  0  0  0  0  0  0  0  0
   -4.6492   -1.1066    0.8004 O   0  0  0  0  0  0  0  0  0  0  0  0
   -5.4175    0.8781    1.2798 O   0  0  0  0  0  0  0  0  0  0  0  0
   12.7078   -0.6823   -3.3503 N   0  0  0  0  0  0  0  0  0  0  0  0
   11.6625   -0.5885   -3.0037 N   0  0  0  0  0  0  0  0  0  0  0  0
    2.8529    1.2505   -0.0123 B   0  0  0  0  0  0  0  0  0  0  0  0
    2.4236   -0.0021    0.0493 F   0  0  0  0  0  0  0  0  0  0  0  0
    3.4554    1.7864    1.0290 F   0  0  0  0  0  0  0  0  0  0  0  0
    2.7406    1.9233   -1.1396 F   0  0  0  0  0  0  0  0  0  0  0  0
    0.6499    2.1513    0.8186 F   0  0  0  0  0  0  0  0  0  0  0  0
  1  6  1  0  0  0  0
  2  1  2  0  0  0  0
  2  3  1  0  0  0  0
  3  4  2  0  0  0  0
  4  5  1  0  0  0  0
  4  9  1  0  0  0  0
  5 10  1  0  0  0  0
  6 11  1  0  0  0  0
  6  5  2  0  0  0  0
  7  1  1  0  0  0  0
  8  2  1  0  0  0  0
 11 13  2  0  0  0  0
 12 11  2  0  0  0  0
 14 15  3  0  0  0  0
 16 17  1  0  0  0  0
 16 18  1  0  0  0  0
 19 16  1  0  0  0  0
 20  3  1  0  0  0  0
M  END
