Coordinates from ORCA-job 4-NO2-Ph-N2-BF4-B3LYPG-6-31G_dp-MTMO-d009-169-n800
 OpenBabel09051908343D

 20 18  0  0  0  0  0  0  0  0999 V2000
   -2.1094   -0.1929    0.5717 C   0  0  0  0  0  0  0  0  0  0  0  0
   -0.9005    0.4970    0.5790 C   0  0  0  0  0  0  0  0  0  0  0  0
   -0.9011    1.8214    1.0047 C   0  0  0  0  0  0  0  0  0  0  0  0
   -2.0500    2.4865    1.4212 C   0  0  0  0  0  0  0  0  0  0  0  0
   -3.2564    1.7930    1.4124 C   0  0  0  0  0  0  0  0  0  0  0  0
   -3.2670    0.4643    0.9880 C   0  0  0  0  0  0  0  0  0  0  0  0
   -2.1698   -1.2247    0.2504 H   0  0  0  0  0  0  0  0  0  0  0  0
    0.0251    0.0317    0.2638 H   0  0  0  0  0  0  0  0  0  0  0  0
   -1.9886    3.5195    1.7428 H   0  0  0  0  0  0  0  0  0  0  0  0
   -4.1815    2.2590    1.7262 H   0  0  0  0  0  0  0  0  0  0  0  0
   -4.5423   -0.2678    0.9790 N   0  0  0  0  0  0  0  0  0  0  0  0
   -4.5242   -1.4382    0.6009 O   0  0  0  0  0  0  0  0  0  0  0  0
   -5.5476    0.3367    1.3499 O   0  0  0  0  0  0  0  0  0  0  0  0
   14.5614   -1.9031   -3.9536 N   0  0  0  0  0  0  0  0  0  0  0  0
   13.5364   -1.7116   -3.5873 N   0  0  0  0  0  0  0  0  0  0  0  0
    2.5553    2.0435    0.0740 B   0  0  0  0  0  0  0  0  0  0  0  0
    2.3017    0.7481   -0.0481 F   0  0  0  0  0  0  0  0  0  0  0  0
    3.1051    2.5005    1.1800 F   0  0  0  0  0  0  0  0  0  0  0  0
    2.3268    2.8509   -0.9417 F   0  0  0  0  0  0  0  0  0  0  0  0
    0.2698    2.5050    1.0198 F   0  0  0  0  0  0  0  0  0  0  0  0
  1  2  2  0  0  0  0
  1  6  1  0  0  0  0
  2  3  1  0  0  0  0
  3 20  1  0  0  0  0
  3  4  2  0  0  0  0
  4  9  1  0  0  0  0
  5  4  1  0  0  0  0
  5 10  1  0  0  0  0
  6  5  2  0  0  0  0
  7  1  1  0  0  0  0
  8  2  1  0  0  0  0
 11  6  1  0  0  0  0
 11 13  2  0  0  0  0
 12 11  2  0  0  0  0
 14 15  3  0  0  0  0
 16 18  1  0  0  0  0
 17 16  1  0  0  0  0
 19 16  1  0  0  0  0
M  END
