Coordinates from ORCA-job 4-NO2-Ph-N2-BF4-B3LYPG-6-31G_dp-MTMO-d009-169-n800
 OpenBabel09051908343D

 20 18  0  0  0  0  0  0  0  0999 V2000
   -2.0695   -0.2013    0.5651 C   0  0  0  0  0  0  0  0  0  0  0  0
   -0.8607    0.4887    0.5795 C   0  0  0  0  0  0  0  0  0  0  0  0
   -0.8646    1.8143    1.0017 C   0  0  0  0  0  0  0  0  0  0  0  0
   -2.0163    2.4806    1.4080 C   0  0  0  0  0  0  0  0  0  0  0  0
   -3.2225    1.7868    1.3922 C   0  0  0  0  0  0  0  0  0  0  0  0
   -3.2300    0.4571    0.9713 C   0  0  0  0  0  0  0  0  0  0  0  0
   -2.1277   -1.2340    0.2462 H   0  0  0  0  0  0  0  0  0  0  0  0
    0.0674    0.0229    0.2725 H   0  0  0  0  0  0  0  0  0  0  0  0
   -1.9573    3.5144    1.7273 H   0  0  0  0  0  0  0  0  0  0  0  0
   -4.1499    2.2536    1.6981 H   0  0  0  0  0  0  0  0  0  0  0  0
   -4.5053   -0.2750    0.9548 N   0  0  0  0  0  0  0  0  0  0  0  0
   -4.4845   -1.4463    0.5797 O   0  0  0  0  0  0  0  0  0  0  0  0
   -5.5133    0.3304    1.3171 O   0  0  0  0  0  0  0  0  0  0  0  0
   14.2302   -1.8486   -3.8711 N   0  0  0  0  0  0  0  0  0  0  0  0
   13.2058   -1.6477   -3.5080 N   0  0  0  0  0  0  0  0  0  0  0  0
    2.5919    2.0391    0.0768 B   0  0  0  0  0  0  0  0  0  0  0  0
    2.3501    0.7391   -0.0177 F   0  0  0  0  0  0  0  0  0  0  0  0
    3.1411    2.5241    1.1711 F   0  0  0  0  0  0  0  0  0  0  0  0
    2.3521    2.8231   -0.9546 F   0  0  0  0  0  0  0  0  0  0  0  0
    0.3064    2.4975    1.0231 F   0  0  0  0  0  0  0  0  0  0  0  0
  1  2  2  0  0  0  0
  1  6  1  0  0  0  0
  2  3  1  0  0  0  0
  3 20  1  0  0  0  0
  3  4  2  0  0  0  0
  4  9  1  0  0  0  0
  5  4  1  0  0  0  0
  5 10  1  0  0  0  0
  6  5  2  0  0  0  0
  7  1  1  0  0  0  0
  8  2  1  0  0  0  0
 11  6  1  0  0  0  0
 11 13  2  0  0  0  0
 12 11  2  0  0  0  0
 14 15  3  0  0  0  0
 16 18  1  0  0  0  0
 17 16  1  0  0  0  0
 19 16  1  0  0  0  0
M  END
