Coordinates from ORCA-job 4-NO2-Ph-N2-BF4-B3LYPG-6-31G_dp-MTMO-d009-169-n800
 OpenBabel09051908343D

 20 18  0  0  0  0  0  0  0  0999 V2000
   -2.1557   -0.2138    0.6820 C   0  0  0  0  0  0  0  0  0  0  0  0
   -0.8675    0.3112    0.6336 C   0  0  0  0  0  0  0  0  0  0  0  0
   -0.6992    1.6666    0.8966 C   0  0  0  0  0  0  0  0  0  0  0  0
   -1.7547    2.5191    1.2042 C   0  0  0  0  0  0  0  0  0  0  0  0
   -3.0409    1.9901    1.2519 C   0  0  0  0  0  0  0  0  0  0  0  0
   -3.2209    0.6320    0.9899 C   0  0  0  0  0  0  0  0  0  0  0  0
   -2.3477   -1.2609    0.4853 H   0  0  0  0  0  0  0  0  0  0  0  0
   -0.0082   -0.3045    0.3982 H   0  0  0  0  0  0  0  0  0  0  0  0
   -1.5612    3.5674    1.4012 H   0  0  0  0  0  0  0  0  0  0  0  0
   -3.8998    2.6058    1.4865 H   0  0  0  0  0  0  0  0  0  0  0  0
   -4.5803    0.0739    1.0404 N   0  0  0  0  0  0  0  0  0  0  0  0
   -4.7115   -1.1264    0.8050 O   0  0  0  0  0  0  0  0  0  0  0  0
   -5.5010    0.8424    1.3149 O   0  0  0  0  0  0  0  0  0  0  0  0
   13.4997   -0.8575   -3.5714 N   0  0  0  0  0  0  0  0  0  0  0  0
   12.4539   -0.7547   -3.2289 N   0  0  0  0  0  0  0  0  0  0  0  0
    2.7565    1.3200    0.0037 B   0  0  0  0  0  0  0  0  0  0  0  0
    2.3448    0.0616    0.0681 F   0  0  0  0  0  0  0  0  0  0  0  0
    3.3610    1.8630    1.0401 F   0  0  0  0  0  0  0  0  0  0  0  0
    2.6257    1.9917   -1.1222 F   0  0  0  0  0  0  0  0  0  0  0  0
    0.5502    2.1918    0.8542 F   0  0  0  0  0  0  0  0  0  0  0  0
  1  6  1  0  0  0  0
  2  1  2  0  0  0  0
  2  3  1  0  0  0  0
  3  4  2  0  0  0  0
  4  5  1  0  0  0  0
  4  9  1  0  0  0  0
  5 10  1  0  0  0  0
  6 11  1  0  0  0  0
  6  5  2  0  0  0  0
  7  1  1  0  0  0  0
  8  2  1  0  0  0  0
 11 13  2  0  0  0  0
 12 11  2  0  0  0  0
 14 15  3  0  0  0  0
 16 17  1  0  0  0  0
 16 18  1  0  0  0  0
 19 16  1  0  0  0  0
 20  3  1  0  0  0  0
M  END
