Coordinates from ORCA-job 4-NO2-Ph-N2-BF4-B3LYPG-6-31G_dp-MTMO-d009-169-n800
 OpenBabel09051908343D

 20 18  0  0  0  0  0  0  0  0999 V2000
   -1.1876   -0.2307    0.4974 C   0  0  0  0  0  0  0  0  0  0  0  0
    0.1531   -0.0132    0.8006 C   0  0  0  0  0  0  0  0  0  0  0  0
    0.6039    1.2997    0.8925 C   0  0  0  0  0  0  0  0  0  0  0  0
   -0.2234    2.4012    0.6992 C   0  0  0  0  0  0  0  0  0  0  0  0
   -1.5631    2.1801    0.3958 C   0  0  0  0  0  0  0  0  0  0  0  0
   -2.0244    0.8673    0.2987 C   0  0  0  0  0  0  0  0  0  0  0  0
   -1.5941   -1.2306    0.4125 H   0  0  0  0  0  0  0  0  0  0  0  0
    0.8426   -0.8321    0.9639 H   0  0  0  0  0  0  0  0  0  0  0  0
    0.1831    3.4022    0.7874 H   0  0  0  0  0  0  0  0  0  0  0  0
   -2.2517    2.9994    0.2336 H   0  0  0  0  0  0  0  0  0  0  0  0
   -3.4395    0.6341   -0.0234 N   0  0  0  0  0  0  0  0  0  0  0  0
   -3.8219   -0.5328   -0.0978 O   0  0  0  0  0  0  0  0  0  0  0  0
   -4.1532    1.6208   -0.1995 O   0  0  0  0  0  0  0  0  0  0  0  0
    1.9913    1.4524   -1.7659 N   0  0  0  0  0  0  0  0  0  0  0  0
    1.8841    1.4002   -2.8647 N   0  0  0  0  0  0  0  0  0  0  0  0
    3.9711    0.0590    1.1013 B   0  0  0  0  0  0  0  0  0  0  0  0
    3.2341   -1.0338    1.2366 F   0  0  0  0  0  0  0  0  0  0  0  0
    4.4148    0.6868    2.1702 F   0  0  0  0  0  0  0  0  0  0  0  0
    4.3209    0.4637   -0.1039 F   0  0  0  0  0  0  0  0  0  0  0  0
    1.9033    1.5253    1.1986 F   0  0  0  0  0  0  0  0  0  0  0  0
  1  2  2  0  0  0  0
  2  3  1  0  0  0  0
  2  8  1  0  0  0  0
  3 20  1  0  0  0  0
  4  9  1  0  0  0  0
  4  3  2  0  0  0  0
  5  4  1  0  0  0  0
  6  5  2  0  0  0  0
  6  1  1  0  0  0  0
  7  1  1  0  0  0  0
 10  5  1  0  0  0  0
 11  6  1  0  0  0  0
 12 11  2  0  0  0  0
 13 11  2  0  0  0  0
 15 14  3  0  0  0  0
 16 17  1  0  0  0  0
 16 18  1  0  0  0  0
 19 16  1  0  0  0  0
M  END
