Coordinates from ORCA-job 4-NO2-Ph-N2-BF4-B3LYPG-6-31G_dp-MTMO-d009-169-n800
 OpenBabel09051908343D

 20 18  0  0  0  0  0  0  0  0999 V2000
   -1.2355   -0.2416    0.5389 C   0  0  0  0  0  0  0  0  0  0  0  0
    0.1144   -0.0210    0.7959 C   0  0  0  0  0  0  0  0  0  0  0  0
    0.5670    1.2929    0.8586 C   0  0  0  0  0  0  0  0  0  0  0  0
   -0.2653    2.3925    0.6764 C   0  0  0  0  0  0  0  0  0  0  0  0
   -1.6141    2.1680    0.4195 C   0  0  0  0  0  0  0  0  0  0  0  0
   -2.0781    0.8543    0.3541 C   0  0  0  0  0  0  0  0  0  0  0  0
   -1.6442   -1.2424    0.4787 H   0  0  0  0  0  0  0  0  0  0  0  0
    0.8091   -0.8379    0.9464 H   0  0  0  0  0  0  0  0  0  0  0  0
    0.1444    3.3942    0.7372 H   0  0  0  0  0  0  0  0  0  0  0  0
   -2.3074    2.9855    0.2686 H   0  0  0  0  0  0  0  0  0  0  0  0
   -3.5029    0.6177    0.0803 N   0  0  0  0  0  0  0  0  0  0  0  0
   -3.8876   -0.5498    0.0321 O   0  0  0  0  0  0  0  0  0  0  0  0
   -4.2221    1.6025   -0.0842 O   0  0  0  0  0  0  0  0  0  0  0  0
    2.2383    1.5288   -1.9572 N   0  0  0  0  0  0  0  0  0  0  0  0
    2.4479    1.5238   -3.0423 N   0  0  0  0  0  0  0  0  0  0  0  0
    3.9362    0.0474    1.1044 B   0  0  0  0  0  0  0  0  0  0  0  0
    3.1951   -1.0449    1.2201 F   0  0  0  0  0  0  0  0  0  0  0  0
    4.3478    0.6778    2.1846 F   0  0  0  0  0  0  0  0  0  0  0  0
    4.3226    0.4486   -0.0909 F   0  0  0  0  0  0  0  0  0  0  0  0
    1.8779    1.5224    1.1120 F   0  0  0  0  0  0  0  0  0  0  0  0
  1  2  2  0  0  0  0
  2  3  1  0  0  0  0
  2  8  1  0  0  0  0
  3 20  1  0  0  0  0
  4  9  1  0  0  0  0
  4  3  2  0  0  0  0
  5  4  1  0  0  0  0
  6  5  2  0  0  0  0
  6  1  1  0  0  0  0
  7  1  1  0  0  0  0
 10  5  1  0  0  0  0
 11  6  1  0  0  0  0
 12 11  2  0  0  0  0
 13 11  2  0  0  0  0
 15 14  3  0  0  0  0
 16 17  1  0  0  0  0
 16 18  1  0  0  0  0
 19 16  1  0  0  0  0
M  END
