Coordinates from ORCA-job 4-NO2-Ph-N2-BF4-B3LYPG-6-31G_dp-MTMO-d009-169-n800
 OpenBabel09051908343D

 20 18  0  0  0  0  0  0  0  0999 V2000
   -2.1644   -0.2136    0.6834 C   0  0  0  0  0  0  0  0  0  0  0  0
   -0.8761    0.3109    0.6344 C   0  0  0  0  0  0  0  0  0  0  0  0
   -0.7068    1.6661    0.8983 C   0  0  0  0  0  0  0  0  0  0  0  0
   -1.7618    2.5188    1.2074 C   0  0  0  0  0  0  0  0  0  0  0  0
   -3.0481    1.9903    1.2557 C   0  0  0  0  0  0  0  0  0  0  0  0
   -3.2290    0.6325    0.9928 C   0  0  0  0  0  0  0  0  0  0  0  0
   -2.3572   -1.2604    0.4861 H   0  0  0  0  0  0  0  0  0  0  0  0
   -0.0171   -0.3048    0.3980 H   0  0  0  0  0  0  0  0  0  0  0  0
   -1.5678    3.5668    1.4050 H   0  0  0  0  0  0  0  0  0  0  0  0
   -3.9066    2.6061    1.4914 H   0  0  0  0  0  0  0  0  0  0  0  0
   -4.5886    0.0749    1.0440 N   0  0  0  0  0  0  0  0  0  0  0  0
   -4.7205   -1.1252    0.8079 O   0  0  0  0  0  0  0  0  0  0  0  0
   -5.5088    0.8436    1.3198 O   0  0  0  0  0  0  0  0  0  0  0  0
   13.5695   -0.8683   -3.5887 N   0  0  0  0  0  0  0  0  0  0  0  0
   12.5235   -0.7654   -3.2468 N   0  0  0  0  0  0  0  0  0  0  0  0
    2.7497    1.3248    0.0035 B   0  0  0  0  0  0  0  0  0  0  0  0
    2.3402    0.0658    0.0682 F   0  0  0  0  0  0  0  0  0  0  0  0
    3.3538    1.8691    1.0395 F   0  0  0  0  0  0  0  0  0  0  0  0
    2.6167    1.9965   -1.1223 F   0  0  0  0  0  0  0  0  0  0  0  0
    0.5428    2.1904    0.8554 F   0  0  0  0  0  0  0  0  0  0  0  0
  1  6  1  0  0  0  0
  2  1  2  0  0  0  0
  2  3  1  0  0  0  0
  3  4  2  0  0  0  0
  4  5  1  0  0  0  0
  4  9  1  0  0  0  0
  5 10  1  0  0  0  0
  6 11  1  0  0  0  0
  6  5  2  0  0  0  0
  7  1  1  0  0  0  0
  8  2  1  0  0  0  0
 11 13  2  0  0  0  0
 12 11  2  0  0  0  0
 14 15  3  0  0  0  0
 16 17  1  0  0  0  0
 16 18  1  0  0  0  0
 19 16  1  0  0  0  0
 20  3  1  0  0  0  0
M  END
