Coordinates from ORCA-job 4-NO2-Ph-N2-BF4-B3LYPG-6-31G_dp-MTMO-d009-169-n800
 OpenBabel09051908343D

 20 18  0  0  0  0  0  0  0  0999 V2000
   -1.4477   -0.3314    0.7339 C   0  0  0  0  0  0  0  0  0  0  0  0
   -0.0893   -0.1619    0.4834 C   0  0  0  0  0  0  0  0  0  0  0  0
    0.3718    1.1179    0.1923 C   0  0  0  0  0  0  0  0  0  0  0  0
   -0.4587    2.2326    0.1418 C   0  0  0  0  0  0  0  0  0  0  0  0
   -1.8162    2.0588    0.3927 C   0  0  0  0  0  0  0  0  0  0  0  0
   -2.2894    0.7797    0.6845 C   0  0  0  0  0  0  0  0  0  0  0  0
   -1.8633   -1.3035    0.9666 H   0  0  0  0  0  0  0  0  0  0  0  0
    0.6057   -0.9920    0.5138 H   0  0  0  0  0  0  0  0  0  0  0  0
   -0.0416    3.2054   -0.0914 H   0  0  0  0  0  0  0  0  0  0  0  0
   -2.5091    2.8902    0.3667 H   0  0  0  0  0  0  0  0  0  0  0  0
   -3.7241    0.5970    0.9493 N   0  0  0  0  0  0  0  0  0  0  0  0
   -4.1161   -0.5413    1.2021 O   0  0  0  0  0  0  0  0  0  0  0  0
   -4.4433    1.5941    0.9018 O   0  0  0  0  0  0  0  0  0  0  0  0
    4.0550    2.0694   -2.2939 N   0  0  0  0  0  0  0  0  0  0  0  0
    5.0128    2.2868   -2.8006 N   0  0  0  0  0  0  0  0  0  0  0  0
    3.5620    0.0944    1.0780 B   0  0  0  0  0  0  0  0  0  0  0  0
    3.0383   -1.0810    0.7636 F   0  0  0  0  0  0  0  0  0  0  0  0
    3.2322    0.6723    2.2161 F   0  0  0  0  0  0  0  0  0  0  0  0
    4.4712    0.6372    0.2931 F   0  0  0  0  0  0  0  0  0  0  0  0
    1.6930    1.2944   -0.0607 F   0  0  0  0  0  0  0  0  0  0  0  0
  1  7  1  0  0  0  0
  2  8  1  0  0  0  0
  2  1  2  0  0  0  0
  3  2  1  0  0  0  0
  4  3  2  0  0  0  0
  4  5  1  0  0  0  0
  5  6  2  0  0  0  0
  6  1  1  0  0  0  0
  6 11  1  0  0  0  0
  9  4  1  0  0  0  0
 10  5  1  0  0  0  0
 11 12  2  0  0  0  0
 13 11  2  0  0  0  0
 15 14  3  0  0  0  0
 16 18  1  0  0  0  0
 17 16  1  0  0  0  0
 19 16  1  0  0  0  0
 20  3  1  0  0  0  0
M  END
