Coordinates from ORCA-job 4-NO2-Ph-N2-BF4-B3LYPG-6-31G_dp-MTMO-d009-169-n800
 OpenBabel09051908343D

 20 18  0  0  0  0  0  0  0  0999 V2000
   -1.4372   -0.3270    0.7268 C   0  0  0  0  0  0  0  0  0  0  0  0
   -0.0757   -0.1566    0.4938 C   0  0  0  0  0  0  0  0  0  0  0  0
    0.3882    1.1240    0.2111 C   0  0  0  0  0  0  0  0  0  0  0  0
   -0.4416    2.2386    0.1519 C   0  0  0  0  0  0  0  0  0  0  0  0
   -1.8022    2.0638    0.3853 C   0  0  0  0  0  0  0  0  0  0  0  0
   -2.2785    0.7840    0.6689 C   0  0  0  0  0  0  0  0  0  0  0  0
   -1.8554   -1.2997    0.9524 H   0  0  0  0  0  0  0  0  0  0  0  0
    0.6193   -0.9864    0.5313 H   0  0  0  0  0  0  0  0  0  0  0  0
   -0.0219    3.2120   -0.0743 H   0  0  0  0  0  0  0  0  0  0  0  0
   -2.4951    2.8949    0.3521 H   0  0  0  0  0  0  0  0  0  0  0  0
   -3.7164    0.6005    0.9155 N   0  0  0  0  0  0  0  0  0  0  0  0
   -4.1112   -0.5384    1.1611 O   0  0  0  0  0  0  0  0  0  0  0  0
   -4.4352    1.5975    0.8612 O   0  0  0  0  0  0  0  0  0  0  0  0
    3.9297    2.0569   -2.2715 N   0  0  0  0  0  0  0  0  0  0  0  0
    4.8710    2.2761   -2.8073 N   0  0  0  0  0  0  0  0  0  0  0  0
    3.5842    0.0831    1.0903 B   0  0  0  0  0  0  0  0  0  0  0  0
    3.0475   -1.0878    0.7809 F   0  0  0  0  0  0  0  0  0  0  0  0
    3.2753    0.6609    2.2342 F   0  0  0  0  0  0  0  0  0  0  0  0
    4.4859    0.6210    0.2934 F   0  0  0  0  0  0  0  0  0  0  0  0
    1.7125    1.3017   -0.0241 F   0  0  0  0  0  0  0  0  0  0  0  0
  1  7  1  0  0  0  0
  2  8  1  0  0  0  0
  2  1  2  0  0  0  0
  3  2  1  0  0  0  0
  4  3  2  0  0  0  0
  4  5  1  0  0  0  0
  5  6  2  0  0  0  0
  6  1  1  0  0  0  0
  6 11  1  0  0  0  0
  9  4  1  0  0  0  0
 10  5  1  0  0  0  0
 11 12  2  0  0  0  0
 13 11  2  0  0  0  0
 15 14  3  0  0  0  0
 16 18  1  0  0  0  0
 17 16  1  0  0  0  0
 19 16  1  0  0  0  0
 20  3  1  0  0  0  0
M  END
