Coordinates from ORCA-job 4-NO2-Ph-N2-BF4-B3LYPG-6-31G_dp-MTMO-d009-169-n800
 OpenBabel09051908343D

 20 18  0  0  0  0  0  0  0  0999 V2000
   -1.5550   -0.3555    0.8681 C   0  0  0  0  0  0  0  0  0  0  0  0
   -0.2317   -0.1700    0.4789 C   0  0  0  0  0  0  0  0  0  0  0  0
    0.1641    1.1018    0.0784 C   0  0  0  0  0  0  0  0  0  0  0  0
   -0.6963    2.1941    0.0506 C   0  0  0  0  0  0  0  0  0  0  0  0
   -2.0188    2.0041    0.4399 C   0  0  0  0  0  0  0  0  0  0  0  0
   -2.4270    0.7327    0.8422 C   0  0  0  0  0  0  0  0  0  0  0  0
   -1.9204   -1.3222    1.1902 H   0  0  0  0  0  0  0  0  0  0  0  0
    0.4854   -0.9819    0.4845 H   0  0  0  0  0  0  0  0  0  0  0  0
   -0.3298    3.1619   -0.2714 H   0  0  0  0  0  0  0  0  0  0  0  0
   -2.7334    2.8174    0.4378 H   0  0  0  0  0  0  0  0  0  0  0  0
   -3.8250    0.5330    1.2525 N   0  0  0  0  0  0  0  0  0  0  0  0
   -4.1600   -0.5985    1.5997 O   0  0  0  0  0  0  0  0  0  0  0  0
   -4.5729    1.5092    1.2196 O   0  0  0  0  0  0  0  0  0  0  0  0
    5.4115    2.3961   -2.4013 N   0  0  0  0  0  0  0  0  0  0  0  0
    6.4394    2.0155   -2.2606 N   0  0  0  0  0  0  0  0  0  0  0  0
    3.4256    0.2097    0.7247 B   0  0  0  0  0  0  0  0  0  0  0  0
    2.9446   -0.9985    0.4729 F   0  0  0  0  0  0  0  0  0  0  0  0
    3.1536    0.7933    1.8752 F   0  0  0  0  0  0  0  0  0  0  0  0
    4.2393    0.7839   -0.1387 F   0  0  0  0  0  0  0  0  0  0  0  0
    1.4501    1.2927   -0.3098 F   0  0  0  0  0  0  0  0  0  0  0  0
  1  7  1  0  0  0  0
  2  8  1  0  0  0  0
  2  1  2  0  0  0  0
  3  2  1  0  0  0  0
  4  3  2  0  0  0  0
  4  5  1  0  0  0  0
  5  6  2  0  0  0  0
  6  1  1  0  0  0  0
  6 11  1  0  0  0  0
  9  4  1  0  0  0  0
 10  5  1  0  0  0  0
 11 12  2  0  0  0  0
 13 11  2  0  0  0  0
 14 15  3  0  0  0  0
 16 18  1  0  0  0  0
 17 16  1  0  0  0  0
 19 16  1  0  0  0  0
 20  3  1  0  0  0  0
M  END
