Coordinates from ORCA-job 4-NO2-Ph-N2-BF4-B3LYPG-6-31G_dp-MTMO-d009-169-n800
 OpenBabel09051908343D

 20 18  0  0  0  0  0  0  0  0999 V2000
   -1.5071   -0.3467    0.7949 C   0  0  0  0  0  0  0  0  0  0  0  0
   -0.1621   -0.1689    0.4848 C   0  0  0  0  0  0  0  0  0  0  0  0
    0.2728    1.1093    0.1504 C   0  0  0  0  0  0  0  0  0  0  0  0
   -0.5702    2.2150    0.1134 C   0  0  0  0  0  0  0  0  0  0  0  0
   -1.9145    2.0328    0.4235 C   0  0  0  0  0  0  0  0  0  0  0  0
   -2.3616    0.7551    0.7591 C   0  0  0  0  0  0  0  0  0  0  0  0
   -1.9027   -1.3180    1.0634 H   0  0  0  0  0  0  0  0  0  0  0  0
    0.5423   -0.9915    0.5018 H   0  0  0  0  0  0  0  0  0  0  0  0
   -0.1733    3.1871   -0.1552 H   0  0  0  0  0  0  0  0  0  0  0  0
   -2.6165    2.8567    0.4104 H   0  0  0  0  0  0  0  0  0  0  0  0
   -3.7824    0.5636    1.0862 N   0  0  0  0  0  0  0  0  0  0  0  0
   -4.1512   -0.5732    1.3778 O   0  0  0  0  0  0  0  0  0  0  0  0
   -4.5137    1.5522    1.0479 O   0  0  0  0  0  0  0  0  0  0  0  0
    4.7107    2.2559   -2.4002 N   0  0  0  0  0  0  0  0  0  0  0  0
    5.7777    2.1644   -2.6731 N   0  0  0  0  0  0  0  0  0  0  0  0
    3.4891    0.1462    0.9427 B   0  0  0  0  0  0  0  0  0  0  0  0
    2.9930   -1.0433    0.6369 F   0  0  0  0  0  0  0  0  0  0  0  0
    3.1679    0.7117    2.0897 F   0  0  0  0  0  0  0  0  0  0  0  0
    4.3645    0.7173    0.1396 F   0  0  0  0  0  0  0  0  0  0  0  0
    1.5805    1.2931   -0.1609 F   0  0  0  0  0  0  0  0  0  0  0  0
  1  7  1  0  0  0  0
  2  8  1  0  0  0  0
  2  1  2  0  0  0  0
  3  2  1  0  0  0  0
  4  3  2  0  0  0  0
  4  5  1  0  0  0  0
  5  6  2  0  0  0  0
  6  1  1  0  0  0  0
  6 11  1  0  0  0  0
  9  4  1  0  0  0  0
 10  5  1  0  0  0  0
 11 12  2  0  0  0  0
 13 11  2  0  0  0  0
 15 14  3  0  0  0  0
 16 18  1  0  0  0  0
 17 16  1  0  0  0  0
 19 16  1  0  0  0  0
 20  3  1  0  0  0  0
M  END
