Coordinates from ORCA-job 4-NO2-Ph-N2-BF4-B3LYPG-6-31G_dp-MTMO-d009-169-n800
 OpenBabel09051908343D

 20 18  0  0  0  0  0  0  0  0999 V2000
   -1.9467   -0.2424    0.6411 C   0  0  0  0  0  0  0  0  0  0  0  0
   -0.6474    0.2534    0.5852 C   0  0  0  0  0  0  0  0  0  0  0  0
   -0.4504    1.6110    0.8161 C   0  0  0  0  0  0  0  0  0  0  0  0
   -1.4881    2.4935    1.0985 C   0  0  0  0  0  0  0  0  0  0  0  0
   -2.7857    1.9936    1.1534 C   0  0  0  0  0  0  0  0  0  0  0  0
   -2.9943    0.6337    0.9238 C   0  0  0  0  0  0  0  0  0  0  0  0
   -2.1610   -1.2896    0.4690 H   0  0  0  0  0  0  0  0  0  0  0  0
    0.1998   -0.3854    0.3680 H   0  0  0  0  0  0  0  0  0  0  0  0
   -1.2729    3.5418    1.2709 H   0  0  0  0  0  0  0  0  0  0  0  0
   -3.6320    2.6331    1.3694 H   0  0  0  0  0  0  0  0  0  0  0  0
   -4.3657    0.1068    0.9823 N   0  0  0  0  0  0  0  0  0  0  0  0
   -4.5222   -1.0960    0.7770 O   0  0  0  0  0  0  0  0  0  0  0  0
   -5.2706    0.9018    1.2331 O   0  0  0  0  0  0  0  0  0  0  0  0
   11.3671   -0.4423   -2.9589 N   0  0  0  0  0  0  0  0  0  0  0  0
   10.3234   -0.3588   -2.6049 N   0  0  0  0  0  0  0  0  0  0  0  0
    3.0049    1.1757   -0.0582 B   0  0  0  0  0  0  0  0  0  0  0  0
    2.5593   -0.0713    0.0028 F   0  0  0  0  0  0  0  0  0  0  0  0
    3.6112    1.7044    0.9846 F   0  0  0  0  0  0  0  0  0  0  0  0
    2.9043    1.8493   -1.1861 F   0  0  0  0  0  0  0  0  0  0  0  0
    0.8102    2.1069    0.7661 F   0  0  0  0  0  0  0  0  0  0  0  0
  1  6  1  0  0  0  0
  2  1  2  0  0  0  0
  2  3  1  0  0  0  0
  3  4  2  0  0  0  0
  4  5  1  0  0  0  0
  4  9  1  0  0  0  0
  5 10  1  0  0  0  0
  6 11  1  0  0  0  0
  6  5  2  0  0  0  0
  7  1  1  0  0  0  0
  8  2  1  0  0  0  0
 11 13  2  0  0  0  0
 12 11  2  0  0  0  0
 14 15  3  0  0  0  0
 16 17  1  0  0  0  0
 16 18  1  0  0  0  0
 19 16  1  0  0  0  0
 20  3  1  0  0  0  0
M  END
