Coordinates from ORCA-job 4-NO2-Ph-N2-BF4-B3LYPG-6-31G_dp-MTMO-d009-169-n800
 OpenBabel09051908343D

 20 18  0  0  0  0  0  0  0  0999 V2000
   -1.9865   -0.2375    0.6506 C   0  0  0  0  0  0  0  0  0  0  0  0
   -0.6885    0.2622    0.5964 C   0  0  0  0  0  0  0  0  0  0  0  0
   -0.4957    1.6198    0.8305 C   0  0  0  0  0  0  0  0  0  0  0  0
   -1.5358    2.4988    1.1147 C   0  0  0  0  0  0  0  0  0  0  0  0
   -2.8320    1.9949    1.1680 C   0  0  0  0  0  0  0  0  0  0  0  0
   -3.0367    0.6351    0.9351 C   0  0  0  0  0  0  0  0  0  0  0  0
   -2.1978   -1.2848    0.4760 H   0  0  0  0  0  0  0  0  0  0  0  0
    0.1606   -0.3736    0.3781 H   0  0  0  0  0  0  0  0  0  0  0  0
   -1.3236    3.5473    1.2896 H   0  0  0  0  0  0  0  0  0  0  0  0
   -3.6802    2.6316    1.3851 H   0  0  0  0  0  0  0  0  0  0  0  0
   -4.4066    0.1041    0.9918 N   0  0  0  0  0  0  0  0  0  0  0  0
   -4.5597   -1.0986    0.7834 O   0  0  0  0  0  0  0  0  0  0  0  0
   -5.3138    0.8960    1.2441 O   0  0  0  0  0  0  0  0  0  0  0  0
   11.7566   -0.5103   -3.0759 N   0  0  0  0  0  0  0  0  0  0  0  0
   10.7124   -0.4239   -2.7239 N   0  0  0  0  0  0  0  0  0  0  0  0
    2.9616    1.1958   -0.0420 B   0  0  0  0  0  0  0  0  0  0  0  0
    2.5204   -0.0527    0.0192 F   0  0  0  0  0  0  0  0  0  0  0  0
    3.5661    1.7268    1.0006 F   0  0  0  0  0  0  0  0  0  0  0  0
    2.8588    1.8688   -1.1701 F   0  0  0  0  0  0  0  0  0  0  0  0
    0.7637    2.1192    0.7820 F   0  0  0  0  0  0  0  0  0  0  0  0
  1  6  1  0  0  0  0
  2  1  2  0  0  0  0
  2  3  1  0  0  0  0
  3  4  2  0  0  0  0
  4  5  1  0  0  0  0
  4  9  1  0  0  0  0
  5 10  1  0  0  0  0
  6 11  1  0  0  0  0
  6  5  2  0  0  0  0
  7  1  1  0  0  0  0
  8  2  1  0  0  0  0
 11 13  2  0  0  0  0
 12 11  2  0  0  0  0
 14 15  3  0  0  0  0
 16 17  1  0  0  0  0
 16 18  1  0  0  0  0
 19 16  1  0  0  0  0
 20  3  1  0  0  0  0
M  END
