Coordinates from ORCA-job 4-NO2-Ph-N2-BF4-B3LYPG-6-31G_dp-MTMO-d009-169-n800
 OpenBabel09051908343D

 20 18  0  0  0  0  0  0  0  0999 V2000
   -1.8363   -0.2554    0.6117 C   0  0  0  0  0  0  0  0  0  0  0  0
   -0.5336    0.2307    0.5476 C   0  0  0  0  0  0  0  0  0  0  0  0
   -0.3254    1.5875    0.7725 C   0  0  0  0  0  0  0  0  0  0  0  0
   -1.3554    2.4786    1.0568 C   0  0  0  0  0  0  0  0  0  0  0  0
   -2.6563    1.9886    1.1199 C   0  0  0  0  0  0  0  0  0  0  0  0
   -2.8761    0.6294    0.8963 C   0  0  0  0  0  0  0  0  0  0  0  0
   -2.0590   -1.3015    0.4445 H   0  0  0  0  0  0  0  0  0  0  0  0
    0.3076   -0.4153    0.3285 H   0  0  0  0  0  0  0  0  0  0  0  0
   -1.1315    3.5259    1.2243 H   0  0  0  0  0  0  0  0  0  0  0  0
   -3.4967    2.6352    1.3376 H   0  0  0  0  0  0  0  0  0  0  0  0
   -4.2510    0.1129    0.9634 N   0  0  0  0  0  0  0  0  0  0  0  0
   -4.4174   -1.0896    0.7634 O   0  0  0  0  0  0  0  0  0  0  0  0
   -5.1487    0.9154    1.2156 O   0  0  0  0  0  0  0  0  0  0  0  0
   10.2880   -0.2572   -2.6164 N   0  0  0  0  0  0  0  0  0  0  0  0
    9.2454   -0.1782   -2.2581 N   0  0  0  0  0  0  0  0  0  0  0  0
    3.1231    1.1207   -0.1162 B   0  0  0  0  0  0  0  0  0  0  0  0
    2.6649   -0.1219   -0.0573 F   0  0  0  0  0  0  0  0  0  0  0  0
    3.7365    1.6409    0.9266 F   0  0  0  0  0  0  0  0  0  0  0  0
    3.0265    1.7980   -1.2422 F   0  0  0  0  0  0  0  0  0  0  0  0
    0.9386    2.0741    0.7145 F   0  0  0  0  0  0  0  0  0  0  0  0
  1  6  1  0  0  0  0
  2  1  2  0  0  0  0
  2  3  1  0  0  0  0
  3  4  2  0  0  0  0
  4  5  1  0  0  0  0
  4  9  1  0  0  0  0
  5 10  1  0  0  0  0
  6 11  1  0  0  0  0
  6  5  2  0  0  0  0
  7  1  1  0  0  0  0
  8  2  1  0  0  0  0
 11 13  2  0  0  0  0
 12 11  2  0  0  0  0
 14 15  3  0  0  0  0
 16 17  1  0  0  0  0
 16 18  1  0  0  0  0
 19 16  1  0  0  0  0
 20  3  1  0  0  0  0
M  END
