Coordinates from ORCA-job 4-NO2-Ph-N2-BF4-B3LYPG-6-31G_dp-MTMO-d009-169-n800
 OpenBabel09051908343D

 20 18  0  0  0  0  0  0  0  0999 V2000
   -2.0144   -0.2339    0.6569 C   0  0  0  0  0  0  0  0  0  0  0  0
   -0.7174    0.2681    0.6034 C   0  0  0  0  0  0  0  0  0  0  0  0
   -0.5268    1.6256    0.8400 C   0  0  0  0  0  0  0  0  0  0  0  0
   -1.5687    2.5020    1.1261 C   0  0  0  0  0  0  0  0  0  0  0  0
   -2.8639    1.9959    1.1787 C   0  0  0  0  0  0  0  0  0  0  0  0
   -3.0662    0.6361    0.9433 C   0  0  0  0  0  0  0  0  0  0  0  0
   -2.2237   -1.2813    0.4804 H   0  0  0  0  0  0  0  0  0  0  0  0
    0.1327   -0.3659    0.3837 H   0  0  0  0  0  0  0  0  0  0  0  0
   -1.3583    3.5506    1.3029 H   0  0  0  0  0  0  0  0  0  0  0  0
   -3.7131    2.6306    1.3973 H   0  0  0  0  0  0  0  0  0  0  0  0
   -4.4351    0.1024    0.9994 N   0  0  0  0  0  0  0  0  0  0  0  0
   -4.5859   -1.1002    0.7889 O   0  0  0  0  0  0  0  0  0  0  0  0
   -5.3436    0.8920    1.2538 O   0  0  0  0  0  0  0  0  0  0  0  0
   12.0287   -0.5575   -3.1555 N   0  0  0  0  0  0  0  0  0  0  0  0
   10.9842   -0.4693   -2.8052 N   0  0  0  0  0  0  0  0  0  0  0  0
    2.9307    1.2102   -0.0322 B   0  0  0  0  0  0  0  0  0  0  0  0
    2.4923   -0.0393    0.0288 F   0  0  0  0  0  0  0  0  0  0  0  0
    3.5341    1.7423    1.0104 F   0  0  0  0  0  0  0  0  0  0  0  0
    2.8262    1.8831   -1.1602 F   0  0  0  0  0  0  0  0  0  0  0  0
    0.7315    2.1277    0.7923 F   0  0  0  0  0  0  0  0  0  0  0  0
  1  6  1  0  0  0  0
  2  1  2  0  0  0  0
  2  3  1  0  0  0  0
  3  4  2  0  0  0  0
  4  5  1  0  0  0  0
  4  9  1  0  0  0  0
  5 10  1  0  0  0  0
  6 11  1  0  0  0  0
  6  5  2  0  0  0  0
  7  1  1  0  0  0  0
  8  2  1  0  0  0  0
 11 13  2  0  0  0  0
 12 11  2  0  0  0  0
 14 15  3  0  0  0  0
 16 17  1  0  0  0  0
 16 18  1  0  0  0  0
 19 16  1  0  0  0  0
 20  3  1  0  0  0  0
M  END
