Coordinates from ORCA-job 4-NO2-Ph-N2-BF4-B3LYPG-6-31G_dp-MTMO-d009-169-n800
 OpenBabel09051908343D

 20 18  0  0  0  0  0  0  0  0999 V2000
   -2.0540   -0.2288    0.6655 C   0  0  0  0  0  0  0  0  0  0  0  0
   -0.7585    0.2775    0.6129 C   0  0  0  0  0  0  0  0  0  0  0  0
   -0.5719    1.6347    0.8540 C   0  0  0  0  0  0  0  0  0  0  0  0
   -1.6164    2.5069    1.1436 C   0  0  0  0  0  0  0  0  0  0  0  0
   -2.9100    1.9966    1.1954 C   0  0  0  0  0  0  0  0  0  0  0  0
   -3.1082    0.6370    0.9554 C   0  0  0  0  0  0  0  0  0  0  0  0
   -2.2602   -1.2762    0.4855 H   0  0  0  0  0  0  0  0  0  0  0  0
    0.0933   -0.3533    0.3906 H   0  0  0  0  0  0  0  0  0  0  0  0
   -1.4091    3.5555    1.3239 H   0  0  0  0  0  0  0  0  0  0  0  0
   -3.7611    2.6279    1.4167 H   0  0  0  0  0  0  0  0  0  0  0  0
   -4.4754    0.0989    1.0106 N   0  0  0  0  0  0  0  0  0  0  0  0
   -4.6227   -1.1035    0.7959 O   0  0  0  0  0  0  0  0  0  0  0  0
   -5.3862    0.8848    1.2684 O   0  0  0  0  0  0  0  0  0  0  0  0
   12.4193   -0.6279   -3.2683 N   0  0  0  0  0  0  0  0  0  0  0  0
   11.3743   -0.5366   -2.9201 N   0  0  0  0  0  0  0  0  0  0  0  0
    2.8861    1.2322   -0.0199 B   0  0  0  0  0  0  0  0  0  0  0  0
    2.4526   -0.0190    0.0413 F   0  0  0  0  0  0  0  0  0  0  0  0
    3.4888    1.7663    1.0222 F   0  0  0  0  0  0  0  0  0  0  0  0
    2.7779    1.9050   -1.1476 F   0  0  0  0  0  0  0  0  0  0  0  0
    0.6847    2.1409    0.8073 F   0  0  0  0  0  0  0  0  0  0  0  0
  1  6  1  0  0  0  0
  2  1  2  0  0  0  0
  2  3  1  0  0  0  0
  3  4  2  0  0  0  0
  4  5  1  0  0  0  0
  4  9  1  0  0  0  0
  5 10  1  0  0  0  0
  6 11  1  0  0  0  0
  6  5  2  0  0  0  0
  7  1  1  0  0  0  0
  8  2  1  0  0  0  0
 11 13  2  0  0  0  0
 12 11  2  0  0  0  0
 14 15  3  0  0  0  0
 16 17  1  0  0  0  0
 16 18  1  0  0  0  0
 19 16  1  0  0  0  0
 20  3  1  0  0  0  0
M  END
