Coordinates from ORCA-job 4-NO2-Ph-N2-BF4-B3LYPG-6-31G_dp-MTMO-d009-169-n800
 OpenBabel09051908343D

 20 18  0  0  0  0  0  0  0  0999 V2000
   -1.4878   -0.3460    0.7718 C   0  0  0  0  0  0  0  0  0  0  0  0
   -0.1412   -0.1795    0.4627 C   0  0  0  0  0  0  0  0  0  0  0  0
    0.3062    1.0961    0.1345 C   0  0  0  0  0  0  0  0  0  0  0  0
   -0.5263    2.2099    0.1032 C   0  0  0  0  0  0  0  0  0  0  0  0
   -1.8722    2.0392    0.4125 C   0  0  0  0  0  0  0  0  0  0  0  0
   -2.3317    0.7641    0.7415 C   0  0  0  0  0  0  0  0  0  0  0  0
   -1.8926   -1.3148    1.0354 H   0  0  0  0  0  0  0  0  0  0  0  0
    0.5554   -1.0088    0.4764 H   0  0  0  0  0  0  0  0  0  0  0  0
   -0.1201    3.1796   -0.1605 H   0  0  0  0  0  0  0  0  0  0  0  0
   -2.5663    2.8699    0.4035 H   0  0  0  0  0  0  0  0  0  0  0  0
   -3.7543    0.5846    1.0673 N   0  0  0  0  0  0  0  0  0  0  0  0
   -4.1341   -0.5501    1.3527 O   0  0  0  0  0  0  0  0  0  0  0  0
   -4.4761    1.5804    1.0343 O   0  0  0  0  0  0  0  0  0  0  0  0
    4.5098    2.1320   -2.3770 N   0  0  0  0  0  0  0  0  0  0  0  0
    5.5487    2.3158   -2.7061 N   0  0  0  0  0  0  0  0  0  0  0  0
    3.4884    0.1327    1.0041 B   0  0  0  0  0  0  0  0  0  0  0  0
    3.0056   -1.0598    0.6893 F   0  0  0  0  0  0  0  0  0  0  0  0
    3.1178    0.7101    2.1301 F   0  0  0  0  0  0  0  0  0  0  0  0
    4.3984    0.6953    0.2342 F   0  0  0  0  0  0  0  0  0  0  0  0
    1.6155    1.2683   -0.1767 F   0  0  0  0  0  0  0  0  0  0  0  0
  1  7  1  0  0  0  0
  2  8  1  0  0  0  0
  2  1  2  0  0  0  0
  3  2  1  0  0  0  0
  4  3  2  0  0  0  0
  4  5  1  0  0  0  0
  5  6  2  0  0  0  0
  6  1  1  0  0  0  0
  6 11  1  0  0  0  0
  9  4  1  0  0  0  0
 10  5  1  0  0  0  0
 11 12  2  0  0  0  0
 13 11  2  0  0  0  0
 15 14  3  0  0  0  0
 16 18  1  0  0  0  0
 17 16  1  0  0  0  0
 19 16  1  0  0  0  0
 20  3  1  0  0  0  0
M  END
