Coordinates from ORCA-job 4-NO2-Ph-N2-BF4-B3LYPG-6-31G_dp-MTMO-d009-169-n800
 OpenBabel09051908343D

 20 18  0  0  0  0  0  0  0  0999 V2000
   -1.6631   -0.2729    0.5494 C   0  0  0  0  0  0  0  0  0  0  0  0
   -0.3580    0.1998    0.4473 C   0  0  0  0  0  0  0  0  0  0  0  0
   -0.1283    1.5533    0.6725 C   0  0  0  0  0  0  0  0  0  0  0  0
   -1.1390    2.4538    0.9936 C   0  0  0  0  0  0  0  0  0  0  0  0
   -2.4426    1.9770    1.0945 C   0  0  0  0  0  0  0  0  0  0  0  0
   -2.6839    0.6215    0.8708 C   0  0  0  0  0  0  0  0  0  0  0  0
   -1.9022   -1.3157    0.3838 H   0  0  0  0  0  0  0  0  0  0  0  0
    0.4699   -0.4530    0.1992 H   0  0  0  0  0  0  0  0  0  0  0  0
   -0.8990    3.4977    1.1594 H   0  0  0  0  0  0  0  0  0  0  0  0
   -3.2689    2.6313    1.3414 H   0  0  0  0  0  0  0  0  0  0  0  0
   -4.0615    0.1193    0.9775 N   0  0  0  0  0  0  0  0  0  0  0  0
   -4.2473   -1.0799    0.7753 O   0  0  0  0  0  0  0  0  0  0  0  0
   -4.9423    0.9298    1.2625 O   0  0  0  0  0  0  0  0  0  0  0  0
    8.5256    0.0292   -1.9512 N   0  0  0  0  0  0  0  0  0  0  0  0
    7.4780    0.1440   -1.6178 N   0  0  0  0  0  0  0  0  0  0  0  0
    3.3295    1.0251   -0.2699 B   0  0  0  0  0  0  0  0  0  0  0  0
    2.8368   -0.2048   -0.2308 F   0  0  0  0  0  0  0  0  0  0  0  0
    3.9487    1.5150    0.7841 F   0  0  0  0  0  0  0  0  0  0  0  0
    3.2524    1.7229   -1.3846 F   0  0  0  0  0  0  0  0  0  0  0  0
    1.1385    2.0253    0.5763 F   0  0  0  0  0  0  0  0  0  0  0  0
  1  6  1  0  0  0  0
  2  1  2  0  0  0  0
  2  3  1  0  0  0  0
  3  4  2  0  0  0  0
  4  5  1  0  0  0  0
  4  9  1  0  0  0  0
  5 10  1  0  0  0  0
  6 11  1  0  0  0  0
  6  5  2  0  0  0  0
  7  1  1  0  0  0  0
  8  2  1  0  0  0  0
 11 13  2  0  0  0  0
 12 11  2  0  0  0  0
 14 15  3  0  0  0  0
 16 17  1  0  0  0  0
 16 18  1  0  0  0  0
 19 16  1  0  0  0  0
 20  3  1  0  0  0  0
M  END
