Coordinates from ORCA-job 4-NO2-Ph-N2-BF4-B3LYPG-6-31G_dp-MTMO-d009-169-n800
 OpenBabel09051908343D

 20 18  0  0  0  0  0  0  0  0999 V2000
   -1.3386   -0.2711    0.6578 C   0  0  0  0  0  0  0  0  0  0  0  0
    0.0324   -0.0530    0.7580 C   0  0  0  0  0  0  0  0  0  0  0  0
    0.4986    1.2548    0.6707 C   0  0  0  0  0  0  0  0  0  0  0  0
   -0.3388    2.3503    0.4863 C   0  0  0  0  0  0  0  0  0  0  0  0
   -1.7086    2.1277    0.3866 C   0  0  0  0  0  0  0  0  0  0  0  0
   -2.1871    0.8205    0.4739 C   0  0  0  0  0  0  0  0  0  0  0  0
   -1.7591   -1.2669    0.7192 H   0  0  0  0  0  0  0  0  0  0  0  0
    0.7323   -0.8667    0.9005 H   0  0  0  0  0  0  0  0  0  0  0  0
    0.0831    3.3468    0.4238 H   0  0  0  0  0  0  0  0  0  0  0  0
   -2.4072    2.9418    0.2427 H   0  0  0  0  0  0  0  0  0  0  0  0
   -3.6347    0.5863    0.3679 N   0  0  0  0  0  0  0  0  0  0  0  0
   -4.0316   -0.5752    0.4496 O   0  0  0  0  0  0  0  0  0  0  0  0
   -4.3594    1.5671    0.2036 O   0  0  0  0  0  0  0  0  0  0  0  0
    2.8798    1.8147   -2.1896 N   0  0  0  0  0  0  0  0  0  0  0  0
    3.4733    1.9323   -3.1144 N   0  0  0  0  0  0  0  0  0  0  0  0
    3.8556   -0.0037    1.1049 B   0  0  0  0  0  0  0  0  0  0  0  0
    3.1148   -1.1014    1.0599 F   0  0  0  0  0  0  0  0  0  0  0  0
    4.0898    0.5803    2.2619 F   0  0  0  0  0  0  0  0  0  0  0  0
    4.4173    0.4507    0.0023 F   0  0  0  0  0  0  0  0  0  0  0  0
    1.8312    1.4836    0.7675 F   0  0  0  0  0  0  0  0  0  0  0  0
  1  7  1  0  0  0  0
  1  2  2  0  0  0  0
  2  8  1  0  0  0  0
  3  2  1  0  0  0  0
  3 20  1  0  0  0  0
  4  3  2  0  0  0  0
  5  6  2  0  0  0  0
  5  4  1  0  0  0  0
  6  1  1  0  0  0  0
  9  4  1  0  0  0  0
 10  5  1  0  0  0  0
 11 12  2  0  0  0  0
 11  6  1  0  0  0  0
 13 11  2  0  0  0  0
 15 14  3  0  0  0  0
 16 18  1  0  0  0  0
 17 16  1  0  0  0  0
 19 16  1  0  0  0  0
M  END
