Coordinates from ORCA-job 4-NO2-Ph-N2-BF4-B3LYPG-6-31G_dp-MTMO-d009-169-n800
 OpenBabel09051908343D

 20 18  0  0  0  0  0  0  0  0999 V2000
   -1.4356   -0.2868    0.5630 C   0  0  0  0  0  0  0  0  0  0  0  0
   -0.1327    0.2018    0.5761 C   0  0  0  0  0  0  0  0  0  0  0  0
    0.0596    1.5608    0.8042 C   0  0  0  0  0  0  0  0  0  0  0  0
   -0.9879    2.4516    1.0170 C   0  0  0  0  0  0  0  0  0  0  0  0
   -2.2893    1.9590    1.0033 C   0  0  0  0  0  0  0  0  0  0  0  0
   -2.4926    0.5978    0.7768 C   0  0  0  0  0  0  0  0  0  0  0  0
   -1.6460   -1.3346    0.3897 H   0  0  0  0  0  0  0  0  0  0  0  0
    0.7224   -0.4424    0.4117 H   0  0  0  0  0  0  0  0  0  0  0  0
   -0.7769    3.5007    1.1903 H   0  0  0  0  0  0  0  0  0  0  0  0
   -3.1428    2.6051    1.1640 H   0  0  0  0  0  0  0  0  0  0  0  0
   -3.8679    0.0787    0.7636 N   0  0  0  0  0  0  0  0  0  0  0  0
   -4.0198   -1.1258    0.5640 O   0  0  0  0  0  0  0  0  0  0  0  0
   -4.7811    0.8810    0.9539 O   0  0  0  0  0  0  0  0  0  0  0  0
    6.8540   -0.1488   -1.8953 N   0  0  0  0  0  0  0  0  0  0  0  0
    5.9004    0.1500   -1.4247 N   0  0  0  0  0  0  0  0  0  0  0  0
    3.4842    1.1131   -0.2588 B   0  0  0  0  0  0  0  0  0  0  0  0
    3.0939   -0.1343   -0.0388 F   0  0  0  0  0  0  0  0  0  0  0  0
    4.1956    1.7474    0.6502 F   0  0  0  0  0  0  0  0  0  0  0  0
    3.1819    1.6990   -1.4003 F   0  0  0  0  0  0  0  0  0  0  0  0
    1.3239    2.0455    0.8232 F   0  0  0  0  0  0  0  0  0  0  0  0
  1  2  2  0  0  0  0
  1  6  1  0  0  0  0
  2  3  1  0  0  0  0
  3 20  1  0  0  0  0
  3  4  2  0  0  0  0
  4  9  1  0  0  0  0
  5  4  1  0  0  0  0
  5 10  1  0  0  0  0
  6  5  2  0  0  0  0
  7  1  1  0  0  0  0
  8  2  1  0  0  0  0
 11  6  1  0  0  0  0
 11 13  2  0  0  0  0
 12 11  2  0  0  0  0
 14 15  3  0  0  0  0
 16 17  1  0  0  0  0
 16 18  1  0  0  0  0
 19 16  1  0  0  0  0
M  END
