Coordinates from ORCA-job 4-NO2-Ph-N2-BF4-B3LYPG-6-31G_dp-MTMO-d009-169-n800
 OpenBabel09051908343D

 20 18  0  0  0  0  0  0  0  0999 V2000
   -1.3103   -0.2641    0.6286 C   0  0  0  0  0  0  0  0  0  0  0  0
    0.0562   -0.0445    0.7766 C   0  0  0  0  0  0  0  0  0  0  0  0
    0.5211    1.2657    0.7292 C   0  0  0  0  0  0  0  0  0  0  0  0
   -0.3137    2.3624    0.5391 C   0  0  0  0  0  0  0  0  0  0  0  0
   -1.6789    2.1385    0.3917 C   0  0  0  0  0  0  0  0  0  0  0  0
   -2.1559    0.8286    0.4385 C   0  0  0  0  0  0  0  0  0  0  0  0
   -1.7293   -1.2620    0.6575 H   0  0  0  0  0  0  0  0  0  0  0  0
    0.7532   -0.8594    0.9263 H   0  0  0  0  0  0  0  0  0  0  0  0
    0.1069    3.3609    0.5096 H   0  0  0  0  0  0  0  0  0  0  0  0
   -2.3750    2.9536    0.2413 H   0  0  0  0  0  0  0  0  0  0  0  0
   -3.5986    0.5928    0.2817 N   0  0  0  0  0  0  0  0  0  0  0  0
   -3.9942   -0.5710    0.3287 O   0  0  0  0  0  0  0  0  0  0  0  0
   -4.3206    1.5748    0.1124 O   0  0  0  0  0  0  0  0  0  0  0  0
    2.6886    1.7565   -2.1326 N   0  0  0  0  0  0  0  0  0  0  0  0
    3.1680    1.8417   -3.1247 N   0  0  0  0  0  0  0  0  0  0  0  0
    3.8805    0.0021    1.1120 B   0  0  0  0  0  0  0  0  0  0  0  0
    3.1324   -1.0916    1.1250 F   0  0  0  0  0  0  0  0  0  0  0  0
    4.1769    0.6054    2.2445 F   0  0  0  0  0  0  0  0  0  0  0  0
    4.3869    0.4325   -0.0263 F   0  0  0  0  0  0  0  0  0  0  0  0
    1.8490    1.4961    0.8740 F   0  0  0  0  0  0  0  0  0  0  0  0
  1  7  1  0  0  0  0
  1  2  2  0  0  0  0
  2  8  1  0  0  0  0
  3  2  1  0  0  0  0
  3 20  1  0  0  0  0
  4  3  2  0  0  0  0
  5  6  2  0  0  0  0
  5  4  1  0  0  0  0
  6  1  1  0  0  0  0
  9  4  1  0  0  0  0
 10  5  1  0  0  0  0
 11 12  2  0  0  0  0
 11  6  1  0  0  0  0
 13 11  2  0  0  0  0
 15 14  3  0  0  0  0
 16 17  1  0  0  0  0
 16 18  1  0  0  0  0
 19 16  1  0  0  0  0
M  END
