Coordinates from ORCA-job 4-NO2-Ph-N2-BF4-B3LYPG-6-31G_dp-MTMO-d009-169-n800
 OpenBabel09051908343D

 20 18  0  0  0  0  0  0  0  0999 V2000
   -1.9308   -0.2443    0.6371 C   0  0  0  0  0  0  0  0  0  0  0  0
   -0.6310    0.2502    0.5807 C   0  0  0  0  0  0  0  0  0  0  0  0
   -0.4326    1.6077    0.8105 C   0  0  0  0  0  0  0  0  0  0  0  0
   -1.4696    2.4913    1.0925 C   0  0  0  0  0  0  0  0  0  0  0  0
   -2.7676    1.9928    1.1480 C   0  0  0  0  0  0  0  0  0  0  0  0
   -2.9776    0.6330    0.9194 C   0  0  0  0  0  0  0  0  0  0  0  0
   -2.1460   -1.2914    0.4658 H   0  0  0  0  0  0  0  0  0  0  0  0
    0.2153   -0.3898    0.3638 H   0  0  0  0  0  0  0  0  0  0  0  0
   -1.2533    3.5396    1.2641 H   0  0  0  0  0  0  0  0  0  0  0  0
   -3.6132    2.6334    1.3636 H   0  0  0  0  0  0  0  0  0  0  0  0
   -4.3494    0.1073    0.9785 N   0  0  0  0  0  0  0  0  0  0  0  0
   -4.5071   -1.0955    0.7741 O   0  0  0  0  0  0  0  0  0  0  0  0
   -5.2535    0.9034    1.2288 O   0  0  0  0  0  0  0  0  0  0  0  0
   11.2146   -0.4171   -2.9129 N   0  0  0  0  0  0  0  0  0  0  0  0
   10.1712   -0.3342   -2.5580 N   0  0  0  0  0  0  0  0  0  0  0  0
    3.0213    1.1686   -0.0647 B   0  0  0  0  0  0  0  0  0  0  0  0
    2.5740   -0.0778   -0.0038 F   0  0  0  0  0  0  0  0  0  0  0  0
    3.6285    1.6963    0.9780 F   0  0  0  0  0  0  0  0  0  0  0  0
    2.9213    1.8425   -1.1924 F   0  0  0  0  0  0  0  0  0  0  0  0
    0.8285    2.1027    0.7600 F   0  0  0  0  0  0  0  0  0  0  0  0
  1  6  1  0  0  0  0
  2  1  2  0  0  0  0
  2  3  1  0  0  0  0
  3  4  2  0  0  0  0
  4  5  1  0  0  0  0
  4  9  1  0  0  0  0
  5 10  1  0  0  0  0
  6 11  1  0  0  0  0
  6  5  2  0  0  0  0
  7  1  1  0  0  0  0
  8  2  1  0  0  0  0
 11 13  2  0  0  0  0
 12 11  2  0  0  0  0
 14 15  3  0  0  0  0
 16 17  1  0  0  0  0
 16 18  1  0  0  0  0
 19 16  1  0  0  0  0
 20  3  1  0  0  0  0
M  END
