Coordinates from ORCA-job 4-NO2-Ph-N2-BF4-B3LYPG-6-31G_dp-MTMO-d009-169-n800
 OpenBabel09051908343D

 20 18  0  0  0  0  0  0  0  0999 V2000
   -1.8929   -0.2489    0.6275 C   0  0  0  0  0  0  0  0  0  0  0  0
   -0.5918    0.2421    0.5689 C   0  0  0  0  0  0  0  0  0  0  0  0
   -0.3897    1.5995    0.7963 C   0  0  0  0  0  0  0  0  0  0  0  0
   -1.4240    2.4864    1.0779 C   0  0  0  0  0  0  0  0  0  0  0  0
   -2.7232    1.9913    1.1355 C   0  0  0  0  0  0  0  0  0  0  0  0
   -2.9370    0.6316    0.9094 C   0  0  0  0  0  0  0  0  0  0  0  0
   -2.1110   -1.2957    0.4581 H   0  0  0  0  0  0  0  0  0  0  0  0
    0.2528   -0.4002    0.3521 H   0  0  0  0  0  0  0  0  0  0  0  0
   -1.2047    3.5343    1.2475 H   0  0  0  0  0  0  0  0  0  0  0  0
   -3.5669    2.6344    1.3510 H   0  0  0  0  0  0  0  0  0  0  0  0
   -4.3102    0.1097    0.9708 N   0  0  0  0  0  0  0  0  0  0  0  0
   -4.4713   -1.0930    0.7687 O   0  0  0  0  0  0  0  0  0  0  0  0
   -5.2119    0.9085    1.2208 O   0  0  0  0  0  0  0  0  0  0  0  0
   10.8427   -0.3526   -2.7975 N   0  0  0  0  0  0  0  0  0  0  0  0
    9.7997   -0.2720   -2.4407 N   0  0  0  0  0  0  0  0  0  0  0  0
    3.0626    1.1493   -0.0831 B   0  0  0  0  0  0  0  0  0  0  0  0
    2.6114   -0.0957   -0.0225 F   0  0  0  0  0  0  0  0  0  0  0  0
    3.6722    1.6748    0.9593 F   0  0  0  0  0  0  0  0  0  0  0  0
    2.9638    1.8241   -1.2105 F   0  0  0  0  0  0  0  0  0  0  0  0
    0.8726    2.0908    0.7436 F   0  0  0  0  0  0  0  0  0  0  0  0
  1  6  1  0  0  0  0
  2  1  2  0  0  0  0
  2  3  1  0  0  0  0
  3  4  2  0  0  0  0
  4  5  1  0  0  0  0
  4  9  1  0  0  0  0
  5 10  1  0  0  0  0
  6 11  1  0  0  0  0
  6  5  2  0  0  0  0
  7  1  1  0  0  0  0
  8  2  1  0  0  0  0
 11 13  2  0  0  0  0
 12 11  2  0  0  0  0
 14 15  3  0  0  0  0
 16 17  1  0  0  0  0
 16 18  1  0  0  0  0
 19 16  1  0  0  0  0
 20  3  1  0  0  0  0
M  END
