Coordinates from ORCA-job 4-NO2-Ph-N2-BF4-B3LYPG-6-31G_dp-MTMO-d009-169-n800
 OpenBabel09051908343D

 20 18  0  0  0  0  0  0  0  0999 V2000
   -1.7692   -0.2628    0.5899 C   0  0  0  0  0  0  0  0  0  0  0  0
   -0.4649    0.2174    0.5149 C   0  0  0  0  0  0  0  0  0  0  0  0
   -0.2486    1.5732    0.7387 C   0  0  0  0  0  0  0  0  0  0  0  0
   -1.2720    2.4688    1.0323 C   0  0  0  0  0  0  0  0  0  0  0  0
   -2.5745    1.9847    1.1062 C   0  0  0  0  0  0  0  0  0  0  0  0
   -2.8025    0.6266    0.8838 C   0  0  0  0  0  0  0  0  0  0  0  0
   -1.9981   -1.3078    0.4241 H   0  0  0  0  0  0  0  0  0  0  0  0
    0.3716   -0.4322    0.2884 H   0  0  0  0  0  0  0  0  0  0  0  0
   -1.0420    3.5150    1.1984 H   0  0  0  0  0  0  0  0  0  0  0  0
   -3.4101    2.6350    1.3314 H   0  0  0  0  0  0  0  0  0  0  0  0
   -4.1791    0.1163    0.9623 N   0  0  0  0  0  0  0  0  0  0  0  0
   -4.3527   -1.0852    0.7629 O   0  0  0  0  0  0  0  0  0  0  0  0
   -5.0710    0.9228    1.2227 O   0  0  0  0  0  0  0  0  0  0  0  0
    9.6205   -0.1457   -2.3804 N   0  0  0  0  0  0  0  0  0  0  0  0
    8.5774   -0.0608   -2.0249 N   0  0  0  0  0  0  0  0  0  0  0  0
    3.1960    1.0861   -0.1658 B   0  0  0  0  0  0  0  0  0  0  0  0
    2.7284   -0.1531   -0.1113 F   0  0  0  0  0  0  0  0  0  0  0  0
    3.8135    1.5979    0.8788 F   0  0  0  0  0  0  0  0  0  0  0  0
    3.1035    1.7687   -1.2889 F   0  0  0  0  0  0  0  0  0  0  0  0
    1.0169    2.0540    0.6698 F   0  0  0  0  0  0  0  0  0  0  0  0
  1  6  1  0  0  0  0
  2  1  2  0  0  0  0
  2  3  1  0  0  0  0
  3  4  2  0  0  0  0
  4  5  1  0  0  0  0
  4  9  1  0  0  0  0
  5 10  1  0  0  0  0
  6 11  1  0  0  0  0
  6  5  2  0  0  0  0
  7  1  1  0  0  0  0
  8  2  1  0  0  0  0
 11 13  2  0  0  0  0
 12 11  2  0  0  0  0
 14 15  3  0  0  0  0
 16 17  1  0  0  0  0
 16 18  1  0  0  0  0
 19 16  1  0  0  0  0
 20  3  1  0  0  0  0
M  END
