Coordinates from ORCA-job 4-NO2-Ph-N2-BF4-B3LYPG-6-31G_dp-MTMO-d009-169-n800
 OpenBabel09051908343D

 20 18  0  0  0  0  0  0  0  0999 V2000
   -1.2383   -0.2422    0.5425 C   0  0  0  0  0  0  0  0  0  0  0  0
    0.1118   -0.0216    0.7982 C   0  0  0  0  0  0  0  0  0  0  0  0
    0.5648    1.2923    0.8585 C   0  0  0  0  0  0  0  0  0  0  0  0
   -0.2674    2.3919    0.6754 C   0  0  0  0  0  0  0  0  0  0  0  0
   -1.6164    2.1673    0.4199 C   0  0  0  0  0  0  0  0  0  0  0  0
   -2.0808    0.8536    0.3568 C   0  0  0  0  0  0  0  0  0  0  0  0
   -1.6472   -1.2430    0.4842 H   0  0  0  0  0  0  0  0  0  0  0  0
    0.8065   -0.8384    0.9493 H   0  0  0  0  0  0  0  0  0  0  0  0
    0.1424    3.3936    0.7346 H   0  0  0  0  0  0  0  0  0  0  0  0
   -2.3097    2.9847    0.2684 H   0  0  0  0  0  0  0  0  0  0  0  0
   -3.5059    0.6169    0.0845 N   0  0  0  0  0  0  0  0  0  0  0  0
   -3.8909   -0.5506    0.0383 O   0  0  0  0  0  0  0  0  0  0  0  0
   -4.2250    1.6016   -0.0810 O   0  0  0  0  0  0  0  0  0  0  0  0
    2.2554    1.5338   -1.9687 N   0  0  0  0  0  0  0  0  0  0  0  0
    2.4713    1.5310   -3.0525 N   0  0  0  0  0  0  0  0  0  0  0  0
    3.9349    0.0467    1.1034 B   0  0  0  0  0  0  0  0  0  0  0  0
    3.1933   -1.0457    1.2154 F   0  0  0  0  0  0  0  0  0  0  0  0
    4.3442    0.6749    2.1858 F   0  0  0  0  0  0  0  0  0  0  0  0
    4.3240    0.4502   -0.0902 F   0  0  0  0  0  0  0  0  0  0  0  0
    1.8761    1.5219    1.1105 F   0  0  0  0  0  0  0  0  0  0  0  0
  1  2  2  0  0  0  0
  2  3  1  0  0  0  0
  2  8  1  0  0  0  0
  3 20  1  0  0  0  0
  4  9  1  0  0  0  0
  4  3  2  0  0  0  0
  5  4  1  0  0  0  0
  6  5  2  0  0  0  0
  6  1  1  0  0  0  0
  7  1  1  0  0  0  0
 10  5  1  0  0  0  0
 11  6  1  0  0  0  0
 12 11  2  0  0  0  0
 13 11  2  0  0  0  0
 15 14  3  0  0  0  0
 16 17  1  0  0  0  0
 16 18  1  0  0  0  0
 19 16  1  0  0  0  0
M  END
