Coordinates from ORCA-job 4-NO2-Ph-N2-BF4-B3LYPG-6-31G_dp-MTMO-d009-169-n800
 OpenBabel09051908343D

 20 18  0  0  0  0  0  0  0  0999 V2000
   -1.5406   -0.3515    0.8544 C   0  0  0  0  0  0  0  0  0  0  0  0
   -0.2081   -0.1771    0.4923 C   0  0  0  0  0  0  0  0  0  0  0  0
    0.2068    1.0918    0.1015 C   0  0  0  0  0  0  0  0  0  0  0  0
   -0.6436    2.1915    0.0578 C   0  0  0  0  0  0  0  0  0  0  0  0
   -1.9752    2.0125    0.4200 C   0  0  0  0  0  0  0  0  0  0  0  0
   -2.4025    0.7442    0.8124 C   0  0  0  0  0  0  0  0  0  0  0  0
   -1.9207   -1.3154    1.1678 H   0  0  0  0  0  0  0  0  0  0  0  0
    0.5016   -0.9952    0.5112 H   0  0  0  0  0  0  0  0  0  0  0  0
   -0.2622    3.1564   -0.2556 H   0  0  0  0  0  0  0  0  0  0  0  0
   -2.6825    2.8320    0.4044 H   0  0  0  0  0  0  0  0  0  0  0  0
   -3.8102    0.5563    1.1941 N   0  0  0  0  0  0  0  0  0  0  0  0
   -4.1614   -0.5723    1.5350 O   0  0  0  0  0  0  0  0  0  0  0  0
   -4.5485    1.5392    1.1486 O   0  0  0  0  0  0  0  0  0  0  0  0
    5.1405    2.4412   -2.3821 N   0  0  0  0  0  0  0  0  0  0  0  0
    6.1873    2.0880   -2.4113 N   0  0  0  0  0  0  0  0  0  0  0  0
    3.4502    0.1642    0.8017 B   0  0  0  0  0  0  0  0  0  0  0  0
    2.9571   -1.0366    0.5378 F   0  0  0  0  0  0  0  0  0  0  0  0
    3.1666    0.7481    1.9493 F   0  0  0  0  0  0  0  0  0  0  0  0
    4.2870    0.7293   -0.0456 F   0  0  0  0  0  0  0  0  0  0  0  0
    1.5020    1.2721   -0.2605 F   0  0  0  0  0  0  0  0  0  0  0  0
  1  7  1  0  0  0  0
  2  8  1  0  0  0  0
  2  1  2  0  0  0  0
  3  2  1  0  0  0  0
  4  3  2  0  0  0  0
  4  5  1  0  0  0  0
  5  6  2  0  0  0  0
  6  1  1  0  0  0  0
  6 11  1  0  0  0  0
  9  4  1  0  0  0  0
 10  5  1  0  0  0  0
 11 12  2  0  0  0  0
 13 11  2  0  0  0  0
 15 14  3  0  0  0  0
 16 18  1  0  0  0  0
 17 16  1  0  0  0  0
 19 16  1  0  0  0  0
 20  3  1  0  0  0  0
M  END
