Coordinates from ORCA-job 4-NO2-Ph-N2-BF4-B3LYPG-6-31G_dp-MTMO-d009-169-n800
 OpenBabel09051908343D

 20 18  0  0  0  0  0  0  0  0999 V2000
   -2.0485   -0.2294    0.6643 C   0  0  0  0  0  0  0  0  0  0  0  0
   -0.7529    0.2766    0.6117 C   0  0  0  0  0  0  0  0  0  0  0  0
   -0.5660    1.6338    0.8523 C   0  0  0  0  0  0  0  0  0  0  0  0
   -1.6104    2.5063    1.1415 C   0  0  0  0  0  0  0  0  0  0  0  0
   -2.9041    1.9964    1.1932 C   0  0  0  0  0  0  0  0  0  0  0  0
   -3.1026    0.6367    0.9538 C   0  0  0  0  0  0  0  0  0  0  0  0
   -2.2548   -1.2768    0.4847 H   0  0  0  0  0  0  0  0  0  0  0  0
    0.0987   -0.3546    0.3898 H   0  0  0  0  0  0  0  0  0  0  0  0
   -1.4029    3.5549    1.3214 H   0  0  0  0  0  0  0  0  0  0  0  0
   -3.7551    2.6280    1.4141 H   0  0  0  0  0  0  0  0  0  0  0  0
   -4.4699    0.0989    1.0088 N   0  0  0  0  0  0  0  0  0  0  0  0
   -4.6174   -1.1035    0.7944 O   0  0  0  0  0  0  0  0  0  0  0  0
   -5.3806    0.8851    1.2661 O   0  0  0  0  0  0  0  0  0  0  0  0
   12.3680   -0.6196   -3.2540 N   0  0  0  0  0  0  0  0  0  0  0  0
   11.3232   -0.5285   -2.9055 N   0  0  0  0  0  0  0  0  0  0  0  0
    2.8918    1.2297   -0.0211 B   0  0  0  0  0  0  0  0  0  0  0  0
    2.4574   -0.0212    0.0402 F   0  0  0  0  0  0  0  0  0  0  0  0
    3.4945    1.7636    1.0210 F   0  0  0  0  0  0  0  0  0  0  0  0
    2.7841    1.9025   -1.1489 F   0  0  0  0  0  0  0  0  0  0  0  0
    0.6909    2.1399    0.8056 F   0  0  0  0  0  0  0  0  0  0  0  0
  1  6  1  0  0  0  0
  2  1  2  0  0  0  0
  2  3  1  0  0  0  0
  3  4  2  0  0  0  0
  4  5  1  0  0  0  0
  4  9  1  0  0  0  0
  5 10  1  0  0  0  0
  6 11  1  0  0  0  0
  6  5  2  0  0  0  0
  7  1  1  0  0  0  0
  8  2  1  0  0  0  0
 11 13  2  0  0  0  0
 12 11  2  0  0  0  0
 14 15  3  0  0  0  0
 16 17  1  0  0  0  0
 16 18  1  0  0  0  0
 19 16  1  0  0  0  0
 20  3  1  0  0  0  0
M  END
