Coordinates from ORCA-job 4-NO2-Ph-N2-BF4-B3LYPG-6-31G_dp-MTMO-d009-169-n800
 OpenBabel09051908343D

 20 18  0  0  0  0  0  0  0  0999 V2000
   -1.7819   -0.2612    0.5947 C   0  0  0  0  0  0  0  0  0  0  0  0
   -0.4780    0.2204    0.5231 C   0  0  0  0  0  0  0  0  0  0  0  0
   -0.2639    1.5766    0.7470 C   0  0  0  0  0  0  0  0  0  0  0  0
   -1.2890    2.4712    1.0374 C   0  0  0  0  0  0  0  0  0  0  0  0
   -2.5912    1.9855    1.1080 C   0  0  0  0  0  0  0  0  0  0  0  0
   -2.8170    0.6271    0.8855 C   0  0  0  0  0  0  0  0  0  0  0  0
   -2.0092   -1.3066    0.4287 H   0  0  0  0  0  0  0  0  0  0  0  0
    0.3600   -0.4281    0.2991 H   0  0  0  0  0  0  0  0  0  0  0  0
   -1.0607    3.5177    1.2037 H   0  0  0  0  0  0  0  0  0  0  0  0
   -3.4282    2.6350    1.3306 H   0  0  0  0  0  0  0  0  0  0  0  0
   -4.1932    0.1153    0.9604 N   0  0  0  0  0  0  0  0  0  0  0  0
   -4.3649   -1.0865    0.7610 O   0  0  0  0  0  0  0  0  0  0  0  0
   -5.0868    0.9209    1.2179 O   0  0  0  0  0  0  0  0  0  0  0  0
    9.7520   -0.1687   -2.4316 N   0  0  0  0  0  0  0  0  0  0  0  0
    8.7094   -0.0851   -2.0743 N   0  0  0  0  0  0  0  0  0  0  0  0
    3.1818    1.0930   -0.1538 B   0  0  0  0  0  0  0  0  0  0  0  0
    2.7168   -0.1472   -0.0974 F   0  0  0  0  0  0  0  0  0  0  0  0
    3.7987    1.6075    0.8897 F   0  0  0  0  0  0  0  0  0  0  0  0
    3.0874    1.7737   -1.2780 F   0  0  0  0  0  0  0  0  0  0  0  0
    1.0013    2.0586    0.6814 F   0  0  0  0  0  0  0  0  0  0  0  0
  1  6  1  0  0  0  0
  2  1  2  0  0  0  0
  2  3  1  0  0  0  0
  3  4  2  0  0  0  0
  4  5  1  0  0  0  0
  4  9  1  0  0  0  0
  5 10  1  0  0  0  0
  6 11  1  0  0  0  0
  6  5  2  0  0  0  0
  7  1  1  0  0  0  0
  8  2  1  0  0  0  0
 11 13  2  0  0  0  0
 12 11  2  0  0  0  0
 14 15  3  0  0  0  0
 16 17  1  0  0  0  0
 16 18  1  0  0  0  0
 19 16  1  0  0  0  0
 20  3  1  0  0  0  0
M  END
