Coordinates from ORCA-job 4-NO2-Ph-N2-BF4-B3LYPG-6-31G_dp-MTMO-d009-169-n800
 OpenBabel09051908343D

 20 18  0  0  0  0  0  0  0  0999 V2000
   -1.2586   -0.2492    0.5696 C   0  0  0  0  0  0  0  0  0  0  0  0
    0.0962   -0.0290    0.8002 C   0  0  0  0  0  0  0  0  0  0  0  0
    0.5535    1.2845    0.8321 C   0  0  0  0  0  0  0  0  0  0  0  0
   -0.2777    2.3839    0.6428 C   0  0  0  0  0  0  0  0  0  0  0  0
   -1.6313    2.1593    0.4123 C   0  0  0  0  0  0  0  0  0  0  0  0
   -2.1005    0.8462    0.3789 C   0  0  0  0  0  0  0  0  0  0  0  0
   -1.6716   -1.2494    0.5342 H   0  0  0  0  0  0  0  0  0  0  0  0
    0.7909   -0.8453    0.9534 H   0  0  0  0  0  0  0  0  0  0  0  0
    0.1363    3.3850    0.6779 H   0  0  0  0  0  0  0  0  0  0  0  0
   -2.3244    2.9762    0.2575 H   0  0  0  0  0  0  0  0  0  0  0  0
   -3.5305    0.6098    0.1330 N   0  0  0  0  0  0  0  0  0  0  0  0
   -3.9197   -0.5570    0.1121 O   0  0  0  0  0  0  0  0  0  0  0  0
   -4.2491    1.5940   -0.0373 O   0  0  0  0  0  0  0  0  0  0  0  0
    2.3681    1.5974   -2.0298 N   0  0  0  0  0  0  0  0  0  0  0  0
    2.6539    1.6231   -3.0970 N   0  0  0  0  0  0  0  0  0  0  0  0
    3.9203    0.0342    1.1085 B   0  0  0  0  0  0  0  0  0  0  0  0
    3.1760   -1.0590    1.1913 F   0  0  0  0  0  0  0  0  0  0  0  0
    4.3031    0.6507    2.2072 F   0  0  0  0  0  0  0  0  0  0  0  0
    4.3386    0.4495   -0.0709 F   0  0  0  0  0  0  0  0  0  0  0  0
    1.8699    1.5141    1.0572 F   0  0  0  0  0  0  0  0  0  0  0  0
  1  2  2  0  0  0  0
  2  3  1  0  0  0  0
  2  8  1  0  0  0  0
  3 20  1  0  0  0  0
  4  9  1  0  0  0  0
  4  3  2  0  0  0  0
  5  4  1  0  0  0  0
  6  5  2  0  0  0  0
  6  1  1  0  0  0  0
  7  1  1  0  0  0  0
 10  5  1  0  0  0  0
 11  6  1  0  0  0  0
 12 11  2  0  0  0  0
 13 11  2  0  0  0  0
 15 14  3  0  0  0  0
 16 17  1  0  0  0  0
 16 18  1  0  0  0  0
 19 16  1  0  0  0  0
M  END
