Coordinates from ORCA-job 4-NO2-Ph-N2-BF4-B3LYPG-6-31G_dp-MTMO-d009-169-n800
 OpenBabel09051908343D

 20 18  0  0  0  0  0  0  0  0999 V2000
   -2.0856   -0.1976    0.5679 C   0  0  0  0  0  0  0  0  0  0  0  0
   -0.8771    0.4928    0.5796 C   0  0  0  0  0  0  0  0  0  0  0  0
   -0.8802    1.8178    1.0035 C   0  0  0  0  0  0  0  0  0  0  0  0
   -2.0310    2.4831    1.4139 C   0  0  0  0  0  0  0  0  0  0  0  0
   -3.2371    1.7890    1.4008 C   0  0  0  0  0  0  0  0  0  0  0  0
   -3.2453    0.4598    0.9782 C   0  0  0  0  0  0  0  0  0  0  0  0
   -2.1443   -1.2299    0.2478 H   0  0  0  0  0  0  0  0  0  0  0  0
    0.0503    0.0277    0.2693 H   0  0  0  0  0  0  0  0  0  0  0  0
   -1.9715    3.5166    1.7344 H   0  0  0  0  0  0  0  0  0  0  0  0
   -4.1638    2.2551    1.7098 H   0  0  0  0  0  0  0  0  0  0  0  0
   -4.5203   -0.2728    0.9645 N   0  0  0  0  0  0  0  0  0  0  0  0
   -4.5001   -1.4437    0.5880 O   0  0  0  0  0  0  0  0  0  0  0  0
   -5.5275    0.3318    1.3303 O   0  0  0  0  0  0  0  0  0  0  0  0
   14.3687   -1.8726   -3.9062 N   0  0  0  0  0  0  0  0  0  0  0  0
   13.3442   -1.6762   -3.5409 N   0  0  0  0  0  0  0  0  0  0  0  0
    2.5764    2.0419    0.0754 B   0  0  0  0  0  0  0  0  0  0  0  0
    2.3296    0.7438   -0.0315 F   0  0  0  0  0  0  0  0  0  0  0  0
    3.1261    2.5145    1.1748 F   0  0  0  0  0  0  0  0  0  0  0  0
    2.3411    2.8364   -0.9491 F   0  0  0  0  0  0  0  0  0  0  0  0
    0.2905    2.5016    1.0227 F   0  0  0  0  0  0  0  0  0  0  0  0
  1  2  2  0  0  0  0
  1  6  1  0  0  0  0
  2  3  1  0  0  0  0
  3 20  1  0  0  0  0
  3  4  2  0  0  0  0
  4  9  1  0  0  0  0
  5  4  1  0  0  0  0
  5 10  1  0  0  0  0
  6  5  2  0  0  0  0
  7  1  1  0  0  0  0
  8  2  1  0  0  0  0
 11  6  1  0  0  0  0
 11 13  2  0  0  0  0
 12 11  2  0  0  0  0
 14 15  3  0  0  0  0
 16 18  1  0  0  0  0
 17 16  1  0  0  0  0
 19 16  1  0  0  0  0
M  END
