Coordinates from ORCA-job 4-NO2-Ph-N2-BF4-B3LYPG-6-31G_dp-MTMO-d009-169-n800
 OpenBabel09051908343D

 20 18  0  0  0  0  0  0  0  0999 V2000
   -1.1883   -0.3113    0.6439 C   0  0  0  0  0  0  0  0  0  0  0  0
    0.0748    0.1869    0.9493 C   0  0  0  0  0  0  0  0  0  0  0  0
    0.2068    1.5526    1.1779 C   0  0  0  0  0  0  0  0  0  0  0  0
   -0.8614    2.4411    1.1128 C   0  0  0  0  0  0  0  0  0  0  0  0
   -2.1231    1.9393    0.8082 C   0  0  0  0  0  0  0  0  0  0  0  0
   -2.2665    0.5711    0.5786 C   0  0  0  0  0  0  0  0  0  0  0  0
   -1.3510   -1.3647    0.4545 H   0  0  0  0  0  0  0  0  0  0  0  0
    0.9443   -0.4562    1.0072 H   0  0  0  0  0  0  0  0  0  0  0  0
   -0.6976    3.4960    1.3015 H   0  0  0  0  0  0  0  0  0  0  0  0
   -2.9910    2.5833    0.7450 H   0  0  0  0  0  0  0  0  0  0  0  0
   -3.6000    0.0417    0.2572 N   0  0  0  0  0  0  0  0  0  0  0  0
   -3.6993   -1.1684    0.0588 O   0  0  0  0  0  0  0  0  0  0  0  0
   -4.5330    0.8422    0.2073 O   0  0  0  0  0  0  0  0  0  0  0  0
    5.2662   -0.5936   -2.6671 N   0  0  0  0  0  0  0  0  0  0  0  0
    5.0421    0.0790   -1.8205 N   0  0  0  0  0  0  0  0  0  0  0  0
    3.3920    1.3154    0.0887 B   0  0  0  0  0  0  0  0  0  0  0  0
    3.3540    0.1212    0.6609 F   0  0  0  0  0  0  0  0  0  0  0  0
    4.2049    2.2422    0.5521 F   0  0  0  0  0  0  0  0  0  0  0  0
    2.6389    1.5542   -0.9693 F   0  0  0  0  0  0  0  0  0  0  0  0
    1.4307    2.0468    1.4862 F   0  0  0  0  0  0  0  0  0  0  0  0
  1  2  1  0  0  0  0
  2  8  1  0  0  0  0
  2  3  2  0  0  0  0
  3 20  1  0  0  0  0
  4  3  1  0  0  0  0
  4  9  1  0  0  0  0
  5  4  2  0  0  0  0
  6  1  2  0  0  0  0
  6  5  1  0  0  0  0
  7  1  1  0  0  0  0
 10  5  1  0  0  0  0
 11  6  1  0  0  0  0
 12 11  2  0  0  0  0
 13 11  2  0  0  0  0
 14 15  3  0  0  0  0
 16 18  1  0  0  0  0
 16 17  1  0  0  0  0
 19 16  1  0  0  0  0
M  END
