Coordinates from ORCA-job 4-NO2-Ph-N2-BF4-B3LYPG-6-31G_dp-MTMO-d009-169-n800
 OpenBabel09051908343D

 20 18  0  0  0  0  0  0  0  0999 V2000
   -1.1929   -0.2391    0.4788 C   0  0  0  0  0  0  0  0  0  0  0  0
    0.1665   -0.0103    0.6671 C   0  0  0  0  0  0  0  0  0  0  0  0
    0.6179    1.3049    0.6715 C   0  0  0  0  0  0  0  0  0  0  0  0
   -0.2282    2.3997    0.5309 C   0  0  0  0  0  0  0  0  0  0  0  0
   -1.5866    2.1671    0.3428 C   0  0  0  0  0  0  0  0  0  0  0  0
   -2.0476    0.8510    0.3164 C   0  0  0  0  0  0  0  0  0  0  0  0
   -1.6009   -1.2418    0.4592 H   0  0  0  0  0  0  0  0  0  0  0  0
    0.8698   -0.8229    0.8006 H   0  0  0  0  0  0  0  0  0  0  0  0
    0.1788    3.4040    0.5608 H   0  0  0  0  0  0  0  0  0  0  0  0
   -2.2904    2.9803    0.2199 H   0  0  0  0  0  0  0  0  0  0  0  0
   -3.4833    0.6059    0.1166 N   0  0  0  0  0  0  0  0  0  0  0  0
   -3.8651   -0.5634    0.1033 O   0  0  0  0  0  0  0  0  0  0  0  0
   -4.2135    1.5860   -0.0258 O   0  0  0  0  0  0  0  0  0  0  0  0
    1.4896    1.3421   -1.8861 N   0  0  0  0  0  0  0  0  0  0  0  0
    2.5299    1.6416   -2.1109 N   0  0  0  0  0  0  0  0  0  0  0  0
    3.9785    0.0566    1.1280 B   0  0  0  0  0  0  0  0  0  0  0  0
    3.2352   -1.0392    1.1850 F   0  0  0  0  0  0  0  0  0  0  0  0
    4.3084    0.6813    2.2393 F   0  0  0  0  0  0  0  0  0  0  0  0
    4.4389    0.4713   -0.0350 F   0  0  0  0  0  0  0  0  0  0  0  0
    1.9384    1.5437    0.8707 F   0  0  0  0  0  0  0  0  0  0  0  0
  1  2  2  0  0  0  0
  2  3  1  0  0  0  0
  2  8  1  0  0  0  0
  3 20  1  0  0  0  0
  4  9  1  0  0  0  0
  4  3  2  0  0  0  0
  5  4  1  0  0  0  0
  6  5  2  0  0  0  0
  6  1  1  0  0  0  0
  7  1  1  0  0  0  0
 10  5  1  0  0  0  0
 11  6  1  0  0  0  0
 12 11  2  0  0  0  0
 13 11  2  0  0  0  0
 15 14  3  0  0  0  0
 16 17  1  0  0  0  0
 16 18  1  0  0  0  0
 19 16  1  0  0  0  0
M  END
