Coordinates from ORCA-job 4-NO2-Ph-N2-BF4-B3LYPG-6-31G_dp-MTMO-d009-169-n800
 OpenBabel09051908343D

 20 18  0  0  0  0  0  0  0  0999 V2000
   -2.1127   -0.1916    0.5720 C   0  0  0  0  0  0  0  0  0  0  0  0
   -0.9041    0.4990    0.5788 C   0  0  0  0  0  0  0  0  0  0  0  0
   -0.9053    1.8231    1.0053 C   0  0  0  0  0  0  0  0  0  0  0  0
   -2.0542    2.4873    1.4230 C   0  0  0  0  0  0  0  0  0  0  0  0
   -3.2601    1.7931    1.4147 C   0  0  0  0  0  0  0  0  0  0  0  0
   -3.2703    0.4646    0.9896 C   0  0  0  0  0  0  0  0  0  0  0  0
   -2.1727   -1.2233    0.2502 H   0  0  0  0  0  0  0  0  0  0  0  0
    0.0214    0.0343    0.2625 H   0  0  0  0  0  0  0  0  0  0  0  0
   -1.9930    3.5202    1.7451 H   0  0  0  0  0  0  0  0  0  0  0  0
   -4.1853    2.2585    1.7295 H   0  0  0  0  0  0  0  0  0  0  0  0
   -4.5452   -0.2681    0.9811 N   0  0  0  0  0  0  0  0  0  0  0  0
   -4.5267   -1.4384    0.6025 O   0  0  0  0  0  0  0  0  0  0  0  0
   -5.5506    0.3356    1.3531 O   0  0  0  0  0  0  0  0  0  0  0  0
   14.5952   -1.9104   -3.9623 N   0  0  0  0  0  0  0  0  0  0  0  0
   13.5702   -1.7198   -3.5955 N   0  0  0  0  0  0  0  0  0  0  0  0
    2.5509    2.0446    0.0739 B   0  0  0  0  0  0  0  0  0  0  0  0
    2.2958    0.7497   -0.0511 F   0  0  0  0  0  0  0  0  0  0  0  0
    3.1008    2.4986    1.1811 F   0  0  0  0  0  0  0  0  0  0  0  0
    2.3239    2.8544   -0.9403 F   0  0  0  0  0  0  0  0  0  0  0  0
    0.2652    2.5075    1.0199 F   0  0  0  0  0  0  0  0  0  0  0  0
  1  2  2  0  0  0  0
  1  6  1  0  0  0  0
  2  3  1  0  0  0  0
  3 20  1  0  0  0  0
  3  4  2  0  0  0  0
  4  9  1  0  0  0  0
  5  4  1  0  0  0  0
  5 10  1  0  0  0  0
  6  5  2  0  0  0  0
  7  1  1  0  0  0  0
  8  2  1  0  0  0  0
 11  6  1  0  0  0  0
 11 13  2  0  0  0  0
 12 11  2  0  0  0  0
 14 15  3  0  0  0  0
 16 18  1  0  0  0  0
 17 16  1  0  0  0  0
 19 16  1  0  0  0  0
M  END
