Coordinates from ORCA-job 4-NO2-Ph-N2-BF4-B3LYPG-6-31G_dp-MTMO-d009-169-n800
 OpenBabel09051908343D

 20 18  0  0  0  0  0  0  0  0999 V2000
   -1.4583   -0.3361    0.7427 C   0  0  0  0  0  0  0  0  0  0  0  0
   -0.1031   -0.1684    0.4741 C   0  0  0  0  0  0  0  0  0  0  0  0
    0.3550    1.1100    0.1728 C   0  0  0  0  0  0  0  0  0  0  0  0
   -0.4749    2.2253    0.1295 C   0  0  0  0  0  0  0  0  0  0  0  0
   -1.8293    2.0534    0.3983 C   0  0  0  0  0  0  0  0  0  0  0  0
   -2.2997    0.7755    0.7003 C   0  0  0  0  0  0  0  0  0  0  0  0
   -1.8716   -1.3071    0.9840 H   0  0  0  0  0  0  0  0  0  0  0  0
    0.5917   -0.9989    0.4985 H   0  0  0  0  0  0  0  0  0  0  0  0
   -0.0602    3.1971   -0.1122 H   0  0  0  0  0  0  0  0  0  0  0  0
   -2.5219    2.8852    0.3785 H   0  0  0  0  0  0  0  0  0  0  0  0
   -3.7311    0.5948    0.9839 N   0  0  0  0  0  0  0  0  0  0  0  0
   -4.1205   -0.5424    1.2455 O   0  0  0  0  0  0  0  0  0  0  0  0
   -4.4502    1.5922    0.9419 O   0  0  0  0  0  0  0  0  0  0  0  0
    4.1795    2.0860   -2.3132 N   0  0  0  0  0  0  0  0  0  0  0  0
    5.1543    2.3022   -2.7871 N   0  0  0  0  0  0  0  0  0  0  0  0
    3.5387    0.1050    1.0635 B   0  0  0  0  0  0  0  0  0  0  0  0
    3.0293   -1.0758    0.7463 F   0  0  0  0  0  0  0  0  0  0  0  0
    3.1898    0.6832    2.1959 F   0  0  0  0  0  0  0  0  0  0  0  0
    4.4528    0.6536    0.2885 F   0  0  0  0  0  0  0  0  0  0  0  0
    1.6730    1.2842   -0.0985 F   0  0  0  0  0  0  0  0  0  0  0  0
  1  7  1  0  0  0  0
  2  8  1  0  0  0  0
  2  1  2  0  0  0  0
  3  2  1  0  0  0  0
  4  3  2  0  0  0  0
  4  5  1  0  0  0  0
  5  6  2  0  0  0  0
  6  1  1  0  0  0  0
  6 11  1  0  0  0  0
  9  4  1  0  0  0  0
 10  5  1  0  0  0  0
 11 12  2  0  0  0  0
 13 11  2  0  0  0  0
 15 14  3  0  0  0  0
 16 18  1  0  0  0  0
 17 16  1  0  0  0  0
 19 16  1  0  0  0  0
 20  3  1  0  0  0  0
M  END
