Coordinates from ORCA-job 4-NO2-Ph-N2-BF4-B3LYPG-6-31G_dp-MTMO-d009-169-n800
 OpenBabel09051908343D

 20 18  0  0  0  0  0  0  0  0999 V2000
   -1.6592   -0.2729    0.5484 C   0  0  0  0  0  0  0  0  0  0  0  0
   -0.3541    0.1999    0.4464 C   0  0  0  0  0  0  0  0  0  0  0  0
   -0.1244    1.5534    0.6716 C   0  0  0  0  0  0  0  0  0  0  0  0
   -1.1354    2.4536    0.9927 C   0  0  0  0  0  0  0  0  0  0  0  0
   -2.4389    1.9768    1.0936 C   0  0  0  0  0  0  0  0  0  0  0  0
   -2.6802    0.6212    0.8699 C   0  0  0  0  0  0  0  0  0  0  0  0
   -1.8981   -1.3157    0.3828 H   0  0  0  0  0  0  0  0  0  0  0  0
    0.4737   -0.4531    0.1982 H   0  0  0  0  0  0  0  0  0  0  0  0
   -0.8955    3.4976    1.1585 H   0  0  0  0  0  0  0  0  0  0  0  0
   -3.2653    2.6311    1.3406 H   0  0  0  0  0  0  0  0  0  0  0  0
   -4.0577    0.1189    0.9766 N   0  0  0  0  0  0  0  0  0  0  0  0
   -4.2433   -1.0803    0.7743 O   0  0  0  0  0  0  0  0  0  0  0  0
   -4.9385    0.9292    1.2616 O   0  0  0  0  0  0  0  0  0  0  0  0
    8.4910    0.0331   -1.9409 N   0  0  0  0  0  0  0  0  0  0  0  0
    7.4437    0.1492   -1.6075 N   0  0  0  0  0  0  0  0  0  0  0  0
    3.3335    1.0234   -0.2719 B   0  0  0  0  0  0  0  0  0  0  0  0
    2.8399   -0.2062   -0.2327 F   0  0  0  0  0  0  0  0  0  0  0  0
    3.9532    1.5128    0.7820 F   0  0  0  0  0  0  0  0  0  0  0  0
    3.2565    1.7213   -1.3865 F   0  0  0  0  0  0  0  0  0  0  0  0
    1.1423    2.0257    0.5755 F   0  0  0  0  0  0  0  0  0  0  0  0
  1  6  1  0  0  0  0
  2  1  2  0  0  0  0
  2  3  1  0  0  0  0
  3  4  2  0  0  0  0
  4  5  1  0  0  0  0
  4  9  1  0  0  0  0
  5 10  1  0  0  0  0
  6 11  1  0  0  0  0
  6  5  2  0  0  0  0
  7  1  1  0  0  0  0
  8  2  1  0  0  0  0
 11 13  2  0  0  0  0
 12 11  2  0  0  0  0
 14 15  3  0  0  0  0
 16 17  1  0  0  0  0
 16 18  1  0  0  0  0
 19 16  1  0  0  0  0
 20  3  1  0  0  0  0
M  END
