Coordinates from ORCA-job 4-NO2-Ph-N2-BF4-B3LYPG-6-31G_dp-MTMO-d009-169-n800
 OpenBabel09051908343D

 20 18  0  0  0  0  0  0  0  0999 V2000
   -2.1664   -0.2135    0.6838 C   0  0  0  0  0  0  0  0  0  0  0  0
   -0.8782    0.3110    0.6347 C   0  0  0  0  0  0  0  0  0  0  0  0
   -0.7089    1.6662    0.8989 C   0  0  0  0  0  0  0  0  0  0  0  0
   -1.7637    2.5189    1.2083 C   0  0  0  0  0  0  0  0  0  0  0  0
   -3.0501    1.9903    1.2566 C   0  0  0  0  0  0  0  0  0  0  0  0
   -3.2310    0.6326    0.9935 C   0  0  0  0  0  0  0  0  0  0  0  0
   -2.3594   -1.2603    0.4863 H   0  0  0  0  0  0  0  0  0  0  0  0
   -0.0190   -0.3044    0.3981 H   0  0  0  0  0  0  0  0  0  0  0  0
   -1.5698    3.5669    1.4061 H   0  0  0  0  0  0  0  0  0  0  0  0
   -3.9085    2.6060    1.4926 H   0  0  0  0  0  0  0  0  0  0  0  0
   -4.5906    0.0751    1.0448 N   0  0  0  0  0  0  0  0  0  0  0  0
   -4.7226   -1.1250    0.8086 O   0  0  0  0  0  0  0  0  0  0  0  0
   -5.5107    0.8437    1.3209 O   0  0  0  0  0  0  0  0  0  0  0  0
   13.5866   -0.8710   -3.5930 N   0  0  0  0  0  0  0  0  0  0  0  0
   12.5405   -0.7681   -3.2513 N   0  0  0  0  0  0  0  0  0  0  0  0
    2.7482    1.3258    0.0034 B   0  0  0  0  0  0  0  0  0  0  0  0
    2.3392    0.0666    0.0680 F   0  0  0  0  0  0  0  0  0  0  0  0
    3.3522    1.8702    1.0393 F   0  0  0  0  0  0  0  0  0  0  0  0
    2.6148    1.9975   -1.1223 F   0  0  0  0  0  0  0  0  0  0  0  0
    0.5407    2.1903    0.8558 F   0  0  0  0  0  0  0  0  0  0  0  0
  1  6  1  0  0  0  0
  2  1  2  0  0  0  0
  2  3  1  0  0  0  0
  3  4  2  0  0  0  0
  4  5  1  0  0  0  0
  4  9  1  0  0  0  0
  5 10  1  0  0  0  0
  6 11  1  0  0  0  0
  6  5  2  0  0  0  0
  7  1  1  0  0  0  0
  8  2  1  0  0  0  0
 11 13  2  0  0  0  0
 12 11  2  0  0  0  0
 14 15  3  0  0  0  0
 16 17  1  0  0  0  0
 16 18  1  0  0  0  0
 19 16  1  0  0  0  0
 20  3  1  0  0  0  0
M  END
