Coordinates from ORCA-job 4-NO2-Ph-N2-BF4-B3LYPG-6-31G_dp-MTMO-d009-169-n800
 OpenBabel09051908343D

 20 19  0  0  0  0  0  0  0  0999 V2000
   -1.1056   -0.1148    0.5457 C   0  0  0  0  0  0  0  0  0  0  0  0
    0.2301    0.1404    0.2508 C   0  0  0  0  0  0  0  0  0  0  0  0
    0.5289    1.4083   -0.2624 C   0  0  0  0  0  0  0  0  0  0  0  0
   -0.4166    2.4210   -0.4886 C   0  0  0  0  0  0  0  0  0  0  0  0
   -1.7391    2.1451   -0.1736 C   0  0  0  0  0  0  0  0  0  0  0  0
   -2.0532    0.8835    0.3333 C   0  0  0  0  0  0  0  0  0  0  0  0
   -1.4164   -1.0719    0.9453 H   0  0  0  0  0  0  0  0  0  0  0  0
    1.0352   -0.5761    0.3972 H   0  0  0  0  0  0  0  0  0  0  0  0
   -0.1194    3.3845   -0.8862 H   0  0  0  0  0  0  0  0  0  0  0  0
   -2.5226    2.8785   -0.3139 H   0  0  0  0  0  0  0  0  0  0  0  0
   -3.4731    0.5960    0.6589 N   0  0  0  0  0  0  0  0  0  0  0  0
   -3.7306   -0.5192    1.0966 O   0  0  0  0  0  0  0  0  0  0  0  0
   -4.2827    1.4972    0.4625 O   0  0  0  0  0  0  0  0  0  0  0  0
    1.8526    1.7041   -0.6119 N   0  0  0  0  0  0  0  0  0  0  0  0
    2.8658    1.9998   -0.9656 N   0  0  0  0  0  0  0  0  0  0  0  0
    3.5476    0.0481    1.1614 B   0  0  0  0  0  0  0  0  0  0  0  0
    2.9085   -0.8637    0.2661 F   0  0  0  0  0  0  0  0  0  0  0  0
    4.2123   -0.6016    2.1608 F   0  0  0  0  0  0  0  0  0  0  0  0
    4.4046    0.8662    0.3835 F   0  0  0  0  0  0  0  0  0  0  0  0
    2.5171    0.8936    1.6735 F   0  0  0  0  0  0  0  0  0  0  0  0
  1  7  1  0  0  0  0
  2  8  1  0  0  0  0
  2  1  2  0  0  0  0
  3  2  1  0  0  0  0
  4  3  2  0  0  0  0
  4  5  1  0  0  0  0
  5  6  2  0  0  0  0
  6  1  1  0  0  0  0
  6 11  1  0  0  0  0
  9  4  1  0  0  0  0
 10  5  1  0  0  0  0
 11 12  2  0  0  0  0
 13 11  2  0  0  0  0
 14  3  1  0  0  0  0
 15 14  1  0  0  0  0
 16 20  1  0  0  0  0
 16 18  1  0  0  0  0
 17 16  1  0  0  0  0
 19 16  1  0  0  0  0
M  RAD  2  14   2  15   3
M  END
