Coordinates from ORCA-job 4-NO2-Ph-N2-BF4-B3LYPG-6-31G_dp-MTMO-d009-169-n800
 OpenBabel09051908343D

 20 18  0  0  0  0  0  0  0  0999 V2000
   -1.1837   -0.3121    0.6449 C   0  0  0  0  0  0  0  0  0  0  0  0
    0.0780    0.1867    0.9548 C   0  0  0  0  0  0  0  0  0  0  0  0
    0.2088    1.5526    1.1831 C   0  0  0  0  0  0  0  0  0  0  0  0
   -0.8595    2.4407    1.1137 C   0  0  0  0  0  0  0  0  0  0  0  0
   -2.1199    1.9382    0.8046 C   0  0  0  0  0  0  0  0  0  0  0  0
   -2.2620    0.5699    0.5751 C   0  0  0  0  0  0  0  0  0  0  0  0
   -1.3454   -1.3657    0.4554 H   0  0  0  0  0  0  0  0  0  0  0  0
    0.9478   -0.4558    1.0161 H   0  0  0  0  0  0  0  0  0  0  0  0
   -0.6969    3.4957    1.3025 H   0  0  0  0  0  0  0  0  0  0  0  0
   -2.9878    2.5819    0.7379 H   0  0  0  0  0  0  0  0  0  0  0  0
   -3.5940    0.0400    0.2490 N   0  0  0  0  0  0  0  0  0  0  0  0
   -3.6922   -1.1703    0.0508 O   0  0  0  0  0  0  0  0  0  0  0  0
   -4.5271    0.8401    0.1950 O   0  0  0  0  0  0  0  0  0  0  0  0
    5.2260   -0.6050   -2.6757 N   0  0  0  0  0  0  0  0  0  0  0  0
    5.0242    0.0729   -1.8277 N   0  0  0  0  0  0  0  0  0  0  0  0
    3.3934    1.3226    0.0952 B   0  0  0  0  0  0  0  0  0  0  0  0
    3.3577    0.1278    0.6663 F   0  0  0  0  0  0  0  0  0  0  0  0
    4.2066    2.2496    0.5576 F   0  0  0  0  0  0  0  0  0  0  0  0
    2.6378    1.5618   -0.9610 F   0  0  0  0  0  0  0  0  0  0  0  0
    1.4313    2.0472    1.4957 F   0  0  0  0  0  0  0  0  0  0  0  0
  1  2  1  0  0  0  0
  2  8  1  0  0  0  0
  2  3  2  0  0  0  0
  3 20  1  0  0  0  0
  4  3  1  0  0  0  0
  4  9  1  0  0  0  0
  5  4  2  0  0  0  0
  6  1  2  0  0  0  0
  6  5  1  0  0  0  0
  7  1  1  0  0  0  0
 10  5  1  0  0  0  0
 11  6  1  0  0  0  0
 12 11  2  0  0  0  0
 13 11  2  0  0  0  0
 14 15  3  0  0  0  0
 16 18  1  0  0  0  0
 16 17  1  0  0  0  0
 19 16  1  0  0  0  0
M  END
