Coordinates from ORCA-job 4-NO2-Ph-N2-BF4-B3LYPG-6-31G_dp-MTMO-d009-169-n800
 OpenBabel09051908343D

 20 18  0  0  0  0  0  0  0  0999 V2000
   -2.0747   -0.1997    0.5659 C   0  0  0  0  0  0  0  0  0  0  0  0
   -0.8663    0.4909    0.5795 C   0  0  0  0  0  0  0  0  0  0  0  0
   -0.8703    1.8161    1.0026 C   0  0  0  0  0  0  0  0  0  0  0  0
   -2.0221    2.4814    1.4106 C   0  0  0  0  0  0  0  0  0  0  0  0
   -3.2280    1.7872    1.3956 C   0  0  0  0  0  0  0  0  0  0  0  0
   -3.2353    0.4577    0.9737 C   0  0  0  0  0  0  0  0  0  0  0  0
   -2.1326   -1.2321    0.2462 H   0  0  0  0  0  0  0  0  0  0  0  0
    0.0615    0.0255    0.2711 H   0  0  0  0  0  0  0  0  0  0  0  0
   -1.9633    3.5151    1.7306 H   0  0  0  0  0  0  0  0  0  0  0  0
   -4.1553    2.2534    1.7028 H   0  0  0  0  0  0  0  0  0  0  0  0
   -4.5101   -0.2750    0.9581 N   0  0  0  0  0  0  0  0  0  0  0  0
   -4.4891   -1.4461    0.5821 O   0  0  0  0  0  0  0  0  0  0  0  0
   -5.5180    0.3295    1.3218 O   0  0  0  0  0  0  0  0  0  0  0  0
   14.2817   -1.8591   -3.8845 N   0  0  0  0  0  0  0  0  0  0  0  0
   13.2574   -1.6602   -3.5200 N   0  0  0  0  0  0  0  0  0  0  0  0
    2.5850    2.0412    0.0763 B   0  0  0  0  0  0  0  0  0  0  0  0
    2.3411    0.7420   -0.0231 F   0  0  0  0  0  0  0  0  0  0  0  0
    3.1347    2.5212    1.1725 F   0  0  0  0  0  0  0  0  0  0  0  0
    2.3469    2.8295   -0.9523 F   0  0  0  0  0  0  0  0  0  0  0  0
    0.3002    2.5004    1.0235 F   0  0  0  0  0  0  0  0  0  0  0  0
  1  2  2  0  0  0  0
  1  6  1  0  0  0  0
  2  3  1  0  0  0  0
  3 20  1  0  0  0  0
  3  4  2  0  0  0  0
  4  9  1  0  0  0  0
  5  4  1  0  0  0  0
  5 10  1  0  0  0  0
  6  5  2  0  0  0  0
  7  1  1  0  0  0  0
  8  2  1  0  0  0  0
 11  6  1  0  0  0  0
 11 13  2  0  0  0  0
 12 11  2  0  0  0  0
 14 15  3  0  0  0  0
 16 18  1  0  0  0  0
 17 16  1  0  0  0  0
 19 16  1  0  0  0  0
M  END
