Coordinates from ORCA-job 4-NO2-Ph-N2-BF4-B3LYPG-6-31G_dp-MTMO-d009-169-n800
 OpenBabel09051908343D

 20 18  0  0  0  0  0  0  0  0999 V2000
   -2.0945   -0.2234    0.6736 C   0  0  0  0  0  0  0  0  0  0  0  0
   -0.8010    0.2878    0.6219 C   0  0  0  0  0  0  0  0  0  0  0  0
   -0.6191    1.6445    0.8690 C   0  0  0  0  0  0  0  0  0  0  0  0
   -1.6665    2.5115    1.1637 C   0  0  0  0  0  0  0  0  0  0  0  0
   -2.9582    1.9963    1.2145 C   0  0  0  0  0  0  0  0  0  0  0  0
   -3.1517    0.6371    0.9686 C   0  0  0  0  0  0  0  0  0  0  0  0
   -2.2970   -1.2708    0.4891 H   0  0  0  0  0  0  0  0  0  0  0  0
    0.0527   -0.3391    0.3960 H   0  0  0  0  0  0  0  0  0  0  0  0
   -1.4629    3.5600    1.3485 H   0  0  0  0  0  0  0  0  0  0  0  0
   -3.8113    2.6235    1.4395 H   0  0  0  0  0  0  0  0  0  0  0  0
   -4.5168    0.0937    1.0226 N   0  0  0  0  0  0  0  0  0  0  0  0
   -4.6599   -1.1082    0.8024 O   0  0  0  0  0  0  0  0  0  0  0  0
   -5.4303    0.8750    1.2850 O   0  0  0  0  0  0  0  0  0  0  0  0
   12.8268   -0.7053   -3.3835 N   0  0  0  0  0  0  0  0  0  0  0  0
   11.7813   -0.6106   -3.0377 N   0  0  0  0  0  0  0  0  0  0  0  0
    2.8387    1.2587   -0.0097 B   0  0  0  0  0  0  0  0  0  0  0  0
    2.4113    0.0054    0.0518 F   0  0  0  0  0  0  0  0  0  0  0  0
    3.4413    1.7951    1.0313 F   0  0  0  0  0  0  0  0  0  0  0  0
    2.7246    1.9317   -1.1367 F   0  0  0  0  0  0  0  0  0  0  0  0
    0.6357    2.1558    0.8233 F   0  0  0  0  0  0  0  0  0  0  0  0
  1  6  1  0  0  0  0
  2  1  2  0  0  0  0
  2  3  1  0  0  0  0
  3  4  2  0  0  0  0
  4  5  1  0  0  0  0
  4  9  1  0  0  0  0
  5 10  1  0  0  0  0
  6 11  1  0  0  0  0
  6  5  2  0  0  0  0
  7  1  1  0  0  0  0
  8  2  1  0  0  0  0
 11 13  2  0  0  0  0
 12 11  2  0  0  0  0
 14 15  3  0  0  0  0
 16 17  1  0  0  0  0
 16 18  1  0  0  0  0
 19 16  1  0  0  0  0
 20  3  1  0  0  0  0
M  END
