Coordinates from ORCA-job 4-NO2-Ph-N2-BF4-B3LYPG-6-31G_dp-MTMO-d009-169-n800
 OpenBabel09051908343D

 20 18  0  0  0  0  0  0  0  0999 V2000
   -1.4544   -0.3347    0.7392 C   0  0  0  0  0  0  0  0  0  0  0  0
   -0.0981   -0.1663    0.4766 C   0  0  0  0  0  0  0  0  0  0  0  0
    0.3607    1.1128    0.1791 C   0  0  0  0  0  0  0  0  0  0  0  0
   -0.4692    2.2280    0.1338 C   0  0  0  0  0  0  0  0  0  0  0  0
   -1.8247    2.0552    0.3968 C   0  0  0  0  0  0  0  0  0  0  0  0
   -2.2959    0.7768    0.6950 C   0  0  0  0  0  0  0  0  0  0  0  0
   -1.8686   -1.3061    0.9773 H   0  0  0  0  0  0  0  0  0  0  0  0
    0.5969   -0.9965    0.5026 H   0  0  0  0  0  0  0  0  0  0  0  0
   -0.0537    3.2002   -0.1047 H   0  0  0  0  0  0  0  0  0  0  0  0
   -2.5175    2.8868    0.3753 H   0  0  0  0  0  0  0  0  0  0  0  0
   -3.7284    0.5954    0.9724 N   0  0  0  0  0  0  0  0  0  0  0  0
   -4.1187   -0.5423    1.2308 O   0  0  0  0  0  0  0  0  0  0  0  0
   -4.4476    1.5927    0.9290 O   0  0  0  0  0  0  0  0  0  0  0  0
    4.1380    2.0799   -2.3076 N   0  0  0  0  0  0  0  0  0  0  0  0
    5.1067    2.2965   -2.7935 N   0  0  0  0  0  0  0  0  0  0  0  0
    3.5454    0.1018    1.0692 B   0  0  0  0  0  0  0  0  0  0  0  0
    3.0312   -1.0772    0.7527 F   0  0  0  0  0  0  0  0  0  0  0  0
    3.2027    0.6799    2.2034 F   0  0  0  0  0  0  0  0  0  0  0  0
    4.4587    0.6480    0.2914 F   0  0  0  0  0  0  0  0  0  0  0  0
    1.6798    1.2880   -0.0859 F   0  0  0  0  0  0  0  0  0  0  0  0
  1  7  1  0  0  0  0
  2  8  1  0  0  0  0
  2  1  2  0  0  0  0
  3  2  1  0  0  0  0
  4  3  2  0  0  0  0
  4  5  1  0  0  0  0
  5  6  2  0  0  0  0
  6  1  1  0  0  0  0
  6 11  1  0  0  0  0
  9  4  1  0  0  0  0
 10  5  1  0  0  0  0
 11 12  2  0  0  0  0
 13 11  2  0  0  0  0
 15 14  3  0  0  0  0
 16 18  1  0  0  0  0
 17 16  1  0  0  0  0
 19 16  1  0  0  0  0
 20  3  1  0  0  0  0
M  END
