Coordinates from ORCA-job 4-NO2-Ph-N2-BF4-B3LYPG-6-31G_dp-MTMO-d009-169-n800
 OpenBabel09051908343D

 20 18  0  0  0  0  0  0  0  0999 V2000
   -1.7944   -0.2603    0.5988 C   0  0  0  0  0  0  0  0  0  0  0  0
   -0.4905    0.2219    0.5288 C   0  0  0  0  0  0  0  0  0  0  0  0
   -0.2774    1.5782    0.7525 C   0  0  0  0  0  0  0  0  0  0  0  0
   -1.3032    2.4725    1.0414 C   0  0  0  0  0  0  0  0  0  0  0  0
   -2.6053    1.9863    1.1104 C   0  0  0  0  0  0  0  0  0  0  0  0
   -2.8302    0.6278    0.8879 C   0  0  0  0  0  0  0  0  0  0  0  0
   -2.0210   -1.3058    0.4327 H   0  0  0  0  0  0  0  0  0  0  0  0
    0.3480   -0.4263    0.3060 H   0  0  0  0  0  0  0  0  0  0  0  0
   -1.0755    3.5192    1.2077 H   0  0  0  0  0  0  0  0  0  0  0  0
   -3.4428    2.6354    1.3317 H   0  0  0  0  0  0  0  0  0  0  0  0
   -4.2063    0.1154    0.9612 N   0  0  0  0  0  0  0  0  0  0  0  0
   -4.3773   -1.0865    0.7620 O   0  0  0  0  0  0  0  0  0  0  0  0
   -5.1005    0.9207    1.2173 O   0  0  0  0  0  0  0  0  0  0  0  0
    9.8697   -0.1864   -2.4720 N   0  0  0  0  0  0  0  0  0  0  0  0
    8.8270   -0.1050   -2.1146 N   0  0  0  0  0  0  0  0  0  0  0  0
    3.1693    1.0990   -0.1457 B   0  0  0  0  0  0  0  0  0  0  0  0
    2.7058   -0.1416   -0.0890 F   0  0  0  0  0  0  0  0  0  0  0  0
    3.7854    1.6145    0.8978 F   0  0  0  0  0  0  0  0  0  0  0  0
    3.0747    1.7792   -1.2701 F   0  0  0  0  0  0  0  0  0  0  0  0
    0.9878    2.0607    0.6885 F   0  0  0  0  0  0  0  0  0  0  0  0
  1  6  1  0  0  0  0
  2  1  2  0  0  0  0
  2  3  1  0  0  0  0
  3  4  2  0  0  0  0
  4  5  1  0  0  0  0
  4  9  1  0  0  0  0
  5 10  1  0  0  0  0
  6 11  1  0  0  0  0
  6  5  2  0  0  0  0
  7  1  1  0  0  0  0
  8  2  1  0  0  0  0
 11 13  2  0  0  0  0
 12 11  2  0  0  0  0
 14 15  3  0  0  0  0
 16 17  1  0  0  0  0
 16 18  1  0  0  0  0
 19 16  1  0  0  0  0
 20  3  1  0  0  0  0
M  END
