Coordinates from ORCA-job 4-NO2-Ph-N2-BF4-B3LYPG-6-31G_dp-MTMO-d009-169-n800
 OpenBabel09051908343D

 20 18  0  0  0  0  0  0  0  0999 V2000
   -1.6401   -0.2726    0.5253 C   0  0  0  0  0  0  0  0  0  0  0  0
   -0.3343    0.1875    0.3822 C   0  0  0  0  0  0  0  0  0  0  0  0
   -0.0833    1.5379    0.6037 C   0  0  0  0  0  0  0  0  0  0  0  0
   -1.0740    2.4471    0.9610 C   0  0  0  0  0  0  0  0  0  0  0  0
   -2.3783    1.9832    1.1031 C   0  0  0  0  0  0  0  0  0  0  0  0
   -2.6408    0.6309    0.8829 C   0  0  0  0  0  0  0  0  0  0  0  0
   -1.8950   -1.3123    0.3644 H   0  0  0  0  0  0  0  0  0  0  0  0
    0.4789   -0.4727    0.1060 H   0  0  0  0  0  0  0  0  0  0  0  0
   -0.8181    3.4880    1.1222 H   0  0  0  0  0  0  0  0  0  0  0  0
   -3.1893    2.6450    1.3790 H   0  0  0  0  0  0  0  0  0  0  0  0
   -4.0191    0.1424    1.0326 N   0  0  0  0  0  0  0  0  0  0  0  0
   -4.2241   -1.0538    0.8304 O   0  0  0  0  0  0  0  0  0  0  0  0
   -4.8816    0.9601    1.3510 O   0  0  0  0  0  0  0  0  0  0  0  0
    8.0574    0.2376   -1.6621 N   0  0  0  0  0  0  0  0  0  0  0  0
    6.9980    0.3426   -1.3649 N   0  0  0  0  0  0  0  0  0  0  0  0
    3.4164    0.9177   -0.3582 B   0  0  0  0  0  0  0  0  0  0  0  0
    2.8681   -0.2887   -0.3320 F   0  0  0  0  0  0  0  0  0  0  0  0
    4.0370    1.3770    0.7084 F   0  0  0  0  0  0  0  0  0  0  0  0
    3.3812    1.6258   -1.4682 F   0  0  0  0  0  0  0  0  0  0  0  0
    1.1843    1.9959    0.4662 F   0  0  0  0  0  0  0  0  0  0  0  0
  1  6  1  0  0  0  0
  2  1  2  0  0  0  0
  2  3  1  0  0  0  0
  3  4  2  0  0  0  0
  4  5  1  0  0  0  0
  4  9  1  0  0  0  0
  5 10  1  0  0  0  0
  6 11  1  0  0  0  0
  6  5  2  0  0  0  0
  7  1  1  0  0  0  0
  8  2  1  0  0  0  0
 11 13  2  0  0  0  0
 12 11  2  0  0  0  0
 14 15  3  0  0  0  0
 16 17  1  0  0  0  0
 16 18  1  0  0  0  0
 19 16  1  0  0  0  0
 20  3  1  0  0  0  0
M  END
