Coordinates from ORCA-job 4-NO2-Ph-N2-BF4-B3LYPG-6-31G_dp-MTMO-d009-169-n800
 OpenBabel09051908343D

 20 18  0  0  0  0  0  0  0  0999 V2000
   -2.1481   -0.2164    0.6825 C   0  0  0  0  0  0  0  0  0  0  0  0
   -0.8576    0.3024    0.6316 C   0  0  0  0  0  0  0  0  0  0  0  0
   -0.6827    1.6583    0.8887 C   0  0  0  0  0  0  0  0  0  0  0  0
   -1.7340    2.5171    1.1929 C   0  0  0  0  0  0  0  0  0  0  0  0
   -3.0227    1.9942    1.2431 C   0  0  0  0  0  0  0  0  0  0  0  0
   -3.2092    0.6360    0.9870 C   0  0  0  0  0  0  0  0  0  0  0  0
   -2.3454   -1.2634    0.4904 H   0  0  0  0  0  0  0  0  0  0  0  0
   -0.0007   -0.3176    0.3987 H   0  0  0  0  0  0  0  0  0  0  0  0
   -1.5358    3.5653    1.3854 H   0  0  0  0  0  0  0  0  0  0  0  0
   -3.8787    2.6148    1.4752 H   0  0  0  0  0  0  0  0  0  0  0  0
   -4.5712    0.0845    1.0403 N   0  0  0  0  0  0  0  0  0  0  0  0
   -4.7081   -1.1162    0.8105 O   0  0  0  0  0  0  0  0  0  0  0  0
   -5.4882    0.8585    1.3115 O   0  0  0  0  0  0  0  0  0  0  0  0
   13.3697   -0.8140   -3.5324 N   0  0  0  0  0  0  0  0  0  0  0  0
   12.3236   -0.7146   -3.1898 N   0  0  0  0  0  0  0  0  0  0  0  0
    2.7755    1.2992   -0.0003 B   0  0  0  0  0  0  0  0  0  0  0  0
    2.3584    0.0425    0.0619 F   0  0  0  0  0  0  0  0  0  0  0  0
    3.3785    1.8393    1.0384 F   0  0  0  0  0  0  0  0  0  0  0  0
    2.6509    1.9723   -1.1262 F   0  0  0  0  0  0  0  0  0  0  0  0
    0.5692    2.1766    0.8437 F   0  0  0  0  0  0  0  0  0  0  0  0
  1  6  1  0  0  0  0
  2  1  2  0  0  0  0
  2  3  1  0  0  0  0
  3  4  2  0  0  0  0
  4  5  1  0  0  0  0
  4  9  1  0  0  0  0
  5 10  1  0  0  0  0
  6 11  1  0  0  0  0
  6  5  2  0  0  0  0
  7  1  1  0  0  0  0
  8  2  1  0  0  0  0
 11 13  2  0  0  0  0
 12 11  2  0  0  0  0
 14 15  3  0  0  0  0
 16 17  1  0  0  0  0
 16 18  1  0  0  0  0
 19 16  1  0  0  0  0
 20  3  1  0  0  0  0
M  END
