Coordinates from ORCA-job 4-NO2-Ph-N2-BF4-B3LYPG-6-31G_dp-MTMO-d009-169-n800
 OpenBabel09051908343D

 20 18  0  0  0  0  0  0  0  0999 V2000
   -2.0607   -0.2280    0.6674 C   0  0  0  0  0  0  0  0  0  0  0  0
   -0.7655    0.2791    0.6151 C   0  0  0  0  0  0  0  0  0  0  0  0
   -0.5798    1.6363    0.8569 C   0  0  0  0  0  0  0  0  0  0  0  0
   -1.6248    2.5077    1.1471 C   0  0  0  0  0  0  0  0  0  0  0  0
   -2.9181    1.9966    1.1985 C   0  0  0  0  0  0  0  0  0  0  0  0
   -3.1155    0.6370    0.9577 C   0  0  0  0  0  0  0  0  0  0  0  0
   -2.2663   -1.2754    0.4868 H   0  0  0  0  0  0  0  0  0  0  0  0
    0.0867   -0.3510    0.3925 H   0  0  0  0  0  0  0  0  0  0  0  0
   -1.4181    3.5564    1.3279 H   0  0  0  0  0  0  0  0  0  0  0  0
   -3.7695    2.6273    1.4200 H   0  0  0  0  0  0  0  0  0  0  0  0
   -4.4824    0.0982    1.0120 N   0  0  0  0  0  0  0  0  0  0  0  0
   -4.6290   -1.1040    0.7961 O   0  0  0  0  0  0  0  0  0  0  0  0
   -5.3938    0.8835    1.2696 O   0  0  0  0  0  0  0  0  0  0  0  0
   12.4870   -0.6404   -3.2882 N   0  0  0  0  0  0  0  0  0  0  0  0
   11.4419   -0.5486   -2.9403 N   0  0  0  0  0  0  0  0  0  0  0  0
    2.8785    1.2363   -0.0179 B   0  0  0  0  0  0  0  0  0  0  0  0
    2.4461   -0.0153    0.0438 F   0  0  0  0  0  0  0  0  0  0  0  0
    3.4811    1.7711    1.0238 F   0  0  0  0  0  0  0  0  0  0  0  0
    2.7691    1.9088   -1.1456 F   0  0  0  0  0  0  0  0  0  0  0  0
    0.6766    2.1433    0.8102 F   0  0  0  0  0  0  0  0  0  0  0  0
  1  6  1  0  0  0  0
  2  1  2  0  0  0  0
  2  3  1  0  0  0  0
  3  4  2  0  0  0  0
  4  5  1  0  0  0  0
  4  9  1  0  0  0  0
  5 10  1  0  0  0  0
  6 11  1  0  0  0  0
  6  5  2  0  0  0  0
  7  1  1  0  0  0  0
  8  2  1  0  0  0  0
 11 13  2  0  0  0  0
 12 11  2  0  0  0  0
 14 15  3  0  0  0  0
 16 17  1  0  0  0  0
 16 18  1  0  0  0  0
 19 16  1  0  0  0  0
 20  3  1  0  0  0  0
M  END
