Coordinates from ORCA-job 4-NO2-Ph-N2-BF4-B3LYPG-6-31G_dp-MTMO-d009-169-n800
 OpenBabel09051908343D

 20 18  0  0  0  0  0  0  0  0999 V2000
   -1.1792   -0.2348    0.4621 C   0  0  0  0  0  0  0  0  0  0  0  0
    0.1796   -0.0049    0.6525 C   0  0  0  0  0  0  0  0  0  0  0  0
    0.6301    1.3110    0.6545 C   0  0  0  0  0  0  0  0  0  0  0  0
   -0.2188    2.4054    0.5265 C   0  0  0  0  0  0  0  0  0  0  0  0
   -1.5765    2.1715    0.3363 C   0  0  0  0  0  0  0  0  0  0  0  0
   -2.0352    0.8548    0.3023 C   0  0  0  0  0  0  0  0  0  0  0  0
   -1.5862   -1.2379    0.4407 H   0  0  0  0  0  0  0  0  0  0  0  0
    0.8839   -0.8166    0.7850 H   0  0  0  0  0  0  0  0  0  0  0  0
    0.1870    3.4100    0.5622 H   0  0  0  0  0  0  0  0  0  0  0  0
   -2.2820    2.9841    0.2193 H   0  0  0  0  0  0  0  0  0  0  0  0
   -3.4704    0.6083    0.1012 N   0  0  0  0  0  0  0  0  0  0  0  0
   -3.8505   -0.5615    0.0836 O   0  0  0  0  0  0  0  0  0  0  0  0
   -4.2022    1.5880   -0.0362 O   0  0  0  0  0  0  0  0  0  0  0  0
    1.3739    1.3301   -1.8181 N   0  0  0  0  0  0  0  0  0  0  0  0
    2.4277    1.5921   -2.0284 N   0  0  0  0  0  0  0  0  0  0  0  0
    3.9920    0.0561    1.1299 B   0  0  0  0  0  0  0  0  0  0  0  0
    3.2432   -1.0356    1.1932 F   0  0  0  0  0  0  0  0  0  0  0  0
    4.3226    0.6870    2.2375 F   0  0  0  0  0  0  0  0  0  0  0  0
    4.4555    0.4610   -0.0351 F   0  0  0  0  0  0  0  0  0  0  0  0
    1.9487    1.5509    0.8642 F   0  0  0  0  0  0  0  0  0  0  0  0
  1  2  2  0  0  0  0
  2  3  1  0  0  0  0
  2  8  1  0  0  0  0
  3 20  1  0  0  0  0
  4  9  1  0  0  0  0
  4  3  2  0  0  0  0
  5  4  1  0  0  0  0
  6  5  2  0  0  0  0
  6  1  1  0  0  0  0
  7  1  1  0  0  0  0
 10  5  1  0  0  0  0
 11  6  1  0  0  0  0
 12 11  2  0  0  0  0
 13 11  2  0  0  0  0
 15 14  3  0  0  0  0
 16 17  1  0  0  0  0
 16 18  1  0  0  0  0
 19 16  1  0  0  0  0
M  END
