Coordinates from ORCA-job 4-NO2-Ph-N2-BF4-B3LYPG-6-31G_dp-MTMO-d009-169-n800
 OpenBabel09051908343D

 20 18  0  0  0  0  0  0  0  0999 V2000
   -1.0648   -0.0912    0.5294 C   0  0  0  0  0  0  0  0  0  0  0  0
    0.2793    0.2204    0.2161 C   0  0  0  0  0  0  0  0  0  0  0  0
    0.3145    1.4778   -0.2383 C   0  0  0  0  0  0  0  0  0  0  0  0
   -0.5173    2.5216   -0.4773 C   0  0  0  0  0  0  0  0  0  0  0  0
   -1.8305    2.1490   -0.1382 C   0  0  0  0  0  0  0  0  0  0  0  0
   -2.0680    0.8622    0.3496 C   0  0  0  0  0  0  0  0  0  0  0  0
   -1.3075   -1.0713    0.9239 H   0  0  0  0  0  0  0  0  0  0  0  0
    1.1618   -0.4500    0.3615 H   0  0  0  0  0  0  0  0  0  0  0  0
   -0.2414    3.4926   -0.8627 H   0  0  0  0  0  0  0  0  0  0  0  0
   -2.6487    2.8491   -0.2570 H   0  0  0  0  0  0  0  0  0  0  0  0
   -3.4605    0.4956    0.6928 N   0  0  0  0  0  0  0  0  0  0  0  0
   -3.6506   -0.6393    1.1138 O   0  0  0  0  0  0  0  0  0  0  0  0
   -4.3195    1.3564    0.5266 O   0  0  0  0  0  0  0  0  0  0  0  0
    2.2545    2.0104   -0.8457 N   0  0  0  0  0  0  0  0  0  0  0  0
    3.2747    2.1919   -1.2258 N   0  0  0  0  0  0  0  0  0  0  0  0
    3.4564   -0.0480    1.2214 B   0  0  0  0  0  0  0  0  0  0  0  0
    2.6552   -1.0495    0.5248 F   0  0  0  0  0  0  0  0  0  0  0  0
    3.9607   -0.5863    2.3738 F   0  0  0  0  0  0  0  0  0  0  0  0
    4.4361    0.4024    0.3421 F   0  0  0  0  0  0  0  0  0  0  0  0
    2.5591    1.0250    1.5025 F   0  0  0  0  0  0  0  0  0  0  0  0
  1  7  1  0  0  0  0
  2  8  1  0  0  0  0
  2  1  2  0  0  0  0
  3  2  1  0  0  0  0
  4  3  2  0  0  0  0
  4  5  1  0  0  0  0
  5  6  2  0  0  0  0
  6  1  1  0  0  0  0
  6 11  1  0  0  0  0
  9  4  1  0  0  0  0
 10  5  1  0  0  0  0
 11 12  2  0  0  0  0
 13 11  2  0  0  0  0
 15 14  3  0  0  0  0
 16 20  1  0  0  0  0
 16 18  1  0  0  0  0
 17 16  1  0  0  0  0
 19 16  1  0  0  0  0
M  RAD  1   3   2
M  END
