Coordinates from ORCA-job 4-NO2-Ph-N2-BF4-B3LYPG-6-31G_dp-MTMO-d009-169-n800
 OpenBabel09051908343D

 20 18  0  0  0  0  0  0  0  0999 V2000
   -1.5447   -0.3531    0.8563 C   0  0  0  0  0  0  0  0  0  0  0  0
   -0.2146   -0.1743    0.4879 C   0  0  0  0  0  0  0  0  0  0  0  0
    0.1945    1.0962    0.0963 C   0  0  0  0  0  0  0  0  0  0  0  0
   -0.6595    2.1934    0.0577 C   0  0  0  0  0  0  0  0  0  0  0  0
   -1.9888    2.0099    0.4263 C   0  0  0  0  0  0  0  0  0  0  0  0
   -2.4103    0.7399    0.8194 C   0  0  0  0  0  0  0  0  0  0  0  0
   -1.9204   -1.3185    1.1706 H   0  0  0  0  0  0  0  0  0  0  0  0
    0.4977   -0.9903    0.5027 H   0  0  0  0  0  0  0  0  0  0  0  0
   -0.2826    3.1597   -0.2565 H   0  0  0  0  0  0  0  0  0  0  0  0
   -2.6987    2.8272    0.4149 H   0  0  0  0  0  0  0  0  0  0  0  0
   -3.8155    0.5473    1.2076 N   0  0  0  0  0  0  0  0  0  0  0  0
   -4.1609   -0.5820    1.5523 O   0  0  0  0  0  0  0  0  0  0  0  0
   -4.5562    1.5287    1.1701 O   0  0  0  0  0  0  0  0  0  0  0  0
    5.2271    2.4435   -2.3746 N   0  0  0  0  0  0  0  0  0  0  0  0
    6.2563    2.0412   -2.3922 N   0  0  0  0  0  0  0  0  0  0  0  0
    3.4433    0.1801    0.7825 B   0  0  0  0  0  0  0  0  0  0  0  0
    2.9554   -1.0231    0.5202 F   0  0  0  0  0  0  0  0  0  0  0  0
    3.1615    0.7619    1.9316 F   0  0  0  0  0  0  0  0  0  0  0  0
    4.2728    0.7503   -0.0683 F   0  0  0  0  0  0  0  0  0  0  0  0
    1.4867    1.2808   -0.2716 F   0  0  0  0  0  0  0  0  0  0  0  0
  1  7  1  0  0  0  0
  2  8  1  0  0  0  0
  2  1  2  0  0  0  0
  3  2  1  0  0  0  0
  4  3  2  0  0  0  0
  4  5  1  0  0  0  0
  5  6  2  0  0  0  0
  6  1  1  0  0  0  0
  6 11  1  0  0  0  0
  9  4  1  0  0  0  0
 10  5  1  0  0  0  0
 11 12  2  0  0  0  0
 13 11  2  0  0  0  0
 15 14  3  0  0  0  0
 16 18  1  0  0  0  0
 17 16  1  0  0  0  0
 19 16  1  0  0  0  0
 20  3  1  0  0  0  0
M  END
