Coordinates from ORCA-job 4-NO2-Ph-N2-BF4-B3LYPG-6-31G_dp-MTMO-d009-169-n800
 OpenBabel09051908343D

 20 18  0  0  0  0  0  0  0  0999 V2000
   -1.5512   -0.3604    0.8515 C   0  0  0  0  0  0  0  0  0  0  0  0
   -0.2326   -0.1588    0.4546 C   0  0  0  0  0  0  0  0  0  0  0  0
    0.1504    1.1219    0.0704 C   0  0  0  0  0  0  0  0  0  0  0  0
   -0.7185    2.2079    0.0665 C   0  0  0  0  0  0  0  0  0  0  0  0
   -2.0362    2.0019    0.4635 C   0  0  0  0  0  0  0  0  0  0  0  0
   -2.4316    0.7213    0.8493 C   0  0  0  0  0  0  0  0  0  0  0  0
   -1.9067   -1.3347    1.1618 H   0  0  0  0  0  0  0  0  0  0  0  0
    0.4908   -0.9651    0.4426 H   0  0  0  0  0  0  0  0  0  0  0  0
   -0.3619    3.1833   -0.2435 H   0  0  0  0  0  0  0  0  0  0  0  0
   -2.7569    2.8096    0.4799 H   0  0  0  0  0  0  0  0  0  0  0  0
   -3.8247    0.5046    1.2675 N   0  0  0  0  0  0  0  0  0  0  0  0
   -4.1479   -0.6344    1.6011 O   0  0  0  0  0  0  0  0  0  0  0  0
   -4.5797    1.4758    1.2572 O   0  0  0  0  0  0  0  0  0  0  0  0
    5.5831    2.4284   -2.4907 N   0  0  0  0  0  0  0  0  0  0  0  0
    6.3939    1.7721   -2.1257 N   0  0  0  0  0  0  0  0  0  0  0  0
    3.4203    0.2665    0.7046 B   0  0  0  0  0  0  0  0  0  0  0  0
    2.9549   -0.9480    0.4536 F   0  0  0  0  0  0  0  0  0  0  0  0
    3.1470    0.8442    1.8579 F   0  0  0  0  0  0  0  0  0  0  0  0
    4.2189    0.8547   -0.1635 F   0  0  0  0  0  0  0  0  0  0  0  0
    1.4319    1.3281   -0.3252 F   0  0  0  0  0  0  0  0  0  0  0  0
  1  7  1  0  0  0  0
  2  1  2  0  0  0  0
  3  2  1  0  0  0  0
  4  3  2  0  0  0  0
  4  5  1  0  0  0  0
  5 10  1  0  0  0  0
  5  6  2  0  0  0  0
  6  1  1  0  0  0  0
  6 11  1  0  0  0  0
  8  2  1  0  0  0  0
  9  4  1  0  0  0  0
 11 12  2  0  0  0  0
 13 11  2  0  0  0  0
 14 15  3  0  0  0  0
 16 18  1  0  0  0  0
 17 16  1  0  0  0  0
 19 16  1  0  0  0  0
 20  3  1  0  0  0  0
M  END
