Coordinates from ORCA-job 4-NO2-Ph-N2-BF4-B3LYPG-6-31G_dp-MTMO-d009-169-n800
 OpenBabel09051908343D

 20 18  0  0  0  0  0  0  0  0999 V2000
   -1.5532   -0.3592    0.8596 C   0  0  0  0  0  0  0  0  0  0  0  0
   -0.2370   -0.1556    0.4560 C   0  0  0  0  0  0  0  0  0  0  0  0
    0.1407    1.1244    0.0644 C   0  0  0  0  0  0  0  0  0  0  0  0
   -0.7313    2.2078    0.0594 C   0  0  0  0  0  0  0  0  0  0  0  0
   -2.0467    1.9999    0.4631 C   0  0  0  0  0  0  0  0  0  0  0  0
   -2.4367    0.7200    0.8565 C   0  0  0  0  0  0  0  0  0  0  0  0
   -1.9045   -1.3331    1.1758 H   0  0  0  0  0  0  0  0  0  0  0  0
    0.4885   -0.9600    0.4440 H   0  0  0  0  0  0  0  0  0  0  0  0
   -0.3789    3.1828   -0.2566 H   0  0  0  0  0  0  0  0  0  0  0  0
   -2.7695    2.8057    0.4790 H   0  0  0  0  0  0  0  0  0  0  0  0
   -3.8273    0.5012    1.2818 N   0  0  0  0  0  0  0  0  0  0  0  0
   -4.1458   -0.6373    1.6217 O   0  0  0  0  0  0  0  0  0  0  0  0
   -4.5850    1.4703    1.2709 O   0  0  0  0  0  0  0  0  0  0  0  0
    5.6508    2.4401   -2.4715 N   0  0  0  0  0  0  0  0  0  0  0  0
    6.4331    1.7510   -2.1050 N   0  0  0  0  0  0  0  0  0  0  0  0
    3.4169    0.2691    0.6845 B   0  0  0  0  0  0  0  0  0  0  0  0
    2.9535   -0.9437    0.4228 F   0  0  0  0  0  0  0  0  0  0  0  0
    3.1366    0.8392    1.8398 F   0  0  0  0  0  0  0  0  0  0  0  0
    4.2194    0.8638   -0.1755 F   0  0  0  0  0  0  0  0  0  0  0  0
    1.4199    1.3325   -0.3377 F   0  0  0  0  0  0  0  0  0  0  0  0
  1  7  1  0  0  0  0
  2  1  2  0  0  0  0
  3  2  1  0  0  0  0
  4  3  2  0  0  0  0
  4  5  1  0  0  0  0
  5 10  1  0  0  0  0
  5  6  2  0  0  0  0
  6  1  1  0  0  0  0
  6 11  1  0  0  0  0
  8  2  1  0  0  0  0
  9  4  1  0  0  0  0
 11 12  2  0  0  0  0
 13 11  2  0  0  0  0
 14 15  3  0  0  0  0
 16 18  1  0  0  0  0
 17 16  1  0  0  0  0
 19 16  1  0  0  0  0
 20  3  1  0  0  0  0
M  END
