Coordinates from ORCA-job 4-NO2-Ph-N2-BF4-B3LYPG-6-31G_dp-MTMO-d009-169-n800
 OpenBabel09051908343D

 20 18  0  0  0  0  0  0  0  0999 V2000
   -1.1587   -0.2246    0.4674 C   0  0  0  0  0  0  0  0  0  0  0  0
    0.1777   -0.0092    0.7895 C   0  0  0  0  0  0  0  0  0  0  0  0
    0.6295    1.3031    0.8891 C   0  0  0  0  0  0  0  0  0  0  0  0
   -0.1968    2.4059    0.6959 C   0  0  0  0  0  0  0  0  0  0  0  0
   -1.5322    2.1867    0.3736 C   0  0  0  0  0  0  0  0  0  0  0  0
   -1.9925    0.8746    0.2625 C   0  0  0  0  0  0  0  0  0  0  0  0
   -1.5647   -1.2240    0.3738 H   0  0  0  0  0  0  0  0  0  0  0  0
    0.8648   -0.8290    0.9589 H   0  0  0  0  0  0  0  0  0  0  0  0
    0.2087    3.4061    0.7961 H   0  0  0  0  0  0  0  0  0  0  0  0
   -2.2189    3.0071    0.2084 H   0  0  0  0  0  0  0  0  0  0  0  0
   -3.4033    0.6435   -0.0787 N   0  0  0  0  0  0  0  0  0  0  0  0
   -3.7850   -0.5229   -0.1640 O   0  0  0  0  0  0  0  0  0  0  0  0
   -4.1146    1.6314   -0.2585 O   0  0  0  0  0  0  0  0  0  0  0  0
    1.8219    1.4111   -1.6002 N   0  0  0  0  0  0  0  0  0  0  0  0
    1.5709    1.3316   -2.6739 N   0  0  0  0  0  0  0  0  0  0  0  0
    3.9900    0.0654    1.0923 B   0  0  0  0  0  0  0  0  0  0  0  0
    3.2581   -1.0280    1.2499 F   0  0  0  0  0  0  0  0  0  0  0  0
    4.4569    0.6990    2.1479 F   0  0  0  0  0  0  0  0  0  0  0  0
    4.3110    0.4647   -0.1226 F   0  0  0  0  0  0  0  0  0  0  0  0
    1.9208    1.5264    1.2258 F   0  0  0  0  0  0  0  0  0  0  0  0
  1  2  2  0  0  0  0
  2  3  1  0  0  0  0
  2  8  1  0  0  0  0
  3 20  1  0  0  0  0
  4  9  1  0  0  0  0
  4  3  2  0  0  0  0
  5  4  1  0  0  0  0
  6  5  2  0  0  0  0
  6  1  1  0  0  0  0
  7  1  1  0  0  0  0
 10  5  1  0  0  0  0
 11  6  1  0  0  0  0
 12 11  2  0  0  0  0
 13 11  2  0  0  0  0
 15 14  3  0  0  0  0
 16 17  1  0  0  0  0
 16 18  1  0  0  0  0
 19 16  1  0  0  0  0
M  END
