Coordinates from ORCA-job 4-NO2-Ph-N2-BF4-B3LYPG-6-31G_dp-MTMO-d009-169-n800
 OpenBabel09051908343D

 20 18  0  0  0  0  0  0  0  0999 V2000
   -2.0501   -0.2047    0.5609 C   0  0  0  0  0  0  0  0  0  0  0  0
   -0.8418    0.4861    0.5779 C   0  0  0  0  0  0  0  0  0  0  0  0
   -0.8475    1.8119    0.9993 C   0  0  0  0  0  0  0  0  0  0  0  0
   -2.0007    2.4776    1.4025 C   0  0  0  0  0  0  0  0  0  0  0  0
   -3.2064    1.7831    1.3842 C   0  0  0  0  0  0  0  0  0  0  0  0
   -3.2121    0.4531    0.9639 C   0  0  0  0  0  0  0  0  0  0  0  0
   -2.1068   -1.2376    0.2424 H   0  0  0  0  0  0  0  0  0  0  0  0
    0.0874    0.0207    0.2735 H   0  0  0  0  0  0  0  0  0  0  0  0
   -1.9432    3.5117    1.7214 H   0  0  0  0  0  0  0  0  0  0  0  0
   -4.1349    2.2495    1.6876 H   0  0  0  0  0  0  0  0  0  0  0  0
   -4.4868   -0.2797    0.9447 N   0  0  0  0  0  0  0  0  0  0  0  0
   -4.4644   -1.4512    0.5701 O   0  0  0  0  0  0  0  0  0  0  0  0
   -5.4960    0.3251    1.3042 O   0  0  0  0  0  0  0  0  0  0  0  0
   14.0733   -1.8251   -3.8298 N   0  0  0  0  0  0  0  0  0  0  0  0
   13.0491   -1.6187   -3.4692 N   0  0  0  0  0  0  0  0  0  0  0  0
    2.6084    2.0380    0.0770 B   0  0  0  0  0  0  0  0  0  0  0  0
    2.3707    0.7366   -0.0074 F   0  0  0  0  0  0  0  0  0  0  0  0
    3.1572    2.5330    1.1670 F   0  0  0  0  0  0  0  0  0  0  0  0
    2.3649    2.8134   -0.9601 F   0  0  0  0  0  0  0  0  0  0  0  0
    0.3230    2.4960    1.0231 F   0  0  0  0  0  0  0  0  0  0  0  0
  1  2  2  0  0  0  0
  1  6  1  0  0  0  0
  2  3  1  0  0  0  0
  3 20  1  0  0  0  0
  3  4  2  0  0  0  0
  4  9  1  0  0  0  0
  5  4  1  0  0  0  0
  5 10  1  0  0  0  0
  6  5  2  0  0  0  0
  7  1  1  0  0  0  0
  8  2  1  0  0  0  0
 11  6  1  0  0  0  0
 11 13  2  0  0  0  0
 12 11  2  0  0  0  0
 14 15  3  0  0  0  0
 16 18  1  0  0  0  0
 17 16  1  0  0  0  0
 19 16  1  0  0  0  0
M  END
