Coordinates from ORCA-job 4-NO2-Ph-N2-BF4-B3LYPG-6-31G_dp-MTMO-d009-169-n800
 OpenBabel09051908343D

 20 18  0  0  0  0  0  0  0  0999 V2000
   -1.5546   -0.3603    0.8619 C   0  0  0  0  0  0  0  0  0  0  0  0
   -0.2420   -0.1490    0.4502 C   0  0  0  0  0  0  0  0  0  0  0  0
    0.1263    1.1336    0.0580 C   0  0  0  0  0  0  0  0  0  0  0  0
   -0.7518    2.2122    0.0599 C   0  0  0  0  0  0  0  0  0  0  0  0
   -2.0634    1.9966    0.4716 C   0  0  0  0  0  0  0  0  0  0  0  0
   -2.4439    0.7140    0.8657 C   0  0  0  0  0  0  0  0  0  0  0  0
   -1.8985   -1.3365    1.1790 H   0  0  0  0  0  0  0  0  0  0  0  0
    0.4877   -0.9494    0.4325 H   0  0  0  0  0  0  0  0  0  0  0  0
   -0.4067    3.1895   -0.2570 H   0  0  0  0  0  0  0  0  0  0  0  0
   -2.7906    2.7983    0.4932 H   0  0  0  0  0  0  0  0  0  0  0  0
   -3.8306    0.4870    1.2996 N   0  0  0  0  0  0  0  0  0  0  0  0
   -4.1405   -0.6537    1.6402 O   0  0  0  0  0  0  0  0  0  0  0  0
   -4.5938    1.4518    1.2944 O   0  0  0  0  0  0  0  0  0  0  0  0
    5.7868    2.4456   -2.4451 N   0  0  0  0  0  0  0  0  0  0  0  0
    6.4705    1.6578   -2.0802 N   0  0  0  0  0  0  0  0  0  0  0  0
    3.4069    0.2950    0.6570 B   0  0  0  0  0  0  0  0  0  0  0  0
    2.9512   -0.9208    0.3952 F   0  0  0  0  0  0  0  0  0  0  0  0
    3.1325    0.8583    1.8171 F   0  0  0  0  0  0  0  0  0  0  0  0
    4.1963    0.8997   -0.2082 F   0  0  0  0  0  0  0  0  0  0  0  0
    1.4017    1.3493   -0.3518 F   0  0  0  0  0  0  0  0  0  0  0  0
  1  6  1  0  0  0  0
  1  7  1  0  0  0  0
  2  1  2  0  0  0  0
  3  4  2  0  0  0  0
  3  2  1  0  0  0  0
  4  5  1  0  0  0  0
  5 10  1  0  0  0  0
  5  6  2  0  0  0  0
  6 11  1  0  0  0  0
  8  2  1  0  0  0  0
  9  4  1  0  0  0  0
 11 12  2  0  0  0  0
 13 11  2  0  0  0  0
 14 15  3  0  0  0  0
 16 18  1  0  0  0  0
 17 16  1  0  0  0  0
 19 16  1  0  0  0  0
 20  3  1  0  0  0  0
M  END
