Coordinates from ORCA-job 4-NO2-Ph-N2-BF4-B3LYPG-6-31G_dp-MTMO-d009-169-n800
 OpenBabel09051908343D

 20 18  0  0  0  0  0  0  0  0999 V2000
   -2.0708   -0.2265    0.6690 C   0  0  0  0  0  0  0  0  0  0  0  0
   -0.7761    0.2818    0.6170 C   0  0  0  0  0  0  0  0  0  0  0  0
   -0.5915    1.6388    0.8604 C   0  0  0  0  0  0  0  0  0  0  0  0
   -1.6373    2.5088    1.1519 C   0  0  0  0  0  0  0  0  0  0  0  0
   -2.9302    1.9965    1.2030 C   0  0  0  0  0  0  0  0  0  0  0  0
   -3.1263    0.6370    0.9608 C   0  0  0  0  0  0  0  0  0  0  0  0
   -2.2754   -1.2740    0.4873 H   0  0  0  0  0  0  0  0  0  0  0  0
    0.0765   -0.3475    0.3935 H   0  0  0  0  0  0  0  0  0  0  0  0
   -1.4316    3.5575    1.3339 H   0  0  0  0  0  0  0  0  0  0  0  0
   -3.7821    2.6262    1.4256 H   0  0  0  0  0  0  0  0  0  0  0  0
   -4.4927    0.0967    1.0151 N   0  0  0  0  0  0  0  0  0  0  0  0
   -4.6381   -1.1054    0.7982 O   0  0  0  0  0  0  0  0  0  0  0  0
   -5.4047    0.8808    1.2743 O   0  0  0  0  0  0  0  0  0  0  0  0
   12.5889   -0.6600   -3.3172 N   0  0  0  0  0  0  0  0  0  0  0  0
   11.5437   -0.5672   -2.9698 N   0  0  0  0  0  0  0  0  0  0  0  0
    2.8664    1.2430   -0.0149 B   0  0  0  0  0  0  0  0  0  0  0  0
    2.4353   -0.0090    0.0468 F   0  0  0  0  0  0  0  0  0  0  0  0
    3.4690    1.7783    1.0266 F   0  0  0  0  0  0  0  0  0  0  0  0
    2.7559    1.9156   -1.1425 F   0  0  0  0  0  0  0  0  0  0  0  0
    0.6644    2.1473    0.8142 F   0  0  0  0  0  0  0  0  0  0  0  0
  1  6  1  0  0  0  0
  2  1  2  0  0  0  0
  2  3  1  0  0  0  0
  3  4  2  0  0  0  0
  4  5  1  0  0  0  0
  4  9  1  0  0  0  0
  5 10  1  0  0  0  0
  6 11  1  0  0  0  0
  6  5  2  0  0  0  0
  7  1  1  0  0  0  0
  8  2  1  0  0  0  0
 11 13  2  0  0  0  0
 12 11  2  0  0  0  0
 14 15  3  0  0  0  0
 16 17  1  0  0  0  0
 16 18  1  0  0  0  0
 19 16  1  0  0  0  0
 20  3  1  0  0  0  0
M  END
