Coordinates from ORCA-job 4-NO2-Ph-N2-BF4-B3LYPG-6-31G_dp-MTMO-d009-169-n800
 OpenBabel09051908343D

 20 18  0  0  0  0  0  0  0  0999 V2000
   -1.0586   -0.1088    0.4918 C   0  0  0  0  0  0  0  0  0  0  0  0
    0.2826    0.1988    0.1633 C   0  0  0  0  0  0  0  0  0  0  0  0
    0.3188    1.4661   -0.2603 C   0  0  0  0  0  0  0  0  0  0  0  0
   -0.5041    2.5235   -0.4584 C   0  0  0  0  0  0  0  0  0  0  0  0
   -1.8151    2.1543   -0.1052 C   0  0  0  0  0  0  0  0  0  0  0  0
   -2.0564    0.8578    0.3535 C   0  0  0  0  0  0  0  0  0  0  0  0
   -1.3022   -1.0952    0.8700 H   0  0  0  0  0  0  0  0  0  0  0  0
    1.1636   -0.4763    0.2923 H   0  0  0  0  0  0  0  0  0  0  0  0
   -0.2251    3.5007   -0.8256 H   0  0  0  0  0  0  0  0  0  0  0  0
   -2.6284    2.8648   -0.1928 H   0  0  0  0  0  0  0  0  0  0  0  0
   -3.4456    0.4948    0.7122 N   0  0  0  0  0  0  0  0  0  0  0  0
   -3.6390   -0.6494    1.1057 O   0  0  0  0  0  0  0  0  0  0  0  0
   -4.2991    1.3676    0.5852 O   0  0  0  0  0  0  0  0  0  0  0  0
    2.2632    2.0002   -0.9198 N   0  0  0  0  0  0  0  0  0  0  0  0
    3.3004    2.1268   -1.2762 N   0  0  0  0  0  0  0  0  0  0  0  0
    3.4191   -0.0168    1.2492 B   0  0  0  0  0  0  0  0  0  0  0  0
    2.6578   -1.0433    0.5448 F   0  0  0  0  0  0  0  0  0  0  0  0
    3.8895   -0.5257    2.4288 F   0  0  0  0  0  0  0  0  0  0  0  0
    4.4233    0.4300    0.3962 F   0  0  0  0  0  0  0  0  0  0  0  0
    2.4986    1.0491    1.4786 F   0  0  0  0  0  0  0  0  0  0  0  0
  1  7  1  0  0  0  0
  2  8  1  0  0  0  0
  2  1  2  0  0  0  0
  3  2  1  0  0  0  0
  4  3  2  0  0  0  0
  4  5  1  0  0  0  0
  5  6  2  0  0  0  0
  6  1  1  0  0  0  0
  6 11  1  0  0  0  0
  9  4  1  0  0  0  0
 10  5  1  0  0  0  0
 11 12  2  0  0  0  0
 13 11  2  0  0  0  0
 15 14  3  0  0  0  0
 16 20  1  0  0  0  0
 16 18  1  0  0  0  0
 17 16  1  0  0  0  0
 19 16  1  0  0  0  0
M  RAD  1   3   2
M  END
