Coordinates from ORCA-job 4-NO2-Ph-N2-BF4-B3LYPG-6-31G_dp-MTMO-d009-169-n800
 OpenBabel09051908343D

 20 18  0  0  0  0  0  0  0  0999 V2000
   -1.5259   -0.3486    0.8315 C   0  0  0  0  0  0  0  0  0  0  0  0
   -0.1878   -0.1691    0.4934 C   0  0  0  0  0  0  0  0  0  0  0  0
    0.2330    1.1050    0.1267 C   0  0  0  0  0  0  0  0  0  0  0  0
   -0.6171    2.2050    0.0839 C   0  0  0  0  0  0  0  0  0  0  0  0
   -1.9544    2.0210    0.4221 C   0  0  0  0  0  0  0  0  0  0  0  0
   -2.3875    0.7474    0.7904 C   0  0  0  0  0  0  0  0  0  0  0  0
   -1.9106   -1.3167    1.1257 H   0  0  0  0  0  0  0  0  0  0  0  0
    0.5217   -0.9873    0.5127 H   0  0  0  0  0  0  0  0  0  0  0  0
   -0.2311    3.1740   -0.2103 H   0  0  0  0  0  0  0  0  0  0  0  0
   -2.6616    2.8405    0.4061 H   0  0  0  0  0  0  0  0  0  0  0  0
   -3.8009    0.5542    1.1471 N   0  0  0  0  0  0  0  0  0  0  0  0
   -4.1572   -0.5789    1.4672 O   0  0  0  0  0  0  0  0  0  0  0  0
   -4.5388    1.5375    1.1030 O   0  0  0  0  0  0  0  0  0  0  0  0
    4.9695    2.4047   -2.4051 N   0  0  0  0  0  0  0  0  0  0  0  0
    6.0147    2.0569   -2.4947 N   0  0  0  0  0  0  0  0  0  0  0  0
    3.4710    0.1588    0.8523 B   0  0  0  0  0  0  0  0  0  0  0  0
    2.9725   -1.0354    0.5695 F   0  0  0  0  0  0  0  0  0  0  0  0
    3.1802    0.7314    2.0036 F   0  0  0  0  0  0  0  0  0  0  0  0
    4.3198    0.7280    0.0197 F   0  0  0  0  0  0  0  0  0  0  0  0
    1.5338    1.2905   -0.2115 F   0  0  0  0  0  0  0  0  0  0  0  0
  1  7  1  0  0  0  0
  2  8  1  0  0  0  0
  2  1  2  0  0  0  0
  3  2  1  0  0  0  0
  4  3  2  0  0  0  0
  4  5  1  0  0  0  0
  5  6  2  0  0  0  0
  6  1  1  0  0  0  0
  6 11  1  0  0  0  0
  9  4  1  0  0  0  0
 10  5  1  0  0  0  0
 11 12  2  0  0  0  0
 13 11  2  0  0  0  0
 15 14  3  0  0  0  0
 16 18  1  0  0  0  0
 17 16  1  0  0  0  0
 19 16  1  0  0  0  0
 20  3  1  0  0  0  0
M  END
