Coordinates from ORCA-job 4-NO2-Ph-N2-BF4-B3LYPG-6-31G_dp-MTMO-d009-169-n800
 OpenBabel09051908343D

 20 18  0  0  0  0  0  0  0  0999 V2000
   -2.0126   -0.2341    0.6565 C   0  0  0  0  0  0  0  0  0  0  0  0
   -0.7156    0.2679    0.6030 C   0  0  0  0  0  0  0  0  0  0  0  0
   -0.5248    1.6253    0.8394 C   0  0  0  0  0  0  0  0  0  0  0  0
   -1.5667    2.5018    1.1254 C   0  0  0  0  0  0  0  0  0  0  0  0
   -2.8620    1.9958    1.1781 C   0  0  0  0  0  0  0  0  0  0  0  0
   -3.0643    0.6360    0.9428 C   0  0  0  0  0  0  0  0  0  0  0  0
   -2.2220   -1.2815    0.4801 H   0  0  0  0  0  0  0  0  0  0  0  0
    0.1345   -0.3663    0.3833 H   0  0  0  0  0  0  0  0  0  0  0  0
   -1.3563    3.5504    1.3021 H   0  0  0  0  0  0  0  0  0  0  0  0
   -3.7112    2.6306    1.3966 H   0  0  0  0  0  0  0  0  0  0  0  0
   -4.4333    0.1024    0.9989 N   0  0  0  0  0  0  0  0  0  0  0  0
   -4.5842   -1.1002    0.7884 O   0  0  0  0  0  0  0  0  0  0  0  0
   -5.3418    0.8921    1.2531 O   0  0  0  0  0  0  0  0  0  0  0  0
   12.0116   -0.5548   -3.1506 N   0  0  0  0  0  0  0  0  0  0  0  0
   10.9671   -0.4666   -2.8002 N   0  0  0  0  0  0  0  0  0  0  0  0
    2.9327    1.2093   -0.0328 B   0  0  0  0  0  0  0  0  0  0  0  0
    2.4940   -0.0401    0.0282 F   0  0  0  0  0  0  0  0  0  0  0  0
    3.5362    1.7413    1.0098 F   0  0  0  0  0  0  0  0  0  0  0  0
    2.8283    1.8823   -1.1607 F   0  0  0  0  0  0  0  0  0  0  0  0
    0.7336    2.1274    0.7917 F   0  0  0  0  0  0  0  0  0  0  0  0
  1  6  1  0  0  0  0
  2  1  2  0  0  0  0
  2  3  1  0  0  0  0
  3  4  2  0  0  0  0
  4  5  1  0  0  0  0
  4  9  1  0  0  0  0
  5 10  1  0  0  0  0
  6 11  1  0  0  0  0
  6  5  2  0  0  0  0
  7  1  1  0  0  0  0
  8  2  1  0  0  0  0
 11 13  2  0  0  0  0
 12 11  2  0  0  0  0
 14 15  3  0  0  0  0
 16 17  1  0  0  0  0
 16 18  1  0  0  0  0
 19 16  1  0  0  0  0
 20  3  1  0  0  0  0
M  END
