Coordinates from ORCA-job 4-NO2-Ph-N2-BF4-B3LYPG-6-31G_dp-MTMO-d009-169-n800
 OpenBabel09051908343D

 20 18  0  0  0  0  0  0  0  0999 V2000
   -1.5436   -0.3527    0.8562 C   0  0  0  0  0  0  0  0  0  0  0  0
   -0.2130   -0.1748    0.4891 C   0  0  0  0  0  0  0  0  0  0  0  0
    0.1975    1.0954    0.0978 C   0  0  0  0  0  0  0  0  0  0  0  0
   -0.6557    2.1930    0.0582 C   0  0  0  0  0  0  0  0  0  0  0  0
   -1.9856    2.0106    0.4253 C   0  0  0  0  0  0  0  0  0  0  0  0
   -2.4083    0.7410    0.8182 C   0  0  0  0  0  0  0  0  0  0  0  0
   -1.9202   -1.3178    1.1702 H   0  0  0  0  0  0  0  0  0  0  0  0
    0.4988   -0.9912    0.5048 H   0  0  0  0  0  0  0  0  0  0  0  0
   -0.2779    3.1591   -0.2558 H   0  0  0  0  0  0  0  0  0  0  0  0
   -2.6949    2.8284    0.4130 H   0  0  0  0  0  0  0  0  0  0  0  0
   -3.8141    0.5493    1.2050 N   0  0  0  0  0  0  0  0  0  0  0  0
   -4.1614   -0.5804    1.5461 O   0  0  0  0  0  0  0  0  0  0  0  0
   -4.5549    1.5306    1.1632 O   0  0  0  0  0  0  0  0  0  0  0  0
    5.2072    2.4456   -2.3714 N   0  0  0  0  0  0  0  0  0  0  0  0
    6.2367    2.0447   -2.3989 N   0  0  0  0  0  0  0  0  0  0  0  0
    3.4455    0.1775    0.7863 B   0  0  0  0  0  0  0  0  0  0  0  0
    2.9579   -1.0257    0.5237 F   0  0  0  0  0  0  0  0  0  0  0  0
    3.1636    0.7590    1.9356 F   0  0  0  0  0  0  0  0  0  0  0  0
    4.2747    0.7483   -0.0646 F   0  0  0  0  0  0  0  0  0  0  0  0
    1.4909    1.2789   -0.2689 F   0  0  0  0  0  0  0  0  0  0  0  0
  1  7  1  0  0  0  0
  2  8  1  0  0  0  0
  2  1  2  0  0  0  0
  3  2  1  0  0  0  0
  4  3  2  0  0  0  0
  4  5  1  0  0  0  0
  5  6  2  0  0  0  0
  6  1  1  0  0  0  0
  6 11  1  0  0  0  0
  9  4  1  0  0  0  0
 10  5  1  0  0  0  0
 11 12  2  0  0  0  0
 13 11  2  0  0  0  0
 15 14  3  0  0  0  0
 16 18  1  0  0  0  0
 17 16  1  0  0  0  0
 19 16  1  0  0  0  0
 20  3  1  0  0  0  0
M  END
