Coordinates from ORCA-job 4-NO2-Ph-N2-BF4-B3LYPG-6-31G_dp-MTMO-d009-169-n800
 OpenBabel09051908343D

 20 18  0  0  0  0  0  0  0  0999 V2000
   -1.6465   -0.2730    0.5337 C   0  0  0  0  0  0  0  0  0  0  0  0
   -0.3398    0.1884    0.4039 C   0  0  0  0  0  0  0  0  0  0  0  0
   -0.0931    1.5395    0.6258 C   0  0  0  0  0  0  0  0  0  0  0  0
   -1.0886    2.4482    0.9706 C   0  0  0  0  0  0  0  0  0  0  0  0
   -2.3938    1.9829    1.0994 C   0  0  0  0  0  0  0  0  0  0  0  0
   -2.6521    0.6299    0.8789 C   0  0  0  0  0  0  0  0  0  0  0  0
   -1.8985   -1.3133    0.3719 H   0  0  0  0  0  0  0  0  0  0  0  0
    0.4770   -0.4711    0.1372 H   0  0  0  0  0  0  0  0  0  0  0  0
   -0.8358    3.4897    1.1327 H   0  0  0  0  0  0  0  0  0  0  0  0
   -3.2086    2.6440    1.3654 H   0  0  0  0  0  0  0  0  0  0  0  0
   -4.0314    0.1398    1.0149 N   0  0  0  0  0  0  0  0  0  0  0  0
   -4.2325   -1.0571    0.8132 O   0  0  0  0  0  0  0  0  0  0  0  0
   -4.8983    0.9571    1.3221 O   0  0  0  0  0  0  0  0  0  0  0  0
    8.1995    0.1876   -1.7438 N   0  0  0  0  0  0  0  0  0  0  0  0
    7.1438    0.3023   -1.4371 N   0  0  0  0  0  0  0  0  0  0  0  0
    3.3811    0.9413   -0.3345 B   0  0  0  0  0  0  0  0  0  0  0  0
    2.8571   -0.2759   -0.3031 F   0  0  0  0  0  0  0  0  0  0  0  0
    4.0019    1.4132    0.7265 F   0  0  0  0  0  0  0  0  0  0  0  0
    3.3266    1.6456   -1.4463 F   0  0  0  0  0  0  0  0  0  0  0  0
    1.1754    1.9996    0.5019 F   0  0  0  0  0  0  0  0  0  0  0  0
  1  6  1  0  0  0  0
  2  1  2  0  0  0  0
  2  3  1  0  0  0  0
  3  4  2  0  0  0  0
  4  5  1  0  0  0  0
  4  9  1  0  0  0  0
  5 10  1  0  0  0  0
  6 11  1  0  0  0  0
  6  5  2  0  0  0  0
  7  1  1  0  0  0  0
  8  2  1  0  0  0  0
 11 13  2  0  0  0  0
 12 11  2  0  0  0  0
 14 15  3  0  0  0  0
 16 17  1  0  0  0  0
 16 18  1  0  0  0  0
 19 16  1  0  0  0  0
 20  3  1  0  0  0  0
M  END
