Coordinates from ORCA-job 4-NO2-Ph-N2-BF4-B3LYPG-6-31G_dp-MTMO-d009-169-n800
 OpenBabel09051908343D

 20 18  0  0  0  0  0  0  0  0999 V2000
   -2.0819   -0.1987    0.5674 C   0  0  0  0  0  0  0  0  0  0  0  0
   -0.8732    0.4912    0.5798 C   0  0  0  0  0  0  0  0  0  0  0  0
   -0.8761    1.8165    1.0030 C   0  0  0  0  0  0  0  0  0  0  0  0
   -2.0270    2.4825    1.4122 C   0  0  0  0  0  0  0  0  0  0  0  0
   -3.2333    1.7887    1.3984 C   0  0  0  0  0  0  0  0  0  0  0  0
   -3.2417    0.4593    0.9765 C   0  0  0  0  0  0  0  0  0  0  0  0
   -2.1408   -1.2312    0.2478 H   0  0  0  0  0  0  0  0  0  0  0  0
    0.0543    0.0257    0.2704 H   0  0  0  0  0  0  0  0  0  0  0  0
   -1.9674    3.5161    1.7322 H   0  0  0  0  0  0  0  0  0  0  0  0
   -4.1601    2.2553    1.7065 H   0  0  0  0  0  0  0  0  0  0  0  0
   -4.5170   -0.2727    0.9621 N   0  0  0  0  0  0  0  0  0  0  0  0
   -4.4969   -1.4438    0.5862 O   0  0  0  0  0  0  0  0  0  0  0  0
   -5.5242    0.3324    1.3269 O   0  0  0  0  0  0  0  0  0  0  0  0
   14.3345   -1.8658   -3.8976 N   0  0  0  0  0  0  0  0  0  0  0  0
   13.3101   -1.6683   -3.5329 N   0  0  0  0  0  0  0  0  0  0  0  0
    2.5804    2.0407    0.0758 B   0  0  0  0  0  0  0  0  0  0  0  0
    2.3350    0.7421   -0.0275 F   0  0  0  0  0  0  0  0  0  0  0  0
    3.1300    2.5169    1.1738 F   0  0  0  0  0  0  0  0  0  0  0  0
    2.3438    2.8323   -0.9506 F   0  0  0  0  0  0  0  0  0  0  0  0
    0.2948    2.4998    1.0227 F   0  0  0  0  0  0  0  0  0  0  0  0
  1  2  2  0  0  0  0
  1  6  1  0  0  0  0
  2  3  1  0  0  0  0
  3 20  1  0  0  0  0
  3  4  2  0  0  0  0
  4  9  1  0  0  0  0
  5  4  1  0  0  0  0
  5 10  1  0  0  0  0
  6  5  2  0  0  0  0
  7  1  1  0  0  0  0
  8  2  1  0  0  0  0
 11  6  1  0  0  0  0
 11 13  2  0  0  0  0
 12 11  2  0  0  0  0
 14 15  3  0  0  0  0
 16 18  1  0  0  0  0
 17 16  1  0  0  0  0
 19 16  1  0  0  0  0
M  END
