Coordinates from ORCA-job 4-NO2-Ph-N2-BF4-B3LYPG-6-31G_dp-MTMO-d009-169-n800
 OpenBabel09051908343D

 20 18  0  0  0  0  0  0  0  0999 V2000
   -1.2700   -0.2985    0.6186 C   0  0  0  0  0  0  0  0  0  0  0  0
    0.0131    0.1913    0.8434 C   0  0  0  0  0  0  0  0  0  0  0  0
    0.1661    1.5534    1.0811 C   0  0  0  0  0  0  0  0  0  0  0  0
   -0.9008    2.4459    1.1021 C   0  0  0  0  0  0  0  0  0  0  0  0
   -2.1824    1.9522    0.8781 C   0  0  0  0  0  0  0  0  0  0  0  0
   -2.3467    0.5879    0.6398 C   0  0  0  0  0  0  0  0  0  0  0  0
   -1.4497   -1.3488    0.4267 H   0  0  0  0  0  0  0  0  0  0  0  0
    0.8819   -0.4553    0.8340 H   0  0  0  0  0  0  0  0  0  0  0  0
   -0.7202    3.4975    1.2937 H   0  0  0  0  0  0  0  0  0  0  0  0
   -3.0499    2.5996    0.8844 H   0  0  0  0  0  0  0  0  0  0  0  0
   -3.7011    0.0670    0.4040 N   0  0  0  0  0  0  0  0  0  0  0  0
   -3.8186   -1.1398    0.1955 O   0  0  0  0  0  0  0  0  0  0  0  0
   -4.6323    0.8707    0.4303 O   0  0  0  0  0  0  0  0  0  0  0  0
    5.9296   -0.4235   -2.4607 N   0  0  0  0  0  0  0  0  0  0  0  0
    5.3315    0.1274   -1.7135 N   0  0  0  0  0  0  0  0  0  0  0  0
    3.3912    1.2201   -0.0294 B   0  0  0  0  0  0  0  0  0  0  0  0
    3.2904    0.0222    0.5280 F   0  0  0  0  0  0  0  0  0  0  0  0
    4.1966    2.1224    0.4918 F   0  0  0  0  0  0  0  0  0  0  0  0
    2.7046    1.4875   -1.1244 F   0  0  0  0  0  0  0  0  0  0  0  0
    1.4100    2.0397    1.3097 F   0  0  0  0  0  0  0  0  0  0  0  0
  1  6  2  0  0  0  0
  1  2  1  0  0  0  0
  2  3  2  0  0  0  0
  3  4  1  0  0  0  0
  3 20  1  0  0  0  0
  4  9  1  0  0  0  0
  5 10  1  0  0  0  0
  5  4  2  0  0  0  0
  6  5  1  0  0  0  0
  7  1  1  0  0  0  0
  8  2  1  0  0  0  0
 11 13  2  0  0  0  0
 11  6  1  0  0  0  0
 12 11  2  0  0  0  0
 14 15  3  0  0  0  0
 16 18  1  0  0  0  0
 16 17  1  0  0  0  0
 19 16  1  0  0  0  0
M  END
