Coordinates from ORCA-job 4-NO2-Ph-N2-BF4-B3LYPG-6-31G_dp-MTMO-d009-169-n800
 OpenBabel09051908343D

 20 18  0  0  0  0  0  0  0  0999 V2000
   -1.4331   -0.3252    0.7230 C   0  0  0  0  0  0  0  0  0  0  0  0
   -0.0702   -0.1553    0.4983 C   0  0  0  0  0  0  0  0  0  0  0  0
    0.3961    1.1253    0.2196 C   0  0  0  0  0  0  0  0  0  0  0  0
   -0.4329    2.2404    0.1564 C   0  0  0  0  0  0  0  0  0  0  0  0
   -1.7950    2.0661    0.3816 C   0  0  0  0  0  0  0  0  0  0  0  0
   -2.2735    0.7862    0.6611 C   0  0  0  0  0  0  0  0  0  0  0  0
   -1.8531   -1.2979    0.9453 H   0  0  0  0  0  0  0  0  0  0  0  0
    0.6241   -0.9855    0.5392 H   0  0  0  0  0  0  0  0  0  0  0  0
   -0.0114    3.2138   -0.0664 H   0  0  0  0  0  0  0  0  0  0  0  0
   -2.4872    2.8976    0.3449 H   0  0  0  0  0  0  0  0  0  0  0  0
   -3.7129    0.6032    0.8993 N   0  0  0  0  0  0  0  0  0  0  0  0
   -4.1098   -0.5357    1.1415 O   0  0  0  0  0  0  0  0  0  0  0  0
   -4.4309    1.6007    0.8417 O   0  0  0  0  0  0  0  0  0  0  0  0
    3.8678    2.0507   -2.2581 N   0  0  0  0  0  0  0  0  0  0  0  0
    4.8004    2.2721   -2.8082 N   0  0  0  0  0  0  0  0  0  0  0  0
    3.5970    0.0786    1.0961 B   0  0  0  0  0  0  0  0  0  0  0  0
    3.0560   -1.0914    0.7910 F   0  0  0  0  0  0  0  0  0  0  0  0
    3.2980    0.6570    2.2424 F   0  0  0  0  0  0  0  0  0  0  0  0
    4.4923    0.6158    0.2916 F   0  0  0  0  0  0  0  0  0  0  0  0
    1.7218    1.3024   -0.0071 F   0  0  0  0  0  0  0  0  0  0  0  0
  1  7  1  0  0  0  0
  2  8  1  0  0  0  0
  2  1  2  0  0  0  0
  3  2  1  0  0  0  0
  4  3  2  0  0  0  0
  4  5  1  0  0  0  0
  5  6  2  0  0  0  0
  6  1  1  0  0  0  0
  6 11  1  0  0  0  0
  9  4  1  0  0  0  0
 10  5  1  0  0  0  0
 11 12  2  0  0  0  0
 13 11  2  0  0  0  0
 15 14  3  0  0  0  0
 16 18  1  0  0  0  0
 17 16  1  0  0  0  0
 19 16  1  0  0  0  0
 20  3  1  0  0  0  0
M  END
