Coordinates from ORCA-job 4-NO2-Ph-N2-BF4-B3LYPG-6-31G_dp-MTMO-d009-169-n800
 OpenBabel09051908343D

 20 18  0  0  0  0  0  0  0  0999 V2000
   -1.3843   -0.2923    0.6796 C   0  0  0  0  0  0  0  0  0  0  0  0
   -0.0081   -0.0884    0.6406 C   0  0  0  0  0  0  0  0  0  0  0  0
    0.4604    1.2111    0.4758 C   0  0  0  0  0  0  0  0  0  0  0  0
   -0.3803    2.3120    0.3469 C   0  0  0  0  0  0  0  0  0  0  0  0
   -1.7554    2.1038    0.3865 C   0  0  0  0  0  0  0  0  0  0  0  0
   -2.2359    0.8050    0.5525 C   0  0  0  0  0  0  0  0  0  0  0  0
   -1.8066   -1.2810    0.8069 H   0  0  0  0  0  0  0  0  0  0  0  0
    0.6945   -0.9069    0.7366 H   0  0  0  0  0  0  0  0  0  0  0  0
    0.0433    3.3014    0.2188 H   0  0  0  0  0  0  0  0  0  0  0  0
   -2.4565    2.9231    0.2920 H   0  0  0  0  0  0  0  0  0  0  0  0
   -3.6892    0.5863    0.5962 N   0  0  0  0  0  0  0  0  0  0  0  0
   -4.0876   -0.5683    0.7418 O   0  0  0  0  0  0  0  0  0  0  0  0
   -4.4167    1.5724    0.4846 O   0  0  0  0  0  0  0  0  0  0  0  0
    3.2831    1.9066   -2.2481 N   0  0  0  0  0  0  0  0  0  0  0  0
    4.0555    2.0748   -3.0204 N   0  0  0  0  0  0  0  0  0  0  0  0
    3.7678    0.0234    1.1215 B   0  0  0  0  0  0  0  0  0  0  0  0
    3.0901   -1.1005    0.9383 F   0  0  0  0  0  0  0  0  0  0  0  0
    3.7752    0.5960    2.3080 F   0  0  0  0  0  0  0  0  0  0  0  0
    4.4955    0.5149    0.1384 F   0  0  0  0  0  0  0  0  0  0  0  0
    1.7986    1.4254    0.4365 F   0  0  0  0  0  0  0  0  0  0  0  0
  1  7  1  0  0  0  0
  2  1  1  0  0  0  0
  2  8  1  0  0  0  0
  3  2  2  0  0  0  0
  4  5  2  0  0  0  0
  4  3  1  0  0  0  0
  5  6  1  0  0  0  0
  6 11  1  0  0  0  0
  6  1  2  0  0  0  0
  9  4  1  0  0  0  0
 10  5  1  0  0  0  0
 11 12  2  0  0  0  0
 13 11  2  0  0  0  0
 15 14  3  0  0  0  0
 16 18  1  0  0  0  0
 17 16  1  0  0  0  0
 19 16  1  0  0  0  0
 20  3  1  0  0  0  0
M  END
