Coordinates from ORCA-job 4-NO2-Ph-N2-BF4-B3LYPG-6-31G_dp-MTMO-d009-169-n800
 OpenBabel09051908343D

 20 18  0  0  0  0  0  0  0  0999 V2000
   -1.9244   -0.2453    0.6355 C   0  0  0  0  0  0  0  0  0  0  0  0
   -0.6242    0.2483    0.5786 C   0  0  0  0  0  0  0  0  0  0  0  0
   -0.4250    1.6058    0.8079 C   0  0  0  0  0  0  0  0  0  0  0  0
   -1.4611    2.4904    1.0897 C   0  0  0  0  0  0  0  0  0  0  0  0
   -2.7595    1.9927    1.1456 C   0  0  0  0  0  0  0  0  0  0  0  0
   -2.9704    0.6329    0.9177 C   0  0  0  0  0  0  0  0  0  0  0  0
   -2.1404   -1.2923    0.4647 H   0  0  0  0  0  0  0  0  0  0  0  0
    0.2219   -0.3920    0.3618 H   0  0  0  0  0  0  0  0  0  0  0  0
   -1.2441    3.5386    1.2608 H   0  0  0  0  0  0  0  0  0  0  0  0
   -3.6046    2.6339    1.3611 H   0  0  0  0  0  0  0  0  0  0  0  0
   -4.3427    0.1083    0.9773 N   0  0  0  0  0  0  0  0  0  0  0  0
   -4.5012   -1.0945    0.7736 O   0  0  0  0  0  0  0  0  0  0  0  0
   -5.2461    0.9051    1.2276 O   0  0  0  0  0  0  0  0  0  0  0  0
   11.1471   -0.4042   -2.8917 N   0  0  0  0  0  0  0  0  0  0  0  0
   10.1037   -0.3220   -2.5365 N   0  0  0  0  0  0  0  0  0  0  0  0
    3.0295    1.1646   -0.0683 B   0  0  0  0  0  0  0  0  0  0  0  0
    2.5816   -0.0816   -0.0074 F   0  0  0  0  0  0  0  0  0  0  0  0
    3.6370    1.6920    0.9744 F   0  0  0  0  0  0  0  0  0  0  0  0
    2.9297    1.8386   -1.1960 F   0  0  0  0  0  0  0  0  0  0  0  0
    0.8365    2.0995    0.7568 F   0  0  0  0  0  0  0  0  0  0  0  0
  1  6  1  0  0  0  0
  2  1  2  0  0  0  0
  2  3  1  0  0  0  0
  3  4  2  0  0  0  0
  4  5  1  0  0  0  0
  4  9  1  0  0  0  0
  5 10  1  0  0  0  0
  6 11  1  0  0  0  0
  6  5  2  0  0  0  0
  7  1  1  0  0  0  0
  8  2  1  0  0  0  0
 11 13  2  0  0  0  0
 12 11  2  0  0  0  0
 14 15  3  0  0  0  0
 16 17  1  0  0  0  0
 16 18  1  0  0  0  0
 19 16  1  0  0  0  0
 20  3  1  0  0  0  0
M  END
