Coordinates from ORCA-job 4-NO2-Ph-N2-BF4-B3LYPG-6-31G_dp-MTMO-d009-169-n800
 OpenBabel09051908343D

 20 19  0  0  0  0  0  0  0  0999 V2000
   -1.1053   -0.1149    0.5508 C   0  0  0  0  0  0  0  0  0  0  0  0
    0.2365    0.1528    0.2368 C   0  0  0  0  0  0  0  0  0  0  0  0
    0.3846    1.4138   -0.2500 C   0  0  0  0  0  0  0  0  0  0  0  0
   -0.4688    2.4553   -0.4929 C   0  0  0  0  0  0  0  0  0  0  0  0
   -1.7908    2.1383   -0.1560 C   0  0  0  0  0  0  0  0  0  0  0  0
   -2.0734    0.8699    0.3518 C   0  0  0  0  0  0  0  0  0  0  0  0
   -1.3908   -1.0786    0.9550 H   0  0  0  0  0  0  0  0  0  0  0  0
    1.0842   -0.5295    0.3657 H   0  0  0  0  0  0  0  0  0  0  0  0
   -0.1727    3.4161   -0.8908 H   0  0  0  0  0  0  0  0  0  0  0  0
   -2.5876    2.8598   -0.2865 H   0  0  0  0  0  0  0  0  0  0  0  0
   -3.4806    0.5569    0.6951 N   0  0  0  0  0  0  0  0  0  0  0  0
   -3.7118   -0.5626    1.1368 O   0  0  0  0  0  0  0  0  0  0  0  0
   -4.3098    1.4424    0.5088 O   0  0  0  0  0  0  0  0  0  0  0  0
    2.1158    1.8107   -0.7351 N   0  0  0  0  0  0  0  0  0  0  0  0
    3.1272    2.0592   -1.1032 N   0  0  0  0  0  0  0  0  0  0  0  0
    3.5131    0.0340    1.1809 B   0  0  0  0  0  0  0  0  0  0  0  0
    2.8443   -0.8345    0.2434 F   0  0  0  0  0  0  0  0  0  0  0  0
    3.9841   -0.6768    2.2497 F   0  0  0  0  0  0  0  0  0  0  0  0
    4.5184    0.7185    0.4853 F   0  0  0  0  0  0  0  0  0  0  0  0
    2.5268    0.9879    1.5875 F   0  0  0  0  0  0  0  0  0  0  0  0
  1  7  1  0  0  0  0
  2  8  1  0  0  0  0
  2  1  2  0  0  0  0
  3  2  1  0  0  0  0
  4  3  2  0  0  0  0
  4  5  1  0  0  0  0
  5  6  2  0  0  0  0
  6  1  1  0  0  0  0
  6 11  1  0  0  0  0
  9  4  1  0  0  0  0
 10  5  1  0  0  0  0
 11 12  2  0  0  0  0
 13 11  2  0  0  0  0
 14  3  1  0  0  0  0
 15 14  1  0  0  0  0
 16 20  1  0  0  0  0
 16 18  1  0  0  0  0
 17 16  1  0  0  0  0
 19 16  1  0  0  0  0
M  RAD  2  14   2  15   3
M  END
