Coordinates from ORCA-job 4-NO2-Ph-N2-BF4-B3LYPG-6-31G_dp-MTMO-d009-169-n800
 OpenBabel09051908343D

 20 18  0  0  0  0  0  0  0  0999 V2000
   -1.1666   -0.2309    0.4510 C   0  0  0  0  0  0  0  0  0  0  0  0
    0.1913    0.0001    0.6426 C   0  0  0  0  0  0  0  0  0  0  0  0
    0.6433    1.3158    0.6276 C   0  0  0  0  0  0  0  0  0  0  0  0
   -0.2089    2.4101    0.5182 C   0  0  0  0  0  0  0  0  0  0  0  0
   -1.5658    2.1755    0.3265 C   0  0  0  0  0  0  0  0  0  0  0  0
   -2.0229    0.8581    0.2871 C   0  0  0  0  0  0  0  0  0  0  0  0
   -1.5738   -1.2340    0.4346 H   0  0  0  0  0  0  0  0  0  0  0  0
    0.8960   -0.8107    0.7790 H   0  0  0  0  0  0  0  0  0  0  0  0
    0.1961    3.4148    0.5586 H   0  0  0  0  0  0  0  0  0  0  0  0
   -2.2729    2.9875    0.2155 H   0  0  0  0  0  0  0  0  0  0  0  0
   -3.4573    0.6106    0.0830 N   0  0  0  0  0  0  0  0  0  0  0  0
   -3.8363   -0.5596    0.0630 O   0  0  0  0  0  0  0  0  0  0  0  0
   -4.1896    1.5897   -0.0559 O   0  0  0  0  0  0  0  0  0  0  0  0
    1.2648    1.3166   -1.7132 N   0  0  0  0  0  0  0  0  0  0  0  0
    2.3195    1.5567   -1.9484 N   0  0  0  0  0  0  0  0  0  0  0  0
    4.0061    0.0544    1.1254 B   0  0  0  0  0  0  0  0  0  0  0  0
    3.2520   -1.0339    1.1878 F   0  0  0  0  0  0  0  0  0  0  0  0
    4.3324    0.6876    2.2329 F   0  0  0  0  0  0  0  0  0  0  0  0
    4.4773    0.4538   -0.0383 F   0  0  0  0  0  0  0  0  0  0  0  0
    1.9589    1.5568    0.8562 F   0  0  0  0  0  0  0  0  0  0  0  0
  1  2  2  0  0  0  0
  2  8  1  0  0  0  0
  3  2  1  0  0  0  0
  3 20  1  0  0  0  0
  4  9  1  0  0  0  0
  4  3  2  0  0  0  0
  5  4  1  0  0  0  0
  6  5  2  0  0  0  0
  6  1  1  0  0  0  0
  7  1  1  0  0  0  0
 10  5  1  0  0  0  0
 11  6  1  0  0  0  0
 12 11  2  0  0  0  0
 13 11  2  0  0  0  0
 15 14  3  0  0  0  0
 16 17  1  0  0  0  0
 16 18  1  0  0  0  0
 19 16  1  0  0  0  0
M  END
