Coordinates from ORCA-job 4-NO2-Ph-N2-BF4-B3LYPG-6-31G_dp-MTMO-d009-169-n800
 OpenBabel09051908343D

 20 18  0  0  0  0  0  0  0  0999 V2000
   -1.3898   -0.2952    0.6792 C   0  0  0  0  0  0  0  0  0  0  0  0
   -0.0140   -0.0930    0.6196 C   0  0  0  0  0  0  0  0  0  0  0  0
    0.4532    1.2061    0.4479 C   0  0  0  0  0  0  0  0  0  0  0  0
   -0.3878    2.3081    0.3320 C   0  0  0  0  0  0  0  0  0  0  0  0
   -1.7624    2.1014    0.3921 C   0  0  0  0  0  0  0  0  0  0  0  0
   -2.2418    0.8031    0.5650 C   0  0  0  0  0  0  0  0  0  0  0  0
   -1.8110   -1.2836    0.8127 H   0  0  0  0  0  0  0  0  0  0  0  0
    0.6887   -0.9125    0.7051 H   0  0  0  0  0  0  0  0  0  0  0  0
    0.0351    3.2970    0.1977 H   0  0  0  0  0  0  0  0  0  0  0  0
   -2.4638    2.9215    0.3082 H   0  0  0  0  0  0  0  0  0  0  0  0
   -3.6946    0.5861    0.6301 N   0  0  0  0  0  0  0  0  0  0  0  0
   -4.0921   -0.5682    0.7812 O   0  0  0  0  0  0  0  0  0  0  0  0
   -4.4226    1.5730    0.5297 O   0  0  0  0  0  0  0  0  0  0  0  0
    3.3408    1.9054   -2.2659 N   0  0  0  0  0  0  0  0  0  0  0  0
    4.1515    2.0700   -2.9986 N   0  0  0  0  0  0  0  0  0  0  0  0
    3.7514    0.0350    1.1221 B   0  0  0  0  0  0  0  0  0  0  0  0
    3.0918   -1.0941    0.9081 F   0  0  0  0  0  0  0  0  0  0  0  0
    3.7194    0.5946    2.3144 F   0  0  0  0  0  0  0  0  0  0  0  0
    4.5000    0.5461    0.1650 F   0  0  0  0  0  0  0  0  0  0  0  0
    1.7911    1.4182    0.3876 F   0  0  0  0  0  0  0  0  0  0  0  0
  1  7  1  0  0  0  0
  2  1  1  0  0  0  0
  2  8  1  0  0  0  0
  3  2  2  0  0  0  0
  4  5  2  0  0  0  0
  4  3  1  0  0  0  0
  5  6  1  0  0  0  0
  6 11  1  0  0  0  0
  6  1  2  0  0  0  0
  9  4  1  0  0  0  0
 10  5  1  0  0  0  0
 11 12  2  0  0  0  0
 13 11  2  0  0  0  0
 15 14  3  0  0  0  0
 16 18  1  0  0  0  0
 17 16  1  0  0  0  0
 19 16  1  0  0  0  0
 20  3  1  0  0  0  0
M  END
