Coordinates from ORCA-job 4-NO2-Ph-N2-BF4-B3LYPG-6-31G_dp-MTMO-d009-169-n800
 OpenBabel09051908343D

 20 18  0  0  0  0  0  0  0  0999 V2000
   -1.7297   -0.2667    0.5753 C   0  0  0  0  0  0  0  0  0  0  0  0
   -0.4249    0.2103    0.4911 C   0  0  0  0  0  0  0  0  0  0  0  0
   -0.2034    1.5652    0.7150 C   0  0  0  0  0  0  0  0  0  0  0  0
   -1.2223    2.4629    1.0178 C   0  0  0  0  0  0  0  0  0  0  0  0
   -2.5255    1.9820    1.1009 C   0  0  0  0  0  0  0  0  0  0  0  0
   -2.7586    0.6248    0.8783 C   0  0  0  0  0  0  0  0  0  0  0  0
   -1.9625   -1.3109    0.4097 H   0  0  0  0  0  0  0  0  0  0  0  0
    0.4083   -0.4410    0.2574 H   0  0  0  0  0  0  0  0  0  0  0  0
   -0.9884    3.5083    1.1836 H   0  0  0  0  0  0  0  0  0  0  0  0
   -3.3577    2.6342    1.3333 H   0  0  0  0  0  0  0  0  0  0  0  0
   -4.1358    0.1179    0.9664 N   0  0  0  0  0  0  0  0  0  0  0  0
   -4.3140   -1.0828    0.7661 O   0  0  0  0  0  0  0  0  0  0  0  0
   -5.0236    0.9261    1.2350 O   0  0  0  0  0  0  0  0  0  0  0  0
    9.2230   -0.0795   -2.2287 N   0  0  0  0  0  0  0  0  0  0  0  0
    8.1785    0.0103   -1.8786 N   0  0  0  0  0  0  0  0  0  0  0  0
    3.2403    1.0649   -0.2007 B   0  0  0  0  0  0  0  0  0  0  0  0
    2.7655   -0.1718   -0.1507 F   0  0  0  0  0  0  0  0  0  0  0  0
    3.8593    1.5699    0.8463 F   0  0  0  0  0  0  0  0  0  0  0  0
    3.1520    1.7520   -1.3213 F   0  0  0  0  0  0  0  0  0  0  0  0
    1.0628    2.0429    0.6370 F   0  0  0  0  0  0  0  0  0  0  0  0
  1  6  1  0  0  0  0
  2  1  2  0  0  0  0
  2  3  1  0  0  0  0
  3  4  2  0  0  0  0
  4  5  1  0  0  0  0
  4  9  1  0  0  0  0
  5 10  1  0  0  0  0
  6 11  1  0  0  0  0
  6  5  2  0  0  0  0
  7  1  1  0  0  0  0
  8  2  1  0  0  0  0
 11 13  2  0  0  0  0
 12 11  2  0  0  0  0
 14 15  3  0  0  0  0
 16 17  1  0  0  0  0
 16 18  1  0  0  0  0
 19 16  1  0  0  0  0
 20  3  1  0  0  0  0
M  END
