Coordinates from ORCA-job 4-NO2-Ph-N2-BF4-B3LYPG-6-31G_dp-MTMO-d009-169-n800
 OpenBabel09051908343D

 20 18  0  0  0  0  0  0  0  0999 V2000
   -1.9151   -0.2461    0.6332 C   0  0  0  0  0  0  0  0  0  0  0  0
   -0.6148    0.2471    0.5761 C   0  0  0  0  0  0  0  0  0  0  0  0
   -0.4150    1.6045    0.8049 C   0  0  0  0  0  0  0  0  0  0  0  0
   -1.4510    2.4893    1.0865 C   0  0  0  0  0  0  0  0  0  0  0  0
   -2.7495    1.9922    1.1427 C   0  0  0  0  0  0  0  0  0  0  0  0
   -2.9609    0.6324    0.9152 C   0  0  0  0  0  0  0  0  0  0  0  0
   -2.1314   -1.2931    0.4627 H   0  0  0  0  0  0  0  0  0  0  0  0
    0.2309   -0.3939    0.3594 H   0  0  0  0  0  0  0  0  0  0  0  0
   -1.2336    3.5375    1.2573 H   0  0  0  0  0  0  0  0  0  0  0  0
   -3.5944    2.6337    1.3581 H   0  0  0  0  0  0  0  0  0  0  0  0
   -4.3333    0.1082    0.9750 N   0  0  0  0  0  0  0  0  0  0  0  0
   -4.4922   -1.0947    0.7716 O   0  0  0  0  0  0  0  0  0  0  0  0
   -5.2365    0.9052    1.2250 O   0  0  0  0  0  0  0  0  0  0  0  0
   11.0622   -0.3910   -2.8663 N   0  0  0  0  0  0  0  0  0  0  0  0
   10.0190   -0.3091   -2.5105 N   0  0  0  0  0  0  0  0  0  0  0  0
    3.0382    1.1609   -0.0718 B   0  0  0  0  0  0  0  0  0  0  0  0
    2.5894   -0.0850   -0.0108 F   0  0  0  0  0  0  0  0  0  0  0  0
    3.6463    1.6878    0.9707 F   0  0  0  0  0  0  0  0  0  0  0  0
    2.9385    1.8350   -1.1995 F   0  0  0  0  0  0  0  0  0  0  0  0
    0.8465    2.0981    0.7537 F   0  0  0  0  0  0  0  0  0  0  0  0
  1  6  1  0  0  0  0
  2  1  2  0  0  0  0
  2  3  1  0  0  0  0
  3  4  2  0  0  0  0
  4  5  1  0  0  0  0
  4  9  1  0  0  0  0
  5 10  1  0  0  0  0
  6 11  1  0  0  0  0
  6  5  2  0  0  0  0
  7  1  1  0  0  0  0
  8  2  1  0  0  0  0
 11 13  2  0  0  0  0
 12 11  2  0  0  0  0
 14 15  3  0  0  0  0
 16 17  1  0  0  0  0
 16 18  1  0  0  0  0
 19 16  1  0  0  0  0
 20  3  1  0  0  0  0
M  END
