Coordinates from ORCA-job 4-NO2-Ph-N2-BF4-B3LYPG-6-31G_dp-MTMO-d009-169-n800
 OpenBabel09051908343D

 20 18  0  0  0  0  0  0  0  0999 V2000
   -1.9730   -0.2392    0.6473 C   0  0  0  0  0  0  0  0  0  0  0  0
   -0.6745    0.2588    0.5924 C   0  0  0  0  0  0  0  0  0  0  0  0
   -0.4800    1.6164    0.8252 C   0  0  0  0  0  0  0  0  0  0  0  0
   -1.5190    2.4969    1.1087 C   0  0  0  0  0  0  0  0  0  0  0  0
   -2.8158    1.9947    1.1628 C   0  0  0  0  0  0  0  0  0  0  0  0
   -3.0221    0.6348    0.9312 C   0  0  0  0  0  0  0  0  0  0  0  0
   -2.1856   -1.2865    0.4738 H   0  0  0  0  0  0  0  0  0  0  0  0
    0.1739   -0.3781    0.3745 H   0  0  0  0  0  0  0  0  0  0  0  0
   -1.3055    3.5453    1.2827 H   0  0  0  0  0  0  0  0  0  0  0  0
   -3.6632    2.6325    1.3795 H   0  0  0  0  0  0  0  0  0  0  0  0
   -4.3926    0.1055    0.9889 N   0  0  0  0  0  0  0  0  0  0  0  0
   -4.5472   -1.0973    0.7819 O   0  0  0  0  0  0  0  0  0  0  0  0
   -5.2988    0.8986    1.2408 O   0  0  0  0  0  0  0  0  0  0  0  0
   11.6215   -0.4855   -3.0349 N   0  0  0  0  0  0  0  0  0  0  0  0
   10.5774   -0.4005   -2.6824 N   0  0  0  0  0  0  0  0  0  0  0  0
    2.9769    1.1882   -0.0478 B   0  0  0  0  0  0  0  0  0  0  0  0
    2.5340   -0.0597    0.0131 F   0  0  0  0  0  0  0  0  0  0  0  0
    3.5818    1.7182    0.9951 F   0  0  0  0  0  0  0  0  0  0  0  0
    2.8751    1.8616   -1.1757 F   0  0  0  0  0  0  0  0  0  0  0  0
    0.7800    2.1143    0.7761 F   0  0  0  0  0  0  0  0  0  0  0  0
  1  6  1  0  0  0  0
  2  1  2  0  0  0  0
  2  3  1  0  0  0  0
  3  4  2  0  0  0  0
  4  5  1  0  0  0  0
  4  9  1  0  0  0  0
  5 10  1  0  0  0  0
  6 11  1  0  0  0  0
  6  5  2  0  0  0  0
  7  1  1  0  0  0  0
  8  2  1  0  0  0  0
 11 13  2  0  0  0  0
 12 11  2  0  0  0  0
 14 15  3  0  0  0  0
 16 17  1  0  0  0  0
 16 18  1  0  0  0  0
 19 16  1  0  0  0  0
 20  3  1  0  0  0  0
M  END
