Coordinates from ORCA-job 4-NO2-Ph-N2-BF4-B3LYPG-6-31G_dp-MTMO-d009-169-n800
 OpenBabel09051908343D

 20 18  0  0  0  0  0  0  0  0999 V2000
   -1.6270   -0.2722    0.5228 C   0  0  0  0  0  0  0  0  0  0  0  0
   -0.3215    0.1887    0.3805 C   0  0  0  0  0  0  0  0  0  0  0  0
   -0.0714    1.5397    0.6005 C   0  0  0  0  0  0  0  0  0  0  0  0
   -1.0632    2.4487    0.9555 C   0  0  0  0  0  0  0  0  0  0  0  0
   -2.3673    1.9839    1.0968 C   0  0  0  0  0  0  0  0  0  0  0  0
   -2.6287    0.6311    0.8782 C   0  0  0  0  0  0  0  0  0  0  0  0
   -1.8812   -1.3123    0.3631 H   0  0  0  0  0  0  0  0  0  0  0  0
    0.4928   -0.4709    0.1060 H   0  0  0  0  0  0  0  0  0  0  0  0
   -0.8084    3.4900    1.1157 H   0  0  0  0  0  0  0  0  0  0  0  0
   -3.1792    2.6454    1.3712 H   0  0  0  0  0  0  0  0  0  0  0  0
   -4.0067    0.1418    1.0277 N   0  0  0  0  0  0  0  0  0  0  0  0
   -4.2107   -1.0549    0.8276 O   0  0  0  0  0  0  0  0  0  0  0  0
   -4.8700    0.9593    1.3447 O   0  0  0  0  0  0  0  0  0  0  0  0
    7.8917    0.2688   -1.6398 N   0  0  0  0  0  0  0  0  0  0  0  0
    6.8343    0.3688   -1.3337 N   0  0  0  0  0  0  0  0  0  0  0  0
    3.4581    0.9007   -0.3580 B   0  0  0  0  0  0  0  0  0  0  0  0
    2.8934   -0.2981   -0.3329 F   0  0  0  0  0  0  0  0  0  0  0  0
    4.0741    1.3559    0.7129 F   0  0  0  0  0  0  0  0  0  0  0  0
    3.4385    1.6074   -1.4692 F   0  0  0  0  0  0  0  0  0  0  0  0
    1.1959    1.9973    0.4636 F   0  0  0  0  0  0  0  0  0  0  0  0
  1  6  1  0  0  0  0
  2  1  2  0  0  0  0
  2  3  1  0  0  0  0
  3  4  2  0  0  0  0
  4  5  1  0  0  0  0
  4  9  1  0  0  0  0
  5 10  1  0  0  0  0
  6 11  1  0  0  0  0
  6  5  2  0  0  0  0
  7  1  1  0  0  0  0
  8  2  1  0  0  0  0
 11 13  2  0  0  0  0
 12 11  2  0  0  0  0
 14 15  3  0  0  0  0
 16 17  1  0  0  0  0
 16 18  1  0  0  0  0
 19 16  1  0  0  0  0
 20  3  1  0  0  0  0
M  END
