Coordinates from ORCA-job 4-NO2-Ph-N2-BF4-B3LYPG-6-31G_dp-MTMO-d009-169-n800
 OpenBabel09051908343D

 20 18  0  0  0  0  0  0  0  0999 V2000
   -1.6162   -0.2710    0.5198 C   0  0  0  0  0  0  0  0  0  0  0  0
   -0.3126    0.1948    0.3769 C   0  0  0  0  0  0  0  0  0  0  0  0
   -0.0669    1.5464    0.5981 C   0  0  0  0  0  0  0  0  0  0  0  0
   -1.0617    2.4513    0.9552 C   0  0  0  0  0  0  0  0  0  0  0  0
   -2.3640    1.9818    1.0971 C   0  0  0  0  0  0  0  0  0  0  0  0
   -2.6209    0.6284    0.8770 C   0  0  0  0  0  0  0  0  0  0  0  0
   -1.8668   -1.3118    0.3590 H   0  0  0  0  0  0  0  0  0  0  0  0
    0.5039   -0.4615    0.1007 H   0  0  0  0  0  0  0  0  0  0  0  0
   -0.8105    3.4934    1.1163 H   0  0  0  0  0  0  0  0  0  0  0  0
   -3.1780    2.6402    1.3728 H   0  0  0  0  0  0  0  0  0  0  0  0
   -3.9971    0.1341    1.0266 N   0  0  0  0  0  0  0  0  0  0  0  0
   -4.1970   -1.0630    0.8247 O   0  0  0  0  0  0  0  0  0  0  0  0
   -4.8632    0.9483    1.3444 O   0  0  0  0  0  0  0  0  0  0  0  0
    7.7948    0.2528   -1.6155 N   0  0  0  0  0  0  0  0  0  0  0  0
    6.7385    0.3615   -1.3090 N   0  0  0  0  0  0  0  0  0  0  0  0
    3.4836    0.9050   -0.3643 B   0  0  0  0  0  0  0  0  0  0  0  0
    2.9090   -0.2890   -0.3408 F   0  0  0  0  0  0  0  0  0  0  0  0
    4.0985    1.3561    0.7089 F   0  0  0  0  0  0  0  0  0  0  0  0
    3.4712    1.6128   -1.4748 F   0  0  0  0  0  0  0  0  0  0  0  0
    1.1987    2.0082    0.4600 F   0  0  0  0  0  0  0  0  0  0  0  0
  1  6  1  0  0  0  0
  2  1  2  0  0  0  0
  2  3  1  0  0  0  0
  3  4  2  0  0  0  0
  4  5  1  0  0  0  0
  4  9  1  0  0  0  0
  5 10  1  0  0  0  0
  6 11  1  0  0  0  0
  6  5  2  0  0  0  0
  7  1  1  0  0  0  0
  8  2  1  0  0  0  0
 11 13  2  0  0  0  0
 12 11  2  0  0  0  0
 14 15  3  0  0  0  0
 16 17  1  0  0  0  0
 16 18  1  0  0  0  0
 19 16  1  0  0  0  0
 20  3  1  0  0  0  0
M  END
