Coordinates from ORCA-job 4-NO2-Ph-N2-BF4-B3LYPG-6-31G_dp-MTMO-d009-169-n800
 OpenBabel09051908343D

 20 18  0  0  0  0  0  0  0  0999 V2000
   -2.0961   -0.2232    0.6739 C   0  0  0  0  0  0  0  0  0  0  0  0
   -0.8027    0.2884    0.6223 C   0  0  0  0  0  0  0  0  0  0  0  0
   -0.6211    1.6451    0.8697 C   0  0  0  0  0  0  0  0  0  0  0  0
   -1.6687    2.5117    1.1646 C   0  0  0  0  0  0  0  0  0  0  0  0
   -2.9603    1.9962    1.2153 C   0  0  0  0  0  0  0  0  0  0  0  0
   -3.1534    0.6370    0.9691 C   0  0  0  0  0  0  0  0  0  0  0  0
   -2.2983   -1.2705    0.4891 H   0  0  0  0  0  0  0  0  0  0  0  0
    0.0512   -0.3382    0.3962 H   0  0  0  0  0  0  0  0  0  0  0  0
   -1.4653    3.5603    1.3497 H   0  0  0  0  0  0  0  0  0  0  0  0
   -3.8135    2.6232    1.4405 H   0  0  0  0  0  0  0  0  0  0  0  0
   -4.5184    0.0933    1.0230 N   0  0  0  0  0  0  0  0  0  0  0  0
   -4.6612   -1.1086    0.8025 O   0  0  0  0  0  0  0  0  0  0  0  0
   -5.4321    0.8743    1.2854 O   0  0  0  0  0  0  0  0  0  0  0  0
   12.8436   -0.7088   -3.3884 N   0  0  0  0  0  0  0  0  0  0  0  0
   11.7981   -0.6140   -3.0426 N   0  0  0  0  0  0  0  0  0  0  0  0
    2.8367    1.2600   -0.0092 B   0  0  0  0  0  0  0  0  0  0  0  0
    2.4097    0.0066    0.0524 F   0  0  0  0  0  0  0  0  0  0  0  0
    3.4394    1.7965    1.0316 F   0  0  0  0  0  0  0  0  0  0  0  0
    2.7222    1.9329   -1.1362 F   0  0  0  0  0  0  0  0  0  0  0  0
    0.6336    2.1567    0.8241 F   0  0  0  0  0  0  0  0  0  0  0  0
  1  6  1  0  0  0  0
  2  1  2  0  0  0  0
  2  3  1  0  0  0  0
  3  4  2  0  0  0  0
  4  5  1  0  0  0  0
  4  9  1  0  0  0  0
  5 10  1  0  0  0  0
  6 11  1  0  0  0  0
  6  5  2  0  0  0  0
  7  1  1  0  0  0  0
  8  2  1  0  0  0  0
 11 13  2  0  0  0  0
 12 11  2  0  0  0  0
 14 15  3  0  0  0  0
 16 17  1  0  0  0  0
 16 18  1  0  0  0  0
 19 16  1  0  0  0  0
 20  3  1  0  0  0  0
M  END
