Coordinates from ORCA-job 4-NO2-Ph-N2-BF4-B3LYPG-6-31G_dp-MTMO-d009-169-n800
 OpenBabel09051908343D

 20 18  0  0  0  0  0  0  0  0999 V2000
   -1.9707   -0.2178    0.5393 C   0  0  0  0  0  0  0  0  0  0  0  0
   -0.7663    0.4796    0.5631 C   0  0  0  0  0  0  0  0  0  0  0  0
   -0.7814    1.8050    0.9853 C   0  0  0  0  0  0  0  0  0  0  0  0
   -1.9404    2.4640    1.3831 C   0  0  0  0  0  0  0  0  0  0  0  0
   -3.1422    1.7629    1.3582 C   0  0  0  0  0  0  0  0  0  0  0  0
   -3.1384    0.4332    0.9367 C   0  0  0  0  0  0  0  0  0  0  0  0
   -2.0201   -1.2507    0.2197 H   0  0  0  0  0  0  0  0  0  0  0  0
    0.1668    0.0192    0.2634 H   0  0  0  0  0  0  0  0  0  0  0  0
   -1.8902    3.4981    1.7031 H   0  0  0  0  0  0  0  0  0  0  0  0
   -4.0747    2.2240    1.6572 H   0  0  0  0  0  0  0  0  0  0  0  0
   -4.4089   -0.3066    0.9103 N   0  0  0  0  0  0  0  0  0  0  0  0
   -4.3782   -1.4776    0.5346 O   0  0  0  0  0  0  0  0  0  0  0  0
   -5.4233    0.2923    1.2653 O   0  0  0  0  0  0  0  0  0  0  0  0
   13.4432   -1.7494   -3.6529 N   0  0  0  0  0  0  0  0  0  0  0  0
   12.4199   -1.5114   -3.3096 N   0  0  0  0  0  0  0  0  0  0  0  0
    2.6739    2.0473    0.0730 B   0  0  0  0  0  0  0  0  0  0  0  0
    2.4487    0.7426    0.0070 F   0  0  0  0  0  0  0  0  0  0  0  0
    3.2187    2.5626    1.1555 F   0  0  0  0  0  0  0  0  0  0  0  0
    2.4221    2.8057   -0.9747 F   0  0  0  0  0  0  0  0  0  0  0  0
    0.3849    2.4959    1.0154 F   0  0  0  0  0  0  0  0  0  0  0  0
  1  2  2  0  0  0  0
  1  6  1  0  0  0  0
  2  3  1  0  0  0  0
  3 20  1  0  0  0  0
  3  4  2  0  0  0  0
  4  9  1  0  0  0  0
  5  4  1  0  0  0  0
  5 10  1  0  0  0  0
  6  5  2  0  0  0  0
  7  1  1  0  0  0  0
  8  2  1  0  0  0  0
 11  6  1  0  0  0  0
 11 13  2  0  0  0  0
 12 11  2  0  0  0  0
 14 15  3  0  0  0  0
 16 18  1  0  0  0  0
 17 16  1  0  0  0  0
 19 16  1  0  0  0  0
M  END
