Coordinates from ORCA-job 4-NO2-Ph-N2-BF4-B3LYPG-6-31G_dp-MTMO-d009-169-n800
 OpenBabel09051908343D

 20 18  0  0  0  0  0  0  0  0999 V2000
   -1.8844   -0.2499    0.6252 C   0  0  0  0  0  0  0  0  0  0  0  0
   -0.5831    0.2403    0.5659 C   0  0  0  0  0  0  0  0  0  0  0  0
   -0.3801    1.5976    0.7929 C   0  0  0  0  0  0  0  0  0  0  0  0
   -1.4136    2.4852    1.0747 C   0  0  0  0  0  0  0  0  0  0  0  0
   -2.7132    1.9909    1.1330 C   0  0  0  0  0  0  0  0  0  0  0  0
   -2.9279    0.6313    0.9074 C   0  0  0  0  0  0  0  0  0  0  0  0
   -2.1033   -1.2966    0.4562 H   0  0  0  0  0  0  0  0  0  0  0  0
    0.2611   -0.4025    0.3489 H   0  0  0  0  0  0  0  0  0  0  0  0
   -1.1937    3.5331    1.2439 H   0  0  0  0  0  0  0  0  0  0  0  0
   -3.5564    2.6346    1.3486 H   0  0  0  0  0  0  0  0  0  0  0  0
   -4.3013    0.1103    0.9695 N   0  0  0  0  0  0  0  0  0  0  0  0
   -4.4632   -1.0924    0.7677 O   0  0  0  0  0  0  0  0  0  0  0  0
   -5.2024    0.9098    1.2195 O   0  0  0  0  0  0  0  0  0  0  0  0
   10.7584   -0.3378   -2.7706 N   0  0  0  0  0  0  0  0  0  0  0  0
    9.7155   -0.2576   -2.4134 N   0  0  0  0  0  0  0  0  0  0  0  0
    3.0722    1.1448   -0.0879 B   0  0  0  0  0  0  0  0  0  0  0  0
    2.6201   -0.0998   -0.0272 F   0  0  0  0  0  0  0  0  0  0  0  0
    3.6823    1.6697    0.9545 F   0  0  0  0  0  0  0  0  0  0  0  0
    2.9736    1.8198   -1.2151 F   0  0  0  0  0  0  0  0  0  0  0  0
    0.8826    2.0881    0.7394 F   0  0  0  0  0  0  0  0  0  0  0  0
  1  6  1  0  0  0  0
  2  1  2  0  0  0  0
  2  3  1  0  0  0  0
  3  4  2  0  0  0  0
  4  5  1  0  0  0  0
  4  9  1  0  0  0  0
  5 10  1  0  0  0  0
  6 11  1  0  0  0  0
  6  5  2  0  0  0  0
  7  1  1  0  0  0  0
  8  2  1  0  0  0  0
 11 13  2  0  0  0  0
 12 11  2  0  0  0  0
 14 15  3  0  0  0  0
 16 17  1  0  0  0  0
 16 18  1  0  0  0  0
 19 16  1  0  0  0  0
 20  3  1  0  0  0  0
M  END
