Coordinates from ORCA-job 4-NO2-Ph-N2-BF4-B3LYPG-6-31G_dp-MTMO-d009-169-n800
 OpenBabel09051908343D

 20 18  0  0  0  0  0  0  0  0999 V2000
   -1.8874   -0.2495    0.6265 C   0  0  0  0  0  0  0  0  0  0  0  0
   -0.5863    0.2411    0.5677 C   0  0  0  0  0  0  0  0  0  0  0  0
   -0.3837    1.5985    0.7947 C   0  0  0  0  0  0  0  0  0  0  0  0
   -1.4177    2.4857    1.0762 C   0  0  0  0  0  0  0  0  0  0  0  0
   -2.7172    1.9910    1.1340 C   0  0  0  0  0  0  0  0  0  0  0  0
   -2.9314    0.6313    0.9082 C   0  0  0  0  0  0  0  0  0  0  0  0
   -2.1059   -1.2963    0.4573 H   0  0  0  0  0  0  0  0  0  0  0  0
    0.2581   -0.4016    0.3510 H   0  0  0  0  0  0  0  0  0  0  0  0
   -1.1982    3.5336    1.2455 H   0  0  0  0  0  0  0  0  0  0  0  0
   -3.5607    2.6344    1.3492 H   0  0  0  0  0  0  0  0  0  0  0  0
   -4.3047    0.1099    0.9693 N   0  0  0  0  0  0  0  0  0  0  0  0
   -4.4662   -1.0928    0.7672 O   0  0  0  0  0  0  0  0  0  0  0  0
   -5.2062    0.9092    1.2185 O   0  0  0  0  0  0  0  0  0  0  0  0
   10.7918   -0.3442   -2.7823 N   0  0  0  0  0  0  0  0  0  0  0  0
    9.7489   -0.2638   -2.4251 N   0  0  0  0  0  0  0  0  0  0  0  0
    3.0680    1.1469   -0.0855 B   0  0  0  0  0  0  0  0  0  0  0  0
    2.6164   -0.0979   -0.0244 F   0  0  0  0  0  0  0  0  0  0  0  0
    3.6780    1.6723    0.9567 F   0  0  0  0  0  0  0  0  0  0  0  0
    2.9690    1.8214   -1.2130 F   0  0  0  0  0  0  0  0  0  0  0  0
    0.8786    2.0896    0.7415 F   0  0  0  0  0  0  0  0  0  0  0  0
  1  6  1  0  0  0  0
  2  1  2  0  0  0  0
  2  3  1  0  0  0  0
  3  4  2  0  0  0  0
  4  5  1  0  0  0  0
  4  9  1  0  0  0  0
  5 10  1  0  0  0  0
  6 11  1  0  0  0  0
  6  5  2  0  0  0  0
  7  1  1  0  0  0  0
  8  2  1  0  0  0  0
 11 13  2  0  0  0  0
 12 11  2  0  0  0  0
 14 15  3  0  0  0  0
 16 17  1  0  0  0  0
 16 18  1  0  0  0  0
 19 16  1  0  0  0  0
 20  3  1  0  0  0  0
M  END
