Coordinates from ORCA-job 4-NO2-Ph-N2-BF4-B3LYPG-6-31G_dp-MTMO-d009-169-n800
 OpenBabel09051908343D

 20 18  0  0  0  0  0  0  0  0999 V2000
   -2.0310   -0.2083    0.5566 C   0  0  0  0  0  0  0  0  0  0  0  0
   -0.8233    0.4833    0.5755 C   0  0  0  0  0  0  0  0  0  0  0  0
   -0.8307    1.8094    0.9960 C   0  0  0  0  0  0  0  0  0  0  0  0
   -1.9851    2.4746    1.3966 C   0  0  0  0  0  0  0  0  0  0  0  0
   -3.1903    1.7793    1.3764 C   0  0  0  0  0  0  0  0  0  0  0  0
   -3.1942    0.4491    0.9569 C   0  0  0  0  0  0  0  0  0  0  0  0
   -2.0865   -1.2414    0.2386 H   0  0  0  0  0  0  0  0  0  0  0  0
    0.1068    0.0183    0.2733 H   0  0  0  0  0  0  0  0  0  0  0  0
   -1.9288    3.5089    1.7150 H   0  0  0  0  0  0  0  0  0  0  0  0
   -4.1196    2.2452    1.6777 H   0  0  0  0  0  0  0  0  0  0  0  0
   -4.4685   -0.2847    0.9357 N   0  0  0  0  0  0  0  0  0  0  0  0
   -4.4446   -1.4563    0.5618 O   0  0  0  0  0  0  0  0  0  0  0  0
   -5.4788    0.3197    1.2930 O   0  0  0  0  0  0  0  0  0  0  0  0
   13.9167   -1.8024   -3.7871 N   0  0  0  0  0  0  0  0  0  0  0  0
   12.8925   -1.5889   -3.4303 N   0  0  0  0  0  0  0  0  0  0  0  0
    2.6254    2.0374    0.0768 B   0  0  0  0  0  0  0  0  0  0  0  0
    2.3909    0.7350   -0.0009 F   0  0  0  0  0  0  0  0  0  0  0  0
    3.1733    2.5393    1.1641 F   0  0  0  0  0  0  0  0  0  0  0  0
    2.3799    2.8069   -0.9642 F   0  0  0  0  0  0  0  0  0  0  0  0
    0.3392    2.4943    1.0216 F   0  0  0  0  0  0  0  0  0  0  0  0
  1  2  2  0  0  0  0
  1  6  1  0  0  0  0
  2  3  1  0  0  0  0
  3 20  1  0  0  0  0
  3  4  2  0  0  0  0
  4  9  1  0  0  0  0
  5  4  1  0  0  0  0
  5 10  1  0  0  0  0
  6  5  2  0  0  0  0
  7  1  1  0  0  0  0
  8  2  1  0  0  0  0
 11  6  1  0  0  0  0
 11 13  2  0  0  0  0
 12 11  2  0  0  0  0
 14 15  3  0  0  0  0
 16 18  1  0  0  0  0
 17 16  1  0  0  0  0
 19 16  1  0  0  0  0
M  END
