Coordinates from ORCA-job 4-NO2-Ph-N2-BF4-B3LYPG-6-31G_dp-MTMO-d009-169-n800
 OpenBabel09051908343D

 20 18  0  0  0  0  0  0  0  0999 V2000
   -1.4658   -0.3388    0.7496 C   0  0  0  0  0  0  0  0  0  0  0  0
   -0.1127   -0.1721    0.4698 C   0  0  0  0  0  0  0  0  0  0  0  0
    0.3430    1.1054    0.1610 C   0  0  0  0  0  0  0  0  0  0  0  0
   -0.4870    2.2208    0.1211 C   0  0  0  0  0  0  0  0  0  0  0  0
   -1.8393    2.0498    0.4012 C   0  0  0  0  0  0  0  0  0  0  0  0
   -2.3073    0.7729    0.7107 C   0  0  0  0  0  0  0  0  0  0  0  0
   -1.8773   -1.3090    0.9971 H   0  0  0  0  0  0  0  0  0  0  0  0
    0.5822   -1.0025    0.4912 H   0  0  0  0  0  0  0  0  0  0  0  0
   -0.0740    3.1918   -0.1266 H   0  0  0  0  0  0  0  0  0  0  0  0
   -2.5318    2.8816    0.3845 H   0  0  0  0  0  0  0  0  0  0  0  0
   -3.7365    0.5933    1.0061 N   0  0  0  0  0  0  0  0  0  0  0  0
   -4.1239   -0.5431    1.2744 O   0  0  0  0  0  0  0  0  0  0  0  0
   -4.4558    1.5906    0.9667 O   0  0  0  0  0  0  0  0  0  0  0  0
    4.2613    2.0972   -2.3243 N   0  0  0  0  0  0  0  0  0  0  0  0
    5.2494    2.3107   -2.7707 N   0  0  0  0  0  0  0  0  0  0  0  0
    3.5261    0.1113    1.0506 B   0  0  0  0  0  0  0  0  0  0  0  0
    3.0251   -1.0730    0.7329 F   0  0  0  0  0  0  0  0  0  0  0  0
    3.1676    0.6898    2.1798 F   0  0  0  0  0  0  0  0  0  0  0  0
    4.4411    0.6638    0.2794 F   0  0  0  0  0  0  0  0  0  0  0  0
    1.6588    1.2783   -0.1212 F   0  0  0  0  0  0  0  0  0  0  0  0
  1  7  1  0  0  0  0
  2  8  1  0  0  0  0
  2  1  2  0  0  0  0
  3  2  1  0  0  0  0
  4  3  2  0  0  0  0
  4  5  1  0  0  0  0
  5  6  2  0  0  0  0
  6  1  1  0  0  0  0
  6 11  1  0  0  0  0
  9  4  1  0  0  0  0
 10  5  1  0  0  0  0
 11 12  2  0  0  0  0
 13 11  2  0  0  0  0
 15 14  3  0  0  0  0
 16 18  1  0  0  0  0
 17 16  1  0  0  0  0
 19 16  1  0  0  0  0
 20  3  1  0  0  0  0
M  END
