Coordinates from ORCA-job 4-NO2-Ph-N2-BF4-B3LYPG-6-31G_dp-MTMO-d009-169-n800
 OpenBabel09051908343D

 20 18  0  0  0  0  0  0  0  0999 V2000
   -2.1300   -0.2189    0.6797 C   0  0  0  0  0  0  0  0  0  0  0  0
   -0.8384    0.2970    0.6285 C   0  0  0  0  0  0  0  0  0  0  0  0
   -0.6609    1.6532    0.8819 C   0  0  0  0  0  0  0  0  0  0  0  0
   -1.7106    2.5152    1.1826 C   0  0  0  0  0  0  0  0  0  0  0  0
   -3.0004    1.9952    1.2330 C   0  0  0  0  0  0  0  0  0  0  0  0
   -3.1896    0.6366    0.9807 C   0  0  0  0  0  0  0  0  0  0  0  0
   -2.3294   -1.2660    0.4905 H   0  0  0  0  0  0  0  0  0  0  0  0
    0.0174   -0.3255    0.3982 H   0  0  0  0  0  0  0  0  0  0  0  0
   -1.5103    3.5635    1.3721 H   0  0  0  0  0  0  0  0  0  0  0  0
   -3.8554    2.6183    1.4624 H   0  0  0  0  0  0  0  0  0  0  0  0
   -4.5528    0.0882    1.0343 N   0  0  0  0  0  0  0  0  0  0  0  0
   -4.6922   -1.1129    0.8081 O   0  0  0  0  0  0  0  0  0  0  0  0
   -5.4685    0.8651    1.3022 O   0  0  0  0  0  0  0  0  0  0  0  0
   13.1833   -0.7756   -3.4814 N   0  0  0  0  0  0  0  0  0  0  0  0
   12.1374   -0.6777   -3.1378 N   0  0  0  0  0  0  0  0  0  0  0  0
    2.7976    1.2845   -0.0034 B   0  0  0  0  0  0  0  0  0  0  0  0
    2.3767    0.0291    0.0585 F   0  0  0  0  0  0  0  0  0  0  0  0
    3.4004    1.8232    1.0362 F   0  0  0  0  0  0  0  0  0  0  0  0
    2.6769    1.9576   -1.1297 F   0  0  0  0  0  0  0  0  0  0  0  0
    0.5921    2.1688    0.8365 F   0  0  0  0  0  0  0  0  0  0  0  0
  1  6  1  0  0  0  0
  2  1  2  0  0  0  0
  2  3  1  0  0  0  0
  3  4  2  0  0  0  0
  4  5  1  0  0  0  0
  4  9  1  0  0  0  0
  5 10  1  0  0  0  0
  6 11  1  0  0  0  0
  6  5  2  0  0  0  0
  7  1  1  0  0  0  0
  8  2  1  0  0  0  0
 11 13  2  0  0  0  0
 12 11  2  0  0  0  0
 14 15  3  0  0  0  0
 16 17  1  0  0  0  0
 16 18  1  0  0  0  0
 19 16  1  0  0  0  0
 20  3  1  0  0  0  0
M  END
