Coordinates from ORCA-job 4-NO2-Ph-N2-BF4-B3LYPG-6-31G_dp-MTMO-d009-169-n800
 OpenBabel09051908343D

 20 18  0  0  0  0  0  0  0  0999 V2000
   -1.4632   -0.3379    0.7479 C   0  0  0  0  0  0  0  0  0  0  0  0
   -0.1095   -0.1707    0.4715 C   0  0  0  0  0  0  0  0  0  0  0  0
    0.3467    1.1073    0.1649 C   0  0  0  0  0  0  0  0  0  0  0  0
   -0.4836    2.2225    0.1239 C   0  0  0  0  0  0  0  0  0  0  0  0
   -1.8365    2.0508    0.4005 C   0  0  0  0  0  0  0  0  0  0  0  0
   -2.3049    0.7735    0.7078 C   0  0  0  0  0  0  0  0  0  0  0  0
   -1.8751   -1.3084    0.9935 H   0  0  0  0  0  0  0  0  0  0  0  0
    0.5857   -1.0009    0.4938 H   0  0  0  0  0  0  0  0  0  0  0  0
   -0.0703    3.1938   -0.1221 H   0  0  0  0  0  0  0  0  0  0  0  0
   -2.5293    2.8824    0.3828 H   0  0  0  0  0  0  0  0  0  0  0  0
   -3.7347    0.5932    0.9996 N   0  0  0  0  0  0  0  0  0  0  0  0
   -4.1225   -0.5435    1.2659 O   0  0  0  0  0  0  0  0  0  0  0  0
   -4.4543    1.5903    0.9593 O   0  0  0  0  0  0  0  0  0  0  0  0
    4.2396    2.0949   -2.3237 N   0  0  0  0  0  0  0  0  0  0  0  0
    5.2238    2.3089   -2.7787 N   0  0  0  0  0  0  0  0  0  0  0  0
    3.5280    0.1089    1.0549 B   0  0  0  0  0  0  0  0  0  0  0  0
    3.0234   -1.0737    0.7365 F   0  0  0  0  0  0  0  0  0  0  0  0
    3.1724    0.6872    2.1851 F   0  0  0  0  0  0  0  0  0  0  0  0
    4.4446    0.6590    0.2838 F   0  0  0  0  0  0  0  0  0  0  0  0
    1.6631    1.2812   -0.1141 F   0  0  0  0  0  0  0  0  0  0  0  0
  1  7  1  0  0  0  0
  2  8  1  0  0  0  0
  2  1  2  0  0  0  0
  3  2  1  0  0  0  0
  4  3  2  0  0  0  0
  4  5  1  0  0  0  0
  5  6  2  0  0  0  0
  6  1  1  0  0  0  0
  6 11  1  0  0  0  0
  9  4  1  0  0  0  0
 10  5  1  0  0  0  0
 11 12  2  0  0  0  0
 13 11  2  0  0  0  0
 15 14  3  0  0  0  0
 16 18  1  0  0  0  0
 17 16  1  0  0  0  0
 19 16  1  0  0  0  0
 20  3  1  0  0  0  0
M  END
