Coordinates from ORCA-job 4-NO2-Ph-N2-BF4-B3LYPG-6-31G_dp-MTMO-d009-169-n800
 OpenBabel09051908343D

 20 19  0  0  1  0  0  0  0  0999 V2000
   -0.7667   -0.0154    0.4644 C   0  0  0  0  0  0  0  0  0  0  0  0
    0.6315    0.3717    0.1483 C   0  0  1  0  0  0  0  0  0  0  0  0
    0.7126    1.6765   -0.5876 C   0  0  0  0  0  0  0  0  0  0  0  0
   -0.3837    2.6255   -0.5425 C   0  0  0  0  0  0  0  0  0  0  0  0
   -1.5871    2.2574   -0.0429 C   0  0  0  0  0  0  0  0  0  0  0  0
   -1.7543    0.9012    0.4128 C   0  0  0  0  0  0  0  0  0  0  0  0
   -0.9677   -1.0261    0.7950 H   0  0  0  0  0  0  0  0  0  0  0  0
    1.1896   -0.4233   -0.3479 H   0  0  0  0  0  0  0  0  0  0  0  0
   -0.2159    3.6223   -0.9366 H   0  0  0  0  0  0  0  0  0  0  0  0
   -2.4290    2.9340   -0.0037 H   0  0  0  0  0  0  0  0  0  0  0  0
   -3.1185    0.4806    0.8192 N   0  0  0  0  0  0  0  0  0  0  0  0
   -3.2841   -0.6887    1.1534 O   0  0  0  0  0  0  0  0  0  0  0  0
   -3.9953    1.3414    0.7951 O   0  0  0  0  0  0  0  0  0  0  0  0
    1.7502    1.9524   -1.1678 N   0  0  0  0  0  0  0  0  0  0  0  0
    2.7198    2.2066   -1.7148 N   0  0  0  0  0  0  0  0  0  0  0  0
    3.2928   -0.3738    1.4969 B   0  0  0  0  0  0  0  0  0  0  0  0
    2.8496   -1.5746    1.1366 F   0  0  0  0  0  0  0  0  0  0  0  0
    3.5023   -0.0973    2.7700 F   0  0  0  0  0  0  0  0  0  0  0  0
    3.7691    0.4324    0.5511 F   0  0  0  0  0  0  0  0  0  0  0  0
    1.3278    0.5164    1.4341 F   0  0  0  0  0  0  0  0  0  0  0  0
  1  7  1  0  0  0  0
  2  8  1  6  0  0  0
  2  1  1  0  0  0  0
  2 20  1  0  0  0  0
  3  4  2  0  0  0  0
  3  2  1  0  0  0  0
  4  5  1  0  0  0  0
  5 10  1  0  0  0  0
  5  6  1  0  0  0  0
  6  1  2  0  0  0  0
  6 11  1  0  0  0  0
  9  4  1  0  0  0  0
 11 12  2  0  0  0  0
 13 11  2  0  0  0  0
 14  3  1  0  0  0  0
 15 14  1  0  0  0  0
 16 18  1  0  0  0  0
 17 16  1  0  0  0  0
 19 16  1  0  0  0  0
M  RAD  3   5   2  14   2  15   3
M  END
