Coordinates from ORCA-job 4-NO2-Ph-N2-BF4-B3LYPG-6-31G_dp-MTMO-d009-169-n800
 OpenBabel09051908343D

 20 18  0  0  0  0  0  0  0  0999 V2000
   -1.3274   -0.2675    0.6420 C   0  0  0  0  0  0  0  0  0  0  0  0
    0.0413   -0.0478    0.7668 C   0  0  0  0  0  0  0  0  0  0  0  0
    0.5062    1.2618    0.7027 C   0  0  0  0  0  0  0  0  0  0  0  0
   -0.3306    2.3577    0.5182 C   0  0  0  0  0  0  0  0  0  0  0  0
   -1.6981    2.1337    0.3939 C   0  0  0  0  0  0  0  0  0  0  0  0
   -2.1752    0.8246    0.4576 C   0  0  0  0  0  0  0  0  0  0  0  0
   -1.7467   -1.2647    0.6844 H   0  0  0  0  0  0  0  0  0  0  0  0
    0.7406   -0.8619    0.9108 H   0  0  0  0  0  0  0  0  0  0  0  0
    0.0901    3.3557    0.4748 H   0  0  0  0  0  0  0  0  0  0  0  0
   -2.3961    2.9482    0.2487 H   0  0  0  0  0  0  0  0  0  0  0  0
   -3.6204    0.5889    0.3253 N   0  0  0  0  0  0  0  0  0  0  0  0
   -4.0160   -0.5742    0.3868 O   0  0  0  0  0  0  0  0  0  0  0  0
   -4.3444    1.5702    0.1610 O   0  0  0  0  0  0  0  0  0  0  0  0
    2.7957    1.7757   -2.1627 N   0  0  0  0  0  0  0  0  0  0  0  0
    3.3423    1.8732   -3.1181 N   0  0  0  0  0  0  0  0  0  0  0  0
    3.8727    0.0033    1.1020 B   0  0  0  0  0  0  0  0  0  0  0  0
    3.1249   -1.0904    1.0839 F   0  0  0  0  0  0  0  0  0  0  0  0
    4.1315    0.6003    2.2470 F   0  0  0  0  0  0  0  0  0  0  0  0
    4.4166    0.4406   -0.0163 F   0  0  0  0  0  0  0  0  0  0  0  0
    1.8364    1.4917    0.8243 F   0  0  0  0  0  0  0  0  0  0  0  0
  1  7  1  0  0  0  0
  1  2  2  0  0  0  0
  2  8  1  0  0  0  0
  3  2  1  0  0  0  0
  3 20  1  0  0  0  0
  4  3  2  0  0  0  0
  5  6  2  0  0  0  0
  5  4  1  0  0  0  0
  6  1  1  0  0  0  0
  9  4  1  0  0  0  0
 10  5  1  0  0  0  0
 11 12  2  0  0  0  0
 11  6  1  0  0  0  0
 13 11  2  0  0  0  0
 15 14  3  0  0  0  0
 16 18  1  0  0  0  0
 17 16  1  0  0  0  0
 19 16  1  0  0  0  0
M  END
