Coordinates from ORCA-job 4-NO2-Ph-N2-BF4-B3LYPG-6-31G_dp-MTMO-d009-169-n800
 OpenBabel09051908343D

 20 18  0  0  0  0  0  0  0  0999 V2000
   -1.4830   -0.3448    0.7676 C   0  0  0  0  0  0  0  0  0  0  0  0
   -0.1351   -0.1797    0.4628 C   0  0  0  0  0  0  0  0  0  0  0  0
    0.3145    1.0957    0.1370 C   0  0  0  0  0  0  0  0  0  0  0  0
   -0.5164    2.2106    0.1039 C   0  0  0  0  0  0  0  0  0  0  0  0
   -1.8635    2.0410    0.4088 C   0  0  0  0  0  0  0  0  0  0  0  0
   -2.3255    0.7662    0.7354 C   0  0  0  0  0  0  0  0  0  0  0  0
   -1.8897   -1.3134    1.0292 H   0  0  0  0  0  0  0  0  0  0  0  0
    0.5606   -1.0097    0.4780 H   0  0  0  0  0  0  0  0  0  0  0  0
   -0.1084    3.1800   -0.1578 H   0  0  0  0  0  0  0  0  0  0  0  0
   -2.5567    2.8725    0.3984 H   0  0  0  0  0  0  0  0  0  0  0  0
   -3.7493    0.5882    1.0568 N   0  0  0  0  0  0  0  0  0  0  0  0
   -4.1313   -0.5463    1.3401 O   0  0  0  0  0  0  0  0  0  0  0  0
   -4.4698    1.5848    1.0225 O   0  0  0  0  0  0  0  0  0  0  0  0
    4.4542    2.1266   -2.3638 N   0  0  0  0  0  0  0  0  0  0  0  0
    5.4841    2.3203   -2.7148 N   0  0  0  0  0  0  0  0  0  0  0  0
    3.4942    0.1281    1.0144 B   0  0  0  0  0  0  0  0  0  0  0  0
    3.0113   -1.0640    0.6983 F   0  0  0  0  0  0  0  0  0  0  0  0
    3.1227    0.7049    2.1404 F   0  0  0  0  0  0  0  0  0  0  0  0
    4.4052    0.6910    0.2458 F   0  0  0  0  0  0  0  0  0  0  0  0
    1.6251    1.2666   -0.1698 F   0  0  0  0  0  0  0  0  0  0  0  0
  1  7  1  0  0  0  0
  2  8  1  0  0  0  0
  2  1  2  0  0  0  0
  3  2  1  0  0  0  0
  4  3  2  0  0  0  0
  4  5  1  0  0  0  0
  5  6  2  0  0  0  0
  6  1  1  0  0  0  0
  6 11  1  0  0  0  0
  9  4  1  0  0  0  0
 10  5  1  0  0  0  0
 11 12  2  0  0  0  0
 13 11  2  0  0  0  0
 15 14  3  0  0  0  0
 16 18  1  0  0  0  0
 17 16  1  0  0  0  0
 19 16  1  0  0  0  0
 20  3  1  0  0  0  0
M  END
