Coordinates from ORCA-job 4-NO2-Ph-N2-BF4-B3LYPG-6-31G_dp-MTMO-d009-169-n800
 OpenBabel09051908343D

 20 18  0  0  0  0  0  0  0  0999 V2000
   -1.6674   -0.2722    0.5502 C   0  0  0  0  0  0  0  0  0  0  0  0
   -0.3623    0.2009    0.4492 C   0  0  0  0  0  0  0  0  0  0  0  0
   -0.1332    1.5545    0.6747 C   0  0  0  0  0  0  0  0  0  0  0  0
   -1.1447    2.4545    0.9951 C   0  0  0  0  0  0  0  0  0  0  0  0
   -2.4481    1.9773    1.0951 C   0  0  0  0  0  0  0  0  0  0  0  0
   -2.6888    0.6217    0.8711 C   0  0  0  0  0  0  0  0  0  0  0  0
   -1.9060   -1.3151    0.3844 H   0  0  0  0  0  0  0  0  0  0  0  0
    0.4658   -0.4518    0.2016 H   0  0  0  0  0  0  0  0  0  0  0  0
   -0.9051    3.4985    1.1613 H   0  0  0  0  0  0  0  0  0  0  0  0
   -3.2748    2.6313    1.3416 H   0  0  0  0  0  0  0  0  0  0  0  0
   -4.0662    0.1189    0.9773 N   0  0  0  0  0  0  0  0  0  0  0  0
   -4.2513   -1.0805    0.7755 O   0  0  0  0  0  0  0  0  0  0  0  0
   -4.9474    0.9289    1.2623 O   0  0  0  0  0  0  0  0  0  0  0  0
    8.5762    0.0209   -1.9702 N   0  0  0  0  0  0  0  0  0  0  0  0
    7.5287    0.1329   -1.6356 N   0  0  0  0  0  0  0  0  0  0  0  0
    3.3211    1.0284   -0.2644 B   0  0  0  0  0  0  0  0  0  0  0  0
    2.8301   -0.2022   -0.2244 F   0  0  0  0  0  0  0  0  0  0  0  0
    3.9403    1.5196    0.7889 F   0  0  0  0  0  0  0  0  0  0  0  0
    3.2432    1.7250   -1.3799 F   0  0  0  0  0  0  0  0  0  0  0  0
    1.1333    2.0273    0.5797 F   0  0  0  0  0  0  0  0  0  0  0  0
  1  6  1  0  0  0  0
  2  1  2  0  0  0  0
  2  3  1  0  0  0  0
  3  4  2  0  0  0  0
  4  5  1  0  0  0  0
  4  9  1  0  0  0  0
  5 10  1  0  0  0  0
  6 11  1  0  0  0  0
  6  5  2  0  0  0  0
  7  1  1  0  0  0  0
  8  2  1  0  0  0  0
 11 13  2  0  0  0  0
 12 11  2  0  0  0  0
 14 15  3  0  0  0  0
 16 17  1  0  0  0  0
 16 18  1  0  0  0  0
 19 16  1  0  0  0  0
 20  3  1  0  0  0  0
M  END
