Coordinates from ORCA-job 4-NO2-Ph-N2-BF4-B3LYPG-6-31G_dp-MTMO-d009-169-n800
 OpenBabel09051908343D

 20 18  0  0  0  0  0  0  0  0999 V2000
   -1.3140   -0.2999    0.6187 C   0  0  0  0  0  0  0  0  0  0  0  0
   -0.0223    0.1858    0.7979 C   0  0  0  0  0  0  0  0  0  0  0  0
    0.1439    1.5484    1.0237 C   0  0  0  0  0  0  0  0  0  0  0  0
   -0.9181    2.4455    1.0759 C   0  0  0  0  0  0  0  0  0  0  0  0
   -2.2084    1.9557    0.8974 C   0  0  0  0  0  0  0  0  0  0  0  0
   -2.3859    0.5909    0.6718 C   0  0  0  0  0  0  0  0  0  0  0  0
   -1.5042   -1.3504    0.4384 H   0  0  0  0  0  0  0  0  0  0  0  0
    0.8437   -0.4637    0.7618 H   0  0  0  0  0  0  0  0  0  0  0  0
   -0.7272    3.4973    1.2561 H   0  0  0  0  0  0  0  0  0  0  0  0
   -3.0728    2.6066    0.9297 H   0  0  0  0  0  0  0  0  0  0  0  0
   -3.7495    0.0743    0.4846 N   0  0  0  0  0  0  0  0  0  0  0  0
   -3.8786   -1.1332    0.2874 O   0  0  0  0  0  0  0  0  0  0  0  0
   -4.6761    0.8820    0.5372 O   0  0  0  0  0  0  0  0  0  0  0  0
    6.1750   -0.3326   -2.3624 N   0  0  0  0  0  0  0  0  0  0  0  0
    5.4720    0.1508   -1.6614 N   0  0  0  0  0  0  0  0  0  0  0  0
    3.4127    1.1899   -0.0790 B   0  0  0  0  0  0  0  0  0  0  0  0
    3.2378   -0.0327    0.4021 F   0  0  0  0  0  0  0  0  0  0  0  0
    4.2121    2.0322    0.5423 F   0  0  0  0  0  0  0  0  0  0  0  0
    2.8064    1.5416   -1.1968 F   0  0  0  0  0  0  0  0  0  0  0  0
    1.3968    2.0304    1.2079 F   0  0  0  0  0  0  0  0  0  0  0  0
  1  6  2  0  0  0  0
  1  2  1  0  0  0  0
  2  3  2  0  0  0  0
  3  4  1  0  0  0  0
  3 20  1  0  0  0  0
  4  9  1  0  0  0  0
  5 10  1  0  0  0  0
  5  4  2  0  0  0  0
  6  5  1  0  0  0  0
  7  1  1  0  0  0  0
  8  2  1  0  0  0  0
 11 13  2  0  0  0  0
 11  6  1  0  0  0  0
 12 11  2  0  0  0  0
 14 15  3  0  0  0  0
 16 17  1  0  0  0  0
 16 18  1  0  0  0  0
 19 16  1  0  0  0  0
M  END
