Coordinates from ORCA-job 4-NO2-Ph-N2-BF4-B3LYPG-6-31G_dp-MTMO-d009-169-n800
 OpenBabel09051908343D

 20 18  0  0  0  0  0  0  0  0999 V2000
   -1.6521   -0.2733    0.5470 C   0  0  0  0  0  0  0  0  0  0  0  0
   -0.3470    0.1995    0.4453 C   0  0  0  0  0  0  0  0  0  0  0  0
   -0.1173    1.5530    0.6703 C   0  0  0  0  0  0  0  0  0  0  0  0
   -1.1283    2.4534    0.9910 C   0  0  0  0  0  0  0  0  0  0  0  0
   -2.4318    1.9767    1.0917 C   0  0  0  0  0  0  0  0  0  0  0  0
   -2.6731    0.6211    0.8681 C   0  0  0  0  0  0  0  0  0  0  0  0
   -1.8911   -1.3161    0.3815 H   0  0  0  0  0  0  0  0  0  0  0  0
    0.4809   -0.4534    0.1973 H   0  0  0  0  0  0  0  0  0  0  0  0
   -0.8883    3.4974    1.1568 H   0  0  0  0  0  0  0  0  0  0  0  0
   -3.2582    2.6310    1.3383 H   0  0  0  0  0  0  0  0  0  0  0  0
   -4.0507    0.1189    0.9745 N   0  0  0  0  0  0  0  0  0  0  0  0
   -4.2363   -1.0804    0.7724 O   0  0  0  0  0  0  0  0  0  0  0  0
   -4.9316    0.9293    1.2591 O   0  0  0  0  0  0  0  0  0  0  0  0
    8.4217    0.0437   -1.9208 N   0  0  0  0  0  0  0  0  0  0  0  0
    7.3746    0.1624   -1.5872 N   0  0  0  0  0  0  0  0  0  0  0  0
    3.3437    1.0181   -0.2763 B   0  0  0  0  0  0  0  0  0  0  0  0
    2.8491   -0.2111   -0.2366 F   0  0  0  0  0  0  0  0  0  0  0  0
    3.9641    1.5074    0.7772 F   0  0  0  0  0  0  0  0  0  0  0  0
    3.2655    1.7162   -1.3907 F   0  0  0  0  0  0  0  0  0  0  0  0
    1.1495    2.0249    0.5744 F   0  0  0  0  0  0  0  0  0  0  0  0
  1  6  1  0  0  0  0
  2  1  2  0  0  0  0
  2  3  1  0  0  0  0
  3  4  2  0  0  0  0
  4  5  1  0  0  0  0
  4  9  1  0  0  0  0
  5 10  1  0  0  0  0
  6 11  1  0  0  0  0
  6  5  2  0  0  0  0
  7  1  1  0  0  0  0
  8  2  1  0  0  0  0
 11 13  2  0  0  0  0
 12 11  2  0  0  0  0
 14 15  3  0  0  0  0
 16 17  1  0  0  0  0
 16 18  1  0  0  0  0
 19 16  1  0  0  0  0
 20  3  1  0  0  0  0
M  END
