Coordinates from ORCA-job 4-NO2-Ph-N2-BF4-B3LYPG-6-31G_dp-MTMO-d009-169-n800
 OpenBabel09051908343D

 20 18  0  0  0  0  0  0  0  0999 V2000
   -1.8959   -0.2484    0.6283 C   0  0  0  0  0  0  0  0  0  0  0  0
   -0.5951    0.2432    0.5701 C   0  0  0  0  0  0  0  0  0  0  0  0
   -0.3935    1.6006    0.7978 C   0  0  0  0  0  0  0  0  0  0  0  0
   -1.4283    2.4869    1.0793 C   0  0  0  0  0  0  0  0  0  0  0  0
   -2.7274    1.9913    1.1366 C   0  0  0  0  0  0  0  0  0  0  0  0
   -2.9406    0.6316    0.9102 C   0  0  0  0  0  0  0  0  0  0  0  0
   -2.1135   -1.2952    0.4587 H   0  0  0  0  0  0  0  0  0  0  0  0
    0.2497   -0.3989    0.3534 H   0  0  0  0  0  0  0  0  0  0  0  0
   -1.2096    3.5349    1.2492 H   0  0  0  0  0  0  0  0  0  0  0  0
   -3.5714    2.6341    1.3520 H   0  0  0  0  0  0  0  0  0  0  0  0
   -4.3135    0.1091    0.9711 N   0  0  0  0  0  0  0  0  0  0  0  0
   -4.4740   -1.0937    0.7687 O   0  0  0  0  0  0  0  0  0  0  0  0
   -5.2156    0.9075    1.2210 O   0  0  0  0  0  0  0  0  0  0  0  0
   10.8761   -0.3593   -2.8086 N   0  0  0  0  0  0  0  0  0  0  0  0
    9.8332   -0.2784   -2.4519 N   0  0  0  0  0  0  0  0  0  0  0  0
    3.0586    1.1514   -0.0810 B   0  0  0  0  0  0  0  0  0  0  0  0
    2.6078   -0.0937   -0.0202 F   0  0  0  0  0  0  0  0  0  0  0  0
    3.6680    1.6771    0.9614 F   0  0  0  0  0  0  0  0  0  0  0  0
    2.9596    1.8260   -1.2085 F   0  0  0  0  0  0  0  0  0  0  0  0
    0.8686    2.0927    0.7456 F   0  0  0  0  0  0  0  0  0  0  0  0
  1  6  1  0  0  0  0
  2  1  2  0  0  0  0
  2  3  1  0  0  0  0
  3  4  2  0  0  0  0
  4  5  1  0  0  0  0
  4  9  1  0  0  0  0
  5 10  1  0  0  0  0
  6 11  1  0  0  0  0
  6  5  2  0  0  0  0
  7  1  1  0  0  0  0
  8  2  1  0  0  0  0
 11 13  2  0  0  0  0
 12 11  2  0  0  0  0
 14 15  3  0  0  0  0
 16 17  1  0  0  0  0
 16 18  1  0  0  0  0
 19 16  1  0  0  0  0
 20  3  1  0  0  0  0
M  END
