Coordinates from ORCA-job 4-NO2-Ph-N2-BF4-B3LYPG-6-31G_dp-MTMO-d009-169-n800
 OpenBabel09051908343D

 20 18  0  0  0  0  0  0  0  0999 V2000
   -1.5279   -0.3486    0.8345 C   0  0  0  0  0  0  0  0  0  0  0  0
   -0.1908   -0.1692    0.4931 C   0  0  0  0  0  0  0  0  0  0  0  0
    0.2291    1.1043    0.1232 C   0  0  0  0  0  0  0  0  0  0  0  0
   -0.6216    2.2038    0.0806 C   0  0  0  0  0  0  0  0  0  0  0  0
   -1.9580    2.0201    0.4220 C   0  0  0  0  0  0  0  0  0  0  0  0
   -2.3900    0.7471    0.7934 C   0  0  0  0  0  0  0  0  0  0  0  0
   -1.9117   -1.3163    1.1311 H   0  0  0  0  0  0  0  0  0  0  0  0
    0.5190   -0.9873    0.5123 H   0  0  0  0  0  0  0  0  0  0  0  0
   -0.2366    3.1725   -0.2161 H   0  0  0  0  0  0  0  0  0  0  0  0
   -2.6655    2.8394    0.4061 H   0  0  0  0  0  0  0  0  0  0  0  0
   -3.8026    0.5540    1.1533 N   0  0  0  0  0  0  0  0  0  0  0  0
   -4.1579   -0.5787    1.4762 O   0  0  0  0  0  0  0  0  0  0  0  0
   -4.5409    1.5370    1.1091 O   0  0  0  0  0  0  0  0  0  0  0  0
    4.9912    2.4065   -2.4031 N   0  0  0  0  0  0  0  0  0  0  0  0
    6.0378    2.0605   -2.4833 N   0  0  0  0  0  0  0  0  0  0  0  0
    3.4707    0.1590    0.8458 B   0  0  0  0  0  0  0  0  0  0  0  0
    2.9722   -1.0353    0.5631 F   0  0  0  0  0  0  0  0  0  0  0  0
    3.1781    0.7323    1.9964 F   0  0  0  0  0  0  0  0  0  0  0  0
    4.3197    0.7282    0.0136 F   0  0  0  0  0  0  0  0  0  0  0  0
    1.5291    1.2895   -0.2181 F   0  0  0  0  0  0  0  0  0  0  0  0
  1  7  1  0  0  0  0
  2  8  1  0  0  0  0
  2  1  2  0  0  0  0
  3  2  1  0  0  0  0
  4  3  2  0  0  0  0
  4  5  1  0  0  0  0
  5  6  2  0  0  0  0
  6  1  1  0  0  0  0
  6 11  1  0  0  0  0
  9  4  1  0  0  0  0
 10  5  1  0  0  0  0
 11 12  2  0  0  0  0
 13 11  2  0  0  0  0
 15 14  3  0  0  0  0
 16 18  1  0  0  0  0
 17 16  1  0  0  0  0
 19 16  1  0  0  0  0
 20  3  1  0  0  0  0
M  END
