Coordinates from ORCA-job 4-NO2-Ph-N2-BF4-B3LYPG-6-31G_dp-MTMO-d009-169-n800
 OpenBabel09051908343D

 20 18  0  0  0  0  0  0  0  0999 V2000
   -1.3746   -0.2884    0.5785 C   0  0  0  0  0  0  0  0  0  0  0  0
   -0.0744    0.1957    0.6863 C   0  0  0  0  0  0  0  0  0  0  0  0
    0.1053    1.5532    0.9322 C   0  0  0  0  0  0  0  0  0  0  0  0
   -0.9517    2.4466    1.0739 C   0  0  0  0  0  0  0  0  0  0  0  0
   -2.2504    1.9585    0.9666 C   0  0  0  0  0  0  0  0  0  0  0  0
   -2.4413    0.5990    0.7204 C   0  0  0  0  0  0  0  0  0  0  0  0
   -1.5755   -1.3347    0.3863 H   0  0  0  0  0  0  0  0  0  0  0  0
    0.7880   -0.4514    0.5818 H   0  0  0  0  0  0  0  0  0  0  0  0
   -0.7501    3.4943    1.2659 H   0  0  0  0  0  0  0  0  0  0  0  0
   -3.1112    2.6066    1.0696 H   0  0  0  0  0  0  0  0  0  0  0  0
   -3.8138    0.0845    0.6076 N   0  0  0  0  0  0  0  0  0  0  0  0
   -3.9548   -1.1183    0.3906 O   0  0  0  0  0  0  0  0  0  0  0  0
   -4.7356    0.8890    0.7375 O   0  0  0  0  0  0  0  0  0  0  0  0
    6.5768   -0.2301   -2.1056 N   0  0  0  0  0  0  0  0  0  0  0  0
    5.6947    0.1440   -1.5566 N   0  0  0  0  0  0  0  0  0  0  0  0
    3.4318    1.1412   -0.1829 B   0  0  0  0  0  0  0  0  0  0  0  0
    3.1980   -0.0821    0.2702 F   0  0  0  0  0  0  0  0  0  0  0  0
    4.2064    1.9582    0.5005 F   0  0  0  0  0  0  0  0  0  0  0  0
    2.9085    1.5198   -1.3327 F   0  0  0  0  0  0  0  0  0  0  0  0
    1.3672    2.0333    1.0433 F   0  0  0  0  0  0  0  0  0  0  0  0
  1  2  2  0  0  0  0
  1  6  1  0  0  0  0
  2  3  1  0  0  0  0
  3 20  1  0  0  0  0
  3  4  2  0  0  0  0
  4  9  1  0  0  0  0
  5 10  1  0  0  0  0
  5  4  1  0  0  0  0
  6  5  2  0  0  0  0
  7  1  1  0  0  0  0
  8  2  1  0  0  0  0
 11  6  1  0  0  0  0
 11 13  2  0  0  0  0
 12 11  2  0  0  0  0
 14 15  3  0  0  0  0
 16 17  1  0  0  0  0
 16 18  1  0  0  0  0
 19 16  1  0  0  0  0
M  END
