Coordinates from ORCA-job 4-NO2-Ph-N2-BF4-B3LYPG-6-31G_dp-MTMO-d009-169-n800
 OpenBabel09051908343D

 20 18  0  0  0  0  0  0  0  0999 V2000
   -1.5562   -0.2686    0.5039 C   0  0  0  0  0  0  0  0  0  0  0  0
   -0.2593    0.2181    0.3701 C   0  0  0  0  0  0  0  0  0  0  0  0
   -0.0355    1.5719    0.6012 C   0  0  0  0  0  0  0  0  0  0  0  0
   -1.0457    2.4592    0.9595 C   0  0  0  0  0  0  0  0  0  0  0  0
   -2.3412    1.9687    1.0924 C   0  0  0  0  0  0  0  0  0  0  0  0
   -2.5762    0.6130    0.8624 C   0  0  0  0  0  0  0  0  0  0  0  0
   -1.7901   -1.3120    0.3352 H   0  0  0  0  0  0  0  0  0  0  0  0
    0.5685   -0.4237    0.0935 H   0  0  0  0  0  0  0  0  0  0  0  0
   -0.8112    3.5039    1.1286 H   0  0  0  0  0  0  0  0  0  0  0  0
   -3.1665    2.6125    1.3686 H   0  0  0  0  0  0  0  0  0  0  0  0
   -3.9453    0.0967    1.0025 N   0  0  0  0  0  0  0  0  0  0  0  0
   -4.1258   -1.1021    0.7926 O   0  0  0  0  0  0  0  0  0  0  0  0
   -4.8253    0.8955    1.3212 O   0  0  0  0  0  0  0  0  0  0  0  0
    7.4458    0.0904   -1.5670 N   0  0  0  0  0  0  0  0  0  0  0  0
    6.4011    0.2576   -1.2481 N   0  0  0  0  0  0  0  0  0  0  0  0
    3.5155    0.9788   -0.3611 B   0  0  0  0  0  0  0  0  0  0  0  0
    2.9757   -0.2316   -0.3406 F   0  0  0  0  0  0  0  0  0  0  0  0
    4.1092    1.4485    0.7162 F   0  0  0  0  0  0  0  0  0  0  0  0
    3.4825    1.6887   -1.4700 F   0  0  0  0  0  0  0  0  0  0  0  0
    1.2234    2.0534    0.4722 F   0  0  0  0  0  0  0  0  0  0  0  0
  1  6  1  0  0  0  0
  2  1  2  0  0  0  0
  2  3  1  0  0  0  0
  3  4  2  0  0  0  0
  4  5  1  0  0  0  0
  4  9  1  0  0  0  0
  5 10  1  0  0  0  0
  6 11  1  0  0  0  0
  6  5  2  0  0  0  0
  7  1  1  0  0  0  0
  8  2  1  0  0  0  0
 11 13  2  0  0  0  0
 12 11  2  0  0  0  0
 14 15  3  0  0  0  0
 16 17  1  0  0  0  0
 16 18  1  0  0  0  0
 19 16  1  0  0  0  0
 20  3  1  0  0  0  0
M  END
