Coordinates from ORCA-job 4-NO2-Ph-N2-BF4-B3LYPG-6-31G_dp-MTMO-d009-169-n800
 OpenBabel09051908343D

 20 18  0  0  0  0  0  0  0  0999 V2000
   -1.3228   -0.2665    0.6374 C   0  0  0  0  0  0  0  0  0  0  0  0
    0.0457   -0.0472    0.7652 C   0  0  0  0  0  0  0  0  0  0  0  0
    0.5109    1.2624    0.7035 C   0  0  0  0  0  0  0  0  0  0  0  0
   -0.3255    2.3586    0.5184 C   0  0  0  0  0  0  0  0  0  0  0  0
   -1.6927    2.1349    0.3912 C   0  0  0  0  0  0  0  0  0  0  0  0
   -2.1701    0.8258    0.4524 C   0  0  0  0  0  0  0  0  0  0  0  0
   -1.7422   -1.2638    0.6780 H   0  0  0  0  0  0  0  0  0  0  0  0
    0.7442   -0.8618    0.9100 H   0  0  0  0  0  0  0  0  0  0  0  0
    0.0954    3.3566    0.4771 H   0  0  0  0  0  0  0  0  0  0  0  0
   -2.3902    2.9497    0.2455 H   0  0  0  0  0  0  0  0  0  0  0  0
   -3.6151    0.5903    0.3172 N   0  0  0  0  0  0  0  0  0  0  0  0
   -4.0110   -0.5728    0.3767 O   0  0  0  0  0  0  0  0  0  0  0  0
   -4.3386    1.5720    0.1525 O   0  0  0  0  0  0  0  0  0  0  0  0
    2.7591    1.7706   -2.1440 N   0  0  0  0  0  0  0  0  0  0  0  0
    3.2957    1.8667   -3.1052 N   0  0  0  0  0  0  0  0  0  0  0  0
    3.8763    0.0026    1.1051 B   0  0  0  0  0  0  0  0  0  0  0  0
    3.1276   -1.0905    1.0937 F   0  0  0  0  0  0  0  0  0  0  0  0
    4.1420    0.6020    2.2473 F   0  0  0  0  0  0  0  0  0  0  0  0
    4.4138    0.4373   -0.0173 F   0  0  0  0  0  0  0  0  0  0  0  0
    1.8408    1.4922    0.8286 F   0  0  0  0  0  0  0  0  0  0  0  0
  1  7  1  0  0  0  0
  1  2  2  0  0  0  0
  2  8  1  0  0  0  0
  3  2  1  0  0  0  0
  3 20  1  0  0  0  0
  4  3  2  0  0  0  0
  5  6  2  0  0  0  0
  5  4  1  0  0  0  0
  6  1  1  0  0  0  0
  9  4  1  0  0  0  0
 10  5  1  0  0  0  0
 11 12  2  0  0  0  0
 11  6  1  0  0  0  0
 13 11  2  0  0  0  0
 15 14  3  0  0  0  0
 16 18  1  0  0  0  0
 17 16  1  0  0  0  0
 19 16  1  0  0  0  0
M  END
