Coordinates from ORCA-job 4-NO2-Ph-N2-BF4-B3LYPG-6-31G_dp-MTMO-d009-169-n800
 OpenBabel09051908343D

 20 18  0  0  0  0  0  0  0  0999 V2000
   -1.6097   -0.2701    0.5179 C   0  0  0  0  0  0  0  0  0  0  0  0
   -0.3069    0.1979    0.3747 C   0  0  0  0  0  0  0  0  0  0  0  0
   -0.0633    1.5499    0.5966 C   0  0  0  0  0  0  0  0  0  0  0  0
   -1.0595    2.4529    0.9546 C   0  0  0  0  0  0  0  0  0  0  0  0
   -2.3610    1.9811    1.0968 C   0  0  0  0  0  0  0  0  0  0  0  0
   -2.6157    0.6274    0.8761 C   0  0  0  0  0  0  0  0  0  0  0  0
   -1.8586   -1.3113    0.3567 H   0  0  0  0  0  0  0  0  0  0  0  0
    0.5106   -0.4567    0.0979 H   0  0  0  0  0  0  0  0  0  0  0  0
   -0.8100    3.4953    1.1161 H   0  0  0  0  0  0  0  0  0  0  0  0
   -3.1759    2.6379    1.3732 H   0  0  0  0  0  0  0  0  0  0  0  0
   -3.9909    0.1307    1.0260 N   0  0  0  0  0  0  0  0  0  0  0  0
   -4.1889   -1.0666    0.8236 O   0  0  0  0  0  0  0  0  0  0  0  0
   -4.8583    0.9432    1.3446 O   0  0  0  0  0  0  0  0  0  0  0  0
    7.7387    0.2484   -1.5998 N   0  0  0  0  0  0  0  0  0  0  0  0
    6.6828    0.3609   -1.2934 N   0  0  0  0  0  0  0  0  0  0  0  0
    3.4957    0.9046   -0.3685 B   0  0  0  0  0  0  0  0  0  0  0  0
    2.9183   -0.2881   -0.3469 F   0  0  0  0  0  0  0  0  0  0  0  0
    4.1085    1.3540    0.7066 F   0  0  0  0  0  0  0  0  0  0  0  0
    3.4858    1.6139   -1.4781 F   0  0  0  0  0  0  0  0  0  0  0  0
    1.2014    2.0134    0.4583 F   0  0  0  0  0  0  0  0  0  0  0  0
  1  6  1  0  0  0  0
  2  1  2  0  0  0  0
  2  3  1  0  0  0  0
  3  4  2  0  0  0  0
  4  5  1  0  0  0  0
  4  9  1  0  0  0  0
  5 10  1  0  0  0  0
  6 11  1  0  0  0  0
  6  5  2  0  0  0  0
  7  1  1  0  0  0  0
  8  2  1  0  0  0  0
 11 13  2  0  0  0  0
 12 11  2  0  0  0  0
 14 15  3  0  0  0  0
 16 17  1  0  0  0  0
 16 18  1  0  0  0  0
 19 16  1  0  0  0  0
 20  3  1  0  0  0  0
M  END
