Coordinates from ORCA-job 4-NO2-Ph-N2-BF4-B3LYPG-6-31G_dp-MTMO-d009-169-n800
 OpenBabel09051908343D

 20 18  0  0  0  0  0  0  0  0999 V2000
   -1.6489   -0.2735    0.5346 C   0  0  0  0  0  0  0  0  0  0  0  0
   -0.3420    0.1872    0.4049 C   0  0  0  0  0  0  0  0  0  0  0  0
   -0.0946    1.5383    0.6265 C   0  0  0  0  0  0  0  0  0  0  0  0
   -1.0898    2.4475    0.9709 C   0  0  0  0  0  0  0  0  0  0  0  0
   -2.3952    1.9829    1.0995 C   0  0  0  0  0  0  0  0  0  0  0  0
   -2.6542    0.6299    0.8793 C   0  0  0  0  0  0  0  0  0  0  0  0
   -1.9013   -1.3137    0.3730 H   0  0  0  0  0  0  0  0  0  0  0  0
    0.4745   -0.4729    0.1385 H   0  0  0  0  0  0  0  0  0  0  0  0
   -0.8365    3.4889    1.1328 H   0  0  0  0  0  0  0  0  0  0  0  0
   -3.2098    2.6446    1.3652 H   0  0  0  0  0  0  0  0  0  0  0  0
   -4.0338    0.1406    1.0149 N   0  0  0  0  0  0  0  0  0  0  0  0
   -4.2354   -1.0563    0.8137 O   0  0  0  0  0  0  0  0  0  0  0  0
   -4.9003    0.9584    1.3214 O   0  0  0  0  0  0  0  0  0  0  0  0
    8.2172    0.1858   -1.7494 N   0  0  0  0  0  0  0  0  0  0  0  0
    7.1615    0.3007   -1.4426 N   0  0  0  0  0  0  0  0  0  0  0  0
    3.3789    0.9434   -0.3333 B   0  0  0  0  0  0  0  0  0  0  0  0
    2.8547   -0.2736   -0.3016 F   0  0  0  0  0  0  0  0  0  0  0  0
    4.0004    1.4151    0.7273 F   0  0  0  0  0  0  0  0  0  0  0  0
    3.3238    1.6479   -1.4450 F   0  0  0  0  0  0  0  0  0  0  0  0
    1.1741    1.9977    0.5025 F   0  0  0  0  0  0  0  0  0  0  0  0
  1  6  1  0  0  0  0
  2  1  2  0  0  0  0
  2  3  1  0  0  0  0
  3  4  2  0  0  0  0
  4  5  1  0  0  0  0
  4  9  1  0  0  0  0
  5 10  1  0  0  0  0
  6 11  1  0  0  0  0
  6  5  2  0  0  0  0
  7  1  1  0  0  0  0
  8  2  1  0  0  0  0
 11 13  2  0  0  0  0
 12 11  2  0  0  0  0
 14 15  3  0  0  0  0
 16 17  1  0  0  0  0
 16 18  1  0  0  0  0
 19 16  1  0  0  0  0
 20  3  1  0  0  0  0
M  END
