Coordinates from ORCA-job 4-NO2-Ph-N2-BF4-B3LYPG-6-31G_dp-MTMO-d009-169-n800
 OpenBabel09051908343D

 20 18  0  0  0  0  0  0  0  0999 V2000
   -1.2884   -0.2575    0.6047 C   0  0  0  0  0  0  0  0  0  0  0  0
    0.0717   -0.0365    0.8010 C   0  0  0  0  0  0  0  0  0  0  0  0
    0.5329    1.2759    0.7948 C   0  0  0  0  0  0  0  0  0  0  0  0
   -0.2995    2.3736    0.6003 C   0  0  0  0  0  0  0  0  0  0  0  0
   -1.6583    2.1483    0.4046 C   0  0  0  0  0  0  0  0  0  0  0  0
   -2.1315    0.8362    0.4093 C   0  0  0  0  0  0  0  0  0  0  0  0
   -1.7045   -1.2570    0.5996 H   0  0  0  0  0  0  0  0  0  0  0  0
    0.7672   -0.8517    0.9563 H   0  0  0  0  0  0  0  0  0  0  0  0
    0.1180    3.3739    0.6046 H   0  0  0  0  0  0  0  0  0  0  0  0
   -2.3526    2.9638    0.2480 H   0  0  0  0  0  0  0  0  0  0  0  0
   -3.5673    0.5990    0.2004 N   0  0  0  0  0  0  0  0  0  0  0  0
   -3.9599   -0.5668    0.2119 O   0  0  0  0  0  0  0  0  0  0  0  0
   -4.2871    1.5817    0.0264 O   0  0  0  0  0  0  0  0  0  0  0  0
    2.5422    1.6837   -2.0951 N   0  0  0  0  0  0  0  0  0  0  0  0
    2.9450    1.7390   -3.1227 N   0  0  0  0  0  0  0  0  0  0  0  0
    3.9014    0.0168    1.0997 B   0  0  0  0  0  0  0  0  0  0  0  0
    3.1517   -1.0735    1.1698 F   0  0  0  0  0  0  0  0  0  0  0  0
    4.2593    0.6377    2.2044 F   0  0  0  0  0  0  0  0  0  0  0  0
    4.3487    0.4257   -0.0712 F   0  0  0  0  0  0  0  0  0  0  0  0
    1.8545    1.5067    0.9865 F   0  0  0  0  0  0  0  0  0  0  0  0
  1  2  2  0  0  0  0
  2  8  1  0  0  0  0
  3  2  1  0  0  0  0
  3 20  1  0  0  0  0
  4  9  1  0  0  0  0
  4  3  2  0  0  0  0
  5  6  2  0  0  0  0
  5  4  1  0  0  0  0
  6  1  1  0  0  0  0
  7  1  1  0  0  0  0
 10  5  1  0  0  0  0
 11 12  2  0  0  0  0
 11  6  1  0  0  0  0
 13 11  2  0  0  0  0
 15 14  3  0  0  0  0
 16 17  1  0  0  0  0
 16 18  1  0  0  0  0
 19 16  1  0  0  0  0
M  END
