Coordinates from ORCA-job 4-NO2-Ph-N2-BF4-B3LYPG-6-31G_dp-MTMO-d009-169-n800
 OpenBabel09051908343D

 20 18  0  0  0  0  0  0  0  0999 V2000
   -2.0639   -0.2017    0.5638 C   0  0  0  0  0  0  0  0  0  0  0  0
   -0.8557    0.4893    0.5791 C   0  0  0  0  0  0  0  0  0  0  0  0
   -0.8608    1.8148    1.0015 C   0  0  0  0  0  0  0  0  0  0  0  0
   -2.0135    2.4798    1.4072 C   0  0  0  0  0  0  0  0  0  0  0  0
   -3.2192    1.7852    1.3907 C   0  0  0  0  0  0  0  0  0  0  0  0
   -3.2253    0.4555    0.9694 C   0  0  0  0  0  0  0  0  0  0  0  0
   -2.1209   -1.2343    0.2446 H   0  0  0  0  0  0  0  0  0  0  0  0
    0.0728    0.0241    0.2725 H   0  0  0  0  0  0  0  0  0  0  0  0
   -1.9556    3.5137    1.7269 H   0  0  0  0  0  0  0  0  0  0  0  0
   -4.1471    2.2512    1.6961 H   0  0  0  0  0  0  0  0  0  0  0  0
   -4.4999   -0.2777    0.9519 N   0  0  0  0  0  0  0  0  0  0  0  0
   -4.4778   -1.4489    0.5765 O   0  0  0  0  0  0  0  0  0  0  0  0
   -5.5086    0.3267    1.3137 O   0  0  0  0  0  0  0  0  0  0  0  0
   14.1942   -1.8461   -3.8622 N   0  0  0  0  0  0  0  0  0  0  0  0
   13.1700   -1.6441   -3.4993 N   0  0  0  0  0  0  0  0  0  0  0  0
    2.5944    2.0407    0.0771 B   0  0  0  0  0  0  0  0  0  0  0  0
    2.3531    0.7405   -0.0156 F   0  0  0  0  0  0  0  0  0  0  0  0
    3.1438    2.5273    1.1706 F   0  0  0  0  0  0  0  0  0  0  0  0
    2.3539    2.8233   -0.9552 F   0  0  0  0  0  0  0  0  0  0  0  0
    0.3094    2.4994    1.0240 F   0  0  0  0  0  0  0  0  0  0  0  0
  1  2  2  0  0  0  0
  1  6  1  0  0  0  0
  2  3  1  0  0  0  0
  3 20  1  0  0  0  0
  3  4  2  0  0  0  0
  4  9  1  0  0  0  0
  5  4  1  0  0  0  0
  5 10  1  0  0  0  0
  6  5  2  0  0  0  0
  7  1  1  0  0  0  0
  8  2  1  0  0  0  0
 11  6  1  0  0  0  0
 11 13  2  0  0  0  0
 12 11  2  0  0  0  0
 14 15  3  0  0  0  0
 16 18  1  0  0  0  0
 17 16  1  0  0  0  0
 19 16  1  0  0  0  0
M  END
