Coordinates from ORCA-job 4-NO2-Ph-N2-BF4-B3LYPG-6-31G_dp-MTMO-d009-169-n800
 OpenBabel09051908343D

 20 18  0  0  0  0  0  0  0  0999 V2000
   -1.6512   -0.2738    0.5352 C   0  0  0  0  0  0  0  0  0  0  0  0
   -0.3441    0.1864    0.4056 C   0  0  0  0  0  0  0  0  0  0  0  0
   -0.0963    1.5375    0.6271 C   0  0  0  0  0  0  0  0  0  0  0  0
   -1.0912    2.4471    0.9712 C   0  0  0  0  0  0  0  0  0  0  0  0
   -2.3968    1.9829    1.0997 C   0  0  0  0  0  0  0  0  0  0  0  0
   -2.6562    0.6300    0.8796 C   0  0  0  0  0  0  0  0  0  0  0  0
   -1.9040   -1.3140    0.3737 H   0  0  0  0  0  0  0  0  0  0  0  0
    0.4723   -0.4738    0.1394 H   0  0  0  0  0  0  0  0  0  0  0  0
   -0.8376    3.4885    1.1329 H   0  0  0  0  0  0  0  0  0  0  0  0
   -3.2112    2.6448    1.3652 H   0  0  0  0  0  0  0  0  0  0  0  0
   -4.0359    0.1411    1.0152 N   0  0  0  0  0  0  0  0  0  0  0  0
   -4.2379   -1.0558    0.8144 O   0  0  0  0  0  0  0  0  0  0  0  0
   -4.9023    0.9593    1.3215 O   0  0  0  0  0  0  0  0  0  0  0  0
    8.2347    0.1839   -1.7544 N   0  0  0  0  0  0  0  0  0  0  0  0
    7.1791    0.2989   -1.4477 N   0  0  0  0  0  0  0  0  0  0  0  0
    3.3767    0.9450   -0.3323 B   0  0  0  0  0  0  0  0  0  0  0  0
    2.8526   -0.2720   -0.3007 F   0  0  0  0  0  0  0  0  0  0  0  0
    3.9988    1.4166    0.7281 F   0  0  0  0  0  0  0  0  0  0  0  0
    3.3212    1.6497   -1.4438 F   0  0  0  0  0  0  0  0  0  0  0  0
    1.1725    1.9965    0.5032 F   0  0  0  0  0  0  0  0  0  0  0  0
  1  6  1  0  0  0  0
  2  1  2  0  0  0  0
  2  3  1  0  0  0  0
  3  4  2  0  0  0  0
  4  5  1  0  0  0  0
  4  9  1  0  0  0  0
  5 10  1  0  0  0  0
  6 11  1  0  0  0  0
  6  5  2  0  0  0  0
  7  1  1  0  0  0  0
  8  2  1  0  0  0  0
 11 13  2  0  0  0  0
 12 11  2  0  0  0  0
 14 15  3  0  0  0  0
 16 17  1  0  0  0  0
 16 18  1  0  0  0  0
 19 16  1  0  0  0  0
 20  3  1  0  0  0  0
M  END
