Coordinates from ORCA-job 4-NO2-Ph-N2-BF4-B3LYPG-6-31G_dp-MTMO-d009-169-n800
 OpenBabel09051908343D

 20 18  0  0  0  0  0  0  0  0999 V2000
   -1.4865   -0.3458    0.7704 C   0  0  0  0  0  0  0  0  0  0  0  0
   -0.1395   -0.1798    0.4625 C   0  0  0  0  0  0  0  0  0  0  0  0
    0.3083    1.0959    0.1350 C   0  0  0  0  0  0  0  0  0  0  0  0
   -0.5233    2.2103    0.1033 C   0  0  0  0  0  0  0  0  0  0  0  0
   -1.8696    2.0397    0.4114 C   0  0  0  0  0  0  0  0  0  0  0  0
   -2.3298    0.7647    0.7397 C   0  0  0  0  0  0  0  0  0  0  0  0
   -1.8921   -1.3144    1.0334 H   0  0  0  0  0  0  0  0  0  0  0  0
    0.5571   -1.0090    0.4764 H   0  0  0  0  0  0  0  0  0  0  0  0
   -0.1166    3.1798   -0.1598 H   0  0  0  0  0  0  0  0  0  0  0  0
   -2.5635    2.8706    0.4022 H   0  0  0  0  0  0  0  0  0  0  0  0
   -3.7528    0.5858    1.0644 N   0  0  0  0  0  0  0  0  0  0  0  0
   -4.1334   -0.5489    1.3491 O   0  0  0  0  0  0  0  0  0  0  0  0
   -4.4741    1.5819    1.0311 O   0  0  0  0  0  0  0  0  0  0  0  0
    4.4923    2.1289   -2.3705 N   0  0  0  0  0  0  0  0  0  0  0  0
    5.5288    2.3154   -2.7057 N   0  0  0  0  0  0  0  0  0  0  0  0
    3.4907    0.1323    1.0059 B   0  0  0  0  0  0  0  0  0  0  0  0
    3.0085   -1.0606    0.6915 F   0  0  0  0  0  0  0  0  0  0  0  0
    3.1206    0.7094    2.1322 F   0  0  0  0  0  0  0  0  0  0  0  0
    4.4002    0.6953    0.2357 F   0  0  0  0  0  0  0  0  0  0  0  0
    1.6181    1.2674   -0.1749 F   0  0  0  0  0  0  0  0  0  0  0  0
  1  7  1  0  0  0  0
  2  8  1  0  0  0  0
  2  1  2  0  0  0  0
  3  2  1  0  0  0  0
  4  3  2  0  0  0  0
  4  5  1  0  0  0  0
  5  6  2  0  0  0  0
  6  1  1  0  0  0  0
  6 11  1  0  0  0  0
  9  4  1  0  0  0  0
 10  5  1  0  0  0  0
 11 12  2  0  0  0  0
 13 11  2  0  0  0  0
 15 14  3  0  0  0  0
 16 18  1  0  0  0  0
 17 16  1  0  0  0  0
 19 16  1  0  0  0  0
 20  3  1  0  0  0  0
M  END
