Coordinates from ORCA-job 4-NO2-Ph-N2-BF4-B3LYPG-6-31G_dp-MTMO-d009-169-n800
 OpenBabel09051908343D

 20 18  0  0  0  0  0  0  0  0999 V2000
   -2.0555   -0.2285    0.6658 C   0  0  0  0  0  0  0  0  0  0  0  0
   -0.7601    0.2780    0.6133 C   0  0  0  0  0  0  0  0  0  0  0  0
   -0.5738    1.6352    0.8547 C   0  0  0  0  0  0  0  0  0  0  0  0
   -1.6186    2.5070    1.1445 C   0  0  0  0  0  0  0  0  0  0  0  0
   -2.9120    1.9965    1.1961 C   0  0  0  0  0  0  0  0  0  0  0  0
   -3.1100    0.6369    0.9559 C   0  0  0  0  0  0  0  0  0  0  0  0
   -2.2614   -1.2760    0.4856 H   0  0  0  0  0  0  0  0  0  0  0  0
    0.0917   -0.3527    0.3909 H   0  0  0  0  0  0  0  0  0  0  0  0
   -1.4115    3.5557    1.3250 H   0  0  0  0  0  0  0  0  0  0  0  0
   -3.7632    2.6277    1.4175 H   0  0  0  0  0  0  0  0  0  0  0  0
   -4.4770    0.0985    1.0109 N   0  0  0  0  0  0  0  0  0  0  0  0
   -4.6240   -1.1038    0.7959 O   0  0  0  0  0  0  0  0  0  0  0  0
   -5.3880    0.8842    1.2687 O   0  0  0  0  0  0  0  0  0  0  0  0
   12.4362   -0.6314   -3.2734 N   0  0  0  0  0  0  0  0  0  0  0  0
   11.3912   -0.5400   -2.9252 N   0  0  0  0  0  0  0  0  0  0  0  0
    2.8840    1.2335   -0.0193 B   0  0  0  0  0  0  0  0  0  0  0  0
    2.4506   -0.0178    0.0420 F   0  0  0  0  0  0  0  0  0  0  0  0
    3.4866    1.7677    1.0228 F   0  0  0  0  0  0  0  0  0  0  0  0
    2.7755    1.9063   -1.1469 F   0  0  0  0  0  0  0  0  0  0  0  0
    0.6828    2.1419    0.8081 F   0  0  0  0  0  0  0  0  0  0  0  0
  1  6  1  0  0  0  0
  2  1  2  0  0  0  0
  2  3  1  0  0  0  0
  3  4  2  0  0  0  0
  4  5  1  0  0  0  0
  4  9  1  0  0  0  0
  5 10  1  0  0  0  0
  6 11  1  0  0  0  0
  6  5  2  0  0  0  0
  7  1  1  0  0  0  0
  8  2  1  0  0  0  0
 11 13  2  0  0  0  0
 12 11  2  0  0  0  0
 14 15  3  0  0  0  0
 16 17  1  0  0  0  0
 16 18  1  0  0  0  0
 19 16  1  0  0  0  0
 20  3  1  0  0  0  0
M  END
