Coordinates from ORCA-job 4-NO2-Ph-N2-BF4-B3LYPG-6-31G_dp-MTMO-d009-169-n800
 OpenBabel09051908343D

 20 18  0  0  0  0  0  0  0  0999 V2000
   -1.7910   -0.2606    0.5977 C   0  0  0  0  0  0  0  0  0  0  0  0
   -0.4871    0.2212    0.5272 C   0  0  0  0  0  0  0  0  0  0  0  0
   -0.2736    1.5775    0.7509 C   0  0  0  0  0  0  0  0  0  0  0  0
   -1.2991    2.4720    1.0402 C   0  0  0  0  0  0  0  0  0  0  0  0
   -2.6012    1.9861    1.1097 C   0  0  0  0  0  0  0  0  0  0  0  0
   -2.8265    0.6276    0.8873 C   0  0  0  0  0  0  0  0  0  0  0  0
   -2.0179   -1.3061    0.4317 H   0  0  0  0  0  0  0  0  0  0  0  0
    0.3513   -0.4270    0.3041 H   0  0  0  0  0  0  0  0  0  0  0  0
   -1.0711    3.5187    1.2065 H   0  0  0  0  0  0  0  0  0  0  0  0
   -3.4385    2.6354    1.3313 H   0  0  0  0  0  0  0  0  0  0  0  0
   -4.2027    0.1156    0.9611 N   0  0  0  0  0  0  0  0  0  0  0  0
   -4.3740   -1.0863    0.7619 O   0  0  0  0  0  0  0  0  0  0  0  0
   -5.0966    0.9210    1.2176 O   0  0  0  0  0  0  0  0  0  0  0  0
    9.8362   -0.1809   -2.4603 N   0  0  0  0  0  0  0  0  0  0  0  0
    8.7935   -0.0990   -2.1029 N   0  0  0  0  0  0  0  0  0  0  0  0
    3.1730    1.0972   -0.1482 B   0  0  0  0  0  0  0  0  0  0  0  0
    2.7091   -0.1433   -0.0917 F   0  0  0  0  0  0  0  0  0  0  0  0
    3.7893    1.6124    0.8954 F   0  0  0  0  0  0  0  0  0  0  0  0
    3.0785    1.7776   -1.2725 F   0  0  0  0  0  0  0  0  0  0  0  0
    0.9917    2.0597    0.6863 F   0  0  0  0  0  0  0  0  0  0  0  0
  1  6  1  0  0  0  0
  2  1  2  0  0  0  0
  2  3  1  0  0  0  0
  3  4  2  0  0  0  0
  4  5  1  0  0  0  0
  4  9  1  0  0  0  0
  5 10  1  0  0  0  0
  6 11  1  0  0  0  0
  6  5  2  0  0  0  0
  7  1  1  0  0  0  0
  8  2  1  0  0  0  0
 11 13  2  0  0  0  0
 12 11  2  0  0  0  0
 14 15  3  0  0  0  0
 16 17  1  0  0  0  0
 16 18  1  0  0  0  0
 19 16  1  0  0  0  0
 20  3  1  0  0  0  0
M  END
