Coordinates from ORCA-job 4-NO2-Ph-N2-BF4-B3LYPG-6-31G_dp-MTMO-d009-169-n800
 OpenBabel09051908343D

 20 18  0  0  0  0  0  0  0  0999 V2000
   -2.1212   -0.1908    0.5736 C   0  0  0  0  0  0  0  0  0  0  0  0
   -0.9118    0.4983    0.5787 C   0  0  0  0  0  0  0  0  0  0  0  0
   -0.9108    1.8225    1.0052 C   0  0  0  0  0  0  0  0  0  0  0  0
   -2.0582    2.4882    1.4243 C   0  0  0  0  0  0  0  0  0  0  0  0
   -3.2651    1.7954    1.4176 C   0  0  0  0  0  0  0  0  0  0  0  0
   -3.2774    0.4670    0.9926 C   0  0  0  0  0  0  0  0  0  0  0  0
   -2.1830   -1.2224    0.2519 H   0  0  0  0  0  0  0  0  0  0  0  0
    0.0130    0.0329    0.2614 H   0  0  0  0  0  0  0  0  0  0  0  0
   -1.9955    3.5210    1.7464 H   0  0  0  0  0  0  0  0  0  0  0  0
   -4.1893    2.2619    1.7336 H   0  0  0  0  0  0  0  0  0  0  0  0
   -4.5533   -0.2642    0.9859 N   0  0  0  0  0  0  0  0  0  0  0  0
   -4.5367   -1.4344    0.6071 O   0  0  0  0  0  0  0  0  0  0  0  0
   -5.5574    0.3408    1.3591 O   0  0  0  0  0  0  0  0  0  0  0  0
   14.6495   -1.9145   -3.9752 N   0  0  0  0  0  0  0  0  0  0  0  0
   13.6243   -1.7253   -3.6082 N   0  0  0  0  0  0  0  0  0  0  0  0
    2.5470    2.0421    0.0732 B   0  0  0  0  0  0  0  0  0  0  0  0
    2.2909    0.7477   -0.0540 F   0  0  0  0  0  0  0  0  0  0  0  0
    3.0965    2.4938    1.1815 F   0  0  0  0  0  0  0  0  0  0  0  0
    2.3210    2.8537   -0.9397 F   0  0  0  0  0  0  0  0  0  0  0  0
    0.2608    2.5051    1.0181 F   0  0  0  0  0  0  0  0  0  0  0  0
  1  2  2  0  0  0  0
  1  6  1  0  0  0  0
  2  3  1  0  0  0  0
  3 20  1  0  0  0  0
  3  4  2  0  0  0  0
  4  9  1  0  0  0  0
  5  4  1  0  0  0  0
  5 10  1  0  0  0  0
  6  5  2  0  0  0  0
  7  1  1  0  0  0  0
  8  2  1  0  0  0  0
 11  6  1  0  0  0  0
 11 13  2  0  0  0  0
 12 11  2  0  0  0  0
 14 15  3  0  0  0  0
 16 18  1  0  0  0  0
 17 16  1  0  0  0  0
 19 16  1  0  0  0  0
M  END
