Coordinates from ORCA-job 4-NO2-Ph-N2-BF4-B3LYPG-6-31G_dp-MTMO-d009-169-n800
 OpenBabel09051908343D

 20 18  0  0  0  0  0  0  0  0999 V2000
   -1.9901   -0.2371    0.6514 C   0  0  0  0  0  0  0  0  0  0  0  0
   -0.6922    0.2627    0.5972 C   0  0  0  0  0  0  0  0  0  0  0  0
   -0.4994    1.6203    0.8316 C   0  0  0  0  0  0  0  0  0  0  0  0
   -1.5398    2.4990    1.1159 C   0  0  0  0  0  0  0  0  0  0  0  0
   -2.8359    1.9951    1.1692 C   0  0  0  0  0  0  0  0  0  0  0  0
   -3.0404    0.6353    0.9361 C   0  0  0  0  0  0  0  0  0  0  0  0
   -2.2012   -1.2844    0.4766 H   0  0  0  0  0  0  0  0  0  0  0  0
    0.1569   -0.3730    0.3787 H   0  0  0  0  0  0  0  0  0  0  0  0
   -1.3277    3.5475    1.2911 H   0  0  0  0  0  0  0  0  0  0  0  0
   -3.6841    2.6316    1.3866 H   0  0  0  0  0  0  0  0  0  0  0  0
   -4.4103    0.1041    0.9929 N   0  0  0  0  0  0  0  0  0  0  0  0
   -4.5632   -1.0987    0.7844 O   0  0  0  0  0  0  0  0  0  0  0  0
   -5.3175    0.8957    1.2456 O   0  0  0  0  0  0  0  0  0  0  0  0
   11.7909   -0.5160   -3.0859 N   0  0  0  0  0  0  0  0  0  0  0  0
   10.7467   -0.4294   -2.7341 N   0  0  0  0  0  0  0  0  0  0  0  0
    2.9577    1.1976   -0.0408 B   0  0  0  0  0  0  0  0  0  0  0  0
    2.5167   -0.0510    0.0204 F   0  0  0  0  0  0  0  0  0  0  0  0
    3.5619    1.7287    1.0019 F   0  0  0  0  0  0  0  0  0  0  0  0
    2.8547    1.8706   -1.1688 F   0  0  0  0  0  0  0  0  0  0  0  0
    0.7598    2.1201    0.7832 F   0  0  0  0  0  0  0  0  0  0  0  0
  1  6  1  0  0  0  0
  2  1  2  0  0  0  0
  2  3  1  0  0  0  0
  3  4  2  0  0  0  0
  4  5  1  0  0  0  0
  4  9  1  0  0  0  0
  5 10  1  0  0  0  0
  6 11  1  0  0  0  0
  6  5  2  0  0  0  0
  7  1  1  0  0  0  0
  8  2  1  0  0  0  0
 11 13  2  0  0  0  0
 12 11  2  0  0  0  0
 14 15  3  0  0  0  0
 16 17  1  0  0  0  0
 16 18  1  0  0  0  0
 19 16  1  0  0  0  0
 20  3  1  0  0  0  0
M  END
