Coordinates from ORCA-job 4-NO2-Ph-N2-BF4-B3LYPG-6-31G_dp-MTMO-d009-169-n800
 OpenBabel09051908343D

 20 18  0  0  0  0  0  0  0  0999 V2000
   -1.8450   -0.2545    0.6143 C   0  0  0  0  0  0  0  0  0  0  0  0
   -0.5425    0.2322    0.5512 C   0  0  0  0  0  0  0  0  0  0  0  0
   -0.3352    1.5892    0.7763 C   0  0  0  0  0  0  0  0  0  0  0  0
   -1.3657    2.4798    1.0599 C   0  0  0  0  0  0  0  0  0  0  0  0
   -2.6664    1.9891    1.1221 C   0  0  0  0  0  0  0  0  0  0  0  0
   -2.8854    0.6298    0.8983 C   0  0  0  0  0  0  0  0  0  0  0  0
   -2.0671   -1.3007    0.4468 H   0  0  0  0  0  0  0  0  0  0  0  0
    0.2993   -0.4131    0.3326 H   0  0  0  0  0  0  0  0  0  0  0  0
   -1.1425    3.5272    1.2277 H   0  0  0  0  0  0  0  0  0  0  0  0
   -3.5073    2.6353    1.3392 H   0  0  0  0  0  0  0  0  0  0  0  0
   -4.2601    0.1126    0.9643 N   0  0  0  0  0  0  0  0  0  0  0  0
   -4.4257   -1.0899    0.7641 O   0  0  0  0  0  0  0  0  0  0  0  0
   -5.1584    0.9147    1.2159 O   0  0  0  0  0  0  0  0  0  0  0  0
   10.3719   -0.2709   -2.6443 N   0  0  0  0  0  0  0  0  0  0  0  0
    9.3292   -0.1922   -2.2862 N   0  0  0  0  0  0  0  0  0  0  0  0
    3.1142    1.1247   -0.1110 B   0  0  0  0  0  0  0  0  0  0  0  0
    2.6573   -0.1182   -0.0516 F   0  0  0  0  0  0  0  0  0  0  0  0
    3.7270    1.6459    0.9317 F   0  0  0  0  0  0  0  0  0  0  0  0
    3.0172    1.8016   -1.2372 F   0  0  0  0  0  0  0  0  0  0  0  0
    0.9285    2.0763    0.7191 F   0  0  0  0  0  0  0  0  0  0  0  0
  1  6  1  0  0  0  0
  2  1  2  0  0  0  0
  2  3  1  0  0  0  0
  3  4  2  0  0  0  0
  4  5  1  0  0  0  0
  4  9  1  0  0  0  0
  5 10  1  0  0  0  0
  6 11  1  0  0  0  0
  6  5  2  0  0  0  0
  7  1  1  0  0  0  0
  8  2  1  0  0  0  0
 11 13  2  0  0  0  0
 12 11  2  0  0  0  0
 14 15  3  0  0  0  0
 16 17  1  0  0  0  0
 16 18  1  0  0  0  0
 19 16  1  0  0  0  0
 20  3  1  0  0  0  0
M  END
