Coordinates from ORCA-job 4-NO2-Ph-N2-BF4-B3LYPG-6-31G_dp-MTMO-d009-169-n800
 OpenBabel09051908343D

 20 18  0  0  0  0  0  0  0  0999 V2000
   -1.3474   -0.2922    0.5937 C   0  0  0  0  0  0  0  0  0  0  0  0
   -0.0508    0.1939    0.7321 C   0  0  0  0  0  0  0  0  0  0  0  0
    0.1212    1.5535    0.9716 C   0  0  0  0  0  0  0  0  0  0  0  0
   -0.9397    2.4472    1.0774 C   0  0  0  0  0  0  0  0  0  0  0  0
   -2.2349    1.9570    0.9397 C   0  0  0  0  0  0  0  0  0  0  0  0
   -2.4181    0.5954    0.6999 C   0  0  0  0  0  0  0  0  0  0  0  0
   -1.5424   -1.3403    0.4049 H   0  0  0  0  0  0  0  0  0  0  0  0
    0.8145   -0.4530    0.6551 H   0  0  0  0  0  0  0  0  0  0  0  0
   -0.7441    3.4966    1.2661 H   0  0  0  0  0  0  0  0  0  0  0  0
   -3.0986    2.6052    1.0142 H   0  0  0  0  0  0  0  0  0  0  0  0
   -3.7868    0.0786    0.5552 N   0  0  0  0  0  0  0  0  0  0  0  0
   -3.9211   -1.1261    0.3444 O   0  0  0  0  0  0  0  0  0  0  0  0
   -4.7124    0.8832    0.6543 O   0  0  0  0  0  0  0  0  0  0  0  0
    6.4125   -0.2887   -2.2127 N   0  0  0  0  0  0  0  0  0  0  0  0
    5.6011    0.1449   -1.6018 N   0  0  0  0  0  0  0  0  0  0  0  0
    3.4234    1.1641   -0.1402 B   0  0  0  0  0  0  0  0  0  0  0  0
    3.2134   -0.0592    0.3248 F   0  0  0  0  0  0  0  0  0  0  0  0
    4.2094    1.9910    0.5176 F   0  0  0  0  0  0  0  0  0  0  0  0
    2.8649    1.5321   -1.2770 F   0  0  0  0  0  0  0  0  0  0  0  0
    1.3792    2.0358    1.1139 F   0  0  0  0  0  0  0  0  0  0  0  0
  1  6  2  0  0  0  0
  1  2  1  0  0  0  0
  2  3  2  0  0  0  0
  3  4  1  0  0  0  0
  3 20  1  0  0  0  0
  4  9  1  0  0  0  0
  5 10  1  0  0  0  0
  5  4  2  0  0  0  0
  6  5  1  0  0  0  0
  7  1  1  0  0  0  0
  8  2  1  0  0  0  0
 11 13  2  0  0  0  0
 11  6  1  0  0  0  0
 12 11  2  0  0  0  0
 14 15  3  0  0  0  0
 16 17  1  0  0  0  0
 16 18  1  0  0  0  0
 19 16  1  0  0  0  0
M  END
