Coordinates from ORCA-job 4-NO2-Ph-N2-BF4-B3LYPG-6-31G_dp-MTMO-d009-169-n800
 OpenBabel09051908343D

 20 18  0  0  0  0  0  0  0  0999 V2000
   -1.9743   -0.2389    0.6477 C   0  0  0  0  0  0  0  0  0  0  0  0
   -0.6759    0.2595    0.5929 C   0  0  0  0  0  0  0  0  0  0  0  0
   -0.4815    1.6170    0.8260 C   0  0  0  0  0  0  0  0  0  0  0  0
   -1.5212    2.4969    1.1096 C   0  0  0  0  0  0  0  0  0  0  0  0
   -2.8178    1.9946    1.1634 C   0  0  0  0  0  0  0  0  0  0  0  0
   -3.0238    0.6347    0.9316 C   0  0  0  0  0  0  0  0  0  0  0  0
   -2.1864   -1.2862    0.4738 H   0  0  0  0  0  0  0  0  0  0  0  0
    0.1723   -0.3776    0.3750 H   0  0  0  0  0  0  0  0  0  0  0  0
   -1.3080    3.5454    1.2837 H   0  0  0  0  0  0  0  0  0  0  0  0
   -3.6653    2.6322    1.3802 H   0  0  0  0  0  0  0  0  0  0  0  0
   -4.3941    0.1049    0.9889 N   0  0  0  0  0  0  0  0  0  0  0  0
   -4.5482   -1.0979    0.7816 O   0  0  0  0  0  0  0  0  0  0  0  0
   -5.3005    0.8977    1.2408 O   0  0  0  0  0  0  0  0  0  0  0  0
   11.6384   -0.4896   -3.0406 N   0  0  0  0  0  0  0  0  0  0  0  0
   10.5944   -0.4043   -2.6880 N   0  0  0  0  0  0  0  0  0  0  0  0
    2.9743    1.1899   -0.0466 B   0  0  0  0  0  0  0  0  0  0  0  0
    2.5315   -0.0581    0.0145 F   0  0  0  0  0  0  0  0  0  0  0  0
    3.5793    1.7200    0.9962 F   0  0  0  0  0  0  0  0  0  0  0  0
    2.8723    1.8631   -1.1746 F   0  0  0  0  0  0  0  0  0  0  0  0
    0.7781    2.1157    0.7771 F   0  0  0  0  0  0  0  0  0  0  0  0
  1  6  1  0  0  0  0
  2  1  2  0  0  0  0
  2  3  1  0  0  0  0
  3  4  2  0  0  0  0
  4  5  1  0  0  0  0
  4  9  1  0  0  0  0
  5 10  1  0  0  0  0
  6 11  1  0  0  0  0
  6  5  2  0  0  0  0
  7  1  1  0  0  0  0
  8  2  1  0  0  0  0
 11 13  2  0  0  0  0
 12 11  2  0  0  0  0
 14 15  3  0  0  0  0
 16 17  1  0  0  0  0
 16 18  1  0  0  0  0
 19 16  1  0  0  0  0
 20  3  1  0  0  0  0
M  END
