Coordinates from ORCA-job 4-NO2-Ph-N2-BF4-B3LYPG-6-31G_dp-MTMO-d009-169-n800
 OpenBabel09051908343D

 20 18  0  0  0  0  0  0  0  0999 V2000
   -1.4338   -0.3256    0.7246 C   0  0  0  0  0  0  0  0  0  0  0  0
   -0.0712   -0.1552    0.4981 C   0  0  0  0  0  0  0  0  0  0  0  0
    0.3941    1.1256    0.2184 C   0  0  0  0  0  0  0  0  0  0  0  0
   -0.4355    2.2403    0.1557 C   0  0  0  0  0  0  0  0  0  0  0  0
   -1.7971    2.0654    0.3827 C   0  0  0  0  0  0  0  0  0  0  0  0
   -2.2748    0.7855    0.6633 C   0  0  0  0  0  0  0  0  0  0  0  0
   -1.8532   -1.2983    0.9477 H   0  0  0  0  0  0  0  0  0  0  0  0
    0.6235   -0.9851    0.5384 H   0  0  0  0  0  0  0  0  0  0  0  0
   -0.0147    3.2137   -0.0680 H   0  0  0  0  0  0  0  0  0  0  0  0
   -2.4898    2.8966    0.3466 H   0  0  0  0  0  0  0  0  0  0  0  0
   -3.7138    0.6019    0.9032 N   0  0  0  0  0  0  0  0  0  0  0  0
   -4.1099   -0.5371    1.1464 O   0  0  0  0  0  0  0  0  0  0  0  0
   -4.4323    1.5991    0.8462 O   0  0  0  0  0  0  0  0  0  0  0  0
    3.8860    2.0538   -2.2651 N   0  0  0  0  0  0  0  0  0  0  0  0
    4.8216    2.2741   -2.8106 N   0  0  0  0  0  0  0  0  0  0  0  0
    3.5921    0.0790    1.0947 B   0  0  0  0  0  0  0  0  0  0  0  0
    3.0508   -1.0905    0.7881 F   0  0  0  0  0  0  0  0  0  0  0  0
    3.2914    0.6571    2.2406 F   0  0  0  0  0  0  0  0  0  0  0  0
    4.4904    0.6150    0.2926 F   0  0  0  0  0  0  0  0  0  0  0  0
    1.7195    1.3035   -0.0103 F   0  0  0  0  0  0  0  0  0  0  0  0
  1  7  1  0  0  0  0
  2  8  1  0  0  0  0
  2  1  2  0  0  0  0
  3  2  1  0  0  0  0
  4  3  2  0  0  0  0
  4  5  1  0  0  0  0
  5  6  2  0  0  0  0
  6  1  1  0  0  0  0
  6 11  1  0  0  0  0
  9  4  1  0  0  0  0
 10  5  1  0  0  0  0
 11 12  2  0  0  0  0
 13 11  2  0  0  0  0
 15 14  3  0  0  0  0
 16 18  1  0  0  0  0
 17 16  1  0  0  0  0
 19 16  1  0  0  0  0
 20  3  1  0  0  0  0
M  END
