Coordinates from ORCA-job 4-NO2-Ph-N2-BF4-B3LYPG-6-31G_dp-MTMO-d009-169-n800
 OpenBabel09051908343D

 20 18  0  0  0  0  0  0  0  0999 V2000
   -1.8265   -0.2567    0.6088 C   0  0  0  0  0  0  0  0  0  0  0  0
   -0.5235    0.2282    0.5433 C   0  0  0  0  0  0  0  0  0  0  0  0
   -0.3140    1.5850    0.7678 C   0  0  0  0  0  0  0  0  0  0  0  0
   -1.3427    2.4771    1.0530 C   0  0  0  0  0  0  0  0  0  0  0  0
   -2.6440    1.9881    1.1175 C   0  0  0  0  0  0  0  0  0  0  0  0
   -2.8652    0.6292    0.8944 C   0  0  0  0  0  0  0  0  0  0  0  0
   -2.0504   -1.3026    0.4420 H   0  0  0  0  0  0  0  0  0  0  0  0
    0.3172   -0.4182    0.3234 H   0  0  0  0  0  0  0  0  0  0  0  0
   -1.1179    3.5243    1.2201 H   0  0  0  0  0  0  0  0  0  0  0  0
   -3.4837    2.6355    1.3360 H   0  0  0  0  0  0  0  0  0  0  0  0
   -4.2405    0.1138    0.9629 N   0  0  0  0  0  0  0  0  0  0  0  0
   -4.4081   -1.0885    0.7631 O   0  0  0  0  0  0  0  0  0  0  0  0
   -5.1373    0.9172    1.2159 O   0  0  0  0  0  0  0  0  0  0  0  0
   10.1876   -0.2392   -2.5819 N   0  0  0  0  0  0  0  0  0  0  0  0
    9.1450   -0.1601   -2.2237 N   0  0  0  0  0  0  0  0  0  0  0  0
    3.1345    1.1151   -0.1233 B   0  0  0  0  0  0  0  0  0  0  0  0
    2.6752   -0.1270   -0.0649 F   0  0  0  0  0  0  0  0  0  0  0  0
    3.7486    1.6343    0.9196 F   0  0  0  0  0  0  0  0  0  0  0  0
    3.0384    1.7931   -1.2490 F   0  0  0  0  0  0  0  0  0  0  0  0
    0.9503    2.0703    0.7082 F   0  0  0  0  0  0  0  0  0  0  0  0
  1  6  1  0  0  0  0
  2  1  2  0  0  0  0
  2  3  1  0  0  0  0
  3  4  2  0  0  0  0
  4  5  1  0  0  0  0
  4  9  1  0  0  0  0
  5 10  1  0  0  0  0
  6 11  1  0  0  0  0
  6  5  2  0  0  0  0
  7  1  1  0  0  0  0
  8  2  1  0  0  0  0
 11 13  2  0  0  0  0
 12 11  2  0  0  0  0
 14 15  3  0  0  0  0
 16 17  1  0  0  0  0
 16 18  1  0  0  0  0
 19 16  1  0  0  0  0
 20  3  1  0  0  0  0
M  END
