Coordinates from ORCA-job 4-NO2-Ph-N2-BF4-B3LYPG-6-31G_dp-MTMO-d009-169-n800
 OpenBabel09051908343D

 20 18  0  0  0  0  0  0  0  0999 V2000
   -2.0355   -0.2076    0.5578 C   0  0  0  0  0  0  0  0  0  0  0  0
   -0.8275    0.4837    0.5762 C   0  0  0  0  0  0  0  0  0  0  0  0
   -0.8344    1.8097    0.9966 C   0  0  0  0  0  0  0  0  0  0  0  0
   -1.9884    2.4754    1.3976 C   0  0  0  0  0  0  0  0  0  0  0  0
   -3.1939    1.7804    1.3779 C   0  0  0  0  0  0  0  0  0  0  0  0
   -3.1983    0.4501    0.9585 C   0  0  0  0  0  0  0  0  0  0  0  0
   -2.0914   -1.2407    0.2398 H   0  0  0  0  0  0  0  0  0  0  0  0
    0.1023    0.0184    0.2737 H   0  0  0  0  0  0  0  0  0  0  0  0
   -1.9318    3.5097    1.7159 H   0  0  0  0  0  0  0  0  0  0  0  0
   -4.1230    2.2466    1.6795 H   0  0  0  0  0  0  0  0  0  0  0  0
   -4.4728   -0.2832    0.9378 N   0  0  0  0  0  0  0  0  0  0  0  0
   -4.4494   -1.4549    0.5639 O   0  0  0  0  0  0  0  0  0  0  0  0
   -5.4828    0.3215    1.2953 O   0  0  0  0  0  0  0  0  0  0  0  0
   13.9517   -1.8069   -3.7967 N   0  0  0  0  0  0  0  0  0  0  0  0
   12.9275   -1.5948   -3.4394 N   0  0  0  0  0  0  0  0  0  0  0  0
    2.6219    2.0371    0.0771 B   0  0  0  0  0  0  0  0  0  0  0  0
    2.3866    0.7349   -0.0019 F   0  0  0  0  0  0  0  0  0  0  0  0
    3.1698    2.5376    1.1650 F   0  0  0  0  0  0  0  0  0  0  0  0
    2.3770    2.8077   -0.9632 F   0  0  0  0  0  0  0  0  0  0  0  0
    0.3357    2.4943    1.0218 F   0  0  0  0  0  0  0  0  0  0  0  0
  1  2  2  0  0  0  0
  1  6  1  0  0  0  0
  2  3  1  0  0  0  0
  3 20  1  0  0  0  0
  3  4  2  0  0  0  0
  4  9  1  0  0  0  0
  5  4  1  0  0  0  0
  5 10  1  0  0  0  0
  6  5  2  0  0  0  0
  7  1  1  0  0  0  0
  8  2  1  0  0  0  0
 11  6  1  0  0  0  0
 11 13  2  0  0  0  0
 12 11  2  0  0  0  0
 14 15  3  0  0  0  0
 16 18  1  0  0  0  0
 17 16  1  0  0  0  0
 19 16  1  0  0  0  0
M  END
