Coordinates from ORCA-job 4-NO2-Ph-N2-BF4-B3LYPG-6-31G_dp-MTMO-d009-169-n800
 OpenBabel09051908343D

 20 18  0  0  0  0  0  0  0  0999 V2000
   -1.6176   -0.2713    0.5204 C   0  0  0  0  0  0  0  0  0  0  0  0
   -0.3134    0.1934    0.3779 C   0  0  0  0  0  0  0  0  0  0  0  0
   -0.0670    1.5449    0.5989 C   0  0  0  0  0  0  0  0  0  0  0  0
   -1.0612    2.4507    0.9553 C   0  0  0  0  0  0  0  0  0  0  0  0
   -2.3639    1.9823    1.0967 C   0  0  0  0  0  0  0  0  0  0  0  0
   -2.6217    0.6289    0.8770 C   0  0  0  0  0  0  0  0  0  0  0  0
   -1.8688   -1.3120    0.3598 H   0  0  0  0  0  0  0  0  0  0  0  0
    0.5025   -0.4638    0.1023 H   0  0  0  0  0  0  0  0  0  0  0  0
   -0.8091    3.4926    1.1161 H   0  0  0  0  0  0  0  0  0  0  0  0
   -3.1774    2.6413    1.3719 H   0  0  0  0  0  0  0  0  0  0  0  0
   -3.9983    0.1358    1.0260 N   0  0  0  0  0  0  0  0  0  0  0  0
   -4.1991   -1.0612    0.8243 O   0  0  0  0  0  0  0  0  0  0  0  0
   -4.8639    0.9507    1.3432 O   0  0  0  0  0  0  0  0  0  0  0  0
    7.8145    0.2560   -1.6221 N   0  0  0  0  0  0  0  0  0  0  0  0
    6.7580    0.3629   -1.3152 N   0  0  0  0  0  0  0  0  0  0  0  0
    3.4753    0.9044   -0.3616 B   0  0  0  0  0  0  0  0  0  0  0  0
    2.9028   -0.2906   -0.3369 F   0  0  0  0  0  0  0  0  0  0  0  0
    4.0915    1.3566    0.7105 F   0  0  0  0  0  0  0  0  0  0  0  0
    3.4611    1.6114   -1.4726 F   0  0  0  0  0  0  0  0  0  0  0  0
    1.1990    2.0060    0.4613 F   0  0  0  0  0  0  0  0  0  0  0  0
  1  6  1  0  0  0  0
  2  1  2  0  0  0  0
  2  3  1  0  0  0  0
  3  4  2  0  0  0  0
  4  5  1  0  0  0  0
  4  9  1  0  0  0  0
  5 10  1  0  0  0  0
  6 11  1  0  0  0  0
  6  5  2  0  0  0  0
  7  1  1  0  0  0  0
  8  2  1  0  0  0  0
 11 13  2  0  0  0  0
 12 11  2  0  0  0  0
 14 15  3  0  0  0  0
 16 17  1  0  0  0  0
 16 18  1  0  0  0  0
 19 16  1  0  0  0  0
 20  3  1  0  0  0  0
M  END
