Coordinates from ORCA-job 4-NO2-Ph-N2-BF4-B3LYPG-6-31G_dp-MTMO-d009-169-n800
 OpenBabel09051908343D

 20 18  0  0  0  0  0  0  0  0999 V2000
   -2.1608   -0.2138    0.6829 C   0  0  0  0  0  0  0  0  0  0  0  0
   -0.8724    0.3104    0.6339 C   0  0  0  0  0  0  0  0  0  0  0  0
   -0.7029    1.6657    0.8971 C   0  0  0  0  0  0  0  0  0  0  0  0
   -1.7578    2.5188    1.2055 C   0  0  0  0  0  0  0  0  0  0  0  0
   -3.0443    1.9905    1.2537 C   0  0  0  0  0  0  0  0  0  0  0  0
   -3.2254    0.6327    0.9915 C   0  0  0  0  0  0  0  0  0  0  0  0
   -2.3538   -1.2607    0.4861 H   0  0  0  0  0  0  0  0  0  0  0  0
   -0.0134   -0.3055    0.3981 H   0  0  0  0  0  0  0  0  0  0  0  0
   -1.5637    3.5669    1.4026 H   0  0  0  0  0  0  0  0  0  0  0  0
   -3.9027    2.6067    1.4889 H   0  0  0  0  0  0  0  0  0  0  0  0
   -4.5850    0.0754    1.0427 N   0  0  0  0  0  0  0  0  0  0  0  0
   -4.7172   -1.1248    0.8071 O   0  0  0  0  0  0  0  0  0  0  0  0
   -5.5051    0.8443    1.3181 O   0  0  0  0  0  0  0  0  0  0  0  0
   13.5352   -0.8612   -3.5797 N   0  0  0  0  0  0  0  0  0  0  0  0
   12.4893   -0.7586   -3.2376 N   0  0  0  0  0  0  0  0  0  0  0  0
    2.7538    1.3214    0.0033 B   0  0  0  0  0  0  0  0  0  0  0  0
    2.3435    0.0626    0.0681 F   0  0  0  0  0  0  0  0  0  0  0  0
    3.3578    1.8655    1.0393 F   0  0  0  0  0  0  0  0  0  0  0  0
    2.6216    1.9928   -1.1227 F   0  0  0  0  0  0  0  0  0  0  0  0
    0.5467    2.1897    0.8542 F   0  0  0  0  0  0  0  0  0  0  0  0
  1  6  1  0  0  0  0
  2  1  2  0  0  0  0
  2  3  1  0  0  0  0
  3  4  2  0  0  0  0
  4  5  1  0  0  0  0
  4  9  1  0  0  0  0
  5 10  1  0  0  0  0
  6 11  1  0  0  0  0
  6  5  2  0  0  0  0
  7  1  1  0  0  0  0
  8  2  1  0  0  0  0
 11 13  2  0  0  0  0
 12 11  2  0  0  0  0
 14 15  3  0  0  0  0
 16 17  1  0  0  0  0
 16 18  1  0  0  0  0
 19 16  1  0  0  0  0
 20  3  1  0  0  0  0
M  END
