Coordinates from ORCA-job 4-NO2-Ph-N2-BF4-B3LYPG-6-31G_dp-MTMO-d009-169-n800
 OpenBabel09051908343D

 20 19  0  0  1  0  0  0  0  0999 V2000
   -0.7659   -0.0112    0.4673 C   0  0  0  0  0  0  0  0  0  0  0  0
    0.6330    0.3786    0.1538 C   0  0  1  0  0  0  0  0  0  0  0  0
    0.7214    1.6852   -0.5923 C   0  0  0  0  0  0  0  0  0  0  0  0
   -0.3858    2.6298   -0.5435 C   0  0  0  0  0  0  0  0  0  0  0  0
   -1.5879    2.2585   -0.0471 C   0  0  0  0  0  0  0  0  0  0  0  0
   -1.7551    0.9018    0.4101 C   0  0  0  0  0  0  0  0  0  0  0  0
   -0.9644   -1.0216    0.8008 H   0  0  0  0  0  0  0  0  0  0  0  0
    1.1904   -0.4158   -0.3448 H   0  0  0  0  0  0  0  0  0  0  0  0
   -0.2192    3.6275   -0.9362 H   0  0  0  0  0  0  0  0  0  0  0  0
   -2.4312    2.9337   -0.0094 H   0  0  0  0  0  0  0  0  0  0  0  0
   -3.1198    0.4797    0.8130 N   0  0  0  0  0  0  0  0  0  0  0  0
   -3.2841   -0.6888    1.1502 O   0  0  0  0  0  0  0  0  0  0  0  0
   -3.9981    1.3387    0.7827 O   0  0  0  0  0  0  0  0  0  0  0  0
    1.7235    1.9487   -1.1577 N   0  0  0  0  0  0  0  0  0  0  0  0
    2.6944    2.2008   -1.7104 N   0  0  0  0  0  0  0  0  0  0  0  0
    3.3127   -0.3869    1.4990 B   0  0  0  0  0  0  0  0  0  0  0  0
    2.8505   -1.5805    1.1418 F   0  0  0  0  0  0  0  0  0  0  0  0
    3.5201   -0.1081    2.7713 F   0  0  0  0  0  0  0  0  0  0  0  0
    3.7842    0.4182    0.5520 F   0  0  0  0  0  0  0  0  0  0  0  0
    1.3246    0.5304    1.4326 F   0  0  0  0  0  0  0  0  0  0  0  0
  1  7  1  0  0  0  0
  2  8  1  6  0  0  0
  2  1  1  0  0  0  0
  2 20  1  0  0  0  0
  3  4  2  0  0  0  0
  3  2  1  0  0  0  0
  4  5  1  0  0  0  0
  5 10  1  0  0  0  0
  5  6  1  0  0  0  0
  6  1  2  0  0  0  0
  6 11  1  0  0  0  0
  9  4  1  0  0  0  0
 11 12  2  0  0  0  0
 13 11  2  0  0  0  0
 14  3  1  0  0  0  0
 15 14  1  0  0  0  0
 16 18  1  0  0  0  0
 17 16  1  0  0  0  0
 19 16  1  0  0  0  0
M  RAD  3   5   2  14   2  15   3
M  END
