Coordinates from ORCA-job 4-NO2-Ph-N2-BF4-B3LYPG-6-31G_dp-MTMO-d009-169-n800
 OpenBabel09051908343D

 20 18  0  0  0  0  0  0  0  0999 V2000
   -1.2023   -0.2347    0.5085 C   0  0  0  0  0  0  0  0  0  0  0  0
    0.1420   -0.0164    0.7948 C   0  0  0  0  0  0  0  0  0  0  0  0
    0.5933    1.2969    0.8786 C   0  0  0  0  0  0  0  0  0  0  0  0
   -0.2359    2.3981    0.6908 C   0  0  0  0  0  0  0  0  0  0  0  0
   -1.5791    2.1759    0.4044 C   0  0  0  0  0  0  0  0  0  0  0  0
   -2.0413    0.8628    0.3169 C   0  0  0  0  0  0  0  0  0  0  0  0
   -1.6095   -1.2349    0.4308 H   0  0  0  0  0  0  0  0  0  0  0  0
    0.8337   -0.8347    0.9521 H   0  0  0  0  0  0  0  0  0  0  0  0
    0.1721    3.3992    0.7702 H   0  0  0  0  0  0  0  0  0  0  0  0
   -2.2696    2.9946    0.2476 H   0  0  0  0  0  0  0  0  0  0  0  0
   -3.4602    0.6286    0.0123 N   0  0  0  0  0  0  0  0  0  0  0  0
   -3.8435   -0.5384   -0.0544 O   0  0  0  0  0  0  0  0  0  0  0  0
   -4.1762    1.6148   -0.1577 O   0  0  0  0  0  0  0  0  0  0  0  0
    2.0597    1.4772   -1.8270 N   0  0  0  0  0  0  0  0  0  0  0  0
    2.0747    1.4502   -2.9318 N   0  0  0  0  0  0  0  0  0  0  0  0
    3.9577    0.0542    1.1081 B   0  0  0  0  0  0  0  0  0  0  0  0
    3.2214   -1.0386    1.2473 F   0  0  0  0  0  0  0  0  0  0  0  0
    4.3948    0.6903    2.1749 F   0  0  0  0  0  0  0  0  0  0  0  0
    4.3142    0.4502   -0.0982 F   0  0  0  0  0  0  0  0  0  0  0  0
    1.8973    1.5238    1.1649 F   0  0  0  0  0  0  0  0  0  0  0  0
  1  2  2  0  0  0  0
  2  3  1  0  0  0  0
  2  8  1  0  0  0  0
  3 20  1  0  0  0  0
  4  9  1  0  0  0  0
  4  3  2  0  0  0  0
  5  4  1  0  0  0  0
  6  5  2  0  0  0  0
  6  1  1  0  0  0  0
  7  1  1  0  0  0  0
 10  5  1  0  0  0  0
 11  6  1  0  0  0  0
 12 11  2  0  0  0  0
 13 11  2  0  0  0  0
 15 14  3  0  0  0  0
 16 17  1  0  0  0  0
 16 18  1  0  0  0  0
 19 16  1  0  0  0  0
M  END
