Coordinates from ORCA-job 4-NO2-Ph-N2-BF4-B3LYPG-6-31G_dp-MTMO-d009-169-n800
 OpenBabel09051908343D

 20 18  0  0  0  0  0  0  0  0999 V2000
   -1.5795   -0.2702    0.5084 C   0  0  0  0  0  0  0  0  0  0  0  0
   -0.2792    0.2051    0.3667 C   0  0  0  0  0  0  0  0  0  0  0  0
   -0.0428    1.5576    0.5926 C   0  0  0  0  0  0  0  0  0  0  0  0
   -1.0437    2.4545    0.9532 C   0  0  0  0  0  0  0  0  0  0  0  0
   -2.3426    1.9754    1.0939 C   0  0  0  0  0  0  0  0  0  0  0  0
   -2.5902    0.6210    0.8692 C   0  0  0  0  0  0  0  0  0  0  0  0
   -1.8229   -1.3121    0.3441 H   0  0  0  0  0  0  0  0  0  0  0  0
    0.5418   -0.4446    0.0882 H   0  0  0  0  0  0  0  0  0  0  0  0
   -0.7995    3.4976    1.1178 H   0  0  0  0  0  0  0  0  0  0  0  0
   -3.1610    2.6271    1.3723 H   0  0  0  0  0  0  0  0  0  0  0  0
   -3.9629    0.1167    1.0177 N   0  0  0  0  0  0  0  0  0  0  0  0
   -4.1546   -1.0810    0.8117 O   0  0  0  0  0  0  0  0  0  0  0  0
   -4.8344    0.9237    1.3388 O   0  0  0  0  0  0  0  0  0  0  0  0
    7.5494    0.1947   -1.5623 N   0  0  0  0  0  0  0  0  0  0  0  0
    6.4972    0.3262   -1.2509 N   0  0  0  0  0  0  0  0  0  0  0  0
    3.5064    0.9330   -0.3681 B   0  0  0  0  0  0  0  0  0  0  0  0
    2.9467   -0.2684   -0.3495 F   0  0  0  0  0  0  0  0  0  0  0  0
    4.1051    1.3921    0.7109 F   0  0  0  0  0  0  0  0  0  0  0  0
    3.4906    1.6424   -1.4776 F   0  0  0  0  0  0  0  0  0  0  0  0
    1.2195    2.0283    0.4559 F   0  0  0  0  0  0  0  0  0  0  0  0
  1  6  1  0  0  0  0
  2  1  2  0  0  0  0
  2  3  1  0  0  0  0
  3  4  2  0  0  0  0
  4  5  1  0  0  0  0
  4  9  1  0  0  0  0
  5 10  1  0  0  0  0
  6 11  1  0  0  0  0
  6  5  2  0  0  0  0
  7  1  1  0  0  0  0
  8  2  1  0  0  0  0
 11 13  2  0  0  0  0
 12 11  2  0  0  0  0
 14 15  3  0  0  0  0
 16 17  1  0  0  0  0
 16 18  1  0  0  0  0
 19 16  1  0  0  0  0
 20  3  1  0  0  0  0
M  END
