Coordinates from ORCA-job 4-NO2-Ph-N2-BF4-B3LYPG-6-31G_dp-MTMO-d009-169-n800
 OpenBabel09051908343D

 20 18  0  0  0  0  0  0  0  0999 V2000
   -2.1513   -0.2155    0.6824 C   0  0  0  0  0  0  0  0  0  0  0  0
   -0.8616    0.3054    0.6321 C   0  0  0  0  0  0  0  0  0  0  0  0
   -0.6888    1.6610    0.8913 C   0  0  0  0  0  0  0  0  0  0  0  0
   -1.7415    2.5177    1.1968 C   0  0  0  0  0  0  0  0  0  0  0  0
   -3.0293    1.9929    1.2462 C   0  0  0  0  0  0  0  0  0  0  0  0
   -3.2138    0.6347    0.9882 C   0  0  0  0  0  0  0  0  0  0  0  0
   -2.3469   -1.2625    0.4887 H   0  0  0  0  0  0  0  0  0  0  0  0
   -0.0041   -0.3134    0.3983 H   0  0  0  0  0  0  0  0  0  0  0  0
   -1.5447    3.5659    1.3908 H   0  0  0  0  0  0  0  0  0  0  0  0
   -3.8862    2.6119    1.4793 H   0  0  0  0  0  0  0  0  0  0  0  0
   -4.5749    0.0811    1.0408 N   0  0  0  0  0  0  0  0  0  0  0  0
   -4.7101   -1.1195    0.8092 O   0  0  0  0  0  0  0  0  0  0  0  0
   -5.4931    0.8534    1.3132 O   0  0  0  0  0  0  0  0  0  0  0  0
   13.4190   -0.8293   -3.5469 N   0  0  0  0  0  0  0  0  0  0  0  0
   12.3730   -0.7286   -3.2044 N   0  0  0  0  0  0  0  0  0  0  0  0
    2.7684    1.3063    0.0012 B   0  0  0  0  0  0  0  0  0  0  0  0
    2.3530    0.0491    0.0641 F   0  0  0  0  0  0  0  0  0  0  0  0
    3.3719    1.8473    1.0392 F   0  0  0  0  0  0  0  0  0  0  0  0
    2.6419    1.9790   -1.1246 F   0  0  0  0  0  0  0  0  0  0  0  0
    0.5622    2.1818    0.8472 F   0  0  0  0  0  0  0  0  0  0  0  0
  1  6  1  0  0  0  0
  2  1  2  0  0  0  0
  2  3  1  0  0  0  0
  3  4  2  0  0  0  0
  4  5  1  0  0  0  0
  4  9  1  0  0  0  0
  5 10  1  0  0  0  0
  6 11  1  0  0  0  0
  6  5  2  0  0  0  0
  7  1  1  0  0  0  0
  8  2  1  0  0  0  0
 11 13  2  0  0  0  0
 12 11  2  0  0  0  0
 14 15  3  0  0  0  0
 16 17  1  0  0  0  0
 16 18  1  0  0  0  0
 19 16  1  0  0  0  0
 20  3  1  0  0  0  0
M  END
