Coordinates from ORCA-job 4-NO2-Ph-N2-BF4-B3LYPG-6-31G_dp-MTMO-d009-169-n800
 OpenBabel09051908343D

 20 18  0  0  0  0  0  0  0  0999 V2000
   -1.9552   -0.2413    0.6432 C   0  0  0  0  0  0  0  0  0  0  0  0
   -0.6562    0.2553    0.5877 C   0  0  0  0  0  0  0  0  0  0  0  0
   -0.4600    1.6128    0.8192 C   0  0  0  0  0  0  0  0  0  0  0  0
   -1.4984    2.4945    1.1019 C   0  0  0  0  0  0  0  0  0  0  0  0
   -2.7957    1.9939    1.1564 C   0  0  0  0  0  0  0  0  0  0  0  0
   -3.0035    0.6340    0.9262 C   0  0  0  0  0  0  0  0  0  0  0  0
   -2.1687   -1.2885    0.4705 H   0  0  0  0  0  0  0  0  0  0  0  0
    0.1912   -0.3831    0.3703 H   0  0  0  0  0  0  0  0  0  0  0  0
   -1.2838    3.5429    1.2748 H   0  0  0  0  0  0  0  0  0  0  0  0
   -3.6423    2.6329    1.3726 H   0  0  0  0  0  0  0  0  0  0  0  0
   -4.3745    0.1061    0.9843 N   0  0  0  0  0  0  0  0  0  0  0  0
   -4.5303   -1.0967    0.7784 O   0  0  0  0  0  0  0  0  0  0  0  0
   -5.2799    0.9004    1.2354 O   0  0  0  0  0  0  0  0  0  0  0  0
   11.4520   -0.4572   -2.9846 N   0  0  0  0  0  0  0  0  0  0  0  0
   10.4082   -0.3732   -2.6311 N   0  0  0  0  0  0  0  0  0  0  0  0
    2.9950    1.1802   -0.0543 B   0  0  0  0  0  0  0  0  0  0  0  0
    2.5502   -0.0670    0.0066 F   0  0  0  0  0  0  0  0  0  0  0  0
    3.6009    1.7093    0.9885 F   0  0  0  0  0  0  0  0  0  0  0  0
    2.8940    1.8538   -1.1822 F   0  0  0  0  0  0  0  0  0  0  0  0
    0.8003    2.1098    0.7696 F   0  0  0  0  0  0  0  0  0  0  0  0
  1  6  1  0  0  0  0
  2  1  2  0  0  0  0
  2  3  1  0  0  0  0
  3  4  2  0  0  0  0
  4  5  1  0  0  0  0
  4  9  1  0  0  0  0
  5 10  1  0  0  0  0
  6 11  1  0  0  0  0
  6  5  2  0  0  0  0
  7  1  1  0  0  0  0
  8  2  1  0  0  0  0
 11 13  2  0  0  0  0
 12 11  2  0  0  0  0
 14 15  3  0  0  0  0
 16 17  1  0  0  0  0
 16 18  1  0  0  0  0
 19 16  1  0  0  0  0
 20  3  1  0  0  0  0
M  END
