Coordinates from ORCA-job 4-NO2-Ph-N2-BF4-B3LYPG-6-31G_dp-MTMO-d009-169-n800
 OpenBabel09051908343D

 20 18  0  0  0  0  0  0  0  0999 V2000
   -1.4571   -0.3356    0.7409 C   0  0  0  0  0  0  0  0  0  0  0  0
   -0.1015   -0.1681    0.4745 C   0  0  0  0  0  0  0  0  0  0  0  0
    0.3572    1.1106    0.1747 C   0  0  0  0  0  0  0  0  0  0  0  0
   -0.4724    2.2262    0.1308 C   0  0  0  0  0  0  0  0  0  0  0  0
   -1.8272    2.0541    0.3975 C   0  0  0  0  0  0  0  0  0  0  0  0
   -2.2982    0.7762    0.6980 C   0  0  0  0  0  0  0  0  0  0  0  0
   -1.8711   -1.3067    0.9810 H   0  0  0  0  0  0  0  0  0  0  0  0
    0.5933   -0.9986    0.4995 H   0  0  0  0  0  0  0  0  0  0  0  0
   -0.0571    3.1980   -0.1096 H   0  0  0  0  0  0  0  0  0  0  0  0
   -2.5197    2.8860    0.3772 H   0  0  0  0  0  0  0  0  0  0  0  0
   -3.7301    0.5956    0.9793 N   0  0  0  0  0  0  0  0  0  0  0  0
   -4.1202   -0.5416    1.2397 O   0  0  0  0  0  0  0  0  0  0  0  0
   -4.4490    1.5932    0.9369 O   0  0  0  0  0  0  0  0  0  0  0  0
    4.1605    2.0825   -2.3079 N   0  0  0  0  0  0  0  0  0  0  0  0
    5.1324    2.2994   -2.7873 N   0  0  0  0  0  0  0  0  0  0  0  0
    3.5429    0.1043    1.0655 B   0  0  0  0  0  0  0  0  0  0  0  0
    3.0329   -1.0765    0.7492 F   0  0  0  0  0  0  0  0  0  0  0  0
    3.1964    0.6825    2.1986 F   0  0  0  0  0  0  0  0  0  0  0  0
    4.4554    0.6531    0.2886 F   0  0  0  0  0  0  0  0  0  0  0  0
    1.6757    1.2846   -0.0940 F   0  0  0  0  0  0  0  0  0  0  0  0
  1  7  1  0  0  0  0
  2  8  1  0  0  0  0
  2  1  2  0  0  0  0
  3  2  1  0  0  0  0
  4  3  2  0  0  0  0
  4  5  1  0  0  0  0
  5  6  2  0  0  0  0
  6  1  1  0  0  0  0
  6 11  1  0  0  0  0
  9  4  1  0  0  0  0
 10  5  1  0  0  0  0
 11 12  2  0  0  0  0
 13 11  2  0  0  0  0
 15 14  3  0  0  0  0
 16 18  1  0  0  0  0
 17 16  1  0  0  0  0
 19 16  1  0  0  0  0
 20  3  1  0  0  0  0
M  END
