Coordinates from ORCA-job 4-NO2-Ph-N2-BF4-B3LYPG-6-31G_dp-MTMO-d009-169-n800
 OpenBabel09051908343D

 20 18  0  0  0  0  0  0  0  0999 V2000
   -1.8983   -0.2484    0.6289 C   0  0  0  0  0  0  0  0  0  0  0  0
   -0.5974    0.2430    0.5706 C   0  0  0  0  0  0  0  0  0  0  0  0
   -0.3957    1.6004    0.7982 C   0  0  0  0  0  0  0  0  0  0  0  0
   -1.4301    2.4871    1.0798 C   0  0  0  0  0  0  0  0  0  0  0  0
   -2.7293    1.9916    1.1371 C   0  0  0  0  0  0  0  0  0  0  0  0
   -2.9427    0.6319    0.9108 C   0  0  0  0  0  0  0  0  0  0  0  0
   -2.1163   -1.2952    0.4593 H   0  0  0  0  0  0  0  0  0  0  0  0
    0.2476   -0.3989    0.3538 H   0  0  0  0  0  0  0  0  0  0  0  0
   -1.2112    3.5351    1.2497 H   0  0  0  0  0  0  0  0  0  0  0  0
   -3.5732    2.6344    1.3525 H   0  0  0  0  0  0  0  0  0  0  0  0
   -4.3158    0.1097    0.9719 N   0  0  0  0  0  0  0  0  0  0  0  0
   -4.4765   -1.0931    0.7698 O   0  0  0  0  0  0  0  0  0  0  0  0
   -5.2176    0.9083    1.2221 O   0  0  0  0  0  0  0  0  0  0  0  0
   10.8935   -0.3605   -2.8131 N   0  0  0  0  0  0  0  0  0  0  0  0
    9.8504   -0.2799   -2.4566 N   0  0  0  0  0  0  0  0  0  0  0  0
    3.0575    1.1515   -0.0808 B   0  0  0  0  0  0  0  0  0  0  0  0
    2.6069   -0.0937   -0.0201 F   0  0  0  0  0  0  0  0  0  0  0  0
    3.6666    1.6774    0.9618 F   0  0  0  0  0  0  0  0  0  0  0  0
    2.9584    1.8261   -1.2082 F   0  0  0  0  0  0  0  0  0  0  0  0
    0.8665    2.0919    0.7458 F   0  0  0  0  0  0  0  0  0  0  0  0
  1  6  1  0  0  0  0
  2  1  2  0  0  0  0
  2  3  1  0  0  0  0
  3  4  2  0  0  0  0
  4  5  1  0  0  0  0
  4  9  1  0  0  0  0
  5 10  1  0  0  0  0
  6 11  1  0  0  0  0
  6  5  2  0  0  0  0
  7  1  1  0  0  0  0
  8  2  1  0  0  0  0
 11 13  2  0  0  0  0
 12 11  2  0  0  0  0
 14 15  3  0  0  0  0
 16 17  1  0  0  0  0
 16 18  1  0  0  0  0
 19 16  1  0  0  0  0
 20  3  1  0  0  0  0
M  END
