Coordinates from ORCA-job 4-NO2-Ph-N2-BF4-B3LYPG-6-31G_dp-MTMO-d009-169-n800
 OpenBabel09051908343D

 20 18  0  0  0  0  0  0  0  0999 V2000
   -1.9757   -0.2163    0.5414 C   0  0  0  0  0  0  0  0  0  0  0  0
   -0.7715    0.4814    0.5653 C   0  0  0  0  0  0  0  0  0  0  0  0
   -0.7873    1.8069    0.9875 C   0  0  0  0  0  0  0  0  0  0  0  0
   -1.9465    2.4656    1.3850 C   0  0  0  0  0  0  0  0  0  0  0  0
   -3.1480    1.7641    1.3598 C   0  0  0  0  0  0  0  0  0  0  0  0
   -3.1437    0.4344    0.9385 C   0  0  0  0  0  0  0  0  0  0  0  0
   -2.0246   -1.2492    0.2218 H   0  0  0  0  0  0  0  0  0  0  0  0
    0.1617    0.0211    0.2658 H   0  0  0  0  0  0  0  0  0  0  0  0
   -1.8965    3.4997    1.7049 H   0  0  0  0  0  0  0  0  0  0  0  0
   -4.0807    2.2250    1.6586 H   0  0  0  0  0  0  0  0  0  0  0  0
   -4.4140   -0.3058    0.9119 N   0  0  0  0  0  0  0  0  0  0  0  0
   -4.3828   -1.4768    0.5363 O   0  0  0  0  0  0  0  0  0  0  0  0
   -5.4287    0.2928    1.2666 O   0  0  0  0  0  0  0  0  0  0  0  0
   13.4939   -1.7577   -3.6689 N   0  0  0  0  0  0  0  0  0  0  0  0
   12.4706   -1.5227   -3.3233 N   0  0  0  0  0  0  0  0  0  0  0  0
    2.6675    2.0473    0.0739 B   0  0  0  0  0  0  0  0  0  0  0  0
    2.4404    0.7430    0.0060 F   0  0  0  0  0  0  0  0  0  0  0  0
    3.2133    2.5602    1.1571 F   0  0  0  0  0  0  0  0  0  0  0  0
    2.4172    2.8075   -0.9729 F   0  0  0  0  0  0  0  0  0  0  0  0
    0.3788    2.4983    1.0180 F   0  0  0  0  0  0  0  0  0  0  0  0
  1  2  2  0  0  0  0
  1  6  1  0  0  0  0
  2  3  1  0  0  0  0
  3 20  1  0  0  0  0
  3  4  2  0  0  0  0
  4  9  1  0  0  0  0
  5  4  1  0  0  0  0
  5 10  1  0  0  0  0
  6  5  2  0  0  0  0
  7  1  1  0  0  0  0
  8  2  1  0  0  0  0
 11  6  1  0  0  0  0
 11 13  2  0  0  0  0
 12 11  2  0  0  0  0
 14 15  3  0  0  0  0
 16 18  1  0  0  0  0
 17 16  1  0  0  0  0
 19 16  1  0  0  0  0
M  END
