Coordinates from ORCA-job 4-NO2-Ph-N2-BF4-B3LYPG-6-31G_dp-MTMO-d009-169-n800
 OpenBabel09051908343D

 20 18  0  0  0  0  0  0  0  0999 V2000
   -1.1746   -0.2287    0.4823 C   0  0  0  0  0  0  0  0  0  0  0  0
    0.1656   -0.0121    0.7886 C   0  0  0  0  0  0  0  0  0  0  0  0
    0.6165    1.3007    0.8827 C   0  0  0  0  0  0  0  0  0  0  0  0
   -0.2107    2.4029    0.6916 C   0  0  0  0  0  0  0  0  0  0  0  0
   -1.5498    2.1823    0.3851 C   0  0  0  0  0  0  0  0  0  0  0  0
   -2.0109    0.8697    0.2841 C   0  0  0  0  0  0  0  0  0  0  0  0
   -1.5809   -1.2285    0.3950 H   0  0  0  0  0  0  0  0  0  0  0  0
    0.8546   -0.8313    0.9521 H   0  0  0  0  0  0  0  0  0  0  0  0
    0.1957    3.4036    0.7828 H   0  0  0  0  0  0  0  0  0  0  0  0
   -2.2382    3.0020    0.2238 H   0  0  0  0  0  0  0  0  0  0  0  0
   -3.4254    0.6372   -0.0408 N   0  0  0  0  0  0  0  0  0  0  0  0
   -3.8078   -0.5295   -0.1183 O   0  0  0  0  0  0  0  0  0  0  0  0
   -4.1389    1.6243   -0.2159 O   0  0  0  0  0  0  0  0  0  0  0  0
    1.9087    1.4418   -1.6901 N   0  0  0  0  0  0  0  0  0  0  0  0
    1.7602    1.3840   -2.7838 N   0  0  0  0  0  0  0  0  0  0  0  0
    3.9773    0.0589    1.1045 B   0  0  0  0  0  0  0  0  0  0  0  0
    3.2421   -1.0333    1.2549 F   0  0  0  0  0  0  0  0  0  0  0  0
    4.4307    0.6947    2.1647 F   0  0  0  0  0  0  0  0  0  0  0  0
    4.3154    0.4547   -0.1070 F   0  0  0  0  0  0  0  0  0  0  0  0
    1.9138    1.5257    1.1971 F   0  0  0  0  0  0  0  0  0  0  0  0
  1  2  2  0  0  0  0
  2  3  1  0  0  0  0
  2  8  1  0  0  0  0
  3 20  1  0  0  0  0
  4  9  1  0  0  0  0
  4  3  2  0  0  0  0
  5  4  1  0  0  0  0
  6  5  2  0  0  0  0
  6  1  1  0  0  0  0
  7  1  1  0  0  0  0
 10  5  1  0  0  0  0
 11  6  1  0  0  0  0
 12 11  2  0  0  0  0
 13 11  2  0  0  0  0
 15 14  3  0  0  0  0
 16 17  1  0  0  0  0
 16 18  1  0  0  0  0
 19 16  1  0  0  0  0
M  END
