Coordinates from ORCA-job 4-NO2-Ph-N2-BF4-B3LYPG-6-31G_dp-MTMO-d009-169-n800
 OpenBabel09051908343D

 20 18  0  0  0  0  0  0  0  0999 V2000
   -1.9208   -0.2457    0.6347 C   0  0  0  0  0  0  0  0  0  0  0  0
   -0.6206    0.2477    0.5776 C   0  0  0  0  0  0  0  0  0  0  0  0
   -0.4211    1.6052    0.8067 C   0  0  0  0  0  0  0  0  0  0  0  0
   -1.4570    2.4900    1.0884 C   0  0  0  0  0  0  0  0  0  0  0  0
   -2.7555    1.9925    1.1444 C   0  0  0  0  0  0  0  0  0  0  0  0
   -2.9667    0.6328    0.9167 C   0  0  0  0  0  0  0  0  0  0  0  0
   -2.1371   -1.2927    0.4640 H   0  0  0  0  0  0  0  0  0  0  0  0
    0.2254   -0.3929    0.3609 H   0  0  0  0  0  0  0  0  0  0  0  0
   -1.2398    3.5381    1.2593 H   0  0  0  0  0  0  0  0  0  0  0  0
   -3.6005    2.6339    1.3599 H   0  0  0  0  0  0  0  0  0  0  0  0
   -4.3390    0.1084    0.9765 N   0  0  0  0  0  0  0  0  0  0  0  0
   -4.4979   -1.0944    0.7728 O   0  0  0  0  0  0  0  0  0  0  0  0
   -5.2423    0.9054    1.2265 O   0  0  0  0  0  0  0  0  0  0  0  0
   11.1132   -0.3986   -2.8816 N   0  0  0  0  0  0  0  0  0  0  0  0
   10.0698   -0.3165   -2.5261 N   0  0  0  0  0  0  0  0  0  0  0  0
    3.0332    1.1629   -0.0697 B   0  0  0  0  0  0  0  0  0  0  0  0
    2.5851   -0.0832   -0.0087 F   0  0  0  0  0  0  0  0  0  0  0  0
    3.6409    1.6903    0.9729 F   0  0  0  0  0  0  0  0  0  0  0  0
    2.9334    1.8369   -1.1975 F   0  0  0  0  0  0  0  0  0  0  0  0
    0.8405    2.0986    0.7555 F   0  0  0  0  0  0  0  0  0  0  0  0
  1  6  1  0  0  0  0
  2  1  2  0  0  0  0
  2  3  1  0  0  0  0
  3  4  2  0  0  0  0
  4  5  1  0  0  0  0
  4  9  1  0  0  0  0
  5 10  1  0  0  0  0
  6 11  1  0  0  0  0
  6  5  2  0  0  0  0
  7  1  1  0  0  0  0
  8  2  1  0  0  0  0
 11 13  2  0  0  0  0
 12 11  2  0  0  0  0
 14 15  3  0  0  0  0
 16 17  1  0  0  0  0
 16 18  1  0  0  0  0
 19 16  1  0  0  0  0
 20  3  1  0  0  0  0
M  END
