Coordinates from ORCA-job 4-NO2-Ph-N2-BF4-B3LYPG-6-31G_dp-MTMO-d009-169-n800
 OpenBabel09051908343D

 20 18  0  0  0  0  0  0  0  0999 V2000
   -1.0833   -0.1190    0.5164 C   0  0  0  0  0  0  0  0  0  0  0  0
    0.2556    0.1605    0.1819 C   0  0  0  0  0  0  0  0  0  0  0  0
    0.3533    1.4263   -0.2764 C   0  0  0  0  0  0  0  0  0  0  0  0
   -0.4818    2.4801   -0.4882 C   0  0  0  0  0  0  0  0  0  0  0  0
   -1.7968    2.1447   -0.1287 C   0  0  0  0  0  0  0  0  0  0  0  0
   -2.0616    0.8637    0.3575 C   0  0  0  0  0  0  0  0  0  0  0  0
   -1.3511   -1.0921    0.9110 H   0  0  0  0  0  0  0  0  0  0  0  0
    1.1194   -0.5152    0.2993 H   0  0  0  0  0  0  0  0  0  0  0  0
   -0.1927    3.4481   -0.8725 H   0  0  0  0  0  0  0  0  0  0  0  0
   -2.5986    2.8660   -0.2282 H   0  0  0  0  0  0  0  0  0  0  0  0
   -3.4584    0.5353    0.7244 N   0  0  0  0  0  0  0  0  0  0  0  0
   -3.6740   -0.5962    1.1427 O   0  0  0  0  0  0  0  0  0  0  0  0
   -4.2955    1.4209    0.5786 O   0  0  0  0  0  0  0  0  0  0  0  0
    2.1819    1.8640   -0.8346 N   0  0  0  0  0  0  0  0  0  0  0  0
    3.2115    2.0535   -1.1857 N   0  0  0  0  0  0  0  0  0  0  0  0
    3.4596    0.0295    1.2201 B   0  0  0  0  0  0  0  0  0  0  0  0
    2.8007   -0.8905    0.3155 F   0  0  0  0  0  0  0  0  0  0  0  0
    3.8760   -0.6281    2.3451 F   0  0  0  0  0  0  0  0  0  0  0  0
    4.4992    0.6454    0.5195 F   0  0  0  0  0  0  0  0  0  0  0  0
    2.4800    1.0220    1.5355 F   0  0  0  0  0  0  0  0  0  0  0  0
  1  7  1  0  0  0  0
  2  8  1  0  0  0  0
  2  1  2  0  0  0  0
  3  2  1  0  0  0  0
  4  3  2  0  0  0  0
  4  5  1  0  0  0  0
  5  6  2  0  0  0  0
  6  1  1  0  0  0  0
  6 11  1  0  0  0  0
  9  4  1  0  0  0  0
 10  5  1  0  0  0  0
 11 12  2  0  0  0  0
 13 11  2  0  0  0  0
 15 14  3  0  0  0  0
 16 20  1  0  0  0  0
 16 18  1  0  0  0  0
 17 16  1  0  0  0  0
 19 16  1  0  0  0  0
M  RAD  1   3   2
M  END
