Coordinates from ORCA-job 4-NO2-Ph-N2-BF4-B3LYPG-6-31G_dp-MTMO-d009-169-n800
 OpenBabel09051908343D

 20 18  0  0  0  0  0  0  0  0999 V2000
   -1.4120   -0.3035    0.7054 C   0  0  0  0  0  0  0  0  0  0  0  0
   -0.0385   -0.1086    0.5925 C   0  0  0  0  0  0  0  0  0  0  0  0
    0.4271    1.1849    0.3793 C   0  0  0  0  0  0  0  0  0  0  0  0
   -0.4131    2.2884    0.2733 C   0  0  0  0  0  0  0  0  0  0  0  0
   -1.7855    2.0890    0.3867 C   0  0  0  0  0  0  0  0  0  0  0  0
   -2.2633    0.7963    0.6011 C   0  0  0  0  0  0  0  0  0  0  0  0
   -1.8318   -1.2873    0.8728 H   0  0  0  0  0  0  0  0  0  0  0  0
    0.6637   -0.9296    0.6682 H   0  0  0  0  0  0  0  0  0  0  0  0
    0.0084    3.2726    0.1049 H   0  0  0  0  0  0  0  0  0  0  0  0
   -2.4863    2.9106    0.3127 H   0  0  0  0  0  0  0  0  0  0  0  0
   -3.7136    0.5871    0.7221 N   0  0  0  0  0  0  0  0  0  0  0  0
   -4.1098   -0.5624    0.9089 O   0  0  0  0  0  0  0  0  0  0  0  0
   -4.4410    1.5752    0.6294 O   0  0  0  0  0  0  0  0  0  0  0  0
    3.5593    1.9649   -2.2829 N   0  0  0  0  0  0  0  0  0  0  0  0
    4.4295    2.1436   -2.9403 N   0  0  0  0  0  0  0  0  0  0  0  0
    3.7080    0.0413    1.1024 B   0  0  0  0  0  0  0  0  0  0  0  0
    3.0799   -1.0971    0.8477 F   0  0  0  0  0  0  0  0  0  0  0  0
    3.6050    0.5915    2.2953 F   0  0  0  0  0  0  0  0  0  0  0  0
    4.4945    0.5734    0.1883 F   0  0  0  0  0  0  0  0  0  0  0  0
    1.7628    1.3888    0.2654 F   0  0  0  0  0  0  0  0  0  0  0  0
  1  7  1  0  0  0  0
  2  8  1  0  0  0  0
  2  1  2  0  0  0  0
  3  2  1  0  0  0  0
  4  3  2  0  0  0  0
  4  5  1  0  0  0  0
  5  6  2  0  0  0  0
  6  1  1  0  0  0  0
  6 11  1  0  0  0  0
  9  4  1  0  0  0  0
 10  5  1  0  0  0  0
 11 12  2  0  0  0  0
 13 11  2  0  0  0  0
 15 14  3  0  0  0  0
 16 18  1  0  0  0  0
 17 16  1  0  0  0  0
 19 16  1  0  0  0  0
 20  3  1  0  0  0  0
M  END
