Coordinates from ORCA-job 4-NO2-Ph-N2-BF4-B3LYPG-6-31G_dp-MTMO-d009-169-n800
 OpenBabel09051908343D

 20 18  0  0  0  0  0  0  0  0999 V2000
   -2.0024   -0.2130    0.5491 C   0  0  0  0  0  0  0  0  0  0  0  0
   -0.7959    0.4807    0.5706 C   0  0  0  0  0  0  0  0  0  0  0  0
   -0.8065    1.8067    0.9912 C   0  0  0  0  0  0  0  0  0  0  0  0
   -1.9630    2.4696    1.3896 C   0  0  0  0  0  0  0  0  0  0  0  0
   -3.1670    1.7722    1.3669 C   0  0  0  0  0  0  0  0  0  0  0  0
   -3.1676    0.4420    0.9471 C   0  0  0  0  0  0  0  0  0  0  0  0
   -2.0552   -1.2462    0.2308 H   0  0  0  0  0  0  0  0  0  0  0  0
    0.1355    0.0171    0.2702 H   0  0  0  0  0  0  0  0  0  0  0  0
   -1.9093    3.5040    1.7083 H   0  0  0  0  0  0  0  0  0  0  0  0
   -4.0977    2.2364    1.6664 H   0  0  0  0  0  0  0  0  0  0  0  0
   -4.4404   -0.2941    0.9231 N   0  0  0  0  0  0  0  0  0  0  0  0
   -4.4136   -1.4656    0.5490 O   0  0  0  0  0  0  0  0  0  0  0  0
   -5.4526    0.3083    1.2785 O   0  0  0  0  0  0  0  0  0  0  0  0
   13.6895   -1.7744   -3.7235 N   0  0  0  0  0  0  0  0  0  0  0  0
   12.6658   -1.5501   -3.3725 N   0  0  0  0  0  0  0  0  0  0  0  0
    2.6484    2.0406    0.0751 B   0  0  0  0  0  0  0  0  0  0  0  0
    2.4180    0.7371    0.0038 F   0  0  0  0  0  0  0  0  0  0  0  0
    3.1953    2.5494    1.1597 F   0  0  0  0  0  0  0  0  0  0  0  0
    2.4000    2.8042   -0.9696 F   0  0  0  0  0  0  0  0  0  0  0  0
    0.3620    2.4941    1.0194 F   0  0  0  0  0  0  0  0  0  0  0  0
  1  2  2  0  0  0  0
  1  6  1  0  0  0  0
  2  3  1  0  0  0  0
  3 20  1  0  0  0  0
  3  4  2  0  0  0  0
  4  9  1  0  0  0  0
  5  4  1  0  0  0  0
  5 10  1  0  0  0  0
  6  5  2  0  0  0  0
  7  1  1  0  0  0  0
  8  2  1  0  0  0  0
 11  6  1  0  0  0  0
 11 13  2  0  0  0  0
 12 11  2  0  0  0  0
 14 15  3  0  0  0  0
 16 18  1  0  0  0  0
 17 16  1  0  0  0  0
 19 16  1  0  0  0  0
M  END
