Coordinates from ORCA-job 4-NO2-Ph-N2-BF4-B3LYPG-6-31G_dp-MTMO-d009-169-n800
 OpenBabel09051908343D

 20 18  0  0  0  0  0  0  0  0999 V2000
   -1.6755   -0.2717    0.5533 C   0  0  0  0  0  0  0  0  0  0  0  0
   -0.3705    0.2018    0.4537 C   0  0  0  0  0  0  0  0  0  0  0  0
   -0.1421    1.5555    0.6789 C   0  0  0  0  0  0  0  0  0  0  0  0
   -1.1540    2.4553    0.9979 C   0  0  0  0  0  0  0  0  0  0  0  0
   -2.4574    1.9778    1.0965 C   0  0  0  0  0  0  0  0  0  0  0  0
   -2.6975    0.6221    0.8726 C   0  0  0  0  0  0  0  0  0  0  0  0
   -1.9137   -1.3146    0.3876 H   0  0  0  0  0  0  0  0  0  0  0  0
    0.4582   -0.4507    0.2072 H   0  0  0  0  0  0  0  0  0  0  0  0
   -0.9149    3.4995    1.1639 H   0  0  0  0  0  0  0  0  0  0  0  0
   -3.2846    2.6317    1.3417 H   0  0  0  0  0  0  0  0  0  0  0  0
   -4.0750    0.1191    0.9768 N   0  0  0  0  0  0  0  0  0  0  0  0
   -4.2596   -1.0803    0.7746 O   0  0  0  0  0  0  0  0  0  0  0  0
   -4.9568    0.9290    1.2599 O   0  0  0  0  0  0  0  0  0  0  0  0
    8.6603    0.0091   -2.0015 N   0  0  0  0  0  0  0  0  0  0  0  0
    7.6130    0.1172   -1.6653 N   0  0  0  0  0  0  0  0  0  0  0  0
    3.3093    1.0332   -0.2568 B   0  0  0  0  0  0  0  0  0  0  0  0
    2.8210   -0.1984   -0.2157 F   0  0  0  0  0  0  0  0  0  0  0  0
    3.9285    1.5262    0.7957 F   0  0  0  0  0  0  0  0  0  0  0  0
    3.2303    1.7286   -1.3730 F   0  0  0  0  0  0  0  0  0  0  0  0
    1.1245    2.0286    0.5852 F   0  0  0  0  0  0  0  0  0  0  0  0
  1  6  1  0  0  0  0
  2  1  2  0  0  0  0
  2  3  1  0  0  0  0
  3  4  2  0  0  0  0
  4  5  1  0  0  0  0
  4  9  1  0  0  0  0
  5 10  1  0  0  0  0
  6 11  1  0  0  0  0
  6  5  2  0  0  0  0
  7  1  1  0  0  0  0
  8  2  1  0  0  0  0
 11 13  2  0  0  0  0
 12 11  2  0  0  0  0
 14 15  3  0  0  0  0
 16 17  1  0  0  0  0
 16 18  1  0  0  0  0
 19 16  1  0  0  0  0
 20  3  1  0  0  0  0
M  END
