Coordinates from ORCA-job 4-NO2-Ph-N2-BF4-B3LYPG-6-31G_dp-MTMO-d009-169-n800
 OpenBabel09051908343D

 20 18  0  0  0  0  0  0  0  0999 V2000
   -1.3413   -0.2916    0.5932 C   0  0  0  0  0  0  0  0  0  0  0  0
   -0.0454    0.1957    0.7343 C   0  0  0  0  0  0  0  0  0  0  0  0
    0.1245    1.5555    0.9743 C   0  0  0  0  0  0  0  0  0  0  0  0
   -0.9376    2.4481    1.0781 C   0  0  0  0  0  0  0  0  0  0  0  0
   -2.2319    1.9565    0.9377 C   0  0  0  0  0  0  0  0  0  0  0  0
   -2.4132    0.5947    0.6973 C   0  0  0  0  0  0  0  0  0  0  0  0
   -1.5347   -1.3399    0.4039 H   0  0  0  0  0  0  0  0  0  0  0  0
    0.8204   -0.4505    0.6590 H   0  0  0  0  0  0  0  0  0  0  0  0
   -0.7434    3.4976    1.2674 H   0  0  0  0  0  0  0  0  0  0  0  0
   -3.0965    2.6038    1.0105 H   0  0  0  0  0  0  0  0  0  0  0  0
   -3.7811    0.0764    0.5499 N   0  0  0  0  0  0  0  0  0  0  0  0
   -3.9136   -1.1283    0.3387 O   0  0  0  0  0  0  0  0  0  0  0  0
   -4.7077    0.8800    0.6473 O   0  0  0  0  0  0  0  0  0  0  0  0
    6.3868   -0.2957   -2.2161 N   0  0  0  0  0  0  0  0  0  0  0  0
    5.5810    0.1424   -1.6012 N   0  0  0  0  0  0  0  0  0  0  0  0
    3.4194    1.1658   -0.1366 B   0  0  0  0  0  0  0  0  0  0  0  0
    3.2083   -0.0571    0.3292 F   0  0  0  0  0  0  0  0  0  0  0  0
    4.2091    1.9910    0.5191 F   0  0  0  0  0  0  0  0  0  0  0  0
    2.8588    1.5347   -1.2721 F   0  0  0  0  0  0  0  0  0  0  0  0
    1.3815    2.0398    1.1194 F   0  0  0  0  0  0  0  0  0  0  0  0
  1  6  2  0  0  0  0
  1  2  1  0  0  0  0
  2  3  2  0  0  0  0
  3  4  1  0  0  0  0
  3 20  1  0  0  0  0
  4  9  1  0  0  0  0
  5 10  1  0  0  0  0
  5  4  2  0  0  0  0
  6  5  1  0  0  0  0
  7  1  1  0  0  0  0
  8  2  1  0  0  0  0
 11 13  2  0  0  0  0
 11  6  1  0  0  0  0
 12 11  2  0  0  0  0
 14 15  3  0  0  0  0
 16 17  1  0  0  0  0
 16 18  1  0  0  0  0
 19 16  1  0  0  0  0
M  END
