Coordinates from ORCA-job 4-NO2-Ph-N2-BF4-B3LYPG-6-31G_dp-MTMO-d009-169-n800
 OpenBabel09051908343D

 20 18  0  0  0  0  0  0  0  0999 V2000
   -1.5497   -0.3573    0.8562 C   0  0  0  0  0  0  0  0  0  0  0  0
   -0.2276   -0.1607    0.4683 C   0  0  0  0  0  0  0  0  0  0  0  0
    0.1610    1.1173    0.0805 C   0  0  0  0  0  0  0  0  0  0  0  0
   -0.7054    2.2051    0.0643 C   0  0  0  0  0  0  0  0  0  0  0  0
   -2.0266    2.0040    0.4523 C   0  0  0  0  0  0  0  0  0  0  0  0
   -2.4277    0.7263    0.8418 C   0  0  0  0  0  0  0  0  0  0  0  0
   -1.9097   -1.3292    1.1687 H   0  0  0  0  0  0  0  0  0  0  0  0
    0.4940   -0.9685    0.4657 H   0  0  0  0  0  0  0  0  0  0  0  0
   -0.3443    3.1781   -0.2481 H   0  0  0  0  0  0  0  0  0  0  0  0
   -2.7456    2.8133    0.4589 H   0  0  0  0  0  0  0  0  0  0  0  0
   -3.8243    0.5148    1.2506 N   0  0  0  0  0  0  0  0  0  0  0  0
   -4.1525   -0.6218    1.5877 O   0  0  0  0  0  0  0  0  0  0  0  0
   -4.5771    1.4875    1.2296 O   0  0  0  0  0  0  0  0  0  0  0  0
    5.4849    2.4454   -2.4596 N   0  0  0  0  0  0  0  0  0  0  0  0
    6.3644    1.8336   -2.1886 N   0  0  0  0  0  0  0  0  0  0  0  0
    3.4308    0.2405    0.7192 B   0  0  0  0  0  0  0  0  0  0  0  0
    2.9521   -0.9691    0.4699 F   0  0  0  0  0  0  0  0  0  0  0  0
    3.1622    0.8241    1.8705 F   0  0  0  0  0  0  0  0  0  0  0  0
    4.2386    0.8168   -0.1485 F   0  0  0  0  0  0  0  0  0  0  0  0
    1.4460    1.3191   -0.3062 F   0  0  0  0  0  0  0  0  0  0  0  0
  1  7  1  0  0  0  0
  2  1  2  0  0  0  0
  3  2  1  0  0  0  0
  4  3  2  0  0  0  0
  4  5  1  0  0  0  0
  5 10  1  0  0  0  0
  5  6  2  0  0  0  0
  6  1  1  0  0  0  0
  6 11  1  0  0  0  0
  8  2  1  0  0  0  0
  9  4  1  0  0  0  0
 11 12  2  0  0  0  0
 13 11  2  0  0  0  0
 14 15  3  0  0  0  0
 16 18  1  0  0  0  0
 17 16  1  0  0  0  0
 19 16  1  0  0  0  0
 20  3  1  0  0  0  0
M  END
