Coordinates from ORCA-job 4-NO2-Ph-N2-BF4-B3LYPG-6-31G_dp-MTMO-d009-169-n800
 OpenBabel09051908343D

 20 19  0  0  1  0  0  0  0  0999 V2000
   -0.7662   -0.0088    0.4685 C   0  0  0  0  0  0  0  0  0  0  0  0
    0.6336    0.3825    0.1580 C   0  0  1  0  0  0  0  0  0  0  0  0
    0.7308    1.6913   -0.5974 C   0  0  0  0  0  0  0  0  0  0  0  0
   -0.3861    2.6335   -0.5424 C   0  0  0  0  0  0  0  0  0  0  0  0
   -1.5870    2.2598   -0.0489 C   0  0  0  0  0  0  0  0  0  0  0  0
   -1.7559    0.9020    0.4075 C   0  0  0  0  0  0  0  0  0  0  0  0
   -0.9636   -1.0192    0.8028 H   0  0  0  0  0  0  0  0  0  0  0  0
    1.1904   -0.4115   -0.3428 H   0  0  0  0  0  0  0  0  0  0  0  0
   -0.2189    3.6322   -0.9324 H   0  0  0  0  0  0  0  0  0  0  0  0
   -2.4305    2.9349   -0.0108 H   0  0  0  0  0  0  0  0  0  0  0  0
   -3.1215    0.4796    0.8064 N   0  0  0  0  0  0  0  0  0  0  0  0
   -3.2860   -0.6887    1.1440 O   0  0  0  0  0  0  0  0  0  0  0  0
   -4.0000    1.3384    0.7727 O   0  0  0  0  0  0  0  0  0  0  0  0
    1.6970    1.9417   -1.1487 N   0  0  0  0  0  0  0  0  0  0  0  0
    2.6690    2.1912   -1.7084 N   0  0  0  0  0  0  0  0  0  0  0  0
    3.3304   -0.3944    1.5012 B   0  0  0  0  0  0  0  0  0  0  0  0
    2.8550   -1.5829    1.1465 F   0  0  0  0  0  0  0  0  0  0  0  0
    3.5359   -0.1136    2.7729 F   0  0  0  0  0  0  0  0  0  0  0  0
    3.7962    0.4108    0.5534 F   0  0  0  0  0  0  0  0  0  0  0  0
    1.3206    0.5403    1.4310 F   0  0  0  0  0  0  0  0  0  0  0  0
  1  7  1  0  0  0  0
  2  8  1  6  0  0  0
  2  1  1  0  0  0  0
  2 20  1  0  0  0  0
  3  4  2  0  0  0  0
  3  2  1  0  0  0  0
  4  5  1  0  0  0  0
  5 10  1  0  0  0  0
  5  6  1  0  0  0  0
  6  1  2  0  0  0  0
  6 11  1  0  0  0  0
  9  4  1  0  0  0  0
 11 12  2  0  0  0  0
 13 11  2  0  0  0  0
 14  3  1  0  0  0  0
 15 14  1  0  0  0  0
 16 18  1  0  0  0  0
 17 16  1  0  0  0  0
 19 16  1  0  0  0  0
M  RAD  3   5   2  14   2  15   3
M  END
