Coordinates from ORCA-job 4-NO2-Ph-N2-BF4-B3LYPG-6-31G_dp-MTMO-d009-169-n800
 OpenBabel09051908343D

 20 18  0  0  0  0  0  0  0  0999 V2000
   -1.8098   -0.2587    0.6037 C   0  0  0  0  0  0  0  0  0  0  0  0
   -0.5063    0.2245    0.5358 C   0  0  0  0  0  0  0  0  0  0  0  0
   -0.2948    1.5811    0.7598 C   0  0  0  0  0  0  0  0  0  0  0  0
   -1.3218    2.4746    1.0468 C   0  0  0  0  0  0  0  0  0  0  0  0
   -2.6235    1.9872    1.1137 C   0  0  0  0  0  0  0  0  0  0  0  0
   -2.8469    0.6285    0.8912 C   0  0  0  0  0  0  0  0  0  0  0  0
   -2.0354   -1.3044    0.4375 H   0  0  0  0  0  0  0  0  0  0  0  0
    0.3333   -0.4228    0.3145 H   0  0  0  0  0  0  0  0  0  0  0  0
   -1.0953    3.5215    1.2134 H   0  0  0  0  0  0  0  0  0  0  0  0
   -3.4620    2.6356    1.3337 H   0  0  0  0  0  0  0  0  0  0  0  0
   -4.2227    0.1149    0.9623 N   0  0  0  0  0  0  0  0  0  0  0  0
   -4.3923   -1.0870    0.7623 O   0  0  0  0  0  0  0  0  0  0  0  0
   -5.1181    0.9196    1.2161 O   0  0  0  0  0  0  0  0  0  0  0  0
   10.0204   -0.2106   -2.5242 N   0  0  0  0  0  0  0  0  0  0  0  0
    8.9777   -0.1307   -2.1663 N   0  0  0  0  0  0  0  0  0  0  0  0
    3.1531    1.1064   -0.1352 B   0  0  0  0  0  0  0  0  0  0  0  0
    2.6916   -0.1349   -0.0775 F   0  0  0  0  0  0  0  0  0  0  0  0
    3.7682    1.6239    0.9080 F   0  0  0  0  0  0  0  0  0  0  0  0
    3.0577    1.7855   -1.2602 F   0  0  0  0  0  0  0  0  0  0  0  0
    0.9700    2.0646    0.6977 F   0  0  0  0  0  0  0  0  0  0  0  0
  1  6  1  0  0  0  0
  2  1  2  0  0  0  0
  2  3  1  0  0  0  0
  3  4  2  0  0  0  0
  4  5  1  0  0  0  0
  4  9  1  0  0  0  0
  5 10  1  0  0  0  0
  6 11  1  0  0  0  0
  6  5  2  0  0  0  0
  7  1  1  0  0  0  0
  8  2  1  0  0  0  0
 11 13  2  0  0  0  0
 12 11  2  0  0  0  0
 14 15  3  0  0  0  0
 16 17  1  0  0  0  0
 16 18  1  0  0  0  0
 19 16  1  0  0  0  0
 20  3  1  0  0  0  0
M  END
