Coordinates from ORCA-job 4-NO2-Ph-N2-BF4-B3LYPG-6-31G_dp-MTMO-d009-169-n800
 OpenBabel09051908343D

 20 18  0  0  0  0  0  0  0  0999 V2000
   -1.6636   -0.2724    0.5496 C   0  0  0  0  0  0  0  0  0  0  0  0
   -0.3586    0.2009    0.4481 C   0  0  0  0  0  0  0  0  0  0  0  0
   -0.1295    1.5544    0.6734 C   0  0  0  0  0  0  0  0  0  0  0  0
   -1.1410    2.4542    0.9943 C   0  0  0  0  0  0  0  0  0  0  0  0
   -2.4443    1.9770    1.0947 C   0  0  0  0  0  0  0  0  0  0  0  0
   -2.6850    0.6213    0.8707 C   0  0  0  0  0  0  0  0  0  0  0  0
   -1.9020   -1.3153    0.3838 H   0  0  0  0  0  0  0  0  0  0  0  0
    0.4693   -0.4520    0.2001 H   0  0  0  0  0  0  0  0  0  0  0  0
   -0.9014    3.4982    1.1603 H   0  0  0  0  0  0  0  0  0  0  0  0
   -3.2709    2.6310    1.3414 H   0  0  0  0  0  0  0  0  0  0  0  0
   -4.0624    0.1185    0.9769 N   0  0  0  0  0  0  0  0  0  0  0  0
   -4.2475   -1.0808    0.7744 O   0  0  0  0  0  0  0  0  0  0  0  0
   -4.9436    0.9285    1.2616 O   0  0  0  0  0  0  0  0  0  0  0  0
    8.5420    0.0245   -1.9585 N   0  0  0  0  0  0  0  0  0  0  0  0
    7.4946    0.1385   -1.6245 N   0  0  0  0  0  0  0  0  0  0  0  0
    3.3250    1.0269   -0.2672 B   0  0  0  0  0  0  0  0  0  0  0  0
    2.8328   -0.2032   -0.2276 F   0  0  0  0  0  0  0  0  0  0  0  0
    3.9447    1.5172    0.7863 F   0  0  0  0  0  0  0  0  0  0  0  0
    3.2478    1.7240   -1.3824 F   0  0  0  0  0  0  0  0  0  0  0  0
    1.1370    2.0274    0.5779 F   0  0  0  0  0  0  0  0  0  0  0  0
  1  6  1  0  0  0  0
  2  1  2  0  0  0  0
  2  3  1  0  0  0  0
  3  4  2  0  0  0  0
  4  5  1  0  0  0  0
  4  9  1  0  0  0  0
  5 10  1  0  0  0  0
  6 11  1  0  0  0  0
  6  5  2  0  0  0  0
  7  1  1  0  0  0  0
  8  2  1  0  0  0  0
 11 13  2  0  0  0  0
 12 11  2  0  0  0  0
 14 15  3  0  0  0  0
 16 17  1  0  0  0  0
 16 18  1  0  0  0  0
 19 16  1  0  0  0  0
 20  3  1  0  0  0  0
M  END
