Coordinates from ORCA-job 4-NO2-Ph-N2-BF4-B3LYPG-6-31G_dp-MTMO-d009-169-n800
 OpenBabel09051908343D

 20 18  0  0  0  0  0  0  0  0999 V2000
   -1.9812   -0.2380    0.6493 C   0  0  0  0  0  0  0  0  0  0  0  0
   -0.6831    0.2611    0.5949 C   0  0  0  0  0  0  0  0  0  0  0  0
   -0.4895    1.6186    0.8286 C   0  0  0  0  0  0  0  0  0  0  0  0
   -1.5296    2.4979    1.1125 C   0  0  0  0  0  0  0  0  0  0  0  0
   -2.8259    1.9948    1.1660 C   0  0  0  0  0  0  0  0  0  0  0  0
   -3.0312    0.6349    0.9335 C   0  0  0  0  0  0  0  0  0  0  0  0
   -2.1928   -1.2854    0.4750 H   0  0  0  0  0  0  0  0  0  0  0  0
    0.1656   -0.3753    0.3767 H   0  0  0  0  0  0  0  0  0  0  0  0
   -1.3170    3.5464    1.2871 H   0  0  0  0  0  0  0  0  0  0  0  0
   -3.6738    2.6318    1.3830 H   0  0  0  0  0  0  0  0  0  0  0  0
   -4.4012    0.1044    0.9905 N   0  0  0  0  0  0  0  0  0  0  0  0
   -4.5547   -1.0984    0.7826 O   0  0  0  0  0  0  0  0  0  0  0  0
   -5.3081    0.8966    1.2428 O   0  0  0  0  0  0  0  0  0  0  0  0
   11.7059   -0.5017   -3.0609 N   0  0  0  0  0  0  0  0  0  0  0  0
   10.6619   -0.4157   -2.7086 N   0  0  0  0  0  0  0  0  0  0  0  0
    2.9669    1.1934   -0.0439 B   0  0  0  0  0  0  0  0  0  0  0  0
    2.5250   -0.0549    0.0173 F   0  0  0  0  0  0  0  0  0  0  0  0
    3.5716    1.7240    0.9988 F   0  0  0  0  0  0  0  0  0  0  0  0
    2.8645    1.8664   -1.1719 F   0  0  0  0  0  0  0  0  0  0  0  0
    0.7700    2.1179    0.7800 F   0  0  0  0  0  0  0  0  0  0  0  0
  1  6  1  0  0  0  0
  2  1  2  0  0  0  0
  2  3  1  0  0  0  0
  3  4  2  0  0  0  0
  4  5  1  0  0  0  0
  4  9  1  0  0  0  0
  5 10  1  0  0  0  0
  6 11  1  0  0  0  0
  6  5  2  0  0  0  0
  7  1  1  0  0  0  0
  8  2  1  0  0  0  0
 11 13  2  0  0  0  0
 12 11  2  0  0  0  0
 14 15  3  0  0  0  0
 16 17  1  0  0  0  0
 16 18  1  0  0  0  0
 19 16  1  0  0  0  0
 20  3  1  0  0  0  0
M  END
