Coordinates from ORCA-job 4-NO2-Ph-N2-BF4-B3LYPG-6-31G_dp-MTMO-d009-169-n800
 OpenBabel09051908343D

 20 18  0  0  0  0  0  0  0  0999 V2000
   -2.1217   -0.2200    0.6784 C   0  0  0  0  0  0  0  0  0  0  0  0
   -0.8296    0.2946    0.6271 C   0  0  0  0  0  0  0  0  0  0  0  0
   -0.6509    1.6510    0.8788 C   0  0  0  0  0  0  0  0  0  0  0  0
   -1.7000    2.5143    1.1780 C   0  0  0  0  0  0  0  0  0  0  0  0
   -2.9903    1.9956    1.2285 C   0  0  0  0  0  0  0  0  0  0  0  0
   -3.1807    0.6368    0.9778 C   0  0  0  0  0  0  0  0  0  0  0  0
   -2.3219   -1.2672    0.4903 H   0  0  0  0  0  0  0  0  0  0  0  0
    0.0257   -0.3290    0.3979 H   0  0  0  0  0  0  0  0  0  0  0  0
   -1.4989    3.5627    1.3664 H   0  0  0  0  0  0  0  0  0  0  0  0
   -3.8448    2.6197    1.4568 H   0  0  0  0  0  0  0  0  0  0  0  0
   -4.5444    0.0898    1.0315 N   0  0  0  0  0  0  0  0  0  0  0  0
   -4.6847   -1.1116    0.8067 O   0  0  0  0  0  0  0  0  0  0  0  0
   -5.4595    0.8678    1.2980 O   0  0  0  0  0  0  0  0  0  0  0  0
   13.0984   -0.7584   -3.4582 N   0  0  0  0  0  0  0  0  0  0  0  0
   12.0526   -0.6614   -3.1140 N   0  0  0  0  0  0  0  0  0  0  0  0
    2.8076    1.2782   -0.0048 B   0  0  0  0  0  0  0  0  0  0  0  0
    2.3853    0.0232    0.0571 F   0  0  0  0  0  0  0  0  0  0  0  0
    3.4103    1.8165    1.0350 F   0  0  0  0  0  0  0  0  0  0  0  0
    2.6883    1.9511   -1.1313 F   0  0  0  0  0  0  0  0  0  0  0  0
    0.6026    2.1653    0.8334 F   0  0  0  0  0  0  0  0  0  0  0  0
  1  6  1  0  0  0  0
  2  1  2  0  0  0  0
  2  3  1  0  0  0  0
  3  4  2  0  0  0  0
  4  5  1  0  0  0  0
  4  9  1  0  0  0  0
  5 10  1  0  0  0  0
  6 11  1  0  0  0  0
  6  5  2  0  0  0  0
  7  1  1  0  0  0  0
  8  2  1  0  0  0  0
 11 13  2  0  0  0  0
 12 11  2  0  0  0  0
 14 15  3  0  0  0  0
 16 17  1  0  0  0  0
 16 18  1  0  0  0  0
 19 16  1  0  0  0  0
 20  3  1  0  0  0  0
M  END
