Coordinates from ORCA-job 4-NO2-Ph-N2-BF4-B3LYPG-6-31G_dp-MTMO-d009-169-n800
 OpenBabel09051908343D

 20 18  0  0  0  0  0  0  0  0999 V2000
   -1.4963   -0.3427    0.7825 C   0  0  0  0  0  0  0  0  0  0  0  0
   -0.1479   -0.1631    0.4891 C   0  0  0  0  0  0  0  0  0  0  0  0
    0.2912    1.1172    0.1681 C   0  0  0  0  0  0  0  0  0  0  0  0
   -0.5515    2.2231    0.1284 C   0  0  0  0  0  0  0  0  0  0  0  0
   -1.8991    2.0392    0.4219 C   0  0  0  0  0  0  0  0  0  0  0  0
   -2.3503    0.7594    0.7441 C   0  0  0  0  0  0  0  0  0  0  0  0
   -1.8950   -1.3156    1.0400 H   0  0  0  0  0  0  0  0  0  0  0  0
    0.5561   -0.9861    0.5087 H   0  0  0  0  0  0  0  0  0  0  0  0
   -0.1514    3.1968   -0.1294 H   0  0  0  0  0  0  0  0  0  0  0  0
   -2.6009    2.8633    0.4060 H   0  0  0  0  0  0  0  0  0  0  0  0
   -3.7747    0.5662    1.0539 N   0  0  0  0  0  0  0  0  0  0  0  0
   -4.1469   -0.5724    1.3338 O   0  0  0  0  0  0  0  0  0  0  0  0
   -4.5053    1.5552    1.0138 O   0  0  0  0  0  0  0  0  0  0  0  0
    4.5840    2.1524   -2.4337 N   0  0  0  0  0  0  0  0  0  0  0  0
    5.6552    2.2348   -2.6926 N   0  0  0  0  0  0  0  0  0  0  0  0
    3.5040    0.1355    0.9718 B   0  0  0  0  0  0  0  0  0  0  0  0
    3.0004   -1.0494    0.6603 F   0  0  0  0  0  0  0  0  0  0  0  0
    3.1852    0.6982    2.1207 F   0  0  0  0  0  0  0  0  0  0  0  0
    4.3842    0.7039    0.1722 F   0  0  0  0  0  0  0  0  0  0  0  0
    1.6024    1.3031   -0.1265 F   0  0  0  0  0  0  0  0  0  0  0  0
  1  7  1  0  0  0  0
  2  8  1  0  0  0  0
  2  1  2  0  0  0  0
  3  2  1  0  0  0  0
  4  3  2  0  0  0  0
  4  5  1  0  0  0  0
  5  6  2  0  0  0  0
  6  1  1  0  0  0  0
  6 11  1  0  0  0  0
  9  4  1  0  0  0  0
 10  5  1  0  0  0  0
 11 12  2  0  0  0  0
 13 11  2  0  0  0  0
 15 14  3  0  0  0  0
 16 18  1  0  0  0  0
 17 16  1  0  0  0  0
 19 16  1  0  0  0  0
 20  3  1  0  0  0  0
M  END
