Coordinates from ORCA-job 4-NO2-Ph-N2-BF4-B3LYPG-6-31G_dp-MTMO-d009-169-n800
 OpenBabel09051908343D

 20 18  0  0  0  0  0  0  0  0999 V2000
   -1.9605   -0.2407    0.6444 C   0  0  0  0  0  0  0  0  0  0  0  0
   -0.6617    0.2564    0.5891 C   0  0  0  0  0  0  0  0  0  0  0  0
   -0.4660    1.6140    0.8210 C   0  0  0  0  0  0  0  0  0  0  0  0
   -1.5047    2.4953    1.1040 C   0  0  0  0  0  0  0  0  0  0  0  0
   -2.8018    1.9941    1.1584 C   0  0  0  0  0  0  0  0  0  0  0  0
   -3.0091    0.6342    0.9277 C   0  0  0  0  0  0  0  0  0  0  0  0
   -2.1737   -1.2879    0.4715 H   0  0  0  0  0  0  0  0  0  0  0  0
    0.1861   -0.3814    0.3716 H   0  0  0  0  0  0  0  0  0  0  0  0
   -1.2905    3.5437    1.2772 H   0  0  0  0  0  0  0  0  0  0  0  0
   -3.6487    2.6327    1.3747 H   0  0  0  0  0  0  0  0  0  0  0  0
   -4.3799    0.1059    0.9856 N   0  0  0  0  0  0  0  0  0  0  0  0
   -4.5352   -1.0969    0.7792 O   0  0  0  0  0  0  0  0  0  0  0  0
   -5.2856    0.8997    1.2370 O   0  0  0  0  0  0  0  0  0  0  0  0
   11.5027   -0.4658   -2.9998 N   0  0  0  0  0  0  0  0  0  0  0  0
   10.4588   -0.3815   -2.6465 N   0  0  0  0  0  0  0  0  0  0  0  0
    2.9897    1.1826   -0.0523 B   0  0  0  0  0  0  0  0  0  0  0  0
    2.5455   -0.0648    0.0086 F   0  0  0  0  0  0  0  0  0  0  0  0
    3.5953    1.7120    0.9905 F   0  0  0  0  0  0  0  0  0  0  0  0
    2.8885    1.8561   -1.1803 F   0  0  0  0  0  0  0  0  0  0  0  0
    0.7941    2.1113    0.7716 F   0  0  0  0  0  0  0  0  0  0  0  0
  1  6  1  0  0  0  0
  2  1  2  0  0  0  0
  2  3  1  0  0  0  0
  3  4  2  0  0  0  0
  4  5  1  0  0  0  0
  4  9  1  0  0  0  0
  5 10  1  0  0  0  0
  6 11  1  0  0  0  0
  6  5  2  0  0  0  0
  7  1  1  0  0  0  0
  8  2  1  0  0  0  0
 11 13  2  0  0  0  0
 12 11  2  0  0  0  0
 14 15  3  0  0  0  0
 16 17  1  0  0  0  0
 16 18  1  0  0  0  0
 19 16  1  0  0  0  0
 20  3  1  0  0  0  0
M  END
