Coordinates from ORCA-job 4-NO2-Ph-N2-BF4-B3LYPG-6-31G_dp-MTMO-d009-169-n800
 OpenBabel09051908343D

 20 18  0  0  0  0  0  0  0  0999 V2000
   -2.1110   -0.2212    0.6764 C   0  0  0  0  0  0  0  0  0  0  0  0
   -0.8185    0.2925    0.6252 C   0  0  0  0  0  0  0  0  0  0  0  0
   -0.6389    1.6490    0.8754 C   0  0  0  0  0  0  0  0  0  0  0  0
   -1.6877    2.5133    1.1728 C   0  0  0  0  0  0  0  0  0  0  0  0
   -2.9784    1.9957    1.2232 C   0  0  0  0  0  0  0  0  0  0  0  0
   -3.1696    0.6367    0.9741 C   0  0  0  0  0  0  0  0  0  0  0  0
   -2.3117   -1.2684    0.4896 H   0  0  0  0  0  0  0  0  0  0  0  0
    0.0363   -0.3323    0.3973 H   0  0  0  0  0  0  0  0  0  0  0  0
   -1.4859    3.5618    1.3599 H   0  0  0  0  0  0  0  0  0  0  0  0
   -3.8325    2.6208    1.4502 H   0  0  0  0  0  0  0  0  0  0  0  0
   -4.5337    0.0907    1.0277 N   0  0  0  0  0  0  0  0  0  0  0  0
   -4.6747   -1.1109    0.8045 O   0  0  0  0  0  0  0  0  0  0  0  0
   -5.4484    0.8697    1.2926 O   0  0  0  0  0  0  0  0  0  0  0  0
   12.9962   -0.7394   -3.4307 N   0  0  0  0  0  0  0  0  0  0  0  0
   11.9506   -0.6432   -3.0858 N   0  0  0  0  0  0  0  0  0  0  0  0
    2.8188    1.2713   -0.0062 B   0  0  0  0  0  0  0  0  0  0  0  0
    2.3946    0.0170    0.0558 F   0  0  0  0  0  0  0  0  0  0  0  0
    3.4217    1.8090    1.0339 F   0  0  0  0  0  0  0  0  0  0  0  0
    2.7014    1.9441   -1.1330 F   0  0  0  0  0  0  0  0  0  0  0  0
    0.6149    2.1627    0.8301 F   0  0  0  0  0  0  0  0  0  0  0  0
  1  6  1  0  0  0  0
  2  1  2  0  0  0  0
  2  3  1  0  0  0  0
  3  4  2  0  0  0  0
  4  5  1  0  0  0  0
  4  9  1  0  0  0  0
  5 10  1  0  0  0  0
  6 11  1  0  0  0  0
  6  5  2  0  0  0  0
  7  1  1  0  0  0  0
  8  2  1  0  0  0  0
 11 13  2  0  0  0  0
 12 11  2  0  0  0  0
 14 15  3  0  0  0  0
 16 17  1  0  0  0  0
 16 18  1  0  0  0  0
 19 16  1  0  0  0  0
 20  3  1  0  0  0  0
M  END
