Coordinates from ORCA-job 4-NO2-Ph-N2-BF4-B3LYPG-6-31G_dp-MTMO-d009-169-n800
 OpenBabel09051908343D

 20 18  0  0  0  0  0  0  0  0999 V2000
   -1.9908   -0.2146    0.5458 C   0  0  0  0  0  0  0  0  0  0  0  0
   -0.7851    0.4806    0.5683 C   0  0  0  0  0  0  0  0  0  0  0  0
   -0.7976    1.8063    0.9896 C   0  0  0  0  0  0  0  0  0  0  0  0
   -1.9552    2.4677    1.3875 C   0  0  0  0  0  0  0  0  0  0  0  0
   -3.1583    1.7689    1.3637 C   0  0  0  0  0  0  0  0  0  0  0  0
   -3.1571    0.4389    0.9433 C   0  0  0  0  0  0  0  0  0  0  0  0
   -2.0422   -1.2477    0.2270 H   0  0  0  0  0  0  0  0  0  0  0  0
    0.1470    0.0183    0.2684 H   0  0  0  0  0  0  0  0  0  0  0  0
   -1.9029    3.5020    1.7066 H   0  0  0  0  0  0  0  0  0  0  0  0
   -4.0897    2.2319    1.6628 H   0  0  0  0  0  0  0  0  0  0  0  0
   -4.4290   -0.2987    0.9182 N   0  0  0  0  0  0  0  0  0  0  0  0
   -4.4005   -1.4700    0.5434 O   0  0  0  0  0  0  0  0  0  0  0  0
   -5.4421    0.3024    1.2732 O   0  0  0  0  0  0  0  0  0  0  0  0
   13.6012   -1.7654   -3.6986 N   0  0  0  0  0  0  0  0  0  0  0  0
   12.5777   -1.5367   -3.3498 N   0  0  0  0  0  0  0  0  0  0  0  0
    2.6575    2.0428    0.0741 B   0  0  0  0  0  0  0  0  0  0  0  0
    2.4288    0.7388    0.0049 F   0  0  0  0  0  0  0  0  0  0  0  0
    3.2038    2.5539    1.1578 F   0  0  0  0  0  0  0  0  0  0  0  0
    2.4077    2.8044   -0.9717 F   0  0  0  0  0  0  0  0  0  0  0  0
    0.3700    2.4951    1.0187 F   0  0  0  0  0  0  0  0  0  0  0  0
  1  2  2  0  0  0  0
  1  6  1  0  0  0  0
  2  3  1  0  0  0  0
  3 20  1  0  0  0  0
  3  4  2  0  0  0  0
  4  9  1  0  0  0  0
  5  4  1  0  0  0  0
  5 10  1  0  0  0  0
  6  5  2  0  0  0  0
  7  1  1  0  0  0  0
  8  2  1  0  0  0  0
 11  6  1  0  0  0  0
 11 13  2  0  0  0  0
 12 11  2  0  0  0  0
 14 15  3  0  0  0  0
 16 18  1  0  0  0  0
 17 16  1  0  0  0  0
 19 16  1  0  0  0  0
M  END
