Coordinates from ORCA-job 4-NO2-Ph-N2-BF4-B3LYPG-6-31G_dp-MTMO-d009-169-n800
 OpenBabel09051908343D

 20 18  0  0  0  0  0  0  0  0999 V2000
   -1.8823   -0.2500    0.6246 C   0  0  0  0  0  0  0  0  0  0  0  0
   -0.5810    0.2403    0.5653 C   0  0  0  0  0  0  0  0  0  0  0  0
   -0.3781    1.5977    0.7923 C   0  0  0  0  0  0  0  0  0  0  0  0
   -1.4117    2.4852    1.0742 C   0  0  0  0  0  0  0  0  0  0  0  0
   -2.7112    1.9907    1.1325 C   0  0  0  0  0  0  0  0  0  0  0  0
   -2.9259    0.6311    0.9068 C   0  0  0  0  0  0  0  0  0  0  0  0
   -2.1011   -1.2967    0.4556 H   0  0  0  0  0  0  0  0  0  0  0  0
    0.2632   -0.4024    0.3484 H   0  0  0  0  0  0  0  0  0  0  0  0
   -1.1919    3.5331    1.2435 H   0  0  0  0  0  0  0  0  0  0  0  0
   -3.5545    2.6343    1.3481 H   0  0  0  0  0  0  0  0  0  0  0  0
   -4.2993    0.1100    0.9689 N   0  0  0  0  0  0  0  0  0  0  0  0
   -4.4611   -1.0927    0.7671 O   0  0  0  0  0  0  0  0  0  0  0  0
   -5.2004    0.9094    1.2190 O   0  0  0  0  0  0  0  0  0  0  0  0
   10.7412   -0.3357   -2.7656 N   0  0  0  0  0  0  0  0  0  0  0  0
    9.6983   -0.2555   -2.4083 N   0  0  0  0  0  0  0  0  0  0  0  0
    3.0739    1.1442   -0.0885 B   0  0  0  0  0  0  0  0  0  0  0  0
    2.6215   -0.1004   -0.0277 F   0  0  0  0  0  0  0  0  0  0  0  0
    3.6842    1.6690    0.9538 F   0  0  0  0  0  0  0  0  0  0  0  0
    2.9752    1.8191   -1.2158 F   0  0  0  0  0  0  0  0  0  0  0  0
    0.8845    2.0882    0.7390 F   0  0  0  0  0  0  0  0  0  0  0  0
  1  6  1  0  0  0  0
  2  1  2  0  0  0  0
  2  3  1  0  0  0  0
  3  4  2  0  0  0  0
  4  5  1  0  0  0  0
  4  9  1  0  0  0  0
  5 10  1  0  0  0  0
  6 11  1  0  0  0  0
  6  5  2  0  0  0  0
  7  1  1  0  0  0  0
  8  2  1  0  0  0  0
 11 13  2  0  0  0  0
 12 11  2  0  0  0  0
 14 15  3  0  0  0  0
 16 17  1  0  0  0  0
 16 18  1  0  0  0  0
 19 16  1  0  0  0  0
 20  3  1  0  0  0  0
M  END
