Coordinates from ORCA-job 4-NO2-Ph-N2-BF4-B3LYPG-6-31G_dp-MTMO-d009-169-n800
 OpenBabel09051908343D

 20 18  0  0  0  0  0  0  0  0999 V2000
   -1.4912   -0.3467    0.7746 C   0  0  0  0  0  0  0  0  0  0  0  0
   -0.1452   -0.1793    0.4634 C   0  0  0  0  0  0  0  0  0  0  0  0
    0.3006    1.0966    0.1339 C   0  0  0  0  0  0  0  0  0  0  0  0
   -0.5328    2.2097    0.1035 C   0  0  0  0  0  0  0  0  0  0  0  0
   -1.8781    2.0380    0.4149 C   0  0  0  0  0  0  0  0  0  0  0  0
   -2.3361    0.7626    0.7452 C   0  0  0  0  0  0  0  0  0  0  0  0
   -1.8948   -1.3157    1.0392 H   0  0  0  0  0  0  0  0  0  0  0  0
    0.5522   -1.0079    0.4763 H   0  0  0  0  0  0  0  0  0  0  0  0
   -0.1279    3.1796   -0.1612 H   0  0  0  0  0  0  0  0  0  0  0  0
   -2.5729    2.8681    0.4067 H   0  0  0  0  0  0  0  0  0  0  0  0
   -3.7580    0.5821    1.0733 N   0  0  0  0  0  0  0  0  0  0  0  0
   -4.1364   -0.5528    1.3598 O   0  0  0  0  0  0  0  0  0  0  0  0
   -4.4806    1.5773    1.0410 O   0  0  0  0  0  0  0  0  0  0  0  0
    4.5461    2.1354   -2.3861 N   0  0  0  0  0  0  0  0  0  0  0  0
    5.5908    2.3116   -2.7008 N   0  0  0  0  0  0  0  0  0  0  0  0
    3.4853    0.1358    0.9968 B   0  0  0  0  0  0  0  0  0  0  0  0
    3.0023   -1.0570    0.6835 F   0  0  0  0  0  0  0  0  0  0  0  0
    3.1172    0.7132    2.1237 F   0  0  0  0  0  0  0  0  0  0  0  0
    4.3934    0.6985    0.2248 F   0  0  0  0  0  0  0  0  0  0  0  0
    1.6093    1.2698   -0.1793 F   0  0  0  0  0  0  0  0  0  0  0  0
  1  7  1  0  0  0  0
  2  8  1  0  0  0  0
  2  1  2  0  0  0  0
  3  2  1  0  0  0  0
  4  3  2  0  0  0  0
  4  5  1  0  0  0  0
  5  6  2  0  0  0  0
  6  1  1  0  0  0  0
  6 11  1  0  0  0  0
  9  4  1  0  0  0  0
 10  5  1  0  0  0  0
 11 12  2  0  0  0  0
 13 11  2  0  0  0  0
 15 14  3  0  0  0  0
 16 18  1  0  0  0  0
 17 16  1  0  0  0  0
 19 16  1  0  0  0  0
 20  3  1  0  0  0  0
M  END
