Coordinates from ORCA-job 4-NO2-Ph-N2-BF4-B3LYPG-6-31G_dp-MTMO-d009-169-n800
 OpenBabel09051908343D

 20 18  0  0  0  0  0  0  0  0999 V2000
   -1.3362   -0.2705    0.6557 C   0  0  0  0  0  0  0  0  0  0  0  0
    0.0348   -0.0524    0.7573 C   0  0  0  0  0  0  0  0  0  0  0  0
    0.5013    1.2553    0.6710 C   0  0  0  0  0  0  0  0  0  0  0  0
   -0.3363    2.3507    0.4863 C   0  0  0  0  0  0  0  0  0  0  0  0
   -1.7059    2.1283    0.3852 C   0  0  0  0  0  0  0  0  0  0  0  0
   -2.1845    0.8210    0.4714 C   0  0  0  0  0  0  0  0  0  0  0  0
   -1.7566   -1.2663    0.7162 H   0  0  0  0  0  0  0  0  0  0  0  0
    0.7341   -0.8666    0.9003 H   0  0  0  0  0  0  0  0  0  0  0  0
    0.0857    3.3472    0.4247 H   0  0  0  0  0  0  0  0  0  0  0  0
   -2.4042    2.9426    0.2410 H   0  0  0  0  0  0  0  0  0  0  0  0
   -3.6320    0.5869    0.3639 N   0  0  0  0  0  0  0  0  0  0  0  0
   -4.0290   -0.5746    0.4448 O   0  0  0  0  0  0  0  0  0  0  0  0
   -4.3565    1.5678    0.1993 O   0  0  0  0  0  0  0  0  0  0  0  0
    2.8615    1.8125   -2.1809 N   0  0  0  0  0  0  0  0  0  0  0  0
    3.4504    1.9296   -3.1087 N   0  0  0  0  0  0  0  0  0  0  0  0
    3.8571   -0.0045    1.1068 B   0  0  0  0  0  0  0  0  0  0  0  0
    3.1158   -1.1021    1.0650 F   0  0  0  0  0  0  0  0  0  0  0  0
    4.0953    0.5803    2.2625 F   0  0  0  0  0  0  0  0  0  0  0  0
    4.4148    0.4493    0.0020 F   0  0  0  0  0  0  0  0  0  0  0  0
    1.8337    1.4843    0.7695 F   0  0  0  0  0  0  0  0  0  0  0  0
  1  7  1  0  0  0  0
  1  2  2  0  0  0  0
  2  8  1  0  0  0  0
  3  2  1  0  0  0  0
  3 20  1  0  0  0  0
  4  3  2  0  0  0  0
  5  6  2  0  0  0  0
  5  4  1  0  0  0  0
  6  1  1  0  0  0  0
  9  4  1  0  0  0  0
 10  5  1  0  0  0  0
 11 12  2  0  0  0  0
 11  6  1  0  0  0  0
 13 11  2  0  0  0  0
 15 14  3  0  0  0  0
 16 18  1  0  0  0  0
 17 16  1  0  0  0  0
 19 16  1  0  0  0  0
M  END
