Coordinates from ORCA-job 4-NO2-Ph-N2-BF4-B3LYPG-6-31G_dp-MTMO-d009-169-n800
 OpenBabel09051908343D

 20 18  0  0  0  0  0  0  0  0999 V2000
   -1.2143   -0.2367    0.5216 C   0  0  0  0  0  0  0  0  0  0  0  0
    0.1308   -0.0177    0.8032 C   0  0  0  0  0  0  0  0  0  0  0  0
    0.5824    1.2959    0.8821 C   0  0  0  0  0  0  0  0  0  0  0  0
   -0.2473    2.3966    0.6937 C   0  0  0  0  0  0  0  0  0  0  0  0
   -1.5914    2.1737    0.4123 C   0  0  0  0  0  0  0  0  0  0  0  0
   -2.0540    0.8603    0.3298 C   0  0  0  0  0  0  0  0  0  0  0  0
   -1.6218   -1.2371    0.4478 H   0  0  0  0  0  0  0  0  0  0  0  0
    0.8229   -0.8356    0.9601 H   0  0  0  0  0  0  0  0  0  0  0  0
    0.1607    3.3980    0.7692 H   0  0  0  0  0  0  0  0  0  0  0  0
   -2.2824    2.9920    0.2553 H   0  0  0  0  0  0  0  0  0  0  0  0
   -3.4738    0.6254    0.0302 N   0  0  0  0  0  0  0  0  0  0  0  0
   -3.8573   -0.5418   -0.0323 O   0  0  0  0  0  0  0  0  0  0  0  0
   -4.1903    1.6112   -0.1401 O   0  0  0  0  0  0  0  0  0  0  0  0
    2.1366    1.4896   -1.8887 N   0  0  0  0  0  0  0  0  0  0  0  0
    2.1874    1.4677   -2.9924 N   0  0  0  0  0  0  0  0  0  0  0  0
    3.9525    0.0536    1.1050 B   0  0  0  0  0  0  0  0  0  0  0  0
    3.2133   -1.0390    1.2286 F   0  0  0  0  0  0  0  0  0  0  0  0
    4.3789    0.6818    2.1808 F   0  0  0  0  0  0  0  0  0  0  0  0
    4.3223    0.4576   -0.0945 F   0  0  0  0  0  0  0  0  0  0  0  0
    1.8880    1.5234    1.1615 F   0  0  0  0  0  0  0  0  0  0  0  0
  1  2  2  0  0  0  0
  2  3  1  0  0  0  0
  2  8  1  0  0  0  0
  3 20  1  0  0  0  0
  4  9  1  0  0  0  0
  4  3  2  0  0  0  0
  5  4  1  0  0  0  0
  6  5  2  0  0  0  0
  6  1  1  0  0  0  0
  7  1  1  0  0  0  0
 10  5  1  0  0  0  0
 11  6  1  0  0  0  0
 12 11  2  0  0  0  0
 13 11  2  0  0  0  0
 15 14  3  0  0  0  0
 16 17  1  0  0  0  0
 16 18  1  0  0  0  0
 19 16  1  0  0  0  0
M  END
