Coordinates from ORCA-job 4-NO2-Ph-N2-BF4-B3LYPG-6-31G_dp-MTMO-d009-169-n800
 OpenBabel09051908343D

 20 18  0  0  0  0  0  0  0  0999 V2000
   -2.0727   -0.2000    0.5655 C   0  0  0  0  0  0  0  0  0  0  0  0
   -0.8643    0.4907    0.5794 C   0  0  0  0  0  0  0  0  0  0  0  0
   -0.8687    1.8159    1.0025 C   0  0  0  0  0  0  0  0  0  0  0  0
   -2.0205    2.4813    1.4101 C   0  0  0  0  0  0  0  0  0  0  0  0
   -3.2264    1.7868    1.3947 C   0  0  0  0  0  0  0  0  0  0  0  0
   -3.2334    0.4573    0.9729 C   0  0  0  0  0  0  0  0  0  0  0  0
   -2.1305   -1.2325    0.2459 H   0  0  0  0  0  0  0  0  0  0  0  0
    0.0638    0.0256    0.2715 H   0  0  0  0  0  0  0  0  0  0  0  0
   -1.9619    3.5149    1.7300 H   0  0  0  0  0  0  0  0  0  0  0  0
   -4.1538    2.2529    1.7015 H   0  0  0  0  0  0  0  0  0  0  0  0
   -4.5082   -0.2755    0.9569 N   0  0  0  0  0  0  0  0  0  0  0  0
   -4.4869   -1.4466    0.5810 O   0  0  0  0  0  0  0  0  0  0  0  0
   -5.5163    0.3291    1.3202 O   0  0  0  0  0  0  0  0  0  0  0  0
   14.2640   -1.8561   -3.8800 N   0  0  0  0  0  0  0  0  0  0  0  0
   13.2397   -1.6566   -3.5157 N   0  0  0  0  0  0  0  0  0  0  0  0
    2.5875    2.0407    0.0762 B   0  0  0  0  0  0  0  0  0  0  0  0
    2.3442    0.7412   -0.0218 F   0  0  0  0  0  0  0  0  0  0  0  0
    3.1371    2.5221    1.1718 F   0  0  0  0  0  0  0  0  0  0  0  0
    2.3488    2.8277   -0.9532 F   0  0  0  0  0  0  0  0  0  0  0  0
    0.3019    2.5000    1.0237 F   0  0  0  0  0  0  0  0  0  0  0  0
  1  2  2  0  0  0  0
  1  6  1  0  0  0  0
  2  3  1  0  0  0  0
  3 20  1  0  0  0  0
  3  4  2  0  0  0  0
  4  9  1  0  0  0  0
  5  4  1  0  0  0  0
  5 10  1  0  0  0  0
  6  5  2  0  0  0  0
  7  1  1  0  0  0  0
  8  2  1  0  0  0  0
 11  6  1  0  0  0  0
 11 13  2  0  0  0  0
 12 11  2  0  0  0  0
 14 15  3  0  0  0  0
 16 18  1  0  0  0  0
 17 16  1  0  0  0  0
 19 16  1  0  0  0  0
M  END
