Coordinates from ORCA-job 4-NO2-Ph-N2-BF4-B3LYPG-6-31G_dp-MTMO-d009-169-n800
 OpenBabel09051908343D

 20 18  0  0  0  0  0  0  0  0999 V2000
   -2.1694   -0.2124    0.6829 C   0  0  0  0  0  0  0  0  0  0  0  0
   -0.8826    0.3159    0.6358 C   0  0  0  0  0  0  0  0  0  0  0  0
   -0.7172    1.6708    0.9037 C   0  0  0  0  0  0  0  0  0  0  0  0
   -1.7747    2.5195    1.2153 C   0  0  0  0  0  0  0  0  0  0  0  0
   -3.0596    1.9872    1.2618 C   0  0  0  0  0  0  0  0  0  0  0  0
   -3.2365    0.6297    0.9947 C   0  0  0  0  0  0  0  0  0  0  0  0
   -2.3592   -1.2592    0.4824 H   0  0  0  0  0  0  0  0  0  0  0  0
   -0.0218   -0.2966    0.3976 H   0  0  0  0  0  0  0  0  0  0  0  0
   -1.5838    3.5675    1.4161 H   0  0  0  0  0  0  0  0  0  0  0  0
   -3.9199    2.5998    1.4992 H   0  0  0  0  0  0  0  0  0  0  0  0
   -4.5945    0.0681    1.0436 N   0  0  0  0  0  0  0  0  0  0  0  0
   -4.7230   -1.1316    0.8036 O   0  0  0  0  0  0  0  0  0  0  0  0
   -5.5170    0.8333    1.3216 O   0  0  0  0  0  0  0  0  0  0  0  0
   13.6503   -0.8968   -3.6127 N   0  0  0  0  0  0  0  0  0  0  0  0
   12.6045   -0.7918   -3.2709 N   0  0  0  0  0  0  0  0  0  0  0  0
    2.7389    1.3400    0.0053 B   0  0  0  0  0  0  0  0  0  0  0  0
    2.3347    0.0793    0.0727 F   0  0  0  0  0  0  0  0  0  0  0  0
    3.3436    1.8878    1.0390 F   0  0  0  0  0  0  0  0  0  0  0  0
    2.5999    2.0097   -1.1208 F   0  0  0  0  0  0  0  0  0  0  0  0
    0.5307    2.1989    0.8623 F   0  0  0  0  0  0  0  0  0  0  0  0
  1  6  1  0  0  0  0
  2  1  2  0  0  0  0
  2  3  1  0  0  0  0
  3  4  2  0  0  0  0
  4  5  1  0  0  0  0
  4  9  1  0  0  0  0
  5 10  1  0  0  0  0
  6 11  1  0  0  0  0
  6  5  2  0  0  0  0
  7  1  1  0  0  0  0
  8  2  1  0  0  0  0
 11 13  2  0  0  0  0
 12 11  2  0  0  0  0
 14 15  3  0  0  0  0
 16 17  1  0  0  0  0
 16 18  1  0  0  0  0
 19 16  1  0  0  0  0
 20  3  1  0  0  0  0
M  END
