Coordinates from ORCA-job 4-NO2-Ph-N2-BF4-B3LYPG-6-31G_dp-MTMO-d009-169-n800
 OpenBabel09051908343D

 20 18  0  0  0  0  0  0  0  0999 V2000
   -2.0428   -0.2055    0.5591 C   0  0  0  0  0  0  0  0  0  0  0  0
   -0.8351    0.4863    0.5770 C   0  0  0  0  0  0  0  0  0  0  0  0
   -0.8422    1.8120    0.9987 C   0  0  0  0  0  0  0  0  0  0  0  0
   -1.9962    2.4767    1.4013 C   0  0  0  0  0  0  0  0  0  0  0  0
   -3.2013    1.7812    1.3820 C   0  0  0  0  0  0  0  0  0  0  0  0
   -3.2056    0.4513    0.9614 C   0  0  0  0  0  0  0  0  0  0  0  0
   -2.0984   -1.2383    0.2402 H   0  0  0  0  0  0  0  0  0  0  0  0
    0.0947    0.0217    0.2732 H   0  0  0  0  0  0  0  0  0  0  0  0
   -1.9397    3.5107    1.7205 H   0  0  0  0  0  0  0  0  0  0  0  0
   -4.1303    2.2467    1.6849 H   0  0  0  0  0  0  0  0  0  0  0  0
   -4.4797   -0.2826    0.9412 N   0  0  0  0  0  0  0  0  0  0  0  0
   -4.4560   -1.4540    0.5662 O   0  0  0  0  0  0  0  0  0  0  0  0
   -5.4897    0.3213    1.3002 O   0  0  0  0  0  0  0  0  0  0  0  0
   14.0200   -1.8193   -3.8156 N   0  0  0  0  0  0  0  0  0  0  0  0
   12.9959   -1.6110   -3.4557 N   0  0  0  0  0  0  0  0  0  0  0  0
    2.6136    2.0389    0.0767 B   0  0  0  0  0  0  0  0  0  0  0  0
    2.3771    0.7371   -0.0054 F   0  0  0  0  0  0  0  0  0  0  0  0
    3.1624    2.5362    1.1656 F   0  0  0  0  0  0  0  0  0  0  0  0
    2.3691    2.8122   -0.9617 F   0  0  0  0  0  0  0  0  0  0  0  0
    0.3276    2.4972    1.0235 F   0  0  0  0  0  0  0  0  0  0  0  0
  1  2  2  0  0  0  0
  1  6  1  0  0  0  0
  2  3  1  0  0  0  0
  3 20  1  0  0  0  0
  3  4  2  0  0  0  0
  4  9  1  0  0  0  0
  5  4  1  0  0  0  0
  5 10  1  0  0  0  0
  6  5  2  0  0  0  0
  7  1  1  0  0  0  0
  8  2  1  0  0  0  0
 11  6  1  0  0  0  0
 11 13  2  0  0  0  0
 12 11  2  0  0  0  0
 14 15  3  0  0  0  0
 16 18  1  0  0  0  0
 17 16  1  0  0  0  0
 19 16  1  0  0  0  0
M  END
