Coordinates from ORCA-job 4-NO2-Ph-N2-BF4-B3LYPG-6-31G_dp-MTMO-d009-169-n800
 OpenBabel09051908343D

 20 18  0  0  0  0  0  0  0  0999 V2000
   -1.6542   -0.2738    0.5389 C   0  0  0  0  0  0  0  0  0  0  0  0
   -0.3469    0.1875    0.4148 C   0  0  0  0  0  0  0  0  0  0  0  0
   -0.1013    1.5388    0.6364 C   0  0  0  0  0  0  0  0  0  0  0  0
   -1.0987    2.4477    0.9753 C   0  0  0  0  0  0  0  0  0  0  0  0
   -2.4044    1.9826    1.0982 C   0  0  0  0  0  0  0  0  0  0  0  0
   -2.6616    0.6293    0.8780 C   0  0  0  0  0  0  0  0  0  0  0  0
   -1.9052   -1.3144    0.3771 H   0  0  0  0  0  0  0  0  0  0  0  0
    0.4709   -0.4726    0.1527 H   0  0  0  0  0  0  0  0  0  0  0  0
   -0.8467    3.4894    1.1373 H   0  0  0  0  0  0  0  0  0  0  0  0
   -3.2206    2.6441    1.3595 H   0  0  0  0  0  0  0  0  0  0  0  0
   -4.0415    0.1392    1.0076 N   0  0  0  0  0  0  0  0  0  0  0  0
   -4.2413   -1.0581    0.8072 O   0  0  0  0  0  0  0  0  0  0  0  0
   -4.9101    0.9570    1.3086 O   0  0  0  0  0  0  0  0  0  0  0  0
    8.2967    0.1606   -1.7919 N   0  0  0  0  0  0  0  0  0  0  0  0
    7.2427    0.2796   -1.4808 N   0  0  0  0  0  0  0  0  0  0  0  0
    3.3633    0.9561   -0.3209 B   0  0  0  0  0  0  0  0  0  0  0  0
    2.8457   -0.2637   -0.2868 F   0  0  0  0  0  0  0  0  0  0  0  0
    3.9865    1.4313    0.7373 F   0  0  0  0  0  0  0  0  0  0  0  0
    3.3022    1.6590   -1.4332 F   0  0  0  0  0  0  0  0  0  0  0  0
    1.1676    1.9994    0.5179 F   0  0  0  0  0  0  0  0  0  0  0  0
  1  6  1  0  0  0  0
  2  1  2  0  0  0  0
  2  3  1  0  0  0  0
  3  4  2  0  0  0  0
  4  5  1  0  0  0  0
  4  9  1  0  0  0  0
  5 10  1  0  0  0  0
  6 11  1  0  0  0  0
  6  5  2  0  0  0  0
  7  1  1  0  0  0  0
  8  2  1  0  0  0  0
 11 13  2  0  0  0  0
 12 11  2  0  0  0  0
 14 15  3  0  0  0  0
 16 17  1  0  0  0  0
 16 18  1  0  0  0  0
 19 16  1  0  0  0  0
 20  3  1  0  0  0  0
M  END
