Coordinates from ORCA-job 4-NO2-Ph-N2-BF4-B3LYPG-6-31G_dp-MTMO-d009-169-n800
 OpenBabel09051908343D

 20 18  0  0  0  0  0  0  0  0999 V2000
   -1.4537   -0.3344    0.7376 C   0  0  0  0  0  0  0  0  0  0  0  0
   -0.0971   -0.1664    0.4767 C   0  0  0  0  0  0  0  0  0  0  0  0
    0.3627    1.1126    0.1804 C   0  0  0  0  0  0  0  0  0  0  0  0
   -0.4667    2.2282    0.1346 C   0  0  0  0  0  0  0  0  0  0  0  0
   -1.8226    2.0558    0.3959 C   0  0  0  0  0  0  0  0  0  0  0  0
   -2.2947    0.7775    0.6929 C   0  0  0  0  0  0  0  0  0  0  0  0
   -1.8685   -1.3057    0.9748 H   0  0  0  0  0  0  0  0  0  0  0  0
    0.5976   -0.9969    0.5032 H   0  0  0  0  0  0  0  0  0  0  0  0
   -0.0506    3.2004   -0.1029 H   0  0  0  0  0  0  0  0  0  0  0  0
   -2.5149    2.8878    0.3740 H   0  0  0  0  0  0  0  0  0  0  0  0
   -3.7276    0.5966    0.9685 N   0  0  0  0  0  0  0  0  0  0  0  0
   -4.1188   -0.5410    1.2259 O   0  0  0  0  0  0  0  0  0  0  0  0
   -4.4463    1.5942    0.9248 O   0  0  0  0  0  0  0  0  0  0  0  0
    4.1200    2.0765   -2.3009 N   0  0  0  0  0  0  0  0  0  0  0  0
    5.0860    2.2943   -2.7916 N   0  0  0  0  0  0  0  0  0  0  0  0
    3.5501    0.1015    1.0707 B   0  0  0  0  0  0  0  0  0  0  0  0
    3.0364   -1.0779    0.7554 F   0  0  0  0  0  0  0  0  0  0  0  0
    3.2091    0.6797    2.2054 F   0  0  0  0  0  0  0  0  0  0  0  0
    4.4608    0.6490    0.2906 F   0  0  0  0  0  0  0  0  0  0  0  0
    1.6822    1.2871   -0.0828 F   0  0  0  0  0  0  0  0  0  0  0  0
  1  7  1  0  0  0  0
  2  8  1  0  0  0  0
  2  1  2  0  0  0  0
  3  2  1  0  0  0  0
  4  3  2  0  0  0  0
  4  5  1  0  0  0  0
  5  6  2  0  0  0  0
  6  1  1  0  0  0  0
  6 11  1  0  0  0  0
  9  4  1  0  0  0  0
 10  5  1  0  0  0  0
 11 12  2  0  0  0  0
 13 11  2  0  0  0  0
 15 14  3  0  0  0  0
 16 18  1  0  0  0  0
 17 16  1  0  0  0  0
 19 16  1  0  0  0  0
 20  3  1  0  0  0  0
M  END
