Coordinates from ORCA-job 4-NO2-Ph-N2-BF4-B3LYPG-6-31G_dp-MTMO-d009-169-n800
 OpenBabel09051908343D

 20 19  0  0  1  0  0  0  0  0999 V2000
   -0.7928   -0.0179    0.4749 C   0  0  0  0  0  0  0  0  0  0  0  0
    0.6142    0.3526    0.1675 C   0  0  1  0  0  0  0  0  0  0  0  0
    0.7525    1.6621   -0.6208 C   0  0  0  0  0  0  0  0  0  0  0  0
   -0.3715    2.6196   -0.5422 C   0  0  0  0  0  0  0  0  0  0  0  0
   -1.5734    2.2616   -0.0483 C   0  0  0  0  0  0  0  0  0  0  0  0
   -1.7679    0.9053    0.4079 C   0  0  0  0  0  0  0  0  0  0  0  0
   -1.0051   -1.0246    0.8123 H   0  0  0  0  0  0  0  0  0  0  0  0
    1.1609   -0.4491   -0.3333 H   0  0  0  0  0  0  0  0  0  0  0  0
   -0.1859    3.6169   -0.9284 H   0  0  0  0  0  0  0  0  0  0  0  0
   -2.4052    2.9514   -0.0050 H   0  0  0  0  0  0  0  0  0  0  0  0
   -3.1414    0.5062    0.8023 N   0  0  0  0  0  0  0  0  0  0  0  0
   -3.3254   -0.6584    1.1426 O   0  0  0  0  0  0  0  0  0  0  0  0
   -4.0054    1.3792    0.7626 O   0  0  0  0  0  0  0  0  0  0  0  0
    1.6290    1.8620   -1.1440 N   0  0  0  0  0  0  0  0  0  0  0  0
    2.6038    2.0840   -1.7323 N   0  0  0  0  0  0  0  0  0  0  0  0
    3.4003   -0.3440    1.5043 B   0  0  0  0  0  0  0  0  0  0  0  0
    2.9894   -1.4776    0.9464 F   0  0  0  0  0  0  0  0  0  0  0  0
    3.5019   -0.2532    2.8151 F   0  0  0  0  0  0  0  0  0  0  0  0
    3.8694    0.6185    0.7257 F   0  0  0  0  0  0  0  0  0  0  0  0
    1.2957    0.5245    1.4259 F   0  0  0  0  0  0  0  0  0  0  0  0
  1  7  1  0  0  0  0
  2  8  1  6  0  0  0
  2  1  1  0  0  0  0
  2 20  1  0  0  0  0
  3  4  2  0  0  0  0
  3  2  1  0  0  0  0
  4  5  1  0  0  0  0
  5 10  1  0  0  0  0
  5  6  1  0  0  0  0
  6  1  2  0  0  0  0
  6 11  1  0  0  0  0
  9  4  1  0  0  0  0
 11 12  2  0  0  0  0
 13 11  2  0  0  0  0
 14  3  1  0  0  0  0
 15 14  1  0  0  0  0
 16 18  1  0  0  0  0
 17 16  1  0  0  0  0
 19 16  1  0  0  0  0
M  RAD  3   5   2  14   2  15   3
M  END
