Coordinates from ORCA-job 4-NO2-Ph-N2-BF4-B3LYPG-6-31G_dp-MTMO-d009-169-n800
 OpenBabel09051908343D

 20 18  0  0  0  0  0  0  0  0999 V2000
   -1.5089   -0.3467    0.7991 C   0  0  0  0  0  0  0  0  0  0  0  0
   -0.1645   -0.1693    0.4862 C   0  0  0  0  0  0  0  0  0  0  0  0
    0.2694    1.1082    0.1477 C   0  0  0  0  0  0  0  0  0  0  0  0
   -0.5739    2.2136    0.1094 C   0  0  0  0  0  0  0  0  0  0  0  0
   -1.9175    2.0318    0.4224 C   0  0  0  0  0  0  0  0  0  0  0  0
   -2.3637    0.7548    0.7620 C   0  0  0  0  0  0  0  0  0  0  0  0
   -1.9037   -1.3174    1.0707 H   0  0  0  0  0  0  0  0  0  0  0  0
    0.5403   -0.9917    0.5038 H   0  0  0  0  0  0  0  0  0  0  0  0
   -0.1777    3.1852   -0.1624 H   0  0  0  0  0  0  0  0  0  0  0  0
   -2.6198    2.8555    0.4084 H   0  0  0  0  0  0  0  0  0  0  0  0
   -3.7839    0.5638    1.0921 N   0  0  0  0  0  0  0  0  0  0  0  0
   -4.1518   -0.5724    1.3874 O   0  0  0  0  0  0  0  0  0  0  0  0
   -4.5155    1.5520    1.0525 O   0  0  0  0  0  0  0  0  0  0  0  0
    4.7312    2.2630   -2.3986 N   0  0  0  0  0  0  0  0  0  0  0  0
    5.8007    2.1669   -2.6603 N   0  0  0  0  0  0  0  0  0  0  0  0
    3.4871    0.1457    0.9354 B   0  0  0  0  0  0  0  0  0  0  0  0
    2.9925   -1.0442    0.6288 F   0  0  0  0  0  0  0  0  0  0  0  0
    3.1657    0.7099    2.0828 F   0  0  0  0  0  0  0  0  0  0  0  0
    4.3608    0.7189    0.1320 F   0  0  0  0  0  0  0  0  0  0  0  0
    1.5765    1.2914   -0.1663 F   0  0  0  0  0  0  0  0  0  0  0  0
  1  7  1  0  0  0  0
  2  8  1  0  0  0  0
  2  1  2  0  0  0  0
  3  2  1  0  0  0  0
  4  3  2  0  0  0  0
  4  5  1  0  0  0  0
  5  6  2  0  0  0  0
  6  1  1  0  0  0  0
  6 11  1  0  0  0  0
  9  4  1  0  0  0  0
 10  5  1  0  0  0  0
 11 12  2  0  0  0  0
 13 11  2  0  0  0  0
 15 14  3  0  0  0  0
 16 18  1  0  0  0  0
 17 16  1  0  0  0  0
 19 16  1  0  0  0  0
 20  3  1  0  0  0  0
M  END
