Coordinates from ORCA-job 4-NO2-Ph-N2-BF4-B3LYPG-6-31G_dp-MTMO-d009-169-n800
 OpenBabel09051908343D

 20 18  0  0  0  0  0  0  0  0999 V2000
   -2.0020   -0.2354    0.6541 C   0  0  0  0  0  0  0  0  0  0  0  0
   -0.7046    0.2656    0.6004 C   0  0  0  0  0  0  0  0  0  0  0  0
   -0.5129    1.6231    0.8359 C   0  0  0  0  0  0  0  0  0  0  0  0
   -1.5543    2.5004    1.1211 C   0  0  0  0  0  0  0  0  0  0  0  0
   -2.8499    1.9954    1.1739 C   0  0  0  0  0  0  0  0  0  0  0  0
   -3.0532    0.6355    0.9396 C   0  0  0  0  0  0  0  0  0  0  0  0
   -2.2120   -1.2828    0.4784 H   0  0  0  0  0  0  0  0  0  0  0  0
    0.1449   -0.3694    0.3813 H   0  0  0  0  0  0  0  0  0  0  0  0
   -1.3432    3.5490    1.2971 H   0  0  0  0  0  0  0  0  0  0  0  0
   -3.6987    2.6309    1.3919 H   0  0  0  0  0  0  0  0  0  0  0  0
   -4.4225    0.1029    0.9959 N   0  0  0  0  0  0  0  0  0  0  0  0
   -4.5742   -1.0998    0.7863 O   0  0  0  0  0  0  0  0  0  0  0  0
   -5.3305    0.8934    1.2493 O   0  0  0  0  0  0  0  0  0  0  0  0
   11.9097   -0.5375   -3.1211 N   0  0  0  0  0  0  0  0  0  0  0  0
   10.8653   -0.4500   -2.7700 N   0  0  0  0  0  0  0  0  0  0  0  0
    2.9438    1.2043   -0.0362 B   0  0  0  0  0  0  0  0  0  0  0  0
    2.5041   -0.0447    0.0250 F   0  0  0  0  0  0  0  0  0  0  0  0
    3.5477    1.7359    1.0065 F   0  0  0  0  0  0  0  0  0  0  0  0
    2.8400    1.8773   -1.1641 F   0  0  0  0  0  0  0  0  0  0  0  0
    0.7457    2.1244    0.7880 F   0  0  0  0  0  0  0  0  0  0  0  0
  1  6  1  0  0  0  0
  2  1  2  0  0  0  0
  2  3  1  0  0  0  0
  3  4  2  0  0  0  0
  4  5  1  0  0  0  0
  4  9  1  0  0  0  0
  5 10  1  0  0  0  0
  6 11  1  0  0  0  0
  6  5  2  0  0  0  0
  7  1  1  0  0  0  0
  8  2  1  0  0  0  0
 11 13  2  0  0  0  0
 12 11  2  0  0  0  0
 14 15  3  0  0  0  0
 16 17  1  0  0  0  0
 16 18  1  0  0  0  0
 19 16  1  0  0  0  0
 20  3  1  0  0  0  0
M  END
