Coordinates from ORCA-job 4-NO2-Ph-N2-BF4-B3LYPG-6-31G_dp-MTMO-d009-169-n800
 OpenBabel09051908343D

 20 18  0  0  0  0  0  0  0  0999 V2000
   -1.6612   -0.2729    0.5489 C   0  0  0  0  0  0  0  0  0  0  0  0
   -0.3561    0.1998    0.4469 C   0  0  0  0  0  0  0  0  0  0  0  0
   -0.1265    1.5534    0.6720 C   0  0  0  0  0  0  0  0  0  0  0  0
   -1.1373    2.4538    0.9932 C   0  0  0  0  0  0  0  0  0  0  0  0
   -2.4408    1.9769    1.0941 C   0  0  0  0  0  0  0  0  0  0  0  0
   -2.6821    0.6214    0.8704 C   0  0  0  0  0  0  0  0  0  0  0  0
   -1.9003   -1.3157    0.3833 H   0  0  0  0  0  0  0  0  0  0  0  0
    0.4718   -0.4529    0.1987 H   0  0  0  0  0  0  0  0  0  0  0  0
   -0.8973    3.4977    1.1590 H   0  0  0  0  0  0  0  0  0  0  0  0
   -3.2672    2.6312    1.3410 H   0  0  0  0  0  0  0  0  0  0  0  0
   -4.0597    0.1192    0.9771 N   0  0  0  0  0  0  0  0  0  0  0  0
   -4.2453   -1.0801    0.7749 O   0  0  0  0  0  0  0  0  0  0  0  0
   -4.9405    0.9295    1.2621 O   0  0  0  0  0  0  0  0  0  0  0  0
    8.5082    0.0313   -1.9459 N   0  0  0  0  0  0  0  0  0  0  0  0
    7.4607    0.1467   -1.6125 N   0  0  0  0  0  0  0  0  0  0  0  0
    3.3318    1.0241   -0.2710 B   0  0  0  0  0  0  0  0  0  0  0  0
    2.8387   -0.2056   -0.2319 F   0  0  0  0  0  0  0  0  0  0  0  0
    3.9512    1.5138    0.7829 F   0  0  0  0  0  0  0  0  0  0  0  0
    3.2547    1.7220   -1.3857 F   0  0  0  0  0  0  0  0  0  0  0  0
    1.1402    2.0254    0.5759 F   0  0  0  0  0  0  0  0  0  0  0  0
  1  6  1  0  0  0  0
  2  1  2  0  0  0  0
  2  3  1  0  0  0  0
  3  4  2  0  0  0  0
  4  5  1  0  0  0  0
  4  9  1  0  0  0  0
  5 10  1  0  0  0  0
  6 11  1  0  0  0  0
  6  5  2  0  0  0  0
  7  1  1  0  0  0  0
  8  2  1  0  0  0  0
 11 13  2  0  0  0  0
 12 11  2  0  0  0  0
 14 15  3  0  0  0  0
 16 17  1  0  0  0  0
 16 18  1  0  0  0  0
 19 16  1  0  0  0  0
 20  3  1  0  0  0  0
M  END
