Coordinates from ORCA-job 4-NO2-Ph-N2-BF4-B3LYPG-6-31G_dp-MTMO-d009-169-n800
 OpenBabel09051908343D

 20 18  0  0  0  0  0  0  0  0999 V2000
   -1.4163   -0.3050    0.7124 C   0  0  0  0  0  0  0  0  0  0  0  0
   -0.0433   -0.1102    0.5935 C   0  0  0  0  0  0  0  0  0  0  0  0
    0.4211    1.1827    0.3746 C   0  0  0  0  0  0  0  0  0  0  0  0
   -0.4199    2.2857    0.2689 C   0  0  0  0  0  0  0  0  0  0  0  0
   -1.7917    2.0864    0.3883 C   0  0  0  0  0  0  0  0  0  0  0  0
   -2.2683    0.7943    0.6084 C   0  0  0  0  0  0  0  0  0  0  0  0
   -1.8354   -1.2883    0.8843 H   0  0  0  0  0  0  0  0  0  0  0  0
    0.6593   -0.9308    0.6685 H   0  0  0  0  0  0  0  0  0  0  0  0
    0.0008    3.2696    0.0959 H   0  0  0  0  0  0  0  0  0  0  0  0
   -2.4931    2.9076    0.3147 H   0  0  0  0  0  0  0  0  0  0  0  0
   -3.7182    0.5850    0.7356 N   0  0  0  0  0  0  0  0  0  0  0  0
   -4.1132   -0.5641    0.9272 O   0  0  0  0  0  0  0  0  0  0  0  0
   -4.4461    1.5726    0.6429 O   0  0  0  0  0  0  0  0  0  0  0  0
    3.6145    1.9793   -2.3051 N   0  0  0  0  0  0  0  0  0  0  0  0
    4.4956    2.1586   -2.9476 N   0  0  0  0  0  0  0  0  0  0  0  0
    3.6961    0.0414    1.0978 B   0  0  0  0  0  0  0  0  0  0  0  0
    3.0690   -1.0963    0.8371 F   0  0  0  0  0  0  0  0  0  0  0  0
    3.5847    0.5901    2.2906 F   0  0  0  0  0  0  0  0  0  0  0  0
    4.4916    0.5726    0.1910 F   0  0  0  0  0  0  0  0  0  0  0  0
    1.7563    1.3875    0.2542 F   0  0  0  0  0  0  0  0  0  0  0  0
  1  7  1  0  0  0  0
  2  8  1  0  0  0  0
  2  1  2  0  0  0  0
  3  2  1  0  0  0  0
  4  3  2  0  0  0  0
  4  5  1  0  0  0  0
  5  6  2  0  0  0  0
  6  1  1  0  0  0  0
  6 11  1  0  0  0  0
  9  4  1  0  0  0  0
 10  5  1  0  0  0  0
 11 12  2  0  0  0  0
 13 11  2  0  0  0  0
 15 14  3  0  0  0  0
 16 18  1  0  0  0  0
 17 16  1  0  0  0  0
 19 16  1  0  0  0  0
 20  3  1  0  0  0  0
M  END
