Coordinates from ORCA-job 4-NO2-Ph-N2-BF4-B3LYPG-6-31G_dp-MTMO-d009-169-n800
 OpenBabel09051908343D

 20 18  0  0  0  0  0  0  0  0999 V2000
   -1.8117   -0.2585    0.6042 C   0  0  0  0  0  0  0  0  0  0  0  0
   -0.5082    0.2247    0.5364 C   0  0  0  0  0  0  0  0  0  0  0  0
   -0.2965    1.5813    0.7604 C   0  0  0  0  0  0  0  0  0  0  0  0
   -1.3237    2.4747    1.0473 C   0  0  0  0  0  0  0  0  0  0  0  0
   -2.6255    1.9873    1.1140 C   0  0  0  0  0  0  0  0  0  0  0  0
   -2.8488    0.6286    0.8914 C   0  0  0  0  0  0  0  0  0  0  0  0
   -2.0371   -1.3042    0.4378 H   0  0  0  0  0  0  0  0  0  0  0  0
    0.3313   -0.4228    0.3152 H   0  0  0  0  0  0  0  0  0  0  0  0
   -1.0973    3.5216    1.2139 H   0  0  0  0  0  0  0  0  0  0  0  0
   -3.4640    2.6358    1.3338 H   0  0  0  0  0  0  0  0  0  0  0  0
   -4.2246    0.1150    0.9623 N   0  0  0  0  0  0  0  0  0  0  0  0
   -4.3941   -1.0871    0.7630 O   0  0  0  0  0  0  0  0  0  0  0  0
   -5.1199    0.9195    1.2167 O   0  0  0  0  0  0  0  0  0  0  0  0
   10.0375   -0.2132   -2.5298 N   0  0  0  0  0  0  0  0  0  0  0  0
    8.9949   -0.1335   -2.1719 N   0  0  0  0  0  0  0  0  0  0  0  0
    3.1511    1.1074   -0.1340 B   0  0  0  0  0  0  0  0  0  0  0  0
    2.6897   -0.1340   -0.0764 F   0  0  0  0  0  0  0  0  0  0  0  0
    3.7660    1.6249    0.9093 F   0  0  0  0  0  0  0  0  0  0  0  0
    3.0557    1.7865   -1.2591 F   0  0  0  0  0  0  0  0  0  0  0  0
    0.9683    2.0650    0.6986 F   0  0  0  0  0  0  0  0  0  0  0  0
  1  6  1  0  0  0  0
  2  1  2  0  0  0  0
  2  3  1  0  0  0  0
  3  4  2  0  0  0  0
  4  5  1  0  0  0  0
  4  9  1  0  0  0  0
  5 10  1  0  0  0  0
  6 11  1  0  0  0  0
  6  5  2  0  0  0  0
  7  1  1  0  0  0  0
  8  2  1  0  0  0  0
 11 13  2  0  0  0  0
 12 11  2  0  0  0  0
 14 15  3  0  0  0  0
 16 17  1  0  0  0  0
 16 18  1  0  0  0  0
 19 16  1  0  0  0  0
 20  3  1  0  0  0  0
M  END
