Coordinates from ORCA-job 4-NO2-Ph-N2-BF4-B3LYPG-6-31G_dp-MTMO-d009-169-n800
 OpenBabel09051908343D

 20 18  0  0  0  0  0  0  0  0999 V2000
   -1.6864   -0.2707    0.5578 C   0  0  0  0  0  0  0  0  0  0  0  0
   -0.3814    0.2035    0.4615 C   0  0  0  0  0  0  0  0  0  0  0  0
   -0.1545    1.5575    0.6865 C   0  0  0  0  0  0  0  0  0  0  0  0
   -1.1680    2.4569    1.0020 C   0  0  0  0  0  0  0  0  0  0  0  0
   -2.4714    1.9787    1.0972 C   0  0  0  0  0  0  0  0  0  0  0  0
   -2.7099    0.6227    0.8736 C   0  0  0  0  0  0  0  0  0  0  0  0
   -1.9235   -1.3139    0.3921 H   0  0  0  0  0  0  0  0  0  0  0  0
    0.4482   -0.4487    0.2178 H   0  0  0  0  0  0  0  0  0  0  0  0
   -0.9300    3.5013    1.1680 H   0  0  0  0  0  0  0  0  0  0  0  0
   -3.2997    2.6321    1.3397 H   0  0  0  0  0  0  0  0  0  0  0  0
   -4.0874    0.1188    0.9743 N   0  0  0  0  0  0  0  0  0  0  0  0
   -4.2706   -1.0809    0.7726 O   0  0  0  0  0  0  0  0  0  0  0  0
   -4.9705    0.9284    1.2542 O   0  0  0  0  0  0  0  0  0  0  0  0
    8.7761   -0.0088   -2.0492 N   0  0  0  0  0  0  0  0  0  0  0  0
    7.7293    0.0937   -1.7096 N   0  0  0  0  0  0  0  0  0  0  0  0
    3.2946    1.0400   -0.2447 B   0  0  0  0  0  0  0  0  0  0  0  0
    2.8096   -0.1929   -0.2016 F   0  0  0  0  0  0  0  0  0  0  0  0
    3.9138    1.5358    0.8065 F   0  0  0  0  0  0  0  0  0  0  0  0
    3.2131    1.7336   -1.3619 F   0  0  0  0  0  0  0  0  0  0  0  0
    1.1120    2.0316    0.5962 F   0  0  0  0  0  0  0  0  0  0  0  0
  1  6  1  0  0  0  0
  2  1  2  0  0  0  0
  2  3  1  0  0  0  0
  3  4  2  0  0  0  0
  4  5  1  0  0  0  0
  4  9  1  0  0  0  0
  5 10  1  0  0  0  0
  6 11  1  0  0  0  0
  6  5  2  0  0  0  0
  7  1  1  0  0  0  0
  8  2  1  0  0  0  0
 11 13  2  0  0  0  0
 12 11  2  0  0  0  0
 14 15  3  0  0  0  0
 16 17  1  0  0  0  0
 16 18  1  0  0  0  0
 19 16  1  0  0  0  0
 20  3  1  0  0  0  0
M  END
