Coordinates from ORCA-job 4-NO2-Ph-N2-BF4-B3LYPG-6-31G_dp-MTMO-d009-169-n800
 OpenBabel09051908343D

 20 18  0  0  0  0  0  0  0  0999 V2000
   -1.4951   -0.3422    0.7814 C   0  0  0  0  0  0  0  0  0  0  0  0
   -0.1462   -0.1630    0.4897 C   0  0  0  0  0  0  0  0  0  0  0  0
    0.2934    1.1172    0.1694 C   0  0  0  0  0  0  0  0  0  0  0  0
   -0.5487    2.2235    0.1287 C   0  0  0  0  0  0  0  0  0  0  0  0
   -1.8968    2.0398    0.4205 C   0  0  0  0  0  0  0  0  0  0  0  0
   -2.3487    0.7601    0.7421 C   0  0  0  0  0  0  0  0  0  0  0  0
   -1.8944   -1.3151    1.0384 H   0  0  0  0  0  0  0  0  0  0  0  0
    0.5576   -0.9861    0.5101 H   0  0  0  0  0  0  0  0  0  0  0  0
   -0.1481    3.1972   -0.1285 H   0  0  0  0  0  0  0  0  0  0  0  0
   -2.5984    2.8641    0.4039 H   0  0  0  0  0  0  0  0  0  0  0  0
   -3.7735    0.5673    1.0501 N   0  0  0  0  0  0  0  0  0  0  0  0
   -4.1464   -0.5712    1.3295 O   0  0  0  0  0  0  0  0  0  0  0  0
   -4.5038    1.5565    1.0092 O   0  0  0  0  0  0  0  0  0  0  0  0
    4.5652    2.1502   -2.4283 N   0  0  0  0  0  0  0  0  0  0  0  0
    5.6348    2.2351   -2.6932 N   0  0  0  0  0  0  0  0  0  0  0  0
    3.5074    0.1340    0.9740 B   0  0  0  0  0  0  0  0  0  0  0  0
    3.0039   -1.0509    0.6627 F   0  0  0  0  0  0  0  0  0  0  0  0
    3.1899    0.6963    2.1234 F   0  0  0  0  0  0  0  0  0  0  0  0
    4.3860    0.7035    0.1733 F   0  0  0  0  0  0  0  0  0  0  0  0
    1.6051    1.3026   -0.1233 F   0  0  0  0  0  0  0  0  0  0  0  0
  1  7  1  0  0  0  0
  2  8  1  0  0  0  0
  2  1  2  0  0  0  0
  3  2  1  0  0  0  0
  4  3  2  0  0  0  0
  4  5  1  0  0  0  0
  5  6  2  0  0  0  0
  6  1  1  0  0  0  0
  6 11  1  0  0  0  0
  9  4  1  0  0  0  0
 10  5  1  0  0  0  0
 11 12  2  0  0  0  0
 13 11  2  0  0  0  0
 15 14  3  0  0  0  0
 16 18  1  0  0  0  0
 17 16  1  0  0  0  0
 19 16  1  0  0  0  0
 20  3  1  0  0  0  0
M  END
