Coordinates from ORCA-job 4-NO2-Ph-N2-BF4-B3LYPG-6-31G_dp-MTMO-d009-169-n800
 OpenBabel09051908343D

 20 18  0  0  0  0  0  0  0  0999 V2000
   -2.1274   -0.1894    0.5747 C   0  0  0  0  0  0  0  0  0  0  0  0
   -0.9180    0.4996    0.5788 C   0  0  0  0  0  0  0  0  0  0  0  0
   -0.9163    1.8236    1.0056 C   0  0  0  0  0  0  0  0  0  0  0  0
   -2.0634    2.4892    1.4261 C   0  0  0  0  0  0  0  0  0  0  0  0
   -3.2703    1.7966    1.4205 C   0  0  0  0  0  0  0  0  0  0  0  0
   -3.2832    0.4682    0.9951 C   0  0  0  0  0  0  0  0  0  0  0  0
   -2.1896   -1.2210    0.2528 H   0  0  0  0  0  0  0  0  0  0  0  0
    0.0063    0.0339    0.2603 H   0  0  0  0  0  0  0  0  0  0  0  0
   -2.0003    3.5219    1.7484 H   0  0  0  0  0  0  0  0  0  0  0  0
   -4.1941    2.2631    1.7375 H   0  0  0  0  0  0  0  0  0  0  0  0
   -4.5591   -0.2629    0.9894 N   0  0  0  0  0  0  0  0  0  0  0  0
   -4.5430   -1.4330    0.6103 O   0  0  0  0  0  0  0  0  0  0  0  0
   -5.5628    0.3421    1.3638 O   0  0  0  0  0  0  0  0  0  0  0  0
   14.7019   -1.9230   -3.9887 N   0  0  0  0  0  0  0  0  0  0  0  0
   13.6766   -1.7349   -3.6215 N   0  0  0  0  0  0  0  0  0  0  0  0
    2.5409    2.0424    0.0737 B   0  0  0  0  0  0  0  0  0  0  0  0
    2.2830    0.7486   -0.0564 F   0  0  0  0  0  0  0  0  0  0  0  0
    3.0903    2.4910    1.1832 F   0  0  0  0  0  0  0  0  0  0  0  0
    2.3168    2.8565   -0.9377 F   0  0  0  0  0  0  0  0  0  0  0  0
    0.2551    2.5064    1.0176 F   0  0  0  0  0  0  0  0  0  0  0  0
  1  2  2  0  0  0  0
  1  6  1  0  0  0  0
  2  3  1  0  0  0  0
  3 20  1  0  0  0  0
  3  4  2  0  0  0  0
  4  9  1  0  0  0  0
  5  4  1  0  0  0  0
  5 10  1  0  0  0  0
  6  5  2  0  0  0  0
  7  1  1  0  0  0  0
  8  2  1  0  0  0  0
 11  6  1  0  0  0  0
 11 13  2  0  0  0  0
 12 11  2  0  0  0  0
 14 15  3  0  0  0  0
 16 18  1  0  0  0  0
 17 16  1  0  0  0  0
 19 16  1  0  0  0  0
M  END
