Coordinates from ORCA-job 4-NO2-Ph-N2-BF4-B3LYPG-6-31G_dp-MTMO-d009-169-n800
 OpenBabel09051908343D

 20 18  0  0  0  0  0  0  0  0999 V2000
   -1.1597   -0.2288    0.4442 C   0  0  0  0  0  0  0  0  0  0  0  0
    0.1977    0.0028    0.6336 C   0  0  0  0  0  0  0  0  0  0  0  0
    0.6531    1.3179    0.5927 C   0  0  0  0  0  0  0  0  0  0  0  0
   -0.2031    2.4127    0.5063 C   0  0  0  0  0  0  0  0  0  0  0  0
   -1.5596    2.1778    0.3168 C   0  0  0  0  0  0  0  0  0  0  0  0
   -2.0161    0.8599    0.2750 C   0  0  0  0  0  0  0  0  0  0  0  0
   -1.5682   -1.2315    0.4378 H   0  0  0  0  0  0  0  0  0  0  0  0
    0.9025   -0.8069    0.7757 H   0  0  0  0  0  0  0  0  0  0  0  0
    0.2016    3.4174    0.5501 H   0  0  0  0  0  0  0  0  0  0  0  0
   -2.2682    2.9895    0.2136 H   0  0  0  0  0  0  0  0  0  0  0  0
   -3.4503    0.6119    0.0729 N   0  0  0  0  0  0  0  0  0  0  0  0
   -3.8290   -0.5584    0.0546 O   0  0  0  0  0  0  0  0  0  0  0  0
   -4.1829    1.5908   -0.0665 O   0  0  0  0  0  0  0  0  0  0  0  0
    1.2032    1.3084   -1.6217 N   0  0  0  0  0  0  0  0  0  0  0  0
    2.2549    1.5379   -1.8842 N   0  0  0  0  0  0  0  0  0  0  0  0
    4.0153    0.0532    1.1197 B   0  0  0  0  0  0  0  0  0  0  0  0
    3.2585   -1.0336    1.1760 F   0  0  0  0  0  0  0  0  0  0  0  0
    4.3366    0.6836    2.2302 F   0  0  0  0  0  0  0  0  0  0  0  0
    4.4927    0.4544   -0.0406 F   0  0  0  0  0  0  0  0  0  0  0  0
    1.9646    1.5600    0.8470 F   0  0  0  0  0  0  0  0  0  0  0  0
  1  2  2  0  0  0  0
  2  8  1  0  0  0  0
  3  2  1  0  0  0  0
  3 20  1  0  0  0  0
  4  9  1  0  0  0  0
  4  3  2  0  0  0  0
  5  4  1  0  0  0  0
  6  5  2  0  0  0  0
  6  1  1  0  0  0  0
  7  1  1  0  0  0  0
 10  5  1  0  0  0  0
 11  6  1  0  0  0  0
 12 11  2  0  0  0  0
 13 11  2  0  0  0  0
 15 14  3  0  0  0  0
 16 17  1  0  0  0  0
 16 18  1  0  0  0  0
 19 16  1  0  0  0  0
M  END
