Coordinates from ORCA-job 4-NO2-Ph-N2-BF4-B3LYPG-6-31G_dp-MTMO-d009-169-n800
 OpenBabel09051908343D

 20 18  0  0  0  0  0  0  0  0999 V2000
   -1.2558   -0.2977    0.6167 C   0  0  0  0  0  0  0  0  0  0  0  0
    0.0241    0.1940    0.8552 C   0  0  0  0  0  0  0  0  0  0  0  0
    0.1721    1.5558    1.0978 C   0  0  0  0  0  0  0  0  0  0  0  0
   -0.8967    2.4461    1.1110 C   0  0  0  0  0  0  0  0  0  0  0  0
   -2.1752    1.9505    0.8736 C   0  0  0  0  0  0  0  0  0  0  0  0
   -2.3344    0.5865    0.6300 C   0  0  0  0  0  0  0  0  0  0  0  0
   -1.4316   -1.3478    0.4203 H   0  0  0  0  0  0  0  0  0  0  0  0
    0.8942   -0.4509    0.8526 H   0  0  0  0  0  0  0  0  0  0  0  0
   -0.7201    3.4975    1.3072 H   0  0  0  0  0  0  0  0  0  0  0  0
   -3.0440    2.5962    0.8733 H   0  0  0  0  0  0  0  0  0  0  0  0
   -3.6854    0.0637    0.3796 N   0  0  0  0  0  0  0  0  0  0  0  0
   -3.7984   -1.1427    0.1661 O   0  0  0  0  0  0  0  0  0  0  0  0
   -4.6185    0.8654    0.3994 O   0  0  0  0  0  0  0  0  0  0  0  0
    5.8464   -0.4597   -2.4865 N   0  0  0  0  0  0  0  0  0  0  0  0
    5.2877    0.1171   -1.7286 N   0  0  0  0  0  0  0  0  0  0  0  0
    3.3872    1.2322   -0.0144 B   0  0  0  0  0  0  0  0  0  0  0  0
    3.3088    0.0427    0.5640 F   0  0  0  0  0  0  0  0  0  0  0  0
    4.1925    2.1511    0.4769 F   0  0  0  0  0  0  0  0  0  0  0  0
    2.6775    1.4748   -1.1006 F   0  0  0  0  0  0  0  0  0  0  0  0
    1.4129    2.0440    1.3394 F   0  0  0  0  0  0  0  0  0  0  0  0
  1  6  2  0  0  0  0
  1  2  1  0  0  0  0
  2  3  2  0  0  0  0
  3  4  1  0  0  0  0
  3 20  1  0  0  0  0
  4  9  1  0  0  0  0
  5  4  2  0  0  0  0
  6  5  1  0  0  0  0
  7  1  1  0  0  0  0
  8  2  1  0  0  0  0
 10  5  1  0  0  0  0
 11 13  2  0  0  0  0
 11  6  1  0  0  0  0
 12 11  2  0  0  0  0
 14 15  3  0  0  0  0
 16 18  1  0  0  0  0
 16 17  1  0  0  0  0
 19 16  1  0  0  0  0
M  END
