Coordinates from ORCA-job 4-NO2-Ph-N2-BF4-B3LYPG-6-31G_dp-MTMO-d009-169-n800
 OpenBabel09051908343D

 20 18  0  0  0  0  0  0  0  0999 V2000
   -2.0133   -0.2112    0.5522 C   0  0  0  0  0  0  0  0  0  0  0  0
   -0.8063    0.4817    0.5727 C   0  0  0  0  0  0  0  0  0  0  0  0
   -0.8157    1.8078    0.9931 C   0  0  0  0  0  0  0  0  0  0  0  0
   -1.9715    2.4715    1.3920 C   0  0  0  0  0  0  0  0  0  0  0  0
   -3.1759    1.7750    1.3703 C   0  0  0  0  0  0  0  0  0  0  0  0
   -3.1778    0.4447    0.9508 C   0  0  0  0  0  0  0  0  0  0  0  0
   -2.0670   -1.2444    0.2340 H   0  0  0  0  0  0  0  0  0  0  0  0
    0.1246    0.0174    0.2718 H   0  0  0  0  0  0  0  0  0  0  0  0
   -1.9168    3.5059    1.7105 H   0  0  0  0  0  0  0  0  0  0  0  0
   -4.1062    2.2399    1.6703 H   0  0  0  0  0  0  0  0  0  0  0  0
   -4.4511   -0.2905    0.9278 N   0  0  0  0  0  0  0  0  0  0  0  0
   -4.4253   -1.4622    0.5539 O   0  0  0  0  0  0  0  0  0  0  0  0
   -5.4626    0.3127    1.2837 O   0  0  0  0  0  0  0  0  0  0  0  0
   13.7769   -1.7853   -3.7483 N   0  0  0  0  0  0  0  0  0  0  0  0
   12.7530   -1.5651   -3.3951 N   0  0  0  0  0  0  0  0  0  0  0  0
    2.6393    2.0394    0.0761 B   0  0  0  0  0  0  0  0  0  0  0  0
    2.4071    0.7364    0.0025 F   0  0  0  0  0  0  0  0  0  0  0  0
    3.1866    2.5456    1.1618 F   0  0  0  0  0  0  0  0  0  0  0  0
    2.3921    2.8053   -0.9672 F   0  0  0  0  0  0  0  0  0  0  0  0
    0.3533    2.4943    1.0204 F   0  0  0  0  0  0  0  0  0  0  0  0
  1  2  2  0  0  0  0
  1  6  1  0  0  0  0
  2  3  1  0  0  0  0
  3 20  1  0  0  0  0
  3  4  2  0  0  0  0
  4  9  1  0  0  0  0
  5  4  1  0  0  0  0
  5 10  1  0  0  0  0
  6  5  2  0  0  0  0
  7  1  1  0  0  0  0
  8  2  1  0  0  0  0
 11  6  1  0  0  0  0
 11 13  2  0  0  0  0
 12 11  2  0  0  0  0
 14 15  3  0  0  0  0
 16 18  1  0  0  0  0
 17 16  1  0  0  0  0
 19 16  1  0  0  0  0
M  END
