Coordinates from ORCA-job 4-NO2-Ph-N2-BF4-B3LYPG-6-31G_dp-MTMO-d009-169-n800
 OpenBabel09051908343D

 20 18  0  0  0  0  0  0  0  0999 V2000
   -1.1569   -0.2286    0.4384 C   0  0  0  0  0  0  0  0  0  0  0  0
    0.2005    0.0026    0.6240 C   0  0  0  0  0  0  0  0  0  0  0  0
    0.6591    1.3175    0.5657 C   0  0  0  0  0  0  0  0  0  0  0  0
   -0.2002    2.4130    0.4979 C   0  0  0  0  0  0  0  0  0  0  0  0
   -1.5566    2.1784    0.3121 C   0  0  0  0  0  0  0  0  0  0  0  0
   -2.0131    0.8603    0.2681 C   0  0  0  0  0  0  0  0  0  0  0  0
   -1.5666   -1.2308    0.4387 H   0  0  0  0  0  0  0  0  0  0  0  0
    0.9053   -0.8068    0.7681 H   0  0  0  0  0  0  0  0  0  0  0  0
    0.2045    3.4176    0.5443 H   0  0  0  0  0  0  0  0  0  0  0  0
   -2.2663    2.9902    0.2162 H   0  0  0  0  0  0  0  0  0  0  0  0
   -3.4477    0.6127    0.0700 N   0  0  0  0  0  0  0  0  0  0  0  0
   -3.8272   -0.5576    0.0555 O   0  0  0  0  0  0  0  0  0  0  0  0
   -4.1809    1.5918   -0.0652 O   0  0  0  0  0  0  0  0  0  0  0  0
    1.1792    1.3069   -1.5736 N   0  0  0  0  0  0  0  0  0  0  0  0
    2.2276    1.5341   -1.8535 N   0  0  0  0  0  0  0  0  0  0  0  0
    4.0184    0.0531    1.1204 B   0  0  0  0  0  0  0  0  0  0  0  0
    3.2598   -1.0325    1.1777 F   0  0  0  0  0  0  0  0  0  0  0  0
    4.3383    0.6859    2.2301 F   0  0  0  0  0  0  0  0  0  0  0  0
    4.4982    0.4511   -0.0398 F   0  0  0  0  0  0  0  0  0  0  0  0
    1.9678    1.5596    0.8381 F   0  0  0  0  0  0  0  0  0  0  0  0
  1  7  1  0  0  0  0
  1  2  2  0  0  0  0
  2  8  1  0  0  0  0
  3  2  1  0  0  0  0
  3 20  1  0  0  0  0
  4  9  1  0  0  0  0
  4  3  2  0  0  0  0
  5  4  1  0  0  0  0
  6  5  2  0  0  0  0
  6  1  1  0  0  0  0
 10  5  1  0  0  0  0
 11  6  1  0  0  0  0
 12 11  2  0  0  0  0
 13 11  2  0  0  0  0
 15 14  3  0  0  0  0
 16 17  1  0  0  0  0
 16 18  1  0  0  0  0
 19 16  1  0  0  0  0
M  END
