Coordinates from ORCA-job 4-NO2-Ph-N2-BF4-B3LYPG-6-31G_dp-MTMO-d009-169-n800
 OpenBabel09051908343D

 20 18  0  0  0  0  0  0  0  0999 V2000
   -1.8398   -0.2550    0.6127 C   0  0  0  0  0  0  0  0  0  0  0  0
   -0.5371    0.2313    0.5491 C   0  0  0  0  0  0  0  0  0  0  0  0
   -0.3293    1.5882    0.7741 C   0  0  0  0  0  0  0  0  0  0  0  0
   -1.3595    2.4790    1.0581 C   0  0  0  0  0  0  0  0  0  0  0  0
   -2.6603    1.9888    1.1207 C   0  0  0  0  0  0  0  0  0  0  0  0
   -2.8798    0.6296    0.8971 C   0  0  0  0  0  0  0  0  0  0  0  0
   -2.0622   -1.3012    0.4454 H   0  0  0  0  0  0  0  0  0  0  0  0
    0.3043   -0.4145    0.3302 H   0  0  0  0  0  0  0  0  0  0  0  0
   -1.1359    3.5264    1.2257 H   0  0  0  0  0  0  0  0  0  0  0  0
   -3.5009    2.6353    1.3382 H   0  0  0  0  0  0  0  0  0  0  0  0
   -4.2546    0.1128    0.9637 N   0  0  0  0  0  0  0  0  0  0  0  0
   -4.4207   -1.0897    0.7636 O   0  0  0  0  0  0  0  0  0  0  0  0
   -5.1526    0.9151    1.2156 O   0  0  0  0  0  0  0  0  0  0  0  0
   10.3215   -0.2627   -2.6277 N   0  0  0  0  0  0  0  0  0  0  0  0
    9.2789   -0.1838   -2.2695 N   0  0  0  0  0  0  0  0  0  0  0  0
    3.1195    1.1223   -0.1140 B   0  0  0  0  0  0  0  0  0  0  0  0
    2.6618   -0.1204   -0.0548 F   0  0  0  0  0  0  0  0  0  0  0  0
    3.7327    1.6430    0.9287 F   0  0  0  0  0  0  0  0  0  0  0  0
    3.0227    1.7994   -1.2401 F   0  0  0  0  0  0  0  0  0  0  0  0
    0.9346    2.0750    0.7164 F   0  0  0  0  0  0  0  0  0  0  0  0
  1  6  1  0  0  0  0
  2  1  2  0  0  0  0
  2  3  1  0  0  0  0
  3  4  2  0  0  0  0
  4  5  1  0  0  0  0
  4  9  1  0  0  0  0
  5 10  1  0  0  0  0
  6 11  1  0  0  0  0
  6  5  2  0  0  0  0
  7  1  1  0  0  0  0
  8  2  1  0  0  0  0
 11 13  2  0  0  0  0
 12 11  2  0  0  0  0
 14 15  3  0  0  0  0
 16 17  1  0  0  0  0
 16 18  1  0  0  0  0
 19 16  1  0  0  0  0
 20  3  1  0  0  0  0
M  END
