Coordinates from ORCA-job 4-NO2-Ph-N2-BF4-B3LYPG-6-31G_dp-MTMO-d009-169-n800
 OpenBabel09051908343D

 20 18  0  0  0  0  0  0  0  0999 V2000
   -1.5521   -0.3598    0.8550 C   0  0  0  0  0  0  0  0  0  0  0  0
   -0.2343   -0.1577    0.4558 C   0  0  0  0  0  0  0  0  0  0  0  0
    0.1470    1.1226    0.0684 C   0  0  0  0  0  0  0  0  0  0  0  0
   -0.7229    2.2076    0.0635 C   0  0  0  0  0  0  0  0  0  0  0  0
   -2.0399    2.0012    0.4628 C   0  0  0  0  0  0  0  0  0  0  0  0
   -2.4336    0.7211    0.8518 C   0  0  0  0  0  0  0  0  0  0  0  0
   -1.9062   -1.3337    1.1679 H   0  0  0  0  0  0  0  0  0  0  0  0
    0.4899   -0.9633    0.4443 H   0  0  0  0  0  0  0  0  0  0  0  0
   -0.3677    3.1827   -0.2491 H   0  0  0  0  0  0  0  0  0  0  0  0
   -2.7613    2.8083    0.4784 H   0  0  0  0  0  0  0  0  0  0  0  0
   -3.8258    0.5039    1.2725 N   0  0  0  0  0  0  0  0  0  0  0  0
   -4.1474   -0.6347    1.6090 O   0  0  0  0  0  0  0  0  0  0  0  0
   -4.5818    1.4744    1.2613 O   0  0  0  0  0  0  0  0  0  0  0  0
    5.6053    2.4337   -2.4838 N   0  0  0  0  0  0  0  0  0  0  0  0
    6.4082    1.7680   -2.1184 N   0  0  0  0  0  0  0  0  0  0  0  0
    3.4197    0.2659    0.6974 B   0  0  0  0  0  0  0  0  0  0  0  0
    2.9548   -0.9477    0.4417 F   0  0  0  0  0  0  0  0  0  0  0  0
    3.1433    0.8406    1.8513 F   0  0  0  0  0  0  0  0  0  0  0  0
    4.2203    0.8566   -0.1672 F   0  0  0  0  0  0  0  0  0  0  0  0
    1.4278    1.3291   -0.3294 F   0  0  0  0  0  0  0  0  0  0  0  0
  1  7  1  0  0  0  0
  2  1  2  0  0  0  0
  3  2  1  0  0  0  0
  4  3  2  0  0  0  0
  4  5  1  0  0  0  0
  5 10  1  0  0  0  0
  5  6  2  0  0  0  0
  6  1  1  0  0  0  0
  6 11  1  0  0  0  0
  8  2  1  0  0  0  0
  9  4  1  0  0  0  0
 11 12  2  0  0  0  0
 13 11  2  0  0  0  0
 14 15  3  0  0  0  0
 16 18  1  0  0  0  0
 17 16  1  0  0  0  0
 19 16  1  0  0  0  0
 20  3  1  0  0  0  0
M  END
