Coordinates from ORCA-job 4-NO2-Ph-N2-BF4-B3LYPG-6-31G_dp-MTMO-d009-169-n800
 OpenBabel09051908343D

 20 18  0  0  0  0  0  0  0  0999 V2000
   -1.7187   -0.2678    0.5707 C   0  0  0  0  0  0  0  0  0  0  0  0
   -0.4137    0.2082    0.4833 C   0  0  0  0  0  0  0  0  0  0  0  0
   -0.1907    1.5629    0.7075 C   0  0  0  0  0  0  0  0  0  0  0  0
   -1.2079    2.4613    1.0136 C   0  0  0  0  0  0  0  0  0  0  0  0
   -2.5112    1.9812    1.1000 C   0  0  0  0  0  0  0  0  0  0  0  0
   -2.7459    0.6244    0.8772 C   0  0  0  0  0  0  0  0  0  0  0  0
   -1.9528   -1.3118    0.4052 H   0  0  0  0  0  0  0  0  0  0  0  0
    0.4186   -0.4433    0.2469 H   0  0  0  0  0  0  0  0  0  0  0  0
   -0.9728    3.5064    1.1794 H   0  0  0  0  0  0  0  0  0  0  0  0
   -3.3423    2.6338    1.3350 H   0  0  0  0  0  0  0  0  0  0  0  0
   -4.1233    0.1185    0.9686 N   0  0  0  0  0  0  0  0  0  0  0  0
   -4.3030   -1.0819    0.7682 O   0  0  0  0  0  0  0  0  0  0  0  0
   -5.0098    0.9273    1.2400 O   0  0  0  0  0  0  0  0  0  0  0  0
    9.1076   -0.0599   -2.1820 N   0  0  0  0  0  0  0  0  0  0  0  0
    8.0625    0.0324   -1.8345 N   0  0  0  0  0  0  0  0  0  0  0  0
    3.2539    1.0581   -0.2121 B   0  0  0  0  0  0  0  0  0  0  0  0
    2.7768   -0.1777   -0.1637 F   0  0  0  0  0  0  0  0  0  0  0  0
    3.8731    1.5609    0.8358 F   0  0  0  0  0  0  0  0  0  0  0  0
    3.1673    1.7466   -1.3320 F   0  0  0  0  0  0  0  0  0  0  0  0
    1.0758    2.0393    0.6260 F   0  0  0  0  0  0  0  0  0  0  0  0
  1  6  1  0  0  0  0
  2  1  2  0  0  0  0
  2  3  1  0  0  0  0
  3  4  2  0  0  0  0
  4  5  1  0  0  0  0
  4  9  1  0  0  0  0
  5 10  1  0  0  0  0
  6 11  1  0  0  0  0
  6  5  2  0  0  0  0
  7  1  1  0  0  0  0
  8  2  1  0  0  0  0
 11 13  2  0  0  0  0
 12 11  2  0  0  0  0
 14 15  3  0  0  0  0
 16 17  1  0  0  0  0
 16 18  1  0  0  0  0
 19 16  1  0  0  0  0
 20  3  1  0  0  0  0
M  END
