Coordinates from ORCA-job 4-NO2-Ph-N2-BF4-B3LYPG-6-31G_dp-MTMO-d009-169-n800
 OpenBabel09051908343D

 20 18  0  0  0  0  0  0  0  0999 V2000
   -1.2096   -0.2359    0.5165 C   0  0  0  0  0  0  0  0  0  0  0  0
    0.1352   -0.0171    0.8001 C   0  0  0  0  0  0  0  0  0  0  0  0
    0.5867    1.2963    0.8809 C   0  0  0  0  0  0  0  0  0  0  0  0
   -0.2428    2.3972    0.6926 C   0  0  0  0  0  0  0  0  0  0  0  0
   -1.5865    2.1745    0.4090 C   0  0  0  0  0  0  0  0  0  0  0  0
   -2.0490    0.8613    0.3246 C   0  0  0  0  0  0  0  0  0  0  0  0
   -1.6169   -1.2362    0.4412 H   0  0  0  0  0  0  0  0  0  0  0  0
    0.8271   -0.8352    0.9573 H   0  0  0  0  0  0  0  0  0  0  0  0
    0.1652    3.3984    0.7696 H   0  0  0  0  0  0  0  0  0  0  0  0
   -2.2773    2.9931    0.2521 H   0  0  0  0  0  0  0  0  0  0  0  0
   -3.4684    0.6267    0.0229 N   0  0  0  0  0  0  0  0  0  0  0  0
   -3.8518   -0.5405   -0.0412 O   0  0  0  0  0  0  0  0  0  0  0  0
   -4.1847    1.6126   -0.1474 O   0  0  0  0  0  0  0  0  0  0  0  0
    2.1060    1.4847   -1.8639 N   0  0  0  0  0  0  0  0  0  0  0  0
    2.1425    1.4606   -2.9681 N   0  0  0  0  0  0  0  0  0  0  0  0
    3.9547    0.0538    1.1060 B   0  0  0  0  0  0  0  0  0  0  0  0
    3.2164   -1.0388    1.2356 F   0  0  0  0  0  0  0  0  0  0  0  0
    4.3855    0.6849    2.1783 F   0  0  0  0  0  0  0  0  0  0  0  0
    4.3192    0.4549   -0.0962 F   0  0  0  0  0  0  0  0  0  0  0  0
    1.8916    1.5236    1.1632 F   0  0  0  0  0  0  0  0  0  0  0  0
  1  2  2  0  0  0  0
  2  3  1  0  0  0  0
  2  8  1  0  0  0  0
  3 20  1  0  0  0  0
  4  9  1  0  0  0  0
  4  3  2  0  0  0  0
  5  4  1  0  0  0  0
  6  5  2  0  0  0  0
  6  1  1  0  0  0  0
  7  1  1  0  0  0  0
 10  5  1  0  0  0  0
 11  6  1  0  0  0  0
 12 11  2  0  0  0  0
 13 11  2  0  0  0  0
 15 14  3  0  0  0  0
 16 17  1  0  0  0  0
 16 18  1  0  0  0  0
 19 16  1  0  0  0  0
M  END
