Coordinates from ORCA-job 4-NO2-Ph-N2-BF4-B3LYPG-6-31G_dp-MTMO-d009-169-n800
 OpenBabel09051908343D

 20 18  0  0  0  0  0  0  0  0999 V2000
   -1.5054   -0.3467    0.7923 C   0  0  0  0  0  0  0  0  0  0  0  0
   -0.1598   -0.1692    0.4846 C   0  0  0  0  0  0  0  0  0  0  0  0
    0.2763    1.1093    0.1525 C   0  0  0  0  0  0  0  0  0  0  0  0
   -0.5661    2.2155    0.1155 C   0  0  0  0  0  0  0  0  0  0  0  0
   -1.9109    2.0335    0.4233 C   0  0  0  0  0  0  0  0  0  0  0  0
   -2.3592    0.7556    0.7566 C   0  0  0  0  0  0  0  0  0  0  0  0
   -1.9019   -1.3181    1.0589 H   0  0  0  0  0  0  0  0  0  0  0  0
    0.5443   -0.9921    0.5017 H   0  0  0  0  0  0  0  0  0  0  0  0
   -0.1683    3.1877   -0.1512 H   0  0  0  0  0  0  0  0  0  0  0  0
   -2.6126    2.8578    0.4101 H   0  0  0  0  0  0  0  0  0  0  0  0
   -3.7806    0.5645    1.0811 N   0  0  0  0  0  0  0  0  0  0  0  0
   -4.1504   -0.5725    1.3707 O   0  0  0  0  0  0  0  0  0  0  0  0
   -4.5113    1.5535    1.0429 O   0  0  0  0  0  0  0  0  0  0  0  0
    4.6900    2.2528   -2.4003 N   0  0  0  0  0  0  0  0  0  0  0  0
    5.7553    2.1649   -2.6808 N   0  0  0  0  0  0  0  0  0  0  0  0
    3.4901    0.1457    0.9484 B   0  0  0  0  0  0  0  0  0  0  0  0
    2.9941   -1.0440    0.6430 F   0  0  0  0  0  0  0  0  0  0  0  0
    3.1701    0.7110    2.0957 F   0  0  0  0  0  0  0  0  0  0  0  0
    4.3650    0.7167    0.1447 F   0  0  0  0  0  0  0  0  0  0  0  0
    1.5846    1.2929   -0.1564 F   0  0  0  0  0  0  0  0  0  0  0  0
  1  7  1  0  0  0  0
  2  8  1  0  0  0  0
  2  1  2  0  0  0  0
  3  2  1  0  0  0  0
  4  3  2  0  0  0  0
  4  5  1  0  0  0  0
  5  6  2  0  0  0  0
  6  1  1  0  0  0  0
  6 11  1  0  0  0  0
  9  4  1  0  0  0  0
 10  5  1  0  0  0  0
 11 12  2  0  0  0  0
 13 11  2  0  0  0  0
 15 14  3  0  0  0  0
 16 18  1  0  0  0  0
 17 16  1  0  0  0  0
 19 16  1  0  0  0  0
 20  3  1  0  0  0  0
M  END
