Coordinates from ORCA-job 4-NO2-Ph-N2-BF4-B3LYPG-6-31G_dp-MTMO-d009-169-n800
 OpenBabel09051908343D

 20 18  0  0  0  0  0  0  0  0999 V2000
   -1.2728   -0.2545    0.5842 C   0  0  0  0  0  0  0  0  0  0  0  0
    0.0857   -0.0346    0.7921 C   0  0  0  0  0  0  0  0  0  0  0  0
    0.5461    1.2781    0.8021 C   0  0  0  0  0  0  0  0  0  0  0  0
   -0.2855    2.3771    0.6127 C   0  0  0  0  0  0  0  0  0  0  0  0
   -1.6429    2.1529    0.4052 C   0  0  0  0  0  0  0  0  0  0  0  0
   -2.1152    0.8406    0.3937 C   0  0  0  0  0  0  0  0  0  0  0  0
   -1.6883   -1.2541    0.5665 H   0  0  0  0  0  0  0  0  0  0  0  0
    0.7808   -0.8507    0.9448 H   0  0  0  0  0  0  0  0  0  0  0  0
    0.1311    3.3776    0.6298 H   0  0  0  0  0  0  0  0  0  0  0  0
   -2.3365    2.9696    0.2516 H   0  0  0  0  0  0  0  0  0  0  0  0
   -3.5494    0.6046    0.1723 N   0  0  0  0  0  0  0  0  0  0  0  0
   -3.9412   -0.5614    0.1701 O   0  0  0  0  0  0  0  0  0  0  0  0
   -4.2685    1.5885    0.0024 O   0  0  0  0  0  0  0  0  0  0  0  0
    2.4366    1.6524   -2.0512 N   0  0  0  0  0  0  0  0  0  0  0  0
    2.8052    1.6979   -3.0920 N   0  0  0  0  0  0  0  0  0  0  0  0
    3.9089    0.0221    1.1101 B   0  0  0  0  0  0  0  0  0  0  0  0
    3.1639   -1.0697    1.2039 F   0  0  0  0  0  0  0  0  0  0  0  0
    4.2820    0.6562    2.2021 F   0  0  0  0  0  0  0  0  0  0  0  0
    4.3370    0.4189   -0.0722 F   0  0  0  0  0  0  0  0  0  0  0  0
    1.8662    1.5074    1.0050 F   0  0  0  0  0  0  0  0  0  0  0  0
  1  2  2  0  0  0  0
  2  3  1  0  0  0  0
  2  8  1  0  0  0  0
  3 20  1  0  0  0  0
  4  9  1  0  0  0  0
  4  3  2  0  0  0  0
  5  4  1  0  0  0  0
  6  5  2  0  0  0  0
  6  1  1  0  0  0  0
  7  1  1  0  0  0  0
 10  5  1  0  0  0  0
 11  6  1  0  0  0  0
 12 11  2  0  0  0  0
 13 11  2  0  0  0  0
 15 14  3  0  0  0  0
 16 17  1  0  0  0  0
 16 18  1  0  0  0  0
 19 16  1  0  0  0  0
M  END
