Coordinates from ORCA-job 4-NO2-Ph-N2-BF4-B3LYPG-6-31G_dp-MTMO-d009-169-n800
 OpenBabel09051908343D

 20 18  0  0  0  0  0  0  0  0999 V2000
   -1.6371   -0.2722    0.5224 C   0  0  0  0  0  0  0  0  0  0  0  0
   -0.3316    0.1874    0.3759 C   0  0  0  0  0  0  0  0  0  0  0  0
   -0.0794    1.5379    0.5969 C   0  0  0  0  0  0  0  0  0  0  0  0
   -1.0687    2.4474    0.9573 C   0  0  0  0  0  0  0  0  0  0  0  0
   -2.3727    1.9838    1.1029 C   0  0  0  0  0  0  0  0  0  0  0  0
   -2.6364    0.6317    0.8830 C   0  0  0  0  0  0  0  0  0  0  0  0
   -1.8930   -1.3118    0.3621 H   0  0  0  0  0  0  0  0  0  0  0  0
    0.4810   -0.4725    0.0974 H   0  0  0  0  0  0  0  0  0  0  0  0
   -0.8121    3.4882    1.1180 H   0  0  0  0  0  0  0  0  0  0  0  0
   -3.1828    2.6457    1.3813 H   0  0  0  0  0  0  0  0  0  0  0  0
   -4.0145    0.1437    1.0365 N   0  0  0  0  0  0  0  0  0  0  0  0
   -4.2205   -1.0523    0.8344 O   0  0  0  0  0  0  0  0  0  0  0  0
   -4.8757    0.9616    1.3578 O   0  0  0  0  0  0  0  0  0  0  0  0
    7.9893    0.2620   -1.6392 N   0  0  0  0  0  0  0  0  0  0  0  0
    6.9292    0.3608   -1.3424 N   0  0  0  0  0  0  0  0  0  0  0  0
    3.4365    0.9052   -0.3627 B   0  0  0  0  0  0  0  0  0  0  0  0
    2.8785   -0.2967   -0.3372 F   0  0  0  0  0  0  0  0  0  0  0  0
    4.0531    1.3626    0.7070 F   0  0  0  0  0  0  0  0  0  0  0  0
    3.4123    1.6117   -1.4740 F   0  0  0  0  0  0  0  0  0  0  0  0
    1.1879    1.9946    0.4556 F   0  0  0  0  0  0  0  0  0  0  0  0
  1  6  1  0  0  0  0
  2  1  2  0  0  0  0
  2  3  1  0  0  0  0
  3  4  2  0  0  0  0
  4  5  1  0  0  0  0
  4  9  1  0  0  0  0
  5 10  1  0  0  0  0
  6 11  1  0  0  0  0
  6  5  2  0  0  0  0
  7  1  1  0  0  0  0
  8  2  1  0  0  0  0
 11 13  2  0  0  0  0
 12 11  2  0  0  0  0
 14 15  3  0  0  0  0
 16 17  1  0  0  0  0
 16 18  1  0  0  0  0
 19 16  1  0  0  0  0
 20  3  1  0  0  0  0
M  END
