Coordinates from ORCA-job 4-NO2-Ph-N2-BF4-B3LYPG-6-31G_dp-MTMO-d009-169-n800
 OpenBabel09051908343D

 20 18  0  0  0  0  0  0  0  0999 V2000
   -1.5389   -0.3595    0.7874 C   0  0  0  0  0  0  0  0  0  0  0  0
   -0.2329   -0.0655    0.4066 C   0  0  0  0  0  0  0  0  0  0  0  0
    0.0861    1.2572    0.1182 C   0  0  0  0  0  0  0  0  0  0  0  0
   -0.8347    2.2967    0.1932 C   0  0  0  0  0  0  0  0  0  0  0  0
   -2.1395    1.9984    0.5736 C   0  0  0  0  0  0  0  0  0  0  0  0
   -2.4707    0.6753    0.8645 C   0  0  0  0  0  0  0  0  0  0  0  0
   -1.8458   -1.3701    1.0253 H   0  0  0  0  0  0  0  0  0  0  0  0
    0.5284   -0.8326    0.3340 H   0  0  0  0  0  0  0  0  0  0  0  0
   -0.5269    3.3084   -0.0447 H   0  0  0  0  0  0  0  0  0  0  0  0
   -2.8988    2.7663    0.6496 H   0  0  0  0  0  0  0  0  0  0  0  0
   -3.8499    0.3609    1.2660 N   0  0  0  0  0  0  0  0  0  0  0  0
   -4.1154   -0.8134    1.5183 O   0  0  0  0  0  0  0  0  0  0  0  0
   -4.6516    1.2922    1.3246 O   0  0  0  0  0  0  0  0  0  0  0  0
    6.0249    1.8410   -2.7181 N   0  0  0  0  0  0  0  0  0  0  0  0
    6.6333    1.3242   -1.9538 N   0  0  0  0  0  0  0  0  0  0  0  0
    3.4149    0.4834    0.6301 B   0  0  0  0  0  0  0  0  0  0  0  0
    2.9826   -0.7220    0.2910 F   0  0  0  0  0  0  0  0  0  0  0  0
    3.1549    0.9546    1.8336 F   0  0  0  0  0  0  0  0  0  0  0  0
    4.1685    1.1683   -0.2066 F   0  0  0  0  0  0  0  0  0  0  0  0
    1.3547    1.5551   -0.2597 F   0  0  0  0  0  0  0  0  0  0  0  0
  1  6  1  0  0  0  0
  1  7  1  0  0  0  0
  2  1  2  0  0  0  0
  3  4  2  0  0  0  0
  3  2  1  0  0  0  0
  4  5  1  0  0  0  0
  5 10  1  0  0  0  0
  5  6  2  0  0  0  0
  6 11  1  0  0  0  0
  8  2  1  0  0  0  0
  9  4  1  0  0  0  0
 11 13  2  0  0  0  0
 11 12  2  0  0  0  0
 14 15  3  0  0  0  0
 16 18  1  0  0  0  0
 17 16  1  0  0  0  0
 19 16  1  0  0  0  0
 20  3  1  0  0  0  0
M  END
