Coordinates from ORCA-job 4-NO2-Ph-N2-BF4-B3LYPG-6-31G_dp-MTMO-d009-169-n800
 OpenBabel09051908343D

 20 18  0  0  0  0  0  0  0  0999 V2000
   -1.7200   -0.2676    0.5714 C   0  0  0  0  0  0  0  0  0  0  0  0
   -0.4150    0.2086    0.4845 C   0  0  0  0  0  0  0  0  0  0  0  0
   -0.1923    1.5634    0.7087 C   0  0  0  0  0  0  0  0  0  0  0  0
   -1.2100    2.4615    1.0142 C   0  0  0  0  0  0  0  0  0  0  0  0
   -2.5132    1.9813    1.1000 C   0  0  0  0  0  0  0  0  0  0  0  0
   -2.7476    0.6244    0.8772 C   0  0  0  0  0  0  0  0  0  0  0  0
   -1.9537   -1.3116    0.4058 H   0  0  0  0  0  0  0  0  0  0  0  0
    0.4173   -0.4430    0.2487 H   0  0  0  0  0  0  0  0  0  0  0  0
   -0.9751    3.5067    1.1801 H   0  0  0  0  0  0  0  0  0  0  0  0
   -3.3445    2.6338    1.3346 H   0  0  0  0  0  0  0  0  0  0  0  0
   -4.1249    0.1182    0.9680 N   0  0  0  0  0  0  0  0  0  0  0  0
   -4.3043   -1.0822    0.7675 O   0  0  0  0  0  0  0  0  0  0  0  0
   -5.0117    0.9269    1.2389 O   0  0  0  0  0  0  0  0  0  0  0  0
    9.1240   -0.0632   -2.1893 N   0  0  0  0  0  0  0  0  0  0  0  0
    8.0790    0.0287   -1.8412 N   0  0  0  0  0  0  0  0  0  0  0  0
    3.2515    1.0593   -0.2100 B   0  0  0  0  0  0  0  0  0  0  0  0
    2.7747   -0.1766   -0.1613 F   0  0  0  0  0  0  0  0  0  0  0  0
    3.8708    1.5625    0.8377 F   0  0  0  0  0  0  0  0  0  0  0  0
    3.1646    1.7475   -1.3301 F   0  0  0  0  0  0  0  0  0  0  0  0
    1.0740    2.0402    0.6279 F   0  0  0  0  0  0  0  0  0  0  0  0
  1  6  1  0  0  0  0
  2  1  2  0  0  0  0
  2  3  1  0  0  0  0
  3  4  2  0  0  0  0
  4  5  1  0  0  0  0
  4  9  1  0  0  0  0
  5 10  1  0  0  0  0
  6 11  1  0  0  0  0
  6  5  2  0  0  0  0
  7  1  1  0  0  0  0
  8  2  1  0  0  0  0
 11 13  2  0  0  0  0
 12 11  2  0  0  0  0
 14 15  3  0  0  0  0
 16 17  1  0  0  0  0
 16 18  1  0  0  0  0
 19 16  1  0  0  0  0
 20  3  1  0  0  0  0
M  END
