Coordinates from ORCA-job 4-NO2-Ph-N2-BF4-B3LYPG-6-31G_dp-MTMO-d009-169-n800
 OpenBabel09051908343D

 20 18  0  0  0  0  0  0  0  0999 V2000
   -1.2019   -0.3105    0.6435 C   0  0  0  0  0  0  0  0  0  0  0  0
    0.0642    0.1856    0.9394 C   0  0  0  0  0  0  0  0  0  0  0  0
    0.2002    1.5511    1.1676 C   0  0  0  0  0  0  0  0  0  0  0  0
   -0.8672    2.4413    1.1110 C   0  0  0  0  0  0  0  0  0  0  0  0
   -2.1320    1.9414    0.8159 C   0  0  0  0  0  0  0  0  0  0  0  0
   -2.2793    0.5736    0.5869 C   0  0  0  0  0  0  0  0  0  0  0  0
   -1.3679   -1.3636    0.4550 H   0  0  0  0  0  0  0  0  0  0  0  0
    0.9335   -0.4584    0.9906 H   0  0  0  0  0  0  0  0  0  0  0  0
   -0.7005    3.4959    1.2988 H   0  0  0  0  0  0  0  0  0  0  0  0
   -2.9994    2.5867    0.7598 H   0  0  0  0  0  0  0  0  0  0  0  0
   -3.6160    0.0464    0.2757 N   0  0  0  0  0  0  0  0  0  0  0  0
   -3.7186   -1.1635    0.0773 O   0  0  0  0  0  0  0  0  0  0  0  0
   -4.5481    0.8483    0.2334 O   0  0  0  0  0  0  0  0  0  0  0  0
    5.3659   -0.5685   -2.6560 N   0  0  0  0  0  0  0  0  0  0  0  0
    5.0861    0.0857   -1.8114 N   0  0  0  0  0  0  0  0  0  0  0  0
    3.3941    1.3032    0.0752 B   0  0  0  0  0  0  0  0  0  0  0  0
    3.3521    0.1101    0.6494 F   0  0  0  0  0  0  0  0  0  0  0  0
    4.2041    2.2308    0.5421 F   0  0  0  0  0  0  0  0  0  0  0  0
    2.6470    1.5403   -0.9873 F   0  0  0  0  0  0  0  0  0  0  0  0
    1.4271    2.0429    1.4662 F   0  0  0  0  0  0  0  0  0  0  0  0
  1  2  1  0  0  0  0
  2  8  1  0  0  0  0
  2  3  2  0  0  0  0
  3 20  1  0  0  0  0
  4  3  1  0  0  0  0
  4  9  1  0  0  0  0
  5  4  2  0  0  0  0
  6  1  2  0  0  0  0
  6  5  1  0  0  0  0
  7  1  1  0  0  0  0
 10  5  1  0  0  0  0
 11  6  1  0  0  0  0
 12 11  2  0  0  0  0
 13 11  2  0  0  0  0
 14 15  3  0  0  0  0
 16 18  1  0  0  0  0
 16 17  1  0  0  0  0
 19 16  1  0  0  0  0
M  END
