Coordinates from ORCA-job 4-NO2-Ph-N2-BF4-B3LYPG-6-31G_dp-MTMO-d009-169-n800
 OpenBabel09051908343D

 20 18  0  0  0  0  0  0  0  0999 V2000
   -1.7122   -0.2684    0.5681 C   0  0  0  0  0  0  0  0  0  0  0  0
   -0.4072    0.2072    0.4788 C   0  0  0  0  0  0  0  0  0  0  0  0
   -0.1834    1.5618    0.7032 C   0  0  0  0  0  0  0  0  0  0  0  0
   -1.1998    2.4605    1.0112 C   0  0  0  0  0  0  0  0  0  0  0  0
   -2.5032    1.9807    1.0995 C   0  0  0  0  0  0  0  0  0  0  0  0
   -2.7387    0.6241    0.8765 C   0  0  0  0  0  0  0  0  0  0  0  0
   -1.9469   -1.3122    0.4025 H   0  0  0  0  0  0  0  0  0  0  0  0
    0.4246   -0.4444    0.2410 H   0  0  0  0  0  0  0  0  0  0  0  0
   -0.9641    3.5054    1.1771 H   0  0  0  0  0  0  0  0  0  0  0  0
   -3.3337    2.6335    1.3360 H   0  0  0  0  0  0  0  0  0  0  0  0
   -4.1161    0.1186    0.9698 N   0  0  0  0  0  0  0  0  0  0  0  0
   -4.2965   -1.0817    0.7691 O   0  0  0  0  0  0  0  0  0  0  0  0
   -5.0019    0.9275    1.2430 O   0  0  0  0  0  0  0  0  0  0  0  0
    9.0415   -0.0495   -2.1553 N   0  0  0  0  0  0  0  0  0  0  0  0
    7.9960    0.0445   -1.8093 N   0  0  0  0  0  0  0  0  0  0  0  0
    3.2618    1.0544   -0.2186 B   0  0  0  0  0  0  0  0  0  0  0  0
    2.7832   -0.1809   -0.1714 F   0  0  0  0  0  0  0  0  0  0  0  0
    3.8809    1.5558    0.8300 F   0  0  0  0  0  0  0  0  0  0  0  0
    3.1762    1.7440   -1.3379 F   0  0  0  0  0  0  0  0  0  0  0  0
    1.0830    2.0378    0.6199 F   0  0  0  0  0  0  0  0  0  0  0  0
  1  6  1  0  0  0  0
  2  1  2  0  0  0  0
  2  3  1  0  0  0  0
  3  4  2  0  0  0  0
  4  5  1  0  0  0  0
  4  9  1  0  0  0  0
  5 10  1  0  0  0  0
  6 11  1  0  0  0  0
  6  5  2  0  0  0  0
  7  1  1  0  0  0  0
  8  2  1  0  0  0  0
 11 13  2  0  0  0  0
 12 11  2  0  0  0  0
 14 15  3  0  0  0  0
 16 17  1  0  0  0  0
 16 18  1  0  0  0  0
 19 16  1  0  0  0  0
 20  3  1  0  0  0  0
M  END
