Coordinates from ORCA-job 4-NO2-Ph-N2-BF4-B3LYPG-6-31G_dp-MTMO-d009-169-n800
 OpenBabel09051908343D

 20 18  0  0  0  0  0  0  0  0999 V2000
   -1.4985   -0.3433    0.7832 C   0  0  0  0  0  0  0  0  0  0  0  0
   -0.1506   -0.1635    0.4872 C   0  0  0  0  0  0  0  0  0  0  0  0
    0.2875    1.1169    0.1655 C   0  0  0  0  0  0  0  0  0  0  0  0
   -0.5552    2.2228    0.1277 C   0  0  0  0  0  0  0  0  0  0  0  0
   -1.9024    2.0386    0.4237 C   0  0  0  0  0  0  0  0  0  0  0  0
   -2.3527    0.7586    0.7466 C   0  0  0  0  0  0  0  0  0  0  0  0
   -1.8964   -1.3164    1.0414 H   0  0  0  0  0  0  0  0  0  0  0  0
    0.5536   -0.9863    0.5054 H   0  0  0  0  0  0  0  0  0  0  0  0
   -0.1559    3.1967   -0.1307 H   0  0  0  0  0  0  0  0  0  0  0  0
   -2.6043    2.8626    0.4093 H   0  0  0  0  0  0  0  0  0  0  0  0
   -3.7765    0.5651    1.0590 N   0  0  0  0  0  0  0  0  0  0  0  0
   -4.1478   -0.5735    1.3401 O   0  0  0  0  0  0  0  0  0  0  0  0
   -4.5075    1.5538    1.0198 O   0  0  0  0  0  0  0  0  0  0  0  0
    4.6050    2.1521   -2.4349 N   0  0  0  0  0  0  0  0  0  0  0  0
    5.6784    2.2311   -2.6858 N   0  0  0  0  0  0  0  0  0  0  0  0
    3.5028    0.1385    0.9674 B   0  0  0  0  0  0  0  0  0  0  0  0
    3.0004   -1.0472    0.6573 F   0  0  0  0  0  0  0  0  0  0  0  0
    3.1832    0.7025    2.1155 F   0  0  0  0  0  0  0  0  0  0  0  0
    4.3821    0.7072    0.1670 F   0  0  0  0  0  0  0  0  0  0  0  0
    1.5981    1.3028   -0.1317 F   0  0  0  0  0  0  0  0  0  0  0  0
  1  7  1  0  0  0  0
  2  8  1  0  0  0  0
  2  1  2  0  0  0  0
  3  2  1  0  0  0  0
  4  3  2  0  0  0  0
  4  5  1  0  0  0  0
  5  6  2  0  0  0  0
  6  1  1  0  0  0  0
  6 11  1  0  0  0  0
  9  4  1  0  0  0  0
 10  5  1  0  0  0  0
 11 12  2  0  0  0  0
 13 11  2  0  0  0  0
 15 14  3  0  0  0  0
 16 18  1  0  0  0  0
 17 16  1  0  0  0  0
 19 16  1  0  0  0  0
 20  3  1  0  0  0  0
M  END
