Coordinates from ORCA-job 4-NO2-Ph-N2-BF4-B3LYPG-6-31G_dp-MTMO-d009-169-n800
 OpenBabel09051908343D

 20 18  0  0  0  0  0  0  0  0999 V2000
   -2.0746   -0.2262    0.6698 C   0  0  0  0  0  0  0  0  0  0  0  0
   -0.7800    0.2823    0.6177 C   0  0  0  0  0  0  0  0  0  0  0  0
   -0.5955    1.6393    0.8614 C   0  0  0  0  0  0  0  0  0  0  0  0
   -1.6413    2.5092    1.1533 C   0  0  0  0  0  0  0  0  0  0  0  0
   -2.9340    1.9967    1.2046 C   0  0  0  0  0  0  0  0  0  0  0  0
   -3.1301    0.6373    0.9620 C   0  0  0  0  0  0  0  0  0  0  0  0
   -2.2791   -1.2736    0.4878 H   0  0  0  0  0  0  0  0  0  0  0  0
    0.0728   -0.3467    0.3938 H   0  0  0  0  0  0  0  0  0  0  0  0
   -1.4357    3.5578    1.3356 H   0  0  0  0  0  0  0  0  0  0  0  0
   -3.7860    2.6262    1.4275 H   0  0  0  0  0  0  0  0  0  0  0  0
   -4.4964    0.0968    1.0166 N   0  0  0  0  0  0  0  0  0  0  0  0
   -4.6418   -1.1053    0.7993 O   0  0  0  0  0  0  0  0  0  0  0  0
   -5.4084    0.8807    1.2763 O   0  0  0  0  0  0  0  0  0  0  0  0
   12.6232   -0.6654   -3.3264 N   0  0  0  0  0  0  0  0  0  0  0  0
   11.5779   -0.5725   -2.9793 N   0  0  0  0  0  0  0  0  0  0  0  0
    2.8628    1.2446   -0.0144 B   0  0  0  0  0  0  0  0  0  0  0  0
    2.4322   -0.0076    0.0471 F   0  0  0  0  0  0  0  0  0  0  0  0
    3.4653    1.7800    1.0272 F   0  0  0  0  0  0  0  0  0  0  0  0
    2.7519    1.9174   -1.1419 F   0  0  0  0  0  0  0  0  0  0  0  0
    0.6603    2.1477    0.8152 F   0  0  0  0  0  0  0  0  0  0  0  0
  1  6  1  0  0  0  0
  2  1  2  0  0  0  0
  2  3  1  0  0  0  0
  3  4  2  0  0  0  0
  4  5  1  0  0  0  0
  4  9  1  0  0  0  0
  5 10  1  0  0  0  0
  6 11  1  0  0  0  0
  6  5  2  0  0  0  0
  7  1  1  0  0  0  0
  8  2  1  0  0  0  0
 11 13  2  0  0  0  0
 12 11  2  0  0  0  0
 14 15  3  0  0  0  0
 16 17  1  0  0  0  0
 16 18  1  0  0  0  0
 19 16  1  0  0  0  0
 20  3  1  0  0  0  0
M  END
