Coordinates from ORCA-job 4-NO2-Ph-N2-BF4-B3LYPG-6-31G_dp-MTMO-d009-169-n800
 OpenBabel09051908343D

 20 18  0  0  0  0  0  0  0  0999 V2000
   -1.8039   -0.2589    0.6015 C   0  0  0  0  0  0  0  0  0  0  0  0
   -0.5004    0.2245    0.5331 C   0  0  0  0  0  0  0  0  0  0  0  0
   -0.2889    1.5809    0.7574 C   0  0  0  0  0  0  0  0  0  0  0  0
   -1.3159    2.4741    1.0451 C   0  0  0  0  0  0  0  0  0  0  0  0
   -2.6176    1.9867    1.1125 C   0  0  0  0  0  0  0  0  0  0  0  0
   -2.8409    0.6280    0.8897 C   0  0  0  0  0  0  0  0  0  0  0  0
   -2.0292   -1.3047    0.4351 H   0  0  0  0  0  0  0  0  0  0  0  0
    0.3388   -0.4231    0.3113 H   0  0  0  0  0  0  0  0  0  0  0  0
   -1.0894    3.5210    1.2119 H   0  0  0  0  0  0  0  0  0  0  0  0
   -3.4560    2.6351    1.3330 H   0  0  0  0  0  0  0  0  0  0  0  0
   -4.2166    0.1142    0.9615 N   0  0  0  0  0  0  0  0  0  0  0  0
   -4.3862   -1.0878    0.7621 O   0  0  0  0  0  0  0  0  0  0  0  0
   -5.1118    0.9186    1.2168 O   0  0  0  0  0  0  0  0  0  0  0  0
    9.9696   -0.2045   -2.5073 N   0  0  0  0  0  0  0  0  0  0  0  0
    8.9270   -0.1239   -2.1495 N   0  0  0  0  0  0  0  0  0  0  0  0
    3.1576    1.1047   -0.1380 B   0  0  0  0  0  0  0  0  0  0  0  0
    2.6952   -0.1363   -0.0807 F   0  0  0  0  0  0  0  0  0  0  0  0
    3.7733    1.6212    0.9053 F   0  0  0  0  0  0  0  0  0  0  0  0
    3.0627    1.7842   -1.2628 F   0  0  0  0  0  0  0  0  0  0  0  0
    0.9759    2.0649    0.6953 F   0  0  0  0  0  0  0  0  0  0  0  0
  1  6  1  0  0  0  0
  2  1  2  0  0  0  0
  2  3  1  0  0  0  0
  3  4  2  0  0  0  0
  4  5  1  0  0  0  0
  4  9  1  0  0  0  0
  5 10  1  0  0  0  0
  6 11  1  0  0  0  0
  6  5  2  0  0  0  0
  7  1  1  0  0  0  0
  8  2  1  0  0  0  0
 11 13  2  0  0  0  0
 12 11  2  0  0  0  0
 14 15  3  0  0  0  0
 16 17  1  0  0  0  0
 16 18  1  0  0  0  0
 19 16  1  0  0  0  0
 20  3  1  0  0  0  0
M  END
