Coordinates from ORCA-job 4-NO2-Ph-N2-BF4-B3LYPG-6-31G_dp-MTMO-d009-169-n800
 OpenBabel09051908343D

 20 19  0  0  1  0  0  0  0  0999 V2000
   -0.7663   -0.0131    0.4661 C   0  0  0  0  0  0  0  0  0  0  0  0
    0.6322    0.3754    0.1512 C   0  0  1  0  0  0  0  0  0  0  0  0
    0.7171    1.6810   -0.5897 C   0  0  0  0  0  0  0  0  0  0  0  0
   -0.3849    2.6276   -0.5432 C   0  0  0  0  0  0  0  0  0  0  0  0
   -1.5877    2.2579   -0.0454 C   0  0  0  0  0  0  0  0  0  0  0  0
   -1.7548    0.9015    0.4114 C   0  0  0  0  0  0  0  0  0  0  0  0
   -0.9660   -1.0235    0.7985 H   0  0  0  0  0  0  0  0  0  0  0  0
    1.1900   -0.4194   -0.3462 H   0  0  0  0  0  0  0  0  0  0  0  0
   -0.2178    3.6248   -0.9367 H   0  0  0  0  0  0  0  0  0  0  0  0
   -2.4304    2.9337   -0.0073 H   0  0  0  0  0  0  0  0  0  0  0  0
   -3.1192    0.4801    0.8161 N   0  0  0  0  0  0  0  0  0  0  0  0
   -3.2842   -0.6888    1.1516 O   0  0  0  0  0  0  0  0  0  0  0  0
   -3.9968    1.3400    0.7891 O   0  0  0  0  0  0  0  0  0  0  0  0
    1.7369    1.9509   -1.1624 N   0  0  0  0  0  0  0  0  0  0  0  0
    2.7073    2.2041   -1.7121 N   0  0  0  0  0  0  0  0  0  0  0  0
    3.3031   -0.3807    1.4978 B   0  0  0  0  0  0  0  0  0  0  0  0
    2.8499   -1.5778    1.1392 F   0  0  0  0  0  0  0  0  0  0  0  0
    3.5118   -0.1031    2.7704 F   0  0  0  0  0  0  0  0  0  0  0  0
    3.7766    0.4249    0.5513 F   0  0  0  0  0  0  0  0  0  0  0  0
    1.3261    0.5236    1.4335 F   0  0  0  0  0  0  0  0  0  0  0  0
  1  7  1  0  0  0  0
  2  8  1  6  0  0  0
  2  1  1  0  0  0  0
  2 20  1  0  0  0  0
  3  4  2  0  0  0  0
  3  2  1  0  0  0  0
  4  5  1  0  0  0  0
  5 10  1  0  0  0  0
  5  6  1  0  0  0  0
  6  1  2  0  0  0  0
  6 11  1  0  0  0  0
  9  4  1  0  0  0  0
 11 12  2  0  0  0  0
 13 11  2  0  0  0  0
 14  3  1  0  0  0  0
 15 14  1  0  0  0  0
 16 18  1  0  0  0  0
 17 16  1  0  0  0  0
 19 16  1  0  0  0  0
M  RAD  3   5   2  14   2  15   3
M  END
