Coordinates from ORCA-job 4-NO2-Ph-N2-BF4-B3LYPG-6-31G_dp-MTMO-d009-169-n800
 OpenBabel09051908343D

 20 18  0  0  0  0  0  0  0  0999 V2000
   -1.7285   -0.2670    0.5747 C   0  0  0  0  0  0  0  0  0  0  0  0
   -0.4236    0.2097    0.4900 C   0  0  0  0  0  0  0  0  0  0  0  0
   -0.2019    1.5647    0.7139 C   0  0  0  0  0  0  0  0  0  0  0  0
   -1.2202    2.4627    1.0172 C   0  0  0  0  0  0  0  0  0  0  0  0
   -2.5235    1.9819    1.1008 C   0  0  0  0  0  0  0  0  0  0  0  0
   -2.7569    0.6249    0.8782 C   0  0  0  0  0  0  0  0  0  0  0  0
   -1.9617   -1.3111    0.4092 H   0  0  0  0  0  0  0  0  0  0  0  0
    0.4096   -0.4414    0.2559 H   0  0  0  0  0  0  0  0  0  0  0  0
   -0.9861    3.5080    1.1830 H   0  0  0  0  0  0  0  0  0  0  0  0
   -3.3555    2.6342    1.3336 H   0  0  0  0  0  0  0  0  0  0  0  0
   -4.1343    0.1183    0.9668 N   0  0  0  0  0  0  0  0  0  0  0  0
   -4.3128   -1.0824    0.7667 O   0  0  0  0  0  0  0  0  0  0  0  0
   -5.0218    0.9267    1.2358 O   0  0  0  0  0  0  0  0  0  0  0  0
    9.2066   -0.0758   -2.2217 N   0  0  0  0  0  0  0  0  0  0  0  0
    8.1620    0.0142   -1.8720 N   0  0  0  0  0  0  0  0  0  0  0  0
    3.2428    1.0635   -0.2026 B   0  0  0  0  0  0  0  0  0  0  0  0
    2.7678   -0.1731   -0.1528 F   0  0  0  0  0  0  0  0  0  0  0  0
    3.8618    1.5683    0.8445 F   0  0  0  0  0  0  0  0  0  0  0  0
    3.1547    1.7507   -1.3232 F   0  0  0  0  0  0  0  0  0  0  0  0
    1.0646    2.0417    0.6352 F   0  0  0  0  0  0  0  0  0  0  0  0
  1  6  1  0  0  0  0
  2  1  2  0  0  0  0
  2  3  1  0  0  0  0
  3  4  2  0  0  0  0
  4  5  1  0  0  0  0
  4  9  1  0  0  0  0
  5 10  1  0  0  0  0
  6 11  1  0  0  0  0
  6  5  2  0  0  0  0
  7  1  1  0  0  0  0
  8  2  1  0  0  0  0
 11 13  2  0  0  0  0
 12 11  2  0  0  0  0
 14 15  3  0  0  0  0
 16 17  1  0  0  0  0
 16 18  1  0  0  0  0
 19 16  1  0  0  0  0
 20  3  1  0  0  0  0
M  END
