Coordinates from ORCA-job 4-NO2-Ph-N2-BF4-B3LYPG-6-31G_dp-MTMO-d009-169-n800
 OpenBabel09051908343D

 20 18  0  0  0  0  0  0  0  0999 V2000
   -1.6771   -0.2709    0.5541 C   0  0  0  0  0  0  0  0  0  0  0  0
   -0.3722    0.2036    0.4560 C   0  0  0  0  0  0  0  0  0  0  0  0
   -0.1453    1.5574    0.6817 C   0  0  0  0  0  0  0  0  0  0  0  0
   -1.1584    2.4564    0.9992 C   0  0  0  0  0  0  0  0  0  0  0  0
   -2.4616    1.9780    1.0962 C   0  0  0  0  0  0  0  0  0  0  0  0
   -2.7003    0.6220    0.8721 C   0  0  0  0  0  0  0  0  0  0  0  0
   -1.9141   -1.3141    0.3880 H   0  0  0  0  0  0  0  0  0  0  0  0
    0.4568   -0.4488    0.2108 H   0  0  0  0  0  0  0  0  0  0  0  0
   -0.9203    3.5007    1.1656 H   0  0  0  0  0  0  0  0  0  0  0  0
   -3.2895    2.6313    1.3404 H   0  0  0  0  0  0  0  0  0  0  0  0
   -4.0775    0.1178    0.9750 N   0  0  0  0  0  0  0  0  0  0  0  0
   -4.2609   -1.0818    0.7729 O   0  0  0  0  0  0  0  0  0  0  0  0
   -4.9602    0.9271    1.2572 O   0  0  0  0  0  0  0  0  0  0  0  0
    8.6921    0.0013   -2.0178 N   0  0  0  0  0  0  0  0  0  0  0  0
    7.6452    0.1074   -1.6797 N   0  0  0  0  0  0  0  0  0  0  0  0
    3.3033    1.0358   -0.2515 B   0  0  0  0  0  0  0  0  0  0  0  0
    2.8162   -0.1964   -0.2091 F   0  0  0  0  0  0  0  0  0  0  0  0
    3.9231    1.5300    0.8001 F   0  0  0  0  0  0  0  0  0  0  0  0
    3.2231    1.7300   -1.3683 F   0  0  0  0  0  0  0  0  0  0  0  0
    1.1210    2.0321    0.5902 F   0  0  0  0  0  0  0  0  0  0  0  0
  1  6  1  0  0  0  0
  2  1  2  0  0  0  0
  2  3  1  0  0  0  0
  3  4  2  0  0  0  0
  4  5  1  0  0  0  0
  4  9  1  0  0  0  0
  5 10  1  0  0  0  0
  6 11  1  0  0  0  0
  6  5  2  0  0  0  0
  7  1  1  0  0  0  0
  8  2  1  0  0  0  0
 11 13  2  0  0  0  0
 12 11  2  0  0  0  0
 14 15  3  0  0  0  0
 16 17  1  0  0  0  0
 16 18  1  0  0  0  0
 19 16  1  0  0  0  0
 20  3  1  0  0  0  0
M  END
