Coordinates from ORCA-job 4-NO2-Ph-N2-BF4-B3LYPG-6-31G_dp-MTMO-d009-169-n800
 OpenBabel09051908343D

 20 18  0  0  0  0  0  0  0  0999 V2000
   -1.5489   -0.3570    0.8584 C   0  0  0  0  0  0  0  0  0  0  0  0
   -0.2281   -0.1591    0.4672 C   0  0  0  0  0  0  0  0  0  0  0  0
    0.1581    1.1188    0.0766 C   0  0  0  0  0  0  0  0  0  0  0  0
   -0.7098    2.2054    0.0608 C   0  0  0  0  0  0  0  0  0  0  0  0
   -2.0298    2.0031    0.4521 C   0  0  0  0  0  0  0  0  0  0  0  0
   -2.4283    0.7255    0.8444 C   0  0  0  0  0  0  0  0  0  0  0  0
   -1.9069   -1.3289    1.1732 H   0  0  0  0  0  0  0  0  0  0  0  0
    0.4946   -0.9661    0.4638 H   0  0  0  0  0  0  0  0  0  0  0  0
   -0.3507    3.1784   -0.2539 H   0  0  0  0  0  0  0  0  0  0  0  0
   -2.7498    2.8115    0.4592 H   0  0  0  0  0  0  0  0  0  0  0  0
   -3.8238    0.5128    1.2568 N   0  0  0  0  0  0  0  0  0  0  0  0
   -4.1496   -0.6237    1.5966 O   0  0  0  0  0  0  0  0  0  0  0  0
   -4.5779    1.4845    1.2362 O   0  0  0  0  0  0  0  0  0  0  0  0
    5.5120    2.4543   -2.4441 N   0  0  0  0  0  0  0  0  0  0  0  0
    6.3680    1.8080   -2.1776 N   0  0  0  0  0  0  0  0  0  0  0  0
    3.4283    0.2446    0.7109 B   0  0  0  0  0  0  0  0  0  0  0  0
    2.9548   -0.9659    0.4565 F   0  0  0  0  0  0  0  0  0  0  0  0
    3.1576    0.8221    1.8648 F   0  0  0  0  0  0  0  0  0  0  0  0
    4.2316    0.8292   -0.1554 F   0  0  0  0  0  0  0  0  0  0  0  0
    1.4419    1.3213   -0.3133 F   0  0  0  0  0  0  0  0  0  0  0  0
  1  7  1  0  0  0  0
  2  1  2  0  0  0  0
  3  2  1  0  0  0  0
  4  3  2  0  0  0  0
  4  5  1  0  0  0  0
  5 10  1  0  0  0  0
  5  6  2  0  0  0  0
  6  1  1  0  0  0  0
  6 11  1  0  0  0  0
  8  2  1  0  0  0  0
  9  4  1  0  0  0  0
 11 12  2  0  0  0  0
 13 11  2  0  0  0  0
 14 15  3  0  0  0  0
 16 18  1  0  0  0  0
 17 16  1  0  0  0  0
 19 16  1  0  0  0  0
 20  3  1  0  0  0  0
M  END
