Coordinates from ORCA-job 4-NO2-Ph-N2-BF4-B3LYPG-6-31G_dp-MTMO-d009-169-n800
 OpenBabel09051908343D

 20 18  0  0  0  0  0  0  0  0999 V2000
   -1.1914   -0.2388    0.4770 C   0  0  0  0  0  0  0  0  0  0  0  0
    0.1680   -0.0101    0.6654 C   0  0  0  0  0  0  0  0  0  0  0  0
    0.6194    1.3051    0.6692 C   0  0  0  0  0  0  0  0  0  0  0  0
   -0.2267    2.4000    0.5301 C   0  0  0  0  0  0  0  0  0  0  0  0
   -1.5852    2.1675    0.3419 C   0  0  0  0  0  0  0  0  0  0  0  0
   -2.0461    0.8514    0.3147 C   0  0  0  0  0  0  0  0  0  0  0  0
   -1.5994   -1.2415    0.4573 H   0  0  0  0  0  0  0  0  0  0  0  0
    0.8712   -0.8227    0.7988 H   0  0  0  0  0  0  0  0  0  0  0  0
    0.1805    3.4041    0.5604 H   0  0  0  0  0  0  0  0  0  0  0  0
   -2.2890    2.9807    0.2196 H   0  0  0  0  0  0  0  0  0  0  0  0
   -3.4817    0.6063    0.1144 N   0  0  0  0  0  0  0  0  0  0  0  0
   -3.8635   -0.5629    0.1007 O   0  0  0  0  0  0  0  0  0  0  0  0
   -4.2119    1.5865   -0.0277 O   0  0  0  0  0  0  0  0  0  0  0  0
    1.4775    1.3404   -1.8718 N   0  0  0  0  0  0  0  0  0  0  0  0
    2.5166    1.6386   -2.1042 N   0  0  0  0  0  0  0  0  0  0  0  0
    3.9795    0.0567    1.1281 B   0  0  0  0  0  0  0  0  0  0  0  0
    3.2363   -1.0390    1.1877 F   0  0  0  0  0  0  0  0  0  0  0  0
    4.3108    0.6831    2.2380 F   0  0  0  0  0  0  0  0  0  0  0  0
    4.4386    0.4695   -0.0362 F   0  0  0  0  0  0  0  0  0  0  0  0
    1.9398    1.5439    0.8700 F   0  0  0  0  0  0  0  0  0  0  0  0
  1  2  2  0  0  0  0
  2  3  1  0  0  0  0
  2  8  1  0  0  0  0
  3 20  1  0  0  0  0
  4  9  1  0  0  0  0
  4  3  2  0  0  0  0
  5  4  1  0  0  0  0
  6  5  2  0  0  0  0
  6  1  1  0  0  0  0
  7  1  1  0  0  0  0
 10  5  1  0  0  0  0
 11  6  1  0  0  0  0
 12 11  2  0  0  0  0
 13 11  2  0  0  0  0
 15 14  3  0  0  0  0
 16 17  1  0  0  0  0
 16 18  1  0  0  0  0
 19 16  1  0  0  0  0
M  END
