Coordinates from ORCA-job 4-NO2-Ph-N2-BF4-B3LYPG-6-31G_dp-MTMO-d009-169-n800
 OpenBabel09051908343D

 20 18  0  0  0  0  0  0  0  0999 V2000
   -2.1562   -0.2149    0.6831 C   0  0  0  0  0  0  0  0  0  0  0  0
   -0.8668    0.3067    0.6331 C   0  0  0  0  0  0  0  0  0  0  0  0
   -0.6946    1.6622    0.8934 C   0  0  0  0  0  0  0  0  0  0  0  0
   -1.7478    2.5180    1.1999 C   0  0  0  0  0  0  0  0  0  0  0  0
   -3.0354    1.9925    1.2491 C   0  0  0  0  0  0  0  0  0  0  0  0
   -3.2191    0.6344    0.9899 C   0  0  0  0  0  0  0  0  0  0  0  0
   -2.3513   -1.2618    0.4886 H   0  0  0  0  0  0  0  0  0  0  0  0
   -0.0090   -0.3114    0.3986 H   0  0  0  0  0  0  0  0  0  0  0  0
   -1.5517    3.5662    1.3947 H   0  0  0  0  0  0  0  0  0  0  0  0
   -3.8926    2.6108    1.4829 H   0  0  0  0  0  0  0  0  0  0  0  0
   -4.5799    0.0799    1.0421 N   0  0  0  0  0  0  0  0  0  0  0  0
   -4.7144   -1.1206    0.8095 O   0  0  0  0  0  0  0  0  0  0  0  0
   -5.4985    0.8514    1.3154 O   0  0  0  0  0  0  0  0  0  0  0  0
   13.4698   -0.8405   -3.5609 N   0  0  0  0  0  0  0  0  0  0  0  0
   12.4237   -0.7393   -3.2187 N   0  0  0  0  0  0  0  0  0  0  0  0
    2.7623    1.3112    0.0020 B   0  0  0  0  0  0  0  0  0  0  0  0
    2.3486    0.0535    0.0653 F   0  0  0  0  0  0  0  0  0  0  0  0
    3.3659    1.8531    1.0395 F   0  0  0  0  0  0  0  0  0  0  0  0
    2.6341    1.9837   -1.1238 F   0  0  0  0  0  0  0  0  0  0  0  0
    0.5561    2.1837    0.8494 F   0  0  0  0  0  0  0  0  0  0  0  0
  1  6  1  0  0  0  0
  2  1  2  0  0  0  0
  2  3  1  0  0  0  0
  3  4  2  0  0  0  0
  4  5  1  0  0  0  0
  4  9  1  0  0  0  0
  5 10  1  0  0  0  0
  6 11  1  0  0  0  0
  6  5  2  0  0  0  0
  7  1  1  0  0  0  0
  8  2  1  0  0  0  0
 11 13  2  0  0  0  0
 12 11  2  0  0  0  0
 14 15  3  0  0  0  0
 16 17  1  0  0  0  0
 16 18  1  0  0  0  0
 19 16  1  0  0  0  0
 20  3  1  0  0  0  0
M  END
