Coordinates from ORCA-job 4-NO2-Ph-N2-BF4-B3LYPG-6-31G_dp-MTMO-d009-169-n800
 OpenBabel09051908343D

 20 18  0  0  0  0  0  0  0  0999 V2000
   -2.0878   -0.2243    0.6723 C   0  0  0  0  0  0  0  0  0  0  0  0
   -0.7939    0.2860    0.6205 C   0  0  0  0  0  0  0  0  0  0  0  0
   -0.6112    1.6429    0.8665 C   0  0  0  0  0  0  0  0  0  0  0  0
   -1.6582    2.5107    1.1602 C   0  0  0  0  0  0  0  0  0  0  0  0
   -2.9502    1.9964    1.2112 C   0  0  0  0  0  0  0  0  0  0  0  0
   -3.1445    0.6371    0.9663 C   0  0  0  0  0  0  0  0  0  0  0  0
   -2.2909   -1.2717    0.4886 H   0  0  0  0  0  0  0  0  0  0  0  0
    0.0595   -0.3415    0.3952 H   0  0  0  0  0  0  0  0  0  0  0  0
   -1.4539    3.5593    1.3442 H   0  0  0  0  0  0  0  0  0  0  0  0
   -3.8029    2.6244    1.4355 H   0  0  0  0  0  0  0  0  0  0  0  0
   -4.5100    0.0946    1.0206 N   0  0  0  0  0  0  0  0  0  0  0  0
   -4.6537   -1.1073    0.8013 O   0  0  0  0  0  0  0  0  0  0  0  0
   -5.4230    0.8767    1.2820 O   0  0  0  0  0  0  0  0  0  0  0  0
   12.7588   -0.6922   -3.3646 N   0  0  0  0  0  0  0  0  0  0  0  0
   11.7135   -0.5980   -3.0183 N   0  0  0  0  0  0  0  0  0  0  0  0
    2.8467    1.2542   -0.0111 B   0  0  0  0  0  0  0  0  0  0  0  0
    2.4181    0.0013    0.0504 F   0  0  0  0  0  0  0  0  0  0  0  0
    3.4492    1.7901    1.0301 F   0  0  0  0  0  0  0  0  0  0  0  0
    2.7337    1.9270   -1.1382 F   0  0  0  0  0  0  0  0  0  0  0  0
    0.6439    2.1533    0.8206 F   0  0  0  0  0  0  0  0  0  0  0  0
  1  6  1  0  0  0  0
  2  1  2  0  0  0  0
  2  3  1  0  0  0  0
  3  4  2  0  0  0  0
  4  5  1  0  0  0  0
  4  9  1  0  0  0  0
  5 10  1  0  0  0  0
  6 11  1  0  0  0  0
  6  5  2  0  0  0  0
  7  1  1  0  0  0  0
  8  2  1  0  0  0  0
 11 13  2  0  0  0  0
 12 11  2  0  0  0  0
 14 15  3  0  0  0  0
 16 17  1  0  0  0  0
 16 18  1  0  0  0  0
 19 16  1  0  0  0  0
 20  3  1  0  0  0  0
M  END
