Coordinates from ORCA-job 4-NO2-Ph-N2-BF4-B3LYPG-6-31G_dp-MTMO-d009-169-n800
 OpenBabel09051908343D

 20 18  0  0  0  0  0  0  0  0999 V2000
   -1.6217   -0.2718    0.5217 C   0  0  0  0  0  0  0  0  0  0  0  0
   -0.3170    0.1913    0.3794 C   0  0  0  0  0  0  0  0  0  0  0  0
   -0.0691    1.5425    0.5999 C   0  0  0  0  0  0  0  0  0  0  0  0
   -1.0623    2.4497    0.9556 C   0  0  0  0  0  0  0  0  0  0  0  0
   -2.3656    1.9829    1.0969 C   0  0  0  0  0  0  0  0  0  0  0  0
   -2.6249    0.6297    0.8776 C   0  0  0  0  0  0  0  0  0  0  0  0
   -1.8741   -1.3123    0.3615 H   0  0  0  0  0  0  0  0  0  0  0  0
    0.4982   -0.4670    0.1043 H   0  0  0  0  0  0  0  0  0  0  0  0
   -0.8090    3.4914    1.1160 H   0  0  0  0  0  0  0  0  0  0  0  0
   -3.1784    2.6430    1.3715 H   0  0  0  0  0  0  0  0  0  0  0  0
   -4.0022    0.1382    1.0264 N   0  0  0  0  0  0  0  0  0  0  0  0
   -4.2043   -1.0586    0.8253 O   0  0  0  0  0  0  0  0  0  0  0  0
   -4.8669    0.9543    1.3431 O   0  0  0  0  0  0  0  0  0  0  0  0
    7.8524    0.2597   -1.6320 N   0  0  0  0  0  0  0  0  0  0  0  0
    6.7957    0.3639   -1.3252 N   0  0  0  0  0  0  0  0  0  0  0  0
    3.4660    0.9040   -0.3591 B   0  0  0  0  0  0  0  0  0  0  0  0
    2.8965   -0.2924   -0.3340 F   0  0  0  0  0  0  0  0  0  0  0  0
    4.0826    1.3572    0.7123 F   0  0  0  0  0  0  0  0  0  0  0  0
    3.4498    1.6107   -1.4703 F   0  0  0  0  0  0  0  0  0  0  0  0
    1.1975    2.0024    0.4624 F   0  0  0  0  0  0  0  0  0  0  0  0
  1  6  1  0  0  0  0
  2  1  2  0  0  0  0
  2  3  1  0  0  0  0
  3  4  2  0  0  0  0
  4  5  1  0  0  0  0
  4  9  1  0  0  0  0
  5 10  1  0  0  0  0
  6 11  1  0  0  0  0
  6  5  2  0  0  0  0
  7  1  1  0  0  0  0
  8  2  1  0  0  0  0
 11 13  2  0  0  0  0
 12 11  2  0  0  0  0
 14 15  3  0  0  0  0
 16 17  1  0  0  0  0
 16 18  1  0  0  0  0
 19 16  1  0  0  0  0
 20  3  1  0  0  0  0
M  END
