Coordinates from ORCA-job 4-NO2-Ph-N2-BF4-B3LYPG-6-31G_dp-MTMO-d009-169-n800
 OpenBabel09051908343D

 20 18  0  0  0  0  0  0  0  0999 V2000
   -1.5560   -0.3557    0.8685 C   0  0  0  0  0  0  0  0  0  0  0  0
   -0.2334   -0.1691    0.4776 C   0  0  0  0  0  0  0  0  0  0  0  0
    0.1608    1.1032    0.0767 C   0  0  0  0  0  0  0  0  0  0  0  0
   -0.7007    2.1947    0.0502 C   0  0  0  0  0  0  0  0  0  0  0  0
   -2.0224    2.0035    0.4412 C   0  0  0  0  0  0  0  0  0  0  0  0
   -2.4291    0.7317    0.8439 C   0  0  0  0  0  0  0  0  0  0  0  0
   -1.9202   -1.3228    1.1910 H   0  0  0  0  0  0  0  0  0  0  0  0
    0.4844   -0.9803    0.4822 H   0  0  0  0  0  0  0  0  0  0  0  0
   -0.3354    3.1628   -0.2721 H   0  0  0  0  0  0  0  0  0  0  0  0
   -2.7377    2.8162    0.4402 H   0  0  0  0  0  0  0  0  0  0  0  0
   -3.8263    0.5307    1.2559 N   0  0  0  0  0  0  0  0  0  0  0  0
   -4.1595   -0.6008    1.6049 O   0  0  0  0  0  0  0  0  0  0  0  0
   -4.5747    1.5067    1.2257 O   0  0  0  0  0  0  0  0  0  0  0  0
    5.4323    2.3937   -2.4019 N   0  0  0  0  0  0  0  0  0  0  0  0
    6.4571    2.0079   -2.2532 N   0  0  0  0  0  0  0  0  0  0  0  0
    3.4243    0.2129    0.7201 B   0  0  0  0  0  0  0  0  0  0  0  0
    2.9432   -0.9953    0.4683 F   0  0  0  0  0  0  0  0  0  0  0  0
    3.1520    0.7967    1.8705 F   0  0  0  0  0  0  0  0  0  0  0  0
    4.2382    0.7870   -0.1432 F   0  0  0  0  0  0  0  0  0  0  0  0
    1.4463    1.2952   -0.3131 F   0  0  0  0  0  0  0  0  0  0  0  0
  1  7  1  0  0  0  0
  2  8  1  0  0  0  0
  2  1  2  0  0  0  0
  3  2  1  0  0  0  0
  4  3  2  0  0  0  0
  4  5  1  0  0  0  0
  5  6  2  0  0  0  0
  6  1  1  0  0  0  0
  6 11  1  0  0  0  0
  9  4  1  0  0  0  0
 10  5  1  0  0  0  0
 11 12  2  0  0  0  0
 13 11  2  0  0  0  0
 14 15  3  0  0  0  0
 16 18  1  0  0  0  0
 17 16  1  0  0  0  0
 19 16  1  0  0  0  0
 20  3  1  0  0  0  0
M  END
