Coordinates from ORCA-job 4-NO2-Ph-N2-BF4-B3LYPG-6-31G_dp-MTMO-d009-169-n800
 OpenBabel09051908343D

 20 18  0  0  0  0  0  0  0  0999 V2000
   -1.4282   -0.3233    0.7199 C   0  0  0  0  0  0  0  0  0  0  0  0
   -0.0637   -0.1538    0.5052 C   0  0  0  0  0  0  0  0  0  0  0  0
    0.4052    1.1268    0.2307 C   0  0  0  0  0  0  0  0  0  0  0  0
   -0.4230    2.2422    0.1620 C   0  0  0  0  0  0  0  0  0  0  0  0
   -1.7866    2.0683    0.3772 C   0  0  0  0  0  0  0  0  0  0  0  0
   -2.2677    0.7885    0.6526 C   0  0  0  0  0  0  0  0  0  0  0  0
   -1.8502   -1.2960    0.9385 H   0  0  0  0  0  0  0  0  0  0  0  0
    0.6300   -0.9843    0.5505 H   0  0  0  0  0  0  0  0  0  0  0  0
    0.0005    3.2155   -0.0572 H   0  0  0  0  0  0  0  0  0  0  0  0
   -2.4783    2.9001    0.3360 H   0  0  0  0  0  0  0  0  0  0  0  0
   -3.7089    0.6060    0.8803 N   0  0  0  0  0  0  0  0  0  0  0  0
   -4.1080   -0.5329    1.1190 O   0  0  0  0  0  0  0  0  0  0  0  0
   -4.4259    1.6039    0.8184 O   0  0  0  0  0  0  0  0  0  0  0  0
    3.8009    2.0476   -2.2489 N   0  0  0  0  0  0  0  0  0  0  0  0
    4.7240    2.2719   -2.8136 N   0  0  0  0  0  0  0  0  0  0  0  0
    3.6088    0.0724    1.1031 B   0  0  0  0  0  0  0  0  0  0  0  0
    3.0603   -1.0956    0.8035 F   0  0  0  0  0  0  0  0  0  0  0  0
    3.3230    0.6522    2.2520 F   0  0  0  0  0  0  0  0  0  0  0  0
    4.4986    0.6057    0.2900 F   0  0  0  0  0  0  0  0  0  0  0  0
    1.7325    1.3038    0.0141 F   0  0  0  0  0  0  0  0  0  0  0  0
  1  7  1  0  0  0  0
  2  8  1  0  0  0  0
  2  1  2  0  0  0  0
  3  2  1  0  0  0  0
  4  3  2  0  0  0  0
  4  5  1  0  0  0  0
  5  6  2  0  0  0  0
  6  1  1  0  0  0  0
  6 11  1  0  0  0  0
  9  4  1  0  0  0  0
 10  5  1  0  0  0  0
 11 12  2  0  0  0  0
 13 11  2  0  0  0  0
 15 14  3  0  0  0  0
 16 18  1  0  0  0  0
 17 16  1  0  0  0  0
 19 16  1  0  0  0  0
 20  3  1  0  0  0  0
M  END
