Coordinates from ORCA-job 4-NO2-Ph-N2-BF4-B3LYPG-6-31G_dp-MTMO-d009-169-n800
 OpenBabel09051908343D

 20 18  0  0  0  0  0  0  0  0999 V2000
   -1.1674   -0.2311    0.4523 C   0  0  0  0  0  0  0  0  0  0  0  0
    0.1905   -0.0001    0.6445 C   0  0  0  0  0  0  0  0  0  0  0  0
    0.6420    1.3157    0.6323 C   0  0  0  0  0  0  0  0  0  0  0  0
   -0.2098    2.4100    0.5199 C   0  0  0  0  0  0  0  0  0  0  0  0
   -1.5666    2.1753    0.3276 C   0  0  0  0  0  0  0  0  0  0  0  0
   -2.0237    0.8579    0.2886 C   0  0  0  0  0  0  0  0  0  0  0  0
   -1.5745   -1.2342    0.4348 H   0  0  0  0  0  0  0  0  0  0  0  0
    0.8952   -0.8109    0.7806 H   0  0  0  0  0  0  0  0  0  0  0  0
    0.1952    3.4147    0.5599 H   0  0  0  0  0  0  0  0  0  0  0  0
   -2.2736    2.9873    0.2153 H   0  0  0  0  0  0  0  0  0  0  0  0
   -3.4581    0.6103    0.0840 N   0  0  0  0  0  0  0  0  0  0  0  0
   -3.8370   -0.5598    0.0640 O   0  0  0  0  0  0  0  0  0  0  0  0
   -4.1903    1.5895   -0.0551 O   0  0  0  0  0  0  0  0  0  0  0  0
    1.2719    1.3172   -1.7270 N   0  0  0  0  0  0  0  0  0  0  0  0
    2.3277    1.5582   -1.9556 N   0  0  0  0  0  0  0  0  0  0  0  0
    4.0051    0.0544    1.1256 B   0  0  0  0  0  0  0  0  0  0  0  0
    3.2513   -1.0341    1.1872 F   0  0  0  0  0  0  0  0  0  0  0  0
    4.3313    0.6868    2.2336 F   0  0  0  0  0  0  0  0  0  0  0  0
    4.4761    0.4549   -0.0377 F   0  0  0  0  0  0  0  0  0  0  0  0
    1.9580    1.5568    0.8582 F   0  0  0  0  0  0  0  0  0  0  0  0
  1  2  2  0  0  0  0
  2  8  1  0  0  0  0
  3  2  1  0  0  0  0
  3 20  1  0  0  0  0
  4  9  1  0  0  0  0
  4  3  2  0  0  0  0
  5  4  1  0  0  0  0
  6  5  2  0  0  0  0
  6  1  1  0  0  0  0
  7  1  1  0  0  0  0
 10  5  1  0  0  0  0
 11  6  1  0  0  0  0
 12 11  2  0  0  0  0
 13 11  2  0  0  0  0
 15 14  3  0  0  0  0
 16 17  1  0  0  0  0
 16 18  1  0  0  0  0
 19 16  1  0  0  0  0
M  END
