Coordinates from ORCA-job 4-NO2-Ph-N2-BF4-B3LYPG-6-31G_dp-MTMO-d009-169-n800
 OpenBabel09051908343D

 20 18  0  0  0  0  0  0  0  0999 V2000
   -2.1175   -0.2202    0.6774 C   0  0  0  0  0  0  0  0  0  0  0  0
   -0.8253    0.2946    0.6264 C   0  0  0  0  0  0  0  0  0  0  0  0
   -0.6469    1.6509    0.8780 C   0  0  0  0  0  0  0  0  0  0  0  0
   -1.6964    2.5141    1.1766 C   0  0  0  0  0  0  0  0  0  0  0  0
   -2.9866    1.9953    1.2268 C   0  0  0  0  0  0  0  0  0  0  0  0
   -3.1767    0.6364    0.9763 C   0  0  0  0  0  0  0  0  0  0  0  0
   -2.3173   -1.2675    0.4895 H   0  0  0  0  0  0  0  0  0  0  0  0
    0.0298   -0.3293    0.3976 H   0  0  0  0  0  0  0  0  0  0  0  0
   -1.4953    3.5625    1.3648 H   0  0  0  0  0  0  0  0  0  0  0  0
   -3.8412    2.6194    1.4547 H   0  0  0  0  0  0  0  0  0  0  0  0
   -4.5403    0.0891    1.0297 N   0  0  0  0  0  0  0  0  0  0  0  0
   -4.6803   -1.1123    0.8052 O   0  0  0  0  0  0  0  0  0  0  0  0
   -5.4556    0.8671    1.2957 O   0  0  0  0  0  0  0  0  0  0  0  0
   13.0638   -0.7539   -3.4494 N   0  0  0  0  0  0  0  0  0  0  0  0
   12.0181   -0.6568   -3.1049 N   0  0  0  0  0  0  0  0  0  0  0  0
    2.8108    1.2769   -0.0049 B   0  0  0  0  0  0  0  0  0  0  0  0
    2.3879    0.0221    0.0572 F   0  0  0  0  0  0  0  0  0  0  0  0
    3.4137    1.8151    1.0349 F   0  0  0  0  0  0  0  0  0  0  0  0
    2.6920    1.9497   -1.1315 F   0  0  0  0  0  0  0  0  0  0  0  0
    0.6065    2.1658    0.8329 F   0  0  0  0  0  0  0  0  0  0  0  0
  1  6  1  0  0  0  0
  2  1  2  0  0  0  0
  2  3  1  0  0  0  0
  3  4  2  0  0  0  0
  4  5  1  0  0  0  0
  4  9  1  0  0  0  0
  5 10  1  0  0  0  0
  6 11  1  0  0  0  0
  6  5  2  0  0  0  0
  7  1  1  0  0  0  0
  8  2  1  0  0  0  0
 11 13  2  0  0  0  0
 12 11  2  0  0  0  0
 14 15  3  0  0  0  0
 16 17  1  0  0  0  0
 16 18  1  0  0  0  0
 19 16  1  0  0  0  0
 20  3  1  0  0  0  0
M  END
