Coordinates from ORCA-job 4-NO2-Ph-N2-BF4-B3LYPG-6-31G_dp-MTMO-d009-169-n800
 OpenBabel09051908343D

 20 19  0  0  0  0  0  0  0  0999 V2000
   -1.1145   -0.1175    0.5511 C   0  0  0  0  0  0  0  0  0  0  0  0
    0.2235    0.1357    0.2583 C   0  0  0  0  0  0  0  0  0  0  0  0
    0.5089    1.4010   -0.2519 C   0  0  0  0  0  0  0  0  0  0  0  0
   -0.4205    2.4189   -0.4852 C   0  0  0  0  0  0  0  0  0  0  0  0
   -1.7454    2.1423   -0.1724 C   0  0  0  0  0  0  0  0  0  0  0  0
   -2.0610    0.8816    0.3350 C   0  0  0  0  0  0  0  0  0  0  0  0
   -1.4269   -1.0739    0.9510 H   0  0  0  0  0  0  0  0  0  0  0  0
    1.0303   -0.5785    0.4058 H   0  0  0  0  0  0  0  0  0  0  0  0
   -0.1197    3.3807   -0.8831 H   0  0  0  0  0  0  0  0  0  0  0  0
   -2.5281    2.8759   -0.3157 H   0  0  0  0  0  0  0  0  0  0  0  0
   -3.4814    0.5951    0.6574 N   0  0  0  0  0  0  0  0  0  0  0  0
   -3.7406   -0.5193    1.0962 O   0  0  0  0  0  0  0  0  0  0  0  0
   -4.2905    1.4960    0.4576 O   0  0  0  0  0  0  0  0  0  0  0  0
    1.8903    1.7071   -0.6149 N   0  0  0  0  0  0  0  0  0  0  0  0
    2.8979    2.0061   -0.9752 N   0  0  0  0  0  0  0  0  0  0  0  0
    3.5544    0.0530    1.1561 B   0  0  0  0  0  0  0  0  0  0  0  0
    2.9083   -0.8442    0.2499 F   0  0  0  0  0  0  0  0  0  0  0  0
    4.1993   -0.6131    2.1577 F   0  0  0  0  0  0  0  0  0  0  0  0
    4.4289    0.8626    0.3911 F   0  0  0  0  0  0  0  0  0  0  0  0
    2.5301    0.9094    1.6643 F   0  0  0  0  0  0  0  0  0  0  0  0
  1  7  1  0  0  0  0
  2  8  1  0  0  0  0
  2  1  2  0  0  0  0
  3  2  1  0  0  0  0
  4  3  2  0  0  0  0
  4  5  1  0  0  0  0
  5  6  2  0  0  0  0
  6  1  1  0  0  0  0
  6 11  1  0  0  0  0
  9  4  1  0  0  0  0
 10  5  1  0  0  0  0
 11 12  2  0  0  0  0
 13 11  2  0  0  0  0
 14  3  1  0  0  0  0
 15 14  1  0  0  0  0
 16 20  1  0  0  0  0
 16 18  1  0  0  0  0
 17 16  1  0  0  0  0
 19 16  1  0  0  0  0
M  RAD  2  14   2  15   3
M  END
