Coordinates from ORCA-job 4-NO2-Ph-N2-BF4-B3LYPG-6-31G_dp-MTMO-d009-169-n800
 OpenBabel09051908343D

 20 18  0  0  0  0  0  0  0  0999 V2000
   -1.4299   -0.3241    0.7204 C   0  0  0  0  0  0  0  0  0  0  0  0
   -0.0660   -0.1545    0.5015 C   0  0  0  0  0  0  0  0  0  0  0  0
    0.4019    1.1262    0.2257 C   0  0  0  0  0  0  0  0  0  0  0  0
   -0.4265    2.2416    0.1597 C   0  0  0  0  0  0  0  0  0  0  0  0
   -1.7895    2.0675    0.3791 C   0  0  0  0  0  0  0  0  0  0  0  0
   -2.2697    0.7876    0.6558 C   0  0  0  0  0  0  0  0  0  0  0  0
   -1.8511   -1.2968    0.9403 H   0  0  0  0  0  0  0  0  0  0  0  0
    0.6278   -0.9850    0.5447 H   0  0  0  0  0  0  0  0  0  0  0  0
   -0.0037    3.2149   -0.0607 H   0  0  0  0  0  0  0  0  0  0  0  0
   -2.4813    2.8993    0.3401 H   0  0  0  0  0  0  0  0  0  0  0  0
   -3.7101    0.6051    0.8879 N   0  0  0  0  0  0  0  0  0  0  0  0
   -4.1084   -0.5338    1.1278 O   0  0  0  0  0  0  0  0  0  0  0  0
   -4.4274    1.6028    0.8280 O   0  0  0  0  0  0  0  0  0  0  0  0
    3.8251    2.0474   -2.2507 N   0  0  0  0  0  0  0  0  0  0  0  0
    4.7516    2.2705   -2.8105 N   0  0  0  0  0  0  0  0  0  0  0  0
    3.6041    0.0755    1.1008 B   0  0  0  0  0  0  0  0  0  0  0  0
    3.0591   -1.0935    0.7989 F   0  0  0  0  0  0  0  0  0  0  0  0
    3.3129    0.6545    2.2487 F   0  0  0  0  0  0  0  0  0  0  0  0
    4.4959    0.6108    0.2910 F   0  0  0  0  0  0  0  0  0  0  0  0
    1.7285    1.3030    0.0048 F   0  0  0  0  0  0  0  0  0  0  0  0
  1  7  1  0  0  0  0
  2  8  1  0  0  0  0
  2  1  2  0  0  0  0
  3  2  1  0  0  0  0
  4  3  2  0  0  0  0
  4  5  1  0  0  0  0
  5  6  2  0  0  0  0
  6  1  1  0  0  0  0
  6 11  1  0  0  0  0
  9  4  1  0  0  0  0
 10  5  1  0  0  0  0
 11 12  2  0  0  0  0
 13 11  2  0  0  0  0
 15 14  3  0  0  0  0
 16 18  1  0  0  0  0
 17 16  1  0  0  0  0
 19 16  1  0  0  0  0
 20  3  1  0  0  0  0
M  END
