Coordinates from ORCA-job 4-NO2-Ph-N2-BF4-B3LYPG-6-31G_dp-MTMO-d009-169-n800
 OpenBabel09051908343D

 20 18  0  0  0  0  0  0  0  0999 V2000
   -1.5468   -0.3535    0.8587 C   0  0  0  0  0  0  0  0  0  0  0  0
   -0.2178   -0.1745    0.4865 C   0  0  0  0  0  0  0  0  0  0  0  0
    0.1900    1.0958    0.0932 C   0  0  0  0  0  0  0  0  0  0  0  0
   -0.6642    2.1928    0.0564 C   0  0  0  0  0  0  0  0  0  0  0  0
   -1.9925    2.0093    0.4286 C   0  0  0  0  0  0  0  0  0  0  0  0
   -2.4127    0.7394    0.8236 C   0  0  0  0  0  0  0  0  0  0  0  0
   -1.9215   -1.3187    1.1745 H   0  0  0  0  0  0  0  0  0  0  0  0
    0.4949   -0.9902    0.4999 H   0  0  0  0  0  0  0  0  0  0  0  0
   -0.2885    3.1591   -0.2594 H   0  0  0  0  0  0  0  0  0  0  0  0
   -2.7026    2.8264    0.4187 H   0  0  0  0  0  0  0  0  0  0  0  0
   -3.8168    0.5467    1.2157 N   0  0  0  0  0  0  0  0  0  0  0  0
   -4.1618   -0.5832    1.5586 O   0  0  0  0  0  0  0  0  0  0  0  0
   -4.5586    1.5273    1.1764 O   0  0  0  0  0  0  0  0  0  0  0  0
    5.2458    2.4236   -2.3879 N   0  0  0  0  0  0  0  0  0  0  0  0
    6.2873    2.0553   -2.3565 N   0  0  0  0  0  0  0  0  0  0  0  0
    3.4419    0.1835    0.7722 B   0  0  0  0  0  0  0  0  0  0  0  0
    2.9536   -1.0208    0.5157 F   0  0  0  0  0  0  0  0  0  0  0  0
    3.1648    0.7686    1.9208 F   0  0  0  0  0  0  0  0  0  0  0  0
    4.2671    0.7518   -0.0841 F   0  0  0  0  0  0  0  0  0  0  0  0
    1.4819    1.2803   -0.2784 F   0  0  0  0  0  0  0  0  0  0  0  0
  1  7  1  0  0  0  0
  2  8  1  0  0  0  0
  2  1  2  0  0  0  0
  3  2  1  0  0  0  0
  4  3  2  0  0  0  0
  4  5  1  0  0  0  0
  5  6  2  0  0  0  0
  6  1  1  0  0  0  0
  6 11  1  0  0  0  0
  9  4  1  0  0  0  0
 10  5  1  0  0  0  0
 11 12  2  0  0  0  0
 13 11  2  0  0  0  0
 14 15  3  0  0  0  0
 16 18  1  0  0  0  0
 17 16  1  0  0  0  0
 19 16  1  0  0  0  0
 20  3  1  0  0  0  0
M  END
