Coordinates from ORCA-job 4-NO2-Ph-N2-BF4-B3LYPG-6-31G_dp-MTMO-d009-169-n800
 OpenBabel09051908343D

 20 18  0  0  0  0  0  0  0  0999 V2000
   -1.7102   -0.2684    0.5674 C   0  0  0  0  0  0  0  0  0  0  0  0
   -0.4052    0.2073    0.4778 C   0  0  0  0  0  0  0  0  0  0  0  0
   -0.1813    1.5618    0.7023 C   0  0  0  0  0  0  0  0  0  0  0  0
   -1.1979    2.4602    1.0107 C   0  0  0  0  0  0  0  0  0  0  0  0
   -2.5012    1.9805    1.0992 C   0  0  0  0  0  0  0  0  0  0  0  0
   -2.7367    0.6239    0.8761 C   0  0  0  0  0  0  0  0  0  0  0  0
   -1.9448   -1.3122    0.4017 H   0  0  0  0  0  0  0  0  0  0  0  0
    0.4263   -0.4445    0.2397 H   0  0  0  0  0  0  0  0  0  0  0  0
   -0.9622    3.5052    1.1766 H   0  0  0  0  0  0  0  0  0  0  0  0
   -3.3316    2.6333    1.3360 H   0  0  0  0  0  0  0  0  0  0  0  0
   -4.1140    0.1183    0.9698 N   0  0  0  0  0  0  0  0  0  0  0  0
   -4.2944   -1.0820    0.7688 O   0  0  0  0  0  0  0  0  0  0  0  0
   -4.9998    0.9271    1.2435 O   0  0  0  0  0  0  0  0  0  0  0  0
    9.0247   -0.0478   -2.1494 N   0  0  0  0  0  0  0  0  0  0  0  0
    7.9792    0.0467   -1.8036 N   0  0  0  0  0  0  0  0  0  0  0  0
    3.2631    1.0539   -0.2197 B   0  0  0  0  0  0  0  0  0  0  0  0
    2.7841   -0.1812   -0.1726 F   0  0  0  0  0  0  0  0  0  0  0  0
    3.8824    1.5550    0.8290 F   0  0  0  0  0  0  0  0  0  0  0  0
    3.1778    1.7437   -1.3389 F   0  0  0  0  0  0  0  0  0  0  0  0
    1.0850    2.0381    0.6189 F   0  0  0  0  0  0  0  0  0  0  0  0
  1  6  1  0  0  0  0
  2  1  2  0  0  0  0
  2  3  1  0  0  0  0
  3  4  2  0  0  0  0
  4  5  1  0  0  0  0
  4  9  1  0  0  0  0
  5 10  1  0  0  0  0
  6 11  1  0  0  0  0
  6  5  2  0  0  0  0
  7  1  1  0  0  0  0
  8  2  1  0  0  0  0
 11 13  2  0  0  0  0
 12 11  2  0  0  0  0
 14 15  3  0  0  0  0
 16 17  1  0  0  0  0
 16 18  1  0  0  0  0
 19 16  1  0  0  0  0
 20  3  1  0  0  0  0
M  END
