Coordinates from ORCA-job 4-NO2-Ph-N2-BF4-B3LYPG-6-31G_dp-MTMO-d009-169-n800
 OpenBabel09051908343D

 20 18  0  0  0  0  0  0  0  0999 V2000
   -1.6562   -0.2740    0.5394 C   0  0  0  0  0  0  0  0  0  0  0  0
   -0.3489    0.1872    0.4154 C   0  0  0  0  0  0  0  0  0  0  0  0
   -0.1031    1.5385    0.6369 C   0  0  0  0  0  0  0  0  0  0  0  0
   -1.1004    2.4476    0.9756 C   0  0  0  0  0  0  0  0  0  0  0  0
   -2.4062    1.9826    1.0985 C   0  0  0  0  0  0  0  0  0  0  0  0
   -2.6635    0.6293    0.8783 C   0  0  0  0  0  0  0  0  0  0  0  0
   -1.9073   -1.3145    0.3776 H   0  0  0  0  0  0  0  0  0  0  0  0
    0.4690   -0.4730    0.1534 H   0  0  0  0  0  0  0  0  0  0  0  0
   -0.8483    3.4893    1.1376 H   0  0  0  0  0  0  0  0  0  0  0  0
   -3.2223    2.6442    1.3595 H   0  0  0  0  0  0  0  0  0  0  0  0
   -4.0435    0.1394    1.0080 N   0  0  0  0  0  0  0  0  0  0  0  0
   -4.2435   -1.0579    0.8075 O   0  0  0  0  0  0  0  0  0  0  0  0
   -4.9119    0.9572    1.3092 O   0  0  0  0  0  0  0  0  0  0  0  0
    8.3139    0.1578   -1.7969 N   0  0  0  0  0  0  0  0  0  0  0  0
    7.2600    0.2771   -1.4859 N   0  0  0  0  0  0  0  0  0  0  0  0
    3.3612    0.9578   -0.3198 B   0  0  0  0  0  0  0  0  0  0  0  0
    2.8440   -0.2622   -0.2860 F   0  0  0  0  0  0  0  0  0  0  0  0
    3.9848    1.4328    0.7382 F   0  0  0  0  0  0  0  0  0  0  0  0
    3.2997    1.6610   -1.4320 F   0  0  0  0  0  0  0  0  0  0  0  0
    1.1659    1.9988    0.5187 F   0  0  0  0  0  0  0  0  0  0  0  0
  1  6  1  0  0  0  0
  2  1  2  0  0  0  0
  2  3  1  0  0  0  0
  3  4  2  0  0  0  0
  4  5  1  0  0  0  0
  4  9  1  0  0  0  0
  5 10  1  0  0  0  0
  6 11  1  0  0  0  0
  6  5  2  0  0  0  0
  7  1  1  0  0  0  0
  8  2  1  0  0  0  0
 11 13  2  0  0  0  0
 12 11  2  0  0  0  0
 14 15  3  0  0  0  0
 16 17  1  0  0  0  0
 16 18  1  0  0  0  0
 19 16  1  0  0  0  0
 20  3  1  0  0  0  0
M  END
