Coordinates from ORCA-job 4-NO2-Ph-N2-BF4-B3LYPG-6-31G_dp-MTMO-d009-169-n800
 OpenBabel09051908343D

 20 18  0  0  0  0  0  0  0  0999 V2000
   -1.7316   -0.2666    0.5759 C   0  0  0  0  0  0  0  0  0  0  0  0
   -0.4268    0.2104    0.4920 C   0  0  0  0  0  0  0  0  0  0  0  0
   -0.2056    1.5655    0.7160 C   0  0  0  0  0  0  0  0  0  0  0  0
   -1.2244    2.4633    1.0184 C   0  0  0  0  0  0  0  0  0  0  0  0
   -2.5276    1.9821    1.1013 C   0  0  0  0  0  0  0  0  0  0  0  0
   -2.7605    0.6250    0.8787 C   0  0  0  0  0  0  0  0  0  0  0  0
   -1.9644   -1.3109    0.4104 H   0  0  0  0  0  0  0  0  0  0  0  0
    0.4067   -0.4405    0.2586 H   0  0  0  0  0  0  0  0  0  0  0  0
   -0.9906    3.5087    1.1842 H   0  0  0  0  0  0  0  0  0  0  0  0
   -3.3599    2.6342    1.3334 H   0  0  0  0  0  0  0  0  0  0  0  0
   -4.1378    0.1180    0.9664 N   0  0  0  0  0  0  0  0  0  0  0  0
   -4.3159   -1.0827    0.7663 O   0  0  0  0  0  0  0  0  0  0  0  0
   -5.0257    0.9263    1.2346 O   0  0  0  0  0  0  0  0  0  0  0  0
    9.2396   -0.0816   -2.2345 N   0  0  0  0  0  0  0  0  0  0  0  0
    8.1951    0.0078   -1.8843 N   0  0  0  0  0  0  0  0  0  0  0  0
    3.2390    1.0655   -0.1996 B   0  0  0  0  0  0  0  0  0  0  0  0
    2.7646   -0.1714   -0.1496 F   0  0  0  0  0  0  0  0  0  0  0  0
    3.8578    1.5707    0.8473 F   0  0  0  0  0  0  0  0  0  0  0  0
    3.1506    1.7524   -1.3204 F   0  0  0  0  0  0  0  0  0  0  0  0
    1.0607    2.0428    0.6381 F   0  0  0  0  0  0  0  0  0  0  0  0
  1  6  1  0  0  0  0
  2  1  2  0  0  0  0
  2  3  1  0  0  0  0
  3  4  2  0  0  0  0
  4  5  1  0  0  0  0
  4  9  1  0  0  0  0
  5 10  1  0  0  0  0
  6 11  1  0  0  0  0
  6  5  2  0  0  0  0
  7  1  1  0  0  0  0
  8  2  1  0  0  0  0
 11 13  2  0  0  0  0
 12 11  2  0  0  0  0
 14 15  3  0  0  0  0
 16 17  1  0  0  0  0
 16 18  1  0  0  0  0
 19 16  1  0  0  0  0
 20  3  1  0  0  0  0
M  END
