Coordinates from ORCA-job 4-NO2-Ph-N2-BF4-B3LYPG-6-31G_dp-MTMO-d009-169-n800
 OpenBabel09051908343D

 20 18  0  0  0  0  0  0  0  0999 V2000
   -1.9797   -0.2164    0.5424 C   0  0  0  0  0  0  0  0  0  0  0  0
   -0.7748    0.4799    0.5657 C   0  0  0  0  0  0  0  0  0  0  0  0
   -0.7888    1.8056    0.9874 C   0  0  0  0  0  0  0  0  0  0  0  0
   -1.9471    2.4658    1.3850 C   0  0  0  0  0  0  0  0  0  0  0  0
   -3.1495    1.7657    1.3605 C   0  0  0  0  0  0  0  0  0  0  0  0
   -3.1468    0.4358    0.9397 C   0  0  0  0  0  0  0  0  0  0  0  0
   -2.0301   -1.2495    0.2233 H   0  0  0  0  0  0  0  0  0  0  0  0
    0.1581    0.0189    0.2661 H   0  0  0  0  0  0  0  0  0  0  0  0
   -1.8960    3.5001    1.7045 H   0  0  0  0  0  0  0  0  0  0  0  0
   -4.0816    2.2276    1.6594 H   0  0  0  0  0  0  0  0  0  0  0  0
   -4.4180   -0.3029    0.9138 N   0  0  0  0  0  0  0  0  0  0  0  0
   -4.3883   -1.4741    0.5387 O   0  0  0  0  0  0  0  0  0  0  0  0
   -5.4318    0.2970    1.2686 O   0  0  0  0  0  0  0  0  0  0  0  0
   13.5133   -1.7560   -3.6732 N   0  0  0  0  0  0  0  0  0  0  0  0
   12.4898   -1.5221   -3.3275 N   0  0  0  0  0  0  0  0  0  0  0  0
    2.6672    2.0448    0.0733 B   0  0  0  0  0  0  0  0  0  0  0  0
    2.4403    0.7405    0.0055 F   0  0  0  0  0  0  0  0  0  0  0  0
    3.2126    2.5580    1.1566 F   0  0  0  0  0  0  0  0  0  0  0  0
    2.4166    2.8048   -0.9735 F   0  0  0  0  0  0  0  0  0  0  0  0
    0.3782    2.4953    1.0170 F   0  0  0  0  0  0  0  0  0  0  0  0
  1  2  2  0  0  0  0
  1  6  1  0  0  0  0
  2  3  1  0  0  0  0
  3 20  1  0  0  0  0
  3  4  2  0  0  0  0
  4  9  1  0  0  0  0
  5  4  1  0  0  0  0
  5 10  1  0  0  0  0
  6  5  2  0  0  0  0
  7  1  1  0  0  0  0
  8  2  1  0  0  0  0
 11  6  1  0  0  0  0
 11 13  2  0  0  0  0
 12 11  2  0  0  0  0
 14 15  3  0  0  0  0
 16 18  1  0  0  0  0
 17 16  1  0  0  0  0
 19 16  1  0  0  0  0
M  END
