Coordinates from ORCA-job 4-NO2-Ph-N2-BF4-B3LYPG-6-31G_dp-MTMO-d009-169-n800
 OpenBabel09051908343D

 20 18  0  0  0  0  0  0  0  0999 V2000
   -2.0922   -0.1965    0.5691 C   0  0  0  0  0  0  0  0  0  0  0  0
   -0.8834    0.4936    0.5796 C   0  0  0  0  0  0  0  0  0  0  0  0
   -0.8855    1.8185    1.0038 C   0  0  0  0  0  0  0  0  0  0  0  0
   -2.0359    2.4839    1.4156 C   0  0  0  0  0  0  0  0  0  0  0  0
   -3.2422    1.7902    1.4037 C   0  0  0  0  0  0  0  0  0  0  0  0
   -3.2512    0.4610    0.9808 C   0  0  0  0  0  0  0  0  0  0  0  0
   -2.1515   -1.2287    0.2489 H   0  0  0  0  0  0  0  0  0  0  0  0
    0.0433    0.0280    0.2681 H   0  0  0  0  0  0  0  0  0  0  0  0
   -1.9757    3.5173    1.7362 H   0  0  0  0  0  0  0  0  0  0  0  0
   -4.1683    2.2565    1.7139 H   0  0  0  0  0  0  0  0  0  0  0  0
   -4.5264   -0.2712    0.9685 N   0  0  0  0  0  0  0  0  0  0  0  0
   -4.5069   -1.4420    0.5917 O   0  0  0  0  0  0  0  0  0  0  0  0
   -5.5330    0.3336    1.3354 O   0  0  0  0  0  0  0  0  0  0  0  0
   14.4217   -1.8808   -3.9194 N   0  0  0  0  0  0  0  0  0  0  0  0
   13.3970   -1.6857   -3.5539 N   0  0  0  0  0  0  0  0  0  0  0  0
    2.5702    2.0425    0.0753 B   0  0  0  0  0  0  0  0  0  0  0  0
    2.3215    0.7451   -0.0358 F   0  0  0  0  0  0  0  0  0  0  0  0
    3.1200    2.5108    1.1766 F   0  0  0  0  0  0  0  0  0  0  0  0
    2.3368    2.8406   -0.9467 F   0  0  0  0  0  0  0  0  0  0  0  0
    0.2852    2.5022    1.0219 F   0  0  0  0  0  0  0  0  0  0  0  0
  1  2  2  0  0  0  0
  1  6  1  0  0  0  0
  2  3  1  0  0  0  0
  3 20  1  0  0  0  0
  3  4  2  0  0  0  0
  4  9  1  0  0  0  0
  5  4  1  0  0  0  0
  5 10  1  0  0  0  0
  6  5  2  0  0  0  0
  7  1  1  0  0  0  0
  8  2  1  0  0  0  0
 11  6  1  0  0  0  0
 11 13  2  0  0  0  0
 12 11  2  0  0  0  0
 14 15  3  0  0  0  0
 16 18  1  0  0  0  0
 17 16  1  0  0  0  0
 19 16  1  0  0  0  0
M  END
