Coordinates from ORCA-job 4-NO2-Ph-N2-BF4-B3LYPG-6-31G_dp-MTMO-d009-169-n800
 OpenBabel09051908343D

 20 18  0  0  0  0  0  0  0  0999 V2000
   -1.3370   -0.2934    0.5966 C   0  0  0  0  0  0  0  0  0  0  0  0
   -0.0416    0.1931    0.7445 C   0  0  0  0  0  0  0  0  0  0  0  0
    0.1284    1.5532    0.9828 C   0  0  0  0  0  0  0  0  0  0  0  0
   -0.9337    2.4468    1.0780 C   0  0  0  0  0  0  0  0  0  0  0  0
   -2.2276    1.9563    0.9308 C   0  0  0  0  0  0  0  0  0  0  0  0
   -2.4088    0.5941    0.6923 C   0  0  0  0  0  0  0  0  0  0  0  0
   -1.5303   -1.3419    0.4084 H   0  0  0  0  0  0  0  0  0  0  0  0
    0.8240   -0.4541    0.6758 H   0  0  0  0  0  0  0  0  0  0  0  0
   -0.7397    3.4966    1.2662 H   0  0  0  0  0  0  0  0  0  0  0  0
   -3.0919    2.6046    0.9970 H   0  0  0  0  0  0  0  0  0  0  0  0
   -3.7761    0.0768    0.5378 N   0  0  0  0  0  0  0  0  0  0  0  0
   -3.9085   -1.1284    0.3285 O   0  0  0  0  0  0  0  0  0  0  0  0
   -4.7025    0.8814    0.6277 O   0  0  0  0  0  0  0  0  0  0  0  0
    6.3459   -0.3054   -2.2454 N   0  0  0  0  0  0  0  0  0  0  0  0
    5.5627    0.1462   -1.6114 N   0  0  0  0  0  0  0  0  0  0  0  0
    3.4194    1.1712   -0.1243 B   0  0  0  0  0  0  0  0  0  0  0  0
    3.2207   -0.0506    0.3494 F   0  0  0  0  0  0  0  0  0  0  0  0
    4.2084    2.0056    0.5206 F   0  0  0  0  0  0  0  0  0  0  0  0
    2.8465    1.5305   -1.2568 F   0  0  0  0  0  0  0  0  0  0  0  0
    1.3851    2.0362    1.1350 F   0  0  0  0  0  0  0  0  0  0  0  0
  1  6  2  0  0  0  0
  1  2  1  0  0  0  0
  2  3  2  0  0  0  0
  3  4  1  0  0  0  0
  3 20  1  0  0  0  0
  4  9  1  0  0  0  0
  5 10  1  0  0  0  0
  5  4  2  0  0  0  0
  6  5  1  0  0  0  0
  7  1  1  0  0  0  0
  8  2  1  0  0  0  0
 11 13  2  0  0  0  0
 11  6  1  0  0  0  0
 12 11  2  0  0  0  0
 14 15  3  0  0  0  0
 16 17  1  0  0  0  0
 16 18  1  0  0  0  0
 19 16  1  0  0  0  0
M  END
