Coordinates from ORCA-job 4-NO2-Ph-N2-BF4-B3LYPG-6-31G_dp-MTMO-d009-169-n800
 OpenBabel09051908343D

 20 18  0  0  0  0  0  0  0  0999 V2000
   -1.5912   -0.2693    0.5116 C   0  0  0  0  0  0  0  0  0  0  0  0
   -0.2907    0.2051    0.3687 C   0  0  0  0  0  0  0  0  0  0  0  0
   -0.0532    1.5577    0.5936 C   0  0  0  0  0  0  0  0  0  0  0  0
   -1.0533    2.4554    0.9543 C   0  0  0  0  0  0  0  0  0  0  0  0
   -2.3525    1.9771    1.0963 C   0  0  0  0  0  0  0  0  0  0  0  0
   -2.6010    0.6227    0.8726 C   0  0  0  0  0  0  0  0  0  0  0  0
   -1.8354   -1.3112    0.3481 H   0  0  0  0  0  0  0  0  0  0  0  0
    0.5298   -0.4450    0.0899 H   0  0  0  0  0  0  0  0  0  0  0  0
   -0.8085    3.4985    1.1182 H   0  0  0  0  0  0  0  0  0  0  0  0
   -3.1703    2.6294    1.3748 H   0  0  0  0  0  0  0  0  0  0  0  0
   -3.9739    0.1194    1.0223 N   0  0  0  0  0  0  0  0  0  0  0  0
   -4.1666   -1.0783    0.8172 O   0  0  0  0  0  0  0  0  0  0  0  0
   -4.8448    0.9272    1.3434 O   0  0  0  0  0  0  0  0  0  0  0  0
    7.6216    0.2064   -1.5749 N   0  0  0  0  0  0  0  0  0  0  0  0
    6.5682    0.3336   -1.2658 N   0  0  0  0  0  0  0  0  0  0  0  0
    3.5082    0.9240   -0.3702 B   0  0  0  0  0  0  0  0  0  0  0  0
    2.9380   -0.2724   -0.3523 F   0  0  0  0  0  0  0  0  0  0  0  0
    4.1108    1.3772    0.7091 F   0  0  0  0  0  0  0  0  0  0  0  0
    3.4988    1.6342   -1.4791 F   0  0  0  0  0  0  0  0  0  0  0  0
    1.2092    2.0272    0.4555 F   0  0  0  0  0  0  0  0  0  0  0  0
  1  6  1  0  0  0  0
  2  1  2  0  0  0  0
  2  3  1  0  0  0  0
  3  4  2  0  0  0  0
  4  5  1  0  0  0  0
  4  9  1  0  0  0  0
  5 10  1  0  0  0  0
  6 11  1  0  0  0  0
  6  5  2  0  0  0  0
  7  1  1  0  0  0  0
  8  2  1  0  0  0  0
 11 13  2  0  0  0  0
 12 11  2  0  0  0  0
 14 15  3  0  0  0  0
 16 17  1  0  0  0  0
 16 18  1  0  0  0  0
 19 16  1  0  0  0  0
 20  3  1  0  0  0  0
M  END
