Coordinates from ORCA-job 4-NO2-Ph-N2-BF4-B3LYPG-6-31G_dp-MTMO-d009-169-n800
 OpenBabel09051908343D

 20 19  0  0  1  0  0  0  0  0999 V2000
   -0.8667   -0.0703    0.4556 C   0  0  0  0  0  0  0  0  0  0  0  0
    0.5594    0.2383    0.1701 C   0  0  1  0  0  0  0  0  0  0  0  0
    0.7843    1.5507   -0.6458 C   0  0  1  0  0  0  0  0  0  0  0  0
   -0.3033    2.5706   -0.4959 C   0  0  0  0  0  0  0  0  0  0  0  0
   -1.5149    2.2631    0.0001 C   0  0  0  0  0  0  0  0  0  0  0  0
   -1.7893    0.9050    0.4125 C   0  0  0  0  0  0  0  0  0  0  0  0
   -1.1361   -1.0743    0.7598 H   0  0  0  0  0  0  0  0  0  0  0  0
    1.0847   -0.5775   -0.3311 H   0  0  0  0  0  0  0  0  0  0  0  0
   -0.0593    3.5663   -0.8535 H   0  0  0  0  0  0  0  0  0  0  0  0
   -2.3039    2.9994    0.0783 H   0  0  0  0  0  0  0  0  0  0  0  0
   -3.1851    0.5716    0.7872 N   0  0  0  0  0  0  0  0  0  0  0  0
   -3.4361   -0.5918    1.0856 O   0  0  0  0  0  0  0  0  0  0  0  0
   -3.9976    1.4934    0.7749 O   0  0  0  0  0  0  0  0  0  0  0  0
    1.5648    1.6759   -1.1545 N   0  0  0  0  0  0  0  0  0  0  0  0
    2.5359    1.8327   -1.7967 N   0  0  0  0  0  0  0  0  0  0  0  0
    3.4850   -0.1486    1.4964 B   0  0  0  0  0  0  0  0  0  0  0  0
    3.2815   -1.1371    0.6326 F   0  0  0  0  0  0  0  0  0  0  0  0
    3.4803   -0.3982    2.7908 F   0  0  0  0  0  0  0  0  0  0  0  0
    3.8327    1.0428    1.0446 F   0  0  0  0  0  0  0  0  0  0  0  0
    1.2270    0.4068    1.4222 F   0  0  0  0  0  0  0  0  0  0  0  0
  1  7  1  0  0  0  0
  2  8  1  6  0  0  0
  2  1  1  0  0  0  0
  2 20  1  0  0  0  0
  3 14  1  1  0  0  0
  3  4  1  0  0  0  0
  3  2  1  0  0  0  0
  4  5  2  0  0  0  0
  5 10  1  0  0  0  0
  5  6  1  0  0  0  0
  6  1  2  0  0  0  0
  6 11  1  0  0  0  0
  9  4  1  0  0  0  0
 11 12  2  0  0  0  0
 13 11  2  0  0  0  0
 15 14  1  0  0  0  0
 16 18  1  0  0  0  0
 17 16  1  0  0  0  0
 19 16  1  0  0  0  0
M  RAD  3   3   2  14   2  15   3
M  END
