Coordinates from ORCA-job 4-NO2-Ph-N2-BF4-B3LYPG-6-31G_dp-MTMO-d009-169-n800
 OpenBabel09051908343D

 20 18  0  0  0  0  0  0  0  0999 V2000
   -2.0195   -0.2332    0.6581 C   0  0  0  0  0  0  0  0  0  0  0  0
   -0.7227    0.2694    0.6047 C   0  0  0  0  0  0  0  0  0  0  0  0
   -0.5325    1.6268    0.8419 C   0  0  0  0  0  0  0  0  0  0  0  0
   -1.5749    2.5026    1.1283 C   0  0  0  0  0  0  0  0  0  0  0  0
   -2.8699    1.9960    1.1808 C   0  0  0  0  0  0  0  0  0  0  0  0
   -3.0716    0.6361    0.9448 C   0  0  0  0  0  0  0  0  0  0  0  0
   -2.2283   -1.2807    0.4811 H   0  0  0  0  0  0  0  0  0  0  0  0
    0.1275   -0.3644    0.3848 H   0  0  0  0  0  0  0  0  0  0  0  0
   -1.3650    3.5512    1.3056 H   0  0  0  0  0  0  0  0  0  0  0  0
   -3.7194    2.6302    1.3997 H   0  0  0  0  0  0  0  0  0  0  0  0
   -4.4403    0.1019    1.0007 N   0  0  0  0  0  0  0  0  0  0  0  0
   -4.5906   -1.1007    0.7896 O   0  0  0  0  0  0  0  0  0  0  0  0
   -5.3492    0.8910    1.2553 O   0  0  0  0  0  0  0  0  0  0  0  0
   12.0797   -0.5669   -3.1706 N   0  0  0  0  0  0  0  0  0  0  0  0
   11.0351   -0.4782   -2.8205 N   0  0  0  0  0  0  0  0  0  0  0  0
    2.9247    1.2132   -0.0303 B   0  0  0  0  0  0  0  0  0  0  0  0
    2.4868   -0.0365    0.0309 F   0  0  0  0  0  0  0  0  0  0  0  0
    3.5280    1.7456    1.0123 F   0  0  0  0  0  0  0  0  0  0  0  0
    2.8197    1.8861   -1.1582 F   0  0  0  0  0  0  0  0  0  0  0  0
    0.7256    2.1296    0.7944 F   0  0  0  0  0  0  0  0  0  0  0  0
  1  6  1  0  0  0  0
  2  1  2  0  0  0  0
  2  3  1  0  0  0  0
  3  4  2  0  0  0  0
  4  5  1  0  0  0  0
  4  9  1  0  0  0  0
  5 10  1  0  0  0  0
  6 11  1  0  0  0  0
  6  5  2  0  0  0  0
  7  1  1  0  0  0  0
  8  2  1  0  0  0  0
 11 13  2  0  0  0  0
 12 11  2  0  0  0  0
 14 15  3  0  0  0  0
 16 17  1  0  0  0  0
 16 18  1  0  0  0  0
 19 16  1  0  0  0  0
 20  3  1  0  0  0  0
M  END
