Coordinates from ORCA-job 4-NO2-Ph-N2-BF4-B3LYPG-6-31G_dp-MTMO-d009-169-n800
 OpenBabel09051908343D

 20 18  0  0  0  0  0  0  0  0999 V2000
   -1.6768   -0.2714    0.5539 C   0  0  0  0  0  0  0  0  0  0  0  0
   -0.3718    0.2022    0.4546 C   0  0  0  0  0  0  0  0  0  0  0  0
   -0.1436    1.5559    0.6799 C   0  0  0  0  0  0  0  0  0  0  0  0
   -1.1560    2.4555    0.9984 C   0  0  0  0  0  0  0  0  0  0  0  0
   -2.4593    1.9779    1.0966 C   0  0  0  0  0  0  0  0  0  0  0  0
   -2.6991    0.6221    0.8727 C   0  0  0  0  0  0  0  0  0  0  0  0
   -1.9146   -1.3145    0.3880 H   0  0  0  0  0  0  0  0  0  0  0  0
    0.4568   -0.4505    0.2085 H   0  0  0  0  0  0  0  0  0  0  0  0
   -0.9170    3.4997    1.1645 H   0  0  0  0  0  0  0  0  0  0  0  0
   -3.2866    2.6317    1.3415 H   0  0  0  0  0  0  0  0  0  0  0  0
   -4.0766    0.1188    0.9764 N   0  0  0  0  0  0  0  0  0  0  0  0
   -4.2608   -1.0806    0.7742 O   0  0  0  0  0  0  0  0  0  0  0  0
   -4.9586    0.9287    1.2592 O   0  0  0  0  0  0  0  0  0  0  0  0
    8.6771    0.0059   -2.0084 N   0  0  0  0  0  0  0  0  0  0  0  0
    7.6298    0.1132   -1.6717 N   0  0  0  0  0  0  0  0  0  0  0  0
    3.3064    1.0345   -0.2548 B   0  0  0  0  0  0  0  0  0  0  0  0
    2.8184   -0.1972   -0.2134 F   0  0  0  0  0  0  0  0  0  0  0  0
    3.9256    1.5279    0.7975 F   0  0  0  0  0  0  0  0  0  0  0  0
    3.2271    1.7296   -1.3712 F   0  0  0  0  0  0  0  0  0  0  0  0
    1.1230    2.0296    0.5867 F   0  0  0  0  0  0  0  0  0  0  0  0
  1  6  1  0  0  0  0
  2  1  2  0  0  0  0
  2  3  1  0  0  0  0
  3  4  2  0  0  0  0
  4  5  1  0  0  0  0
  4  9  1  0  0  0  0
  5 10  1  0  0  0  0
  6 11  1  0  0  0  0
  6  5  2  0  0  0  0
  7  1  1  0  0  0  0
  8  2  1  0  0  0  0
 11 13  2  0  0  0  0
 12 11  2  0  0  0  0
 14 15  3  0  0  0  0
 16 17  1  0  0  0  0
 16 18  1  0  0  0  0
 19 16  1  0  0  0  0
 20  3  1  0  0  0  0
M  END
