Coordinates from ORCA-job 4-NO2-Ph-N2-BF4-B3LYPG-6-31G_dp-MTMO-d009-169-n800
 OpenBabel09051908343D

 20 18  0  0  0  0  0  0  0  0999 V2000
   -2.0094   -0.2347    0.6559 C   0  0  0  0  0  0  0  0  0  0  0  0
   -0.7122    0.2668    0.6021 C   0  0  0  0  0  0  0  0  0  0  0  0
   -0.5210    1.6242    0.8381 C   0  0  0  0  0  0  0  0  0  0  0  0
   -1.5624    2.5013    1.1238 C   0  0  0  0  0  0  0  0  0  0  0  0
   -2.8578    1.9958    1.1767 C   0  0  0  0  0  0  0  0  0  0  0  0
   -3.0608    0.6360    0.9419 C   0  0  0  0  0  0  0  0  0  0  0  0
   -2.2193   -1.2821    0.4798 H   0  0  0  0  0  0  0  0  0  0  0  0
    0.1377   -0.3677    0.3826 H   0  0  0  0  0  0  0  0  0  0  0  0
   -1.3515    3.5499    1.3002 H   0  0  0  0  0  0  0  0  0  0  0  0
   -3.7068    2.6310    1.3950 H   0  0  0  0  0  0  0  0  0  0  0  0
   -4.4299    0.1030    0.9982 N   0  0  0  0  0  0  0  0  0  0  0  0
   -4.5814   -1.0996    0.7882 O   0  0  0  0  0  0  0  0  0  0  0  0
   -5.3381    0.8932    1.2521 O   0  0  0  0  0  0  0  0  0  0  0  0
   11.9779   -0.5480   -3.1404 N   0  0  0  0  0  0  0  0  0  0  0  0
   10.9334   -0.4603   -2.7898 N   0  0  0  0  0  0  0  0  0  0  0  0
    2.9367    1.2072   -0.0342 B   0  0  0  0  0  0  0  0  0  0  0  0
    2.4977   -0.0421    0.0267 F   0  0  0  0  0  0  0  0  0  0  0  0
    3.5403    1.7390    1.0085 F   0  0  0  0  0  0  0  0  0  0  0  0
    2.8327    1.8803   -1.1621 F   0  0  0  0  0  0  0  0  0  0  0  0
    0.7377    2.1256    0.7901 F   0  0  0  0  0  0  0  0  0  0  0  0
  1  6  1  0  0  0  0
  2  1  2  0  0  0  0
  2  3  1  0  0  0  0
  3  4  2  0  0  0  0
  4  5  1  0  0  0  0
  4  9  1  0  0  0  0
  5 10  1  0  0  0  0
  6 11  1  0  0  0  0
  6  5  2  0  0  0  0
  7  1  1  0  0  0  0
  8  2  1  0  0  0  0
 11 13  2  0  0  0  0
 12 11  2  0  0  0  0
 14 15  3  0  0  0  0
 16 17  1  0  0  0  0
 16 18  1  0  0  0  0
 19 16  1  0  0  0  0
 20  3  1  0  0  0  0
M  END
