Coordinates from ORCA-job 4-NO2-Ph-N2-BF4-B3LYPG-6-31G_dp-MTMO-d009-169-n800
 OpenBabel09051908343D

 20 18  0  0  0  0  0  0  0  0999 V2000
   -2.1161   -0.2205    0.6773 C   0  0  0  0  0  0  0  0  0  0  0  0
   -0.8238    0.2938    0.6262 C   0  0  0  0  0  0  0  0  0  0  0  0
   -0.6448    1.6502    0.8772 C   0  0  0  0  0  0  0  0  0  0  0  0
   -1.6941    2.5138    1.1755 C   0  0  0  0  0  0  0  0  0  0  0  0
   -2.9845    1.9955    1.2258 C   0  0  0  0  0  0  0  0  0  0  0  0
   -3.1750    0.6366    0.9758 C   0  0  0  0  0  0  0  0  0  0  0  0
   -2.3163   -1.2678    0.4897 H   0  0  0  0  0  0  0  0  0  0  0  0
    0.0312   -0.3304    0.3976 H   0  0  0  0  0  0  0  0  0  0  0  0
   -1.4927    3.5622    1.3634 H   0  0  0  0  0  0  0  0  0  0  0  0
   -3.8388    2.6200    1.4535 H   0  0  0  0  0  0  0  0  0  0  0  0
   -4.5388    0.0898    1.0293 N   0  0  0  0  0  0  0  0  0  0  0  0
   -4.6792   -1.1116    0.8051 O   0  0  0  0  0  0  0  0  0  0  0  0
   -5.4538    0.8681    1.2951 O   0  0  0  0  0  0  0  0  0  0  0  0
   13.0471   -0.7498   -3.4447 N   0  0  0  0  0  0  0  0  0  0  0  0
   12.0014   -0.6530   -3.1001 N   0  0  0  0  0  0  0  0  0  0  0  0
    2.8129    1.2753   -0.0052 B   0  0  0  0  0  0  0  0  0  0  0  0
    2.3895    0.0207    0.0569 F   0  0  0  0  0  0  0  0  0  0  0  0
    3.4157    1.8134    1.0347 F   0  0  0  0  0  0  0  0  0  0  0  0
    2.6945    1.9481   -1.1319 F   0  0  0  0  0  0  0  0  0  0  0  0
    0.6087    2.1646    0.8320 F   0  0  0  0  0  0  0  0  0  0  0  0
  1  6  1  0  0  0  0
  2  1  2  0  0  0  0
  2  3  1  0  0  0  0
  3  4  2  0  0  0  0
  4  5  1  0  0  0  0
  4  9  1  0  0  0  0
  5 10  1  0  0  0  0
  6 11  1  0  0  0  0
  6  5  2  0  0  0  0
  7  1  1  0  0  0  0
  8  2  1  0  0  0  0
 11 13  2  0  0  0  0
 12 11  2  0  0  0  0
 14 15  3  0  0  0  0
 16 17  1  0  0  0  0
 16 18  1  0  0  0  0
 19 16  1  0  0  0  0
 20  3  1  0  0  0  0
M  END
