Coordinates from ORCA-job 4-NO2-Ph-N2-BF4-B3LYPG-6-31G_dp-MTMO-d009-169-n800
 OpenBabel09051908343D

 20 18  0  0  0  0  0  0  0  0999 V2000
   -1.7857   -0.2611    0.5960 C   0  0  0  0  0  0  0  0  0  0  0  0
   -0.4818    0.2205    0.5248 C   0  0  0  0  0  0  0  0  0  0  0  0
   -0.2678    1.5767    0.7485 C   0  0  0  0  0  0  0  0  0  0  0  0
   -1.2929    2.4714    1.0384 C   0  0  0  0  0  0  0  0  0  0  0  0
   -2.5952    1.9858    1.1086 C   0  0  0  0  0  0  0  0  0  0  0  0
   -2.8209    0.6274    0.8862 C   0  0  0  0  0  0  0  0  0  0  0  0
   -2.0130   -1.3065    0.4300 H   0  0  0  0  0  0  0  0  0  0  0  0
    0.3563   -0.4280    0.3012 H   0  0  0  0  0  0  0  0  0  0  0  0
   -1.0646    3.5180    1.2047 H   0  0  0  0  0  0  0  0  0  0  0  0
   -3.4322    2.6353    1.3308 H   0  0  0  0  0  0  0  0  0  0  0  0
   -4.1972    0.1156    0.9607 N   0  0  0  0  0  0  0  0  0  0  0  0
   -4.3688   -1.0862    0.7615 O   0  0  0  0  0  0  0  0  0  0  0  0
   -5.0908    0.9213    1.2178 O   0  0  0  0  0  0  0  0  0  0  0  0
    9.7859   -0.1731   -2.4430 N   0  0  0  0  0  0  0  0  0  0  0  0
    8.7432   -0.0903   -2.0857 N   0  0  0  0  0  0  0  0  0  0  0  0
    3.1784    1.0946   -0.1516 B   0  0  0  0  0  0  0  0  0  0  0  0
    2.7139   -0.1458   -0.0951 F   0  0  0  0  0  0  0  0  0  0  0  0
    3.7951    1.6094    0.8919 F   0  0  0  0  0  0  0  0  0  0  0  0
    3.0839    1.7751   -1.2758 F   0  0  0  0  0  0  0  0  0  0  0  0
    0.9975    2.0586    0.6833 F   0  0  0  0  0  0  0  0  0  0  0  0
  1  6  1  0  0  0  0
  2  1  2  0  0  0  0
  2  3  1  0  0  0  0
  3  4  2  0  0  0  0
  4  5  1  0  0  0  0
  4  9  1  0  0  0  0
  5 10  1  0  0  0  0
  6 11  1  0  0  0  0
  6  5  2  0  0  0  0
  7  1  1  0  0  0  0
  8  2  1  0  0  0  0
 11 13  2  0  0  0  0
 12 11  2  0  0  0  0
 14 15  3  0  0  0  0
 16 17  1  0  0  0  0
 16 18  1  0  0  0  0
 19 16  1  0  0  0  0
 20  3  1  0  0  0  0
M  END
