Coordinates from ORCA-job 4-NO2-Ph-N2-BF4-B3LYPG-6-31G_dp-MTMO-d009-169-n800
 OpenBabel09051908343D

 20 19  0  0  0  0  0  0  0  0999 V2000
   -1.1196   -0.1196    0.5548 C   0  0  0  0  0  0  0  0  0  0  0  0
    0.2199    0.1320    0.2635 C   0  0  0  0  0  0  0  0  0  0  0  0
    0.4960    1.3959   -0.2447 C   0  0  0  0  0  0  0  0  0  0  0  0
   -0.4224    2.4176   -0.4824 C   0  0  0  0  0  0  0  0  0  0  0  0
   -1.7489    2.1402   -0.1710 C   0  0  0  0  0  0  0  0  0  0  0  0
   -2.0654    0.8800    0.3365 C   0  0  0  0  0  0  0  0  0  0  0  0
   -1.4332   -1.0756    0.9548 H   0  0  0  0  0  0  0  0  0  0  0  0
    1.0284   -0.5803    0.4115 H   0  0  0  0  0  0  0  0  0  0  0  0
   -0.1192    3.3784   -0.8802 H   0  0  0  0  0  0  0  0  0  0  0  0
   -2.5312    2.8739   -0.3159 H   0  0  0  0  0  0  0  0  0  0  0  0
   -3.4861    0.5941    0.6567 N   0  0  0  0  0  0  0  0  0  0  0  0
   -3.7465   -0.5200    1.0958 O   0  0  0  0  0  0  0  0  0  0  0  0
   -4.2950    1.4948    0.4549 O   0  0  0  0  0  0  0  0  0  0  0  0
    1.9158    1.7086   -0.6174 N   0  0  0  0  0  0  0  0  0  0  0  0
    2.9182    2.0106   -0.9856 N   0  0  0  0  0  0  0  0  0  0  0  0
    3.5578    0.0574    1.1524 B   0  0  0  0  0  0  0  0  0  0  0  0
    2.9061   -0.8285    0.2374 F   0  0  0  0  0  0  0  0  0  0  0  0
    4.1838   -0.6219    2.1571 F   0  0  0  0  0  0  0  0  0  0  0  0
    4.4471    0.8583    0.3989 F   0  0  0  0  0  0  0  0  0  0  0  0
    2.5378    0.9231    1.6561 F   0  0  0  0  0  0  0  0  0  0  0  0
  1  7  1  0  0  0  0
  2  8  1  0  0  0  0
  2  1  2  0  0  0  0
  3  2  1  0  0  0  0
  4  3  2  0  0  0  0
  4  5  1  0  0  0  0
  5  6  2  0  0  0  0
  6  1  1  0  0  0  0
  6 11  1  0  0  0  0
  9  4  1  0  0  0  0
 10  5  1  0  0  0  0
 11 12  2  0  0  0  0
 13 11  2  0  0  0  0
 14  3  1  0  0  0  0
 15 14  1  0  0  0  0
 16 20  1  0  0  0  0
 16 18  1  0  0  0  0
 17 16  1  0  0  0  0
 19 16  1  0  0  0  0
M  RAD  2  14   2  15   3
M  END
