Coordinates from ORCA-job 4-NO2-Ph-N2-BF4-B3LYPG-6-31G_dp-MTMO-d009-169-n800
 OpenBabel09051908343D

 20 18  0  0  0  0  0  0  0  0999 V2000
   -1.6579   -0.2740    0.5399 C   0  0  0  0  0  0  0  0  0  0  0  0
   -0.3505    0.1871    0.4162 C   0  0  0  0  0  0  0  0  0  0  0  0
   -0.1048    1.5384    0.6377 C   0  0  0  0  0  0  0  0  0  0  0  0
   -1.1022    2.4475    0.9761 C   0  0  0  0  0  0  0  0  0  0  0  0
   -2.4080    1.9825    1.0987 C   0  0  0  0  0  0  0  0  0  0  0  0
   -2.6653    0.6292    0.8786 C   0  0  0  0  0  0  0  0  0  0  0  0
   -1.9090   -1.3146    0.3782 H   0  0  0  0  0  0  0  0  0  0  0  0
    0.4674   -0.4731    0.1545 H   0  0  0  0  0  0  0  0  0  0  0  0
   -0.8502    3.4893    1.1381 H   0  0  0  0  0  0  0  0  0  0  0  0
   -3.2242    2.6441    1.3596 H   0  0  0  0  0  0  0  0  0  0  0  0
   -4.0453    0.1393    1.0080 N   0  0  0  0  0  0  0  0  0  0  0  0
   -4.2452   -1.0579    0.8075 O   0  0  0  0  0  0  0  0  0  0  0  0
   -4.9138    0.9572    1.3090 O   0  0  0  0  0  0  0  0  0  0  0  0
    8.3309    0.1542   -1.8023 N   0  0  0  0  0  0  0  0  0  0  0  0
    7.2771    0.2740   -1.4913 N   0  0  0  0  0  0  0  0  0  0  0  0
    3.3587    0.9597   -0.3187 B   0  0  0  0  0  0  0  0  0  0  0  0
    2.8419   -0.2605   -0.2849 F   0  0  0  0  0  0  0  0  0  0  0  0
    3.9827    1.4347    0.7392 F   0  0  0  0  0  0  0  0  0  0  0  0
    3.2967    1.6630   -1.4307 F   0  0  0  0  0  0  0  0  0  0  0  0
    1.1642    1.9989    0.5198 F   0  0  0  0  0  0  0  0  0  0  0  0
  1  6  1  0  0  0  0
  2  1  2  0  0  0  0
  2  3  1  0  0  0  0
  3  4  2  0  0  0  0
  4  5  1  0  0  0  0
  4  9  1  0  0  0  0
  5 10  1  0  0  0  0
  6 11  1  0  0  0  0
  6  5  2  0  0  0  0
  7  1  1  0  0  0  0
  8  2  1  0  0  0  0
 11 13  2  0  0  0  0
 12 11  2  0  0  0  0
 14 15  3  0  0  0  0
 16 17  1  0  0  0  0
 16 18  1  0  0  0  0
 19 16  1  0  0  0  0
 20  3  1  0  0  0  0
M  END
