Coordinates from ORCA-job 4-NO2-Ph-N2-BF4-B3LYPG-6-31G_dp-MTMO-d009-169-n800
 OpenBabel09051908343D

 20 18  0  0  0  0  0  0  0  0999 V2000
   -1.4927   -0.3413    0.7816 C   0  0  0  0  0  0  0  0  0  0  0  0
   -0.1431   -0.1626    0.4931 C   0  0  0  0  0  0  0  0  0  0  0  0
    0.2976    1.1173    0.1728 C   0  0  0  0  0  0  0  0  0  0  0  0
   -0.5443    2.2236    0.1293 C   0  0  0  0  0  0  0  0  0  0  0  0
   -1.8932    2.0405    0.4180 C   0  0  0  0  0  0  0  0  0  0  0  0
   -2.3460    0.7611    0.7394 C   0  0  0  0  0  0  0  0  0  0  0  0
   -1.8928   -1.3139    1.0383 H   0  0  0  0  0  0  0  0  0  0  0  0
    0.5604   -0.9859    0.5156 H   0  0  0  0  0  0  0  0  0  0  0  0
   -0.1430    3.1970   -0.1277 H   0  0  0  0  0  0  0  0  0  0  0  0
   -2.5946    2.8649    0.3990 H   0  0  0  0  0  0  0  0  0  0  0  0
   -3.7716    0.5687    1.0442 N   0  0  0  0  0  0  0  0  0  0  0  0
   -4.1454   -0.5695    1.3235 O   0  0  0  0  0  0  0  0  0  0  0  0
   -4.5017    1.5580    1.0010 O   0  0  0  0  0  0  0  0  0  0  0  0
    4.5430    2.1527   -2.4281 N   0  0  0  0  0  0  0  0  0  0  0  0
    5.6103    2.2413   -2.7008 N   0  0  0  0  0  0  0  0  0  0  0  0
    3.5081    0.1296    0.9783 B   0  0  0  0  0  0  0  0  0  0  0  0
    3.0040   -1.0548    0.6654 F   0  0  0  0  0  0  0  0  0  0  0  0
    3.1915    0.6898    2.1290 F   0  0  0  0  0  0  0  0  0  0  0  0
    4.3868    0.6997    0.1782 F   0  0  0  0  0  0  0  0  0  0  0  0
    1.6101    1.3026   -0.1169 F   0  0  0  0  0  0  0  0  0  0  0  0
  1  7  1  0  0  0  0
  2  8  1  0  0  0  0
  2  1  2  0  0  0  0
  3  2  1  0  0  0  0
  4  3  2  0  0  0  0
  4  5  1  0  0  0  0
  5  6  2  0  0  0  0
  6  1  1  0  0  0  0
  6 11  1  0  0  0  0
  9  4  1  0  0  0  0
 10  5  1  0  0  0  0
 11 12  2  0  0  0  0
 13 11  2  0  0  0  0
 15 14  3  0  0  0  0
 16 18  1  0  0  0  0
 17 16  1  0  0  0  0
 19 16  1  0  0  0  0
 20  3  1  0  0  0  0
M  END
