Coordinates from ORCA-job 4-NO2-Ph-N2-BF4-B3LYPG-6-31G_dp-MTMO-d009-169-n800
 OpenBabel09051908343D

 20 18  0  0  0  0  0  0  0  0999 V2000
   -1.1793   -0.3129    0.6458 C   0  0  0  0  0  0  0  0  0  0  0  0
    0.0813    0.1862    0.9599 C   0  0  0  0  0  0  0  0  0  0  0  0
    0.2110    1.5522    1.1880 C   0  0  0  0  0  0  0  0  0  0  0  0
   -0.8572    2.4401    1.1143 C   0  0  0  0  0  0  0  0  0  0  0  0
   -2.1164    1.9373    0.8010 C   0  0  0  0  0  0  0  0  0  0  0  0
   -2.2575    0.5688    0.5717 C   0  0  0  0  0  0  0  0  0  0  0  0
   -1.3401   -1.3666    0.4563 H   0  0  0  0  0  0  0  0  0  0  0  0
    0.9506   -0.4565    1.0246 H   0  0  0  0  0  0  0  0  0  0  0  0
   -0.6953    3.4952    1.3031 H   0  0  0  0  0  0  0  0  0  0  0  0
   -2.9841    2.5809    0.7308 H   0  0  0  0  0  0  0  0  0  0  0  0
   -3.5883    0.0385    0.2413 N   0  0  0  0  0  0  0  0  0  0  0  0
   -3.6856   -1.1719    0.0434 O   0  0  0  0  0  0  0  0  0  0  0  0
   -4.5212    0.8385    0.1834 O   0  0  0  0  0  0  0  0  0  0  0  0
    5.1881   -0.6147   -2.6831 N   0  0  0  0  0  0  0  0  0  0  0  0
    5.0067    0.0680   -1.8342 N   0  0  0  0  0  0  0  0  0  0  0  0
    3.3940    1.3293    0.1013 B   0  0  0  0  0  0  0  0  0  0  0  0
    3.3615    0.1343    0.6720 F   0  0  0  0  0  0  0  0  0  0  0  0
    4.2074    2.2572    0.5615 F   0  0  0  0  0  0  0  0  0  0  0  0
    2.6355    1.5678   -0.9529 F   0  0  0  0  0  0  0  0  0  0  0  0
    1.4323    2.0472    1.5050 F   0  0  0  0  0  0  0  0  0  0  0  0
  1  2  1  0  0  0  0
  2  8  1  0  0  0  0
  2  3  2  0  0  0  0
  3 20  1  0  0  0  0
  4  3  1  0  0  0  0
  4  9  1  0  0  0  0
  5  4  2  0  0  0  0
  6  1  2  0  0  0  0
  6  5  1  0  0  0  0
  7  1  1  0  0  0  0
 10  5  1  0  0  0  0
 11  6  1  0  0  0  0
 12 11  2  0  0  0  0
 13 11  2  0  0  0  0
 14 15  3  0  0  0  0
 16 18  1  0  0  0  0
 16 17  1  0  0  0  0
 19 16  1  0  0  0  0
M  END
