Coordinates from ORCA-job 4-NO2-Ph-N2-BF4-B3LYPG-6-31G_dp-MTMO-d009-169-n800
 OpenBabel09051908343D

 20 19  0  0  0  0  0  0  0  0999 V2000
   -1.0926   -0.1178    0.5287 C   0  0  0  0  0  0  0  0  0  0  0  0
    0.2470    0.1561    0.2016 C   0  0  0  0  0  0  0  0  0  0  0  0
    0.3684    1.4208   -0.2687 C   0  0  0  0  0  0  0  0  0  0  0  0
   -0.4757    2.4694   -0.4913 C   0  0  0  0  0  0  0  0  0  0  0  0
   -1.7934    2.1427   -0.1401 C   0  0  0  0  0  0  0  0  0  0  0  0
   -2.0661    0.8669    0.3548 C   0  0  0  0  0  0  0  0  0  0  0  0
   -1.3685   -1.0870    0.9268 H   0  0  0  0  0  0  0  0  0  0  0  0
    1.1031   -0.5228    0.3215 H   0  0  0  0  0  0  0  0  0  0  0  0
   -0.1838    3.4347   -0.8807 H   0  0  0  0  0  0  0  0  0  0  0  0
   -2.5930    2.8648   -0.2508 H   0  0  0  0  0  0  0  0  0  0  0  0
   -3.4672    0.5459    0.7133 N   0  0  0  0  0  0  0  0  0  0  0  0
   -3.6897   -0.5807    1.1411 O   0  0  0  0  0  0  0  0  0  0  0  0
   -4.3006    1.4325    0.5524 O   0  0  0  0  0  0  0  0  0  0  0  0
    2.1485    1.8374   -0.7907 N   0  0  0  0  0  0  0  0  0  0  0  0
    3.1724    2.0493   -1.1464 N   0  0  0  0  0  0  0  0  0  0  0  0
    3.4823    0.0324    1.2047 B   0  0  0  0  0  0  0  0  0  0  0  0
    2.8250   -0.8683    0.2854 F   0  0  0  0  0  0  0  0  0  0  0  0
    3.9256   -0.6455    2.3068 F   0  0  0  0  0  0  0  0  0  0  0  0
    4.5058    0.6828    0.5062 F   0  0  0  0  0  0  0  0  0  0  0  0
    2.4957    1.0053    1.5586 F   0  0  0  0  0  0  0  0  0  0  0  0
  1  7  1  0  0  0  0
  2  8  1  0  0  0  0
  2  1  2  0  0  0  0
  3  2  1  0  0  0  0
  4  3  2  0  0  0  0
  4  5  1  0  0  0  0
  5  6  2  0  0  0  0
  6  1  1  0  0  0  0
  6 11  1  0  0  0  0
  9  4  1  0  0  0  0
 10  5  1  0  0  0  0
 11 12  2  0  0  0  0
 13 11  2  0  0  0  0
 14  3  1  0  0  0  0
 15 14  1  0  0  0  0
 16 20  1  0  0  0  0
 16 18  1  0  0  0  0
 17 16  1  0  0  0  0
 19 16  1  0  0  0  0
M  RAD  2  14   2  15   3
M  END
