Coordinates from ORCA-job 4-NO2-Ph-N2-BF4-B3LYPG-6-31G_dp-MTMO-d009-169-n800
 OpenBabel09051908343D

 20 19  0  0  0  0  0  0  0  0999 V2000
   -1.1259   -0.1221    0.5636 C   0  0  0  0  0  0  0  0  0  0  0  0
    0.2172    0.1303    0.2695 C   0  0  0  0  0  0  0  0  0  0  0  0
    0.4436    1.3906   -0.2323 C   0  0  0  0  0  0  0  0  0  0  0  0
   -0.4381    2.4236   -0.4819 C   0  0  0  0  0  0  0  0  0  0  0  0
   -1.7664    2.1347   -0.1669 C   0  0  0  0  0  0  0  0  0  0  0  0
   -2.0762    0.8742    0.3436 C   0  0  0  0  0  0  0  0  0  0  0  0
   -1.4345   -1.0786    0.9666 H   0  0  0  0  0  0  0  0  0  0  0  0
    1.0385   -0.5709    0.4129 H   0  0  0  0  0  0  0  0  0  0  0  0
   -0.1319    3.3817   -0.8812 H   0  0  0  0  0  0  0  0  0  0  0  0
   -2.5517    2.8652   -0.3134 H   0  0  0  0  0  0  0  0  0  0  0  0
   -3.4942    0.5830    0.6657 N   0  0  0  0  0  0  0  0  0  0  0  0
   -3.7490   -0.5305    1.1099 O   0  0  0  0  0  0  0  0  0  0  0  0
   -4.3079    1.4788    0.4609 O   0  0  0  0  0  0  0  0  0  0  0  0
    2.0142    1.7360   -0.6480 N   0  0  0  0  0  0  0  0  0  0  0  0
    3.0056    2.0391   -1.0344 N   0  0  0  0  0  0  0  0  0  0  0  0
    3.5548    0.0590    1.1509 B   0  0  0  0  0  0  0  0  0  0  0  0
    2.8881   -0.7924    0.2064 F   0  0  0  0  0  0  0  0  0  0  0  0
    4.0984   -0.6622    2.1750 F   0  0  0  0  0  0  0  0  0  0  0  0
    4.5065    0.8137    0.4415 F   0  0  0  0  0  0  0  0  0  0  0  0
    2.5524    0.9657    1.6246 F   0  0  0  0  0  0  0  0  0  0  0  0
  1  7  1  0  0  0  0
  2  8  1  0  0  0  0
  2  1  2  0  0  0  0
  3  2  1  0  0  0  0
  4  3  2  0  0  0  0
  4  5  1  0  0  0  0
  5  6  2  0  0  0  0
  6  1  1  0  0  0  0
  6 11  1  0  0  0  0
  9  4  1  0  0  0  0
 10  5  1  0  0  0  0
 11 12  2  0  0  0  0
 13 11  2  0  0  0  0
 14  3  1  0  0  0  0
 15 14  1  0  0  0  0
 16 20  1  0  0  0  0
 16 18  1  0  0  0  0
 17 16  1  0  0  0  0
 19 16  1  0  0  0  0
M  RAD  2  14   2  15   3
M  END
