Coordinates from ORCA-job 4-NO2-Ph-N2-BF4-B3LYPG-6-31G_dp-MTMO-d009-169-n800
 OpenBabel09051908343D

 20 18  0  0  0  0  0  0  0  0999 V2000
   -1.7723   -0.2623    0.5911 C   0  0  0  0  0  0  0  0  0  0  0  0
   -0.4681    0.2182    0.5170 C   0  0  0  0  0  0  0  0  0  0  0  0
   -0.2524    1.5742    0.7408 C   0  0  0  0  0  0  0  0  0  0  0  0
   -1.2763    2.4694    1.0336 C   0  0  0  0  0  0  0  0  0  0  0  0
   -2.5787    1.9849    1.1067 C   0  0  0  0  0  0  0  0  0  0  0  0
   -2.8061    0.6267    0.8842 C   0  0  0  0  0  0  0  0  0  0  0  0
   -2.0006   -1.3075    0.4252 H   0  0  0  0  0  0  0  0  0  0  0  0
    0.3688   -0.4310    0.2911 H   0  0  0  0  0  0  0  0  0  0  0  0
   -1.0468    3.5157    1.1997 H   0  0  0  0  0  0  0  0  0  0  0  0
   -3.4147    2.6350    1.3312 H   0  0  0  0  0  0  0  0  0  0  0  0
   -4.1825    0.1159    0.9618 N   0  0  0  0  0  0  0  0  0  0  0  0
   -4.3556   -1.0856    0.7623 O   0  0  0  0  0  0  0  0  0  0  0  0
   -5.0749    0.9221    1.2215 O   0  0  0  0  0  0  0  0  0  0  0  0
    9.6533   -0.1517   -2.3933 N   0  0  0  0  0  0  0  0  0  0  0  0
    8.6104   -0.0671   -2.0373 N   0  0  0  0  0  0  0  0  0  0  0  0
    3.1923    1.0879   -0.1627 B   0  0  0  0  0  0  0  0  0  0  0  0
    2.7253   -0.1515   -0.1079 F   0  0  0  0  0  0  0  0  0  0  0  0
    3.8097    1.6002    0.8816 F   0  0  0  0  0  0  0  0  0  0  0  0
    3.0994    1.7701   -1.2861 F   0  0  0  0  0  0  0  0  0  0  0  0
    1.0131    2.0554    0.6728 F   0  0  0  0  0  0  0  0  0  0  0  0
  1  6  1  0  0  0  0
  2  1  2  0  0  0  0
  2  3  1  0  0  0  0
  3  4  2  0  0  0  0
  4  5  1  0  0  0  0
  4  9  1  0  0  0  0
  5 10  1  0  0  0  0
  6 11  1  0  0  0  0
  6  5  2  0  0  0  0
  7  1  1  0  0  0  0
  8  2  1  0  0  0  0
 11 13  2  0  0  0  0
 12 11  2  0  0  0  0
 14 15  3  0  0  0  0
 16 17  1  0  0  0  0
 16 18  1  0  0  0  0
 19 16  1  0  0  0  0
 20  3  1  0  0  0  0
M  END
