Coordinates from ORCA-job 4-NO2-Ph-N2-BF4-B3LYPG-6-31G_dp-MTMO-d009-169-n800
 OpenBabel09051908343D

 20 18  0  0  0  0  0  0  0  0999 V2000
   -1.9707   -0.2393    0.6469 C   0  0  0  0  0  0  0  0  0  0  0  0
   -0.6722    0.2588    0.5921 C   0  0  0  0  0  0  0  0  0  0  0  0
   -0.4776    1.6164    0.8248 C   0  0  0  0  0  0  0  0  0  0  0  0
   -1.5171    2.4965    1.1082 C   0  0  0  0  0  0  0  0  0  0  0  0
   -2.8138    1.9944    1.1621 C   0  0  0  0  0  0  0  0  0  0  0  0
   -3.0200    0.6345    0.9305 C   0  0  0  0  0  0  0  0  0  0  0  0
   -2.1830   -1.2866    0.4732 H   0  0  0  0  0  0  0  0  0  0  0  0
    0.1759   -0.3785    0.3743 H   0  0  0  0  0  0  0  0  0  0  0  0
   -1.3037    3.5450    1.2821 H   0  0  0  0  0  0  0  0  0  0  0  0
   -3.6612    2.6323    1.3787 H   0  0  0  0  0  0  0  0  0  0  0  0
   -4.3905    0.1050    0.9879 N   0  0  0  0  0  0  0  0  0  0  0  0
   -4.5448   -1.0978    0.7808 O   0  0  0  0  0  0  0  0  0  0  0  0
   -5.2968    0.8980    1.2396 O   0  0  0  0  0  0  0  0  0  0  0  0
   11.6044   -0.4839   -3.0306 N   0  0  0  0  0  0  0  0  0  0  0  0
   10.5604   -0.3988   -2.6778 N   0  0  0  0  0  0  0  0  0  0  0  0
    2.9780    1.1881   -0.0479 B   0  0  0  0  0  0  0  0  0  0  0  0
    2.5348   -0.0597    0.0132 F   0  0  0  0  0  0  0  0  0  0  0  0
    3.5832    1.7181    0.9949 F   0  0  0  0  0  0  0  0  0  0  0  0
    2.8761    1.8614   -1.1758 F   0  0  0  0  0  0  0  0  0  0  0  0
    0.7821    2.1148    0.7760 F   0  0  0  0  0  0  0  0  0  0  0  0
  1  6  1  0  0  0  0
  2  1  2  0  0  0  0
  2  3  1  0  0  0  0
  3  4  2  0  0  0  0
  4  5  1  0  0  0  0
  4  9  1  0  0  0  0
  5 10  1  0  0  0  0
  6 11  1  0  0  0  0
  6  5  2  0  0  0  0
  7  1  1  0  0  0  0
  8  2  1  0  0  0  0
 11 13  2  0  0  0  0
 12 11  2  0  0  0  0
 14 15  3  0  0  0  0
 16 17  1  0  0  0  0
 16 18  1  0  0  0  0
 19 16  1  0  0  0  0
 20  3  1  0  0  0  0
M  END
