Coordinates from ORCA-job 4-NO2-Ph-N2-BF4-B3LYPG-6-31G_dp-MTMO-d009-169-n800
 OpenBabel09051908343D

 20 18  0  0  0  0  0  0  0  0999 V2000
   -2.0251   -0.2327    0.6594 C   0  0  0  0  0  0  0  0  0  0  0  0
   -0.7284    0.2702    0.6060 C   0  0  0  0  0  0  0  0  0  0  0  0
   -0.5386    1.6276    0.8435 C   0  0  0  0  0  0  0  0  0  0  0  0
   -1.5809    2.5032    1.1304 C   0  0  0  0  0  0  0  0  0  0  0  0
   -2.8758    1.9963    1.1829 C   0  0  0  0  0  0  0  0  0  0  0  0
   -3.0773    0.6365    0.9466 C   0  0  0  0  0  0  0  0  0  0  0  0
   -2.2339   -1.2801    0.4821 H   0  0  0  0  0  0  0  0  0  0  0  0
    0.1221   -0.3631    0.3857 H   0  0  0  0  0  0  0  0  0  0  0  0
   -1.3712    3.5518    1.3080 H   0  0  0  0  0  0  0  0  0  0  0  0
   -3.7254    2.6303    1.4021 H   0  0  0  0  0  0  0  0  0  0  0  0
   -4.4459    0.1020    1.0025 N   0  0  0  0  0  0  0  0  0  0  0  0
   -4.5961   -1.1005    0.7911 O   0  0  0  0  0  0  0  0  0  0  0  0
   -5.3549    0.8909    1.2576 O   0  0  0  0  0  0  0  0  0  0  0  0
   12.1309   -0.5747   -3.1850 N   0  0  0  0  0  0  0  0  0  0  0  0
   11.0862   -0.4859   -2.8352 N   0  0  0  0  0  0  0  0  0  0  0  0
    2.9195    1.2153   -0.0290 B   0  0  0  0  0  0  0  0  0  0  0  0
    2.4823   -0.0347    0.0320 F   0  0  0  0  0  0  0  0  0  0  0  0
    3.5226    1.7479    1.0135 F   0  0  0  0  0  0  0  0  0  0  0  0
    2.8142    1.8882   -1.1569 F   0  0  0  0  0  0  0  0  0  0  0  0
    0.7194    2.1304    0.7959 F   0  0  0  0  0  0  0  0  0  0  0  0
  1  6  1  0  0  0  0
  2  1  2  0  0  0  0
  2  3  1  0  0  0  0
  3  4  2  0  0  0  0
  4  5  1  0  0  0  0
  4  9  1  0  0  0  0
  5 10  1  0  0  0  0
  6 11  1  0  0  0  0
  6  5  2  0  0  0  0
  7  1  1  0  0  0  0
  8  2  1  0  0  0  0
 11 13  2  0  0  0  0
 12 11  2  0  0  0  0
 14 15  3  0  0  0  0
 16 17  1  0  0  0  0
 16 18  1  0  0  0  0
 19 16  1  0  0  0  0
 20  3  1  0  0  0  0
M  END
