Coordinates from ORCA-job 4-NO2-Ph-N2-BF4-B3LYPG-6-31G_dp-MTMO-d009-169-n800
 OpenBabel09051908343D

 20 18  0  0  0  0  0  0  0  0999 V2000
   -1.7975   -0.2598    0.5998 C   0  0  0  0  0  0  0  0  0  0  0  0
   -0.4938    0.2227    0.5304 C   0  0  0  0  0  0  0  0  0  0  0  0
   -0.2810    1.5790    0.7542 C   0  0  0  0  0  0  0  0  0  0  0  0
   -1.3074    2.4729    1.0426 C   0  0  0  0  0  0  0  0  0  0  0  0
   -2.6093    1.9864    1.1110 C   0  0  0  0  0  0  0  0  0  0  0  0
   -2.8338    0.6278    0.8885 C   0  0  0  0  0  0  0  0  0  0  0  0
   -2.0237   -1.3054    0.4336 H   0  0  0  0  0  0  0  0  0  0  0  0
    0.3448   -0.4255    0.3079 H   0  0  0  0  0  0  0  0  0  0  0  0
   -1.0800    3.5196    1.2091 H   0  0  0  0  0  0  0  0  0  0  0  0
   -3.4471    2.6354    1.3320 H   0  0  0  0  0  0  0  0  0  0  0  0
   -4.2097    0.1150    0.9612 N   0  0  0  0  0  0  0  0  0  0  0  0
   -4.3802   -1.0870    0.7619 O   0  0  0  0  0  0  0  0  0  0  0  0
   -5.1043    0.9200    1.2169 O   0  0  0  0  0  0  0  0  0  0  0  0
    9.9031   -0.1925   -2.4840 N   0  0  0  0  0  0  0  0  0  0  0  0
    8.8605   -0.1114   -2.1264 N   0  0  0  0  0  0  0  0  0  0  0  0
    3.1651    1.1011   -0.1430 B   0  0  0  0  0  0  0  0  0  0  0  0
    2.7019   -0.1397   -0.0861 F   0  0  0  0  0  0  0  0  0  0  0  0
    3.7812    1.6169    0.9004 F   0  0  0  0  0  0  0  0  0  0  0  0
    3.0704    1.7811   -1.2676 F   0  0  0  0  0  0  0  0  0  0  0  0
    0.9840    2.0622    0.6908 F   0  0  0  0  0  0  0  0  0  0  0  0
  1  6  1  0  0  0  0
  2  1  2  0  0  0  0
  2  3  1  0  0  0  0
  3  4  2  0  0  0  0
  4  5  1  0  0  0  0
  4  9  1  0  0  0  0
  5 10  1  0  0  0  0
  6 11  1  0  0  0  0
  6  5  2  0  0  0  0
  7  1  1  0  0  0  0
  8  2  1  0  0  0  0
 11 13  2  0  0  0  0
 12 11  2  0  0  0  0
 14 15  3  0  0  0  0
 16 17  1  0  0  0  0
 16 18  1  0  0  0  0
 19 16  1  0  0  0  0
 20  3  1  0  0  0  0
M  END
