Coordinates from ORCA-job 4-NO2-Ph-N2-BF4-B3LYPG-6-31G_dp-MTMO-d009-169-n800
 OpenBabel09051908343D

 20 18  0  0  0  0  0  0  0  0999 V2000
   -1.3960   -0.2964    0.6876 C   0  0  0  0  0  0  0  0  0  0  0  0
   -0.0207   -0.0937    0.6189 C   0  0  0  0  0  0  0  0  0  0  0  0
    0.4445    1.2050    0.4391 C   0  0  0  0  0  0  0  0  0  0  0  0
   -0.3976    2.3061    0.3240 C   0  0  0  0  0  0  0  0  0  0  0  0
   -1.7717    2.0988    0.3932 C   0  0  0  0  0  0  0  0  0  0  0  0
   -2.2493    0.8010    0.5742 C   0  0  0  0  0  0  0  0  0  0  0  0
   -1.8160   -1.2844    0.8275 H   0  0  0  0  0  0  0  0  0  0  0  0
    0.6831   -0.9123    0.7032 H   0  0  0  0  0  0  0  0  0  0  0  0
    0.0238    3.2947    0.1831 H   0  0  0  0  0  0  0  0  0  0  0  0
   -2.4742    2.9182    0.3103 H   0  0  0  0  0  0  0  0  0  0  0  0
   -3.7016    0.5834    0.6488 N   0  0  0  0  0  0  0  0  0  0  0  0
   -4.0975   -0.5705    0.8068 O   0  0  0  0  0  0  0  0  0  0  0  0
   -4.4307    1.5695    0.5489 O   0  0  0  0  0  0  0  0  0  0  0  0
    3.4068    1.9174   -2.2805 N   0  0  0  0  0  0  0  0  0  0  0  0
    4.2335    2.0818   -2.9952 N   0  0  0  0  0  0  0  0  0  0  0  0
    3.7419    0.0353    1.1130 B   0  0  0  0  0  0  0  0  0  0  0  0
    3.0855   -1.0936    0.8882 F   0  0  0  0  0  0  0  0  0  0  0  0
    3.6979    0.5902    2.3071 F   0  0  0  0  0  0  0  0  0  0  0  0
    4.4996    0.5506    0.1653 F   0  0  0  0  0  0  0  0  0  0  0  0
    1.7820    1.4177    0.3697 F   0  0  0  0  0  0  0  0  0  0  0  0
  1  7  1  0  0  0  0
  2  1  1  0  0  0  0
  2  8  1  0  0  0  0
  3  2  2  0  0  0  0
  4  5  2  0  0  0  0
  4  3  1  0  0  0  0
  5  6  1  0  0  0  0
  6 11  1  0  0  0  0
  6  1  2  0  0  0  0
  9  4  1  0  0  0  0
 10  5  1  0  0  0  0
 11 12  2  0  0  0  0
 13 11  2  0  0  0  0
 15 14  3  0  0  0  0
 16 18  1  0  0  0  0
 17 16  1  0  0  0  0
 19 16  1  0  0  0  0
 20  3  1  0  0  0  0
M  END
