Coordinates from ORCA-job 4-NO2-Ph-N2-BF4-B3LYPG-6-31G_dp-MTMO-d009-169-n800
 OpenBabel09051908343D

 20 18  0  0  0  0  0  0  0  0999 V2000
   -2.0387   -0.2064    0.5584 C   0  0  0  0  0  0  0  0  0  0  0  0
   -0.8310    0.4854    0.5767 C   0  0  0  0  0  0  0  0  0  0  0  0
   -0.8383    1.8113    0.9978 C   0  0  0  0  0  0  0  0  0  0  0  0
   -1.9926    2.4760    1.3996 C   0  0  0  0  0  0  0  0  0  0  0  0
   -3.1977    1.7805    1.3800 C   0  0  0  0  0  0  0  0  0  0  0  0
   -3.2017    0.4505    0.9599 C   0  0  0  0  0  0  0  0  0  0  0  0
   -2.0942   -1.2394    0.2399 H   0  0  0  0  0  0  0  0  0  0  0  0
    0.0988    0.0206    0.2735 H   0  0  0  0  0  0  0  0  0  0  0  0
   -1.9363    3.5102    1.7185 H   0  0  0  0  0  0  0  0  0  0  0  0
   -4.1269    2.2461    1.6823 H   0  0  0  0  0  0  0  0  0  0  0  0
   -4.4758   -0.2835    0.9393 N   0  0  0  0  0  0  0  0  0  0  0  0
   -4.4520   -1.4549    0.5645 O   0  0  0  0  0  0  0  0  0  0  0  0
   -5.4860    0.3207    1.2972 O   0  0  0  0  0  0  0  0  0  0  0  0
   13.9854   -1.8140   -3.8063 N   0  0  0  0  0  0  0  0  0  0  0  0
   12.9613   -1.6037   -3.4476 N   0  0  0  0  0  0  0  0  0  0  0  0
    2.6175    2.0385    0.0770 B   0  0  0  0  0  0  0  0  0  0  0  0
    2.3815    0.7365   -0.0036 F   0  0  0  0  0  0  0  0  0  0  0  0
    3.1658    2.5373    1.1655 F   0  0  0  0  0  0  0  0  0  0  0  0
    2.3728    2.8105   -0.9623 F   0  0  0  0  0  0  0  0  0  0  0  0
    0.3313    2.4966    1.0230 F   0  0  0  0  0  0  0  0  0  0  0  0
  1  2  2  0  0  0  0
  1  6  1  0  0  0  0
  2  3  1  0  0  0  0
  3 20  1  0  0  0  0
  3  4  2  0  0  0  0
  4  9  1  0  0  0  0
  5  4  1  0  0  0  0
  5 10  1  0  0  0  0
  6  5  2  0  0  0  0
  7  1  1  0  0  0  0
  8  2  1  0  0  0  0
 11  6  1  0  0  0  0
 11 13  2  0  0  0  0
 12 11  2  0  0  0  0
 14 15  3  0  0  0  0
 16 18  1  0  0  0  0
 17 16  1  0  0  0  0
 19 16  1  0  0  0  0
M  END
