Coordinates from ORCA-job 4-NO2-Ph-N2-BF4-B3LYPG-6-31G_dp-MTMO-d009-169-n800
 OpenBabel09051908343D

 20 18  0  0  0  0  0  0  0  0999 V2000
   -2.0576   -0.2029    0.5626 C   0  0  0  0  0  0  0  0  0  0  0  0
   -0.8495    0.4883    0.5787 C   0  0  0  0  0  0  0  0  0  0  0  0
   -0.8553    1.8139    1.0008 C   0  0  0  0  0  0  0  0  0  0  0  0
   -2.0083    2.4790    1.4053 C   0  0  0  0  0  0  0  0  0  0  0  0
   -3.2139    1.7842    1.3878 C   0  0  0  0  0  0  0  0  0  0  0  0
   -3.2195    0.4544    0.9669 C   0  0  0  0  0  0  0  0  0  0  0  0
   -2.1143   -1.2356    0.2436 H   0  0  0  0  0  0  0  0  0  0  0  0
    0.0794    0.0232    0.2732 H   0  0  0  0  0  0  0  0  0  0  0  0
   -1.9508    3.5129    1.7247 H   0  0  0  0  0  0  0  0  0  0  0  0
   -4.1422    2.2501    1.6923 H   0  0  0  0  0  0  0  0  0  0  0  0
   -4.4940   -0.2789    0.9486 N   0  0  0  0  0  0  0  0  0  0  0  0
   -4.4715   -1.4502    0.5734 O   0  0  0  0  0  0  0  0  0  0  0  0
   -5.5031    0.3255    1.3092 O   0  0  0  0  0  0  0  0  0  0  0  0
   14.1419   -1.8375   -3.8486 N   0  0  0  0  0  0  0  0  0  0  0  0
   13.1177   -1.6337   -3.4864 N   0  0  0  0  0  0  0  0  0  0  0  0
    2.6004    2.0397    0.0772 B   0  0  0  0  0  0  0  0  0  0  0  0
    2.3607    0.7390   -0.0119 F   0  0  0  0  0  0  0  0  0  0  0  0
    3.1496    2.5300    1.1691 F   0  0  0  0  0  0  0  0  0  0  0  0
    2.3586    2.8191   -0.9573 F   0  0  0  0  0  0  0  0  0  0  0  0
    0.3148    2.4985    1.0240 F   0  0  0  0  0  0  0  0  0  0  0  0
  1  2  2  0  0  0  0
  1  6  1  0  0  0  0
  2  3  1  0  0  0  0
  3 20  1  0  0  0  0
  3  4  2  0  0  0  0
  4  9  1  0  0  0  0
  5  4  1  0  0  0  0
  5 10  1  0  0  0  0
  6  5  2  0  0  0  0
  7  1  1  0  0  0  0
  8  2  1  0  0  0  0
 11  6  1  0  0  0  0
 11 13  2  0  0  0  0
 12 11  2  0  0  0  0
 14 15  3  0  0  0  0
 16 18  1  0  0  0  0
 17 16  1  0  0  0  0
 19 16  1  0  0  0  0
M  END
