Coordinates from ORCA-job 4-NO2-Ph-N2-BF4-B3LYPG-6-31G_dp-MTMO-d009-169-n800
 OpenBabel09051908343D

 20 18  0  0  0  0  0  0  0  0999 V2000
   -1.6421   -0.2724    0.5287 C   0  0  0  0  0  0  0  0  0  0  0  0
   -0.3360    0.1886    0.3918 C   0  0  0  0  0  0  0  0  0  0  0  0
   -0.0871    1.5393    0.6140 C   0  0  0  0  0  0  0  0  0  0  0  0
   -1.0802    2.4479    0.9660 C   0  0  0  0  0  0  0  0  0  0  0  0
   -2.3848    1.9831    1.1020 C   0  0  0  0  0  0  0  0  0  0  0  0
   -2.6452    0.6305    0.8811 C   0  0  0  0  0  0  0  0  0  0  0  0
   -1.8955   -1.3124    0.3671 H   0  0  0  0  0  0  0  0  0  0  0  0
    0.4790   -0.4709    0.1196 H   0  0  0  0  0  0  0  0  0  0  0  0
   -0.8260    3.4891    1.1280 H   0  0  0  0  0  0  0  0  0  0  0  0
   -3.1977    2.6443    1.3737 H   0  0  0  0  0  0  0  0  0  0  0  0
   -4.0239    0.1409    1.0245 N   0  0  0  0  0  0  0  0  0  0  0  0
   -4.2268   -1.0556    0.8222 O   0  0  0  0  0  0  0  0  0  0  0  0
   -4.8885    0.9581    1.3381 O   0  0  0  0  0  0  0  0  0  0  0  0
    8.1211    0.2134   -1.6964 N   0  0  0  0  0  0  0  0  0  0  0  0
    7.0632    0.3234   -1.3956 N   0  0  0  0  0  0  0  0  0  0  0  0
    3.3984    0.9282   -0.3490 B   0  0  0  0  0  0  0  0  0  0  0  0
    2.8651   -0.2848   -0.3202 F   0  0  0  0  0  0  0  0  0  0  0  0
    4.0178    1.3953    0.7149 F   0  0  0  0  0  0  0  0  0  0  0  0
    3.3517    1.6345   -1.4598 F   0  0  0  0  0  0  0  0  0  0  0  0
    1.1808    1.9984    0.4826 F   0  0  0  0  0  0  0  0  0  0  0  0
  1  6  1  0  0  0  0
  2  1  2  0  0  0  0
  2  3  1  0  0  0  0
  3  4  2  0  0  0  0
  4  5  1  0  0  0  0
  4  9  1  0  0  0  0
  5 10  1  0  0  0  0
  6 11  1  0  0  0  0
  6  5  2  0  0  0  0
  7  1  1  0  0  0  0
  8  2  1  0  0  0  0
 11 13  2  0  0  0  0
 12 11  2  0  0  0  0
 14 15  3  0  0  0  0
 16 17  1  0  0  0  0
 16 18  1  0  0  0  0
 19 16  1  0  0  0  0
 20  3  1  0  0  0  0
M  END
