20
Coordinates from ORCA-job Ph-N2-OOCCF3-B3LYPG-aug-cc-pVDZ-scan-d09-49-n400
  C   13.34717129740594      6.02188075009781      2.41046827869962
  C   12.31893500399574      5.53918417410417      1.55924967142765
  C   11.89088052996351      4.35032615967750      2.09053862695976
  C   12.18340907206263      3.64309409609733      3.08963495035904
  C   13.19990204509180      4.09542934862377      3.95334799981864
  C   13.76746007191063      5.32492454717059      3.55996614786291
  H   13.82174985770668      6.97049979344840      2.15264309599405
  H   11.97553371019931      6.05556535107343      0.66747257716466
  N   8.91893536464754      4.59011852431240     -1.79791111621245
  N   8.08242193539078      4.00507089079806     -2.21888569311592
  H   14.56423917486751      5.75445153844499      4.16976701212566
  H   13.53424137223492      3.56648688343272      4.84483103299111
  H   11.04510673578982      1.92272878490759      3.21029631952729
  O   9.37498405603735      1.45381538981222      1.55453772348020
  C   9.67480732283457      0.79330105742173      2.51517220754066
  O   10.60478003029138      1.06549487701026      3.42739702390528
  C   8.98246381657084     -0.55334230718734      2.85503196064286
  F   8.04163755307475     -0.84685325969217      1.94891588102458
  F   9.88264999681259     -1.56184253170010      2.87338425882423
  F   8.39579105311198     -0.49503406785347      4.07164204098022
