20
Coordinates from ORCA-job Ph-N2-OOCCF3-B3LYPG-aug-cc-pVDZ-scan-d09-49-n400
  C   13.33726282877246      6.06833176404613      2.35171189000049
  C   12.32940676283228      5.72576714031717      1.41227966298330
  C   11.79931258279816      4.53408020441559      1.82566687380547
  C   11.97308938408206      3.71941657563239      2.77151027749869
  C   12.97143651006849      4.04215861713378      3.71743909812947
  C   13.64236545436698      5.25445036758791      3.45962663757047
  H   13.88689235826924      6.99862377315800      2.19692190231798
  H   12.06883724484464      6.32942708804599      0.54818943681489
  N   9.56840365763834      4.35803525048650     -0.75563038155693
  N   8.74091974194360      3.82549673990409     -1.25633907563185
  H   14.42900476042616      5.57592440834090      4.14437204386059
  H   13.21863820680698      3.42293607857690      4.57901777753437
  H   10.92018037635498      2.03633297363569      2.97353688893005
  O   9.22430828277040      1.35718221469210      1.40969566989482
  C   9.58980819594872      0.78670978679647      2.40497133445166
  O   10.52957255049592      1.17223268090649      3.26279545094131
  C   8.98167387155569     -0.56595723015810      2.86327859261880
  F   8.03175694630225     -0.97413038818740      2.01275633076827
  F   9.93538651379817     -1.52245774924217      2.92403617862228
  F   8.42884376992440     -0.44926029608849      4.09166341044587
