20
Coordinates from ORCA-job Ph-N2-OOCCF3-B3LYPG-aug-cc-pVDZ-scan-d09-49-n400
  C   13.10217204009410      5.99738253164453      2.12468959812441
  C   12.00841704762966      5.55542934737429      1.35696405232065
  C   11.55388856429883      4.34116751564050      1.79679809470817
  C   11.90198258169518      3.48824655247219      2.77353445374228
  C   13.00513385897418      3.99016587560995      3.50705138202607
  C   13.58823493246453      5.21919760495034      3.18431425230963
  H   13.55957329604488      6.95499830007623      1.87598376781900
  H   11.59384790709080      6.11966113824824      0.52695598022255
  N   10.05314930135880      3.76487896134692      0.72416384264954
  N   9.35073394437895      3.95937715716319     -0.10957472657192
  H   14.43612209120532      5.58115186262313      3.76553695386141
  H   13.38584125503117      3.38781027126073      4.33205912256556
  H   11.41012656909673      2.49748240782238      3.01216695869519
  O   9.44956491731191      1.67380569925525      1.60028711333067
  C   9.78356975556690      0.90461881568315      2.53320173462784
  O   10.68838697766780      1.01838003329133      3.38627965724234
  C   8.90214262659509     -0.38794800706843      2.62250589407339
  F   8.90284843390502     -1.05975069414691      1.44521053526957
  F   9.31729907203022     -1.24684519935393      3.57413190178258
  F   7.61406482755985     -0.06391017389319      2.90523943120102
