Coordinates from ORCA-job Ph-N2-OAc-B3LYPG-6-31G_dp-MTMO-d009-169-n800
 OpenBabel09051908423D

 20 19  0  0  0  0  0  0  0  0999 V2000
   12.0830    5.6014    2.0902 C   0  0  0  0  0  0  0  0  0  0  0  0
   10.9823    4.7554    1.9496 C   0  0  0  0  0  0  0  0  0  0  0  0
   10.9450    3.5567    2.6604 C   0  0  0  0  0  0  0  0  0  0  0  0
   11.9861    3.1889    3.5134 C   0  0  0  0  0  0  0  0  0  0  0  0
   13.0837    4.0425    3.6393 C   0  0  0  0  0  0  0  0  0  0  0  0
   13.1381    5.2458    2.9326 C   0  0  0  0  0  0  0  0  0  0  0  0
   12.1130    6.5371    1.5401 H   0  0  0  0  0  0  0  0  0  0  0  0
   10.1495    5.0110    1.3028 H   0  0  0  0  0  0  0  0  0  0  0  0
   12.6656    1.9666   -0.1037 N   0  0  0  0  0  0  0  0  0  0  0  0
   13.6945    1.7750    0.2511 N   0  0  0  0  0  0  0  0  0  0  0  0
   13.9964    5.9024    3.0400 H   0  0  0  0  0  0  0  0  0  0  0  0
   13.9011    3.7608    4.2967 H   0  0  0  0  0  0  0  0  0  0  0  0
   11.9450    2.2529    4.0548 H   0  0  0  0  0  0  0  0  0  0  0  0
    9.7758    2.8040    2.5242 O   0  0  0  0  0  0  0  0  0  0  0  0
    9.8260    1.4484    2.3315 C   0  0  0  0  0  0  0  0  0  0  0  0
   10.8429    0.8011    2.2799 O   0  0  0  0  0  0  0  0  0  0  0  0
    8.4252    0.9072    2.1874 C   0  0  0  0  0  0  0  0  0  0  0  0
    7.8177    1.1931    3.0512 H   0  0  0  0  0  0  0  0  0  0  0  0
    7.9512    1.3370    1.2995 H   0  0  0  0  0  0  0  0  0  0  0  0
    8.4652   -0.1778    2.0966 H   0  0  0  0  0  0  0  0  0  0  0  0
  1  6  1  0  0  0  0
  2  1  2  0  0  0  0
  2  3  1  0  0  0  0
  3  4  2  0  0  0  0
  4  5  1  0  0  0  0
  4 13  1  0  0  0  0
  5 12  1  0  0  0  0
  6 11  1  0  0  0  0
  6  5  2  0  0  0  0
  7  1  1  0  0  0  0
  8  2  1  0  0  0  0
  9 10  3  0  0  0  0
 14  3  1  0  0  0  0
 15 14  1  0  0  0  0
 16 15  2  0  0  0  0
 17 15  1  0  0  0  0
 17 18  1  0  0  0  0
 19 17  1  0  0  0  0
 20 17  1  0  0  0  0
M  END
