Coordinates from ORCA-job Ph-N2-OAc-B3LYPG-6-31G_dp-MTMO-d009-169-n800
 OpenBabel09051908423D

 20 19  0  0  0  0  0  0  0  0999 V2000
   11.1069    6.9709    2.9007 C   0  0  0  0  0  0  0  0  0  0  0  0
   10.6396    5.7054    2.5474 C   0  0  0  0  0  0  0  0  0  0  0  0
   11.3549    4.5753    2.9423 C   0  0  0  0  0  0  0  0  0  0  0  0
   12.5284    4.6873    3.6891 C   0  0  0  0  0  0  0  0  0  0  0  0
   12.9856    5.9611    4.0316 C   0  0  0  0  0  0  0  0  0  0  0  0
   12.2830    7.1026    3.6416 C   0  0  0  0  0  0  0  0  0  0  0  0
   10.5508    7.8519    2.5949 H   0  0  0  0  0  0  0  0  0  0  0  0
    9.7261    5.5773    1.9761 H   0  0  0  0  0  0  0  0  0  0  0  0
    7.9681   -8.5412   -2.1636 N   0  0  0  0  0  0  0  0  0  0  0  0
    8.2180   -7.5592   -1.7223 N   0  0  0  0  0  0  0  0  0  0  0  0
   12.6482    8.0876    3.9154 H   0  0  0  0  0  0  0  0  0  0  0  0
   13.9011    6.0568    4.6078 H   0  0  0  0  0  0  0  0  0  0  0  0
   13.0763    3.8029    3.9851 H   0  0  0  0  0  0  0  0  0  0  0  0
   10.7729    3.3494    2.6104 O   0  0  0  0  0  0  0  0  0  0  0  0
   11.5238    2.2972    2.1552 C   0  0  0  0  0  0  0  0  0  0  0  0
   12.7217    2.3181    2.0159 O   0  0  0  0  0  0  0  0  0  0  0  0
   10.6182    1.1275    1.8562 C   0  0  0  0  0  0  0  0  0  0  0  0
   10.0503    0.8537    2.7502 H   0  0  0  0  0  0  0  0  0  0  0  0
    9.8949    1.4024    1.0827 H   0  0  0  0  0  0  0  0  0  0  0  0
   11.2186    0.2827    1.5208 H   0  0  0  0  0  0  0  0  0  0  0  0
  1  6  1  0  0  0  0
  2  1  2  0  0  0  0
  2  3  1  0  0  0  0
  3  4  2  0  0  0  0
  4 13  1  0  0  0  0
  4  5  1  0  0  0  0
  5 12  1  0  0  0  0
  6 11  1  0  0  0  0
  6  5  2  0  0  0  0
  7  1  1  0  0  0  0
  8  2  1  0  0  0  0
  9 10  3  0  0  0  0
 14  3  1  0  0  0  0
 15 14  1  0  0  0  0
 16 15  2  0  0  0  0
 17 15  1  0  0  0  0
 17 18  1  0  0  0  0
 19 17  1  0  0  0  0
 20 17  1  0  0  0  0
M  END
