Coordinates from ORCA-job Ph-N2-OAc-B3LYPG-6-31G_dp-MTMO-d009-169-n800
 OpenBabel09051908423D

 20 19  0  0  0  0  0  0  0  0999 V2000
   11.2466    6.5209    2.7538 C   0  0  0  0  0  0  0  0  0  0  0  0
   10.5763    5.3356    2.4526 C   0  0  0  0  0  0  0  0  0  0  0  0
   11.1695    4.1134    2.7674 C   0  0  0  0  0  0  0  0  0  0  0  0
   12.4209    4.0548    3.3825 C   0  0  0  0  0  0  0  0  0  0  0  0
   13.0811    5.2498    3.6742 C   0  0  0  0  0  0  0  0  0  0  0  0
   12.5022    6.4817    3.3632 C   0  0  0  0  0  0  0  0  0  0  0  0
   10.7860    7.4735    2.5101 H   0  0  0  0  0  0  0  0  0  0  0  0
    9.5985    5.3408    1.9831 H   0  0  0  0  0  0  0  0  0  0  0  0
   10.2344   -4.1896   -0.4957 N   0  0  0  0  0  0  0  0  0  0  0  0
   10.1583   -3.1939   -0.0221 N   0  0  0  0  0  0  0  0  0  0  0  0
   13.0249    7.4042    3.5962 H   0  0  0  0  0  0  0  0  0  0  0  0
   14.0571    5.2122    4.1486 H   0  0  0  0  0  0  0  0  0  0  0  0
   12.8719    3.1001    3.6170 H   0  0  0  0  0  0  0  0  0  0  0  0
   10.3941    2.9824    2.5008 O   0  0  0  0  0  0  0  0  0  0  0  0
   10.9415    1.8410    1.9743 C   0  0  0  0  0  0  0  0  0  0  0  0
   12.1090    1.7012    1.7051 O   0  0  0  0  0  0  0  0  0  0  0  0
    9.8591    0.8058    1.7877 C   0  0  0  0  0  0  0  0  0  0  0  0
    9.3785    0.5917    2.7468 H   0  0  0  0  0  0  0  0  0  0  0  0
    9.0855    1.1890    1.1155 H   0  0  0  0  0  0  0  0  0  0  0  0
   10.2922   -0.1050    1.3761 H   0  0  0  0  0  0  0  0  0  0  0  0
  1  6  1  0  0  0  0
  2  1  2  0  0  0  0
  2  3  1  0  0  0  0
  3  4  2  0  0  0  0
  4 13  1  0  0  0  0
  4  5  1  0  0  0  0
  5 12  1  0  0  0  0
  6 11  1  0  0  0  0
  6  5  2  0  0  0  0
  7  1  1  0  0  0  0
  8  2  1  0  0  0  0
  9 10  3  0  0  0  0
 14  3  1  0  0  0  0
 15 14  1  0  0  0  0
 16 15  2  0  0  0  0
 17 15  1  0  0  0  0
 17 18  1  0  0  0  0
 19 17  1  0  0  0  0
 20 17  1  0  0  0  0
M  END
