Coordinates from ORCA-job Ph-N2-OAc-B3LYPG-6-31G_dp-MTMO-d009-169-n800
 OpenBabel09051908423D

 20 19  0  0  0  0  0  0  0  0999 V2000
   11.1254    7.0430    2.9297 C   0  0  0  0  0  0  0  0  0  0  0  0
   10.6594    5.7774    2.5749 C   0  0  0  0  0  0  0  0  0  0  0  0
   11.3751    4.6475    2.9697 C   0  0  0  0  0  0  0  0  0  0  0  0
   12.5476    4.7598    3.7179 C   0  0  0  0  0  0  0  0  0  0  0  0
   13.0035    6.0337    4.0620 C   0  0  0  0  0  0  0  0  0  0  0  0
   12.3005    7.1750    3.6721 C   0  0  0  0  0  0  0  0  0  0  0  0
   10.5690    7.9238    2.6239 H   0  0  0  0  0  0  0  0  0  0  0  0
    9.7467    5.6490    2.0025 H   0  0  0  0  0  0  0  0  0  0  0  0
    7.7811   -9.1928   -2.4104 N   0  0  0  0  0  0  0  0  0  0  0  0
    8.0355   -8.2122   -1.9685 N   0  0  0  0  0  0  0  0  0  0  0  0
   12.6647    8.1600    3.9470 H   0  0  0  0  0  0  0  0  0  0  0  0
   13.9183    6.1296    4.6393 H   0  0  0  0  0  0  0  0  0  0  0  0
   13.0958    3.8756    4.0139 H   0  0  0  0  0  0  0  0  0  0  0  0
   10.7944    3.4215    2.6362 O   0  0  0  0  0  0  0  0  0  0  0  0
   11.5466    2.3702    2.1810 C   0  0  0  0  0  0  0  0  0  0  0  0
   12.7447    2.3921    2.0431 O   0  0  0  0  0  0  0  0  0  0  0  0
   10.6422    1.2001    1.8799 C   0  0  0  0  0  0  0  0  0  0  0  0
   10.0736    0.9250    2.7730 H   0  0  0  0  0  0  0  0  0  0  0  0
    9.9196    1.4751    1.1058 H   0  0  0  0  0  0  0  0  0  0  0  0
   11.2437    0.3561    1.5444 H   0  0  0  0  0  0  0  0  0  0  0  0
  1  6  1  0  0  0  0
  2  1  2  0  0  0  0
  2  3  1  0  0  0  0
  3  4  2  0  0  0  0
  4 13  1  0  0  0  0
  4  5  1  0  0  0  0
  5 12  1  0  0  0  0
  6 11  1  0  0  0  0
  6  5  2  0  0  0  0
  7  1  1  0  0  0  0
  8  2  1  0  0  0  0
  9 10  3  0  0  0  0
 14  3  1  0  0  0  0
 15 14  1  0  0  0  0
 16 15  2  0  0  0  0
 17 15  1  0  0  0  0
 17 18  1  0  0  0  0
 19 17  1  0  0  0  0
 20 17  1  0  0  0  0
M  END
