Coordinates from ORCA-job Ph-N2-OAc-B3LYPG-6-31G_dp-MTMO-d009-169-n800
 OpenBabel09051908423D

 20 19  0  0  0  0  0  0  0  0999 V2000
   11.1439    7.1117    2.9570 C   0  0  0  0  0  0  0  0  0  0  0  0
   10.6785    5.8461    2.6012 C   0  0  0  0  0  0  0  0  0  0  0  0
   11.3941    4.7163    2.9959 C   0  0  0  0  0  0  0  0  0  0  0  0
   12.5661    4.8284    3.7450 C   0  0  0  0  0  0  0  0  0  0  0  0
   13.0214    6.1022    4.0901 C   0  0  0  0  0  0  0  0  0  0  0  0
   12.3184    7.2436    3.7003 C   0  0  0  0  0  0  0  0  0  0  0  0
   10.5874    7.9925    2.6514 H   0  0  0  0  0  0  0  0  0  0  0  0
    9.7661    5.7179    2.0281 H   0  0  0  0  0  0  0  0  0  0  0  0
    7.6066   -9.8122   -2.6454 N   0  0  0  0  0  0  0  0  0  0  0  0
    7.8638   -8.8321   -2.2040 N   0  0  0  0  0  0  0  0  0  0  0  0
   12.6822    8.2285    3.9760 H   0  0  0  0  0  0  0  0  0  0  0  0
   13.9358    6.1982    4.6681 H   0  0  0  0  0  0  0  0  0  0  0  0
   13.1144    3.9442    4.0408 H   0  0  0  0  0  0  0  0  0  0  0  0
   10.8141    3.4902    2.6613 O   0  0  0  0  0  0  0  0  0  0  0  0
   11.5669    2.4394    2.2060 C   0  0  0  0  0  0  0  0  0  0  0  0
   12.7650    2.4618    2.0689 O   0  0  0  0  0  0  0  0  0  0  0  0
   10.6630    1.2693    1.9036 C   0  0  0  0  0  0  0  0  0  0  0  0
   10.0938    0.9935    2.7961 H   0  0  0  0  0  0  0  0  0  0  0  0
    9.9409    1.5446    1.1292 H   0  0  0  0  0  0  0  0  0  0  0  0
   11.2650    0.4257    1.5680 H   0  0  0  0  0  0  0  0  0  0  0  0
  1  6  1  0  0  0  0
  2  1  2  0  0  0  0
  2  3  1  0  0  0  0
  3  4  2  0  0  0  0
  4 13  1  0  0  0  0
  4  5  1  0  0  0  0
  5 12  1  0  0  0  0
  6 11  1  0  0  0  0
  6  5  2  0  0  0  0
  7  1  1  0  0  0  0
  8  2  1  0  0  0  0
  9 10  3  0  0  0  0
 14  3  1  0  0  0  0
 15 14  1  0  0  0  0
 16 15  2  0  0  0  0
 17 15  1  0  0  0  0
 17 18  1  0  0  0  0
 19 17  1  0  0  0  0
 20 17  1  0  0  0  0
M  END
