Coordinates from ORCA-job Ph-N2-OAc-B3LYPG-6-31G_dp-MTMO-d009-169-n800
 OpenBabel09051908423D

 20 20  0  0  0  0  0  0  0  0999 V2000
   12.4507    5.9667    2.2618 C   0  0  0  0  0  0  0  0  0  0  0  0
   12.1857    5.1042    1.1973 C   0  0  0  0  0  0  0  0  0  0  0  0
   12.0663    3.7459    1.4687 C   0  0  0  0  0  0  0  0  0  0  0  0
   12.2599    3.2011    2.7353 C   0  0  0  0  0  0  0  0  0  0  0  0
   12.5476    4.0794    3.7805 C   0  0  0  0  0  0  0  0  0  0  0  0
   12.6330    5.4553    3.5491 C   0  0  0  0  0  0  0  0  0  0  0  0
   12.5291    7.0344    2.0809 H   0  0  0  0  0  0  0  0  0  0  0  0
   12.0619    5.4716    0.1845 H   0  0  0  0  0  0  0  0  0  0  0  0
   11.8580    2.8217    0.2790 N   0  0  0  0  0  0  0  0  0  0  0  0
   11.0450    1.9658    0.1529 N   0  0  0  0  0  0  0  0  0  0  0  0
   12.8538    6.1287    4.3717 H   0  0  0  0  0  0  0  0  0  0  0  0
   12.7060    3.6843    4.7793 H   0  0  0  0  0  0  0  0  0  0  0  0
   12.1957    2.1285    2.8847 H   0  0  0  0  0  0  0  0  0  0  0  0
    9.8853    1.9671    1.3313 O   0  0  0  0  0  0  0  0  0  0  0  0
    9.9526    0.8506    2.0636 C   0  0  0  0  0  0  0  0  0  0  0  0
   10.9408    0.1436    2.1479 O   0  0  0  0  0  0  0  0  0  0  0  0
    8.6474    0.5890    2.7926 C   0  0  0  0  0  0  0  0  0  0  0  0
    8.2677    1.5051    3.2524 H   0  0  0  0  0  0  0  0  0  0  0  0
    7.8957    0.2464    2.0743 H   0  0  0  0  0  0  0  0  0  0  0  0
    8.8049   -0.1798    3.5497 H   0  0  0  0  0  0  0  0  0  0  0  0
  1  6  2  0  0  0  0
  2  3  2  0  0  0  0
  2  1  1  0  0  0  0
  3  4  1  0  0  0  0
  4 13  1  0  0  0  0
  4  5  2  0  0  0  0
  5 12  1  0  0  0  0
  6  5  1  0  0  0  0
  6 11  1  0  0  0  0
  7  1  1  0  0  0  0
  8  2  1  0  0  0  0
  9  3  1  0  0  0  0
 10  9  1  0  0  0  0
 10 14  1  0  0  0  0
 14 15  1  0  0  0  0
 15 16  2  0  0  0  0
 15 17  1  0  0  0  0
 17 18  1  0  0  0  0
 17 20  1  0  0  0  0
 19 17  1  0  0  0  0
M  RAD  2   9   2  10   2
M  END
