Coordinates from ORCA-job Ph-N2-OAc-B3LYPG-6-31G_dp-MTMO-d009-169-n800
 OpenBabel09051908423D

 20 19  0  0  0  0  0  0  0  0999 V2000
   11.1056    6.9655    2.8985 C   0  0  0  0  0  0  0  0  0  0  0  0
   10.6382    5.7000    2.5453 C   0  0  0  0  0  0  0  0  0  0  0  0
   11.3533    4.5699    2.9402 C   0  0  0  0  0  0  0  0  0  0  0  0
   12.5269    4.6818    3.6869 C   0  0  0  0  0  0  0  0  0  0  0  0
   12.9843    5.9556    4.0292 C   0  0  0  0  0  0  0  0  0  0  0  0
   12.2818    7.0972    3.6393 C   0  0  0  0  0  0  0  0  0  0  0  0
   10.5496    7.8466    2.5927 H   0  0  0  0  0  0  0  0  0  0  0  0
    9.7246    5.5720    1.9742 H   0  0  0  0  0  0  0  0  0  0  0  0
    7.9825   -8.4924   -2.1451 N   0  0  0  0  0  0  0  0  0  0  0  0
    8.2319   -7.5102   -1.7039 N   0  0  0  0  0  0  0  0  0  0  0  0
   12.6472    8.0821    3.9129 H   0  0  0  0  0  0  0  0  0  0  0  0
   13.8999    6.0513    4.6054 H   0  0  0  0  0  0  0  0  0  0  0  0
   13.0748    3.7974    3.9829 H   0  0  0  0  0  0  0  0  0  0  0  0
   10.7712    3.3440    2.6086 O   0  0  0  0  0  0  0  0  0  0  0  0
   11.5220    2.2917    2.1533 C   0  0  0  0  0  0  0  0  0  0  0  0
   12.7198    2.3125    2.0139 O   0  0  0  0  0  0  0  0  0  0  0  0
   10.6162    1.1221    1.8545 C   0  0  0  0  0  0  0  0  0  0  0  0
   10.0484    0.8484    2.7486 H   0  0  0  0  0  0  0  0  0  0  0  0
    9.8928    1.3970    1.0811 H   0  0  0  0  0  0  0  0  0  0  0  0
   11.2165    0.2772    1.5191 H   0  0  0  0  0  0  0  0  0  0  0  0
  1  6  1  0  0  0  0
  2  1  2  0  0  0  0
  2  3  1  0  0  0  0
  3  4  2  0  0  0  0
  4 13  1  0  0  0  0
  4  5  1  0  0  0  0
  5 12  1  0  0  0  0
  6 11  1  0  0  0  0
  6  5  2  0  0  0  0
  7  1  1  0  0  0  0
  8  2  1  0  0  0  0
  9 10  3  0  0  0  0
 14  3  1  0  0  0  0
 15 14  1  0  0  0  0
 16 15  2  0  0  0  0
 17 15  1  0  0  0  0
 17 18  1  0  0  0  0
 19 17  1  0  0  0  0
 20 17  1  0  0  0  0
M  END
