Coordinates from ORCA-job Ph-N2-OAc-B3LYPG-6-31G_dp-MTMO-d009-169-n800
 OpenBabel09051908423D

 20 19  0  0  0  0  0  0  0  0999 V2000
   11.5387    6.2202    2.4347 C   0  0  0  0  0  0  0  0  0  0  0  0
   10.6432    5.1592    2.2995 C   0  0  0  0  0  0  0  0  0  0  0  0
   11.0188    3.8882    2.7309 C   0  0  0  0  0  0  0  0  0  0  0  0
   12.2721    3.6578    3.2987 C   0  0  0  0  0  0  0  0  0  0  0  0
   13.1590    4.7282    3.4242 C   0  0  0  0  0  0  0  0  0  0  0  0
   12.7996    6.0075    2.9951 C   0  0  0  0  0  0  0  0  0  0  0  0
   11.2488    7.2116    2.0996 H   0  0  0  0  0  0  0  0  0  0  0  0
    9.6572    5.3004    1.8701 H   0  0  0  0  0  0  0  0  0  0  0  0
   12.5143   -1.3284   -0.1980 N   0  0  0  0  0  0  0  0  0  0  0  0
   11.4802   -1.4106    0.1825 N   0  0  0  0  0  0  0  0  0  0  0  0
   13.4971    6.8332    3.0987 H   0  0  0  0  0  0  0  0  0  0  0  0
   14.1378    4.5566    3.8621 H   0  0  0  0  0  0  0  0  0  0  0  0
   12.5503    2.6646    3.6259 H   0  0  0  0  0  0  0  0  0  0  0  0
   10.0384    2.8971    2.6341 O   0  0  0  0  0  0  0  0  0  0  0  0
   10.3370    1.6522    2.1459 C   0  0  0  0  0  0  0  0  0  0  0  0
   11.4327    1.3108    1.7727 O   0  0  0  0  0  0  0  0  0  0  0  0
    9.0965    0.7933    2.1567 C   0  0  0  0  0  0  0  0  0  0  0  0
    8.7636    0.6398    3.1876 H   0  0  0  0  0  0  0  0  0  0  0  0
    8.2838    1.2944    1.6239 H   0  0  0  0  0  0  0  0  0  0  0  0
    9.3184   -0.1665    1.6925 H   0  0  0  0  0  0  0  0  0  0  0  0
  1  6  1  0  0  0  0
  2  1  2  0  0  0  0
  2  3  1  0  0  0  0
  3  4  2  0  0  0  0
  4  5  1  0  0  0  0
  4 13  1  0  0  0  0
  5 12  1  0  0  0  0
  6 11  1  0  0  0  0
  6  5  2  0  0  0  0
  7  1  1  0  0  0  0
  8  2  1  0  0  0  0
  9 10  3  0  0  0  0
 14  3  1  0  0  0  0
 15 17  1  0  0  0  0
 15 14  1  0  0  0  0
 16 15  2  0  0  0  0
 17 18  1  0  0  0  0
 19 17  1  0  0  0  0
 20 17  1  0  0  0  0
M  END
