Coordinates from ORCA-job Ph-N2-OAc-B3LYPG-6-31G_dp-MTMO-d009-169-n800
 OpenBabel09051908423D

 20 20  0  0  0  0  0  0  0  0999 V2000
   12.3910    5.9519    2.3050 C   0  0  0  0  0  0  0  0  0  0  0  0
   12.1488    5.1030    1.2188 C   0  0  0  0  0  0  0  0  0  0  0  0
   12.1079    3.7543    1.5012 C   0  0  0  0  0  0  0  0  0  0  0  0
   12.3316    3.1612    2.7252 C   0  0  0  0  0  0  0  0  0  0  0  0
   12.5825    4.0372    3.7879 C   0  0  0  0  0  0  0  0  0  0  0  0
   12.6078    5.4193    3.5789 C   0  0  0  0  0  0  0  0  0  0  0  0
   12.4187    7.0261    2.1478 H   0  0  0  0  0  0  0  0  0  0  0  0
   11.9931    5.4793    0.2147 H   0  0  0  0  0  0  0  0  0  0  0  0
   11.9117    2.6931    0.1349 N   0  0  0  0  0  0  0  0  0  0  0  0
   11.0740    1.8815    0.0260 N   0  0  0  0  0  0  0  0  0  0  0  0
   12.8047    6.0855    4.4131 H   0  0  0  0  0  0  0  0  0  0  0  0
   12.7596    3.6313    4.7793 H   0  0  0  0  0  0  0  0  0  0  0  0
   12.2913    2.0828    2.8445 H   0  0  0  0  0  0  0  0  0  0  0  0
    9.8317    1.9466    1.2223 O   0  0  0  0  0  0  0  0  0  0  0  0
    9.9466    0.9256    2.0612 C   0  0  0  0  0  0  0  0  0  0  0  0
   10.9648    0.2712    2.2316 O   0  0  0  0  0  0  0  0  0  0  0  0
    8.6471    0.6663    2.8091 C   0  0  0  0  0  0  0  0  0  0  0  0
    8.1890    1.6031    3.1357 H   0  0  0  0  0  0  0  0  0  0  0  0
    7.9404    0.1702    2.1356 H   0  0  0  0  0  0  0  0  0  0  0  0
    8.8451    0.0199    3.6648 H   0  0  0  0  0  0  0  0  0  0  0  0
  1  6  2  0  0  0  0
  2  3  2  0  0  0  0
  2  1  1  0  0  0  0
  3  4  1  0  0  0  0
  4 13  1  0  0  0  0
  4  5  2  0  0  0  0
  5 12  1  0  0  0  0
  6  5  1  0  0  0  0
  6 11  1  0  0  0  0
  7  1  1  0  0  0  0
  8  2  1  0  0  0  0
  9  3  1  0  0  0  0
 10  9  2  0  0  0  0
 10 14  1  0  0  0  0
 14 15  1  0  0  0  0
 15 16  2  0  0  0  0
 15 17  1  0  0  0  0
 17 18  1  0  0  0  0
 17 20  1  0  0  0  0
 19 17  1  0  0  0  0
M  END
