Coordinates from ORCA-job Ph-N2-OAc-B3LYPG-6-31G_dp-MTMO-d009-169-n800
 OpenBabel09051908423D

 20 19  0  0  0  0  0  0  0  0999 V2000
   11.5011    6.2678    2.5142 C   0  0  0  0  0  0  0  0  0  0  0  0
   10.6214    5.1966    2.3586 C   0  0  0  0  0  0  0  0  0  0  0  0
   11.0284    3.9171    2.7332 C   0  0  0  0  0  0  0  0  0  0  0  0
   12.2982    3.6884    3.2641 C   0  0  0  0  0  0  0  0  0  0  0  0
   13.1688    4.7695    3.4106 C   0  0  0  0  0  0  0  0  0  0  0  0
   12.7778    6.0573    3.0384 C   0  0  0  0  0  0  0  0  0  0  0  0
   11.1865    7.2656    2.2231 H   0  0  0  0  0  0  0  0  0  0  0  0
    9.6238    5.3357    1.9561 H   0  0  0  0  0  0  0  0  0  0  0  0
   12.4207   -1.7878   -0.1616 N   0  0  0  0  0  0  0  0  0  0  0  0
   11.4129   -1.5811    0.2420 N   0  0  0  0  0  0  0  0  0  0  0  0
   13.4631    6.8910    3.1580 H   0  0  0  0  0  0  0  0  0  0  0  0
   14.1599    4.5993    3.8204 H   0  0  0  0  0  0  0  0  0  0  0  0
   12.6012    2.6889    3.5468 H   0  0  0  0  0  0  0  0  0  0  0  0
   10.0624    2.9139    2.6191 O   0  0  0  0  0  0  0  0  0  0  0  0
   10.3693    1.6848    2.0958 C   0  0  0  0  0  0  0  0  0  0  0  0
   11.4635    1.3639    1.7006 O   0  0  0  0  0  0  0  0  0  0  0  0
    9.1369    0.8143    2.0983 C   0  0  0  0  0  0  0  0  0  0  0  0
    8.7984    0.6559    3.1265 H   0  0  0  0  0  0  0  0  0  0  0  0
    8.3233    1.3101    1.5615 H   0  0  0  0  0  0  0  0  0  0  0  0
    9.3697   -0.1418    1.6320 H   0  0  0  0  0  0  0  0  0  0  0  0
  1  6  1  0  0  0  0
  2  1  2  0  0  0  0
  2  3  1  0  0  0  0
  3  4  2  0  0  0  0
  4  5  1  0  0  0  0
  4 13  1  0  0  0  0
  5 12  1  0  0  0  0
  6 11  1  0  0  0  0
  6  5  2  0  0  0  0
  7  1  1  0  0  0  0
  8  2  1  0  0  0  0
  9 10  3  0  0  0  0
 14  3  1  0  0  0  0
 15 17  1  0  0  0  0
 15 14  1  0  0  0  0
 16 15  2  0  0  0  0
 17 18  1  0  0  0  0
 19 17  1  0  0  0  0
 20 17  1  0  0  0  0
M  END
