Coordinates from ORCA-job Ph-N2-OAc-B3LYPG-6-31G_dp-MTMO-d009-169-n800
 OpenBabel09051908423D

 20 19  0  0  0  0  0  0  0  0999 V2000
   11.0997    6.8105    2.8331 C   0  0  0  0  0  0  0  0  0  0  0  0
   10.6015    5.5528    2.4940 C   0  0  0  0  0  0  0  0  0  0  0  0
   11.3013    4.4106    2.8816 C   0  0  0  0  0  0  0  0  0  0  0  0
   12.4898    4.5029    3.6071 C   0  0  0  0  0  0  0  0  0  0  0  0
   12.9778    5.7690    3.9356 C   0  0  0  0  0  0  0  0  0  0  0  0
   12.2909    6.9223    3.5527 C   0  0  0  0  0  0  0  0  0  0  0  0
   10.5556    7.7009    2.5329 H   0  0  0  0  0  0  0  0  0  0  0  0
    9.6758    5.4402    1.9395 H   0  0  0  0  0  0  0  0  0  0  0  0
    8.5385   -7.0344   -1.5907 N   0  0  0  0  0  0  0  0  0  0  0  0
    8.7444   -6.0294   -1.1795 N   0  0  0  0  0  0  0  0  0  0  0  0
   12.6799    7.9012    3.8154 H   0  0  0  0  0  0  0  0  0  0  0  0
   13.9050    5.8492    4.4953 H   0  0  0  0  0  0  0  0  0  0  0  0
   13.0253    3.6093    3.8978 H   0  0  0  0  0  0  0  0  0  0  0  0
   10.6896    3.1950    2.5666 O   0  0  0  0  0  0  0  0  0  0  0  0
   11.4108    2.1261    2.1022 C   0  0  0  0  0  0  0  0  0  0  0  0
   12.6058    2.1233    1.9385 O   0  0  0  0  0  0  0  0  0  0  0  0
   10.4768    0.9728    1.8280 C   0  0  0  0  0  0  0  0  0  0  0  0
    9.9195    0.7170    2.7339 H   0  0  0  0  0  0  0  0  0  0  0  0
    9.7456    1.2567    1.0652 H   0  0  0  0  0  0  0  0  0  0  0  0
   11.0538    0.1136    1.4882 H   0  0  0  0  0  0  0  0  0  0  0  0
  1  6  1  0  0  0  0
  2  1  2  0  0  0  0
  2  3  1  0  0  0  0
  3  4  2  0  0  0  0
  4 13  1  0  0  0  0
  4  5  1  0  0  0  0
  5 12  1  0  0  0  0
  6 11  1  0  0  0  0
  6  5  2  0  0  0  0
  7  1  1  0  0  0  0
  8  2  1  0  0  0  0
  9 10  3  0  0  0  0
 14  3  1  0  0  0  0
 15 14  1  0  0  0  0
 16 15  2  0  0  0  0
 17 15  1  0  0  0  0
 17 18  1  0  0  0  0
 19 17  1  0  0  0  0
 20 17  1  0  0  0  0
M  END
