Coordinates from ORCA-job Ph-N2-OAc-B3LYPG-6-31G_dp-MTMO-d009-169-n800
 OpenBabel09051908423D

 20 19  0  0  0  0  0  0  0  0999 V2000
   11.0895    6.8654    2.8571 C   0  0  0  0  0  0  0  0  0  0  0  0
   10.6123    5.6021    2.5093 C   0  0  0  0  0  0  0  0  0  0  0  0
   11.3229    4.4684    2.9022 C   0  0  0  0  0  0  0  0  0  0  0  0
   12.5016    4.5747    3.6416 C   0  0  0  0  0  0  0  0  0  0  0  0
   12.9687    5.8464    3.9787 C   0  0  0  0  0  0  0  0  0  0  0  0
   12.2707    6.9914    3.5907 C   0  0  0  0  0  0  0  0  0  0  0  0
   10.5369    7.7492    2.5528 H   0  0  0  0  0  0  0  0  0  0  0  0
    9.6946    5.4784    1.9438 H   0  0  0  0  0  0  0  0  0  0  0  0
    8.2866   -7.5710   -1.7959 N   0  0  0  0  0  0  0  0  0  0  0  0
    8.5161   -6.5800   -1.3635 N   0  0  0  0  0  0  0  0  0  0  0  0
   12.6437    7.9747    3.8601 H   0  0  0  0  0  0  0  0  0  0  0  0
   13.8883    5.9377    4.5492 H   0  0  0  0  0  0  0  0  0  0  0  0
   13.0458    3.6876    3.9362 H   0  0  0  0  0  0  0  0  0  0  0  0
   10.7314    3.2455    2.5766 O   0  0  0  0  0  0  0  0  0  0  0  0
   11.4729    2.1875    2.1193 C   0  0  0  0  0  0  0  0  0  0  0  0
   12.6701    2.2006    1.9725 O   0  0  0  0  0  0  0  0  0  0  0  0
   10.5581    1.0228    1.8288 C   0  0  0  0  0  0  0  0  0  0  0  0
    9.9935    0.7553    2.7267 H   0  0  0  0  0  0  0  0  0  0  0  0
    9.8324    1.3000    1.0584 H   0  0  0  0  0  0  0  0  0  0  0  0
   11.1512    0.1731    1.4926 H   0  0  0  0  0  0  0  0  0  0  0  0
  1  6  1  0  0  0  0
  2  1  2  0  0  0  0
  2  3  1  0  0  0  0
  3  4  2  0  0  0  0
  4 13  1  0  0  0  0
  4  5  1  0  0  0  0
  5 12  1  0  0  0  0
  6 11  1  0  0  0  0
  6  5  2  0  0  0  0
  7  1  1  0  0  0  0
  8  2  1  0  0  0  0
  9 10  3  0  0  0  0
 14  3  1  0  0  0  0
 15 14  1  0  0  0  0
 16 15  2  0  0  0  0
 17 15  1  0  0  0  0
 17 18  1  0  0  0  0
 19 17  1  0  0  0  0
 20 17  1  0  0  0  0
M  END
