Coordinates from ORCA-job Ph-N2-OAc-B3LYPG-6-31G_dp-MTMO-d009-169-n800
 OpenBabel09051908423D

 20 19  0  0  0  0  0  0  0  0999 V2000
   11.6002    6.0864    2.7599 C   0  0  0  0  0  0  0  0  0  0  0  0
   10.5947    5.1290    2.6322 C   0  0  0  0  0  0  0  0  0  0  0  0
   10.9289    3.7756    2.6621 C   0  0  0  0  0  0  0  0  0  0  0  0
   12.2515    3.3601    2.8214 C   0  0  0  0  0  0  0  0  0  0  0  0
   13.2471    4.3308    2.9446 C   0  0  0  0  0  0  0  0  0  0  0  0
   12.9303    5.6902    2.9144 C   0  0  0  0  0  0  0  0  0  0  0  0
   11.3416    7.1411    2.7379 H   0  0  0  0  0  0  0  0  0  0  0  0
    9.5541    5.4120    2.5132 H   0  0  0  0  0  0  0  0  0  0  0  0
   13.3914   -1.0142    0.7774 N   0  0  0  0  0  0  0  0  0  0  0  0
   13.4762   -0.3090    1.6238 N   0  0  0  0  0  0  0  0  0  0  0  0
   13.7141    6.4352    3.0125 H   0  0  0  0  0  0  0  0  0  0  0  0
   14.2791    4.0152    3.0671 H   0  0  0  0  0  0  0  0  0  0  0  0
   12.5004    2.3071    2.8382 H   0  0  0  0  0  0  0  0  0  0  0  0
    9.8516    2.8870    2.6067 O   0  0  0  0  0  0  0  0  0  0  0  0
    9.8958    1.7524    1.8412 C   0  0  0  0  0  0  0  0  0  0  0  0
   10.8374    1.4150    1.1660 O   0  0  0  0  0  0  0  0  0  0  0  0
    8.5910    1.0057    1.9752 C   0  0  0  0  0  0  0  0  0  0  0  0
    8.4119    0.7503    3.0235 H   0  0  0  0  0  0  0  0  0  0  0  0
    7.7613    1.6395    1.6487 H   0  0  0  0  0  0  0  0  0  0  0  0
    8.6288    0.1002    1.3714 H   0  0  0  0  0  0  0  0  0  0  0  0
  1  6  2  0  0  0  0
  2  3  2  0  0  0  0
  2  1  1  0  0  0  0
  3  4  1  0  0  0  0
  4 13  1  0  0  0  0
  4  5  2  0  0  0  0
  5 12  1  0  0  0  0
  6  5  1  0  0  0  0
  6 11  1  0  0  0  0
  7  1  1  0  0  0  0
  8  2  1  0  0  0  0
  9 10  3  0  0  0  0
 14  3  1  0  0  0  0
 15 17  1  0  0  0  0
 15 14  1  0  0  0  0
 16 15  2  0  0  0  0
 17 18  1  0  0  0  0
 19 17  1  0  0  0  0
 20 17  1  0  0  0  0
M  END
