Coordinates from ORCA-job Ph-N2-OAc-B3LYPG-6-31G_dp-MTMO-d009-169-n800
 OpenBabel09051908423D

 20 19  0  0  0  0  0  0  0  0999 V2000
   11.1267    6.7629    2.8169 C   0  0  0  0  0  0  0  0  0  0  0  0
   10.5946    5.5163    2.4885 C   0  0  0  0  0  0  0  0  0  0  0  0
   11.2771    4.3593    2.8630 C   0  0  0  0  0  0  0  0  0  0  0  0
   12.4815    4.4259    3.5648 C   0  0  0  0  0  0  0  0  0  0  0  0
   13.0033    5.6812    3.8826 C   0  0  0  0  0  0  0  0  0  0  0  0
   12.3341    6.8491    3.5126 C   0  0  0  0  0  0  0  0  0  0  0  0
   10.5962    7.6649    2.5269 H   0  0  0  0  0  0  0  0  0  0  0  0
    9.6559    5.4237    1.9526 H   0  0  0  0  0  0  0  0  0  0  0  0
    8.8470   -6.5426   -1.3956 N   0  0  0  0  0  0  0  0  0  0  0  0
    9.0189   -5.5227   -1.0059 N   0  0  0  0  0  0  0  0  0  0  0  0
   12.7494    7.8193    3.7670 H   0  0  0  0  0  0  0  0  0  0  0  0
   13.9429    5.7413    4.4238 H   0  0  0  0  0  0  0  0  0  0  0  0
   13.0031    3.5209    3.8452 H   0  0  0  0  0  0  0  0  0  0  0  0
   10.6326    3.1574    2.5606 O   0  0  0  0  0  0  0  0  0  0  0  0
   11.3211    2.0708    2.0876 C   0  0  0  0  0  0  0  0  0  0  0  0
   12.5130    2.0394    1.9051 O   0  0  0  0  0  0  0  0  0  0  0  0
   10.3560    0.9392    1.8314 C   0  0  0  0  0  0  0  0  0  0  0  0
    9.8055    0.7004    2.7459 H   0  0  0  0  0  0  0  0  0  0  0  0
    9.6212    1.2377    1.0776 H   0  0  0  0  0  0  0  0  0  0  0  0
   10.9073    0.0652    1.4869 H   0  0  0  0  0  0  0  0  0  0  0  0
  1  6  1  0  0  0  0
  2  1  2  0  0  0  0
  2  3  1  0  0  0  0
  3  4  2  0  0  0  0
  4 13  1  0  0  0  0
  4  5  1  0  0  0  0
  5 12  1  0  0  0  0
  6 11  1  0  0  0  0
  6  5  2  0  0  0  0
  7  1  1  0  0  0  0
  8  2  1  0  0  0  0
  9 10  3  0  0  0  0
 14  3  1  0  0  0  0
 15 14  1  0  0  0  0
 16 15  2  0  0  0  0
 17 15  1  0  0  0  0
 17 18  1  0  0  0  0
 19 17  1  0  0  0  0
 20 17  1  0  0  0  0
M  END
