Coordinates from ORCA-job Ph-N2-OAc-B3LYPG-6-31G_dp-MTMO-d009-169-n800
 OpenBabel09051908423D

 20 19  0  0  0  0  0  0  0  0999 V2000
   11.4749    6.3082    2.5529 C   0  0  0  0  0  0  0  0  0  0  0  0
   10.6134    5.2250    2.3802 C   0  0  0  0  0  0  0  0  0  0  0  0
   11.0398    3.9472    2.7391 C   0  0  0  0  0  0  0  0  0  0  0  0
   12.3116    3.7321    3.2710 C   0  0  0  0  0  0  0  0  0  0  0  0
   13.1639    4.8253    3.4347 C   0  0  0  0  0  0  0  0  0  0  0  0
   12.7533    6.1115    3.0785 C   0  0  0  0  0  0  0  0  0  0  0  0
   11.1450    7.3046    2.2741 H   0  0  0  0  0  0  0  0  0  0  0  0
    9.6148    5.3532    1.9763 H   0  0  0  0  0  0  0  0  0  0  0  0
   12.2385   -2.1632   -0.2509 N   0  0  0  0  0  0  0  0  0  0  0  0
   11.3174   -1.7955    0.2367 N   0  0  0  0  0  0  0  0  0  0  0  0
   13.4245    6.9545    3.2116 H   0  0  0  0  0  0  0  0  0  0  0  0
   14.1564    4.6657    3.8454 H   0  0  0  0  0  0  0  0  0  0  0  0
   12.6304    2.7341    3.5411 H   0  0  0  0  0  0  0  0  0  0  0  0
   10.0899    2.9311    2.6078 O   0  0  0  0  0  0  0  0  0  0  0  0
   10.4181    1.7092    2.0796 C   0  0  0  0  0  0  0  0  0  0  0  0
   11.5197    1.4041    1.6932 O   0  0  0  0  0  0  0  0  0  0  0  0
    9.1968    0.8233    2.0637 C   0  0  0  0  0  0  0  0  0  0  0  0
    8.8477    0.6563    3.0871 H   0  0  0  0  0  0  0  0  0  0  0  0
    8.3835    1.3108    1.5189 H   0  0  0  0  0  0  0  0  0  0  0  0
    9.4478   -0.1278    1.5966 H   0  0  0  0  0  0  0  0  0  0  0  0
  1  6  1  0  0  0  0
  2  1  2  0  0  0  0
  2  3  1  0  0  0  0
  3  4  2  0  0  0  0
  4  5  1  0  0  0  0
  4 13  1  0  0  0  0
  5 12  1  0  0  0  0
  6 11  1  0  0  0  0
  6  5  2  0  0  0  0
  7  1  1  0  0  0  0
  8  2  1  0  0  0  0
  9 10  3  0  0  0  0
 14  3  1  0  0  0  0
 15 14  1  0  0  0  0
 16 15  2  0  0  0  0
 17 15  1  0  0  0  0
 17 18  1  0  0  0  0
 19 17  1  0  0  0  0
 20 17  1  0  0  0  0
M  END
