Coordinates from ORCA-job Ph-N2-OAc-B3LYPG-6-31G_dp-MTMO-d009-169-n800
 OpenBabel09051908423D

 20 19  0  0  0  0  0  0  0  0999 V2000
   11.1137    6.9979    2.9116 C   0  0  0  0  0  0  0  0  0  0  0  0
   10.6470    5.7323    2.5576 C   0  0  0  0  0  0  0  0  0  0  0  0
   11.3625    4.6023    2.9525 C   0  0  0  0  0  0  0  0  0  0  0  0
   12.5355    4.7145    3.7000 C   0  0  0  0  0  0  0  0  0  0  0  0
   12.9921    5.9884    4.0432 C   0  0  0  0  0  0  0  0  0  0  0  0
   12.2892    7.1298    3.6532 C   0  0  0  0  0  0  0  0  0  0  0  0
   10.5573    7.8788    2.6058 H   0  0  0  0  0  0  0  0  0  0  0  0
    9.7338    5.6040    1.9859 H   0  0  0  0  0  0  0  0  0  0  0  0
    7.8972   -8.7854   -2.2561 N   0  0  0  0  0  0  0  0  0  0  0  0
    8.1491   -7.8041   -1.8143 N   0  0  0  0  0  0  0  0  0  0  0  0
   12.6540    8.1148    3.9274 H   0  0  0  0  0  0  0  0  0  0  0  0
   13.9072    6.0843    4.6199 H   0  0  0  0  0  0  0  0  0  0  0  0
   13.0836    3.8303    3.9960 H   0  0  0  0  0  0  0  0  0  0  0  0
   10.7812    3.3763    2.6200 O   0  0  0  0  0  0  0  0  0  0  0  0
   11.5327    2.3246    2.1648 C   0  0  0  0  0  0  0  0  0  0  0  0
   12.7307    2.3460    2.0261 O   0  0  0  0  0  0  0  0  0  0  0  0
   10.6277    1.1547    1.8649 C   0  0  0  0  0  0  0  0  0  0  0  0
   10.0595    0.8802    2.7585 H   0  0  0  0  0  0  0  0  0  0  0  0
    9.9047    1.4296    1.0911 H   0  0  0  0  0  0  0  0  0  0  0  0
   11.2287    0.3103    1.5295 H   0  0  0  0  0  0  0  0  0  0  0  0
  1  6  1  0  0  0  0
  2  1  2  0  0  0  0
  2  3  1  0  0  0  0
  3  4  2  0  0  0  0
  4 13  1  0  0  0  0
  4  5  1  0  0  0  0
  5 12  1  0  0  0  0
  6 11  1  0  0  0  0
  6  5  2  0  0  0  0
  7  1  1  0  0  0  0
  8  2  1  0  0  0  0
  9 10  3  0  0  0  0
 14  3  1  0  0  0  0
 15 14  1  0  0  0  0
 16 15  2  0  0  0  0
 17 15  1  0  0  0  0
 17 18  1  0  0  0  0
 19 17  1  0  0  0  0
 20 17  1  0  0  0  0
M  END
