Coordinates from ORCA-job Ph-N2-OAc-B3LYPG-6-31G_dp-MTMO-d009-169-n800
 OpenBabel09051908423D

 20 19  0  0  0  0  0  0  0  0999 V2000
   11.1448    7.1153    2.9585 C   0  0  0  0  0  0  0  0  0  0  0  0
   10.6795    5.8498    2.6026 C   0  0  0  0  0  0  0  0  0  0  0  0
   11.3951    4.7199    2.9973 C   0  0  0  0  0  0  0  0  0  0  0  0
   12.5671    4.8320    3.7464 C   0  0  0  0  0  0  0  0  0  0  0  0
   13.0224    6.1058    4.0915 C   0  0  0  0  0  0  0  0  0  0  0  0
   12.3193    7.2472    3.7018 C   0  0  0  0  0  0  0  0  0  0  0  0
   10.5884    7.9961    2.6528 H   0  0  0  0  0  0  0  0  0  0  0  0
    9.7672    5.7215    2.0294 H   0  0  0  0  0  0  0  0  0  0  0  0
    7.5974   -9.8449   -2.6578 N   0  0  0  0  0  0  0  0  0  0  0  0
    7.8548   -8.8648   -2.2164 N   0  0  0  0  0  0  0  0  0  0  0  0
   12.6831    8.2321    3.9775 H   0  0  0  0  0  0  0  0  0  0  0  0
   13.9367    6.2018    4.6696 H   0  0  0  0  0  0  0  0  0  0  0  0
   13.1154    3.9478    4.0423 H   0  0  0  0  0  0  0  0  0  0  0  0
   10.8151    3.4938    2.6627 O   0  0  0  0  0  0  0  0  0  0  0  0
   11.5680    2.4431    2.2073 C   0  0  0  0  0  0  0  0  0  0  0  0
   12.7661    2.4655    2.0702 O   0  0  0  0  0  0  0  0  0  0  0  0
   10.6641    1.2729    1.9048 C   0  0  0  0  0  0  0  0  0  0  0  0
   10.0949    0.9971    2.7973 H   0  0  0  0  0  0  0  0  0  0  0  0
    9.9420    1.5482    1.1304 H   0  0  0  0  0  0  0  0  0  0  0  0
   11.2661    0.4293    1.5692 H   0  0  0  0  0  0  0  0  0  0  0  0
  1  6  1  0  0  0  0
  2  1  2  0  0  0  0
  2  3  1  0  0  0  0
  3  4  2  0  0  0  0
  4 13  1  0  0  0  0
  4  5  1  0  0  0  0
  5 12  1  0  0  0  0
  6 11  1  0  0  0  0
  6  5  2  0  0  0  0
  7  1  1  0  0  0  0
  8  2  1  0  0  0  0
  9 10  3  0  0  0  0
 14  3  1  0  0  0  0
 15 14  1  0  0  0  0
 16 15  2  0  0  0  0
 17 15  1  0  0  0  0
 17 18  1  0  0  0  0
 19 17  1  0  0  0  0
 20 17  1  0  0  0  0
M  END
