Coordinates from ORCA-job Ph-N2-OAc-B3LYPG-6-31G_dp-MTMO-d009-169-n800
 OpenBabel09051908423D

 20 19  0  0  0  0  0  0  0  0999 V2000
   12.0774    5.6094    2.0973 C   0  0  0  0  0  0  0  0  0  0  0  0
   10.9776    4.7624    1.9561 C   0  0  0  0  0  0  0  0  0  0  0  0
   10.9435    3.5613    2.6630 C   0  0  0  0  0  0  0  0  0  0  0  0
   11.9871    3.1918    3.5122 C   0  0  0  0  0  0  0  0  0  0  0  0
   13.0836    4.0467    3.6390 C   0  0  0  0  0  0  0  0  0  0  0  0
   13.1347    5.2526    2.9365 C   0  0  0  0  0  0  0  0  0  0  0  0
   12.1050    6.5471    1.5504 H   0  0  0  0  0  0  0  0  0  0  0  0
   10.1432    5.0189    1.3117 H   0  0  0  0  0  0  0  0  0  0  0  0
   12.6758    1.9240   -0.1190 N   0  0  0  0  0  0  0  0  0  0  0  0
   13.7000    1.7342    0.2500 N   0  0  0  0  0  0  0  0  0  0  0  0
   13.9922    5.9101    3.0445 H   0  0  0  0  0  0  0  0  0  0  0  0
   13.9028    3.7638    4.2937 H   0  0  0  0  0  0  0  0  0  0  0  0
   11.9485    2.2539    4.0503 H   0  0  0  0  0  0  0  0  0  0  0  0
    9.7751    2.8071    2.5274 O   0  0  0  0  0  0  0  0  0  0  0  0
    9.8274    1.4528    2.3260 C   0  0  0  0  0  0  0  0  0  0  0  0
   10.8457    0.8083    2.2651 O   0  0  0  0  0  0  0  0  0  0  0  0
    8.4272    0.9091    2.1861 C   0  0  0  0  0  0  0  0  0  0  0  0
    7.8244    1.1866    3.0559 H   0  0  0  0  0  0  0  0  0  0  0  0
    7.9466    1.3446    1.3047 H   0  0  0  0  0  0  0  0  0  0  0  0
    8.4694   -0.1751    2.0867 H   0  0  0  0  0  0  0  0  0  0  0  0
  1  6  1  0  0  0  0
  2  1  2  0  0  0  0
  2  3  1  0  0  0  0
  3  4  2  0  0  0  0
  4  5  1  0  0  0  0
  4 13  1  0  0  0  0
  5 12  1  0  0  0  0
  6 11  1  0  0  0  0
  6  5  2  0  0  0  0
  7  1  1  0  0  0  0
  8  2  1  0  0  0  0
  9 10  3  0  0  0  0
 14  3  1  0  0  0  0
 15 14  1  0  0  0  0
 16 15  2  0  0  0  0
 17 15  1  0  0  0  0
 17 18  1  0  0  0  0
 19 17  1  0  0  0  0
 20 17  1  0  0  0  0
M  END
