Coordinates from ORCA-job Ph-N2-OAc-B3LYPG-6-31G_dp-MTMO-d009-169-n800
 OpenBabel09051908423D

 20 19  0  0  0  0  0  0  0  0999 V2000
   11.5772    6.1142    2.7834 C   0  0  0  0  0  0  0  0  0  0  0  0
   10.5830    5.1454    2.6519 C   0  0  0  0  0  0  0  0  0  0  0  0
   10.9348    3.7964    2.6665 C   0  0  0  0  0  0  0  0  0  0  0  0
   12.2636    3.3964    2.8137 C   0  0  0  0  0  0  0  0  0  0  0  0
   13.2476    4.3781    2.9406 C   0  0  0  0  0  0  0  0  0  0  0  0
   12.9131    5.7337    2.9259 C   0  0  0  0  0  0  0  0  0  0  0  0
   11.3049    7.1657    2.7735 H   0  0  0  0  0  0  0  0  0  0  0  0
    9.5382    5.4167    2.5419 H   0  0  0  0  0  0  0  0  0  0  0  0
   13.3214   -1.2144    0.7668 N   0  0  0  0  0  0  0  0  0  0  0  0
   13.3884   -0.5141    1.6192 N   0  0  0  0  0  0  0  0  0  0  0  0
   13.6878    6.4877    3.0269 H   0  0  0  0  0  0  0  0  0  0  0  0
   14.2845    4.0753    3.0538 H   0  0  0  0  0  0  0  0  0  0  0  0
   12.5244    2.3461    2.8177 H   0  0  0  0  0  0  0  0  0  0  0  0
    9.8695    2.8936    2.6086 O   0  0  0  0  0  0  0  0  0  0  0  0
    9.9246    1.7679    1.8307 C   0  0  0  0  0  0  0  0  0  0  0  0
   10.8668    1.4506    1.1465 O   0  0  0  0  0  0  0  0  0  0  0  0
    8.6304    1.0027    1.9634 C   0  0  0  0  0  0  0  0  0  0  0  0
    8.4566    0.7396    3.0106 H   0  0  0  0  0  0  0  0  0  0  0  0
    7.7917    1.6270    1.6414 H   0  0  0  0  0  0  0  0  0  0  0  0
    8.6790    0.1011    1.3545 H   0  0  0  0  0  0  0  0  0  0  0  0
  1  6  2  0  0  0  0
  2  3  2  0  0  0  0
  2  1  1  0  0  0  0
  3  4  1  0  0  0  0
  4 13  1  0  0  0  0
  4  5  2  0  0  0  0
  5 12  1  0  0  0  0
  6  5  1  0  0  0  0
  6 11  1  0  0  0  0
  7  1  1  0  0  0  0
  8  2  1  0  0  0  0
  9 10  3  0  0  0  0
 14  3  1  0  0  0  0
 15 17  1  0  0  0  0
 15 14  1  0  0  0  0
 16 15  2  0  0  0  0
 17 18  1  0  0  0  0
 19 17  1  0  0  0  0
 20 17  1  0  0  0  0
M  END
