Coordinates from ORCA-job Ph-N2-OAc-B3LYPG-6-31G_dp-MTMO-d009-169-n800
 OpenBabel09051908423D

 20 19  0  0  0  0  0  0  0  0999 V2000
   11.2140    6.6058    2.7958 C   0  0  0  0  0  0  0  0  0  0  0  0
   10.5816    5.4043    2.4777 C   0  0  0  0  0  0  0  0  0  0  0  0
   11.2025    4.1970    2.7970 C   0  0  0  0  0  0  0  0  0  0  0  0
   12.4443    4.1694    3.4333 C   0  0  0  0  0  0  0  0  0  0  0  0
   13.0666    5.3804    3.7416 C   0  0  0  0  0  0  0  0  0  0  0  0
   12.4597    6.5976    3.4263 C   0  0  0  0  0  0  0  0  0  0  0  0
   10.7318    7.5467    2.5486 H   0  0  0  0  0  0  0  0  0  0  0  0
    9.6119    5.3853    1.9918 H   0  0  0  0  0  0  0  0  0  0  0  0
    9.7913   -5.0018   -0.7269 N   0  0  0  0  0  0  0  0  0  0  0  0
    9.8382   -3.9748   -0.3212 N   0  0  0  0  0  0  0  0  0  0  0  0
   12.9530    7.5328    3.6724 H   0  0  0  0  0  0  0  0  0  0  0  0
   14.0351    5.3669    4.2324 H   0  0  0  0  0  0  0  0  0  0  0  0
   12.9170    3.2262    3.6713 H   0  0  0  0  0  0  0  0  0  0  0  0
   10.4626    3.0469    2.5120 O   0  0  0  0  0  0  0  0  0  0  0  0
   11.0501    1.9243    1.9892 C   0  0  0  0  0  0  0  0  0  0  0  0
   12.2255    1.8172    1.7403 O   0  0  0  0  0  0  0  0  0  0  0  0
    9.9995    0.8620    1.7758 C   0  0  0  0  0  0  0  0  0  0  0  0
    9.4991    0.6350    2.7216 H   0  0  0  0  0  0  0  0  0  0  0  0
    9.2350    1.2245    1.0821 H   0  0  0  0  0  0  0  0  0  0  0  0
   10.4685   -0.0361    1.3762 H   0  0  0  0  0  0  0  0  0  0  0  0
  1  6  1  0  0  0  0
  2  1  2  0  0  0  0
  2  3  1  0  0  0  0
  3  4  2  0  0  0  0
  4 13  1  0  0  0  0
  4  5  1  0  0  0  0
  5 12  1  0  0  0  0
  6 11  1  0  0  0  0
  6  5  2  0  0  0  0
  7  1  1  0  0  0  0
  8  2  1  0  0  0  0
  9 10  3  0  0  0  0
 14  3  1  0  0  0  0
 15 14  1  0  0  0  0
 16 15  2  0  0  0  0
 17 15  1  0  0  0  0
 17 18  1  0  0  0  0
 19 17  1  0  0  0  0
 20 17  1  0  0  0  0
M  END
