Coordinates from ORCA-job Ph-N2-OAc-B3LYPG-6-31G_dp-MTMO-d009-169-n800
 OpenBabel09051908423D

 20 19  0  0  0  0  0  0  0  0999 V2000
   11.0915    6.8372    2.8448 C   0  0  0  0  0  0  0  0  0  0  0  0
   10.6061    5.5760    2.5007 C   0  0  0  0  0  0  0  0  0  0  0  0
   11.3126    4.4391    2.8917 C   0  0  0  0  0  0  0  0  0  0  0  0
   12.4953    4.5401    3.6255 C   0  0  0  0  0  0  0  0  0  0  0  0
   12.9706    5.8097    3.9589 C   0  0  0  0  0  0  0  0  0  0  0  0
   12.2768    6.9579    3.5727 C   0  0  0  0  0  0  0  0  0  0  0  0
   10.5421    7.7235    2.5421 H   0  0  0  0  0  0  0  0  0  0  0  0
    9.6851    5.4565    1.9397 H   0  0  0  0  0  0  0  0  0  0  0  0
    8.4033   -7.3007   -1.6940 N   0  0  0  0  0  0  0  0  0  0  0  0
    8.6188   -6.3036   -1.2685 N   0  0  0  0  0  0  0  0  0  0  0  0
   12.6561    7.9396    3.8393 H   0  0  0  0  0  0  0  0  0  0  0  0
   13.8933    5.8969    4.5250 H   0  0  0  0  0  0  0  0  0  0  0  0
   13.0362    3.6505    3.9185 H   0  0  0  0  0  0  0  0  0  0  0  0
   10.7132    3.2189    2.5704 O   0  0  0  0  0  0  0  0  0  0  0  0
   11.4470    2.1565    2.1108 C   0  0  0  0  0  0  0  0  0  0  0  0
   12.6434    2.1633    1.9580 O   0  0  0  0  0  0  0  0  0  0  0  0
   10.5247    0.9962    1.8265 C   0  0  0  0  0  0  0  0  0  0  0  0
    9.9624    0.7335    2.7274 H   0  0  0  0  0  0  0  0  0  0  0  0
    9.7972    1.2759    1.0587 H   0  0  0  0  0  0  0  0  0  0  0  0
   11.1116    0.1427    1.4893 H   0  0  0  0  0  0  0  0  0  0  0  0
  1  6  1  0  0  0  0
  2  1  2  0  0  0  0
  2  3  1  0  0  0  0
  3  4  2  0  0  0  0
  4 13  1  0  0  0  0
  4  5  1  0  0  0  0
  5 12  1  0  0  0  0
  6 11  1  0  0  0  0
  6  5  2  0  0  0  0
  7  1  1  0  0  0  0
  8  2  1  0  0  0  0
  9 10  3  0  0  0  0
 14  3  1  0  0  0  0
 15 14  1  0  0  0  0
 16 15  2  0  0  0  0
 17 15  1  0  0  0  0
 17 18  1  0  0  0  0
 19 17  1  0  0  0  0
 20 17  1  0  0  0  0
M  END
