Coordinates from ORCA-job Ph-N2-OAc-B3LYPG-6-31G_dp-MTMO-d009-169-n800
 OpenBabel09051908423D

 20 19  0  0  0  0  0  0  0  0999 V2000
   11.9949    5.7094    2.1917 C   0  0  0  0  0  0  0  0  0  0  0  0
   10.9108    4.8446    2.0418 C   0  0  0  0  0  0  0  0  0  0  0  0
   10.9387    3.5957    2.6618 C   0  0  0  0  0  0  0  0  0  0  0  0
   12.0307    3.1963    3.4339 C   0  0  0  0  0  0  0  0  0  0  0  0
   13.1103    4.0714    3.5706 C   0  0  0  0  0  0  0  0  0  0  0  0
   13.0993    5.3243    2.9546 C   0  0  0  0  0  0  0  0  0  0  0  0
   11.9738    6.6830    1.7113 H   0  0  0  0  0  0  0  0  0  0  0  0
   10.0402    5.1228    1.4571 H   0  0  0  0  0  0  0  0  0  0  0  0
   12.8213    1.5460   -0.1608 N   0  0  0  0  0  0  0  0  0  0  0  0
   13.7702    1.3151    0.3563 N   0  0  0  0  0  0  0  0  0  0  0  0
   13.9447    5.9960    3.0702 H   0  0  0  0  0  0  0  0  0  0  0  0
   13.9659    3.7660    4.1658 H   0  0  0  0  0  0  0  0  0  0  0  0
   12.0420    2.2230    3.9053 H   0  0  0  0  0  0  0  0  0  0  0  0
    9.7793    2.8291    2.5202 O   0  0  0  0  0  0  0  0  0  0  0  0
    9.8322    1.4786    2.3003 C   0  0  0  0  0  0  0  0  0  0  0  0
   10.8497    0.8337    2.2261 O   0  0  0  0  0  0  0  0  0  0  0  0
    8.4313    0.9363    2.1600 C   0  0  0  0  0  0  0  0  0  0  0  0
    7.8360    1.1939    3.0411 H   0  0  0  0  0  0  0  0  0  0  0  0
    7.9421    1.3899    1.2927 H   0  0  0  0  0  0  0  0  0  0  0  0
    8.4741   -0.1455    2.0374 H   0  0  0  0  0  0  0  0  0  0  0  0
  1  6  1  0  0  0  0
  2  1  2  0  0  0  0
  2  3  1  0  0  0  0
  3  4  2  0  0  0  0
  4  5  1  0  0  0  0
  4 13  1  0  0  0  0
  5 12  1  0  0  0  0
  6 11  1  0  0  0  0
  6  5  2  0  0  0  0
  7  1  1  0  0  0  0
  8  2  1  0  0  0  0
  9 10  3  0  0  0  0
 14  3  1  0  0  0  0
 15 14  1  0  0  0  0
 16 15  2  0  0  0  0
 17 15  1  0  0  0  0
 17 18  1  0  0  0  0
 19 17  1  0  0  0  0
 20 17  1  0  0  0  0
M  END
