Coordinates from ORCA-job Ph-N2-OAc-B3LYPG-6-31G_dp-MTMO-d009-169-n800
 OpenBabel09051908423D

 20 19  0  0  0  0  0  0  0  0999 V2000
   11.2068    6.6334    2.8054 C   0  0  0  0  0  0  0  0  0  0  0  0
   10.5846    5.4273    2.4845 C   0  0  0  0  0  0  0  0  0  0  0  0
   11.2126    4.2247    2.8071 C   0  0  0  0  0  0  0  0  0  0  0  0
   12.4513    4.2061    3.4497 C   0  0  0  0  0  0  0  0  0  0  0  0
   13.0633    5.4216    3.7610 C   0  0  0  0  0  0  0  0  0  0  0  0
   12.4493    6.6343    3.4424 C   0  0  0  0  0  0  0  0  0  0  0  0
   10.7190    7.5708    2.5556 H   0  0  0  0  0  0  0  0  0  0  0  0
    9.6176    5.4013    1.9937 H   0  0  0  0  0  0  0  0  0  0  0  0
    9.6752   -5.2608   -0.8220 N   0  0  0  0  0  0  0  0  0  0  0  0
    9.7323   -4.2316   -0.4232 N   0  0  0  0  0  0  0  0  0  0  0  0
   12.9345    7.5731    3.6908 H   0  0  0  0  0  0  0  0  0  0  0  0
   14.0293    5.4152    4.2566 H   0  0  0  0  0  0  0  0  0  0  0  0
   12.9296    3.2664    3.6903 H   0  0  0  0  0  0  0  0  0  0  0  0
   10.4824    3.0693    2.5184 O   0  0  0  0  0  0  0  0  0  0  0  0
   11.0804    1.9503    2.0000 C   0  0  0  0  0  0  0  0  0  0  0  0
   12.2580    1.8505    1.7587 O   0  0  0  0  0  0  0  0  0  0  0  0
   10.0378    0.8813    1.7803 C   0  0  0  0  0  0  0  0  0  0  0  0
    9.5316    0.6526    2.7226 H   0  0  0  0  0  0  0  0  0  0  0  0
    9.2765    1.2381    1.0802 H   0  0  0  0  0  0  0  0  0  0  0  0
   10.5155   -0.0144    1.3855 H   0  0  0  0  0  0  0  0  0  0  0  0
  1  6  1  0  0  0  0
  2  1  2  0  0  0  0
  2  3  1  0  0  0  0
  3  4  2  0  0  0  0
  4 13  1  0  0  0  0
  4  5  1  0  0  0  0
  5 12  1  0  0  0  0
  6 11  1  0  0  0  0
  6  5  2  0  0  0  0
  7  1  1  0  0  0  0
  8  2  1  0  0  0  0
  9 10  3  0  0  0  0
 14  3  1  0  0  0  0
 15 14  1  0  0  0  0
 16 15  2  0  0  0  0
 17 15  1  0  0  0  0
 17 18  1  0  0  0  0
 19 17  1  0  0  0  0
 20 17  1  0  0  0  0
M  END
