Coordinates from ORCA-job Ph-N2-OAc-B3LYPG-6-31G_dp-MTMO-d009-169-n800
 OpenBabel09051908423D

 20 19  0  0  0  0  0  0  0  0999 V2000
   11.1517    6.7416    2.8178 C   0  0  0  0  0  0  0  0  0  0  0  0
   10.5942    5.5055    2.4926 C   0  0  0  0  0  0  0  0  0  0  0  0
   11.2622    4.3356    2.8531 C   0  0  0  0  0  0  0  0  0  0  0  0
   12.4774    4.3793    3.5379 C   0  0  0  0  0  0  0  0  0  0  0  0
   13.0248    5.6244    3.8529 C   0  0  0  0  0  0  0  0  0  0  0  0
   12.3701    6.8049    3.4967 C   0  0  0  0  0  0  0  0  0  0  0  0
   10.6326    7.6535    2.5386 H   0  0  0  0  0  0  0  0  0  0  0  0
    9.6466    5.4307    1.9696 H   0  0  0  0  0  0  0  0  0  0  0  0
    9.0537   -6.3106   -1.2840 N   0  0  0  0  0  0  0  0  0  0  0  0
    9.1925   -5.2835   -0.9002 N   0  0  0  0  0  0  0  0  0  0  0  0
   12.8052    7.7670    3.7486 H   0  0  0  0  0  0  0  0  0  0  0  0
   13.9726    5.6667    4.3811 H   0  0  0  0  0  0  0  0  0  0  0  0
   12.9876    3.4646    3.8078 H   0  0  0  0  0  0  0  0  0  0  0  0
   10.5932    3.1460    2.5556 O   0  0  0  0  0  0  0  0  0  0  0  0
   11.2562    2.0488    2.0710 C   0  0  0  0  0  0  0  0  0  0  0  0
   12.4448    1.9970    1.8724 O   0  0  0  0  0  0  0  0  0  0  0  0
   10.2681    0.9348    1.8253 C   0  0  0  0  0  0  0  0  0  0  0  0
    9.7268    0.7027    2.7471 H   0  0  0  0  0  0  0  0  0  0  0  0
    9.5279    1.2481    1.0830 H   0  0  0  0  0  0  0  0  0  0  0  0
   10.7992    0.0524    1.4706 H   0  0  0  0  0  0  0  0  0  0  0  0
  1  6  1  0  0  0  0
  2  1  2  0  0  0  0
  2  3  1  0  0  0  0
  3  4  2  0  0  0  0
  4 13  1  0  0  0  0
  4  5  1  0  0  0  0
  5 12  1  0  0  0  0
  6 11  1  0  0  0  0
  6  5  2  0  0  0  0
  7  1  1  0  0  0  0
  8  2  1  0  0  0  0
  9 10  3  0  0  0  0
 14  3  1  0  0  0  0
 15 14  1  0  0  0  0
 16 15  2  0  0  0  0
 17 15  1  0  0  0  0
 17 18  1  0  0  0  0
 19 17  1  0  0  0  0
 20 17  1  0  0  0  0
M  END
