Coordinates from ORCA-job Ph-N2-OAc-B3LYPG-6-31G_dp-MTMO-d009-169-n800
 OpenBabel09051908423D

 20 19  0  0  0  0  0  0  0  0999 V2000
   11.2047    6.6437    2.8083 C   0  0  0  0  0  0  0  0  0  0  0  0
   10.5859    5.4360    2.4868 C   0  0  0  0  0  0  0  0  0  0  0  0
   11.2161    4.2350    2.8112 C   0  0  0  0  0  0  0  0  0  0  0  0
   12.4537    4.2196    3.4561 C   0  0  0  0  0  0  0  0  0  0  0  0
   13.0622    5.4368    3.7679 C   0  0  0  0  0  0  0  0  0  0  0  0
   12.4460    6.6479    3.4475 C   0  0  0  0  0  0  0  0  0  0  0  0
   10.7152    7.5799    2.5572 H   0  0  0  0  0  0  0  0  0  0  0  0
    9.6198    5.4075    1.9943 H   0  0  0  0  0  0  0  0  0  0  0  0
    9.6341   -5.3572   -0.8600 N   0  0  0  0  0  0  0  0  0  0  0  0
    9.6946   -4.3277   -0.4625 N   0  0  0  0  0  0  0  0  0  0  0  0
   12.9286    7.5879    3.6964 H   0  0  0  0  0  0  0  0  0  0  0  0
   14.0274    5.4329    4.2653 H   0  0  0  0  0  0  0  0  0  0  0  0
   12.9338    3.2812    3.6981 H   0  0  0  0  0  0  0  0  0  0  0  0
   10.4891    3.0778    2.5217 O   0  0  0  0  0  0  0  0  0  0  0  0
   11.0907    1.9601    2.0046 C   0  0  0  0  0  0  0  0  0  0  0  0
   12.2689    1.8630    1.7654 O   0  0  0  0  0  0  0  0  0  0  0  0
   10.0510    0.8887    1.7833 C   0  0  0  0  0  0  0  0  0  0  0  0
    9.5429    0.6595    2.7245 H   0  0  0  0  0  0  0  0  0  0  0  0
    9.2908    1.2432    1.0809 H   0  0  0  0  0  0  0  0  0  0  0  0
   10.5318   -0.0063    1.3904 H   0  0  0  0  0  0  0  0  0  0  0  0
  1  6  1  0  0  0  0
  2  1  2  0  0  0  0
  2  3  1  0  0  0  0
  3  4  2  0  0  0  0
  4 13  1  0  0  0  0
  4  5  1  0  0  0  0
  5 12  1  0  0  0  0
  6 11  1  0  0  0  0
  6  5  2  0  0  0  0
  7  1  1  0  0  0  0
  8  2  1  0  0  0  0
  9 10  3  0  0  0  0
 14  3  1  0  0  0  0
 15 14  1  0  0  0  0
 16 15  2  0  0  0  0
 17 15  1  0  0  0  0
 17 18  1  0  0  0  0
 19 17  1  0  0  0  0
 20 17  1  0  0  0  0
M  END
