Coordinates from ORCA-job Ph-N2-OAc-B3LYPG-6-31G_dp-MTMO-d009-169-n800
 OpenBabel09051908423D

 20 19  0  0  0  0  0  0  0  0999 V2000
   11.2290    6.5591    2.7774 C   0  0  0  0  0  0  0  0  0  0  0  0
   10.5773    5.3661    2.4662 C   0  0  0  0  0  0  0  0  0  0  0  0
   11.1852    4.1507    2.7799 C   0  0  0  0  0  0  0  0  0  0  0  0
   12.4328    4.1067    3.4038 C   0  0  0  0  0  0  0  0  0  0  0  0
   13.0743    5.3094    3.7054 C   0  0  0  0  0  0  0  0  0  0  0  0
   12.4807    6.5345    3.3956 C   0  0  0  0  0  0  0  0  0  0  0  0
   10.7570    7.5064    2.5345 H   0  0  0  0  0  0  0  0  0  0  0  0
    9.6029    5.3599    1.9898 H   0  0  0  0  0  0  0  0  0  0  0  0
   10.0124   -4.5605   -0.5816 N   0  0  0  0  0  0  0  0  0  0  0  0
   10.0205   -3.5421   -0.1521 N   0  0  0  0  0  0  0  0  0  0  0  0
   12.9889    7.4631    3.6363 H   0  0  0  0  0  0  0  0  0  0  0  0
   14.0472    5.2831    4.1866 H   0  0  0  0  0  0  0  0  0  0  0  0
   12.8952    3.1573    3.6375 H   0  0  0  0  0  0  0  0  0  0  0  0
   10.4271    3.0106    2.5027 O   0  0  0  0  0  0  0  0  0  0  0  0
   10.9940    1.8788    1.9764 C   0  0  0  0  0  0  0  0  0  0  0  0
   12.1654    1.7550    1.7170 O   0  0  0  0  0  0  0  0  0  0  0  0
    9.9266    0.8308    1.7750 C   0  0  0  0  0  0  0  0  0  0  0  0
    9.4331    0.6121    2.7264 H   0  0  0  0  0  0  0  0  0  0  0  0
    9.1599    1.2035    1.0892 H   0  0  0  0  0  0  0  0  0  0  0  0
   10.3779   -0.0748    1.3715 H   0  0  0  0  0  0  0  0  0  0  0  0
  1  6  1  0  0  0  0
  2  1  2  0  0  0  0
  2  3  1  0  0  0  0
  3  4  2  0  0  0  0
  4 13  1  0  0  0  0
  4  5  1  0  0  0  0
  5 12  1  0  0  0  0
  6 11  1  0  0  0  0
  6  5  2  0  0  0  0
  7  1  1  0  0  0  0
  8  2  1  0  0  0  0
  9 10  3  0  0  0  0
 14  3  1  0  0  0  0
 15 14  1  0  0  0  0
 16 15  2  0  0  0  0
 17 15  1  0  0  0  0
 17 18  1  0  0  0  0
 19 17  1  0  0  0  0
 20 17  1  0  0  0  0
M  END
