Coordinates from ORCA-job Ph-N2-OAc-B3LYPG-6-31G_dp-MTMO-d009-169-n800
 OpenBabel09051908423D

 20 19  0  0  0  0  0  0  0  0999 V2000
   11.1561    7.1569    2.9749 C   0  0  0  0  0  0  0  0  0  0  0  0
   10.6910    5.8914    2.6185 C   0  0  0  0  0  0  0  0  0  0  0  0
   11.4067    4.7615    3.0131 C   0  0  0  0  0  0  0  0  0  0  0  0
   12.5784    4.8736    3.7627 C   0  0  0  0  0  0  0  0  0  0  0  0
   13.0333    6.1474    4.1084 C   0  0  0  0  0  0  0  0  0  0  0  0
   12.3303    7.2887    3.7187 C   0  0  0  0  0  0  0  0  0  0  0  0
   10.5996    8.0377    2.6693 H   0  0  0  0  0  0  0  0  0  0  0  0
    9.7789    5.7631    2.0450 H   0  0  0  0  0  0  0  0  0  0  0  0
    7.4922  -10.2198   -2.8002 N   0  0  0  0  0  0  0  0  0  0  0  0
    7.7509   -9.2399   -2.3593 N   0  0  0  0  0  0  0  0  0  0  0  0
   12.6938    8.2736    3.9948 H   0  0  0  0  0  0  0  0  0  0  0  0
   13.9474    6.2432    4.6868 H   0  0  0  0  0  0  0  0  0  0  0  0
   13.1266    3.9894    4.0585 H   0  0  0  0  0  0  0  0  0  0  0  0
   10.8269    3.5355    2.6780 O   0  0  0  0  0  0  0  0  0  0  0  0
   11.5801    2.4849    2.2226 C   0  0  0  0  0  0  0  0  0  0  0  0
   12.7783    2.5075    2.0860 O   0  0  0  0  0  0  0  0  0  0  0  0
   10.6765    1.3147    1.9194 C   0  0  0  0  0  0  0  0  0  0  0  0
   10.1070    1.0385    2.8117 H   0  0  0  0  0  0  0  0  0  0  0  0
    9.9546    1.5902    1.1448 H   0  0  0  0  0  0  0  0  0  0  0  0
   11.2787    0.4713    1.5838 H   0  0  0  0  0  0  0  0  0  0  0  0
  1  6  1  0  0  0  0
  2  1  2  0  0  0  0
  2  3  1  0  0  0  0
  3  4  2  0  0  0  0
  4 13  1  0  0  0  0
  4  5  1  0  0  0  0
  5 12  1  0  0  0  0
  6 11  1  0  0  0  0
  6  5  2  0  0  0  0
  7  1  1  0  0  0  0
  8  2  1  0  0  0  0
  9 10  3  0  0  0  0
 14  3  1  0  0  0  0
 15 14  1  0  0  0  0
 16 15  2  0  0  0  0
 17 15  1  0  0  0  0
 17 18  1  0  0  0  0
 19 17  1  0  0  0  0
 20 17  1  0  0  0  0
M  END
