Coordinates from ORCA-job Ph-N2-OAc-B3LYPG-6-31G_dp-MTMO-d009-169-n800
 OpenBabel09051908423D

 20 19  0  0  0  0  0  0  0  0999 V2000
   12.0843    5.5999    2.0884 C   0  0  0  0  0  0  0  0  0  0  0  0
   10.9837    4.7539    1.9475 C   0  0  0  0  0  0  0  0  0  0  0  0
   10.9463    3.5552    2.6583 C   0  0  0  0  0  0  0  0  0  0  0  0
   11.9870    3.1875    3.5118 C   0  0  0  0  0  0  0  0  0  0  0  0
   13.0845    4.0412    3.6379 C   0  0  0  0  0  0  0  0  0  0  0  0
   13.1392    5.2445    2.9312 C   0  0  0  0  0  0  0  0  0  0  0  0
   12.1145    6.5356    1.5383 H   0  0  0  0  0  0  0  0  0  0  0  0
   10.1512    5.0094    1.3003 H   0  0  0  0  0  0  0  0  0  0  0  0
   12.6590    1.9784   -0.0921 N   0  0  0  0  0  0  0  0  0  0  0  0
   13.6895    1.7864    0.2580 N   0  0  0  0  0  0  0  0  0  0  0  0
   13.9974    5.9010    3.0388 H   0  0  0  0  0  0  0  0  0  0  0  0
   13.9018    3.7595    4.2956 H   0  0  0  0  0  0  0  0  0  0  0  0
   11.9459    2.2515    4.0531 H   0  0  0  0  0  0  0  0  0  0  0  0
    9.7770    2.8027    2.5216 O   0  0  0  0  0  0  0  0  0  0  0  0
    9.8260    1.4467    2.3321 C   0  0  0  0  0  0  0  0  0  0  0  0
   10.8424    0.7981    2.2836 O   0  0  0  0  0  0  0  0  0  0  0  0
    8.4249    0.9066    2.1871 C   0  0  0  0  0  0  0  0  0  0  0  0
    7.8167    1.1944    3.0498 H   0  0  0  0  0  0  0  0  0  0  0  0
    7.9523    1.3356    1.2981 H   0  0  0  0  0  0  0  0  0  0  0  0
    8.4639   -0.1786    2.0980 H   0  0  0  0  0  0  0  0  0  0  0  0
  1  6  1  0  0  0  0
  2  1  2  0  0  0  0
  2  3  1  0  0  0  0
  3  4  2  0  0  0  0
  4  5  1  0  0  0  0
  4 13  1  0  0  0  0
  5 12  1  0  0  0  0
  6 11  1  0  0  0  0
  6  5  2  0  0  0  0
  7  1  1  0  0  0  0
  8  2  1  0  0  0  0
  9 10  3  0  0  0  0
 14  3  1  0  0  0  0
 15 14  1  0  0  0  0
 16 15  2  0  0  0  0
 17 15  1  0  0  0  0
 17 18  1  0  0  0  0
 19 17  1  0  0  0  0
 20 17  1  0  0  0  0
M  END
