Coordinates from ORCA-job Ph-N2-OAc-B3LYPG-6-31G_dp-MTMO-d009-169-n800
 OpenBabel09051908423D

 20 19  0  0  0  0  0  0  0  0999 V2000
   11.1178    7.0141    2.9181 C   0  0  0  0  0  0  0  0  0  0  0  0
   10.6515    5.7485    2.5638 C   0  0  0  0  0  0  0  0  0  0  0  0
   11.3670    4.6186    2.9587 C   0  0  0  0  0  0  0  0  0  0  0  0
   12.5399    4.7308    3.7065 C   0  0  0  0  0  0  0  0  0  0  0  0
   12.9961    6.0047    4.0500 C   0  0  0  0  0  0  0  0  0  0  0  0
   12.2932    7.1461    3.6600 C   0  0  0  0  0  0  0  0  0  0  0  0
   10.5614    7.8950    2.6123 H   0  0  0  0  0  0  0  0  0  0  0  0
    9.7385    5.6202    1.9918 H   0  0  0  0  0  0  0  0  0  0  0  0
    7.8552   -8.9320   -2.3116 N   0  0  0  0  0  0  0  0  0  0  0  0
    8.1081   -7.9510   -1.8698 N   0  0  0  0  0  0  0  0  0  0  0  0
   12.6577    8.1311    3.9345 H   0  0  0  0  0  0  0  0  0  0  0  0
   13.9111    6.1007    4.6270 H   0  0  0  0  0  0  0  0  0  0  0  0
   13.0880    3.8466    4.0025 H   0  0  0  0  0  0  0  0  0  0  0  0
   10.7860    3.3926    2.6258 O   0  0  0  0  0  0  0  0  0  0  0  0
   11.5378    2.3410    2.1706 C   0  0  0  0  0  0  0  0  0  0  0  0
   12.7358    2.3627    2.0322 O   0  0  0  0  0  0  0  0  0  0  0  0
   10.6331    1.1710    1.8702 C   0  0  0  0  0  0  0  0  0  0  0  0
   10.0647    0.8963    2.7636 H   0  0  0  0  0  0  0  0  0  0  0  0
    9.9102    1.4459    1.0963 H   0  0  0  0  0  0  0  0  0  0  0  0
   11.2343    0.3268    1.5348 H   0  0  0  0  0  0  0  0  0  0  0  0
  1  6  1  0  0  0  0
  2  1  2  0  0  0  0
  2  3  1  0  0  0  0
  3  4  2  0  0  0  0
  4 13  1  0  0  0  0
  4  5  1  0  0  0  0
  5 12  1  0  0  0  0
  6 11  1  0  0  0  0
  6  5  2  0  0  0  0
  7  1  1  0  0  0  0
  8  2  1  0  0  0  0
  9 10  3  0  0  0  0
 14  3  1  0  0  0  0
 15 14  1  0  0  0  0
 16 15  2  0  0  0  0
 17 15  1  0  0  0  0
 17 18  1  0  0  0  0
 19 17  1  0  0  0  0
 20 17  1  0  0  0  0
M  END
