Coordinates from ORCA-job Ph-N2-OAc-B3LYPG-6-31G_dp-MTMO-d009-169-n800
 OpenBabel09051908423D

 20 19  0  0  0  0  0  0  0  0999 V2000
   11.2194    6.5850    2.7886 C   0  0  0  0  0  0  0  0  0  0  0  0
   10.5793    5.3870    2.4728 C   0  0  0  0  0  0  0  0  0  0  0  0
   11.1953    4.1764    2.7889 C   0  0  0  0  0  0  0  0  0  0  0  0
   12.4396    4.1420    3.4200 C   0  0  0  0  0  0  0  0  0  0  0  0
   13.0694    5.3497    3.7263 C   0  0  0  0  0  0  0  0  0  0  0  0
   12.4676    6.5701    3.4140 C   0  0  0  0  0  0  0  0  0  0  0  0
   10.7410    7.5286    2.5439 H   0  0  0  0  0  0  0  0  0  0  0  0
    9.6076    5.3733    1.9908 H   0  0  0  0  0  0  0  0  0  0  0  0
    9.8809   -4.8064   -0.6587 N   0  0  0  0  0  0  0  0  0  0  0  0
    9.9177   -3.7824   -0.2444 N   0  0  0  0  0  0  0  0  0  0  0  0
   12.9668    7.5027    3.6585 H   0  0  0  0  0  0  0  0  0  0  0  0
   14.0398    5.3309    4.2130 H   0  0  0  0  0  0  0  0  0  0  0  0
   12.9084    3.1963    3.6556 H   0  0  0  0  0  0  0  0  0  0  0  0
   10.4481    3.0303    2.5065 O   0  0  0  0  0  0  0  0  0  0  0  0
   11.0274    1.9039    1.9824 C   0  0  0  0  0  0  0  0  0  0  0  0
   12.2013    1.7899    1.7297 O   0  0  0  0  0  0  0  0  0  0  0  0
    9.9698    0.8476    1.7734 C   0  0  0  0  0  0  0  0  0  0  0  0
    9.4716    0.6242    2.7213 H   0  0  0  0  0  0  0  0  0  0  0  0
    9.2048    1.2143    1.0824 H   0  0  0  0  0  0  0  0  0  0  0  0
   10.4316   -0.0538    1.3726 H   0  0  0  0  0  0  0  0  0  0  0  0
  1  6  1  0  0  0  0
  2  1  2  0  0  0  0
  2  3  1  0  0  0  0
  3  4  2  0  0  0  0
  4 13  1  0  0  0  0
  4  5  1  0  0  0  0
  5 12  1  0  0  0  0
  6 11  1  0  0  0  0
  6  5  2  0  0  0  0
  7  1  1  0  0  0  0
  8  2  1  0  0  0  0
  9 10  3  0  0  0  0
 14  3  1  0  0  0  0
 15 14  1  0  0  0  0
 16 15  2  0  0  0  0
 17 15  1  0  0  0  0
 17 18  1  0  0  0  0
 19 17  1  0  0  0  0
 20 17  1  0  0  0  0
M  END
