Coordinates from ORCA-job Ph-N2-OAc-B3LYPG-6-31G_dp-MTMO-d009-169-n800
 OpenBabel09051908423D

 20 18  0  0  0  0  0  0  0  0999 V2000
   13.2235    6.1100    2.3053 C   0  0  0  0  0  0  0  0  0  0  0  0
   12.6847    5.4736    1.1628 C   0  0  0  0  0  0  0  0  0  0  0  0
   12.1167    4.2983    1.5729 C   0  0  0  0  0  0  0  0  0  0  0  0
   11.9748    3.6973    2.6700 C   0  0  0  0  0  0  0  0  0  0  0  0
   12.5038    4.3057    3.8222 C   0  0  0  0  0  0  0  0  0  0  0  0
   13.1343    5.5422    3.5894 C   0  0  0  0  0  0  0  0  0  0  0  0
   13.7182    7.0688    2.1757 H   0  0  0  0  0  0  0  0  0  0  0  0
   12.7342    5.8793    0.1605 H   0  0  0  0  0  0  0  0  0  0  0  0
   11.2362    3.3029   -0.6409 N   0  0  0  0  0  0  0  0  0  0  0  0
   10.7432    2.3736   -0.9807 N   0  0  0  0  0  0  0  0  0  0  0  0
   13.5666    6.0790    4.4297 H   0  0  0  0  0  0  0  0  0  0  0  0
   12.4412    3.8791    4.8188 H   0  0  0  0  0  0  0  0  0  0  0  0
   10.9373    1.9609    2.9011 H   0  0  0  0  0  0  0  0  0  0  0  0
    9.1363    1.6566    1.4658 O   0  0  0  0  0  0  0  0  0  0  0  0
    9.3972    0.9577    2.4231 C   0  0  0  0  0  0  0  0  0  0  0  0
   10.4618    1.1589    3.2239 O   0  0  0  0  0  0  0  0  0  0  0  0
    8.5875   -0.2374    2.8706 C   0  0  0  0  0  0  0  0  0  0  0  0
    7.7369   -0.3724    2.2040 H   0  0  0  0  0  0  0  0  0  0  0  0
    9.2136   -1.1348    2.8664 H   0  0  0  0  0  0  0  0  0  0  0  0
    8.2394   -0.0899    3.8971 H   0  0  0  0  0  0  0  0  0  0  0  0
  1  6  2  0  0  0  0
  2  3  2  0  0  0  0
  2  1  1  0  0  0  0
  3  4  1  0  0  0  0
  4  5  2  0  0  0  0
  5 12  1  0  0  0  0
  6  5  1  0  0  0  0
  6 11  1  0  0  0  0
  7  1  1  0  0  0  0
  8  2  1  0  0  0  0
 10  9  3  0  0  0  0
 13 16  1  0  0  0  0
 14 15  2  0  0  0  0
 15 17  1  0  0  0  0
 15 16  1  0  0  0  0
 17 20  1  0  0  0  0
 18 17  1  0  0  0  0
 19 17  1  0  0  0  0
M  RAD  2   3   2   4   2
M  END
