Coordinates from ORCA-job Ph-N2-OAc-B3LYPG-6-31G_dp-MTMO-d009-169-n800
 OpenBabel09051908423D

 20 19  0  0  0  0  0  0  0  0999 V2000
   11.6830    6.0005    2.6108 C   0  0  0  0  0  0  0  0  0  0  0  0
   10.6382    5.0825    2.5049 C   0  0  0  0  0  0  0  0  0  0  0  0
   10.9009    3.7245    2.6765 C   0  0  0  0  0  0  0  0  0  0  0  0
   12.1883    3.2656    2.9556 C   0  0  0  0  0  0  0  0  0  0  0  0
   13.2243    4.1956    3.0548 C   0  0  0  0  0  0  0  0  0  0  0  0
   12.9793    5.5596    2.8838 C   0  0  0  0  0  0  0  0  0  0  0  0
   11.4812    7.0594    2.4776 H   0  0  0  0  0  0  0  0  0  0  0  0
    9.6226    5.4012    2.2948 H   0  0  0  0  0  0  0  0  0  0  0  0
   13.6460   -0.2905    0.5075 N   0  0  0  0  0  0  0  0  0  0  0  0
   13.6950    0.1260    1.5298 N   0  0  0  0  0  0  0  0  0  0  0  0
   13.7932    6.2738    2.9646 H   0  0  0  0  0  0  0  0  0  0  0  0
   14.2298    3.8459    3.2697 H   0  0  0  0  0  0  0  0  0  0  0  0
   12.3798    2.2079    3.0826 H   0  0  0  0  0  0  0  0  0  0  0  0
    9.7901    2.8769    2.6356 O   0  0  0  0  0  0  0  0  0  0  0  0
    9.8156    1.7127    1.9141 C   0  0  0  0  0  0  0  0  0  0  0  0
   10.7613    1.3243    1.2734 O   0  0  0  0  0  0  0  0  0  0  0  0
    8.4868    1.0094    2.0464 C   0  0  0  0  0  0  0  0  0  0  0  0
    8.2790    0.7975    3.0991 H   0  0  0  0  0  0  0  0  0  0  0  0
    7.6831    1.6548    1.6799 H   0  0  0  0  0  0  0  0  0  0  0  0
    8.5101    0.0822    1.4760 H   0  0  0  0  0  0  0  0  0  0  0  0
  1  6  1  0  0  0  0
  2  1  2  0  0  0  0
  2  3  1  0  0  0  0
  3  4  2  0  0  0  0
  4  5  1  0  0  0  0
  4 13  1  0  0  0  0
  5 12  1  0  0  0  0
  6 11  1  0  0  0  0
  6  5  2  0  0  0  0
  7  1  1  0  0  0  0
  8  2  1  0  0  0  0
  9 10  3  0  0  0  0
 14  3  1  0  0  0  0
 15 17  1  0  0  0  0
 15 14  1  0  0  0  0
 16 15  2  0  0  0  0
 17 18  1  0  0  0  0
 19 17  1  0  0  0  0
 20 17  1  0  0  0  0
M  END
