Coordinates from ORCA-job Ph-N2-OAc-B3LYPG-6-31G_dp-MTMO-d009-169-n800
 OpenBabel09051908423D

 20 19  0  0  0  0  0  0  0  0999 V2000
   11.8120    5.8742    2.3882 C   0  0  0  0  0  0  0  0  0  0  0  0
   10.7337    4.9963    2.2765 C   0  0  0  0  0  0  0  0  0  0  0  0
   10.8860    3.6705    2.6794 C   0  0  0  0  0  0  0  0  0  0  0  0
   12.0955    3.2056    3.1965 C   0  0  0  0  0  0  0  0  0  0  0  0
   13.1670    4.0947    3.2983 C   0  0  0  0  0  0  0  0  0  0  0  0
   13.0324    5.4253    2.8972 C   0  0  0  0  0  0  0  0  0  0  0  0
   11.6962    6.9074    2.0750 H   0  0  0  0  0  0  0  0  0  0  0  0
    9.7753    5.3224    1.8865 H   0  0  0  0  0  0  0  0  0  0  0  0
   13.5834    0.5296    0.0121 N   0  0  0  0  0  0  0  0  0  0  0  0
   13.9351    0.7462    1.0370 N   0  0  0  0  0  0  0  0  0  0  0  0
   13.8726    6.1077    2.9829 H   0  0  0  0  0  0  0  0  0  0  0  0
   14.1130    3.7392    3.6959 H   0  0  0  0  0  0  0  0  0  0  0  0
   12.2007    2.1731    3.5022 H   0  0  0  0  0  0  0  0  0  0  0  0
    9.7373    2.8773    2.6082 O   0  0  0  0  0  0  0  0  0  0  0  0
    9.7838    1.6038    2.1057 C   0  0  0  0  0  0  0  0  0  0  0  0
   10.7831    1.0630    1.6999 O   0  0  0  0  0  0  0  0  0  0  0  0
    8.4019    0.9983    2.1396 C   0  0  0  0  0  0  0  0  0  0  0  0
    8.0252    0.9831    3.1666 H   0  0  0  0  0  0  0  0  0  0  0  0
    7.7110    1.6063    1.5485 H   0  0  0  0  0  0  0  0  0  0  0  0
    8.4422   -0.0146    1.7413 H   0  0  0  0  0  0  0  0  0  0  0  0
  1  6  1  0  0  0  0
  2  1  2  0  0  0  0
  2  3  1  0  0  0  0
  3  4  2  0  0  0  0
  4  5  1  0  0  0  0
  4 13  1  0  0  0  0
  5 12  1  0  0  0  0
  6 11  1  0  0  0  0
  6  5  2  0  0  0  0
  7  1  1  0  0  0  0
  8  2  1  0  0  0  0
  9 10  3  0  0  0  0
 14  3  1  0  0  0  0
 15 17  1  0  0  0  0
 15 14  1  0  0  0  0
 16 15  2  0  0  0  0
 17 18  1  0  0  0  0
 19 17  1  0  0  0  0
 20 17  1  0  0  0  0
M  END
