Coordinates from ORCA-job Ph-N2-OAc-B3LYPG-6-31G_dp-MTMO-d009-169-n800
 OpenBabel09051908423D

 20 19  0  0  0  0  0  0  0  0999 V2000
   11.5476    6.2086    2.4177 C   0  0  0  0  0  0  0  0  0  0  0  0
   10.6473    5.1510    2.2888 C   0  0  0  0  0  0  0  0  0  0  0  0
   11.0154    3.8818    2.7318 C   0  0  0  0  0  0  0  0  0  0  0  0
   12.2658    3.6500    3.3054 C   0  0  0  0  0  0  0  0  0  0  0  0
   13.1576    4.7170    3.4246 C   0  0  0  0  0  0  0  0  0  0  0  0
   12.8057    5.9944    2.9837 C   0  0  0  0  0  0  0  0  0  0  0  0
   11.2637    7.1986    2.0736 H   0  0  0  0  0  0  0  0  0  0  0  0
    9.6632    5.2935    1.8552 H   0  0  0  0  0  0  0  0  0  0  0  0
   12.5455   -1.2262   -0.2029 N   0  0  0  0  0  0  0  0  0  0  0  0
   11.5149   -1.3763    0.1659 N   0  0  0  0  0  0  0  0  0  0  0  0
   13.5070    6.8175    3.0826 H   0  0  0  0  0  0  0  0  0  0  0  0
   14.1342    4.5442    3.8668 H   0  0  0  0  0  0  0  0  0  0  0  0
   12.5379    2.6582    3.6417 H   0  0  0  0  0  0  0  0  0  0  0  0
   10.0305    2.8943    2.6410 O   0  0  0  0  0  0  0  0  0  0  0  0
   10.3252    1.6471    2.1565 C   0  0  0  0  0  0  0  0  0  0  0  0
   11.4198    1.3020    1.7834 O   0  0  0  0  0  0  0  0  0  0  0  0
    9.0828    0.7911    2.1711 C   0  0  0  0  0  0  0  0  0  0  0  0
    8.7523    0.6392    3.2031 H   0  0  0  0  0  0  0  0  0  0  0  0
    8.2697    1.2933    1.6400 H   0  0  0  0  0  0  0  0  0  0  0  0
    9.3014   -0.1698    1.7076 H   0  0  0  0  0  0  0  0  0  0  0  0
  1  6  1  0  0  0  0
  2  1  2  0  0  0  0
  2  3  1  0  0  0  0
  3  4  2  0  0  0  0
  4  5  1  0  0  0  0
  4 13  1  0  0  0  0
  5 12  1  0  0  0  0
  6 11  1  0  0  0  0
  6  5  2  0  0  0  0
  7  1  1  0  0  0  0
  8  2  1  0  0  0  0
  9 10  3  0  0  0  0
 14  3  1  0  0  0  0
 15 17  1  0  0  0  0
 15 14  1  0  0  0  0
 16 15  2  0  0  0  0
 17 18  1  0  0  0  0
 19 17  1  0  0  0  0
 20 17  1  0  0  0  0
M  END
