Coordinates from ORCA-job Ph-N2-OAc-B3LYPG-6-31G_dp-MTMO-d009-169-n800
 OpenBabel09051908423D

 20 19  0  0  0  0  0  0  0  0999 V2000
   11.0912    6.8388    2.8456 C   0  0  0  0  0  0  0  0  0  0  0  0
   10.6064    5.5775    2.5012 C   0  0  0  0  0  0  0  0  0  0  0  0
   11.3133    4.4408    2.8923 C   0  0  0  0  0  0  0  0  0  0  0  0
   12.4957    4.5422    3.6264 C   0  0  0  0  0  0  0  0  0  0  0  0
   12.9704    5.8120    3.9601 C   0  0  0  0  0  0  0  0  0  0  0  0
   12.2763    6.9599    3.5738 C   0  0  0  0  0  0  0  0  0  0  0  0
   10.5416    7.7250    2.5427 H   0  0  0  0  0  0  0  0  0  0  0  0
    9.6857    5.4576    1.9399 H   0  0  0  0  0  0  0  0  0  0  0  0
    8.3962   -7.3165   -1.7000 N   0  0  0  0  0  0  0  0  0  0  0  0
    8.6121   -6.3198   -1.2739 N   0  0  0  0  0  0  0  0  0  0  0  0
   12.6551    7.9417    3.8407 H   0  0  0  0  0  0  0  0  0  0  0  0
   13.8928    5.8994    4.5265 H   0  0  0  0  0  0  0  0  0  0  0  0
   13.0369    3.6528    3.9196 H   0  0  0  0  0  0  0  0  0  0  0  0
   10.7144    3.2204    2.5707 O   0  0  0  0  0  0  0  0  0  0  0  0
   11.4487    2.1583    2.1113 C   0  0  0  0  0  0  0  0  0  0  0  0
   12.6452    2.1655    1.9590 O   0  0  0  0  0  0  0  0  0  0  0  0
   10.5269    0.9977    1.8266 C   0  0  0  0  0  0  0  0  0  0  0  0
    9.9644    0.7347    2.7272 H   0  0  0  0  0  0  0  0  0  0  0  0
    9.7996    1.2772    1.0585 H   0  0  0  0  0  0  0  0  0  0  0  0
   11.1143    0.1444    1.4895 H   0  0  0  0  0  0  0  0  0  0  0  0
  1  6  1  0  0  0  0
  2  1  2  0  0  0  0
  2  3  1  0  0  0  0
  3  4  2  0  0  0  0
  4 13  1  0  0  0  0
  4  5  1  0  0  0  0
  5 12  1  0  0  0  0
  6 11  1  0  0  0  0
  6  5  2  0  0  0  0
  7  1  1  0  0  0  0
  8  2  1  0  0  0  0
  9 10  3  0  0  0  0
 14  3  1  0  0  0  0
 15 14  1  0  0  0  0
 16 15  2  0  0  0  0
 17 15  1  0  0  0  0
 17 18  1  0  0  0  0
 19 17  1  0  0  0  0
 20 17  1  0  0  0  0
M  END
