Coordinates from ORCA-job Ph-N2-OAc-B3LYPG-6-31G_dp-MTMO-d009-169-n800
 OpenBabel09051908423D

 20 19  0  0  0  0  0  0  0  0999 V2000
   11.9214    5.7740    2.2620 C   0  0  0  0  0  0  0  0  0  0  0  0
   10.8366    4.9075    2.1266 C   0  0  0  0  0  0  0  0  0  0  0  0
   10.9142    3.6227    2.6630 C   0  0  0  0  0  0  0  0  0  0  0  0
   12.0563    3.1885    3.3373 C   0  0  0  0  0  0  0  0  0  0  0  0
   13.1356    4.0659    3.4609 C   0  0  0  0  0  0  0  0  0  0  0  0
   13.0752    5.3548    2.9277 C   0  0  0  0  0  0  0  0  0  0  0  0
   11.8624    6.7751    1.8459 H   0  0  0  0  0  0  0  0  0  0  0  0
    9.9284    5.2115    1.6169 H   0  0  0  0  0  0  0  0  0  0  0  0
   13.1728    1.1795   -0.1613 N   0  0  0  0  0  0  0  0  0  0  0  0
   13.8690    1.1273    0.6951 N   0  0  0  0  0  0  0  0  0  0  0  0
   13.9208    6.0280    3.0321 H   0  0  0  0  0  0  0  0  0  0  0  0
   14.0298    3.7335    3.9798 H   0  0  0  0  0  0  0  0  0  0  0  0
   12.1055    2.1879    3.7449 H   0  0  0  0  0  0  0  0  0  0  0  0
    9.7546    2.8516    2.5485 O   0  0  0  0  0  0  0  0  0  0  0  0
    9.8060    1.5213    2.2273 C   0  0  0  0  0  0  0  0  0  0  0  0
   10.8221    0.9016    2.0278 O   0  0  0  0  0  0  0  0  0  0  0  0
    8.4048    0.9652    2.1612 C   0  0  0  0  0  0  0  0  0  0  0  0
    7.9002    1.1044    3.1223 H   0  0  0  0  0  0  0  0  0  0  0  0
    7.8229    1.5036    1.4074 H   0  0  0  0  0  0  0  0  0  0  0  0
    8.4489   -0.0943    1.9120 H   0  0  0  0  0  0  0  0  0  0  0  0
  1  6  1  0  0  0  0
  2  1  2  0  0  0  0
  2  3  1  0  0  0  0
  3  4  2  0  0  0  0
  4  5  1  0  0  0  0
  4 13  1  0  0  0  0
  5 12  1  0  0  0  0
  6 11  1  0  0  0  0
  6  5  2  0  0  0  0
  7  1  1  0  0  0  0
  8  2  1  0  0  0  0
  9 10  3  0  0  0  0
 14  3  1  0  0  0  0
 15 14  1  0  0  0  0
 16 15  2  0  0  0  0
 17 15  1  0  0  0  0
 17 18  1  0  0  0  0
 19 17  1  0  0  0  0
 20 17  1  0  0  0  0
M  END
