Coordinates from ORCA-job Ph-N2-OAc-B3LYPG-6-31G_dp-MTMO-d009-169-n800
 OpenBabel09051908423D

 20 19  0  0  0  0  0  0  0  0999 V2000
   11.8368    5.8468    2.3537 C   0  0  0  0  0  0  0  0  0  0  0  0
   10.7533    4.9752    2.2430 C   0  0  0  0  0  0  0  0  0  0  0  0
   10.8877    3.6574    2.6777 C   0  0  0  0  0  0  0  0  0  0  0  0
   12.0843    3.1947    3.2258 C   0  0  0  0  0  0  0  0  0  0  0  0
   13.1614    4.0772    3.3259 C   0  0  0  0  0  0  0  0  0  0  0  0
   13.0447    5.3996    2.8930 C   0  0  0  0  0  0  0  0  0  0  0  0
   11.7349    6.8737    2.0160 H   0  0  0  0  0  0  0  0  0  0  0  0
    9.8043    5.3001    1.8297 H   0  0  0  0  0  0  0  0  0  0  0  0
   13.5574    0.7207   -0.0306 N   0  0  0  0  0  0  0  0  0  0  0  0
   13.9250    0.8467    1.0038 N   0  0  0  0  0  0  0  0  0  0  0  0
   13.8891    6.0769    2.9777 H   0  0  0  0  0  0  0  0  0  0  0  0
   14.0976    3.7230    3.7468 H   0  0  0  0  0  0  0  0  0  0  0  0
   12.1754    2.1685    3.5560 H   0  0  0  0  0  0  0  0  0  0  0  0
    9.7339    2.8719    2.6034 O   0  0  0  0  0  0  0  0  0  0  0  0
    9.7797    1.5870    2.1303 C   0  0  0  0  0  0  0  0  0  0  0  0
   10.7824    1.0297    1.7565 O   0  0  0  0  0  0  0  0  0  0  0  0
    8.3926    0.9930    2.1504 C   0  0  0  0  0  0  0  0  0  0  0  0
    7.9969    1.0012    3.1703 H   0  0  0  0  0  0  0  0  0  0  0  0
    7.7176    1.5944    1.5347 H   0  0  0  0  0  0  0  0  0  0  0  0
    8.4322   -0.0280    1.7732 H   0  0  0  0  0  0  0  0  0  0  0  0
  1  6  1  0  0  0  0
  2  1  2  0  0  0  0
  2  3  1  0  0  0  0
  3  4  2  0  0  0  0
  4  5  1  0  0  0  0
  4 13  1  0  0  0  0
  5 12  1  0  0  0  0
  6 11  1  0  0  0  0
  6  5  2  0  0  0  0
  7  1  1  0  0  0  0
  8  2  1  0  0  0  0
  9 10  3  0  0  0  0
 14  3  1  0  0  0  0
 15 17  1  0  0  0  0
 15 14  1  0  0  0  0
 16 15  2  0  0  0  0
 17 18  1  0  0  0  0
 19 17  1  0  0  0  0
 20 17  1  0  0  0  0
M  END
