Coordinates from ORCA-job Ph-N2-OAc-B3LYPG-6-31G_dp-MTMO-d009-169-n800
 OpenBabel09051908423D

 20 19  0  0  0  0  0  0  0  0999 V2000
   11.1983    6.6711    2.8156 C   0  0  0  0  0  0  0  0  0  0  0  0
   10.5893    5.4588    2.4927 C   0  0  0  0  0  0  0  0  0  0  0  0
   11.2260    4.2625    2.8219 C   0  0  0  0  0  0  0  0  0  0  0  0
   12.4603    4.2563    3.4732 C   0  0  0  0  0  0  0  0  0  0  0  0
   13.0590    5.4780    3.7863 C   0  0  0  0  0  0  0  0  0  0  0  0
   12.4363    6.6845    3.4611 C   0  0  0  0  0  0  0  0  0  0  0  0
   10.7038    7.6036    2.5607 H   0  0  0  0  0  0  0  0  0  0  0  0
    9.6259    5.4231    1.9953 H   0  0  0  0  0  0  0  0  0  0  0  0
    9.5215   -5.6131   -0.9623 N   0  0  0  0  0  0  0  0  0  0  0  0
    9.5909   -4.5826   -0.5688 N   0  0  0  0  0  0  0  0  0  0  0  0
   12.9113    7.6281    3.7111 H   0  0  0  0  0  0  0  0  0  0  0  0
   14.0216    5.4813    4.2886 H   0  0  0  0  0  0  0  0  0  0  0  0
   12.9455    3.3215    3.7188 H   0  0  0  0  0  0  0  0  0  0  0  0
   10.5082    3.1001    2.5302 O   0  0  0  0  0  0  0  0  0  0  0  0
   11.1197    1.9856    2.0182 C   0  0  0  0  0  0  0  0  0  0  0  0
   12.2999    1.8954    1.7860 O   0  0  0  0  0  0  0  0  0  0  0  0
   10.0880    0.9075    1.7918 C   0  0  0  0  0  0  0  0  0  0  0  0
    9.5738    0.6778    2.7296 H   0  0  0  0  0  0  0  0  0  0  0  0
    9.3313    1.2558    1.0825 H   0  0  0  0  0  0  0  0  0  0  0  0
   10.5770    0.0145    1.4049 H   0  0  0  0  0  0  0  0  0  0  0  0
  1  6  1  0  0  0  0
  2  1  2  0  0  0  0
  2  3  1  0  0  0  0
  3  4  2  0  0  0  0
  4 13  1  0  0  0  0
  4  5  1  0  0  0  0
  5 12  1  0  0  0  0
  6 11  1  0  0  0  0
  6  5  2  0  0  0  0
  7  1  1  0  0  0  0
  8  2  1  0  0  0  0
  9 10  3  0  0  0  0
 14  3  1  0  0  0  0
 15 14  1  0  0  0  0
 16 15  2  0  0  0  0
 17 15  1  0  0  0  0
 17 18  1  0  0  0  0
 19 17  1  0  0  0  0
 20 17  1  0  0  0  0
M  END
