Coordinates from ORCA-job Ph-N2-OAc-B3LYPG-6-31G_dp-MTMO-d009-169-n800
 OpenBabel09051908423D

 20 19  0  0  0  0  0  0  0  0999 V2000
   11.4325    6.3623    2.6037 C   0  0  0  0  0  0  0  0  0  0  0  0
   10.6038    5.2585    2.4035 C   0  0  0  0  0  0  0  0  0  0  0  0
   11.0621    3.9869    2.7455 C   0  0  0  0  0  0  0  0  0  0  0  0
   12.3340    3.7985    3.2874 C   0  0  0  0  0  0  0  0  0  0  0  0
   13.1534    4.9123    3.4786 C   0  0  0  0  0  0  0  0  0  0  0  0
   12.7105    6.1924    3.1396 C   0  0  0  0  0  0  0  0  0  0  0  0
   11.0775    7.3536    2.3384 H   0  0  0  0  0  0  0  0  0  0  0  0
    9.6061    5.3655    1.9915 H   0  0  0  0  0  0  0  0  0  0  0  0
   11.9250   -2.6504   -0.2869 N   0  0  0  0  0  0  0  0  0  0  0  0
   11.0785   -2.1031    0.1659 N   0  0  0  0  0  0  0  0  0  0  0  0
   13.3563    7.0515    3.2941 H   0  0  0  0  0  0  0  0  0  0  0  0
   14.1457    4.7736    3.8970 H   0  0  0  0  0  0  0  0  0  0  0  0
   12.6782    2.8054    3.5441 H   0  0  0  0  0  0  0  0  0  0  0  0
   10.1412    2.9485    2.5870 O   0  0  0  0  0  0  0  0  0  0  0  0
   10.5093    1.7410    2.0518 C   0  0  0  0  0  0  0  0  0  0  0  0
   11.6246    1.4675    1.6822 O   0  0  0  0  0  0  0  0  0  0  0  0
    9.3112    0.8250    2.0058 C   0  0  0  0  0  0  0  0  0  0  0  0
    8.9564    0.6297    3.0222 H   0  0  0  0  0  0  0  0  0  0  0  0
    8.4909    1.3019    1.4620 H   0  0  0  0  0  0  0  0  0  0  0  0
    9.5901   -0.1110    1.5241 H   0  0  0  0  0  0  0  0  0  0  0  0
  1  6  1  0  0  0  0
  2  1  2  0  0  0  0
  2  3  1  0  0  0  0
  3  4  2  0  0  0  0
  4  5  1  0  0  0  0
  4 13  1  0  0  0  0
  5 12  1  0  0  0  0
  6 11  1  0  0  0  0
  6  5  2  0  0  0  0
  7  1  1  0  0  0  0
  8  2  1  0  0  0  0
  9 10  3  0  0  0  0
 14  3  1  0  0  0  0
 15 14  1  0  0  0  0
 16 15  2  0  0  0  0
 17 15  1  0  0  0  0
 17 18  1  0  0  0  0
 19 17  1  0  0  0  0
 20 17  1  0  0  0  0
M  END
