Coordinates from ORCA-job Ph-N2-OAc-B3LYPG-6-31G_dp-MTMO-d009-169-n800
 OpenBabel09051908423D

 20 19  0  0  0  0  0  0  0  0999 V2000
   11.1011    6.8074    2.8317 C   0  0  0  0  0  0  0  0  0  0  0  0
   10.6011    5.5504    2.4934 C   0  0  0  0  0  0  0  0  0  0  0  0
   11.2999    4.4074    2.8805 C   0  0  0  0  0  0  0  0  0  0  0  0
   12.4893    4.4983    3.6048 C   0  0  0  0  0  0  0  0  0  0  0  0
   12.9791    5.7638    3.9326 C   0  0  0  0  0  0  0  0  0  0  0  0
   12.2932    6.9180    3.5501 C   0  0  0  0  0  0  0  0  0  0  0  0
   10.5578    7.6985    2.5320 H   0  0  0  0  0  0  0  0  0  0  0  0
    9.6746    5.4387    1.9399 H   0  0  0  0  0  0  0  0  0  0  0  0
    8.5563   -7.0034   -1.5787 N   0  0  0  0  0  0  0  0  0  0  0  0
    8.7607   -5.9974   -1.1693 N   0  0  0  0  0  0  0  0  0  0  0  0
   12.6837    7.8964    3.8123 H   0  0  0  0  0  0  0  0  0  0  0  0
   13.9069    5.8430    4.4913 H   0  0  0  0  0  0  0  0  0  0  0  0
   13.0239    3.6041    3.8951 H   0  0  0  0  0  0  0  0  0  0  0  0
   10.6863    3.1924    2.5664 O   0  0  0  0  0  0  0  0  0  0  0  0
   11.4057    2.1226    2.1012 C   0  0  0  0  0  0  0  0  0  0  0  0
   12.6005    2.1183    1.9360 O   0  0  0  0  0  0  0  0  0  0  0  0
   10.4700    0.9703    1.8285 C   0  0  0  0  0  0  0  0  0  0  0  0
    9.9134    0.7156    2.7351 H   0  0  0  0  0  0  0  0  0  0  0  0
    9.7383    1.2549    1.0665 H   0  0  0  0  0  0  0  0  0  0  0  0
   11.0455    0.1103    1.4882 H   0  0  0  0  0  0  0  0  0  0  0  0
  1  6  1  0  0  0  0
  2  1  2  0  0  0  0
  2  3  1  0  0  0  0
  3  4  2  0  0  0  0
  4 13  1  0  0  0  0
  4  5  1  0  0  0  0
  5 12  1  0  0  0  0
  6 11  1  0  0  0  0
  6  5  2  0  0  0  0
  7  1  1  0  0  0  0
  8  2  1  0  0  0  0
  9 10  3  0  0  0  0
 14  3  1  0  0  0  0
 15 14  1  0  0  0  0
 16 15  2  0  0  0  0
 17 15  1  0  0  0  0
 17 18  1  0  0  0  0
 19 17  1  0  0  0  0
 20 17  1  0  0  0  0
M  END
