Coordinates from ORCA-job Ph-N2-OAc-B3LYPG-6-31G_dp-MTMO-d009-169-n800
 OpenBabel09051908423D

 20 19  0  0  0  0  0  0  0  0999 V2000
   11.9078    5.7902    2.2792 C   0  0  0  0  0  0  0  0  0  0  0  0
   10.8250    4.9210    2.1447 C   0  0  0  0  0  0  0  0  0  0  0  0
   10.9111    3.6324    2.6704 C   0  0  0  0  0  0  0  0  0  0  0  0
   12.0595    3.1969    3.3330 C   0  0  0  0  0  0  0  0  0  0  0  0
   13.1365    4.0770    3.4560 C   0  0  0  0  0  0  0  0  0  0  0  0
   13.0677    5.3699    2.9333 C   0  0  0  0  0  0  0  0  0  0  0  0
   11.8424    6.7943    1.8713 H   0  0  0  0  0  0  0  0  0  0  0  0
    9.9121    5.2257    1.6439 H   0  0  0  0  0  0  0  0  0  0  0  0
   13.2020    1.0768   -0.1848 N   0  0  0  0  0  0  0  0  0  0  0  0
   13.8684    1.0436    0.6960 N   0  0  0  0  0  0  0  0  0  0  0  0
   13.9117    6.0452    3.0370 H   0  0  0  0  0  0  0  0  0  0  0  0
   14.0354    3.7440    3.9662 H   0  0  0  0  0  0  0  0  0  0  0  0
   12.1147    2.1933    3.7326 H   0  0  0  0  0  0  0  0  0  0  0  0
    9.7538    2.8571    2.5588 O   0  0  0  0  0  0  0  0  0  0  0  0
    9.8095    1.5319    2.2174 C   0  0  0  0  0  0  0  0  0  0  0  0
   10.8271    0.9216    1.9982 O   0  0  0  0  0  0  0  0  0  0  0  0
    8.4109    0.9689    2.1562 C   0  0  0  0  0  0  0  0  0  0  0  0
    7.9092    1.1026    3.1194 H   0  0  0  0  0  0  0  0  0  0  0  0
    7.8234    1.5067    1.4062 H   0  0  0  0  0  0  0  0  0  0  0  0
    8.4592   -0.0894    1.9026 H   0  0  0  0  0  0  0  0  0  0  0  0
  1  6  1  0  0  0  0
  2  1  2  0  0  0  0
  2  3  1  0  0  0  0
  3  4  2  0  0  0  0
  4  5  1  0  0  0  0
  4 13  1  0  0  0  0
  5 12  1  0  0  0  0
  6 11  1  0  0  0  0
  6  5  2  0  0  0  0
  7  1  1  0  0  0  0
  8  2  1  0  0  0  0
  9 10  3  0  0  0  0
 14  3  1  0  0  0  0
 15 14  1  0  0  0  0
 16 15  2  0  0  0  0
 17 15  1  0  0  0  0
 17 18  1  0  0  0  0
 19 17  1  0  0  0  0
 20 17  1  0  0  0  0
M  END
