Coordinates from ORCA-job Ph-N2-OAc-B3LYPG-6-31G_dp-MTMO-d009-169-n800
 OpenBabel09051908423D

 20 19  0  0  0  0  0  0  0  0999 V2000
   11.1211    7.0267    2.9232 C   0  0  0  0  0  0  0  0  0  0  0  0
   10.6549    5.7611    2.5687 C   0  0  0  0  0  0  0  0  0  0  0  0
   11.3705    4.6313    2.9635 C   0  0  0  0  0  0  0  0  0  0  0  0
   12.5433    4.7435    3.7115 C   0  0  0  0  0  0  0  0  0  0  0  0
   12.9993    6.0174    4.0553 C   0  0  0  0  0  0  0  0  0  0  0  0
   12.2964    7.1587    3.6653 C   0  0  0  0  0  0  0  0  0  0  0  0
   10.5647    7.9076    2.6174 H   0  0  0  0  0  0  0  0  0  0  0  0
    9.7421    5.6328    1.9965 H   0  0  0  0  0  0  0  0  0  0  0  0
    7.8227   -9.0461   -2.3548 N   0  0  0  0  0  0  0  0  0  0  0  0
    8.0763   -8.0653   -1.9129 N   0  0  0  0  0  0  0  0  0  0  0  0
   12.6608    8.1437    3.9400 H   0  0  0  0  0  0  0  0  0  0  0  0
   13.9142    6.1134    4.6324 H   0  0  0  0  0  0  0  0  0  0  0  0
   13.0914    3.8593    4.0075 H   0  0  0  0  0  0  0  0  0  0  0  0
   10.7897    3.4052    2.6304 O   0  0  0  0  0  0  0  0  0  0  0  0
   11.5417    2.3538    2.1751 C   0  0  0  0  0  0  0  0  0  0  0  0
   12.7397    2.3756    2.0370 O   0  0  0  0  0  0  0  0  0  0  0  0
   10.6371    1.1837    1.8745 C   0  0  0  0  0  0  0  0  0  0  0  0
   10.0686    0.9088    2.7677 H   0  0  0  0  0  0  0  0  0  0  0  0
    9.9144    1.4587    1.1005 H   0  0  0  0  0  0  0  0  0  0  0  0
   11.2385    0.3396    1.5390 H   0  0  0  0  0  0  0  0  0  0  0  0
  1  6  1  0  0  0  0
  2  1  2  0  0  0  0
  2  3  1  0  0  0  0
  3  4  2  0  0  0  0
  4 13  1  0  0  0  0
  4  5  1  0  0  0  0
  5 12  1  0  0  0  0
  6 11  1  0  0  0  0
  6  5  2  0  0  0  0
  7  1  1  0  0  0  0
  8  2  1  0  0  0  0
  9 10  3  0  0  0  0
 14  3  1  0  0  0  0
 15 14  1  0  0  0  0
 16 15  2  0  0  0  0
 17 15  1  0  0  0  0
 17 18  1  0  0  0  0
 19 17  1  0  0  0  0
 20 17  1  0  0  0  0
M  END
