Coordinates from ORCA-job Ph-N2-OAc-B3LYPG-6-31G_dp-MTMO-d009-169-n800
 OpenBabel09051908423D

 20 19  0  0  0  0  0  0  0  0999 V2000
   11.1087    6.9781    2.9036 C   0  0  0  0  0  0  0  0  0  0  0  0
   10.6416    5.7125    2.5501 C   0  0  0  0  0  0  0  0  0  0  0  0
   11.3569    4.5825    2.9450 C   0  0  0  0  0  0  0  0  0  0  0  0
   12.5303    4.6946    3.6920 C   0  0  0  0  0  0  0  0  0  0  0  0
   12.9873    5.9684    4.0347 C   0  0  0  0  0  0  0  0  0  0  0  0
   12.2846    7.1099    3.6447 C   0  0  0  0  0  0  0  0  0  0  0  0
   10.5525    7.8590    2.5978 H   0  0  0  0  0  0  0  0  0  0  0  0
    9.7282    5.5844    1.9787 H   0  0  0  0  0  0  0  0  0  0  0  0
    7.9491   -8.6063   -2.1882 N   0  0  0  0  0  0  0  0  0  0  0  0
    8.1995   -7.6245   -1.7468 N   0  0  0  0  0  0  0  0  0  0  0  0
   12.6497    8.0949    3.9186 H   0  0  0  0  0  0  0  0  0  0  0  0
   13.9027    6.0642    4.6111 H   0  0  0  0  0  0  0  0  0  0  0  0
   13.0782    3.8102    3.9880 H   0  0  0  0  0  0  0  0  0  0  0  0
   10.7752    3.3566    2.6130 O   0  0  0  0  0  0  0  0  0  0  0  0
   11.5263    2.3045    2.1578 C   0  0  0  0  0  0  0  0  0  0  0  0
   12.7242    2.3256    2.0186 O   0  0  0  0  0  0  0  0  0  0  0  0
   10.6208    1.1347    1.8585 C   0  0  0  0  0  0  0  0  0  0  0  0
   10.0528    0.8607    2.7524 H   0  0  0  0  0  0  0  0  0  0  0  0
    9.8976    1.4096    1.0849 H   0  0  0  0  0  0  0  0  0  0  0  0
   11.2214    0.2901    1.5231 H   0  0  0  0  0  0  0  0  0  0  0  0
  1  6  1  0  0  0  0
  2  1  2  0  0  0  0
  2  3  1  0  0  0  0
  3  4  2  0  0  0  0
  4 13  1  0  0  0  0
  4  5  1  0  0  0  0
  5 12  1  0  0  0  0
  6 11  1  0  0  0  0
  6  5  2  0  0  0  0
  7  1  1  0  0  0  0
  8  2  1  0  0  0  0
  9 10  3  0  0  0  0
 14  3  1  0  0  0  0
 15 14  1  0  0  0  0
 16 15  2  0  0  0  0
 17 15  1  0  0  0  0
 17 18  1  0  0  0  0
 19 17  1  0  0  0  0
 20 17  1  0  0  0  0
M  END
