Coordinates from ORCA-job Ph-N2-OAc-B3LYPG-6-31G_dp-MTMO-d009-169-n800
 OpenBabel09051908423D

 20 19  0  0  0  0  0  0  0  0999 V2000
   11.2040    6.6472    2.8094 C   0  0  0  0  0  0  0  0  0  0  0  0
   10.5864    5.4390    2.4876 C   0  0  0  0  0  0  0  0  0  0  0  0
   11.2173    4.2384    2.8125 C   0  0  0  0  0  0  0  0  0  0  0  0
   12.4545    4.2242    3.4582 C   0  0  0  0  0  0  0  0  0  0  0  0
   13.0619    5.4419    3.7701 C   0  0  0  0  0  0  0  0  0  0  0  0
   12.4449    6.6524    3.4493 C   0  0  0  0  0  0  0  0  0  0  0  0
   10.7138    7.5829    2.5578 H   0  0  0  0  0  0  0  0  0  0  0  0
    9.6206    5.4096    1.9946 H   0  0  0  0  0  0  0  0  0  0  0  0
    9.6204   -5.3893   -0.8726 N   0  0  0  0  0  0  0  0  0  0  0  0
    9.6820   -4.3597   -0.4756 N   0  0  0  0  0  0  0  0  0  0  0  0
   12.9266    7.5929    3.6983 H   0  0  0  0  0  0  0  0  0  0  0  0
   14.0268    5.4388    4.2681 H   0  0  0  0  0  0  0  0  0  0  0  0
   12.9353    3.2861    3.7005 H   0  0  0  0  0  0  0  0  0  0  0  0
   10.4914    3.0807    2.5228 O   0  0  0  0  0  0  0  0  0  0  0  0
   11.0941    1.9633    2.0063 C   0  0  0  0  0  0  0  0  0  0  0  0
   12.2726    1.8670    1.7679 O   0  0  0  0  0  0  0  0  0  0  0  0
   10.0554    0.8911    1.7843 C   0  0  0  0  0  0  0  0  0  0  0  0
    9.5465    0.6619    2.7250 H   0  0  0  0  0  0  0  0  0  0  0  0
    9.2957    1.2449    1.0809 H   0  0  0  0  0  0  0  0  0  0  0  0
   10.5372   -0.0036    1.3922 H   0  0  0  0  0  0  0  0  0  0  0  0
  1  6  1  0  0  0  0
  2  1  2  0  0  0  0
  2  3  1  0  0  0  0
  3  4  2  0  0  0  0
  4 13  1  0  0  0  0
  4  5  1  0  0  0  0
  5 12  1  0  0  0  0
  6 11  1  0  0  0  0
  6  5  2  0  0  0  0
  7  1  1  0  0  0  0
  8  2  1  0  0  0  0
  9 10  3  0  0  0  0
 14  3  1  0  0  0  0
 15 14  1  0  0  0  0
 16 15  2  0  0  0  0
 17 15  1  0  0  0  0
 17 18  1  0  0  0  0
 19 17  1  0  0  0  0
 20 17  1  0  0  0  0
M  END
