Coordinates from ORCA-job Ph-N2-OAc-B3LYPG-6-31G_dp-MTMO-d009-169-n800
 OpenBabel09051908423D

 20 19  0  0  0  0  0  0  0  0999 V2000
   11.1497    7.1333    2.9656 C   0  0  0  0  0  0  0  0  0  0  0  0
   10.6845    5.8679    2.6095 C   0  0  0  0  0  0  0  0  0  0  0  0
   11.4002    4.7380    3.0042 C   0  0  0  0  0  0  0  0  0  0  0  0
   12.5720    4.8501    3.7535 C   0  0  0  0  0  0  0  0  0  0  0  0
   13.0271    6.1239    4.0989 C   0  0  0  0  0  0  0  0  0  0  0  0
   12.3241    7.2652    3.7091 C   0  0  0  0  0  0  0  0  0  0  0  0
   10.5932    8.0142    2.6600 H   0  0  0  0  0  0  0  0  0  0  0  0
    9.7723    5.7396    2.0362 H   0  0  0  0  0  0  0  0  0  0  0  0
    7.5517  -10.0079   -2.7197 N   0  0  0  0  0  0  0  0  0  0  0  0
    7.8096   -9.0279   -2.2785 N   0  0  0  0  0  0  0  0  0  0  0  0
   12.6877    8.2502    3.9851 H   0  0  0  0  0  0  0  0  0  0  0  0
   13.9414    6.2198    4.6771 H   0  0  0  0  0  0  0  0  0  0  0  0
   13.1203    3.9659    4.0493 H   0  0  0  0  0  0  0  0  0  0  0  0
   10.8203    3.5119    2.6693 O   0  0  0  0  0  0  0  0  0  0  0  0
   11.5732    2.4613    2.2139 C   0  0  0  0  0  0  0  0  0  0  0  0
   12.7714    2.4837    2.0771 O   0  0  0  0  0  0  0  0  0  0  0  0
   10.6695    1.2911    1.9112 C   0  0  0  0  0  0  0  0  0  0  0  0
   10.1002    1.0151    2.8036 H   0  0  0  0  0  0  0  0  0  0  0  0
    9.9474    1.5665    1.1367 H   0  0  0  0  0  0  0  0  0  0  0  0
   11.2716    0.4476    1.5755 H   0  0  0  0  0  0  0  0  0  0  0  0
  1  6  1  0  0  0  0
  2  1  2  0  0  0  0
  2  3  1  0  0  0  0
  3  4  2  0  0  0  0
  4 13  1  0  0  0  0
  4  5  1  0  0  0  0
  5 12  1  0  0  0  0
  6 11  1  0  0  0  0
  6  5  2  0  0  0  0
  7  1  1  0  0  0  0
  8  2  1  0  0  0  0
  9 10  3  0  0  0  0
 14  3  1  0  0  0  0
 15 14  1  0  0  0  0
 16 15  2  0  0  0  0
 17 15  1  0  0  0  0
 17 18  1  0  0  0  0
 19 17  1  0  0  0  0
 20 17  1  0  0  0  0
M  END
