Coordinates from ORCA-job Ph-N2-OAc-B3LYPG-6-31G_dp-MTMO-d009-169-n800
 OpenBabel09051908423D

 20 19  0  0  0  0  0  0  0  0999 V2000
   11.0935    6.8276    2.8406 C   0  0  0  0  0  0  0  0  0  0  0  0
   10.6043    5.5674    2.4979 C   0  0  0  0  0  0  0  0  0  0  0  0
   11.3088    4.4289    2.8880 C   0  0  0  0  0  0  0  0  0  0  0  0
   12.4932    4.5274    3.6195 C   0  0  0  0  0  0  0  0  0  0  0  0
   12.9722    5.7959    3.9515 C   0  0  0  0  0  0  0  0  0  0  0  0
   12.2805    6.9457    3.5661 C   0  0  0  0  0  0  0  0  0  0  0  0
   10.5458    7.7151    2.5385 H   0  0  0  0  0  0  0  0  0  0  0  0
    9.6820    5.4499    1.9388 H   0  0  0  0  0  0  0  0  0  0  0  0
    8.4475   -7.2062   -1.6570 N   0  0  0  0  0  0  0  0  0  0  0  0
    8.6603   -6.2065   -1.2364 N   0  0  0  0  0  0  0  0  0  0  0  0
   12.6627    7.9265    3.8316 H   0  0  0  0  0  0  0  0  0  0  0  0
   13.8961    5.8810    4.5158 H   0  0  0  0  0  0  0  0  0  0  0  0
   13.0324    3.6366    3.9120 H   0  0  0  0  0  0  0  0  0  0  0  0
   10.7058    3.2100    2.5687 O   0  0  0  0  0  0  0  0  0  0  0  0
   11.4358    2.1458    2.1073 C   0  0  0  0  0  0  0  0  0  0  0  0
   12.6317    2.1499    1.9507 O   0  0  0  0  0  0  0  0  0  0  0  0
   10.5100    0.9874    1.8264 C   0  0  0  0  0  0  0  0  0  0  0  0
    9.9497    0.7268    2.7290 H   0  0  0  0  0  0  0  0  0  0  0  0
    9.7810    1.2684    1.0604 H   0  0  0  0  0  0  0  0  0  0  0  0
   11.0939    0.1323    1.4881 H   0  0  0  0  0  0  0  0  0  0  0  0
  1  6  1  0  0  0  0
  2  1  2  0  0  0  0
  2  3  1  0  0  0  0
  3  4  2  0  0  0  0
  4 13  1  0  0  0  0
  4  5  1  0  0  0  0
  5 12  1  0  0  0  0
  6 11  1  0  0  0  0
  6  5  2  0  0  0  0
  7  1  1  0  0  0  0
  8  2  1  0  0  0  0
  9 10  3  0  0  0  0
 14  3  1  0  0  0  0
 15 14  1  0  0  0  0
 16 15  2  0  0  0  0
 17 15  1  0  0  0  0
 17 18  1  0  0  0  0
 19 17  1  0  0  0  0
 20 17  1  0  0  0  0
M  END
