Coordinates from ORCA-job Ph-N2-OAc-B3LYPG-6-31G_dp-MTMO-d009-169-n800
 OpenBabel09051908423D

 20 19  0  0  0  0  0  0  0  0999 V2000
   11.1204    6.7716    2.8189 C   0  0  0  0  0  0  0  0  0  0  0  0
   10.5956    5.5224    2.4889 C   0  0  0  0  0  0  0  0  0  0  0  0
   11.2819    4.3687    2.8666 C   0  0  0  0  0  0  0  0  0  0  0  0
   12.4831    4.4412    3.5733 C   0  0  0  0  0  0  0  0  0  0  0  0
   12.9977    5.6991    3.8929 C   0  0  0  0  0  0  0  0  0  0  0  0
   12.3245    6.8637    3.5197 C   0  0  0  0  0  0  0  0  0  0  0  0
   10.5869    7.6709    2.5265 H   0  0  0  0  0  0  0  0  0  0  0  0
    9.6596    5.4251    1.9491 H   0  0  0  0  0  0  0  0  0  0  0  0
    8.7836   -6.6335   -1.4335 N   0  0  0  0  0  0  0  0  0  0  0  0
    8.9638   -5.6162   -1.0407 N   0  0  0  0  0  0  0  0  0  0  0  0
   12.7342    7.8360    3.7753 H   0  0  0  0  0  0  0  0  0  0  0  0
   13.9347    5.7638    4.4379 H   0  0  0  0  0  0  0  0  0  0  0  0
   13.0078    3.5388    3.8563 H   0  0  0  0  0  0  0  0  0  0  0  0
   10.6445    3.1636    2.5620 O   0  0  0  0  0  0  0  0  0  0  0  0
   11.3400    2.0806    2.0914 C   0  0  0  0  0  0  0  0  0  0  0  0
   12.5327    2.0551    1.9130 O   0  0  0  0  0  0  0  0  0  0  0  0
   10.3815    0.9442    1.8316 C   0  0  0  0  0  0  0  0  0  0  0  0
    9.8292    0.7023    2.7442 H   0  0  0  0  0  0  0  0  0  0  0  0
    9.6477    1.2392    1.0755 H   0  0  0  0  0  0  0  0  0  0  0  0
   10.9383    0.0730    1.4886 H   0  0  0  0  0  0  0  0  0  0  0  0
  1  6  1  0  0  0  0
  2  1  2  0  0  0  0
  2  3  1  0  0  0  0
  3  4  2  0  0  0  0
  4 13  1  0  0  0  0
  4  5  1  0  0  0  0
  5 12  1  0  0  0  0
  6 11  1  0  0  0  0
  6  5  2  0  0  0  0
  7  1  1  0  0  0  0
  8  2  1  0  0  0  0
  9 10  3  0  0  0  0
 14  3  1  0  0  0  0
 15 14  1  0  0  0  0
 16 15  2  0  0  0  0
 17 15  1  0  0  0  0
 17 18  1  0  0  0  0
 19 17  1  0  0  0  0
 20 17  1  0  0  0  0
M  END
