Coordinates from ORCA-job Ph-N2-OAc-B3LYPG-6-31G_dp-MTMO-d009-169-n800
 OpenBabel09051908423D

 20 19  0  0  0  0  0  0  0  0999 V2000
   12.0448    5.6509    2.1354 C   0  0  0  0  0  0  0  0  0  0  0  0
   10.9516    4.7965    1.9896 C   0  0  0  0  0  0  0  0  0  0  0  0
   10.9412    3.5762    2.6640 C   0  0  0  0  0  0  0  0  0  0  0  0
   12.0026    3.1949    3.4857 C   0  0  0  0  0  0  0  0  0  0  0  0
   13.0922    4.0581    3.6174 C   0  0  0  0  0  0  0  0  0  0  0  0
   13.1195    5.2830    2.9474 C   0  0  0  0  0  0  0  0  0  0  0  0
   12.0537    6.6030    1.6135 H   0  0  0  0  0  0  0  0  0  0  0  0
   10.1037    5.0616    1.3667 H   0  0  0  0  0  0  0  0  0  0  0  0
   12.7327    1.7560   -0.1546 N   0  0  0  0  0  0  0  0  0  0  0  0
   13.7338    1.5645    0.2725 N   0  0  0  0  0  0  0  0  0  0  0  0
   13.9719    5.9464    3.0593 H   0  0  0  0  0  0  0  0  0  0  0  0
   13.9248    3.7664    4.2509 H   0  0  0  0  0  0  0  0  0  0  0  0
   11.9829    2.2429    3.9992 H   0  0  0  0  0  0  0  0  0  0  0  0
    9.7765    2.8168    2.5251 O   0  0  0  0  0  0  0  0  0  0  0  0
    9.8299    1.4640    2.3171 C   0  0  0  0  0  0  0  0  0  0  0  0
   10.8482    0.8199    2.2514 O   0  0  0  0  0  0  0  0  0  0  0  0
    8.4297    0.9200    2.1768 C   0  0  0  0  0  0  0  0  0  0  0  0
    7.8294    1.1898    3.0509 H   0  0  0  0  0  0  0  0  0  0  0  0
    7.9457    1.3620    1.3005 H   0  0  0  0  0  0  0  0  0  0  0  0
    8.4728   -0.1633    2.0687 H   0  0  0  0  0  0  0  0  0  0  0  0
  1  6  1  0  0  0  0
  2  1  2  0  0  0  0
  2  3  1  0  0  0  0
  3  4  2  0  0  0  0
  4  5  1  0  0  0  0
  4 13  1  0  0  0  0
  5 12  1  0  0  0  0
  6 11  1  0  0  0  0
  6  5  2  0  0  0  0
  7  1  1  0  0  0  0
  8  2  1  0  0  0  0
  9 10  3  0  0  0  0
 14  3  1  0  0  0  0
 15 14  1  0  0  0  0
 16 15  2  0  0  0  0
 17 15  1  0  0  0  0
 17 18  1  0  0  0  0
 19 17  1  0  0  0  0
 20 17  1  0  0  0  0
M  END
