Coordinates from ORCA-job Ph-N2-OAc-B3LYPG-6-31G_dp-MTMO-d009-169-n800
 OpenBabel09051908423D

 20 20  0  0  0  0  0  0  0  0999 V2000
   12.6448    5.9945    2.2128 C   0  0  0  0  0  0  0  0  0  0  0  0
   12.3087    5.1396    1.1681 C   0  0  0  0  0  0  0  0  0  0  0  0
   12.0007    3.7971    1.4436 C   0  0  0  0  0  0  0  0  0  0  0  0
   12.1011    3.2914    2.7527 C   0  0  0  0  0  0  0  0  0  0  0  0
   12.4774    4.1530    3.7782 C   0  0  0  0  0  0  0  0  0  0  0  0
   12.7322    5.5027    3.5180 C   0  0  0  0  0  0  0  0  0  0  0  0
   12.8581    7.0383    2.0056 H   0  0  0  0  0  0  0  0  0  0  0  0
   12.2561    5.4938    0.1438 H   0  0  0  0  0  0  0  0  0  0  0  0
   11.7049    2.9992    0.4078 N   0  0  0  0  0  0  0  0  0  0  0  0
   10.9384    2.1203    0.2020 N   0  0  0  0  0  0  0  0  0  0  0  0
   13.0157    6.1666    4.3289 H   0  0  0  0  0  0  0  0  0  0  0  0
   12.5725    3.7667    4.7884 H   0  0  0  0  0  0  0  0  0  0  0  0
   11.9328    2.2344    2.9263 H   0  0  0  0  0  0  0  0  0  0  0  0
    9.7553    1.9671    1.4293 O   0  0  0  0  0  0  0  0  0  0  0  0
    9.9189    0.8275    2.0913 C   0  0  0  0  0  0  0  0  0  0  0  0
   10.9717    0.2103    2.1558 O   0  0  0  0  0  0  0  0  0  0  0  0
    8.6385    0.3843    2.7802 C   0  0  0  0  0  0  0  0  0  0  0  0
    8.1466    1.2285    3.2703 H   0  0  0  0  0  0  0  0  0  0  0  0
    7.9450   -0.0084    2.0292 H   0  0  0  0  0  0  0  0  0  0  0  0
    8.8681   -0.3973    3.5051 H   0  0  0  0  0  0  0  0  0  0  0  0
  1  6  2  0  0  0  0
  2  3  2  0  0  0  0
  2  1  1  0  0  0  0
  3  4  1  0  0  0  0
  4 13  1  0  0  0  0
  4  5  2  0  0  0  0
  5 12  1  0  0  0  0
  6  5  1  0  0  0  0
  6 11  1  0  0  0  0
  7  1  1  0  0  0  0
  8  2  1  0  0  0  0
  9  3  1  0  0  0  0
 10  9  1  0  0  0  0
 10 14  1  0  0  0  0
 14 15  1  0  0  0  0
 15 16  2  0  0  0  0
 15 17  1  0  0  0  0
 17 18  1  0  0  0  0
 17 20  1  0  0  0  0
 19 17  1  0  0  0  0
M  RAD  2   9   2  10   2
M  END
