Coordinates from ORCA-job Ph-N2-OAc-B3LYPG-6-31G_dp-MTMO-d009-169-n800
 OpenBabel09051908423D

 20 18  0  0  0  0  0  0  0  0999 V2000
   13.2249    6.0824    2.2851 C   0  0  0  0  0  0  0  0  0  0  0  0
   12.7029    5.4762    1.1225 C   0  0  0  0  0  0  0  0  0  0  0  0
   12.1017    4.3036    1.4882 C   0  0  0  0  0  0  0  0  0  0  0  0
   11.9064    3.6568    2.5612 C   0  0  0  0  0  0  0  0  0  0  0  0
   12.4295    4.2575    3.7272 C   0  0  0  0  0  0  0  0  0  0  0  0
   13.0894    5.4851    3.5512 C   0  0  0  0  0  0  0  0  0  0  0  0
   13.7389    7.0345    2.1879 H   0  0  0  0  0  0  0  0  0  0  0  0
   12.7817    5.8967    0.1280 H   0  0  0  0  0  0  0  0  0  0  0  0
   11.3225    3.4243   -0.3974 N   0  0  0  0  0  0  0  0  0  0  0  0
   10.7904    2.5295   -0.7732 N   0  0  0  0  0  0  0  0  0  0  0  0
   13.5079    5.9909    4.4172 H   0  0  0  0  0  0  0  0  0  0  0  0
   12.3342    3.8110    4.7133 H   0  0  0  0  0  0  0  0  0  0  0  0
   10.9472    1.9947    2.8667 H   0  0  0  0  0  0  0  0  0  0  0  0
    9.1448    1.6168    1.4346 O   0  0  0  0  0  0  0  0  0  0  0  0
    9.4156    0.9543    2.4168 C   0  0  0  0  0  0  0  0  0  0  0  0
   10.4765    1.1882    3.2066 O   0  0  0  0  0  0  0  0  0  0  0  0
    8.6105   -0.2296    2.9038 C   0  0  0  0  0  0  0  0  0  0  0  0
    7.7643   -0.3954    2.2384 H   0  0  0  0  0  0  0  0  0  0  0  0
    9.2425   -1.1222    2.9373 H   0  0  0  0  0  0  0  0  0  0  0  0
    8.2556   -0.0459    3.9221 H   0  0  0  0  0  0  0  0  0  0  0  0
  1  6  2  0  0  0  0
  2  3  2  0  0  0  0
  2  1  1  0  0  0  0
  3  4  1  0  0  0  0
  4  5  2  0  0  0  0
  5 12  1  0  0  0  0
  6  5  1  0  0  0  0
  6 11  1  0  0  0  0
  7  1  1  0  0  0  0
  8  2  1  0  0  0  0
 10  9  3  0  0  0  0
 13 16  1  0  0  0  0
 14 15  2  0  0  0  0
 15 17  1  0  0  0  0
 15 16  1  0  0  0  0
 17 19  1  0  0  0  0
 17 20  1  0  0  0  0
 18 17  1  0  0  0  0
M  RAD  2   3   2   4   2
M  END
