Coordinates from ORCA-job Ph-N2-OAc-B3LYPG-6-31G_dp-MTMO-d009-169-n800
 OpenBabel09051908423D

 20 19  0  0  0  0  0  0  0  0999 V2000
   11.9357    5.7642    2.2512 C   0  0  0  0  0  0  0  0  0  0  0  0
   10.8530    4.8963    2.1099 C   0  0  0  0  0  0  0  0  0  0  0  0
   10.9219    3.6180    2.6630 C   0  0  0  0  0  0  0  0  0  0  0  0
   12.0535    3.1918    3.3601 C   0  0  0  0  0  0  0  0  0  0  0  0
   13.1308    4.0710    3.4895 C   0  0  0  0  0  0  0  0  0  0  0  0
   13.0791    5.3532    2.9396 C   0  0  0  0  0  0  0  0  0  0  0  0
   11.8834    6.7602    1.8221 H   0  0  0  0  0  0  0  0  0  0  0  0
    9.9527    5.1940    1.5827 H   0  0  0  0  0  0  0  0  0  0  0  0
   13.0528    1.2727   -0.1605 N   0  0  0  0  0  0  0  0  0  0  0  0
   13.8595    1.1280    0.5808 N   0  0  0  0  0  0  0  0  0  0  0  0
   13.9232    6.0275    3.0486 H   0  0  0  0  0  0  0  0  0  0  0  0
   14.0167    3.7451    4.0265 H   0  0  0  0  0  0  0  0  0  0  0  0
   12.0964    2.1962    3.7801 H   0  0  0  0  0  0  0  0  0  0  0  0
    9.7632    2.8469    2.5381 O   0  0  0  0  0  0  0  0  0  0  0  0
    9.8162    1.5090    2.2521 C   0  0  0  0  0  0  0  0  0  0  0  0
   10.8338    0.8790    2.0963 O   0  0  0  0  0  0  0  0  0  0  0  0
    8.4146    0.9584    2.1571 C   0  0  0  0  0  0  0  0  0  0  0  0
    7.8683    1.1540    3.0848 H   0  0  0  0  0  0  0  0  0  0  0  0
    7.8718    1.4573    1.3486 H   0  0  0  0  0  0  0  0  0  0  0  0
    8.4610   -0.1133    1.9670 H   0  0  0  0  0  0  0  0  0  0  0  0
  1  6  1  0  0  0  0
  2  1  2  0  0  0  0
  2  3  1  0  0  0  0
  3  4  2  0  0  0  0
  4  5  1  0  0  0  0
  4 13  1  0  0  0  0
  5 12  1  0  0  0  0
  6 11  1  0  0  0  0
  6  5  2  0  0  0  0
  7  1  1  0  0  0  0
  8  2  1  0  0  0  0
  9 10  3  0  0  0  0
 14  3  1  0  0  0  0
 15 14  1  0  0  0  0
 16 15  2  0  0  0  0
 17 15  1  0  0  0  0
 17 18  1  0  0  0  0
 19 17  1  0  0  0  0
 20 17  1  0  0  0  0
M  END
