Coordinates from ORCA-job Ph-N2-OAc-B3LYPG-6-31G_dp-MTMO-d009-169-n800
 OpenBabel09051908423D

 20 19  0  0  0  0  0  0  0  0999 V2000
   11.1874    6.7114    2.8249 C   0  0  0  0  0  0  0  0  0  0  0  0
   10.5943    5.4918    2.5003 C   0  0  0  0  0  0  0  0  0  0  0  0
   11.2411    4.3033    2.8380 C   0  0  0  0  0  0  0  0  0  0  0  0
   12.4700    4.3122    3.4995 C   0  0  0  0  0  0  0  0  0  0  0  0
   13.0528    5.5412    3.8142 C   0  0  0  0  0  0  0  0  0  0  0  0
   12.4198    6.7400    3.4806 C   0  0  0  0  0  0  0  0  0  0  0  0
   10.6849    7.6378    2.5634 H   0  0  0  0  0  0  0  0  0  0  0  0
    9.6355    5.4442    1.9952 H   0  0  0  0  0  0  0  0  0  0  0  0
    9.3460   -5.9940   -1.1184 N   0  0  0  0  0  0  0  0  0  0  0  0
    9.4301   -4.9621   -0.7316 N   0  0  0  0  0  0  0  0  0  0  0  0
   12.8824    7.6893    3.7319 H   0  0  0  0  0  0  0  0  0  0  0  0
   14.0112    5.5563    4.3243 H   0  0  0  0  0  0  0  0  0  0  0  0
   12.9633    3.3834    3.7517 H   0  0  0  0  0  0  0  0  0  0  0  0
   10.5383    3.1326    2.5435 O   0  0  0  0  0  0  0  0  0  0  0  0
   11.1658    2.0230    2.0402 C   0  0  0  0  0  0  0  0  0  0  0  0
   12.3490    1.9440    1.8196 O   0  0  0  0  0  0  0  0  0  0  0  0
   10.1470    0.9344    1.8063 C   0  0  0  0  0  0  0  0  0  0  0  0
    9.6232    0.7042    2.7386 H   0  0  0  0  0  0  0  0  0  0  0  0
    9.3962    1.2724    1.0858 H   0  0  0  0  0  0  0  0  0  0  0  0
   10.6491    0.0442    1.4296 H   0  0  0  0  0  0  0  0  0  0  0  0
  1  6  1  0  0  0  0
  2  1  2  0  0  0  0
  2  3  1  0  0  0  0
  3  4  2  0  0  0  0
  4 13  1  0  0  0  0
  4  5  1  0  0  0  0
  5 12  1  0  0  0  0
  6 11  1  0  0  0  0
  6  5  2  0  0  0  0
  7  1  1  0  0  0  0
  8  2  1  0  0  0  0
  9 10  3  0  0  0  0
 14  3  1  0  0  0  0
 15 14  1  0  0  0  0
 16 15  2  0  0  0  0
 17 15  1  0  0  0  0
 17 18  1  0  0  0  0
 19 17  1  0  0  0  0
 20 17  1  0  0  0  0
M  END
