Coordinates from ORCA-job Ph-N2-OAc-B3LYPG-6-31G_dp-MTMO-d009-169-n800
 OpenBabel09051908423D

 20 19  0  0  0  0  0  0  0  0999 V2000
   11.1341    7.0755    2.9427 C   0  0  0  0  0  0  0  0  0  0  0  0
   10.6684    5.8099    2.5873 C   0  0  0  0  0  0  0  0  0  0  0  0
   11.3841    4.6801    2.9821 C   0  0  0  0  0  0  0  0  0  0  0  0
   12.5564    4.7923    3.7308 C   0  0  0  0  0  0  0  0  0  0  0  0
   13.0119    6.0662    4.0753 C   0  0  0  0  0  0  0  0  0  0  0  0
   12.3089    7.2075    3.6855 C   0  0  0  0  0  0  0  0  0  0  0  0
   10.5776    7.9563    2.6370 H   0  0  0  0  0  0  0  0  0  0  0  0
    9.7559    5.6816    2.0146 H   0  0  0  0  0  0  0  0  0  0  0  0
    7.6982   -9.4862   -2.5217 N   0  0  0  0  0  0  0  0  0  0  0  0
    7.9541   -8.5059   -2.0800 N   0  0  0  0  0  0  0  0  0  0  0  0
   12.6729    8.1925    3.9608 H   0  0  0  0  0  0  0  0  0  0  0  0
   13.9265    6.1621    4.6530 H   0  0  0  0  0  0  0  0  0  0  0  0
   13.1046    3.9081    4.0267 H   0  0  0  0  0  0  0  0  0  0  0  0
   10.8038    3.4540    2.6481 O   0  0  0  0  0  0  0  0  0  0  0  0
   11.5563    2.4030    2.1928 C   0  0  0  0  0  0  0  0  0  0  0  0
   12.7544    2.4252    2.0553 O   0  0  0  0  0  0  0  0  0  0  0  0
   10.6522    1.2329    1.8910 C   0  0  0  0  0  0  0  0  0  0  0  0
   10.0832    0.9574    2.7839 H   0  0  0  0  0  0  0  0  0  0  0  0
    9.9298    1.5080    1.1168 H   0  0  0  0  0  0  0  0  0  0  0  0
   11.2539    0.3891    1.5555 H   0  0  0  0  0  0  0  0  0  0  0  0
  1  6  1  0  0  0  0
  2  1  2  0  0  0  0
  2  3  1  0  0  0  0
  3  4  2  0  0  0  0
  4 13  1  0  0  0  0
  4  5  1  0  0  0  0
  5 12  1  0  0  0  0
  6 11  1  0  0  0  0
  6  5  2  0  0  0  0
  7  1  1  0  0  0  0
  8  2  1  0  0  0  0
  9 10  3  0  0  0  0
 14  3  1  0  0  0  0
 15 14  1  0  0  0  0
 16 15  2  0  0  0  0
 17 15  1  0  0  0  0
 17 18  1  0  0  0  0
 19 17  1  0  0  0  0
 20 17  1  0  0  0  0
M  END
