Coordinates from ORCA-job Ph-N2-OAc-B3LYPG-6-31G_dp-MTMO-d009-169-n800
 OpenBabel09051908423D

 20 19  0  0  0  0  0  0  0  0999 V2000
   11.1351    7.0791    2.9441 C   0  0  0  0  0  0  0  0  0  0  0  0
   10.6694    5.8136    2.5887 C   0  0  0  0  0  0  0  0  0  0  0  0
   11.3851    4.6837    2.9835 C   0  0  0  0  0  0  0  0  0  0  0  0
   12.5574    4.7959    3.7322 C   0  0  0  0  0  0  0  0  0  0  0  0
   13.0129    6.0698    4.0768 C   0  0  0  0  0  0  0  0  0  0  0  0
   12.3098    7.2111    3.6870 C   0  0  0  0  0  0  0  0  0  0  0  0
   10.5786    7.9600    2.6384 H   0  0  0  0  0  0  0  0  0  0  0  0
    9.7569    5.6852    2.0159 H   0  0  0  0  0  0  0  0  0  0  0  0
    7.6890   -9.5188   -2.5340 N   0  0  0  0  0  0  0  0  0  0  0  0
    7.9451   -8.5385   -2.0923 N   0  0  0  0  0  0  0  0  0  0  0  0
   12.6738    8.1961    3.9623 H   0  0  0  0  0  0  0  0  0  0  0  0
   13.9274    6.1657    4.6546 H   0  0  0  0  0  0  0  0  0  0  0  0
   13.1056    3.9117    4.0281 H   0  0  0  0  0  0  0  0  0  0  0  0
   10.8048    3.4576    2.6494 O   0  0  0  0  0  0  0  0  0  0  0  0
   11.5574    2.4066    2.1941 C   0  0  0  0  0  0  0  0  0  0  0  0
   12.7555    2.4288    2.0566 O   0  0  0  0  0  0  0  0  0  0  0  0
   10.6533    1.2365    1.8923 C   0  0  0  0  0  0  0  0  0  0  0  0
   10.0843    0.9610    2.7851 H   0  0  0  0  0  0  0  0  0  0  0  0
    9.9309    1.5117    1.1180 H   0  0  0  0  0  0  0  0  0  0  0  0
   11.2551    0.3927    1.5567 H   0  0  0  0  0  0  0  0  0  0  0  0
  1  6  1  0  0  0  0
  2  1  2  0  0  0  0
  2  3  1  0  0  0  0
  3  4  2  0  0  0  0
  4 13  1  0  0  0  0
  4  5  1  0  0  0  0
  5 12  1  0  0  0  0
  6 11  1  0  0  0  0
  6  5  2  0  0  0  0
  7  1  1  0  0  0  0
  8  2  1  0  0  0  0
  9 10  3  0  0  0  0
 14  3  1  0  0  0  0
 15 14  1  0  0  0  0
 16 15  2  0  0  0  0
 17 15  1  0  0  0  0
 17 18  1  0  0  0  0
 19 17  1  0  0  0  0
 20 17  1  0  0  0  0
M  END
