Coordinates from ORCA-job Ph-N2-OAc-B3LYPG-6-31G_dp-MTMO-d009-169-n800
 OpenBabel09051908423D

 20 19  0  0  0  0  0  0  0  0999 V2000
   11.2126    6.6109    2.7976 C   0  0  0  0  0  0  0  0  0  0  0  0
   10.5821    5.4086    2.4790 C   0  0  0  0  0  0  0  0  0  0  0  0
   11.2044    4.2022    2.7989 C   0  0  0  0  0  0  0  0  0  0  0  0
   12.4456    4.1763    3.4365 C   0  0  0  0  0  0  0  0  0  0  0  0
   13.0659    5.3882    3.7454 C   0  0  0  0  0  0  0  0  0  0  0  0
   12.4576    6.6045    3.4294 C   0  0  0  0  0  0  0  0  0  0  0  0
   10.7293    7.5512    2.5498 H   0  0  0  0  0  0  0  0  0  0  0  0
    9.6130    5.3882    1.9921 H   0  0  0  0  0  0  0  0  0  0  0  0
    9.7691   -5.0506   -0.7442 N   0  0  0  0  0  0  0  0  0  0  0  0
    9.8177   -4.0229   -0.3404 N   0  0  0  0  0  0  0  0  0  0  0  0
   12.9494    7.5404    3.6760 H   0  0  0  0  0  0  0  0  0  0  0  0
   14.0338    5.3761    4.2372 H   0  0  0  0  0  0  0  0  0  0  0  0
   12.9194    3.2338    3.6751 H   0  0  0  0  0  0  0  0  0  0  0  0
   10.4664    3.0511    2.5132 O   0  0  0  0  0  0  0  0  0  0  0  0
   11.0560    1.9293    1.9910 C   0  0  0  0  0  0  0  0  0  0  0  0
   12.2318    1.8237    1.7434 O   0  0  0  0  0  0  0  0  0  0  0  0
   10.0070    0.8656    1.7765 C   0  0  0  0  0  0  0  0  0  0  0  0
    9.5058    0.6379    2.7217 H   0  0  0  0  0  0  0  0  0  0  0  0
    9.2429    1.2270    1.0818 H   0  0  0  0  0  0  0  0  0  0  0  0
   10.4777   -0.0319    1.3774 H   0  0  0  0  0  0  0  0  0  0  0  0
  1  6  1  0  0  0  0
  2  1  2  0  0  0  0
  2  3  1  0  0  0  0
  3  4  2  0  0  0  0
  4 13  1  0  0  0  0
  4  5  1  0  0  0  0
  5 12  1  0  0  0  0
  6 11  1  0  0  0  0
  6  5  2  0  0  0  0
  7  1  1  0  0  0  0
  8  2  1  0  0  0  0
  9 10  3  0  0  0  0
 14  3  1  0  0  0  0
 15 14  1  0  0  0  0
 16 15  2  0  0  0  0
 17 15  1  0  0  0  0
 17 18  1  0  0  0  0
 19 17  1  0  0  0  0
 20 17  1  0  0  0  0
M  END
