Coordinates from ORCA-job Ph-N2-OAc-B3LYPG-6-31G_dp-MTMO-d009-169-n800
 OpenBabel09051908423D

 20 19  0  0  0  0  0  0  0  0999 V2000
   11.2028    6.6523    2.8107 C   0  0  0  0  0  0  0  0  0  0  0  0
   10.5870    5.4432    2.4887 C   0  0  0  0  0  0  0  0  0  0  0  0
   11.2191    4.2436    2.8146 C   0  0  0  0  0  0  0  0  0  0  0  0
   12.4557    4.2310    3.4614 C   0  0  0  0  0  0  0  0  0  0  0  0
   13.0613    5.4495    3.7736 C   0  0  0  0  0  0  0  0  0  0  0  0
   12.4431    6.6593    3.4518 C   0  0  0  0  0  0  0  0  0  0  0  0
   10.7118    7.5874    2.5583 H   0  0  0  0  0  0  0  0  0  0  0  0
    9.6217    5.4125    1.9947 H   0  0  0  0  0  0  0  0  0  0  0  0
    9.5995   -5.4373   -0.8919 N   0  0  0  0  0  0  0  0  0  0  0  0
    9.6627   -4.4076   -0.4955 N   0  0  0  0  0  0  0  0  0  0  0  0
   12.9235    7.6004    3.7010 H   0  0  0  0  0  0  0  0  0  0  0  0
   14.0257    5.4478    4.2725 H   0  0  0  0  0  0  0  0  0  0  0  0
   12.9374    3.2937    3.7046 H   0  0  0  0  0  0  0  0  0  0  0  0
   10.4949    3.0849    2.5245 O   0  0  0  0  0  0  0  0  0  0  0  0
   11.0995    1.9682    2.0088 C   0  0  0  0  0  0  0  0  0  0  0  0
   12.2783    1.8732    1.7715 O   0  0  0  0  0  0  0  0  0  0  0  0
   10.0622    0.8947    1.7860 C   0  0  0  0  0  0  0  0  0  0  0  0
    9.5524    0.6653    2.7261 H   0  0  0  0  0  0  0  0  0  0  0  0
    9.3030    1.2473    1.0815 H   0  0  0  0  0  0  0  0  0  0  0  0
   10.5455    0.0004    1.3948 H   0  0  0  0  0  0  0  0  0  0  0  0
  1  6  1  0  0  0  0
  2  1  2  0  0  0  0
  2  3  1  0  0  0  0
  3  4  2  0  0  0  0
  4 13  1  0  0  0  0
  4  5  1  0  0  0  0
  5 12  1  0  0  0  0
  6 11  1  0  0  0  0
  6  5  2  0  0  0  0
  7  1  1  0  0  0  0
  8  2  1  0  0  0  0
  9 10  3  0  0  0  0
 14  3  1  0  0  0  0
 15 14  1  0  0  0  0
 16 15  2  0  0  0  0
 17 15  1  0  0  0  0
 17 18  1  0  0  0  0
 19 17  1  0  0  0  0
 20 17  1  0  0  0  0
M  END
