Coordinates from ORCA-job Ph-N2-OAc-B3LYPG-6-31G_dp-MTMO-d009-169-n800
 OpenBabel09051908423D

 20 19  0  0  0  0  0  0  0  0999 V2000
   11.1051    6.8001    2.8291 C   0  0  0  0  0  0  0  0  0  0  0  0
   10.5996    5.5446    2.4928 C   0  0  0  0  0  0  0  0  0  0  0  0
   11.2960    4.3994    2.8777 C   0  0  0  0  0  0  0  0  0  0  0  0
   12.4884    4.4865    3.5975 C   0  0  0  0  0  0  0  0  0  0  0  0
   12.9837    5.7505    3.9231 C   0  0  0  0  0  0  0  0  0  0  0  0
   12.3002    6.9068    3.5430 C   0  0  0  0  0  0  0  0  0  0  0  0
   10.5637    7.6929    2.5311 H   0  0  0  0  0  0  0  0  0  0  0  0
    9.6708    5.4360    1.9427 H   0  0  0  0  0  0  0  0  0  0  0  0
    8.6044   -6.9262   -1.5494 N   0  0  0  0  0  0  0  0  0  0  0  0
    8.8042   -5.9174   -1.1445 N   0  0  0  0  0  0  0  0  0  0  0  0
   12.6949    7.8840    3.8035 H   0  0  0  0  0  0  0  0  0  0  0  0
   13.9138    5.8267    4.4784 H   0  0  0  0  0  0  0  0  0  0  0  0
   13.0212    3.5905    3.8859 H   0  0  0  0  0  0  0  0  0  0  0  0
   10.6772    3.1866    2.5656 O   0  0  0  0  0  0  0  0  0  0  0  0
   11.3916    2.1133    2.1009 C   0  0  0  0  0  0  0  0  0  0  0  0
   12.5862    2.1036    1.9348 O   0  0  0  0  0  0  0  0  0  0  0  0
   10.4507    0.9648    1.8299 C   0  0  0  0  0  0  0  0  0  0  0  0
    9.8933    0.7135    2.7370 H   0  0  0  0  0  0  0  0  0  0  0  0
    9.7201    1.2515    1.0677 H   0  0  0  0  0  0  0  0  0  0  0  0
   11.0225    0.1019    1.4906 H   0  0  0  0  0  0  0  0  0  0  0  0
  1  6  1  0  0  0  0
  2  1  2  0  0  0  0
  2  3  1  0  0  0  0
  3  4  2  0  0  0  0
  4 13  1  0  0  0  0
  4  5  1  0  0  0  0
  5 12  1  0  0  0  0
  6 11  1  0  0  0  0
  6  5  2  0  0  0  0
  7  1  1  0  0  0  0
  8  2  1  0  0  0  0
  9 10  3  0  0  0  0
 14  3  1  0  0  0  0
 15 14  1  0  0  0  0
 16 15  2  0  0  0  0
 17 15  1  0  0  0  0
 17 18  1  0  0  0  0
 19 17  1  0  0  0  0
 20 17  1  0  0  0  0
M  END
