Coordinates from ORCA-job Ph-N2-OAc-B3LYPG-6-31G_dp-MTMO-d009-169-n800
 OpenBabel09051908423D

 20 19  0  0  0  0  0  0  0  0999 V2000
   11.0895    6.8586    2.8542 C   0  0  0  0  0  0  0  0  0  0  0  0
   10.6107    5.5957    2.5071 C   0  0  0  0  0  0  0  0  0  0  0  0
   11.3206    4.4614    2.8997 C   0  0  0  0  0  0  0  0  0  0  0  0
   12.5001    4.5668    3.6380 C   0  0  0  0  0  0  0  0  0  0  0  0
   12.9687    5.8380    3.9744 C   0  0  0  0  0  0  0  0  0  0  0  0
   12.2715    6.9837    3.5867 C   0  0  0  0  0  0  0  0  0  0  0  0
   10.5375    7.7429    2.5502 H   0  0  0  0  0  0  0  0  0  0  0  0
    9.6924    5.4728    1.9425 H   0  0  0  0  0  0  0  0  0  0  0  0
    8.3123   -7.5071   -1.7718 N   0  0  0  0  0  0  0  0  0  0  0  0
    8.5390   -6.5149   -1.3407 N   0  0  0  0  0  0  0  0  0  0  0  0
   12.6457    7.9666    3.8556 H   0  0  0  0  0  0  0  0  0  0  0  0
   13.8889    5.9286    4.5440 H   0  0  0  0  0  0  0  0  0  0  0  0
   13.0437    3.6792    3.9323 H   0  0  0  0  0  0  0  0  0  0  0  0
   10.7276    3.2390    2.5749 O   0  0  0  0  0  0  0  0  0  0  0  0
   11.4676    2.1801    2.1172 C   0  0  0  0  0  0  0  0  0  0  0  0
   12.6646    2.1920    1.9693 O   0  0  0  0  0  0  0  0  0  0  0  0
   10.5514    1.0163    1.8279 C   0  0  0  0  0  0  0  0  0  0  0  0
    9.9871    0.7498    2.7264 H   0  0  0  0  0  0  0  0  0  0  0  0
    9.8253    1.2940    1.0580 H   0  0  0  0  0  0  0  0  0  0  0  0
   11.1432    0.1659    1.4916 H   0  0  0  0  0  0  0  0  0  0  0  0
  1  6  1  0  0  0  0
  2  1  2  0  0  0  0
  2  3  1  0  0  0  0
  3  4  2  0  0  0  0
  4 13  1  0  0  0  0
  4  5  1  0  0  0  0
  5 12  1  0  0  0  0
  6 11  1  0  0  0  0
  6  5  2  0  0  0  0
  7  1  1  0  0  0  0
  8  2  1  0  0  0  0
  9 10  3  0  0  0  0
 14  3  1  0  0  0  0
 15 14  1  0  0  0  0
 16 15  2  0  0  0  0
 17 15  1  0  0  0  0
 17 18  1  0  0  0  0
 19 17  1  0  0  0  0
 20 17  1  0  0  0  0
M  END
