Coordinates from ORCA-job Ph-N2-OAc-B3LYPG-6-31G_dp-MTMO-d009-169-n800
 OpenBabel09051908423D

 20 19  0  0  0  0  0  0  0  0999 V2000
   11.3775    6.4177    2.6534 C   0  0  0  0  0  0  0  0  0  0  0  0
   10.5950    5.2871    2.4196 C   0  0  0  0  0  0  0  0  0  0  0  0
   11.0933    4.0283    2.7528 C   0  0  0  0  0  0  0  0  0  0  0  0
   12.3599    3.8790    3.3190 C   0  0  0  0  0  0  0  0  0  0  0  0
   13.1329    5.0194    3.5436 C   0  0  0  0  0  0  0  0  0  0  0  0
   12.6496    6.2872    3.2138 C   0  0  0  0  0  0  0  0  0  0  0  0
   10.9912    7.3992    2.3952 H   0  0  0  0  0  0  0  0  0  0  0  0
    9.6026    5.3634    1.9884 H   0  0  0  0  0  0  0  0  0  0  0  0
   11.4549   -3.1501   -0.3501 N   0  0  0  0  0  0  0  0  0  0  0  0
   10.7465   -2.4501    0.1287 N   0  0  0  0  0  0  0  0  0  0  0  0
   13.2594    7.1671    3.3943 H   0  0  0  0  0  0  0  0  0  0  0  0
   14.1210    4.9111    3.9805 H   0  0  0  0  0  0  0  0  0  0  0  0
   12.7356    2.8956    3.5685 H   0  0  0  0  0  0  0  0  0  0  0  0
   10.2152    2.9593    2.5597 O   0  0  0  0  0  0  0  0  0  0  0  0
   10.6400    1.7741    2.0164 C   0  0  0  0  0  0  0  0  0  0  0  0
   11.7727    1.5479    1.6687 O   0  0  0  0  0  0  0  0  0  0  0  0
    9.4782    0.8152    1.9308 C   0  0  0  0  0  0  0  0  0  0  0  0
    9.1071    0.5940    2.9360 H   0  0  0  0  0  0  0  0  0  0  0  0
    8.6537    1.2687    1.3735 H   0  0  0  0  0  0  0  0  0  0  0  0
    9.8009   -0.1045    1.4447 H   0  0  0  0  0  0  0  0  0  0  0  0
  1  6  1  0  0  0  0
  2  1  2  0  0  0  0
  2  3  1  0  0  0  0
  3  4  2  0  0  0  0
  4  5  1  0  0  0  0
  4 13  1  0  0  0  0
  5 12  1  0  0  0  0
  6 11  1  0  0  0  0
  6  5  2  0  0  0  0
  7  1  1  0  0  0  0
  8  2  1  0  0  0  0
  9 10  3  0  0  0  0
 14  3  1  0  0  0  0
 15 14  1  0  0  0  0
 16 15  2  0  0  0  0
 17 15  1  0  0  0  0
 17 18  1  0  0  0  0
 19 17  1  0  0  0  0
 20 17  1  0  0  0  0
M  END
