Coordinates from ORCA-job Ph-N2-OAc-B3LYPG-6-31G_dp-MTMO-d009-169-n800
 OpenBabel09051908423D

 20 19  0  0  0  0  0  0  0  0999 V2000
   11.2043    6.6455    2.8090 C   0  0  0  0  0  0  0  0  0  0  0  0
   10.5861    5.4375    2.4873 C   0  0  0  0  0  0  0  0  0  0  0  0
   11.2168    4.2367    2.8118 C   0  0  0  0  0  0  0  0  0  0  0  0
   12.4542    4.2219    3.4570 C   0  0  0  0  0  0  0  0  0  0  0  0
   13.0621    5.4393    3.7689 C   0  0  0  0  0  0  0  0  0  0  0  0
   12.4454    6.6501    3.4485 C   0  0  0  0  0  0  0  0  0  0  0  0
   10.7144    7.5814    2.5578 H   0  0  0  0  0  0  0  0  0  0  0  0
    9.6201    5.4086    1.9946 H   0  0  0  0  0  0  0  0  0  0  0  0
    9.6272   -5.3734   -0.8660 N   0  0  0  0  0  0  0  0  0  0  0  0
    9.6883   -4.3438   -0.4688 N   0  0  0  0  0  0  0  0  0  0  0  0
   12.9275    7.5904    3.6975 H   0  0  0  0  0  0  0  0  0  0  0  0
   14.0271    5.4358    4.2666 H   0  0  0  0  0  0  0  0  0  0  0  0
   12.9346    3.2836    3.6990 H   0  0  0  0  0  0  0  0  0  0  0  0
   10.4903    3.0793    2.5221 O   0  0  0  0  0  0  0  0  0  0  0  0
   11.0925    1.9617    2.0054 C   0  0  0  0  0  0  0  0  0  0  0  0
   12.2709    1.8649    1.7669 O   0  0  0  0  0  0  0  0  0  0  0  0
   10.0532    0.8900    1.7836 C   0  0  0  0  0  0  0  0  0  0  0  0
    9.5445    0.6609    2.7245 H   0  0  0  0  0  0  0  0  0  0  0  0
    9.2934    1.2441    1.0805 H   0  0  0  0  0  0  0  0  0  0  0  0
   10.5345   -0.0050    1.3913 H   0  0  0  0  0  0  0  0  0  0  0  0
  1  6  1  0  0  0  0
  2  1  2  0  0  0  0
  2  3  1  0  0  0  0
  3  4  2  0  0  0  0
  4 13  1  0  0  0  0
  4  5  1  0  0  0  0
  5 12  1  0  0  0  0
  6 11  1  0  0  0  0
  6  5  2  0  0  0  0
  7  1  1  0  0  0  0
  8  2  1  0  0  0  0
  9 10  3  0  0  0  0
 14  3  1  0  0  0  0
 15 14  1  0  0  0  0
 16 15  2  0  0  0  0
 17 15  1  0  0  0  0
 17 18  1  0  0  0  0
 19 17  1  0  0  0  0
 20 17  1  0  0  0  0
M  END
