Coordinates from ORCA-job Ph-N2-OAc-B3LYPG-6-31G_dp-MTMO-d009-169-n800
 OpenBabel09051908423D

 20 19  0  0  0  0  0  0  0  0999 V2000
   11.2401    6.5331    2.7630 C   0  0  0  0  0  0  0  0  0  0  0  0
   10.5763    5.3453    2.4577 C   0  0  0  0  0  0  0  0  0  0  0  0
   11.1748    4.1252    2.7709 C   0  0  0  0  0  0  0  0  0  0  0  0
   12.4253    4.0714    3.3884 C   0  0  0  0  0  0  0  0  0  0  0  0
   13.0790    5.2689    3.6841 C   0  0  0  0  0  0  0  0  0  0  0  0
   12.4947    6.4986    3.3748 C   0  0  0  0  0  0  0  0  0  0  0  0
   10.7754    7.4841    2.5205 H   0  0  0  0  0  0  0  0  0  0  0  0
    9.5993    5.3468    1.9863 H   0  0  0  0  0  0  0  0  0  0  0  0
   10.1578   -4.3098   -0.5173 N   0  0  0  0  0  0  0  0  0  0  0  0
   10.1172   -3.3033   -0.0624 N   0  0  0  0  0  0  0  0  0  0  0  0
   13.0124    7.4232    3.6109 H   0  0  0  0  0  0  0  0  0  0  0  0
   14.0541    5.2349    4.1604 H   0  0  0  0  0  0  0  0  0  0  0  0
   12.8804    3.1184    3.6217 H   0  0  0  0  0  0  0  0  0  0  0  0
   10.4052    2.9912    2.5001 O   0  0  0  0  0  0  0  0  0  0  0  0
   10.9591    1.8529    1.9738 C   0  0  0  0  0  0  0  0  0  0  0  0
   12.1280    1.7182    1.7083 O   0  0  0  0  0  0  0  0  0  0  0  0
    9.8814    0.8138    1.7816 C   0  0  0  0  0  0  0  0  0  0  0  0
    9.3951    0.5992    2.7376 H   0  0  0  0  0  0  0  0  0  0  0  0
    9.1111    1.1933    1.1035 H   0  0  0  0  0  0  0  0  0  0  0  0
   10.3207   -0.0958    1.3739 H   0  0  0  0  0  0  0  0  0  0  0  0
  1  6  1  0  0  0  0
  2  1  2  0  0  0  0
  2  3  1  0  0  0  0
  3  4  2  0  0  0  0
  4 13  1  0  0  0  0
  4  5  1  0  0  0  0
  5 12  1  0  0  0  0
  6 11  1  0  0  0  0
  6  5  2  0  0  0  0
  7  1  1  0  0  0  0
  8  2  1  0  0  0  0
  9 10  3  0  0  0  0
 14  3  1  0  0  0  0
 15 14  1  0  0  0  0
 16 15  2  0  0  0  0
 17 15  1  0  0  0  0
 17 18  1  0  0  0  0
 19 17  1  0  0  0  0
 20 17  1  0  0  0  0
M  END
