Coordinates from ORCA-job Ph-N2-OAc-B3LYPG-6-31G_dp-MTMO-d009-169-n800
 OpenBabel09051908423D

 20 19  0  0  0  0  0  0  0  0999 V2000
   11.0922    6.8981    2.8708 C   0  0  0  0  0  0  0  0  0  0  0  0
   10.6203    5.6335    2.5204 C   0  0  0  0  0  0  0  0  0  0  0  0
   11.3335    4.5018    2.9146 C   0  0  0  0  0  0  0  0  0  0  0  0
   12.5095    4.6114    3.6578 C   0  0  0  0  0  0  0  0  0  0  0  0
   12.9713    5.8843    3.9974 C   0  0  0  0  0  0  0  0  0  0  0  0
   12.2708    7.0274    3.6082 C   0  0  0  0  0  0  0  0  0  0  0  0
   10.5377    7.7803    2.5656 H   0  0  0  0  0  0  0  0  0  0  0  0
    9.7048    5.5073    1.9521 H   0  0  0  0  0  0  0  0  0  0  0  0
    8.1753   -7.8763   -1.9116 N   0  0  0  0  0  0  0  0  0  0  0  0
    8.4148   -6.8898   -1.4744 N   0  0  0  0  0  0  0  0  0  0  0  0
   12.6396    8.0116    3.8796 H   0  0  0  0  0  0  0  0  0  0  0  0
   13.8888    5.9782    4.5708 H   0  0  0  0  0  0  0  0  0  0  0  0
   13.0558    3.7259    3.9532 H   0  0  0  0  0  0  0  0  0  0  0  0
   10.7471    3.2772    2.5860 O   0  0  0  0  0  0  0  0  0  0  0  0
   11.4936    2.2222    2.1300 C   0  0  0  0  0  0  0  0  0  0  0  0
   12.6911    2.2395    1.9870 O   0  0  0  0  0  0  0  0  0  0  0  0
   10.5837    1.0548    1.8354 C   0  0  0  0  0  0  0  0  0  0  0  0
   10.0175    0.7840    2.7314 H   0  0  0  0  0  0  0  0  0  0  0  0
    9.8591    1.3305    1.0634 H   0  0  0  0  0  0  0  0  0  0  0  0
   11.1807    0.2077    1.4997 H   0  0  0  0  0  0  0  0  0  0  0  0
  1  6  1  0  0  0  0
  2  1  2  0  0  0  0
  2  3  1  0  0  0  0
  3  4  2  0  0  0  0
  4 13  1  0  0  0  0
  4  5  1  0  0  0  0
  5 12  1  0  0  0  0
  6 11  1  0  0  0  0
  6  5  2  0  0  0  0
  7  1  1  0  0  0  0
  8  2  1  0  0  0  0
  9 10  3  0  0  0  0
 14  3  1  0  0  0  0
 15 14  1  0  0  0  0
 16 15  2  0  0  0  0
 17 15  1  0  0  0  0
 17 18  1  0  0  0  0
 19 17  1  0  0  0  0
 20 17  1  0  0  0  0
M  END
