Coordinates from ORCA-job Ph-N2-OAc-B3LYPG-6-31G_dp-MTMO-d009-169-n800
 OpenBabel09051908423D

 20 18  0  0  0  0  0  0  0  0999 V2000
   13.1345    6.0330    2.2369 C   0  0  0  0  0  0  0  0  0  0  0  0
   12.3442    5.2410    1.3700 C   0  0  0  0  0  0  0  0  0  0  0  0
   11.9340    4.1368    2.0732 C   0  0  0  0  0  0  0  0  0  0  0  0
   12.1064    3.7359    3.2498 C   0  0  0  0  0  0  0  0  0  0  0  0
   12.8820    4.4846    4.1434 C   0  0  0  0  0  0  0  0  0  0  0  0
   13.3918    5.6672    3.5711 C   0  0  0  0  0  0  0  0  0  0  0  0
   13.5555    6.9566    1.8477 H   0  0  0  0  0  0  0  0  0  0  0  0
   12.1320    5.4959    0.3402 H   0  0  0  0  0  0  0  0  0  0  0  0
   10.9464    3.1970   -0.9793 N   0  0  0  0  0  0  0  0  0  0  0  0
   10.6425    2.2943   -1.5390 N   0  0  0  0  0  0  0  0  0  0  0  0
   14.0058    6.3233    4.1834 H   0  0  0  0  0  0  0  0  0  0  0  0
   13.0848    4.2133    5.1744 H   0  0  0  0  0  0  0  0  0  0  0  0
   10.7502    2.0098    3.3775 H   0  0  0  0  0  0  0  0  0  0  0  0
    9.6586    1.5834    1.3814 O   0  0  0  0  0  0  0  0  0  0  0  0
    9.5023    0.9636    2.4134 C   0  0  0  0  0  0  0  0  0  0  0  0
   10.1613    1.2459    3.5552 O   0  0  0  0  0  0  0  0  0  0  0  0
    8.5605   -0.2032    2.5929 C   0  0  0  0  0  0  0  0  0  0  0  0
    8.0646   -0.4212    1.6478 H   0  0  0  0  0  0  0  0  0  0  0  0
    9.1135   -1.0817    2.9381 H   0  0  0  0  0  0  0  0  0  0  0  0
    7.8166    0.0340    3.3595 H   0  0  0  0  0  0  0  0  0  0  0  0
  1  6  2  0  0  0  0
  2  3  2  0  0  0  0
  2  1  1  0  0  0  0
  3  4  1  0  0  0  0
  4  5  2  0  0  0  0
  5 12  1  0  0  0  0
  6  5  1  0  0  0  0
  6 11  1  0  0  0  0
  7  1  1  0  0  0  0
  8  2  1  0  0  0  0
 10  9  3  0  0  0  0
 13 16  1  0  0  0  0
 14 15  2  0  0  0  0
 15 17  1  0  0  0  0
 15 16  1  0  0  0  0
 17 19  1  0  0  0  0
 17 20  1  0  0  0  0
 18 17  1  0  0  0  0
M  RAD  2   3   2   4   2
M  END
