Coordinates from ORCA-job Ph-N2-OAc-B3LYPG-6-31G_dp-MTMO-d009-169-n800
 OpenBabel09051908423D

 20 19  0  0  0  0  0  0  0  0999 V2000
   11.5400    6.2186    2.4337 C   0  0  0  0  0  0  0  0  0  0  0  0
   10.6434    5.1586    2.2992 C   0  0  0  0  0  0  0  0  0  0  0  0
   11.0181    3.8868    2.7295 C   0  0  0  0  0  0  0  0  0  0  0  0
   12.2719    3.6550    3.2958 C   0  0  0  0  0  0  0  0  0  0  0  0
   13.1599    4.7246    3.4207 C   0  0  0  0  0  0  0  0  0  0  0  0
   12.8013    6.0045    2.9926 C   0  0  0  0  0  0  0  0  0  0  0  0
   11.2507    7.2105    2.0994 H   0  0  0  0  0  0  0  0  0  0  0  0
    9.6570    5.3010    1.8710 H   0  0  0  0  0  0  0  0  0  0  0  0
   12.5316   -1.3022   -0.1969 N   0  0  0  0  0  0  0  0  0  0  0  0
   11.4979   -1.4119    0.1777 N   0  0  0  0  0  0  0  0  0  0  0  0
   13.4998    6.8294    3.0958 H   0  0  0  0  0  0  0  0  0  0  0  0
   14.1389    4.5518    3.8574 H   0  0  0  0  0  0  0  0  0  0  0  0
   12.5497    2.6614    3.6221 H   0  0  0  0  0  0  0  0  0  0  0  0
   10.0358    2.8976    2.6328 O   0  0  0  0  0  0  0  0  0  0  0  0
   10.3322    1.6502    2.1498 C   0  0  0  0  0  0  0  0  0  0  0  0
   11.4278    1.3040    1.7808 O   0  0  0  0  0  0  0  0  0  0  0  0
    9.0893    0.7949    2.1605 C   0  0  0  0  0  0  0  0  0  0  0  0
    8.7538    0.6453    3.1912 H   0  0  0  0  0  0  0  0  0  0  0  0
    8.2789    1.2965    1.6246 H   0  0  0  0  0  0  0  0  0  0  0  0
    9.3093   -0.1671    1.6998 H   0  0  0  0  0  0  0  0  0  0  0  0
  1  6  1  0  0  0  0
  2  1  2  0  0  0  0
  2  3  1  0  0  0  0
  3  4  2  0  0  0  0
  4  5  1  0  0  0  0
  4 13  1  0  0  0  0
  5 12  1  0  0  0  0
  6 11  1  0  0  0  0
  6  5  2  0  0  0  0
  7  1  1  0  0  0  0
  8  2  1  0  0  0  0
  9 10  3  0  0  0  0
 14  3  1  0  0  0  0
 15 17  1  0  0  0  0
 15 14  1  0  0  0  0
 16 15  2  0  0  0  0
 17 18  1  0  0  0  0
 19 17  1  0  0  0  0
 20 17  1  0  0  0  0
M  END
