Coordinates from ORCA-job Ph-N2-OAc-B3LYPG-6-31G_dp-MTMO-d009-169-n800
 OpenBabel09051908423D

 20 19  0  0  0  0  0  0  0  0999 V2000
   11.1605    7.1731    2.9813 C   0  0  0  0  0  0  0  0  0  0  0  0
   10.6955    5.9077    2.6247 C   0  0  0  0  0  0  0  0  0  0  0  0
   11.4112    4.7778    3.0193 C   0  0  0  0  0  0  0  0  0  0  0  0
   12.5828    4.8899    3.7691 C   0  0  0  0  0  0  0  0  0  0  0  0
   13.0376    6.1636    4.1149 C   0  0  0  0  0  0  0  0  0  0  0  0
   12.3346    7.3050    3.7253 C   0  0  0  0  0  0  0  0  0  0  0  0
   10.6040    8.0540    2.6757 H   0  0  0  0  0  0  0  0  0  0  0  0
    9.7835    5.7794    2.0511 H   0  0  0  0  0  0  0  0  0  0  0  0
    7.4511  -10.3665   -2.8559 N   0  0  0  0  0  0  0  0  0  0  0  0
    7.7103   -9.3866   -2.4153 N   0  0  0  0  0  0  0  0  0  0  0  0
   12.6980    8.2899    4.0015 H   0  0  0  0  0  0  0  0  0  0  0  0
   13.9517    6.2595    4.6935 H   0  0  0  0  0  0  0  0  0  0  0  0
   13.1310    4.0056    4.0649 H   0  0  0  0  0  0  0  0  0  0  0  0
   10.8316    3.5517    2.6840 O   0  0  0  0  0  0  0  0  0  0  0  0
   11.5848    2.5013    2.2286 C   0  0  0  0  0  0  0  0  0  0  0  0
   12.7830    2.5240    2.0921 O   0  0  0  0  0  0  0  0  0  0  0  0
   10.6813    1.3311    1.9252 C   0  0  0  0  0  0  0  0  0  0  0  0
   10.1117    1.0548    2.8173 H   0  0  0  0  0  0  0  0  0  0  0  0
    9.9595    1.6066    1.1505 H   0  0  0  0  0  0  0  0  0  0  0  0
   11.2837    0.4878    1.5895 H   0  0  0  0  0  0  0  0  0  0  0  0
  1  6  1  0  0  0  0
  2  1  2  0  0  0  0
  2  3  1  0  0  0  0
  3  4  2  0  0  0  0
  4 13  1  0  0  0  0
  4  5  1  0  0  0  0
  5 12  1  0  0  0  0
  6 11  1  0  0  0  0
  6  5  2  0  0  0  0
  7  1  1  0  0  0  0
  8  2  1  0  0  0  0
  9 10  3  0  0  0  0
 14  3  1  0  0  0  0
 15 14  1  0  0  0  0
 16 15  2  0  0  0  0
 17 15  1  0  0  0  0
 17 18  1  0  0  0  0
 19 17  1  0  0  0  0
 20 17  1  0  0  0  0
M  END
