Coordinates from ORCA-job Ph-N2-OAc-B3LYPG-6-31G_dp-MTMO-d009-169-n800
 OpenBabel09051908423D

 20 20  0  0  0  0  0  0  0  0999 V2000
   12.4355    5.9630    2.2669 C   0  0  0  0  0  0  0  0  0  0  0  0
   12.1755    5.1006    1.2005 C   0  0  0  0  0  0  0  0  0  0  0  0
   12.0716    3.7423    1.4720 C   0  0  0  0  0  0  0  0  0  0  0  0
   12.2732    3.1939    2.7342 C   0  0  0  0  0  0  0  0  0  0  0  0
   12.5541    4.0729    3.7812 C   0  0  0  0  0  0  0  0  0  0  0  0
   12.6261    5.4500    3.5524 C   0  0  0  0  0  0  0  0  0  0  0  0
   12.5030    7.0319    2.0887 H   0  0  0  0  0  0  0  0  0  0  0  0
   12.0451    5.4689    0.1889 H   0  0  0  0  0  0  0  0  0  0  0  0
   11.8694    2.8051    0.2658 N   0  0  0  0  0  0  0  0  0  0  0  0
   11.0517    1.9537    0.1437 N   0  0  0  0  0  0  0  0  0  0  0  0
   12.8421    6.1236    4.3761 H   0  0  0  0  0  0  0  0  0  0  0  0
   12.7180    3.6772    4.7789 H   0  0  0  0  0  0  0  0  0  0  0  0
   12.2172    2.1203    2.8810 H   0  0  0  0  0  0  0  0  0  0  0  0
    9.8897    1.9664    1.3188 O   0  0  0  0  0  0  0  0  0  0  0  0
    9.9543    0.8566    2.0616 C   0  0  0  0  0  0  0  0  0  0  0  0
   10.9404    0.1475    2.1520 O   0  0  0  0  0  0  0  0  0  0  0  0
    8.6486    0.6059    2.7936 C   0  0  0  0  0  0  0  0  0  0  0  0
    8.2711    1.5277    3.2435 H   0  0  0  0  0  0  0  0  0  0  0  0
    7.8962    0.2572    2.0790 H   0  0  0  0  0  0  0  0  0  0  0  0
    8.8045   -0.1550    3.5589 H   0  0  0  0  0  0  0  0  0  0  0  0
  1  6  2  0  0  0  0
  2  3  2  0  0  0  0
  2  1  1  0  0  0  0
  3  4  1  0  0  0  0
  4 13  1  0  0  0  0
  4  5  2  0  0  0  0
  5 12  1  0  0  0  0
  6  5  1  0  0  0  0
  6 11  1  0  0  0  0
  7  1  1  0  0  0  0
  8  2  1  0  0  0  0
  9  3  1  0  0  0  0
 10  9  1  0  0  0  0
 10 14  1  0  0  0  0
 14 15  1  0  0  0  0
 15 16  2  0  0  0  0
 15 17  1  0  0  0  0
 17 18  1  0  0  0  0
 17 20  1  0  0  0  0
 19 17  1  0  0  0  0
M  RAD  2   9   2  10   2
M  END
