Coordinates from ORCA-job Ph-N2-OAc-B3LYPG-6-31G_dp-MTMO-d009-169-n800
 OpenBabel09051908423D

 20 19  0  0  0  0  0  0  0  0999 V2000
   11.1597    6.7349    2.8191 C   0  0  0  0  0  0  0  0  0  0  0  0
   10.5941    5.5023    2.4942 C   0  0  0  0  0  0  0  0  0  0  0  0
   11.2575    4.3283    2.8498 C   0  0  0  0  0  0  0  0  0  0  0  0
   12.4759    4.3643    3.5293 C   0  0  0  0  0  0  0  0  0  0  0  0
   13.0313    5.6060    3.8440 C   0  0  0  0  0  0  0  0  0  0  0  0
   12.3814    6.7905    3.4926 C   0  0  0  0  0  0  0  0  0  0  0  0
   10.6442    7.6500    2.5437 H   0  0  0  0  0  0  0  0  0  0  0  0
    9.6439    5.4336    1.9754 H   0  0  0  0  0  0  0  0  0  0  0  0
    9.1194   -6.2387   -1.2471 N   0  0  0  0  0  0  0  0  0  0  0  0
    9.2466   -5.2099   -0.8637 N   0  0  0  0  0  0  0  0  0  0  0  0
   12.8228    7.7499    3.7442 H   0  0  0  0  0  0  0  0  0  0  0  0
   13.9817    5.6422    4.3680 H   0  0  0  0  0  0  0  0  0  0  0  0
   12.9824    3.4465    3.7953 H   0  0  0  0  0  0  0  0  0  0  0  0
   10.5808    3.1428    2.5532 O   0  0  0  0  0  0  0  0  0  0  0  0
   11.2358    2.0426    2.0647 C   0  0  0  0  0  0  0  0  0  0  0  0
   12.4232    1.9844    1.8610 O   0  0  0  0  0  0  0  0  0  0  0  0
   10.2406    0.9343    1.8217 C   0  0  0  0  0  0  0  0  0  0  0  0
    9.7025    0.7035    2.7457 H   0  0  0  0  0  0  0  0  0  0  0  0
    9.4985    1.2527    1.0835 H   0  0  0  0  0  0  0  0  0  0  0  0
   10.7652    0.0496    1.4630 H   0  0  0  0  0  0  0  0  0  0  0  0
  1  6  1  0  0  0  0
  2  1  2  0  0  0  0
  2  3  1  0  0  0  0
  3  4  2  0  0  0  0
  4 13  1  0  0  0  0
  4  5  1  0  0  0  0
  5 12  1  0  0  0  0
  6 11  1  0  0  0  0
  6  5  2  0  0  0  0
  7  1  1  0  0  0  0
  8  2  1  0  0  0  0
  9 10  3  0  0  0  0
 14  3  1  0  0  0  0
 15 14  1  0  0  0  0
 16 15  2  0  0  0  0
 17 15  1  0  0  0  0
 17 18  1  0  0  0  0
 19 17  1  0  0  0  0
 20 17  1  0  0  0  0
M  END
