Coordinates from ORCA-job Ph-N2-OAc-B3LYPG-6-31G_dp-MTMO-d009-169-n800
 OpenBabel09051908423D

 20 19  0  0  0  0  0  0  0  0999 V2000
   11.3610    6.4303    2.6707 C   0  0  0  0  0  0  0  0  0  0  0  0
   10.5912    5.2931    2.4274 C   0  0  0  0  0  0  0  0  0  0  0  0
   11.1019    4.0373    2.7535 C   0  0  0  0  0  0  0  0  0  0  0  0
   12.3686    3.8976    3.3220 C   0  0  0  0  0  0  0  0  0  0  0  0
   13.1289    5.0446    3.5562 C   0  0  0  0  0  0  0  0  0  0  0  0
   12.6330    6.3094    3.2336 C   0  0  0  0  0  0  0  0  0  0  0  0
   10.9650    7.4093    2.4181 H   0  0  0  0  0  0  0  0  0  0  0  0
    9.5991    5.3617    1.9942 H   0  0  0  0  0  0  0  0  0  0  0  0
   11.3235   -3.2780   -0.3484 N   0  0  0  0  0  0  0  0  0  0  0  0
   10.6753   -2.5198    0.1271 N   0  0  0  0  0  0  0  0  0  0  0  0
   13.2331    7.1945    3.4215 H   0  0  0  0  0  0  0  0  0  0  0  0
   14.1170    4.9439    3.9949 H   0  0  0  0  0  0  0  0  0  0  0  0
   12.7542    2.9166    3.5658 H   0  0  0  0  0  0  0  0  0  0  0  0
   10.2353    2.9608    2.5506 O   0  0  0  0  0  0  0  0  0  0  0  0
   10.6740    1.7816    2.0052 C   0  0  0  0  0  0  0  0  0  0  0  0
   11.8108    1.5667    1.6639 O   0  0  0  0  0  0  0  0  0  0  0  0
    9.5208    0.8135    1.9074 C   0  0  0  0  0  0  0  0  0  0  0  0
    9.1380    0.5922    2.9082 H   0  0  0  0  0  0  0  0  0  0  0  0
    8.7004    1.2594    1.3379 H   0  0  0  0  0  0  0  0  0  0  0  0
    9.8563   -0.1050    1.4277 H   0  0  0  0  0  0  0  0  0  0  0  0
  1  6  1  0  0  0  0
  2  1  2  0  0  0  0
  2  3  1  0  0  0  0
  3  4  2  0  0  0  0
  4  5  1  0  0  0  0
  4 13  1  0  0  0  0
  5 12  1  0  0  0  0
  6 11  1  0  0  0  0
  6  5  2  0  0  0  0
  7  1  1  0  0  0  0
  8  2  1  0  0  0  0
  9 10  3  0  0  0  0
 14  3  1  0  0  0  0
 15 14  1  0  0  0  0
 16 15  2  0  0  0  0
 17 15  1  0  0  0  0
 17 18  1  0  0  0  0
 19 17  1  0  0  0  0
 20 17  1  0  0  0  0
M  END
