Coordinates from ORCA-job Ph-N2-OAc-B3LYPG-6-31G_dp-MTMO-d009-169-n800
 OpenBabel09051908423D

 20 19  0  0  0  0  0  0  0  0999 V2000
   11.1293    7.0574    2.9355 C   0  0  0  0  0  0  0  0  0  0  0  0
   10.6634    5.7919    2.5804 C   0  0  0  0  0  0  0  0  0  0  0  0
   11.3791    4.6620    2.9752 C   0  0  0  0  0  0  0  0  0  0  0  0
   12.5515    4.7742    3.7236 C   0  0  0  0  0  0  0  0  0  0  0  0
   13.0072    6.0481    4.0679 C   0  0  0  0  0  0  0  0  0  0  0  0
   12.3042    7.1894    3.6781 C   0  0  0  0  0  0  0  0  0  0  0  0
   10.5728    7.9383    2.6297 H   0  0  0  0  0  0  0  0  0  0  0  0
    9.7508    5.6635    2.0079 H   0  0  0  0  0  0  0  0  0  0  0  0
    7.7442   -9.3232   -2.4598 N   0  0  0  0  0  0  0  0  0  0  0  0
    7.9993   -8.3427   -2.0180 N   0  0  0  0  0  0  0  0  0  0  0  0
   12.6683    8.1744    3.9532 H   0  0  0  0  0  0  0  0  0  0  0  0
   13.9219    6.1441    4.6455 H   0  0  0  0  0  0  0  0  0  0  0  0
   13.0997    3.8901    4.0196 H   0  0  0  0  0  0  0  0  0  0  0  0
   10.7986    3.4359    2.6415 O   0  0  0  0  0  0  0  0  0  0  0  0
   11.5510    2.3848    2.1862 C   0  0  0  0  0  0  0  0  0  0  0  0
   12.7490    2.4068    2.0485 O   0  0  0  0  0  0  0  0  0  0  0  0
   10.6467    1.2147    1.8848 C   0  0  0  0  0  0  0  0  0  0  0  0
   10.0779    0.9394    2.7778 H   0  0  0  0  0  0  0  0  0  0  0  0
    9.9241    1.4898    1.1107 H   0  0  0  0  0  0  0  0  0  0  0  0
   11.2483    0.3708    1.5493 H   0  0  0  0  0  0  0  0  0  0  0  0
  1  6  1  0  0  0  0
  2  1  2  0  0  0  0
  2  3  1  0  0  0  0
  3  4  2  0  0  0  0
  4 13  1  0  0  0  0
  4  5  1  0  0  0  0
  5 12  1  0  0  0  0
  6 11  1  0  0  0  0
  6  5  2  0  0  0  0
  7  1  1  0  0  0  0
  8  2  1  0  0  0  0
  9 10  3  0  0  0  0
 14  3  1  0  0  0  0
 15 14  1  0  0  0  0
 16 15  2  0  0  0  0
 17 15  1  0  0  0  0
 17 18  1  0  0  0  0
 19 17  1  0  0  0  0
 20 17  1  0  0  0  0
M  END
