Coordinates from ORCA-job Ph-N2-OAc-B3LYPG-6-31G_dp-MTMO-d009-169-n800
 OpenBabel09051908423D

 20 19  0  0  0  0  0  0  0  0999 V2000
   11.2554    6.5101    2.7439 C   0  0  0  0  0  0  0  0  0  0  0  0
   10.5770    5.3281    2.4480 C   0  0  0  0  0  0  0  0  0  0  0  0
   11.1632    4.1034    2.7661 C   0  0  0  0  0  0  0  0  0  0  0  0
   12.4154    4.0390    3.3790 C   0  0  0  0  0  0  0  0  0  0  0  0
   13.0838    5.2307    3.6653 C   0  0  0  0  0  0  0  0  0  0  0  0
   12.5119    6.4650    3.3511 C   0  0  0  0  0  0  0  0  0  0  0  0
   10.8005    7.4648    2.4977 H   0  0  0  0  0  0  0  0  0  0  0  0
    9.5984    5.3378    1.9802 H   0  0  0  0  0  0  0  0  0  0  0  0
   10.3178   -4.0864   -0.4796 N   0  0  0  0  0  0  0  0  0  0  0  0
   10.2037   -3.1012    0.0084 N   0  0  0  0  0  0  0  0  0  0  0  0
   13.0408    7.3851    3.5798 H   0  0  0  0  0  0  0  0  0  0  0  0
   14.0603    5.1886    4.1380 H   0  0  0  0  0  0  0  0  0  0  0  0
   12.8604    3.0821    3.6161 H   0  0  0  0  0  0  0  0  0  0  0  0
   10.3810    2.9756    2.5057 O   0  0  0  0  0  0  0  0  0  0  0  0
   10.9209    1.8327    1.9740 C   0  0  0  0  0  0  0  0  0  0  0  0
   12.0857    1.6903    1.6952 O   0  0  0  0  0  0  0  0  0  0  0  0
    9.8340    0.8008    1.7964 C   0  0  0  0  0  0  0  0  0  0  0  0
    9.3635    0.5857    2.7603 H   0  0  0  0  0  0  0  0  0  0  0  0
    9.0540    1.1878    1.1339 H   0  0  0  0  0  0  0  0  0  0  0  0
   10.2597   -0.1104    1.3780 H   0  0  0  0  0  0  0  0  0  0  0  0
  1  6  1  0  0  0  0
  2  1  2  0  0  0  0
  2  3  1  0  0  0  0
  3  4  2  0  0  0  0
  4 13  1  0  0  0  0
  4  5  1  0  0  0  0
  5 12  1  0  0  0  0
  6 11  1  0  0  0  0
  6  5  2  0  0  0  0
  7  1  1  0  0  0  0
  8  2  1  0  0  0  0
  9 10  3  0  0  0  0
 14  3  1  0  0  0  0
 15 14  1  0  0  0  0
 16 15  2  0  0  0  0
 17 15  1  0  0  0  0
 17 18  1  0  0  0  0
 19 17  1  0  0  0  0
 20 17  1  0  0  0  0
M  END
