Coordinates from ORCA-job Ph-N2-OAc-B3LYPG-6-31G_dp-MTMO-d009-169-n800
 OpenBabel09051908423D

 20 19  0  0  0  0  0  0  0  0999 V2000
   11.1879    6.7098    2.8245 C   0  0  0  0  0  0  0  0  0  0  0  0
   10.5942    5.4904    2.5000 C   0  0  0  0  0  0  0  0  0  0  0  0
   11.2405    4.3016    2.8374 C   0  0  0  0  0  0  0  0  0  0  0  0
   12.4696    4.3099    3.4985 C   0  0  0  0  0  0  0  0  0  0  0  0
   13.0531    5.5386    3.8131 C   0  0  0  0  0  0  0  0  0  0  0  0
   12.4205    6.7377    3.4797 C   0  0  0  0  0  0  0  0  0  0  0  0
   10.6858    7.6364    2.5632 H   0  0  0  0  0  0  0  0  0  0  0  0
    9.6351    5.4433    1.9952 H   0  0  0  0  0  0  0  0  0  0  0  0
    9.3534   -5.9782   -1.1119 N   0  0  0  0  0  0  0  0  0  0  0  0
    9.4369   -4.9463   -0.7248 N   0  0  0  0  0  0  0  0  0  0  0  0
   12.8837    7.6868    3.7310 H   0  0  0  0  0  0  0  0  0  0  0  0
   14.0117    5.5531    4.3229 H   0  0  0  0  0  0  0  0  0  0  0  0
   12.9625    3.3808    3.7505 H   0  0  0  0  0  0  0  0  0  0  0  0
   10.5370    3.1312    2.5431 O   0  0  0  0  0  0  0  0  0  0  0  0
   11.1638    2.0215    2.0392 C   0  0  0  0  0  0  0  0  0  0  0  0
   12.3469    1.9421    1.8178 O   0  0  0  0  0  0  0  0  0  0  0  0
   10.1445    0.9333    1.8057 C   0  0  0  0  0  0  0  0  0  0  0  0
    9.6213    0.7030    2.7383 H   0  0  0  0  0  0  0  0  0  0  0  0
    9.3933    1.2717    1.0858 H   0  0  0  0  0  0  0  0  0  0  0  0
   10.6460    0.0430    1.4284 H   0  0  0  0  0  0  0  0  0  0  0  0
  1  6  1  0  0  0  0
  2  1  2  0  0  0  0
  2  3  1  0  0  0  0
  3  4  2  0  0  0  0
  4 13  1  0  0  0  0
  4  5  1  0  0  0  0
  5 12  1  0  0  0  0
  6 11  1  0  0  0  0
  6  5  2  0  0  0  0
  7  1  1  0  0  0  0
  8  2  1  0  0  0  0
  9 10  3  0  0  0  0
 14  3  1  0  0  0  0
 15 14  1  0  0  0  0
 16 15  2  0  0  0  0
 17 15  1  0  0  0  0
 17 18  1  0  0  0  0
 19 17  1  0  0  0  0
 20 17  1  0  0  0  0
M  END
