Coordinates from ORCA-job Ph-N2-OAc-B3LYPG-6-31G_dp-MTMO-d009-169-n800
 OpenBabel09051908423D

 20 18  0  0  0  0  0  0  0  0999 V2000
   13.1880    6.0969    2.2851 C   0  0  0  0  0  0  0  0  0  0  0  0
   12.4639    5.3858    1.2984 C   0  0  0  0  0  0  0  0  0  0  0  0
   11.9869    4.2397    1.8799 C   0  0  0  0  0  0  0  0  0  0  0  0
   12.0561    3.7404    3.0296 C   0  0  0  0  0  0  0  0  0  0  0  0
   12.7655    4.4094    4.0363 C   0  0  0  0  0  0  0  0  0  0  0  0
   13.3317    5.6245    3.6026 C   0  0  0  0  0  0  0  0  0  0  0  0
   13.6465    7.0417    2.0045 H   0  0  0  0  0  0  0  0  0  0  0  0
   12.3376    5.7237    0.2781 H   0  0  0  0  0  0  0  0  0  0  0  0
   10.9725    3.1700   -0.8957 N   0  0  0  0  0  0  0  0  0  0  0  0
   10.7352    2.2519   -1.4627 N   0  0  0  0  0  0  0  0  0  0  0  0
   13.8992    6.2214    4.3122 H   0  0  0  0  0  0  0  0  0  0  0  0
   12.8813    4.0561    5.0559 H   0  0  0  0  0  0  0  0  0  0  0  0
   10.8015    2.0133    3.1853 H   0  0  0  0  0  0  0  0  0  0  0  0
    9.4469    1.5611    1.3581 O   0  0  0  0  0  0  0  0  0  0  0  0
    9.4465    0.9433    2.4026 C   0  0  0  0  0  0  0  0  0  0  0  0
   10.2561    1.2371    3.4401 O   0  0  0  0  0  0  0  0  0  0  0  0
    8.5547   -0.2352    2.7158 C   0  0  0  0  0  0  0  0  0  0  0  0
    7.9394   -0.4683    1.8475 H   0  0  0  0  0  0  0  0  0  0  0  0
    9.1618   -1.1025    2.9908 H   0  0  0  0  0  0  0  0  0  0  0  0
    7.9161   -0.0006    3.5730 H   0  0  0  0  0  0  0  0  0  0  0  0
  1  6  2  0  0  0  0
  2  3  2  0  0  0  0
  2  1  1  0  0  0  0
  3  4  1  0  0  0  0
  4  5  2  0  0  0  0
  5 12  1  0  0  0  0
  6  5  1  0  0  0  0
  6 11  1  0  0  0  0
  7  1  1  0  0  0  0
  8  2  1  0  0  0  0
 10  9  3  0  0  0  0
 13 16  1  0  0  0  0
 14 15  2  0  0  0  0
 15 17  1  0  0  0  0
 15 16  1  0  0  0  0
 17 19  1  0  0  0  0
 17 20  1  0  0  0  0
 18 17  1  0  0  0  0
M  RAD  2   3   2   4   2
M  END
