Coordinates from ORCA-job Ph-N2-OAc-B3LYPG-6-31G_dp-MTMO-d009-169-n800
 OpenBabel09051908423D

 20 19  0  0  0  0  0  0  0  0999 V2000
   11.0949    6.8228    2.8385 C   0  0  0  0  0  0  0  0  0  0  0  0
   10.6035    5.5633    2.4967 C   0  0  0  0  0  0  0  0  0  0  0  0
   11.3069    4.4239    2.8862 C   0  0  0  0  0  0  0  0  0  0  0  0
   12.4922    4.5208    3.6163 C   0  0  0  0  0  0  0  0  0  0  0  0
   12.9734    5.7888    3.9475 C   0  0  0  0  0  0  0  0  0  0  0  0
   12.2829    6.9394    3.5627 C   0  0  0  0  0  0  0  0  0  0  0  0
   10.5480    7.7111    2.5369 H   0  0  0  0  0  0  0  0  0  0  0  0
    9.6804    5.4469    1.9387 H   0  0  0  0  0  0  0  0  0  0  0  0
    8.4710   -7.1592   -1.6388 N   0  0  0  0  0  0  0  0  0  0  0  0
    8.6823   -6.1581   -1.2207 N   0  0  0  0  0  0  0  0  0  0  0  0
   12.6667    7.9197    3.8275 H   0  0  0  0  0  0  0  0  0  0  0  0
   13.8981    5.8727    4.5107 H   0  0  0  0  0  0  0  0  0  0  0  0
   13.0305    3.6293    3.9083 H   0  0  0  0  0  0  0  0  0  0  0  0
   10.7017    3.2058    2.5680 O   0  0  0  0  0  0  0  0  0  0  0  0
   11.4295    2.1404    2.1057 C   0  0  0  0  0  0  0  0  0  0  0  0
   12.6252    2.1429    1.9473 O   0  0  0  0  0  0  0  0  0  0  0  0
   10.5018    0.9833    1.8266 C   0  0  0  0  0  0  0  0  0  0  0  0
    9.9423    0.7238    2.7301 H   0  0  0  0  0  0  0  0  0  0  0  0
    9.7722    1.2649    1.0615 H   0  0  0  0  0  0  0  0  0  0  0  0
   11.0840    0.1271    1.4879 H   0  0  0  0  0  0  0  0  0  0  0  0
  1  6  1  0  0  0  0
  2  1  2  0  0  0  0
  2  3  1  0  0  0  0
  3  4  2  0  0  0  0
  4 13  1  0  0  0  0
  4  5  1  0  0  0  0
  5 12  1  0  0  0  0
  6 11  1  0  0  0  0
  6  5  2  0  0  0  0
  7  1  1  0  0  0  0
  8  2  1  0  0  0  0
  9 10  3  0  0  0  0
 14  3  1  0  0  0  0
 15 14  1  0  0  0  0
 16 15  2  0  0  0  0
 17 15  1  0  0  0  0
 17 18  1  0  0  0  0
 19 17  1  0  0  0  0
 20 17  1  0  0  0  0
M  END
