Coordinates from ORCA-job Ph-N2-OAc-B3LYPG-6-31G_dp-MTMO-d009-169-n800
 OpenBabel09051908423D

 20 19  0  0  0  0  0  0  0  0999 V2000
   11.0897    6.8536    2.8520 C   0  0  0  0  0  0  0  0  0  0  0  0
   10.6096    5.5910    2.5055 C   0  0  0  0  0  0  0  0  0  0  0  0
   11.3188    4.4563    2.8978 C   0  0  0  0  0  0  0  0  0  0  0  0
   12.4990    4.5607    3.6352 C   0  0  0  0  0  0  0  0  0  0  0  0
   12.9689    5.8317    3.9710 C   0  0  0  0  0  0  0  0  0  0  0  0
   12.2724    6.9778    3.5836 C   0  0  0  0  0  0  0  0  0  0  0  0
   10.5382    7.7383    2.5483 H   0  0  0  0  0  0  0  0  0  0  0  0
    9.6907    5.4688    1.9417 H   0  0  0  0  0  0  0  0  0  0  0  0
    8.3323   -7.4593   -1.7538 N   0  0  0  0  0  0  0  0  0  0  0  0
    8.5566   -6.4661   -1.3238 N   0  0  0  0  0  0  0  0  0  0  0  0
   12.6475    7.9605    3.8520 H   0  0  0  0  0  0  0  0  0  0  0  0
   13.8896    5.9216    4.5399 H   0  0  0  0  0  0  0  0  0  0  0  0
   13.0420    3.6728    3.9292 H   0  0  0  0  0  0  0  0  0  0  0  0
   10.7245    3.2343    2.5737 O   0  0  0  0  0  0  0  0  0  0  0  0
   11.4633    2.1747    2.1157 C   0  0  0  0  0  0  0  0  0  0  0  0
   12.6602    2.1855    1.9669 O   0  0  0  0  0  0  0  0  0  0  0  0
   10.5459    1.0115    1.8274 C   0  0  0  0  0  0  0  0  0  0  0  0
    9.9819    0.7458    2.7263 H   0  0  0  0  0  0  0  0  0  0  0  0
    9.8196    1.2896    1.0578 H   0  0  0  0  0  0  0  0  0  0  0  0
   11.1368    0.1605    1.4909 H   0  0  0  0  0  0  0  0  0  0  0  0
  1  6  1  0  0  0  0
  2  1  2  0  0  0  0
  2  3  1  0  0  0  0
  3  4  2  0  0  0  0
  4 13  1  0  0  0  0
  4  5  1  0  0  0  0
  5 12  1  0  0  0  0
  6 11  1  0  0  0  0
  6  5  2  0  0  0  0
  7  1  1  0  0  0  0
  8  2  1  0  0  0  0
  9 10  3  0  0  0  0
 14  3  1  0  0  0  0
 15 14  1  0  0  0  0
 16 15  2  0  0  0  0
 17 15  1  0  0  0  0
 17 18  1  0  0  0  0
 19 17  1  0  0  0  0
 20 17  1  0  0  0  0
M  END
