Coordinates from ORCA-job Ph-N2-OAc-B3LYPG-6-31G_dp-MTMO-d009-169-n800
 OpenBabel09051908423D

 20 19  0  0  0  0  0  0  0  0999 V2000
   11.2012    6.6592    2.8125 C   0  0  0  0  0  0  0  0  0  0  0  0
   10.5879    5.4489    2.4902 C   0  0  0  0  0  0  0  0  0  0  0  0
   11.2216    4.2505    2.8172 C   0  0  0  0  0  0  0  0  0  0  0  0
   12.4574    4.2402    3.4657 C   0  0  0  0  0  0  0  0  0  0  0  0
   13.0605    5.4598    3.7782 C   0  0  0  0  0  0  0  0  0  0  0  0
   12.4407    6.6684    3.4552 C   0  0  0  0  0  0  0  0  0  0  0  0
   10.7089    7.5933    2.5593 H   0  0  0  0  0  0  0  0  0  0  0  0
    9.6233    5.4164    1.9950 H   0  0  0  0  0  0  0  0  0  0  0  0
    9.5714   -5.5014   -0.9174 N   0  0  0  0  0  0  0  0  0  0  0  0
    9.6368   -4.4713   -0.5220 N   0  0  0  0  0  0  0  0  0  0  0  0
   12.9191    7.6104    3.7047 H   0  0  0  0  0  0  0  0  0  0  0  0
   14.0243    5.4599    4.2783 H   0  0  0  0  0  0  0  0  0  0  0  0
   12.9403    3.3037    3.7097 H   0  0  0  0  0  0  0  0  0  0  0  0
   10.4997    3.0905    2.5265 O   0  0  0  0  0  0  0  0  0  0  0  0
   11.1067    1.9745    2.0122 C   0  0  0  0  0  0  0  0  0  0  0  0
   12.2861    1.8812    1.7768 O   0  0  0  0  0  0  0  0  0  0  0  0
   10.0715    0.8994    1.7880 C   0  0  0  0  0  0  0  0  0  0  0  0
    9.5601    0.6699    2.7273 H   0  0  0  0  0  0  0  0  0  0  0  0
    9.3132    1.2505    1.0818 H   0  0  0  0  0  0  0  0  0  0  0  0
   10.5568    0.0055    1.3984 H   0  0  0  0  0  0  0  0  0  0  0  0
  1  6  1  0  0  0  0
  2  1  2  0  0  0  0
  2  3  1  0  0  0  0
  3  4  2  0  0  0  0
  4 13  1  0  0  0  0
  4  5  1  0  0  0  0
  5 12  1  0  0  0  0
  6 11  1  0  0  0  0
  6  5  2  0  0  0  0
  7  1  1  0  0  0  0
  8  2  1  0  0  0  0
  9 10  3  0  0  0  0
 14  3  1  0  0  0  0
 15 14  1  0  0  0  0
 16 15  2  0  0  0  0
 17 15  1  0  0  0  0
 17 18  1  0  0  0  0
 19 17  1  0  0  0  0
 20 17  1  0  0  0  0
M  END
