Coordinates from ORCA-job Ph-N2-OAc-B3LYPG-6-31G_dp-MTMO-d009-169-n800
 OpenBabel09051908423D

 20 18  0  0  0  0  0  0  0  0999 V2000
   13.1911    6.1175    2.2987 C   0  0  0  0  0  0  0  0  0  0  0  0
   12.5069    5.4405    1.2607 C   0  0  0  0  0  0  0  0  0  0  0  0
   12.0181    4.2712    1.7813 C   0  0  0  0  0  0  0  0  0  0  0  0
   12.0460    3.7245    2.9117 C   0  0  0  0  0  0  0  0  0  0  0  0
   12.7162    4.3616    3.9662 C   0  0  0  0  0  0  0  0  0  0  0  0
   13.2902    5.5953    3.6012 C   0  0  0  0  0  0  0  0  0  0  0  0
   13.6533    7.0745    2.0706 H   0  0  0  0  0  0  0  0  0  0  0  0
   12.4145    5.8161    0.2499 H   0  0  0  0  0  0  0  0  0  0  0  0
   11.0331    3.1925   -0.8191 N   0  0  0  0  0  0  0  0  0  0  0  0
   10.8190    2.2402   -1.3368 N   0  0  0  0  0  0  0  0  0  0  0  0
   13.8277    6.1670    4.3534 H   0  0  0  0  0  0  0  0  0  0  0  0
   12.7973    3.9702    4.9753 H   0  0  0  0  0  0  0  0  0  0  0  0
   10.8226    2.0133    3.1018 H   0  0  0  0  0  0  0  0  0  0  0  0
    9.3503    1.5684    1.3646 O   0  0  0  0  0  0  0  0  0  0  0  0
    9.4199    0.9446    2.4031 C   0  0  0  0  0  0  0  0  0  0  0  0
   10.2959    1.2334    3.3866 O   0  0  0  0  0  0  0  0  0  0  0  0
    8.5528   -0.2378    2.7669 C   0  0  0  0  0  0  0  0  0  0  0  0
    7.8756   -0.4610    1.9432 H   0  0  0  0  0  0  0  0  0  0  0  0
    9.1783   -1.1080    2.9863 H   0  0  0  0  0  0  0  0  0  0  0  0
    7.9787   -0.0144    3.6716 H   0  0  0  0  0  0  0  0  0  0  0  0
  1  6  2  0  0  0  0
  2  3  2  0  0  0  0
  2  1  1  0  0  0  0
  3  4  1  0  0  0  0
  4  5  2  0  0  0  0
  5 12  1  0  0  0  0
  6  5  1  0  0  0  0
  6 11  1  0  0  0  0
  7  1  1  0  0  0  0
  8  2  1  0  0  0  0
 10  9  3  0  0  0  0
 13 16  1  0  0  0  0
 14 15  2  0  0  0  0
 15 17  1  0  0  0  0
 15 16  1  0  0  0  0
 17 19  1  0  0  0  0
 17 20  1  0  0  0  0
 18 17  1  0  0  0  0
M  RAD  2   3   2   4   2
M  END
