Coordinates from ORCA-job Ph-N2-OAc-B3LYPG-6-31G_dp-MTMO-d009-169-n800
 OpenBabel09051908423D

 20 19  0  0  0  0  0  0  0  0999 V2000
   11.1249    7.0412    2.9290 C   0  0  0  0  0  0  0  0  0  0  0  0
   10.6589    5.7756    2.5742 C   0  0  0  0  0  0  0  0  0  0  0  0
   11.3746    4.6457    2.9690 C   0  0  0  0  0  0  0  0  0  0  0  0
   12.5471    4.7580    3.7172 C   0  0  0  0  0  0  0  0  0  0  0  0
   13.0030    6.0319    4.0612 C   0  0  0  0  0  0  0  0  0  0  0  0
   12.3000    7.1732    3.6713 C   0  0  0  0  0  0  0  0  0  0  0  0
   10.5685    7.9220    2.6232 H   0  0  0  0  0  0  0  0  0  0  0  0
    9.7462    5.6472    2.0018 H   0  0  0  0  0  0  0  0  0  0  0  0
    7.7857   -9.1765   -2.4042 N   0  0  0  0  0  0  0  0  0  0  0  0
    8.0400   -8.1958   -1.9624 N   0  0  0  0  0  0  0  0  0  0  0  0
   12.6643    8.1582    3.9462 H   0  0  0  0  0  0  0  0  0  0  0  0
   13.9178    6.1278    4.6386 H   0  0  0  0  0  0  0  0  0  0  0  0
   13.0953    3.8738    4.0132 H   0  0  0  0  0  0  0  0  0  0  0  0
   10.7939    3.4197    2.6356 O   0  0  0  0  0  0  0  0  0  0  0  0
   11.5461    2.3684    2.1803 C   0  0  0  0  0  0  0  0  0  0  0  0
   12.7441    2.3903    2.0424 O   0  0  0  0  0  0  0  0  0  0  0  0
   10.6417    1.1983    1.8793 C   0  0  0  0  0  0  0  0  0  0  0  0
   10.0730    0.9232    2.7724 H   0  0  0  0  0  0  0  0  0  0  0  0
    9.9190    1.4733    1.1052 H   0  0  0  0  0  0  0  0  0  0  0  0
   11.2431    0.3543    1.5438 H   0  0  0  0  0  0  0  0  0  0  0  0
  1  6  1  0  0  0  0
  2  1  2  0  0  0  0
  2  3  1  0  0  0  0
  3  4  2  0  0  0  0
  4 13  1  0  0  0  0
  4  5  1  0  0  0  0
  5 12  1  0  0  0  0
  6 11  1  0  0  0  0
  6  5  2  0  0  0  0
  7  1  1  0  0  0  0
  8  2  1  0  0  0  0
  9 10  3  0  0  0  0
 14  3  1  0  0  0  0
 15 14  1  0  0  0  0
 16 15  2  0  0  0  0
 17 15  1  0  0  0  0
 17 18  1  0  0  0  0
 19 17  1  0  0  0  0
 20 17  1  0  0  0  0
M  END
