Coordinates from ORCA-job Ph-N2-OAc-B3LYPG-6-31G_dp-MTMO-d009-169-n800
 OpenBabel09051908423D

 20 19  0  0  0  0  0  0  0  0999 V2000
   11.4609    6.3276    2.5696 C   0  0  0  0  0  0  0  0  0  0  0  0
   10.6104    5.2373    2.3877 C   0  0  0  0  0  0  0  0  0  0  0  0
   11.0472    3.9616    2.7418 C   0  0  0  0  0  0  0  0  0  0  0  0
   12.3187    3.7558    3.2780 C   0  0  0  0  0  0  0  0  0  0  0  0
   13.1600    4.8561    3.4510 C   0  0  0  0  0  0  0  0  0  0  0  0
   12.7389    6.1401    3.0996 C   0  0  0  0  0  0  0  0  0  0  0  0
   11.1227    7.3223    2.2947 H   0  0  0  0  0  0  0  0  0  0  0  0
    9.6123    5.3582    1.9804 H   0  0  0  0  0  0  0  0  0  0  0  0
   12.1325   -2.3389   -0.2711 N   0  0  0  0  0  0  0  0  0  0  0  0
   11.2370   -1.9052    0.2096 N   0  0  0  0  0  0  0  0  0  0  0  0
   13.4015    6.9887    3.2399 H   0  0  0  0  0  0  0  0  0  0  0  0
   14.1522    4.7036    3.8650 H   0  0  0  0  0  0  0  0  0  0  0  0
   12.6457    2.7594    3.5443 H   0  0  0  0  0  0  0  0  0  0  0  0
   10.1070    2.9379    2.6014 O   0  0  0  0  0  0  0  0  0  0  0  0
   10.4490    1.7206    2.0710 C   0  0  0  0  0  0  0  0  0  0  0  0
   11.5555    1.4262    1.6908 O   0  0  0  0  0  0  0  0  0  0  0  0
    9.2355    0.8243    2.0448 C   0  0  0  0  0  0  0  0  0  0  0  0
    8.8851    0.6466    3.0659 H   0  0  0  0  0  0  0  0  0  0  0  0
    8.4194    1.3086    1.5013 H   0  0  0  0  0  0  0  0  0  0  0  0
    9.4960   -0.1213    1.5717 H   0  0  0  0  0  0  0  0  0  0  0  0
  1  6  1  0  0  0  0
  2  1  2  0  0  0  0
  2  3  1  0  0  0  0
  3  4  2  0  0  0  0
  4  5  1  0  0  0  0
  4 13  1  0  0  0  0
  5 12  1  0  0  0  0
  6 11  1  0  0  0  0
  6  5  2  0  0  0  0
  7  1  1  0  0  0  0
  8  2  1  0  0  0  0
  9 10  3  0  0  0  0
 14  3  1  0  0  0  0
 15 14  1  0  0  0  0
 16 15  2  0  0  0  0
 17 15  1  0  0  0  0
 17 18  1  0  0  0  0
 19 17  1  0  0  0  0
 20 17  1  0  0  0  0
M  END
