Coordinates from ORCA-job Ph-N2-OAc-B3LYPG-6-31G_dp-MTMO-d009-169-n800
 OpenBabel09051908423D

 20 19  0  0  0  0  0  0  0  0999 V2000
   11.2429    6.5279    2.7590 C   0  0  0  0  0  0  0  0  0  0  0  0
   10.5763    5.3412    2.4555 C   0  0  0  0  0  0  0  0  0  0  0  0
   11.1725    4.1202    2.7694 C   0  0  0  0  0  0  0  0  0  0  0  0
   12.4234    4.0642    3.3858 C   0  0  0  0  0  0  0  0  0  0  0  0
   13.0799    5.2607    3.6798 C   0  0  0  0  0  0  0  0  0  0  0  0
   12.4980    6.4913    3.3698 C   0  0  0  0  0  0  0  0  0  0  0  0
   10.7800    7.4796    2.5160 H   0  0  0  0  0  0  0  0  0  0  0  0
    9.5990    5.3443    1.9849 H   0  0  0  0  0  0  0  0  0  0  0  0
   10.1906   -4.2584   -0.5080 N   0  0  0  0  0  0  0  0  0  0  0  0
   10.1357   -3.2561   -0.0454 N   0  0  0  0  0  0  0  0  0  0  0  0
   13.0179    7.4150    3.6045 H   0  0  0  0  0  0  0  0  0  0  0  0
   14.0554    5.2251    4.1552 H   0  0  0  0  0  0  0  0  0  0  0  0
   12.8767    3.1105    3.6196 H   0  0  0  0  0  0  0  0  0  0  0  0
   10.4003    2.9875    2.5004 O   0  0  0  0  0  0  0  0  0  0  0  0
   10.9514    1.8478    1.9741 C   0  0  0  0  0  0  0  0  0  0  0  0
   12.1197    1.7107    1.7071 O   0  0  0  0  0  0  0  0  0  0  0  0
    9.8716    0.8104    1.7843 C   0  0  0  0  0  0  0  0  0  0  0  0
    9.3878    0.5960    2.7417 H   0  0  0  0  0  0  0  0  0  0  0  0
    9.0999    1.1915    1.1088 H   0  0  0  0  0  0  0  0  0  0  0  0
   10.3082   -0.0997    1.3749 H   0  0  0  0  0  0  0  0  0  0  0  0
  1  6  1  0  0  0  0
  2  1  2  0  0  0  0
  2  3  1  0  0  0  0
  3  4  2  0  0  0  0
  4 13  1  0  0  0  0
  4  5  1  0  0  0  0
  5 12  1  0  0  0  0
  6 11  1  0  0  0  0
  6  5  2  0  0  0  0
  7  1  1  0  0  0  0
  8  2  1  0  0  0  0
  9 10  3  0  0  0  0
 14  3  1  0  0  0  0
 15 14  1  0  0  0  0
 16 15  2  0  0  0  0
 17 15  1  0  0  0  0
 17 18  1  0  0  0  0
 19 17  1  0  0  0  0
 20 17  1  0  0  0  0
M  END
