Coordinates from ORCA-job Ph-N2-OAc-B3LYPG-6-31G_dp-MTMO-d009-169-n800
 OpenBabel09051908423D

 20 19  0  0  0  0  0  0  0  0999 V2000
   11.9387    5.7565    2.2434 C   0  0  0  0  0  0  0  0  0  0  0  0
   10.8523    4.8921    2.1074 C   0  0  0  0  0  0  0  0  0  0  0  0
   10.9177    3.6158    2.6652 C   0  0  0  0  0  0  0  0  0  0  0  0
   12.0490    3.1881    3.3614 C   0  0  0  0  0  0  0  0  0  0  0  0
   13.1302    4.0631    3.4853 C   0  0  0  0  0  0  0  0  0  0  0  0
   13.0819    5.3436    2.9308 C   0  0  0  0  0  0  0  0  0  0  0  0
   11.8892    6.7511    1.8109 H   0  0  0  0  0  0  0  0  0  0  0  0
    9.9520    5.1914    1.5810 H   0  0  0  0  0  0  0  0  0  0  0  0
   13.1035    1.2636   -0.1710 N   0  0  0  0  0  0  0  0  0  0  0  0
   13.8568    1.1934    0.6344 N   0  0  0  0  0  0  0  0  0  0  0  0
   13.9289    6.0150    3.0356 H   0  0  0  0  0  0  0  0  0  0  0  0
   14.0161    3.7359    4.0215 H   0  0  0  0  0  0  0  0  0  0  0  0
   12.0884    2.1939    3.7855 H   0  0  0  0  0  0  0  0  0  0  0  0
    9.7570    2.8465    2.5487 O   0  0  0  0  0  0  0  0  0  0  0  0
    9.8094    1.5131    2.2404 C   0  0  0  0  0  0  0  0  0  0  0  0
   10.8266    0.8905    2.0565 O   0  0  0  0  0  0  0  0  0  0  0  0
    8.4081    0.9589    2.1638 C   0  0  0  0  0  0  0  0  0  0  0  0
    7.8836    1.1291    3.1089 H   0  0  0  0  0  0  0  0  0  0  0  0
    7.8443    1.4756    1.3814 H   0  0  0  0  0  0  0  0  0  0  0  0
    8.4536   -0.1076    1.9465 H   0  0  0  0  0  0  0  0  0  0  0  0
  1  6  1  0  0  0  0
  2  1  2  0  0  0  0
  2  3  1  0  0  0  0
  3  4  2  0  0  0  0
  4  5  1  0  0  0  0
  4 13  1  0  0  0  0
  5 12  1  0  0  0  0
  6 11  1  0  0  0  0
  6  5  2  0  0  0  0
  7  1  1  0  0  0  0
  8  2  1  0  0  0  0
  9 10  3  0  0  0  0
 14  3  1  0  0  0  0
 15 14  1  0  0  0  0
 16 15  2  0  0  0  0
 17 15  1  0  0  0  0
 17 18  1  0  0  0  0
 19 17  1  0  0  0  0
 20 17  1  0  0  0  0
M  END
