Coordinates from ORCA-job Ph-N2-OAc-B3LYPG-6-31G_dp-MTMO-d009-169-n800
 OpenBabel09051908423D

 20 19  0  0  0  0  0  0  0  0999 V2000
   11.1107    6.7878    2.8240 C   0  0  0  0  0  0  0  0  0  0  0  0
   10.5979    5.5346    2.4905 C   0  0  0  0  0  0  0  0  0  0  0  0
   11.2904    4.3862    2.8731 C   0  0  0  0  0  0  0  0  0  0  0  0
   12.4860    4.4681    3.5881 C   0  0  0  0  0  0  0  0  0  0  0  0
   12.9886    5.7298    3.9111 C   0  0  0  0  0  0  0  0  0  0  0  0
   12.3091    6.8892    3.5331 C   0  0  0  0  0  0  0  0  0  0  0  0
   10.5723    7.6830    2.5278 H   0  0  0  0  0  0  0  0  0  0  0  0
    9.6663    5.4301    1.9442 H   0  0  0  0  0  0  0  0  0  0  0  0
    8.6756   -6.8019   -1.5014 N   0  0  0  0  0  0  0  0  0  0  0  0
    8.8683   -5.7897   -1.1016 N   0  0  0  0  0  0  0  0  0  0  0  0
   12.7096    7.8646    3.7915 H   0  0  0  0  0  0  0  0  0  0  0  0
   13.9213    5.8019    4.4627 H   0  0  0  0  0  0  0  0  0  0  0  0
   13.0157    3.5697    3.8749 H   0  0  0  0  0  0  0  0  0  0  0  0
   10.6645    3.1762    2.5643 O   0  0  0  0  0  0  0  0  0  0  0  0
   11.3715    2.0993    2.0968 C   0  0  0  0  0  0  0  0  0  0  0  0
   12.5653    2.0839    1.9250 O   0  0  0  0  0  0  0  0  0  0  0  0
   10.4239    0.9551    1.8310 C   0  0  0  0  0  0  0  0  0  0  0  0
    9.8692    0.7075    2.7407 H   0  0  0  0  0  0  0  0  0  0  0  0
    9.6914    1.2449    1.0717 H   0  0  0  0  0  0  0  0  0  0  0  0
   10.9898    0.0891    1.4899 H   0  0  0  0  0  0  0  0  0  0  0  0
  1  6  1  0  0  0  0
  2  1  2  0  0  0  0
  2  3  1  0  0  0  0
  3  4  2  0  0  0  0
  4 13  1  0  0  0  0
  4  5  1  0  0  0  0
  5 12  1  0  0  0  0
  6 11  1  0  0  0  0
  6  5  2  0  0  0  0
  7  1  1  0  0  0  0
  8  2  1  0  0  0  0
  9 10  3  0  0  0  0
 14  3  1  0  0  0  0
 15 14  1  0  0  0  0
 16 15  2  0  0  0  0
 17 15  1  0  0  0  0
 17 18  1  0  0  0  0
 19 17  1  0  0  0  0
 20 17  1  0  0  0  0
M  END
