Coordinates from ORCA-job Ph-N2-OAc-B3LYPG-6-31G_dp-MTMO-d009-169-n800
 OpenBabel09051908423D

 20 19  0  0  0  0  0  0  0  0999 V2000
   11.9454    5.7522    2.2386 C   0  0  0  0  0  0  0  0  0  0  0  0
   10.8613    4.8857    2.0981 C   0  0  0  0  0  0  0  0  0  0  0  0
   10.9235    3.6122    2.6629 C   0  0  0  0  0  0  0  0  0  0  0  0
   12.0497    3.1895    3.3705 C   0  0  0  0  0  0  0  0  0  0  0  0
   13.1285    4.0669    3.4990 C   0  0  0  0  0  0  0  0  0  0  0  0
   13.0834    5.3444    2.9376 C   0  0  0  0  0  0  0  0  0  0  0  0
   11.8981    6.7446    1.8006 H   0  0  0  0  0  0  0  0  0  0  0  0
    9.9651    5.1812    1.5628 H   0  0  0  0  0  0  0  0  0  0  0  0
   13.0293    1.3442   -0.1529 N   0  0  0  0  0  0  0  0  0  0  0  0
   13.8538    1.1652    0.5608 N   0  0  0  0  0  0  0  0  0  0  0  0
   13.9286    6.0175    3.0461 H   0  0  0  0  0  0  0  0  0  0  0  0
   14.0104    3.7436    4.0442 H   0  0  0  0  0  0  0  0  0  0  0  0
   12.0871    2.1975    3.7998 H   0  0  0  0  0  0  0  0  0  0  0  0
    9.7639    2.8427    2.5386 O   0  0  0  0  0  0  0  0  0  0  0  0
    9.8159    1.5034    2.2574 C   0  0  0  0  0  0  0  0  0  0  0  0
   10.8332    0.8718    2.1075 O   0  0  0  0  0  0  0  0  0  0  0  0
    8.4134    0.9554    2.1600 C   0  0  0  0  0  0  0  0  0  0  0  0
    7.8625    1.1615    3.0826 H   0  0  0  0  0  0  0  0  0  0  0  0
    7.8768    1.4481    1.3436 H   0  0  0  0  0  0  0  0  0  0  0  0
    8.4576   -0.1182    1.9800 H   0  0  0  0  0  0  0  0  0  0  0  0
  1  6  1  0  0  0  0
  2  1  2  0  0  0  0
  2  3  1  0  0  0  0
  3  4  2  0  0  0  0
  4  5  1  0  0  0  0
  4 13  1  0  0  0  0
  5 12  1  0  0  0  0
  6 11  1  0  0  0  0
  6  5  2  0  0  0  0
  7  1  1  0  0  0  0
  8  2  1  0  0  0  0
  9 10  3  0  0  0  0
 14  3  1  0  0  0  0
 15 14  1  0  0  0  0
 16 15  2  0  0  0  0
 17 15  1  0  0  0  0
 17 18  1  0  0  0  0
 19 17  1  0  0  0  0
 20 17  1  0  0  0  0
M  END
