Coordinates from ORCA-job Ph-N2-OAc-B3LYPG-6-31G_dp-MTMO-d009-169-n800
 OpenBabel09051908423D

 20 19  0  0  0  0  0  0  0  0999 V2000
   11.1023    6.9512    2.8927 C   0  0  0  0  0  0  0  0  0  0  0  0
   10.6343    5.6858    2.5399 C   0  0  0  0  0  0  0  0  0  0  0  0
   11.3492    4.5555    2.9348 C   0  0  0  0  0  0  0  0  0  0  0  0
   12.5232    4.6672    3.6809 C   0  0  0  0  0  0  0  0  0  0  0  0
   12.9811    5.9409    4.0229 C   0  0  0  0  0  0  0  0  0  0  0  0
   12.2788    7.0826    3.6330 C   0  0  0  0  0  0  0  0  0  0  0  0
   10.5464    7.8323    2.5869 H   0  0  0  0  0  0  0  0  0  0  0  0
    9.7204    5.5579    1.9692 H   0  0  0  0  0  0  0  0  0  0  0  0
    8.0212   -8.3624   -2.0958 N   0  0  0  0  0  0  0  0  0  0  0  0
    8.2692   -7.3796   -1.6551 N   0  0  0  0  0  0  0  0  0  0  0  0
   12.6446    8.0675    3.9063 H   0  0  0  0  0  0  0  0  0  0  0  0
   13.8969    6.0364    4.5986 H   0  0  0  0  0  0  0  0  0  0  0  0
   13.0708    3.7827    3.9769 H   0  0  0  0  0  0  0  0  0  0  0  0
   10.7666    3.3298    2.6036 O   0  0  0  0  0  0  0  0  0  0  0  0
   11.5168    2.2771    2.1483 C   0  0  0  0  0  0  0  0  0  0  0  0
   12.7146    2.2974    2.0083 O   0  0  0  0  0  0  0  0  0  0  0  0
   10.6105    1.1077    1.8501 C   0  0  0  0  0  0  0  0  0  0  0  0
   10.0429    0.8344    2.7444 H   0  0  0  0  0  0  0  0  0  0  0  0
    9.8870    1.3827    1.0768 H   0  0  0  0  0  0  0  0  0  0  0  0
   11.2104    0.2626    1.5147 H   0  0  0  0  0  0  0  0  0  0  0  0
  1  6  1  0  0  0  0
  2  1  2  0  0  0  0
  2  3  1  0  0  0  0
  3  4  2  0  0  0  0
  4 13  1  0  0  0  0
  4  5  1  0  0  0  0
  5 12  1  0  0  0  0
  6 11  1  0  0  0  0
  6  5  2  0  0  0  0
  7  1  1  0  0  0  0
  8  2  1  0  0  0  0
  9 10  3  0  0  0  0
 14  3  1  0  0  0  0
 15 14  1  0  0  0  0
 16 15  2  0  0  0  0
 17 15  1  0  0  0  0
 17 18  1  0  0  0  0
 19 17  1  0  0  0  0
 20 17  1  0  0  0  0
M  END
