Coordinates from ORCA-job Ph-N2-OAc-B3LYPG-6-31G_dp-MTMO-d009-169-n800
 OpenBabel09051908423D

 20 19  0  0  0  0  0  0  0  0999 V2000
   11.5428    6.2148    2.4268 C   0  0  0  0  0  0  0  0  0  0  0  0
   10.6452    5.1553    2.2945 C   0  0  0  0  0  0  0  0  0  0  0  0
   11.0174    3.8850    2.7311 C   0  0  0  0  0  0  0  0  0  0  0  0
   12.2694    3.6541    3.3016 C   0  0  0  0  0  0  0  0  0  0  0  0
   13.1584    4.7230    3.4242 C   0  0  0  0  0  0  0  0  0  0  0  0
   12.8024    6.0014    2.9898 C   0  0  0  0  0  0  0  0  0  0  0  0
   11.2556    7.2055    2.0876 H   0  0  0  0  0  0  0  0  0  0  0  0
    9.6601    5.2970    1.8631 H   0  0  0  0  0  0  0  0  0  0  0  0
   12.5280   -1.2785   -0.1999 N   0  0  0  0  0  0  0  0  0  0  0  0
   11.4952   -1.3937    0.1757 N   0  0  0  0  0  0  0  0  0  0  0  0
   13.5016    6.8260    3.0913 H   0  0  0  0  0  0  0  0  0  0  0  0
   14.1362    4.5508    3.8641 H   0  0  0  0  0  0  0  0  0  0  0  0
   12.5449    2.6614    3.6329 H   0  0  0  0  0  0  0  0  0  0  0  0
   10.0348    2.8957    2.6368 O   0  0  0  0  0  0  0  0  0  0  0  0
   10.3317    1.6494    2.1512 C   0  0  0  0  0  0  0  0  0  0  0  0
   11.4271    1.3059    1.7789 O   0  0  0  0  0  0  0  0  0  0  0  0
    9.0903    0.7920    2.1632 C   0  0  0  0  0  0  0  0  0  0  0  0
    8.7577    0.6398    3.1945 H   0  0  0  0  0  0  0  0  0  0  0  0
    8.2778    1.2934    1.6303 H   0  0  0  0  0  0  0  0  0  0  0  0
    9.3109   -0.1686    1.7000 H   0  0  0  0  0  0  0  0  0  0  0  0
  1  6  1  0  0  0  0
  2  1  2  0  0  0  0
  2  3  1  0  0  0  0
  3  4  2  0  0  0  0
  4  5  1  0  0  0  0
  4 13  1  0  0  0  0
  5 12  1  0  0  0  0
  6 11  1  0  0  0  0
  6  5  2  0  0  0  0
  7  1  1  0  0  0  0
  8  2  1  0  0  0  0
  9 10  3  0  0  0  0
 14  3  1  0  0  0  0
 15 17  1  0  0  0  0
 15 14  1  0  0  0  0
 16 15  2  0  0  0  0
 17 18  1  0  0  0  0
 19 17  1  0  0  0  0
 20 17  1  0  0  0  0
M  END
