Coordinates from ORCA-job Ph-N2-OAc-B3LYPG-6-31G_dp-MTMO-d009-169-n800
 OpenBabel09051908423D

 20 20  0  0  0  0  0  0  0  0999 V2000
   12.7477    5.9981    2.1905 C   0  0  0  0  0  0  0  0  0  0  0  0
   12.3661    5.1518    1.1577 C   0  0  0  0  0  0  0  0  0  0  0  0
   11.9669    3.8253    1.4396 C   0  0  0  0  0  0  0  0  0  0  0  0
   12.0320    3.3423    2.7695 C   0  0  0  0  0  0  0  0  0  0  0  0
   12.4601    4.1924    3.7814 C   0  0  0  0  0  0  0  0  0  0  0  0
   12.7990    5.5202    3.5035 C   0  0  0  0  0  0  0  0  0  0  0  0
   13.0250    7.0238    1.9700 H   0  0  0  0  0  0  0  0  0  0  0  0
   12.3358    5.4971    0.1291 H   0  0  0  0  0  0  0  0  0  0  0  0
   11.6209    3.0832    0.4813 N   0  0  0  0  0  0  0  0  0  0  0  0
   10.8780    2.2126    0.2028 N   0  0  0  0  0  0  0  0  0  0  0  0
   13.1206    6.1767    4.3061 H   0  0  0  0  0  0  0  0  0  0  0  0
   12.5297    3.8153    4.7971 H   0  0  0  0  0  0  0  0  0  0  0  0
   11.8085    2.2971    2.9528 H   0  0  0  0  0  0  0  0  0  0  0  0
    9.6380    1.9588    1.4512 O   0  0  0  0  0  0  0  0  0  0  0  0
    9.8819    0.8414    2.1083 C   0  0  0  0  0  0  0  0  0  0  0  0
   10.9832    0.3096    2.1988 O   0  0  0  0  0  0  0  0  0  0  0  0
    8.6315    0.2728    2.7654 C   0  0  0  0  0  0  0  0  0  0  0  0
    8.0357    1.0656    3.2250 H   0  0  0  0  0  0  0  0  0  0  0  0
    8.0107   -0.2020    1.9982 H   0  0  0  0  0  0  0  0  0  0  0  0
    8.9159   -0.4724    3.5094 H   0  0  0  0  0  0  0  0  0  0  0  0
  1  6  2  0  0  0  0
  2  3  2  0  0  0  0
  2  1  1  0  0  0  0
  3  4  1  0  0  0  0
  4 13  1  0  0  0  0
  4  5  2  0  0  0  0
  5 12  1  0  0  0  0
  6  5  1  0  0  0  0
  6 11  1  0  0  0  0
  7  1  1  0  0  0  0
  8  2  1  0  0  0  0
  9  3  1  0  0  0  0
 10  9  1  0  0  0  0
 10 14  1  0  0  0  0
 14 15  1  0  0  0  0
 15 16  2  0  0  0  0
 15 17  1  0  0  0  0
 17 18  1  0  0  0  0
 17 20  1  0  0  0  0
 19 17  1  0  0  0  0
M  RAD  2   9   2  10   2
M  END
