Coordinates from ORCA-job Ph-N2-OAc-B3LYPG-6-31G_dp-MTMO-d009-169-n800
 OpenBabel09051908423D

 20 19  0  0  0  0  0  0  0  0999 V2000
   11.1346    7.0773    2.9434 C   0  0  0  0  0  0  0  0  0  0  0  0
   10.6689    5.8118    2.5880 C   0  0  0  0  0  0  0  0  0  0  0  0
   11.3846    4.6819    2.9828 C   0  0  0  0  0  0  0  0  0  0  0  0
   12.5569    4.7941    3.7315 C   0  0  0  0  0  0  0  0  0  0  0  0
   13.0124    6.0680    4.0761 C   0  0  0  0  0  0  0  0  0  0  0  0
   12.3094    7.2093    3.6863 C   0  0  0  0  0  0  0  0  0  0  0  0
   10.5781    7.9581    2.6377 H   0  0  0  0  0  0  0  0  0  0  0  0
    9.7564    5.6834    2.0153 H   0  0  0  0  0  0  0  0  0  0  0  0
    7.6936   -9.5025   -2.5279 N   0  0  0  0  0  0  0  0  0  0  0  0
    7.9496   -8.5222   -2.0861 N   0  0  0  0  0  0  0  0  0  0  0  0
   12.6734    8.1943    3.9616 H   0  0  0  0  0  0  0  0  0  0  0  0
   13.9270    6.1639    4.6538 H   0  0  0  0  0  0  0  0  0  0  0  0
   13.1051    3.9099    4.0274 H   0  0  0  0  0  0  0  0  0  0  0  0
   10.8043    3.4558    2.6487 O   0  0  0  0  0  0  0  0  0  0  0  0
   11.5568    2.4048    2.1934 C   0  0  0  0  0  0  0  0  0  0  0  0
   12.7549    2.4270    2.0560 O   0  0  0  0  0  0  0  0  0  0  0  0
   10.6527    1.2347    1.8917 C   0  0  0  0  0  0  0  0  0  0  0  0
   10.0838    0.9592    2.7845 H   0  0  0  0  0  0  0  0  0  0  0  0
    9.9303    1.5099    1.1174 H   0  0  0  0  0  0  0  0  0  0  0  0
   11.2545    0.3909    1.5561 H   0  0  0  0  0  0  0  0  0  0  0  0
  1  6  1  0  0  0  0
  2  1  2  0  0  0  0
  2  3  1  0  0  0  0
  3  4  2  0  0  0  0
  4 13  1  0  0  0  0
  4  5  1  0  0  0  0
  5 12  1  0  0  0  0
  6 11  1  0  0  0  0
  6  5  2  0  0  0  0
  7  1  1  0  0  0  0
  8  2  1  0  0  0  0
  9 10  3  0  0  0  0
 14  3  1  0  0  0  0
 15 14  1  0  0  0  0
 16 15  2  0  0  0  0
 17 15  1  0  0  0  0
 17 18  1  0  0  0  0
 19 17  1  0  0  0  0
 20 17  1  0  0  0  0
M  END
