Coordinates from ORCA-job Ph-N2-OAc-B3LYPG-6-31G_dp-MTMO-d009-169-n800
 OpenBabel09051908423D

 20 18  0  0  0  0  0  0  0  0999 V2000
   13.1834    6.1105    2.2911 C   0  0  0  0  0  0  0  0  0  0  0  0
   12.4864    5.4228    1.2688 C   0  0  0  0  0  0  0  0  0  0  0  0
   12.0059    4.2583    1.8073 C   0  0  0  0  0  0  0  0  0  0  0  0
   12.0495    3.7213    2.9418 C   0  0  0  0  0  0  0  0  0  0  0  0
   12.7328    4.3697    3.9810 C   0  0  0  0  0  0  0  0  0  0  0  0
   13.3003    5.6006    3.5971 C   0  0  0  0  0  0  0  0  0  0  0  0
   13.6414    7.0657    2.0476 H   0  0  0  0  0  0  0  0  0  0  0  0
   12.3802    5.7880    0.2557 H   0  0  0  0  0  0  0  0  0  0  0  0
   11.0316    3.1917   -0.8250 N   0  0  0  0  0  0  0  0  0  0  0  0
   10.8108    2.2511   -1.3611 N   0  0  0  0  0  0  0  0  0  0  0  0
   13.8471    6.1796    4.3369 H   0  0  0  0  0  0  0  0  0  0  0  0
   12.8280    3.9879    4.9926 H   0  0  0  0  0  0  0  0  0  0  0  0
   10.8196    2.0117    3.1350 H   0  0  0  0  0  0  0  0  0  0  0  0
    9.3834    1.5720    1.3668 O   0  0  0  0  0  0  0  0  0  0  0  0
    9.4294    0.9472    2.4061 C   0  0  0  0  0  0  0  0  0  0  0  0
   10.2847    1.2333    3.4083 O   0  0  0  0  0  0  0  0  0  0  0  0
    8.5518   -0.2334    2.7503 C   0  0  0  0  0  0  0  0  0  0  0  0
    7.8942   -0.4564    1.9109 H   0  0  0  0  0  0  0  0  0  0  0  0
    9.1703   -1.1044    2.9857 H   0  0  0  0  0  0  0  0  0  0  0  0
    7.9566   -0.0078    3.6406 H   0  0  0  0  0  0  0  0  0  0  0  0
  1  6  2  0  0  0  0
  2  3  2  0  0  0  0
  2  1  1  0  0  0  0
  3  4  1  0  0  0  0
  4  5  2  0  0  0  0
  5 12  1  0  0  0  0
  6  5  1  0  0  0  0
  6 11  1  0  0  0  0
  7  1  1  0  0  0  0
  8  2  1  0  0  0  0
 10  9  3  0  0  0  0
 13 16  1  0  0  0  0
 14 15  2  0  0  0  0
 15 17  1  0  0  0  0
 15 16  1  0  0  0  0
 17 19  1  0  0  0  0
 17 20  1  0  0  0  0
 18 17  1  0  0  0  0
M  RAD  2   3   2   4   2
M  END
