Coordinates from ORCA-job Ph-N2-OAc-B3LYPG-6-31G_dp-MTMO-d009-169-n800
 OpenBabel09051908423D

 20 18  0  0  0  0  0  0  0  0999 V2000
   13.1896    6.1180    2.2977 C   0  0  0  0  0  0  0  0  0  0  0  0
   12.5114    5.4455    1.2531 C   0  0  0  0  0  0  0  0  0  0  0  0
   12.0213    4.2736    1.7657 C   0  0  0  0  0  0  0  0  0  0  0  0
   12.0421    3.7190    2.8926 C   0  0  0  0  0  0  0  0  0  0  0  0
   12.7071    4.3530    3.9529 C   0  0  0  0  0  0  0  0  0  0  0  0
   13.2821    5.5889    3.5980 C   0  0  0  0  0  0  0  0  0  0  0  0
   13.6522    7.0764    2.0767 H   0  0  0  0  0  0  0  0  0  0  0  0
   12.4237    5.8254    0.2435 H   0  0  0  0  0  0  0  0  0  0  0  0
   11.0497    3.2035   -0.7974 N   0  0  0  0  0  0  0  0  0  0  0  0
   10.8352    2.2479   -1.3088 N   0  0  0  0  0  0  0  0  0  0  0  0
   13.8152    6.1567    4.3563 H   0  0  0  0  0  0  0  0  0  0  0  0
   12.7830    3.9565    4.9605 H   0  0  0  0  0  0  0  0  0  0  0  0
   10.8260    2.0137    3.0943 H   0  0  0  0  0  0  0  0  0  0  0  0
    9.3390    1.5722    1.3684 O   0  0  0  0  0  0  0  0  0  0  0  0
    9.4174    0.9462    2.4051 C   0  0  0  0  0  0  0  0  0  0  0  0
   10.3017    1.2327    3.3816 O   0  0  0  0  0  0  0  0  0  0  0  0
    8.5534   -0.2372    2.7734 C   0  0  0  0  0  0  0  0  0  0  0  0
    7.8675   -0.4568    1.9560 H   0  0  0  0  0  0  0  0  0  0  0  0
    9.1807   -1.1085    2.9827 H   0  0  0  0  0  0  0  0  0  0  0  0
    7.9891   -0.0171    3.6850 H   0  0  0  0  0  0  0  0  0  0  0  0
  1  6  2  0  0  0  0
  2  3  2  0  0  0  0
  2  1  1  0  0  0  0
  3  4  1  0  0  0  0
  4  5  2  0  0  0  0
  5 12  1  0  0  0  0
  6  5  1  0  0  0  0
  6 11  1  0  0  0  0
  7  1  1  0  0  0  0
  8  2  1  0  0  0  0
 10  9  3  0  0  0  0
 13 16  1  0  0  0  0
 14 15  2  0  0  0  0
 15 17  1  0  0  0  0
 15 16  1  0  0  0  0
 17 19  1  0  0  0  0
 17 20  1  0  0  0  0
 18 17  1  0  0  0  0
M  RAD  2   3   2   4   2
M  END
