Coordinates from ORCA-job Ph-N2-OAc-B3LYPG-6-31G_dp-MTMO-d009-169-n800
 OpenBabel09051908423D

 20 18  0  0  0  0  0  0  0  0999 V2000
   13.1736    6.0567    2.2541 C   0  0  0  0  0  0  0  0  0  0  0  0
   12.4033    5.3067    1.3333 C   0  0  0  0  0  0  0  0  0  0  0  0
   11.9429    4.1928    1.9870 C   0  0  0  0  0  0  0  0  0  0  0  0
   12.0604    3.7496    3.1554 C   0  0  0  0  0  0  0  0  0  0  0  0
   12.8149    4.4570    4.1000 C   0  0  0  0  0  0  0  0  0  0  0  0
   13.3703    5.6456    3.5853 C   0  0  0  0  0  0  0  0  0  0  0  0
   13.6266    6.9832    1.9103 H   0  0  0  0  0  0  0  0  0  0  0  0
   12.2367    5.5971    0.3045 H   0  0  0  0  0  0  0  0  0  0  0  0
   10.9487    3.1966   -0.9346 N   0  0  0  0  0  0  0  0  0  0  0  0
   10.6628    2.3108   -1.5297 N   0  0  0  0  0  0  0  0  0  0  0  0
   13.9722    6.2700    4.2409 H   0  0  0  0  0  0  0  0  0  0  0  0
   12.9724    4.1505    5.1291 H   0  0  0  0  0  0  0  0  0  0  0  0
   10.7650    2.0192    3.2979 H   0  0  0  0  0  0  0  0  0  0  0  0
    9.5732    1.5579    1.3648 O   0  0  0  0  0  0  0  0  0  0  0  0
    9.4808    0.9468    2.4094 C   0  0  0  0  0  0  0  0  0  0  0  0
   10.1973    1.2473    3.5113 O   0  0  0  0  0  0  0  0  0  0  0  0
    8.5636   -0.2286    2.6514 C   0  0  0  0  0  0  0  0  0  0  0  0
    8.0251   -0.4667    1.7348 H   0  0  0  0  0  0  0  0  0  0  0  0
    9.1433   -1.0950    2.9828 H   0  0  0  0  0  0  0  0  0  0  0  0
    7.8543    0.0121    3.4492 H   0  0  0  0  0  0  0  0  0  0  0  0
  1  6  2  0  0  0  0
  2  3  2  0  0  0  0
  2  1  1  0  0  0  0
  3  4  1  0  0  0  0
  4  5  2  0  0  0  0
  5 12  1  0  0  0  0
  6  5  1  0  0  0  0
  6 11  1  0  0  0  0
  7  1  1  0  0  0  0
  8  2  1  0  0  0  0
 10  9  3  0  0  0  0
 13 16  1  0  0  0  0
 14 15  2  0  0  0  0
 15 17  1  0  0  0  0
 15 16  1  0  0  0  0
 17 19  1  0  0  0  0
 17 20  1  0  0  0  0
 18 17  1  0  0  0  0
M  RAD  2   3   2   4   2
M  END
