Coordinates from ORCA-job Ph-N2-OAc-B3LYPG-6-31G_dp-MTMO-d009-169-n800
 OpenBabel09051908423D

 20 19  0  0  0  0  0  0  0  0999 V2000
   12.3559    5.9268    2.2645 C   0  0  0  0  0  0  0  0  0  0  0  0
   11.9429    5.0085    1.3291 C   0  0  0  0  0  0  0  0  0  0  0  0
   12.0733    3.5499    1.5483 C   0  0  0  0  0  0  0  0  0  0  0  0
   12.6750    3.1998    2.8586 C   0  0  0  0  0  0  0  0  0  0  0  0
   13.0803    4.1710    3.7456 C   0  0  0  0  0  0  0  0  0  0  0  0
   12.9358    5.5357    3.4779 C   0  0  0  0  0  0  0  0  0  0  0  0
   12.2213    6.9808    2.0374 H   0  0  0  0  0  0  0  0  0  0  0  0
   11.4772    5.2901    0.3908 H   0  0  0  0  0  0  0  0  0  0  0  0
   11.7938    2.9194    0.9393 N   0  0  0  0  0  0  0  0  0  0  0  0
   11.3882    2.1124    0.1978 N   0  0  0  0  0  0  0  0  0  0  0  0
   13.2647    6.2779    4.1961 H   0  0  0  0  0  0  0  0  0  0  0  0
   13.5174    3.8430    4.6845 H   0  0  0  0  0  0  0  0  0  0  0  0
   12.7376    2.1376    3.0492 H   0  0  0  0  0  0  0  0  0  0  0  0
    9.4910    1.6627    0.8987 O   0  0  0  0  0  0  0  0  0  0  0  0
    9.6298    1.1276    2.0669 C   0  0  0  0  0  0  0  0  0  0  0  0
   10.6448    1.1399    2.7766 O   0  0  0  0  0  0  0  0  0  0  0  0
    8.3639    0.3993    2.5402 C   0  0  0  0  0  0  0  0  0  0  0  0
    7.4623    0.9399    2.2440 H   0  0  0  0  0  0  0  0  0  0  0  0
    8.3316   -0.5877    2.0682 H   0  0  0  0  0  0  0  0  0  0  0  0
    8.4006    0.2750    3.6239 H   0  0  0  0  0  0  0  0  0  0  0  0
  1  6  2  0  0  0  0
  2  3  2  0  0  0  0
  2  1  1  0  0  0  0
  3  4  1  0  0  0  0
  4 13  1  0  0  0  0
  4  5  2  0  0  0  0
  5 12  1  0  0  0  0
  6  5  1  0  0  0  0
  6 11  1  0  0  0  0
  7  1  1  0  0  0  0
  8  2  1  0  0  0  0
  9  3  1  0  0  0  0
 10  9  1  0  0  0  0
 14 15  2  0  0  0  0
 15 17  1  0  0  0  0
 15 16  1  0  0  0  0
 17 20  1  0  0  0  0
 18 17  1  0  0  0  0
 19 17  1  0  0  0  0
M  RAD  3   9   2  10   3  16   2
M  END
