Coordinates from ORCA-job Ph-N2-OAc-B3LYPG-6-31G_dp-MTMO-d009-169-n800
 OpenBabel09051908423D

 20 19  0  0  0  0  0  0  0  0999 V2000
   11.1869    6.7131    2.8254 C   0  0  0  0  0  0  0  0  0  0  0  0
   10.5945    5.4932    2.5006 C   0  0  0  0  0  0  0  0  0  0  0  0
   11.2418    4.3050    2.8387 C   0  0  0  0  0  0  0  0  0  0  0  0
   12.4704    4.3146    3.5005 C   0  0  0  0  0  0  0  0  0  0  0  0
   13.0525    5.5438    3.8154 C   0  0  0  0  0  0  0  0  0  0  0  0
   12.4190    6.7423    3.4815 C   0  0  0  0  0  0  0  0  0  0  0  0
   10.6841    7.6392    2.5636 H   0  0  0  0  0  0  0  0  0  0  0  0
    9.6359    5.4451    1.9951 H   0  0  0  0  0  0  0  0  0  0  0  0
    9.3386   -6.0099   -1.1248 N   0  0  0  0  0  0  0  0  0  0  0  0
    9.4233   -4.9779   -0.7383 N   0  0  0  0  0  0  0  0  0  0  0  0
   12.8812    7.6918    3.7329 H   0  0  0  0  0  0  0  0  0  0  0  0
   14.0108    5.5594    4.3258 H   0  0  0  0  0  0  0  0  0  0  0  0
   12.9640    3.3860    3.7530 H   0  0  0  0  0  0  0  0  0  0  0  0
   10.5396    3.1340    2.5440 O   0  0  0  0  0  0  0  0  0  0  0  0
   11.1678    2.0246    2.0410 C   0  0  0  0  0  0  0  0  0  0  0  0
   12.3511    1.9461    1.8208 O   0  0  0  0  0  0  0  0  0  0  0  0
   10.1495    0.9355    1.8069 C   0  0  0  0  0  0  0  0  0  0  0  0
    9.6254    0.7053    2.7389 H   0  0  0  0  0  0  0  0  0  0  0  0
    9.3989    1.2730    1.0859 H   0  0  0  0  0  0  0  0  0  0  0  0
   10.6522    0.0454    1.4306 H   0  0  0  0  0  0  0  0  0  0  0  0
  1  6  1  0  0  0  0
  2  1  2  0  0  0  0
  2  3  1  0  0  0  0
  3  4  2  0  0  0  0
  4 13  1  0  0  0  0
  4  5  1  0  0  0  0
  5 12  1  0  0  0  0
  6 11  1  0  0  0  0
  6  5  2  0  0  0  0
  7  1  1  0  0  0  0
  8  2  1  0  0  0  0
  9 10  3  0  0  0  0
 14  3  1  0  0  0  0
 15 14  1  0  0  0  0
 16 15  2  0  0  0  0
 17 15  1  0  0  0  0
 17 18  1  0  0  0  0
 19 17  1  0  0  0  0
 20 17  1  0  0  0  0
M  END
