Coordinates from ORCA-job Ph-N2-OAc-B3LYPG-6-31G_dp-MTMO-d009-169-n800
 OpenBabel09051908423D

 20 19  0  0  0  0  0  0  0  0999 V2000
   11.0899    6.8503    2.8506 C   0  0  0  0  0  0  0  0  0  0  0  0
   10.6088    5.5879    2.5045 C   0  0  0  0  0  0  0  0  0  0  0  0
   11.3176    4.4528    2.8965 C   0  0  0  0  0  0  0  0  0  0  0  0
   12.4982    4.5567    3.6333 C   0  0  0  0  0  0  0  0  0  0  0  0
   12.9691    5.8274    3.9687 C   0  0  0  0  0  0  0  0  0  0  0  0
   12.2730    6.9739    3.5815 C   0  0  0  0  0  0  0  0  0  0  0  0
   10.5388    7.7353    2.5471 H   0  0  0  0  0  0  0  0  0  0  0  0
    9.6896    5.4662    1.9412 H   0  0  0  0  0  0  0  0  0  0  0  0
    8.3459   -7.4275   -1.7418 N   0  0  0  0  0  0  0  0  0  0  0  0
    8.5685   -6.4335   -1.3126 N   0  0  0  0  0  0  0  0  0  0  0  0
   12.6489    7.9564    3.8496 H   0  0  0  0  0  0  0  0  0  0  0  0
   13.8901    5.9168    4.5371 H   0  0  0  0  0  0  0  0  0  0  0  0
   13.0409    3.6684    3.9271 H   0  0  0  0  0  0  0  0  0  0  0  0
   10.7225    3.2311    2.5729 O   0  0  0  0  0  0  0  0  0  0  0  0
   11.4603    2.1710    2.1147 C   0  0  0  0  0  0  0  0  0  0  0  0
   12.6571    2.1811    1.9652 O   0  0  0  0  0  0  0  0  0  0  0  0
   10.5420    1.0084    1.8271 C   0  0  0  0  0  0  0  0  0  0  0  0
    9.9784    0.7432    2.7263 H   0  0  0  0  0  0  0  0  0  0  0  0
    9.8155    1.2867    1.0578 H   0  0  0  0  0  0  0  0  0  0  0  0
   11.1322    0.1569    1.4905 H   0  0  0  0  0  0  0  0  0  0  0  0
  1  6  1  0  0  0  0
  2  1  2  0  0  0  0
  2  3  1  0  0  0  0
  3  4  2  0  0  0  0
  4 13  1  0  0  0  0
  4  5  1  0  0  0  0
  5 12  1  0  0  0  0
  6 11  1  0  0  0  0
  6  5  2  0  0  0  0
  7  1  1  0  0  0  0
  8  2  1  0  0  0  0
  9 10  3  0  0  0  0
 14  3  1  0  0  0  0
 15 14  1  0  0  0  0
 16 15  2  0  0  0  0
 17 15  1  0  0  0  0
 17 18  1  0  0  0  0
 19 17  1  0  0  0  0
 20 17  1  0  0  0  0
M  END
