Coordinates from ORCA-job Ph-N2-OAc-B3LYPG-6-31G_dp-MTMO-d009-169-n800
 OpenBabel09051908423D

 20 19  0  0  0  0  0  0  0  0999 V2000
   11.1766    6.7213    2.8224 C   0  0  0  0  0  0  0  0  0  0  0  0
   10.5943    5.4964    2.4980 C   0  0  0  0  0  0  0  0  0  0  0  0
   11.2477    4.3137    2.8431 C   0  0  0  0  0  0  0  0  0  0  0  0
   12.4726    4.3335    3.5117 C   0  0  0  0  0  0  0  0  0  0  0  0
   13.0446    5.5676    3.8261 C   0  0  0  0  0  0  0  0  0  0  0  0
   12.4048    6.7607    3.4852 C   0  0  0  0  0  0  0  0  0  0  0  0
   10.6689    7.6432    2.5552 H   0  0  0  0  0  0  0  0  0  0  0  0
    9.6388    5.4403    1.9874 H   0  0  0  0  0  0  0  0  0  0  0  0
    9.2550   -6.0954   -1.1718 N   0  0  0  0  0  0  0  0  0  0  0  0
    9.3566   -5.0643   -0.7870 N   0  0  0  0  0  0  0  0  0  0  0  0
   12.8590    7.7142    3.7365 H   0  0  0  0  0  0  0  0  0  0  0  0
   13.9998    5.5912    4.3418 H   0  0  0  0  0  0  0  0  0  0  0  0
   12.9711    3.4091    3.7696 H   0  0  0  0  0  0  0  0  0  0  0  0
   10.5552    3.1370    2.5480 O   0  0  0  0  0  0  0  0  0  0  0  0
   11.1936    2.0311    2.0504 C   0  0  0  0  0  0  0  0  0  0  0  0
   12.3785    1.9604    1.8361 O   0  0  0  0  0  0  0  0  0  0  0  0
   10.1841    0.9345    1.8132 C   0  0  0  0  0  0  0  0  0  0  0  0
    9.6543    0.7047    2.7422 H   0  0  0  0  0  0  0  0  0  0  0  0
    9.4369    1.2643    1.0852 H   0  0  0  0  0  0  0  0  0  0  0  0
   10.6953    0.0462    1.4443 H   0  0  0  0  0  0  0  0  0  0  0  0
  1  6  1  0  0  0  0
  2  1  2  0  0  0  0
  2  3  1  0  0  0  0
  3  4  2  0  0  0  0
  4 13  1  0  0  0  0
  4  5  1  0  0  0  0
  5 12  1  0  0  0  0
  6 11  1  0  0  0  0
  6  5  2  0  0  0  0
  7  1  1  0  0  0  0
  8  2  1  0  0  0  0
  9 10  3  0  0  0  0
 14  3  1  0  0  0  0
 15 14  1  0  0  0  0
 16 15  2  0  0  0  0
 17 15  1  0  0  0  0
 17 18  1  0  0  0  0
 19 17  1  0  0  0  0
 20 17  1  0  0  0  0
M  END
