Coordinates from ORCA-job Ph-N2-OAc-B3LYPG-6-31G_dp-MTMO-d009-169-n800
 OpenBabel09051908423D

 20 19  0  0  0  0  0  0  0  0999 V2000
   11.3386    6.4480    2.6928 C   0  0  0  0  0  0  0  0  0  0  0  0
   10.5864    5.3018    2.4369 C   0  0  0  0  0  0  0  0  0  0  0  0
   11.1138    4.0509    2.7553 C   0  0  0  0  0  0  0  0  0  0  0  0
   12.3798    3.9249    3.3287 C   0  0  0  0  0  0  0  0  0  0  0  0
   13.1223    5.0809    3.5754 C   0  0  0  0  0  0  0  0  0  0  0  0
   12.6097    6.3410    3.2605 C   0  0  0  0  0  0  0  0  0  0  0  0
   10.9297    7.4232    2.4461 H   0  0  0  0  0  0  0  0  0  0  0  0
    9.5954    5.3596    1.9997 H   0  0  0  0  0  0  0  0  0  0  0  0
   11.1337   -3.4581   -0.3586 N   0  0  0  0  0  0  0  0  0  0  0  0
   10.5798   -2.6309    0.1212 N   0  0  0  0  0  0  0  0  0  0  0  0
   13.1961    7.2331    3.4581 H   0  0  0  0  0  0  0  0  0  0  0  0
   14.1098    4.9909    4.0178 H   0  0  0  0  0  0  0  0  0  0  0  0
   12.7784    2.9478    3.5665 H   0  0  0  0  0  0  0  0  0  0  0  0
   10.2634    2.9640    2.5395 O   0  0  0  0  0  0  0  0  0  0  0  0
   10.7216    1.7935    1.9913 C   0  0  0  0  0  0  0  0  0  0  0  0
   11.8639    1.5946    1.6584 O   0  0  0  0  0  0  0  0  0  0  0  0
    9.5812    0.8119    1.8775 C   0  0  0  0  0  0  0  0  0  0  0  0
    9.1832    0.5898    2.8720 H   0  0  0  0  0  0  0  0  0  0  0  0
    8.7661    1.2471    1.2921 H   0  0  0  0  0  0  0  0  0  0  0  0
    9.9345   -0.1043    1.4062 H   0  0  0  0  0  0  0  0  0  0  0  0
  1  6  1  0  0  0  0
  2  1  2  0  0  0  0
  2  3  1  0  0  0  0
  3  4  2  0  0  0  0
  4 13  1  0  0  0  0
  4  5  1  0  0  0  0
  5 12  1  0  0  0  0
  6 11  1  0  0  0  0
  6  5  2  0  0  0  0
  7  1  1  0  0  0  0
  8  2  1  0  0  0  0
  9 10  3  0  0  0  0
 14  3  1  0  0  0  0
 15 14  1  0  0  0  0
 16 15  2  0  0  0  0
 17 15  1  0  0  0  0
 17 18  1  0  0  0  0
 19 17  1  0  0  0  0
 20 17  1  0  0  0  0
M  END
