Coordinates from ORCA-job Ph-N2-OAc-B3LYPG-6-31G_dp-MTMO-d009-169-n800
 OpenBabel09051908423D

 20 19  0  0  0  0  0  0  0  0999 V2000
   11.2748    6.4968    2.7302 C   0  0  0  0  0  0  0  0  0  0  0  0
   10.5797    5.3223    2.4433 C   0  0  0  0  0  0  0  0  0  0  0  0
   11.1522    4.0915    2.7627 C   0  0  0  0  0  0  0  0  0  0  0  0
   12.4072    4.0137    3.3681 C   0  0  0  0  0  0  0  0  0  0  0  0
   13.0924    5.1979    3.6455 C   0  0  0  0  0  0  0  0  0  0  0  0
   12.5344    6.4382    3.3299 C   0  0  0  0  0  0  0  0  0  0  0  0
   10.8306    7.4563    2.4828 H   0  0  0  0  0  0  0  0  0  0  0  0
    9.5985    5.3426    1.9814 H   0  0  0  0  0  0  0  0  0  0  0  0
   10.4843   -3.9479   -0.4673 N   0  0  0  0  0  0  0  0  0  0  0  0
   10.3066   -2.9820    0.0395 N   0  0  0  0  0  0  0  0  0  0  0  0
   13.0764    7.3523    3.5516 H   0  0  0  0  0  0  0  0  0  0  0  0
   14.0712    5.1452    4.1124 H   0  0  0  0  0  0  0  0  0  0  0  0
   12.8417    3.0522    3.6063 H   0  0  0  0  0  0  0  0  0  0  0  0
   10.3540    2.9728    2.5118 O   0  0  0  0  0  0  0  0  0  0  0  0
   10.8760    1.8211    1.9813 C   0  0  0  0  0  0  0  0  0  0  0  0
   12.0370    1.6633    1.6947 O   0  0  0  0  0  0  0  0  0  0  0  0
    9.7759    0.8010    1.8171 C   0  0  0  0  0  0  0  0  0  0  0  0
    9.3213    0.5847    2.7883 H   0  0  0  0  0  0  0  0  0  0  0  0
    8.9875    1.1992    1.1715 H   0  0  0  0  0  0  0  0  0  0  0  0
   10.1858   -0.1117    1.3865 H   0  0  0  0  0  0  0  0  0  0  0  0
  1  6  1  0  0  0  0
  2  1  2  0  0  0  0
  2  3  1  0  0  0  0
  3  4  2  0  0  0  0
  4 13  1  0  0  0  0
  4  5  1  0  0  0  0
  5 12  1  0  0  0  0
  6 11  1  0  0  0  0
  6  5  2  0  0  0  0
  7  1  1  0  0  0  0
  8  2  1  0  0  0  0
  9 10  3  0  0  0  0
 14  3  1  0  0  0  0
 15 14  1  0  0  0  0
 16 15  2  0  0  0  0
 17 15  1  0  0  0  0
 17 18  1  0  0  0  0
 19 17  1  0  0  0  0
 20 17  1  0  0  0  0
M  END
