Coordinates from ORCA-job Ph-N2-OAc-B3LYPG-6-31G_dp-MTMO-d009-169-n800
 OpenBabel09051908423D

 20 19  0  0  0  0  0  0  0  0999 V2000
   11.1512    7.1388    2.9678 C   0  0  0  0  0  0  0  0  0  0  0  0
   10.6860    5.8733    2.6116 C   0  0  0  0  0  0  0  0  0  0  0  0
   11.4017    4.7434    3.0062 C   0  0  0  0  0  0  0  0  0  0  0  0
   12.5735    4.8555    3.7556 C   0  0  0  0  0  0  0  0  0  0  0  0
   13.0286    6.1293    4.1011 C   0  0  0  0  0  0  0  0  0  0  0  0
   12.3255    7.2707    3.7113 C   0  0  0  0  0  0  0  0  0  0  0  0
   10.5947    8.0196    2.6621 H   0  0  0  0  0  0  0  0  0  0  0  0
    9.7738    5.7450    2.0382 H   0  0  0  0  0  0  0  0  0  0  0  0
    7.5379  -10.0568   -2.7382 N   0  0  0  0  0  0  0  0  0  0  0  0
    7.7961   -9.0768   -2.2971 N   0  0  0  0  0  0  0  0  0  0  0  0
   12.6891    8.2556    3.9873 H   0  0  0  0  0  0  0  0  0  0  0  0
   13.9428    6.2252    4.6793 H   0  0  0  0  0  0  0  0  0  0  0  0
   13.1217    3.9713    4.0515 H   0  0  0  0  0  0  0  0  0  0  0  0
   10.8218    3.5174    2.6713 O   0  0  0  0  0  0  0  0  0  0  0  0
   11.5748    2.4667    2.2159 C   0  0  0  0  0  0  0  0  0  0  0  0
   12.7730    2.4892    2.0791 O   0  0  0  0  0  0  0  0  0  0  0  0
   10.6711    1.2966    1.9131 C   0  0  0  0  0  0  0  0  0  0  0  0
   10.1017    1.0205    2.8054 H   0  0  0  0  0  0  0  0  0  0  0  0
    9.9491    1.5720    1.1385 H   0  0  0  0  0  0  0  0  0  0  0  0
   11.2733    0.4531    1.5774 H   0  0  0  0  0  0  0  0  0  0  0  0
  1  6  1  0  0  0  0
  2  1  2  0  0  0  0
  2  3  1  0  0  0  0
  3  4  2  0  0  0  0
  4 13  1  0  0  0  0
  4  5  1  0  0  0  0
  5 12  1  0  0  0  0
  6 11  1  0  0  0  0
  6  5  2  0  0  0  0
  7  1  1  0  0  0  0
  8  2  1  0  0  0  0
  9 10  3  0  0  0  0
 14  3  1  0  0  0  0
 15 14  1  0  0  0  0
 16 15  2  0  0  0  0
 17 15  1  0  0  0  0
 17 18  1  0  0  0  0
 19 17  1  0  0  0  0
 20 17  1  0  0  0  0
M  END
