Coordinates from ORCA-job Ph-N2-OAc-B3LYPG-6-31G_dp-MTMO-d009-169-n800
 OpenBabel09051908423D

 20 19  0  0  0  0  0  0  0  0999 V2000
   11.7617    5.9288    2.4650 C   0  0  0  0  0  0  0  0  0  0  0  0
   10.6966    5.0357    2.3494 C   0  0  0  0  0  0  0  0  0  0  0  0
   10.8881    3.6949    2.6802 C   0  0  0  0  0  0  0  0  0  0  0  0
   12.1246    3.2301    3.1294 C   0  0  0  0  0  0  0  0  0  0  0  0
   13.1821    4.1352    3.2361 C   0  0  0  0  0  0  0  0  0  0  0  0
   13.0083    5.4807    2.9065 C   0  0  0  0  0  0  0  0  0  0  0  0
   11.6149    6.9735    2.2071 H   0  0  0  0  0  0  0  0  0  0  0  0
    9.7185    5.3608    2.0108 H   0  0  0  0  0  0  0  0  0  0  0  0
   13.6248    0.1495    0.1070 N   0  0  0  0  0  0  0  0  0  0  0  0
   13.8981    0.5500    1.1000 N   0  0  0  0  0  0  0  0  0  0  0  0
   13.8384    6.1750    2.9950 H   0  0  0  0  0  0  0  0  0  0  0  0
   14.1485    3.7799    3.5813 H   0  0  0  0  0  0  0  0  0  0  0  0
   12.2615    2.1863    3.3789 H   0  0  0  0  0  0  0  0  0  0  0  0
    9.7502    2.8862    2.6092 O   0  0  0  0  0  0  0  0  0  0  0  0
    9.7999    1.6286    2.0694 C   0  0  0  0  0  0  0  0  0  0  0  0
   10.7966    1.1087    1.6307 O   0  0  0  0  0  0  0  0  0  0  0  0
    8.4243    1.0091    2.1098 C   0  0  0  0  0  0  0  0  0  0  0  0
    8.0633    0.9662    3.1415 H   0  0  0  0  0  0  0  0  0  0  0  0
    7.7191    1.6242    1.5434 H   0  0  0  0  0  0  0  0  0  0  0  0
    8.4678    0.0064    1.6868 H   0  0  0  0  0  0  0  0  0  0  0  0
  1  6  1  0  0  0  0
  2  1  2  0  0  0  0
  2  3  1  0  0  0  0
  3  4  2  0  0  0  0
  4  5  1  0  0  0  0
  4 13  1  0  0  0  0
  5 12  1  0  0  0  0
  6 11  1  0  0  0  0
  6  5  2  0  0  0  0
  7  1  1  0  0  0  0
  8  2  1  0  0  0  0
  9 10  3  0  0  0  0
 14  3  1  0  0  0  0
 15 17  1  0  0  0  0
 15 14  1  0  0  0  0
 16 15  2  0  0  0  0
 17 18  1  0  0  0  0
 19 17  1  0  0  0  0
 20 17  1  0  0  0  0
M  END
