Coordinates from ORCA-job Ph-N2-OAc-B3LYPG-6-31G_dp-MTMO-d009-169-n800
 OpenBabel09051908423D

 20 19  0  0  0  0  0  0  0  0999 V2000
   11.1185    6.7745    2.8199 C   0  0  0  0  0  0  0  0  0  0  0  0
   10.5959    5.5246    2.4892 C   0  0  0  0  0  0  0  0  0  0  0  0
   11.2834    4.3719    2.8678 C   0  0  0  0  0  0  0  0  0  0  0  0
   12.4837    4.4462    3.5759 C   0  0  0  0  0  0  0  0  0  0  0  0
   12.9961    5.7047    3.8960 C   0  0  0  0  0  0  0  0  0  0  0  0
   12.3216    6.8684    3.5220 C   0  0  0  0  0  0  0  0  0  0  0  0
   10.5841    7.6731    2.5268 H   0  0  0  0  0  0  0  0  0  0  0  0
    9.6607    5.4260    1.9483 H   0  0  0  0  0  0  0  0  0  0  0  0
    8.7636   -6.6640   -1.4460 N   0  0  0  0  0  0  0  0  0  0  0  0
    8.9463   -5.6476   -1.0520 N   0  0  0  0  0  0  0  0  0  0  0  0
   12.7296    7.8412    3.7782 H   0  0  0  0  0  0  0  0  0  0  0  0
   13.9323    5.7709    4.4422 H   0  0  0  0  0  0  0  0  0  0  0  0
   13.0094    3.5445    3.8595 H   0  0  0  0  0  0  0  0  0  0  0  0
   10.6481    3.1659    2.5624 O   0  0  0  0  0  0  0  0  0  0  0  0
   11.3459    2.0839    2.0927 C   0  0  0  0  0  0  0  0  0  0  0  0
   12.5388    2.0602    1.9159 O   0  0  0  0  0  0  0  0  0  0  0  0
   10.3893    0.9461    1.8315 C   0  0  0  0  0  0  0  0  0  0  0  0
    9.8363    0.7033    2.7435 H   0  0  0  0  0  0  0  0  0  0  0  0
    9.6561    1.2400    1.0745 H   0  0  0  0  0  0  0  0  0  0  0  0
   10.9480    0.0758    1.4893 H   0  0  0  0  0  0  0  0  0  0  0  0
  1  6  1  0  0  0  0
  2  1  2  0  0  0  0
  2  3  1  0  0  0  0
  3  4  2  0  0  0  0
  4 13  1  0  0  0  0
  4  5  1  0  0  0  0
  5 12  1  0  0  0  0
  6 11  1  0  0  0  0
  6  5  2  0  0  0  0
  7  1  1  0  0  0  0
  8  2  1  0  0  0  0
  9 10  3  0  0  0  0
 14  3  1  0  0  0  0
 15 14  1  0  0  0  0
 16 15  2  0  0  0  0
 17 15  1  0  0  0  0
 17 18  1  0  0  0  0
 19 17  1  0  0  0  0
 20 17  1  0  0  0  0
M  END
