Coordinates from ORCA-job Ph-N2-OAc-B3LYPG-6-31G_dp-MTMO-d009-169-n800
 OpenBabel09051908423D

 20 19  0  0  0  0  0  0  0  0999 V2000
   11.1174    7.0123    2.9174 C   0  0  0  0  0  0  0  0  0  0  0  0
   10.6510    5.7467    2.5631 C   0  0  0  0  0  0  0  0  0  0  0  0
   11.3665    4.6168    2.9580 C   0  0  0  0  0  0  0  0  0  0  0  0
   12.5394    4.7290    3.7057 C   0  0  0  0  0  0  0  0  0  0  0  0
   12.9957    6.0029    4.0492 C   0  0  0  0  0  0  0  0  0  0  0  0
   12.2927    7.1443    3.6593 C   0  0  0  0  0  0  0  0  0  0  0  0
   10.5610    7.8932    2.6116 H   0  0  0  0  0  0  0  0  0  0  0  0
    9.7380    5.6184    1.9912 H   0  0  0  0  0  0  0  0  0  0  0  0
    7.8598   -8.9157   -2.3054 N   0  0  0  0  0  0  0  0  0  0  0  0
    8.1126   -7.9347   -1.8636 N   0  0  0  0  0  0  0  0  0  0  0  0
   12.6573    8.1293    3.9337 H   0  0  0  0  0  0  0  0  0  0  0  0
   13.9107    6.0989    4.6262 H   0  0  0  0  0  0  0  0  0  0  0  0
   13.0875    3.8448    4.0017 H   0  0  0  0  0  0  0  0  0  0  0  0
   10.7855    3.3908    2.6252 O   0  0  0  0  0  0  0  0  0  0  0  0
   11.5373    2.3392    2.1700 C   0  0  0  0  0  0  0  0  0  0  0  0
   12.7353    2.3608    2.0316 O   0  0  0  0  0  0  0  0  0  0  0  0
   10.6325    1.1692    1.8696 C   0  0  0  0  0  0  0  0  0  0  0  0
   10.0641    0.8945    2.7631 H   0  0  0  0  0  0  0  0  0  0  0  0
    9.9096    1.4441    1.0957 H   0  0  0  0  0  0  0  0  0  0  0  0
   11.2337    0.3249    1.5342 H   0  0  0  0  0  0  0  0  0  0  0  0
  1  6  1  0  0  0  0
  2  1  2  0  0  0  0
  2  3  1  0  0  0  0
  3  4  2  0  0  0  0
  4 13  1  0  0  0  0
  4  5  1  0  0  0  0
  5 12  1  0  0  0  0
  6 11  1  0  0  0  0
  6  5  2  0  0  0  0
  7  1  1  0  0  0  0
  8  2  1  0  0  0  0
  9 10  3  0  0  0  0
 14  3  1  0  0  0  0
 15 14  1  0  0  0  0
 16 15  2  0  0  0  0
 17 15  1  0  0  0  0
 17 18  1  0  0  0  0
 19 17  1  0  0  0  0
 20 17  1  0  0  0  0
M  END
