Coordinates from ORCA-job Ph-N2-OAc-B3LYPG-6-31G_dp-MTMO-d009-169-n800
 OpenBabel09051908423D

 20 19  0  0  0  0  0  0  0  0999 V2000
   11.0895    6.8637    2.8564 C   0  0  0  0  0  0  0  0  0  0  0  0
   10.6119    5.6005    2.5087 C   0  0  0  0  0  0  0  0  0  0  0  0
   11.3224    4.4667    2.9016 C   0  0  0  0  0  0  0  0  0  0  0  0
   12.5012    4.5727    3.6407 C   0  0  0  0  0  0  0  0  0  0  0  0
   12.9687    5.8443    3.9777 C   0  0  0  0  0  0  0  0  0  0  0  0
   12.2709    6.9895    3.5897 C   0  0  0  0  0  0  0  0  0  0  0  0
   10.5371    7.7476    2.5522 H   0  0  0  0  0  0  0  0  0  0  0  0
    9.6940    5.4770    1.9435 H   0  0  0  0  0  0  0  0  0  0  0  0
    8.2930   -7.5550   -1.7899 N   0  0  0  0  0  0  0  0  0  0  0  0
    8.5218   -6.5637   -1.3578 N   0  0  0  0  0  0  0  0  0  0  0  0
   12.6441    7.9727    3.8590 H   0  0  0  0  0  0  0  0  0  0  0  0
   13.8884    5.9354    4.5480 H   0  0  0  0  0  0  0  0  0  0  0  0
   13.0453    3.6855    3.9352 H   0  0  0  0  0  0  0  0  0  0  0  0
   10.7305    3.2438    2.5762 O   0  0  0  0  0  0  0  0  0  0  0  0
   11.4716    2.1856    2.1188 C   0  0  0  0  0  0  0  0  0  0  0  0
   12.6687    2.1985    1.9717 O   0  0  0  0  0  0  0  0  0  0  0  0
   10.5565    1.0212    1.8286 C   0  0  0  0  0  0  0  0  0  0  0  0
    9.9919    0.7539    2.7266 H   0  0  0  0  0  0  0  0  0  0  0  0
    9.8307    1.2985    1.0583 H   0  0  0  0  0  0  0  0  0  0  0  0
   11.1493    0.1713    1.4923 H   0  0  0  0  0  0  0  0  0  0  0  0
  1  6  1  0  0  0  0
  2  1  2  0  0  0  0
  2  3  1  0  0  0  0
  3  4  2  0  0  0  0
  4 13  1  0  0  0  0
  4  5  1  0  0  0  0
  5 12  1  0  0  0  0
  6 11  1  0  0  0  0
  6  5  2  0  0  0  0
  7  1  1  0  0  0  0
  8  2  1  0  0  0  0
  9 10  3  0  0  0  0
 14  3  1  0  0  0  0
 15 14  1  0  0  0  0
 16 15  2  0  0  0  0
 17 15  1  0  0  0  0
 17 18  1  0  0  0  0
 19 17  1  0  0  0  0
 20 17  1  0  0  0  0
M  END
