Coordinates from ORCA-job Ph-N2-OAc-B3LYPG-6-31G_dp-MTMO-d009-169-n800
 OpenBabel09051908423D

 20 19  0  0  0  0  0  0  0  0999 V2000
   11.5953    6.0932    2.7683 C   0  0  0  0  0  0  0  0  0  0  0  0
   10.5906    5.1348    2.6400 C   0  0  0  0  0  0  0  0  0  0  0  0
   10.9273    3.7821    2.6632 C   0  0  0  0  0  0  0  0  0  0  0  0
   12.2511    3.3680    2.8165 C   0  0  0  0  0  0  0  0  0  0  0  0
   13.2457    4.3394    2.9401 C   0  0  0  0  0  0  0  0  0  0  0  0
   12.9264    5.6986    2.9166 C   0  0  0  0  0  0  0  0  0  0  0  0
   11.3348    7.1476    2.7515 H   0  0  0  0  0  0  0  0  0  0  0  0
    9.5492    5.4171    2.5255 H   0  0  0  0  0  0  0  0  0  0  0  0
   13.4014   -1.0728    0.7772 N   0  0  0  0  0  0  0  0  0  0  0  0
   13.4780   -0.3595    1.6178 N   0  0  0  0  0  0  0  0  0  0  0  0
   13.7094    6.4444    3.0150 H   0  0  0  0  0  0  0  0  0  0  0  0
   14.2788    4.0256    3.0578 H   0  0  0  0  0  0  0  0  0  0  0  0
   12.5000    2.3149    2.8268 H   0  0  0  0  0  0  0  0  0  0  0  0
    9.8518    2.8913    2.6069 O   0  0  0  0  0  0  0  0  0  0  0  0
    9.8982    1.7577    1.8403 C   0  0  0  0  0  0  0  0  0  0  0  0
   10.8402    1.4232    1.1641 O   0  0  0  0  0  0  0  0  0  0  0  0
    8.5949    1.0081    1.9735 C   0  0  0  0  0  0  0  0  0  0  0  0
    8.4113    0.7596    3.0226 H   0  0  0  0  0  0  0  0  0  0  0  0
    7.7652    1.6373    1.6383 H   0  0  0  0  0  0  0  0  0  0  0  0
    8.6378    0.0989    1.3757 H   0  0  0  0  0  0  0  0  0  0  0  0
  1  6  2  0  0  0  0
  2  3  2  0  0  0  0
  2  1  1  0  0  0  0
  3  4  1  0  0  0  0
  4 13  1  0  0  0  0
  4  5  2  0  0  0  0
  5 12  1  0  0  0  0
  6  5  1  0  0  0  0
  6 11  1  0  0  0  0
  7  1  1  0  0  0  0
  8  2  1  0  0  0  0
  9 10  3  0  0  0  0
 14  3  1  0  0  0  0
 15 17  1  0  0  0  0
 15 14  1  0  0  0  0
 16 15  2  0  0  0  0
 17 18  1  0  0  0  0
 19 17  1  0  0  0  0
 20 17  1  0  0  0  0
M  END
