Coordinates from ORCA-job Ph-N2-OAc-B3LYPG-6-31G_dp-MTMO-d009-169-n800
 OpenBabel09051908423D

 20 19  0  0  0  0  0  0  0  0999 V2000
   11.4947    6.2770    2.5257 C   0  0  0  0  0  0  0  0  0  0  0  0
   10.6188    5.2035    2.3660 C   0  0  0  0  0  0  0  0  0  0  0  0
   11.0307    3.9235    2.7338 C   0  0  0  0  0  0  0  0  0  0  0  0
   12.3020    3.6968    3.2620 C   0  0  0  0  0  0  0  0  0  0  0  0
   13.1689    4.7803    3.4127 C   0  0  0  0  0  0  0  0  0  0  0  0
   12.7729    6.0685    3.0473 C   0  0  0  0  0  0  0  0  0  0  0  0
   11.1762    7.2751    2.2399 H   0  0  0  0  0  0  0  0  0  0  0  0
    9.6201    5.3409    1.9654 H   0  0  0  0  0  0  0  0  0  0  0  0
   12.3864   -1.8728   -0.1790 N   0  0  0  0  0  0  0  0  0  0  0  0
   11.3994   -1.6252    0.2520 N   0  0  0  0  0  0  0  0  0  0  0  0
   13.4553    6.9041    3.1703 H   0  0  0  0  0  0  0  0  0  0  0  0
   14.1611    4.6117    3.8205 H   0  0  0  0  0  0  0  0  0  0  0  0
   12.6091    2.6970    3.5393 H   0  0  0  0  0  0  0  0  0  0  0  0
   10.0680    2.9178    2.6156 O   0  0  0  0  0  0  0  0  0  0  0  0
   10.3783    1.6902    2.0907 C   0  0  0  0  0  0  0  0  0  0  0  0
   11.4736    1.3718    1.6967 O   0  0  0  0  0  0  0  0  0  0  0  0
    9.1475    0.8174    2.0892 C   0  0  0  0  0  0  0  0  0  0  0  0
    8.8050    0.6594    3.1162 H   0  0  0  0  0  0  0  0  0  0  0  0
    8.3352    1.3112    1.5486 H   0  0  0  0  0  0  0  0  0  0  0  0
    9.3841   -0.1386    1.6247 H   0  0  0  0  0  0  0  0  0  0  0  0
  1  6  1  0  0  0  0
  2  1  2  0  0  0  0
  2  3  1  0  0  0  0
  3  4  2  0  0  0  0
  4  5  1  0  0  0  0
  4 13  1  0  0  0  0
  5 12  1  0  0  0  0
  6 11  1  0  0  0  0
  6  5  2  0  0  0  0
  7  1  1  0  0  0  0
  8  2  1  0  0  0  0
  9 10  3  0  0  0  0
 14  3  1  0  0  0  0
 15 14  1  0  0  0  0
 16 15  2  0  0  0  0
 17 15  1  0  0  0  0
 17 18  1  0  0  0  0
 19 17  1  0  0  0  0
 20 17  1  0  0  0  0
M  END
