Coordinates from ORCA-job Ph-N2-OAc-B3LYPG-6-31G_dp-MTMO-d009-169-n800
 OpenBabel09051908423D

 20 19  0  0  0  0  0  0  0  0999 V2000
   11.4543    6.3356    2.5797 C   0  0  0  0  0  0  0  0  0  0  0  0
   10.6083    5.2425    2.3934 C   0  0  0  0  0  0  0  0  0  0  0  0
   11.0503    3.9671    2.7422 C   0  0  0  0  0  0  0  0  0  0  0  0
   12.3228    3.7643    3.2774 C   0  0  0  0  0  0  0  0  0  0  0  0
   13.1596    4.8674    3.4548 C   0  0  0  0  0  0  0  0  0  0  0  0
   12.7331    6.1512    3.1088 C   0  0  0  0  0  0  0  0  0  0  0  0
   11.1119    7.3299    2.3089 H   0  0  0  0  0  0  0  0  0  0  0  0
    9.6096    5.3609    1.9868 H   0  0  0  0  0  0  0  0  0  0  0  0
   12.0919   -2.4086   -0.2694 N   0  0  0  0  0  0  0  0  0  0  0  0
   11.2060   -1.9490    0.2049 N   0  0  0  0  0  0  0  0  0  0  0  0
   13.3922    7.0019    3.2525 H   0  0  0  0  0  0  0  0  0  0  0  0
   14.1525    4.7174    3.8680 H   0  0  0  0  0  0  0  0  0  0  0  0
   12.6541    2.7683    3.5395 H   0  0  0  0  0  0  0  0  0  0  0  0
   10.1140    2.9404    2.5976 O   0  0  0  0  0  0  0  0  0  0  0  0
   10.4609    1.7254    2.0654 C   0  0  0  0  0  0  0  0  0  0  0  0
   11.5690    1.4352    1.6867 O   0  0  0  0  0  0  0  0  0  0  0  0
    9.2503    0.8253    2.0348 C   0  0  0  0  0  0  0  0  0  0  0  0
    8.8975    0.6455    3.0547 H   0  0  0  0  0  0  0  0  0  0  0  0
    8.4342    1.3077    1.4895 H   0  0  0  0  0  0  0  0  0  0  0  0
    9.5149   -0.1189    1.5614 H   0  0  0  0  0  0  0  0  0  0  0  0
  1  6  1  0  0  0  0
  2  1  2  0  0  0  0
  2  3  1  0  0  0  0
  3  4  2  0  0  0  0
  4  5  1  0  0  0  0
  4 13  1  0  0  0  0
  5 12  1  0  0  0  0
  6 11  1  0  0  0  0
  6  5  2  0  0  0  0
  7  1  1  0  0  0  0
  8  2  1  0  0  0  0
  9 10  3  0  0  0  0
 14  3  1  0  0  0  0
 15 14  1  0  0  0  0
 16 15  2  0  0  0  0
 17 15  1  0  0  0  0
 17 18  1  0  0  0  0
 19 17  1  0  0  0  0
 20 17  1  0  0  0  0
M  END
