Coordinates from ORCA-job Ph-N2-OAc-B3LYPG-6-31G_dp-MTMO-d009-169-n800
 OpenBabel09051908423D

 20 19  0  0  0  0  0  0  0  0999 V2000
   11.1389    6.7497    2.8119 C   0  0  0  0  0  0  0  0  0  0  0  0
   10.5941    5.5076    2.4876 C   0  0  0  0  0  0  0  0  0  0  0  0
   11.2685    4.3451    2.8594 C   0  0  0  0  0  0  0  0  0  0  0  0
   12.4773    4.4018    3.5544 C   0  0  0  0  0  0  0  0  0  0  0  0
   13.0120    5.6526    3.8682 C   0  0  0  0  0  0  0  0  0  0  0  0
   12.3508    6.8260    3.5008 C   0  0  0  0  0  0  0  0  0  0  0  0
   10.6148    7.6561    2.5241 H   0  0  0  0  0  0  0  0  0  0  0  0
    9.6517    5.4228    1.9569 H   0  0  0  0  0  0  0  0  0  0  0  0
    8.9484   -6.4065   -1.3403 N   0  0  0  0  0  0  0  0  0  0  0  0
    9.1053   -5.3833   -0.9530 N   0  0  0  0  0  0  0  0  0  0  0  0
   12.7759    7.7928    3.7520 H   0  0  0  0  0  0  0  0  0  0  0  0
   13.9550    5.7050    4.4041 H   0  0  0  0  0  0  0  0  0  0  0  0
   12.9923    3.4923    3.8329 H   0  0  0  0  0  0  0  0  0  0  0  0
   10.6126    3.1479    2.5626 O   0  0  0  0  0  0  0  0  0  0  0  0
   11.2896    2.0585    2.0795 C   0  0  0  0  0  0  0  0  0  0  0  0
   12.4791    2.0211    1.8831 O   0  0  0  0  0  0  0  0  0  0  0  0
   10.3154    0.9326    1.8325 C   0  0  0  0  0  0  0  0  0  0  0  0
    9.7746    0.6949    2.7531 H   0  0  0  0  0  0  0  0  0  0  0  0
    9.5734    1.2365    1.0880 H   0  0  0  0  0  0  0  0  0  0  0  0
   10.8578    0.0562    1.4798 H   0  0  0  0  0  0  0  0  0  0  0  0
  1  6  1  0  0  0  0
  2  1  2  0  0  0  0
  2  3  1  0  0  0  0
  3  4  2  0  0  0  0
  4 13  1  0  0  0  0
  4  5  1  0  0  0  0
  5 12  1  0  0  0  0
  6 11  1  0  0  0  0
  6  5  2  0  0  0  0
  7  1  1  0  0  0  0
  8  2  1  0  0  0  0
  9 10  3  0  0  0  0
 14  3  1  0  0  0  0
 15 14  1  0  0  0  0
 16 15  2  0  0  0  0
 17 15  1  0  0  0  0
 17 18  1  0  0  0  0
 19 17  1  0  0  0  0
 20 17  1  0  0  0  0
M  END
