Coordinates from ORCA-job Ph-N2-OAc-B3LYPG-6-31G_dp-MTMO-d009-169-n800
 OpenBabel09051908423D

 20 19  0  0  0  0  0  0  0  0999 V2000
   11.0909    6.8876    2.8665 C   0  0  0  0  0  0  0  0  0  0  0  0
   10.6177    5.6234    2.5168 C   0  0  0  0  0  0  0  0  0  0  0  0
   11.3302    4.4912    2.9106 C   0  0  0  0  0  0  0  0  0  0  0  0
   12.5070    4.6000    3.6529 C   0  0  0  0  0  0  0  0  0  0  0  0
   12.9701    5.8726    3.9918 C   0  0  0  0  0  0  0  0  0  0  0  0
   12.2702    7.0161    3.6028 C   0  0  0  0  0  0  0  0  0  0  0  0
   10.5369    7.7703    2.5615 H   0  0  0  0  0  0  0  0  0  0  0  0
    9.7016    5.4978    1.9492 H   0  0  0  0  0  0  0  0  0  0  0  0
    8.2088   -7.7796   -1.8750 N   0  0  0  0  0  0  0  0  0  0  0  0
    8.4457   -6.7919   -1.4390 N   0  0  0  0  0  0  0  0  0  0  0  0
   12.6401    8.0002    3.8738 H   0  0  0  0  0  0  0  0  0  0  0  0
   13.8881    5.9658    4.5645 H   0  0  0  0  0  0  0  0  0  0  0  0
   13.0527    3.7140    3.9481 H   0  0  0  0  0  0  0  0  0  0  0  0
   10.7426    3.2670    2.5829 O   0  0  0  0  0  0  0  0  0  0  0  0
   11.4878    2.2112    2.1265 C   0  0  0  0  0  0  0  0  0  0  0  0
   12.6852    2.2275    1.9826 O   0  0  0  0  0  0  0  0  0  0  0  0
   10.5766    1.0445    1.8330 C   0  0  0  0  0  0  0  0  0  0  0  0
   10.0108    0.7746    2.7295 H   0  0  0  0  0  0  0  0  0  0  0  0
    9.8517    1.3206    1.0614 H   0  0  0  0  0  0  0  0  0  0  0  0
   11.1726    0.1967    1.4972 H   0  0  0  0  0  0  0  0  0  0  0  0
  1  6  1  0  0  0  0
  2  1  2  0  0  0  0
  2  3  1  0  0  0  0
  3  4  2  0  0  0  0
  4 13  1  0  0  0  0
  4  5  1  0  0  0  0
  5 12  1  0  0  0  0
  6 11  1  0  0  0  0
  6  5  2  0  0  0  0
  7  1  1  0  0  0  0
  8  2  1  0  0  0  0
  9 10  3  0  0  0  0
 14  3  1  0  0  0  0
 15 14  1  0  0  0  0
 16 15  2  0  0  0  0
 17 15  1  0  0  0  0
 17 18  1  0  0  0  0
 19 17  1  0  0  0  0
 20 17  1  0  0  0  0
M  END
