Coordinates from ORCA-job Ph-N2-OAc-B3LYPG-6-31G_dp-MTMO-d009-169-n800
 OpenBabel09051908423D

 20 19  0  0  0  0  0  0  0  0999 V2000
   11.2324    6.5487    2.7732 C   0  0  0  0  0  0  0  0  0  0  0  0
   10.5765    5.3576    2.4635 C   0  0  0  0  0  0  0  0  0  0  0  0
   11.1814    4.1405    2.7759 C   0  0  0  0  0  0  0  0  0  0  0  0
   12.4303    4.0928    3.3970 C   0  0  0  0  0  0  0  0  0  0  0  0
   13.0760    5.2936    3.6972 C   0  0  0  0  0  0  0  0  0  0  0  0
   12.4853    6.5204    3.3886 C   0  0  0  0  0  0  0  0  0  0  0  0
   10.7626    7.4974    2.5313 H   0  0  0  0  0  0  0  0  0  0  0  0
    9.6010    5.3542    1.9892 H   0  0  0  0  0  0  0  0  0  0  0  0
   10.0647   -4.4617   -0.5511 N   0  0  0  0  0  0  0  0  0  0  0  0
   10.0578   -3.4465   -0.1140 N   0  0  0  0  0  0  0  0  0  0  0  0
   12.9968    7.4476    3.6282 H   0  0  0  0  0  0  0  0  0  0  0  0
   14.0499    5.2645    4.1763 H   0  0  0  0  0  0  0  0  0  0  0  0
   12.8905    3.1421    3.6297 H   0  0  0  0  0  0  0  0  0  0  0  0
   10.4193    3.0026    2.5004 O   0  0  0  0  0  0  0  0  0  0  0  0
   10.9816    1.8685    1.9740 C   0  0  0  0  0  0  0  0  0  0  0  0
   12.1522    1.7407    1.7127 O   0  0  0  0  0  0  0  0  0  0  0  0
    9.9104    0.8239    1.7753 C   0  0  0  0  0  0  0  0  0  0  0  0
    9.4181    0.6076    2.7279 H   0  0  0  0  0  0  0  0  0  0  0  0
    9.1434    1.1989    1.0910 H   0  0  0  0  0  0  0  0  0  0  0  0
   10.3574   -0.0836    1.3715 H   0  0  0  0  0  0  0  0  0  0  0  0
  1  6  1  0  0  0  0
  2  1  2  0  0  0  0
  2  3  1  0  0  0  0
  3  4  2  0  0  0  0
  4 13  1  0  0  0  0
  4  5  1  0  0  0  0
  5 12  1  0  0  0  0
  6 11  1  0  0  0  0
  6  5  2  0  0  0  0
  7  1  1  0  0  0  0
  8  2  1  0  0  0  0
  9 10  3  0  0  0  0
 14  3  1  0  0  0  0
 15 14  1  0  0  0  0
 16 15  2  0  0  0  0
 17 15  1  0  0  0  0
 17 18  1  0  0  0  0
 19 17  1  0  0  0  0
 20 17  1  0  0  0  0
M  END
