Coordinates from ORCA-job Ph-N2-OAc-B3LYPG-6-31G_dp-MTMO-d009-169-n800
 OpenBabel09051908423D

 20 19  0  0  0  0  0  0  0  0999 V2000
   11.1140    6.7820    2.8223 C   0  0  0  0  0  0  0  0  0  0  0  0
   10.5969    5.5302    2.4900 C   0  0  0  0  0  0  0  0  0  0  0  0
   11.2873    4.3799    2.8706 C   0  0  0  0  0  0  0  0  0  0  0  0
   12.4850    4.4583    3.5825 C   0  0  0  0  0  0  0  0  0  0  0  0
   12.9920    5.7187    3.9043 C   0  0  0  0  0  0  0  0  0  0  0  0
   12.3146    6.8800    3.5283 C   0  0  0  0  0  0  0  0  0  0  0  0
   10.5774    7.6787    2.5276 H   0  0  0  0  0  0  0  0  0  0  0  0
    9.6637    5.4284    1.9461 H   0  0  0  0  0  0  0  0  0  0  0  0
    8.7146   -6.7407   -1.4766 N   0  0  0  0  0  0  0  0  0  0  0  0
    8.9030   -5.7265   -1.0796 N   0  0  0  0  0  0  0  0  0  0  0  0
   12.7184    7.8542    3.7857 H   0  0  0  0  0  0  0  0  0  0  0  0
   13.9263    5.7880    4.4533 H   0  0  0  0  0  0  0  0  0  0  0  0
   13.0130    3.5585    3.8677 H   0  0  0  0  0  0  0  0  0  0  0  0
   10.6571    3.1717    2.5632 O   0  0  0  0  0  0  0  0  0  0  0  0
   11.3602    2.0924    2.0952 C   0  0  0  0  0  0  0  0  0  0  0  0
   12.5537    2.0731    1.9217 O   0  0  0  0  0  0  0  0  0  0  0  0
   10.4086    0.9511    1.8311 C   0  0  0  0  0  0  0  0  0  0  0  0
    9.8542    0.7058    2.7416 H   0  0  0  0  0  0  0  0  0  0  0  0
    9.6761    1.2426    1.0724 H   0  0  0  0  0  0  0  0  0  0  0  0
   10.9714    0.0831    1.4899 H   0  0  0  0  0  0  0  0  0  0  0  0
  1  6  1  0  0  0  0
  2  1  2  0  0  0  0
  2  3  1  0  0  0  0
  3  4  2  0  0  0  0
  4 13  1  0  0  0  0
  4  5  1  0  0  0  0
  5 12  1  0  0  0  0
  6 11  1  0  0  0  0
  6  5  2  0  0  0  0
  7  1  1  0  0  0  0
  8  2  1  0  0  0  0
  9 10  3  0  0  0  0
 14  3  1  0  0  0  0
 15 14  1  0  0  0  0
 16 15  2  0  0  0  0
 17 15  1  0  0  0  0
 17 18  1  0  0  0  0
 19 17  1  0  0  0  0
 20 17  1  0  0  0  0
M  END
