Coordinates from ORCA-job Ph-N2-OAc-B3LYPG-6-31G_dp-MTMO-d009-169-n800
 OpenBabel09051908423D

 20 19  0  0  0  0  0  0  0  0999 V2000
   11.9324    5.7642    2.2514 C   0  0  0  0  0  0  0  0  0  0  0  0
   10.8470    4.8986    2.1151 C   0  0  0  0  0  0  0  0  0  0  0  0
   10.9165    3.6199    2.6667 C   0  0  0  0  0  0  0  0  0  0  0  0
   12.0510    3.1909    3.3571 C   0  0  0  0  0  0  0  0  0  0  0  0
   13.1310    4.0672    3.4814 C   0  0  0  0  0  0  0  0  0  0  0  0
   13.0786    5.3502    2.9329 C   0  0  0  0  0  0  0  0  0  0  0  0
   11.8798    6.7608    1.8236 H   0  0  0  0  0  0  0  0  0  0  0  0
    9.9444    5.1987    1.5933 H   0  0  0  0  0  0  0  0  0  0  0  0
   13.1180    1.2204   -0.1785 N   0  0  0  0  0  0  0  0  0  0  0  0
   13.8584    1.1573    0.6395 N   0  0  0  0  0  0  0  0  0  0  0  0
   13.9247    6.0226    3.0380 H   0  0  0  0  0  0  0  0  0  0  0  0
   14.0192    3.7390    4.0131 H   0  0  0  0  0  0  0  0  0  0  0  0
   12.0935    2.1948    3.7765 H   0  0  0  0  0  0  0  0  0  0  0  0
    9.7567    2.8491    2.5506 O   0  0  0  0  0  0  0  0  0  0  0  0
    9.8105    1.5171    2.2363 C   0  0  0  0  0  0  0  0  0  0  0  0
   10.8281    0.8972    2.0460 O   0  0  0  0  0  0  0  0  0  0  0  0
    8.4099    0.9607    2.1618 C   0  0  0  0  0  0  0  0  0  0  0  0
    7.8879    1.1262    3.1092 H   0  0  0  0  0  0  0  0  0  0  0  0
    7.8428    1.4794    1.3832 H   0  0  0  0  0  0  0  0  0  0  0  0
    8.4568   -0.1049    1.9402 H   0  0  0  0  0  0  0  0  0  0  0  0
  1  6  1  0  0  0  0
  2  1  2  0  0  0  0
  2  3  1  0  0  0  0
  3  4  2  0  0  0  0
  4  5  1  0  0  0  0
  4 13  1  0  0  0  0
  5 12  1  0  0  0  0
  6 11  1  0  0  0  0
  6  5  2  0  0  0  0
  7  1  1  0  0  0  0
  8  2  1  0  0  0  0
  9 10  3  0  0  0  0
 14  3  1  0  0  0  0
 15 14  1  0  0  0  0
 16 15  2  0  0  0  0
 17 15  1  0  0  0  0
 17 18  1  0  0  0  0
 19 17  1  0  0  0  0
 20 17  1  0  0  0  0
M  END
