Coordinates from ORCA-job Ph-N2-OAc-B3LYPG-6-31G_dp-MTMO-d009-169-n800
 OpenBabel09051908423D

 20 19  0  0  0  0  0  0  0  0999 V2000
   11.3313    6.4515    2.6830 C   0  0  0  0  0  0  0  0  0  0  0  0
   10.5879    5.2997    2.4261 C   0  0  0  0  0  0  0  0  0  0  0  0
   11.1187    4.0537    2.7575 C   0  0  0  0  0  0  0  0  0  0  0  0
   12.3794    3.9381    3.3447 C   0  0  0  0  0  0  0  0  0  0  0  0
   13.1132    5.0995    3.5921 C   0  0  0  0  0  0  0  0  0  0  0  0
   12.5970    6.3548    3.2644 C   0  0  0  0  0  0  0  0  0  0  0  0
   10.9197    7.4230    2.4263 H   0  0  0  0  0  0  0  0  0  0  0  0
    9.6011    5.3496    1.9785 H   0  0  0  0  0  0  0  0  0  0  0  0
   11.0029   -3.4871   -0.4340 N   0  0  0  0  0  0  0  0  0  0  0  0
   10.5536   -2.6547    0.1374 N   0  0  0  0  0  0  0  0  0  0  0  0
   13.1764    7.2512    3.4627 H   0  0  0  0  0  0  0  0  0  0  0  0
   14.0965    5.0175    4.0451 H   0  0  0  0  0  0  0  0  0  0  0  0
   12.7806    2.9645    3.5925 H   0  0  0  0  0  0  0  0  0  0  0  0
   10.2772    2.9603    2.5399 O   0  0  0  0  0  0  0  0  0  0  0  0
   10.7479    1.7920    1.9972 C   0  0  0  0  0  0  0  0  0  0  0  0
   11.8936    1.6018    1.6713 O   0  0  0  0  0  0  0  0  0  0  0  0
    9.6161    0.8011    1.8794 C   0  0  0  0  0  0  0  0  0  0  0  0
    9.2136    0.5790    2.8722 H   0  0  0  0  0  0  0  0  0  0  0  0
    8.8013    1.2281    1.2876 H   0  0  0  0  0  0  0  0  0  0  0  0
    9.9795   -0.1138    1.4134 H   0  0  0  0  0  0  0  0  0  0  0  0
  1  6  1  0  0  0  0
  2  1  2  0  0  0  0
  2  3  1  0  0  0  0
  3  4  2  0  0  0  0
  4  5  1  0  0  0  0
  4 13  1  0  0  0  0
  5 12  1  0  0  0  0
  6 11  1  0  0  0  0
  6  5  2  0  0  0  0
  7  1  1  0  0  0  0
  8  2  1  0  0  0  0
  9 10  3  0  0  0  0
 14  3  1  0  0  0  0
 15 14  1  0  0  0  0
 16 15  2  0  0  0  0
 17 15  1  0  0  0  0
 17 18  1  0  0  0  0
 19 17  1  0  0  0  0
 20 17  1  0  0  0  0
M  END
