Coordinates from ORCA-job Ph-N2-OAc-B3LYPG-6-31G_dp-MTMO-d009-169-n800
 OpenBabel09051908423D

 20 18  0  0  0  0  0  0  0  0999 V2000
   12.8808    6.0584    2.2842 C   0  0  0  0  0  0  0  0  0  0  0  0
   12.5091    5.3137    1.1520 C   0  0  0  0  0  0  0  0  0  0  0  0
   12.1108    4.0500    1.4831 C   0  0  0  0  0  0  0  0  0  0  0  0
   12.0322    3.3645    2.6362 C   0  0  0  0  0  0  0  0  0  0  0  0
   12.4232    4.1562    3.7382 C   0  0  0  0  0  0  0  0  0  0  0  0
   12.8370    5.4788    3.5583 C   0  0  0  0  0  0  0  0  0  0  0  0
   13.2034    7.0867    2.1539 H   0  0  0  0  0  0  0  0  0  0  0  0
   12.5288    5.7060    0.1435 H   0  0  0  0  0  0  0  0  0  0  0  0
   11.6094    2.9579   -0.0670 N   0  0  0  0  0  0  0  0  0  0  0  0
   10.8588    2.1246   -0.1875 N   0  0  0  0  0  0  0  0  0  0  0  0
   13.1351    6.0673    4.4201 H   0  0  0  0  0  0  0  0  0  0  0  0
   12.3989    3.7126    4.7295 H   0  0  0  0  0  0  0  0  0  0  0  0
   11.6813    2.2989    2.7165 H   0  0  0  0  0  0  0  0  0  0  0  0
    9.4154    1.8250    1.3869 O   0  0  0  0  0  0  0  0  0  0  0  0
    9.7421    0.9962    2.2962 C   0  0  0  0  0  0  0  0  0  0  0  0
   10.8887    0.8025    2.7680 O   0  0  0  0  0  0  0  0  0  0  0  0
    8.5875    0.1434    2.8434 C   0  0  0  0  0  0  0  0  0  0  0  0
    7.6401    0.6813    2.7787 H   0  0  0  0  0  0  0  0  0  0  0  0
    8.5082   -0.7608    2.2309 H   0  0  0  0  0  0  0  0  0  0  0  0
    8.7965   -0.1535    3.8723 H   0  0  0  0  0  0  0  0  0  0  0  0
  1  6  2  0  0  0  0
  2  3  2  0  0  0  0
  2  1  1  0  0  0  0
  3  4  1  0  0  0  0
  4 13  1  0  0  0  0
  4  5  2  0  0  0  0
  5 12  1  0  0  0  0
  6  5  1  0  0  0  0
  6 11  1  0  0  0  0
  7  1  1  0  0  0  0
  8  2  1  0  0  0  0
 10  9  3  0  0  0  0
 14 15  2  0  0  0  0
 15 16  1  0  0  0  0
 15 17  1  0  0  0  0
 17 20  1  0  0  0  0
 18 17  1  0  0  0  0
 19 17  1  0  0  0  0
M  RAD  2   3   2  16   2
M  END
