Coordinates from ORCA-job Ph-N2-OAc-B3LYPG-6-31G_dp-MTMO-d009-169-n800
 OpenBabel09051908423D

 20 18  0  0  0  0  0  0  0  0999 V2000
   13.2230    6.0847    2.2856 C   0  0  0  0  0  0  0  0  0  0  0  0
   12.6983    5.4770    1.1246 C   0  0  0  0  0  0  0  0  0  0  0  0
   12.1009    4.3034    1.4936 C   0  0  0  0  0  0  0  0  0  0  0  0
   11.9118    3.6601    2.5689 C   0  0  0  0  0  0  0  0  0  0  0  0
   12.4365    4.2600    3.7337 C   0  0  0  0  0  0  0  0  0  0  0  0
   13.0934    5.4889    3.5529 C   0  0  0  0  0  0  0  0  0  0  0  0
   13.7349    7.0378    2.1861 H   0  0  0  0  0  0  0  0  0  0  0  0
   12.7733    5.8977    0.1299 H   0  0  0  0  0  0  0  0  0  0  0  0
   11.3167    3.4174   -0.4104 N   0  0  0  0  0  0  0  0  0  0  0  0
   10.8022    2.5103   -0.7810 N   0  0  0  0  0  0  0  0  0  0  0  0
   13.5140    5.9970    4.4166 H   0  0  0  0  0  0  0  0  0  0  0  0
   12.3454    3.8144    4.7205 H   0  0  0  0  0  0  0  0  0  0  0  0
   10.9465    1.9910    2.8684 H   0  0  0  0  0  0  0  0  0  0  0  0
    9.1415    1.6234    1.4390 O   0  0  0  0  0  0  0  0  0  0  0  0
    9.4127    0.9556    2.4172 C   0  0  0  0  0  0  0  0  0  0  0  0
   10.4758    1.1846    3.2064 O   0  0  0  0  0  0  0  0  0  0  0  0
    8.6074   -0.2295    2.9005 C   0  0  0  0  0  0  0  0  0  0  0  0
    7.7585   -0.3901    2.2373 H   0  0  0  0  0  0  0  0  0  0  0  0
    9.2380   -1.1233    2.9265 H   0  0  0  0  0  0  0  0  0  0  0  0
    8.2566   -0.0510    3.9212 H   0  0  0  0  0  0  0  0  0  0  0  0
  1  6  2  0  0  0  0
  2  3  2  0  0  0  0
  2  1  1  0  0  0  0
  3  4  1  0  0  0  0
  4  5  2  0  0  0  0
  5 12  1  0  0  0  0
  6  5  1  0  0  0  0
  6 11  1  0  0  0  0
  7  1  1  0  0  0  0
  8  2  1  0  0  0  0
 10  9  3  0  0  0  0
 13 16  1  0  0  0  0
 14 15  2  0  0  0  0
 15 17  1  0  0  0  0
 15 16  1  0  0  0  0
 17 19  1  0  0  0  0
 17 20  1  0  0  0  0
 18 17  1  0  0  0  0
M  RAD  2   3   2   4   2
M  END
