Coordinates from ORCA-job Ph-N2-OAc-B3LYPG-6-31G_dp-MTMO-d009-169-n800
 OpenBabel09051908423D

 20 18  0  0  0  0  0  0  0  0999 V2000
   13.1601    6.0490    2.2503 C   0  0  0  0  0  0  0  0  0  0  0  0
   12.3814    5.2834    1.3497 C   0  0  0  0  0  0  0  0  0  0  0  0
   11.9403    4.1724    2.0219 C   0  0  0  0  0  0  0  0  0  0  0  0
   12.0783    3.7449    3.1938 C   0  0  0  0  0  0  0  0  0  0  0  0
   12.8417    4.4675    4.1194 C   0  0  0  0  0  0  0  0  0  0  0  0
   13.3801    5.6541    3.5829 C   0  0  0  0  0  0  0  0  0  0  0  0
   13.6012    6.9746    1.8894 H   0  0  0  0  0  0  0  0  0  0  0  0
   12.1972    5.5611    0.3203 H   0  0  0  0  0  0  0  0  0  0  0  0
   10.9461    3.1930   -0.9718 N   0  0  0  0  0  0  0  0  0  0  0  0
   10.6399    2.2999   -1.5456 N   0  0  0  0  0  0  0  0  0  0  0  0
   13.9871    6.2904    4.2222 H   0  0  0  0  0  0  0  0  0  0  0  0
   13.0165    4.1742    5.1495 H   0  0  0  0  0  0  0  0  0  0  0  0
   10.7556    2.0204    3.3307 H   0  0  0  0  0  0  0  0  0  0  0  0
    9.6147    1.5597    1.3673 O   0  0  0  0  0  0  0  0  0  0  0  0
    9.4914    0.9518    2.4106 C   0  0  0  0  0  0  0  0  0  0  0  0
   10.1792    1.2519    3.5308 O   0  0  0  0  0  0  0  0  0  0  0  0
    8.5631   -0.2193    2.6301 C   0  0  0  0  0  0  0  0  0  0  0  0
    8.0434   -0.4525    1.7015 H   0  0  0  0  0  0  0  0  0  0  0  0
    9.1316   -1.0895    2.9710 H   0  0  0  0  0  0  0  0  0  0  0  0
    7.8384    0.0225    3.4135 H   0  0  0  0  0  0  0  0  0  0  0  0
  1  6  2  0  0  0  0
  2  3  2  0  0  0  0
  2  1  1  0  0  0  0
  3  4  1  0  0  0  0
  4  5  2  0  0  0  0
  5 12  1  0  0  0  0
  6  5  1  0  0  0  0
  6 11  1  0  0  0  0
  7  1  1  0  0  0  0
  8  2  1  0  0  0  0
 10  9  3  0  0  0  0
 13 16  1  0  0  0  0
 14 15  2  0  0  0  0
 15 17  1  0  0  0  0
 15 16  1  0  0  0  0
 17 19  1  0  0  0  0
 17 20  1  0  0  0  0
 18 17  1  0  0  0  0
M  RAD  2   3   2   4   2
M  END
