Coordinates from ORCA-job Ph-N2-OAc-B3LYPG-6-31G_dp-MTMO-d009-169-n800
 OpenBabel09051908423D

 20 19  0  0  0  0  0  0  0  0999 V2000
   11.1354    6.7528    2.8142 C   0  0  0  0  0  0  0  0  0  0  0  0
   10.5940    5.5097    2.4883 C   0  0  0  0  0  0  0  0  0  0  0  0
   11.2709    4.3484    2.8594 C   0  0  0  0  0  0  0  0  0  0  0  0
   12.4790    4.4073    3.5554 C   0  0  0  0  0  0  0  0  0  0  0  0
   13.0103    5.6591    3.8709 C   0  0  0  0  0  0  0  0  0  0  0  0
   12.3466    6.8313    3.5043 C   0  0  0  0  0  0  0  0  0  0  0  0
   10.6093    7.6582    2.5269 H   0  0  0  0  0  0  0  0  0  0  0  0
    9.6522    5.4231    1.9568 H   0  0  0  0  0  0  0  0  0  0  0  0
    8.9252   -6.4373   -1.3511 N   0  0  0  0  0  0  0  0  0  0  0  0
    9.0858   -5.4146   -0.9640 N   0  0  0  0  0  0  0  0  0  0  0  0
   12.7692    7.7989    3.7567 H   0  0  0  0  0  0  0  0  0  0  0  0
   13.9527    5.7133    4.4077 H   0  0  0  0  0  0  0  0  0  0  0  0
   12.9962    3.4989    3.8333 H   0  0  0  0  0  0  0  0  0  0  0  0
   10.6177    3.1504    2.5603 O   0  0  0  0  0  0  0  0  0  0  0  0
   11.2972    2.0605    2.0819 C   0  0  0  0  0  0  0  0  0  0  0  0
   12.4877    2.0230    1.8915 O   0  0  0  0  0  0  0  0  0  0  0  0
   10.3244    0.9343    1.8311 C   0  0  0  0  0  0  0  0  0  0  0  0
    9.7786    0.6978    2.7491 H   0  0  0  0  0  0  0  0  0  0  0  0
    9.5864    1.2371    1.0823 H   0  0  0  0  0  0  0  0  0  0  0  0
   10.8687    0.0575    1.4825 H   0  0  0  0  0  0  0  0  0  0  0  0
  1  6  1  0  0  0  0
  2  1  2  0  0  0  0
  2  3  1  0  0  0  0
  3  4  2  0  0  0  0
  4 13  1  0  0  0  0
  4  5  1  0  0  0  0
  5 12  1  0  0  0  0
  6 11  1  0  0  0  0
  6  5  2  0  0  0  0
  7  1  1  0  0  0  0
  8  2  1  0  0  0  0
  9 10  3  0  0  0  0
 14  3  1  0  0  0  0
 15 14  1  0  0  0  0
 16 15  2  0  0  0  0
 17 15  1  0  0  0  0
 17 18  1  0  0  0  0
 19 17  1  0  0  0  0
 20 17  1  0  0  0  0
M  END
