Coordinates from ORCA-job Ph-N2-OAc-B3LYPG-6-31G_dp-MTMO-d009-169-n800
 OpenBabel09051908423D

 20 20  0  0  0  0  0  0  0  0999 V2000
   12.4054    5.9574    2.3060 C   0  0  0  0  0  0  0  0  0  0  0  0
   12.1599    5.1117    1.2175 C   0  0  0  0  0  0  0  0  0  0  0  0
   12.1097    3.7651    1.5031 C   0  0  0  0  0  0  0  0  0  0  0  0
   12.3246    3.1653    2.7238 C   0  0  0  0  0  0  0  0  0  0  0  0
   12.5783    4.0394    3.7879 C   0  0  0  0  0  0  0  0  0  0  0  0
   12.6145    5.4215    3.5798 C   0  0  0  0  0  0  0  0  0  0  0  0
   12.4413    7.0315    2.1500 H   0  0  0  0  0  0  0  0  0  0  0  0
   12.0094    5.4892    0.2131 H   0  0  0  0  0  0  0  0  0  0  0  0
   11.9051    2.6924    0.1214 N   0  0  0  0  0  0  0  0  0  0  0  0
   11.0705    1.8819    0.0128 N   0  0  0  0  0  0  0  0  0  0  0  0
   12.8138    6.0854    4.4152 H   0  0  0  0  0  0  0  0  0  0  0  0
   12.7490    3.6314    4.7796 H   0  0  0  0  0  0  0  0  0  0  0  0
   12.2740    2.0867    2.8401 H   0  0  0  0  0  0  0  0  0  0  0  0
    9.8122    1.9421    1.2212 O   0  0  0  0  0  0  0  0  0  0  0  0
    9.9410    0.9313    2.0660 C   0  0  0  0  0  0  0  0  0  0  0  0
   10.9694    0.2935    2.2466 O   0  0  0  0  0  0  0  0  0  0  0  0
    8.6435    0.6516    2.8118 C   0  0  0  0  0  0  0  0  0  0  0  0
    8.1622    1.5814    3.1246 H   0  0  0  0  0  0  0  0  0  0  0  0
    7.9520    0.1309    2.1409 H   0  0  0  0  0  0  0  0  0  0  0  0
    8.8517    0.0201    3.6762 H   0  0  0  0  0  0  0  0  0  0  0  0
  1  6  2  0  0  0  0
  2  3  2  0  0  0  0
  2  1  1  0  0  0  0
  3  4  1  0  0  0  0
  4 13  1  0  0  0  0
  4  5  2  0  0  0  0
  5 12  1  0  0  0  0
  6  5  1  0  0  0  0
  6 11  1  0  0  0  0
  7  1  1  0  0  0  0
  8  2  1  0  0  0  0
  9  3  1  0  0  0  0
 10  9  2  0  0  0  0
 10 14  1  0  0  0  0
 14 15  1  0  0  0  0
 15 16  2  0  0  0  0
 15 17  1  0  0  0  0
 17 18  1  0  0  0  0
 17 20  1  0  0  0  0
 19 17  1  0  0  0  0
M  END
