Coordinates from ORCA-job Ph-N2-OAc-B3LYPG-6-31G_dp-MTMO-d009-169-n800
 OpenBabel09051908423D

 20 19  0  0  0  0  0  0  0  0999 V2000
   11.1026    6.8044    2.8306 C   0  0  0  0  0  0  0  0  0  0  0  0
   10.6009    5.5479    2.4926 C   0  0  0  0  0  0  0  0  0  0  0  0
   11.2987    4.4040    2.8791 C   0  0  0  0  0  0  0  0  0  0  0  0
   12.4888    4.4938    3.6025 C   0  0  0  0  0  0  0  0  0  0  0  0
   12.9803    5.7587    3.9300 C   0  0  0  0  0  0  0  0  0  0  0  0
   12.2953    6.9136    3.5481 C   0  0  0  0  0  0  0  0  0  0  0  0
   10.5600    7.6960    2.5313 H   0  0  0  0  0  0  0  0  0  0  0  0
    9.6739    5.4373    1.9399 H   0  0  0  0  0  0  0  0  0  0  0  0
    8.5739   -6.9727   -1.5661 N   0  0  0  0  0  0  0  0  0  0  0  0
    8.7768   -5.9656   -1.1585 N   0  0  0  0  0  0  0  0  0  0  0  0
   12.6871    7.8916    3.8101 H   0  0  0  0  0  0  0  0  0  0  0  0
   13.9085    5.8369    4.4881 H   0  0  0  0  0  0  0  0  0  0  0  0
   13.0227    3.5990    3.8924 H   0  0  0  0  0  0  0  0  0  0  0  0
   10.6834    3.1898    2.5656 O   0  0  0  0  0  0  0  0  0  0  0  0
   11.4008    2.1191    2.0994 C   0  0  0  0  0  0  0  0  0  0  0  0
   12.5953    2.1134    1.9321 O   0  0  0  0  0  0  0  0  0  0  0  0
   10.4632    0.9679    1.8286 C   0  0  0  0  0  0  0  0  0  0  0  0
    9.9078    0.7142    2.7363 H   0  0  0  0  0  0  0  0  0  0  0  0
    9.7306    1.2533    1.0677 H   0  0  0  0  0  0  0  0  0  0  0  0
   11.0370    0.1070    1.4877 H   0  0  0  0  0  0  0  0  0  0  0  0
  1  6  1  0  0  0  0
  2  1  2  0  0  0  0
  2  3  1  0  0  0  0
  3  4  2  0  0  0  0
  4 13  1  0  0  0  0
  4  5  1  0  0  0  0
  5 12  1  0  0  0  0
  6 11  1  0  0  0  0
  6  5  2  0  0  0  0
  7  1  1  0  0  0  0
  8  2  1  0  0  0  0
  9 10  3  0  0  0  0
 14  3  1  0  0  0  0
 15 14  1  0  0  0  0
 16 15  2  0  0  0  0
 17 15  1  0  0  0  0
 17 18  1  0  0  0  0
 19 17  1  0  0  0  0
 20 17  1  0  0  0  0
M  END
