Coordinates from ORCA-job Ph-N2-OAc-B3LYPG-6-31G_dp-MTMO-d009-169-n800
 OpenBabel09051908423D

 20 18  0  0  0  0  0  0  0  0999 V2000
   13.1894    6.1102    2.2951 C   0  0  0  0  0  0  0  0  0  0  0  0
   12.4856    5.4148    1.2829 C   0  0  0  0  0  0  0  0  0  0  0  0
   12.0044    4.2565    1.8344 C   0  0  0  0  0  0  0  0  0  0  0  0
   12.0541    3.7316    2.9739 C   0  0  0  0  0  0  0  0  0  0  0  0
   12.7436    4.3866    4.0042 C   0  0  0  0  0  0  0  0  0  0  0  0
   13.3119    5.6123    3.6054 C   0  0  0  0  0  0  0  0  0  0  0  0
   13.6482    7.0621    2.0404 H   0  0  0  0  0  0  0  0  0  0  0  0
   12.3752    5.7716    0.2671 H   0  0  0  0  0  0  0  0  0  0  0  0
   10.9979    3.1725   -0.8703 N   0  0  0  0  0  0  0  0  0  0  0  0
   10.7761    2.2372   -1.4151 N   0  0  0  0  0  0  0  0  0  0  0  0
   13.8641    6.1971    4.3368 H   0  0  0  0  0  0  0  0  0  0  0  0
   12.8433    4.0140    5.0188 H   0  0  0  0  0  0  0  0  0  0  0  0
   10.8153    2.0121    3.1381 H   0  0  0  0  0  0  0  0  0  0  0  0
    9.3950    1.5631    1.3580 O   0  0  0  0  0  0  0  0  0  0  0  0
    9.4326    0.9432    2.4007 C   0  0  0  0  0  0  0  0  0  0  0  0
   10.2797    1.2337    3.4087 O   0  0  0  0  0  0  0  0  0  0  0  0
    8.5520   -0.2356    2.7433 C   0  0  0  0  0  0  0  0  0  0  0  0
    7.9034   -0.4645    1.8984 H   0  0  0  0  0  0  0  0  0  0  0  0
    9.1682   -1.1047    2.9912 H   0  0  0  0  0  0  0  0  0  0  0  0
    7.9471   -0.0041    3.6255 H   0  0  0  0  0  0  0  0  0  0  0  0
  1  6  2  0  0  0  0
  2  3  2  0  0  0  0
  2  1  1  0  0  0  0
  3  4  1  0  0  0  0
  4  5  2  0  0  0  0
  5 12  1  0  0  0  0
  6  5  1  0  0  0  0
  6 11  1  0  0  0  0
  7  1  1  0  0  0  0
  8  2  1  0  0  0  0
 10  9  3  0  0  0  0
 13 16  1  0  0  0  0
 14 15  2  0  0  0  0
 15 17  1  0  0  0  0
 15 16  1  0  0  0  0
 17 19  1  0  0  0  0
 17 20  1  0  0  0  0
 18 17  1  0  0  0  0
M  RAD  2   3   2   4   2
M  END
