Coordinates from ORCA-job Ph-N2-OAc-B3LYPG-6-31G_dp-MTMO-d009-169-n800
 OpenBabel09051908423D

 20 19  0  0  0  0  0  0  0  0999 V2000
   11.5789    6.1124    2.7804 C   0  0  0  0  0  0  0  0  0  0  0  0
   10.5842    5.1441    2.6491 C   0  0  0  0  0  0  0  0  0  0  0  0
   10.9351    3.7949    2.6663 C   0  0  0  0  0  0  0  0  0  0  0  0
   12.2634    3.3942    2.8160 C   0  0  0  0  0  0  0  0  0  0  0  0
   13.2479    4.3754    2.9428 C   0  0  0  0  0  0  0  0  0  0  0  0
   12.9143    5.7312    2.9255 C   0  0  0  0  0  0  0  0  0  0  0  0
   11.3074    7.1641    2.7685 H   0  0  0  0  0  0  0  0  0  0  0  0
    9.5397    5.4159    2.5372 H   0  0  0  0  0  0  0  0  0  0  0  0
   13.3153   -1.1948    0.7649 N   0  0  0  0  0  0  0  0  0  0  0  0
   13.3814   -0.4990    1.6210 N   0  0  0  0  0  0  0  0  0  0  0  0
   13.6894    6.4848    3.0264 H   0  0  0  0  0  0  0  0  0  0  0  0
   14.2844    4.0720    3.0580 H   0  0  0  0  0  0  0  0  0  0  0  0
   12.5235    2.3437    2.8222 H   0  0  0  0  0  0  0  0  0  0  0  0
    9.8694    2.8925    2.6085 O   0  0  0  0  0  0  0  0  0  0  0  0
    9.9247    1.7669    1.8306 C   0  0  0  0  0  0  0  0  0  0  0  0
   10.8666    1.4504    1.1457 O   0  0  0  0  0  0  0  0  0  0  0  0
    8.6312    1.0005    1.9643 C   0  0  0  0  0  0  0  0  0  0  0  0
    8.4587    0.7371    3.0116 H   0  0  0  0  0  0  0  0  0  0  0  0
    7.7917    1.6242    1.6433 H   0  0  0  0  0  0  0  0  0  0  0  0
    8.6800    0.0991    1.3552 H   0  0  0  0  0  0  0  0  0  0  0  0
  1  6  2  0  0  0  0
  2  3  2  0  0  0  0
  2  1  1  0  0  0  0
  3  4  1  0  0  0  0
  4 13  1  0  0  0  0
  4  5  2  0  0  0  0
  5 12  1  0  0  0  0
  6  5  1  0  0  0  0
  6 11  1  0  0  0  0
  7  1  1  0  0  0  0
  8  2  1  0  0  0  0
  9 10  3  0  0  0  0
 14  3  1  0  0  0  0
 15 17  1  0  0  0  0
 15 14  1  0  0  0  0
 16 15  2  0  0  0  0
 17 18  1  0  0  0  0
 19 17  1  0  0  0  0
 20 17  1  0  0  0  0
M  END
