Coordinates from ORCA-job Ph-N2-OAc-B3LYPG-6-31G_dp-MTMO-d009-169-n800
 OpenBabel09051908423D

 20 19  0  0  0  0  0  0  0  0999 V2000
   11.4667    6.3203    2.5639 C   0  0  0  0  0  0  0  0  0  0  0  0
   10.6115    5.2331    2.3854 C   0  0  0  0  0  0  0  0  0  0  0  0
   11.0440    3.9561    2.7401 C   0  0  0  0  0  0  0  0  0  0  0  0
   12.3160    3.7459    3.2736 C   0  0  0  0  0  0  0  0  0  0  0  0
   13.1621    4.8431    3.4432 C   0  0  0  0  0  0  0  0  0  0  0  0
   12.7452    6.1284    3.0911 C   0  0  0  0  0  0  0  0  0  0  0  0
   11.1319    7.3159    2.2884 H   0  0  0  0  0  0  0  0  0  0  0  0
    9.6129    5.3575    1.9803 H   0  0  0  0  0  0  0  0  0  0  0  0
   12.1822   -2.2708   -0.2660 N   0  0  0  0  0  0  0  0  0  0  0  0
   11.2765   -1.8654    0.2203 N   0  0  0  0  0  0  0  0  0  0  0  0
   13.4116    6.9745    3.2287 H   0  0  0  0  0  0  0  0  0  0  0  0
   14.1546    4.6873    3.8551 H   0  0  0  0  0  0  0  0  0  0  0  0
   12.6397    2.7486    3.5404 H   0  0  0  0  0  0  0  0  0  0  0  0
   10.0992    2.9362    2.6029 O   0  0  0  0  0  0  0  0  0  0  0  0
   10.4348    1.7161    2.0752 C   0  0  0  0  0  0  0  0  0  0  0  0
   11.5394    1.4157    1.6938 O   0  0  0  0  0  0  0  0  0  0  0  0
    9.2171    0.8253    2.0534 C   0  0  0  0  0  0  0  0  0  0  0  0
    8.8665    0.6536    3.0754 H   0  0  0  0  0  0  0  0  0  0  0  0
    8.4030    1.3115    1.5084 H   0  0  0  0  0  0  0  0  0  0  0  0
    9.4724   -0.1235    1.5838 H   0  0  0  0  0  0  0  0  0  0  0  0
  1  6  1  0  0  0  0
  2  1  2  0  0  0  0
  2  3  1  0  0  0  0
  3  4  2  0  0  0  0
  4  5  1  0  0  0  0
  4 13  1  0  0  0  0
  5 12  1  0  0  0  0
  6 11  1  0  0  0  0
  6  5  2  0  0  0  0
  7  1  1  0  0  0  0
  8  2  1  0  0  0  0
  9 10  3  0  0  0  0
 14  3  1  0  0  0  0
 15 14  1  0  0  0  0
 16 15  2  0  0  0  0
 17 15  1  0  0  0  0
 17 18  1  0  0  0  0
 19 17  1  0  0  0  0
 20 17  1  0  0  0  0
M  END
