Coordinates from ORCA-job Ph-N2-OAc-B3LYPG-6-31G_dp-MTMO-d009-169-n800
 OpenBabel09051908423D

 20 19  0  0  0  0  0  0  0  0999 V2000
   11.0895    6.8570    2.8535 C   0  0  0  0  0  0  0  0  0  0  0  0
   10.6103    5.5941    2.5066 C   0  0  0  0  0  0  0  0  0  0  0  0
   11.3200    4.4597    2.8990 C   0  0  0  0  0  0  0  0  0  0  0  0
   12.4997    4.5648    3.6371 C   0  0  0  0  0  0  0  0  0  0  0  0
   12.9688    5.8359    3.9733 C   0  0  0  0  0  0  0  0  0  0  0  0
   12.2718    6.9817    3.5856 C   0  0  0  0  0  0  0  0  0  0  0  0
   10.5377    7.7414    2.5496 H   0  0  0  0  0  0  0  0  0  0  0  0
    9.6918    5.4714    1.9422 H   0  0  0  0  0  0  0  0  0  0  0  0
    8.3189   -7.4911   -1.7658 N   0  0  0  0  0  0  0  0  0  0  0  0
    8.5448   -6.4986   -1.3350 N   0  0  0  0  0  0  0  0  0  0  0  0
   12.6463    7.9646    3.8544 H   0  0  0  0  0  0  0  0  0  0  0  0
   13.8891    5.9262    4.5427 H   0  0  0  0  0  0  0  0  0  0  0  0
   13.0431    3.6770    3.9312 H   0  0  0  0  0  0  0  0  0  0  0  0
   10.7266    3.2374    2.5745 O   0  0  0  0  0  0  0  0  0  0  0  0
   11.4662    2.1783    2.1167 C   0  0  0  0  0  0  0  0  0  0  0  0
   12.6632    2.1899    1.9685 O   0  0  0  0  0  0  0  0  0  0  0  0
   10.5496    1.0147    1.8277 C   0  0  0  0  0  0  0  0  0  0  0  0
    9.9854    0.7485    2.7263 H   0  0  0  0  0  0  0  0  0  0  0  0
    9.8234    1.2925    1.0579 H   0  0  0  0  0  0  0  0  0  0  0  0
   11.1411    0.1641    1.4913 H   0  0  0  0  0  0  0  0  0  0  0  0
  1  6  1  0  0  0  0
  2  1  2  0  0  0  0
  2  3  1  0  0  0  0
  3  4  2  0  0  0  0
  4 13  1  0  0  0  0
  4  5  1  0  0  0  0
  5 12  1  0  0  0  0
  6 11  1  0  0  0  0
  6  5  2  0  0  0  0
  7  1  1  0  0  0  0
  8  2  1  0  0  0  0
  9 10  3  0  0  0  0
 14  3  1  0  0  0  0
 15 14  1  0  0  0  0
 16 15  2  0  0  0  0
 17 15  1  0  0  0  0
 17 18  1  0  0  0  0
 19 17  1  0  0  0  0
 20 17  1  0  0  0  0
M  END
