Coordinates from ORCA-job Ph-N2-OAc-B3LYPG-6-31G_dp-MTMO-d009-169-n800
 OpenBabel09051908423D

 20 19  0  0  0  0  0  0  0  0999 V2000
   11.0945    6.8244    2.8392 C   0  0  0  0  0  0  0  0  0  0  0  0
   10.6038    5.5646    2.4972 C   0  0  0  0  0  0  0  0  0  0  0  0
   11.3075    4.4256    2.8869 C   0  0  0  0  0  0  0  0  0  0  0  0
   12.4925    4.5230    3.6173 C   0  0  0  0  0  0  0  0  0  0  0  0
   12.9731    5.7912    3.9487 C   0  0  0  0  0  0  0  0  0  0  0  0
   12.2822    6.9415    3.5637 C   0  0  0  0  0  0  0  0  0  0  0  0
   10.5473    7.7124    2.5374 H   0  0  0  0  0  0  0  0  0  0  0  0
    9.6808    5.4479    1.9388 H   0  0  0  0  0  0  0  0  0  0  0  0
    8.4633   -7.1748   -1.6450 N   0  0  0  0  0  0  0  0  0  0  0  0
    8.6751   -6.1742   -1.2261 N   0  0  0  0  0  0  0  0  0  0  0  0
   12.6655    7.9220    3.8287 H   0  0  0  0  0  0  0  0  0  0  0  0
   13.8976    5.8755    4.5122 H   0  0  0  0  0  0  0  0  0  0  0  0
   13.0312    3.6317    3.9095 H   0  0  0  0  0  0  0  0  0  0  0  0
   10.7030    3.2072    2.5683 O   0  0  0  0  0  0  0  0  0  0  0  0
   11.4315    2.1422    2.1064 C   0  0  0  0  0  0  0  0  0  0  0  0
   12.6273    2.1451    1.9488 O   0  0  0  0  0  0  0  0  0  0  0  0
   10.5044    0.9847    1.8266 C   0  0  0  0  0  0  0  0  0  0  0  0
    9.9445    0.7248    2.7297 H   0  0  0  0  0  0  0  0  0  0  0  0
    9.7752    1.2661    1.0611 H   0  0  0  0  0  0  0  0  0  0  0  0
   11.0872    0.1288    1.4881 H   0  0  0  0  0  0  0  0  0  0  0  0
  1  6  1  0  0  0  0
  2  1  2  0  0  0  0
  2  3  1  0  0  0  0
  3  4  2  0  0  0  0
  4 13  1  0  0  0  0
  4  5  1  0  0  0  0
  5 12  1  0  0  0  0
  6 11  1  0  0  0  0
  6  5  2  0  0  0  0
  7  1  1  0  0  0  0
  8  2  1  0  0  0  0
  9 10  3  0  0  0  0
 14  3  1  0  0  0  0
 15 14  1  0  0  0  0
 16 15  2  0  0  0  0
 17 15  1  0  0  0  0
 17 18  1  0  0  0  0
 19 17  1  0  0  0  0
 20 17  1  0  0  0  0
M  END
