Coordinates from ORCA-job Ph-N2-OAc-B3LYPG-6-31G_dp-MTMO-d009-169-n800
 OpenBabel09051908423D

 20 19  0  0  0  0  0  0  0  0999 V2000
   11.4115    6.3865    2.6190 C   0  0  0  0  0  0  0  0  0  0  0  0
   10.6019    5.2710    2.4056 C   0  0  0  0  0  0  0  0  0  0  0  0
   11.0749    4.0054    2.7495 C   0  0  0  0  0  0  0  0  0  0  0  0
   12.3429    3.8344    3.3062 C   0  0  0  0  0  0  0  0  0  0  0  0
   13.1432    4.9596    3.5105 C   0  0  0  0  0  0  0  0  0  0  0  0
   12.6853    6.2340    3.1699 C   0  0  0  0  0  0  0  0  0  0  0  0
   11.0449    7.3733    2.3524 H   0  0  0  0  0  0  0  0  0  0  0  0
    9.6076    5.3644    1.9821 H   0  0  0  0  0  0  0  0  0  0  0  0
   11.7336   -2.8568   -0.3252 N   0  0  0  0  0  0  0  0  0  0  0  0
   10.9237   -2.2618    0.1344 N   0  0  0  0  0  0  0  0  0  0  0  0
   13.3162    7.1021    3.3346 H   0  0  0  0  0  0  0  0  0  0  0  0
   14.1325    4.8344    3.9402 H   0  0  0  0  0  0  0  0  0  0  0  0
   12.6988    2.8457    3.5641 H   0  0  0  0  0  0  0  0  0  0  0  0
   10.1718    2.9538    2.5771 O   0  0  0  0  0  0  0  0  0  0  0  0
   10.5650    1.7548    2.0404 C   0  0  0  0  0  0  0  0  0  0  0  0
   11.6884    1.5016    1.6813 O   0  0  0  0  0  0  0  0  0  0  0  0
    9.3827    0.8194    1.9787 C   0  0  0  0  0  0  0  0  0  0  0  0
    9.0276    0.6065    2.9915 H   0  0  0  0  0  0  0  0  0  0  0  0
    8.5564    1.2882    1.4372 H   0  0  0  0  0  0  0  0  0  0  0  0
    9.6786   -0.1069    1.4881 H   0  0  0  0  0  0  0  0  0  0  0  0
  1  6  1  0  0  0  0
  2  1  2  0  0  0  0
  2  3  1  0  0  0  0
  3  4  2  0  0  0  0
  4  5  1  0  0  0  0
  4 13  1  0  0  0  0
  5 12  1  0  0  0  0
  6 11  1  0  0  0  0
  6  5  2  0  0  0  0
  7  1  1  0  0  0  0
  8  2  1  0  0  0  0
  9 10  3  0  0  0  0
 14  3  1  0  0  0  0
 15 14  1  0  0  0  0
 16 15  2  0  0  0  0
 17 15  1  0  0  0  0
 17 18  1  0  0  0  0
 19 17  1  0  0  0  0
 20 17  1  0  0  0  0
M  END
