Coordinates from ORCA-job Ph-N2-OAc-B3LYPG-6-31G_dp-MTMO-d009-169-n800
 OpenBabel09051908423D

 20 19  0  0  0  0  0  0  0  0999 V2000
   11.1082    6.9763    2.9029 C   0  0  0  0  0  0  0  0  0  0  0  0
   10.6411    5.7108    2.5494 C   0  0  0  0  0  0  0  0  0  0  0  0
   11.3564    4.5807    2.9443 C   0  0  0  0  0  0  0  0  0  0  0  0
   12.5298    4.6927    3.6913 C   0  0  0  0  0  0  0  0  0  0  0  0
   12.9868    5.9666    4.0339 C   0  0  0  0  0  0  0  0  0  0  0  0
   12.2842    7.1081    3.6440 C   0  0  0  0  0  0  0  0  0  0  0  0
   10.5521    7.8573    2.5971 H   0  0  0  0  0  0  0  0  0  0  0  0
    9.7277    5.5826    1.9781 H   0  0  0  0  0  0  0  0  0  0  0  0
    7.9538   -8.5901   -2.1821 N   0  0  0  0  0  0  0  0  0  0  0  0
    8.2042   -7.6082   -1.7406 N   0  0  0  0  0  0  0  0  0  0  0  0
   12.6493    8.0930    3.9178 H   0  0  0  0  0  0  0  0  0  0  0  0
   13.9023    6.0624    4.6103 H   0  0  0  0  0  0  0  0  0  0  0  0
   13.0777    3.8084    3.9873 H   0  0  0  0  0  0  0  0  0  0  0  0
   10.7746    3.3548    2.6123 O   0  0  0  0  0  0  0  0  0  0  0  0
   11.5257    2.3027    2.1571 C   0  0  0  0  0  0  0  0  0  0  0  0
   12.7236    2.3237    2.0180 O   0  0  0  0  0  0  0  0  0  0  0  0
   10.6201    1.1329    1.8579 C   0  0  0  0  0  0  0  0  0  0  0  0
   10.0522    0.8589    2.7518 H   0  0  0  0  0  0  0  0  0  0  0  0
    9.8969    1.4078    1.0843 H   0  0  0  0  0  0  0  0  0  0  0  0
   11.2207    0.2883    1.5225 H   0  0  0  0  0  0  0  0  0  0  0  0
  1  6  1  0  0  0  0
  2  1  2  0  0  0  0
  2  3  1  0  0  0  0
  3  4  2  0  0  0  0
  4 13  1  0  0  0  0
  4  5  1  0  0  0  0
  5 12  1  0  0  0  0
  6 11  1  0  0  0  0
  6  5  2  0  0  0  0
  7  1  1  0  0  0  0
  8  2  1  0  0  0  0
  9 10  3  0  0  0  0
 14  3  1  0  0  0  0
 15 14  1  0  0  0  0
 16 15  2  0  0  0  0
 17 15  1  0  0  0  0
 17 18  1  0  0  0  0
 19 17  1  0  0  0  0
 20 17  1  0  0  0  0
M  END
