Coordinates from ORCA-job Ph-N2-OAc-B3LYPG-6-31G_dp-MTMO-d009-169-n800
 OpenBabel09051908423D

 20 18  0  0  0  0  0  0  0  0999 V2000
   13.1877    6.1174    2.2962 C   0  0  0  0  0  0  0  0  0  0  0  0
   12.5114    5.4460    1.2496 C   0  0  0  0  0  0  0  0  0  0  0  0
   12.0217    4.2730    1.7599 C   0  0  0  0  0  0  0  0  0  0  0  0
   12.0410    3.7154    2.8854 C   0  0  0  0  0  0  0  0  0  0  0  0
   12.7044    4.3491    3.9473 C   0  0  0  0  0  0  0  0  0  0  0  0
   13.2788    5.5861    3.5957 C   0  0  0  0  0  0  0  0  0  0  0  0
   13.6498    7.0765    2.0773 H   0  0  0  0  0  0  0  0  0  0  0  0
   12.4247    5.8272    0.2405 H   0  0  0  0  0  0  0  0  0  0  0  0
   11.0576    3.2096   -0.7859 N   0  0  0  0  0  0  0  0  0  0  0  0
   10.8428    2.2530   -1.2953 N   0  0  0  0  0  0  0  0  0  0  0  0
   13.8104    6.1529    4.3557 H   0  0  0  0  0  0  0  0  0  0  0  0
   12.7794    3.9510    4.9544 H   0  0  0  0  0  0  0  0  0  0  0  0
   10.8276    2.0136    3.0954 H   0  0  0  0  0  0  0  0  0  0  0  0
    9.3378    1.5750    1.3711 O   0  0  0  0  0  0  0  0  0  0  0  0
    9.4174    0.9476    2.4067 C   0  0  0  0  0  0  0  0  0  0  0  0
   10.3030    1.2325    3.3825 O   0  0  0  0  0  0  0  0  0  0  0  0
    8.5536   -0.2362    2.7745 C   0  0  0  0  0  0  0  0  0  0  0  0
    7.8659   -0.4539    1.9580 H   0  0  0  0  0  0  0  0  0  0  0  0
    9.1810   -1.1082    2.9807 H   0  0  0  0  0  0  0  0  0  0  0  0
    7.9914   -0.0179    3.6877 H   0  0  0  0  0  0  0  0  0  0  0  0
  1  6  2  0  0  0  0
  2  3  2  0  0  0  0
  2  1  1  0  0  0  0
  3  4  1  0  0  0  0
  4  5  2  0  0  0  0
  5 12  1  0  0  0  0
  6  5  1  0  0  0  0
  6 11  1  0  0  0  0
  7  1  1  0  0  0  0
  8  2  1  0  0  0  0
 10  9  3  0  0  0  0
 13 16  1  0  0  0  0
 14 15  2  0  0  0  0
 15 17  1  0  0  0  0
 15 16  1  0  0  0  0
 17 19  1  0  0  0  0
 17 20  1  0  0  0  0
 18 17  1  0  0  0  0
M  RAD  2   3   2   4   2
M  END
