Coordinates from ORCA-job Ph-N2-OAc-B3LYPG-6-31G_dp-MTMO-d009-169-n800
 OpenBabel09051908423D

 20 19  0  0  0  0  0  0  0  0999 V2000
   11.1221    7.0303    2.9246 C   0  0  0  0  0  0  0  0  0  0  0  0
   10.6559    5.7647    2.5700 C   0  0  0  0  0  0  0  0  0  0  0  0
   11.3715    4.6349    2.9649 C   0  0  0  0  0  0  0  0  0  0  0  0
   12.5442    4.7471    3.7129 C   0  0  0  0  0  0  0  0  0  0  0  0
   13.0002    6.0210    4.0568 C   0  0  0  0  0  0  0  0  0  0  0  0
   12.2973    7.1623    3.6668 C   0  0  0  0  0  0  0  0  0  0  0  0
   10.5657    7.9112    2.6189 H   0  0  0  0  0  0  0  0  0  0  0  0
    9.7431    5.6364    1.9978 H   0  0  0  0  0  0  0  0  0  0  0  0
    7.8134   -9.0787   -2.3672 N   0  0  0  0  0  0  0  0  0  0  0  0
    8.0672   -8.0979   -1.9253 N   0  0  0  0  0  0  0  0  0  0  0  0
   12.6616    8.1474    3.9416 H   0  0  0  0  0  0  0  0  0  0  0  0
   13.9151    6.1170    4.6340 H   0  0  0  0  0  0  0  0  0  0  0  0
   13.0924    3.8629    4.0089 H   0  0  0  0  0  0  0  0  0  0  0  0
   10.7908    3.4088    2.6317 O   0  0  0  0  0  0  0  0  0  0  0  0
   11.5428    2.3574    2.1764 C   0  0  0  0  0  0  0  0  0  0  0  0
   12.7408    2.3792    2.0383 O   0  0  0  0  0  0  0  0  0  0  0  0
   10.6383    1.1874    1.8757 C   0  0  0  0  0  0  0  0  0  0  0  0
   10.0697    0.9124    2.7689 H   0  0  0  0  0  0  0  0  0  0  0  0
    9.9155    1.4624    1.1016 H   0  0  0  0  0  0  0  0  0  0  0  0
   11.2396    0.3433    1.5402 H   0  0  0  0  0  0  0  0  0  0  0  0
  1  6  1  0  0  0  0
  2  1  2  0  0  0  0
  2  3  1  0  0  0  0
  3  4  2  0  0  0  0
  4 13  1  0  0  0  0
  4  5  1  0  0  0  0
  5 12  1  0  0  0  0
  6 11  1  0  0  0  0
  6  5  2  0  0  0  0
  7  1  1  0  0  0  0
  8  2  1  0  0  0  0
  9 10  3  0  0  0  0
 14  3  1  0  0  0  0
 15 14  1  0  0  0  0
 16 15  2  0  0  0  0
 17 15  1  0  0  0  0
 17 18  1  0  0  0  0
 19 17  1  0  0  0  0
 20 17  1  0  0  0  0
M  END
