Coordinates from ORCA-job Ph-N2-OAc-B3LYPG-6-31G_dp-MTMO-d009-169-n800
 OpenBabel09051908423D

 20 19  0  0  0  0  0  0  0  0999 V2000
   12.5873    6.0170    2.2935 C   0  0  0  0  0  0  0  0  0  0  0  0
   12.2963    5.1997    1.1916 C   0  0  0  0  0  0  0  0  0  0  0  0
   12.1124    3.8775    1.5062 C   0  0  0  0  0  0  0  0  0  0  0  0
   12.2164    3.2373    2.7084 C   0  0  0  0  0  0  0  0  0  0  0  0
   12.5177    4.0921    3.7810 C   0  0  0  0  0  0  0  0  0  0  0  0
   12.6977    5.4627    3.5726 C   0  0  0  0  0  0  0  0  0  0  0  0
   12.7340    7.0819    2.1399 H   0  0  0  0  0  0  0  0  0  0  0  0
   12.2145    5.5811    0.1815 H   0  0  0  0  0  0  0  0  0  0  0  0
   11.8097    2.7555    0.0524 N   0  0  0  0  0  0  0  0  0  0  0  0
   11.0126    1.9341   -0.0499 N   0  0  0  0  0  0  0  0  0  0  0  0
   12.9328    6.1059    4.4147 H   0  0  0  0  0  0  0  0  0  0  0  0
   12.6119    3.6713    4.7777 H   0  0  0  0  0  0  0  0  0  0  0  0
   12.0487    2.1629    2.8071 H   0  0  0  0  0  0  0  0  0  0  0  0
    9.6475    1.9010    1.2763 O   0  0  0  0  0  0  0  0  0  0  0  0
    9.8783    0.9509    2.1375 C   0  0  0  0  0  0  0  0  0  0  0  0
   10.9831    0.4719    2.4072 O   0  0  0  0  0  0  0  0  0  0  0  0
    8.6055    0.4503    2.8217 C   0  0  0  0  0  0  0  0  0  0  0  0
    7.9232    1.2754    3.0380 H   0  0  0  0  0  0  0  0  0  0  0  0
    8.0903   -0.2376    2.1427 H   0  0  0  0  0  0  0  0  0  0  0  0
    8.8677   -0.0812    3.7375 H   0  0  0  0  0  0  0  0  0  0  0  0
  1  6  2  0  0  0  0
  2  3  2  0  0  0  0
  2  1  1  0  0  0  0
  3  4  1  0  0  0  0
  4 13  1  0  0  0  0
  4  5  2  0  0  0  0
  5 12  1  0  0  0  0
  6  5  1  0  0  0  0
  6 11  1  0  0  0  0
  7  1  1  0  0  0  0
  8  2  1  0  0  0  0
  9  3  1  0  0  0  0
 10  9  2  0  0  0  0
 14 15  2  0  0  0  0
 15 16  1  0  0  0  0
 15 17  1  0  0  0  0
 17 18  1  0  0  0  0
 17 20  1  0  0  0  0
 19 17  1  0  0  0  0
M  RAD  2  10   2  16   2
M  END
