Coordinates from ORCA-job Ph-N2-OAc-B3LYPG-6-31G_dp-MTMO-d009-169-n800
 OpenBabel09051908423D

 20 19  0  0  0  0  0  0  0  0999 V2000
   11.4417    6.3507    2.5957 C   0  0  0  0  0  0  0  0  0  0  0  0
   10.6051    5.2518    2.4014 C   0  0  0  0  0  0  0  0  0  0  0  0
   11.0568    3.9780    2.7438 C   0  0  0  0  0  0  0  0  0  0  0  0
   12.3299    3.7826    3.2804 C   0  0  0  0  0  0  0  0  0  0  0  0
   13.1572    4.8915    3.4658 C   0  0  0  0  0  0  0  0  0  0  0  0
   12.7209    6.1737    3.1263 C   0  0  0  0  0  0  0  0  0  0  0  0
   11.0917    7.3437    2.3300 H   0  0  0  0  0  0  0  0  0  0  0  0
    9.6062    5.3643    1.9935 H   0  0  0  0  0  0  0  0  0  0  0  0
   12.0035   -2.5440   -0.2728 N   0  0  0  0  0  0  0  0  0  0  0  0
   11.1378   -2.0348    0.1882 N   0  0  0  0  0  0  0  0  0  0  0  0
   13.3728    7.0289    3.2762 H   0  0  0  0  0  0  0  0  0  0  0  0
   14.1505    4.7472    3.8801 H   0  0  0  0  0  0  0  0  0  0  0  0
   12.6689    2.7878    3.5374 H   0  0  0  0  0  0  0  0  0  0  0  0
   10.1288    2.9450    2.5914 O   0  0  0  0  0  0  0  0  0  0  0  0
   10.4867    1.7344    2.0561 C   0  0  0  0  0  0  0  0  0  0  0  0
   11.5984    1.4534    1.6812 O   0  0  0  0  0  0  0  0  0  0  0  0
    9.2826    0.8260    2.0169 C   0  0  0  0  0  0  0  0  0  0  0  0
    8.9272    0.6390    3.0347 H   0  0  0  0  0  0  0  0  0  0  0  0
    8.4651    1.3048    1.4706 H   0  0  0  0  0  0  0  0  0  0  0  0
    9.5556   -0.1144    1.5404 H   0  0  0  0  0  0  0  0  0  0  0  0
  1  6  1  0  0  0  0
  2  1  2  0  0  0  0
  2  3  1  0  0  0  0
  3  4  2  0  0  0  0
  4  5  1  0  0  0  0
  4 13  1  0  0  0  0
  5 12  1  0  0  0  0
  6 11  1  0  0  0  0
  6  5  2  0  0  0  0
  7  1  1  0  0  0  0
  8  2  1  0  0  0  0
  9 10  3  0  0  0  0
 14  3  1  0  0  0  0
 15 14  1  0  0  0  0
 16 15  2  0  0  0  0
 17 15  1  0  0  0  0
 17 18  1  0  0  0  0
 19 17  1  0  0  0  0
 20 17  1  0  0  0  0
M  END
