Coordinates from ORCA-job Ph-N2-OAc-B3LYPG-6-31G_dp-MTMO-d009-169-n800
 OpenBabel09051908423D

 20 19  0  0  0  0  0  0  0  0999 V2000
   11.1380    7.0900    2.9484 C   0  0  0  0  0  0  0  0  0  0  0  0
   10.6725    5.8244    2.5929 C   0  0  0  0  0  0  0  0  0  0  0  0
   11.3881    4.6945    2.9876 C   0  0  0  0  0  0  0  0  0  0  0  0
   12.5603    4.8068    3.7365 C   0  0  0  0  0  0  0  0  0  0  0  0
   13.0157    6.0806    4.0812 C   0  0  0  0  0  0  0  0  0  0  0  0
   12.3127    7.2219    3.6914 C   0  0  0  0  0  0  0  0  0  0  0  0
   10.5815    7.9708    2.6427 H   0  0  0  0  0  0  0  0  0  0  0  0
    9.7600    5.6961    2.0200 H   0  0  0  0  0  0  0  0  0  0  0  0
    7.6615   -9.6166   -2.5711 N   0  0  0  0  0  0  0  0  0  0  0  0
    7.9180   -8.6364   -2.1295 N   0  0  0  0  0  0  0  0  0  0  0  0
   12.6766    8.2069    3.9669 H   0  0  0  0  0  0  0  0  0  0  0  0
   13.9302    6.1765    4.6591 H   0  0  0  0  0  0  0  0  0  0  0  0
   13.1085    3.9226    4.0323 H   0  0  0  0  0  0  0  0  0  0  0  0
   10.8079    3.4685    2.6534 O   0  0  0  0  0  0  0  0  0  0  0  0
   11.5606    2.4176    2.1980 C   0  0  0  0  0  0  0  0  0  0  0  0
   12.7587    2.4398    2.0607 O   0  0  0  0  0  0  0  0  0  0  0  0
   10.6565    1.2474    1.8960 C   0  0  0  0  0  0  0  0  0  0  0  0
   10.0875    0.9718    2.7887 H   0  0  0  0  0  0  0  0  0  0  0  0
    9.9342    1.5227    1.1217 H   0  0  0  0  0  0  0  0  0  0  0  0
   11.2584    0.4037    1.5605 H   0  0  0  0  0  0  0  0  0  0  0  0
  1  6  1  0  0  0  0
  2  1  2  0  0  0  0
  2  3  1  0  0  0  0
  3  4  2  0  0  0  0
  4 13  1  0  0  0  0
  4  5  1  0  0  0  0
  5 12  1  0  0  0  0
  6 11  1  0  0  0  0
  6  5  2  0  0  0  0
  7  1  1  0  0  0  0
  8  2  1  0  0  0  0
  9 10  3  0  0  0  0
 14  3  1  0  0  0  0
 15 14  1  0  0  0  0
 16 15  2  0  0  0  0
 17 15  1  0  0  0  0
 17 18  1  0  0  0  0
 19 17  1  0  0  0  0
 20 17  1  0  0  0  0
M  END
