Coordinates from ORCA-job Ph-N2-OAc-B3LYPG-6-31G_dp-MTMO-d009-169-n800
 OpenBabel09051908423D

 20 19  0  0  0  0  0  0  0  0999 V2000
   11.1150    7.0033    2.9138 C   0  0  0  0  0  0  0  0  0  0  0  0
   10.6485    5.7377    2.5597 C   0  0  0  0  0  0  0  0  0  0  0  0
   11.3640    4.6078    2.9546 C   0  0  0  0  0  0  0  0  0  0  0  0
   12.5370    4.7200    3.7021 C   0  0  0  0  0  0  0  0  0  0  0  0
   12.9934    5.9939    4.0454 C   0  0  0  0  0  0  0  0  0  0  0  0
   12.2905    7.1352    3.6555 C   0  0  0  0  0  0  0  0  0  0  0  0
   10.5587    7.8842    2.6080 H   0  0  0  0  0  0  0  0  0  0  0  0
    9.7354    5.6094    1.9879 H   0  0  0  0  0  0  0  0  0  0  0  0
    7.8832   -8.8343   -2.2746 N   0  0  0  0  0  0  0  0  0  0  0  0
    8.1354   -7.8531   -1.8328 N   0  0  0  0  0  0  0  0  0  0  0  0
   12.6552    8.1202    3.9298 H   0  0  0  0  0  0  0  0  0  0  0  0
   13.9085    6.0898    4.6223 H   0  0  0  0  0  0  0  0  0  0  0  0
   13.0851    3.8357    3.9982 H   0  0  0  0  0  0  0  0  0  0  0  0
   10.7828    3.3818    2.6219 O   0  0  0  0  0  0  0  0  0  0  0  0
   11.5344    2.3300    2.1667 C   0  0  0  0  0  0  0  0  0  0  0  0
   12.7324    2.3516    2.0282 O   0  0  0  0  0  0  0  0  0  0  0  0
   10.6295    1.1601    1.8667 C   0  0  0  0  0  0  0  0  0  0  0  0
   10.0612    0.8856    2.7602 H   0  0  0  0  0  0  0  0  0  0  0  0
    9.9065    1.4350    1.0928 H   0  0  0  0  0  0  0  0  0  0  0  0
   11.2306    0.3158    1.5312 H   0  0  0  0  0  0  0  0  0  0  0  0
  1  6  1  0  0  0  0
  2  1  2  0  0  0  0
  2  3  1  0  0  0  0
  3  4  2  0  0  0  0
  4 13  1  0  0  0  0
  4  5  1  0  0  0  0
  5 12  1  0  0  0  0
  6 11  1  0  0  0  0
  6  5  2  0  0  0  0
  7  1  1  0  0  0  0
  8  2  1  0  0  0  0
  9 10  3  0  0  0  0
 14  3  1  0  0  0  0
 15 14  1  0  0  0  0
 16 15  2  0  0  0  0
 17 15  1  0  0  0  0
 17 18  1  0  0  0  0
 19 17  1  0  0  0  0
 20 17  1  0  0  0  0
M  END
