Coordinates from ORCA-job Ph-N2-OAc-B3LYPG-6-31G_dp-MTMO-d009-169-n800
 OpenBabel09051908423D

 20 19  0  0  0  0  0  0  0  0999 V2000
   11.1114    6.9889    2.9080 C   0  0  0  0  0  0  0  0  0  0  0  0
   10.6445    5.7233    2.5542 C   0  0  0  0  0  0  0  0  0  0  0  0
   11.3599    4.5933    2.9491 C   0  0  0  0  0  0  0  0  0  0  0  0
   12.5331    4.7055    3.6964 C   0  0  0  0  0  0  0  0  0  0  0  0
   12.9899    5.9793    4.0393 C   0  0  0  0  0  0  0  0  0  0  0  0
   12.2871    7.1207    3.6494 C   0  0  0  0  0  0  0  0  0  0  0  0
   10.5551    7.8698    2.6021 H   0  0  0  0  0  0  0  0  0  0  0  0
    9.7313    5.5951    1.9826 H   0  0  0  0  0  0  0  0  0  0  0  0
    7.9207   -8.7040   -2.2252 N   0  0  0  0  0  0  0  0  0  0  0  0
    8.1720   -7.7225   -1.7836 N   0  0  0  0  0  0  0  0  0  0  0  0
   12.6520    8.1057    3.9234 H   0  0  0  0  0  0  0  0  0  0  0  0
   13.9051    6.0752    4.6159 H   0  0  0  0  0  0  0  0  0  0  0  0
   13.0812    3.8212    3.9924 H   0  0  0  0  0  0  0  0  0  0  0  0
   10.7785    3.3674    2.6168 O   0  0  0  0  0  0  0  0  0  0  0  0
   11.5298    2.3154    2.1616 C   0  0  0  0  0  0  0  0  0  0  0  0
   12.7278    2.3367    2.0227 O   0  0  0  0  0  0  0  0  0  0  0  0
   10.6246    1.1456    1.8620 C   0  0  0  0  0  0  0  0  0  0  0  0
   10.0565    0.8713    2.7557 H   0  0  0  0  0  0  0  0  0  0  0  0
    9.9015    1.4205    1.0882 H   0  0  0  0  0  0  0  0  0  0  0  0
   11.2254    0.3011    1.5265 H   0  0  0  0  0  0  0  0  0  0  0  0
  1  6  1  0  0  0  0
  2  1  2  0  0  0  0
  2  3  1  0  0  0  0
  3  4  2  0  0  0  0
  4 13  1  0  0  0  0
  4  5  1  0  0  0  0
  5 12  1  0  0  0  0
  6 11  1  0  0  0  0
  6  5  2  0  0  0  0
  7  1  1  0  0  0  0
  8  2  1  0  0  0  0
  9 10  3  0  0  0  0
 14  3  1  0  0  0  0
 15 14  1  0  0  0  0
 16 15  2  0  0  0  0
 17 15  1  0  0  0  0
 17 18  1  0  0  0  0
 19 17  1  0  0  0  0
 20 17  1  0  0  0  0
M  END
