Coordinates from ORCA-job Ph-N2-OAc-B3LYPG-6-31G_dp-MTMO-d009-169-n800
 OpenBabel09051908423D

 20 19  0  0  0  0  0  0  0  0999 V2000
   11.1390    7.0936    2.9499 C   0  0  0  0  0  0  0  0  0  0  0  0
   10.6735    5.8280    2.5943 C   0  0  0  0  0  0  0  0  0  0  0  0
   11.3891    4.6982    2.9890 C   0  0  0  0  0  0  0  0  0  0  0  0
   12.5613    4.8104    3.7379 C   0  0  0  0  0  0  0  0  0  0  0  0
   13.0167    6.0842    4.0827 C   0  0  0  0  0  0  0  0  0  0  0  0
   12.3136    7.2255    3.6929 C   0  0  0  0  0  0  0  0  0  0  0  0
   10.5825    7.9744    2.6442 H   0  0  0  0  0  0  0  0  0  0  0  0
    9.7610    5.6997    2.0213 H   0  0  0  0  0  0  0  0  0  0  0  0
    7.6524   -9.6492   -2.5835 N   0  0  0  0  0  0  0  0  0  0  0  0
    7.9090   -8.6690   -2.1419 N   0  0  0  0  0  0  0  0  0  0  0  0
   12.6775    8.2105    3.9684 H   0  0  0  0  0  0  0  0  0  0  0  0
   13.9311    6.1801    4.6606 H   0  0  0  0  0  0  0  0  0  0  0  0
   13.1095    3.9262    4.0338 H   0  0  0  0  0  0  0  0  0  0  0  0
   10.8090    3.4721    2.6547 O   0  0  0  0  0  0  0  0  0  0  0  0
   11.5616    2.4212    2.1994 C   0  0  0  0  0  0  0  0  0  0  0  0
   12.7597    2.4435    2.0621 O   0  0  0  0  0  0  0  0  0  0  0  0
   10.6576    1.2511    1.8973 C   0  0  0  0  0  0  0  0  0  0  0  0
   10.0886    0.9754    2.7900 H   0  0  0  0  0  0  0  0  0  0  0  0
    9.9353    1.5263    1.1229 H   0  0  0  0  0  0  0  0  0  0  0  0
   11.2595    0.4074    1.5617 H   0  0  0  0  0  0  0  0  0  0  0  0
  1  6  1  0  0  0  0
  2  1  2  0  0  0  0
  2  3  1  0  0  0  0
  3  4  2  0  0  0  0
  4 13  1  0  0  0  0
  4  5  1  0  0  0  0
  5 12  1  0  0  0  0
  6 11  1  0  0  0  0
  6  5  2  0  0  0  0
  7  1  1  0  0  0  0
  8  2  1  0  0  0  0
  9 10  3  0  0  0  0
 14  3  1  0  0  0  0
 15 14  1  0  0  0  0
 16 15  2  0  0  0  0
 17 15  1  0  0  0  0
 17 18  1  0  0  0  0
 19 17  1  0  0  0  0
 20 17  1  0  0  0  0
M  END
