Coordinates from ORCA-job Ph-N2-OAc-B3LYPG-6-31G_dp-MTMO-d009-169-n800
 OpenBabel09051908423D

 20 19  0  0  0  0  0  0  0  0999 V2000
   11.4396    6.3531    2.5978 C   0  0  0  0  0  0  0  0  0  0  0  0
   10.6047    5.2532    2.4022 C   0  0  0  0  0  0  0  0  0  0  0  0
   11.0579    3.9798    2.7441 C   0  0  0  0  0  0  0  0  0  0  0  0
   12.3309    3.7857    3.2814 C   0  0  0  0  0  0  0  0  0  0  0  0
   13.1566    4.8957    3.4681 C   0  0  0  0  0  0  0  0  0  0  0  0
   12.7188    6.1775    3.1291 C   0  0  0  0  0  0  0  0  0  0  0  0
   11.0885    7.3458    2.3325 H   0  0  0  0  0  0  0  0  0  0  0  0
    9.6060    5.3646    1.9938 H   0  0  0  0  0  0  0  0  0  0  0  0
   11.9874   -2.5663   -0.2738 N   0  0  0  0  0  0  0  0  0  0  0  0
   11.1256   -2.0480    0.1841 N   0  0  0  0  0  0  0  0  0  0  0  0
   13.3694    7.0335    3.2801 H   0  0  0  0  0  0  0  0  0  0  0  0
   14.1498    4.7525    3.8830 H   0  0  0  0  0  0  0  0  0  0  0  0
   12.6711    2.7913    3.5381 H   0  0  0  0  0  0  0  0  0  0  0  0
   10.1314    2.9457    2.5904 O   0  0  0  0  0  0  0  0  0  0  0  0
   10.4913    1.7358    2.0549 C   0  0  0  0  0  0  0  0  0  0  0  0
   11.6037    1.4564    1.6809 O   0  0  0  0  0  0  0  0  0  0  0  0
    9.2884    0.8258    2.0142 C   0  0  0  0  0  0  0  0  0  0  0  0
    8.9331    0.6371    3.0316 H   0  0  0  0  0  0  0  0  0  0  0  0
    8.4705    1.3042    1.4683 H   0  0  0  0  0  0  0  0  0  0  0  0
    9.5629   -0.1137    1.5366 H   0  0  0  0  0  0  0  0  0  0  0  0
  1  6  1  0  0  0  0
  2  1  2  0  0  0  0
  2  3  1  0  0  0  0
  3  4  2  0  0  0  0
  4  5  1  0  0  0  0
  4 13  1  0  0  0  0
  5 12  1  0  0  0  0
  6 11  1  0  0  0  0
  6  5  2  0  0  0  0
  7  1  1  0  0  0  0
  8  2  1  0  0  0  0
  9 10  3  0  0  0  0
 14  3  1  0  0  0  0
 15 14  1  0  0  0  0
 16 15  2  0  0  0  0
 17 15  1  0  0  0  0
 17 18  1  0  0  0  0
 19 17  1  0  0  0  0
 20 17  1  0  0  0  0
M  END
