Coordinates from ORCA-job Ph-N2-OAc-B3LYPG-6-31G_dp-MTMO-d009-169-n800
 OpenBabel09051908423D

 20 19  0  0  0  0  0  0  0  0999 V2000
   11.5049    6.2626    2.5066 C   0  0  0  0  0  0  0  0  0  0  0  0
   10.6233    5.1927    2.3536 C   0  0  0  0  0  0  0  0  0  0  0  0
   11.0271    3.9137    2.7334 C   0  0  0  0  0  0  0  0  0  0  0  0
   12.2956    3.6843    3.2670 C   0  0  0  0  0  0  0  0  0  0  0  0
   13.1682    4.7641    3.4109 C   0  0  0  0  0  0  0  0  0  0  0  0
   12.7804    6.0514    3.0335 C   0  0  0  0  0  0  0  0  0  0  0  0
   11.1928    7.2600    2.2116 H   0  0  0  0  0  0  0  0  0  0  0  0
    9.6265    5.3324    1.9492 H   0  0  0  0  0  0  0  0  0  0  0  0
   12.4351   -1.7418   -0.1605 N   0  0  0  0  0  0  0  0  0  0  0  0
   11.4215   -1.5583    0.2395 N   0  0  0  0  0  0  0  0  0  0  0  0
   13.4672    6.8841    3.1511 H   0  0  0  0  0  0  0  0  0  0  0  0
   14.1584    4.5934    3.8227 H   0  0  0  0  0  0  0  0  0  0  0  0
   12.5961    2.6852    3.5538 H   0  0  0  0  0  0  0  0  0  0  0  0
   10.0594    2.9119    2.6216 O   0  0  0  0  0  0  0  0  0  0  0  0
   10.3647    1.6821    2.0990 C   0  0  0  0  0  0  0  0  0  0  0  0
   11.4583    1.3605    1.7027 O   0  0  0  0  0  0  0  0  0  0  0  0
    9.1319    0.8123    2.1037 C   0  0  0  0  0  0  0  0  0  0  0  0
    8.7954    0.6539    3.1326 H   0  0  0  0  0  0  0  0  0  0  0  0
    8.3175    1.3088    1.5688 H   0  0  0  0  0  0  0  0  0  0  0  0
    9.3630   -0.1438    1.6367 H   0  0  0  0  0  0  0  0  0  0  0  0
  1  6  1  0  0  0  0
  2  1  2  0  0  0  0
  2  3  1  0  0  0  0
  3  4  2  0  0  0  0
  4  5  1  0  0  0  0
  4 13  1  0  0  0  0
  5 12  1  0  0  0  0
  6 11  1  0  0  0  0
  6  5  2  0  0  0  0
  7  1  1  0  0  0  0
  8  2  1  0  0  0  0
  9 10  3  0  0  0  0
 14  3  1  0  0  0  0
 15 17  1  0  0  0  0
 15 14  1  0  0  0  0
 16 15  2  0  0  0  0
 17 18  1  0  0  0  0
 19 17  1  0  0  0  0
 20 17  1  0  0  0  0
M  END
