Coordinates from ORCA-job Ph-N2-OAc-B3LYPG-6-31G_dp-MTMO-d009-169-n800
 OpenBabel09051908423D

 20 19  0  0  0  0  0  0  0  0999 V2000
   11.7514    5.9398    2.4815 C   0  0  0  0  0  0  0  0  0  0  0  0
   10.6893    5.0435    2.3640 C   0  0  0  0  0  0  0  0  0  0  0  0
   10.8887    3.7001    2.6790 C   0  0  0  0  0  0  0  0  0  0  0  0
   12.1302    3.2356    3.1145 C   0  0  0  0  0  0  0  0  0  0  0  0
   13.1846    4.1442    3.2233 C   0  0  0  0  0  0  0  0  0  0  0  0
   13.0030    5.4924    2.9094 C   0  0  0  0  0  0  0  0  0  0  0  0
   11.5985    6.9866    2.2358 H   0  0  0  0  0  0  0  0  0  0  0  0
    9.7075    5.3680    2.0357 H   0  0  0  0  0  0  0  0  0  0  0  0
   13.6421    0.0660    0.1262 N   0  0  0  0  0  0  0  0  0  0  0  0
   13.8898    0.5132    1.1058 N   0  0  0  0  0  0  0  0  0  0  0  0
   13.8308    6.1891    2.9995 H   0  0  0  0  0  0  0  0  0  0  0  0
   14.1548    3.7892    3.5579 H   0  0  0  0  0  0  0  0  0  0  0  0
   12.2738    2.1898    3.3513 H   0  0  0  0  0  0  0  0  0  0  0  0
    9.7529    2.8886    2.6068 O   0  0  0  0  0  0  0  0  0  0  0  0
    9.8028    1.6326    2.0636 C   0  0  0  0  0  0  0  0  0  0  0  0
   10.7991    1.1141    1.6222 O   0  0  0  0  0  0  0  0  0  0  0  0
    8.4276    1.0120    2.1045 C   0  0  0  0  0  0  0  0  0  0  0  0
    8.0688    0.9650    3.1368 H   0  0  0  0  0  0  0  0  0  0  0  0
    7.7208    1.6288    1.5420 H   0  0  0  0  0  0  0  0  0  0  0  0
    8.4710    0.0110    1.6777 H   0  0  0  0  0  0  0  0  0  0  0  0
  1  6  1  0  0  0  0
  2  1  2  0  0  0  0
  2  3  1  0  0  0  0
  3  4  2  0  0  0  0
  4  5  1  0  0  0  0
  4 13  1  0  0  0  0
  5 12  1  0  0  0  0
  6 11  1  0  0  0  0
  6  5  2  0  0  0  0
  7  1  1  0  0  0  0
  8  2  1  0  0  0  0
  9 10  3  0  0  0  0
 14  3  1  0  0  0  0
 15 17  1  0  0  0  0
 15 14  1  0  0  0  0
 16 15  2  0  0  0  0
 17 18  1  0  0  0  0
 19 17  1  0  0  0  0
 20 17  1  0  0  0  0
M  END
