Coordinates from ORCA-job Ph-N2-OAc-B3LYPG-6-31G_dp-MTMO-d009-169-n800
 OpenBabel09051908423D

 20 19  0  0  0  0  0  0  0  0999 V2000
   11.8281    5.8567    2.3655 C   0  0  0  0  0  0  0  0  0  0  0  0
   10.7466    4.9827    2.2535 C   0  0  0  0  0  0  0  0  0  0  0  0
   10.8867    3.6623    2.6783 C   0  0  0  0  0  0  0  0  0  0  0  0
   12.0871    3.1992    3.2178 C   0  0  0  0  0  0  0  0  0  0  0  0
   13.1620    4.0843    3.3194 C   0  0  0  0  0  0  0  0  0  0  0  0
   13.0396    5.4093    2.8964 C   0  0  0  0  0  0  0  0  0  0  0  0
   11.7216    6.8856    2.0353 H   0  0  0  0  0  0  0  0  0  0  0  0
    9.7949    5.3078    1.8465 H   0  0  0  0  0  0  0  0  0  0  0  0
   13.5804    0.6528   -0.0335 N   0  0  0  0  0  0  0  0  0  0  0  0
   13.9298    0.8069    1.0034 N   0  0  0  0  0  0  0  0  0  0  0  0
   13.8824    6.0885    2.9822 H   0  0  0  0  0  0  0  0  0  0  0  0
   14.1011    3.7299    3.7339 H   0  0  0  0  0  0  0  0  0  0  0  0
   12.1828    2.1710    3.5402 H   0  0  0  0  0  0  0  0  0  0  0  0
    9.7346    2.8745    2.6033 O   0  0  0  0  0  0  0  0  0  0  0  0
    9.7808    1.5912    2.1264 C   0  0  0  0  0  0  0  0  0  0  0  0
   10.7830    1.0356    1.7486 O   0  0  0  0  0  0  0  0  0  0  0  0
    8.3942    0.9959    2.1480 C   0  0  0  0  0  0  0  0  0  0  0  0
    8.0004    1.0019    3.1687 H   0  0  0  0  0  0  0  0  0  0  0  0
    7.7175    1.5978    1.5347 H   0  0  0  0  0  0  0  0  0  0  0  0
    8.4340   -0.0243    1.7689 H   0  0  0  0  0  0  0  0  0  0  0  0
  1  6  1  0  0  0  0
  2  1  2  0  0  0  0
  2  3  1  0  0  0  0
  3  4  2  0  0  0  0
  4  5  1  0  0  0  0
  4 13  1  0  0  0  0
  5 12  1  0  0  0  0
  6 11  1  0  0  0  0
  6  5  2  0  0  0  0
  7  1  1  0  0  0  0
  8  2  1  0  0  0  0
  9 10  3  0  0  0  0
 14  3  1  0  0  0  0
 15 17  1  0  0  0  0
 15 14  1  0  0  0  0
 16 15  2  0  0  0  0
 17 18  1  0  0  0  0
 19 17  1  0  0  0  0
 20 17  1  0  0  0  0
M  END
