Coordinates from ORCA-job Ph-N2-OAc-B3LYPG-6-31G_dp-MTMO-d009-169-n800
 OpenBabel09051908423D

 20 19  0  0  0  0  0  0  0  0999 V2000
   11.8025    5.8845    2.4015 C   0  0  0  0  0  0  0  0  0  0  0  0
   10.7264    5.0040    2.2895 C   0  0  0  0  0  0  0  0  0  0  0  0
   10.8853    3.6755    2.6810 C   0  0  0  0  0  0  0  0  0  0  0  0
   12.0995    3.2106    3.1871 C   0  0  0  0  0  0  0  0  0  0  0  0
   13.1687    4.1024    3.2893 C   0  0  0  0  0  0  0  0  0  0  0  0
   13.0274    5.4356    2.8994 C   0  0  0  0  0  0  0  0  0  0  0  0
   11.6814    6.9197    2.0970 H   0  0  0  0  0  0  0  0  0  0  0  0
    9.7646    5.3301    1.9078 H   0  0  0  0  0  0  0  0  0  0  0  0
   13.6040    0.4584    0.0144 N   0  0  0  0  0  0  0  0  0  0  0  0
   13.9332    0.7052    1.0400 N   0  0  0  0  0  0  0  0  0  0  0  0
   13.8660    6.1200    2.9851 H   0  0  0  0  0  0  0  0  0  0  0  0
   14.1181    3.7467    3.6782 H   0  0  0  0  0  0  0  0  0  0  0  0
   12.2099    2.1761    3.4840 H   0  0  0  0  0  0  0  0  0  0  0  0
    9.7385    2.8797    2.6092 O   0  0  0  0  0  0  0  0  0  0  0  0
    9.7860    1.6079    2.1026 C   0  0  0  0  0  0  0  0  0  0  0  0
   10.7854    1.0688    1.6946 O   0  0  0  0  0  0  0  0  0  0  0  0
    8.4045    1.0013    2.1352 C   0  0  0  0  0  0  0  0  0  0  0  0
    8.0268    0.9853    3.1617 H   0  0  0  0  0  0  0  0  0  0  0  0
    7.7137    1.6092    1.5437 H   0  0  0  0  0  0  0  0  0  0  0  0
    8.4458   -0.0113    1.7362 H   0  0  0  0  0  0  0  0  0  0  0  0
  1  6  1  0  0  0  0
  2  1  2  0  0  0  0
  2  3  1  0  0  0  0
  3  4  2  0  0  0  0
  4  5  1  0  0  0  0
  4 13  1  0  0  0  0
  5 12  1  0  0  0  0
  6 11  1  0  0  0  0
  6  5  2  0  0  0  0
  7  1  1  0  0  0  0
  8  2  1  0  0  0  0
  9 10  3  0  0  0  0
 14  3  1  0  0  0  0
 15 17  1  0  0  0  0
 15 14  1  0  0  0  0
 16 15  2  0  0  0  0
 17 18  1  0  0  0  0
 19 17  1  0  0  0  0
 20 17  1  0  0  0  0
M  END
