Coordinates from ORCA-job Ph-N2-OAc-B3LYPG-6-31G_dp-MTMO-d009-169-n800
 OpenBabel09051908423D

 20 18  0  0  0  0  0  0  0  0999 V2000
   13.0932    6.0160    2.2278 C   0  0  0  0  0  0  0  0  0  0  0  0
   12.2850    5.1902    1.4105 C   0  0  0  0  0  0  0  0  0  0  0  0
   11.9239    4.0936    2.1524 C   0  0  0  0  0  0  0  0  0  0  0  0
   12.1507    3.7268    3.3305 C   0  0  0  0  0  0  0  0  0  0  0  0
   12.9453    4.5075    4.1776 C   0  0  0  0  0  0  0  0  0  0  0  0
   13.4093    5.6857    3.5589 C   0  0  0  0  0  0  0  0  0  0  0  0
   13.4820    6.9376    1.8022 H   0  0  0  0  0  0  0  0  0  0  0  0
   12.0286    5.4175    0.3844 H   0  0  0  0  0  0  0  0  0  0  0  0
   10.9520    3.1867   -1.0238 N   0  0  0  0  0  0  0  0  0  0  0  0
   10.6701    2.2590   -1.5534 N   0  0  0  0  0  0  0  0  0  0  0  0
   14.0339    6.3675    4.1311 H   0  0  0  0  0  0  0  0  0  0  0  0
   13.1930    4.2643    5.2058 H   0  0  0  0  0  0  0  0  0  0  0  0
   10.7519    1.9905    3.4230 H   0  0  0  0  0  0  0  0  0  0  0  0
    9.7029    1.6136    1.3942 O   0  0  0  0  0  0  0  0  0  0  0  0
    9.5143    0.9785    2.4118 C   0  0  0  0  0  0  0  0  0  0  0  0
   10.1513    1.2307    3.5725 O   0  0  0  0  0  0  0  0  0  0  0  0
    8.5511   -0.1764    2.5489 C   0  0  0  0  0  0  0  0  0  0  0  0
    8.0793   -0.3751    1.5875 H   0  0  0  0  0  0  0  0  0  0  0  0
    9.0807   -1.0673    2.8988 H   0  0  0  0  0  0  0  0  0  0  0  0
    7.7889    0.0626    3.2967 H   0  0  0  0  0  0  0  0  0  0  0  0
  1  6  2  0  0  0  0
  2  3  2  0  0  0  0
  2  1  1  0  0  0  0
  3  4  1  0  0  0  0
  4  5  2  0  0  0  0
  5 12  1  0  0  0  0
  6 11  1  0  0  0  0
  6  5  1  0  0  0  0
  7  1  1  0  0  0  0
  8  2  1  0  0  0  0
 10  9  3  0  0  0  0
 13 16  1  0  0  0  0
 14 15  2  0  0  0  0
 15 17  1  0  0  0  0
 15 16  1  0  0  0  0
 17 19  1  0  0  0  0
 17 20  1  0  0  0  0
 18 17  1  0  0  0  0
M  RAD  2   3   2   4   2
M  END
