Coordinates from ORCA-job Ph-N2-OAc-B3LYPG-6-31G_dp-MTMO-d009-169-n800
 OpenBabel09051908423D

 20 19  0  0  0  0  0  0  0  0999 V2000
   11.3008    6.4699    2.7072 C   0  0  0  0  0  0  0  0  0  0  0  0
   10.5825    5.3060    2.4340 C   0  0  0  0  0  0  0  0  0  0  0  0
   11.1354    4.0676    2.7581 C   0  0  0  0  0  0  0  0  0  0  0  0
   12.3936    3.9716    3.3543 C   0  0  0  0  0  0  0  0  0  0  0  0
   13.1021    5.1451    3.6180 C   0  0  0  0  0  0  0  0  0  0  0  0
   12.5637    6.3929    3.2976 C   0  0  0  0  0  0  0  0  0  0  0  0
   10.8719    7.4354    2.4563 H   0  0  0  0  0  0  0  0  0  0  0  0
    9.5983    5.3405    1.9794 H   0  0  0  0  0  0  0  0  0  0  0  0
   10.7378   -3.6830   -0.4281 N   0  0  0  0  0  0  0  0  0  0  0  0
   10.4285   -2.7706    0.1133 N   0  0  0  0  0  0  0  0  0  0  0  0
   13.1236    7.2988    3.5087 H   0  0  0  0  0  0  0  0  0  0  0  0
   14.0834    5.0784    4.0778 H   0  0  0  0  0  0  0  0  0  0  0  0
   12.8124    3.0040    3.5963 H   0  0  0  0  0  0  0  0  0  0  0  0
   10.3166    2.9607    2.5229 O   0  0  0  0  0  0  0  0  0  0  0  0
   10.8144    1.8020    1.9839 C   0  0  0  0  0  0  0  0  0  0  0  0
   11.9681    1.6303    1.6764 O   0  0  0  0  0  0  0  0  0  0  0  0
    9.6994    0.7952    1.8419 C   0  0  0  0  0  0  0  0  0  0  0  0
    9.2692    0.5770    2.8238 H   0  0  0  0  0  0  0  0  0  0  0  0
    8.8980    1.2066    1.2212 H   0  0  0  0  0  0  0  0  0  0  0  0
   10.0876   -0.1189    1.3947 H   0  0  0  0  0  0  0  0  0  0  0  0
  1  6  1  0  0  0  0
  2  1  2  0  0  0  0
  2  3  1  0  0  0  0
  3  4  2  0  0  0  0
  4 13  1  0  0  0  0
  4  5  1  0  0  0  0
  5 12  1  0  0  0  0
  6 11  1  0  0  0  0
  6  5  2  0  0  0  0
  7  1  1  0  0  0  0
  8  2  1  0  0  0  0
  9 10  3  0  0  0  0
 14  3  1  0  0  0  0
 15 14  1  0  0  0  0
 16 15  2  0  0  0  0
 17 15  1  0  0  0  0
 17 18  1  0  0  0  0
 19 17  1  0  0  0  0
 20 17  1  0  0  0  0
M  END
