Coordinates from ORCA-job Ph-N2-OAc-B3LYPG-6-31G_dp-MTMO-d009-169-n800
 OpenBabel09051908423D

 20 19  0  0  0  0  0  0  0  0999 V2000
   11.1370    7.0863    2.9470 C   0  0  0  0  0  0  0  0  0  0  0  0
   10.6715    5.8208    2.5915 C   0  0  0  0  0  0  0  0  0  0  0  0
   11.3871    4.6909    2.9862 C   0  0  0  0  0  0  0  0  0  0  0  0
   12.5593    4.8031    3.7350 C   0  0  0  0  0  0  0  0  0  0  0  0
   13.0148    6.0770    4.0798 C   0  0  0  0  0  0  0  0  0  0  0  0
   12.3117    7.2183    3.6900 C   0  0  0  0  0  0  0  0  0  0  0  0
   10.5806    7.9672    2.6413 H   0  0  0  0  0  0  0  0  0  0  0  0
    9.7590    5.6925    2.0186 H   0  0  0  0  0  0  0  0  0  0  0  0
    7.6707   -9.5840   -2.5588 N   0  0  0  0  0  0  0  0  0  0  0  0
    7.9270   -8.6038   -2.1171 N   0  0  0  0  0  0  0  0  0  0  0  0
   12.6757    8.2033    3.9654 H   0  0  0  0  0  0  0  0  0  0  0  0
   13.9293    6.1729    4.6576 H   0  0  0  0  0  0  0  0  0  0  0  0
   13.1076    3.9189    4.0309 H   0  0  0  0  0  0  0  0  0  0  0  0
   10.8069    3.4649    2.6520 O   0  0  0  0  0  0  0  0  0  0  0  0
   11.5595    2.4139    2.1967 C   0  0  0  0  0  0  0  0  0  0  0  0
   12.7576    2.4362    2.0594 O   0  0  0  0  0  0  0  0  0  0  0  0
   10.6554    1.2438    1.8948 C   0  0  0  0  0  0  0  0  0  0  0  0
   10.0864    0.9682    2.7875 H   0  0  0  0  0  0  0  0  0  0  0  0
    9.9331    1.5190    1.1205 H   0  0  0  0  0  0  0  0  0  0  0  0
   11.2573    0.4001    1.5592 H   0  0  0  0  0  0  0  0  0  0  0  0
  1  6  1  0  0  0  0
  2  1  2  0  0  0  0
  2  3  1  0  0  0  0
  3  4  2  0  0  0  0
  4 13  1  0  0  0  0
  4  5  1  0  0  0  0
  5 12  1  0  0  0  0
  6 11  1  0  0  0  0
  6  5  2  0  0  0  0
  7  1  1  0  0  0  0
  8  2  1  0  0  0  0
  9 10  3  0  0  0  0
 14  3  1  0  0  0  0
 15 14  1  0  0  0  0
 16 15  2  0  0  0  0
 17 15  1  0  0  0  0
 17 18  1  0  0  0  0
 19 17  1  0  0  0  0
 20 17  1  0  0  0  0
M  END
