Coordinates from ORCA-job Ph-N2-OAc-B3LYPG-6-31G_dp-MTMO-d009-169-n800
 OpenBabel09051908423D

 20 19  0  0  0  0  0  0  0  0999 V2000
   11.5269    6.2341    2.4609 C   0  0  0  0  0  0  0  0  0  0  0  0
   10.6356    5.1705    2.3200 C   0  0  0  0  0  0  0  0  0  0  0  0
   11.0214    3.8957    2.7313 C   0  0  0  0  0  0  0  0  0  0  0  0
   12.2810    3.6644    3.2846 C   0  0  0  0  0  0  0  0  0  0  0  0
   13.1635    4.7376    3.4160 C   0  0  0  0  0  0  0  0  0  0  0  0
   12.7939    6.0206    3.0070 C   0  0  0  0  0  0  0  0  0  0  0  0
   11.2291    7.2283    2.1414 H   0  0  0  0  0  0  0  0  0  0  0  0
    9.6450    5.3122    1.9012 H   0  0  0  0  0  0  0  0  0  0  0  0
   12.4982   -1.4558   -0.1760 N   0  0  0  0  0  0  0  0  0  0  0  0
   11.4628   -1.4569    0.2097 N   0  0  0  0  0  0  0  0  0  0  0  0
   13.4882    6.8483    3.1152 H   0  0  0  0  0  0  0  0  0  0  0  0
   14.1470    4.5652    3.8429 H   0  0  0  0  0  0  0  0  0  0  0  0
   12.5672    2.6684    3.5961 H   0  0  0  0  0  0  0  0  0  0  0  0
   10.0447    2.9014    2.6299 O   0  0  0  0  0  0  0  0  0  0  0  0
   10.3443    1.6618    2.1285 C   0  0  0  0  0  0  0  0  0  0  0  0
   11.4386    1.3267    1.7456 O   0  0  0  0  0  0  0  0  0  0  0  0
    9.1058    0.8001    2.1379 C   0  0  0  0  0  0  0  0  0  0  0  0
    8.7696    0.6484    3.1680 H   0  0  0  0  0  0  0  0  0  0  0  0
    8.2939    1.2987    1.6013 H   0  0  0  0  0  0  0  0  0  0  0  0
    9.3308   -0.1600    1.6759 H   0  0  0  0  0  0  0  0  0  0  0  0
  1  6  1  0  0  0  0
  2  1  2  0  0  0  0
  2  3  1  0  0  0  0
  3  4  2  0  0  0  0
  4  5  1  0  0  0  0
  4 13  1  0  0  0  0
  5 12  1  0  0  0  0
  6 11  1  0  0  0  0
  6  5  2  0  0  0  0
  7  1  1  0  0  0  0
  8  2  1  0  0  0  0
  9 10  3  0  0  0  0
 14  3  1  0  0  0  0
 15 17  1  0  0  0  0
 15 14  1  0  0  0  0
 16 15  2  0  0  0  0
 17 18  1  0  0  0  0
 19 17  1  0  0  0  0
 20 17  1  0  0  0  0
M  END
