Coordinates from ORCA-job Ph-N2-OAc-B3LYPG-6-31G_dp-MTMO-d009-169-n800
 OpenBabel09051908423D

 20 19  0  0  0  0  0  0  0  0999 V2000
   11.1245    7.0394    2.9283 C   0  0  0  0  0  0  0  0  0  0  0  0
   10.6584    5.7738    2.5735 C   0  0  0  0  0  0  0  0  0  0  0  0
   11.3741    4.6439    2.9683 C   0  0  0  0  0  0  0  0  0  0  0  0
   12.5466    4.7562    3.7165 C   0  0  0  0  0  0  0  0  0  0  0  0
   13.0026    6.0300    4.0605 C   0  0  0  0  0  0  0  0  0  0  0  0
   12.2996    7.1714    3.6706 C   0  0  0  0  0  0  0  0  0  0  0  0
   10.5680    7.9202    2.6225 H   0  0  0  0  0  0  0  0  0  0  0  0
    9.7457    5.6454    2.0012 H   0  0  0  0  0  0  0  0  0  0  0  0
    7.7903   -9.1602   -2.3981 N   0  0  0  0  0  0  0  0  0  0  0  0
    8.0446   -8.1795   -1.9562 N   0  0  0  0  0  0  0  0  0  0  0  0
   12.6638    8.1564    3.9454 H   0  0  0  0  0  0  0  0  0  0  0  0
   13.9174    6.1260    4.6378 H   0  0  0  0  0  0  0  0  0  0  0  0
   13.0949    3.8720    4.0125 H   0  0  0  0  0  0  0  0  0  0  0  0
   10.7934    3.4179    2.6349 O   0  0  0  0  0  0  0  0  0  0  0  0
   11.5455    2.3665    2.1797 C   0  0  0  0  0  0  0  0  0  0  0  0
   12.7436    2.3884    2.0417 O   0  0  0  0  0  0  0  0  0  0  0  0
   10.6411    1.1965    1.8787 C   0  0  0  0  0  0  0  0  0  0  0  0
   10.0725    0.9214    2.7718 H   0  0  0  0  0  0  0  0  0  0  0  0
    9.9184    1.4715    1.1046 H   0  0  0  0  0  0  0  0  0  0  0  0
   11.2426    0.3524    1.5432 H   0  0  0  0  0  0  0  0  0  0  0  0
  1  6  1  0  0  0  0
  2  1  2  0  0  0  0
  2  3  1  0  0  0  0
  3  4  2  0  0  0  0
  4 13  1  0  0  0  0
  4  5  1  0  0  0  0
  5 12  1  0  0  0  0
  6 11  1  0  0  0  0
  6  5  2  0  0  0  0
  7  1  1  0  0  0  0
  8  2  1  0  0  0  0
  9 10  3  0  0  0  0
 14  3  1  0  0  0  0
 15 14  1  0  0  0  0
 16 15  2  0  0  0  0
 17 15  1  0  0  0  0
 17 18  1  0  0  0  0
 19 17  1  0  0  0  0
 20 17  1  0  0  0  0
M  END
