Coordinates from ORCA-job Ph-N2-OAc-B3LYPG-6-31G_dp-MTMO-d009-169-n800
 OpenBabel09051908423D

 20 20  0  0  0  0  0  0  0  0999 V2000
   12.7228    5.9977    2.1959 C   0  0  0  0  0  0  0  0  0  0  0  0
   12.3530    5.1492    1.1599 C   0  0  0  0  0  0  0  0  0  0  0  0
   11.9750    3.8186    1.4398 C   0  0  0  0  0  0  0  0  0  0  0  0
   12.0472    3.3296    2.7643 C   0  0  0  0  0  0  0  0  0  0  0  0
   12.4621    4.1825    3.7801 C   0  0  0  0  0  0  0  0  0  0  0  0
   12.7813    5.5160    3.5071 C   0  0  0  0  0  0  0  0  0  0  0  0
   12.9855    7.0281    1.9790 H   0  0  0  0  0  0  0  0  0  0  0  0
   12.3189    5.4967    0.1323 H   0  0  0  0  0  0  0  0  0  0  0  0
   11.6413    3.0632    0.4612 N   0  0  0  0  0  0  0  0  0  0  0  0
   10.8917    2.1891    0.2040 N   0  0  0  0  0  0  0  0  0  0  0  0
   13.0932    6.1744    4.3121 H   0  0  0  0  0  0  0  0  0  0  0  0
   12.5371    3.8027    4.7944 H   0  0  0  0  0  0  0  0  0  0  0  0
   11.8371    2.2813    2.9454 H   0  0  0  0  0  0  0  0  0  0  0  0
    9.6704    1.9623    1.4487 O   0  0  0  0  0  0  0  0  0  0  0  0
    9.8932    0.8368    2.1046 C   0  0  0  0  0  0  0  0  0  0  0  0
   10.9822    0.2817    2.1863 O   0  0  0  0  0  0  0  0  0  0  0  0
    8.6337    0.3005    2.7697 C   0  0  0  0  0  0  0  0  0  0  0  0
    8.0650    1.1076    3.2389 H   0  0  0  0  0  0  0  0  0  0  0  0
    7.9925   -0.1524    2.0061 H   0  0  0  0  0  0  0  0  0  0  0  0
    8.9042   -0.4558    3.5076 H   0  0  0  0  0  0  0  0  0  0  0  0
  1  6  2  0  0  0  0
  2  3  2  0  0  0  0
  2  1  1  0  0  0  0
  3  4  1  0  0  0  0
  4 13  1  0  0  0  0
  4  5  2  0  0  0  0
  5 12  1  0  0  0  0
  6  5  1  0  0  0  0
  6 11  1  0  0  0  0
  7  1  1  0  0  0  0
  8  2  1  0  0  0  0
  9  3  1  0  0  0  0
 10  9  1  0  0  0  0
 10 14  1  0  0  0  0
 14 15  1  0  0  0  0
 15 16  2  0  0  0  0
 15 17  1  0  0  0  0
 17 18  1  0  0  0  0
 17 20  1  0  0  0  0
 19 17  1  0  0  0  0
M  RAD  2   9   2  10   2
M  END
