Coordinates from ORCA-job Ph-N2-OAc-B3LYPG-6-31G_dp-MTMO-d009-169-n800
 OpenBabel09051908423D

 20 18  0  0  0  0  0  0  0  0999 V2000
   13.2279    6.0696    2.2778 C   0  0  0  0  0  0  0  0  0  0  0  0
   12.7106    5.4672    1.1139 C   0  0  0  0  0  0  0  0  0  0  0  0
   12.0951    4.2963    1.4652 C   0  0  0  0  0  0  0  0  0  0  0  0
   11.8825    3.6381    2.5357 C   0  0  0  0  0  0  0  0  0  0  0  0
   12.4061    4.2456    3.7005 C   0  0  0  0  0  0  0  0  0  0  0  0
   13.0765    5.4682    3.5398 C   0  0  0  0  0  0  0  0  0  0  0  0
   13.7490    7.0183    2.1867 H   0  0  0  0  0  0  0  0  0  0  0  0
   12.7992    5.8874    0.1198 H   0  0  0  0  0  0  0  0  0  0  0  0
   11.3471    3.4613   -0.3123 N   0  0  0  0  0  0  0  0  0  0  0  0
   10.7572    2.6124   -0.7103 N   0  0  0  0  0  0  0  0  0  0  0  0
   13.4910    5.9663    4.4123 H   0  0  0  0  0  0  0  0  0  0  0  0
   12.3005    3.7976    4.6852 H   0  0  0  0  0  0  0  0  0  0  0  0
   10.9506    2.0140    2.8582 H   0  0  0  0  0  0  0  0  0  0  0  0
    9.1694    1.5841    1.4048 O   0  0  0  0  0  0  0  0  0  0  0  0
    9.4315    0.9484    2.4082 C   0  0  0  0  0  0  0  0  0  0  0  0
   10.4780    1.2059    3.2054 O   0  0  0  0  0  0  0  0  0  0  0  0
    8.6221   -0.2262    2.9116 C   0  0  0  0  0  0  0  0  0  0  0  0
    7.7905   -0.4159    2.2341 H   0  0  0  0  0  0  0  0  0  0  0  0
    9.2577   -1.1138    2.9844 H   0  0  0  0  0  0  0  0  0  0  0  0
    8.2451   -0.0151    3.9166 H   0  0  0  0  0  0  0  0  0  0  0  0
  1  6  2  0  0  0  0
  2  3  2  0  0  0  0
  2  1  1  0  0  0  0
  3  4  1  0  0  0  0
  4  5  2  0  0  0  0
  5 12  1  0  0  0  0
  6  5  1  0  0  0  0
  6 11  1  0  0  0  0
  7  1  1  0  0  0  0
  8  2  1  0  0  0  0
 10  9  3  0  0  0  0
 13 16  1  0  0  0  0
 14 15  2  0  0  0  0
 15 17  1  0  0  0  0
 15 16  1  0  0  0  0
 17 19  1  0  0  0  0
 17 20  1  0  0  0  0
 18 17  1  0  0  0  0
M  RAD  2   3   2   4   2
M  END
