Coordinates from ORCA-job Ph-N2-OAc-B3LYPG-6-31G_dp-MTMO-d009-169-n800
 OpenBabel09051908423D

 20 18  0  0  0  0  0  0  0  0999 V2000
   13.2161    6.1186    2.3099 C   0  0  0  0  0  0  0  0  0  0  0  0
   12.6610    5.4641    1.1847 C   0  0  0  0  0  0  0  0  0  0  0  0
   12.1136    4.2869    1.6193 C   0  0  0  0  0  0  0  0  0  0  0  0
   12.0049    3.7057    2.7290 C   0  0  0  0  0  0  0  0  0  0  0  0
   12.5475    4.3261    3.8662 C   0  0  0  0  0  0  0  0  0  0  0  0
   13.1596    5.5665    3.6025 C   0  0  0  0  0  0  0  0  0  0  0  0
   13.6987    7.0807    2.1596 H   0  0  0  0  0  0  0  0  0  0  0  0
   12.6873    5.8604    0.1778 H   0  0  0  0  0  0  0  0  0  0  0  0
   11.1963    3.2474   -0.7235 N   0  0  0  0  0  0  0  0  0  0  0  0
   10.7214    2.3097   -1.0653 N   0  0  0  0  0  0  0  0  0  0  0  0
   13.6036    6.1191    4.4264 H   0  0  0  0  0  0  0  0  0  0  0  0
   12.5095    3.9111    4.8687 H   0  0  0  0  0  0  0  0  0  0  0  0
   10.9339    1.9531    2.9302 H   0  0  0  0  0  0  0  0  0  0  0  0
    9.1553    1.6695    1.4658 O   0  0  0  0  0  0  0  0  0  0  0  0
    9.3977    0.9616    2.4210 C   0  0  0  0  0  0  0  0  0  0  0  0
   10.4504    1.1531    3.2411 O   0  0  0  0  0  0  0  0  0  0  0  0
    8.5779   -0.2345    2.8461 C   0  0  0  0  0  0  0  0  0  0  0  0
    7.7376   -0.3618    2.1650 H   0  0  0  0  0  0  0  0  0  0  0  0
    9.2014   -1.1337    2.8450 H   0  0  0  0  0  0  0  0  0  0  0  0
    8.2137   -0.0940    3.8680 H   0  0  0  0  0  0  0  0  0  0  0  0
  1  6  2  0  0  0  0
  2  3  2  0  0  0  0
  2  1  1  0  0  0  0
  3  4  1  0  0  0  0
  4  5  2  0  0  0  0
  5 12  1  0  0  0  0
  6  5  1  0  0  0  0
  6 11  1  0  0  0  0
  7  1  1  0  0  0  0
  8  2  1  0  0  0  0
 10  9  3  0  0  0  0
 13 16  1  0  0  0  0
 14 15  2  0  0  0  0
 15 17  1  0  0  0  0
 15 16  1  0  0  0  0
 17 20  1  0  0  0  0
 18 17  1  0  0  0  0
 19 17  1  0  0  0  0
M  RAD  2   3   2   4   2
M  END
