Coordinates from ORCA-job Ph-N2-OAc-B3LYPG-6-31G_dp-MTMO-d009-169-n800
 OpenBabel09051908423D

 20 19  0  0  0  0  0  0  0  0999 V2000
   11.4996    6.2701    2.5167 C   0  0  0  0  0  0  0  0  0  0  0  0
   10.6208    5.1983    2.3604 C   0  0  0  0  0  0  0  0  0  0  0  0
   11.0289    3.9187    2.7337 C   0  0  0  0  0  0  0  0  0  0  0  0
   12.2990    3.6906    3.2640 C   0  0  0  0  0  0  0  0  0  0  0  0
   13.1687    4.7723    3.4113 C   0  0  0  0  0  0  0  0  0  0  0  0
   12.7767    6.0601    3.0404 C   0  0  0  0  0  0  0  0  0  0  0  0
   11.1841    7.2679    2.2267 H   0  0  0  0  0  0  0  0  0  0  0  0
    9.6229    5.3369    1.9582 H   0  0  0  0  0  0  0  0  0  0  0  0
   12.4111   -1.8091   -0.1660 N   0  0  0  0  0  0  0  0  0  0  0  0
   11.4087   -1.5909    0.2449 N   0  0  0  0  0  0  0  0  0  0  0  0
   13.4612    6.8942    3.1608 H   0  0  0  0  0  0  0  0  0  0  0  0
   14.1601    4.6024    3.8207 H   0  0  0  0  0  0  0  0  0  0  0  0
   12.6030    2.6911    3.5457 H   0  0  0  0  0  0  0  0  0  0  0  0
   10.0638    2.9148    2.6188 O   0  0  0  0  0  0  0  0  0  0  0  0
   10.3716    1.6863    2.0945 C   0  0  0  0  0  0  0  0  0  0  0  0
   11.4659    1.3662    1.6992 O   0  0  0  0  0  0  0  0  0  0  0  0
    9.1399    0.8148    2.0959 C   0  0  0  0  0  0  0  0  0  0  0  0
    8.8005    0.6559    3.1237 H   0  0  0  0  0  0  0  0  0  0  0  0
    8.3263    1.3099    1.5583 H   0  0  0  0  0  0  0  0  0  0  0  0
    9.3745   -0.1408    1.6295 H   0  0  0  0  0  0  0  0  0  0  0  0
  1  6  1  0  0  0  0
  2  1  2  0  0  0  0
  2  3  1  0  0  0  0
  3  4  2  0  0  0  0
  4  5  1  0  0  0  0
  4 13  1  0  0  0  0
  5 12  1  0  0  0  0
  6 11  1  0  0  0  0
  6  5  2  0  0  0  0
  7  1  1  0  0  0  0
  8  2  1  0  0  0  0
  9 10  3  0  0  0  0
 14  3  1  0  0  0  0
 15 17  1  0  0  0  0
 15 14  1  0  0  0  0
 16 15  2  0  0  0  0
 17 18  1  0  0  0  0
 19 17  1  0  0  0  0
 20 17  1  0  0  0  0
M  END
