Coordinates from ORCA-job Ph-N2-OAc-B3LYPG-6-31G_dp-MTMO-d009-169-n800
 OpenBabel09051908423D

 20 19  0  0  0  0  0  0  0  0999 V2000
   11.0900    6.8773    2.8622 C   0  0  0  0  0  0  0  0  0  0  0  0
   10.6151    5.6134    2.5132 C   0  0  0  0  0  0  0  0  0  0  0  0
   11.3269    4.4807    2.9067 C   0  0  0  0  0  0  0  0  0  0  0  0
   12.5045    4.5884    3.6478 C   0  0  0  0  0  0  0  0  0  0  0  0
   12.9692    5.8607    3.9860 C   0  0  0  0  0  0  0  0  0  0  0  0
   12.2701    7.0048    3.5973 C   0  0  0  0  0  0  0  0  0  0  0  0
   10.5366    7.7604    2.5574 H   0  0  0  0  0  0  0  0  0  0  0  0
    9.6984    5.4886    1.9465 H   0  0  0  0  0  0  0  0  0  0  0  0
    8.2438   -7.6831   -1.8384 N   0  0  0  0  0  0  0  0  0  0  0  0
    8.4775   -6.6941   -1.4039 N   0  0  0  0  0  0  0  0  0  0  0  0
   12.6412    7.9885    3.8677 H   0  0  0  0  0  0  0  0  0  0  0  0
   13.8879    5.9531    4.5577 H   0  0  0  0  0  0  0  0  0  0  0  0
   13.0496    3.7020    3.9427 H   0  0  0  0  0  0  0  0  0  0  0  0
   10.7377    3.2570    2.5799 O   0  0  0  0  0  0  0  0  0  0  0  0
   11.4814    2.2003    2.1232 C   0  0  0  0  0  0  0  0  0  0  0  0
   12.6786    2.2152    1.9780 O   0  0  0  0  0  0  0  0  0  0  0  0
   10.5687    1.0343    1.8309 C   0  0  0  0  0  0  0  0  0  0  0  0
   10.0034    0.7655    2.7280 H   0  0  0  0  0  0  0  0  0  0  0  0
    9.8435    1.3109    1.0598 H   0  0  0  0  0  0  0  0  0  0  0  0
   11.1635    0.1858    1.4949 H   0  0  0  0  0  0  0  0  0  0  0  0
  1  6  1  0  0  0  0
  2  1  2  0  0  0  0
  2  3  1  0  0  0  0
  3  4  2  0  0  0  0
  4 13  1  0  0  0  0
  4  5  1  0  0  0  0
  5 12  1  0  0  0  0
  6 11  1  0  0  0  0
  6  5  2  0  0  0  0
  7  1  1  0  0  0  0
  8  2  1  0  0  0  0
  9 10  3  0  0  0  0
 14  3  1  0  0  0  0
 15 14  1  0  0  0  0
 16 15  2  0  0  0  0
 17 15  1  0  0  0  0
 17 18  1  0  0  0  0
 19 17  1  0  0  0  0
 20 17  1  0  0  0  0
M  END
