Coordinates from ORCA-job Ph-N2-OAc-B3LYPG-6-31G_dp-MTMO-d009-169-n800
 OpenBabel09051908423D

 20 19  0  0  0  0  0  0  0  0999 V2000
   11.1234    6.7672    2.8178 C   0  0  0  0  0  0  0  0  0  0  0  0
   10.5951    5.5193    2.4886 C   0  0  0  0  0  0  0  0  0  0  0  0
   11.2795    4.3640    2.8648 C   0  0  0  0  0  0  0  0  0  0  0  0
   12.4823    4.4336    3.5690 C   0  0  0  0  0  0  0  0  0  0  0  0
   13.0005    5.6902    3.8877 C   0  0  0  0  0  0  0  0  0  0  0  0
   12.3292    6.8565    3.5161 C   0  0  0  0  0  0  0  0  0  0  0  0
   10.5914    7.6679    2.5266 H   0  0  0  0  0  0  0  0  0  0  0  0
    9.6577    5.4243    1.9508 H   0  0  0  0  0  0  0  0  0  0  0  0
    8.8149   -6.5879   -1.4149 N   0  0  0  0  0  0  0  0  0  0  0  0
    8.9911   -5.5693   -1.0236 N   0  0  0  0  0  0  0  0  0  0  0  0
   12.7416    7.8277    3.7710 H   0  0  0  0  0  0  0  0  0  0  0  0
   13.9387    5.7527    4.4308 H   0  0  0  0  0  0  0  0  0  0  0  0
   13.0055    3.5299    3.8508 H   0  0  0  0  0  0  0  0  0  0  0  0
   10.6386    3.1605    2.5614 O   0  0  0  0  0  0  0  0  0  0  0  0
   11.3307    2.0756    2.0897 C   0  0  0  0  0  0  0  0  0  0  0  0
   12.5230    2.0472    1.9094 O   0  0  0  0  0  0  0  0  0  0  0  0
   10.3689    0.9416    1.8316 C   0  0  0  0  0  0  0  0  0  0  0  0
    9.8175    0.7013    2.7452 H   0  0  0  0  0  0  0  0  0  0  0  0
    9.6347    1.2382    1.0766 H   0  0  0  0  0  0  0  0  0  0  0  0
   10.9231    0.0690    1.4881 H   0  0  0  0  0  0  0  0  0  0  0  0
  1  6  1  0  0  0  0
  2  1  2  0  0  0  0
  2  3  1  0  0  0  0
  3  4  2  0  0  0  0
  4 13  1  0  0  0  0
  4  5  1  0  0  0  0
  5 12  1  0  0  0  0
  6 11  1  0  0  0  0
  6  5  2  0  0  0  0
  7  1  1  0  0  0  0
  8  2  1  0  0  0  0
  9 10  3  0  0  0  0
 14  3  1  0  0  0  0
 15 14  1  0  0  0  0
 16 15  2  0  0  0  0
 17 15  1  0  0  0  0
 17 18  1  0  0  0  0
 19 17  1  0  0  0  0
 20 17  1  0  0  0  0
M  END
