Coordinates from ORCA-job Ph-N2-OAc-B3LYPG-6-31G_dp-MTMO-d009-169-n800
 OpenBabel09051908423D

 20 19  0  0  0  0  0  0  0  0999 V2000
   11.9193    5.7763    2.2643 C   0  0  0  0  0  0  0  0  0  0  0  0
   10.8345    4.9096    2.1301 C   0  0  0  0  0  0  0  0  0  0  0  0
   10.9132    3.6249    2.6663 C   0  0  0  0  0  0  0  0  0  0  0  0
   12.0561    3.1909    3.3393 C   0  0  0  0  0  0  0  0  0  0  0  0
   13.1353    4.0684    3.4618 C   0  0  0  0  0  0  0  0  0  0  0  0
   13.0739    5.3574    2.9286 C   0  0  0  0  0  0  0  0  0  0  0  0
   11.8596    6.7775    1.8484 H   0  0  0  0  0  0  0  0  0  0  0  0
    9.9256    5.2134    1.6215 H   0  0  0  0  0  0  0  0  0  0  0  0
   13.1766    1.1619   -0.1680 N   0  0  0  0  0  0  0  0  0  0  0  0
   13.8682    1.1081    0.6922 N   0  0  0  0  0  0  0  0  0  0  0  0
   13.9195    6.0307    3.0321 H   0  0  0  0  0  0  0  0  0  0  0  0
   14.0302    3.7364    3.9797 H   0  0  0  0  0  0  0  0  0  0  0  0
   12.1057    2.1902    3.7468 H   0  0  0  0  0  0  0  0  0  0  0  0
    9.7539    2.8527    2.5539 O   0  0  0  0  0  0  0  0  0  0  0  0
    9.8069    1.5244    2.2244 C   0  0  0  0  0  0  0  0  0  0  0  0
   10.8237    0.9085    2.0170 O   0  0  0  0  0  0  0  0  0  0  0  0
    8.4068    0.9656    2.1602 C   0  0  0  0  0  0  0  0  0  0  0  0
    7.9023    1.1047    3.1213 H   0  0  0  0  0  0  0  0  0  0  0  0
    7.8235    1.5023    1.4062 H   0  0  0  0  0  0  0  0  0  0  0  0
    8.4527   -0.0940    1.9114 H   0  0  0  0  0  0  0  0  0  0  0  0
  1  6  1  0  0  0  0
  2  1  2  0  0  0  0
  2  3  1  0  0  0  0
  3  4  2  0  0  0  0
  4  5  1  0  0  0  0
  4 13  1  0  0  0  0
  5 12  1  0  0  0  0
  6 11  1  0  0  0  0
  6  5  2  0  0  0  0
  7  1  1  0  0  0  0
  8  2  1  0  0  0  0
  9 10  3  0  0  0  0
 14  3  1  0  0  0  0
 15 14  1  0  0  0  0
 16 15  2  0  0  0  0
 17 15  1  0  0  0  0
 17 18  1  0  0  0  0
 19 17  1  0  0  0  0
 20 17  1  0  0  0  0
M  END
