Coordinates from ORCA-job Ph-N2-OAc-B3LYPG-6-31G_dp-MTMO-d009-169-n800
 OpenBabel09051908423D

 20 20  0  0  0  0  0  0  0  0999 V2000
   12.4241    5.9643    2.3062 C   0  0  0  0  0  0  0  0  0  0  0  0
   12.1746    5.1222    1.2153 C   0  0  0  0  0  0  0  0  0  0  0  0
   12.1114    3.7780    1.5048 C   0  0  0  0  0  0  0  0  0  0  0  0
   12.3144    3.1711    2.7222 C   0  0  0  0  0  0  0  0  0  0  0  0
   12.5720    4.0432    3.7879 C   0  0  0  0  0  0  0  0  0  0  0  0
   12.6227    5.4249    3.5803 C   0  0  0  0  0  0  0  0  0  0  0  0
   12.4711    7.0381    2.1512 H   0  0  0  0  0  0  0  0  0  0  0  0
   12.0313    5.5007    0.2105 H   0  0  0  0  0  0  0  0  0  0  0  0
   11.8962    2.6946    0.1076 N   0  0  0  0  0  0  0  0  0  0  0  0
   11.0656    1.8847   -0.0012 N   0  0  0  0  0  0  0  0  0  0  0  0
   12.8250    6.0863    4.4170 H   0  0  0  0  0  0  0  0  0  0  0  0
   12.7343    3.6329    4.7800 H   0  0  0  0  0  0  0  0  0  0  0  0
   12.2507    2.0924    2.8355 H   0  0  0  0  0  0  0  0  0  0  0  0
    9.7896    1.9369    1.2223 O   0  0  0  0  0  0  0  0  0  0  0  0
    9.9343    0.9368    2.0723 C   0  0  0  0  0  0  0  0  0  0  0  0
   10.9742    0.3184    2.2639 O   0  0  0  0  0  0  0  0  0  0  0  0
    8.6393    0.6318    2.8147 C   0  0  0  0  0  0  0  0  0  0  0  0
    8.1294    1.5519    3.1100 H   0  0  0  0  0  0  0  0  0  0  0  0
    7.9681    0.0812    2.1470 H   0  0  0  0  0  0  0  0  0  0  0  0
    8.8589    0.0192    3.6899 H   0  0  0  0  0  0  0  0  0  0  0  0
  1  6  2  0  0  0  0
  2  3  2  0  0  0  0
  2  1  1  0  0  0  0
  3  4  1  0  0  0  0
  4 13  1  0  0  0  0
  4  5  2  0  0  0  0
  5 12  1  0  0  0  0
  6  5  1  0  0  0  0
  6 11  1  0  0  0  0
  7  1  1  0  0  0  0
  8  2  1  0  0  0  0
  9  3  1  0  0  0  0
 10  9  2  0  0  0  0
 10 14  1  0  0  0  0
 14 15  1  0  0  0  0
 15 16  2  0  0  0  0
 15 17  1  0  0  0  0
 17 18  1  0  0  0  0
 17 20  1  0  0  0  0
 19 17  1  0  0  0  0
M  END
