Coordinates from ORCA-job Ph-N2-OAc-B3LYPG-6-31G_dp-MTMO-d009-169-n800
 OpenBabel09051908423D

 20 19  0  0  0  0  0  0  0  0999 V2000
   11.9865    5.7187    2.2011 C   0  0  0  0  0  0  0  0  0  0  0  0
   10.9034    4.8527    2.0514 C   0  0  0  0  0  0  0  0  0  0  0  0
   10.9372    3.5998    2.6630 C   0  0  0  0  0  0  0  0  0  0  0  0
   12.0339    3.1976    3.4267 C   0  0  0  0  0  0  0  0  0  0  0  0
   13.1125    4.0741    3.5635 C   0  0  0  0  0  0  0  0  0  0  0  0
   13.0957    5.3310    2.9557 C   0  0  0  0  0  0  0  0  0  0  0  0
   11.9609    6.6953    1.7271 H   0  0  0  0  0  0  0  0  0  0  0  0
   10.0292    5.1328    1.4730 H   0  0  0  0  0  0  0  0  0  0  0  0
   12.8413    1.5028   -0.1668 N   0  0  0  0  0  0  0  0  0  0  0  0
   13.7799    1.2738    0.3695 N   0  0  0  0  0  0  0  0  0  0  0  0
   13.9403    6.0037    3.0713 H   0  0  0  0  0  0  0  0  0  0  0  0
   13.9718    3.7666    4.1522 H   0  0  0  0  0  0  0  0  0  0  0  0
   12.0497    2.2214    3.8918 H   0  0  0  0  0  0  0  0  0  0  0  0
    9.7784    2.8319    2.5221 O   0  0  0  0  0  0  0  0  0  0  0  0
    9.8322    1.4826    2.2958 C   0  0  0  0  0  0  0  0  0  0  0  0
   10.8502    0.8392    2.2153 O   0  0  0  0  0  0  0  0  0  0  0  0
    8.4315    0.9392    2.1579 C   0  0  0  0  0  0  0  0  0  0  0  0
    7.8393    1.1911    3.0429 H   0  0  0  0  0  0  0  0  0  0  0  0
    7.9382    1.3971    1.2951 H   0  0  0  0  0  0  0  0  0  0  0  0
    8.4752   -0.1418    2.0291 H   0  0  0  0  0  0  0  0  0  0  0  0
  1  6  1  0  0  0  0
  2  1  2  0  0  0  0
  2  3  1  0  0  0  0
  3  4  2  0  0  0  0
  4  5  1  0  0  0  0
  4 13  1  0  0  0  0
  5 12  1  0  0  0  0
  6 11  1  0  0  0  0
  6  5  2  0  0  0  0
  7  1  1  0  0  0  0
  8  2  1  0  0  0  0
  9 10  3  0  0  0  0
 14  3  1  0  0  0  0
 15 14  1  0  0  0  0
 16 15  2  0  0  0  0
 17 15  1  0  0  0  0
 17 18  1  0  0  0  0
 19 17  1  0  0  0  0
 20 17  1  0  0  0  0
M  END
