Coordinates from ORCA-job Ph-N2-OAc-B3LYPG-6-31G_dp-MTMO-d009-169-n800
 OpenBabel09051908423D

 20 19  0  0  0  0  0  0  0  0999 V2000
   11.2150    6.6023    2.7945 C   0  0  0  0  0  0  0  0  0  0  0  0
   10.5812    5.4013    2.4769 C   0  0  0  0  0  0  0  0  0  0  0  0
   11.2012    4.1936    2.7958 C   0  0  0  0  0  0  0  0  0  0  0  0
   12.4435    4.1649    3.4313 C   0  0  0  0  0  0  0  0  0  0  0  0
   13.0670    5.3753    3.7392 C   0  0  0  0  0  0  0  0  0  0  0  0
   12.4610    6.5930    3.4242 C   0  0  0  0  0  0  0  0  0  0  0  0
   10.7334    7.5437    2.5476 H   0  0  0  0  0  0  0  0  0  0  0  0
    9.6112    5.3832    1.9917 H   0  0  0  0  0  0  0  0  0  0  0  0
    9.8057   -4.9692   -0.7155 N   0  0  0  0  0  0  0  0  0  0  0  0
    9.8517   -3.9427   -0.3085 N   0  0  0  0  0  0  0  0  0  0  0  0
   12.9553    7.5278    3.6700 H   0  0  0  0  0  0  0  0  0  0  0  0
   14.0358    5.3610    4.2293 H   0  0  0  0  0  0  0  0  0  0  0  0
   12.9155    3.2212    3.6690 H   0  0  0  0  0  0  0  0  0  0  0  0
   10.4602    3.0441    2.5113 O   0  0  0  0  0  0  0  0  0  0  0  0
   11.0463    1.9210    1.9880 C   0  0  0  0  0  0  0  0  0  0  0  0
   12.2214    1.8129    1.7381 O   0  0  0  0  0  0  0  0  0  0  0  0
    9.9946    0.8596    1.7754 C   0  0  0  0  0  0  0  0  0  0  0  0
    9.4947    0.6330    2.7216 H   0  0  0  0  0  0  0  0  0  0  0  0
    9.2300    1.2226    1.0822 H   0  0  0  0  0  0  0  0  0  0  0  0
   10.4626   -0.0390    1.3754 H   0  0  0  0  0  0  0  0  0  0  0  0
  1  6  1  0  0  0  0
  2  1  2  0  0  0  0
  2  3  1  0  0  0  0
  3  4  2  0  0  0  0
  4 13  1  0  0  0  0
  4  5  1  0  0  0  0
  5 12  1  0  0  0  0
  6 11  1  0  0  0  0
  6  5  2  0  0  0  0
  7  1  1  0  0  0  0
  8  2  1  0  0  0  0
  9 10  3  0  0  0  0
 14  3  1  0  0  0  0
 15 14  1  0  0  0  0
 16 15  2  0  0  0  0
 17 15  1  0  0  0  0
 17 18  1  0  0  0  0
 19 17  1  0  0  0  0
 20 17  1  0  0  0  0
M  END
