Coordinates from ORCA-job Ph-N2-OAc-B3LYPG-6-31G_dp-MTMO-d009-169-n800
 OpenBabel09051908423D

 20 19  0  0  0  0  0  0  0  0999 V2000
   11.5447    6.2127    2.4248 C   0  0  0  0  0  0  0  0  0  0  0  0
   10.6455    5.1545    2.2936 C   0  0  0  0  0  0  0  0  0  0  0  0
   11.0162    3.8837    2.7301 C   0  0  0  0  0  0  0  0  0  0  0  0
   12.2684    3.6510    3.2994 C   0  0  0  0  0  0  0  0  0  0  0  0
   13.1590    4.7187    3.4209 C   0  0  0  0  0  0  0  0  0  0  0  0
   12.8046    5.9976    2.9866 C   0  0  0  0  0  0  0  0  0  0  0  0
   11.2586    7.2038    2.0857 H   0  0  0  0  0  0  0  0  0  0  0  0
    9.6601    5.2976    1.8632 H   0  0  0  0  0  0  0  0  0  0  0  0
   12.5490   -1.2501   -0.1999 N   0  0  0  0  0  0  0  0  0  0  0  0
   11.5173   -1.3947    0.1683 N   0  0  0  0  0  0  0  0  0  0  0  0
   13.5052    6.8211    3.0872 H   0  0  0  0  0  0  0  0  0  0  0  0
   14.1370    4.5452    3.8599 H   0  0  0  0  0  0  0  0  0  0  0  0
   12.5428    2.6581    3.6307 H   0  0  0  0  0  0  0  0  0  0  0  0
   10.0316    2.8963    2.6366 O   0  0  0  0  0  0  0  0  0  0  0  0
   10.3257    1.6479    2.1551 C   0  0  0  0  0  0  0  0  0  0  0  0
   11.4205    1.2999    1.7854 O   0  0  0  0  0  0  0  0  0  0  0  0
    9.0819    0.7939    2.1684 C   0  0  0  0  0  0  0  0  0  0  0  0
    8.7485    0.6447    3.1998 H   0  0  0  0  0  0  0  0  0  0  0  0
    8.2709    1.2962    1.6340 H   0  0  0  0  0  0  0  0  0  0  0  0
    9.3000   -0.1684    1.7074 H   0  0  0  0  0  0  0  0  0  0  0  0
  1  6  1  0  0  0  0
  2  1  2  0  0  0  0
  2  3  1  0  0  0  0
  3  4  2  0  0  0  0
  4  5  1  0  0  0  0
  4 13  1  0  0  0  0
  5 12  1  0  0  0  0
  6 11  1  0  0  0  0
  6  5  2  0  0  0  0
  7  1  1  0  0  0  0
  8  2  1  0  0  0  0
  9 10  3  0  0  0  0
 14  3  1  0  0  0  0
 15 17  1  0  0  0  0
 15 14  1  0  0  0  0
 16 15  2  0  0  0  0
 17 18  1  0  0  0  0
 19 17  1  0  0  0  0
 20 17  1  0  0  0  0
M  END
