Coordinates from ORCA-job Ph-N2-OAc-B3LYPG-6-31G_dp-MTMO-d009-169-n800
 OpenBabel09051908423D

 20 19  0  0  0  0  0  0  0  0999 V2000
   11.6728    6.0120    2.6290 C   0  0  0  0  0  0  0  0  0  0  0  0
   10.6317    5.0903    2.5192 C   0  0  0  0  0  0  0  0  0  0  0  0
   10.9016    3.7316    2.6734 C   0  0  0  0  0  0  0  0  0  0  0  0
   12.1930    3.2754    2.9390 C   0  0  0  0  0  0  0  0  0  0  0  0
   13.2249    4.2095    3.0425 C   0  0  0  0  0  0  0  0  0  0  0  0
   12.9729    5.5742    2.8888 C   0  0  0  0  0  0  0  0  0  0  0  0
   11.4650    7.0714    2.5093 H   0  0  0  0  0  0  0  0  0  0  0  0
    9.6133    5.4066    2.3192 H   0  0  0  0  0  0  0  0  0  0  0  0
   13.6624   -0.3867    0.5196 N   0  0  0  0  0  0  0  0  0  0  0  0
   13.6875    0.0779    1.5219 N   0  0  0  0  0  0  0  0  0  0  0  0
   13.7839    6.2911    2.9727 H   0  0  0  0  0  0  0  0  0  0  0  0
   14.2334    3.8620    3.2471 H   0  0  0  0  0  0  0  0  0  0  0  0
   12.3908    2.2173    3.0520 H   0  0  0  0  0  0  0  0  0  0  0  0
    9.7927    2.8818    2.6285 O   0  0  0  0  0  0  0  0  0  0  0  0
    9.8213    1.7133    1.9145 C   0  0  0  0  0  0  0  0  0  0  0  0
   10.7705    1.3183    1.2830 O   0  0  0  0  0  0  0  0  0  0  0  0
    8.4900    1.0137    2.0416 C   0  0  0  0  0  0  0  0  0  0  0  0
    8.2730    0.8106    3.0943 H   0  0  0  0  0  0  0  0  0  0  0  0
    7.6906    1.6575    1.6632 H   0  0  0  0  0  0  0  0  0  0  0  0
    8.5162    0.0818    1.4789 H   0  0  0  0  0  0  0  0  0  0  0  0
  1  6  1  0  0  0  0
  2  1  2  0  0  0  0
  2  3  1  0  0  0  0
  3  4  2  0  0  0  0
  4  5  1  0  0  0  0
  4 13  1  0  0  0  0
  5 12  1  0  0  0  0
  6 11  1  0  0  0  0
  6  5  2  0  0  0  0
  7  1  1  0  0  0  0
  8  2  1  0  0  0  0
  9 10  3  0  0  0  0
 14  3  1  0  0  0  0
 15 17  1  0  0  0  0
 15 14  1  0  0  0  0
 16 15  2  0  0  0  0
 17 18  1  0  0  0  0
 19 17  1  0  0  0  0
 20 17  1  0  0  0  0
M  END
