Coordinates from ORCA-job Ph-N2-OAc-B3LYPG-6-31G_dp-MTMO-d009-169-n800
 OpenBabel09051908423D

 20 19  0  0  0  0  0  0  0  0999 V2000
   11.1835    6.7158    2.8241 C   0  0  0  0  0  0  0  0  0  0  0  0
   10.5945    5.4942    2.4996 C   0  0  0  0  0  0  0  0  0  0  0  0
   11.2437    4.3079    2.8403 C   0  0  0  0  0  0  0  0  0  0  0  0
   12.4710    4.3210    3.5045 C   0  0  0  0  0  0  0  0  0  0  0  0
   13.0498    5.5519    3.8190 C   0  0  0  0  0  0  0  0  0  0  0  0
   12.4143    6.7485    3.4825 C   0  0  0  0  0  0  0  0  0  0  0  0
   10.6792    7.6405    2.5603 H   0  0  0  0  0  0  0  0  0  0  0  0
    9.6370    5.4434    1.9923 H   0  0  0  0  0  0  0  0  0  0  0  0
    9.3105   -6.0382   -1.1410 N   0  0  0  0  0  0  0  0  0  0  0  0
    9.4010   -5.0065   -0.7550 N   0  0  0  0  0  0  0  0  0  0  0  0
   12.8738    7.6994    3.7338 H   0  0  0  0  0  0  0  0  0  0  0  0
   14.0070    5.5701    4.3313 H   0  0  0  0  0  0  0  0  0  0  0  0
   12.9662    3.3938    3.7591 H   0  0  0  0  0  0  0  0  0  0  0  0
   10.5447    3.1349    2.5457 O   0  0  0  0  0  0  0  0  0  0  0  0
   11.1763    2.0268    2.0441 C   0  0  0  0  0  0  0  0  0  0  0  0
   12.3601    1.9511    1.8254 O   0  0  0  0  0  0  0  0  0  0  0  0
   10.1611    0.9350    1.8094 C   0  0  0  0  0  0  0  0  0  0  0  0
    9.6354    0.7048    2.7405 H   0  0  0  0  0  0  0  0  0  0  0  0
    9.4114    1.2698    1.0862 H   0  0  0  0  0  0  0  0  0  0  0  0
   10.6667    0.0456    1.4355 H   0  0  0  0  0  0  0  0  0  0  0  0
  1  6  1  0  0  0  0
  2  1  2  0  0  0  0
  2  3  1  0  0  0  0
  3  4  2  0  0  0  0
  4 13  1  0  0  0  0
  4  5  1  0  0  0  0
  5 12  1  0  0  0  0
  6 11  1  0  0  0  0
  6  5  2  0  0  0  0
  7  1  1  0  0  0  0
  8  2  1  0  0  0  0
  9 10  3  0  0  0  0
 14  3  1  0  0  0  0
 15 14  1  0  0  0  0
 16 15  2  0  0  0  0
 17 15  1  0  0  0  0
 17 18  1  0  0  0  0
 19 17  1  0  0  0  0
 20 17  1  0  0  0  0
M  END
