Coordinates from ORCA-job Ph-N2-OAc-B3LYPG-6-31G_dp-MTMO-d009-169-n800
 OpenBabel09051908423D

 20 19  0  0  0  0  0  0  0  0999 V2000
   11.1680    6.7281    2.8204 C   0  0  0  0  0  0  0  0  0  0  0  0
   10.5942    5.4992    2.4959 C   0  0  0  0  0  0  0  0  0  0  0  0
   11.2527    4.3209    2.8465 C   0  0  0  0  0  0  0  0  0  0  0  0
   12.4743    4.3491    3.5206 C   0  0  0  0  0  0  0  0  0  0  0  0
   13.0379    5.5871    3.8350 C   0  0  0  0  0  0  0  0  0  0  0  0
   12.3930    6.7758    3.4887 C   0  0  0  0  0  0  0  0  0  0  0  0
   10.6563    7.6465    2.5490 H   0  0  0  0  0  0  0  0  0  0  0  0
    9.6413    5.4367    1.9812 H   0  0  0  0  0  0  0  0  0  0  0  0
    9.1865   -6.1667   -1.2103 N   0  0  0  0  0  0  0  0  0  0  0  0
    9.3013   -5.1367   -0.8263 N   0  0  0  0  0  0  0  0  0  0  0  0
   12.8407    7.7323    3.7400 H   0  0  0  0  0  0  0  0  0  0  0  0
   13.9907    5.6171    4.3548 H   0  0  0  0  0  0  0  0  0  0  0  0
   12.9769    3.4280    3.7827 H   0  0  0  0  0  0  0  0  0  0  0  0
   10.5681    3.1398    2.5508 O   0  0  0  0  0  0  0  0  0  0  0  0
   11.2149    2.0366    2.0579 C   0  0  0  0  0  0  0  0  0  0  0  0
   12.4011    1.9722    1.8491 O   0  0  0  0  0  0  0  0  0  0  0  0
   10.2126    0.9340    1.8180 C   0  0  0  0  0  0  0  0  0  0  0  0
    9.6783    0.7041    2.7444 H   0  0  0  0  0  0  0  0  0  0  0  0
    9.4681    1.2579    1.0845 H   0  0  0  0  0  0  0  0  0  0  0  0
   10.7306    0.0474    1.4546 H   0  0  0  0  0  0  0  0  0  0  0  0
  1  6  1  0  0  0  0
  2  1  2  0  0  0  0
  2  3  1  0  0  0  0
  3  4  2  0  0  0  0
  4 13  1  0  0  0  0
  4  5  1  0  0  0  0
  5 12  1  0  0  0  0
  6 11  1  0  0  0  0
  6  5  2  0  0  0  0
  7  1  1  0  0  0  0
  8  2  1  0  0  0  0
  9 10  3  0  0  0  0
 14  3  1  0  0  0  0
 15 14  1  0  0  0  0
 16 15  2  0  0  0  0
 17 15  1  0  0  0  0
 17 18  1  0  0  0  0
 19 17  1  0  0  0  0
 20 17  1  0  0  0  0
M  END
