Coordinates from ORCA-job Ph-N2-OAc-B3LYPG-6-31G_dp-MTMO-d009-169-n800
 OpenBabel09051908423D

 20 19  0  0  0  0  0  0  0  0999 V2000
   11.1551    7.1532    2.9735 C   0  0  0  0  0  0  0  0  0  0  0  0
   10.6900    5.8878    2.6171 C   0  0  0  0  0  0  0  0  0  0  0  0
   11.4057    4.7579    3.0117 C   0  0  0  0  0  0  0  0  0  0  0  0
   12.5774    4.8700    3.7613 C   0  0  0  0  0  0  0  0  0  0  0  0
   13.0324    6.1438    4.1069 C   0  0  0  0  0  0  0  0  0  0  0  0
   12.3293    7.2851    3.7172 C   0  0  0  0  0  0  0  0  0  0  0  0
   10.5986    8.0341    2.6678 H   0  0  0  0  0  0  0  0  0  0  0  0
    9.7779    5.7595    2.0436 H   0  0  0  0  0  0  0  0  0  0  0  0
    7.5014  -10.1872   -2.7878 N   0  0  0  0  0  0  0  0  0  0  0  0
    7.7599   -9.2072   -2.3469 N   0  0  0  0  0  0  0  0  0  0  0  0
   12.6929    8.2700    3.9933 H   0  0  0  0  0  0  0  0  0  0  0  0
   13.9465    6.2396    4.6853 H   0  0  0  0  0  0  0  0  0  0  0  0
   13.1256    3.9858    4.0571 H   0  0  0  0  0  0  0  0  0  0  0  0
   10.8259    3.5318    2.6766 O   0  0  0  0  0  0  0  0  0  0  0  0
   11.5790    2.4813    2.2212 C   0  0  0  0  0  0  0  0  0  0  0  0
   12.7772    2.5039    2.0846 O   0  0  0  0  0  0  0  0  0  0  0  0
   10.6754    1.3111    1.9182 C   0  0  0  0  0  0  0  0  0  0  0  0
   10.1060    1.0349    2.8104 H   0  0  0  0  0  0  0  0  0  0  0  0
    9.9535    1.5866    1.1436 H   0  0  0  0  0  0  0  0  0  0  0  0
   11.2777    0.4677    1.5825 H   0  0  0  0  0  0  0  0  0  0  0  0
  1  6  1  0  0  0  0
  2  1  2  0  0  0  0
  2  3  1  0  0  0  0
  3  4  2  0  0  0  0
  4 13  1  0  0  0  0
  4  5  1  0  0  0  0
  5 12  1  0  0  0  0
  6 11  1  0  0  0  0
  6  5  2  0  0  0  0
  7  1  1  0  0  0  0
  8  2  1  0  0  0  0
  9 10  3  0  0  0  0
 14  3  1  0  0  0  0
 15 14  1  0  0  0  0
 16 15  2  0  0  0  0
 17 15  1  0  0  0  0
 17 18  1  0  0  0  0
 19 17  1  0  0  0  0
 20 17  1  0  0  0  0
M  END
