Coordinates from ORCA-job Ph-N2-OAc-B3LYPG-6-31G_dp-MTMO-d009-169-n800
 OpenBabel09051908423D

 20 19  0  0  0  0  0  0  0  0999 V2000
   11.2678    6.5039    2.7363 C   0  0  0  0  0  0  0  0  0  0  0  0
   10.5790    5.3266    2.4459 C   0  0  0  0  0  0  0  0  0  0  0  0
   11.1566    4.0980    2.7643 C   0  0  0  0  0  0  0  0  0  0  0  0
   12.4108    4.0250    3.3722 C   0  0  0  0  0  0  0  0  0  0  0  0
   13.0897    5.2120    3.6531 C   0  0  0  0  0  0  0  0  0  0  0  0
   12.5264    6.4502    3.3385 C   0  0  0  0  0  0  0  0  0  0  0  0
   10.8195    7.4616    2.4897 H   0  0  0  0  0  0  0  0  0  0  0  0
    9.5986    5.3430    1.9820 H   0  0  0  0  0  0  0  0  0  0  0  0
   10.4203   -4.0167   -0.4793 N   0  0  0  0  0  0  0  0  0  0  0  0
   10.2680   -3.0431    0.0211 N   0  0  0  0  0  0  0  0  0  0  0  0
   13.0636    7.3665    3.5630 H   0  0  0  0  0  0  0  0  0  0  0  0
   14.0678    5.1632    4.1220 H   0  0  0  0  0  0  0  0  0  0  0  0
   12.8493    3.0652    3.6097 H   0  0  0  0  0  0  0  0  0  0  0  0
   10.3642    2.9760    2.5095 O   0  0  0  0  0  0  0  0  0  0  0  0
   10.8927    1.8268    1.9801 C   0  0  0  0  0  0  0  0  0  0  0  0
   12.0553    1.6736    1.6979 O   0  0  0  0  0  0  0  0  0  0  0  0
    9.7970    0.8028    1.8103 C   0  0  0  0  0  0  0  0  0  0  0  0
    9.3356    0.5875    2.7786 H   0  0  0  0  0  0  0  0  0  0  0  0
    9.0124    1.1970    1.1577 H   0  0  0  0  0  0  0  0  0  0  0  0
   10.2129   -0.1097    1.3850 H   0  0  0  0  0  0  0  0  0  0  0  0
  1  6  1  0  0  0  0
  2  1  2  0  0  0  0
  2  3  1  0  0  0  0
  3  4  2  0  0  0  0
  4 13  1  0  0  0  0
  4  5  1  0  0  0  0
  5 12  1  0  0  0  0
  6 11  1  0  0  0  0
  6  5  2  0  0  0  0
  7  1  1  0  0  0  0
  8  2  1  0  0  0  0
  9 10  3  0  0  0  0
 14  3  1  0  0  0  0
 15 14  1  0  0  0  0
 16 15  2  0  0  0  0
 17 15  1  0  0  0  0
 17 18  1  0  0  0  0
 19 17  1  0  0  0  0
 20 17  1  0  0  0  0
M  END
