Coordinates from ORCA-job Ph-N2-OAc-B3LYPG-6-31G_dp-MTMO-d009-169-n800
 OpenBabel09051908423D

 20 18  0  0  0  0  0  0  0  0999 V2000
   13.1734    6.0588    2.2574 C   0  0  0  0  0  0  0  0  0  0  0  0
   12.4041    5.3084    1.3362 C   0  0  0  0  0  0  0  0  0  0  0  0
   11.9458    4.1930    1.9889 C   0  0  0  0  0  0  0  0  0  0  0  0
   12.0632    3.7491    3.1570 C   0  0  0  0  0  0  0  0  0  0  0  0
   12.8167    4.4572    4.1021 C   0  0  0  0  0  0  0  0  0  0  0  0
   13.3704    5.6467    3.5884 C   0  0  0  0  0  0  0  0  0  0  0  0
   13.6250    6.9861    1.9143 H   0  0  0  0  0  0  0  0  0  0  0  0
   12.2370    5.5996    0.3076 H   0  0  0  0  0  0  0  0  0  0  0  0
   10.9427    3.1895   -0.9494 N   0  0  0  0  0  0  0  0  0  0  0  0
   10.6583    2.3027   -1.5439 N   0  0  0  0  0  0  0  0  0  0  0  0
   13.9713    6.2716    4.2446 H   0  0  0  0  0  0  0  0  0  0  0  0
   12.9743    4.1505    5.1311 H   0  0  0  0  0  0  0  0  0  0  0  0
   10.7674    2.0187    3.2962 H   0  0  0  0  0  0  0  0  0  0  0  0
    9.5744    1.5555    1.3629 O   0  0  0  0  0  0  0  0  0  0  0  0
    9.4820    0.9463    2.4086 C   0  0  0  0  0  0  0  0  0  0  0  0
   10.2001    1.2467    3.5096 O   0  0  0  0  0  0  0  0  0  0  0  0
    8.5627   -0.2271    2.6530 C   0  0  0  0  0  0  0  0  0  0  0  0
    8.0241   -0.4660    1.7368 H   0  0  0  0  0  0  0  0  0  0  0  0
    9.1409   -1.0938    2.9862 H   0  0  0  0  0  0  0  0  0  0  0  0
    7.8537    0.0164    3.4502 H   0  0  0  0  0  0  0  0  0  0  0  0
  1  6  2  0  0  0  0
  2  3  2  0  0  0  0
  2  1  1  0  0  0  0
  3  4  1  0  0  0  0
  4  5  2  0  0  0  0
  5 12  1  0  0  0  0
  6  5  1  0  0  0  0
  6 11  1  0  0  0  0
  7  1  1  0  0  0  0
  8  2  1  0  0  0  0
 10  9  3  0  0  0  0
 13 16  1  0  0  0  0
 14 15  2  0  0  0  0
 15 17  1  0  0  0  0
 15 16  1  0  0  0  0
 17 19  1  0  0  0  0
 17 20  1  0  0  0  0
 18 17  1  0  0  0  0
M  RAD  2   3   2   4   2
M  END
