Coordinates from ORCA-job Ph-N2-OAc-B3LYPG-6-31G_dp-MTMO-d009-169-n800
 OpenBabel09051908423D

 20 18  0  0  0  0  0  0  0  0999 V2000
   13.2257    6.0959    2.2962 C   0  0  0  0  0  0  0  0  0  0  0  0
   12.6979    5.4813    1.1385 C   0  0  0  0  0  0  0  0  0  0  0  0
   12.1100    4.3071    1.5204 C   0  0  0  0  0  0  0  0  0  0  0  0
   11.9364    3.6781    2.6014 C   0  0  0  0  0  0  0  0  0  0  0  0
   12.4595    4.2757    3.7656 C   0  0  0  0  0  0  0  0  0  0  0  0
   13.1080    5.5077    3.5686 C   0  0  0  0  0  0  0  0  0  0  0  0
   13.7323    7.0511    2.1889 H   0  0  0  0  0  0  0  0  0  0  0  0
   12.7660    5.8989    0.1422 H   0  0  0  0  0  0  0  0  0  0  0  0
   11.2864    3.3797   -0.5130 N   0  0  0  0  0  0  0  0  0  0  0  0
   10.7796    2.4636   -0.8700 N   0  0  0  0  0  0  0  0  0  0  0  0
   13.5319    6.0243    4.4256 H   0  0  0  0  0  0  0  0  0  0  0  0
   12.3763    3.8345    4.7547 H   0  0  0  0  0  0  0  0  0  0  0  0
   10.9408    1.9768    2.8757 H   0  0  0  0  0  0  0  0  0  0  0  0
    9.1386    1.6255    1.4456 O   0  0  0  0  0  0  0  0  0  0  0  0
    9.4051    0.9515    2.4200 C   0  0  0  0  0  0  0  0  0  0  0  0
   10.4688    1.1750    3.2131 O   0  0  0  0  0  0  0  0  0  0  0  0
    8.5986   -0.2350    2.8965 C   0  0  0  0  0  0  0  0  0  0  0  0
    7.7497   -0.3905    2.2321 H   0  0  0  0  0  0  0  0  0  0  0  0
    9.2280   -1.1298    2.9173 H   0  0  0  0  0  0  0  0  0  0  0  0
    8.2478   -0.0619    3.9181 H   0  0  0  0  0  0  0  0  0  0  0  0
  1  6  2  0  0  0  0
  2  3  2  0  0  0  0
  2  1  1  0  0  0  0
  3  4  1  0  0  0  0
  4  5  2  0  0  0  0
  5 12  1  0  0  0  0
  6  5  1  0  0  0  0
  6 11  1  0  0  0  0
  7  1  1  0  0  0  0
  8  2  1  0  0  0  0
 10  9  3  0  0  0  0
 13 16  1  0  0  0  0
 14 15  2  0  0  0  0
 15 17  1  0  0  0  0
 15 16  1  0  0  0  0
 17 19  1  0  0  0  0
 17 20  1  0  0  0  0
 18 17  1  0  0  0  0
M  RAD  2   3   2   4   2
M  END
