Coordinates from ORCA-job Ph-N2-OAc-B3LYPG-6-31G_dp-MTMO-d009-169-n800
 OpenBabel09051908423D

 20 19  0  0  0  0  0  0  0  0999 V2000
   11.1365    7.0845    2.9463 C   0  0  0  0  0  0  0  0  0  0  0  0
   10.6710    5.8190    2.5908 C   0  0  0  0  0  0  0  0  0  0  0  0
   11.3866    4.6891    2.9855 C   0  0  0  0  0  0  0  0  0  0  0  0
   12.5588    4.8013    3.7343 C   0  0  0  0  0  0  0  0  0  0  0  0
   13.0143    6.0752    4.0790 C   0  0  0  0  0  0  0  0  0  0  0  0
   12.3113    7.2165    3.6892 C   0  0  0  0  0  0  0  0  0  0  0  0
   10.5801    7.9654    2.6406 H   0  0  0  0  0  0  0  0  0  0  0  0
    9.7585    5.6907    2.0180 H   0  0  0  0  0  0  0  0  0  0  0  0
    7.6753   -9.5677   -2.5526 N   0  0  0  0  0  0  0  0  0  0  0  0
    7.9315   -8.5874   -2.1109 N   0  0  0  0  0  0  0  0  0  0  0  0
   12.6752    8.2015    3.9646 H   0  0  0  0  0  0  0  0  0  0  0  0
   13.9288    6.1711    4.6568 H   0  0  0  0  0  0  0  0  0  0  0  0
   13.1071    3.9171    4.0302 H   0  0  0  0  0  0  0  0  0  0  0  0
   10.8064    3.4631    2.6514 O   0  0  0  0  0  0  0  0  0  0  0  0
   11.5590    2.4121    2.1961 C   0  0  0  0  0  0  0  0  0  0  0  0
   12.7571    2.4343    2.0587 O   0  0  0  0  0  0  0  0  0  0  0  0
   10.6549    1.2420    1.8942 C   0  0  0  0  0  0  0  0  0  0  0  0
   10.0859    0.9664    2.7869 H   0  0  0  0  0  0  0  0  0  0  0  0
    9.9326    1.5172    1.1199 H   0  0  0  0  0  0  0  0  0  0  0  0
   11.2567    0.3982    1.5586 H   0  0  0  0  0  0  0  0  0  0  0  0
  1  6  1  0  0  0  0
  2  1  2  0  0  0  0
  2  3  1  0  0  0  0
  3  4  2  0  0  0  0
  4 13  1  0  0  0  0
  4  5  1  0  0  0  0
  5 12  1  0  0  0  0
  6 11  1  0  0  0  0
  6  5  2  0  0  0  0
  7  1  1  0  0  0  0
  8  2  1  0  0  0  0
  9 10  3  0  0  0  0
 14  3  1  0  0  0  0
 15 14  1  0  0  0  0
 16 15  2  0  0  0  0
 17 15  1  0  0  0  0
 17 18  1  0  0  0  0
 19 17  1  0  0  0  0
 20 17  1  0  0  0  0
M  END
