Coordinates from ORCA-job Ph-N2-OAc-B3LYPG-6-31G_dp-MTMO-d009-169-n800
 OpenBabel09051908423D

 20 19  0  0  0  0  0  0  0  0999 V2000
   11.3944    6.4026    2.6366 C   0  0  0  0  0  0  0  0  0  0  0  0
   10.5984    5.2794    2.4129 C   0  0  0  0  0  0  0  0  0  0  0  0
   11.0841    4.0171    2.7514 C   0  0  0  0  0  0  0  0  0  0  0  0
   12.3514    3.8570    3.3131 C   0  0  0  0  0  0  0  0  0  0  0  0
   13.1380    4.9900    3.5277 C   0  0  0  0  0  0  0  0  0  0  0  0
   12.6673    6.2611    3.1924 C   0  0  0  0  0  0  0  0  0  0  0  0
   11.0179    7.3867    2.3742 H   0  0  0  0  0  0  0  0  0  0  0  0
    9.6051    5.3641    1.9853 H   0  0  0  0  0  0  0  0  0  0  0  0
   11.5933   -3.0058   -0.3361 N   0  0  0  0  0  0  0  0  0  0  0  0
   10.8309   -2.3586    0.1341 N   0  0  0  0  0  0  0  0  0  0  0  0
   13.2877    7.1352    3.3652 H   0  0  0  0  0  0  0  0  0  0  0  0
   14.1267    4.8733    3.9612 H   0  0  0  0  0  0  0  0  0  0  0  0
   12.7171    2.8709    3.5668 H   0  0  0  0  0  0  0  0  0  0  0  0
   10.1936    2.9565    2.5686 O   0  0  0  0  0  0  0  0  0  0  0  0
   10.6029    1.7652    2.0268 C   0  0  0  0  0  0  0  0  0  0  0  0
   11.7309    1.5266    1.6720 O   0  0  0  0  0  0  0  0  0  0  0  0
    9.4315    0.8170    1.9534 C   0  0  0  0  0  0  0  0  0  0  0  0
    9.0709    0.5971    2.9627 H   0  0  0  0  0  0  0  0  0  0  0  0
    8.6043    1.2785    1.4068 H   0  0  0  0  0  0  0  0  0  0  0  0
    9.7410   -0.1045    1.4623 H   0  0  0  0  0  0  0  0  0  0  0  0
  1  6  1  0  0  0  0
  2  1  2  0  0  0  0
  2  3  1  0  0  0  0
  3  4  2  0  0  0  0
  4  5  1  0  0  0  0
  4 13  1  0  0  0  0
  5 12  1  0  0  0  0
  6 11  1  0  0  0  0
  6  5  2  0  0  0  0
  7  1  1  0  0  0  0
  8  2  1  0  0  0  0
  9 10  3  0  0  0  0
 14  3  1  0  0  0  0
 15 14  1  0  0  0  0
 16 15  2  0  0  0  0
 17 15  1  0  0  0  0
 17 18  1  0  0  0  0
 19 17  1  0  0  0  0
 20 17  1  0  0  0  0
M  END
