Coordinates from ORCA-job Ph-N2-OAc-B3LYPG-6-31G_dp-MTMO-d009-169-n800
 OpenBabel09051908423D

 20 19  0  0  0  0  0  0  0  0999 V2000
   11.2519    6.5138    2.7478 C   0  0  0  0  0  0  0  0  0  0  0  0
   10.5766    5.3305    2.4498 C   0  0  0  0  0  0  0  0  0  0  0  0
   11.1656    4.1067    2.7663 C   0  0  0  0  0  0  0  0  0  0  0  0
   12.4175    4.0445    3.3799 C   0  0  0  0  0  0  0  0  0  0  0  0
   13.0828    5.2374    3.6683 C   0  0  0  0  0  0  0  0  0  0  0  0
   12.5082    6.4709    3.3556 C   0  0  0  0  0  0  0  0  0  0  0  0
   10.7948    7.4677    2.5027 H   0  0  0  0  0  0  0  0  0  0  0  0
    9.5983    5.3385    1.9814 H   0  0  0  0  0  0  0  0  0  0  0  0
   10.2872   -4.1212   -0.4836 N   0  0  0  0  0  0  0  0  0  0  0  0
   10.1868   -3.1320   -0.0009 N   0  0  0  0  0  0  0  0  0  0  0  0
   13.0347    7.3919    3.5860 H   0  0  0  0  0  0  0  0  0  0  0  0
   14.0592    5.1970    4.1416 H   0  0  0  0  0  0  0  0  0  0  0  0
   12.8649    3.0884    3.6158 H   0  0  0  0  0  0  0  0  0  0  0  0
   10.3858    2.9777    2.5035 O   0  0  0  0  0  0  0  0  0  0  0  0
   10.9286    1.8353    1.9739 C   0  0  0  0  0  0  0  0  0  0  0  0
   12.0945    1.6936    1.6991 O   0  0  0  0  0  0  0  0  0  0  0  0
    9.8433    0.8022    1.7927 C   0  0  0  0  0  0  0  0  0  0  0  0
    9.3686    0.5875    2.7545 H   0  0  0  0  0  0  0  0  0  0  0  0
    9.0660    1.1877    1.1261 H   0  0  0  0  0  0  0  0  0  0  0  0
   10.2722   -0.1088    1.3771 H   0  0  0  0  0  0  0  0  0  0  0  0
  1  6  1  0  0  0  0
  2  1  2  0  0  0  0
  2  3  1  0  0  0  0
  3  4  2  0  0  0  0
  4 13  1  0  0  0  0
  4  5  1  0  0  0  0
  5 12  1  0  0  0  0
  6 11  1  0  0  0  0
  6  5  2  0  0  0  0
  7  1  1  0  0  0  0
  8  2  1  0  0  0  0
  9 10  3  0  0  0  0
 14  3  1  0  0  0  0
 15 14  1  0  0  0  0
 16 15  2  0  0  0  0
 17 15  1  0  0  0  0
 17 18  1  0  0  0  0
 19 17  1  0  0  0  0
 20 17  1  0  0  0  0
M  END
