Coordinates from ORCA-job Ph-N2-OAc-B3LYPG-6-31G_dp-MTMO-d009-169-n800
 OpenBabel09051908423D

 20 19  0  0  0  0  0  0  0  0999 V2000
   11.2890    6.4767    2.7162 C   0  0  0  0  0  0  0  0  0  0  0  0
   10.5806    5.3083    2.4369 C   0  0  0  0  0  0  0  0  0  0  0  0
   11.1420    4.0730    2.7585 C   0  0  0  0  0  0  0  0  0  0  0  0
   12.3989    3.9847    3.3584 C   0  0  0  0  0  0  0  0  0  0  0  0
   13.0975    5.1628    3.6282 C   0  0  0  0  0  0  0  0  0  0  0  0
   12.5505    6.4075    3.3103 C   0  0  0  0  0  0  0  0  0  0  0  0
   10.8534    7.4397    2.4671 H   0  0  0  0  0  0  0  0  0  0  0  0
    9.5975    5.3368    1.9793 H   0  0  0  0  0  0  0  0  0  0  0  0
   10.6291   -3.7600   -0.4216 N   0  0  0  0  0  0  0  0  0  0  0  0
   10.3848   -2.8154    0.0976 N   0  0  0  0  0  0  0  0  0  0  0  0
   13.1028    7.3169    3.5261 H   0  0  0  0  0  0  0  0  0  0  0  0
   14.0778    5.1020    4.0910 H   0  0  0  0  0  0  0  0  0  0  0  0
   12.8244    3.0196    3.5985 H   0  0  0  0  0  0  0  0  0  0  0  0
   10.3321    2.9609    2.5166 O   0  0  0  0  0  0  0  0  0  0  0  0
   10.8404    1.8063    1.9789 C   0  0  0  0  0  0  0  0  0  0  0  0
   11.9969    1.6419    1.6784 O   0  0  0  0  0  0  0  0  0  0  0  0
    9.7322    0.7933    1.8277 C   0  0  0  0  0  0  0  0  0  0  0  0
    9.2925    0.5751    2.8054 H   0  0  0  0  0  0  0  0  0  0  0  0
    8.9355    1.1991    1.1974 H   0  0  0  0  0  0  0  0  0  0  0  0
   10.1296   -0.1198    1.3866 H   0  0  0  0  0  0  0  0  0  0  0  0
  1  6  1  0  0  0  0
  2  1  2  0  0  0  0
  2  3  1  0  0  0  0
  3  4  2  0  0  0  0
  4 13  1  0  0  0  0
  4  5  1  0  0  0  0
  5 12  1  0  0  0  0
  6 11  1  0  0  0  0
  6  5  2  0  0  0  0
  7  1  1  0  0  0  0
  8  2  1  0  0  0  0
  9 10  3  0  0  0  0
 14  3  1  0  0  0  0
 15 14  1  0  0  0  0
 16 15  2  0  0  0  0
 17 15  1  0  0  0  0
 17 18  1  0  0  0  0
 19 17  1  0  0  0  0
 20 17  1  0  0  0  0
M  END
