Coordinates from ORCA-job Ph-N2-OAc-B3LYPG-6-31G_dp-MTMO-d009-169-n800
 OpenBabel09051908423D

 20 19  0  0  0  0  0  0  0  0999 V2000
   11.1507    7.1370    2.9670 C   0  0  0  0  0  0  0  0  0  0  0  0
   10.6855    5.8715    2.6109 C   0  0  0  0  0  0  0  0  0  0  0  0
   11.4012    4.7416    3.0055 C   0  0  0  0  0  0  0  0  0  0  0  0
   12.5730    4.8537    3.7549 C   0  0  0  0  0  0  0  0  0  0  0  0
   13.0281    6.1275    4.1003 C   0  0  0  0  0  0  0  0  0  0  0  0
   12.3250    7.2689    3.7106 C   0  0  0  0  0  0  0  0  0  0  0  0
   10.5942    8.0178    2.6614 H   0  0  0  0  0  0  0  0  0  0  0  0
    9.7733    5.7432    2.0376 H   0  0  0  0  0  0  0  0  0  0  0  0
    7.5425  -10.0405   -2.7321 N   0  0  0  0  0  0  0  0  0  0  0  0
    7.8006   -9.0605   -2.2909 N   0  0  0  0  0  0  0  0  0  0  0  0
   12.6887    8.2538    3.9866 H   0  0  0  0  0  0  0  0  0  0  0  0
   13.9423    6.2234    4.6786 H   0  0  0  0  0  0  0  0  0  0  0  0
   13.1212    3.9695    4.0507 H   0  0  0  0  0  0  0  0  0  0  0  0
   10.8213    3.5156    2.6706 O   0  0  0  0  0  0  0  0  0  0  0  0
   11.5743    2.4649    2.2153 C   0  0  0  0  0  0  0  0  0  0  0  0
   12.7724    2.4874    2.0784 O   0  0  0  0  0  0  0  0  0  0  0  0
   10.6706    1.2947    1.9124 C   0  0  0  0  0  0  0  0  0  0  0  0
   10.1012    1.0187    2.8048 H   0  0  0  0  0  0  0  0  0  0  0  0
    9.9485    1.5701    1.1379 H   0  0  0  0  0  0  0  0  0  0  0  0
   11.2727    0.4512    1.5768 H   0  0  0  0  0  0  0  0  0  0  0  0
  1  6  1  0  0  0  0
  2  1  2  0  0  0  0
  2  3  1  0  0  0  0
  3  4  2  0  0  0  0
  4 13  1  0  0  0  0
  4  5  1  0  0  0  0
  5 12  1  0  0  0  0
  6 11  1  0  0  0  0
  6  5  2  0  0  0  0
  7  1  1  0  0  0  0
  8  2  1  0  0  0  0
  9 10  3  0  0  0  0
 14  3  1  0  0  0  0
 15 14  1  0  0  0  0
 16 15  2  0  0  0  0
 17 15  1  0  0  0  0
 17 18  1  0  0  0  0
 19 17  1  0  0  0  0
 20 17  1  0  0  0  0
M  END
