Coordinates from ORCA-job Ph-N2-OAc-B3LYPG-6-31G_dp-MTMO-d009-169-n800
 OpenBabel09051908423D

 20 19  0  0  0  0  0  0  0  0999 V2000
   11.9050    5.7921    2.2818 C   0  0  0  0  0  0  0  0  0  0  0  0
   10.8222    4.9228    2.1486 C   0  0  0  0  0  0  0  0  0  0  0  0
   10.9098    3.6335    2.6723 C   0  0  0  0  0  0  0  0  0  0  0  0
   12.0597    3.1974    3.3317 C   0  0  0  0  0  0  0  0  0  0  0  0
   13.1369    4.0775    3.4533 C   0  0  0  0  0  0  0  0  0  0  0  0
   13.0666    5.3711    2.9325 C   0  0  0  0  0  0  0  0  0  0  0  0
   11.8384    6.7967    1.8754 H   0  0  0  0  0  0  0  0  0  0  0  0
    9.9082    5.2281    1.6501 H   0  0  0  0  0  0  0  0  0  0  0  0
   13.2156    1.0632   -0.1891 N   0  0  0  0  0  0  0  0  0  0  0  0
   13.8758    1.0348    0.6966 N   0  0  0  0  0  0  0  0  0  0  0  0
   13.9108    6.0463    3.0350 H   0  0  0  0  0  0  0  0  0  0  0  0
   14.0372    3.7439    3.9608 H   0  0  0  0  0  0  0  0  0  0  0  0
   12.1160    2.1933    3.7299 H   0  0  0  0  0  0  0  0  0  0  0  0
    9.7527    2.8577    2.5612 O   0  0  0  0  0  0  0  0  0  0  0  0
    9.8084    1.5331    2.2179 C   0  0  0  0  0  0  0  0  0  0  0  0
   10.8261    0.9228    1.9986 O   0  0  0  0  0  0  0  0  0  0  0  0
    8.4097    0.9704    2.1555 C   0  0  0  0  0  0  0  0  0  0  0  0
    7.9076    1.1039    3.1185 H   0  0  0  0  0  0  0  0  0  0  0  0
    7.8229    1.5088    1.4054 H   0  0  0  0  0  0  0  0  0  0  0  0
    8.4578   -0.0878    1.9015 H   0  0  0  0  0  0  0  0  0  0  0  0
  1  6  1  0  0  0  0
  2  1  2  0  0  0  0
  2  3  1  0  0  0  0
  3  4  2  0  0  0  0
  4  5  1  0  0  0  0
  4 13  1  0  0  0  0
  5 12  1  0  0  0  0
  6 11  1  0  0  0  0
  6  5  2  0  0  0  0
  7  1  1  0  0  0  0
  8  2  1  0  0  0  0
  9 10  3  0  0  0  0
 14  3  1  0  0  0  0
 15 14  1  0  0  0  0
 16 15  2  0  0  0  0
 17 15  1  0  0  0  0
 17 18  1  0  0  0  0
 19 17  1  0  0  0  0
 20 17  1  0  0  0  0
M  END
