Coordinates from ORCA-job Ph-N2-OAc-B3LYPG-6-31G_dp-MTMO-d009-169-n800
 OpenBabel09051908423D

 20 19  0  0  0  0  0  0  0  0999 V2000
   11.4365    6.3575    2.6002 C   0  0  0  0  0  0  0  0  0  0  0  0
   10.6044    5.2558    2.4026 C   0  0  0  0  0  0  0  0  0  0  0  0
   11.0599    3.9833    2.7449 C   0  0  0  0  0  0  0  0  0  0  0  0
   12.3322    3.7920    3.2847 C   0  0  0  0  0  0  0  0  0  0  0  0
   13.1550    4.9037    3.4733 C   0  0  0  0  0  0  0  0  0  0  0  0
   12.7150    6.1847    3.1340 C   0  0  0  0  0  0  0  0  0  0  0  0
   11.0837    7.3496    2.3346 H   0  0  0  0  0  0  0  0  0  0  0  0
    9.6063    5.3652    1.9923 H   0  0  0  0  0  0  0  0  0  0  0  0
   11.9600   -2.6075   -0.2812 N   0  0  0  0  0  0  0  0  0  0  0  0
   11.1041   -2.0760    0.1728 N   0  0  0  0  0  0  0  0  0  0  0  0
   13.3634    7.0421    3.2865 H   0  0  0  0  0  0  0  0  0  0  0  0
   14.1477    4.7626    3.8901 H   0  0  0  0  0  0  0  0  0  0  0  0
   12.6741    2.7982    3.5416 H   0  0  0  0  0  0  0  0  0  0  0  0
   10.1359    2.9473    2.5889 O   0  0  0  0  0  0  0  0  0  0  0  0
   10.4994    1.7384    2.0536 C   0  0  0  0  0  0  0  0  0  0  0  0
   11.6131    1.4617    1.6814 O   0  0  0  0  0  0  0  0  0  0  0  0
    9.2986    0.8258    2.0110 C   0  0  0  0  0  0  0  0  0  0  0  0
    8.9442    0.6338    3.0281 H   0  0  0  0  0  0  0  0  0  0  0  0
    8.4793    1.3037    1.4667 H   0  0  0  0  0  0  0  0  0  0  0  0
    9.5746   -0.1121    1.5311 H   0  0  0  0  0  0  0  0  0  0  0  0
  1  6  1  0  0  0  0
  2  1  2  0  0  0  0
  2  3  1  0  0  0  0
  3  4  2  0  0  0  0
  4  5  1  0  0  0  0
  4 13  1  0  0  0  0
  5 12  1  0  0  0  0
  6 11  1  0  0  0  0
  6  5  2  0  0  0  0
  7  1  1  0  0  0  0
  8  2  1  0  0  0  0
  9 10  3  0  0  0  0
 14  3  1  0  0  0  0
 15 14  1  0  0  0  0
 16 15  2  0  0  0  0
 17 15  1  0  0  0  0
 17 18  1  0  0  0  0
 19 17  1  0  0  0  0
 20 17  1  0  0  0  0
M  END
