Coordinates from ORCA-job Ph-N2-OAc-B3LYPG-6-31G_dp-MTMO-d009-169-n800
 OpenBabel09051908423D

 20 18  0  0  0  0  0  0  0  0999 V2000
   13.0530    5.9905    2.2172 C   0  0  0  0  0  0  0  0  0  0  0  0
   12.2272    5.1321    1.4529 C   0  0  0  0  0  0  0  0  0  0  0  0
   11.9112    4.0496    2.2357 C   0  0  0  0  0  0  0  0  0  0  0  0
   12.1889    3.7194    3.4136 C   0  0  0  0  0  0  0  0  0  0  0  0
   13.0021    4.5326    4.2104 C   0  0  0  0  0  0  0  0  0  0  0  0
   13.4242    5.7004    3.5436 C   0  0  0  0  0  0  0  0  0  0  0  0
   13.4118    6.9059    1.7535 H   0  0  0  0  0  0  0  0  0  0  0  0
   11.9295    5.3285    0.4317 H   0  0  0  0  0  0  0  0  0  0  0  0
   10.9486    3.1717   -1.0594 N   0  0  0  0  0  0  0  0  0  0  0  0
   10.6807    2.2221   -1.5563 N   0  0  0  0  0  0  0  0  0  0  0  0
   14.0593    6.4063    4.0735 H   0  0  0  0  0  0  0  0  0  0  0  0
   13.2917    4.3207    5.2344 H   0  0  0  0  0  0  0  0  0  0  0  0
   10.7525    1.9750    3.4756 H   0  0  0  0  0  0  0  0  0  0  0  0
    9.7509    1.6578    1.4146 O   0  0  0  0  0  0  0  0  0  0  0  0
    9.5299    1.0013    2.4124 C   0  0  0  0  0  0  0  0  0  0  0  0
   10.1401    1.2198    3.5937 O   0  0  0  0  0  0  0  0  0  0  0  0
    8.5510   -0.1449    2.4979 C   0  0  0  0  0  0  0  0  0  0  0  0
    8.1070   -0.3205    1.5189 H   0  0  0  0  0  0  0  0  0  0  0  0
    9.0596   -1.0479    2.8477 H   0  0  0  0  0  0  0  0  0  0  0  0
    7.7683    0.0893    3.2259 H   0  0  0  0  0  0  0  0  0  0  0  0
  1  6  1  0  0  0  0
  2  1  2  0  0  0  0
  2  3  1  0  0  0  0
  3  4  2  0  0  0  0
  4  5  1  0  0  0  0
  5 12  1  0  0  0  0
  6 11  1  0  0  0  0
  6  5  2  0  0  0  0
  7  1  1  0  0  0  0
  8  2  1  0  0  0  0
 10  9  3  0  0  0  0
 13 16  1  0  0  0  0
 14 15  2  0  0  0  0
 15 17  1  0  0  0  0
 15 16  1  0  0  0  0
 17 19  1  0  0  0  0
 17 20  1  0  0  0  0
 18 17  1  0  0  0  0
M  RAD  2   3   2   4   2
M  END
