Coordinates from ORCA-job Ph-N2-OAc-B3LYPG-6-31G_dp-MTMO-d009-169-n800
 OpenBabel09051908423D

 20 19  0  0  0  0  0  0  0  0999 V2000
   11.0895    6.8671    2.8578 C   0  0  0  0  0  0  0  0  0  0  0  0
   10.6127    5.6037    2.5098 C   0  0  0  0  0  0  0  0  0  0  0  0
   11.3235    4.4701    2.9028 C   0  0  0  0  0  0  0  0  0  0  0  0
   12.5020    4.5767    3.6425 C   0  0  0  0  0  0  0  0  0  0  0  0
   12.9687    5.8484    3.9798 C   0  0  0  0  0  0  0  0  0  0  0  0
   12.2706    6.9933    3.5916 C   0  0  0  0  0  0  0  0  0  0  0  0
   10.5368    7.7508    2.5535 H   0  0  0  0  0  0  0  0  0  0  0  0
    9.6951    5.4798    1.9442 H   0  0  0  0  0  0  0  0  0  0  0  0
    8.2803   -7.5870   -1.8020 N   0  0  0  0  0  0  0  0  0  0  0  0
    8.5105   -6.5963   -1.3692 N   0  0  0  0  0  0  0  0  0  0  0  0
   12.6432    7.9767    3.8613 H   0  0  0  0  0  0  0  0  0  0  0  0
   13.8881    5.9399    4.5505 H   0  0  0  0  0  0  0  0  0  0  0  0
   13.0464    3.6897    3.9371 H   0  0  0  0  0  0  0  0  0  0  0  0
   10.7324    3.2471    2.5770 O   0  0  0  0  0  0  0  0  0  0  0  0
   11.4742    2.1893    2.1198 C   0  0  0  0  0  0  0  0  0  0  0  0
   12.6713    2.2027    1.9733 O   0  0  0  0  0  0  0  0  0  0  0  0
   10.5598    1.0244    1.8291 C   0  0  0  0  0  0  0  0  0  0  0  0
    9.9950    0.7567    2.7269 H   0  0  0  0  0  0  0  0  0  0  0  0
    9.8341    1.3016    1.0586 H   0  0  0  0  0  0  0  0  0  0  0  0
   11.1531    0.1749    1.4929 H   0  0  0  0  0  0  0  0  0  0  0  0
  1  6  1  0  0  0  0
  2  1  2  0  0  0  0
  2  3  1  0  0  0  0
  3  4  2  0  0  0  0
  4 13  1  0  0  0  0
  4  5  1  0  0  0  0
  5 12  1  0  0  0  0
  6 11  1  0  0  0  0
  6  5  2  0  0  0  0
  7  1  1  0  0  0  0
  8  2  1  0  0  0  0
  9 10  3  0  0  0  0
 14  3  1  0  0  0  0
 15 14  1  0  0  0  0
 16 15  2  0  0  0  0
 17 15  1  0  0  0  0
 17 18  1  0  0  0  0
 19 17  1  0  0  0  0
 20 17  1  0  0  0  0
M  END
