Coordinates from ORCA-job Ph-N2-OAc-B3LYPG-6-31G_dp-MTMO-d009-169-n800
 OpenBabel09051908423D

 20 19  0  0  0  0  0  0  0  0999 V2000
   11.1356    7.0809    2.9448 C   0  0  0  0  0  0  0  0  0  0  0  0
   10.6700    5.8154    2.5894 C   0  0  0  0  0  0  0  0  0  0  0  0
   11.3856    4.6855    2.9842 C   0  0  0  0  0  0  0  0  0  0  0  0
   12.5578    4.7977    3.7329 C   0  0  0  0  0  0  0  0  0  0  0  0
   13.0134    6.0716    4.0776 C   0  0  0  0  0  0  0  0  0  0  0  0
   12.3103    7.2129    3.6877 C   0  0  0  0  0  0  0  0  0  0  0  0
   10.5791    7.9618    2.6391 H   0  0  0  0  0  0  0  0  0  0  0  0
    9.7574    5.6871    2.0166 H   0  0  0  0  0  0  0  0  0  0  0  0
    7.6845   -9.5351   -2.5402 N   0  0  0  0  0  0  0  0  0  0  0  0
    7.9406   -8.5548   -2.0985 N   0  0  0  0  0  0  0  0  0  0  0  0
   12.6743    8.1979    3.9631 H   0  0  0  0  0  0  0  0  0  0  0  0
   13.9279    6.1675    4.6553 H   0  0  0  0  0  0  0  0  0  0  0  0
   13.1061    3.9135    4.0288 H   0  0  0  0  0  0  0  0  0  0  0  0
   10.8053    3.4595    2.6501 O   0  0  0  0  0  0  0  0  0  0  0  0
   11.5579    2.4085    2.1948 C   0  0  0  0  0  0  0  0  0  0  0  0
   12.7560    2.4307    2.0573 O   0  0  0  0  0  0  0  0  0  0  0  0
   10.6538    1.2383    1.8929 C   0  0  0  0  0  0  0  0  0  0  0  0
   10.0848    0.9628    2.7857 H   0  0  0  0  0  0  0  0  0  0  0  0
    9.9314    1.5135    1.1186 H   0  0  0  0  0  0  0  0  0  0  0  0
   11.2556    0.3946    1.5573 H   0  0  0  0  0  0  0  0  0  0  0  0
  1  6  1  0  0  0  0
  2  1  2  0  0  0  0
  2  3  1  0  0  0  0
  3  4  2  0  0  0  0
  4 13  1  0  0  0  0
  4  5  1  0  0  0  0
  5 12  1  0  0  0  0
  6 11  1  0  0  0  0
  6  5  2  0  0  0  0
  7  1  1  0  0  0  0
  8  2  1  0  0  0  0
  9 10  3  0  0  0  0
 14  3  1  0  0  0  0
 15 14  1  0  0  0  0
 16 15  2  0  0  0  0
 17 15  1  0  0  0  0
 17 18  1  0  0  0  0
 19 17  1  0  0  0  0
 20 17  1  0  0  0  0
M  END
