Coordinates from ORCA-job Ph-N2-OAc-B3LYPG-6-31G_dp-MTMO-d009-169-n800
 OpenBabel09051908423D

 20 18  0  0  0  0  0  0  0  0999 V2000
   13.2211    6.1152    2.3089 C   0  0  0  0  0  0  0  0  0  0  0  0
   12.6751    5.4696    1.1747 C   0  0  0  0  0  0  0  0  0  0  0  0
   12.1167    4.2936    1.5970 C   0  0  0  0  0  0  0  0  0  0  0  0
   11.9903    3.7030    2.7005 C   0  0  0  0  0  0  0  0  0  0  0  0
   12.5250    4.3173    3.8458 C   0  0  0  0  0  0  0  0  0  0  0  0
   13.1468    5.5556    3.5976 C   0  0  0  0  0  0  0  0  0  0  0  0
   13.7101    7.0756    2.1691 H   0  0  0  0  0  0  0  0  0  0  0  0
   12.7141    5.8704    0.1700 H   0  0  0  0  0  0  0  0  0  0  0  0
   11.2137    3.2722   -0.6896 N   0  0  0  0  0  0  0  0  0  0  0  0
   10.7288    2.3382   -1.0277 N   0  0  0  0  0  0  0  0  0  0  0  0
   13.5843    6.1004    4.4301 H   0  0  0  0  0  0  0  0  0  0  0  0
   12.4736    3.8967    4.8454 H   0  0  0  0  0  0  0  0  0  0  0  0
   10.9362    1.9561    2.9120 H   0  0  0  0  0  0  0  0  0  0  0  0
    9.1426    1.6633    1.4665 O   0  0  0  0  0  0  0  0  0  0  0  0
    9.3967    0.9592    2.4216 C   0  0  0  0  0  0  0  0  0  0  0  0
   10.4578    1.1546    3.2293 O   0  0  0  0  0  0  0  0  0  0  0  0
    8.5827   -0.2365    2.8594 C   0  0  0  0  0  0  0  0  0  0  0  0
    7.7355   -0.3670    2.1876 H   0  0  0  0  0  0  0  0  0  0  0  0
    9.2072   -1.1349    2.8547 H   0  0  0  0  0  0  0  0  0  0  0  0
    8.2292   -0.0928    3.8846 H   0  0  0  0  0  0  0  0  0  0  0  0
  1  6  2  0  0  0  0
  2  3  2  0  0  0  0
  2  1  1  0  0  0  0
  3  4  1  0  0  0  0
  4  5  2  0  0  0  0
  5 12  1  0  0  0  0
  6  5  1  0  0  0  0
  6 11  1  0  0  0  0
  7  1  1  0  0  0  0
  8  2  1  0  0  0  0
 10  9  3  0  0  0  0
 13 16  1  0  0  0  0
 14 15  2  0  0  0  0
 15 17  1  0  0  0  0
 15 16  1  0  0  0  0
 17 20  1  0  0  0  0
 18 17  1  0  0  0  0
 19 17  1  0  0  0  0
M  RAD  2   3   2   4   2
M  END
