Coordinates from ORCA-job Ph-N2-OAc-B3LYPG-6-31G_dp-MTMO-d009-169-n800
 OpenBabel09051908423D

 20 19  0  0  0  0  0  0  0  0999 V2000
   11.4648    6.3226    2.5644 C   0  0  0  0  0  0  0  0  0  0  0  0
   10.6114    5.2341    2.3851 C   0  0  0  0  0  0  0  0  0  0  0  0
   11.0452    3.9580    2.7413 C   0  0  0  0  0  0  0  0  0  0  0  0
   12.3165    3.7499    3.2771 C   0  0  0  0  0  0  0  0  0  0  0  0
   13.1608    4.8483    3.4475 C   0  0  0  0  0  0  0  0  0  0  0  0
   12.7426    6.1328    3.0940 C   0  0  0  0  0  0  0  0  0  0  0  0
   11.1290    7.3175    2.2878 H   0  0  0  0  0  0  0  0  0  0  0  0
    9.6133    5.3567    1.9782 H   0  0  0  0  0  0  0  0  0  0  0  0
   12.1591   -2.2937   -0.2694 N   0  0  0  0  0  0  0  0  0  0  0  0
   11.2581   -1.8769    0.2160 N   0  0  0  0  0  0  0  0  0  0  0  0
   13.4075    6.9800    3.2322 H   0  0  0  0  0  0  0  0  0  0  0  0
   14.1528    4.6942    3.8611 H   0  0  0  0  0  0  0  0  0  0  0  0
   12.6412    2.7532    3.5451 H   0  0  0  0  0  0  0  0  0  0  0  0
   10.1025    2.9361    2.6034 O   0  0  0  0  0  0  0  0  0  0  0  0
   10.4411    1.7176    2.0738 C   0  0  0  0  0  0  0  0  0  0  0  0
   11.5464    1.4205    1.6922 O   0  0  0  0  0  0  0  0  0  0  0  0
    9.2256    0.8239    2.0503 C   0  0  0  0  0  0  0  0  0  0  0  0
    8.8757    0.6488    3.0720 H   0  0  0  0  0  0  0  0  0  0  0  0
    8.4101    1.3091    1.5068 H   0  0  0  0  0  0  0  0  0  0  0  0
    9.4836   -0.1230    1.5785 H   0  0  0  0  0  0  0  0  0  0  0  0
  1  6  1  0  0  0  0
  2  1  2  0  0  0  0
  2  3  1  0  0  0  0
  3  4  2  0  0  0  0
  4  5  1  0  0  0  0
  4 13  1  0  0  0  0
  5 12  1  0  0  0  0
  6 11  1  0  0  0  0
  6  5  2  0  0  0  0
  7  1  1  0  0  0  0
  8  2  1  0  0  0  0
  9 10  3  0  0  0  0
 14  3  1  0  0  0  0
 15 14  1  0  0  0  0
 16 15  2  0  0  0  0
 17 15  1  0  0  0  0
 17 18  1  0  0  0  0
 19 17  1  0  0  0  0
 20 17  1  0  0  0  0
M  END
