Coordinates from ORCA-job Ph-N2-OAc-B3LYPG-6-31G_dp-MTMO-d009-169-n800
 OpenBabel09051908423D

 20 19  0  0  0  0  0  0  0  0999 V2000
   11.1911    6.6981    2.8223 C   0  0  0  0  0  0  0  0  0  0  0  0
   10.5926    5.4810    2.4980 C   0  0  0  0  0  0  0  0  0  0  0  0
   11.2361    4.2898    2.8325 C   0  0  0  0  0  0  0  0  0  0  0  0
   12.4669    4.2935    3.4905 C   0  0  0  0  0  0  0  0  0  0  0  0
   13.0551    5.5200    3.8049 C   0  0  0  0  0  0  0  0  0  0  0  0
   12.4254    6.7214    3.4744 C   0  0  0  0  0  0  0  0  0  0  0  0
   10.6912    7.6266    2.5632 H   0  0  0  0  0  0  0  0  0  0  0  0
    9.6322    5.4375    1.9955 H   0  0  0  0  0  0  0  0  0  0  0  0
    9.4051   -5.8676   -1.0655 N   0  0  0  0  0  0  0  0  0  0  0  0
    9.4842   -4.8361   -0.6766 N   0  0  0  0  0  0  0  0  0  0  0  0
   12.8923    7.6688    3.7255 H   0  0  0  0  0  0  0  0  0  0  0  0
   14.0149    5.5309    4.3123 H   0  0  0  0  0  0  0  0  0  0  0  0
   12.9574    3.3626    3.7402 H   0  0  0  0  0  0  0  0  0  0  0  0
   10.5281    3.1219    2.5388 O   0  0  0  0  0  0  0  0  0  0  0  0
   11.1502    2.0106    2.0325 C   0  0  0  0  0  0  0  0  0  0  0  0
   12.3325    1.9277    1.8080 O   0  0  0  0  0  0  0  0  0  0  0  0
   10.1270    0.9257    1.8010 C   0  0  0  0  0  0  0  0  0  0  0  0
    9.6062    0.6958    2.7350 H   0  0  0  0  0  0  0  0  0  0  0  0
    9.3743    1.2672    1.0840 H   0  0  0  0  0  0  0  0  0  0  0  0
   10.6246    0.0344    1.4209 H   0  0  0  0  0  0  0  0  0  0  0  0
  1  6  1  0  0  0  0
  2  1  2  0  0  0  0
  2  3  1  0  0  0  0
  3  4  2  0  0  0  0
  4 13  1  0  0  0  0
  4  5  1  0  0  0  0
  5 12  1  0  0  0  0
  6 11  1  0  0  0  0
  6  5  2  0  0  0  0
  7  1  1  0  0  0  0
  8  2  1  0  0  0  0
  9 10  3  0  0  0  0
 14  3  1  0  0  0  0
 15 14  1  0  0  0  0
 16 15  2  0  0  0  0
 17 15  1  0  0  0  0
 17 18  1  0  0  0  0
 19 17  1  0  0  0  0
 20 17  1  0  0  0  0
M  END
