Coordinates from ORCA-job Ph-N2-OAc-B3LYPG-6-31G_dp-MTMO-d009-169-n800
 OpenBabel09051908423D

 20 19  0  0  0  0  0  0  0  0999 V2000
   11.4735    6.3105    2.5543 C   0  0  0  0  0  0  0  0  0  0  0  0
   10.6132    5.2265    2.3807 C   0  0  0  0  0  0  0  0  0  0  0  0
   11.0406    3.9489    2.7396 C   0  0  0  0  0  0  0  0  0  0  0  0
   12.3122    3.7350    3.2724 C   0  0  0  0  0  0  0  0  0  0  0  0
   13.1633    4.8290    3.4371 C   0  0  0  0  0  0  0  0  0  0  0  0
   12.7517    6.1149    3.0808 C   0  0  0  0  0  0  0  0  0  0  0  0
   11.1428    7.3065    2.2755 H   0  0  0  0  0  0  0  0  0  0  0  0
    9.6148    5.3537    1.9761 H   0  0  0  0  0  0  0  0  0  0  0  0
   12.2257   -2.1841   -0.2556 N   0  0  0  0  0  0  0  0  0  0  0  0
   11.3085   -1.8086    0.2331 N   0  0  0  0  0  0  0  0  0  0  0  0
   13.4220    6.9585    3.2146 H   0  0  0  0  0  0  0  0  0  0  0  0
   14.1556    4.6703    3.8485 H   0  0  0  0  0  0  0  0  0  0  0  0
   12.6317    2.7373    3.5426 H   0  0  0  0  0  0  0  0  0  0  0  0
   10.0917    2.9320    2.6075 O   0  0  0  0  0  0  0  0  0  0  0  0
   10.4216    1.7106    2.0789 C   0  0  0  0  0  0  0  0  0  0  0  0
   11.5238    1.4070    1.6931 O   0  0  0  0  0  0  0  0  0  0  0  0
    9.2014    0.8233    2.0620 C   0  0  0  0  0  0  0  0  0  0  0  0
    8.8523    0.6550    3.0850 H   0  0  0  0  0  0  0  0  0  0  0  0
    8.3876    1.3104    1.5175 H   0  0  0  0  0  0  0  0  0  0  0  0
    9.4535   -0.1270    1.5939 H   0  0  0  0  0  0  0  0  0  0  0  0
  1  6  1  0  0  0  0
  2  1  2  0  0  0  0
  2  3  1  0  0  0  0
  3  4  2  0  0  0  0
  4  5  1  0  0  0  0
  4 13  1  0  0  0  0
  5 12  1  0  0  0  0
  6 11  1  0  0  0  0
  6  5  2  0  0  0  0
  7  1  1  0  0  0  0
  8  2  1  0  0  0  0
  9 10  3  0  0  0  0
 14  3  1  0  0  0  0
 15 14  1  0  0  0  0
 16 15  2  0  0  0  0
 17 15  1  0  0  0  0
 17 18  1  0  0  0  0
 19 17  1  0  0  0  0
 20 17  1  0  0  0  0
M  END
