Coordinates from ORCA-job Ph-N2-OAc-B3LYPG-6-31G_dp-MTMO-d009-169-n800
 OpenBabel09051908423D

 20 19  0  0  0  0  0  0  0  0999 V2000
   11.2865    6.4805    2.7192 C   0  0  0  0  0  0  0  0  0  0  0  0
   10.5804    5.3111    2.4383 C   0  0  0  0  0  0  0  0  0  0  0  0
   11.1438    4.0765    2.7588 C   0  0  0  0  0  0  0  0  0  0  0  0
   12.4006    3.9898    3.3593 C   0  0  0  0  0  0  0  0  0  0  0  0
   13.0969    5.1689    3.6308 C   0  0  0  0  0  0  0  0  0  0  0  0
   12.5479    6.4129    3.3140 C   0  0  0  0  0  0  0  0  0  0  0  0
   10.8493    7.4430    2.4710 H   0  0  0  0  0  0  0  0  0  0  0  0
    9.5975    5.3383    1.9802 H   0  0  0  0  0  0  0  0  0  0  0  0
   10.6049   -3.7947   -0.4297 N   0  0  0  0  0  0  0  0  0  0  0  0
   10.3732   -2.8457    0.0873 N   0  0  0  0  0  0  0  0  0  0  0  0
   13.0984    7.3231    3.5310 H   0  0  0  0  0  0  0  0  0  0  0  0
   14.0771    5.1094    4.0940 H   0  0  0  0  0  0  0  0  0  0  0  0
   12.8278    3.0252    3.5986 H   0  0  0  0  0  0  0  0  0  0  0  0
   10.3358    2.9635    2.5150 O   0  0  0  0  0  0  0  0  0  0  0  0
   10.8463    1.8087    1.9796 C   0  0  0  0  0  0  0  0  0  0  0  0
   12.0038    1.6445    1.6828 O   0  0  0  0  0  0  0  0  0  0  0  0
    9.7389    0.7951    1.8258 C   0  0  0  0  0  0  0  0  0  0  0  0
    9.2961    0.5777    2.8023 H   0  0  0  0  0  0  0  0  0  0  0  0
    8.9441    1.2001    1.1925 H   0  0  0  0  0  0  0  0  0  0  0  0
   10.1381   -0.1182    1.3867 H   0  0  0  0  0  0  0  0  0  0  0  0
  1  6  1  0  0  0  0
  2  1  2  0  0  0  0
  2  3  1  0  0  0  0
  3  4  2  0  0  0  0
  4 13  1  0  0  0  0
  4  5  1  0  0  0  0
  5 12  1  0  0  0  0
  6 11  1  0  0  0  0
  6  5  2  0  0  0  0
  7  1  1  0  0  0  0
  8  2  1  0  0  0  0
  9 10  3  0  0  0  0
 14  3  1  0  0  0  0
 15 14  1  0  0  0  0
 16 15  2  0  0  0  0
 17 15  1  0  0  0  0
 17 18  1  0  0  0  0
 19 17  1  0  0  0  0
 20 17  1  0  0  0  0
M  END
