Coordinates from ORCA-job Ph-N2-OAc-B3LYPG-6-31G_dp-MTMO-d009-169-n800
 OpenBabel09051908423D

 20 19  0  0  0  0  0  0  0  0999 V2000
   11.1194    6.7730    2.8194 C   0  0  0  0  0  0  0  0  0  0  0  0
   10.5958    5.5235    2.4890 C   0  0  0  0  0  0  0  0  0  0  0  0
   11.2827    4.3703    2.8672 C   0  0  0  0  0  0  0  0  0  0  0  0
   12.4834    4.4437    3.5746 C   0  0  0  0  0  0  0  0  0  0  0  0
   12.9969    5.7019    3.8945 C   0  0  0  0  0  0  0  0  0  0  0  0
   12.3230    6.8660    3.5208 C   0  0  0  0  0  0  0  0  0  0  0  0
   10.5855    7.6720    2.5266 H   0  0  0  0  0  0  0  0  0  0  0  0
    9.6601    5.4256    1.9487 H   0  0  0  0  0  0  0  0  0  0  0  0
    8.7735   -6.6487   -1.4398 N   0  0  0  0  0  0  0  0  0  0  0  0
    8.9550   -5.6319   -1.0464 N   0  0  0  0  0  0  0  0  0  0  0  0
   12.7319    7.8386    3.7768 H   0  0  0  0  0  0  0  0  0  0  0  0
   13.9335    5.7674    4.4401 H   0  0  0  0  0  0  0  0  0  0  0  0
   13.0086    3.5416    3.8579 H   0  0  0  0  0  0  0  0  0  0  0  0
   10.6463    3.1648    2.5622 O   0  0  0  0  0  0  0  0  0  0  0  0
   11.3430    2.0822    2.0920 C   0  0  0  0  0  0  0  0  0  0  0  0
   12.5357    2.0577    1.9145 O   0  0  0  0  0  0  0  0  0  0  0  0
   10.3854    0.9451    1.8316 C   0  0  0  0  0  0  0  0  0  0  0  0
    9.8328    0.7027    2.7439 H   0  0  0  0  0  0  0  0  0  0  0  0
    9.6519    1.2396    1.0750 H   0  0  0  0  0  0  0  0  0  0  0  0
   10.9432    0.0744    1.4890 H   0  0  0  0  0  0  0  0  0  0  0  0
  1  6  1  0  0  0  0
  2  1  2  0  0  0  0
  2  3  1  0  0  0  0
  3  4  2  0  0  0  0
  4 13  1  0  0  0  0
  4  5  1  0  0  0  0
  5 12  1  0  0  0  0
  6 11  1  0  0  0  0
  6  5  2  0  0  0  0
  7  1  1  0  0  0  0
  8  2  1  0  0  0  0
  9 10  3  0  0  0  0
 14  3  1  0  0  0  0
 15 14  1  0  0  0  0
 16 15  2  0  0  0  0
 17 15  1  0  0  0  0
 17 18  1  0  0  0  0
 19 17  1  0  0  0  0
 20 17  1  0  0  0  0
M  END
