Coordinates from ORCA-job Ph-N2-OAc-B3LYPG-6-31G_dp-MTMO-d009-169-n800
 OpenBabel09051908423D

 20 19  0  0  0  0  0  0  0  0999 V2000
   11.2382    6.5366    2.7656 C   0  0  0  0  0  0  0  0  0  0  0  0
   10.5762    5.3480    2.4591 C   0  0  0  0  0  0  0  0  0  0  0  0
   11.1764    4.1286    2.7719 C   0  0  0  0  0  0  0  0  0  0  0  0
   12.4265    4.0762    3.3901 C   0  0  0  0  0  0  0  0  0  0  0  0
   13.0783    5.2745    3.6870 C   0  0  0  0  0  0  0  0  0  0  0  0
   12.4924    6.5035    3.3782 C   0  0  0  0  0  0  0  0  0  0  0  0
   10.7722    7.4870    2.5234 H   0  0  0  0  0  0  0  0  0  0  0  0
    9.5996    5.3484    1.9871 H   0  0  0  0  0  0  0  0  0  0  0  0
   10.1358   -4.3440   -0.5237 N   0  0  0  0  0  0  0  0  0  0  0  0
   10.1041   -3.3350   -0.0736 N   0  0  0  0  0  0  0  0  0  0  0  0
   13.0087    7.4287    3.6152 H   0  0  0  0  0  0  0  0  0  0  0  0
   14.0532    5.2416    4.1639 H   0  0  0  0  0  0  0  0  0  0  0  0
   12.8829    3.1237    3.6231 H   0  0  0  0  0  0  0  0  0  0  0  0
   10.4085    2.9937    2.4998 O   0  0  0  0  0  0  0  0  0  0  0  0
   10.9644    1.8564    1.9735 C   0  0  0  0  0  0  0  0  0  0  0  0
   12.1337    1.7232    1.7091 O   0  0  0  0  0  0  0  0  0  0  0  0
    9.8881    0.8161    1.7797 C   0  0  0  0  0  0  0  0  0  0  0  0
    9.4001    0.6012    2.7348 H   0  0  0  0  0  0  0  0  0  0  0  0
    9.1188    1.1945    1.0999 H   0  0  0  0  0  0  0  0  0  0  0  0
   10.3292   -0.0932    1.3732 H   0  0  0  0  0  0  0  0  0  0  0  0
  1  6  1  0  0  0  0
  2  1  2  0  0  0  0
  2  3  1  0  0  0  0
  3  4  2  0  0  0  0
  4 13  1  0  0  0  0
  4  5  1  0  0  0  0
  5 12  1  0  0  0  0
  6 11  1  0  0  0  0
  6  5  2  0  0  0  0
  7  1  1  0  0  0  0
  8  2  1  0  0  0  0
  9 10  3  0  0  0  0
 14  3  1  0  0  0  0
 15 14  1  0  0  0  0
 16 15  2  0  0  0  0
 17 15  1  0  0  0  0
 17 18  1  0  0  0  0
 19 17  1  0  0  0  0
 20 17  1  0  0  0  0
M  END
