Coordinates from ORCA-job Ph-N2-OAc-B3LYPG-6-31G_dp-MTMO-d009-169-n800
 OpenBabel09051908423D

 20 19  0  0  0  0  0  0  0  0999 V2000
   11.1085    6.7924    2.8260 C   0  0  0  0  0  0  0  0  0  0  0  0
   10.5984    5.5384    2.4915 C   0  0  0  0  0  0  0  0  0  0  0  0
   11.2924    4.3912    2.8748 C   0  0  0  0  0  0  0  0  0  0  0  0
   12.4869    4.4750    3.5914 C   0  0  0  0  0  0  0  0  0  0  0  0
   12.9869    5.7376    3.9153 C   0  0  0  0  0  0  0  0  0  0  0  0
   12.3058    6.8958    3.5367 C   0  0  0  0  0  0  0  0  0  0  0  0
   10.5690    7.6868    2.5292 H   0  0  0  0  0  0  0  0  0  0  0  0
    9.6677    5.4324    1.9440 H   0  0  0  0  0  0  0  0  0  0  0  0
    8.6490   -6.8485   -1.5195 N   0  0  0  0  0  0  0  0  0  0  0  0
    8.8444   -5.8375   -1.1179 N   0  0  0  0  0  0  0  0  0  0  0  0
   12.7042    7.8719    3.7958 H   0  0  0  0  0  0  0  0  0  0  0  0
   13.9188    5.8112    4.4681 H   0  0  0  0  0  0  0  0  0  0  0  0
   13.0179    3.5775    3.8787 H   0  0  0  0  0  0  0  0  0  0  0  0
   10.6691    3.1801    2.5648 O   0  0  0  0  0  0  0  0  0  0  0  0
   11.3790    2.1044    2.0988 C   0  0  0  0  0  0  0  0  0  0  0  0
   12.5732    2.0910    1.9299 O   0  0  0  0  0  0  0  0  0  0  0  0
   10.4339    0.9588    1.8306 C   0  0  0  0  0  0  0  0  0  0  0  0
    9.8776    0.7099    2.7390 H   0  0  0  0  0  0  0  0  0  0  0  0
    9.7026    1.2473    1.0697 H   0  0  0  0  0  0  0  0  0  0  0  0
   11.0021    0.0938    1.4906 H   0  0  0  0  0  0  0  0  0  0  0  0
  1  6  1  0  0  0  0
  2  1  2  0  0  0  0
  2  3  1  0  0  0  0
  3  4  2  0  0  0  0
  4 13  1  0  0  0  0
  4  5  1  0  0  0  0
  5 12  1  0  0  0  0
  6 11  1  0  0  0  0
  6  5  2  0  0  0  0
  7  1  1  0  0  0  0
  8  2  1  0  0  0  0
  9 10  3  0  0  0  0
 14  3  1  0  0  0  0
 15 14  1  0  0  0  0
 16 15  2  0  0  0  0
 17 15  1  0  0  0  0
 17 18  1  0  0  0  0
 19 17  1  0  0  0  0
 20 17  1  0  0  0  0
M  END
