Coordinates from ORCA-job Ph-N2-OAc-B3LYPG-6-31G_dp-MTMO-d009-169-n800
 OpenBabel09051908423D

 20 19  0  0  0  0  0  0  0  0999 V2000
   11.8658    5.8129    2.3151 C   0  0  0  0  0  0  0  0  0  0  0  0
   10.7755    4.9494    2.2055 C   0  0  0  0  0  0  0  0  0  0  0  0
   10.8891    3.6410    2.6729 C   0  0  0  0  0  0  0  0  0  0  0  0
   12.0713    3.1797    3.2524 C   0  0  0  0  0  0  0  0  0  0  0  0
   13.1557    4.0536    3.3508 C   0  0  0  0  0  0  0  0  0  0  0  0
   13.0596    5.3666    2.8856 C   0  0  0  0  0  0  0  0  0  0  0  0
   11.7799    6.8327    1.9524 H   0  0  0  0  0  0  0  0  0  0  0  0
    9.8371    5.2739    1.7683 H   0  0  0  0  0  0  0  0  0  0  0  0
   13.4994    0.9476   -0.0326 N   0  0  0  0  0  0  0  0  0  0  0  0
   13.9583    0.9752    0.9722 N   0  0  0  0  0  0  0  0  0  0  0  0
   13.9093    6.0376    2.9693 H   0  0  0  0  0  0  0  0  0  0  0  0
   14.0810    3.7003    3.7958 H   0  0  0  0  0  0  0  0  0  0  0  0
   12.1461    2.1605    3.6077 H   0  0  0  0  0  0  0  0  0  0  0  0
    9.7295    2.8644    2.5976 O   0  0  0  0  0  0  0  0  0  0  0  0
    9.7712    1.5707    2.1485 C   0  0  0  0  0  0  0  0  0  0  0  0
   10.7740    0.9997    1.7961 O   0  0  0  0  0  0  0  0  0  0  0  0
    8.3798    0.9869    2.1641 C   0  0  0  0  0  0  0  0  0  0  0  0
    7.9737    1.0149    3.1797 H   0  0  0  0  0  0  0  0  0  0  0  0
    7.7153    1.5826    1.5316 H   0  0  0  0  0  0  0  0  0  0  0  0
    8.4159   -0.0406    1.8045 H   0  0  0  0  0  0  0  0  0  0  0  0
  1  6  1  0  0  0  0
  2  1  2  0  0  0  0
  2  3  1  0  0  0  0
  3  4  2  0  0  0  0
  4  5  1  0  0  0  0
  4 13  1  0  0  0  0
  5 12  1  0  0  0  0
  6 11  1  0  0  0  0
  6  5  2  0  0  0  0
  7  1  1  0  0  0  0
  8  2  1  0  0  0  0
  9 10  3  0  0  0  0
 14  3  1  0  0  0  0
 15 17  1  0  0  0  0
 15 14  1  0  0  0  0
 16 15  2  0  0  0  0
 17 18  1  0  0  0  0
 19 17  1  0  0  0  0
 20 17  1  0  0  0  0
M  END
