Coordinates from ORCA-job Ph-N2-OAc-B3LYPG-6-31G_dp-MTMO-d009-169-n800
 OpenBabel09051908423D

 20 19  0  0  0  0  0  0  0  0999 V2000
   11.1361    7.0827    2.9456 C   0  0  0  0  0  0  0  0  0  0  0  0
   10.6705    5.8172    2.5901 C   0  0  0  0  0  0  0  0  0  0  0  0
   11.3861    4.6873    2.9848 C   0  0  0  0  0  0  0  0  0  0  0  0
   12.5583    4.7995    3.7336 C   0  0  0  0  0  0  0  0  0  0  0  0
   13.0138    6.0734    4.0783 C   0  0  0  0  0  0  0  0  0  0  0  0
   12.3108    7.2147    3.6885 C   0  0  0  0  0  0  0  0  0  0  0  0
   10.5796    7.9636    2.6399 H   0  0  0  0  0  0  0  0  0  0  0  0
    9.7580    5.6889    2.0173 H   0  0  0  0  0  0  0  0  0  0  0  0
    7.6799   -9.5514   -2.5464 N   0  0  0  0  0  0  0  0  0  0  0  0
    7.9360   -8.5711   -2.1047 N   0  0  0  0  0  0  0  0  0  0  0  0
   12.6747    8.1997    3.9639 H   0  0  0  0  0  0  0  0  0  0  0  0
   13.9283    6.1693    4.6561 H   0  0  0  0  0  0  0  0  0  0  0  0
   13.1066    3.9153    4.0295 H   0  0  0  0  0  0  0  0  0  0  0  0
   10.8059    3.4613    2.6507 O   0  0  0  0  0  0  0  0  0  0  0  0
   11.5584    2.4103    2.1954 C   0  0  0  0  0  0  0  0  0  0  0  0
   12.7565    2.4325    2.0580 O   0  0  0  0  0  0  0  0  0  0  0  0
   10.6544    1.2402    1.8935 C   0  0  0  0  0  0  0  0  0  0  0  0
   10.0854    0.9646    2.7863 H   0  0  0  0  0  0  0  0  0  0  0  0
    9.9320    1.5153    1.1192 H   0  0  0  0  0  0  0  0  0  0  0  0
   11.2562    0.3964    1.5580 H   0  0  0  0  0  0  0  0  0  0  0  0
  1  6  1  0  0  0  0
  2  1  2  0  0  0  0
  2  3  1  0  0  0  0
  3  4  2  0  0  0  0
  4 13  1  0  0  0  0
  4  5  1  0  0  0  0
  5 12  1  0  0  0  0
  6 11  1  0  0  0  0
  6  5  2  0  0  0  0
  7  1  1  0  0  0  0
  8  2  1  0  0  0  0
  9 10  3  0  0  0  0
 14  3  1  0  0  0  0
 15 14  1  0  0  0  0
 16 15  2  0  0  0  0
 17 15  1  0  0  0  0
 17 18  1  0  0  0  0
 19 17  1  0  0  0  0
 20 17  1  0  0  0  0
M  END
