Coordinates from ORCA-job Ph-N2-OAc-B3LYPG-6-31G_dp-MTMO-d009-169-n800
 OpenBabel09051908423D

 20 19  0  0  0  0  0  0  0  0999 V2000
   11.0903    6.8454    2.8484 C   0  0  0  0  0  0  0  0  0  0  0  0
   10.6078    5.5834    2.5030 C   0  0  0  0  0  0  0  0  0  0  0  0
   11.3158    4.4476    2.8947 C   0  0  0  0  0  0  0  0  0  0  0  0
   12.4971    4.5505    3.6304 C   0  0  0  0  0  0  0  0  0  0  0  0
   12.9695    5.8209    3.9651 C   0  0  0  0  0  0  0  0  0  0  0  0
   12.2742    6.9680    3.5783 C   0  0  0  0  0  0  0  0  0  0  0  0
   10.5398    7.7308    2.5452 H   0  0  0  0  0  0  0  0  0  0  0  0
    9.6879    5.4624    1.9405 H   0  0  0  0  0  0  0  0  0  0  0  0
    8.3669   -7.3798   -1.7239 N   0  0  0  0  0  0  0  0  0  0  0  0
    8.5868   -6.3848   -1.2959 N   0  0  0  0  0  0  0  0  0  0  0  0
   12.6512    7.9502    3.8459 H   0  0  0  0  0  0  0  0  0  0  0  0
   13.8911    5.9095    4.5327 H   0  0  0  0  0  0  0  0  0  0  0  0
   13.0392    3.6618    3.9240 H   0  0  0  0  0  0  0  0  0  0  0  0
   10.7191    3.2265    2.5719 O   0  0  0  0  0  0  0  0  0  0  0  0
   11.4556    2.1655    2.1133 C   0  0  0  0  0  0  0  0  0  0  0  0
   12.6523    2.1745    1.9626 O   0  0  0  0  0  0  0  0  0  0  0  0
   10.5359    1.0037    1.8268 C   0  0  0  0  0  0  0  0  0  0  0  0
    9.9727    0.7394    2.7265 H   0  0  0  0  0  0  0  0  0  0  0  0
    9.8091    1.2825    1.0579 H   0  0  0  0  0  0  0  0  0  0  0  0
   11.1250    0.1515    1.4900 H   0  0  0  0  0  0  0  0  0  0  0  0
  1  6  1  0  0  0  0
  2  1  2  0  0  0  0
  2  3  1  0  0  0  0
  3  4  2  0  0  0  0
  4 13  1  0  0  0  0
  4  5  1  0  0  0  0
  5 12  1  0  0  0  0
  6 11  1  0  0  0  0
  6  5  2  0  0  0  0
  7  1  1  0  0  0  0
  8  2  1  0  0  0  0
  9 10  3  0  0  0  0
 14  3  1  0  0  0  0
 15 14  1  0  0  0  0
 16 15  2  0  0  0  0
 17 15  1  0  0  0  0
 17 18  1  0  0  0  0
 19 17  1  0  0  0  0
 20 17  1  0  0  0  0
M  END
