Coordinates from ORCA-job Ph-N2-OAc-B3LYPG-6-31G_dp-MTMO-d009-169-n800
 OpenBabel09051908423D

 20 18  0  0  0  0  0  0  0  0999 V2000
   13.2315    6.0589    2.2696 C   0  0  0  0  0  0  0  0  0  0  0  0
   12.7104    5.4577    1.1099 C   0  0  0  0  0  0  0  0  0  0  0  0
   12.0821    4.2887    1.4519 C   0  0  0  0  0  0  0  0  0  0  0  0
   11.8597    3.6219    2.5246 C   0  0  0  0  0  0  0  0  0  0  0  0
   12.3924    4.2393    3.6823 C   0  0  0  0  0  0  0  0  0  0  0  0
   13.0726    5.4560    3.5298 C   0  0  0  0  0  0  0  0  0  0  0  0
   13.7593    7.0036    2.1789 H   0  0  0  0  0  0  0  0  0  0  0  0
   12.8019    5.8756    0.1149 H   0  0  0  0  0  0  0  0  0  0  0  0
   11.3530    3.4865   -0.2305 N   0  0  0  0  0  0  0  0  0  0  0  0
   10.7298    2.6737   -0.6544 N   0  0  0  0  0  0  0  0  0  0  0  0
   13.4889    5.9480    4.4049 H   0  0  0  0  0  0  0  0  0  0  0  0
   12.2832    3.7923    4.6676 H   0  0  0  0  0  0  0  0  0  0  0  0
   10.9513    2.0367    2.8572 H   0  0  0  0  0  0  0  0  0  0  0  0
    9.2029    1.5489    1.3699 O   0  0  0  0  0  0  0  0  0  0  0  0
    9.4486    0.9431    2.3974 C   0  0  0  0  0  0  0  0  0  0  0  0
   10.4727    1.2268    3.2091 O   0  0  0  0  0  0  0  0  0  0  0  0
    8.6315   -0.2225    2.9112 C   0  0  0  0  0  0  0  0  0  0  0  0
    7.8175   -0.4345    2.2190 H   0  0  0  0  0  0  0  0  0  0  0  0
    9.2691   -1.1045    3.0232 H   0  0  0  0  0  0  0  0  0  0  0  0
    8.2291    0.0132    3.9009 H   0  0  0  0  0  0  0  0  0  0  0  0
  1  6  2  0  0  0  0
  2  3  2  0  0  0  0
  2  1  1  0  0  0  0
  3  4  1  0  0  0  0
  4  5  2  0  0  0  0
  5 12  1  0  0  0  0
  6  5  1  0  0  0  0
  6 11  1  0  0  0  0
  7  1  1  0  0  0  0
  8  2  1  0  0  0  0
 10  9  3  0  0  0  0
 13 16  1  0  0  0  0
 14 15  2  0  0  0  0
 15 17  1  0  0  0  0
 15 16  1  0  0  0  0
 17 19  1  0  0  0  0
 17 20  1  0  0  0  0
 18 17  1  0  0  0  0
M  RAD  2   3   2   4   2
M  END
