Coordinates from ORCA-job Ph-N2-OAc-B3LYPG-6-31G_dp-MTMO-d009-169-n800
 OpenBabel09051908423D

 20 19  0  0  0  0  0  0  0  0999 V2000
   11.6168    6.0690    2.7288 C   0  0  0  0  0  0  0  0  0  0  0  0
   10.6026    5.1195    2.6079 C   0  0  0  0  0  0  0  0  0  0  0  0
   10.9230    3.7642    2.6682 C   0  0  0  0  0  0  0  0  0  0  0  0
   12.2392    3.3386    2.8509 C   0  0  0  0  0  0  0  0  0  0  0  0
   13.2436    4.3008    2.9665 C   0  0  0  0  0  0  0  0  0  0  0  0
   12.9408    5.6626    2.9063 C   0  0  0  0  0  0  0  0  0  0  0  0
   11.3693    7.1257    2.6831 H   0  0  0  0  0  0  0  0  0  0  0  0
    9.5665    5.4111    2.4711 H   0  0  0  0  0  0  0  0  0  0  0  0
   13.4215   -0.8635    0.7270 N   0  0  0  0  0  0  0  0  0  0  0  0
   13.5393   -0.2164    1.6150 N   0  0  0  0  0  0  0  0  0  0  0  0
   13.7310    6.4014    2.9990 H   0  0  0  0  0  0  0  0  0  0  0  0
   14.2710    3.9778    3.1071 H   0  0  0  0  0  0  0  0  0  0  0  0
   12.4755    2.2832    2.8912 H   0  0  0  0  0  0  0  0  0  0  0  0
    9.8399    2.8820    2.6183 O   0  0  0  0  0  0  0  0  0  0  0  0
    9.8783    1.7477    1.8521 C   0  0  0  0  0  0  0  0  0  0  0  0
   10.8175    1.4082    1.1746 O   0  0  0  0  0  0  0  0  0  0  0  0
    8.5712    1.0052    1.9880 C   0  0  0  0  0  0  0  0  0  0  0  0
    8.3893    0.7563    3.0373 H   0  0  0  0  0  0  0  0  0  0  0  0
    7.7441    1.6396    1.6562 H   0  0  0  0  0  0  0  0  0  0  0  0
    8.6074    0.0965    1.3889 H   0  0  0  0  0  0  0  0  0  0  0  0
  1  6  2  0  0  0  0
  2  3  2  0  0  0  0
  2  1  1  0  0  0  0
  3  4  1  0  0  0  0
  4 13  1  0  0  0  0
  4  5  2  0  0  0  0
  5 12  1  0  0  0  0
  6  5  1  0  0  0  0
  6 11  1  0  0  0  0
  7  1  1  0  0  0  0
  8  2  1  0  0  0  0
  9 10  3  0  0  0  0
 14  3  1  0  0  0  0
 15 17  1  0  0  0  0
 15 14  1  0  0  0  0
 16 15  2  0  0  0  0
 17 18  1  0  0  0  0
 19 17  1  0  0  0  0
 20 17  1  0  0  0  0
M  END
