Coordinates from ORCA-job Ph-N2-OAc-B3LYPG-6-31G_dp-MTMO-d009-169-n800
 OpenBabel09051908423D

 20 19  0  0  0  0  0  0  0  0999 V2000
   11.3828    6.4135    2.6488 C   0  0  0  0  0  0  0  0  0  0  0  0
   10.5960    5.2853    2.4180 C   0  0  0  0  0  0  0  0  0  0  0  0
   11.0904    4.0252    2.7524 C   0  0  0  0  0  0  0  0  0  0  0  0
   12.3573    3.8724    3.3169 C   0  0  0  0  0  0  0  0  0  0  0  0
   13.1347    5.0104    3.5385 C   0  0  0  0  0  0  0  0  0  0  0  0
   12.6553    6.2793    3.2075 C   0  0  0  0  0  0  0  0  0  0  0  0
   10.9996    7.3959    2.3896 H   0  0  0  0  0  0  0  0  0  0  0  0
    9.6033    5.3643    1.9881 H   0  0  0  0  0  0  0  0  0  0  0  0
   11.4999   -3.1087   -0.3462 N   0  0  0  0  0  0  0  0  0  0  0  0
   10.7732   -2.4259    0.1301 N   0  0  0  0  0  0  0  0  0  0  0  0
   13.2685    7.1574    3.3857 H   0  0  0  0  0  0  0  0  0  0  0  0
   14.1230    4.8993    3.9742 H   0  0  0  0  0  0  0  0  0  0  0  0
   12.7299    2.8880    3.5673 H   0  0  0  0  0  0  0  0  0  0  0  0
   10.2082    2.9590    2.5624 O   0  0  0  0  0  0  0  0  0  0  0  0
   10.6281    1.7718    2.0194 C   0  0  0  0  0  0  0  0  0  0  0  0
   11.7593    1.5418    1.6693 O   0  0  0  0  0  0  0  0  0  0  0  0
    9.4631    0.8164    1.9377 C   0  0  0  0  0  0  0  0  0  0  0  0
    9.0959    0.5951    2.9443 H   0  0  0  0  0  0  0  0  0  0  0  0
    8.6375    1.2728    1.3845 H   0  0  0  0  0  0  0  0  0  0  0  0
    9.7813   -0.1037    1.4493 H   0  0  0  0  0  0  0  0  0  0  0  0
  1  6  1  0  0  0  0
  2  1  2  0  0  0  0
  2  3  1  0  0  0  0
  3  4  2  0  0  0  0
  4  5  1  0  0  0  0
  4 13  1  0  0  0  0
  5 12  1  0  0  0  0
  6 11  1  0  0  0  0
  6  5  2  0  0  0  0
  7  1  1  0  0  0  0
  8  2  1  0  0  0  0
  9 10  3  0  0  0  0
 14  3  1  0  0  0  0
 15 14  1  0  0  0  0
 16 15  2  0  0  0  0
 17 15  1  0  0  0  0
 17 18  1  0  0  0  0
 19 17  1  0  0  0  0
 20 17  1  0  0  0  0
M  END
