Coordinates from ORCA-job Ph-N2-OAc-B3LYPG-6-31G_dp-MTMO-d009-169-n800
 OpenBabel09051908423D

 20 19  0  0  0  0  0  0  0  0999 V2000
   11.4918    6.2816    2.5305 C   0  0  0  0  0  0  0  0  0  0  0  0
   10.6178    5.2067    2.3688 C   0  0  0  0  0  0  0  0  0  0  0  0
   11.0319    3.9268    2.7344 C   0  0  0  0  0  0  0  0  0  0  0  0
   12.3036    3.7014    3.2621 C   0  0  0  0  0  0  0  0  0  0  0  0
   13.1685    4.7862    3.4148 C   0  0  0  0  0  0  0  0  0  0  0  0
   12.7703    6.0744    3.0517 C   0  0  0  0  0  0  0  0  0  0  0  0
   11.1715    7.2796    2.2464 H   0  0  0  0  0  0  0  0  0  0  0  0
    9.6189    5.3431    1.9684 H   0  0  0  0  0  0  0  0  0  0  0  0
   12.3674   -1.9145   -0.1892 N   0  0  0  0  0  0  0  0  0  0  0  0
   11.3906   -1.6483    0.2538 N   0  0  0  0  0  0  0  0  0  0  0  0
   13.4513    6.9109    3.1762 H   0  0  0  0  0  0  0  0  0  0  0  0
   14.1610    4.6185    3.8223 H   0  0  0  0  0  0  0  0  0  0  0  0
   12.6126    2.7017    3.5377 H   0  0  0  0  0  0  0  0  0  0  0  0
   10.0708    2.9198    2.6142 O   0  0  0  0  0  0  0  0  0  0  0  0
   10.3833    1.6928    2.0887 C   0  0  0  0  0  0  0  0  0  0  0  0
   11.4793    1.3758    1.6956 O   0  0  0  0  0  0  0  0  0  0  0  0
    9.1535    0.8186    2.0852 C   0  0  0  0  0  0  0  0  0  0  0  0
    8.8095    0.6600    3.1116 H   0  0  0  0  0  0  0  0  0  0  0  0
    8.3414    1.3114    1.5433 H   0  0  0  0  0  0  0  0  0  0  0  0
    9.3923   -0.1370    1.6210 H   0  0  0  0  0  0  0  0  0  0  0  0
  1  6  1  0  0  0  0
  2  1  2  0  0  0  0
  2  3  1  0  0  0  0
  3  4  2  0  0  0  0
  4  5  1  0  0  0  0
  4 13  1  0  0  0  0
  5 12  1  0  0  0  0
  6 11  1  0  0  0  0
  6  5  2  0  0  0  0
  7  1  1  0  0  0  0
  8  2  1  0  0  0  0
  9 10  3  0  0  0  0
 14  3  1  0  0  0  0
 15 14  1  0  0  0  0
 16 15  2  0  0  0  0
 17 15  1  0  0  0  0
 17 18  1  0  0  0  0
 19 17  1  0  0  0  0
 20 17  1  0  0  0  0
M  END
