Coordinates from ORCA-job Ph-N2-OAc-B3LYPG-6-31G_dp-MTMO-d009-169-n800
 OpenBabel09051908423D

 20 19  0  0  0  0  0  0  0  0999 V2000
   11.4588    6.3303    2.5727 C   0  0  0  0  0  0  0  0  0  0  0  0
   10.6098    5.2390    2.3893 C   0  0  0  0  0  0  0  0  0  0  0  0
   11.0482    3.9635    2.7419 C   0  0  0  0  0  0  0  0  0  0  0  0
   12.3200    3.7587    3.2781 C   0  0  0  0  0  0  0  0  0  0  0  0
   13.1598    4.8599    3.4525 C   0  0  0  0  0  0  0  0  0  0  0  0
   12.7369    6.1439    3.1026 C   0  0  0  0  0  0  0  0  0  0  0  0
   11.1193    7.3248    2.2989 H   0  0  0  0  0  0  0  0  0  0  0  0
    9.6116    5.3590    1.9821 H   0  0  0  0  0  0  0  0  0  0  0  0
   12.1188   -2.3620   -0.2711 N   0  0  0  0  0  0  0  0  0  0  0  0
   11.2264   -1.9194    0.2073 N   0  0  0  0  0  0  0  0  0  0  0  0
   13.3984    6.9932    3.2440 H   0  0  0  0  0  0  0  0  0  0  0  0
   14.1521    4.7083    3.8664 H   0  0  0  0  0  0  0  0  0  0  0  0
   12.6484    2.7625    3.5432 H   0  0  0  0  0  0  0  0  0  0  0  0
   10.1094    2.9387    2.6001 O   0  0  0  0  0  0  0  0  0  0  0  0
   10.4530    1.7221    2.0694 C   0  0  0  0  0  0  0  0  0  0  0  0
   11.5601    1.4290    1.6899 O   0  0  0  0  0  0  0  0  0  0  0  0
    9.2405    0.8246    2.0417 C   0  0  0  0  0  0  0  0  0  0  0  0
    8.8894    0.6459    3.0624 H   0  0  0  0  0  0  0  0  0  0  0  0
    8.4242    1.3083    1.4979 H   0  0  0  0  0  0  0  0  0  0  0  0
    9.5023   -0.1205    1.5682 H   0  0  0  0  0  0  0  0  0  0  0  0
  1  6  1  0  0  0  0
  2  1  2  0  0  0  0
  2  3  1  0  0  0  0
  3  4  2  0  0  0  0
  4  5  1  0  0  0  0
  4 13  1  0  0  0  0
  5 12  1  0  0  0  0
  6 11  1  0  0  0  0
  6  5  2  0  0  0  0
  7  1  1  0  0  0  0
  8  2  1  0  0  0  0
  9 10  3  0  0  0  0
 14  3  1  0  0  0  0
 15 14  1  0  0  0  0
 16 15  2  0  0  0  0
 17 15  1  0  0  0  0
 17 18  1  0  0  0  0
 19 17  1  0  0  0  0
 20 17  1  0  0  0  0
M  END
