Coordinates from ORCA-job Ph-N2-OAc-B3LYPG-6-31G_dp-MTMO-d009-169-n800
 OpenBabel09051908423D

 20 19  0  0  0  0  0  0  0  0999 V2000
   11.2064    6.6351    2.8060 C   0  0  0  0  0  0  0  0  0  0  0  0
   10.5848    5.4288    2.4849 C   0  0  0  0  0  0  0  0  0  0  0  0
   11.2132    4.2264    2.8077 C   0  0  0  0  0  0  0  0  0  0  0  0
   12.4517    4.2083    3.4507 C   0  0  0  0  0  0  0  0  0  0  0  0
   13.0631    5.4242    3.7621 C   0  0  0  0  0  0  0  0  0  0  0  0
   12.4487    6.6366    3.4433 C   0  0  0  0  0  0  0  0  0  0  0  0
   10.7183    7.5724    2.5560 H   0  0  0  0  0  0  0  0  0  0  0  0
    9.6179    5.4024    1.9938 H   0  0  0  0  0  0  0  0  0  0  0  0
    9.6683   -5.2769   -0.8282 N   0  0  0  0  0  0  0  0  0  0  0  0
    9.7260   -4.2477   -0.4297 N   0  0  0  0  0  0  0  0  0  0  0  0
   12.9335    7.5756    3.6918 H   0  0  0  0  0  0  0  0  0  0  0  0
   14.0290    5.4181    4.2580 H   0  0  0  0  0  0  0  0  0  0  0  0
   12.9304    3.2688    3.6915 H   0  0  0  0  0  0  0  0  0  0  0  0
   10.4835    3.0708    2.5189 O   0  0  0  0  0  0  0  0  0  0  0  0
   11.0821    1.9519    2.0008 C   0  0  0  0  0  0  0  0  0  0  0  0
   12.2598    1.8525    1.7599 O   0  0  0  0  0  0  0  0  0  0  0  0
   10.0400    0.8826    1.7808 C   0  0  0  0  0  0  0  0  0  0  0  0
    9.5334    0.6538    2.7228 H   0  0  0  0  0  0  0  0  0  0  0  0
    9.2790    1.2390    1.0801 H   0  0  0  0  0  0  0  0  0  0  0  0
   10.5182   -0.0131    1.3863 H   0  0  0  0  0  0  0  0  0  0  0  0
  1  6  1  0  0  0  0
  2  1  2  0  0  0  0
  2  3  1  0  0  0  0
  3  4  2  0  0  0  0
  4 13  1  0  0  0  0
  4  5  1  0  0  0  0
  5 12  1  0  0  0  0
  6 11  1  0  0  0  0
  6  5  2  0  0  0  0
  7  1  1  0  0  0  0
  8  2  1  0  0  0  0
  9 10  3  0  0  0  0
 14  3  1  0  0  0  0
 15 14  1  0  0  0  0
 16 15  2  0  0  0  0
 17 15  1  0  0  0  0
 17 18  1  0  0  0  0
 19 17  1  0  0  0  0
 20 17  1  0  0  0  0
M  END
