Coordinates from ORCA-job Ph-N2-OAc-B3LYPG-6-31G_dp-MTMO-d009-169-n800
 OpenBabel09051908423D

 20 19  0  0  0  0  0  0  0  0999 V2000
   11.1649    7.1894    2.9877 C   0  0  0  0  0  0  0  0  0  0  0  0
   10.7000    5.9240    2.6309 C   0  0  0  0  0  0  0  0  0  0  0  0
   11.4157    4.7940    3.0256 C   0  0  0  0  0  0  0  0  0  0  0  0
   12.5872    4.9061    3.7755 C   0  0  0  0  0  0  0  0  0  0  0  0
   13.0419    6.1799    4.1215 C   0  0  0  0  0  0  0  0  0  0  0  0
   12.3389    7.3212    3.7318 C   0  0  0  0  0  0  0  0  0  0  0  0
   10.6084    8.0703    2.6821 H   0  0  0  0  0  0  0  0  0  0  0  0
    9.7881    5.7957    2.0572 H   0  0  0  0  0  0  0  0  0  0  0  0
    7.4100  -10.5132   -2.9117 N   0  0  0  0  0  0  0  0  0  0  0  0
    7.6696   -9.5333   -2.4712 N   0  0  0  0  0  0  0  0  0  0  0  0
   12.7022    8.3061    4.0082 H   0  0  0  0  0  0  0  0  0  0  0  0
   13.9559    6.2757    4.7002 H   0  0  0  0  0  0  0  0  0  0  0  0
   13.1354    4.0219    4.0713 H   0  0  0  0  0  0  0  0  0  0  0  0
   10.8362    3.5680    2.6900 O   0  0  0  0  0  0  0  0  0  0  0  0
   11.5895    2.5177    2.2346 C   0  0  0  0  0  0  0  0  0  0  0  0
   12.7878    2.5404    2.0983 O   0  0  0  0  0  0  0  0  0  0  0  0
   10.6862    1.3475    1.9310 C   0  0  0  0  0  0  0  0  0  0  0  0
   10.1165    1.0710    2.8230 H   0  0  0  0  0  0  0  0  0  0  0  0
    9.9644    1.6230    1.1562 H   0  0  0  0  0  0  0  0  0  0  0  0
   11.2886    0.5042    1.5953 H   0  0  0  0  0  0  0  0  0  0  0  0
  1  6  1  0  0  0  0
  2  1  2  0  0  0  0
  2  3  1  0  0  0  0
  3  4  2  0  0  0  0
  4 13  1  0  0  0  0
  4  5  1  0  0  0  0
  5 12  1  0  0  0  0
  6 11  1  0  0  0  0
  6  5  2  0  0  0  0
  7  1  1  0  0  0  0
  8  2  1  0  0  0  0
  9 10  3  0  0  0  0
 14  3  1  0  0  0  0
 15 14  1  0  0  0  0
 16 15  2  0  0  0  0
 17 15  1  0  0  0  0
 17 18  1  0  0  0  0
 19 17  1  0  0  0  0
 20 17  1  0  0  0  0
M  END
