Coordinates from ORCA-job Ph-N2-OAc-B3LYPG-6-31G_dp-MTMO-d009-169-n800
 OpenBabel09051908423D

 20 19  0  0  0  0  0  0  0  0999 V2000
   11.9009    5.7973    2.2873 C   0  0  0  0  0  0  0  0  0  0  0  0
   10.8190    4.9269    2.1538 C   0  0  0  0  0  0  0  0  0  0  0  0
   10.9099    3.6358    2.6727 C   0  0  0  0  0  0  0  0  0  0  0  0
   12.0622    3.1990    3.3273 C   0  0  0  0  0  0  0  0  0  0  0  0
   13.1384    4.0803    3.4493 C   0  0  0  0  0  0  0  0  0  0  0  0
   13.0648    5.3757    2.9334 C   0  0  0  0  0  0  0  0  0  0  0  0
   11.8317    6.8033    1.8846 H   0  0  0  0  0  0  0  0  0  0  0  0
    9.9032    5.2327    1.6589 H   0  0  0  0  0  0  0  0  0  0  0  0
   13.2194    1.0312   -0.1861 N   0  0  0  0  0  0  0  0  0  0  0  0
   13.8690    1.0159    0.7077 N   0  0  0  0  0  0  0  0  0  0  0  0
   13.9082    6.0519    3.0364 H   0  0  0  0  0  0  0  0  0  0  0  0
   14.0405    3.7463    3.9533 H   0  0  0  0  0  0  0  0  0  0  0  0
   12.1211    2.1935    3.7215 H   0  0  0  0  0  0  0  0  0  0  0  0
    9.7534    2.8590    2.5623 O   0  0  0  0  0  0  0  0  0  0  0  0
    9.8100    1.5358    2.2135 C   0  0  0  0  0  0  0  0  0  0  0  0
   10.8280    0.9281    1.9889 O   0  0  0  0  0  0  0  0  0  0  0  0
    8.4120    0.9712    2.1529 C   0  0  0  0  0  0  0  0  0  0  0  0
    7.9135    1.0978    3.1188 H   0  0  0  0  0  0  0  0  0  0  0  0
    7.8212    1.5133    1.4086 H   0  0  0  0  0  0  0  0  0  0  0  0
    8.4609   -0.0853    1.8922 H   0  0  0  0  0  0  0  0  0  0  0  0
  1  6  1  0  0  0  0
  2  1  2  0  0  0  0
  2  3  1  0  0  0  0
  3  4  2  0  0  0  0
  4  5  1  0  0  0  0
  4 13  1  0  0  0  0
  5 12  1  0  0  0  0
  6 11  1  0  0  0  0
  6  5  2  0  0  0  0
  7  1  1  0  0  0  0
  8  2  1  0  0  0  0
  9 10  3  0  0  0  0
 14  3  1  0  0  0  0
 15 14  1  0  0  0  0
 16 15  2  0  0  0  0
 17 15  1  0  0  0  0
 17 18  1  0  0  0  0
 19 17  1  0  0  0  0
 20 17  1  0  0  0  0
M  END
