Coordinates from ORCA-job Ph-N2-OAc-B3LYPG-6-31G_dp-MTMO-d009-169-n800
 OpenBabel09051908423D

 20 19  0  0  0  0  0  0  0  0999 V2000
   11.1969    6.6762    2.8170 C   0  0  0  0  0  0  0  0  0  0  0  0
   10.5899    5.4630    2.4937 C   0  0  0  0  0  0  0  0  0  0  0  0
   11.2279    4.2676    2.8238 C   0  0  0  0  0  0  0  0  0  0  0  0
   12.4616    4.2633    3.4763 C   0  0  0  0  0  0  0  0  0  0  0  0
   13.0583    5.4858    3.7897 C   0  0  0  0  0  0  0  0  0  0  0  0
   12.4343    6.6914    3.4637 C   0  0  0  0  0  0  0  0  0  0  0  0
   10.7014    7.6079    2.5615 H   0  0  0  0  0  0  0  0  0  0  0  0
    9.6271    5.4259    1.9955 H   0  0  0  0  0  0  0  0  0  0  0  0
    9.4998   -5.6610   -0.9813 N   0  0  0  0  0  0  0  0  0  0  0  0
    9.5710   -4.6303   -0.5888 N   0  0  0  0  0  0  0  0  0  0  0  0
   12.9077    7.6357    3.7140 H   0  0  0  0  0  0  0  0  0  0  0  0
   14.0205    5.4905    4.2929 H   0  0  0  0  0  0  0  0  0  0  0  0
   12.9478    3.3291    3.7226 H   0  0  0  0  0  0  0  0  0  0  0  0
   10.5119    3.1043    2.5317 O   0  0  0  0  0  0  0  0  0  0  0  0
   11.1254    1.9903    2.0208 C   0  0  0  0  0  0  0  0  0  0  0  0
   12.3060    1.9013    1.7903 O   0  0  0  0  0  0  0  0  0  0  0  0
   10.0952    0.9110    1.7934 C   0  0  0  0  0  0  0  0  0  0  0  0
    9.5797    0.6814    2.7304 H   0  0  0  0  0  0  0  0  0  0  0  0
    9.3393    1.2581    1.0825 H   0  0  0  0  0  0  0  0  0  0  0  0
   10.5858    0.0182    1.4078 H   0  0  0  0  0  0  0  0  0  0  0  0
  1  6  1  0  0  0  0
  2  1  2  0  0  0  0
  2  3  1  0  0  0  0
  3  4  2  0  0  0  0
  4 13  1  0  0  0  0
  4  5  1  0  0  0  0
  5 12  1  0  0  0  0
  6 11  1  0  0  0  0
  6  5  2  0  0  0  0
  7  1  1  0  0  0  0
  8  2  1  0  0  0  0
  9 10  3  0  0  0  0
 14  3  1  0  0  0  0
 15 14  1  0  0  0  0
 16 15  2  0  0  0  0
 17 15  1  0  0  0  0
 17 18  1  0  0  0  0
 19 17  1  0  0  0  0
 20 17  1  0  0  0  0
M  END
