Coordinates from ORCA-job Ph-N2-OAc-B3LYPG-6-31G_dp-MTMO-d009-169-n800
 OpenBabel09051908423D

 20 19  0  0  0  0  0  0  0  0999 V2000
   11.0896    6.8553    2.8528 C   0  0  0  0  0  0  0  0  0  0  0  0
   10.6099    5.5926    2.5061 C   0  0  0  0  0  0  0  0  0  0  0  0
   11.3194    4.4580    2.8984 C   0  0  0  0  0  0  0  0  0  0  0  0
   12.4993    4.5628    3.6361 C   0  0  0  0  0  0  0  0  0  0  0  0
   12.9688    5.8338    3.9721 C   0  0  0  0  0  0  0  0  0  0  0  0
   12.2721    6.9798    3.5846 C   0  0  0  0  0  0  0  0  0  0  0  0
   10.5380    7.7398    2.5490 H   0  0  0  0  0  0  0  0  0  0  0  0
    9.6913    5.4701    1.9420 H   0  0  0  0  0  0  0  0  0  0  0  0
    8.3256   -7.4752   -1.7598 N   0  0  0  0  0  0  0  0  0  0  0  0
    8.5507   -6.4823   -1.3294 N   0  0  0  0  0  0  0  0  0  0  0  0
   12.6469    7.9626    3.8532 H   0  0  0  0  0  0  0  0  0  0  0  0
   13.8893    5.9239    4.5413 H   0  0  0  0  0  0  0  0  0  0  0  0
   13.0426    3.6749    3.9302 H   0  0  0  0  0  0  0  0  0  0  0  0
   10.7256    3.2358    2.5741 O   0  0  0  0  0  0  0  0  0  0  0  0
   11.4648    2.1765    2.1162 C   0  0  0  0  0  0  0  0  0  0  0  0
   12.6617    2.1877    1.9677 O   0  0  0  0  0  0  0  0  0  0  0  0
   10.5477    1.0131    1.8276 C   0  0  0  0  0  0  0  0  0  0  0  0
    9.9837    0.7471    2.7263 H   0  0  0  0  0  0  0  0  0  0  0  0
    9.8215    1.2911    1.0579 H   0  0  0  0  0  0  0  0  0  0  0  0
   11.1390    0.1623    1.4911 H   0  0  0  0  0  0  0  0  0  0  0  0
  1  6  1  0  0  0  0
  2  1  2  0  0  0  0
  2  3  1  0  0  0  0
  3  4  2  0  0  0  0
  4 13  1  0  0  0  0
  4  5  1  0  0  0  0
  5 12  1  0  0  0  0
  6 11  1  0  0  0  0
  6  5  2  0  0  0  0
  7  1  1  0  0  0  0
  8  2  1  0  0  0  0
  9 10  3  0  0  0  0
 14  3  1  0  0  0  0
 15 14  1  0  0  0  0
 16 15  2  0  0  0  0
 17 15  1  0  0  0  0
 17 18  1  0  0  0  0
 19 17  1  0  0  0  0
 20 17  1  0  0  0  0
M  END
