Coordinates from ORCA-job Ph-N2-OAc-B3LYPG-6-31G_dp-MTMO-d009-169-n800
 OpenBabel09051908423D

 20 19  0  0  0  0  0  0  0  0999 V2000
   11.0950    6.9156    2.8781 C   0  0  0  0  0  0  0  0  0  0  0  0
   10.6248    5.6507    2.5268 C   0  0  0  0  0  0  0  0  0  0  0  0
   11.3388    4.5196    2.9213 C   0  0  0  0  0  0  0  0  0  0  0  0
   12.5140    4.6302    3.6657 C   0  0  0  0  0  0  0  0  0  0  0  0
   12.9740    5.9035    4.0063 C   0  0  0  0  0  0  0  0  0  0  0  0
   12.2727    7.0459    3.6167 C   0  0  0  0  0  0  0  0  0  0  0  0
   10.5399    7.7974    2.5726 H   0  0  0  0  0  0  0  0  0  0  0  0
    9.7100    5.5236    1.9574 H   0  0  0  0  0  0  0  0  0  0  0  0
    8.1219   -8.0379   -1.9729 N   0  0  0  0  0  0  0  0  0  0  0  0
    8.3649   -7.0530   -1.5341 N   0  0  0  0  0  0  0  0  0  0  0  0
   12.6402    8.0305    3.8889 H   0  0  0  0  0  0  0  0  0  0  0  0
   13.8908    5.9981    4.5807 H   0  0  0  0  0  0  0  0  0  0  0  0
   13.0609    3.7451    3.9614 H   0  0  0  0  0  0  0  0  0  0  0  0
   10.7541    3.2945    2.5916 O   0  0  0  0  0  0  0  0  0  0  0  0
   11.5023    2.2405    2.1360 C   0  0  0  0  0  0  0  0  0  0  0  0
   12.6999    2.2592    1.9943 O   0  0  0  0  0  0  0  0  0  0  0  0
   10.5940    1.0722    1.8399 C   0  0  0  0  0  0  0  0  0  0  0  0
   10.0272    0.8003    2.7352 H   0  0  0  0  0  0  0  0  0  0  0  0
    9.8698    1.3475    1.0673 H   0  0  0  0  0  0  0  0  0  0  0  0
   11.1923    0.2259    1.5043 H   0  0  0  0  0  0  0  0  0  0  0  0
  1  6  1  0  0  0  0
  2  1  2  0  0  0  0
  2  3  1  0  0  0  0
  3  4  2  0  0  0  0
  4 13  1  0  0  0  0
  4  5  1  0  0  0  0
  5 12  1  0  0  0  0
  6 11  1  0  0  0  0
  6  5  2  0  0  0  0
  7  1  1  0  0  0  0
  8  2  1  0  0  0  0
  9 10  3  0  0  0  0
 14  3  1  0  0  0  0
 15 14  1  0  0  0  0
 16 15  2  0  0  0  0
 17 15  1  0  0  0  0
 17 18  1  0  0  0  0
 19 17  1  0  0  0  0
 20 17  1  0  0  0  0
M  END
