Coordinates from ORCA-job Ph-N2-OAc-B3LYPG-6-31G_dp-MTMO-d009-169-n800
 OpenBabel09051908423D

 20 19  0  0  0  0  0  0  0  0999 V2000
   11.0957    6.9192    2.8796 C   0  0  0  0  0  0  0  0  0  0  0  0
   10.6258    5.6541    2.5281 C   0  0  0  0  0  0  0  0  0  0  0  0
   11.3399    4.5232    2.9226 C   0  0  0  0  0  0  0  0  0  0  0  0
   12.5149    4.6339    3.6673 C   0  0  0  0  0  0  0  0  0  0  0  0
   12.9747    5.9073    4.0080 C   0  0  0  0  0  0  0  0  0  0  0  0
   12.2732    7.0496    3.6184 C   0  0  0  0  0  0  0  0  0  0  0  0
   10.5404    7.8008    2.5740 H   0  0  0  0  0  0  0  0  0  0  0  0
    9.7111    5.5270    1.9585 H   0  0  0  0  0  0  0  0  0  0  0  0
    8.1115   -8.0703   -1.9852 N   0  0  0  0  0  0  0  0  0  0  0  0
    8.3551   -7.0857   -1.5461 N   0  0  0  0  0  0  0  0  0  0  0  0
   12.6405    8.0342    3.8907 H   0  0  0  0  0  0  0  0  0  0  0  0
   13.8913    6.0021    4.5826 H   0  0  0  0  0  0  0  0  0  0  0  0
   13.0619    3.7489    3.9630 H   0  0  0  0  0  0  0  0  0  0  0  0
   10.7555    3.2980    2.5928 O   0  0  0  0  0  0  0  0  0  0  0  0
   11.5039    2.2442    2.1372 C   0  0  0  0  0  0  0  0  0  0  0  0
   12.7015    2.2631    1.9957 O   0  0  0  0  0  0  0  0  0  0  0  0
   10.5958    1.0757    1.8408 C   0  0  0  0  0  0  0  0  0  0  0  0
   10.0289    0.8037    2.7360 H   0  0  0  0  0  0  0  0  0  0  0  0
    9.8717    1.3510    1.0682 H   0  0  0  0  0  0  0  0  0  0  0  0
   11.1943    0.2296    1.5053 H   0  0  0  0  0  0  0  0  0  0  0  0
  1  6  1  0  0  0  0
  2  1  2  0  0  0  0
  2  3  1  0  0  0  0
  3  4  2  0  0  0  0
  4 13  1  0  0  0  0
  4  5  1  0  0  0  0
  5 12  1  0  0  0  0
  6 11  1  0  0  0  0
  6  5  2  0  0  0  0
  7  1  1  0  0  0  0
  8  2  1  0  0  0  0
  9 10  3  0  0  0  0
 14  3  1  0  0  0  0
 15 14  1  0  0  0  0
 16 15  2  0  0  0  0
 17 15  1  0  0  0  0
 17 18  1  0  0  0  0
 19 17  1  0  0  0  0
 20 17  1  0  0  0  0
M  END
