Coordinates from ORCA-job Ph-N2-OAc-B3LYPG-6-31G_dp-MTMO-d009-169-n800
 OpenBabel09051908423D

 20 18  0  0  0  0  0  0  0  0999 V2000
   13.2253    6.1058    2.3032 C   0  0  0  0  0  0  0  0  0  0  0  0
   12.6910    5.4771    1.1547 C   0  0  0  0  0  0  0  0  0  0  0  0
   12.1157    4.3024    1.5551 C   0  0  0  0  0  0  0  0  0  0  0  0
   11.9626    3.6928    2.6469 C   0  0  0  0  0  0  0  0  0  0  0  0
   12.4882    4.2963    3.8042 C   0  0  0  0  0  0  0  0  0  0  0  0
   13.1254    5.5313    3.5834 C   0  0  0  0  0  0  0  0  0  0  0  0
   13.7245    7.0634    2.1817 H   0  0  0  0  0  0  0  0  0  0  0  0
   12.7479    5.8871    0.1545 H   0  0  0  0  0  0  0  0  0  0  0  0
   11.2522    3.3284   -0.6050 N   0  0  0  0  0  0  0  0  0  0  0  0
   10.7541    2.4029   -0.9485 N   0  0  0  0  0  0  0  0  0  0  0  0
   13.5544    6.0613    4.4296 H   0  0  0  0  0  0  0  0  0  0  0  0
   12.4177    3.8647    4.7982 H   0  0  0  0  0  0  0  0  0  0  0  0
   10.9379    1.9651    2.8911 H   0  0  0  0  0  0  0  0  0  0  0  0
    9.1348    1.6458    1.4601 O   0  0  0  0  0  0  0  0  0  0  0  0
    9.3987    0.9549    2.4226 C   0  0  0  0  0  0  0  0  0  0  0  0
   10.4642    1.1635    3.2196 O   0  0  0  0  0  0  0  0  0  0  0  0
    8.5910   -0.2377    2.8806 C   0  0  0  0  0  0  0  0  0  0  0  0
    7.7399   -0.3793    2.2160 H   0  0  0  0  0  0  0  0  0  0  0  0
    9.2183   -1.1343    2.8834 H   0  0  0  0  0  0  0  0  0  0  0  0
    8.2436   -0.0821    3.9062 H   0  0  0  0  0  0  0  0  0  0  0  0
  1  6  2  0  0  0  0
  2  3  2  0  0  0  0
  2  1  1  0  0  0  0
  3  4  1  0  0  0  0
  4  5  2  0  0  0  0
  5 12  1  0  0  0  0
  6  5  1  0  0  0  0
  6 11  1  0  0  0  0
  7  1  1  0  0  0  0
  8  2  1  0  0  0  0
 10  9  3  0  0  0  0
 13 16  1  0  0  0  0
 14 15  2  0  0  0  0
 15 17  1  0  0  0  0
 15 16  1  0  0  0  0
 17 19  1  0  0  0  0
 17 20  1  0  0  0  0
 18 17  1  0  0  0  0
M  RAD  2   3   2   4   2
M  END
