Coordinates from ORCA-job Ph-N2-OAc-B3LYPG-6-31G_dp-MTMO-d009-169-n800
 OpenBabel09051908423D

 20 19  0  0  0  0  0  0  0  0999 V2000
   11.0992    6.9369    2.8868 C   0  0  0  0  0  0  0  0  0  0  0  0
   10.6305    5.6716    2.5346 C   0  0  0  0  0  0  0  0  0  0  0  0
   11.3451    4.5411    2.9293 C   0  0  0  0  0  0  0  0  0  0  0  0
   12.5194    4.6525    3.6749 C   0  0  0  0  0  0  0  0  0  0  0  0
   12.9781    5.9261    4.0164 C   0  0  0  0  0  0  0  0  0  0  0  0
   12.2760    7.0680    3.6266 C   0  0  0  0  0  0  0  0  0  0  0  0
   10.5435    7.8182    2.5812 H   0  0  0  0  0  0  0  0  0  0  0  0
    9.7163    5.5440    1.9643 H   0  0  0  0  0  0  0  0  0  0  0  0
    8.0607   -8.2324   -2.0466 N   0  0  0  0  0  0  0  0  0  0  0  0
    8.3070   -7.2489   -1.6065 N   0  0  0  0  0  0  0  0  0  0  0  0
   12.6424    8.0528    3.8995 H   0  0  0  0  0  0  0  0  0  0  0  0
   13.8942    6.0213    4.5917 H   0  0  0  0  0  0  0  0  0  0  0  0
   13.0669    3.7678    3.9708 H   0  0  0  0  0  0  0  0  0  0  0  0
   10.7618    3.3156    2.5987 O   0  0  0  0  0  0  0  0  0  0  0  0
   11.5113    2.2624    2.1433 C   0  0  0  0  0  0  0  0  0  0  0  0
   12.7091    2.2823    2.0028 O   0  0  0  0  0  0  0  0  0  0  0  0
   10.6044    1.0934    1.8458 C   0  0  0  0  0  0  0  0  0  0  0  0
   10.0371    0.8206    2.7405 H   0  0  0  0  0  0  0  0  0  0  0  0
    9.8806    1.3685    1.0728 H   0  0  0  0  0  0  0  0  0  0  0  0
   11.2038    0.2479    1.5104 H   0  0  0  0  0  0  0  0  0  0  0  0
  1  6  1  0  0  0  0
  2  1  2  0  0  0  0
  2  3  1  0  0  0  0
  3  4  2  0  0  0  0
  4 13  1  0  0  0  0
  4  5  1  0  0  0  0
  5 12  1  0  0  0  0
  6 11  1  0  0  0  0
  6  5  2  0  0  0  0
  7  1  1  0  0  0  0
  8  2  1  0  0  0  0
  9 10  3  0  0  0  0
 14  3  1  0  0  0  0
 15 14  1  0  0  0  0
 16 15  2  0  0  0  0
 17 15  1  0  0  0  0
 17 18  1  0  0  0  0
 19 17  1  0  0  0  0
 20 17  1  0  0  0  0
M  END
