Coordinates from ORCA-job Ph-N2-OAc-B3LYPG-6-31G_dp-MTMO-d009-169-n800
 OpenBabel09051908423D

 20 19  0  0  0  0  0  0  0  0999 V2000
   11.6329    6.0532    2.6905 C   0  0  0  0  0  0  0  0  0  0  0  0
   10.6132    5.1086    2.5757 C   0  0  0  0  0  0  0  0  0  0  0  0
   10.9219    3.7531    2.6756 C   0  0  0  0  0  0  0  0  0  0  0  0
   12.2311    3.3224    2.8913 C   0  0  0  0  0  0  0  0  0  0  0  0
   13.2414    4.2791    3.0004 C   0  0  0  0  0  0  0  0  0  0  0  0
   12.9503    5.6411    2.9010 C   0  0  0  0  0  0  0  0  0  0  0  0
   11.3950    7.1102    2.6138 H   0  0  0  0  0  0  0  0  0  0  0  0
    9.5820    5.4044    2.4136 H   0  0  0  0  0  0  0  0  0  0  0  0
   13.3961   -0.7167    0.6776 N   0  0  0  0  0  0  0  0  0  0  0  0
   13.5309   -0.1260    1.6017 N   0  0  0  0  0  0  0  0  0  0  0  0
   13.7447    6.3760    2.9889 H   0  0  0  0  0  0  0  0  0  0  0  0
   14.2636    3.9518    3.1666 H   0  0  0  0  0  0  0  0  0  0  0  0
   12.4581    2.2664    2.9635 H   0  0  0  0  0  0  0  0  0  0  0  0
    9.8360    2.8739    2.6315 O   0  0  0  0  0  0  0  0  0  0  0  0
    9.8716    1.7454    1.8559 C   0  0  0  0  0  0  0  0  0  0  0  0
   10.8064    1.4169    1.1673 O   0  0  0  0  0  0  0  0  0  0  0  0
    8.5701    0.9950    1.9991 C   0  0  0  0  0  0  0  0  0  0  0  0
    8.4077    0.7250    3.0465 H   0  0  0  0  0  0  0  0  0  0  0  0
    7.7346    1.6320    1.6945 H   0  0  0  0  0  0  0  0  0  0  0  0
    8.5998    0.0978    1.3826 H   0  0  0  0  0  0  0  0  0  0  0  0
  1  6  2  0  0  0  0
  2  3  2  0  0  0  0
  2  1  1  0  0  0  0
  3  4  1  0  0  0  0
  4 13  1  0  0  0  0
  4  5  2  0  0  0  0
  5 12  1  0  0  0  0
  6 11  1  0  0  0  0
  6  5  1  0  0  0  0
  7  1  1  0  0  0  0
  8  2  1  0  0  0  0
  9 10  3  0  0  0  0
 14  3  1  0  0  0  0
 15 17  1  0  0  0  0
 15 14  1  0  0  0  0
 16 15  2  0  0  0  0
 17 18  1  0  0  0  0
 19 17  1  0  0  0  0
 20 17  1  0  0  0  0
M  END
