Coordinates from ORCA-job Ph-N2-OAc-B3LYPG-6-31G_dp-MTMO-d009-169-n800
 OpenBabel09051908423D

 20 19  0  0  0  0  0  0  0  0999 V2000
   12.4684    5.9764    2.2431 C   0  0  0  0  0  0  0  0  0  0  0  0
   12.0329    5.0704    1.3003 C   0  0  0  0  0  0  0  0  0  0  0  0
   12.0631    3.6377    1.5628 C   0  0  0  0  0  0  0  0  0  0  0  0
   12.5790    3.2367    2.8665 C   0  0  0  0  0  0  0  0  0  0  0  0
   13.0232    4.1854    3.7668 C   0  0  0  0  0  0  0  0  0  0  0  0
   12.9762    5.5521    3.4779 C   0  0  0  0  0  0  0  0  0  0  0  0
   12.4150    7.0356    2.0090 H   0  0  0  0  0  0  0  0  0  0  0  0
   11.6261    5.3838    0.3447 H   0  0  0  0  0  0  0  0  0  0  0  0
   11.7359    2.9545    0.8795 N   0  0  0  0  0  0  0  0  0  0  0  0
   11.2916    2.1673    0.1622 N   0  0  0  0  0  0  0  0  0  0  0  0
   13.3277    6.2785    4.2025 H   0  0  0  0  0  0  0  0  0  0  0  0
   13.4055    3.8437    4.7239 H   0  0  0  0  0  0  0  0  0  0  0  0
   12.5607    2.1752    3.0724 H   0  0  0  0  0  0  0  0  0  0  0  0
    9.4080    1.6569    0.9294 O   0  0  0  0  0  0  0  0  0  0  0  0
    9.6010    1.0778    2.0649 C   0  0  0  0  0  0  0  0  0  0  0  0
   10.6462    1.0781    2.7350 O   0  0  0  0  0  0  0  0  0  0  0  0
    8.3739    0.3024    2.5652 C   0  0  0  0  0  0  0  0  0  0  0  0
    7.4457    0.8040    2.2829 H   0  0  0  0  0  0  0  0  0  0  0  0
    8.3738   -0.6887    2.0998 H   0  0  0  0  0  0  0  0  0  0  0  0
    8.4337    0.1818    3.6486 H   0  0  0  0  0  0  0  0  0  0  0  0
  1  6  2  0  0  0  0
  2  3  2  0  0  0  0
  2  1  1  0  0  0  0
  3  4  1  0  0  0  0
  4 13  1  0  0  0  0
  4  5  2  0  0  0  0
  5 12  1  0  0  0  0
  6  5  1  0  0  0  0
  6 11  1  0  0  0  0
  7  1  1  0  0  0  0
  8  2  1  0  0  0  0
  9  3  1  0  0  0  0
 10  9  1  0  0  0  0
 14 15  2  0  0  0  0
 15 17  1  0  0  0  0
 15 16  1  0  0  0  0
 17 20  1  0  0  0  0
 18 17  1  0  0  0  0
 19 17  1  0  0  0  0
M  RAD  3   9   2  10   3  16   2
M  END
