Coordinates from ORCA-job Ph-N2-OAc-B3LYPG-6-31G_dp-MTMO-d009-169-n800
 OpenBabel09051908423D

 20 18  0  0  0  0  0  0  0  0999 V2000
   13.1859    6.1110    2.2928 C   0  0  0  0  0  0  0  0  0  0  0  0
   12.4872    5.4226    1.2722 C   0  0  0  0  0  0  0  0  0  0  0  0
   12.0058    4.2593    1.8127 C   0  0  0  0  0  0  0  0  0  0  0  0
   12.0499    3.7253    2.9484 C   0  0  0  0  0  0  0  0  0  0  0  0
   12.7347    4.3738    3.9864 C   0  0  0  0  0  0  0  0  0  0  0  0
   13.3033    5.6032    3.5997 C   0  0  0  0  0  0  0  0  0  0  0  0
   13.6448    7.0653    2.0474 H   0  0  0  0  0  0  0  0  0  0  0  0
   12.3807    5.7866    0.2586 H   0  0  0  0  0  0  0  0  0  0  0  0
   11.0235    3.1859   -0.8367 N   0  0  0  0  0  0  0  0  0  0  0  0
   10.8024    2.2464   -1.3745 N   0  0  0  0  0  0  0  0  0  0  0  0
   13.8514    6.1831    4.3379 H   0  0  0  0  0  0  0  0  0  0  0  0
   12.8301    3.9936    4.9986 H   0  0  0  0  0  0  0  0  0  0  0  0
   10.8180    2.0121    3.1330 H   0  0  0  0  0  0  0  0  0  0  0  0
    9.3838    1.5688    1.3640 O   0  0  0  0  0  0  0  0  0  0  0  0
    9.4292    0.9457    2.4043 C   0  0  0  0  0  0  0  0  0  0  0  0
   10.2837    1.2337    3.4067 O   0  0  0  0  0  0  0  0  0  0  0  0
    8.5518   -0.2347    2.7498 C   0  0  0  0  0  0  0  0  0  0  0  0
    7.8954   -0.4598    1.9099 H   0  0  0  0  0  0  0  0  0  0  0  0
    9.1705   -1.1048    2.9878 H   0  0  0  0  0  0  0  0  0  0  0  0
    7.9552   -0.0075    3.6387 H   0  0  0  0  0  0  0  0  0  0  0  0
  1  6  2  0  0  0  0
  2  3  2  0  0  0  0
  2  1  1  0  0  0  0
  3  4  1  0  0  0  0
  4  5  2  0  0  0  0
  5 12  1  0  0  0  0
  6  5  1  0  0  0  0
  6 11  1  0  0  0  0
  7  1  1  0  0  0  0
  8  2  1  0  0  0  0
 10  9  3  0  0  0  0
 13 16  1  0  0  0  0
 14 15  2  0  0  0  0
 15 17  1  0  0  0  0
 15 16  1  0  0  0  0
 17 19  1  0  0  0  0
 17 20  1  0  0  0  0
 18 17  1  0  0  0  0
M  RAD  2   3   2   4   2
M  END
