Coordinates from ORCA-job Ph-N2-OAc-B3LYPG-6-31G_dp-MTMO-d009-169-n800
 OpenBabel09051908423D

 20 19  0  0  0  0  0  0  0  0999 V2000
   11.1404    7.0990    2.9520 C   0  0  0  0  0  0  0  0  0  0  0  0
   10.6750    5.8335    2.5963 C   0  0  0  0  0  0  0  0  0  0  0  0
   11.3906    4.7036    2.9911 C   0  0  0  0  0  0  0  0  0  0  0  0
   12.5627    4.8158    3.7400 C   0  0  0  0  0  0  0  0  0  0  0  0
   13.0181    6.0896    4.0849 C   0  0  0  0  0  0  0  0  0  0  0  0
   12.3150    7.2309    3.6951 C   0  0  0  0  0  0  0  0  0  0  0  0
   10.5840    7.9798    2.6463 H   0  0  0  0  0  0  0  0  0  0  0  0
    9.7626    5.7052    2.0234 H   0  0  0  0  0  0  0  0  0  0  0  0
    7.6386   -9.6981   -2.6021 N   0  0  0  0  0  0  0  0  0  0  0  0
    7.8954   -8.7180   -2.1605 N   0  0  0  0  0  0  0  0  0  0  0  0
   12.6789    8.2159    3.9707 H   0  0  0  0  0  0  0  0  0  0  0  0
   13.9325    6.1855    4.6628 H   0  0  0  0  0  0  0  0  0  0  0  0
   13.1110    3.9316    4.0359 H   0  0  0  0  0  0  0  0  0  0  0  0
   10.8105    3.4775    2.6567 O   0  0  0  0  0  0  0  0  0  0  0  0
   11.5632    2.4267    2.2013 C   0  0  0  0  0  0  0  0  0  0  0  0
   12.7613    2.4490    2.0641 O   0  0  0  0  0  0  0  0  0  0  0  0
   10.6592    1.2565    1.8992 C   0  0  0  0  0  0  0  0  0  0  0  0
   10.0901    0.9808    2.7918 H   0  0  0  0  0  0  0  0  0  0  0  0
    9.9370    1.5318    1.1248 H   0  0  0  0  0  0  0  0  0  0  0  0
   11.2612    0.4129    1.5636 H   0  0  0  0  0  0  0  0  0  0  0  0
  1  6  1  0  0  0  0
  2  1  2  0  0  0  0
  2  3  1  0  0  0  0
  3  4  2  0  0  0  0
  4 13  1  0  0  0  0
  4  5  1  0  0  0  0
  5 12  1  0  0  0  0
  6 11  1  0  0  0  0
  6  5  2  0  0  0  0
  7  1  1  0  0  0  0
  8  2  1  0  0  0  0
  9 10  3  0  0  0  0
 14  3  1  0  0  0  0
 15 14  1  0  0  0  0
 16 15  2  0  0  0  0
 17 15  1  0  0  0  0
 17 18  1  0  0  0  0
 19 17  1  0  0  0  0
 20 17  1  0  0  0  0
M  END
