Coordinates from ORCA-job Ph-N2-OAc-B3LYPG-6-31G_dp-MTMO-d009-169-n800
 OpenBabel09051908423D

 20 19  0  0  0  0  0  0  0  0999 V2000
   11.1385    7.0918    2.9491 C   0  0  0  0  0  0  0  0  0  0  0  0
   10.6730    5.8262    2.5936 C   0  0  0  0  0  0  0  0  0  0  0  0
   11.3886    4.6964    2.9883 C   0  0  0  0  0  0  0  0  0  0  0  0
   12.5608    4.8086    3.7372 C   0  0  0  0  0  0  0  0  0  0  0  0
   13.0162    6.0824    4.0820 C   0  0  0  0  0  0  0  0  0  0  0  0
   12.3131    7.2237    3.6922 C   0  0  0  0  0  0  0  0  0  0  0  0
   10.5820    7.9726    2.6435 H   0  0  0  0  0  0  0  0  0  0  0  0
    9.7605    5.6979    2.0207 H   0  0  0  0  0  0  0  0  0  0  0  0
    7.6569   -9.6329   -2.5773 N   0  0  0  0  0  0  0  0  0  0  0  0
    7.9135   -8.6527   -2.1357 N   0  0  0  0  0  0  0  0  0  0  0  0
   12.6770    8.2087    3.9677 H   0  0  0  0  0  0  0  0  0  0  0  0
   13.9307    6.1783    4.6598 H   0  0  0  0  0  0  0  0  0  0  0  0
   13.1090    3.9244    4.0330 H   0  0  0  0  0  0  0  0  0  0  0  0
   10.8084    3.4703    2.6540 O   0  0  0  0  0  0  0  0  0  0  0  0
   11.5611    2.4194    2.1987 C   0  0  0  0  0  0  0  0  0  0  0  0
   12.7592    2.4417    2.0614 O   0  0  0  0  0  0  0  0  0  0  0  0
   10.6571    1.2493    1.8967 C   0  0  0  0  0  0  0  0  0  0  0  0
   10.0880    0.9736    2.7893 H   0  0  0  0  0  0  0  0  0  0  0  0
    9.9348    1.5245    1.1223 H   0  0  0  0  0  0  0  0  0  0  0  0
   11.2590    0.4055    1.5611 H   0  0  0  0  0  0  0  0  0  0  0  0
  1  6  1  0  0  0  0
  2  1  2  0  0  0  0
  2  3  1  0  0  0  0
  3  4  2  0  0  0  0
  4 13  1  0  0  0  0
  4  5  1  0  0  0  0
  5 12  1  0  0  0  0
  6 11  1  0  0  0  0
  6  5  2  0  0  0  0
  7  1  1  0  0  0  0
  8  2  1  0  0  0  0
  9 10  3  0  0  0  0
 14  3  1  0  0  0  0
 15 14  1  0  0  0  0
 16 15  2  0  0  0  0
 17 15  1  0  0  0  0
 17 18  1  0  0  0  0
 19 17  1  0  0  0  0
 20 17  1  0  0  0  0
M  END
