Coordinates from ORCA-job Ph-N2-OAc-B3LYPG-6-31G_dp-MTMO-d009-169-n800
 OpenBabel09051908423D

 20 20  0  0  0  0  0  0  0  0999 V2000
   12.3746    5.9454    2.2979 C   0  0  0  0  0  0  0  0  0  0  0  0
   12.1354    5.0895    1.2180 C   0  0  0  0  0  0  0  0  0  0  0  0
   12.1005    3.7362    1.4939 C   0  0  0  0  0  0  0  0  0  0  0  0
   12.3344    3.1599    2.7285 C   0  0  0  0  0  0  0  0  0  0  0  0
   12.5845    4.0393    3.7867 C   0  0  0  0  0  0  0  0  0  0  0  0
   12.5993    5.4209    3.5735 C   0  0  0  0  0  0  0  0  0  0  0  0
   12.3949    7.0190    2.1358 H   0  0  0  0  0  0  0  0  0  0  0  0
   11.9754    5.4629    0.2132 H   0  0  0  0  0  0  0  0  0  0  0  0
   11.9172    2.7106    0.1747 N   0  0  0  0  0  0  0  0  0  0  0  0
   11.0774    1.8910    0.0648 N   0  0  0  0  0  0  0  0  0  0  0  0
   12.7949    6.0917    4.4043 H   0  0  0  0  0  0  0  0  0  0  0  0
   12.7693    3.6384    4.7787 H   0  0  0  0  0  0  0  0  0  0  0  0
   12.3080    2.0824    2.8562 H   0  0  0  0  0  0  0  0  0  0  0  0
    9.8725    1.9562    1.2390 O   0  0  0  0  0  0  0  0  0  0  0  0
    9.9562    0.9057    2.0544 C   0  0  0  0  0  0  0  0  0  0  0  0
   10.9524    0.2166    2.1972 O   0  0  0  0  0  0  0  0  0  0  0  0
    8.6529    0.6801    2.8025 C   0  0  0  0  0  0  0  0  0  0  0  0
    8.2436    1.6249    3.1685 H   0  0  0  0  0  0  0  0  0  0  0  0
    7.9172    0.2452    2.1181 H   0  0  0  0  0  0  0  0  0  0  0  0
    8.8268   -0.0064    3.6316 H   0  0  0  0  0  0  0  0  0  0  0  0
  1  6  2  0  0  0  0
  2  3  2  0  0  0  0
  2  1  1  0  0  0  0
  3  4  1  0  0  0  0
  4 13  1  0  0  0  0
  4  5  2  0  0  0  0
  5 12  1  0  0  0  0
  6  5  1  0  0  0  0
  6 11  1  0  0  0  0
  7  1  1  0  0  0  0
  8  2  1  0  0  0  0
  9  3  1  0  0  0  0
 10  9  1  0  0  0  0
 10 14  1  0  0  0  0
 14 15  1  0  0  0  0
 15 16  2  0  0  0  0
 15 17  1  0  0  0  0
 17 18  1  0  0  0  0
 17 20  1  0  0  0  0
 19 17  1  0  0  0  0
M  RAD  2   9   2  10   2
M  END
