Coordinates from ORCA-job Ph-N2-OAc-B3LYPG-6-31G_dp-MTMO-d009-169-n800
 OpenBabel09051908423D

 20 19  0  0  0  0  0  0  0  0999 V2000
   11.2489    6.5173    2.7509 C   0  0  0  0  0  0  0  0  0  0  0  0
   10.5764    5.3329    2.4511 C   0  0  0  0  0  0  0  0  0  0  0  0
   11.1677    4.1101    2.7667 C   0  0  0  0  0  0  0  0  0  0  0  0
   12.4194    4.0499    3.3812 C   0  0  0  0  0  0  0  0  0  0  0  0
   13.0818    5.2440    3.6714 C   0  0  0  0  0  0  0  0  0  0  0  0
   12.5047    6.4765    3.3597 C   0  0  0  0  0  0  0  0  0  0  0  0
   10.7898    7.4706    2.5066 H   0  0  0  0  0  0  0  0  0  0  0  0
    9.5983    5.3393    1.9821 H   0  0  0  0  0  0  0  0  0  0  0  0
   10.2586   -4.1553   -0.4894 N   0  0  0  0  0  0  0  0  0  0  0  0
   10.1710   -3.1628   -0.0111 N   0  0  0  0  0  0  0  0  0  0  0  0
   13.0291    7.3984    3.5915 H   0  0  0  0  0  0  0  0  0  0  0  0
   14.0579    5.2051    4.1453 H   0  0  0  0  0  0  0  0  0  0  0  0
   12.8687    3.0945    3.6163 H   0  0  0  0  0  0  0  0  0  0  0  0
   10.3904    2.9799    2.5018 O   0  0  0  0  0  0  0  0  0  0  0  0
   10.9358    1.8380    1.9741 C   0  0  0  0  0  0  0  0  0  0  0  0
   12.1026    1.6973    1.7026 O   0  0  0  0  0  0  0  0  0  0  0  0
    9.8521    0.8038    1.7898 C   0  0  0  0  0  0  0  0  0  0  0  0
    9.3741    0.5895    2.7502 H   0  0  0  0  0  0  0  0  0  0  0  0
    9.0769    1.1880    1.1201 H   0  0  0  0  0  0  0  0  0  0  0  0
   10.2832   -0.1072    1.3765 H   0  0  0  0  0  0  0  0  0  0  0  0
  1  6  1  0  0  0  0
  2  1  2  0  0  0  0
  2  3  1  0  0  0  0
  3  4  2  0  0  0  0
  4 13  1  0  0  0  0
  4  5  1  0  0  0  0
  5 12  1  0  0  0  0
  6 11  1  0  0  0  0
  6  5  2  0  0  0  0
  7  1  1  0  0  0  0
  8  2  1  0  0  0  0
  9 10  3  0  0  0  0
 14  3  1  0  0  0  0
 15 14  1  0  0  0  0
 16 15  2  0  0  0  0
 17 15  1  0  0  0  0
 17 18  1  0  0  0  0
 19 17  1  0  0  0  0
 20 17  1  0  0  0  0
M  END
