Coordinates from ORCA-job Ph-N2-OAc-B3LYPG-6-31G_dp-MTMO-d009-169-n800
 OpenBabel09051908423D

 20 19  0  0  0  0  0  0  0  0999 V2000
   11.2354    6.5418    2.7691 C   0  0  0  0  0  0  0  0  0  0  0  0
   10.5763    5.3521    2.4611 C   0  0  0  0  0  0  0  0  0  0  0  0
   11.1787    4.1337    2.7735 C   0  0  0  0  0  0  0  0  0  0  0  0
   12.4283    4.0833    3.3930 C   0  0  0  0  0  0  0  0  0  0  0  0
   13.0773    5.2828    3.6914 C   0  0  0  0  0  0  0  0  0  0  0  0
   12.4891    6.5109    3.3829 C   0  0  0  0  0  0  0  0  0  0  0  0
   10.7677    7.4914    2.5273 H   0  0  0  0  0  0  0  0  0  0  0  0
    9.6001    5.3508    1.9882 H   0  0  0  0  0  0  0  0  0  0  0  0
   10.1039   -4.3947   -0.5344 N   0  0  0  0  0  0  0  0  0  0  0  0
   10.0840   -3.3827   -0.0905 N   0  0  0  0  0  0  0  0  0  0  0  0
   13.0032    7.4369    3.6212 H   0  0  0  0  0  0  0  0  0  0  0  0
   14.0518    5.2516    4.1693 H   0  0  0  0  0  0  0  0  0  0  0  0
   12.8864    3.1316    3.6256 H   0  0  0  0  0  0  0  0  0  0  0  0
   10.4134    2.9974    2.4998 O   0  0  0  0  0  0  0  0  0  0  0  0
   10.9721    1.8616    1.9735 C   0  0  0  0  0  0  0  0  0  0  0  0
   12.1420    1.7307    1.7105 O   0  0  0  0  0  0  0  0  0  0  0  0
    9.8981    0.8194    1.7773 C   0  0  0  0  0  0  0  0  0  0  0  0
    9.4079    0.6040    2.7312 H   0  0  0  0  0  0  0  0  0  0  0  0
    9.1300    1.1962    1.0953 H   0  0  0  0  0  0  0  0  0  0  0  0
   10.3419   -0.0892    1.3722 H   0  0  0  0  0  0  0  0  0  0  0  0
  1  6  1  0  0  0  0
  2  1  2  0  0  0  0
  2  3  1  0  0  0  0
  3  4  2  0  0  0  0
  4 13  1  0  0  0  0
  4  5  1  0  0  0  0
  5 12  1  0  0  0  0
  6 11  1  0  0  0  0
  6  5  2  0  0  0  0
  7  1  1  0  0  0  0
  8  2  1  0  0  0  0
  9 10  3  0  0  0  0
 14  3  1  0  0  0  0
 15 14  1  0  0  0  0
 16 15  2  0  0  0  0
 17 15  1  0  0  0  0
 17 18  1  0  0  0  0
 19 17  1  0  0  0  0
 20 17  1  0  0  0  0
M  END
