Coordinates from ORCA-job Ph-N2-OAc-B3LYPG-6-31G_dp-MTMO-d009-169-n800
 OpenBabel09051908423D

 20 19  0  0  0  0  0  0  0  0999 V2000
   11.1070    6.7954    2.8270 C   0  0  0  0  0  0  0  0  0  0  0  0
   10.5989    5.5408    2.4919 C   0  0  0  0  0  0  0  0  0  0  0  0
   11.2939    4.3945    2.8761 C   0  0  0  0  0  0  0  0  0  0  0  0
   12.4874    4.4797    3.5941 C   0  0  0  0  0  0  0  0  0  0  0  0
   12.9855    5.7429    3.9186 C   0  0  0  0  0  0  0  0  0  0  0  0
   12.3034    6.9003    3.5391 C   0  0  0  0  0  0  0  0  0  0  0  0
   10.5667    7.6891    2.5295 H   0  0  0  0  0  0  0  0  0  0  0  0
    9.6690    5.4335    1.9432 H   0  0  0  0  0  0  0  0  0  0  0  0
    8.6305   -6.8793   -1.5319 N   0  0  0  0  0  0  0  0  0  0  0  0
    8.8278   -5.8693   -1.1287 N   0  0  0  0  0  0  0  0  0  0  0  0
   12.7002    7.8769    3.7987 H   0  0  0  0  0  0  0  0  0  0  0  0
   13.9165    5.8177    4.4724 H   0  0  0  0  0  0  0  0  0  0  0  0
   13.0191    3.5829    3.8820 H   0  0  0  0  0  0  0  0  0  0  0  0
   10.6725    3.1826    2.5654 O   0  0  0  0  0  0  0  0  0  0  0  0
   11.3843    2.1079    2.0997 C   0  0  0  0  0  0  0  0  0  0  0  0
   12.5786    2.0962    1.9316 O   0  0  0  0  0  0  0  0  0  0  0  0
   10.4410    0.9610    1.8305 C   0  0  0  0  0  0  0  0  0  0  0  0
    9.8845    0.7110    2.7385 H   0  0  0  0  0  0  0  0  0  0  0  0
    9.7097    1.2488    1.0693 H   0  0  0  0  0  0  0  0  0  0  0  0
   11.0107    0.0970    1.4906 H   0  0  0  0  0  0  0  0  0  0  0  0
  1  6  1  0  0  0  0
  2  1  2  0  0  0  0
  2  3  1  0  0  0  0
  3  4  2  0  0  0  0
  4 13  1  0  0  0  0
  4  5  1  0  0  0  0
  5 12  1  0  0  0  0
  6 11  1  0  0  0  0
  6  5  2  0  0  0  0
  7  1  1  0  0  0  0
  8  2  1  0  0  0  0
  9 10  3  0  0  0  0
 14  3  1  0  0  0  0
 15 14  1  0  0  0  0
 16 15  2  0  0  0  0
 17 15  1  0  0  0  0
 17 18  1  0  0  0  0
 19 17  1  0  0  0  0
 20 17  1  0  0  0  0
M  END
