Coordinates from ORCA-job Ph-N2-OAc-B3LYPG-6-31G_dp-MTMO-d009-169-n800
 OpenBabel09051908423D

 20 18  0  0  0  0  0  0  0  0999 V2000
   13.2255    6.0944    2.2950 C   0  0  0  0  0  0  0  0  0  0  0  0
   12.6982    5.4813    1.1364 C   0  0  0  0  0  0  0  0  0  0  0  0
   12.1089    4.3072    1.5160 C   0  0  0  0  0  0  0  0  0  0  0  0
   11.9328    3.6758    2.5959 C   0  0  0  0  0  0  0  0  0  0  0  0
   12.4559    4.2730    3.7605 C   0  0  0  0  0  0  0  0  0  0  0  0
   13.1058    5.5046    3.5664 C   0  0  0  0  0  0  0  0  0  0  0  0
   13.7329    7.0493    2.1892 H   0  0  0  0  0  0  0  0  0  0  0  0
   12.7675    5.8997    0.1404 H   0  0  0  0  0  0  0  0  0  0  0  0
   11.2910    3.3860   -0.4991 N   0  0  0  0  0  0  0  0  0  0  0  0
   10.7831    2.4713   -0.8582 N   0  0  0  0  0  0  0  0  0  0  0  0
   13.5291    6.0196    4.4247 H   0  0  0  0  0  0  0  0  0  0  0  0
   12.3714    3.8308    4.7491 H   0  0  0  0  0  0  0  0  0  0  0  0
   10.9413    1.9788    2.8741 H   0  0  0  0  0  0  0  0  0  0  0  0
    9.1394    1.6237    1.4439 O   0  0  0  0  0  0  0  0  0  0  0  0
    9.4062    0.9516    2.4196 C   0  0  0  0  0  0  0  0  0  0  0  0
   10.4695    1.1767    3.2124 O   0  0  0  0  0  0  0  0  0  0  0  0
    8.5998   -0.2343    2.8979 C   0  0  0  0  0  0  0  0  0  0  0  0
    7.7513   -0.3914    2.2334 H   0  0  0  0  0  0  0  0  0  0  0  0
    9.2294   -1.1289    2.9208 H   0  0  0  0  0  0  0  0  0  0  0  0
    8.2484   -0.0594    3.9190 H   0  0  0  0  0  0  0  0  0  0  0  0
  1  6  2  0  0  0  0
  2  3  2  0  0  0  0
  2  1  1  0  0  0  0
  3  4  1  0  0  0  0
  4  5  2  0  0  0  0
  5 12  1  0  0  0  0
  6  5  1  0  0  0  0
  6 11  1  0  0  0  0
  7  1  1  0  0  0  0
  8  2  1  0  0  0  0
 10  9  3  0  0  0  0
 13 16  1  0  0  0  0
 14 15  2  0  0  0  0
 15 17  1  0  0  0  0
 15 16  1  0  0  0  0
 17 19  1  0  0  0  0
 17 20  1  0  0  0  0
 18 17  1  0  0  0  0
M  RAD  2   3   2   4   2
M  END
