Coordinates from ORCA-job Ph-N2-OAc-B3LYPG-6-31G_dp-MTMO-d009-169-n800
 OpenBabel09051908423D

 20 19  0  0  0  0  0  0  0  0999 V2000
   11.0954    6.8212    2.8378 C   0  0  0  0  0  0  0  0  0  0  0  0
   10.6033    5.5619    2.4963 C   0  0  0  0  0  0  0  0  0  0  0  0
   11.3062    4.4222    2.8857 C   0  0  0  0  0  0  0  0  0  0  0  0
   12.4919    4.5186    3.6152 C   0  0  0  0  0  0  0  0  0  0  0  0
   12.9739    5.7864    3.9460 C   0  0  0  0  0  0  0  0  0  0  0  0
   12.2838    6.9373    3.5615 C   0  0  0  0  0  0  0  0  0  0  0  0
   10.5489    7.7097    2.5364 H   0  0  0  0  0  0  0  0  0  0  0  0
    9.6798    5.4460    1.9387 H   0  0  0  0  0  0  0  0  0  0  0  0
    8.4791   -7.1435   -1.6327 N   0  0  0  0  0  0  0  0  0  0  0  0
    8.6898   -6.1420   -1.2155 N   0  0  0  0  0  0  0  0  0  0  0  0
   12.6682    7.9175    3.8261 H   0  0  0  0  0  0  0  0  0  0  0  0
   13.8989    5.8699    4.5089 H   0  0  0  0  0  0  0  0  0  0  0  0
   13.0299    3.6269    3.9071 H   0  0  0  0  0  0  0  0  0  0  0  0
   10.7002    3.2044    2.5678 O   0  0  0  0  0  0  0  0  0  0  0  0
   11.4273    2.1386    2.1053 C   0  0  0  0  0  0  0  0  0  0  0  0
   12.6230    2.1405    1.9463 O   0  0  0  0  0  0  0  0  0  0  0  0
   10.4989    0.9819    1.8267 C   0  0  0  0  0  0  0  0  0  0  0  0
    9.9396    0.7229    2.7305 H   0  0  0  0  0  0  0  0  0  0  0  0
    9.7691    1.2638    1.0619 H   0  0  0  0  0  0  0  0  0  0  0  0
   11.0805    0.1254    1.4879 H   0  0  0  0  0  0  0  0  0  0  0  0
  1  6  1  0  0  0  0
  2  1  2  0  0  0  0
  2  3  1  0  0  0  0
  3  4  2  0  0  0  0
  4 13  1  0  0  0  0
  4  5  1  0  0  0  0
  5 12  1  0  0  0  0
  6 11  1  0  0  0  0
  6  5  2  0  0  0  0
  7  1  1  0  0  0  0
  8  2  1  0  0  0  0
  9 10  3  0  0  0  0
 14  3  1  0  0  0  0
 15 14  1  0  0  0  0
 16 15  2  0  0  0  0
 17 15  1  0  0  0  0
 17 18  1  0  0  0  0
 19 17  1  0  0  0  0
 20 17  1  0  0  0  0
M  END
