Coordinates from ORCA-job Ph-N2-OAc-B3LYPG-6-31G_dp-MTMO-d009-169-n800
 OpenBabel09051908423D

 20 20  0  0  0  0  0  0  0  0999 V2000
   12.4215    5.9592    2.2718 C   0  0  0  0  0  0  0  0  0  0  0  0
   12.1658    5.0971    1.2037 C   0  0  0  0  0  0  0  0  0  0  0  0
   12.0765    3.7390    1.4755 C   0  0  0  0  0  0  0  0  0  0  0  0
   12.2857    3.1871    2.7335 C   0  0  0  0  0  0  0  0  0  0  0  0
   12.5604    4.0668    3.7820 C   0  0  0  0  0  0  0  0  0  0  0  0
   12.6197    5.4450    3.5557 C   0  0  0  0  0  0  0  0  0  0  0  0
   12.4788    7.0292    2.0959 H   0  0  0  0  0  0  0  0  0  0  0  0
   12.0291    5.4659    0.1932 H   0  0  0  0  0  0  0  0  0  0  0  0
   11.8798    2.7891    0.2527 N   0  0  0  0  0  0  0  0  0  0  0  0
   11.0577    1.9424    0.1340 N   0  0  0  0  0  0  0  0  0  0  0  0
   12.8316    6.1188    4.3802 H   0  0  0  0  0  0  0  0  0  0  0  0
   12.7294    3.6707    4.7787 H   0  0  0  0  0  0  0  0  0  0  0  0
   12.2375    2.1128    2.8776 H   0  0  0  0  0  0  0  0  0  0  0  0
    9.8927    1.9657    1.3065 O   0  0  0  0  0  0  0  0  0  0  0  0
    9.9559    0.8630    2.0599 C   0  0  0  0  0  0  0  0  0  0  0  0
   10.9406    0.1527    2.1567 O   0  0  0  0  0  0  0  0  0  0  0  0
    8.6498    0.6216    2.7944 C   0  0  0  0  0  0  0  0  0  0  0  0
    8.2732    1.5486    3.2345 H   0  0  0  0  0  0  0  0  0  0  0  0
    7.8970    0.2663    2.0833 H   0  0  0  0  0  0  0  0  0  0  0  0
    8.8046   -0.1314    3.5676 H   0  0  0  0  0  0  0  0  0  0  0  0
  1  6  2  0  0  0  0
  2  3  2  0  0  0  0
  2  1  1  0  0  0  0
  3  4  1  0  0  0  0
  4 13  1  0  0  0  0
  4  5  2  0  0  0  0
  5 12  1  0  0  0  0
  6  5  1  0  0  0  0
  6 11  1  0  0  0  0
  7  1  1  0  0  0  0
  8  2  1  0  0  0  0
  9  3  1  0  0  0  0
 10  9  1  0  0  0  0
 10 14  1  0  0  0  0
 14 15  1  0  0  0  0
 15 16  2  0  0  0  0
 15 17  1  0  0  0  0
 17 18  1  0  0  0  0
 17 20  1  0  0  0  0
 19 17  1  0  0  0  0
M  RAD  2   9   2  10   2
M  END
