Coordinates from ORCA-job Ph-N2-OAc-B3LYPG-6-31G_dp-MTMO-d009-169-n800
 OpenBabel09051908423D

 20 19  0  0  0  0  0  0  0  0999 V2000
   11.2346    6.5435    2.7702 C   0  0  0  0  0  0  0  0  0  0  0  0
   10.5763    5.3534    2.4617 C   0  0  0  0  0  0  0  0  0  0  0  0
   11.1794    4.1354    2.7740 C   0  0  0  0  0  0  0  0  0  0  0  0
   12.4288    4.0857    3.3939 C   0  0  0  0  0  0  0  0  0  0  0  0
   13.0769    5.2855    3.6929 C   0  0  0  0  0  0  0  0  0  0  0  0
   12.4881    6.5133    3.3844 C   0  0  0  0  0  0  0  0  0  0  0  0
   10.7663    7.4929    2.5284 H   0  0  0  0  0  0  0  0  0  0  0  0
    9.6003    5.3516    1.9885 H   0  0  0  0  0  0  0  0  0  0  0  0
   10.0937   -4.4116   -0.5383 N   0  0  0  0  0  0  0  0  0  0  0  0
   10.0773   -3.3987   -0.0963 N   0  0  0  0  0  0  0  0  0  0  0  0
   13.0015    7.4396    3.6231 H   0  0  0  0  0  0  0  0  0  0  0  0
   14.0513    5.2548    4.1710 H   0  0  0  0  0  0  0  0  0  0  0  0
   12.8875    3.1343    3.6266 H   0  0  0  0  0  0  0  0  0  0  0  0
   10.4149    2.9987    2.4999 O   0  0  0  0  0  0  0  0  0  0  0  0
   10.9746    1.8633    1.9735 C   0  0  0  0  0  0  0  0  0  0  0  0
   12.1447    1.7333    1.7110 O   0  0  0  0  0  0  0  0  0  0  0  0
    9.9013    0.8205    1.7767 C   0  0  0  0  0  0  0  0  0  0  0  0
    9.4105    0.6049    2.7302 H   0  0  0  0  0  0  0  0  0  0  0  0
    9.1335    1.1968    1.0940 H   0  0  0  0  0  0  0  0  0  0  0  0
   10.3459   -0.0878    1.3720 H   0  0  0  0  0  0  0  0  0  0  0  0
  1  6  1  0  0  0  0
  2  1  2  0  0  0  0
  2  3  1  0  0  0  0
  3  4  2  0  0  0  0
  4 13  1  0  0  0  0
  4  5  1  0  0  0  0
  5 12  1  0  0  0  0
  6 11  1  0  0  0  0
  6  5  2  0  0  0  0
  7  1  1  0  0  0  0
  8  2  1  0  0  0  0
  9 10  3  0  0  0  0
 14  3  1  0  0  0  0
 15 14  1  0  0  0  0
 16 15  2  0  0  0  0
 17 15  1  0  0  0  0
 17 18  1  0  0  0  0
 19 17  1  0  0  0  0
 20 17  1  0  0  0  0
M  END
