Coordinates from ORCA-job Ph-N2-OAc-B3LYPG-6-31G_dp-MTMO-d009-169-n800
 OpenBabel09051908423D

 20 19  0  0  0  0  0  0  0  0999 V2000
   11.1301    6.7585    2.8158 C   0  0  0  0  0  0  0  0  0  0  0  0
   10.5943    5.5134    2.4884 C   0  0  0  0  0  0  0  0  0  0  0  0
   11.2746    4.3546    2.8614 C   0  0  0  0  0  0  0  0  0  0  0  0
   12.4806    4.4181    3.5606 C   0  0  0  0  0  0  0  0  0  0  0  0
   13.0062    5.6720    3.8776 C   0  0  0  0  0  0  0  0  0  0  0  0
   12.3391    6.8417    3.5091 C   0  0  0  0  0  0  0  0  0  0  0  0
   10.6013    7.6619    2.5270 H   0  0  0  0  0  0  0  0  0  0  0  0
    9.6543    5.4231    1.9543 H   0  0  0  0  0  0  0  0  0  0  0  0
    8.8796   -6.4973   -1.3767 N   0  0  0  0  0  0  0  0  0  0  0  0
    9.0469   -5.4762   -0.9882 N   0  0  0  0  0  0  0  0  0  0  0  0
   12.7573    7.8109    3.7627 H   0  0  0  0  0  0  0  0  0  0  0  0
   13.9470    5.7298    4.4169 H   0  0  0  0  0  0  0  0  0  0  0  0
   13.0006    3.5118    3.8400 H   0  0  0  0  0  0  0  0  0  0  0  0
   10.6266    3.1543    2.5602 O   0  0  0  0  0  0  0  0  0  0  0  0
   11.3113    2.0661    2.0855 C   0  0  0  0  0  0  0  0  0  0  0  0
   12.5027    2.0318    1.9001 O   0  0  0  0  0  0  0  0  0  0  0  0
   10.3428    0.9369    1.8313 C   0  0  0  0  0  0  0  0  0  0  0  0
    9.7938    0.6994    2.7471 H   0  0  0  0  0  0  0  0  0  0  0  0
    9.6071    1.2372    1.0791 H   0  0  0  0  0  0  0  0  0  0  0  0
   10.8911    0.0615    1.4855 H   0  0  0  0  0  0  0  0  0  0  0  0
  1  6  1  0  0  0  0
  2  1  2  0  0  0  0
  2  3  1  0  0  0  0
  3  4  2  0  0  0  0
  4 13  1  0  0  0  0
  4  5  1  0  0  0  0
  5 12  1  0  0  0  0
  6 11  1  0  0  0  0
  6  5  2  0  0  0  0
  7  1  1  0  0  0  0
  8  2  1  0  0  0  0
  9 10  3  0  0  0  0
 14  3  1  0  0  0  0
 15 14  1  0  0  0  0
 16 15  2  0  0  0  0
 17 15  1  0  0  0  0
 17 18  1  0  0  0  0
 19 17  1  0  0  0  0
 20 17  1  0  0  0  0
M  END
