Coordinates from ORCA-job Ph-N2-OAc-B3LYPG-6-31G_dp-MTMO-d009-169-n800
 OpenBabel09051908423D

 20 19  0  0  0  0  0  0  0  0999 V2000
   11.2268    6.5661    2.7801 C   0  0  0  0  0  0  0  0  0  0  0  0
   10.5780    5.3718    2.4679 C   0  0  0  0  0  0  0  0  0  0  0  0
   11.1877    4.1576    2.7823 C   0  0  0  0  0  0  0  0  0  0  0  0
   12.4345    4.1160    3.4081 C   0  0  0  0  0  0  0  0  0  0  0  0
   13.0731    5.3199    3.7108 C   0  0  0  0  0  0  0  0  0  0  0  0
   12.4775    6.5439    3.4003 C   0  0  0  0  0  0  0  0  0  0  0  0
   10.7533    7.5124    2.5367 H   0  0  0  0  0  0  0  0  0  0  0  0
    9.6042    5.3637    1.9900 H   0  0  0  0  0  0  0  0  0  0  0  0
    9.9784   -4.6261   -0.6026 N   0  0  0  0  0  0  0  0  0  0  0  0
    9.9948   -3.6061   -0.1774 N   0  0  0  0  0  0  0  0  0  0  0  0
   12.9835    7.4734    3.6419 H   0  0  0  0  0  0  0  0  0  0  0  0
   14.0454    5.2955    4.1935 H   0  0  0  0  0  0  0  0  0  0  0  0
   12.8984    3.1675    3.6424 H   0  0  0  0  0  0  0  0  0  0  0  0
   10.4323    3.0160    2.5039 O   0  0  0  0  0  0  0  0  0  0  0  0
   11.0023    1.8855    1.9782 C   0  0  0  0  0  0  0  0  0  0  0  0
   12.1744    1.7642    1.7204 O   0  0  0  0  0  0  0  0  0  0  0  0
    9.9375    0.8354    1.7750 C   0  0  0  0  0  0  0  0  0  0  0  0
    9.4432    0.6153    2.7257 H   0  0  0  0  0  0  0  0  0  0  0  0
    9.1708    1.2066    1.0883 H   0  0  0  0  0  0  0  0  0  0  0  0
   10.3913   -0.0690    1.3719 H   0  0  0  0  0  0  0  0  0  0  0  0
  1  6  1  0  0  0  0
  2  1  2  0  0  0  0
  2  3  1  0  0  0  0
  3  4  2  0  0  0  0
  4 13  1  0  0  0  0
  4  5  1  0  0  0  0
  5 12  1  0  0  0  0
  6 11  1  0  0  0  0
  6  5  2  0  0  0  0
  7  1  1  0  0  0  0
  8  2  1  0  0  0  0
  9 10  3  0  0  0  0
 14  3  1  0  0  0  0
 15 14  1  0  0  0  0
 16 15  2  0  0  0  0
 17 15  1  0  0  0  0
 17 18  1  0  0  0  0
 19 17  1  0  0  0  0
 20 17  1  0  0  0  0
M  END
