Coordinates from ORCA-job Ph-N2-OAc-B3LYPG-6-31G_dp-MTMO-d009-169-n800
 OpenBabel09051908423D

 20 19  0  0  0  0  0  0  0  0999 V2000
   11.1800    6.7186    2.8232 C   0  0  0  0  0  0  0  0  0  0  0  0
   10.5944    5.4953    2.4987 C   0  0  0  0  0  0  0  0  0  0  0  0
   11.2457    4.3108    2.8417 C   0  0  0  0  0  0  0  0  0  0  0  0
   12.4718    4.3273    3.5081 C   0  0  0  0  0  0  0  0  0  0  0  0
   13.0472    5.5598    3.8226 C   0  0  0  0  0  0  0  0  0  0  0  0
   12.4095    6.7546    3.4838 C   0  0  0  0  0  0  0  0  0  0  0  0
   10.6740    7.6419    2.5577 H   0  0  0  0  0  0  0  0  0  0  0  0
    9.6379    5.4418    1.9898 H   0  0  0  0  0  0  0  0  0  0  0  0
    9.2827   -6.0667   -1.1565 N   0  0  0  0  0  0  0  0  0  0  0  0
    9.3787   -5.0353   -0.7711 N   0  0  0  0  0  0  0  0  0  0  0  0
   12.8664    7.7068    3.7351 H   0  0  0  0  0  0  0  0  0  0  0  0
   14.0034    5.5807    4.3366 H   0  0  0  0  0  0  0  0  0  0  0  0
   12.9687    3.4014    3.7644 H   0  0  0  0  0  0  0  0  0  0  0  0
   10.5500    3.1359    2.5469 O   0  0  0  0  0  0  0  0  0  0  0  0
   11.1850    2.0289    2.0473 C   0  0  0  0  0  0  0  0  0  0  0  0
   12.3693    1.9558    1.8307 O   0  0  0  0  0  0  0  0  0  0  0  0
   10.1726    0.9347    1.8114 C   0  0  0  0  0  0  0  0  0  0  0  0
    9.6448    0.7048    2.7414 H   0  0  0  0  0  0  0  0  0  0  0  0
    9.4242    1.2669    1.0857 H   0  0  0  0  0  0  0  0  0  0  0  0
   10.6811    0.0458    1.4400 H   0  0  0  0  0  0  0  0  0  0  0  0
  1  6  1  0  0  0  0
  2  1  2  0  0  0  0
  2  3  1  0  0  0  0
  3  4  2  0  0  0  0
  4 13  1  0  0  0  0
  4  5  1  0  0  0  0
  5 12  1  0  0  0  0
  6 11  1  0  0  0  0
  6  5  2  0  0  0  0
  7  1  1  0  0  0  0
  8  2  1  0  0  0  0
  9 10  3  0  0  0  0
 14  3  1  0  0  0  0
 15 14  1  0  0  0  0
 16 15  2  0  0  0  0
 17 15  1  0  0  0  0
 17 18  1  0  0  0  0
 19 17  1  0  0  0  0
 20 17  1  0  0  0  0
M  END
