Coordinates from ORCA-job Ph-N2-OAc-B3LYPG-6-31G_dp-MTMO-d009-169-n800
 OpenBabel09051908423D

 20 19  0  0  0  0  0  0  0  0999 V2000
   12.6363    6.0300    2.2893 C   0  0  0  0  0  0  0  0  0  0  0  0
   12.3334    5.2210    1.1838 C   0  0  0  0  0  0  0  0  0  0  0  0
   12.1140    3.9070    1.5048 C   0  0  0  0  0  0  0  0  0  0  0  0
   12.1874    3.2591    2.7016 C   0  0  0  0  0  0  0  0  0  0  0  0
   12.5017    4.1075    3.7769 C   0  0  0  0  0  0  0  0  0  0  0  0
   12.7200    5.4726    3.5695 C   0  0  0  0  0  0  0  0  0  0  0  0
   12.8120    7.0906    2.1369 H   0  0  0  0  0  0  0  0  0  0  0  0
   12.2697    5.6027    0.1726 H   0  0  0  0  0  0  0  0  0  0  0  0
   11.7829    2.7779    0.0369 N   0  0  0  0  0  0  0  0  0  0  0  0
   10.9958    1.9524   -0.0635 N   0  0  0  0  0  0  0  0  0  0  0  0
   12.9645    6.1098    4.4135 H   0  0  0  0  0  0  0  0  0  0  0  0
   12.5756    3.6843    4.7744 H   0  0  0  0  0  0  0  0  0  0  0  0
   11.9896    2.1865    2.7958 H   0  0  0  0  0  0  0  0  0  0  0  0
    9.6081    1.8883    1.2961 O   0  0  0  0  0  0  0  0  0  0  0  0
    9.8589    0.9546    2.1623 C   0  0  0  0  0  0  0  0  0  0  0  0
   10.9776    0.5205    2.4621 O   0  0  0  0  0  0  0  0  0  0  0  0
    8.5964    0.3951    2.8226 C   0  0  0  0  0  0  0  0  0  0  0  0
    7.8752    1.1893    3.0280 H   0  0  0  0  0  0  0  0  0  0  0  0
    8.1242   -0.3118    2.1320 H   0  0  0  0  0  0  0  0  0  0  0  0
    8.8640   -0.1277    3.7418 H   0  0  0  0  0  0  0  0  0  0  0  0
  1  6  2  0  0  0  0
  2  3  2  0  0  0  0
  2  1  1  0  0  0  0
  3  4  1  0  0  0  0
  4 13  1  0  0  0  0
  4  5  2  0  0  0  0
  5 12  1  0  0  0  0
  6  5  1  0  0  0  0
  6 11  1  0  0  0  0
  7  1  1  0  0  0  0
  8  2  1  0  0  0  0
  9  3  1  0  0  0  0
 10  9  2  0  0  0  0
 14 15  2  0  0  0  0
 15 16  1  0  0  0  0
 15 17  1  0  0  0  0
 17 18  1  0  0  0  0
 17 20  1  0  0  0  0
 19 17  1  0  0  0  0
M  RAD  2  10   2  16   2
M  END
