Coordinates from ORCA-job Ph-N2-OAc-B3LYPG-6-31G_dp-MTMO-d009-169-n800
 OpenBabel09051908423D

 20 18  0  0  0  0  0  0  0  0999 V2000
   13.2305    6.0567    2.2655 C   0  0  0  0  0  0  0  0  0  0  0  0
   12.7133    5.4491    1.1082 C   0  0  0  0  0  0  0  0  0  0  0  0
   12.0834    4.2809    1.4517 C   0  0  0  0  0  0  0  0  0  0  0  0
   11.8583    3.6164    2.5275 C   0  0  0  0  0  0  0  0  0  0  0  0
   12.3882    4.2427    3.6823 C   0  0  0  0  0  0  0  0  0  0  0  0
   13.0679    5.4591    3.5277 C   0  0  0  0  0  0  0  0  0  0  0  0
   13.7579    7.0014    2.1718 H   0  0  0  0  0  0  0  0  0  0  0  0
   12.8075    5.8620    0.1113 H   0  0  0  0  0  0  0  0  0  0  0  0
   11.3610    3.4778   -0.2093 N   0  0  0  0  0  0  0  0  0  0  0  0
   10.7192    2.6799   -0.6344 N   0  0  0  0  0  0  0  0  0  0  0  0
   13.4813    5.9545    4.4022 H   0  0  0  0  0  0  0  0  0  0  0  0
   12.2769    3.8001    4.6694 H   0  0  0  0  0  0  0  0  0  0  0  0
   10.9569    2.0382    2.8578 H   0  0  0  0  0  0  0  0  0  0  0  0
    9.1934    1.5673    1.3799 O   0  0  0  0  0  0  0  0  0  0  0  0
    9.4487    0.9496    2.3984 C   0  0  0  0  0  0  0  0  0  0  0  0
   10.4800    1.2227    3.2033 O   0  0  0  0  0  0  0  0  0  0  0  0
    8.6348   -0.2214    2.9051 C   0  0  0  0  0  0  0  0  0  0  0  0
    7.8136   -0.4231    2.2183 H   0  0  0  0  0  0  0  0  0  0  0  0
    9.2720   -1.1059    2.9988 H   0  0  0  0  0  0  0  0  0  0  0  0
    8.2428    0.0014    3.9018 H   0  0  0  0  0  0  0  0  0  0  0  0
  1  6  2  0  0  0  0
  2  3  2  0  0  0  0
  2  1  1  0  0  0  0
  3  4  1  0  0  0  0
  4  5  2  0  0  0  0
  5 12  1  0  0  0  0
  6  5  1  0  0  0  0
  6 11  1  0  0  0  0
  7  1  1  0  0  0  0
  8  2  1  0  0  0  0
 10  9  3  0  0  0  0
 13 16  1  0  0  0  0
 14 15  2  0  0  0  0
 15 17  1  0  0  0  0
 15 16  1  0  0  0  0
 17 19  1  0  0  0  0
 17 20  1  0  0  0  0
 18 17  1  0  0  0  0
M  RAD  2   3   2   4   2
M  END
