Coordinates from ORCA-job Ph-N2-OAc-B3LYPG-6-31G_dp-MTMO-d009-169-n800
 OpenBabel09051908423D

 20 19  0  0  0  0  0  0  0  0999 V2000
   11.1902    6.7014    2.8230 C   0  0  0  0  0  0  0  0  0  0  0  0
   10.5931    5.4837    2.4986 C   0  0  0  0  0  0  0  0  0  0  0  0
   11.2373    4.2932    2.8339 C   0  0  0  0  0  0  0  0  0  0  0  0
   12.4677    4.2982    3.4927 C   0  0  0  0  0  0  0  0  0  0  0  0
   13.0545    5.5252    3.8072 C   0  0  0  0  0  0  0  0  0  0  0  0
   12.4240    6.7260    3.4760 C   0  0  0  0  0  0  0  0  0  0  0  0
   10.6897    7.6294    2.5634 H   0  0  0  0  0  0  0  0  0  0  0  0
    9.6330    5.4392    1.9955 H   0  0  0  0  0  0  0  0  0  0  0  0
    9.3903   -5.8993   -1.0786 N   0  0  0  0  0  0  0  0  0  0  0  0
    9.4707   -4.8677   -0.6902 N   0  0  0  0  0  0  0  0  0  0  0  0
   12.8898    7.6739    3.7272 H   0  0  0  0  0  0  0  0  0  0  0  0
   14.0140    5.5372    4.3153 H   0  0  0  0  0  0  0  0  0  0  0  0
   12.9589    3.3677    3.7430 H   0  0  0  0  0  0  0  0  0  0  0  0
   10.5307    3.1246    2.5399 O   0  0  0  0  0  0  0  0  0  0  0  0
   11.1541    2.0138    2.0343 C   0  0  0  0  0  0  0  0  0  0  0  0
   12.3366    1.9318    1.8109 O   0  0  0  0  0  0  0  0  0  0  0  0
   10.1319    0.9279    1.8022 C   0  0  0  0  0  0  0  0  0  0  0  0
    9.6104    0.6979    2.7358 H   0  0  0  0  0  0  0  0  0  0  0  0
    9.3797    1.2685    1.0844 H   0  0  0  0  0  0  0  0  0  0  0  0
   10.6307    0.0369    1.4230 H   0  0  0  0  0  0  0  0  0  0  0  0
  1  6  1  0  0  0  0
  2  1  2  0  0  0  0
  2  3  1  0  0  0  0
  3  4  2  0  0  0  0
  4 13  1  0  0  0  0
  4  5  1  0  0  0  0
  5 12  1  0  0  0  0
  6 11  1  0  0  0  0
  6  5  2  0  0  0  0
  7  1  1  0  0  0  0
  8  2  1  0  0  0  0
  9 10  3  0  0  0  0
 14  3  1  0  0  0  0
 15 14  1  0  0  0  0
 16 15  2  0  0  0  0
 17 15  1  0  0  0  0
 17 18  1  0  0  0  0
 19 17  1  0  0  0  0
 20 17  1  0  0  0  0
M  END
