Coordinates from ORCA-job Ph-N2-OAc-B3LYPG-6-31G_dp-MTMO-d009-169-n800
 OpenBabel09051908423D

 20 19  0  0  0  0  0  0  0  0999 V2000
   11.1492    7.1315    2.9649 C   0  0  0  0  0  0  0  0  0  0  0  0
   10.6840    5.8661    2.6088 C   0  0  0  0  0  0  0  0  0  0  0  0
   11.3997    4.7362    3.0035 C   0  0  0  0  0  0  0  0  0  0  0  0
   12.5715    4.8483    3.7528 C   0  0  0  0  0  0  0  0  0  0  0  0
   13.0267    6.1221    4.0981 C   0  0  0  0  0  0  0  0  0  0  0  0
   12.3236    7.2634    3.7084 C   0  0  0  0  0  0  0  0  0  0  0  0
   10.5928    8.0124    2.6593 H   0  0  0  0  0  0  0  0  0  0  0  0
    9.7718    5.7378    2.0355 H   0  0  0  0  0  0  0  0  0  0  0  0
    7.5562   -9.9916   -2.7135 N   0  0  0  0  0  0  0  0  0  0  0  0
    7.8141   -9.0115   -2.2723 N   0  0  0  0  0  0  0  0  0  0  0  0
   12.6873    8.2484    3.9843 H   0  0  0  0  0  0  0  0  0  0  0  0
   13.9409    6.2180    4.6764 H   0  0  0  0  0  0  0  0  0  0  0  0
   13.1198    3.9641    4.0486 H   0  0  0  0  0  0  0  0  0  0  0  0
   10.8198    3.5101    2.6686 O   0  0  0  0  0  0  0  0  0  0  0  0
   11.5727    2.4595    2.2133 C   0  0  0  0  0  0  0  0  0  0  0  0
   12.7709    2.4819    2.0764 O   0  0  0  0  0  0  0  0  0  0  0  0
   10.6690    1.2893    1.9105 C   0  0  0  0  0  0  0  0  0  0  0  0
   10.0996    1.0133    2.8029 H   0  0  0  0  0  0  0  0  0  0  0  0
    9.9469    1.5647    1.1360 H   0  0  0  0  0  0  0  0  0  0  0  0
   11.2711    0.4458    1.5749 H   0  0  0  0  0  0  0  0  0  0  0  0
  1  6  1  0  0  0  0
  2  1  2  0  0  0  0
  2  3  1  0  0  0  0
  3  4  2  0  0  0  0
  4 13  1  0  0  0  0
  4  5  1  0  0  0  0
  5 12  1  0  0  0  0
  6 11  1  0  0  0  0
  6  5  2  0  0  0  0
  7  1  1  0  0  0  0
  8  2  1  0  0  0  0
  9 10  3  0  0  0  0
 14  3  1  0  0  0  0
 15 14  1  0  0  0  0
 16 15  2  0  0  0  0
 17 15  1  0  0  0  0
 17 18  1  0  0  0  0
 19 17  1  0  0  0  0
 20 17  1  0  0  0  0
M  END
