Coordinates from ORCA-job Ph-N2-OAc-B3LYPG-6-31G_dp-MTMO-d009-169-n800
 OpenBabel09051908423D

 20 19  0  0  0  0  0  0  0  0999 V2000
   11.1327    7.0701    2.9405 C   0  0  0  0  0  0  0  0  0  0  0  0
   10.6669    5.8045    2.5853 C   0  0  0  0  0  0  0  0  0  0  0  0
   11.3826    4.6746    2.9800 C   0  0  0  0  0  0  0  0  0  0  0  0
   12.5549    4.7869    3.7286 C   0  0  0  0  0  0  0  0  0  0  0  0
   13.0105    6.0607    4.0731 C   0  0  0  0  0  0  0  0  0  0  0  0
   12.3075    7.2021    3.6833 C   0  0  0  0  0  0  0  0  0  0  0  0
   10.5762    7.9509    2.6348 H   0  0  0  0  0  0  0  0  0  0  0  0
    9.7544    5.6762    2.0126 H   0  0  0  0  0  0  0  0  0  0  0  0
    7.7120   -9.4373   -2.5031 N   0  0  0  0  0  0  0  0  0  0  0  0
    7.9677   -8.4569   -2.0614 N   0  0  0  0  0  0  0  0  0  0  0  0
   12.6715    8.1871    3.9585 H   0  0  0  0  0  0  0  0  0  0  0  0
   13.9251    6.1567    4.6508 H   0  0  0  0  0  0  0  0  0  0  0  0
   13.1032    3.9027    4.0245 H   0  0  0  0  0  0  0  0  0  0  0  0
   10.8022    3.4486    2.6461 O   0  0  0  0  0  0  0  0  0  0  0  0
   11.5547    2.3975    2.1908 C   0  0  0  0  0  0  0  0  0  0  0  0
   12.7528    2.4197    2.0532 O   0  0  0  0  0  0  0  0  0  0  0  0
   10.6505    1.2274    1.8892 C   0  0  0  0  0  0  0  0  0  0  0  0
   10.0816    0.9520    2.7820 H   0  0  0  0  0  0  0  0  0  0  0  0
    9.9281    1.5026    1.1149 H   0  0  0  0  0  0  0  0  0  0  0  0
   11.2523    0.3836    1.5536 H   0  0  0  0  0  0  0  0  0  0  0  0
  1  6  1  0  0  0  0
  2  1  2  0  0  0  0
  2  3  1  0  0  0  0
  3  4  2  0  0  0  0
  4 13  1  0  0  0  0
  4  5  1  0  0  0  0
  5 12  1  0  0  0  0
  6 11  1  0  0  0  0
  6  5  2  0  0  0  0
  7  1  1  0  0  0  0
  8  2  1  0  0  0  0
  9 10  3  0  0  0  0
 14  3  1  0  0  0  0
 15 14  1  0  0  0  0
 16 15  2  0  0  0  0
 17 15  1  0  0  0  0
 17 18  1  0  0  0  0
 19 17  1  0  0  0  0
 20 17  1  0  0  0  0
M  END
