Coordinates from ORCA-job Ph-N2-OAc-B3LYPG-6-31G_dp-MTMO-d009-169-n800
 OpenBabel09051908423D

 20 18  0  0  0  0  0  0  0  0999 V2000
   13.1877    6.1111    2.2939 C   0  0  0  0  0  0  0  0  0  0  0  0
   12.4870    5.4212    1.2757 C   0  0  0  0  0  0  0  0  0  0  0  0
   12.0050    4.2593    1.8193 C   0  0  0  0  0  0  0  0  0  0  0  0
   12.0511    3.7287    2.9564 C   0  0  0  0  0  0  0  0  0  0  0  0
   12.7377    4.3781    3.9923 C   0  0  0  0  0  0  0  0  0  0  0  0
   13.3067    5.6062    3.6017 C   0  0  0  0  0  0  0  0  0  0  0  0
   13.6470    7.0645    2.0458 H   0  0  0  0  0  0  0  0  0  0  0  0
   12.3793    5.7833    0.2616 H   0  0  0  0  0  0  0  0  0  0  0  0
   11.0146    3.1806   -0.8478 N   0  0  0  0  0  0  0  0  0  0  0  0
   10.7933    2.2423   -1.3876 N   0  0  0  0  0  0  0  0  0  0  0  0
   13.8564    6.1873    4.3378 H   0  0  0  0  0  0  0  0  0  0  0  0
   12.8343    4.0000    5.0051 H   0  0  0  0  0  0  0  0  0  0  0  0
   10.8163    2.0123    3.1336 H   0  0  0  0  0  0  0  0  0  0  0  0
    9.3869    1.5662    1.3616 O   0  0  0  0  0  0  0  0  0  0  0  0
    9.4299    0.9445    2.4029 C   0  0  0  0  0  0  0  0  0  0  0  0
   10.2818    1.2340    3.4071 O   0  0  0  0  0  0  0  0  0  0  0  0
    8.5518   -0.2356    2.7478 C   0  0  0  0  0  0  0  0  0  0  0  0
    7.8983   -0.4626    1.9062 H   0  0  0  0  0  0  0  0  0  0  0  0
    9.1700   -1.1050    2.9898 H   0  0  0  0  0  0  0  0  0  0  0  0
    7.9522   -0.0067    3.6343 H   0  0  0  0  0  0  0  0  0  0  0  0
  1  6  2  0  0  0  0
  2  3  2  0  0  0  0
  2  1  1  0  0  0  0
  3  4  1  0  0  0  0
  4  5  2  0  0  0  0
  5 12  1  0  0  0  0
  6  5  1  0  0  0  0
  6 11  1  0  0  0  0
  7  1  1  0  0  0  0
  8  2  1  0  0  0  0
 10  9  3  0  0  0  0
 13 16  1  0  0  0  0
 14 15  2  0  0  0  0
 15 17  1  0  0  0  0
 15 16  1  0  0  0  0
 17 19  1  0  0  0  0
 17 20  1  0  0  0  0
 18 17  1  0  0  0  0
M  RAD  2   3   2   4   2
M  END
