Coordinates from ORCA-job Ph-N2-OAc-B3LYPG-6-31G_dp-MTMO-d009-169-n800
 OpenBabel09051908423D

 20 19  0  0  0  0  0  0  0  0999 V2000
   11.1230    7.0339    2.9261 C   0  0  0  0  0  0  0  0  0  0  0  0
   10.6569    5.7684    2.5714 C   0  0  0  0  0  0  0  0  0  0  0  0
   11.3725    4.6385    2.9663 C   0  0  0  0  0  0  0  0  0  0  0  0
   12.5452    4.7508    3.7144 C   0  0  0  0  0  0  0  0  0  0  0  0
   13.0012    6.0246    4.0583 C   0  0  0  0  0  0  0  0  0  0  0  0
   12.2982    7.1659    3.6683 C   0  0  0  0  0  0  0  0  0  0  0  0
   10.5666    7.9148    2.6203 H   0  0  0  0  0  0  0  0  0  0  0  0
    9.7441    5.6400    1.9991 H   0  0  0  0  0  0  0  0  0  0  0  0
    7.8042   -9.1113   -2.3795 N   0  0  0  0  0  0  0  0  0  0  0  0
    8.0582   -8.1306   -1.9376 N   0  0  0  0  0  0  0  0  0  0  0  0
   12.6625    8.1510    3.9431 H   0  0  0  0  0  0  0  0  0  0  0  0
   13.9160    6.1206    4.6355 H   0  0  0  0  0  0  0  0  0  0  0  0
   13.0934    3.8666    4.0103 H   0  0  0  0  0  0  0  0  0  0  0  0
   10.7918    3.4124    2.6330 O   0  0  0  0  0  0  0  0  0  0  0  0
   11.5439    2.3611    2.1777 C   0  0  0  0  0  0  0  0  0  0  0  0
   12.7419    2.3829    2.0397 O   0  0  0  0  0  0  0  0  0  0  0  0
   10.6394    1.1910    1.8769 C   0  0  0  0  0  0  0  0  0  0  0  0
   10.0708    0.9160    2.7701 H   0  0  0  0  0  0  0  0  0  0  0  0
    9.9167    1.4660    1.1028 H   0  0  0  0  0  0  0  0  0  0  0  0
   11.2408    0.3469    1.5414 H   0  0  0  0  0  0  0  0  0  0  0  0
  1  6  1  0  0  0  0
  2  1  2  0  0  0  0
  2  3  1  0  0  0  0
  3  4  2  0  0  0  0
  4 13  1  0  0  0  0
  4  5  1  0  0  0  0
  5 12  1  0  0  0  0
  6 11  1  0  0  0  0
  6  5  2  0  0  0  0
  7  1  1  0  0  0  0
  8  2  1  0  0  0  0
  9 10  3  0  0  0  0
 14  3  1  0  0  0  0
 15 14  1  0  0  0  0
 16 15  2  0  0  0  0
 17 15  1  0  0  0  0
 17 18  1  0  0  0  0
 19 17  1  0  0  0  0
 20 17  1  0  0  0  0
M  END
