Coordinates from ORCA-job Ph-N2-OAc-B3LYPG-6-31G_dp-MTMO-d009-169-n800
 OpenBabel09051908423D

 20 19  0  0  0  0  0  0  0  0999 V2000
   11.8306    5.8545    2.3625 C   0  0  0  0  0  0  0  0  0  0  0  0
   10.7490    4.9806    2.2499 C   0  0  0  0  0  0  0  0  0  0  0  0
   10.8879    3.6611    2.6774 C   0  0  0  0  0  0  0  0  0  0  0  0
   12.0872    3.1985    3.2199 C   0  0  0  0  0  0  0  0  0  0  0  0
   13.1621    4.0835    3.3223 C   0  0  0  0  0  0  0  0  0  0  0  0
   13.0408    5.4078    2.8968 C   0  0  0  0  0  0  0  0  0  0  0  0
   11.7250    6.8829    2.0302 H   0  0  0  0  0  0  0  0  0  0  0  0
    9.7982    5.3053    1.8406 H   0  0  0  0  0  0  0  0  0  0  0  0
   13.5667    0.6679   -0.0316 N   0  0  0  0  0  0  0  0  0  0  0  0
   13.9220    0.8161    1.0042 N   0  0  0  0  0  0  0  0  0  0  0  0
   13.8835    6.0871    2.9833 H   0  0  0  0  0  0  0  0  0  0  0  0
   14.1002    3.7298    3.7395 H   0  0  0  0  0  0  0  0  0  0  0  0
   12.1822    2.1708    3.5442 H   0  0  0  0  0  0  0  0  0  0  0  0
    9.7356    2.8735    2.6027 O   0  0  0  0  0  0  0  0  0  0  0  0
    9.7817    1.5901    2.1260 C   0  0  0  0  0  0  0  0  0  0  0  0
   10.7839    1.0347    1.7479 O   0  0  0  0  0  0  0  0  0  0  0  0
    8.3953    0.9945    2.1483 C   0  0  0  0  0  0  0  0  0  0  0  0
    8.0021    1.0002    3.1692 H   0  0  0  0  0  0  0  0  0  0  0  0
    7.7181    1.5964    1.5355 H   0  0  0  0  0  0  0  0  0  0  0  0
    8.4351   -0.0257    1.7689 H   0  0  0  0  0  0  0  0  0  0  0  0
  1  6  1  0  0  0  0
  2  1  2  0  0  0  0
  2  3  1  0  0  0  0
  3  4  2  0  0  0  0
  4  5  1  0  0  0  0
  4 13  1  0  0  0  0
  5 12  1  0  0  0  0
  6 11  1  0  0  0  0
  6  5  2  0  0  0  0
  7  1  1  0  0  0  0
  8  2  1  0  0  0  0
  9 10  3  0  0  0  0
 14  3  1  0  0  0  0
 15 17  1  0  0  0  0
 15 14  1  0  0  0  0
 16 15  2  0  0  0  0
 17 18  1  0  0  0  0
 19 17  1  0  0  0  0
 20 17  1  0  0  0  0
M  END
