Coordinates from ORCA-job Ph-N2-OAc-B3LYPG-6-31G_dp-MTMO-d009-169-n800
 OpenBabel09051908423D

 20 18  0  0  0  0  0  0  0  0999 V2000
   13.2228    6.1113    2.3059 C   0  0  0  0  0  0  0  0  0  0  0  0
   12.6821    5.4722    1.1656 C   0  0  0  0  0  0  0  0  0  0  0  0
   12.1167    4.2968    1.5792 C   0  0  0  0  0  0  0  0  0  0  0  0
   11.9789    3.6987    2.6780 C   0  0  0  0  0  0  0  0  0  0  0  0
   12.5093    4.3089    3.8284 C   0  0  0  0  0  0  0  0  0  0  0  0
   13.1375    5.5458    3.5913 C   0  0  0  0  0  0  0  0  0  0  0  0
   13.7160    7.0706    2.1735 H   0  0  0  0  0  0  0  0  0  0  0  0
   12.7289    5.8765    0.1627 H   0  0  0  0  0  0  0  0  0  0  0  0
   11.2306    3.2946   -0.6527 N   0  0  0  0  0  0  0  0  0  0  0  0
   10.7395    2.3640   -0.9918 N   0  0  0  0  0  0  0  0  0  0  0  0
   13.5711    6.0849    4.4295 H   0  0  0  0  0  0  0  0  0  0  0  0
   12.4497    3.8840    4.8258 H   0  0  0  0  0  0  0  0  0  0  0  0
   10.9370    1.9597    2.9049 H   0  0  0  0  0  0  0  0  0  0  0  0
    9.1376    1.6598    1.4671 O   0  0  0  0  0  0  0  0  0  0  0  0
    9.3969    0.9586    2.4231 C   0  0  0  0  0  0  0  0  0  0  0  0
   10.4608    1.1576    3.2257 O   0  0  0  0  0  0  0  0  0  0  0  0
    8.5863   -0.2372    2.8670 C   0  0  0  0  0  0  0  0  0  0  0  0
    7.7363   -0.3703    2.1993 H   0  0  0  0  0  0  0  0  0  0  0  0
    9.2121   -1.1348    2.8614 H   0  0  0  0  0  0  0  0  0  0  0  0
    8.2372   -0.0919    3.8935 H   0  0  0  0  0  0  0  0  0  0  0  0
  1  6  2  0  0  0  0
  2  3  2  0  0  0  0
  2  1  1  0  0  0  0
  3  4  1  0  0  0  0
  4  5  2  0  0  0  0
  5 12  1  0  0  0  0
  6  5  1  0  0  0  0
  6 11  1  0  0  0  0
  7  1  1  0  0  0  0
  8  2  1  0  0  0  0
 10  9  3  0  0  0  0
 13 16  1  0  0  0  0
 14 15  2  0  0  0  0
 15 17  1  0  0  0  0
 15 16  1  0  0  0  0
 17 20  1  0  0  0  0
 18 17  1  0  0  0  0
 19 17  1  0  0  0  0
M  RAD  2   3   2   4   2
M  END
