Coordinates from ORCA-job Ph-N2-OAc-B3LYPG-6-31G_dp-MTMO-d009-169-n800
 OpenBabel09051908423D

 20 18  0  0  0  0  0  0  0  0999 V2000
   13.2262    6.1002    2.2997 C   0  0  0  0  0  0  0  0  0  0  0  0
   12.6961    5.4803    1.1451 C   0  0  0  0  0  0  0  0  0  0  0  0
   12.1130    4.3061    1.5342 C   0  0  0  0  0  0  0  0  0  0  0  0
   11.9470    3.6848    2.6193 C   0  0  0  0  0  0  0  0  0  0  0  0
   12.4706    4.2841    3.7813 C   0  0  0  0  0  0  0  0  0  0  0  0
   13.1149    5.5172    3.5751 C   0  0  0  0  0  0  0  0  0  0  0  0
   13.7300    7.0563    2.1870 H   0  0  0  0  0  0  0  0  0  0  0  0
   12.7603    5.8952    0.1474 H   0  0  0  0  0  0  0  0  0  0  0  0
   11.2721    3.3596   -0.5540 N   0  0  0  0  0  0  0  0  0  0  0  0
   10.7687    2.4396   -0.9049 N   0  0  0  0  0  0  0  0  0  0  0  0
   13.5406    6.0391    4.4281 H   0  0  0  0  0  0  0  0  0  0  0  0
   12.3919    3.8466    4.7722 H   0  0  0  0  0  0  0  0  0  0  0  0
   10.9393    1.9716    2.8810 H   0  0  0  0  0  0  0  0  0  0  0  0
    9.1365    1.6323    1.4512 O   0  0  0  0  0  0  0  0  0  0  0  0
    9.4022    0.9521    2.4211 C   0  0  0  0  0  0  0  0  0  0  0  0
   10.4669    1.1701    3.2155 O   0  0  0  0  0  0  0  0  0  0  0  0
    8.5954   -0.2366    2.8913 C   0  0  0  0  0  0  0  0  0  0  0  0
    7.7455   -0.3870    2.2271 H   0  0  0  0  0  0  0  0  0  0  0  0
    9.2240   -1.1321    2.9053 H   0  0  0  0  0  0  0  0  0  0  0  0
    8.2462   -0.0698    3.9145 H   0  0  0  0  0  0  0  0  0  0  0  0
  1  6  2  0  0  0  0
  2  3  2  0  0  0  0
  2  1  1  0  0  0  0
  3  4  1  0  0  0  0
  4  5  2  0  0  0  0
  5 12  1  0  0  0  0
  6  5  1  0  0  0  0
  6 11  1  0  0  0  0
  7  1  1  0  0  0  0
  8  2  1  0  0  0  0
 10  9  3  0  0  0  0
 13 16  1  0  0  0  0
 14 15  2  0  0  0  0
 15 17  1  0  0  0  0
 15 16  1  0  0  0  0
 17 19  1  0  0  0  0
 17 20  1  0  0  0  0
 18 17  1  0  0  0  0
M  RAD  2   3   2   4   2
M  END
