Coordinates from ORCA-job Ph-N2-OAc-B3LYPG-6-31G_dp-MTMO-d009-169-n800
 OpenBabel09051908423D

 20 19  0  0  0  0  0  0  0  0999 V2000
   11.1429    7.1080    2.9556 C   0  0  0  0  0  0  0  0  0  0  0  0
   10.6775    5.8425    2.5998 C   0  0  0  0  0  0  0  0  0  0  0  0
   11.3931    4.7126    2.9945 C   0  0  0  0  0  0  0  0  0  0  0  0
   12.5652    4.8248    3.7436 C   0  0  0  0  0  0  0  0  0  0  0  0
   13.0205    6.0986    4.0886 C   0  0  0  0  0  0  0  0  0  0  0  0
   12.3174    7.2400    3.6988 C   0  0  0  0  0  0  0  0  0  0  0  0
   10.5864    7.9889    2.6499 H   0  0  0  0  0  0  0  0  0  0  0  0
    9.7651    5.7142    2.0267 H   0  0  0  0  0  0  0  0  0  0  0  0
    7.6157   -9.7796   -2.6330 N   0  0  0  0  0  0  0  0  0  0  0  0
    7.8728   -8.7995   -2.1916 N   0  0  0  0  0  0  0  0  0  0  0  0
   12.6812    8.2249    3.9745 H   0  0  0  0  0  0  0  0  0  0  0  0
   13.9348    6.1946    4.6666 H   0  0  0  0  0  0  0  0  0  0  0  0
   13.1134    3.9406    4.0394 H   0  0  0  0  0  0  0  0  0  0  0  0
   10.8131    3.4866    2.6600 O   0  0  0  0  0  0  0  0  0  0  0  0
   11.5659    2.4358    2.2046 C   0  0  0  0  0  0  0  0  0  0  0  0
   12.7640    2.4581    2.0675 O   0  0  0  0  0  0  0  0  0  0  0  0
   10.6620    1.2656    1.9023 C   0  0  0  0  0  0  0  0  0  0  0  0
   10.0928    0.9899    2.7949 H   0  0  0  0  0  0  0  0  0  0  0  0
    9.9398    1.5409    1.1279 H   0  0  0  0  0  0  0  0  0  0  0  0
   11.2639    0.4220    1.5667 H   0  0  0  0  0  0  0  0  0  0  0  0
  1  6  1  0  0  0  0
  2  1  2  0  0  0  0
  2  3  1  0  0  0  0
  3  4  2  0  0  0  0
  4 13  1  0  0  0  0
  4  5  1  0  0  0  0
  5 12  1  0  0  0  0
  6 11  1  0  0  0  0
  6  5  2  0  0  0  0
  7  1  1  0  0  0  0
  8  2  1  0  0  0  0
  9 10  3  0  0  0  0
 14  3  1  0  0  0  0
 15 14  1  0  0  0  0
 16 15  2  0  0  0  0
 17 15  1  0  0  0  0
 17 18  1  0  0  0  0
 19 17  1  0  0  0  0
 20 17  1  0  0  0  0
M  END
