Coordinates from ORCA-job Ph-N2-OAc-B3LYPG-6-31G_dp-MTMO-d009-169-n800
 OpenBabel09051908423D

 20 19  0  0  0  0  0  0  0  0999 V2000
   11.1549    6.7389    2.8181 C   0  0  0  0  0  0  0  0  0  0  0  0
   10.5941    5.5041    2.4932 C   0  0  0  0  0  0  0  0  0  0  0  0
   11.2603    4.3326    2.8519 C   0  0  0  0  0  0  0  0  0  0  0  0
   12.4768    4.3734    3.5346 C   0  0  0  0  0  0  0  0  0  0  0  0
   13.0274    5.6172    3.8492 C   0  0  0  0  0  0  0  0  0  0  0  0
   12.3746    6.7992    3.4948 C   0  0  0  0  0  0  0  0  0  0  0  0
   10.6372    7.6520    2.5403 H   0  0  0  0  0  0  0  0  0  0  0  0
    9.6455    5.4317    1.9719 H   0  0  0  0  0  0  0  0  0  0  0  0
    9.0797   -6.2816   -1.2698 N   0  0  0  0  0  0  0  0  0  0  0  0
    9.2140   -5.2538   -0.8861 N   0  0  0  0  0  0  0  0  0  0  0  0
   12.8122    7.7603    3.7464 H   0  0  0  0  0  0  0  0  0  0  0  0
   13.9762    5.6571    4.3757 H   0  0  0  0  0  0  0  0  0  0  0  0
   12.9856    3.4575    3.8030 H   0  0  0  0  0  0  0  0  0  0  0  0
   10.5883    3.1446    2.5549 O   0  0  0  0  0  0  0  0  0  0  0  0
   11.2481    2.0462    2.0688 C   0  0  0  0  0  0  0  0  0  0  0  0
   12.4363    1.9918    1.8683 O   0  0  0  0  0  0  0  0  0  0  0  0
   10.2572    0.9345    1.8242 C   0  0  0  0  0  0  0  0  0  0  0  0
    9.7170    0.7029    2.7467 H   0  0  0  0  0  0  0  0  0  0  0  0
    9.5163    1.2498    1.0833 H   0  0  0  0  0  0  0  0  0  0  0  0
   10.7857    0.0511    1.4679 H   0  0  0  0  0  0  0  0  0  0  0  0
  1  6  1  0  0  0  0
  2  1  2  0  0  0  0
  2  3  1  0  0  0  0
  3  4  2  0  0  0  0
  4 13  1  0  0  0  0
  4  5  1  0  0  0  0
  5 12  1  0  0  0  0
  6 11  1  0  0  0  0
  6  5  2  0  0  0  0
  7  1  1  0  0  0  0
  8  2  1  0  0  0  0
  9 10  3  0  0  0  0
 14  3  1  0  0  0  0
 15 14  1  0  0  0  0
 16 15  2  0  0  0  0
 17 15  1  0  0  0  0
 17 18  1  0  0  0  0
 19 17  1  0  0  0  0
 20 17  1  0  0  0  0
M  END
