Coordinates from ORCA-job Ph-N2-OAc-B3LYPG-6-31G_dp-MTMO-d009-169-n800
 OpenBabel09051908423D

 20 18  0  0  0  0  0  0  0  0999 V2000
   13.2003    6.1244    2.3092 C   0  0  0  0  0  0  0  0  0  0  0  0
   12.6226    5.4518    1.2062 C   0  0  0  0  0  0  0  0  0  0  0  0
   12.1023    4.2719    1.6675 C   0  0  0  0  0  0  0  0  0  0  0  0
   12.0331    3.7051    2.7868 C   0  0  0  0  0  0  0  0  0  0  0  0
   12.5979    4.3409    3.9036 C   0  0  0  0  0  0  0  0  0  0  0  0
   13.1867    5.5859    3.6089 C   0  0  0  0  0  0  0  0  0  0  0  0
   13.6673    7.0902    2.1355 H   0  0  0  0  0  0  0  0  0  0  0  0
   12.6168    5.8380    0.1951 H   0  0  0  0  0  0  0  0  0  0  0  0
   11.1695    3.1957   -0.7692 N   0  0  0  0  0  0  0  0  0  0  0  0
   10.7235    2.2512   -1.1301 N   0  0  0  0  0  0  0  0  0  0  0  0
   13.6463    6.1530    4.4142 H   0  0  0  0  0  0  0  0  0  0  0  0
   12.5927    3.9364    4.9109 H   0  0  0  0  0  0  0  0  0  0  0  0
   10.9291    1.9505    2.9696 H   0  0  0  0  0  0  0  0  0  0  0  0
    9.1845    1.6847    1.4624 O   0  0  0  0  0  0  0  0  0  0  0  0
    9.4012    0.9696    2.4184 C   0  0  0  0  0  0  0  0  0  0  0  0
   10.4346    1.1523    3.2651 O   0  0  0  0  0  0  0  0  0  0  0  0
    8.5677   -0.2264    2.8159 C   0  0  0  0  0  0  0  0  0  0  0  0
    7.7434   -0.3465    2.1142 H   0  0  0  0  0  0  0  0  0  0  0  0
    9.1881   -1.1277    2.8237 H   0  0  0  0  0  0  0  0  0  0  0  0
    8.1799   -0.0913    3.8298 H   0  0  0  0  0  0  0  0  0  0  0  0
  1  6  2  0  0  0  0
  2  3  2  0  0  0  0
  2  1  1  0  0  0  0
  3  4  1  0  0  0  0
  4  5  2  0  0  0  0
  5 12  1  0  0  0  0
  6  5  1  0  0  0  0
  6 11  1  0  0  0  0
  7  1  1  0  0  0  0
  8  2  1  0  0  0  0
 10  9  3  0  0  0  0
 13 16  1  0  0  0  0
 14 15  2  0  0  0  0
 15 17  1  0  0  0  0
 15 16  1  0  0  0  0
 17 19  1  0  0  0  0
 17 20  1  0  0  0  0
 18 17  1  0  0  0  0
M  RAD  2   3   2   4   2
M  END
