Coordinates from ORCA-job Ph-N2-OAc-B3LYPG-6-31G_dp-MTMO-d009-169-n800
 OpenBabel09051908423D

 20 18  0  0  0  0  0  0  0  0999 V2000
   13.1829    6.0960    2.2822 C   0  0  0  0  0  0  0  0  0  0  0  0
   12.4623    5.3871    1.2912 C   0  0  0  0  0  0  0  0  0  0  0  0
   11.9878    4.2379    1.8676 C   0  0  0  0  0  0  0  0  0  0  0  0
   12.0541    3.7317    3.0148 C   0  0  0  0  0  0  0  0  0  0  0  0
   12.7606    4.3999    4.0246 C   0  0  0  0  0  0  0  0  0  0  0  0
   13.3249    5.6183    3.5979 C   0  0  0  0  0  0  0  0  0  0  0  0
   13.6398    7.0429    2.0063 H   0  0  0  0  0  0  0  0  0  0  0  0
   12.3370    5.7282    0.2719 H   0  0  0  0  0  0  0  0  0  0  0  0
   10.9894    3.1809   -0.8734 N   0  0  0  0  0  0  0  0  0  0  0  0
   10.7545    2.2607   -1.4380 N   0  0  0  0  0  0  0  0  0  0  0  0
   13.8895    6.2135    4.3112 H   0  0  0  0  0  0  0  0  0  0  0  0
   12.8753    4.0428    5.0431 H   0  0  0  0  0  0  0  0  0  0  0  0
   10.8055    2.0129    3.1886 H   0  0  0  0  0  0  0  0  0  0  0  0
    9.4449    1.5682    1.3643 O   0  0  0  0  0  0  0  0  0  0  0  0
    9.4466    0.9469    2.4067 C   0  0  0  0  0  0  0  0  0  0  0  0
   10.2592    1.2366    3.4429 O   0  0  0  0  0  0  0  0  0  0  0  0
    8.5549   -0.2321    2.7182 C   0  0  0  0  0  0  0  0  0  0  0  0
    7.9359   -0.4608    1.8513 H   0  0  0  0  0  0  0  0  0  0  0  0
    9.1624   -1.1012    2.9869 H   0  0  0  0  0  0  0  0  0  0  0  0
    7.9200   -0.0009    3.5791 H   0  0  0  0  0  0  0  0  0  0  0  0
  1  6  2  0  0  0  0
  2  3  2  0  0  0  0
  2  1  1  0  0  0  0
  3  4  1  0  0  0  0
  4  5  2  0  0  0  0
  5 12  1  0  0  0  0
  6  5  1  0  0  0  0
  6 11  1  0  0  0  0
  7  1  1  0  0  0  0
  8  2  1  0  0  0  0
 10  9  3  0  0  0  0
 13 16  1  0  0  0  0
 14 15  2  0  0  0  0
 15 17  1  0  0  0  0
 15 16  1  0  0  0  0
 17 19  1  0  0  0  0
 17 20  1  0  0  0  0
 18 17  1  0  0  0  0
M  RAD  2   3   2   4   2
M  END
