Coordinates from ORCA-job Ph-N2-OAc-B3LYPG-6-31G_dp-MTMO-d009-169-n800
 OpenBabel09051908423D

 20 19  0  0  0  0  0  0  0  0999 V2000
   11.0931    6.8291    2.8413 C   0  0  0  0  0  0  0  0  0  0  0  0
   10.6047    5.5687    2.4982 C   0  0  0  0  0  0  0  0  0  0  0  0
   11.3096    4.4306    2.8886 C   0  0  0  0  0  0  0  0  0  0  0  0
   12.4935    4.5296    3.6206 C   0  0  0  0  0  0  0  0  0  0  0  0
   12.9717    5.7983    3.9530 C   0  0  0  0  0  0  0  0  0  0  0  0
   12.2796    6.9477    3.5675 C   0  0  0  0  0  0  0  0  0  0  0  0
   10.5450    7.7164    2.5390 H   0  0  0  0  0  0  0  0  0  0  0  0
    9.6827    5.4508    1.9386 H   0  0  0  0  0  0  0  0  0  0  0  0
    8.4394   -7.2219   -1.6629 N   0  0  0  0  0  0  0  0  0  0  0  0
    8.6529   -6.2228   -1.2415 N   0  0  0  0  0  0  0  0  0  0  0  0
   12.6612    7.9287    3.8333 H   0  0  0  0  0  0  0  0  0  0  0  0
   13.8953    5.8838    4.5178 H   0  0  0  0  0  0  0  0  0  0  0  0
   13.0330    3.6390    3.9133 H   0  0  0  0  0  0  0  0  0  0  0  0
   10.7072    3.2114    2.5688 O   0  0  0  0  0  0  0  0  0  0  0  0
   11.4380    2.1476    2.1076 C   0  0  0  0  0  0  0  0  0  0  0  0
   12.6339    2.1524    1.9514 O   0  0  0  0  0  0  0  0  0  0  0  0
   10.5129    0.9888    1.8262 C   0  0  0  0  0  0  0  0  0  0  0  0
    9.9525    0.7277    2.7286 H   0  0  0  0  0  0  0  0  0  0  0  0
    9.7839    1.2695    1.0601 H   0  0  0  0  0  0  0  0  0  0  0  0
   11.0973    0.1340    1.4880 H   0  0  0  0  0  0  0  0  0  0  0  0
  1  6  1  0  0  0  0
  2  1  2  0  0  0  0
  2  3  1  0  0  0  0
  3  4  2  0  0  0  0
  4 13  1  0  0  0  0
  4  5  1  0  0  0  0
  5 12  1  0  0  0  0
  6 11  1  0  0  0  0
  6  5  2  0  0  0  0
  7  1  1  0  0  0  0
  8  2  1  0  0  0  0
  9 10  3  0  0  0  0
 14  3  1  0  0  0  0
 15 14  1  0  0  0  0
 16 15  2  0  0  0  0
 17 15  1  0  0  0  0
 17 18  1  0  0  0  0
 19 17  1  0  0  0  0
 20 17  1  0  0  0  0
M  END
