Coordinates from ORCA-job Ph-N2-OAc-B3LYPG-6-31G_dp-MTMO-d009-169-n800
 OpenBabel09051908423D

 20 19  0  0  0  0  0  0  0  0999 V2000
   11.1463    7.1207    2.9606 C   0  0  0  0  0  0  0  0  0  0  0  0
   10.6810    5.8552    2.6046 C   0  0  0  0  0  0  0  0  0  0  0  0
   11.3966    4.7253    2.9993 C   0  0  0  0  0  0  0  0  0  0  0  0
   12.5686    4.8375    3.7485 C   0  0  0  0  0  0  0  0  0  0  0  0
   13.0238    6.1113    4.0937 C   0  0  0  0  0  0  0  0  0  0  0  0
   12.3207    7.2526    3.7040 C   0  0  0  0  0  0  0  0  0  0  0  0
   10.5898    8.0015    2.6550 H   0  0  0  0  0  0  0  0  0  0  0  0
    9.7687    5.7269    2.0315 H   0  0  0  0  0  0  0  0  0  0  0  0
    7.5837   -9.8938   -2.6763 N   0  0  0  0  0  0  0  0  0  0  0  0
    7.8412   -8.9137   -2.2350 N   0  0  0  0  0  0  0  0  0  0  0  0
   12.6845    8.2376    3.9798 H   0  0  0  0  0  0  0  0  0  0  0  0
   13.9381    6.2072    4.6719 H   0  0  0  0  0  0  0  0  0  0  0  0
   13.1168    3.9533    4.0444 H   0  0  0  0  0  0  0  0  0  0  0  0
   10.8167    3.4993    2.6646 O   0  0  0  0  0  0  0  0  0  0  0  0
   11.5695    2.4485    2.2093 C   0  0  0  0  0  0  0  0  0  0  0  0
   12.7677    2.4709    2.0723 O   0  0  0  0  0  0  0  0  0  0  0  0
   10.6657    1.2784    1.9067 C   0  0  0  0  0  0  0  0  0  0  0  0
   10.0965    1.0025    2.7992 H   0  0  0  0  0  0  0  0  0  0  0  0
    9.9436    1.5537    1.1323 H   0  0  0  0  0  0  0  0  0  0  0  0
   11.2678    0.4348    1.5711 H   0  0  0  0  0  0  0  0  0  0  0  0
  1  6  1  0  0  0  0
  2  1  2  0  0  0  0
  2  3  1  0  0  0  0
  3  4  2  0  0  0  0
  4 13  1  0  0  0  0
  4  5  1  0  0  0  0
  5 12  1  0  0  0  0
  6 11  1  0  0  0  0
  6  5  2  0  0  0  0
  7  1  1  0  0  0  0
  8  2  1  0  0  0  0
  9 10  3  0  0  0  0
 14  3  1  0  0  0  0
 15 14  1  0  0  0  0
 16 15  2  0  0  0  0
 17 15  1  0  0  0  0
 17 18  1  0  0  0  0
 19 17  1  0  0  0  0
 20 17  1  0  0  0  0
M  END
