Coordinates from ORCA-job Ph-N2-OAc-B3LYPG-6-31G_dp-MTMO-d009-169-n800
 OpenBabel09051908423D

 20 19  0  0  0  0  0  0  0  0999 V2000
   11.1415    6.7483    2.8102 C   0  0  0  0  0  0  0  0  0  0  0  0
   10.5944    5.5069    2.4868 C   0  0  0  0  0  0  0  0  0  0  0  0
   11.2667    4.3435    2.8597 C   0  0  0  0  0  0  0  0  0  0  0  0
   12.4756    4.3985    3.5547 C   0  0  0  0  0  0  0  0  0  0  0  0
   13.0126    5.6485    3.8676 C   0  0  0  0  0  0  0  0  0  0  0  0
   12.3535    6.8228    3.4993 C   0  0  0  0  0  0  0  0  0  0  0  0
   10.6191    7.6554    2.5216 H   0  0  0  0  0  0  0  0  0  0  0  0
    9.6520    5.4234    1.9561 H   0  0  0  0  0  0  0  0  0  0  0  0
    8.9613   -6.3915   -1.3345 N   0  0  0  0  0  0  0  0  0  0  0  0
    9.1159   -5.3680   -0.9469 N   0  0  0  0  0  0  0  0  0  0  0  0
   12.7803    7.7891    3.7497 H   0  0  0  0  0  0  0  0  0  0  0  0
   13.9556    5.6996    4.4035 H   0  0  0  0  0  0  0  0  0  0  0  0
   12.9889    3.4883    3.8339 H   0  0  0  0  0  0  0  0  0  0  0  0
   10.6092    3.1468    2.5645 O   0  0  0  0  0  0  0  0  0  0  0  0
   11.2849    2.0585    2.0767 C   0  0  0  0  0  0  0  0  0  0  0  0
   12.4734    2.0229    1.8741 O   0  0  0  0  0  0  0  0  0  0  0  0
   10.3108    0.9318    1.8335 C   0  0  0  0  0  0  0  0  0  0  0  0
    9.7754    0.6923    2.7568 H   0  0  0  0  0  0  0  0  0  0  0  0
    9.5643    1.2359    1.0936 H   0  0  0  0  0  0  0  0  0  0  0  0
   10.8521    0.0565    1.4765 H   0  0  0  0  0  0  0  0  0  0  0  0
  1  6  1  0  0  0  0
  2  1  2  0  0  0  0
  2  3  1  0  0  0  0
  3  4  2  0  0  0  0
  4 13  1  0  0  0  0
  4  5  1  0  0  0  0
  5 12  1  0  0  0  0
  6 11  1  0  0  0  0
  6  5  2  0  0  0  0
  7  1  1  0  0  0  0
  8  2  1  0  0  0  0
  9 10  3  0  0  0  0
 14  3  1  0  0  0  0
 15 14  1  0  0  0  0
 16 15  2  0  0  0  0
 17 15  1  0  0  0  0
 17 18  1  0  0  0  0
 19 17  1  0  0  0  0
 20 17  1  0  0  0  0
M  END
