Coordinates from ORCA-job Ph-N2-OAc-B3LYPG-6-31G_dp-MTMO-d009-169-n800
 OpenBabel09051908423D

 20 19  0  0  0  0  0  0  0  0999 V2000
   11.1600    7.1713    2.9806 C   0  0  0  0  0  0  0  0  0  0  0  0
   10.6950    5.9059    2.6240 C   0  0  0  0  0  0  0  0  0  0  0  0
   11.4107    4.7760    3.0186 C   0  0  0  0  0  0  0  0  0  0  0  0
   12.5823    4.8881    3.7684 C   0  0  0  0  0  0  0  0  0  0  0  0
   13.0371    6.1618    4.1142 C   0  0  0  0  0  0  0  0  0  0  0  0
   12.3341    7.3032    3.7245 C   0  0  0  0  0  0  0  0  0  0  0  0
   10.6035    8.0522    2.6750 H   0  0  0  0  0  0  0  0  0  0  0  0
    9.7830    5.7776    2.0504 H   0  0  0  0  0  0  0  0  0  0  0  0
    7.4557  -10.3502   -2.8497 N   0  0  0  0  0  0  0  0  0  0  0  0
    7.7148   -9.3703   -2.4090 N   0  0  0  0  0  0  0  0  0  0  0  0
   12.6976    8.2881    4.0008 H   0  0  0  0  0  0  0  0  0  0  0  0
   13.9512    6.2577    4.6928 H   0  0  0  0  0  0  0  0  0  0  0  0
   13.1305    4.0038    4.0642 H   0  0  0  0  0  0  0  0  0  0  0  0
   10.8311    3.5499    2.6833 O   0  0  0  0  0  0  0  0  0  0  0  0
   11.5843    2.4995    2.2279 C   0  0  0  0  0  0  0  0  0  0  0  0
   12.7825    2.5221    2.0914 O   0  0  0  0  0  0  0  0  0  0  0  0
   10.6808    1.3293    1.9246 C   0  0  0  0  0  0  0  0  0  0  0  0
   10.1112    1.0530    2.8167 H   0  0  0  0  0  0  0  0  0  0  0  0
    9.9589    1.6048    1.1499 H   0  0  0  0  0  0  0  0  0  0  0  0
   11.2831    0.4859    1.5889 H   0  0  0  0  0  0  0  0  0  0  0  0
  1  6  1  0  0  0  0
  2  1  2  0  0  0  0
  2  3  1  0  0  0  0
  3  4  2  0  0  0  0
  4 13  1  0  0  0  0
  4  5  1  0  0  0  0
  5 12  1  0  0  0  0
  6 11  1  0  0  0  0
  6  5  2  0  0  0  0
  7  1  1  0  0  0  0
  8  2  1  0  0  0  0
  9 10  3  0  0  0  0
 14  3  1  0  0  0  0
 15 14  1  0  0  0  0
 16 15  2  0  0  0  0
 17 15  1  0  0  0  0
 17 18  1  0  0  0  0
 19 17  1  0  0  0  0
 20 17  1  0  0  0  0
M  END
