Coordinates from ORCA-job Ph-N2-OAc-B3LYPG-6-31G_dp-MTMO-d009-169-n800
 OpenBabel09051908423D

 20 19  0  0  0  0  0  0  0  0999 V2000
   11.1634    7.1840    2.9856 C   0  0  0  0  0  0  0  0  0  0  0  0
   10.6985    5.9185    2.6289 C   0  0  0  0  0  0  0  0  0  0  0  0
   11.4142    4.7886    3.0235 C   0  0  0  0  0  0  0  0  0  0  0  0
   12.5857    4.9007    3.7734 C   0  0  0  0  0  0  0  0  0  0  0  0
   13.0405    6.1745    4.1193 C   0  0  0  0  0  0  0  0  0  0  0  0
   12.3374    7.3158    3.7296 C   0  0  0  0  0  0  0  0  0  0  0  0
   10.6070    8.0648    2.6800 H   0  0  0  0  0  0  0  0  0  0  0  0
    9.7866    5.7903    2.0551 H   0  0  0  0  0  0  0  0  0  0  0  0
    7.4237  -10.4643   -2.8931 N   0  0  0  0  0  0  0  0  0  0  0  0
    7.6831   -9.4844   -2.4526 N   0  0  0  0  0  0  0  0  0  0  0  0
   12.7008    8.3007    4.0060 H   0  0  0  0  0  0  0  0  0  0  0  0
   13.9545    6.2703    4.6980 H   0  0  0  0  0  0  0  0  0  0  0  0
   13.1340    4.0165    4.0692 H   0  0  0  0  0  0  0  0  0  0  0  0
   10.8346    3.5626    2.6880 O   0  0  0  0  0  0  0  0  0  0  0  0
   11.5880    2.5122    2.2326 C   0  0  0  0  0  0  0  0  0  0  0  0
   12.7862    2.5349    2.0963 O   0  0  0  0  0  0  0  0  0  0  0  0
   10.6845    1.3420    1.9290 C   0  0  0  0  0  0  0  0  0  0  0  0
   10.1149    1.0656    2.8211 H   0  0  0  0  0  0  0  0  0  0  0  0
    9.9628    1.6175    1.1543 H   0  0  0  0  0  0  0  0  0  0  0  0
   11.2869    0.4987    1.5934 H   0  0  0  0  0  0  0  0  0  0  0  0
  1  6  1  0  0  0  0
  2  1  2  0  0  0  0
  2  3  1  0  0  0  0
  3  4  2  0  0  0  0
  4 13  1  0  0  0  0
  4  5  1  0  0  0  0
  5 12  1  0  0  0  0
  6 11  1  0  0  0  0
  6  5  2  0  0  0  0
  7  1  1  0  0  0  0
  8  2  1  0  0  0  0
  9 10  3  0  0  0  0
 14  3  1  0  0  0  0
 15 14  1  0  0  0  0
 16 15  2  0  0  0  0
 17 15  1  0  0  0  0
 17 18  1  0  0  0  0
 19 17  1  0  0  0  0
 20 17  1  0  0  0  0
M  END
