Coordinates from ORCA-job Ph-N2-OAc-B3LYPG-6-31G_dp-MTMO-d009-169-n800
 OpenBabel09051908423D

 20 19  0  0  0  0  0  0  0  0999 V2000
   11.1003    6.9423    2.8890 C   0  0  0  0  0  0  0  0  0  0  0  0
   10.6319    5.6769    2.5366 C   0  0  0  0  0  0  0  0  0  0  0  0
   11.3467    4.5465    2.9314 C   0  0  0  0  0  0  0  0  0  0  0  0
   12.5208    4.6580    3.6772 C   0  0  0  0  0  0  0  0  0  0  0  0
   12.9792    5.9316    4.0189 C   0  0  0  0  0  0  0  0  0  0  0  0
   12.2770    7.0735    3.6290 C   0  0  0  0  0  0  0  0  0  0  0  0
   10.5446    7.8235    2.5833 H   0  0  0  0  0  0  0  0  0  0  0  0
    9.7178    5.5492    1.9661 H   0  0  0  0  0  0  0  0  0  0  0  0
    8.0458   -8.2811   -2.0651 N   0  0  0  0  0  0  0  0  0  0  0  0
    8.2927   -7.2979   -1.6247 N   0  0  0  0  0  0  0  0  0  0  0  0
   12.6432    8.0583    3.9020 H   0  0  0  0  0  0  0  0  0  0  0  0
   13.8952    6.0270    4.5943 H   0  0  0  0  0  0  0  0  0  0  0  0
   13.0684    3.7734    3.9731 H   0  0  0  0  0  0  0  0  0  0  0  0
   10.7636    3.3209    2.6005 O   0  0  0  0  0  0  0  0  0  0  0  0
   11.5134    2.2679    2.1452 C   0  0  0  0  0  0  0  0  0  0  0  0
   12.7112    2.2880    2.0049 O   0  0  0  0  0  0  0  0  0  0  0  0
   10.6067    1.0988    1.8474 C   0  0  0  0  0  0  0  0  0  0  0  0
   10.0393    0.8258    2.7420 H   0  0  0  0  0  0  0  0  0  0  0  0
    9.8831    1.3738    1.0743 H   0  0  0  0  0  0  0  0  0  0  0  0
   11.2063    0.2534    1.5120 H   0  0  0  0  0  0  0  0  0  0  0  0
  1  6  1  0  0  0  0
  2  1  2  0  0  0  0
  2  3  1  0  0  0  0
  3  4  2  0  0  0  0
  4 13  1  0  0  0  0
  4  5  1  0  0  0  0
  5 12  1  0  0  0  0
  6 11  1  0  0  0  0
  6  5  2  0  0  0  0
  7  1  1  0  0  0  0
  8  2  1  0  0  0  0
  9 10  3  0  0  0  0
 14  3  1  0  0  0  0
 15 14  1  0  0  0  0
 16 15  2  0  0  0  0
 17 15  1  0  0  0  0
 17 18  1  0  0  0  0
 19 17  1  0  0  0  0
 20 17  1  0  0  0  0
M  END
