Coordinates from ORCA-job Ph-N2-OAc-B3LYPG-6-31G_dp-MTMO-d009-169-n800
 OpenBabel09051908423D

 20 19  0  0  0  0  0  0  0  0999 V2000
   11.5986    6.0880    2.7616 C   0  0  0  0  0  0  0  0  0  0  0  0
   10.5935    5.1302    2.6345 C   0  0  0  0  0  0  0  0  0  0  0  0
   10.9285    3.7769    2.6634 C   0  0  0  0  0  0  0  0  0  0  0  0
   12.2514    3.3622    2.8211 C   0  0  0  0  0  0  0  0  0  0  0  0
   13.2467    4.3332    2.9436 C   0  0  0  0  0  0  0  0  0  0  0  0
   12.9292    5.6925    2.9144 C   0  0  0  0  0  0  0  0  0  0  0  0
   11.3393    7.1426    2.7403 H   0  0  0  0  0  0  0  0  0  0  0  0
    9.5526    5.4131    2.5168 H   0  0  0  0  0  0  0  0  0  0  0  0
   13.3984   -1.0319    0.7760 N   0  0  0  0  0  0  0  0  0  0  0  0
   13.4815   -0.3255    1.6218 N   0  0  0  0  0  0  0  0  0  0  0  0
   13.7127    6.4378    3.0120 H   0  0  0  0  0  0  0  0  0  0  0  0
   14.2792    4.0185    3.0648 H   0  0  0  0  0  0  0  0  0  0  0  0
   12.5004    2.3091    2.8368 H   0  0  0  0  0  0  0  0  0  0  0  0
    9.8516    2.8877    2.6087 O   0  0  0  0  0  0  0  0  0  0  0  0
    9.8954    1.7545    1.8414 C   0  0  0  0  0  0  0  0  0  0  0  0
   10.8367    1.4182    1.1649 O   0  0  0  0  0  0  0  0  0  0  0  0
    8.5907    1.0074    1.9746 C   0  0  0  0  0  0  0  0  0  0  0  0
    8.4107    0.7526    3.0228 H   0  0  0  0  0  0  0  0  0  0  0  0
    7.7612    1.6408    1.6468 H   0  0  0  0  0  0  0  0  0  0  0  0
    8.6293    0.1016    1.3712 H   0  0  0  0  0  0  0  0  0  0  0  0
  1  6  2  0  0  0  0
  2  3  2  0  0  0  0
  2  1  1  0  0  0  0
  3  4  1  0  0  0  0
  4 13  1  0  0  0  0
  4  5  2  0  0  0  0
  5 12  1  0  0  0  0
  6  5  1  0  0  0  0
  6 11  1  0  0  0  0
  7  1  1  0  0  0  0
  8  2  1  0  0  0  0
  9 10  3  0  0  0  0
 14  3  1  0  0  0  0
 15 17  1  0  0  0  0
 15 14  1  0  0  0  0
 16 15  2  0  0  0  0
 17 18  1  0  0  0  0
 19 17  1  0  0  0  0
 20 17  1  0  0  0  0
M  END
