Coordinates from ORCA-job Ph-N2-OAc-B3LYPG-6-31G_dp-MTMO-d009-169-n800
 OpenBabel09051908423D

 20 18  0  0  0  0  0  0  0  0999 V2000
   13.2215    6.1138    2.3079 C   0  0  0  0  0  0  0  0  0  0  0  0
   12.6775    5.4701    1.1717 C   0  0  0  0  0  0  0  0  0  0  0  0
   12.1169    4.2945    1.5913 C   0  0  0  0  0  0  0  0  0  0  0  0
   11.9861    3.7009    2.6930 C   0  0  0  0  0  0  0  0  0  0  0  0
   12.5194    4.3146    3.8398 C   0  0  0  0  0  0  0  0  0  0  0  0
   13.1433    5.5524    3.5956 C   0  0  0  0  0  0  0  0  0  0  0  0
   13.7118    7.0739    2.1704 H   0  0  0  0  0  0  0  0  0  0  0  0
   12.7193    5.8719    0.1675 H   0  0  0  0  0  0  0  0  0  0  0  0
   11.2198    3.2795   -0.6772 N   0  0  0  0  0  0  0  0  0  0  0  0
   10.7326    2.3467   -1.0156 N   0  0  0  0  0  0  0  0  0  0  0  0
   13.5793    6.0953    4.4301 H   0  0  0  0  0  0  0  0  0  0  0  0
   12.4651    3.8926    4.8388 H   0  0  0  0  0  0  0  0  0  0  0  0
   10.9370    1.9573    2.9093 H   0  0  0  0  0  0  0  0  0  0  0  0
    9.1404    1.6629    1.4672 O   0  0  0  0  0  0  0  0  0  0  0  0
    9.3969    0.9592    2.4221 C   0  0  0  0  0  0  0  0  0  0  0  0
   10.4597    1.1551    3.2272 O   0  0  0  0  0  0  0  0  0  0  0  0
    8.5840   -0.2364    2.8620 C   0  0  0  0  0  0  0  0  0  0  0  0
    7.7350   -0.3670    2.1925 H   0  0  0  0  0  0  0  0  0  0  0  0
    9.2085   -1.1349    2.8557 H   0  0  0  0  0  0  0  0  0  0  0  0
    8.2332   -0.0928    3.8882 H   0  0  0  0  0  0  0  0  0  0  0  0
  1  6  2  0  0  0  0
  2  3  2  0  0  0  0
  2  1  1  0  0  0  0
  3  4  1  0  0  0  0
  4  5  2  0  0  0  0
  5 12  1  0  0  0  0
  6  5  1  0  0  0  0
  6 11  1  0  0  0  0
  7  1  1  0  0  0  0
  8  2  1  0  0  0  0
 10  9  3  0  0  0  0
 13 16  1  0  0  0  0
 14 15  2  0  0  0  0
 15 17  1  0  0  0  0
 15 16  1  0  0  0  0
 17 20  1  0  0  0  0
 18 17  1  0  0  0  0
 19 17  1  0  0  0  0
M  RAD  2   3   2   4   2
M  END
