Coordinates from ORCA-job Ph-N2-OAc-B3LYPG-6-31G_dp-MTMO-d009-169-n800
 OpenBabel09051908423D

 20 19  0  0  0  0  0  0  0  0999 V2000
   11.2207    6.5816    2.7872 C   0  0  0  0  0  0  0  0  0  0  0  0
   10.5791    5.3842    2.4719 C   0  0  0  0  0  0  0  0  0  0  0  0
   11.1939    4.1730    2.7877 C   0  0  0  0  0  0  0  0  0  0  0  0
   12.4387    4.1373    3.4178 C   0  0  0  0  0  0  0  0  0  0  0  0
   13.0701    5.3443    3.7235 C   0  0  0  0  0  0  0  0  0  0  0  0
   12.4694    6.5654    3.4116 C   0  0  0  0  0  0  0  0  0  0  0  0
   10.7432    7.5257    2.5427 H   0  0  0  0  0  0  0  0  0  0  0  0
    9.6070    5.3715    1.9907 H   0  0  0  0  0  0  0  0  0  0  0  0
    9.8983   -4.7737   -0.6483 N   0  0  0  0  0  0  0  0  0  0  0  0
    9.9318   -3.7503   -0.2322 N   0  0  0  0  0  0  0  0  0  0  0  0
   12.9698    7.4974    3.6556 H   0  0  0  0  0  0  0  0  0  0  0  0
   14.0409    5.3245    4.2095 H   0  0  0  0  0  0  0  0  0  0  0  0
   12.9067    3.1910    3.6531 H   0  0  0  0  0  0  0  0  0  0  0  0
   10.4453    3.0277    2.5059 O   0  0  0  0  0  0  0  0  0  0  0  0
   11.0229    1.9005    1.9816 C   0  0  0  0  0  0  0  0  0  0  0  0
   12.1965    1.7851    1.7281 O   0  0  0  0  0  0  0  0  0  0  0  0
    9.9640    0.8454    1.7736 C   0  0  0  0  0  0  0  0  0  0  0  0
    9.4664    0.6226    2.7219 H   0  0  0  0  0  0  0  0  0  0  0  0
    9.1987    1.2129    1.0833 H   0  0  0  0  0  0  0  0  0  0  0  0
   10.4243   -0.0566    1.3724 H   0  0  0  0  0  0  0  0  0  0  0  0
  1  6  1  0  0  0  0
  2  1  2  0  0  0  0
  2  3  1  0  0  0  0
  3  4  2  0  0  0  0
  4 13  1  0  0  0  0
  4  5  1  0  0  0  0
  5 12  1  0  0  0  0
  6 11  1  0  0  0  0
  6  5  2  0  0  0  0
  7  1  1  0  0  0  0
  8  2  1  0  0  0  0
  9 10  3  0  0  0  0
 14  3  1  0  0  0  0
 15 14  1  0  0  0  0
 16 15  2  0  0  0  0
 17 15  1  0  0  0  0
 17 18  1  0  0  0  0
 19 17  1  0  0  0  0
 20 17  1  0  0  0  0
M  END
