Coordinates from ORCA-job Ph-N2-OAc-B3LYPG-6-31G_dp-MTMO-d009-169-n800
 OpenBabel09051908423D

 20 19  0  0  0  0  0  0  0  0999 V2000
   11.2262    6.5678    2.7807 C   0  0  0  0  0  0  0  0  0  0  0  0
   10.5781    5.3732    2.4682 C   0  0  0  0  0  0  0  0  0  0  0  0
   11.1884    4.1593    2.7830 C   0  0  0  0  0  0  0  0  0  0  0  0
   12.4349    4.1183    3.4094 C   0  0  0  0  0  0  0  0  0  0  0  0
   13.0728    5.3226    3.7123 C   0  0  0  0  0  0  0  0  0  0  0  0
   12.4767    6.5462    3.4014 C   0  0  0  0  0  0  0  0  0  0  0  0
   10.7524    7.5139    2.5370 H   0  0  0  0  0  0  0  0  0  0  0  0
    9.6046    5.3646    1.9900 H   0  0  0  0  0  0  0  0  0  0  0  0
    9.9698   -4.6424   -0.6080 N   0  0  0  0  0  0  0  0  0  0  0  0
    9.9882   -3.6220   -0.1838 N   0  0  0  0  0  0  0  0  0  0  0  0
   12.9822    7.4761    3.6431 H   0  0  0  0  0  0  0  0  0  0  0  0
   14.0449    5.2987    4.1954 H   0  0  0  0  0  0  0  0  0  0  0  0
   12.8992    3.1701    3.6439 H   0  0  0  0  0  0  0  0  0  0  0  0
   10.4337    3.0173    2.5043 O   0  0  0  0  0  0  0  0  0  0  0  0
   11.0044    1.8872    1.9787 C   0  0  0  0  0  0  0  0  0  0  0  0
   12.1766    1.7666    1.7211 O   0  0  0  0  0  0  0  0  0  0  0  0
    9.9402    0.8365    1.7751 C   0  0  0  0  0  0  0  0  0  0  0  0
    9.4458    0.6159    2.7256 H   0  0  0  0  0  0  0  0  0  0  0  0
    9.1736    1.2073    1.0882 H   0  0  0  0  0  0  0  0  0  0  0  0
   10.3948   -0.0675    1.3720 H   0  0  0  0  0  0  0  0  0  0  0  0
  1  6  1  0  0  0  0
  2  1  2  0  0  0  0
  2  3  1  0  0  0  0
  3  4  2  0  0  0  0
  4 13  1  0  0  0  0
  4  5  1  0  0  0  0
  5 12  1  0  0  0  0
  6 11  1  0  0  0  0
  6  5  2  0  0  0  0
  7  1  1  0  0  0  0
  8  2  1  0  0  0  0
  9 10  3  0  0  0  0
 14  3  1  0  0  0  0
 15 14  1  0  0  0  0
 16 15  2  0  0  0  0
 17 15  1  0  0  0  0
 17 18  1  0  0  0  0
 19 17  1  0  0  0  0
 20 17  1  0  0  0  0
M  END
