Coordinates from ORCA-job Ph-N2-OAc-B3LYPG-6-31G_dp-MTMO-d009-169-n800
 OpenBabel09051908423D

 20 19  0  0  0  0  0  0  0  0999 V2000
   11.2902    6.4748    2.7143 C   0  0  0  0  0  0  0  0  0  0  0  0
   10.5807    5.3068    2.4359 C   0  0  0  0  0  0  0  0  0  0  0  0
   11.1410    4.0713    2.7585 C   0  0  0  0  0  0  0  0  0  0  0  0
   12.3979    3.9823    3.3583 C   0  0  0  0  0  0  0  0  0  0  0  0
   13.0976    5.1599    3.6272 C   0  0  0  0  0  0  0  0  0  0  0  0
   12.5518    6.4048    3.3084 C   0  0  0  0  0  0  0  0  0  0  0  0
   10.8555    7.4380    2.4646 H   0  0  0  0  0  0  0  0  0  0  0  0
    9.5976    5.3358    1.9784 H   0  0  0  0  0  0  0  0  0  0  0  0
   10.6404   -3.7423   -0.4181 N   0  0  0  0  0  0  0  0  0  0  0  0
   10.3900   -2.8001    0.1024 N   0  0  0  0  0  0  0  0  0  0  0  0
   13.1049    7.3139    3.5235 H   0  0  0  0  0  0  0  0  0  0  0  0
   14.0780    5.0985    4.0899 H   0  0  0  0  0  0  0  0  0  0  0  0
   12.8224    3.0169    3.5992 H   0  0  0  0  0  0  0  0  0  0  0  0
   10.3303    2.9596    2.5178 O   0  0  0  0  0  0  0  0  0  0  0  0
   10.8376    1.8052    1.9785 C   0  0  0  0  0  0  0  0  0  0  0  0
   11.9936    1.6411    1.6758 O   0  0  0  0  0  0  0  0  0  0  0  0
    9.7292    0.7921    1.8289 C   0  0  0  0  0  0  0  0  0  0  0  0
    9.2914    0.5734    2.8073 H   0  0  0  0  0  0  0  0  0  0  0  0
    8.9313    1.1983    1.2003 H   0  0  0  0  0  0  0  0  0  0  0  0
   10.1260   -0.1206    1.3865 H   0  0  0  0  0  0  0  0  0  0  0  0
  1  6  1  0  0  0  0
  2  1  2  0  0  0  0
  2  3  1  0  0  0  0
  3  4  2  0  0  0  0
  4 13  1  0  0  0  0
  4  5  1  0  0  0  0
  5 12  1  0  0  0  0
  6 11  1  0  0  0  0
  6  5  2  0  0  0  0
  7  1  1  0  0  0  0
  8  2  1  0  0  0  0
  9 10  3  0  0  0  0
 14  3  1  0  0  0  0
 15 14  1  0  0  0  0
 16 15  2  0  0  0  0
 17 15  1  0  0  0  0
 17 18  1  0  0  0  0
 19 17  1  0  0  0  0
 20 17  1  0  0  0  0
M  END
