Coordinates from ORCA-job Ph-N2-OAc-B3LYPG-6-31G_dp-MTMO-d009-169-n800
 OpenBabel09051908423D

 20 19  0  0  0  0  0  0  0  0999 V2000
   11.2106    6.6178    2.7999 C   0  0  0  0  0  0  0  0  0  0  0  0
   10.5828    5.4142    2.4805 C   0  0  0  0  0  0  0  0  0  0  0  0
   11.2070    4.2091    2.8015 C   0  0  0  0  0  0  0  0  0  0  0  0
   12.4473    4.1856    3.4409 C   0  0  0  0  0  0  0  0  0  0  0  0
   13.0648    5.3987    3.7506 C   0  0  0  0  0  0  0  0  0  0  0  0
   12.4547    6.6139    3.4336 C   0  0  0  0  0  0  0  0  0  0  0  0
   10.7259    7.5572    2.5514 H   0  0  0  0  0  0  0  0  0  0  0  0
    9.6145    5.3920    1.9923 H   0  0  0  0  0  0  0  0  0  0  0  0
    9.7387   -5.1154   -0.7673 N   0  0  0  0  0  0  0  0  0  0  0  0
    9.7898   -4.0869   -0.3660 N   0  0  0  0  0  0  0  0  0  0  0  0
   12.9443    7.5507    3.6808 H   0  0  0  0  0  0  0  0  0  0  0  0
   14.0321    5.3885    4.2438 H   0  0  0  0  0  0  0  0  0  0  0  0
   12.9225    3.2440    3.6803 H   0  0  0  0  0  0  0  0  0  0  0  0
   10.4716    3.0565    2.5148 O   0  0  0  0  0  0  0  0  0  0  0  0
   11.0640    1.9358    1.9934 C   0  0  0  0  0  0  0  0  0  0  0  0
   12.2403    1.8325    1.7475 O   0  0  0  0  0  0  0  0  0  0  0  0
   10.0173    0.8702    1.7773 C   0  0  0  0  0  0  0  0  0  0  0  0
    9.5151    0.6416    2.7217 H   0  0  0  0  0  0  0  0  0  0  0  0
    9.2537    1.2301    1.0813 H   0  0  0  0  0  0  0  0  0  0  0  0
   10.4905   -0.0264    1.3791 H   0  0  0  0  0  0  0  0  0  0  0  0
  1  6  1  0  0  0  0
  2  1  2  0  0  0  0
  2  3  1  0  0  0  0
  3  4  2  0  0  0  0
  4 13  1  0  0  0  0
  4  5  1  0  0  0  0
  5 12  1  0  0  0  0
  6 11  1  0  0  0  0
  6  5  2  0  0  0  0
  7  1  1  0  0  0  0
  8  2  1  0  0  0  0
  9 10  3  0  0  0  0
 14  3  1  0  0  0  0
 15 14  1  0  0  0  0
 16 15  2  0  0  0  0
 17 15  1  0  0  0  0
 17 18  1  0  0  0  0
 19 17  1  0  0  0  0
 20 17  1  0  0  0  0
M  END
