Coordinates from ORCA-job Ph-N2-OAc-B3LYPG-6-31G_dp-MTMO-d009-169-n800
 OpenBabel09051908423D

 20 18  0  0  0  0  0  0  0  0999 V2000
   13.1985    6.1209    2.3014 C   0  0  0  0  0  0  0  0  0  0  0  0
   12.5322    5.4596    1.2421 C   0  0  0  0  0  0  0  0  0  0  0  0
   12.0299    4.2860    1.7385 C   0  0  0  0  0  0  0  0  0  0  0  0
   12.0318    3.7213    2.8607 C   0  0  0  0  0  0  0  0  0  0  0  0
   12.6849    4.3448    3.9350 C   0  0  0  0  0  0  0  0  0  0  0  0
   13.2702    5.5809    3.5985 C   0  0  0  0  0  0  0  0  0  0  0  0
   13.6680    7.0791    2.0946 H   0  0  0  0  0  0  0  0  0  0  0  0
   12.4601    5.8479    0.2345 H   0  0  0  0  0  0  0  0  0  0  0  0
   11.0585    3.2131   -0.7774 N   0  0  0  0  0  0  0  0  0  0  0  0
   10.8397    2.2515   -1.2758 N   0  0  0  0  0  0  0  0  0  0  0  0
   13.7950    6.1401    4.3689 H   0  0  0  0  0  0  0  0  0  0  0  0
   12.7448    3.9399    4.9404 H   0  0  0  0  0  0  0  0  0  0  0  0
   10.8262    2.0183    3.0686 H   0  0  0  0  0  0  0  0  0  0  0  0
    9.3102    1.5703    1.3698 O   0  0  0  0  0  0  0  0  0  0  0  0
    9.4099    0.9447    2.4048 C   0  0  0  0  0  0  0  0  0  0  0  0
   10.3106    1.2347    3.3652 O   0  0  0  0  0  0  0  0  0  0  0  0
    8.5575   -0.2423    2.7884 C   0  0  0  0  0  0  0  0  0  0  0  0
    7.8541   -0.4612    1.9857 H   0  0  0  0  0  0  0  0  0  0  0  0
    9.1919   -1.1126    2.9803 H   0  0  0  0  0  0  0  0  0  0  0  0
    8.0134   -0.0273    3.7132 H   0  0  0  0  0  0  0  0  0  0  0  0
  1  6  2  0  0  0  0
  2  3  2  0  0  0  0
  2  1  1  0  0  0  0
  3  4  1  0  0  0  0
  4  5  2  0  0  0  0
  5 12  1  0  0  0  0
  6  5  1  0  0  0  0
  6 11  1  0  0  0  0
  7  1  1  0  0  0  0
  8  2  1  0  0  0  0
 10  9  3  0  0  0  0
 13 16  1  0  0  0  0
 14 15  2  0  0  0  0
 15 17  1  0  0  0  0
 15 16  1  0  0  0  0
 17 19  1  0  0  0  0
 17 20  1  0  0  0  0
 18 17  1  0  0  0  0
M  RAD  2   3   2   4   2
M  END
