Coordinates from ORCA-job Ph-N2-OAc-B3LYPG-6-31G_dp-MTMO-d009-169-n800
 OpenBabel09051908423D

 20 18  0  0  0  0  0  0  0  0999 V2000
   13.2304    6.0611    2.2717 C   0  0  0  0  0  0  0  0  0  0  0  0
   12.7109    5.4600    1.1104 C   0  0  0  0  0  0  0  0  0  0  0  0
   12.0856    4.2904    1.4537 C   0  0  0  0  0  0  0  0  0  0  0  0
   11.8649    3.6247    2.5252 C   0  0  0  0  0  0  0  0  0  0  0  0
   12.3948    4.2396    3.6851 C   0  0  0  0  0  0  0  0  0  0  0  0
   13.0726    5.4579    3.5319 C   0  0  0  0  0  0  0  0  0  0  0  0
   13.7565    7.0069    2.1817 H   0  0  0  0  0  0  0  0  0  0  0  0
   12.8023    5.8790    0.1159 H   0  0  0  0  0  0  0  0  0  0  0  0
   11.3532    3.4824   -0.2483 N   0  0  0  0  0  0  0  0  0  0  0  0
   10.7350    2.6632   -0.6668 N   0  0  0  0  0  0  0  0  0  0  0  0
   13.4879    5.9508    4.4069 H   0  0  0  0  0  0  0  0  0  0  0  0
   12.2860    3.7918    4.6699 H   0  0  0  0  0  0  0  0  0  0  0  0
   10.9514    2.0317    2.8572 H   0  0  0  0  0  0  0  0  0  0  0  0
    9.1962    1.5555    1.3770 O   0  0  0  0  0  0  0  0  0  0  0  0
    9.4452    0.9439    2.3999 C   0  0  0  0  0  0  0  0  0  0  0  0
   10.4741    1.2226    3.2086 O   0  0  0  0  0  0  0  0  0  0  0  0
    8.6296   -0.2230    2.9124 C   0  0  0  0  0  0  0  0  0  0  0  0
    7.8122   -0.4311    2.2229 H   0  0  0  0  0  0  0  0  0  0  0  0
    9.2668   -1.1062    3.0176 H   0  0  0  0  0  0  0  0  0  0  0  0
    8.2318    0.0086    3.9048 H   0  0  0  0  0  0  0  0  0  0  0  0
  1  6  2  0  0  0  0
  2  3  2  0  0  0  0
  2  1  1  0  0  0  0
  3  4  1  0  0  0  0
  4  5  2  0  0  0  0
  5 12  1  0  0  0  0
  6  5  1  0  0  0  0
  6 11  1  0  0  0  0
  7  1  1  0  0  0  0
  8  2  1  0  0  0  0
 10  9  3  0  0  0  0
 13 16  1  0  0  0  0
 14 15  2  0  0  0  0
 15 17  1  0  0  0  0
 15 16  1  0  0  0  0
 17 19  1  0  0  0  0
 17 20  1  0  0  0  0
 18 17  1  0  0  0  0
M  RAD  2   3   2   4   2
M  END
