Coordinates from ORCA-job Ph-N2-OAc-B3LYPG-6-31G_dp-MTMO-d009-169-n800
 OpenBabel09051908423D

 20 19  0  0  0  0  0  0  0  0999 V2000
   11.1057    6.7986    2.8284 C   0  0  0  0  0  0  0  0  0  0  0  0
   10.5993    5.5434    2.4925 C   0  0  0  0  0  0  0  0  0  0  0  0
   11.2953    4.3978    2.8771 C   0  0  0  0  0  0  0  0  0  0  0  0
   12.4881    4.4842    3.5963 C   0  0  0  0  0  0  0  0  0  0  0  0
   12.9843    5.7479    3.9216 C   0  0  0  0  0  0  0  0  0  0  0  0
   12.3012    6.9047    3.5417 C   0  0  0  0  0  0  0  0  0  0  0  0
   10.5647    7.6916    2.5306 H   0  0  0  0  0  0  0  0  0  0  0  0
    9.6702    5.4352    1.9429 H   0  0  0  0  0  0  0  0  0  0  0  0
    8.6131   -6.9106   -1.5435 N   0  0  0  0  0  0  0  0  0  0  0  0
    8.8121   -5.9013   -1.1392 N   0  0  0  0  0  0  0  0  0  0  0  0
   12.6967    7.8816    3.8019 H   0  0  0  0  0  0  0  0  0  0  0  0
   13.9147    5.8237    4.4764 H   0  0  0  0  0  0  0  0  0  0  0  0
   13.0205    3.5880    3.8845 H   0  0  0  0  0  0  0  0  0  0  0  0
   10.6756    3.1852    2.5655 O   0  0  0  0  0  0  0  0  0  0  0  0
   11.3891    2.1115    2.1005 C   0  0  0  0  0  0  0  0  0  0  0  0
   12.5837    2.1012    1.9338 O   0  0  0  0  0  0  0  0  0  0  0  0
   10.4475    0.9635    1.8301 C   0  0  0  0  0  0  0  0  0  0  0  0
    9.8904    0.7127    2.7375 H   0  0  0  0  0  0  0  0  0  0  0  0
    9.7166    1.2505    1.0682 H   0  0  0  0  0  0  0  0  0  0  0  0
   11.0186    0.1002    1.4907 H   0  0  0  0  0  0  0  0  0  0  0  0
  1  6  1  0  0  0  0
  2  1  2  0  0  0  0
  2  3  1  0  0  0  0
  3  4  2  0  0  0  0
  4 13  1  0  0  0  0
  4  5  1  0  0  0  0
  5 12  1  0  0  0  0
  6 11  1  0  0  0  0
  6  5  2  0  0  0  0
  7  1  1  0  0  0  0
  8  2  1  0  0  0  0
  9 10  3  0  0  0  0
 14  3  1  0  0  0  0
 15 14  1  0  0  0  0
 16 15  2  0  0  0  0
 17 15  1  0  0  0  0
 17 18  1  0  0  0  0
 19 17  1  0  0  0  0
 20 17  1  0  0  0  0
M  END
