Coordinates from ORCA-job Ph-N2-OAc-B3LYPG-6-31G_dp-MTMO-d009-169-n800
 OpenBabel09051908423D

 20 19  0  0  0  0  0  0  0  0999 V2000
   11.0985    6.9334    2.8854 C   0  0  0  0  0  0  0  0  0  0  0  0
   10.6295    5.6681    2.5333 C   0  0  0  0  0  0  0  0  0  0  0  0
   11.3441    4.5375    2.9280 C   0  0  0  0  0  0  0  0  0  0  0  0
   12.5185    4.6488    3.6734 C   0  0  0  0  0  0  0  0  0  0  0  0
   12.9773    5.9223    4.0148 C   0  0  0  0  0  0  0  0  0  0  0  0
   12.2754    7.0643    3.6250 C   0  0  0  0  0  0  0  0  0  0  0  0
   10.5428    7.8147    2.5797 H   0  0  0  0  0  0  0  0  0  0  0  0
    9.7152    5.5406    1.9631 H   0  0  0  0  0  0  0  0  0  0  0  0
    8.0707   -8.2000   -2.0343 N   0  0  0  0  0  0  0  0  0  0  0  0
    8.3165   -7.2163   -1.5944 N   0  0  0  0  0  0  0  0  0  0  0  0
   12.6420    8.0491    3.8977 H   0  0  0  0  0  0  0  0  0  0  0  0
   13.8936    6.0175    4.5899 H   0  0  0  0  0  0  0  0  0  0  0  0
   13.0659    3.7640    3.9693 H   0  0  0  0  0  0  0  0  0  0  0  0
   10.7606    3.3120    2.5975 O   0  0  0  0  0  0  0  0  0  0  0  0
   11.5099    2.2588    2.1421 C   0  0  0  0  0  0  0  0  0  0  0  0
   12.7077    2.2785    2.0014 O   0  0  0  0  0  0  0  0  0  0  0  0
   10.6028    1.0899    1.8448 C   0  0  0  0  0  0  0  0  0  0  0  0
   10.0355    0.8172    2.7396 H   0  0  0  0  0  0  0  0  0  0  0  0
    9.8789    1.3650    1.0719 H   0  0  0  0  0  0  0  0  0  0  0  0
   11.2020    0.2442    1.5093 H   0  0  0  0  0  0  0  0  0  0  0  0
  1  6  1  0  0  0  0
  2  1  2  0  0  0  0
  2  3  1  0  0  0  0
  3  4  2  0  0  0  0
  4 13  1  0  0  0  0
  4  5  1  0  0  0  0
  5 12  1  0  0  0  0
  6 11  1  0  0  0  0
  6  5  2  0  0  0  0
  7  1  1  0  0  0  0
  8  2  1  0  0  0  0
  9 10  3  0  0  0  0
 14  3  1  0  0  0  0
 15 14  1  0  0  0  0
 16 15  2  0  0  0  0
 17 15  1  0  0  0  0
 17 18  1  0  0  0  0
 19 17  1  0  0  0  0
 20 17  1  0  0  0  0
M  END
