Coordinates from ORCA-job Ph-N2-OAc-B3LYPG-6-31G_dp-MTMO-d009-169-n800
 OpenBabel09051908423D

 20 19  0  0  0  0  0  0  0  0999 V2000
   11.2828    6.4860    2.7230 C   0  0  0  0  0  0  0  0  0  0  0  0
   10.5802    5.3150    2.4400 C   0  0  0  0  0  0  0  0  0  0  0  0
   11.1466    4.0815    2.7598 C   0  0  0  0  0  0  0  0  0  0  0  0
   12.4029    3.9975    3.3617 C   0  0  0  0  0  0  0  0  0  0  0  0
   13.0957    5.1782    3.6352 C   0  0  0  0  0  0  0  0  0  0  0  0
   12.5437    6.4212    3.3191 C   0  0  0  0  0  0  0  0  0  0  0  0
   10.8433    7.4476    2.4753 H   0  0  0  0  0  0  0  0  0  0  0  0
    9.5978    5.3401    1.9808 H   0  0  0  0  0  0  0  0  0  0  0  0
   10.5669   -3.8460   -0.4427 N   0  0  0  0  0  0  0  0  0  0  0  0
   10.3536   -2.8911    0.0712 N   0  0  0  0  0  0  0  0  0  0  0  0
   13.0916    7.3326    3.5378 H   0  0  0  0  0  0  0  0  0  0  0  0
   14.0755    5.1208    4.0995 H   0  0  0  0  0  0  0  0  0  0  0  0
   12.8325    3.0339    3.6004 H   0  0  0  0  0  0  0  0  0  0  0  0
   10.3416    2.9669    2.5134 O   0  0  0  0  0  0  0  0  0  0  0  0
   10.8556    1.8126    1.9806 C   0  0  0  0  0  0  0  0  0  0  0  0
   12.0143    1.6497    1.6880 O   0  0  0  0  0  0  0  0  0  0  0  0
    9.7501    0.7975    1.8233 C   0  0  0  0  0  0  0  0  0  0  0  0
    9.3033    0.5806    2.7980 H   0  0  0  0  0  0  0  0  0  0  0  0
    8.9575    1.2007    1.1860 H   0  0  0  0  0  0  0  0  0  0  0  0
   10.1521   -0.1160    1.3869 H   0  0  0  0  0  0  0  0  0  0  0  0
  1  6  1  0  0  0  0
  2  1  2  0  0  0  0
  2  3  1  0  0  0  0
  3  4  2  0  0  0  0
  4 13  1  0  0  0  0
  4  5  1  0  0  0  0
  5 12  1  0  0  0  0
  6 11  1  0  0  0  0
  6  5  2  0  0  0  0
  7  1  1  0  0  0  0
  8  2  1  0  0  0  0
  9 10  3  0  0  0  0
 14  3  1  0  0  0  0
 15 14  1  0  0  0  0
 16 15  2  0  0  0  0
 17 15  1  0  0  0  0
 17 18  1  0  0  0  0
 19 17  1  0  0  0  0
 20 17  1  0  0  0  0
M  END
