Coordinates from ORCA-job Ph-N2-OAc-B3LYPG-6-31G_dp-MTMO-d009-169-n800
 OpenBabel09051908423D

 20 19  0  0  0  0  0  0  0  0999 V2000
   11.0944    6.9121    2.8767 C   0  0  0  0  0  0  0  0  0  0  0  0
   10.6239    5.6472    2.5255 C   0  0  0  0  0  0  0  0  0  0  0  0
   11.3378    4.5161    2.9199 C   0  0  0  0  0  0  0  0  0  0  0  0
   12.5131    4.6265    3.6642 C   0  0  0  0  0  0  0  0  0  0  0  0
   12.9735    5.8997    4.0046 C   0  0  0  0  0  0  0  0  0  0  0  0
   12.2722    7.0422    3.6150 C   0  0  0  0  0  0  0  0  0  0  0  0
   10.5393    7.7939    2.5712 H   0  0  0  0  0  0  0  0  0  0  0  0
    9.7090    5.5203    1.9563 H   0  0  0  0  0  0  0  0  0  0  0  0
    8.1323   -8.0056   -1.9606 N   0  0  0  0  0  0  0  0  0  0  0  0
    8.3747   -7.0204   -1.5221 N   0  0  0  0  0  0  0  0  0  0  0  0
   12.6400    8.0267    3.8871 H   0  0  0  0  0  0  0  0  0  0  0  0
   13.8903    5.9942    4.5788 H   0  0  0  0  0  0  0  0  0  0  0  0
   13.0599    3.7413    3.9598 H   0  0  0  0  0  0  0  0  0  0  0  0
   10.7528    3.2910    2.5905 O   0  0  0  0  0  0  0  0  0  0  0  0
   11.5006    2.2368    2.1348 C   0  0  0  0  0  0  0  0  0  0  0  0
   12.6983    2.2553    1.9929 O   0  0  0  0  0  0  0  0  0  0  0  0
   10.5920    1.0687    1.8389 C   0  0  0  0  0  0  0  0  0  0  0  0
   10.0254    0.7970    2.7343 H   0  0  0  0  0  0  0  0  0  0  0  0
    9.8678    1.3441    1.0665 H   0  0  0  0  0  0  0  0  0  0  0  0
   11.1901    0.2223    1.5033 H   0  0  0  0  0  0  0  0  0  0  0  0
  1  6  1  0  0  0  0
  2  1  2  0  0  0  0
  2  3  1  0  0  0  0
  3  4  2  0  0  0  0
  4 13  1  0  0  0  0
  4  5  1  0  0  0  0
  5 12  1  0  0  0  0
  6 11  1  0  0  0  0
  6  5  2  0  0  0  0
  7  1  1  0  0  0  0
  8  2  1  0  0  0  0
  9 10  3  0  0  0  0
 14  3  1  0  0  0  0
 15 14  1  0  0  0  0
 16 15  2  0  0  0  0
 17 15  1  0  0  0  0
 17 18  1  0  0  0  0
 19 17  1  0  0  0  0
 20 17  1  0  0  0  0
M  END
