Coordinates from ORCA-job Ph-N2-OAc-B3LYPG-6-31G_dp-MTMO-d009-169-n800
 OpenBabel09051908423D

 20 19  0  0  0  0  0  0  0  0999 V2000
   11.9516    5.7443    2.2304 C   0  0  0  0  0  0  0  0  0  0  0  0
   10.8662    4.8792    2.0915 C   0  0  0  0  0  0  0  0  0  0  0  0
   10.9243    3.6084    2.6627 C   0  0  0  0  0  0  0  0  0  0  0  0
   12.0477    3.1870    3.3755 C   0  0  0  0  0  0  0  0  0  0  0  0
   13.1280    4.0628    3.5022 C   0  0  0  0  0  0  0  0  0  0  0  0
   13.0871    5.3376    2.9343 C   0  0  0  0  0  0  0  0  0  0  0  0
   11.9075    6.7346    1.7874 H   0  0  0  0  0  0  0  0  0  0  0  0
    9.9719    5.1736    1.5524 H   0  0  0  0  0  0  0  0  0  0  0  0
   13.0159    1.3898   -0.1437 N   0  0  0  0  0  0  0  0  0  0  0  0
   13.8481    1.1989    0.5579 N   0  0  0  0  0  0  0  0  0  0  0  0
   13.9334    6.0095    3.0415 H   0  0  0  0  0  0  0  0  0  0  0  0
   14.0078    3.7402    4.0512 H   0  0  0  0  0  0  0  0  0  0  0  0
   12.0823    2.1972    3.8100 H   0  0  0  0  0  0  0  0  0  0  0  0
    9.7637    2.8402    2.5389 O   0  0  0  0  0  0  0  0  0  0  0  0
    9.8149    1.5002    2.2613 C   0  0  0  0  0  0  0  0  0  0  0  0
   10.8319    0.8671    2.1156 O   0  0  0  0  0  0  0  0  0  0  0  0
    8.4122    0.9533    2.1612 C   0  0  0  0  0  0  0  0  0  0  0  0
    7.8577    1.1648    3.0804 H   0  0  0  0  0  0  0  0  0  0  0  0
    7.8795    1.4425    1.3401 H   0  0  0  0  0  0  0  0  0  0  0  0
    8.4559   -0.1212    1.9867 H   0  0  0  0  0  0  0  0  0  0  0  0
  1  6  1  0  0  0  0
  2  1  2  0  0  0  0
  2  3  1  0  0  0  0
  3  4  2  0  0  0  0
  4  5  1  0  0  0  0
  4 13  1  0  0  0  0
  5 12  1  0  0  0  0
  6 11  1  0  0  0  0
  6  5  2  0  0  0  0
  7  1  1  0  0  0  0
  8  2  1  0  0  0  0
  9 10  3  0  0  0  0
 14  3  1  0  0  0  0
 15 14  1  0  0  0  0
 16 15  2  0  0  0  0
 17 15  1  0  0  0  0
 17 18  1  0  0  0  0
 19 17  1  0  0  0  0
 20 17  1  0  0  0  0
M  END
