Coordinates from ORCA-job Ph-N2-OAc-B3LYPG-6-31G_dp-MTMO-d009-169-n800
 OpenBabel09051908423D

 20 19  0  0  0  0  0  0  0  0999 V2000
   11.1197    7.0213    2.9210 C   0  0  0  0  0  0  0  0  0  0  0  0
   10.6535    5.7557    2.5666 C   0  0  0  0  0  0  0  0  0  0  0  0
   11.3690    4.6258    2.9614 C   0  0  0  0  0  0  0  0  0  0  0  0
   12.5418    4.7381    3.7093 C   0  0  0  0  0  0  0  0  0  0  0  0
   12.9979    6.0120    4.0530 C   0  0  0  0  0  0  0  0  0  0  0  0
   12.2950    7.1533    3.6631 C   0  0  0  0  0  0  0  0  0  0  0  0
   10.5633    7.9022    2.6152 H   0  0  0  0  0  0  0  0  0  0  0  0
    9.7405    5.6274    1.9945 H   0  0  0  0  0  0  0  0  0  0  0  0
    7.8366   -8.9972   -2.3363 N   0  0  0  0  0  0  0  0  0  0  0  0
    8.0899   -8.0163   -1.8944 N   0  0  0  0  0  0  0  0  0  0  0  0
   12.6595    8.1383    3.9377 H   0  0  0  0  0  0  0  0  0  0  0  0
   13.9129    6.1079    4.6301 H   0  0  0  0  0  0  0  0  0  0  0  0
   13.0900    3.8539    4.0053 H   0  0  0  0  0  0  0  0  0  0  0  0
   10.7881    3.3998    2.6284 O   0  0  0  0  0  0  0  0  0  0  0  0
   11.5401    2.3483    2.1732 C   0  0  0  0  0  0  0  0  0  0  0  0
   12.7381    2.3700    2.0349 O   0  0  0  0  0  0  0  0  0  0  0  0
   10.6354    1.1783    1.8726 C   0  0  0  0  0  0  0  0  0  0  0  0
   10.0669    0.9035    2.7660 H   0  0  0  0  0  0  0  0  0  0  0  0
    9.9126    1.4532    1.0987 H   0  0  0  0  0  0  0  0  0  0  0  0
   11.2367    0.3341    1.5372 H   0  0  0  0  0  0  0  0  0  0  0  0
  1  6  1  0  0  0  0
  2  1  2  0  0  0  0
  2  3  1  0  0  0  0
  3  4  2  0  0  0  0
  4 13  1  0  0  0  0
  4  5  1  0  0  0  0
  5 12  1  0  0  0  0
  6 11  1  0  0  0  0
  6  5  2  0  0  0  0
  7  1  1  0  0  0  0
  8  2  1  0  0  0  0
  9 10  3  0  0  0  0
 14  3  1  0  0  0  0
 15 14  1  0  0  0  0
 16 15  2  0  0  0  0
 17 15  1  0  0  0  0
 17 18  1  0  0  0  0
 19 17  1  0  0  0  0
 20 17  1  0  0  0  0
M  END
