Coordinates from ORCA-job Ph-N2-OAc-B3LYPG-6-31G_dp-MTMO-d009-169-n800
 OpenBabel09051908423D

 20 19  0  0  0  0  0  0  0  0999 V2000
   12.0869    5.5976    2.0852 C   0  0  0  0  0  0  0  0  0  0  0  0
   10.9867    4.7513    1.9432 C   0  0  0  0  0  0  0  0  0  0  0  0
   10.9489    3.5523    2.6538 C   0  0  0  0  0  0  0  0  0  0  0  0
   11.9891    3.1848    3.5081 C   0  0  0  0  0  0  0  0  0  0  0  0
   13.0862    4.0389    3.6353 C   0  0  0  0  0  0  0  0  0  0  0  0
   13.1411    5.2424    2.9291 C   0  0  0  0  0  0  0  0  0  0  0  0
   12.1174    6.5334    1.5353 H   0  0  0  0  0  0  0  0  0  0  0  0
   10.1548    5.0065    1.2952 H   0  0  0  0  0  0  0  0  0  0  0  0
   12.6445    1.9993   -0.0684 N   0  0  0  0  0  0  0  0  0  0  0  0
   13.6777    1.8065    0.2729 N   0  0  0  0  0  0  0  0  0  0  0  0
   13.9990    5.8992    3.0376 H   0  0  0  0  0  0  0  0  0  0  0  0
   13.9029    3.7572    4.2937 H   0  0  0  0  0  0  0  0  0  0  0  0
   11.9481    2.2485    4.0489 H   0  0  0  0  0  0  0  0  0  0  0  0
    9.7793    2.8005    2.5162 O   0  0  0  0  0  0  0  0  0  0  0  0
    9.8265    1.4435    2.3322 C   0  0  0  0  0  0  0  0  0  0  0  0
   10.8418    0.7930    2.2884 O   0  0  0  0  0  0  0  0  0  0  0  0
    8.4247    0.9054    2.1866 C   0  0  0  0  0  0  0  0  0  0  0  0
    7.8159    1.1963    3.0479 H   0  0  0  0  0  0  0  0  0  0  0  0
    7.9540    1.3331    1.2961 H   0  0  0  0  0  0  0  0  0  0  0  0
    8.4620   -0.1801    2.1003 H   0  0  0  0  0  0  0  0  0  0  0  0
  1  6  1  0  0  0  0
  2  1  2  0  0  0  0
  2  3  1  0  0  0  0
  3  4  2  0  0  0  0
  4  5  1  0  0  0  0
  4 13  1  0  0  0  0
  5 12  1  0  0  0  0
  6 11  1  0  0  0  0
  6  5  2  0  0  0  0
  7  1  1  0  0  0  0
  8  2  1  0  0  0  0
  9 10  3  0  0  0  0
 14  3  1  0  0  0  0
 15 14  1  0  0  0  0
 16 15  2  0  0  0  0
 17 15  1  0  0  0  0
 17 18  1  0  0  0  0
 19 17  1  0  0  0  0
 20 17  1  0  0  0  0
M  END
