Coordinates from ORCA-job Ph-N2-OAc-B3LYPG-6-31G_dp-MTMO-d009-169-n800
 OpenBabel09051908423D

 20 19  0  0  0  0  0  0  0  0999 V2000
   11.2657    6.5056    2.7384 C   0  0  0  0  0  0  0  0  0  0  0  0
   10.5786    5.3276    2.4466 C   0  0  0  0  0  0  0  0  0  0  0  0
   11.1580    4.0995    2.7643 C   0  0  0  0  0  0  0  0  0  0  0  0
   12.4119    4.0279    3.3728 C   0  0  0  0  0  0  0  0  0  0  0  0
   13.0890    5.2157    3.6550 C   0  0  0  0  0  0  0  0  0  0  0  0
   12.5240    6.4533    3.3411 C   0  0  0  0  0  0  0  0  0  0  0  0
   10.8160    7.4629    2.4924 H   0  0  0  0  0  0  0  0  0  0  0  0
    9.5984    5.3429    1.9823 H   0  0  0  0  0  0  0  0  0  0  0  0
   10.4032   -4.0342   -0.4813 N   0  0  0  0  0  0  0  0  0  0  0  0
   10.2577   -3.0586    0.0173 N   0  0  0  0  0  0  0  0  0  0  0  0
   13.0597    7.3702    3.5666 H   0  0  0  0  0  0  0  0  0  0  0  0
   14.0669    5.1679    4.1243 H   0  0  0  0  0  0  0  0  0  0  0  0
   12.8518    3.0685    3.6096 H   0  0  0  0  0  0  0  0  0  0  0  0
   10.3672    2.9768    2.5080 O   0  0  0  0  0  0  0  0  0  0  0  0
   10.8976    1.8280    1.9795 C   0  0  0  0  0  0  0  0  0  0  0  0
   12.0609    1.6757    1.6994 O   0  0  0  0  0  0  0  0  0  0  0  0
    9.8027    0.8035    1.8081 C   0  0  0  0  0  0  0  0  0  0  0  0
    9.3392    0.5889    2.7755 H   0  0  0  0  0  0  0  0  0  0  0  0
    9.0195    1.1970    1.1534 H   0  0  0  0  0  0  0  0  0  0  0  0
   10.2193   -0.1095    1.3844 H   0  0  0  0  0  0  0  0  0  0  0  0
  1  6  1  0  0  0  0
  2  1  2  0  0  0  0
  2  3  1  0  0  0  0
  3  4  2  0  0  0  0
  4 13  1  0  0  0  0
  4  5  1  0  0  0  0
  5 12  1  0  0  0  0
  6 11  1  0  0  0  0
  6  5  2  0  0  0  0
  7  1  1  0  0  0  0
  8  2  1  0  0  0  0
  9 10  3  0  0  0  0
 14  3  1  0  0  0  0
 15 14  1  0  0  0  0
 16 15  2  0  0  0  0
 17 15  1  0  0  0  0
 17 18  1  0  0  0  0
 19 17  1  0  0  0  0
 20 17  1  0  0  0  0
M  END
