Coordinates from ORCA-job Ph-N2-OAc-B3LYPG-6-31G_dp-MTMO-d009-169-n800
 OpenBabel09051908423D

 20 19  0  0  0  0  0  0  0  0999 V2000
   11.9485    5.7470    2.2337 C   0  0  0  0  0  0  0  0  0  0  0  0
   10.8632    4.8819    2.0952 C   0  0  0  0  0  0  0  0  0  0  0  0
   10.9231    3.6099    2.6638 C   0  0  0  0  0  0  0  0  0  0  0  0
   12.0481    3.1875    3.3734 C   0  0  0  0  0  0  0  0  0  0  0  0
   13.1284    4.0634    3.4996 C   0  0  0  0  0  0  0  0  0  0  0  0
   13.0856    5.3394    2.9344 C   0  0  0  0  0  0  0  0  0  0  0  0
   11.9030    6.7382    1.7928 H   0  0  0  0  0  0  0  0  0  0  0  0
    9.9677    5.1771    1.5584 H   0  0  0  0  0  0  0  0  0  0  0  0
   13.0281    1.3744   -0.1488 N   0  0  0  0  0  0  0  0  0  0  0  0
   13.8565    1.1861    0.5579 N   0  0  0  0  0  0  0  0  0  0  0  0
   13.9319    6.0114    3.0412 H   0  0  0  0  0  0  0  0  0  0  0  0
   14.0096    3.7403    4.0461 H   0  0  0  0  0  0  0  0  0  0  0  0
   12.0837    2.1968    3.8056 H   0  0  0  0  0  0  0  0  0  0  0  0
    9.7627    2.8414    2.5402 O   0  0  0  0  0  0  0  0  0  0  0  0
    9.8140    1.5016    2.2616 C   0  0  0  0  0  0  0  0  0  0  0  0
   10.8310    0.8685    2.1156 O   0  0  0  0  0  0  0  0  0  0  0  0
    8.4114    0.9547    2.1609 C   0  0  0  0  0  0  0  0  0  0  0  0
    7.8566    1.1659    3.0800 H   0  0  0  0  0  0  0  0  0  0  0  0
    7.8789    1.4440    1.3397 H   0  0  0  0  0  0  0  0  0  0  0  0
    8.4552   -0.1198    1.9862 H   0  0  0  0  0  0  0  0  0  0  0  0
  1  6  1  0  0  0  0
  2  1  2  0  0  0  0
  2  3  1  0  0  0  0
  3  4  2  0  0  0  0
  4  5  1  0  0  0  0
  4 13  1  0  0  0  0
  5 12  1  0  0  0  0
  6 11  1  0  0  0  0
  6  5  2  0  0  0  0
  7  1  1  0  0  0  0
  8  2  1  0  0  0  0
  9 10  3  0  0  0  0
 14  3  1  0  0  0  0
 15 14  1  0  0  0  0
 16 15  2  0  0  0  0
 17 15  1  0  0  0  0
 17 18  1  0  0  0  0
 19 17  1  0  0  0  0
 20 17  1  0  0  0  0
M  END
