Coordinates from ORCA-job Ph-N2-OAc-B3LYPG-6-31G_dp-MTMO-d009-169-n800
 OpenBabel09051908423D

 20 20  0  0  0  0  0  0  0  0999 V2000
   12.5239    5.9815    2.2402 C   0  0  0  0  0  0  0  0  0  0  0  0
   12.2338    5.1196    1.1841 C   0  0  0  0  0  0  0  0  0  0  0  0
   12.0409    3.7643    1.4564 C   0  0  0  0  0  0  0  0  0  0  0  0
   12.1964    3.2358    2.7414 C   0  0  0  0  0  0  0  0  0  0  0  0
   12.5170    4.1093    3.7787 C   0  0  0  0  0  0  0  0  0  0  0  0
   12.6676    5.4776    3.5354 C   0  0  0  0  0  0  0  0  0  0  0  0
   12.6550    7.0418    2.0478 H   0  0  0  0  0  0  0  0  0  0  0  0
   12.1404    5.4823    0.1661 H   0  0  0  0  0  0  0  0  0  0  0  0
   11.8016    2.8944    0.3332 N   0  0  0  0  0  0  0  0  0  0  0  0
   11.0090    2.0223    0.1839 N   0  0  0  0  0  0  0  0  0  0  0  0
   12.9112    6.1489    4.3532 H   0  0  0  0  0  0  0  0  0  0  0  0
   12.6500    3.7172    4.7824 H   0  0  0  0  0  0  0  0  0  0  0  0
   12.0930    2.1682    2.9023 H   0  0  0  0  0  0  0  0  0  0  0  0
    9.8524    1.9677    1.3796 O   0  0  0  0  0  0  0  0  0  0  0  0
    9.9432    0.8300    2.0725 C   0  0  0  0  0  0  0  0  0  0  0  0
   10.9484    0.1437    2.1368 O   0  0  0  0  0  0  0  0  0  0  0  0
    8.6434    0.5102    2.7887 C   0  0  0  0  0  0  0  0  0  0  0  0
    8.2423    1.3991    3.2827 H   0  0  0  0  0  0  0  0  0  0  0  0
    7.9004    0.1789    2.0562 H   0  0  0  0  0  0  0  0  0  0  0  0
    8.8176   -0.2834    3.5158 H   0  0  0  0  0  0  0  0  0  0  0  0
  1  6  2  0  0  0  0
  2  3  2  0  0  0  0
  2  1  1  0  0  0  0
  3  4  1  0  0  0  0
  4 13  1  0  0  0  0
  4  5  2  0  0  0  0
  5 12  1  0  0  0  0
  6  5  1  0  0  0  0
  6 11  1  0  0  0  0
  7  1  1  0  0  0  0
  8  2  1  0  0  0  0
  9  3  1  0  0  0  0
 10  9  1  0  0  0  0
 10 14  1  0  0  0  0
 14 15  1  0  0  0  0
 15 16  2  0  0  0  0
 15 17  1  0  0  0  0
 17 18  1  0  0  0  0
 17 20  1  0  0  0  0
 19 17  1  0  0  0  0
M  RAD  2   9   2  10   2
M  END
