Coordinates from ORCA-job Ph-N2-OAc-B3LYPG-6-31G_dp-MTMO-d009-169-n800
 OpenBabel09051908423D

 20 19  0  0  0  0  0  0  0  0999 V2000
   11.2111    6.6161    2.7993 C   0  0  0  0  0  0  0  0  0  0  0  0
   10.5827    5.4128    2.4801 C   0  0  0  0  0  0  0  0  0  0  0  0
   11.2063    4.2073    2.8009 C   0  0  0  0  0  0  0  0  0  0  0  0
   12.4468    4.1833    3.4399 C   0  0  0  0  0  0  0  0  0  0  0  0
   13.0651    5.3961    3.7493 C   0  0  0  0  0  0  0  0  0  0  0  0
   12.4555    6.6115    3.4325 C   0  0  0  0  0  0  0  0  0  0  0  0
   10.7268    7.5557    2.5509 H   0  0  0  0  0  0  0  0  0  0  0  0
    9.6141    5.3910    1.9922 H   0  0  0  0  0  0  0  0  0  0  0  0
    9.7464   -5.0991   -0.7617 N   0  0  0  0  0  0  0  0  0  0  0  0
    9.7969   -4.0709   -0.3597 N   0  0  0  0  0  0  0  0  0  0  0  0
   12.9456    7.5482    3.6795 H   0  0  0  0  0  0  0  0  0  0  0  0
   14.0325    5.3854    4.2421 H   0  0  0  0  0  0  0  0  0  0  0  0
   12.9217    3.2415    3.6791 H   0  0  0  0  0  0  0  0  0  0  0  0
   10.4703    3.0551    2.5145 O   0  0  0  0  0  0  0  0  0  0  0  0
   11.0620    1.9342    1.9929 C   0  0  0  0  0  0  0  0  0  0  0  0
   12.2381    1.8303    1.7465 O   0  0  0  0  0  0  0  0  0  0  0  0
   10.0147    0.8690    1.7772 C   0  0  0  0  0  0  0  0  0  0  0  0
    9.5127    0.6406    2.7218 H   0  0  0  0  0  0  0  0  0  0  0  0
    9.2509    1.2293    1.0816 H   0  0  0  0  0  0  0  0  0  0  0  0
   10.4872   -0.0278    1.3787 H   0  0  0  0  0  0  0  0  0  0  0  0
  1  6  1  0  0  0  0
  2  1  2  0  0  0  0
  2  3  1  0  0  0  0
  3  4  2  0  0  0  0
  4 13  1  0  0  0  0
  4  5  1  0  0  0  0
  5 12  1  0  0  0  0
  6 11  1  0  0  0  0
  6  5  2  0  0  0  0
  7  1  1  0  0  0  0
  8  2  1  0  0  0  0
  9 10  3  0  0  0  0
 14  3  1  0  0  0  0
 15 14  1  0  0  0  0
 16 15  2  0  0  0  0
 17 15  1  0  0  0  0
 17 18  1  0  0  0  0
 19 17  1  0  0  0  0
 20 17  1  0  0  0  0
M  END
