Coordinates from ORCA-job Ph-N2-OAc-B3LYPG-6-31G_dp-MTMO-d009-169-n800
 OpenBabel09051908423D

 20 19  0  0  0  0  0  0  0  0999 V2000
   11.6813    6.0018    2.6131 C   0  0  0  0  0  0  0  0  0  0  0  0
   10.6366    5.0836    2.5076 C   0  0  0  0  0  0  0  0  0  0  0  0
   10.9001    3.7255    2.6772 C   0  0  0  0  0  0  0  0  0  0  0  0
   12.1881    3.2668    2.9537 C   0  0  0  0  0  0  0  0  0  0  0  0
   13.2239    4.1970    3.0526 C   0  0  0  0  0  0  0  0  0  0  0  0
   12.9782    5.5611    2.8837 C   0  0  0  0  0  0  0  0  0  0  0  0
   11.4787    7.0608    2.4815 H   0  0  0  0  0  0  0  0  0  0  0  0
    9.6207    5.4023    2.2993 H   0  0  0  0  0  0  0  0  0  0  0  0
   13.6594   -0.3065    0.5081 N   0  0  0  0  0  0  0  0  0  0  0  0
   13.7036    0.1160    1.5281 N   0  0  0  0  0  0  0  0  0  0  0  0
   13.7920    6.2754    2.9642 H   0  0  0  0  0  0  0  0  0  0  0  0
   14.2299    3.8476    3.2657 H   0  0  0  0  0  0  0  0  0  0  0  0
   12.3801    2.2089    3.0791 H   0  0  0  0  0  0  0  0  0  0  0  0
    9.7896    2.8776    2.6365 O   0  0  0  0  0  0  0  0  0  0  0  0
    9.8143    1.7138    1.9142 C   0  0  0  0  0  0  0  0  0  0  0  0
   10.7597    1.3248    1.2732 O   0  0  0  0  0  0  0  0  0  0  0  0
    8.4849    1.0115    2.0461 C   0  0  0  0  0  0  0  0  0  0  0  0
    8.2768    0.7993    3.0987 H   0  0  0  0  0  0  0  0  0  0  0  0
    7.6818    1.6576    1.6797 H   0  0  0  0  0  0  0  0  0  0  0  0
    8.5077    0.0845    1.4753 H   0  0  0  0  0  0  0  0  0  0  0  0
  1  6  1  0  0  0  0
  2  1  2  0  0  0  0
  2  3  1  0  0  0  0
  3  4  2  0  0  0  0
  4  5  1  0  0  0  0
  4 13  1  0  0  0  0
  5 12  1  0  0  0  0
  6 11  1  0  0  0  0
  6  5  2  0  0  0  0
  7  1  1  0  0  0  0
  8  2  1  0  0  0  0
  9 10  3  0  0  0  0
 14  3  1  0  0  0  0
 15 17  1  0  0  0  0
 15 14  1  0  0  0  0
 16 15  2  0  0  0  0
 17 18  1  0  0  0  0
 19 17  1  0  0  0  0
 20 17  1  0  0  0  0
M  END
