Coordinates from ORCA-job Ph-N2-OAc-B3LYPG-6-31G_dp-MTMO-d009-169-n800
 OpenBabel09051908423D

 20 19  0  0  0  0  0  0  0  0999 V2000
   12.3956    5.9445    2.2596 C   0  0  0  0  0  0  0  0  0  0  0  0
   11.9760    5.0320    1.3194 C   0  0  0  0  0  0  0  0  0  0  0  0
   12.0728    3.5835    1.5525 C   0  0  0  0  0  0  0  0  0  0  0  0
   12.6434    3.2097    2.8576 C   0  0  0  0  0  0  0  0  0  0  0  0
   13.0622    4.1708    3.7524 C   0  0  0  0  0  0  0  0  0  0  0  0
   12.9504    5.5374    3.4798 C   0  0  0  0  0  0  0  0  0  0  0  0
   12.2889    7.0016    2.0332 H   0  0  0  0  0  0  0  0  0  0  0  0
   11.5307    5.3285    0.3756 H   0  0  0  0  0  0  0  0  0  0  0  0
   11.7760    2.9324    0.9124 N   0  0  0  0  0  0  0  0  0  0  0  0
   11.3590    2.1362    0.1765 N   0  0  0  0  0  0  0  0  0  0  0  0
   13.2865    6.2726    4.2023 H   0  0  0  0  0  0  0  0  0  0  0  0
   13.4803    3.8359    4.6971 H   0  0  0  0  0  0  0  0  0  0  0  0
   12.6798    2.1469    3.0521 H   0  0  0  0  0  0  0  0  0  0  0  0
    9.4543    1.6510    0.8999 O   0  0  0  0  0  0  0  0  0  0  0  0
    9.6115    1.1189    2.0643 C   0  0  0  0  0  0  0  0  0  0  0  0
   10.6327    1.1493    2.7678 O   0  0  0  0  0  0  0  0  0  0  0  0
    8.3668    0.3631    2.5518 C   0  0  0  0  0  0  0  0  0  0  0  0
    7.4495    0.8665    2.2392 H   0  0  0  0  0  0  0  0  0  0  0  0
    8.3685   -0.6365    2.1053 H   0  0  0  0  0  0  0  0  0  0  0  0
    8.4025    0.2653    3.6385 H   0  0  0  0  0  0  0  0  0  0  0  0
  1  6  2  0  0  0  0
  2  3  2  0  0  0  0
  2  1  1  0  0  0  0
  3  4  1  0  0  0  0
  4 13  1  0  0  0  0
  4  5  2  0  0  0  0
  5 12  1  0  0  0  0
  6  5  1  0  0  0  0
  6 11  1  0  0  0  0
  7  1  1  0  0  0  0
  8  2  1  0  0  0  0
  9  3  1  0  0  0  0
 10  9  1  0  0  0  0
 14 15  2  0  0  0  0
 15 17  1  0  0  0  0
 15 16  1  0  0  0  0
 17 20  1  0  0  0  0
 18 17  1  0  0  0  0
 19 17  1  0  0  0  0
M  RAD  3   9   2  10   3  16   2
M  END
