Coordinates from ORCA-job Ph-N2-OAc-B3LYPG-6-31G_dp-MTMO-d009-169-n800
 OpenBabel09051908423D

 20 19  0  0  0  0  0  0  0  0999 V2000
   11.6194    6.0673    2.7254 C   0  0  0  0  0  0  0  0  0  0  0  0
   10.6040    5.1191    2.6042 C   0  0  0  0  0  0  0  0  0  0  0  0
   10.9224    3.7634    2.6676 C   0  0  0  0  0  0  0  0  0  0  0  0
   12.2376    3.3363    2.8538 C   0  0  0  0  0  0  0  0  0  0  0  0
   13.2432    4.2972    2.9695 C   0  0  0  0  0  0  0  0  0  0  0  0
   12.9424    5.6593    2.9062 C   0  0  0  0  0  0  0  0  0  0  0  0
   11.3736    7.1243    2.6773 H   0  0  0  0  0  0  0  0  0  0  0  0
    9.5686    5.4117    2.4648 H   0  0  0  0  0  0  0  0  0  0  0  0
   13.4146   -0.8421    0.7234 N   0  0  0  0  0  0  0  0  0  0  0  0
   13.5331   -0.2003    1.6151 N   0  0  0  0  0  0  0  0  0  0  0  0
   13.7335    6.3972    2.9989 H   0  0  0  0  0  0  0  0  0  0  0  0
   14.2698    3.9729    3.1126 H   0  0  0  0  0  0  0  0  0  0  0  0
   12.4719    2.2806    2.8965 H   0  0  0  0  0  0  0  0  0  0  0  0
    9.8386    2.8821    2.6173 O   0  0  0  0  0  0  0  0  0  0  0  0
    9.8782    1.7469    1.8522 C   0  0  0  0  0  0  0  0  0  0  0  0
   10.8177    1.4087    1.1745 O   0  0  0  0  0  0  0  0  0  0  0  0
    8.5726    1.0024    1.9896 C   0  0  0  0  0  0  0  0  0  0  0  0
    8.3917    0.7544    3.0393 H   0  0  0  0  0  0  0  0  0  0  0  0
    7.7442    1.6350    1.6575 H   0  0  0  0  0  0  0  0  0  0  0  0
    8.6100    0.0931    1.3915 H   0  0  0  0  0  0  0  0  0  0  0  0
  1  6  2  0  0  0  0
  2  3  2  0  0  0  0
  2  1  1  0  0  0  0
  3  4  1  0  0  0  0
  4 13  1  0  0  0  0
  4  5  2  0  0  0  0
  5 12  1  0  0  0  0
  6  5  1  0  0  0  0
  6 11  1  0  0  0  0
  7  1  1  0  0  0  0
  8  2  1  0  0  0  0
  9 10  3  0  0  0  0
 14  3  1  0  0  0  0
 15 17  1  0  0  0  0
 15 14  1  0  0  0  0
 16 15  2  0  0  0  0
 17 18  1  0  0  0  0
 19 17  1  0  0  0  0
 20 17  1  0  0  0  0
M  END
