Coordinates from ORCA-job Ph-N2-OAc-B3LYPG-6-31G_dp-MTMO-d009-169-n800
 OpenBabel09051908423D

 20 19  0  0  0  0  0  0  0  0999 V2000
   11.9421    5.7550    2.2419 C   0  0  0  0  0  0  0  0  0  0  0  0
   10.8579    4.8885    2.1027 C   0  0  0  0  0  0  0  0  0  0  0  0
   10.9221    3.6138    2.6646 C   0  0  0  0  0  0  0  0  0  0  0  0
   12.0503    3.1900    3.3684 C   0  0  0  0  0  0  0  0  0  0  0  0
   13.1293    4.0673    3.4955 C   0  0  0  0  0  0  0  0  0  0  0  0
   13.0822    5.3460    2.9368 C   0  0  0  0  0  0  0  0  0  0  0  0
   11.8933    6.7483    1.8061 H   0  0  0  0  0  0  0  0  0  0  0  0
    9.9602    5.1847    1.5703 H   0  0  0  0  0  0  0  0  0  0  0  0
   13.0419    1.3287   -0.1566 N   0  0  0  0  0  0  0  0  0  0  0  0
   13.8621    1.1531    0.5628 N   0  0  0  0  0  0  0  0  0  0  0  0
   13.9276    6.0191    3.0442 H   0  0  0  0  0  0  0  0  0  0  0  0
   14.0127    3.7431    4.0375 H   0  0  0  0  0  0  0  0  0  0  0  0
   12.0891    2.1971    3.7955 H   0  0  0  0  0  0  0  0  0  0  0  0
    9.7626    2.8439    2.5407 O   0  0  0  0  0  0  0  0  0  0  0  0
    9.8148    1.5051    2.2580 C   0  0  0  0  0  0  0  0  0  0  0  0
   10.8322    0.8735    2.1079 O   0  0  0  0  0  0  0  0  0  0  0  0
    8.4126    0.9568    2.1590 C   0  0  0  0  0  0  0  0  0  0  0  0
    7.8608    1.1622    3.0813 H   0  0  0  0  0  0  0  0  0  0  0  0
    7.8765    1.4499    1.3425 H   0  0  0  0  0  0  0  0  0  0  0  0
    8.4572   -0.1166    1.9784 H   0  0  0  0  0  0  0  0  0  0  0  0
  1  6  1  0  0  0  0
  2  1  2  0  0  0  0
  2  3  1  0  0  0  0
  3  4  2  0  0  0  0
  4  5  1  0  0  0  0
  4 13  1  0  0  0  0
  5 12  1  0  0  0  0
  6 11  1  0  0  0  0
  6  5  2  0  0  0  0
  7  1  1  0  0  0  0
  8  2  1  0  0  0  0
  9 10  3  0  0  0  0
 14  3  1  0  0  0  0
 15 14  1  0  0  0  0
 16 15  2  0  0  0  0
 17 15  1  0  0  0  0
 17 18  1  0  0  0  0
 19 17  1  0  0  0  0
 20 17  1  0  0  0  0
M  END
