Coordinates from ORCA-job Ph-N2-OAc-B3LYPG-6-31G_dp-MTMO-d009-169-n800
 OpenBabel09051908423D

 20 19  0  0  0  0  0  0  0  0999 V2000
   11.1888    6.7064    2.8238 C   0  0  0  0  0  0  0  0  0  0  0  0
   10.5937    5.4877    2.4994 C   0  0  0  0  0  0  0  0  0  0  0  0
   11.2392    4.2982    2.8361 C   0  0  0  0  0  0  0  0  0  0  0  0
   12.4688    4.3052    3.4962 C   0  0  0  0  0  0  0  0  0  0  0  0
   13.0537    5.5333    3.8107 C   0  0  0  0  0  0  0  0  0  0  0  0
   12.4219    6.7330    3.4781 C   0  0  0  0  0  0  0  0  0  0  0  0
   10.6874    7.6336    2.5631 H   0  0  0  0  0  0  0  0  0  0  0  0
    9.6343    5.4416    1.9953 H   0  0  0  0  0  0  0  0  0  0  0  0
    9.3682   -5.9466   -1.0988 N   0  0  0  0  0  0  0  0  0  0  0  0
    9.4504   -4.9148   -0.7111 N   0  0  0  0  0  0  0  0  0  0  0  0
   12.8862    7.6816    3.7293 H   0  0  0  0  0  0  0  0  0  0  0  0
   14.0126    5.5468    4.3198 H   0  0  0  0  0  0  0  0  0  0  0  0
   12.9611    3.3756    3.7477 H   0  0  0  0  0  0  0  0  0  0  0  0
   10.5345    3.1286    2.5419 O   0  0  0  0  0  0  0  0  0  0  0  0
   11.1599    2.0184    2.0373 C   0  0  0  0  0  0  0  0  0  0  0  0
   12.3427    1.9379    1.8151 O   0  0  0  0  0  0  0  0  0  0  0  0
   10.1394    0.9311    1.8044 C   0  0  0  0  0  0  0  0  0  0  0  0
    9.6169    0.7009    2.7374 H   0  0  0  0  0  0  0  0  0  0  0  0
    9.3878    1.2704    1.0854 H   0  0  0  0  0  0  0  0  0  0  0  0
   10.6399    0.0406    1.4263 H   0  0  0  0  0  0  0  0  0  0  0  0
  1  6  1  0  0  0  0
  2  1  2  0  0  0  0
  2  3  1  0  0  0  0
  3  4  2  0  0  0  0
  4 13  1  0  0  0  0
  4  5  1  0  0  0  0
  5 12  1  0  0  0  0
  6 11  1  0  0  0  0
  6  5  2  0  0  0  0
  7  1  1  0  0  0  0
  8  2  1  0  0  0  0
  9 10  3  0  0  0  0
 14  3  1  0  0  0  0
 15 14  1  0  0  0  0
 16 15  2  0  0  0  0
 17 15  1  0  0  0  0
 17 18  1  0  0  0  0
 19 17  1  0  0  0  0
 20 17  1  0  0  0  0
M  END
