Coordinates from ORCA-job Ph-N2-OAc-B3LYPG-6-31G_dp-MTMO-d009-169-n800
 OpenBabel09051908423D

 20 19  0  0  0  0  0  0  0  0999 V2000
   11.2789    6.4915    2.7268 C   0  0  0  0  0  0  0  0  0  0  0  0
   10.5800    5.3188    2.4417 C   0  0  0  0  0  0  0  0  0  0  0  0
   11.1494    4.0866    2.7610 C   0  0  0  0  0  0  0  0  0  0  0  0
   12.4052    4.0055    3.3645 C   0  0  0  0  0  0  0  0  0  0  0  0
   13.0942    5.1879    3.6401 C   0  0  0  0  0  0  0  0  0  0  0  0
   12.5392    6.4296    3.3245 C   0  0  0  0  0  0  0  0  0  0  0  0
   10.8371    7.4520    2.4795 H   0  0  0  0  0  0  0  0  0  0  0  0
    9.5981    5.3416    1.9813 H   0  0  0  0  0  0  0  0  0  0  0  0
   10.5271   -3.8972   -0.4552 N   0  0  0  0  0  0  0  0  0  0  0  0
   10.3315   -2.9366    0.0553 N   0  0  0  0  0  0  0  0  0  0  0  0
   13.0842    7.3423    3.5448 H   0  0  0  0  0  0  0  0  0  0  0  0
   14.0736    5.1327    4.1055 H   0  0  0  0  0  0  0  0  0  0  0  0
   12.8371    3.0429    3.6027 H   0  0  0  0  0  0  0  0  0  0  0  0
   10.3476    2.9701    2.5121 O   0  0  0  0  0  0  0  0  0  0  0  0
   10.8655    1.8167    1.9811 C   0  0  0  0  0  0  0  0  0  0  0  0
   12.0255    1.6558    1.6922 O   0  0  0  0  0  0  0  0  0  0  0  0
    9.7622    0.7996    1.8203 C   0  0  0  0  0  0  0  0  0  0  0  0
    9.3116    0.5832    2.7934 H   0  0  0  0  0  0  0  0  0  0  0  0
    8.9719    1.2007    1.1790 H   0  0  0  0  0  0  0  0  0  0  0  0
   10.1676   -0.1138    1.3869 H   0  0  0  0  0  0  0  0  0  0  0  0
  1  6  1  0  0  0  0
  2  1  2  0  0  0  0
  2  3  1  0  0  0  0
  3  4  2  0  0  0  0
  4 13  1  0  0  0  0
  4  5  1  0  0  0  0
  5 12  1  0  0  0  0
  6 11  1  0  0  0  0
  6  5  2  0  0  0  0
  7  1  1  0  0  0  0
  8  2  1  0  0  0  0
  9 10  3  0  0  0  0
 14  3  1  0  0  0  0
 15 14  1  0  0  0  0
 16 15  2  0  0  0  0
 17 15  1  0  0  0  0
 17 18  1  0  0  0  0
 19 17  1  0  0  0  0
 20 17  1  0  0  0  0
M  END
