Coordinates from ORCA-job Ph-N2-OAc-B3LYPG-6-31G_dp-MTMO-d009-169-n800
 OpenBabel09051908423D

 20 19  0  0  0  0  0  0  0  0999 V2000
   11.2057    6.6386    2.8070 C   0  0  0  0  0  0  0  0  0  0  0  0
   10.5852    5.4317    2.4857 C   0  0  0  0  0  0  0  0  0  0  0  0
   11.2144    4.2298    2.8090 C   0  0  0  0  0  0  0  0  0  0  0  0
   12.4526    4.2128    3.4528 C   0  0  0  0  0  0  0  0  0  0  0  0
   13.0628    5.4292    3.7644 C   0  0  0  0  0  0  0  0  0  0  0  0
   12.4476    6.6411    3.4450 C   0  0  0  0  0  0  0  0  0  0  0  0
   10.7170    7.5754    2.5567 H   0  0  0  0  0  0  0  0  0  0  0  0
    9.6186    5.4044    1.9941 H   0  0  0  0  0  0  0  0  0  0  0  0
    9.6546   -5.3091   -0.8408 N   0  0  0  0  0  0  0  0  0  0  0  0
    9.7135   -4.2798   -0.4426 N   0  0  0  0  0  0  0  0  0  0  0  0
   12.9315    7.5805    3.6938 H   0  0  0  0  0  0  0  0  0  0  0  0
   14.0284    5.4240    4.2609 H   0  0  0  0  0  0  0  0  0  0  0  0
   12.9318    3.2738    3.6940 H   0  0  0  0  0  0  0  0  0  0  0  0
   10.4858    3.0736    2.5199 O   0  0  0  0  0  0  0  0  0  0  0  0
   11.0856    1.9552    2.0023 C   0  0  0  0  0  0  0  0  0  0  0  0
   12.2635    1.8566    1.7622 O   0  0  0  0  0  0  0  0  0  0  0  0
   10.0444    0.8851    1.7817 C   0  0  0  0  0  0  0  0  0  0  0  0
    9.5371    0.6562    2.7233 H   0  0  0  0  0  0  0  0  0  0  0  0
    9.2838    1.2407    1.0802 H   0  0  0  0  0  0  0  0  0  0  0  0
   10.5236   -0.0104    1.3879 H   0  0  0  0  0  0  0  0  0  0  0  0
  1  6  1  0  0  0  0
  2  1  2  0  0  0  0
  2  3  1  0  0  0  0
  3  4  2  0  0  0  0
  4 13  1  0  0  0  0
  4  5  1  0  0  0  0
  5 12  1  0  0  0  0
  6 11  1  0  0  0  0
  6  5  2  0  0  0  0
  7  1  1  0  0  0  0
  8  2  1  0  0  0  0
  9 10  3  0  0  0  0
 14  3  1  0  0  0  0
 15 14  1  0  0  0  0
 16 15  2  0  0  0  0
 17 15  1  0  0  0  0
 17 18  1  0  0  0  0
 19 17  1  0  0  0  0
 20 17  1  0  0  0  0
M  END
