Coordinates from ORCA-job Ph-N2-OAc-B3LYPG-6-31G_dp-MTMO-d009-169-n800
 OpenBabel09051908423D

 20 19  0  0  0  0  0  0  0  0999 V2000
   12.0062    5.6978    2.1795 C   0  0  0  0  0  0  0  0  0  0  0  0
   10.9212    4.8341    2.0284 C   0  0  0  0  0  0  0  0  0  0  0  0
   10.9418    3.5901    2.6582 C   0  0  0  0  0  0  0  0  0  0  0  0
   12.0273    3.1943    3.4412 C   0  0  0  0  0  0  0  0  0  0  0  0
   13.1078    4.0681    3.5792 C   0  0  0  0  0  0  0  0  0  0  0  0
   13.1040    5.3163    2.9535 C   0  0  0  0  0  0  0  0  0  0  0  0
   11.9907    6.6677    1.6916 H   0  0  0  0  0  0  0  0  0  0  0  0
   10.0555    5.1097    1.4352 H   0  0  0  0  0  0  0  0  0  0  0  0
   12.7909    1.6024   -0.1470 N   0  0  0  0  0  0  0  0  0  0  0  0
   13.7515    1.3691    0.3470 N   0  0  0  0  0  0  0  0  0  0  0  0
   13.9500    5.9871    3.0702 H   0  0  0  0  0  0  0  0  0  0  0  0
   13.9584    3.7654    4.1830 H   0  0  0  0  0  0  0  0  0  0  0  0
   12.0331    2.2245    3.9199 H   0  0  0  0  0  0  0  0  0  0  0  0
    9.7815    2.8250    2.5153 O   0  0  0  0  0  0  0  0  0  0  0  0
    9.8331    1.4730    2.3039 C   0  0  0  0  0  0  0  0  0  0  0  0
   10.8498    0.8263    2.2368 O   0  0  0  0  0  0  0  0  0  0  0  0
    8.4317    0.9320    2.1627 C   0  0  0  0  0  0  0  0  0  0  0  0
    7.8348    1.1941    3.0415 H   0  0  0  0  0  0  0  0  0  0  0  0
    7.9450    1.3828    1.2925 H   0  0  0  0  0  0  0  0  0  0  0  0
    8.4733   -0.1503    2.0448 H   0  0  0  0  0  0  0  0  0  0  0  0
  1  6  1  0  0  0  0
  2  1  2  0  0  0  0
  2  3  1  0  0  0  0
  3  4  2  0  0  0  0
  4  5  1  0  0  0  0
  4 13  1  0  0  0  0
  5 12  1  0  0  0  0
  6 11  1  0  0  0  0
  6  5  2  0  0  0  0
  7  1  1  0  0  0  0
  8  2  1  0  0  0  0
  9 10  3  0  0  0  0
 14  3  1  0  0  0  0
 15 14  1  0  0  0  0
 16 15  2  0  0  0  0
 17 15  1  0  0  0  0
 17 18  1  0  0  0  0
 19 17  1  0  0  0  0
 20 17  1  0  0  0  0
M  END
