Coordinates from ORCA-job Ph-N2-OAc-B3LYPG-6-31G_dp-MTMO-d009-169-n800
 OpenBabel09051908423D

 20 19  0  0  0  0  0  0  0  0999 V2000
   11.2317    6.5504    2.7740 C   0  0  0  0  0  0  0  0  0  0  0  0
   10.5766    5.3590    2.4640 C   0  0  0  0  0  0  0  0  0  0  0  0
   11.1821    4.1422    2.7765 C   0  0  0  0  0  0  0  0  0  0  0  0
   12.4308    4.0951    3.3981 C   0  0  0  0  0  0  0  0  0  0  0  0
   13.0757    5.2963    3.6985 C   0  0  0  0  0  0  0  0  0  0  0  0
   12.4844    6.5228    3.3899 C   0  0  0  0  0  0  0  0  0  0  0  0
   10.7615    7.4989    2.5320 H   0  0  0  0  0  0  0  0  0  0  0  0
    9.6012    5.3552    1.9894 H   0  0  0  0  0  0  0  0  0  0  0  0
   10.0555   -4.4783   -0.5558 N   0  0  0  0  0  0  0  0  0  0  0  0
   10.0515   -3.4625   -0.1201 N   0  0  0  0  0  0  0  0  0  0  0  0
   12.9953    7.4502    3.6297 H   0  0  0  0  0  0  0  0  0  0  0  0
   14.0495    5.2676    4.1780 H   0  0  0  0  0  0  0  0  0  0  0  0
   12.8914    3.1446    3.6309 H   0  0  0  0  0  0  0  0  0  0  0  0
   10.4207    3.0039    2.5007 O   0  0  0  0  0  0  0  0  0  0  0  0
   10.9838    1.8702    1.9743 C   0  0  0  0  0  0  0  0  0  0  0  0
   12.1545    1.7431    1.7133 O   0  0  0  0  0  0  0  0  0  0  0  0
    9.9132    0.8251    1.7750 C   0  0  0  0  0  0  0  0  0  0  0  0
    9.4206    0.6084    2.7273 H   0  0  0  0  0  0  0  0  0  0  0  0
    9.1464    1.1996    1.0903 H   0  0  0  0  0  0  0  0  0  0  0  0
   10.3611   -0.0822    1.3714 H   0  0  0  0  0  0  0  0  0  0  0  0
  1  6  1  0  0  0  0
  2  1  2  0  0  0  0
  2  3  1  0  0  0  0
  3  4  2  0  0  0  0
  4 13  1  0  0  0  0
  4  5  1  0  0  0  0
  5 12  1  0  0  0  0
  6 11  1  0  0  0  0
  6  5  2  0  0  0  0
  7  1  1  0  0  0  0
  8  2  1  0  0  0  0
  9 10  3  0  0  0  0
 14  3  1  0  0  0  0
 15 14  1  0  0  0  0
 16 15  2  0  0  0  0
 17 15  1  0  0  0  0
 17 18  1  0  0  0  0
 19 17  1  0  0  0  0
 20 17  1  0  0  0  0
M  END
