Coordinates from ORCA-job Ph-N2-OAc-B3LYPG-6-31G_dp-MTMO-d009-169-n800
 OpenBabel09051908423D

 20 19  0  0  0  0  0  0  0  0999 V2000
   11.2803    6.4896    2.7255 C   0  0  0  0  0  0  0  0  0  0  0  0
   10.5800    5.3176    2.4411 C   0  0  0  0  0  0  0  0  0  0  0  0
   11.1484    4.0849    2.7606 C   0  0  0  0  0  0  0  0  0  0  0  0
   12.4044    4.0028    3.3636 C   0  0  0  0  0  0  0  0  0  0  0  0
   13.0947    5.1846    3.6384 C   0  0  0  0  0  0  0  0  0  0  0  0
   12.5408    6.4268    3.3227 C   0  0  0  0  0  0  0  0  0  0  0  0
   10.8392    7.4506    2.4781 H   0  0  0  0  0  0  0  0  0  0  0  0
    9.5980    5.3411    1.9811 H   0  0  0  0  0  0  0  0  0  0  0  0
   10.5406   -3.8801   -0.4512 N   0  0  0  0  0  0  0  0  0  0  0  0
   10.3392   -2.9214    0.0605 N   0  0  0  0  0  0  0  0  0  0  0  0
   13.0867    7.3390    3.5424 H   0  0  0  0  0  0  0  0  0  0  0  0
   14.0742    5.1287    4.1035 H   0  0  0  0  0  0  0  0  0  0  0  0
   12.8355    3.0398    3.6019 H   0  0  0  0  0  0  0  0  0  0  0  0
   10.3456    2.9690    2.5126 O   0  0  0  0  0  0  0  0  0  0  0  0
   10.8621    1.8153    1.9810 C   0  0  0  0  0  0  0  0  0  0  0  0
   12.0217    1.6537    1.6909 O   0  0  0  0  0  0  0  0  0  0  0  0
    9.7581    0.7989    1.8214 C   0  0  0  0  0  0  0  0  0  0  0  0
    9.3088    0.5823    2.7950 H   0  0  0  0  0  0  0  0  0  0  0  0
    8.9669    1.2008    1.1815 H   0  0  0  0  0  0  0  0  0  0  0  0
   10.1622   -0.1145    1.3869 H   0  0  0  0  0  0  0  0  0  0  0  0
  1  6  1  0  0  0  0
  2  1  2  0  0  0  0
  2  3  1  0  0  0  0
  3  4  2  0  0  0  0
  4 13  1  0  0  0  0
  4  5  1  0  0  0  0
  5 12  1  0  0  0  0
  6 11  1  0  0  0  0
  6  5  2  0  0  0  0
  7  1  1  0  0  0  0
  8  2  1  0  0  0  0
  9 10  3  0  0  0  0
 14  3  1  0  0  0  0
 15 14  1  0  0  0  0
 16 15  2  0  0  0  0
 17 15  1  0  0  0  0
 17 18  1  0  0  0  0
 19 17  1  0  0  0  0
 20 17  1  0  0  0  0
M  END
