Coordinates from ORCA-job Ph-N2-OAc-B3LYPG-6-31G_dp-MTMO-d009-169-n800
 OpenBabel09051908423D

 20 19  0  0  0  0  0  0  0  0999 V2000
   11.9110    5.7850    2.2743 C   0  0  0  0  0  0  0  0  0  0  0  0
   10.8271    4.9171    2.1409 C   0  0  0  0  0  0  0  0  0  0  0  0
   10.9107    3.6298    2.6702 C   0  0  0  0  0  0  0  0  0  0  0  0
   12.0576    3.1944    3.3353 C   0  0  0  0  0  0  0  0  0  0  0  0
   13.1360    4.0732    3.4569 C   0  0  0  0  0  0  0  0  0  0  0  0
   13.0697    5.3647    2.9305 C   0  0  0  0  0  0  0  0  0  0  0  0
   11.8475    6.7882    1.8636 H   0  0  0  0  0  0  0  0  0  0  0  0
    9.9153    5.2219    1.6381 H   0  0  0  0  0  0  0  0  0  0  0  0
   13.2029    1.1076   -0.1824 N   0  0  0  0  0  0  0  0  0  0  0  0
   13.8772    1.0662    0.6920 N   0  0  0  0  0  0  0  0  0  0  0  0
   13.9147    6.0390    3.0332 H   0  0  0  0  0  0  0  0  0  0  0  0
   14.0340    3.7401    3.9687 H   0  0  0  0  0  0  0  0  0  0  0  0
   12.1109    2.1918    3.7377 H   0  0  0  0  0  0  0  0  0  0  0  0
    9.7527    2.8556    2.5584 O   0  0  0  0  0  0  0  0  0  0  0  0
    9.8071    1.5292    2.2217 C   0  0  0  0  0  0  0  0  0  0  0  0
   10.8243    0.9160    2.0082 O   0  0  0  0  0  0  0  0  0  0  0  0
    8.4075    0.9687    2.1580 C   0  0  0  0  0  0  0  0  0  0  0  0
    7.9034    1.1066    3.1194 H   0  0  0  0  0  0  0  0  0  0  0  0
    7.8233    1.5052    1.4046 H   0  0  0  0  0  0  0  0  0  0  0  0
    8.4545   -0.0906    1.9082 H   0  0  0  0  0  0  0  0  0  0  0  0
  1  6  1  0  0  0  0
  2  1  2  0  0  0  0
  2  3  1  0  0  0  0
  3  4  2  0  0  0  0
  4  5  1  0  0  0  0
  4 13  1  0  0  0  0
  5 12  1  0  0  0  0
  6 11  1  0  0  0  0
  6  5  2  0  0  0  0
  7  1  1  0  0  0  0
  8  2  1  0  0  0  0
  9 10  3  0  0  0  0
 14  3  1  0  0  0  0
 15 14  1  0  0  0  0
 16 15  2  0  0  0  0
 17 15  1  0  0  0  0
 17 18  1  0  0  0  0
 19 17  1  0  0  0  0
 20 17  1  0  0  0  0
M  END
