Coordinates from ORCA-job Ph-N2-OAc-B3LYPG-6-31G_dp-MTMO-d009-169-n800
 OpenBabel09051908423D

 20 18  0  0  0  0  0  0  0  0999 V2000
   13.1908    6.1181    2.2986 C   0  0  0  0  0  0  0  0  0  0  0  0
   12.5101    5.4438    1.2567 C   0  0  0  0  0  0  0  0  0  0  0  0
   12.0202    4.2731    1.7727 C   0  0  0  0  0  0  0  0  0  0  0  0
   12.0437    3.7219    2.9011 C   0  0  0  0  0  0  0  0  0  0  0  0
   12.7108    4.3571    3.9591 C   0  0  0  0  0  0  0  0  0  0  0  0
   13.2857    5.5920    3.5999 C   0  0  0  0  0  0  0  0  0  0  0  0
   13.6535    7.0758    2.0746 H   0  0  0  0  0  0  0  0  0  0  0  0
   12.4207    5.8218    0.2466 H   0  0  0  0  0  0  0  0  0  0  0  0
   11.0415    3.1979   -0.8085 N   0  0  0  0  0  0  0  0  0  0  0  0
   10.8274    2.2435   -1.3225 N   0  0  0  0  0  0  0  0  0  0  0  0
   13.8206    6.1614    4.3557 H   0  0  0  0  0  0  0  0  0  0  0  0
   12.7887    3.9629    4.9674 H   0  0  0  0  0  0  0  0  0  0  0  0
   10.8245    2.0136    3.0962 H   0  0  0  0  0  0  0  0  0  0  0  0
    9.3428    1.5700    1.3663 O   0  0  0  0  0  0  0  0  0  0  0  0
    9.4182    0.9452    2.4038 C   0  0  0  0  0  0  0  0  0  0  0  0
   10.2995    1.2329    3.3828 O   0  0  0  0  0  0  0  0  0  0  0  0
    8.5531   -0.2377    2.7711 C   0  0  0  0  0  0  0  0  0  0  0  0
    7.8703   -0.4590    1.9515 H   0  0  0  0  0  0  0  0  0  0  0  0
    9.1799   -1.1085    2.9843 H   0  0  0  0  0  0  0  0  0  0  0  0
    7.9853   -0.0162    3.6801 H   0  0  0  0  0  0  0  0  0  0  0  0
  1  6  2  0  0  0  0
  2  3  2  0  0  0  0
  2  1  1  0  0  0  0
  3  4  1  0  0  0  0
  4  5  2  0  0  0  0
  5 12  1  0  0  0  0
  6  5  1  0  0  0  0
  6 11  1  0  0  0  0
  7  1  1  0  0  0  0
  8  2  1  0  0  0  0
 10  9  3  0  0  0  0
 13 16  1  0  0  0  0
 14 15  2  0  0  0  0
 15 17  1  0  0  0  0
 15 16  1  0  0  0  0
 17 19  1  0  0  0  0
 17 20  1  0  0  0  0
 18 17  1  0  0  0  0
M  RAD  2   3   2   4   2
M  END
