Coordinates from ORCA-job Ph-N2-OAc-B3LYPG-6-31G_dp-MTMO-d009-169-n800
 OpenBabel09051908423D

 20 19  0  0  0  0  0  0  0  0999 V2000
   11.8620    5.8182    2.3203 C   0  0  0  0  0  0  0  0  0  0  0  0
   10.7734    4.9528    2.2096 C   0  0  0  0  0  0  0  0  0  0  0  0
   10.8903    3.6433    2.6728 C   0  0  0  0  0  0  0  0  0  0  0  0
   12.0743    3.1825    3.2491 C   0  0  0  0  0  0  0  0  0  0  0  0
   13.1568    4.0584    3.3491 C   0  0  0  0  0  0  0  0  0  0  0  0
   13.0574    5.3728    2.8882 C   0  0  0  0  0  0  0  0  0  0  0  0
   11.7736    6.8389    1.9607 H   0  0  0  0  0  0  0  0  0  0  0  0
    9.8337    5.2768    1.7747 H   0  0  0  0  0  0  0  0  0  0  0  0
   13.4983    0.9140   -0.0331 N   0  0  0  0  0  0  0  0  0  0  0  0
   13.9437    0.9533    0.9774 N   0  0  0  0  0  0  0  0  0  0  0  0
   13.9057    6.0453    2.9732 H   0  0  0  0  0  0  0  0  0  0  0  0
   14.0833    3.7060    3.7924 H   0  0  0  0  0  0  0  0  0  0  0  0
   12.1517    2.1623    3.6011 H   0  0  0  0  0  0  0  0  0  0  0  0
    9.7318    2.8649    2.5978 O   0  0  0  0  0  0  0  0  0  0  0  0
    9.7742    1.5727    2.1447 C   0  0  0  0  0  0  0  0  0  0  0  0
   10.7770    1.0042    1.7886 O   0  0  0  0  0  0  0  0  0  0  0  0
    8.3835    0.9870    2.1616 C   0  0  0  0  0  0  0  0  0  0  0  0
    7.9798    1.0111    3.1782 H   0  0  0  0  0  0  0  0  0  0  0  0
    7.7168    1.5840    1.5326 H   0  0  0  0  0  0  0  0  0  0  0  0
    8.4202   -0.0392    1.7985 H   0  0  0  0  0  0  0  0  0  0  0  0
  1  6  1  0  0  0  0
  2  1  2  0  0  0  0
  2  3  1  0  0  0  0
  3  4  2  0  0  0  0
  4  5  1  0  0  0  0
  4 13  1  0  0  0  0
  5 12  1  0  0  0  0
  6 11  1  0  0  0  0
  6  5  2  0  0  0  0
  7  1  1  0  0  0  0
  8  2  1  0  0  0  0
  9 10  3  0  0  0  0
 14  3  1  0  0  0  0
 15 17  1  0  0  0  0
 15 14  1  0  0  0  0
 16 15  2  0  0  0  0
 17 18  1  0  0  0  0
 19 17  1  0  0  0  0
 20 17  1  0  0  0  0
M  END
