Coordinates from ORCA-job Ph-N2-OAc-B3LYPG-6-31G_dp-MTMO-d009-169-n800
 OpenBabel09051908423D

 20 19  0  0  0  0  0  0  0  0999 V2000
   11.5932    6.0950    2.7711 C   0  0  0  0  0  0  0  0  0  0  0  0
   10.5894    5.1358    2.6427 C   0  0  0  0  0  0  0  0  0  0  0  0
   10.9274    3.7833    2.6634 C   0  0  0  0  0  0  0  0  0  0  0  0
   12.2518    3.3703    2.8143 C   0  0  0  0  0  0  0  0  0  0  0  0
   13.2456    4.3426    2.9380 C   0  0  0  0  0  0  0  0  0  0  0  0
   12.9250    5.7015    2.9169 C   0  0  0  0  0  0  0  0  0  0  0  0
   11.3317    7.1491    2.7563 H   0  0  0  0  0  0  0  0  0  0  0  0
    9.5475    5.4171    2.5302 H   0  0  0  0  0  0  0  0  0  0  0  0
   13.4083   -1.0924    0.7787 N   0  0  0  0  0  0  0  0  0  0  0  0
   13.4842   -0.3757    1.6164 N   0  0  0  0  0  0  0  0  0  0  0  0
   13.7074    6.4478    3.0154 H   0  0  0  0  0  0  0  0  0  0  0  0
   14.2791    4.0296    3.0538 H   0  0  0  0  0  0  0  0  0  0  0  0
   12.5021    2.3175    2.8229 H   0  0  0  0  0  0  0  0  0  0  0  0
    9.8524    2.8919    2.6074 O   0  0  0  0  0  0  0  0  0  0  0  0
    9.8981    1.7586    1.8403 C   0  0  0  0  0  0  0  0  0  0  0  0
   10.8399    1.4232    1.1643 O   0  0  0  0  0  0  0  0  0  0  0  0
    8.5938    1.0104    1.9725 C   0  0  0  0  0  0  0  0  0  0  0  0
    8.4092    0.7619    3.0215 H   0  0  0  0  0  0  0  0  0  0  0  0
    7.7650    1.6408    1.6370 H   0  0  0  0  0  0  0  0  0  0  0  0
    8.6361    0.1013    1.3746 H   0  0  0  0  0  0  0  0  0  0  0  0
  1  6  2  0  0  0  0
  2  3  2  0  0  0  0
  2  1  1  0  0  0  0
  3  4  1  0  0  0  0
  4 13  1  0  0  0  0
  4  5  2  0  0  0  0
  5 12  1  0  0  0  0
  6  5  1  0  0  0  0
  6 11  1  0  0  0  0
  7  1  1  0  0  0  0
  8  2  1  0  0  0  0
  9 10  3  0  0  0  0
 14  3  1  0  0  0  0
 15 17  1  0  0  0  0
 15 14  1  0  0  0  0
 16 15  2  0  0  0  0
 17 18  1  0  0  0  0
 19 17  1  0  0  0  0
 20 17  1  0  0  0  0
M  END
