Coordinates from ORCA-job Ph-N2-OAc-B3LYPG-6-31G_dp-MTMO-d009-169-n800
 OpenBabel09051908423D

 20 19  0  0  0  0  0  0  0  0999 V2000
   11.5205    6.2428    2.4748 C   0  0  0  0  0  0  0  0  0  0  0  0
   10.6323    5.1773    2.3293 C   0  0  0  0  0  0  0  0  0  0  0  0
   11.0236    3.9007    2.7299 C   0  0  0  0  0  0  0  0  0  0  0  0
   12.2859    3.6696    3.2772 C   0  0  0  0  0  0  0  0  0  0  0  0
   13.1652    4.7450    3.4133 C   0  0  0  0  0  0  0  0  0  0  0  0
   12.7901    6.0296    3.0150 C   0  0  0  0  0  0  0  0  0  0  0  0
   11.2182    7.2383    2.1635 H   0  0  0  0  0  0  0  0  0  0  0  0
    9.6398    5.3187    1.9150 H   0  0  0  0  0  0  0  0  0  0  0  0
   12.4851   -1.5276   -0.1729 N   0  0  0  0  0  0  0  0  0  0  0  0
   11.4515   -1.4933    0.2165 N   0  0  0  0  0  0  0  0  0  0  0  0
   13.4821    6.8589    3.1267 H   0  0  0  0  0  0  0  0  0  0  0  0
   14.1507    4.5727    3.8356 H   0  0  0  0  0  0  0  0  0  0  0  0
   12.5768    2.6724    3.5803 H   0  0  0  0  0  0  0  0  0  0  0  0
   10.0489    2.9050    2.6238 O   0  0  0  0  0  0  0  0  0  0  0  0
   10.3499    1.6657    2.1225 C   0  0  0  0  0  0  0  0  0  0  0  0
   11.4449    1.3305    1.7414 O   0  0  0  0  0  0  0  0  0  0  0  0
    9.1114    0.8041    2.1291 C   0  0  0  0  0  0  0  0  0  0  0  0
    8.7720    0.6536    3.1583 H   0  0  0  0  0  0  0  0  0  0  0  0
    8.3011    1.3023    1.5896 H   0  0  0  0  0  0  0  0  0  0  0  0
    9.3374   -0.1566    1.6687 H   0  0  0  0  0  0  0  0  0  0  0  0
  1  6  1  0  0  0  0
  2  1  2  0  0  0  0
  2  3  1  0  0  0  0
  3  4  2  0  0  0  0
  4  5  1  0  0  0  0
  4 13  1  0  0  0  0
  5 12  1  0  0  0  0
  6 11  1  0  0  0  0
  6  5  2  0  0  0  0
  7  1  1  0  0  0  0
  8  2  1  0  0  0  0
  9 10  3  0  0  0  0
 14  3  1  0  0  0  0
 15 17  1  0  0  0  0
 15 14  1  0  0  0  0
 16 15  2  0  0  0  0
 17 18  1  0  0  0  0
 19 17  1  0  0  0  0
 20 17  1  0  0  0  0
M  END
