Coordinates from ORCA-job Ph-N2-OAc-B3LYPG-6-31G_dp-MTMO-d009-169-n800
 OpenBabel09051908423D

 20 19  0  0  0  0  0  0  0  0999 V2000
   11.0895    6.8603    2.8549 C   0  0  0  0  0  0  0  0  0  0  0  0
   10.6111    5.5973    2.5076 C   0  0  0  0  0  0  0  0  0  0  0  0
   11.3212    4.4632    2.9003 C   0  0  0  0  0  0  0  0  0  0  0  0
   12.5005    4.5688    3.6389 C   0  0  0  0  0  0  0  0  0  0  0  0
   12.9687    5.8401    3.9755 C   0  0  0  0  0  0  0  0  0  0  0  0
   12.2713    6.9856    3.5877 C   0  0  0  0  0  0  0  0  0  0  0  0
   10.5374    7.7445    2.5509 H   0  0  0  0  0  0  0  0  0  0  0  0
    9.6929    5.4742    1.9428 H   0  0  0  0  0  0  0  0  0  0  0  0
    8.3058   -7.5230   -1.7778 N   0  0  0  0  0  0  0  0  0  0  0  0
    8.5332   -6.5312   -1.3464 N   0  0  0  0  0  0  0  0  0  0  0  0
   12.6451    7.9686    3.8567 H   0  0  0  0  0  0  0  0  0  0  0  0
   13.8887    5.9309    4.5453 H   0  0  0  0  0  0  0  0  0  0  0  0
   13.0442    3.6813    3.9333 H   0  0  0  0  0  0  0  0  0  0  0  0
   10.7286    3.2406    2.5753 O   0  0  0  0  0  0  0  0  0  0  0  0
   11.4690    2.1820    2.1177 C   0  0  0  0  0  0  0  0  0  0  0  0
   12.6660    2.1942    1.9701 O   0  0  0  0  0  0  0  0  0  0  0  0
   10.5531    1.0179    1.8281 C   0  0  0  0  0  0  0  0  0  0  0  0
    9.9887    0.7512    2.7265 H   0  0  0  0  0  0  0  0  0  0  0  0
    9.8271    1.2955    1.0581 H   0  0  0  0  0  0  0  0  0  0  0  0
   11.1453    0.1677    1.4918 H   0  0  0  0  0  0  0  0  0  0  0  0
  1  6  1  0  0  0  0
  2  1  2  0  0  0  0
  2  3  1  0  0  0  0
  3  4  2  0  0  0  0
  4 13  1  0  0  0  0
  4  5  1  0  0  0  0
  5 12  1  0  0  0  0
  6 11  1  0  0  0  0
  6  5  2  0  0  0  0
  7  1  1  0  0  0  0
  8  2  1  0  0  0  0
  9 10  3  0  0  0  0
 14  3  1  0  0  0  0
 15 14  1  0  0  0  0
 16 15  2  0  0  0  0
 17 15  1  0  0  0  0
 17 18  1  0  0  0  0
 19 17  1  0  0  0  0
 20 17  1  0  0  0  0
M  END
