Coordinates from ORCA-job Ph-N2-OAc-B3LYPG-6-31G_dp-MTMO-d009-169-n800
 OpenBabel09051908423D

 20 19  0  0  0  0  0  0  0  0999 V2000
   11.2035    6.6489    2.8100 C   0  0  0  0  0  0  0  0  0  0  0  0
   10.5865    5.4404    2.4881 C   0  0  0  0  0  0  0  0  0  0  0  0
   11.2180    4.2402    2.8131 C   0  0  0  0  0  0  0  0  0  0  0  0
   12.4550    4.2264    3.4591 C   0  0  0  0  0  0  0  0  0  0  0  0
   13.0617    5.4444    3.7712 C   0  0  0  0  0  0  0  0  0  0  0  0
   12.4443    6.6547    3.4502 C   0  0  0  0  0  0  0  0  0  0  0  0
   10.7131    7.5844    2.5583 H   0  0  0  0  0  0  0  0  0  0  0  0
    9.6209    5.4106    1.9947 H   0  0  0  0  0  0  0  0  0  0  0  0
    9.6134   -5.4054   -0.8788 N   0  0  0  0  0  0  0  0  0  0  0  0
    9.6756   -4.3758   -0.4820 N   0  0  0  0  0  0  0  0  0  0  0  0
   12.9255    7.5953    3.6994 H   0  0  0  0  0  0  0  0  0  0  0  0
   14.0265    5.4417    4.2695 H   0  0  0  0  0  0  0  0  0  0  0  0
   12.9361    3.2886    3.7016 H   0  0  0  0  0  0  0  0  0  0  0  0
   10.4926    3.0821    2.5231 O   0  0  0  0  0  0  0  0  0  0  0  0
   11.0960    1.9649    2.0071 C   0  0  0  0  0  0  0  0  0  0  0  0
   12.2746    1.8689    1.7694 O   0  0  0  0  0  0  0  0  0  0  0  0
   10.0577    0.8924    1.7847 C   0  0  0  0  0  0  0  0  0  0  0  0
    9.5483    0.6632    2.7251 H   0  0  0  0  0  0  0  0  0  0  0  0
    9.2983    1.2458    1.0808 H   0  0  0  0  0  0  0  0  0  0  0  0
   10.5399   -0.0023    1.3930 H   0  0  0  0  0  0  0  0  0  0  0  0
  1  6  1  0  0  0  0
  2  1  2  0  0  0  0
  2  3  1  0  0  0  0
  3  4  2  0  0  0  0
  4 13  1  0  0  0  0
  4  5  1  0  0  0  0
  5 12  1  0  0  0  0
  6 11  1  0  0  0  0
  6  5  2  0  0  0  0
  7  1  1  0  0  0  0
  8  2  1  0  0  0  0
  9 10  3  0  0  0  0
 14  3  1  0  0  0  0
 15 14  1  0  0  0  0
 16 15  2  0  0  0  0
 17 15  1  0  0  0  0
 17 18  1  0  0  0  0
 19 17  1  0  0  0  0
 20 17  1  0  0  0  0
M  END
