Coordinates from ORCA-job Ph-N2-OAc-B3LYPG-6-31G_dp-MTMO-d009-169-n800
 OpenBabel09051908423D

 20 19  0  0  0  0  0  0  0  0999 V2000
   11.0983    6.8135    2.8344 C   0  0  0  0  0  0  0  0  0  0  0  0
   10.6020    5.5554    2.4946 C   0  0  0  0  0  0  0  0  0  0  0  0
   11.3027    4.4139    2.8828 C   0  0  0  0  0  0  0  0  0  0  0  0
   12.4904    4.5075    3.6095 C   0  0  0  0  0  0  0  0  0  0  0  0
   12.9766    5.7740    3.9387 C   0  0  0  0  0  0  0  0  0  0  0  0
   12.2886    6.9267    3.5553 C   0  0  0  0  0  0  0  0  0  0  0  0
   10.5535    7.7033    2.5339 H   0  0  0  0  0  0  0  0  0  0  0  0
    9.6769    5.4417    1.9392 H   0  0  0  0  0  0  0  0  0  0  0  0
    8.5209   -7.0655   -1.6027 N   0  0  0  0  0  0  0  0  0  0  0  0
    8.7284   -6.0615   -1.1898 N   0  0  0  0  0  0  0  0  0  0  0  0
   12.6763    7.9059    3.8186 H   0  0  0  0  0  0  0  0  0  0  0  0
   13.9031    5.8553    4.4994 H   0  0  0  0  0  0  0  0  0  0  0  0
   13.0267    3.6144    3.9005 H   0  0  0  0  0  0  0  0  0  0  0  0
   10.6927    3.1976    2.5669 O   0  0  0  0  0  0  0  0  0  0  0  0
   11.4158    2.1297    2.1030 C   0  0  0  0  0  0  0  0  0  0  0  0
   12.6110    2.1283    1.9408 O   0  0  0  0  0  0  0  0  0  0  0  0
   10.4834    0.9753    1.8276 C   0  0  0  0  0  0  0  0  0  0  0  0
    9.9256    0.7186    2.7328 H   0  0  0  0  0  0  0  0  0  0  0  0
    9.7527    1.2586    1.0642 H   0  0  0  0  0  0  0  0  0  0  0  0
   11.0618    0.1169    1.4881 H   0  0  0  0  0  0  0  0  0  0  0  0
  1  6  1  0  0  0  0
  2  1  2  0  0  0  0
  2  3  1  0  0  0  0
  3  4  2  0  0  0  0
  4 13  1  0  0  0  0
  4  5  1  0  0  0  0
  5 12  1  0  0  0  0
  6 11  1  0  0  0  0
  6  5  2  0  0  0  0
  7  1  1  0  0  0  0
  8  2  1  0  0  0  0
  9 10  3  0  0  0  0
 14  3  1  0  0  0  0
 15 14  1  0  0  0  0
 16 15  2  0  0  0  0
 17 15  1  0  0  0  0
 17 18  1  0  0  0  0
 19 17  1  0  0  0  0
 20 17  1  0  0  0  0
M  END
