Coordinates from ORCA-job Ph-N2-OAc-B3LYPG-6-31G_dp-MTMO-d009-169-n800
 OpenBabel09051908423D

 20 19  0  0  0  0  0  0  0  0999 V2000
   11.0959    6.8197    2.8371 C   0  0  0  0  0  0  0  0  0  0  0  0
   10.6030    5.5606    2.4960 C   0  0  0  0  0  0  0  0  0  0  0  0
   11.3055    4.4205    2.8851 C   0  0  0  0  0  0  0  0  0  0  0  0
   12.4916    4.5164    3.6141 C   0  0  0  0  0  0  0  0  0  0  0  0
   12.9744    5.7839    3.9446 C   0  0  0  0  0  0  0  0  0  0  0  0
   12.2847    6.9352    3.5602 C   0  0  0  0  0  0  0  0  0  0  0  0
   10.5497    7.7084    2.5358 H   0  0  0  0  0  0  0  0  0  0  0  0
    9.6792    5.4451    1.9388 H   0  0  0  0  0  0  0  0  0  0  0  0
    8.4873   -7.1279   -1.6267 N   0  0  0  0  0  0  0  0  0  0  0  0
    8.6974   -6.1259   -1.2104 N   0  0  0  0  0  0  0  0  0  0  0  0
   12.6697    7.9152    3.8246 H   0  0  0  0  0  0  0  0  0  0  0  0
   13.8997    5.8670    4.5070 H   0  0  0  0  0  0  0  0  0  0  0  0
   13.0293    3.6244    3.9058 H   0  0  0  0  0  0  0  0  0  0  0  0
   10.6988    3.2030    2.5676 O   0  0  0  0  0  0  0  0  0  0  0  0
   11.4251    2.1368    2.1048 C   0  0  0  0  0  0  0  0  0  0  0  0
   12.6206    2.1381    1.9452 O   0  0  0  0  0  0  0  0  0  0  0  0
   10.4959    0.9806    1.8269 C   0  0  0  0  0  0  0  0  0  0  0  0
    9.9369    0.7220    2.7309 H   0  0  0  0  0  0  0  0  0  0  0  0
    9.7659    1.2627    1.0623 H   0  0  0  0  0  0  0  0  0  0  0  0
   11.0769    0.1237    1.4879 H   0  0  0  0  0  0  0  0  0  0  0  0
  1  6  1  0  0  0  0
  2  1  2  0  0  0  0
  2  3  1  0  0  0  0
  3  4  2  0  0  0  0
  4 13  1  0  0  0  0
  4  5  1  0  0  0  0
  5 12  1  0  0  0  0
  6 11  1  0  0  0  0
  6  5  2  0  0  0  0
  7  1  1  0  0  0  0
  8  2  1  0  0  0  0
  9 10  3  0  0  0  0
 14  3  1  0  0  0  0
 15 14  1  0  0  0  0
 16 15  2  0  0  0  0
 17 15  1  0  0  0  0
 17 18  1  0  0  0  0
 19 17  1  0  0  0  0
 20 17  1  0  0  0  0
M  END
