Coordinates from ORCA-job Ph-N2-OAc-B3LYPG-6-31G_dp-MTMO-d009-169-n800
 OpenBabel09051908423D

 20 19  0  0  0  0  0  0  0  0999 V2000
   11.1240    7.0376    2.9275 C   0  0  0  0  0  0  0  0  0  0  0  0
   10.6579    5.7720    2.5728 C   0  0  0  0  0  0  0  0  0  0  0  0
   11.3735    4.6421    2.9676 C   0  0  0  0  0  0  0  0  0  0  0  0
   12.5462    4.7544    3.7158 C   0  0  0  0  0  0  0  0  0  0  0  0
   13.0021    6.0282    4.0597 C   0  0  0  0  0  0  0  0  0  0  0  0
   12.2991    7.1696    3.6698 C   0  0  0  0  0  0  0  0  0  0  0  0
   10.5676    7.9184    2.6218 H   0  0  0  0  0  0  0  0  0  0  0  0
    9.7451    5.6436    2.0005 H   0  0  0  0  0  0  0  0  0  0  0  0
    7.7949   -9.1439   -2.3919 N   0  0  0  0  0  0  0  0  0  0  0  0
    8.0491   -8.1632   -1.9500 N   0  0  0  0  0  0  0  0  0  0  0  0
   12.6634    8.1546    3.9447 H   0  0  0  0  0  0  0  0  0  0  0  0
   13.9169    6.1242    4.6370 H   0  0  0  0  0  0  0  0  0  0  0  0
   13.0944    3.8702    4.0117 H   0  0  0  0  0  0  0  0  0  0  0  0
   10.7929    3.4160    2.6343 O   0  0  0  0  0  0  0  0  0  0  0  0
   11.5450    2.3647    2.1790 C   0  0  0  0  0  0  0  0  0  0  0  0
   12.7430    2.3866    2.0410 O   0  0  0  0  0  0  0  0  0  0  0  0
   10.6405    1.1946    1.8781 C   0  0  0  0  0  0  0  0  0  0  0  0
   10.0719    0.9196    2.7712 H   0  0  0  0  0  0  0  0  0  0  0  0
    9.9179    1.4697    1.1040 H   0  0  0  0  0  0  0  0  0  0  0  0
   11.2420    0.3506    1.5426 H   0  0  0  0  0  0  0  0  0  0  0  0
  1  6  1  0  0  0  0
  2  1  2  0  0  0  0
  2  3  1  0  0  0  0
  3  4  2  0  0  0  0
  4 13  1  0  0  0  0
  4  5  1  0  0  0  0
  5 12  1  0  0  0  0
  6 11  1  0  0  0  0
  6  5  2  0  0  0  0
  7  1  1  0  0  0  0
  8  2  1  0  0  0  0
  9 10  3  0  0  0  0
 14  3  1  0  0  0  0
 15 14  1  0  0  0  0
 16 15  2  0  0  0  0
 17 15  1  0  0  0  0
 17 18  1  0  0  0  0
 19 17  1  0  0  0  0
 20 17  1  0  0  0  0
M  END
