Coordinates from ORCA-job Ph-N2-OAc-B3LYPG-6-31G_dp-MTMO-d009-169-n800
 OpenBabel09051908423D

 20 19  0  0  0  0  0  0  0  0999 V2000
   11.0911    6.8894    2.8672 C   0  0  0  0  0  0  0  0  0  0  0  0
   10.6181    5.6250    2.5174 C   0  0  0  0  0  0  0  0  0  0  0  0
   11.3308    4.4930    2.9113 C   0  0  0  0  0  0  0  0  0  0  0  0
   12.5074    4.6019    3.6537 C   0  0  0  0  0  0  0  0  0  0  0  0
   12.9703    5.8746    3.9928 C   0  0  0  0  0  0  0  0  0  0  0  0
   12.2703    7.0180    3.6037 C   0  0  0  0  0  0  0  0  0  0  0  0
   10.5370    7.7719    2.5622 H   0  0  0  0  0  0  0  0  0  0  0  0
    9.7021    5.4993    1.9496 H   0  0  0  0  0  0  0  0  0  0  0  0
    8.2032   -7.7957   -1.8811 N   0  0  0  0  0  0  0  0  0  0  0  0
    8.4405   -6.8082   -1.4449 N   0  0  0  0  0  0  0  0  0  0  0  0
   12.6400    8.0021    3.8748 H   0  0  0  0  0  0  0  0  0  0  0  0
   13.8882    5.9679    4.5656 H   0  0  0  0  0  0  0  0  0  0  0  0
   13.0532    3.7160    3.9490 H   0  0  0  0  0  0  0  0  0  0  0  0
   10.7433    3.2687    2.5834 O   0  0  0  0  0  0  0  0  0  0  0  0
   11.4888    2.2131    2.1271 C   0  0  0  0  0  0  0  0  0  0  0  0
   12.6862    2.2295    1.9833 O   0  0  0  0  0  0  0  0  0  0  0  0
   10.5779    1.0462    1.8334 C   0  0  0  0  0  0  0  0  0  0  0  0
   10.0120    0.7762    2.7298 H   0  0  0  0  0  0  0  0  0  0  0  0
    9.8530    1.3222    1.0617 H   0  0  0  0  0  0  0  0  0  0  0  0
   11.1740    0.1985    1.4976 H   0  0  0  0  0  0  0  0  0  0  0  0
  1  6  1  0  0  0  0
  2  1  2  0  0  0  0
  2  3  1  0  0  0  0
  3  4  2  0  0  0  0
  4 13  1  0  0  0  0
  4  5  1  0  0  0  0
  5 12  1  0  0  0  0
  6 11  1  0  0  0  0
  6  5  2  0  0  0  0
  7  1  1  0  0  0  0
  8  2  1  0  0  0  0
  9 10  3  0  0  0  0
 14  3  1  0  0  0  0
 15 14  1  0  0  0  0
 16 15  2  0  0  0  0
 17 15  1  0  0  0  0
 17 18  1  0  0  0  0
 19 17  1  0  0  0  0
 20 17  1  0  0  0  0
M  END
