Coordinates from ORCA-job Ph-N2-OAc-B3LYPG-6-31G_dp-MTMO-d009-169-n800
 OpenBabel09051908423D

 20 19  0  0  0  0  0  0  0  0999 V2000
   11.9379    5.7603    2.2471 C   0  0  0  0  0  0  0  0  0  0  0  0
   10.8546    4.8928    2.1077 C   0  0  0  0  0  0  0  0  0  0  0  0
   10.9222    3.6160    2.6645 C   0  0  0  0  0  0  0  0  0  0  0  0
   12.0531    3.1911    3.3633 C   0  0  0  0  0  0  0  0  0  0  0  0
   13.1311    4.0695    3.4906 C   0  0  0  0  0  0  0  0  0  0  0  0
   13.0807    5.3503    2.9370 C   0  0  0  0  0  0  0  0  0  0  0  0
   11.8864    6.7551    1.8152 H   0  0  0  0  0  0  0  0  0  0  0  0
    9.9548    5.1898    1.5793 H   0  0  0  0  0  0  0  0  0  0  0  0
   13.0455    1.2939   -0.1539 N   0  0  0  0  0  0  0  0  0  0  0  0
   13.8572    1.1403    0.5801 N   0  0  0  0  0  0  0  0  0  0  0  0
   13.9254    6.0241    3.0445 H   0  0  0  0  0  0  0  0  0  0  0  0
   14.0167    3.7444    4.0287 H   0  0  0  0  0  0  0  0  0  0  0  0
   12.0947    2.1967    3.7865 H   0  0  0  0  0  0  0  0  0  0  0  0
    9.7632    2.8452    2.5412 O   0  0  0  0  0  0  0  0  0  0  0  0
    9.8161    1.5073    2.2540 C   0  0  0  0  0  0  0  0  0  0  0  0
   10.8338    0.8773    2.1003 O   0  0  0  0  0  0  0  0  0  0  0  0
    8.4142    0.9579    2.1561 C   0  0  0  0  0  0  0  0  0  0  0  0
    7.8669    1.1530    3.0833 H   0  0  0  0  0  0  0  0  0  0  0  0
    7.8731    1.4584    1.3474 H   0  0  0  0  0  0  0  0  0  0  0  0
    8.4597   -0.1136    1.9649 H   0  0  0  0  0  0  0  0  0  0  0  0
  1  6  1  0  0  0  0
  2  1  2  0  0  0  0
  2  3  1  0  0  0  0
  3  4  2  0  0  0  0
  4  5  1  0  0  0  0
  4 13  1  0  0  0  0
  5 12  1  0  0  0  0
  6 11  1  0  0  0  0
  6  5  2  0  0  0  0
  7  1  1  0  0  0  0
  8  2  1  0  0  0  0
  9 10  3  0  0  0  0
 14  3  1  0  0  0  0
 15 14  1  0  0  0  0
 16 15  2  0  0  0  0
 17 15  1  0  0  0  0
 17 18  1  0  0  0  0
 19 17  1  0  0  0  0
 20 17  1  0  0  0  0
M  END
