Coordinates from ORCA-job Ph-N2-OAc-B3LYPG-6-31G_dp-MTMO-d009-169-n800
 OpenBabel09051908423D

 20 19  0  0  0  0  0  0  0  0999 V2000
   11.4837    6.2946    2.5415 C   0  0  0  0  0  0  0  0  0  0  0  0
   10.6157    5.2158    2.3744 C   0  0  0  0  0  0  0  0  0  0  0  0
   11.0357    3.9368    2.7368 C   0  0  0  0  0  0  0  0  0  0  0  0
   12.3074    3.7164    3.2665 C   0  0  0  0  0  0  0  0  0  0  0  0
   13.1663    4.8052    3.4246 C   0  0  0  0  0  0  0  0  0  0  0  0
   12.7621    6.0925    3.0649 C   0  0  0  0  0  0  0  0  0  0  0  0
   11.1587    7.2919    2.2600 H   0  0  0  0  0  0  0  0  0  0  0  0
    9.6169    5.3482    1.9723 H   0  0  0  0  0  0  0  0  0  0  0  0
   12.3035   -2.0376   -0.2242 N   0  0  0  0  0  0  0  0  0  0  0  0
   11.3579   -1.7192    0.2507 N   0  0  0  0  0  0  0  0  0  0  0  0
   13.4384    6.9321    3.1936 H   0  0  0  0  0  0  0  0  0  0  0  0
   14.1587    4.6414    3.8337 H   0  0  0  0  0  0  0  0  0  0  0  0
   12.6211    2.7174    3.5394 H   0  0  0  0  0  0  0  0  0  0  0  0
   10.0800    2.9253    2.6112 O   0  0  0  0  0  0  0  0  0  0  0  0
   10.3999    1.7009    2.0838 C   0  0  0  0  0  0  0  0  0  0  0  0
   11.4984    1.3898    1.6933 O   0  0  0  0  0  0  0  0  0  0  0  0
    9.1743    0.8209    2.0748 C   0  0  0  0  0  0  0  0  0  0  0  0
    8.8274    0.6591    3.0997 H   0  0  0  0  0  0  0  0  0  0  0  0
    8.3618    1.3107    1.5307 H   0  0  0  0  0  0  0  0  0  0  0  0
    9.4194   -0.1327    1.6099 H   0  0  0  0  0  0  0  0  0  0  0  0
  1  6  1  0  0  0  0
  2  1  2  0  0  0  0
  2  3  1  0  0  0  0
  3  4  2  0  0  0  0
  4  5  1  0  0  0  0
  4 13  1  0  0  0  0
  5 12  1  0  0  0  0
  6 11  1  0  0  0  0
  6  5  2  0  0  0  0
  7  1  1  0  0  0  0
  8  2  1  0  0  0  0
  9 10  3  0  0  0  0
 14  3  1  0  0  0  0
 15 14  1  0  0  0  0
 16 15  2  0  0  0  0
 17 15  1  0  0  0  0
 17 18  1  0  0  0  0
 19 17  1  0  0  0  0
 20 17  1  0  0  0  0
M  END
