Coordinates from ORCA-job Ph-N2-OAc-B3LYPG-6-31G_dp-MTMO-d009-169-n800
 OpenBabel09051908423D

 20 19  0  0  0  0  0  0  0  0999 V2000
   12.3970    5.9469    2.2608 C   0  0  0  0  0  0  0  0  0  0  0  0
   11.9792    5.0340    1.3190 C   0  0  0  0  0  0  0  0  0  0  0  0
   12.0782    3.5911    1.5558 C   0  0  0  0  0  0  0  0  0  0  0  0
   12.6432    3.2108    2.8554 C   0  0  0  0  0  0  0  0  0  0  0  0
   13.0607    4.1704    3.7541 C   0  0  0  0  0  0  0  0  0  0  0  0
   12.9489    5.5368    3.4814 C   0  0  0  0  0  0  0  0  0  0  0  0
   12.2914    7.0045    2.0366 H   0  0  0  0  0  0  0  0  0  0  0  0
   11.5376    5.3342    0.3747 H   0  0  0  0  0  0  0  0  0  0  0  0
   11.7772    2.9271    0.9007 N   0  0  0  0  0  0  0  0  0  0  0  0
   11.3573    2.1332    0.1687 N   0  0  0  0  0  0  0  0  0  0  0  0
   13.2833    6.2713    4.2057 H   0  0  0  0  0  0  0  0  0  0  0  0
   13.4762    3.8357    4.6998 H   0  0  0  0  0  0  0  0  0  0  0  0
   12.6779    2.1482    3.0515 H   0  0  0  0  0  0  0  0  0  0  0  0
    9.4504    1.6428    0.8948 O   0  0  0  0  0  0  0  0  0  0  0  0
    9.6095    1.1163    2.0609 C   0  0  0  0  0  0  0  0  0  0  0  0
   10.6327    1.1499    2.7625 O   0  0  0  0  0  0  0  0  0  0  0  0
    8.3666    0.3623    2.5557 C   0  0  0  0  0  0  0  0  0  0  0  0
    7.4484    0.8650    2.2444 H   0  0  0  0  0  0  0  0  0  0  0  0
    8.3661   -0.6388    2.1126 H   0  0  0  0  0  0  0  0  0  0  0  0
    8.4056    0.2679    3.6426 H   0  0  0  0  0  0  0  0  0  0  0  0
  1  6  2  0  0  0  0
  2  3  2  0  0  0  0
  2  1  1  0  0  0  0
  3  4  1  0  0  0  0
  4 13  1  0  0  0  0
  4  5  2  0  0  0  0
  5 12  1  0  0  0  0
  6  5  1  0  0  0  0
  6 11  1  0  0  0  0
  7  1  1  0  0  0  0
  8  2  1  0  0  0  0
  9  3  1  0  0  0  0
 10  9  1  0  0  0  0
 14 15  2  0  0  0  0
 15 17  1  0  0  0  0
 15 16  1  0  0  0  0
 17 20  1  0  0  0  0
 18 17  1  0  0  0  0
 19 17  1  0  0  0  0
M  RAD  3   9   2  10   3  16   2
M  END
