Coordinates from ORCA-job Ph-N2-OAc-B3LYPG-6-31G_dp-MTMO-d009-169-n800
 OpenBabel09051908423D

 20 19  0  0  0  0  0  0  0  0999 V2000
   11.2249    6.5713    2.7823 C   0  0  0  0  0  0  0  0  0  0  0  0
   10.5784    5.3760    2.4691 C   0  0  0  0  0  0  0  0  0  0  0  0
   11.1897    4.1627    2.7842 C   0  0  0  0  0  0  0  0  0  0  0  0
   12.4358    4.1230    3.4115 C   0  0  0  0  0  0  0  0  0  0  0  0
   13.0721    5.3280    3.7151 C   0  0  0  0  0  0  0  0  0  0  0  0
   12.4750    6.5510    3.4039 C   0  0  0  0  0  0  0  0  0  0  0  0
   10.7502    7.5169    2.5383 H   0  0  0  0  0  0  0  0  0  0  0  0
    9.6052    5.3664    1.9901 H   0  0  0  0  0  0  0  0  0  0  0  0
    9.9521   -4.6752   -0.6182 N   0  0  0  0  0  0  0  0  0  0  0  0
    9.9743   -3.6540   -0.1961 N   0  0  0  0  0  0  0  0  0  0  0  0
   12.9792    7.4814    3.6462 H   0  0  0  0  0  0  0  0  0  0  0  0
   14.0439    5.3051    4.1989 H   0  0  0  0  0  0  0  0  0  0  0  0
   12.9010    3.1753    3.6463 H   0  0  0  0  0  0  0  0  0  0  0  0
   10.4365    3.0199    2.5048 O   0  0  0  0  0  0  0  0  0  0  0  0
   11.0089    1.8906    1.9794 C   0  0  0  0  0  0  0  0  0  0  0  0
   12.1815    1.7713    1.7228 O   0  0  0  0  0  0  0  0  0  0  0  0
    9.9460    0.8387    1.7749 C   0  0  0  0  0  0  0  0  0  0  0  0
    9.4510    0.6175    2.7248 H   0  0  0  0  0  0  0  0  0  0  0  0
    9.1796    1.2087    1.0872 H   0  0  0  0  0  0  0  0  0  0  0  0
   10.4021   -0.0648    1.3721 H   0  0  0  0  0  0  0  0  0  0  0  0
  1  6  1  0  0  0  0
  2  1  2  0  0  0  0
  2  3  1  0  0  0  0
  3  4  2  0  0  0  0
  4 13  1  0  0  0  0
  4  5  1  0  0  0  0
  5 12  1  0  0  0  0
  6 11  1  0  0  0  0
  6  5  2  0  0  0  0
  7  1  1  0  0  0  0
  8  2  1  0  0  0  0
  9 10  3  0  0  0  0
 14  3  1  0  0  0  0
 15 14  1  0  0  0  0
 16 15  2  0  0  0  0
 17 15  1  0  0  0  0
 17 18  1  0  0  0  0
 19 17  1  0  0  0  0
 20 17  1  0  0  0  0
M  END
