Coordinates from ORCA-job Ph-N2-OAc-B3LYPG-6-31G_dp-MTMO-d009-169-n800
 OpenBabel09051908423D

 20 19  0  0  0  0  0  0  0  0999 V2000
   11.4520    6.3382    2.5827 C   0  0  0  0  0  0  0  0  0  0  0  0
   10.6077    5.2441    2.3950 C   0  0  0  0  0  0  0  0  0  0  0  0
   11.0516    3.9689    2.7425 C   0  0  0  0  0  0  0  0  0  0  0  0
   12.3242    3.7674    3.2778 C   0  0  0  0  0  0  0  0  0  0  0  0
   13.1593    4.8716    3.4566 C   0  0  0  0  0  0  0  0  0  0  0  0
   12.7309    6.1551    3.1119 C   0  0  0  0  0  0  0  0  0  0  0  0
   11.1082    7.3323    2.3130 H   0  0  0  0  0  0  0  0  0  0  0  0
    9.6089    5.3614    1.9883 H   0  0  0  0  0  0  0  0  0  0  0  0
   12.0766   -2.4317   -0.2695 N   0  0  0  0  0  0  0  0  0  0  0  0
   11.1938   -1.9643    0.2031 N   0  0  0  0  0  0  0  0  0  0  0  0
   13.3888    7.0066    3.2567 H   0  0  0  0  0  0  0  0  0  0  0  0
   14.1523    4.7226    3.8699 H   0  0  0  0  0  0  0  0  0  0  0  0
   12.6569    2.7716    3.5389 H   0  0  0  0  0  0  0  0  0  0  0  0
   10.1167    2.9411    2.5965 O   0  0  0  0  0  0  0  0  0  0  0  0
   10.4654    1.7270    2.0633 C   0  0  0  0  0  0  0  0  0  0  0  0
   11.5740    1.4386    1.6847 O   0  0  0  0  0  0  0  0  0  0  0  0
    9.2559    0.8255    2.0315 C   0  0  0  0  0  0  0  0  0  0  0  0
    8.9026    0.6448    3.0510 H   0  0  0  0  0  0  0  0  0  0  0  0
    8.4397    1.3071    1.4857 H   0  0  0  0  0  0  0  0  0  0  0  0
    9.5221   -0.1183    1.5577 H   0  0  0  0  0  0  0  0  0  0  0  0
  1  6  1  0  0  0  0
  2  1  2  0  0  0  0
  2  3  1  0  0  0  0
  3  4  2  0  0  0  0
  4  5  1  0  0  0  0
  4 13  1  0  0  0  0
  5 12  1  0  0  0  0
  6 11  1  0  0  0  0
  6  5  2  0  0  0  0
  7  1  1  0  0  0  0
  8  2  1  0  0  0  0
  9 10  3  0  0  0  0
 14  3  1  0  0  0  0
 15 14  1  0  0  0  0
 16 15  2  0  0  0  0
 17 15  1  0  0  0  0
 17 18  1  0  0  0  0
 19 17  1  0  0  0  0
 20 17  1  0  0  0  0
M  END
