Coordinates from ORCA-job Ph-N2-OAc-B3LYPG-6-31G_dp-MTMO-d009-169-n800
 OpenBabel09051908423D

 20 19  0  0  0  0  0  0  0  0999 V2000
   11.1961    6.6796    2.8179 C   0  0  0  0  0  0  0  0  0  0  0  0
   10.5903    5.4658    2.4944 C   0  0  0  0  0  0  0  0  0  0  0  0
   11.2291    4.2710    2.8251 C   0  0  0  0  0  0  0  0  0  0  0  0
   12.4624    4.2679    3.4784 C   0  0  0  0  0  0  0  0  0  0  0  0
   13.0578    5.4910    3.7921 C   0  0  0  0  0  0  0  0  0  0  0  0
   12.4329    6.6960    3.4654 C   0  0  0  0  0  0  0  0  0  0  0  0
   10.6999    7.6108    2.5618 H   0  0  0  0  0  0  0  0  0  0  0  0
    9.6278    5.4277    1.9955 H   0  0  0  0  0  0  0  0  0  0  0  0
    9.4854   -5.6929   -0.9942 N   0  0  0  0  0  0  0  0  0  0  0  0
    9.5578   -4.6620   -0.6022 N   0  0  0  0  0  0  0  0  0  0  0  0
   12.9054    7.6407    3.7158 H   0  0  0  0  0  0  0  0  0  0  0  0
   14.0197    5.4967    4.2959 H   0  0  0  0  0  0  0  0  0  0  0  0
   12.9493    3.3342    3.7253 H   0  0  0  0  0  0  0  0  0  0  0  0
   10.5144    3.1070    2.5327 O   0  0  0  0  0  0  0  0  0  0  0  0
   11.1292    1.9934    2.0225 C   0  0  0  0  0  0  0  0  0  0  0  0
   12.3100    1.9054    1.7929 O   0  0  0  0  0  0  0  0  0  0  0  0
   10.1000    0.9133    1.7945 C   0  0  0  0  0  0  0  0  0  0  0  0
    9.5837    0.6836    2.7310 H   0  0  0  0  0  0  0  0  0  0  0  0
    9.3446    1.2595    1.0827 H   0  0  0  0  0  0  0  0  0  0  0  0
   10.5917    0.0207    1.4098 H   0  0  0  0  0  0  0  0  0  0  0  0
  1  6  1  0  0  0  0
  2  1  2  0  0  0  0
  2  3  1  0  0  0  0
  3  4  2  0  0  0  0
  4 13  1  0  0  0  0
  4  5  1  0  0  0  0
  5 12  1  0  0  0  0
  6 11  1  0  0  0  0
  6  5  2  0  0  0  0
  7  1  1  0  0  0  0
  8  2  1  0  0  0  0
  9 10  3  0  0  0  0
 14  3  1  0  0  0  0
 15 14  1  0  0  0  0
 16 15  2  0  0  0  0
 17 15  1  0  0  0  0
 17 18  1  0  0  0  0
 19 17  1  0  0  0  0
 20 17  1  0  0  0  0
M  END
