Coordinates from ORCA-job Ph-N2-OAc-B3LYPG-6-31G_dp-MTMO-d009-169-n800
 OpenBabel09051908423D

 20 19  0  0  0  0  0  0  0  0999 V2000
   11.0965    6.8181    2.8364 C   0  0  0  0  0  0  0  0  0  0  0  0
   10.6027    5.5593    2.4956 C   0  0  0  0  0  0  0  0  0  0  0  0
   11.3048    4.4189    2.8845 C   0  0  0  0  0  0  0  0  0  0  0  0
   12.4913    4.5142    3.6129 C   0  0  0  0  0  0  0  0  0  0  0  0
   12.9749    5.7815    3.9431 C   0  0  0  0  0  0  0  0  0  0  0  0
   12.2856    6.9331    3.5590 C   0  0  0  0  0  0  0  0  0  0  0  0
   10.5506    7.7071    2.5353 H   0  0  0  0  0  0  0  0  0  0  0  0
    9.6786    5.4442    1.9388 H   0  0  0  0  0  0  0  0  0  0  0  0
    8.4955   -7.1123   -1.6207 N   0  0  0  0  0  0  0  0  0  0  0  0
    8.7050   -6.1098   -1.2052 N   0  0  0  0  0  0  0  0  0  0  0  0
   12.6713    7.9129    3.8231 H   0  0  0  0  0  0  0  0  0  0  0  0
   13.9005    5.8641    4.5051 H   0  0  0  0  0  0  0  0  0  0  0  0
   13.0286    3.6220    3.9045 H   0  0  0  0  0  0  0  0  0  0  0  0
   10.6973    3.2016    2.5674 O   0  0  0  0  0  0  0  0  0  0  0  0
   11.4228    2.1350    2.1044 C   0  0  0  0  0  0  0  0  0  0  0  0
   12.6183    2.1356    1.9441 O   0  0  0  0  0  0  0  0  0  0  0  0
   10.4929    0.9792    1.8270 C   0  0  0  0  0  0  0  0  0  0  0  0
    9.9341    0.7211    2.7313 H   0  0  0  0  0  0  0  0  0  0  0  0
    9.7627    1.2617    1.0627 H   0  0  0  0  0  0  0  0  0  0  0  0
   11.0732    0.1220    1.4879 H   0  0  0  0  0  0  0  0  0  0  0  0
  1  6  1  0  0  0  0
  2  1  2  0  0  0  0
  2  3  1  0  0  0  0
  3  4  2  0  0  0  0
  4 13  1  0  0  0  0
  4  5  1  0  0  0  0
  5 12  1  0  0  0  0
  6 11  1  0  0  0  0
  6  5  2  0  0  0  0
  7  1  1  0  0  0  0
  8  2  1  0  0  0  0
  9 10  3  0  0  0  0
 14  3  1  0  0  0  0
 15 14  1  0  0  0  0
 16 15  2  0  0  0  0
 17 15  1  0  0  0  0
 17 18  1  0  0  0  0
 19 17  1  0  0  0  0
 20 17  1  0  0  0  0
M  END
