Coordinates from ORCA-job Ph-N2-OAc-B3LYPG-6-31G_dp-MTMO-d009-169-n800
 OpenBabel09051908423D

 20 18  0  0  0  0  0  0  0  0999 V2000
   13.1594    6.0506    2.2534 C   0  0  0  0  0  0  0  0  0  0  0  0
   12.3813    5.2846    1.3527 C   0  0  0  0  0  0  0  0  0  0  0  0
   11.9422    4.1723    2.0242 C   0  0  0  0  0  0  0  0  0  0  0  0
   12.0811    3.7444    3.1958 C   0  0  0  0  0  0  0  0  0  0  0  0
   12.8438    4.4673    4.1216 C   0  0  0  0  0  0  0  0  0  0  0  0
   13.3804    5.6550    3.5857 C   0  0  0  0  0  0  0  0  0  0  0  0
   13.5992    6.9770    1.8930 H   0  0  0  0  0  0  0  0  0  0  0  0
   12.1965    5.5631    0.3236 H   0  0  0  0  0  0  0  0  0  0  0  0
   10.9403    3.1871   -0.9871 N   0  0  0  0  0  0  0  0  0  0  0  0
   10.6363    2.2924   -1.5596 N   0  0  0  0  0  0  0  0  0  0  0  0
   13.9868    6.2917    4.2253 H   0  0  0  0  0  0  0  0  0  0  0  0
   13.0193    4.1736    5.1515 H   0  0  0  0  0  0  0  0  0  0  0  0
   10.7580    2.0202    3.3291 H   0  0  0  0  0  0  0  0  0  0  0  0
    9.6159    1.5580    1.3657 O   0  0  0  0  0  0  0  0  0  0  0  0
    9.4926    0.9515    2.4099 C   0  0  0  0  0  0  0  0  0  0  0  0
   10.1818    1.2515    3.5293 O   0  0  0  0  0  0  0  0  0  0  0  0
    8.5625   -0.2177    2.6315 C   0  0  0  0  0  0  0  0  0  0  0  0
    8.0444   -0.4534    1.7027 H   0  0  0  0  0  0  0  0  0  0  0  0
    9.1291   -1.0875    2.9767 H   0  0  0  0  0  0  0  0  0  0  0  0
    7.8366    0.0278    3.4125 H   0  0  0  0  0  0  0  0  0  0  0  0
  1  6  2  0  0  0  0
  2  3  2  0  0  0  0
  2  1  1  0  0  0  0
  3  4  1  0  0  0  0
  4  5  2  0  0  0  0
  5 12  1  0  0  0  0
  6  5  1  0  0  0  0
  6 11  1  0  0  0  0
  7  1  1  0  0  0  0
  8  2  1  0  0  0  0
 10  9  3  0  0  0  0
 13 16  1  0  0  0  0
 14 15  2  0  0  0  0
 15 17  1  0  0  0  0
 15 16  1  0  0  0  0
 17 19  1  0  0  0  0
 17 20  1  0  0  0  0
 18 17  1  0  0  0  0
M  RAD  2   3   2   4   2
M  END
