Coordinates from ORCA-job Ph-N2-OAc-B3LYPG-6-31G_dp-MTMO-d009-169-n800
 OpenBabel09051908423D

 20 19  0  0  0  0  0  0  0  0999 V2000
   11.0898    6.8739    2.8607 C   0  0  0  0  0  0  0  0  0  0  0  0
   10.6143    5.6101    2.5121 C   0  0  0  0  0  0  0  0  0  0  0  0
   11.3258    4.4771    2.9054 C   0  0  0  0  0  0  0  0  0  0  0  0
   12.5036    4.5845    3.6461 C   0  0  0  0  0  0  0  0  0  0  0  0
   12.9690    5.8566    3.9839 C   0  0  0  0  0  0  0  0  0  0  0  0
   12.2702    7.0010    3.5955 C   0  0  0  0  0  0  0  0  0  0  0  0
   10.5366    7.7572    2.5561 H   0  0  0  0  0  0  0  0  0  0  0  0
    9.6973    5.4856    1.9457 H   0  0  0  0  0  0  0  0  0  0  0  0
    8.2558   -7.6510   -1.8263 N   0  0  0  0  0  0  0  0  0  0  0  0
    8.4884   -6.6615   -1.3923 N   0  0  0  0  0  0  0  0  0  0  0  0
   12.6418    7.9846    3.8656 H   0  0  0  0  0  0  0  0  0  0  0  0
   13.8879    5.9488    4.5554 H   0  0  0  0  0  0  0  0  0  0  0  0
   13.0485    3.6979    3.9409 H   0  0  0  0  0  0  0  0  0  0  0  0
   10.7359    3.2536    2.5789 O   0  0  0  0  0  0  0  0  0  0  0  0
   11.4791    2.1966    2.1220 C   0  0  0  0  0  0  0  0  0  0  0  0
   12.6763    2.2111    1.9765 O   0  0  0  0  0  0  0  0  0  0  0  0
   10.5658    1.0310    1.8302 C   0  0  0  0  0  0  0  0  0  0  0  0
   10.0007    0.7625    2.7275 H   0  0  0  0  0  0  0  0  0  0  0  0
    9.8405    1.3078    1.0593 H   0  0  0  0  0  0  0  0  0  0  0  0
   11.1602    0.1822    1.4942 H   0  0  0  0  0  0  0  0  0  0  0  0
  1  6  1  0  0  0  0
  2  1  2  0  0  0  0
  2  3  1  0  0  0  0
  3  4  2  0  0  0  0
  4 13  1  0  0  0  0
  4  5  1  0  0  0  0
  5 12  1  0  0  0  0
  6 11  1  0  0  0  0
  6  5  2  0  0  0  0
  7  1  1  0  0  0  0
  8  2  1  0  0  0  0
  9 10  3  0  0  0  0
 14  3  1  0  0  0  0
 15 14  1  0  0  0  0
 16 15  2  0  0  0  0
 17 15  1  0  0  0  0
 17 18  1  0  0  0  0
 19 17  1  0  0  0  0
 20 17  1  0  0  0  0
M  END
