Coordinates from ORCA-job Ph-N2-OAc-B3LYPG-6-31G_dp-MTMO-d009-169-n800
 OpenBabel09051908423D

 20 19  0  0  0  0  0  0  0  0999 V2000
   11.2841    6.4842    2.7218 C   0  0  0  0  0  0  0  0  0  0  0  0
   10.5802    5.3137    2.4394 C   0  0  0  0  0  0  0  0  0  0  0  0
   11.1457    4.0799    2.7595 C   0  0  0  0  0  0  0  0  0  0  0  0
   12.4022    3.9949    3.3609 C   0  0  0  0  0  0  0  0  0  0  0  0
   13.0961    5.1751    3.6337 C   0  0  0  0  0  0  0  0  0  0  0  0
   12.5451    6.4184    3.3174 C   0  0  0  0  0  0  0  0  0  0  0  0
   10.8453    7.4461    2.4740 H   0  0  0  0  0  0  0  0  0  0  0  0
    9.5977    5.3395    1.9807 H   0  0  0  0  0  0  0  0  0  0  0  0
   10.5797   -3.8289   -0.4384 N   0  0  0  0  0  0  0  0  0  0  0  0
   10.3604   -2.8759    0.0766 N   0  0  0  0  0  0  0  0  0  0  0  0
   13.0939    7.3294    3.5356 H   0  0  0  0  0  0  0  0  0  0  0  0
   14.0761    5.1170    4.0976 H   0  0  0  0  0  0  0  0  0  0  0  0
   12.8309    3.0310    3.5997 H   0  0  0  0  0  0  0  0  0  0  0  0
   10.3396    2.9658    2.5139 O   0  0  0  0  0  0  0  0  0  0  0  0
   10.8524    1.8113    1.9803 C   0  0  0  0  0  0  0  0  0  0  0  0
   12.0108    1.6478    1.6864 O   0  0  0  0  0  0  0  0  0  0  0  0
    9.7462    0.7967    1.8241 C   0  0  0  0  0  0  0  0  0  0  0  0
    9.3008    0.5797    2.7994 H   0  0  0  0  0  0  0  0  0  0  0  0
    8.9530    1.2006    1.1882 H   0  0  0  0  0  0  0  0  0  0  0  0
   10.1473   -0.1167    1.3869 H   0  0  0  0  0  0  0  0  0  0  0  0
  1  6  1  0  0  0  0
  2  1  2  0  0  0  0
  2  3  1  0  0  0  0
  3  4  2  0  0  0  0
  4 13  1  0  0  0  0
  4  5  1  0  0  0  0
  5 12  1  0  0  0  0
  6 11  1  0  0  0  0
  6  5  2  0  0  0  0
  7  1  1  0  0  0  0
  8  2  1  0  0  0  0
  9 10  3  0  0  0  0
 14  3  1  0  0  0  0
 15 14  1  0  0  0  0
 16 15  2  0  0  0  0
 17 15  1  0  0  0  0
 17 18  1  0  0  0  0
 19 17  1  0  0  0  0
 20 17  1  0  0  0  0
M  END
