Coordinates from ORCA-job Ph-N2-OAc-B3LYPG-6-31G_dp-MTMO-d009-169-n800
 OpenBabel09051908423D

 20 19  0  0  0  0  0  0  0  0999 V2000
   11.1487    6.7443    2.8175 C   0  0  0  0  0  0  0  0  0  0  0  0
   10.5942    5.5068    2.4921 C   0  0  0  0  0  0  0  0  0  0  0  0
   11.2641    4.3386    2.8545 C   0  0  0  0  0  0  0  0  0  0  0  0
   12.4780    4.3852    3.5413 C   0  0  0  0  0  0  0  0  0  0  0  0
   13.0223    5.6316    3.8564 C   0  0  0  0  0  0  0  0  0  0  0  0
   12.3658    6.8105    3.4984 C   0  0  0  0  0  0  0  0  0  0  0  0
   10.6281    7.6549    2.5369 H   0  0  0  0  0  0  0  0  0  0  0  0
    9.6476    5.4298    1.9677 H   0  0  0  0  0  0  0  0  0  0  0  0
    9.0281   -6.3397   -1.2983 N   0  0  0  0  0  0  0  0  0  0  0  0
    9.1713   -5.3132   -0.9143 N   0  0  0  0  0  0  0  0  0  0  0  0
   12.7985    7.7737    3.7504 H   0  0  0  0  0  0  0  0  0  0  0  0
   13.9692    5.6761    4.3861 H   0  0  0  0  0  0  0  0  0  0  0  0
   12.9897    3.4717    3.8125 H   0  0  0  0  0  0  0  0  0  0  0  0
   10.5980    3.1474    2.5565 O   0  0  0  0  0  0  0  0  0  0  0  0
   11.2642    2.0514    2.0735 C   0  0  0  0  0  0  0  0  0  0  0  0
   12.4532    2.0020    1.8769 O   0  0  0  0  0  0  0  0  0  0  0  0
   10.2788    0.9353    1.8264 C   0  0  0  0  0  0  0  0  0  0  0  0
    9.7361    0.7026    2.7472 H   0  0  0  0  0  0  0  0  0  0  0  0
    9.5394    1.2467    1.0825 H   0  0  0  0  0  0  0  0  0  0  0  0
   10.8123    0.0538    1.4731 H   0  0  0  0  0  0  0  0  0  0  0  0
  1  6  1  0  0  0  0
  2  1  2  0  0  0  0
  2  3  1  0  0  0  0
  3  4  2  0  0  0  0
  4 13  1  0  0  0  0
  4  5  1  0  0  0  0
  5 12  1  0  0  0  0
  6 11  1  0  0  0  0
  6  5  2  0  0  0  0
  7  1  1  0  0  0  0
  8  2  1  0  0  0  0
  9 10  3  0  0  0  0
 14  3  1  0  0  0  0
 15 14  1  0  0  0  0
 16 15  2  0  0  0  0
 17 15  1  0  0  0  0
 17 18  1  0  0  0  0
 19 17  1  0  0  0  0
 20 17  1  0  0  0  0
M  END
