Coordinates from ORCA-job Ph-N2-OAc-B3LYPG-6-31G_dp-MTMO-d009-169-n800
 OpenBabel09051908423D

 20 20  0  0  0  0  0  0  0  0999 V2000
   12.5456    5.9848    2.2347 C   0  0  0  0  0  0  0  0  0  0  0  0
   12.2479    5.1236    1.1807 C   0  0  0  0  0  0  0  0  0  0  0  0
   12.0336    3.7700    1.4535 C   0  0  0  0  0  0  0  0  0  0  0  0
   12.1782    3.2458    2.7432 C   0  0  0  0  0  0  0  0  0  0  0  0
   12.5085    4.1175    3.7784 C   0  0  0  0  0  0  0  0  0  0  0  0
   12.6782    5.4830    3.5319 C   0  0  0  0  0  0  0  0  0  0  0  0
   12.6919    7.0425    2.0393 H   0  0  0  0  0  0  0  0  0  0  0  0
   12.1628    5.4849    0.1614 H   0  0  0  0  0  0  0  0  0  0  0  0
   11.7847    2.9141    0.3473 N   0  0  0  0  0  0  0  0  0  0  0  0
   10.9974    2.0392    0.1893 N   0  0  0  0  0  0  0  0  0  0  0  0
   12.9286    6.1533    4.3485 H   0  0  0  0  0  0  0  0  0  0  0  0
   12.6342    3.7263    4.7834 H   0  0  0  0  0  0  0  0  0  0  0  0
   12.0632    2.1798    2.9069 H   0  0  0  0  0  0  0  0  0  0  0  0
    9.8382    1.9677    1.3904 O   0  0  0  0  0  0  0  0  0  0  0  0
    9.9398    0.8273    2.0755 C   0  0  0  0  0  0  0  0  0  0  0  0
   10.9523    0.1507    2.1372 O   0  0  0  0  0  0  0  0  0  0  0  0
    8.6426    0.4875    2.7876 C   0  0  0  0  0  0  0  0  0  0  0  0
    8.2303    1.3683    3.2868 H   0  0  0  0  0  0  0  0  0  0  0  0
    7.9046    0.1524    2.0517 H   0  0  0  0  0  0  0  0  0  0  0  0
    8.8247   -0.3090    3.5097 H   0  0  0  0  0  0  0  0  0  0  0  0
  1  6  2  0  0  0  0
  2  3  2  0  0  0  0
  2  1  1  0  0  0  0
  3  4  1  0  0  0  0
  4 13  1  0  0  0  0
  4  5  2  0  0  0  0
  5 12  1  0  0  0  0
  6  5  1  0  0  0  0
  6 11  1  0  0  0  0
  7  1  1  0  0  0  0
  8  2  1  0  0  0  0
  9  3  1  0  0  0  0
 10  9  1  0  0  0  0
 10 14  1  0  0  0  0
 14 15  1  0  0  0  0
 15 16  2  0  0  0  0
 15 17  1  0  0  0  0
 17 18  1  0  0  0  0
 17 20  1  0  0  0  0
 19 17  1  0  0  0  0
M  RAD  2   9   2  10   2
M  END
