Coordinates from ORCA-job Ph-N2-OAc-B3LYPG-6-31G_dp-MTMO-d009-169-n800
 OpenBabel09051908423D

 20 19  0  0  0  0  0  0  0  0999 V2000
   11.2572    6.5082    2.7413 C   0  0  0  0  0  0  0  0  0  0  0  0
   10.5773    5.3266    2.4468 C   0  0  0  0  0  0  0  0  0  0  0  0
   11.1619    4.1017    2.7664 C   0  0  0  0  0  0  0  0  0  0  0  0
   12.4140    4.0364    3.3794 C   0  0  0  0  0  0  0  0  0  0  0  0
   13.0839    5.2275    3.6643 C   0  0  0  0  0  0  0  0  0  0  0  0
   12.5136    6.4622    3.3486 C   0  0  0  0  0  0  0  0  0  0  0  0
   10.8035    7.4632    2.4939 H   0  0  0  0  0  0  0  0  0  0  0  0
    9.5987    5.3371    1.9789 H   0  0  0  0  0  0  0  0  0  0  0  0
   10.3309   -4.0685   -0.4780 N   0  0  0  0  0  0  0  0  0  0  0  0
   10.2110   -3.0851    0.0122 N   0  0  0  0  0  0  0  0  0  0  0  0
   13.0437    7.3819    3.5762 H   0  0  0  0  0  0  0  0  0  0  0  0
   14.0604    5.1848    4.1371 H   0  0  0  0  0  0  0  0  0  0  0  0
   12.8577    3.0792    3.6178 H   0  0  0  0  0  0  0  0  0  0  0  0
   10.3786    2.9742    2.5077 O   0  0  0  0  0  0  0  0  0  0  0  0
   10.9173    1.8317    1.9738 C   0  0  0  0  0  0  0  0  0  0  0  0
   12.0815    1.6898    1.6919 O   0  0  0  0  0  0  0  0  0  0  0  0
    9.8302    0.7996    1.7986 C   0  0  0  0  0  0  0  0  0  0  0  0
    9.3627    0.5835    2.7637 H   0  0  0  0  0  0  0  0  0  0  0  0
    9.0482    1.1870    1.1387 H   0  0  0  0  0  0  0  0  0  0  0  0
   10.2550   -0.1111    1.3782 H   0  0  0  0  0  0  0  0  0  0  0  0
  1  6  1  0  0  0  0
  2  1  2  0  0  0  0
  2  3  1  0  0  0  0
  3  4  2  0  0  0  0
  4 13  1  0  0  0  0
  4  5  1  0  0  0  0
  5 12  1  0  0  0  0
  6 11  1  0  0  0  0
  6  5  2  0  0  0  0
  7  1  1  0  0  0  0
  8  2  1  0  0  0  0
  9 10  3  0  0  0  0
 14  3  1  0  0  0  0
 15 14  1  0  0  0  0
 16 15  2  0  0  0  0
 17 15  1  0  0  0  0
 17 18  1  0  0  0  0
 19 17  1  0  0  0  0
 20 17  1  0  0  0  0
M  END
