Coordinates from ORCA-job Ph-N2-OAc-B3LYPG-6-31G_dp-MTMO-d009-169-n800
 OpenBabel09051908423D

 20 18  0  0  0  0  0  0  0  0999 V2000
   13.0771    6.0044    2.2198 C   0  0  0  0  0  0  0  0  0  0  0  0
   12.2619    5.1638    1.4249 C   0  0  0  0  0  0  0  0  0  0  0  0
   11.9182    4.0734    2.1848 C   0  0  0  0  0  0  0  0  0  0  0  0
   12.1673    3.7244    3.3638 C   0  0  0  0  0  0  0  0  0  0  0  0
   12.9690    4.5191    4.1901 C   0  0  0  0  0  0  0  0  0  0  0  0
   13.4157    5.6926    3.5499 C   0  0  0  0  0  0  0  0  0  0  0  0
   13.4537    6.9231    1.7773 H   0  0  0  0  0  0  0  0  0  0  0  0
   11.9887    5.3772    0.4002 H   0  0  0  0  0  0  0  0  0  0  0  0
   10.9551    3.1876   -1.0216 N   0  0  0  0  0  0  0  0  0  0  0  0
   10.6774    2.2525   -1.5402 N   0  0  0  0  0  0  0  0  0  0  0  0
   14.0446    6.3854    4.1038 H   0  0  0  0  0  0  0  0  0  0  0  0
   13.2341    4.2900    5.2171 H   0  0  0  0  0  0  0  0  0  0  0  0
   10.7490    1.9827    3.4466 H   0  0  0  0  0  0  0  0  0  0  0  0
    9.7214    1.6331    1.4045 O   0  0  0  0  0  0  0  0  0  0  0  0
    9.5186    0.9873    2.4126 C   0  0  0  0  0  0  0  0  0  0  0  0
   10.1427    1.2254    3.5833 O   0  0  0  0  0  0  0  0  0  0  0  0
    8.5504   -0.1657    2.5255 C   0  0  0  0  0  0  0  0  0  0  0  0
    8.0898   -0.3526    1.5563 H   0  0  0  0  0  0  0  0  0  0  0  0
    9.0729   -1.0620    2.8723 H   0  0  0  0  0  0  0  0  0  0  0  0
    7.7797    0.0678    3.2664 H   0  0  0  0  0  0  0  0  0  0  0  0
  1  6  2  0  0  0  0
  2  3  2  0  0  0  0
  2  1  1  0  0  0  0
  3  4  1  0  0  0  0
  4  5  2  0  0  0  0
  5 12  1  0  0  0  0
  6 11  1  0  0  0  0
  6  5  1  0  0  0  0
  7  1  1  0  0  0  0
  8  2  1  0  0  0  0
 10  9  3  0  0  0  0
 13 16  1  0  0  0  0
 14 15  2  0  0  0  0
 15 17  1  0  0  0  0
 15 16  1  0  0  0  0
 17 19  1  0  0  0  0
 17 20  1  0  0  0  0
 18 17  1  0  0  0  0
M  RAD  2   3   2   4   2
M  END
