Coordinates from ORCA-job Ph-N2-OAc-B3LYPG-6-31G_dp-MTMO-d009-169-n800
 OpenBabel09051908423D

 20 19  0  0  0  0  0  0  0  0999 V2000
   11.0947    6.9139    2.8774 C   0  0  0  0  0  0  0  0  0  0  0  0
   10.6244    5.6489    2.5261 C   0  0  0  0  0  0  0  0  0  0  0  0
   11.3383    4.5179    2.9206 C   0  0  0  0  0  0  0  0  0  0  0  0
   12.5135    4.6283    3.6649 C   0  0  0  0  0  0  0  0  0  0  0  0
   12.9737    5.9016    4.0054 C   0  0  0  0  0  0  0  0  0  0  0  0
   12.2725    7.0441    3.6159 C   0  0  0  0  0  0  0  0  0  0  0  0
   10.5396    7.7956    2.5719 H   0  0  0  0  0  0  0  0  0  0  0  0
    9.7095    5.5220    1.9568 H   0  0  0  0  0  0  0  0  0  0  0  0
    8.1271   -8.0217   -1.9668 N   0  0  0  0  0  0  0  0  0  0  0  0
    8.3698   -7.0367   -1.5281 N   0  0  0  0  0  0  0  0  0  0  0  0
   12.6401    8.0286    3.8880 H   0  0  0  0  0  0  0  0  0  0  0  0
   13.8906    5.9962    4.5798 H   0  0  0  0  0  0  0  0  0  0  0  0
   13.0604    3.7432    3.9606 H   0  0  0  0  0  0  0  0  0  0  0  0
   10.7535    3.2928    2.5911 O   0  0  0  0  0  0  0  0  0  0  0  0
   11.5014    2.2387    2.1354 C   0  0  0  0  0  0  0  0  0  0  0  0
   12.6991    2.2572    1.9936 O   0  0  0  0  0  0  0  0  0  0  0  0
   10.5930    1.0704    1.8394 C   0  0  0  0  0  0  0  0  0  0  0  0
   10.0263    0.7987    2.7347 H   0  0  0  0  0  0  0  0  0  0  0  0
    9.8688    1.3458    1.0669 H   0  0  0  0  0  0  0  0  0  0  0  0
   11.1912    0.2241    1.5038 H   0  0  0  0  0  0  0  0  0  0  0  0
  1  6  1  0  0  0  0
  2  1  2  0  0  0  0
  2  3  1  0  0  0  0
  3  4  2  0  0  0  0
  4 13  1  0  0  0  0
  4  5  1  0  0  0  0
  5 12  1  0  0  0  0
  6 11  1  0  0  0  0
  6  5  2  0  0  0  0
  7  1  1  0  0  0  0
  8  2  1  0  0  0  0
  9 10  3  0  0  0  0
 14  3  1  0  0  0  0
 15 14  1  0  0  0  0
 16 15  2  0  0  0  0
 17 15  1  0  0  0  0
 17 18  1  0  0  0  0
 19 17  1  0  0  0  0
 20 17  1  0  0  0  0
M  END
