Coordinates from ORCA-job Ph-N2-OAc-B3LYPG-6-31G_dp-MTMO-d009-169-n800
 OpenBabel09051908423D

 20 19  0  0  0  0  0  0  0  0999 V2000
   11.1019    6.9494    2.8919 C   0  0  0  0  0  0  0  0  0  0  0  0
   10.6338    5.6840    2.5393 C   0  0  0  0  0  0  0  0  0  0  0  0
   11.3487    4.5537    2.9341 C   0  0  0  0  0  0  0  0  0  0  0  0
   12.5227    4.6653    3.6802 C   0  0  0  0  0  0  0  0  0  0  0  0
   12.9807    5.9390    4.0221 C   0  0  0  0  0  0  0  0  0  0  0  0
   12.2784    7.0808    3.6322 C   0  0  0  0  0  0  0  0  0  0  0  0
   10.5460    7.8306    2.5862 H   0  0  0  0  0  0  0  0  0  0  0  0
    9.7199    5.5561    1.9686 H   0  0  0  0  0  0  0  0  0  0  0  0
    8.0261   -8.3461   -2.0897 N   0  0  0  0  0  0  0  0  0  0  0  0
    8.2739   -7.3632   -1.6490 N   0  0  0  0  0  0  0  0  0  0  0  0
   12.6443    8.0656    3.9054 H   0  0  0  0  0  0  0  0  0  0  0  0
   13.8966    6.0345    4.5978 H   0  0  0  0  0  0  0  0  0  0  0  0
   13.0703    3.7808    3.9762 H   0  0  0  0  0  0  0  0  0  0  0  0
   10.7660    3.3280    2.6030 O   0  0  0  0  0  0  0  0  0  0  0  0
   11.5161    2.2752    2.1477 C   0  0  0  0  0  0  0  0  0  0  0  0
   12.7140    2.2956    2.0077 O   0  0  0  0  0  0  0  0  0  0  0  0
   10.6098    1.1059    1.8496 C   0  0  0  0  0  0  0  0  0  0  0  0
   10.0422    0.8327    2.7439 H   0  0  0  0  0  0  0  0  0  0  0  0
    9.8862    1.3809    1.0763 H   0  0  0  0  0  0  0  0  0  0  0  0
   11.2096    0.2607    1.5141 H   0  0  0  0  0  0  0  0  0  0  0  0
  1  6  1  0  0  0  0
  2  1  2  0  0  0  0
  2  3  1  0  0  0  0
  3  4  2  0  0  0  0
  4 13  1  0  0  0  0
  4  5  1  0  0  0  0
  5 12  1  0  0  0  0
  6 11  1  0  0  0  0
  6  5  2  0  0  0  0
  7  1  1  0  0  0  0
  8  2  1  0  0  0  0
  9 10  3  0  0  0  0
 14  3  1  0  0  0  0
 15 14  1  0  0  0  0
 16 15  2  0  0  0  0
 17 15  1  0  0  0  0
 17 18  1  0  0  0  0
 19 17  1  0  0  0  0
 20 17  1  0  0  0  0
M  END
