Coordinates from ORCA-job Ph-N2-OAc-B3LYPG-6-31G_dp-MTMO-d009-169-n800
 OpenBabel09051908423D

 20 19  0  0  0  0  0  0  0  0999 V2000
   11.1458    7.1189    2.9599 C   0  0  0  0  0  0  0  0  0  0  0  0
   10.6805    5.8534    2.6040 C   0  0  0  0  0  0  0  0  0  0  0  0
   11.3961    4.7235    2.9986 C   0  0  0  0  0  0  0  0  0  0  0  0
   12.5681    4.8357    3.7478 C   0  0  0  0  0  0  0  0  0  0  0  0
   13.0233    6.1095    4.0930 C   0  0  0  0  0  0  0  0  0  0  0  0
   12.3203    7.2508    3.7033 C   0  0  0  0  0  0  0  0  0  0  0  0
   10.5893    7.9997    2.6542 H   0  0  0  0  0  0  0  0  0  0  0  0
    9.7682    5.7251    2.0308 H   0  0  0  0  0  0  0  0  0  0  0  0
    7.5882   -9.8775   -2.6702 N   0  0  0  0  0  0  0  0  0  0  0  0
    7.8457   -8.8974   -2.2288 N   0  0  0  0  0  0  0  0  0  0  0  0
   12.6840    8.2358    3.9790 H   0  0  0  0  0  0  0  0  0  0  0  0
   13.9376    6.2054    4.6711 H   0  0  0  0  0  0  0  0  0  0  0  0
   13.1164    3.9514    4.0437 H   0  0  0  0  0  0  0  0  0  0  0  0
   10.8162    3.4975    2.6640 O   0  0  0  0  0  0  0  0  0  0  0  0
   11.5690    2.4467    2.2086 C   0  0  0  0  0  0  0  0  0  0  0  0
   12.7672    2.4691    2.0716 O   0  0  0  0  0  0  0  0  0  0  0  0
   10.6652    1.2765    1.9061 C   0  0  0  0  0  0  0  0  0  0  0  0
   10.0960    1.0007    2.7986 H   0  0  0  0  0  0  0  0  0  0  0  0
    9.9431    1.5519    1.1317 H   0  0  0  0  0  0  0  0  0  0  0  0
   11.2672    0.4330    1.5705 H   0  0  0  0  0  0  0  0  0  0  0  0
  1  6  1  0  0  0  0
  2  1  2  0  0  0  0
  2  3  1  0  0  0  0
  3  4  2  0  0  0  0
  4 13  1  0  0  0  0
  4  5  1  0  0  0  0
  5 12  1  0  0  0  0
  6 11  1  0  0  0  0
  6  5  2  0  0  0  0
  7  1  1  0  0  0  0
  8  2  1  0  0  0  0
  9 10  3  0  0  0  0
 14  3  1  0  0  0  0
 15 14  1  0  0  0  0
 16 15  2  0  0  0  0
 17 15  1  0  0  0  0
 17 18  1  0  0  0  0
 19 17  1  0  0  0  0
 20 17  1  0  0  0  0
M  END
