Coordinates from ORCA-job Ph-N2-OAc-B3LYPG-6-31G_dp-MTMO-d009-169-n800
 OpenBabel09051908423D

 20 19  0  0  0  0  0  0  0  0999 V2000
   11.2213    6.5799    2.7864 C   0  0  0  0  0  0  0  0  0  0  0  0
   10.5789    5.3829    2.4714 C   0  0  0  0  0  0  0  0  0  0  0  0
   11.1932    4.1713    2.7870 C   0  0  0  0  0  0  0  0  0  0  0  0
   12.4382    4.1349    3.4167 C   0  0  0  0  0  0  0  0  0  0  0  0
   13.0705    5.3416    3.7221 C   0  0  0  0  0  0  0  0  0  0  0  0
   12.4703    6.5630    3.4104 C   0  0  0  0  0  0  0  0  0  0  0  0
   10.7443    7.5242    2.5420 H   0  0  0  0  0  0  0  0  0  0  0  0
    9.6067    5.3707    1.9906 H   0  0  0  0  0  0  0  0  0  0  0  0
    9.9071   -4.7573   -0.6432 N   0  0  0  0  0  0  0  0  0  0  0  0
    9.9389   -3.7343   -0.2261 N   0  0  0  0  0  0  0  0  0  0  0  0
   12.9713    7.4947    3.6541 H   0  0  0  0  0  0  0  0  0  0  0  0
   14.0414    5.3213    4.2077 H   0  0  0  0  0  0  0  0  0  0  0  0
   12.9058    3.1884    3.6519 H   0  0  0  0  0  0  0  0  0  0  0  0
   10.4439    3.0264    2.5056 O   0  0  0  0  0  0  0  0  0  0  0  0
   11.0206    1.8989    1.9812 C   0  0  0  0  0  0  0  0  0  0  0  0
   12.1940    1.7828    1.7273 O   0  0  0  0  0  0  0  0  0  0  0  0
    9.9610    0.8443    1.7738 C   0  0  0  0  0  0  0  0  0  0  0  0
    9.4638    0.6218    2.7223 H   0  0  0  0  0  0  0  0  0  0  0  0
    9.1956    1.2122    1.0839 H   0  0  0  0  0  0  0  0  0  0  0  0
   10.4206   -0.0580    1.3723 H   0  0  0  0  0  0  0  0  0  0  0  0
  1  6  1  0  0  0  0
  2  1  2  0  0  0  0
  2  3  1  0  0  0  0
  3  4  2  0  0  0  0
  4 13  1  0  0  0  0
  4  5  1  0  0  0  0
  5 12  1  0  0  0  0
  6 11  1  0  0  0  0
  6  5  2  0  0  0  0
  7  1  1  0  0  0  0
  8  2  1  0  0  0  0
  9 10  3  0  0  0  0
 14  3  1  0  0  0  0
 15 14  1  0  0  0  0
 16 15  2  0  0  0  0
 17 15  1  0  0  0  0
 17 18  1  0  0  0  0
 19 17  1  0  0  0  0
 20 17  1  0  0  0  0
M  END
