Coordinates from ORCA-job Ph-N2-OAc-B3LYPG-6-31G_dp-MTMO-d009-169-n800
 OpenBabel09051908423D

 20 19  0  0  0  0  0  0  0  0999 V2000
   11.1531    7.1460    2.9706 C   0  0  0  0  0  0  0  0  0  0  0  0
   10.6880    5.8805    2.6143 C   0  0  0  0  0  0  0  0  0  0  0  0
   11.4037    4.7506    3.0090 C   0  0  0  0  0  0  0  0  0  0  0  0
   12.5754    4.8628    3.7585 C   0  0  0  0  0  0  0  0  0  0  0  0
   13.0305    6.1365    4.1040 C   0  0  0  0  0  0  0  0  0  0  0  0
   12.3274    7.2779    3.7143 C   0  0  0  0  0  0  0  0  0  0  0  0
   10.5967    8.0269    2.6650 H   0  0  0  0  0  0  0  0  0  0  0  0
    9.7759    5.7523    2.0409 H   0  0  0  0  0  0  0  0  0  0  0  0
    7.5196  -10.1220   -2.7630 N   0  0  0  0  0  0  0  0  0  0  0  0
    7.7780   -9.1420   -2.3220 N   0  0  0  0  0  0  0  0  0  0  0  0
   12.6910    8.2628    3.9903 H   0  0  0  0  0  0  0  0  0  0  0  0
   13.9446    6.2324    4.6823 H   0  0  0  0  0  0  0  0  0  0  0  0
   13.1237    3.9785    4.0543 H   0  0  0  0  0  0  0  0  0  0  0  0
   10.8239    3.5246    2.6740 O   0  0  0  0  0  0  0  0  0  0  0  0
   11.5769    2.4740    2.2186 C   0  0  0  0  0  0  0  0  0  0  0  0
   12.7751    2.4965    2.0819 O   0  0  0  0  0  0  0  0  0  0  0  0
   10.6733    1.3038    1.9156 C   0  0  0  0  0  0  0  0  0  0  0  0
   10.1038    1.0277    2.8079 H   0  0  0  0  0  0  0  0  0  0  0  0
    9.9513    1.5793    1.1411 H   0  0  0  0  0  0  0  0  0  0  0  0
   11.2755    0.4604    1.5800 H   0  0  0  0  0  0  0  0  0  0  0  0
  1  6  1  0  0  0  0
  2  1  2  0  0  0  0
  2  3  1  0  0  0  0
  3  4  2  0  0  0  0
  4 13  1  0  0  0  0
  4  5  1  0  0  0  0
  5 12  1  0  0  0  0
  6 11  1  0  0  0  0
  6  5  2  0  0  0  0
  7  1  1  0  0  0  0
  8  2  1  0  0  0  0
  9 10  3  0  0  0  0
 14  3  1  0  0  0  0
 15 14  1  0  0  0  0
 16 15  2  0  0  0  0
 17 15  1  0  0  0  0
 17 18  1  0  0  0  0
 19 17  1  0  0  0  0
 20 17  1  0  0  0  0
M  END
