Coordinates from ORCA-job Ph-N2-OAc-B3LYPG-6-31G_dp-MTMO-d009-169-n800
 OpenBabel09051908423D

 20 19  0  0  0  0  0  0  0  0999 V2000
   11.1434    7.1098    2.9563 C   0  0  0  0  0  0  0  0  0  0  0  0
   10.6780    5.8443    2.6005 C   0  0  0  0  0  0  0  0  0  0  0  0
   11.3936    4.7144    2.9952 C   0  0  0  0  0  0  0  0  0  0  0  0
   12.5657    4.8266    3.7443 C   0  0  0  0  0  0  0  0  0  0  0  0
   13.0209    6.1004    4.0893 C   0  0  0  0  0  0  0  0  0  0  0  0
   12.3179    7.2418    3.6996 C   0  0  0  0  0  0  0  0  0  0  0  0
   10.5869    7.9907    2.6507 H   0  0  0  0  0  0  0  0  0  0  0  0
    9.7656    5.7160    2.0274 H   0  0  0  0  0  0  0  0  0  0  0  0
    7.6111   -9.7959   -2.6392 N   0  0  0  0  0  0  0  0  0  0  0  0
    7.8683   -8.8158   -2.1978 N   0  0  0  0  0  0  0  0  0  0  0  0
   12.6817    8.2267    3.9753 H   0  0  0  0  0  0  0  0  0  0  0  0
   13.9353    6.1964    4.6674 H   0  0  0  0  0  0  0  0  0  0  0  0
   13.1139    3.9424    4.0401 H   0  0  0  0  0  0  0  0  0  0  0  0
   10.8136    3.4884    2.6607 O   0  0  0  0  0  0  0  0  0  0  0  0
   11.5664    2.4376    2.2053 C   0  0  0  0  0  0  0  0  0  0  0  0
   12.7645    2.4600    2.0682 O   0  0  0  0  0  0  0  0  0  0  0  0
   10.6625    1.2675    1.9029 C   0  0  0  0  0  0  0  0  0  0  0  0
   10.0933    0.9917    2.7955 H   0  0  0  0  0  0  0  0  0  0  0  0
    9.9403    1.5427    1.1285 H   0  0  0  0  0  0  0  0  0  0  0  0
   11.2645    0.4238    1.5673 H   0  0  0  0  0  0  0  0  0  0  0  0
  1  6  1  0  0  0  0
  2  1  2  0  0  0  0
  2  3  1  0  0  0  0
  3  4  2  0  0  0  0
  4 13  1  0  0  0  0
  4  5  1  0  0  0  0
  5 12  1  0  0  0  0
  6 11  1  0  0  0  0
  6  5  2  0  0  0  0
  7  1  1  0  0  0  0
  8  2  1  0  0  0  0
  9 10  3  0  0  0  0
 14  3  1  0  0  0  0
 15 14  1  0  0  0  0
 16 15  2  0  0  0  0
 17 15  1  0  0  0  0
 17 18  1  0  0  0  0
 19 17  1  0  0  0  0
 20 17  1  0  0  0  0
M  END
