Coordinates from ORCA-job Ph-N2-OAc-B3LYPG-6-31G_dp-MTMO-d009-169-n800
 OpenBabel09051908423D

 20 19  0  0  0  0  0  0  0  0999 V2000
   11.2255    6.5695    2.7816 C   0  0  0  0  0  0  0  0  0  0  0  0
   10.5782    5.3746    2.4687 C   0  0  0  0  0  0  0  0  0  0  0  0
   11.1891    4.1611    2.7835 C   0  0  0  0  0  0  0  0  0  0  0  0
   12.4354    4.1207    3.4103 C   0  0  0  0  0  0  0  0  0  0  0  0
   13.0725    5.3253    3.7136 C   0  0  0  0  0  0  0  0  0  0  0  0
   12.4758    6.5486    3.4027 C   0  0  0  0  0  0  0  0  0  0  0  0
   10.7512    7.5154    2.5379 H   0  0  0  0  0  0  0  0  0  0  0  0
    9.6048    5.3655    1.9901 H   0  0  0  0  0  0  0  0  0  0  0  0
    9.9609   -4.6589   -0.6128 N   0  0  0  0  0  0  0  0  0  0  0  0
    9.9812   -3.6381   -0.1897 N   0  0  0  0  0  0  0  0  0  0  0  0
   12.9806    7.4787    3.6449 H   0  0  0  0  0  0  0  0  0  0  0  0
   14.0444    5.3018    4.1971 H   0  0  0  0  0  0  0  0  0  0  0  0
   12.9001    3.1727    3.6449 H   0  0  0  0  0  0  0  0  0  0  0  0
   10.4351    3.0186    2.5044 O   0  0  0  0  0  0  0  0  0  0  0  0
   11.0068    1.8889    1.9790 C   0  0  0  0  0  0  0  0  0  0  0  0
   12.1792    1.7689    1.7221 O   0  0  0  0  0  0  0  0  0  0  0  0
    9.9432    0.8376    1.7748 C   0  0  0  0  0  0  0  0  0  0  0  0
    9.4483    0.6169    2.7250 H   0  0  0  0  0  0  0  0  0  0  0  0
    9.1767    1.2081    1.0875 H   0  0  0  0  0  0  0  0  0  0  0  0
   10.3984   -0.0662    1.3720 H   0  0  0  0  0  0  0  0  0  0  0  0
  1  6  1  0  0  0  0
  2  1  2  0  0  0  0
  2  3  1  0  0  0  0
  3  4  2  0  0  0  0
  4 13  1  0  0  0  0
  4  5  1  0  0  0  0
  5 12  1  0  0  0  0
  6 11  1  0  0  0  0
  6  5  2  0  0  0  0
  7  1  1  0  0  0  0
  8  2  1  0  0  0  0
  9 10  3  0  0  0  0
 14  3  1  0  0  0  0
 15 14  1  0  0  0  0
 16 15  2  0  0  0  0
 17 15  1  0  0  0  0
 17 18  1  0  0  0  0
 19 17  1  0  0  0  0
 20 17  1  0  0  0  0
M  END
