Coordinates from ORCA-job Ph-N2-OAc-B3LYPG-6-31G_dp-MTMO-d009-169-n800
 OpenBabel09051908423D

 20 19  0  0  0  0  0  0  0  0999 V2000
   11.2032    6.6506    2.8103 C   0  0  0  0  0  0  0  0  0  0  0  0
   10.5868    5.4418    2.4884 C   0  0  0  0  0  0  0  0  0  0  0  0
   11.2185    4.2419    2.8139 C   0  0  0  0  0  0  0  0  0  0  0  0
   12.4554    4.2287    3.4603 C   0  0  0  0  0  0  0  0  0  0  0  0
   13.0615    5.4470    3.7724 C   0  0  0  0  0  0  0  0  0  0  0  0
   12.4437    6.6570    3.4509 C   0  0  0  0  0  0  0  0  0  0  0  0
   10.7125    7.5859    2.5582 H   0  0  0  0  0  0  0  0  0  0  0  0
    9.6213    5.4116    1.9947 H   0  0  0  0  0  0  0  0  0  0  0  0
    9.6065   -5.4214   -0.8854 N   0  0  0  0  0  0  0  0  0  0  0  0
    9.6692   -4.3917   -0.4888 N   0  0  0  0  0  0  0  0  0  0  0  0
   12.9245    7.5979    3.7001 H   0  0  0  0  0  0  0  0  0  0  0  0
   14.0261    5.4448    4.2710 H   0  0  0  0  0  0  0  0  0  0  0  0
   12.9367    3.2911    3.7031 H   0  0  0  0  0  0  0  0  0  0  0  0
   10.4937    3.0835    2.5239 O   0  0  0  0  0  0  0  0  0  0  0  0
   11.0977    1.9665    2.0080 C   0  0  0  0  0  0  0  0  0  0  0  0
   12.2764    1.8710    1.7704 O   0  0  0  0  0  0  0  0  0  0  0  0
   10.0599    0.8935    1.7854 C   0  0  0  0  0  0  0  0  0  0  0  0
    9.5503    0.6642    2.7257 H   0  0  0  0  0  0  0  0  0  0  0  0
    9.3006    1.2466    1.0812 H   0  0  0  0  0  0  0  0  0  0  0  0
   10.5427   -0.0010    1.3939 H   0  0  0  0  0  0  0  0  0  0  0  0
  1  6  1  0  0  0  0
  2  1  2  0  0  0  0
  2  3  1  0  0  0  0
  3  4  2  0  0  0  0
  4 13  1  0  0  0  0
  4  5  1  0  0  0  0
  5 12  1  0  0  0  0
  6 11  1  0  0  0  0
  6  5  2  0  0  0  0
  7  1  1  0  0  0  0
  8  2  1  0  0  0  0
  9 10  3  0  0  0  0
 14  3  1  0  0  0  0
 15 14  1  0  0  0  0
 16 15  2  0  0  0  0
 17 15  1  0  0  0  0
 17 18  1  0  0  0  0
 19 17  1  0  0  0  0
 20 17  1  0  0  0  0
M  END
