Coordinates from ORCA-job Ph-N2-OAc-B3LYPG-6-31G_dp-MTMO-d009-169-n800
 OpenBabel09051908423D

 20 19  0  0  0  0  0  0  0  0999 V2000
   11.8716    5.8058    2.3076 C   0  0  0  0  0  0  0  0  0  0  0  0
   10.7800    4.9441    2.1984 C   0  0  0  0  0  0  0  0  0  0  0  0
   10.8897    3.6374    2.6714 C   0  0  0  0  0  0  0  0  0  0  0  0
   12.0693    3.1761    3.2562 C   0  0  0  0  0  0  0  0  0  0  0  0
   13.1551    4.0482    3.3541 C   0  0  0  0  0  0  0  0  0  0  0  0
   13.0629    5.3596    2.8833 C   0  0  0  0  0  0  0  0  0  0  0  0
   11.7888    6.8243    1.9405 H   0  0  0  0  0  0  0  0  0  0  0  0
    9.8435    5.2686    1.7571 H   0  0  0  0  0  0  0  0  0  0  0  0
   13.4862    0.9916   -0.0262 N   0  0  0  0  0  0  0  0  0  0  0  0
   13.9636    1.0076    0.9703 N   0  0  0  0  0  0  0  0  0  0  0  0
   13.9136    6.0292    2.9668 H   0  0  0  0  0  0  0  0  0  0  0  0
   14.0785    3.6949    3.8032 H   0  0  0  0  0  0  0  0  0  0  0  0
   12.1410    2.1582    3.6158 H   0  0  0  0  0  0  0  0  0  0  0  0
    9.7288    2.8626    2.5962 O   0  0  0  0  0  0  0  0  0  0  0  0
    9.7694    1.5674    2.1511 C   0  0  0  0  0  0  0  0  0  0  0  0
   10.7719    0.9940    1.8019 O   0  0  0  0  0  0  0  0  0  0  0  0
    8.3771    0.9856    2.1666 C   0  0  0  0  0  0  0  0  0  0  0  0
    7.9705    1.0155    3.1819 H   0  0  0  0  0  0  0  0  0  0  0  0
    7.7138    1.5813    1.5329 H   0  0  0  0  0  0  0  0  0  0  0  0
    8.4121   -0.0425    1.8085 H   0  0  0  0  0  0  0  0  0  0  0  0
  1  6  1  0  0  0  0
  2  1  2  0  0  0  0
  2  3  1  0  0  0  0
  3  4  2  0  0  0  0
  4  5  1  0  0  0  0
  4 13  1  0  0  0  0
  5 12  1  0  0  0  0
  6 11  1  0  0  0  0
  6  5  2  0  0  0  0
  7  1  1  0  0  0  0
  8  2  1  0  0  0  0
  9 10  3  0  0  0  0
 14  3  1  0  0  0  0
 15 17  1  0  0  0  0
 15 14  1  0  0  0  0
 16 15  2  0  0  0  0
 17 18  1  0  0  0  0
 19 17  1  0  0  0  0
 20 17  1  0  0  0  0
M  END
