Coordinates from ORCA-job Ph-N2-OAc-B3LYPG-6-31G_dp-MTMO-d009-169-n800
 OpenBabel09051908423D

 20 19  0  0  0  0  0  0  0  0999 V2000
   11.3542    6.4363    2.6785 C   0  0  0  0  0  0  0  0  0  0  0  0
   10.5896    5.2964    2.4310 C   0  0  0  0  0  0  0  0  0  0  0  0
   11.1055    4.0419    2.7540 C   0  0  0  0  0  0  0  0  0  0  0  0
   12.3723    3.9062    3.3235 C   0  0  0  0  0  0  0  0  0  0  0  0
   13.1272    5.0559    3.5617 C   0  0  0  0  0  0  0  0  0  0  0  0
   12.6261    6.3195    3.2423 C   0  0  0  0  0  0  0  0  0  0  0  0
   10.9541    7.4144    2.4283 H   0  0  0  0  0  0  0  0  0  0  0  0
    9.5977    5.3619    1.9970 H   0  0  0  0  0  0  0  0  0  0  0  0
   11.2670   -3.3389   -0.3509 N   0  0  0  0  0  0  0  0  0  0  0  0
   10.6469   -2.5571    0.1241 N   0  0  0  0  0  0  0  0  0  0  0  0
   13.2220    7.2066    3.4334 H   0  0  0  0  0  0  0  0  0  0  0  0
   14.1153    4.9582    4.0012 H   0  0  0  0  0  0  0  0  0  0  0  0
   12.7619    2.9263    3.5648 H   0  0  0  0  0  0  0  0  0  0  0  0
   10.2437    2.9624    2.5469 O   0  0  0  0  0  0  0  0  0  0  0  0
   10.6882    1.7857    2.0008 C   0  0  0  0  0  0  0  0  0  0  0  0
   11.8267    1.5754    1.6622 O   0  0  0  0  0  0  0  0  0  0  0  0
    9.5386    0.8137    1.8979 C   0  0  0  0  0  0  0  0  0  0  0  0
    9.1510    0.5923    2.8967 H   0  0  0  0  0  0  0  0  0  0  0  0
    8.7199    1.2566    1.3235 H   0  0  0  0  0  0  0  0  0  0  0  0
    9.8794   -0.1041    1.4207 H   0  0  0  0  0  0  0  0  0  0  0  0
  1  6  1  0  0  0  0
  2  1  2  0  0  0  0
  2  3  1  0  0  0  0
  3  4  2  0  0  0  0
  4  5  1  0  0  0  0
  4 13  1  0  0  0  0
  5 12  1  0  0  0  0
  6 11  1  0  0  0  0
  6  5  2  0  0  0  0
  7  1  1  0  0  0  0
  8  2  1  0  0  0  0
  9 10  3  0  0  0  0
 14  3  1  0  0  0  0
 15 14  1  0  0  0  0
 16 15  2  0  0  0  0
 17 15  1  0  0  0  0
 17 18  1  0  0  0  0
 19 17  1  0  0  0  0
 20 17  1  0  0  0  0
M  END
