Coordinates from ORCA-job Ph-N2-OAc-B3LYPG-6-31G_dp-MTMO-d009-169-n800
 OpenBabel09051908423D

 20 19  0  0  0  0  0  0  0  0999 V2000
   11.2990    6.4718    2.7095 C   0  0  0  0  0  0  0  0  0  0  0  0
   10.5822    5.3073    2.4351 C   0  0  0  0  0  0  0  0  0  0  0  0
   11.1366    4.0692    2.7580 C   0  0  0  0  0  0  0  0  0  0  0  0
   12.3948    3.9742    3.3543 C   0  0  0  0  0  0  0  0  0  0  0  0
   13.1018    5.1484    3.6192 C   0  0  0  0  0  0  0  0  0  0  0  0
   12.5619    6.3958    3.3000 C   0  0  0  0  0  0  0  0  0  0  0  0
   10.8689    7.4370    2.4595 H   0  0  0  0  0  0  0  0  0  0  0  0
    9.5981    5.3411    1.9804 H   0  0  0  0  0  0  0  0  0  0  0  0
   10.7231   -3.7016   -0.4295 N   0  0  0  0  0  0  0  0  0  0  0  0
   10.4218   -2.7848    0.1090 N   0  0  0  0  0  0  0  0  0  0  0  0
   13.1207    7.3022    3.5120 H   0  0  0  0  0  0  0  0  0  0  0  0
   14.0831    5.0824    4.0792 H   0  0  0  0  0  0  0  0  0  0  0  0
   12.8148    3.0069    3.5954 H   0  0  0  0  0  0  0  0  0  0  0  0
   10.3189    2.9618    2.5214 O   0  0  0  0  0  0  0  0  0  0  0  0
   10.8181    1.8032    1.9836 C   0  0  0  0  0  0  0  0  0  0  0  0
   11.9723    1.6316    1.6784 O   0  0  0  0  0  0  0  0  0  0  0  0
    9.7036    0.7961    1.8398 C   0  0  0  0  0  0  0  0  0  0  0  0
    9.2711    0.5785    2.8208 H   0  0  0  0  0  0  0  0  0  0  0  0
    8.9036    1.2069    1.2170 H   0  0  0  0  0  0  0  0  0  0  0  0
   10.0929   -0.1184    1.3941 H   0  0  0  0  0  0  0  0  0  0  0  0
  1  6  1  0  0  0  0
  2  1  2  0  0  0  0
  2  3  1  0  0  0  0
  3  4  2  0  0  0  0
  4 13  1  0  0  0  0
  4  5  1  0  0  0  0
  5 12  1  0  0  0  0
  6 11  1  0  0  0  0
  6  5  2  0  0  0  0
  7  1  1  0  0  0  0
  8  2  1  0  0  0  0
  9 10  3  0  0  0  0
 14  3  1  0  0  0  0
 15 14  1  0  0  0  0
 16 15  2  0  0  0  0
 17 15  1  0  0  0  0
 17 18  1  0  0  0  0
 19 17  1  0  0  0  0
 20 17  1  0  0  0  0
M  END
