Coordinates from ORCA-job Ph-N2-OAc-B3LYPG-6-31G_dp-MTMO-d009-169-n800
 OpenBabel09051908423D

 20 19  0  0  0  0  0  0  0  0999 V2000
   11.1556    7.1550    2.9742 C   0  0  0  0  0  0  0  0  0  0  0  0
   10.6905    5.8896    2.6178 C   0  0  0  0  0  0  0  0  0  0  0  0
   11.4062    4.7597    3.0124 C   0  0  0  0  0  0  0  0  0  0  0  0
   12.5779    4.8718    3.7620 C   0  0  0  0  0  0  0  0  0  0  0  0
   13.0329    6.1456    4.1076 C   0  0  0  0  0  0  0  0  0  0  0  0
   12.3298    7.2869    3.7179 C   0  0  0  0  0  0  0  0  0  0  0  0
   10.5991    8.0359    2.6686 H   0  0  0  0  0  0  0  0  0  0  0  0
    9.7784    5.7613    2.0443 H   0  0  0  0  0  0  0  0  0  0  0  0
    7.4968  -10.2035   -2.7940 N   0  0  0  0  0  0  0  0  0  0  0  0
    7.7554   -9.2235   -2.3531 N   0  0  0  0  0  0  0  0  0  0  0  0
   12.6934    8.2718    3.9941 H   0  0  0  0  0  0  0  0  0  0  0  0
   13.9470    6.2414    4.6861 H   0  0  0  0  0  0  0  0  0  0  0  0
   13.1261    3.9876    4.0578 H   0  0  0  0  0  0  0  0  0  0  0  0
   10.8264    3.5337    2.6773 O   0  0  0  0  0  0  0  0  0  0  0  0
   11.5796    2.4831    2.2219 C   0  0  0  0  0  0  0  0  0  0  0  0
   12.7777    2.5057    2.0853 O   0  0  0  0  0  0  0  0  0  0  0  0
   10.6760    1.3129    1.9188 C   0  0  0  0  0  0  0  0  0  0  0  0
   10.1065    1.0367    2.8110 H   0  0  0  0  0  0  0  0  0  0  0  0
    9.9540    1.5884    1.1442 H   0  0  0  0  0  0  0  0  0  0  0  0
   11.2782    0.4695    1.5832 H   0  0  0  0  0  0  0  0  0  0  0  0
  1  6  1  0  0  0  0
  2  1  2  0  0  0  0
  2  3  1  0  0  0  0
  3  4  2  0  0  0  0
  4 13  1  0  0  0  0
  4  5  1  0  0  0  0
  5 12  1  0  0  0  0
  6 11  1  0  0  0  0
  6  5  2  0  0  0  0
  7  1  1  0  0  0  0
  8  2  1  0  0  0  0
  9 10  3  0  0  0  0
 14  3  1  0  0  0  0
 15 14  1  0  0  0  0
 16 15  2  0  0  0  0
 17 15  1  0  0  0  0
 17 18  1  0  0  0  0
 19 17  1  0  0  0  0
 20 17  1  0  0  0  0
M  END
