Coordinates from ORCA-job Ph-N2-OAc-B3LYPG-6-31G_dp-MTMO-d009-169-n800
 OpenBabel09051908423D

 20 19  0  0  0  0  0  0  0  0999 V2000
   11.1566    7.1587    2.9756 C   0  0  0  0  0  0  0  0  0  0  0  0
   10.6915    5.8932    2.6192 C   0  0  0  0  0  0  0  0  0  0  0  0
   11.4072    4.7633    3.0138 C   0  0  0  0  0  0  0  0  0  0  0  0
   12.5789    4.8754    3.7634 C   0  0  0  0  0  0  0  0  0  0  0  0
   13.0338    6.1492    4.1091 C   0  0  0  0  0  0  0  0  0  0  0  0
   12.3308    7.2905    3.7194 C   0  0  0  0  0  0  0  0  0  0  0  0
   10.6001    8.0395    2.6700 H   0  0  0  0  0  0  0  0  0  0  0  0
    9.7794    5.7650    2.0457 H   0  0  0  0  0  0  0  0  0  0  0  0
    7.4877  -10.2361   -2.8064 N   0  0  0  0  0  0  0  0  0  0  0  0
    7.7464   -9.2562   -2.3655 N   0  0  0  0  0  0  0  0  0  0  0  0
   12.6943    8.2755    3.9956 H   0  0  0  0  0  0  0  0  0  0  0  0
   13.9479    6.2450    4.6876 H   0  0  0  0  0  0  0  0  0  0  0  0
   13.1271    3.9912    4.0592 H   0  0  0  0  0  0  0  0  0  0  0  0
   10.8275    3.5373    2.6786 O   0  0  0  0  0  0  0  0  0  0  0  0
   11.5806    2.4868    2.2232 C   0  0  0  0  0  0  0  0  0  0  0  0
   12.7788    2.5093    2.0866 O   0  0  0  0  0  0  0  0  0  0  0  0
   10.6770    1.3166    1.9201 C   0  0  0  0  0  0  0  0  0  0  0  0
   10.1075    1.0404    2.8123 H   0  0  0  0  0  0  0  0  0  0  0  0
    9.9551    1.5920    1.1455 H   0  0  0  0  0  0  0  0  0  0  0  0
   11.2793    0.4732    1.5844 H   0  0  0  0  0  0  0  0  0  0  0  0
  1  6  1  0  0  0  0
  2  1  2  0  0  0  0
  2  3  1  0  0  0  0
  3  4  2  0  0  0  0
  4 13  1  0  0  0  0
  4  5  1  0  0  0  0
  5 12  1  0  0  0  0
  6 11  1  0  0  0  0
  6  5  2  0  0  0  0
  7  1  1  0  0  0  0
  8  2  1  0  0  0  0
  9 10  3  0  0  0  0
 14  3  1  0  0  0  0
 15 14  1  0  0  0  0
 16 15  2  0  0  0  0
 17 15  1  0  0  0  0
 17 18  1  0  0  0  0
 19 17  1  0  0  0  0
 20 17  1  0  0  0  0
M  END
