Coordinates from ORCA-job Ph-N2-OAc-B3LYPG-6-31G_dp-MTMO-d009-169-n800
 OpenBabel09051908423D

 20 19  0  0  0  0  0  0  0  0999 V2000
   11.4085    6.3888    2.6211 C   0  0  0  0  0  0  0  0  0  0  0  0
   10.6015    5.2718    2.4060 C   0  0  0  0  0  0  0  0  0  0  0  0
   11.0767    4.0070    2.7498 C   0  0  0  0  0  0  0  0  0  0  0  0
   12.3442    3.8383    3.3083 C   0  0  0  0  0  0  0  0  0  0  0  0
   13.1419    4.9651    3.5142 C   0  0  0  0  0  0  0  0  0  0  0  0
   12.6819    6.2387    3.1736 C   0  0  0  0  0  0  0  0  0  0  0  0
   11.0403    7.3750    2.3545 H   0  0  0  0  0  0  0  0  0  0  0  0
    9.6076    5.3634    1.9811 H   0  0  0  0  0  0  0  0  0  0  0  0
   11.7060   -2.8788   -0.3274 N   0  0  0  0  0  0  0  0  0  0  0  0
   10.9046   -2.2748    0.1354 N   0  0  0  0  0  0  0  0  0  0  0  0
   13.3108    7.1080    3.3396 H   0  0  0  0  0  0  0  0  0  0  0  0
   14.1309    4.8417    3.9453 H   0  0  0  0  0  0  0  0  0  0  0  0
   12.7017    2.8503    3.5663 H   0  0  0  0  0  0  0  0  0  0  0  0
   10.1759    2.9536    2.5758 O   0  0  0  0  0  0  0  0  0  0  0  0
   10.5723    1.7562    2.0379 C   0  0  0  0  0  0  0  0  0  0  0  0
   11.6966    1.5060    1.6794 O   0  0  0  0  0  0  0  0  0  0  0  0
    9.3924    0.8180    1.9743 C   0  0  0  0  0  0  0  0  0  0  0  0
    9.0369    0.6031    2.9866 H   0  0  0  0  0  0  0  0  0  0  0  0
    8.5654    1.2853    1.4325 H   0  0  0  0  0  0  0  0  0  0  0  0
    9.6912   -0.1070    1.4831 H   0  0  0  0  0  0  0  0  0  0  0  0
  1  6  1  0  0  0  0
  2  1  2  0  0  0  0
  2  3  1  0  0  0  0
  3  4  2  0  0  0  0
  4  5  1  0  0  0  0
  4 13  1  0  0  0  0
  5 12  1  0  0  0  0
  6 11  1  0  0  0  0
  6  5  2  0  0  0  0
  7  1  1  0  0  0  0
  8  2  1  0  0  0  0
  9 10  3  0  0  0  0
 14  3  1  0  0  0  0
 15 14  1  0  0  0  0
 16 15  2  0  0  0  0
 17 15  1  0  0  0  0
 17 18  1  0  0  0  0
 19 17  1  0  0  0  0
 20 17  1  0  0  0  0
M  END
