Coordinates from ORCA-job Ph-N2-OAc-B3LYPG-6-31G_dp-MTMO-d009-169-n800
 OpenBabel09051908423D

 20 19  0  0  0  0  0  0  0  0999 V2000
   11.7893    5.9001    2.4223 C   0  0  0  0  0  0  0  0  0  0  0  0
   10.7172    5.0151    2.3081 C   0  0  0  0  0  0  0  0  0  0  0  0
   10.8869    3.6824    2.6803 C   0  0  0  0  0  0  0  0  0  0  0  0
   12.1082    3.2176    3.1694 C   0  0  0  0  0  0  0  0  0  0  0  0
   13.1731    4.1143    3.2739 C   0  0  0  0  0  0  0  0  0  0  0  0
   13.0211    5.4517    2.9032 C   0  0  0  0  0  0  0  0  0  0  0  0
   11.6598    6.9387    2.1327 H   0  0  0  0  0  0  0  0  0  0  0  0
    9.7501    5.3406    1.9394 H   0  0  0  0  0  0  0  0  0  0  0  0
   13.6038    0.3500    0.0406 N   0  0  0  0  0  0  0  0  0  0  0  0
   13.9103    0.6571    1.0568 N   0  0  0  0  0  0  0  0  0  0  0  0
   13.8566    6.1397    2.9906 H   0  0  0  0  0  0  0  0  0  0  0  0
   14.1278    3.7585    3.6498 H   0  0  0  0  0  0  0  0  0  0  0  0
   12.2275    2.1801    3.4515 H   0  0  0  0  0  0  0  0  0  0  0  0
    9.7432    2.8822    2.6076 O   0  0  0  0  0  0  0  0  0  0  0  0
    9.7927    1.6139    2.0926 C   0  0  0  0  0  0  0  0  0  0  0  0
   10.7924    1.0808    1.6776 O   0  0  0  0  0  0  0  0  0  0  0  0
    8.4133    1.0027    2.1261 C   0  0  0  0  0  0  0  0  0  0  0  0
    8.0394    0.9786    3.1539 H   0  0  0  0  0  0  0  0  0  0  0  0
    7.7185    1.6125    1.5413 H   0  0  0  0  0  0  0  0  0  0  0  0
    8.4563   -0.0069    1.7200 H   0  0  0  0  0  0  0  0  0  0  0  0
  1  6  1  0  0  0  0
  2  1  2  0  0  0  0
  2  3  1  0  0  0  0
  3  4  2  0  0  0  0
  4  5  1  0  0  0  0
  4 13  1  0  0  0  0
  5 12  1  0  0  0  0
  6 11  1  0  0  0  0
  6  5  2  0  0  0  0
  7  1  1  0  0  0  0
  8  2  1  0  0  0  0
  9 10  3  0  0  0  0
 14  3  1  0  0  0  0
 15 17  1  0  0  0  0
 15 14  1  0  0  0  0
 16 15  2  0  0  0  0
 17 18  1  0  0  0  0
 19 17  1  0  0  0  0
 20 17  1  0  0  0  0
M  END
