Coordinates from ORCA-job Ph-N2-OAc-B3LYPG-6-31G_dp-MTMO-d009-169-n800
 OpenBabel09051908423D

 20 19  0  0  0  0  0  0  0  0999 V2000
   12.0549    5.6377    2.1224 C   0  0  0  0  0  0  0  0  0  0  0  0
   10.9598    4.7854    1.9775 C   0  0  0  0  0  0  0  0  0  0  0  0
   10.9429    3.5698    2.6601 C   0  0  0  0  0  0  0  0  0  0  0  0
   11.9995    3.1911    3.4892 C   0  0  0  0  0  0  0  0  0  0  0  0
   13.0909    4.0521    3.6199 C   0  0  0  0  0  0  0  0  0  0  0  0
   13.1249    5.2722    2.9417 C   0  0  0  0  0  0  0  0  0  0  0  0
   12.0689    6.5863    1.5941 H   0  0  0  0  0  0  0  0  0  0  0  0
   10.1155    5.0487    1.3489 H   0  0  0  0  0  0  0  0  0  0  0  0
   12.7164    1.8175   -0.1325 N   0  0  0  0  0  0  0  0  0  0  0  0
   13.7250    1.6310    0.2788 N   0  0  0  0  0  0  0  0  0  0  0  0
   13.9787    5.9339    3.0528 H   0  0  0  0  0  0  0  0  0  0  0  0
   13.9199    3.7624    4.2591 H   0  0  0  0  0  0  0  0  0  0  0  0
   11.9749    2.2425    4.0087 H   0  0  0  0  0  0  0  0  0  0  0  0
    9.7769    2.8127    2.5207 O   0  0  0  0  0  0  0  0  0  0  0  0
    9.8278    1.4583    2.3220 C   0  0  0  0  0  0  0  0  0  0  0  0
   10.8448    0.8112    2.2655 O   0  0  0  0  0  0  0  0  0  0  0  0
    8.4269    0.9167    2.1798 C   0  0  0  0  0  0  0  0  0  0  0  0
    7.8263    1.1872    3.0534 H   0  0  0  0  0  0  0  0  0  0  0  0
    7.9443    1.3596    1.3033 H   0  0  0  0  0  0  0  0  0  0  0  0
    8.4684   -0.1668    2.0721 H   0  0  0  0  0  0  0  0  0  0  0  0
  1  6  1  0  0  0  0
  2  1  2  0  0  0  0
  2  3  1  0  0  0  0
  3  4  2  0  0  0  0
  4  5  1  0  0  0  0
  4 13  1  0  0  0  0
  5 12  1  0  0  0  0
  6 11  1  0  0  0  0
  6  5  2  0  0  0  0
  7  1  1  0  0  0  0
  8  2  1  0  0  0  0
  9 10  3  0  0  0  0
 14  3  1  0  0  0  0
 15 14  1  0  0  0  0
 16 15  2  0  0  0  0
 17 15  1  0  0  0  0
 17 18  1  0  0  0  0
 19 17  1  0  0  0  0
 20 17  1  0  0  0  0
M  END
