Coordinates from ORCA-job Ph-N2-OAc-B3LYPG-6-31G_dp-MTMO-d009-169-n800
 OpenBabel09051908423D

 20 19  0  0  0  0  0  0  0  0999 V2000
   11.9290    5.7675    2.2550 C   0  0  0  0  0  0  0  0  0  0  0  0
   10.8438    4.9014    2.1196 C   0  0  0  0  0  0  0  0  0  0  0  0
   10.9157    3.6215    2.6682 C   0  0  0  0  0  0  0  0  0  0  0  0
   12.0521    3.1917    3.3548 C   0  0  0  0  0  0  0  0  0  0  0  0
   13.1319    4.0685    3.4782 C   0  0  0  0  0  0  0  0  0  0  0  0
   13.0773    5.3525    2.9327 C   0  0  0  0  0  0  0  0  0  0  0  0
   11.8746    6.7649    1.8296 H   0  0  0  0  0  0  0  0  0  0  0  0
    9.9397    5.2021    1.6006 H   0  0  0  0  0  0  0  0  0  0  0  0
   13.1287    1.2017   -0.1813 N   0  0  0  0  0  0  0  0  0  0  0  0
   13.8621    1.1434    0.6433 N   0  0  0  0  0  0  0  0  0  0  0  0
   13.9232    6.0253    3.0371 H   0  0  0  0  0  0  0  0  0  0  0  0
   14.0218    3.7396    4.0066 H   0  0  0  0  0  0  0  0  0  0  0  0
   12.0963    2.1947    3.7718 H   0  0  0  0  0  0  0  0  0  0  0  0
    9.7561    2.8502    2.5525 O   0  0  0  0  0  0  0  0  0  0  0  0
    9.8101    1.5188    2.2360 C   0  0  0  0  0  0  0  0  0  0  0  0
   10.8279    0.8992    2.0447 O   0  0  0  0  0  0  0  0  0  0  0  0
    8.4098    0.9621    2.1604 C   0  0  0  0  0  0  0  0  0  0  0  0
    7.8878    1.1253    3.1082 H   0  0  0  0  0  0  0  0  0  0  0  0
    7.8424    1.4822    1.3829 H   0  0  0  0  0  0  0  0  0  0  0  0
    8.4570   -0.1030    1.9366 H   0  0  0  0  0  0  0  0  0  0  0  0
  1  6  1  0  0  0  0
  2  1  2  0  0  0  0
  2  3  1  0  0  0  0
  3  4  2  0  0  0  0
  4  5  1  0  0  0  0
  4 13  1  0  0  0  0
  5 12  1  0  0  0  0
  6 11  1  0  0  0  0
  6  5  2  0  0  0  0
  7  1  1  0  0  0  0
  8  2  1  0  0  0  0
  9 10  3  0  0  0  0
 14  3  1  0  0  0  0
 15 14  1  0  0  0  0
 16 15  2  0  0  0  0
 17 15  1  0  0  0  0
 17 18  1  0  0  0  0
 19 17  1  0  0  0  0
 20 17  1  0  0  0  0
M  END
