Coordinates from ORCA-job Ph-N2-OAc-B3LYPG-6-31G_dp-MTMO-d009-169-n800
 OpenBabel09051908423D

 20 19  0  0  0  0  0  0  0  0999 V2000
   11.1061    6.9673    2.8992 C   0  0  0  0  0  0  0  0  0  0  0  0
   10.6386    5.7018    2.5460 C   0  0  0  0  0  0  0  0  0  0  0  0
   11.3538    4.5717    2.9409 C   0  0  0  0  0  0  0  0  0  0  0  0
   12.5274    4.6836    3.6876 C   0  0  0  0  0  0  0  0  0  0  0  0
   12.9847    5.9574    4.0300 C   0  0  0  0  0  0  0  0  0  0  0  0
   12.2822    7.0990    3.6401 C   0  0  0  0  0  0  0  0  0  0  0  0
   10.5500    7.8483    2.5934 H   0  0  0  0  0  0  0  0  0  0  0  0
    9.7251    5.5737    1.9749 H   0  0  0  0  0  0  0  0  0  0  0  0
    7.9777   -8.5087   -2.1512 N   0  0  0  0  0  0  0  0  0  0  0  0
    8.2273   -7.5265   -1.7100 N   0  0  0  0  0  0  0  0  0  0  0  0
   12.6475    8.0839    3.9137 H   0  0  0  0  0  0  0  0  0  0  0  0
   13.9003    6.0531    4.6062 H   0  0  0  0  0  0  0  0  0  0  0  0
   13.0753    3.7992    3.9836 H   0  0  0  0  0  0  0  0  0  0  0  0
   10.7718    3.3458    2.6092 O   0  0  0  0  0  0  0  0  0  0  0  0
   11.5226    2.2935    2.1540 C   0  0  0  0  0  0  0  0  0  0  0  0
   12.7205    2.3144    2.0145 O   0  0  0  0  0  0  0  0  0  0  0  0
   10.6168    1.1239    1.8551 C   0  0  0  0  0  0  0  0  0  0  0  0
   10.0490    0.8501    2.7491 H   0  0  0  0  0  0  0  0  0  0  0  0
    9.8935    1.3988    1.0816 H   0  0  0  0  0  0  0  0  0  0  0  0
   11.2172    0.2791    1.5197 H   0  0  0  0  0  0  0  0  0  0  0  0
  1  6  1  0  0  0  0
  2  1  2  0  0  0  0
  2  3  1  0  0  0  0
  3  4  2  0  0  0  0
  4 13  1  0  0  0  0
  4  5  1  0  0  0  0
  5 12  1  0  0  0  0
  6 11  1  0  0  0  0
  6  5  2  0  0  0  0
  7  1  1  0  0  0  0
  8  2  1  0  0  0  0
  9 10  3  0  0  0  0
 14  3  1  0  0  0  0
 15 14  1  0  0  0  0
 16 15  2  0  0  0  0
 17 15  1  0  0  0  0
 17 18  1  0  0  0  0
 19 17  1  0  0  0  0
 20 17  1  0  0  0  0
M  END
