Coordinates from ORCA-job Ph-N2-OAc-B3LYPG-6-31G_dp-MTMO-d009-169-n800
 OpenBabel09051908423D

 20 19  0  0  0  0  0  0  0  0999 V2000
   11.2300    6.5556    2.7761 C   0  0  0  0  0  0  0  0  0  0  0  0
   10.5770    5.3632    2.4654 C   0  0  0  0  0  0  0  0  0  0  0  0
   11.1840    4.1473    2.7785 C   0  0  0  0  0  0  0  0  0  0  0  0
   12.4320    4.1021    3.4015 C   0  0  0  0  0  0  0  0  0  0  0  0
   13.0748    5.3041    3.7027 C   0  0  0  0  0  0  0  0  0  0  0  0
   12.4821    6.5298    3.3934 C   0  0  0  0  0  0  0  0  0  0  0  0
   10.7587    7.5034    2.5337 H   0  0  0  0  0  0  0  0  0  0  0  0
    9.6022    5.3580    1.9897 H   0  0  0  0  0  0  0  0  0  0  0  0
   10.0293   -4.5277   -0.5709 N   0  0  0  0  0  0  0  0  0  0  0  0
   10.0329   -3.5103   -0.1391 N   0  0  0  0  0  0  0  0  0  0  0  0
   12.9914    7.4579    3.6338 H   0  0  0  0  0  0  0  0  0  0  0  0
   14.0481    5.2769    4.1832 H   0  0  0  0  0  0  0  0  0  0  0  0
   12.8937    3.1522    3.6348 H   0  0  0  0  0  0  0  0  0  0  0  0
   10.4246    3.0079    2.5018 O   0  0  0  0  0  0  0  0  0  0  0  0
   10.9900    1.8754    1.9755 C   0  0  0  0  0  0  0  0  0  0  0  0
   12.1612    1.7503    1.7154 O   0  0  0  0  0  0  0  0  0  0  0  0
    9.9214    0.8285    1.7748 C   0  0  0  0  0  0  0  0  0  0  0  0
    9.4281    0.6107    2.7265 H   0  0  0  0  0  0  0  0  0  0  0  0
    9.1547    1.2019    1.0893 H   0  0  0  0  0  0  0  0  0  0  0  0
   10.3713   -0.0777    1.3714 H   0  0  0  0  0  0  0  0  0  0  0  0
  1  6  1  0  0  0  0
  2  1  2  0  0  0  0
  2  3  1  0  0  0  0
  3  4  2  0  0  0  0
  4 13  1  0  0  0  0
  4  5  1  0  0  0  0
  5 12  1  0  0  0  0
  6 11  1  0  0  0  0
  6  5  2  0  0  0  0
  7  1  1  0  0  0  0
  8  2  1  0  0  0  0
  9 10  3  0  0  0  0
 14  3  1  0  0  0  0
 15 14  1  0  0  0  0
 16 15  2  0  0  0  0
 17 15  1  0  0  0  0
 17 18  1  0  0  0  0
 19 17  1  0  0  0  0
 20 17  1  0  0  0  0
M  END
