Coordinates from ORCA-job Ph-N2-OAc-B3LYPG-6-31G_dp-MTMO-d009-169-n800
 OpenBabel09051908423D

 20 19  0  0  0  0  0  0  0  0999 V2000
   11.2146    6.6040    2.7950 C   0  0  0  0  0  0  0  0  0  0  0  0
   10.5814    5.4028    2.4773 C   0  0  0  0  0  0  0  0  0  0  0  0
   11.2018    4.1953    2.7965 C   0  0  0  0  0  0  0  0  0  0  0  0
   12.4438    4.1671    3.4324 C   0  0  0  0  0  0  0  0  0  0  0  0
   13.0668    5.3779    3.7404 C   0  0  0  0  0  0  0  0  0  0  0  0
   12.4604    6.5953    3.4252 C   0  0  0  0  0  0  0  0  0  0  0  0
   10.7327    7.5452    2.5478 H   0  0  0  0  0  0  0  0  0  0  0  0
    9.6116    5.3842    1.9917 H   0  0  0  0  0  0  0  0  0  0  0  0
    9.7987   -4.9855   -0.7214 N   0  0  0  0  0  0  0  0  0  0  0  0
    9.8450   -3.9587   -0.3150 N   0  0  0  0  0  0  0  0  0  0  0  0
   12.9543    7.5303    3.6710 H   0  0  0  0  0  0  0  0  0  0  0  0
   14.0354    5.3640    4.2309 H   0  0  0  0  0  0  0  0  0  0  0  0
   12.9162    3.2237    3.6704 H   0  0  0  0  0  0  0  0  0  0  0  0
   10.4614    3.0455    2.5119 O   0  0  0  0  0  0  0  0  0  0  0  0
   11.0481    1.9227    1.9886 C   0  0  0  0  0  0  0  0  0  0  0  0
   12.2233    1.8152    1.7390 O   0  0  0  0  0  0  0  0  0  0  0  0
    9.9970    0.8608    1.7758 C   0  0  0  0  0  0  0  0  0  0  0  0
    9.4970    0.6338    2.7218 H   0  0  0  0  0  0  0  0  0  0  0  0
    9.2323    1.2235    1.0824 H   0  0  0  0  0  0  0  0  0  0  0  0
   10.4655   -0.0375    1.3758 H   0  0  0  0  0  0  0  0  0  0  0  0
  1  6  1  0  0  0  0
  2  1  2  0  0  0  0
  2  3  1  0  0  0  0
  3  4  2  0  0  0  0
  4 13  1  0  0  0  0
  4  5  1  0  0  0  0
  5 12  1  0  0  0  0
  6 11  1  0  0  0  0
  6  5  2  0  0  0  0
  7  1  1  0  0  0  0
  8  2  1  0  0  0  0
  9 10  3  0  0  0  0
 14  3  1  0  0  0  0
 15 14  1  0  0  0  0
 16 15  2  0  0  0  0
 17 15  1  0  0  0  0
 17 18  1  0  0  0  0
 19 17  1  0  0  0  0
 20 17  1  0  0  0  0
M  END
