Coordinates from ORCA-job Ph-N2-OAc-B3LYPG-6-31G_dp-MTMO-d009-169-n800
 OpenBabel09051908423D

 20 19  0  0  0  0  0  0  0  0999 V2000
   11.4805    6.2993    2.5463 C   0  0  0  0  0  0  0  0  0  0  0  0
   10.6146    5.2191    2.3772 C   0  0  0  0  0  0  0  0  0  0  0  0
   11.0370    3.9403    2.7372 C   0  0  0  0  0  0  0  0  0  0  0  0
   12.3091    3.7213    3.2667 C   0  0  0  0  0  0  0  0  0  0  0  0
   13.1659    4.8115    3.4269 C   0  0  0  0  0  0  0  0  0  0  0  0
   12.7593    6.0986    3.0694 C   0  0  0  0  0  0  0  0  0  0  0  0
   11.1538    7.2964    2.2666 H   0  0  0  0  0  0  0  0  0  0  0  0
    9.6157    5.3504    1.9752 H   0  0  0  0  0  0  0  0  0  0  0  0
   12.2843   -2.0798   -0.2320 N   0  0  0  0  0  0  0  0  0  0  0  0
   11.3468   -1.7448    0.2477 N   0  0  0  0  0  0  0  0  0  0  0  0
   13.4340    6.9393    3.1997 H   0  0  0  0  0  0  0  0  0  0  0  0
   14.1586    4.6488    3.8357 H   0  0  0  0  0  0  0  0  0  0  0  0
   12.6247    2.7225    3.5377 H   0  0  0  0  0  0  0  0  0  0  0  0
   10.0831    2.9274    2.6095 O   0  0  0  0  0  0  0  0  0  0  0  0
   10.4055    1.7035    2.0824 C   0  0  0  0  0  0  0  0  0  0  0  0
   11.5050    1.3936    1.6939 O   0  0  0  0  0  0  0  0  0  0  0  0
    9.1808    0.8222    2.0708 C   0  0  0  0  0  0  0  0  0  0  0  0
    8.8324    0.6595    3.0950 H   0  0  0  0  0  0  0  0  0  0  0  0
    8.3687    1.3114    1.5256 H   0  0  0  0  0  0  0  0  0  0  0  0
    9.4275   -0.1310    1.6059 H   0  0  0  0  0  0  0  0  0  0  0  0
  1  6  1  0  0  0  0
  2  1  2  0  0  0  0
  2  3  1  0  0  0  0
  3  4  2  0  0  0  0
  4  5  1  0  0  0  0
  4 13  1  0  0  0  0
  5 12  1  0  0  0  0
  6 11  1  0  0  0  0
  6  5  2  0  0  0  0
  7  1  1  0  0  0  0
  8  2  1  0  0  0  0
  9 10  3  0  0  0  0
 14  3  1  0  0  0  0
 15 14  1  0  0  0  0
 16 15  2  0  0  0  0
 17 15  1  0  0  0  0
 17 18  1  0  0  0  0
 19 17  1  0  0  0  0
 20 17  1  0  0  0  0
M  END
