Coordinates from ORCA-job Ph-N2-OAc-B3LYPG-6-31G_dp-MTMO-d009-169-n800
 OpenBabel09051908423D

 20 18  0  0  0  0  0  0  0  0999 V2000
   13.2266    6.0739    2.2803 C   0  0  0  0  0  0  0  0  0  0  0  0
   12.7085    5.4704    1.1163 C   0  0  0  0  0  0  0  0  0  0  0  0
   12.0980    4.2988    1.4723 C   0  0  0  0  0  0  0  0  0  0  0  0
   11.8910    3.6446    2.5435 C   0  0  0  0  0  0  0  0  0  0  0  0
   12.4134    4.2493    3.7092 C   0  0  0  0  0  0  0  0  0  0  0  0
   13.0801    5.4739    3.5436 C   0  0  0  0  0  0  0  0  0  0  0  0
   13.7451    7.0239    2.1876 H   0  0  0  0  0  0  0  0  0  0  0  0
   12.7944    5.8909    0.1223 H   0  0  0  0  0  0  0  0  0  0  0  0
   11.3409    3.4495   -0.3420 N   0  0  0  0  0  0  0  0  0  0  0  0
   10.7696    2.5842   -0.7308 N   0  0  0  0  0  0  0  0  0  0  0  0
   13.4953    5.9747    4.4141 H   0  0  0  0  0  0  0  0  0  0  0  0
   12.3108    3.8017    4.6944 H   0  0  0  0  0  0  0  0  0  0  0  0
   10.9498    2.0064    2.8600 H   0  0  0  0  0  0  0  0  0  0  0  0
    9.1588    1.5969    1.4166 O   0  0  0  0  0  0  0  0  0  0  0  0
    9.4254    0.9507    2.4115 C   0  0  0  0  0  0  0  0  0  0  0  0
   10.4785    1.1988    3.2047 O   0  0  0  0  0  0  0  0  0  0  0  0
    8.6181   -0.2274    2.9096 C   0  0  0  0  0  0  0  0  0  0  0  0
    7.7801   -0.4079    2.2374 H   0  0  0  0  0  0  0  0  0  0  0  0
    9.2523   -1.1171    2.9668 H   0  0  0  0  0  0  0  0  0  0  0  0
    8.2506   -0.0266    3.9201 H   0  0  0  0  0  0  0  0  0  0  0  0
  1  6  2  0  0  0  0
  2  3  2  0  0  0  0
  2  1  1  0  0  0  0
  3  4  1  0  0  0  0
  4  5  2  0  0  0  0
  5 12  1  0  0  0  0
  6  5  1  0  0  0  0
  6 11  1  0  0  0  0
  7  1  1  0  0  0  0
  8  2  1  0  0  0  0
 10  9  3  0  0  0  0
 13 16  1  0  0  0  0
 14 15  2  0  0  0  0
 15 17  1  0  0  0  0
 15 16  1  0  0  0  0
 17 19  1  0  0  0  0
 17 20  1  0  0  0  0
 18 17  1  0  0  0  0
M  RAD  2   3   2   4   2
M  END
