Coordinates from ORCA-job Ph-N2-OAc-B3LYPG-6-31G_dp-MTMO-d009-169-n800
 OpenBabel09051908423D

 20 19  0  0  0  0  0  0  0  0999 V2000
   11.1127    6.9943    2.9101 C   0  0  0  0  0  0  0  0  0  0  0  0
   10.6460    5.7287    2.5563 C   0  0  0  0  0  0  0  0  0  0  0  0
   11.3615    4.5987    2.9512 C   0  0  0  0  0  0  0  0  0  0  0  0
   12.5346    4.7109    3.6985 C   0  0  0  0  0  0  0  0  0  0  0  0
   12.9912    5.9848    4.0416 C   0  0  0  0  0  0  0  0  0  0  0  0
   12.2884    7.1262    3.6517 C   0  0  0  0  0  0  0  0  0  0  0  0
   10.5564    7.8752    2.6043 H   0  0  0  0  0  0  0  0  0  0  0  0
    9.7328    5.6004    1.9846 H   0  0  0  0  0  0  0  0  0  0  0  0
    7.9066   -8.7529   -2.2437 N   0  0  0  0  0  0  0  0  0  0  0  0
    8.1583   -7.7714   -1.8020 N   0  0  0  0  0  0  0  0  0  0  0  0
   12.6532    8.1112    3.9258 H   0  0  0  0  0  0  0  0  0  0  0  0
   13.9064    6.0807    4.6183 H   0  0  0  0  0  0  0  0  0  0  0  0
   13.0826    3.8266    3.9945 H   0  0  0  0  0  0  0  0  0  0  0  0
   10.7801    3.3727    2.6187 O   0  0  0  0  0  0  0  0  0  0  0  0
   11.5316    2.3209    2.1635 C   0  0  0  0  0  0  0  0  0  0  0  0
   12.7295    2.3423    2.0248 O   0  0  0  0  0  0  0  0  0  0  0  0
   10.6265    1.1510    1.8637 C   0  0  0  0  0  0  0  0  0  0  0  0
   10.0583    0.8767    2.7573 H   0  0  0  0  0  0  0  0  0  0  0  0
    9.9034    1.4259    1.0900 H   0  0  0  0  0  0  0  0  0  0  0  0
   11.2274    0.3066    1.5283 H   0  0  0  0  0  0  0  0  0  0  0  0
  1  6  1  0  0  0  0
  2  1  2  0  0  0  0
  2  3  1  0  0  0  0
  3  4  2  0  0  0  0
  4 13  1  0  0  0  0
  4  5  1  0  0  0  0
  5 12  1  0  0  0  0
  6 11  1  0  0  0  0
  6  5  2  0  0  0  0
  7  1  1  0  0  0  0
  8  2  1  0  0  0  0
  9 10  3  0  0  0  0
 14  3  1  0  0  0  0
 15 14  1  0  0  0  0
 16 15  2  0  0  0  0
 17 15  1  0  0  0  0
 17 18  1  0  0  0  0
 19 17  1  0  0  0  0
 20 17  1  0  0  0  0
M  END
