Coordinates from ORCA-job Ph-N2-OAc-B3LYPG-6-31G_dp-MTMO-d009-169-n800
 OpenBabel09051908423D

 20 19  0  0  0  0  0  0  0  0999 V2000
   12.0591    5.6330    2.1170 C   0  0  0  0  0  0  0  0  0  0  0  0
   10.9637    4.7811    1.9720 C   0  0  0  0  0  0  0  0  0  0  0  0
   10.9447    3.5669    2.6571 C   0  0  0  0  0  0  0  0  0  0  0  0
   11.9998    3.1893    3.4887 C   0  0  0  0  0  0  0  0  0  0  0  0
   13.0915    4.0499    3.6196 C   0  0  0  0  0  0  0  0  0  0  0  0
   13.1274    5.2686    2.9389 C   0  0  0  0  0  0  0  0  0  0  0  0
   12.0745    6.5804    1.5867 H   0  0  0  0  0  0  0  0  0  0  0  0
   10.1207    5.0437    1.3414 H   0  0  0  0  0  0  0  0  0  0  0  0
   12.7008    1.8437   -0.1111 N   0  0  0  0  0  0  0  0  0  0  0  0
   13.7134    1.6564    0.2899 N   0  0  0  0  0  0  0  0  0  0  0  0
   13.9815    5.9300    3.0501 H   0  0  0  0  0  0  0  0  0  0  0  0
   13.9192    3.7609    4.2608 H   0  0  0  0  0  0  0  0  0  0  0  0
   11.9739    2.2417    4.0100 H   0  0  0  0  0  0  0  0  0  0  0  0
    9.7784    2.8103    2.5175 O   0  0  0  0  0  0  0  0  0  0  0  0
    9.8283    1.4553    2.3221 C   0  0  0  0  0  0  0  0  0  0  0  0
   10.8447    0.8072    2.2690 O   0  0  0  0  0  0  0  0  0  0  0  0
    8.4270    0.9150    2.1794 C   0  0  0  0  0  0  0  0  0  0  0  0
    7.8276    1.1835    3.0546 H   0  0  0  0  0  0  0  0  0  0  0  0
    7.9436    1.3608    1.3048 H   0  0  0  0  0  0  0  0  0  0  0  0
    8.4675   -0.1681    2.0689 H   0  0  0  0  0  0  0  0  0  0  0  0
  1  6  1  0  0  0  0
  2  1  2  0  0  0  0
  2  3  1  0  0  0  0
  3  4  2  0  0  0  0
  4  5  1  0  0  0  0
  4 13  1  0  0  0  0
  5 12  1  0  0  0  0
  6 11  1  0  0  0  0
  6  5  2  0  0  0  0
  7  1  1  0  0  0  0
  8  2  1  0  0  0  0
  9 10  3  0  0  0  0
 14  3  1  0  0  0  0
 15 14  1  0  0  0  0
 16 15  2  0  0  0  0
 17 15  1  0  0  0  0
 17 18  1  0  0  0  0
 19 17  1  0  0  0  0
 20 17  1  0  0  0  0
M  END
