Coordinates from ORCA-job Ph-N2-OAc-B3LYPG-6-31G_dp-MTMO-d009-169-n800
 OpenBabel09051908423D

 20 19  0  0  0  0  0  0  0  0999 V2000
   11.9704    5.7333    2.2165 C   0  0  0  0  0  0  0  0  0  0  0  0
   10.8887    4.8655    2.0675 C   0  0  0  0  0  0  0  0  0  0  0  0
   10.9350    3.6031    2.6586 C   0  0  0  0  0  0  0  0  0  0  0  0
   12.0433    3.1932    3.4014 C   0  0  0  0  0  0  0  0  0  0  0  0
   13.1202    4.0719    3.5378 C   0  0  0  0  0  0  0  0  0  0  0  0
   13.0909    5.3381    2.9503 C   0  0  0  0  0  0  0  0  0  0  0  0
   11.9350    6.7170    1.7581 H   0  0  0  0  0  0  0  0  0  0  0  0
   10.0058    5.1513    1.5053 H   0  0  0  0  0  0  0  0  0  0  0  0
   12.8956    1.4543   -0.1506 N   0  0  0  0  0  0  0  0  0  0  0  0
   13.8052    1.2278    0.4346 N   0  0  0  0  0  0  0  0  0  0  0  0
   13.9345    6.0121    3.0654 H   0  0  0  0  0  0  0  0  0  0  0  0
   13.9883    3.7584    4.1102 H   0  0  0  0  0  0  0  0  0  0  0  0
   12.0692    2.2099    3.8507 H   0  0  0  0  0  0  0  0  0  0  0  0
    9.7766    2.8347    2.5191 O   0  0  0  0  0  0  0  0  0  0  0  0
    9.8274    1.4862    2.2880 C   0  0  0  0  0  0  0  0  0  0  0  0
   10.8438    0.8411    2.2004 O   0  0  0  0  0  0  0  0  0  0  0  0
    8.4251    0.9453    2.1560 C   0  0  0  0  0  0  0  0  0  0  0  0
    7.8423    1.1850    3.0506 H   0  0  0  0  0  0  0  0  0  0  0  0
    7.9229    1.4151    1.3049 H   0  0  0  0  0  0  0  0  0  0  0  0
    8.4671   -0.1339    2.0126 H   0  0  0  0  0  0  0  0  0  0  0  0
  1  6  1  0  0  0  0
  2  1  2  0  0  0  0
  2  3  1  0  0  0  0
  3  4  2  0  0  0  0
  4  5  1  0  0  0  0
  4 13  1  0  0  0  0
  5 12  1  0  0  0  0
  6 11  1  0  0  0  0
  6  5  2  0  0  0  0
  7  1  1  0  0  0  0
  8  2  1  0  0  0  0
  9 10  3  0  0  0  0
 14  3  1  0  0  0  0
 15 14  1  0  0  0  0
 16 15  2  0  0  0  0
 17 15  1  0  0  0  0
 17 18  1  0  0  0  0
 19 17  1  0  0  0  0
 20 17  1  0  0  0  0
M  END
