Coordinates from ORCA-job Ph-N2-OAc-B3LYPG-6-31G_dp-MTMO-d009-169-n800
 OpenBabel09051908423D

 20 19  0  0  0  0  0  0  0  0999 V2000
   11.0920    6.8963    2.8701 C   0  0  0  0  0  0  0  0  0  0  0  0
   10.6199    5.6318    2.5198 C   0  0  0  0  0  0  0  0  0  0  0  0
   11.3330    4.5001    2.9139 C   0  0  0  0  0  0  0  0  0  0  0  0
   12.5091    4.6095    3.6570 C   0  0  0  0  0  0  0  0  0  0  0  0
   12.9711    5.8824    3.9965 C   0  0  0  0  0  0  0  0  0  0  0  0
   12.2707    7.0255    3.6073 C   0  0  0  0  0  0  0  0  0  0  0  0
   10.5375    7.7786    2.5649 H   0  0  0  0  0  0  0  0  0  0  0  0
    9.7042    5.5056    1.9516 H   0  0  0  0  0  0  0  0  0  0  0  0
    8.1808   -7.8602   -1.9055 N   0  0  0  0  0  0  0  0  0  0  0  0
    8.4199   -6.8735   -1.4685 N   0  0  0  0  0  0  0  0  0  0  0  0
   12.6397    8.0097    3.8787 H   0  0  0  0  0  0  0  0  0  0  0  0
   13.8887    5.9762    4.5698 H   0  0  0  0  0  0  0  0  0  0  0  0
   13.0553    3.7239    3.9524 H   0  0  0  0  0  0  0  0  0  0  0  0
   10.7464    3.2755    2.5855 O   0  0  0  0  0  0  0  0  0  0  0  0
   11.4927    2.2204    2.1294 C   0  0  0  0  0  0  0  0  0  0  0  0
   12.6902    2.2375    1.9863 O   0  0  0  0  0  0  0  0  0  0  0  0
   10.5826    1.0530    1.8350 C   0  0  0  0  0  0  0  0  0  0  0  0
   10.0164    0.7824    2.7310 H   0  0  0  0  0  0  0  0  0  0  0  0
    9.8579    1.3289    1.0630 H   0  0  0  0  0  0  0  0  0  0  0  0
   11.1794    0.2058    1.4992 H   0  0  0  0  0  0  0  0  0  0  0  0
  1  6  1  0  0  0  0
  2  1  2  0  0  0  0
  2  3  1  0  0  0  0
  3  4  2  0  0  0  0
  4 13  1  0  0  0  0
  4  5  1  0  0  0  0
  5 12  1  0  0  0  0
  6 11  1  0  0  0  0
  6  5  2  0  0  0  0
  7  1  1  0  0  0  0
  8  2  1  0  0  0  0
  9 10  3  0  0  0  0
 14  3  1  0  0  0  0
 15 14  1  0  0  0  0
 16 15  2  0  0  0  0
 17 15  1  0  0  0  0
 17 18  1  0  0  0  0
 19 17  1  0  0  0  0
 20 17  1  0  0  0  0
M  END
