Coordinates from ORCA-job Ph-N2-OAc-B3LYPG-6-31G_dp-MTMO-d009-169-n800
 OpenBabel09051908423D

 20 19  0  0  0  0  0  0  0  0999 V2000
   11.1533    6.7403    2.8180 C   0  0  0  0  0  0  0  0  0  0  0  0
   10.5941    5.5048    2.4929 C   0  0  0  0  0  0  0  0  0  0  0  0
   11.2613    4.3342    2.8525 C   0  0  0  0  0  0  0  0  0  0  0  0
   12.4771    4.3764    3.5362 C   0  0  0  0  0  0  0  0  0  0  0  0
   13.0261    5.6208    3.8511 C   0  0  0  0  0  0  0  0  0  0  0  0
   12.3724    6.8020    3.4959 C   0  0  0  0  0  0  0  0  0  0  0  0
   10.6349    7.6528    2.5396 H   0  0  0  0  0  0  0  0  0  0  0  0
    9.6460    5.4313    1.9708 H   0  0  0  0  0  0  0  0  0  0  0  0
    9.0667   -6.2962   -1.2767 N   0  0  0  0  0  0  0  0  0  0  0  0
    9.2033   -5.2687   -0.8930 N   0  0  0  0  0  0  0  0  0  0  0  0
   12.8087    7.7636    3.7477 H   0  0  0  0  0  0  0  0  0  0  0  0
   13.9744    5.6618    4.3784 H   0  0  0  0  0  0  0  0  0  0  0  0
   12.9866    3.4610    3.8053 H   0  0  0  0  0  0  0  0  0  0  0  0
   10.5907    3.1454    2.5551 O   0  0  0  0  0  0  0  0  0  0  0  0
   11.2522    2.0475    2.0698 C   0  0  0  0  0  0  0  0  0  0  0  0
   12.4406    1.9944    1.8703 O   0  0  0  0  0  0  0  0  0  0  0  0
   10.2626    0.9347    1.8247 C   0  0  0  0  0  0  0  0  0  0  0  0
    9.7219    0.7029    2.7468 H   0  0  0  0  0  0  0  0  0  0  0  0
    9.5221    1.2490    1.0830 H   0  0  0  0  0  0  0  0  0  0  0  0
   10.7924    0.0518    1.4692 H   0  0  0  0  0  0  0  0  0  0  0  0
  1  6  1  0  0  0  0
  2  1  2  0  0  0  0
  2  3  1  0  0  0  0
  3  4  2  0  0  0  0
  4 13  1  0  0  0  0
  4  5  1  0  0  0  0
  5 12  1  0  0  0  0
  6 11  1  0  0  0  0
  6  5  2  0  0  0  0
  7  1  1  0  0  0  0
  8  2  1  0  0  0  0
  9 10  3  0  0  0  0
 14  3  1  0  0  0  0
 15 14  1  0  0  0  0
 16 15  2  0  0  0  0
 17 15  1  0  0  0  0
 17 18  1  0  0  0  0
 19 17  1  0  0  0  0
 20 17  1  0  0  0  0
M  END
