Coordinates from ORCA-job Ph-N2-OAc-B3LYPG-6-31G_dp-MTMO-d009-169-n800
 OpenBabel09051908423D

 20 19  0  0  0  0  0  0  0  0999 V2000
   11.1714    6.7254    2.8210 C   0  0  0  0  0  0  0  0  0  0  0  0
   10.5942    5.4980    2.4967 C   0  0  0  0  0  0  0  0  0  0  0  0
   11.2507    4.3180    2.8453 C   0  0  0  0  0  0  0  0  0  0  0  0
   12.4736    4.3430    3.5171 C   0  0  0  0  0  0  0  0  0  0  0  0
   13.0406    5.5794    3.8313 C   0  0  0  0  0  0  0  0  0  0  0  0
   12.3977    6.7699    3.4870 C   0  0  0  0  0  0  0  0  0  0  0  0
   10.6613    7.6451    2.5511 H   0  0  0  0  0  0  0  0  0  0  0  0
    9.6402    5.4380    1.9837 H   0  0  0  0  0  0  0  0  0  0  0  0
    9.2138   -6.1380   -1.1954 N   0  0  0  0  0  0  0  0  0  0  0  0
    9.3233   -5.1075   -0.8111 N   0  0  0  0  0  0  0  0  0  0  0  0
   12.8481    7.7252    3.7381 H   0  0  0  0  0  0  0  0  0  0  0  0
   13.9944    5.6070    4.3495 H   0  0  0  0  0  0  0  0  0  0  0  0
   12.9746    3.4206    3.7777 H   0  0  0  0  0  0  0  0  0  0  0  0
   10.5629    3.1386    2.5500 O   0  0  0  0  0  0  0  0  0  0  0  0
   11.2064    2.0342    2.0553 C   0  0  0  0  0  0  0  0  0  0  0  0
   12.3921    1.9673    1.8443 O   0  0  0  0  0  0  0  0  0  0  0  0
   10.2012    0.9341    1.8164 C   0  0  0  0  0  0  0  0  0  0  0  0
    9.6685    0.7043    2.7437 H   0  0  0  0  0  0  0  0  0  0  0  0
    9.4557    1.2604    1.0849 H   0  0  0  0  0  0  0  0  0  0  0  0
   10.7165    0.0468    1.4509 H   0  0  0  0  0  0  0  0  0  0  0  0
  1  6  1  0  0  0  0
  2  1  2  0  0  0  0
  2  3  1  0  0  0  0
  3  4  2  0  0  0  0
  4 13  1  0  0  0  0
  4  5  1  0  0  0  0
  5 12  1  0  0  0  0
  6 11  1  0  0  0  0
  6  5  2  0  0  0  0
  7  1  1  0  0  0  0
  8  2  1  0  0  0  0
  9 10  3  0  0  0  0
 14  3  1  0  0  0  0
 15 14  1  0  0  0  0
 16 15  2  0  0  0  0
 17 15  1  0  0  0  0
 17 18  1  0  0  0  0
 19 17  1  0  0  0  0
 20 17  1  0  0  0  0
M  END
