Coordinates from ORCA-job Ph-N2-OAc-B3LYPG-6-31G_dp-MTMO-d009-169-n800
 OpenBabel09051908423D

 20 19  0  0  0  0  0  0  0  0999 V2000
   11.7949    5.8931    2.4127 C   0  0  0  0  0  0  0  0  0  0  0  0
   10.7209    5.0102    2.2997 C   0  0  0  0  0  0  0  0  0  0  0  0
   10.8857    3.6794    2.6811 C   0  0  0  0  0  0  0  0  0  0  0  0
   12.1037    3.2147    3.1782 C   0  0  0  0  0  0  0  0  0  0  0  0
   13.1707    4.1091    3.2814 C   0  0  0  0  0  0  0  0  0  0  0  0
   13.0236    5.4445    2.9016 C   0  0  0  0  0  0  0  0  0  0  0  0
   11.6692    6.9301    2.1160 H   0  0  0  0  0  0  0  0  0  0  0  0
    9.7563    5.3360    1.9249 H   0  0  0  0  0  0  0  0  0  0  0  0
   13.6106    0.3982    0.0238 N   0  0  0  0  0  0  0  0  0  0  0  0
   13.9254    0.6749    1.0462 N   0  0  0  0  0  0  0  0  0  0  0  0
   13.8605    6.1308    2.9880 H   0  0  0  0  0  0  0  0  0  0  0  0
   14.1230    3.7535    3.6633 H   0  0  0  0  0  0  0  0  0  0  0  0
   12.2189    2.1785    3.4672 H   0  0  0  0  0  0  0  0  0  0  0  0
    9.7405    2.8813    2.6088 O   0  0  0  0  0  0  0  0  0  0  0  0
    9.7889    1.6112    2.0982 C   0  0  0  0  0  0  0  0  0  0  0  0
   10.7884    1.0745    1.6873 O   0  0  0  0  0  0  0  0  0  0  0  0
    8.4081    1.0029    2.1307 C   0  0  0  0  0  0  0  0  0  0  0  0
    8.0320    0.9830    3.1578 H   0  0  0  0  0  0  0  0  0  0  0  0
    7.7158    1.6120    1.5423 H   0  0  0  0  0  0  0  0  0  0  0  0
    8.4501   -0.0083    1.7282 H   0  0  0  0  0  0  0  0  0  0  0  0
  1  6  1  0  0  0  0
  2  1  2  0  0  0  0
  2  3  1  0  0  0  0
  3  4  2  0  0  0  0
  4  5  1  0  0  0  0
  4 13  1  0  0  0  0
  5 12  1  0  0  0  0
  6 11  1  0  0  0  0
  6  5  2  0  0  0  0
  7  1  1  0  0  0  0
  8  2  1  0  0  0  0
  9 10  3  0  0  0  0
 14  3  1  0  0  0  0
 15 17  1  0  0  0  0
 15 14  1  0  0  0  0
 16 15  2  0  0  0  0
 17 18  1  0  0  0  0
 19 17  1  0  0  0  0
 20 17  1  0  0  0  0
M  END
