Coordinates from ORCA-job Ph-N2-OAc-B3LYPG-6-31G_dp-MTMO-d009-169-n800
 OpenBabel09051908423D

 20 19  0  0  0  0  0  0  0  0999 V2000
   11.7383    5.9563    2.4990 C   0  0  0  0  0  0  0  0  0  0  0  0
   10.6805    5.0550    2.3808 C   0  0  0  0  0  0  0  0  0  0  0  0
   10.8896    3.7104    2.6838 C   0  0  0  0  0  0  0  0  0  0  0  0
   12.1366    3.2495    3.1074 C   0  0  0  0  0  0  0  0  0  0  0  0
   13.1866    4.1629    3.2170 C   0  0  0  0  0  0  0  0  0  0  0  0
   12.9951    5.5126    2.9152 C   0  0  0  0  0  0  0  0  0  0  0  0
   11.5779    7.0042    2.2628 H   0  0  0  0  0  0  0  0  0  0  0  0
    9.6948    5.3765    2.0613 H   0  0  0  0  0  0  0  0  0  0  0  0
   13.5818   -0.0459    0.1604 N   0  0  0  0  0  0  0  0  0  0  0  0
   13.8768    0.4199    1.1180 N   0  0  0  0  0  0  0  0  0  0  0  0
   13.8195    6.2134    3.0057 H   0  0  0  0  0  0  0  0  0  0  0  0
   14.1609    3.8109    3.5427 H   0  0  0  0  0  0  0  0  0  0  0  0
   12.2870    2.2026    3.3353 H   0  0  0  0  0  0  0  0  0  0  0  0
    9.7595    2.8907    2.6137 O   0  0  0  0  0  0  0  0  0  0  0  0
    9.8147    1.6479    2.0409 C   0  0  0  0  0  0  0  0  0  0  0  0
   10.8092    1.1537    1.5691 O   0  0  0  0  0  0  0  0  0  0  0  0
    8.4486    1.0085    2.0932 C   0  0  0  0  0  0  0  0  0  0  0  0
    8.1097    0.9341    3.1305 H   0  0  0  0  0  0  0  0  0  0  0  0
    7.7237    1.6283    1.5575 H   0  0  0  0  0  0  0  0  0  0  0  0
    8.4965    0.0178    1.6434 H   0  0  0  0  0  0  0  0  0  0  0  0
  1  6  1  0  0  0  0
  2  1  2  0  0  0  0
  2  3  1  0  0  0  0
  3  4  2  0  0  0  0
  4  5  1  0  0  0  0
  4 13  1  0  0  0  0
  5 12  1  0  0  0  0
  6 11  1  0  0  0  0
  6  5  2  0  0  0  0
  7  1  1  0  0  0  0
  8  2  1  0  0  0  0
  9 10  3  0  0  0  0
 14  3  1  0  0  0  0
 15 17  1  0  0  0  0
 15 14  1  0  0  0  0
 16 15  2  0  0  0  0
 17 18  1  0  0  0  0
 19 17  1  0  0  0  0
 20 17  1  0  0  0  0
M  END
