Coordinates from ORCA-job Ph-N2-OAc-B3LYPG-6-31G_dp-MTMO-d009-169-n800
 OpenBabel09051908423D

 20 19  0  0  0  0  0  0  0  0999 V2000
   11.1939    6.6880    2.8199 C   0  0  0  0  0  0  0  0  0  0  0  0
   10.5914    5.4727    2.4960 C   0  0  0  0  0  0  0  0  0  0  0  0
   11.2323    4.2795    2.8286 C   0  0  0  0  0  0  0  0  0  0  0  0
   12.4644    4.2795    3.4840 C   0  0  0  0  0  0  0  0  0  0  0  0
   13.0566    5.5042    3.7979 C   0  0  0  0  0  0  0  0  0  0  0  0
   12.4296    6.7075    3.4695 C   0  0  0  0  0  0  0  0  0  0  0  0
   10.6960    7.6180    2.5624 H   0  0  0  0  0  0  0  0  0  0  0  0
    9.6299    5.4322    1.9955 H   0  0  0  0  0  0  0  0  0  0  0  0
    9.4490   -5.7724   -1.0266 N   0  0  0  0  0  0  0  0  0  0  0  0
    9.5244   -4.7412   -0.6360 N   0  0  0  0  0  0  0  0  0  0  0  0
   12.8995    7.6535    3.7202 H   0  0  0  0  0  0  0  0  0  0  0  0
   14.0175    5.5122    4.3034 H   0  0  0  0  0  0  0  0  0  0  0  0
   12.9529    3.3471    3.7322 H   0  0  0  0  0  0  0  0  0  0  0  0
   10.5206    3.1138    2.5356 O   0  0  0  0  0  0  0  0  0  0  0  0
   11.1386    2.0013    2.0270 C   0  0  0  0  0  0  0  0  0  0  0  0
   12.3201    1.9156    1.7995 O   0  0  0  0  0  0  0  0  0  0  0  0
   10.1122    0.9189    1.7975 C   0  0  0  0  0  0  0  0  0  0  0  0
    9.5940    0.6891    2.7329 H   0  0  0  0  0  0  0  0  0  0  0  0
    9.3579    1.2630    1.0834 H   0  0  0  0  0  0  0  0  0  0  0  0
   10.6066    0.0270    1.4147 H   0  0  0  0  0  0  0  0  0  0  0  0
  1  6  1  0  0  0  0
  2  1  2  0  0  0  0
  2  3  1  0  0  0  0
  3  4  2  0  0  0  0
  4 13  1  0  0  0  0
  4  5  1  0  0  0  0
  5 12  1  0  0  0  0
  6 11  1  0  0  0  0
  6  5  2  0  0  0  0
  7  1  1  0  0  0  0
  8  2  1  0  0  0  0
  9 10  3  0  0  0  0
 14  3  1  0  0  0  0
 15 14  1  0  0  0  0
 16 15  2  0  0  0  0
 17 15  1  0  0  0  0
 17 18  1  0  0  0  0
 19 17  1  0  0  0  0
 20 17  1  0  0  0  0
M  END
