Coordinates from ORCA-job Ph-N2-OAc-B3LYPG-6-31G_dp-MTMO-d009-169-n800
 OpenBabel09051908423D

 20 18  0  0  0  0  0  0  0  0999 V2000
   13.2005    6.1218    2.3059 C   0  0  0  0  0  0  0  0  0  0  0  0
   12.6302    5.4545    1.1959 C   0  0  0  0  0  0  0  0  0  0  0  0
   12.1051    4.2740    1.6488 C   0  0  0  0  0  0  0  0  0  0  0  0
   12.0245    3.6993    2.7639 C   0  0  0  0  0  0  0  0  0  0  0  0
   12.5827    4.3322    3.8865 C   0  0  0  0  0  0  0  0  0  0  0  0
   13.1758    5.5774    3.6029 C   0  0  0  0  0  0  0  0  0  0  0  0
   13.6701    7.0877    2.1399 H   0  0  0  0  0  0  0  0  0  0  0  0
   12.6325    5.8443    0.1862 H   0  0  0  0  0  0  0  0  0  0  0  0
   11.1906    3.2134   -0.7323 N   0  0  0  0  0  0  0  0  0  0  0  0
   10.7365    2.2721   -1.0917 N   0  0  0  0  0  0  0  0  0  0  0  0
   13.6299    6.1400    4.4144 H   0  0  0  0  0  0  0  0  0  0  0  0
   12.5691    3.9234    4.8922 H   0  0  0  0  0  0  0  0  0  0  0  0
   10.9322    1.9517    2.9620 H   0  0  0  0  0  0  0  0  0  0  0  0
    9.1742    1.6888    1.4692 O   0  0  0  0  0  0  0  0  0  0  0  0
    9.3997    0.9712    2.4215 C   0  0  0  0  0  0  0  0  0  0  0  0
   10.4403    1.1519    3.2594 O   0  0  0  0  0  0  0  0  0  0  0  0
    8.5703   -0.2265    2.8226 C   0  0  0  0  0  0  0  0  0  0  0  0
    7.7379   -0.3427    2.1300 H   0  0  0  0  0  0  0  0  0  0  0  0
    9.1906   -1.1279    2.8182 H   0  0  0  0  0  0  0  0  0  0  0  0
    8.1946   -0.0968    3.8418 H   0  0  0  0  0  0  0  0  0  0  0  0
  1  6  2  0  0  0  0
  2  3  2  0  0  0  0
  2  1  1  0  0  0  0
  3  4  1  0  0  0  0
  4  5  2  0  0  0  0
  5 12  1  0  0  0  0
  6  5  1  0  0  0  0
  6 11  1  0  0  0  0
  7  1  1  0  0  0  0
  8  2  1  0  0  0  0
 10  9  3  0  0  0  0
 13 16  1  0  0  0  0
 14 15  2  0  0  0  0
 15 17  1  0  0  0  0
 15 16  1  0  0  0  0
 17 20  1  0  0  0  0
 18 17  1  0  0  0  0
 19 17  1  0  0  0  0
M  RAD  2   3   2   4   2
M  END
