Coordinates from ORCA-job Ph-N2-OAc-B3LYPG-6-31G_dp-MTMO-d009-169-n800
 OpenBabel09051908423D

 20 19  0  0  0  0  0  0  0  0999 V2000
   11.0908    6.8404    2.8463 C   0  0  0  0  0  0  0  0  0  0  0  0
   10.6069    5.5788    2.5013 C   0  0  0  0  0  0  0  0  0  0  0  0
   11.3141    4.4424    2.8927 C   0  0  0  0  0  0  0  0  0  0  0  0
   12.4960    4.5444    3.6277 C   0  0  0  0  0  0  0  0  0  0  0  0
   12.9697    5.8144    3.9620 C   0  0  0  0  0  0  0  0  0  0  0  0
   12.2753    6.9620    3.5754 C   0  0  0  0  0  0  0  0  0  0  0  0
   10.5409    7.7263    2.5432 H   0  0  0  0  0  0  0  0  0  0  0  0
    9.6866    5.4586    1.9394 H   0  0  0  0  0  0  0  0  0  0  0  0
    8.3877   -7.3323   -1.7055 N   0  0  0  0  0  0  0  0  0  0  0  0
    8.6049   -6.3362   -1.2788 N   0  0  0  0  0  0  0  0  0  0  0  0
   12.6533    7.9439    3.8427 H   0  0  0  0  0  0  0  0  0  0  0  0
   13.8917    5.9022    4.5291 H   0  0  0  0  0  0  0  0  0  0  0  0
   13.0374    3.6552    3.9212 H   0  0  0  0  0  0  0  0  0  0  0  0
   10.7161    3.2218    2.5707 O   0  0  0  0  0  0  0  0  0  0  0  0
   11.4510    2.1602    2.1110 C   0  0  0  0  0  0  0  0  0  0  0  0
   12.6474    2.1683    1.9584 O   0  0  0  0  0  0  0  0  0  0  0  0
   10.5299    0.9991    1.8263 C   0  0  0  0  0  0  0  0  0  0  0  0
    9.9679    0.7356    2.7270 H   0  0  0  0  0  0  0  0  0  0  0  0
    9.8022    1.2784    1.0585 H   0  0  0  0  0  0  0  0  0  0  0  0
   11.1176    0.1462    1.4888 H   0  0  0  0  0  0  0  0  0  0  0  0
  1  6  1  0  0  0  0
  2  1  2  0  0  0  0
  2  3  1  0  0  0  0
  3  4  2  0  0  0  0
  4 13  1  0  0  0  0
  4  5  1  0  0  0  0
  5 12  1  0  0  0  0
  6 11  1  0  0  0  0
  6  5  2  0  0  0  0
  7  1  1  0  0  0  0
  8  2  1  0  0  0  0
  9 10  3  0  0  0  0
 14  3  1  0  0  0  0
 15 14  1  0  0  0  0
 16 15  2  0  0  0  0
 17 15  1  0  0  0  0
 17 18  1  0  0  0  0
 19 17  1  0  0  0  0
 20 17  1  0  0  0  0
M  END
