Coordinates from ORCA-job Ph-N2-OAc-B3LYPG-6-31G_dp-MTMO-d009-169-n800
 OpenBabel09051908423D

 20 19  0  0  0  0  0  0  0  0999 V2000
   11.1646    6.7308    2.8200 C   0  0  0  0  0  0  0  0  0  0  0  0
   10.5941    5.5005    2.4953 C   0  0  0  0  0  0  0  0  0  0  0  0
   11.2546    4.3239    2.8478 C   0  0  0  0  0  0  0  0  0  0  0  0
   12.4750    4.3552    3.5240 C   0  0  0  0  0  0  0  0  0  0  0  0
   13.0353    5.5946    3.8385 C   0  0  0  0  0  0  0  0  0  0  0  0
   12.3883    6.7817    3.4903 C   0  0  0  0  0  0  0  0  0  0  0  0
   10.6514    7.6479    2.5471 H   0  0  0  0  0  0  0  0  0  0  0  0
    9.6423    5.4355    1.9789 H   0  0  0  0  0  0  0  0  0  0  0  0
    9.1596   -6.1956   -1.2248 N   0  0  0  0  0  0  0  0  0  0  0  0
    9.2794   -5.1660   -0.8413 N   0  0  0  0  0  0  0  0  0  0  0  0
   12.8335    7.7394    3.7418 H   0  0  0  0  0  0  0  0  0  0  0  0
   13.9872    5.6272    4.3601 H   0  0  0  0  0  0  0  0  0  0  0  0
   12.9792    3.4354    3.7876 H   0  0  0  0  0  0  0  0  0  0  0  0
   10.5732    3.1410    2.5517 O   0  0  0  0  0  0  0  0  0  0  0  0
   11.2233    2.0389    2.0606 C   0  0  0  0  0  0  0  0  0  0  0  0
   12.4100    1.9770    1.8540 O   0  0  0  0  0  0  0  0  0  0  0  0
   10.2238    0.9341    1.8194 C   0  0  0  0  0  0  0  0  0  0  0  0
    9.6878    0.7040    2.7447 H   0  0  0  0  0  0  0  0  0  0  0  0
    9.4804    1.2559    1.0838 H   0  0  0  0  0  0  0  0  0  0  0  0
   10.7444    0.0482    1.4580 H   0  0  0  0  0  0  0  0  0  0  0  0
  1  6  1  0  0  0  0
  2  1  2  0  0  0  0
  2  3  1  0  0  0  0
  3  4  2  0  0  0  0
  4 13  1  0  0  0  0
  4  5  1  0  0  0  0
  5 12  1  0  0  0  0
  6 11  1  0  0  0  0
  6  5  2  0  0  0  0
  7  1  1  0  0  0  0
  8  2  1  0  0  0  0
  9 10  3  0  0  0  0
 14  3  1  0  0  0  0
 15 14  1  0  0  0  0
 16 15  2  0  0  0  0
 17 15  1  0  0  0  0
 17 18  1  0  0  0  0
 19 17  1  0  0  0  0
 20 17  1  0  0  0  0
M  END
