Coordinates from ORCA-job Ph-N2-OAc-B3LYPG-6-31G_dp-MTMO-d009-169-n800
 OpenBabel09051908423D

 20 19  0  0  0  0  0  0  0  0999 V2000
   11.3843    6.4114    2.6464 C   0  0  0  0  0  0  0  0  0  0  0  0
   10.5964    5.2837    2.4167 C   0  0  0  0  0  0  0  0  0  0  0  0
   11.0896    4.0235    2.7523 C   0  0  0  0  0  0  0  0  0  0  0  0
   12.3563    3.8699    3.3169 C   0  0  0  0  0  0  0  0  0  0  0  0
   13.1349    5.0074    3.5374 C   0  0  0  0  0  0  0  0  0  0  0  0
   12.6567    6.2765    3.2052 C   0  0  0  0  0  0  0  0  0  0  0  0
   11.0021    7.3940    2.3864 H   0  0  0  0  0  0  0  0  0  0  0  0
    9.6037    5.3634    1.9869 H   0  0  0  0  0  0  0  0  0  0  0  0
   11.5105   -3.0893   -0.3431 N   0  0  0  0  0  0  0  0  0  0  0  0
   10.7787   -2.4117    0.1329 N   0  0  0  0  0  0  0  0  0  0  0  0
   13.2708    7.1541    3.3825 H   0  0  0  0  0  0  0  0  0  0  0  0
   14.1232    4.8957    3.9731 H   0  0  0  0  0  0  0  0  0  0  0  0
   12.7280    2.8855    3.5683 H   0  0  0  0  0  0  0  0  0  0  0  0
   10.2065    2.9578    2.5635 O   0  0  0  0  0  0  0  0  0  0  0  0
   10.6252    1.7706    2.0199 C   0  0  0  0  0  0  0  0  0  0  0  0
   11.7559    1.5400    1.6686 O   0  0  0  0  0  0  0  0  0  0  0  0
    9.4598    0.8155    1.9394 C   0  0  0  0  0  0  0  0  0  0  0  0
    9.0941    0.5937    2.9464 H   0  0  0  0  0  0  0  0  0  0  0  0
    8.6335    1.2722    1.3876 H   0  0  0  0  0  0  0  0  0  0  0  0
    9.7774   -0.1043    1.4502 H   0  0  0  0  0  0  0  0  0  0  0  0
  1  6  1  0  0  0  0
  2  1  2  0  0  0  0
  2  3  1  0  0  0  0
  3  4  2  0  0  0  0
  4  5  1  0  0  0  0
  4 13  1  0  0  0  0
  5 12  1  0  0  0  0
  6 11  1  0  0  0  0
  6  5  2  0  0  0  0
  7  1  1  0  0  0  0
  8  2  1  0  0  0  0
  9 10  3  0  0  0  0
 14  3  1  0  0  0  0
 15 14  1  0  0  0  0
 16 15  2  0  0  0  0
 17 15  1  0  0  0  0
 17 18  1  0  0  0  0
 19 17  1  0  0  0  0
 20 17  1  0  0  0  0
M  END
