Coordinates from ORCA-job Ph-N2-OAc-B3LYPG-6-31G_dp-MTMO-d009-169-n800
 OpenBabel09051908423D

 20 19  0  0  0  0  0  0  0  0999 V2000
   11.3663    6.4262    2.6649 C   0  0  0  0  0  0  0  0  0  0  0  0
   10.5925    5.2910    2.4246 C   0  0  0  0  0  0  0  0  0  0  0  0
   11.0992    4.0343    2.7532 C   0  0  0  0  0  0  0  0  0  0  0  0
   12.3658    3.8916    3.3212 C   0  0  0  0  0  0  0  0  0  0  0  0
   13.1301    5.0366    3.5523 C   0  0  0  0  0  0  0  0  0  0  0  0
   12.6383    6.3023    3.2272 C   0  0  0  0  0  0  0  0  0  0  0  0
   10.9735    7.4060    2.4103 H   0  0  0  0  0  0  0  0  0  0  0  0
    9.6004    5.3620    1.9919 H   0  0  0  0  0  0  0  0  0  0  0  0
   11.3654   -3.2356   -0.3495 N   0  0  0  0  0  0  0  0  0  0  0  0
   10.6970   -2.4964    0.1280 N   0  0  0  0  0  0  0  0  0  0  0  0
   13.2414    7.1858    3.4127 H   0  0  0  0  0  0  0  0  0  0  0  0
   14.1182    4.9335    3.9906 H   0  0  0  0  0  0  0  0  0  0  0  0
   12.7482    2.9099    3.5671 H   0  0  0  0  0  0  0  0  0  0  0  0
   10.2289    2.9601    2.5536 O   0  0  0  0  0  0  0  0  0  0  0  0
   10.6633    1.7790    2.0089 C   0  0  0  0  0  0  0  0  0  0  0  0
   11.7988    1.5605    1.6656 O   0  0  0  0  0  0  0  0  0  0  0  0
    9.5074    0.8137    1.9150 C   0  0  0  0  0  0  0  0  0  0  0  0
    9.1282    0.5926    2.9172 H   0  0  0  0  0  0  0  0  0  0  0  0
    8.6856    1.2619    1.3493 H   0  0  0  0  0  0  0  0  0  0  0  0
    9.8389   -0.1052    1.4334 H   0  0  0  0  0  0  0  0  0  0  0  0
  1  6  1  0  0  0  0
  2  1  2  0  0  0  0
  2  3  1  0  0  0  0
  3  4  2  0  0  0  0
  4  5  1  0  0  0  0
  4 13  1  0  0  0  0
  5 12  1  0  0  0  0
  6 11  1  0  0  0  0
  6  5  2  0  0  0  0
  7  1  1  0  0  0  0
  8  2  1  0  0  0  0
  9 10  3  0  0  0  0
 14  3  1  0  0  0  0
 15 14  1  0  0  0  0
 16 15  2  0  0  0  0
 17 15  1  0  0  0  0
 17 18  1  0  0  0  0
 19 17  1  0  0  0  0
 20 17  1  0  0  0  0
M  END
