Coordinates from ORCA-job Ph-N2-OAc-B3LYPG-6-31G_dp-MTMO-d009-169-n800
 OpenBabel09051908423D

 20 18  0  0  0  0  0  0  0  0999 V2000
   13.2256    6.0783    2.2827 C   0  0  0  0  0  0  0  0  0  0  0  0
   12.7052    5.4737    1.1194 C   0  0  0  0  0  0  0  0  0  0  0  0
   12.0996    4.3015    1.4801 C   0  0  0  0  0  0  0  0  0  0  0  0
   11.8989    3.6512    2.5523 C   0  0  0  0  0  0  0  0  0  0  0  0
   12.4218    4.2533    3.7183 C   0  0  0  0  0  0  0  0  0  0  0  0
   13.0851    5.4795    3.5474 C   0  0  0  0  0  0  0  0  0  0  0  0
   13.7417    7.0295    2.1878 H   0  0  0  0  0  0  0  0  0  0  0  0
   12.7872    5.8946    0.1252 H   0  0  0  0  0  0  0  0  0  0  0  0
   11.3319    3.4379   -0.3703 N   0  0  0  0  0  0  0  0  0  0  0  0
   10.7834    2.5551   -0.7517 N   0  0  0  0  0  0  0  0  0  0  0  0
   13.5021    5.9828    4.4156 H   0  0  0  0  0  0  0  0  0  0  0  0
   12.3232    3.8061    4.7038 H   0  0  0  0  0  0  0  0  0  0  0  0
   10.9481    2.0001    2.8628 H   0  0  0  0  0  0  0  0  0  0  0  0
    9.1509    1.6070    1.4258 O   0  0  0  0  0  0  0  0  0  0  0  0
    9.4198    0.9525    2.4142 C   0  0  0  0  0  0  0  0  0  0  0  0
   10.4773    1.1933    3.2053 O   0  0  0  0  0  0  0  0  0  0  0  0
    8.6139   -0.2286    2.9069 C   0  0  0  0  0  0  0  0  0  0  0  0
    7.7712   -0.4014    2.2387 H   0  0  0  0  0  0  0  0  0  0  0  0
    9.2469   -1.1200    2.9512 H   0  0  0  0  0  0  0  0  0  0  0  0
    8.2536   -0.0367    3.9218 H   0  0  0  0  0  0  0  0  0  0  0  0
  1  6  2  0  0  0  0
  2  3  2  0  0  0  0
  2  1  1  0  0  0  0
  3  4  1  0  0  0  0
  4  5  2  0  0  0  0
  5 12  1  0  0  0  0
  6  5  1  0  0  0  0
  6 11  1  0  0  0  0
  7  1  1  0  0  0  0
  8  2  1  0  0  0  0
 10  9  3  0  0  0  0
 13 16  1  0  0  0  0
 14 15  2  0  0  0  0
 15 17  1  0  0  0  0
 15 16  1  0  0  0  0
 17 19  1  0  0  0  0
 17 20  1  0  0  0  0
 18 17  1  0  0  0  0
M  RAD  2   3   2   4   2
M  END
