Coordinates from ORCA-job Ph-N2-OAc-B3LYPG-6-31G_dp-MTMO-d009-169-n800
 OpenBabel09051908423D

 20 18  0  0  0  0  0  0  0  0999 V2000
   12.7506    6.0520    2.2817 C   0  0  0  0  0  0  0  0  0  0  0  0
   12.4161    5.2654    1.1676 C   0  0  0  0  0  0  0  0  0  0  0  0
   12.1138    3.9733    1.5001 C   0  0  0  0  0  0  0  0  0  0  0  0
   12.1182    3.3102    2.6822 C   0  0  0  0  0  0  0  0  0  0  0  0
   12.4677    4.1403    3.7648 C   0  0  0  0  0  0  0  0  0  0  0  0
   12.7759    5.4885    3.5623 C   0  0  0  0  0  0  0  0  0  0  0  0
   12.9943    7.0995    2.1335 H   0  0  0  0  0  0  0  0  0  0  0  0
   12.3914    5.6478    0.1554 H   0  0  0  0  0  0  0  0  0  0  0  0
   11.7084    2.8441   -0.0004 N   0  0  0  0  0  0  0  0  0  0  0  0
   10.9379    2.0139   -0.1006 N   0  0  0  0  0  0  0  0  0  0  0  0
   13.0452    6.1087    4.4113 H   0  0  0  0  0  0  0  0  0  0  0  0
   12.4968    3.7117    4.7624 H   0  0  0  0  0  0  0  0  0  0  0  0
   11.8502    2.2432    2.7703 H   0  0  0  0  0  0  0  0  0  0  0  0
    9.5173    1.8645    1.3463 O   0  0  0  0  0  0  0  0  0  0  0  0
    9.8096    0.9658    2.2209 C   0  0  0  0  0  0  0  0  0  0  0  0
   10.9507    0.6325    2.5871 O   0  0  0  0  0  0  0  0  0  0  0  0
    8.5838    0.2711    2.8257 C   0  0  0  0  0  0  0  0  0  0  0  0
    7.7618    0.9769    2.9633 H   0  0  0  0  0  0  0  0  0  0  0  0
    8.2452   -0.5037    2.1297 H   0  0  0  0  0  0  0  0  0  0  0  0
    8.8528   -0.1964    3.7739 H   0  0  0  0  0  0  0  0  0  0  0  0
  1  6  2  0  0  0  0
  2  3  2  0  0  0  0
  2  1  1  0  0  0  0
  3  4  1  0  0  0  0
  4 13  1  0  0  0  0
  4  5  2  0  0  0  0
  5 12  1  0  0  0  0
  6  5  1  0  0  0  0
  6 11  1  0  0  0  0
  7  1  1  0  0  0  0
  8  2  1  0  0  0  0
 10  9  3  0  0  0  0
 14 15  2  0  0  0  0
 15 16  1  0  0  0  0
 15 17  1  0  0  0  0
 17 18  1  0  0  0  0
 17 20  1  0  0  0  0
 19 17  1  0  0  0  0
M  RAD  2   3   2  16   2
M  END
