Coordinates from ORCA-job 4-NO2-Ph-N2+-B3LYPG-6-31G_dp-MTMO-d009-169-n800
 OpenBabel09051908243D

 15 14  0  0  0  0  0  0  0  0999 V2000
   -2.0765   -0.2106   -0.6267 C   0  0  0  0  0  0  0  0  0  0  0  0
   -0.6740   -0.2420   -0.7420 C   0  0  0  0  0  0  0  0  0  0  0  0
   -0.1332    0.8669   -0.1702 C   0  0  0  0  0  0  0  0  0  0  0  0
   -0.5887    1.9757    0.4715 C   0  0  0  0  0  0  0  0  0  0  0  0
   -1.9936    1.9446    0.5528 C   0  0  0  0  0  0  0  0  0  0  0  0
   -2.6917    0.8670    0.0091 C   0  0  0  0  0  0  0  0  0  0  0  0
   -2.6758   -1.0205   -1.0299 H   0  0  0  0  0  0  0  0  0  0  0  0
   -0.1324   -1.0472   -1.2218 H   0  0  0  0  0  0  0  0  0  0  0  0
    0.0145    2.7806    0.8717 H   0  0  0  0  0  0  0  0  0  0  0  0
   -2.5310    2.7546    1.0354 H   0  0  0  0  0  0  0  0  0  0  0  0
   -4.1769    0.8669    0.1138 N   0  0  0  0  0  0  0  0  0  0  0  0
   -4.7554   -0.0942   -0.3732 O   0  0  0  0  0  0  0  0  0  0  0  0
   -4.6818    1.8276    0.6774 O   0  0  0  0  0  0  0  0  0  0  0  0
    1.8034    0.8662   -0.3052 N   0  0  0  0  0  0  0  0  0  0  0  0
    2.9046    0.8658   -0.3816 N   0  0  0  0  0  0  0  0  0  0  0  0
  1  6  1  0  0  0  0
  2  1  2  0  0  0  0
  2  3  1  0  0  0  0
  3  4  2  0  0  0  0
  4  5  1  0  0  0  0
  4  9  1  0  0  0  0
  5 10  1  0  0  0  0
  6 11  1  0  0  0  0
  6  5  2  0  0  0  0
  7  1  1  0  0  0  0
  8  2  1  0  0  0  0
 11 13  2  0  0  0  0
 12 11  2  0  0  0  0
 15 14  3  0  0  0  0
M  RAD  1   3   2
M  END
