Coordinates from ORCA-job 4-NO2-Ph-N2+-B3LYPG-6-31G_dp-MTMO-d009-169-n800
 OpenBabel09051908243D

 15 14  0  0  0  0  0  0  0  0999 V2000
   -3.4985    0.0469   -0.0261 C   0  0  0  0  0  0  0  0  0  0  0  0
   -3.3695   -1.2965   -0.4898 C   0  0  0  0  0  0  0  0  0  0  0  0
   -2.0680   -1.4196   -0.7342 C   0  0  0  0  0  0  0  0  0  0  0  0
   -0.8571   -0.8694   -0.7424 C   0  0  0  0  0  0  0  0  0  0  0  0
   -1.0876    0.4574   -0.2695 C   0  0  0  0  0  0  0  0  0  0  0  0
   -2.3765    0.8709    0.0691 C   0  0  0  0  0  0  0  0  0  0  0  0
   -4.4868    0.4096    0.2483 H   0  0  0  0  0  0  0  0  0  0  0  0
   -4.1865   -2.0019   -0.5967 H   0  0  0  0  0  0  0  0  0  0  0  0
    0.1089   -1.2728   -1.0253 H   0  0  0  0  0  0  0  0  0  0  0  0
   -0.2382    1.1319   -0.1794 H   0  0  0  0  0  0  0  0  0  0  0  0
   -2.5646    2.2620    0.5563 N   0  0  0  0  0  0  0  0  0  0  0  0
   -3.7091    2.5805    0.8444 O   0  0  0  0  0  0  0  0  0  0  0  0
   -1.5569    2.9505    0.6205 O   0  0  0  0  0  0  0  0  0  0  0  0
    3.4038    4.1524    0.2295 N   0  0  0  0  0  0  0  0  0  0  0  0
    4.0982    4.9995    0.3766 N   0  0  0  0  0  0  0  0  0  0  0  0
  1  6  1  0  0  0  0
  1  7  1  0  0  0  0
  2  1  2  0  0  0  0
  3  2  1  0  0  0  0
  4  3  2  0  0  0  0
  4  5  1  0  0  0  0
  5 10  1  0  0  0  0
  5  6  2  0  0  0  0
  6 11  1  0  0  0  0
  8  2  1  0  0  0  0
  9  4  1  0  0  0  0
 11 13  2  0  0  0  0
 11 12  2  0  0  0  0
 14 15  3  0  0  0  0
M  RAD  1   3   2
M  END
