Coordinates from ORCA-job 4-NO2-Ph-N2+-B3LYPG-6-31G_dp-MTMO-d009-169-n800
 OpenBabel09051908243D

 15 14  0  0  0  0  0  0  0  0999 V2000
   -2.3457   -0.2129   -0.6117 C   0  0  0  0  0  0  0  0  0  0  0  0
   -0.9257   -0.2616   -0.7427 C   0  0  0  0  0  0  0  0  0  0  0  0
   -0.5172    0.8598   -0.1558 C   0  0  0  0  0  0  0  0  0  0  0  0
   -0.8278    1.9829    0.4855 C   0  0  0  0  0  0  0  0  0  0  0  0
   -2.2516    1.9416    0.5676 C   0  0  0  0  0  0  0  0  0  0  0  0
   -2.9577    0.8661    0.0274 C   0  0  0  0  0  0  0  0  0  0  0  0
   -2.9343   -1.0323   -1.0186 H   0  0  0  0  0  0  0  0  0  0  0  0
   -0.3677   -1.0592   -1.2207 H   0  0  0  0  0  0  0  0  0  0  0  0
   -0.2005    2.7771    0.8750 H   0  0  0  0  0  0  0  0  0  0  0  0
   -2.7690    2.7642    1.0569 H   0  0  0  0  0  0  0  0  0  0  0  0
   -4.4393    0.8696    0.1391 N   0  0  0  0  0  0  0  0  0  0  0  0
   -5.0181   -0.0915   -0.3462 O   0  0  0  0  0  0  0  0  0  0  0  0
   -4.9343    1.8329    0.7059 O   0  0  0  0  0  0  0  0  0  0  0  0
    3.4988    0.8814   -0.4063 N   0  0  0  0  0  0  0  0  0  0  0  0
    4.6018    0.8834   -0.4741 N   0  0  0  0  0  0  0  0  0  0  0  0
  1  6  1  0  0  0  0
  2  1  2  0  0  0  0
  2  3  1  0  0  0  0
  3  4  2  0  0  0  0
  4  5  1  0  0  0  0
  4  9  1  0  0  0  0
  5 10  1  0  0  0  0
  6 11  1  0  0  0  0
  6  5  2  0  0  0  0
  7  1  1  0  0  0  0
  8  2  1  0  0  0  0
 11 13  2  0  0  0  0
 12 11  2  0  0  0  0
 15 14  3  0  0  0  0
M  RAD  1   3   2
M  END
