Coordinates from ORCA-job 4-NO2-Ph-N2+-B3LYPG-6-31G_dp-MTMO-d009-169-n800
 OpenBabel09051908243D

 15 14  0  0  0  0  0  0  0  0999 V2000
   -2.6554   -0.2441   -0.6090 C   0  0  0  0  0  0  0  0  0  0  0  0
   -1.2421   -0.3543   -0.7734 C   0  0  0  0  0  0  0  0  0  0  0  0
   -0.7731    0.7498   -0.1992 C   0  0  0  0  0  0  0  0  0  0  0  0
   -1.0189    1.8865    0.4460 C   0  0  0  0  0  0  0  0  0  0  0  0
   -2.4412    1.9064    0.5615 C   0  0  0  0  0  0  0  0  0  0  0  0
   -3.2054    0.8613    0.0411 C   0  0  0  0  0  0  0  0  0  0  0  0
   -3.2877   -1.0384   -1.0001 H   0  0  0  0  0  0  0  0  0  0  0  0
   -0.7316   -1.1767   -1.2628 H   0  0  0  0  0  0  0  0  0  0  0  0
   -0.3503    2.6544    0.8195 H   0  0  0  0  0  0  0  0  0  0  0  0
   -2.9106    2.7516    1.0607 H   0  0  0  0  0  0  0  0  0  0  0  0
   -4.6825    0.9284    0.1876 N   0  0  0  0  0  0  0  0  0  0  0  0
   -5.3129   -0.0080   -0.2811 O   0  0  0  0  0  0  0  0  0  0  0  0
   -5.1219    1.9134    0.7629 O   0  0  0  0  0  0  0  0  0  0  0  0
    5.1207    1.0683   -0.4144 N   0  0  0  0  0  0  0  0  0  0  0  0
    6.2244    1.1030   -0.4583 N   0  0  0  0  0  0  0  0  0  0  0  0
  1  6  1  0  0  0  0
  2  1  2  0  0  0  0
  2  3  1  0  0  0  0
  3  4  2  0  0  0  0
  4  5  1  0  0  0  0
  4  9  1  0  0  0  0
  5 10  1  0  0  0  0
  6 11  1  0  0  0  0
  6  5  2  0  0  0  0
  7  1  1  0  0  0  0
  8  2  1  0  0  0  0
 11 13  2  0  0  0  0
 12 11  2  0  0  0  0
 15 14  3  0  0  0  0
M  RAD  1   3   2
M  END
