Coordinates from ORCA-job 4-NO2-Ph-N2+-B3LYPG-6-31G_dp-MTMO-d009-169-n800
 OpenBabel09051908243D

 15 14  0  0  0  0  0  0  0  0999 V2000
   -3.9157   -0.2028   -0.0233 C   0  0  0  0  0  0  0  0  0  0  0  0
   -3.9484   -1.5637   -0.4518 C   0  0  0  0  0  0  0  0  0  0  0  0
   -2.6810   -1.8256   -0.7581 C   0  0  0  0  0  0  0  0  0  0  0  0
   -1.4227   -1.4031   -0.8443 C   0  0  0  0  0  0  0  0  0  0  0  0
   -1.4923   -0.0486   -0.4006 C   0  0  0  0  0  0  0  0  0  0  0  0
   -2.7125    0.5037   -0.0099 C   0  0  0  0  0  0  0  0  0  0  0  0
   -4.8464    0.2656    0.2899 H   0  0  0  0  0  0  0  0  0  0  0  0
   -4.8370   -2.1839   -0.4948 H   0  0  0  0  0  0  0  0  0  0  0  0
   -0.5193   -1.9108   -1.1636 H   0  0  0  0  0  0  0  0  0  0  0  0
   -0.5755    0.5371   -0.3738 H   0  0  0  0  0  0  0  0  0  0  0  0
   -2.7317    1.9183    0.4442 N   0  0  0  0  0  0  0  0  0  0  0  0
   -3.8205    2.3607    0.7802 O   0  0  0  0  0  0  0  0  0  0  0  0
   -1.6568    2.5002    0.4373 O   0  0  0  0  0  0  0  0  0  0  0  0
    6.0629    6.5890    0.6292 N   0  0  0  0  0  0  0  0  0  0  0  0
    6.7085    7.4655    0.8203 N   0  0  0  0  0  0  0  0  0  0  0  0
  1  6  1  0  0  0  0
  1  7  1  0  0  0  0
  2  1  2  0  0  0  0
  3  2  1  0  0  0  0
  4  3  2  0  0  0  0
  4  5  1  0  0  0  0
  5 10  1  0  0  0  0
  5  6  2  0  0  0  0
  6 11  1  0  0  0  0
  8  2  1  0  0  0  0
  9  4  1  0  0  0  0
 11 12  2  0  0  0  0
 13 11  2  0  0  0  0
 14 15  3  0  0  0  0
M  RAD  1   3   2
M  END
