Coordinates from ORCA-job 4-NO2-Ph-N2+-B3LYPG-6-31G_dp-MTMO-d009-169-n800
 OpenBabel09051908243D

 15 14  0  0  0  0  0  0  0  0999 V2000
   -2.5944   -0.2361   -0.6089 C   0  0  0  0  0  0  0  0  0  0  0  0
   -1.1790   -0.3290   -0.7661 C   0  0  0  0  0  0  0  0  0  0  0  0
   -0.7265    0.7804   -0.1887 C   0  0  0  0  0  0  0  0  0  0  0  0
   -0.9895    1.9136    0.4560 C   0  0  0  0  0  0  0  0  0  0  0  0
   -2.4125    1.9160    0.5640 C   0  0  0  0  0  0  0  0  0  0  0  0
   -3.1612    0.8621    0.0390 C   0  0  0  0  0  0  0  0  0  0  0  0
   -3.2150   -1.0377   -1.0037 H   0  0  0  0  0  0  0  0  0  0  0  0
   -0.6559   -1.1448   -1.2531 H   0  0  0  0  0  0  0  0  0  0  0  0
   -0.3320    2.6892    0.8332 H   0  0  0  0  0  0  0  0  0  0  0  0
   -2.8949    2.7551    1.0612 H   0  0  0  0  0  0  0  0  0  0  0  0
   -4.6397    0.9112    0.1779 N   0  0  0  0  0  0  0  0  0  0  0  0
   -5.2563   -0.0325   -0.2947 O   0  0  0  0  0  0  0  0  0  0  0  0
   -5.0941    1.8903    0.7515 O   0  0  0  0  0  0  0  0  0  0  0  0
    4.8294    1.0192   -0.4185 N   0  0  0  0  0  0  0  0  0  0  0  0
    5.9332    1.0445   -0.4679 N   0  0  0  0  0  0  0  0  0  0  0  0
  1  6  1  0  0  0  0
  2  1  2  0  0  0  0
  2  3  1  0  0  0  0
  3  4  2  0  0  0  0
  4  5  1  0  0  0  0
  4  9  1  0  0  0  0
  5 10  1  0  0  0  0
  6 11  1  0  0  0  0
  6  5  2  0  0  0  0
  7  1  1  0  0  0  0
  8  2  1  0  0  0  0
 11 13  2  0  0  0  0
 12 11  2  0  0  0  0
 15 14  3  0  0  0  0
M  RAD  1   3   2
M  END
