Coordinates from ORCA-job 4-NO2-Ph-N2+-B3LYPG-6-31G_dp-MTMO-d009-169-n800
 OpenBabel09051908243D

 15 14  0  0  0  0  0  0  0  0999 V2000
   -2.8144   -0.2672   -0.6071 C   0  0  0  0  0  0  0  0  0  0  0  0
   -1.4075   -0.4372   -0.7753 C   0  0  0  0  0  0  0  0  0  0  0  0
   -0.8906    0.6469   -0.2041 C   0  0  0  0  0  0  0  0  0  0  0  0
   -1.0865    1.7936    0.4404 C   0  0  0  0  0  0  0  0  0  0  0  0
   -2.5064    1.8740    0.5595 C   0  0  0  0  0  0  0  0  0  0  0  0
   -3.3154    0.8614    0.0427 C   0  0  0  0  0  0  0  0  0  0  0  0
   -3.4808   -1.0345   -0.9955 H   0  0  0  0  0  0  0  0  0  0  0  0
   -0.9337   -1.2809   -1.2653 H   0  0  0  0  0  0  0  0  0  0  0  0
   -0.3851    2.5331    0.8114 H   0  0  0  0  0  0  0  0  0  0  0  0
   -2.9380    2.7389    1.0590 H   0  0  0  0  0  0  0  0  0  0  0  0
   -4.7880    0.9913    0.1926 N   0  0  0  0  0  0  0  0  0  0  0  0
   -5.4586    0.0820   -0.2740 O   0  0  0  0  0  0  0  0  0  0  0  0
   -5.1837    1.9946    0.7677 O   0  0  0  0  0  0  0  0  0  0  0  0
    5.8486    1.2261   -0.4150 N   0  0  0  0  0  0  0  0  0  0  0  0
    6.9517    1.2794   -0.4560 N   0  0  0  0  0  0  0  0  0  0  0  0
  1  6  1  0  0  0  0
  2  1  2  0  0  0  0
  2  3  1  0  0  0  0
  3  4  2  0  0  0  0
  4  5  1  0  0  0  0
  4  9  1  0  0  0  0
  5 10  1  0  0  0  0
  6 11  1  0  0  0  0
  6  5  2  0  0  0  0
  7  1  1  0  0  0  0
  8  2  1  0  0  0  0
 11 13  2  0  0  0  0
 12 11  2  0  0  0  0
 15 14  3  0  0  0  0
M  RAD  1   3   2
M  END
