Coordinates from ORCA-job 4-NO2-Ph-N2+-B3LYPG-6-31G_dp-MTMO-d009-169-n800
 OpenBabel09051908243D

 15 14  0  0  0  0  0  0  0  0999 V2000
   -4.0457   -0.2986   -0.0244 C   0  0  0  0  0  0  0  0  0  0  0  0
   -4.0969   -1.6622   -0.4425 C   0  0  0  0  0  0  0  0  0  0  0  0
   -2.8361   -1.9386   -0.7633 C   0  0  0  0  0  0  0  0  0  0  0  0
   -1.5751   -1.5289   -0.8687 C   0  0  0  0  0  0  0  0  0  0  0  0
   -1.6260   -0.1706   -0.4340 C   0  0  0  0  0  0  0  0  0  0  0  0
   -2.8357    0.3962   -0.0316 C   0  0  0  0  0  0  0  0  0  0  0  0
   -4.9677    0.1809    0.2974 H   0  0  0  0  0  0  0  0  0  0  0  0
   -4.9919   -2.2742   -0.4695 H   0  0  0  0  0  0  0  0  0  0  0  0
   -0.6808   -2.0476   -1.1959 H   0  0  0  0  0  0  0  0  0  0  0  0
   -0.7034    0.4064   -0.4233 H   0  0  0  0  0  0  0  0  0  0  0  0
   -2.8354    1.8142    0.4122 N   0  0  0  0  0  0  0  0  0  0  0  0
   -3.9151    2.2693    0.7601 O   0  0  0  0  0  0  0  0  0  0  0  0
   -1.7553    2.3859    0.3858 O   0  0  0  0  0  0  0  0  0  0  0  0
    6.9198    7.2935    0.7424 N   0  0  0  0  0  0  0  0  0  0  0  0
    7.5569    8.1756    0.9362 N   0  0  0  0  0  0  0  0  0  0  0  0
  1  7  1  0  0  0  0
  2  1  2  0  0  0  0
  3  2  1  0  0  0  0
  4  3  2  0  0  0  0
  4  5  1  0  0  0  0
  5 10  1  0  0  0  0
  5  6  2  0  0  0  0
  6  1  1  0  0  0  0
  6 11  1  0  0  0  0
  8  2  1  0  0  0  0
  9  4  1  0  0  0  0
 11 12  2  0  0  0  0
 13 11  2  0  0  0  0
 14 15  3  0  0  0  0
M  RAD  1   3   2
M  END
