Coordinates from ORCA-job 4-NO2-Ph-N2+-B3LYPG-6-31G_dp-MTMO-d009-169-n800
 OpenBabel09051908243D

 15 14  0  0  0  0  0  0  0  0999 V2000
   -3.5716    0.0044   -0.0262 C   0  0  0  0  0  0  0  0  0  0  0  0
   -3.4695   -1.3430   -0.4852 C   0  0  0  0  0  0  0  0  0  0  0  0
   -2.1723   -1.4893   -0.7392 C   0  0  0  0  0  0  0  0  0  0  0  0
   -0.9522   -0.9602   -0.7593 C   0  0  0  0  0  0  0  0  0  0  0  0
   -1.1560    0.3722   -0.2902 C   0  0  0  0  0  0  0  0  0  0  0  0
   -2.4349    0.8093    0.0568 C   0  0  0  0  0  0  0  0  0  0  0  0
   -4.5513    0.3852    0.2542 H   0  0  0  0  0  0  0  0  0  0  0  0
   -4.2994   -2.0344   -0.5827 H   0  0  0  0  0  0  0  0  0  0  0  0
    0.0042   -1.3818   -1.0481 H   0  0  0  0  0  0  0  0  0  0  0  0
   -0.2946    1.0323   -0.2095 H   0  0  0  0  0  0  0  0  0  0  0  0
   -2.5949    2.2054    0.5398 N   0  0  0  0  0  0  0  0  0  0  0  0
   -3.7315    2.5457    0.8338 O   0  0  0  0  0  0  0  0  0  0  0  0
   -1.5744    2.8757    0.5953 O   0  0  0  0  0  0  0  0  0  0  0  0
    3.8660    4.5602    0.2942 N   0  0  0  0  0  0  0  0  0  0  0  0
    4.5439    5.4196    0.4474 N   0  0  0  0  0  0  0  0  0  0  0  0
  1  6  1  0  0  0  0
  1  7  1  0  0  0  0
  2  1  2  0  0  0  0
  3  2  1  0  0  0  0
  4  3  2  0  0  0  0
  4  5  1  0  0  0  0
  5 10  1  0  0  0  0
  5  6  2  0  0  0  0
  6 11  1  0  0  0  0
  8  2  1  0  0  0  0
  9  4  1  0  0  0  0
 11 13  2  0  0  0  0
 11 12  2  0  0  0  0
 14 15  3  0  0  0  0
M  RAD  1   3   2
M  END
