Coordinates from ORCA-job 4-NO2-Ph-N2+-B3LYPG-6-31G_dp-MTMO-d009-169-n800
 OpenBabel09051908243D

 15 14  0  0  0  0  0  0  0  0999 V2000
   -2.5359   -0.2291   -0.6091 C   0  0  0  0  0  0  0  0  0  0  0  0
   -1.1189   -0.3078   -0.7595 C   0  0  0  0  0  0  0  0  0  0  0  0
   -0.6802    0.8056   -0.1795 C   0  0  0  0  0  0  0  0  0  0  0  0
   -0.9575    1.9358    0.4645 C   0  0  0  0  0  0  0  0  0  0  0  0
   -2.3809    1.9240    0.5658 C   0  0  0  0  0  0  0  0  0  0  0  0
   -3.1166    0.8630    0.0367 C   0  0  0  0  0  0  0  0  0  0  0  0
   -3.1466   -1.0367   -1.0072 H   0  0  0  0  0  0  0  0  0  0  0  0
   -0.5853   -1.1180   -1.2444 H   0  0  0  0  0  0  0  0  0  0  0  0
   -0.3095    2.7177    0.8452 H   0  0  0  0  0  0  0  0  0  0  0  0
   -2.8740    2.7580    1.0611 H   0  0  0  0  0  0  0  0  0  0  0  0
   -4.5962    0.8974    0.1686 N   0  0  0  0  0  0  0  0  0  0  0  0
   -5.2011   -0.0521   -0.3074 O   0  0  0  0  0  0  0  0  0  0  0  0
   -5.0631    1.8715    0.7407 O   0  0  0  0  0  0  0  0  0  0  0  0
    4.5368    0.9773   -0.4202 N   0  0  0  0  0  0  0  0  0  0  0  0
    5.6405    0.9950   -0.4742 N   0  0  0  0  0  0  0  0  0  0  0  0
  1  6  1  0  0  0  0
  2  1  2  0  0  0  0
  2  3  1  0  0  0  0
  3  4  2  0  0  0  0
  4  5  1  0  0  0  0
  4  9  1  0  0  0  0
  5 10  1  0  0  0  0
  6 11  1  0  0  0  0
  6  5  2  0  0  0  0
  7  1  1  0  0  0  0
  8  2  1  0  0  0  0
 11 13  2  0  0  0  0
 12 11  2  0  0  0  0
 15 14  3  0  0  0  0
M  RAD  1   3   2
M  END
