Coordinates from ORCA-job 4-NO2-Ph-N2+-B3LYPG-6-31G_dp-MTMO-d009-169-n800
 OpenBabel09051908243D

 15 14  0  0  0  0  0  0  0  0999 V2000
   -3.6720   -0.0477   -0.0229 C   0  0  0  0  0  0  0  0  0  0  0  0
   -3.6254   -1.4017   -0.4713 C   0  0  0  0  0  0  0  0  0  0  0  0
   -2.3386   -1.5961   -0.7452 C   0  0  0  0  0  0  0  0  0  0  0  0
   -1.1010   -1.1109   -0.7899 C   0  0  0  0  0  0  0  0  0  0  0  0
   -1.2497    0.2316   -0.3291 C   0  0  0  0  0  0  0  0  0  0  0  0
   -2.5063    0.7168    0.0348 C   0  0  0  0  0  0  0  0  0  0  0  0
   -4.6330    0.3697    0.2701 H   0  0  0  0  0  0  0  0  0  0  0  0
   -4.4808   -2.0640   -0.5486 H   0  0  0  0  0  0  0  0  0  0  0  0
   -0.1652   -1.5686   -1.0910 H   0  0  0  0  0  0  0  0  0  0  0  0
   -0.3643    0.8613   -0.2686 H   0  0  0  0  0  0  0  0  0  0  0  0
   -2.6084    2.1214    0.5087 N   0  0  0  0  0  0  0  0  0  0  0  0
   -3.7279    2.5059    0.8139 O   0  0  0  0  0  0  0  0  0  0  0  0
   -1.5631    2.7537    0.5471 O   0  0  0  0  0  0  0  0  0  0  0  0
    4.4957    5.1785    0.4010 N   0  0  0  0  0  0  0  0  0  0  0  0
    5.1514    6.0516    0.5721 N   0  0  0  0  0  0  0  0  0  0  0  0
  1  6  1  0  0  0  0
  1  7  1  0  0  0  0
  2  1  2  0  0  0  0
  3  2  1  0  0  0  0
  4  3  2  0  0  0  0
  4  5  1  0  0  0  0
  5 10  1  0  0  0  0
  5  6  2  0  0  0  0
  6 11  1  0  0  0  0
  8  2  1  0  0  0  0
  9  4  1  0  0  0  0
 11 13  2  0  0  0  0
 11 12  2  0  0  0  0
 14 15  3  0  0  0  0
M  RAD  1   3   2
M  END
