Coordinates from ORCA-job 4-NO2-Ph-N2+-B3LYPG-6-31G_dp-MTMO-d009-169-n800
 OpenBabel09051908243D

 15 14  0  0  0  0  0  0  0  0999 V2000
   -2.6700   -0.2461   -0.6090 C   0  0  0  0  0  0  0  0  0  0  0  0
   -1.2572   -0.3607   -0.7752 C   0  0  0  0  0  0  0  0  0  0  0  0
   -0.7841    0.7421   -0.2018 C   0  0  0  0  0  0  0  0  0  0  0  0
   -1.0256    1.8797    0.4435 C   0  0  0  0  0  0  0  0  0  0  0  0
   -2.4477    1.9039    0.5608 C   0  0  0  0  0  0  0  0  0  0  0  0
   -3.2157    0.8611    0.0416 C   0  0  0  0  0  0  0  0  0  0  0  0
   -3.3052   -1.0385   -0.9992 H   0  0  0  0  0  0  0  0  0  0  0  0
   -0.7499   -1.1847   -1.2651 H   0  0  0  0  0  0  0  0  0  0  0  0
   -0.3541    2.6455    0.8161 H   0  0  0  0  0  0  0  0  0  0  0  0
   -2.9138    2.7507    1.0605 H   0  0  0  0  0  0  0  0  0  0  0  0
   -4.6925    0.9328    0.1900 N   0  0  0  0  0  0  0  0  0  0  0  0
   -5.3263   -0.0018   -0.2778 O   0  0  0  0  0  0  0  0  0  0  0  0
   -5.1281    1.9192    0.7657 O   0  0  0  0  0  0  0  0  0  0  0  0
    5.1890    1.0807   -0.4131 N   0  0  0  0  0  0  0  0  0  0  0  0
    6.2927    1.1174   -0.4559 N   0  0  0  0  0  0  0  0  0  0  0  0
  1  6  1  0  0  0  0
  2  1  2  0  0  0  0
  2  3  1  0  0  0  0
  3  4  2  0  0  0  0
  4  5  1  0  0  0  0
  4  9  1  0  0  0  0
  5 10  1  0  0  0  0
  6 11  1  0  0  0  0
  6  5  2  0  0  0  0
  7  1  1  0  0  0  0
  8  2  1  0  0  0  0
 11 13  2  0  0  0  0
 12 11  2  0  0  0  0
 15 14  3  0  0  0  0
M  RAD  1   3   2
M  END
