Coordinates from ORCA-job 4-NO2-Ph-N2+-B3LYPG-6-31G_dp-MTMO-d009-169-n800
 OpenBabel09051908243D

 15 14  0  0  0  0  0  0  0  0999 V2000
   -2.3605   -0.2136   -0.6113 C   0  0  0  0  0  0  0  0  0  0  0  0
   -0.9406   -0.2637   -0.7435 C   0  0  0  0  0  0  0  0  0  0  0  0
   -0.5309    0.8574   -0.1569 C   0  0  0  0  0  0  0  0  0  0  0  0
   -0.8396    1.9809    0.4845 C   0  0  0  0  0  0  0  0  0  0  0  0
   -2.2635    1.9408    0.5678 C   0  0  0  0  0  0  0  0  0  0  0  0
   -2.9710    0.8659    0.0282 C   0  0  0  0  0  0  0  0  0  0  0  0
   -2.9501   -1.0326   -1.0177 H   0  0  0  0  0  0  0  0  0  0  0  0
   -0.3838   -1.0619   -1.2220 H   0  0  0  0  0  0  0  0  0  0  0  0
   -0.2114    2.7746    0.8736 H   0  0  0  0  0  0  0  0  0  0  0  0
   -2.7798    2.7638    1.0575 H   0  0  0  0  0  0  0  0  0  0  0  0
   -4.4525    0.8707    0.1412 N   0  0  0  0  0  0  0  0  0  0  0  0
   -5.0325   -0.0899   -0.3437 O   0  0  0  0  0  0  0  0  0  0  0  0
   -4.9461    1.8345    0.7083 O   0  0  0  0  0  0  0  0  0  0  0  0
    3.5853    0.8859   -0.4092 N   0  0  0  0  0  0  0  0  0  0  0  0
    4.6884    0.8887   -0.4758 N   0  0  0  0  0  0  0  0  0  0  0  0
  1  6  1  0  0  0  0
  2  1  2  0  0  0  0
  2  3  1  0  0  0  0
  3  4  2  0  0  0  0
  4  5  1  0  0  0  0
  4  9  1  0  0  0  0
  5 10  1  0  0  0  0
  6 11  1  0  0  0  0
  6  5  2  0  0  0  0
  7  1  1  0  0  0  0
  8  2  1  0  0  0  0
 11 13  2  0  0  0  0
 12 11  2  0  0  0  0
 15 14  3  0  0  0  0
M  RAD  1   3   2
M  END
