Coordinates from ORCA-job 4-NO2-Ph-N2+-B3LYPG-6-31G_dp-MTMO-d009-169-n800
 OpenBabel09051908243D

 15 14  0  0  0  0  0  0  0  0999 V2000
   -2.7288   -0.2542   -0.6091 C   0  0  0  0  0  0  0  0  0  0  0  0
   -1.3186   -0.3871   -0.7829 C   0  0  0  0  0  0  0  0  0  0  0  0
   -0.8283    0.7100   -0.2128 C   0  0  0  0  0  0  0  0  0  0  0  0
   -1.0517    1.8511    0.4329 C   0  0  0  0  0  0  0  0  0  0  0  0
   -2.4727    1.8936    0.5578 C   0  0  0  0  0  0  0  0  0  0  0  0
   -3.2568    0.8604    0.0435 C   0  0  0  0  0  0  0  0  0  0  0  0
   -3.3764   -1.0385   -0.9953 H   0  0  0  0  0  0  0  0  0  0  0  0
   -0.8246   -1.2178   -1.2750 H   0  0  0  0  0  0  0  0  0  0  0  0
   -0.3684    2.6085    0.8014 H   0  0  0  0  0  0  0  0  0  0  0  0
   -2.9253    2.7465    1.0595 H   0  0  0  0  0  0  0  0  0  0  0  0
   -4.7317    0.9512    0.1997 N   0  0  0  0  0  0  0  0  0  0  0  0
   -5.3800    0.0245   -0.2641 O   0  0  0  0  0  0  0  0  0  0  0  0
   -5.1515    1.9435    0.7770 O   0  0  0  0  0  0  0  0  0  0  0  0
    5.4613    1.1329   -0.4063 N   0  0  0  0  0  0  0  0  0  0  0  0
    6.5649    1.1769   -0.4452 N   0  0  0  0  0  0  0  0  0  0  0  0
  1  6  1  0  0  0  0
  2  1  2  0  0  0  0
  2  3  1  0  0  0  0
  3  4  2  0  0  0  0
  4  5  1  0  0  0  0
  4  9  1  0  0  0  0
  5 10  1  0  0  0  0
  6 11  1  0  0  0  0
  6  5  2  0  0  0  0
  7  1  1  0  0  0  0
  8  2  1  0  0  0  0
 11 13  2  0  0  0  0
 12 11  2  0  0  0  0
 15 14  3  0  0  0  0
M  RAD  1   3   2
M  END
