Coordinates from ORCA-job 4-NO2-Ph-N2+-B3LYPG-6-31G_dp-MTMO-d009-169-n800
 OpenBabel09051908243D

 15 14  0  0  0  0  0  0  0  0999 V2000
   -2.7142   -0.2522   -0.6091 C   0  0  0  0  0  0  0  0  0  0  0  0
   -1.3032   -0.3804   -0.7809 C   0  0  0  0  0  0  0  0  0  0  0  0
   -0.8172    0.7180   -0.2100 C   0  0  0  0  0  0  0  0  0  0  0  0
   -1.0452    1.8582    0.4356 C   0  0  0  0  0  0  0  0  0  0  0  0
   -2.4665    1.8962    0.5586 C   0  0  0  0  0  0  0  0  0  0  0  0
   -3.2466    0.8605    0.0431 C   0  0  0  0  0  0  0  0  0  0  0  0
   -3.3585   -1.0386   -0.9964 H   0  0  0  0  0  0  0  0  0  0  0  0
   -0.8059   -1.2095   -1.2724 H   0  0  0  0  0  0  0  0  0  0  0  0
   -0.3649    2.6178    0.8051 H   0  0  0  0  0  0  0  0  0  0  0  0
   -2.9223    2.7477    1.0598 H   0  0  0  0  0  0  0  0  0  0  0  0
   -4.7220    0.9466    0.1972 N   0  0  0  0  0  0  0  0  0  0  0  0
   -5.3666    0.0179   -0.2676 O   0  0  0  0  0  0  0  0  0  0  0  0
   -5.1457    1.9374    0.7741 O   0  0  0  0  0  0  0  0  0  0  0  0
    5.3933    1.1198   -0.4081 N   0  0  0  0  0  0  0  0  0  0  0  0
    6.4970    1.1620   -0.4479 N   0  0  0  0  0  0  0  0  0  0  0  0
  1  6  1  0  0  0  0
  2  1  2  0  0  0  0
  2  3  1  0  0  0  0
  3  4  2  0  0  0  0
  4  5  1  0  0  0  0
  4  9  1  0  0  0  0
  5 10  1  0  0  0  0
  6 11  1  0  0  0  0
  6  5  2  0  0  0  0
  7  1  1  0  0  0  0
  8  2  1  0  0  0  0
 11 13  2  0  0  0  0
 12 11  2  0  0  0  0
 15 14  3  0  0  0  0
M  RAD  1   3   2
M  END
