Coordinates from ORCA-job 4-NO2-Ph-N2+-B3LYPG-6-31G_dp-MTMO-d009-169-n800
 OpenBabel09051908243D

 15 15  0  0  0  0  0  0  0  0999 V2000
   -1.9929   -0.2122   -0.6332 C   0  0  0  0  0  0  0  0  0  0  0  0
   -0.6199   -0.2269   -0.7369 C   0  0  0  0  0  0  0  0  0  0  0  0
    0.1669    0.8666   -0.1908 C   0  0  0  0  0  0  0  0  0  0  0  0
   -0.5358    1.9604    0.4593 C   0  0  0  0  0  0  0  0  0  0  0  0
   -1.9099    1.9462    0.5476 C   0  0  0  0  0  0  0  0  0  0  0  0
   -2.6113    0.8671    0.0035 C   0  0  0  0  0  0  0  0  0  0  0  0
   -2.5987   -1.0178   -1.0337 H   0  0  0  0  0  0  0  0  0  0  0  0
   -0.0904   -1.0420   -1.2211 H   0  0  0  0  0  0  0  0  0  0  0  0
    0.0561    2.7750    0.8656 H   0  0  0  0  0  0  0  0  0  0  0  0
   -2.4541    2.7520    1.0283 H   0  0  0  0  0  0  0  0  0  0  0  0
   -4.1022    0.8669    0.1085 N   0  0  0  0  0  0  0  0  0  0  0  0
   -4.6765   -0.0946   -0.3810 O   0  0  0  0  0  0  0  0  0  0  0  0
   -4.6026    1.8280    0.6740 O   0  0  0  0  0  0  0  0  0  0  0  0
    1.2245    0.8664   -0.2648 N   0  0  0  0  0  0  0  0  0  0  0  0
    2.3583    0.8663   -0.3440 N   0  0  0  0  0  0  0  0  0  0  0  0
  1  6  1  0  0  0  0
  2  1  2  0  0  0  0
  2  3  1  0  0  0  0
  3  4  2  0  0  0  0
  4  5  1  0  0  0  0
  4  9  1  0  0  0  0
  5 10  1  0  0  0  0
  6 11  1  0  0  0  0
  6  5  2  0  0  0  0
  7  1  1  0  0  0  0
  8  2  1  0  0  0  0
 11 13  2  0  0  0  0
 12 11  2  0  0  0  0
 14  3  1  0  0  0  0
 15 14  1  0  0  0  0
M  RAD  2  14   2  15   3
M  END
