Coordinates from ORCA-job 4-NO2-Ph-N2+-B3LYPG-6-31G_dp-MTMO-d009-169-n800
 OpenBabel09051908243D

 15 14  0  0  0  0  0  0  0  0999 V2000
   -2.5325   -0.2287   -0.6092 C   0  0  0  0  0  0  0  0  0  0  0  0
   -1.1155   -0.3068   -0.7592 C   0  0  0  0  0  0  0  0  0  0  0  0
   -0.6775    0.8070   -0.1790 C   0  0  0  0  0  0  0  0  0  0  0  0
   -0.9555    1.9369    0.4650 C   0  0  0  0  0  0  0  0  0  0  0  0
   -2.3790    1.9245    0.5658 C   0  0  0  0  0  0  0  0  0  0  0  0
   -3.1140    0.8630    0.0366 C   0  0  0  0  0  0  0  0  0  0  0  0
   -3.1428   -1.0366   -1.0074 H   0  0  0  0  0  0  0  0  0  0  0  0
   -0.5813   -1.1167   -1.2439 H   0  0  0  0  0  0  0  0  0  0  0  0
   -0.3080    2.7192    0.8458 H   0  0  0  0  0  0  0  0  0  0  0  0
   -2.8727    2.7581    1.0611 H   0  0  0  0  0  0  0  0  0  0  0  0
   -4.5936    0.8966    0.1681 N   0  0  0  0  0  0  0  0  0  0  0  0
   -5.1980   -0.0531   -0.3081 O   0  0  0  0  0  0  0  0  0  0  0  0
   -5.0611    1.8706    0.7401 O   0  0  0  0  0  0  0  0  0  0  0  0
    4.5196    0.9750   -0.4202 N   0  0  0  0  0  0  0  0  0  0  0  0
    5.6233    0.9925   -0.4744 N   0  0  0  0  0  0  0  0  0  0  0  0
  1  6  1  0  0  0  0
  2  1  2  0  0  0  0
  2  3  1  0  0  0  0
  3  4  2  0  0  0  0
  4  5  1  0  0  0  0
  4  9  1  0  0  0  0
  5 10  1  0  0  0  0
  6 11  1  0  0  0  0
  6  5  2  0  0  0  0
  7  1  1  0  0  0  0
  8  2  1  0  0  0  0
 11 13  2  0  0  0  0
 12 11  2  0  0  0  0
 15 14  3  0  0  0  0
M  RAD  1   3   2
M  END
