Coordinates from ORCA-job 4-NO2-Ph-N2+-B3LYPG-6-31G_dp-MTMO-d009-169-n800
 OpenBabel09051908243D

 15 14  0  0  0  0  0  0  0  0999 V2000
   -2.2970   -0.2110   -0.6135 C   0  0  0  0  0  0  0  0  0  0  0  0
   -0.8769   -0.2567   -0.7414 C   0  0  0  0  0  0  0  0  0  0  0  0
   -0.4709    0.8653   -0.1535 C   0  0  0  0  0  0  0  0  0  0  0  0
   -0.7861    1.9876    0.4871 C   0  0  0  0  0  0  0  0  0  0  0  0
   -2.2098    1.9436    0.5662 C   0  0  0  0  0  0  0  0  0  0  0  0
   -2.9125    0.8666    0.0244 C   0  0  0  0  0  0  0  0  0  0  0  0
   -2.8835   -1.0314   -1.0216 H   0  0  0  0  0  0  0  0  0  0  0  0
   -0.3158   -1.0528   -1.2182 H   0  0  0  0  0  0  0  0  0  0  0  0
   -0.1609    2.7826    0.8779 H   0  0  0  0  0  0  0  0  0  0  0  0
   -2.7303    2.7647    1.0545 H   0  0  0  0  0  0  0  0  0  0  0  0
   -4.3943    0.8671    0.1330 N   0  0  0  0  0  0  0  0  0  0  0  0
   -4.9703   -0.0950   -0.3537 O   0  0  0  0  0  0  0  0  0  0  0  0
   -4.8926    1.8293    0.6988 O   0  0  0  0  0  0  0  0  0  0  0  0
    3.2048    0.8708   -0.3937 N   0  0  0  0  0  0  0  0  0  0  0  0
    4.3074    0.8709   -0.4652 N   0  0  0  0  0  0  0  0  0  0  0  0
  1  6  1  0  0  0  0
  2  1  2  0  0  0  0
  2  3  1  0  0  0  0
  3  4  2  0  0  0  0
  4  5  1  0  0  0  0
  4  9  1  0  0  0  0
  5 10  1  0  0  0  0
  6 11  1  0  0  0  0
  6  5  2  0  0  0  0
  7  1  1  0  0  0  0
  8  2  1  0  0  0  0
 11 13  2  0  0  0  0
 12 11  2  0  0  0  0
 15 14  3  0  0  0  0
M  RAD  1   3   2
M  END
