Coordinates from ORCA-job 4-NO2-Ph-N2+-B3LYPG-6-31G_dp-MTMO-d009-169-n800
 OpenBabel09051908243D

 15 14  0  0  0  0  0  0  0  0999 V2000
   -3.8839   -0.1793   -0.0228 C   0  0  0  0  0  0  0  0  0  0  0  0
   -3.9115   -1.5394   -0.4538 C   0  0  0  0  0  0  0  0  0  0  0  0
   -2.6424   -1.7978   -0.7567 C   0  0  0  0  0  0  0  0  0  0  0  0
   -1.3851   -1.3719   -0.8384 C   0  0  0  0  0  0  0  0  0  0  0  0
   -1.4597   -0.0183   -0.3924 C   0  0  0  0  0  0  0  0  0  0  0  0
   -2.6825    0.5301   -0.0045 C   0  0  0  0  0  0  0  0  0  0  0  0
   -4.8167    0.2862    0.2883 H   0  0  0  0  0  0  0  0  0  0  0  0
   -4.7982   -2.1622   -0.5008 H   0  0  0  0  0  0  0  0  0  0  0  0
   -0.4791   -1.8762   -1.1556 H   0  0  0  0  0  0  0  0  0  0  0  0
   -0.5445    0.5696   -0.3617 H   0  0  0  0  0  0  0  0  0  0  0  0
   -2.7067    1.9439    0.4520 N   0  0  0  0  0  0  0  0  0  0  0  0
   -3.7976    2.3830    0.7853 O   0  0  0  0  0  0  0  0  0  0  0  0
   -1.6333    2.5287    0.4493 O   0  0  0  0  0  0  0  0  0  0  0  0
    5.8529    6.4147    0.6011 N   0  0  0  0  0  0  0  0  0  0  0  0
    6.4998    7.2903    0.7918 N   0  0  0  0  0  0  0  0  0  0  0  0
  1  6  1  0  0  0  0
  1  7  1  0  0  0  0
  2  1  2  0  0  0  0
  3  2  1  0  0  0  0
  4  3  2  0  0  0  0
  4  5  1  0  0  0  0
  5 10  1  0  0  0  0
  5  6  2  0  0  0  0
  6 11  1  0  0  0  0
  8  2  1  0  0  0  0
  9  4  1  0  0  0  0
 11 12  2  0  0  0  0
 13 11  2  0  0  0  0
 14 15  3  0  0  0  0
M  RAD  1   3   2
M  END
