Coordinates from ORCA-job 4-NO2-Ph-N2+-B3LYPG-6-31G_dp-MTMO-d009-169-n800
 OpenBabel09051908243D

 15 14  0  0  0  0  0  0  0  0999 V2000
   -3.4949    0.0488   -0.0259 C   0  0  0  0  0  0  0  0  0  0  0  0
   -3.3636   -1.2943   -0.4898 C   0  0  0  0  0  0  0  0  0  0  0  0
   -2.0618   -1.4157   -0.7339 C   0  0  0  0  0  0  0  0  0  0  0  0
   -0.8517   -0.8637   -0.7415 C   0  0  0  0  0  0  0  0  0  0  0  0
   -1.0844    0.4627   -0.2684 C   0  0  0  0  0  0  0  0  0  0  0  0
   -2.3740    0.8742    0.0697 C   0  0  0  0  0  0  0  0  0  0  0  0
   -4.4837    0.4102    0.2481 H   0  0  0  0  0  0  0  0  0  0  0  0
   -4.1793   -2.0010   -0.5973 H   0  0  0  0  0  0  0  0  0  0  0  0
    0.1152   -1.2652   -1.0240 H   0  0  0  0  0  0  0  0  0  0  0  0
   -0.2360    1.1384   -0.1779 H   0  0  0  0  0  0  0  0  0  0  0  0
   -2.5643    2.2651    0.5571 N   0  0  0  0  0  0  0  0  0  0  0  0
   -3.7094    2.5818    0.8449 O   0  0  0  0  0  0  0  0  0  0  0  0
   -1.5577    2.9551    0.6217 O   0  0  0  0  0  0  0  0  0  0  0  0
    3.3799    4.1302    0.2251 N   0  0  0  0  0  0  0  0  0  0  0  0
    4.0771    4.9748    0.3732 N   0  0  0  0  0  0  0  0  0  0  0  0
  1  6  1  0  0  0  0
  1  7  1  0  0  0  0
  2  1  2  0  0  0  0
  3  2  1  0  0  0  0
  4  3  2  0  0  0  0
  4  5  1  0  0  0  0
  5 10  1  0  0  0  0
  5  6  2  0  0  0  0
  6 11  1  0  0  0  0
  8  2  1  0  0  0  0
  9  4  1  0  0  0  0
 11 13  2  0  0  0  0
 11 12  2  0  0  0  0
 14 15  3  0  0  0  0
M  RAD  1   3   2
M  END
