Coordinates from ORCA-job 4-NO2-Ph-N2+-B3LYPG-6-31G_dp-MTMO-d009-169-n800
 OpenBabel09051908243D

 15 14  0  0  0  0  0  0  0  0999 V2000
   -4.3415   -0.5279   -0.0336 C   0  0  0  0  0  0  0  0  0  0  0  0
   -4.4133   -1.8962   -0.4328 C   0  0  0  0  0  0  0  0  0  0  0  0
   -3.1623   -2.1871   -0.7780 C   0  0  0  0  0  0  0  0  0  0  0  0
   -1.9006   -1.7895   -0.9167 C   0  0  0  0  0  0  0  0  0  0  0  0
   -1.9305   -0.4255   -0.4986 C   0  0  0  0  0  0  0  0  0  0  0  0
   -3.1264    0.1566   -0.0768 C   0  0  0  0  0  0  0  0  0  0  0  0
   -5.2522   -0.0365    0.3025 H   0  0  0  0  0  0  0  0  0  0  0  0
   -5.3136   -2.5009   -0.4318 H   0  0  0  0  0  0  0  0  0  0  0  0
   -1.0182   -2.3202   -1.2569 H   0  0  0  0  0  0  0  0  0  0  0  0
   -1.0034    0.1439   -0.5158 H   0  0  0  0  0  0  0  0  0  0  0  0
   -3.1046    1.5802    0.3483 N   0  0  0  0  0  0  0  0  0  0  0  0
   -4.1720    2.0483    0.7164 O   0  0  0  0  0  0  0  0  0  0  0  0
   -2.0211    2.1428    0.2880 O   0  0  0  0  0  0  0  0  0  0  0  0
    8.8958    8.8479    0.9792 N   0  0  0  0  0  0  0  0  0  0  0  0
    9.4753    9.7657    1.1876 N   0  0  0  0  0  0  0  0  0  0  0  0
  1  7  1  0  0  0  0
  2  8  1  0  0  0  0
  2  1  2  0  0  0  0
  3  2  1  0  0  0  0
  4  3  2  0  0  0  0
  4  5  1  0  0  0  0
  5  6  2  0  0  0  0
  6  1  1  0  0  0  0
  6 11  1  0  0  0  0
  9  4  1  0  0  0  0
 10  5  1  0  0  0  0
 11 12  2  0  0  0  0
 13 11  2  0  0  0  0
 14 15  3  0  0  0  0
M  RAD  1   3   2
M  END
