Coordinates from ORCA-job 4-NO2-Ph-N2+-B3LYPG-6-31G_dp-MTMO-d009-169-n800
 OpenBabel09051908243D

 15 14  0  0  0  0  0  0  0  0999 V2000
   -4.2181   -0.4320   -0.0301 C   0  0  0  0  0  0  0  0  0  0  0  0
   -4.2817   -1.7984   -0.4376 C   0  0  0  0  0  0  0  0  0  0  0  0
   -3.0265   -2.0835   -0.7722 C   0  0  0  0  0  0  0  0  0  0  0  0
   -1.7648   -1.6811   -0.8965 C   0  0  0  0  0  0  0  0  0  0  0  0
   -1.8031   -0.3196   -0.4712 C   0  0  0  0  0  0  0  0  0  0  0  0
   -3.0048    0.2565   -0.0578 C   0  0  0  0  0  0  0  0  0  0  0  0
   -5.1335    0.0546    0.2998 H   0  0  0  0  0  0  0  0  0  0  0  0
   -5.1801   -2.4058   -0.4487 H   0  0  0  0  0  0  0  0  0  0  0  0
   -0.8775   -2.2072   -1.2310 H   0  0  0  0  0  0  0  0  0  0  0  0
   -0.8776    0.2528   -0.4762 H   0  0  0  0  0  0  0  0  0  0  0  0
   -2.9916    1.6777    0.3754 N   0  0  0  0  0  0  0  0  0  0  0  0
   -4.0641    2.1406    0.7352 O   0  0  0  0  0  0  0  0  0  0  0  0
   -1.9093    2.2440    0.3292 O   0  0  0  0  0  0  0  0  0  0  0  0
    8.0671    8.2017    0.8809 N   0  0  0  0  0  0  0  0  0  0  0  0
    8.6772    9.1011    1.0821 N   0  0  0  0  0  0  0  0  0  0  0  0
  1  7  1  0  0  0  0
  2  1  2  0  0  0  0
  3  2  1  0  0  0  0
  4  3  2  0  0  0  0
  4  5  1  0  0  0  0
  5  6  2  0  0  0  0
  6  1  1  0  0  0  0
  6 11  1  0  0  0  0
  8  2  1  0  0  0  0
  9  4  1  0  0  0  0
 10  5  1  0  0  0  0
 11 12  2  0  0  0  0
 13 11  2  0  0  0  0
 14 15  3  0  0  0  0
M  RAD  1   3   2
M  END
