Coordinates from ORCA-job 4-NO2-Ph-N2+-B3LYPG-6-31G_dp-MTMO-d009-169-n800
 OpenBabel09051908243D

 15 14  0  0  0  0  0  0  0  0999 V2000
   -3.5388    0.0229   -0.0268 C   0  0  0  0  0  0  0  0  0  0  0  0
   -3.4223   -1.3224   -0.4885 C   0  0  0  0  0  0  0  0  0  0  0  0
   -2.1227   -1.4565   -0.7372 C   0  0  0  0  0  0  0  0  0  0  0  0
   -0.9073   -0.9163   -0.7506 C   0  0  0  0  0  0  0  0  0  0  0  0
   -1.1255    0.4131   -0.2793 C   0  0  0  0  0  0  0  0  0  0  0  0
   -2.4097    0.8378    0.0630 C   0  0  0  0  0  0  0  0  0  0  0  0
   -4.5231    0.3942    0.2503 H   0  0  0  0  0  0  0  0  0  0  0  0
   -4.2453   -2.0212   -0.5914 H   0  0  0  0  0  0  0  0  0  0  0  0
    0.0543   -1.3282   -1.0361 H   0  0  0  0  0  0  0  0  0  0  0  0
   -0.2704    1.0807   -0.1933 H   0  0  0  0  0  0  0  0  0  0  0  0
   -2.5845    2.2313    0.5484 N   0  0  0  0  0  0  0  0  0  0  0  0
   -3.7254    2.5602    0.8390 O   0  0  0  0  0  0  0  0  0  0  0  0
   -1.5707    2.9111    0.6089 O   0  0  0  0  0  0  0  0  0  0  0  0
    3.6595    4.3699    0.2626 N   0  0  0  0  0  0  0  0  0  0  0  0
    4.3434    5.2251    0.4119 N   0  0  0  0  0  0  0  0  0  0  0  0
  1  6  1  0  0  0  0
  1  7  1  0  0  0  0
  2  1  2  0  0  0  0
  3  2  1  0  0  0  0
  4  3  2  0  0  0  0
  4  5  1  0  0  0  0
  5 10  1  0  0  0  0
  5  6  2  0  0  0  0
  6 11  1  0  0  0  0
  8  2  1  0  0  0  0
  9  4  1  0  0  0  0
 11 13  2  0  0  0  0
 11 12  2  0  0  0  0
 14 15  3  0  0  0  0
M  RAD  1   3   2
M  END
