Coordinates from ORCA-job 4-NO2-Ph-N2+-B3LYPG-6-31G_dp-MTMO-d009-169-n800
 OpenBabel09051908243D

 15 14  0  0  0  0  0  0  0  0999 V2000
   -3.3773    0.2014    0.0052 C   0  0  0  0  0  0  0  0  0  0  0  0
   -3.4469   -1.1558   -0.4313 C   0  0  0  0  0  0  0  0  0  0  0  0
   -2.1850   -1.4536   -0.7271 C   0  0  0  0  0  0  0  0  0  0  0  0
   -0.9140   -1.0673   -0.7988 C   0  0  0  0  0  0  0  0  0  0  0  0
   -0.9465    0.2863   -0.3479 C   0  0  0  0  0  0  0  0  0  0  0  0
   -2.1540    0.8720    0.0343 C   0  0  0  0  0  0  0  0  0  0  0  0
   -4.2966    0.6954    0.3125 H   0  0  0  0  0  0  0  0  0  0  0  0
   -4.3533   -1.7488   -0.4854 H   0  0  0  0  0  0  0  0  0  0  0  0
   -0.0233   -1.5999   -1.1134 H   0  0  0  0  0  0  0  0  0  0  0  0
   -0.0133    0.8453   -0.3097 H   0  0  0  0  0  0  0  0  0  0  0  0
   -2.1364    2.2842    0.4963 N   0  0  0  0  0  0  0  0  0  0  0  0
   -3.2154    2.7564    0.8238 O   0  0  0  0  0  0  0  0  0  0  0  0
   -1.0450    2.8344    0.5037 O   0  0  0  0  0  0  0  0  0  0  0  0
    2.6019    4.1534    0.3329 N   0  0  0  0  0  0  0  0  0  0  0  0
    3.1165    5.0981    0.5859 N   0  0  0  0  0  0  0  0  0  0  0  0
  1  6  1  0  0  0  0
  1  7  1  0  0  0  0
  2  1  2  0  0  0  0
  3  2  1  0  0  0  0
  4  3  2  0  0  0  0
  4  5  1  0  0  0  0
  5 10  1  0  0  0  0
  5  6  2  0  0  0  0
  6 11  1  0  0  0  0
  8  2  1  0  0  0  0
  9  4  1  0  0  0  0
 11 13  2  0  0  0  0
 11 12  2  0  0  0  0
 14 15  3  0  0  0  0
M  RAD  1   3   2
M  END
