Coordinates from ORCA-job 4-NO2-Ph-N2+-B3LYPG-6-31G_dp-MTMO-d009-169-n800
 OpenBabel09051908243D

 15 14  0  0  0  0  0  0  0  0999 V2000
   -4.0658   -0.3137   -0.0246 C   0  0  0  0  0  0  0  0  0  0  0  0
   -4.1194   -1.6776   -0.4412 C   0  0  0  0  0  0  0  0  0  0  0  0
   -2.8595   -1.9558   -0.7641 C   0  0  0  0  0  0  0  0  0  0  0  0
   -1.5982   -1.5478   -0.8723 C   0  0  0  0  0  0  0  0  0  0  0  0
   -1.6466   -0.1890   -0.4390 C   0  0  0  0  0  0  0  0  0  0  0  0
   -2.8550    0.3797   -0.0349 C   0  0  0  0  0  0  0  0  0  0  0  0
   -4.9866    0.1673    0.2984 H   0  0  0  0  0  0  0  0  0  0  0  0
   -5.0151   -2.2886   -0.4658 H   0  0  0  0  0  0  0  0  0  0  0  0
   -0.7051   -2.0679   -1.2006 H   0  0  0  0  0  0  0  0  0  0  0  0
   -0.7234    0.3870   -0.4307 H   0  0  0  0  0  0  0  0  0  0  0  0
   -2.8521    1.7982    0.4074 N   0  0  0  0  0  0  0  0  0  0  0  0
   -3.9306    2.2549    0.7570 O   0  0  0  0  0  0  0  0  0  0  0  0
   -1.7714    2.3686    0.3782 O   0  0  0  0  0  0  0  0  0  0  0  0
    7.0524    7.4016    0.7594 N   0  0  0  0  0  0  0  0  0  0  0  0
    7.6880    8.2847    0.9540 N   0  0  0  0  0  0  0  0  0  0  0  0
  1  7  1  0  0  0  0
  2  1  2  0  0  0  0
  3  2  1  0  0  0  0
  4  3  2  0  0  0  0
  4  5  1  0  0  0  0
  5 10  1  0  0  0  0
  5  6  2  0  0  0  0
  6  1  1  0  0  0  0
  6 11  1  0  0  0  0
  8  2  1  0  0  0  0
  9  4  1  0  0  0  0
 11 12  2  0  0  0  0
 13 11  2  0  0  0  0
 14 15  3  0  0  0  0
M  RAD  1   3   2
M  END
