Coordinates from ORCA-job 4-NO2-Ph-N2+-B3LYPG-6-31G_dp-MTMO-d009-169-n800
 OpenBabel09051908243D

 15 14  0  0  0  0  0  0  0  0999 V2000
   -3.6364   -0.0290   -0.0230 C   0  0  0  0  0  0  0  0  0  0  0  0
   -3.5712   -1.3812   -0.4745 C   0  0  0  0  0  0  0  0  0  0  0  0
   -2.2808   -1.5593   -0.7427 C   0  0  0  0  0  0  0  0  0  0  0  0
   -1.0491   -1.0590   -0.7803 C   0  0  0  0  0  0  0  0  0  0  0  0
   -1.2163    0.2804   -0.3171 C   0  0  0  0  0  0  0  0  0  0  0  0
   -2.4804    0.7495    0.0420 C   0  0  0  0  0  0  0  0  0  0  0  0
   -4.6038    0.3761    0.2663 H   0  0  0  0  0  0  0  0  0  0  0  0
   -4.4181   -2.0536   -0.5578 H   0  0  0  0  0  0  0  0  0  0  0  0
   -0.1063   -1.5046   -1.0778 H   0  0  0  0  0  0  0  0  0  0  0  0
   -0.3388    0.9207   -0.2507 H   0  0  0  0  0  0  0  0  0  0  0  0
   -2.6019    2.1517    0.5184 N   0  0  0  0  0  0  0  0  0  0  0  0
   -3.7272    2.5213    0.8206 O   0  0  0  0  0  0  0  0  0  0  0  0
   -1.5648    2.7971    0.5615 O   0  0  0  0  0  0  0  0  0  0  0  0
    4.2719    4.9617    0.3637 N   0  0  0  0  0  0  0  0  0  0  0  0
    4.9347    5.8298    0.5325 N   0  0  0  0  0  0  0  0  0  0  0  0
  1  6  1  0  0  0  0
  1  7  1  0  0  0  0
  2  1  2  0  0  0  0
  3  2  1  0  0  0  0
  4  3  2  0  0  0  0
  4  5  1  0  0  0  0
  5 10  1  0  0  0  0
  5  6  2  0  0  0  0
  6 11  1  0  0  0  0
  8  2  1  0  0  0  0
  9  4  1  0  0  0  0
 11 13  2  0  0  0  0
 11 12  2  0  0  0  0
 14 15  3  0  0  0  0
M  RAD  1   3   2
M  END
