Coordinates from ORCA-job 4-NO2-Ph-N2+-B3LYPG-6-31G_dp-MTMO-d009-169-n800
 OpenBabel09051908243D

 15 14  0  0  0  0  0  0  0  0999 V2000
   -3.7674   -0.1054   -0.0254 C   0  0  0  0  0  0  0  0  0  0  0  0
   -3.7541   -1.4620   -0.4682 C   0  0  0  0  0  0  0  0  0  0  0  0
   -2.4743   -1.6861   -0.7525 C   0  0  0  0  0  0  0  0  0  0  0  0
   -1.2269   -1.2284   -0.8101 C   0  0  0  0  0  0  0  0  0  0  0  0
   -1.3422    0.1189   -0.3538 C   0  0  0  0  0  0  0  0  0  0  0  0
   -2.5845    0.6333    0.0189 C   0  0  0  0  0  0  0  0  0  0  0  0
   -4.7164    0.3342    0.2741 H   0  0  0  0  0  0  0  0  0  0  0  0
   -4.6241   -2.1061   -0.5350 H   0  0  0  0  0  0  0  0  0  0  0  0
   -0.3036   -1.7070   -1.1174 H   0  0  0  0  0  0  0  0  0  0  0  0
   -0.4428    0.7294   -0.3039 H   0  0  0  0  0  0  0  0  0  0  0  0
   -2.6514    2.0417    0.4876 N   0  0  0  0  0  0  0  0  0  0  0  0
   -3.7595    2.4525    0.8000 O   0  0  0  0  0  0  0  0  0  0  0  0
   -1.5920    2.6507    0.5152 O   0  0  0  0  0  0  0  0  0  0  0  0
    5.0976    5.7314    0.4896 N   0  0  0  0  0  0  0  0  0  0  0  0
    5.7529    6.6046    0.6620 N   0  0  0  0  0  0  0  0  0  0  0  0
  1  6  1  0  0  0  0
  1  7  1  0  0  0  0
  2  1  2  0  0  0  0
  3  2  1  0  0  0  0
  4  3  2  0  0  0  0
  4  5  1  0  0  0  0
  5 10  1  0  0  0  0
  5  6  2  0  0  0  0
  6 11  1  0  0  0  0
  8  2  1  0  0  0  0
  9  4  1  0  0  0  0
 11 13  2  0  0  0  0
 11 12  2  0  0  0  0
 14 15  3  0  0  0  0
M  RAD  1   3   2
M  END
