Coordinates from ORCA-job 4-NO2-Ph-N2+-B3LYPG-6-31G_dp-MTMO-d009-169-n800
 OpenBabel09051908243D

 15 14  0  0  0  0  0  0  0  0999 V2000
   -3.4869    0.0521   -0.0252 C   0  0  0  0  0  0  0  0  0  0  0  0
   -3.3515   -1.2907   -0.4891 C   0  0  0  0  0  0  0  0  0  0  0  0
   -2.0493   -1.4076   -0.7327 C   0  0  0  0  0  0  0  0  0  0  0  0
   -0.8410   -0.8516   -0.7400 C   0  0  0  0  0  0  0  0  0  0  0  0
   -1.0779    0.4740   -0.2670 C   0  0  0  0  0  0  0  0  0  0  0  0
   -2.3690    0.8813    0.0708 C   0  0  0  0  0  0  0  0  0  0  0  0
   -4.4771    0.4101    0.2486 H   0  0  0  0  0  0  0  0  0  0  0  0
   -4.1652   -1.9997   -0.5966 H   0  0  0  0  0  0  0  0  0  0  0  0
    0.1269   -1.2506   -1.0224 H   0  0  0  0  0  0  0  0  0  0  0  0
   -0.2316    1.1525   -0.1764 H   0  0  0  0  0  0  0  0  0  0  0  0
   -2.5640    2.2715    0.5581 N   0  0  0  0  0  0  0  0  0  0  0  0
   -3.7101    2.5846    0.8455 O   0  0  0  0  0  0  0  0  0  0  0  0
   -1.5595    2.9646    0.6230 O   0  0  0  0  0  0  0  0  0  0  0  0
    3.3311    4.0874    0.2143 N   0  0  0  0  0  0  0  0  0  0  0  0
    4.0367    4.9236    0.3704 N   0  0  0  0  0  0  0  0  0  0  0  0
  1  6  1  0  0  0  0
  1  7  1  0  0  0  0
  2  1  2  0  0  0  0
  3  2  1  0  0  0  0
  4  3  2  0  0  0  0
  4  5  1  0  0  0  0
  5 10  1  0  0  0  0
  5  6  2  0  0  0  0
  6 11  1  0  0  0  0
  8  2  1  0  0  0  0
  9  4  1  0  0  0  0
 11 13  2  0  0  0  0
 11 12  2  0  0  0  0
 14 15  3  0  0  0  0
M  RAD  1   3   2
M  END
