Coordinates from ORCA-job 4-NO2-Ph-N2+-B3LYPG-6-31G_dp-MTMO-d009-169-n800
 OpenBabel09051908243D

 15 14  0  0  0  0  0  0  0  0999 V2000
   -3.7736   -0.1100   -0.0259 C   0  0  0  0  0  0  0  0  0  0  0  0
   -3.7609   -1.4665   -0.4686 C   0  0  0  0  0  0  0  0  0  0  0  0
   -2.4812   -1.6912   -0.7531 C   0  0  0  0  0  0  0  0  0  0  0  0
   -1.2336   -1.2339   -0.8109 C   0  0  0  0  0  0  0  0  0  0  0  0
   -1.3484    0.1135   -0.3546 C   0  0  0  0  0  0  0  0  0  0  0  0
   -2.5904    0.6283    0.0181 C   0  0  0  0  0  0  0  0  0  0  0  0
   -4.7224    0.3300    0.2738 H   0  0  0  0  0  0  0  0  0  0  0  0
   -4.6311   -2.1104   -0.5352 H   0  0  0  0  0  0  0  0  0  0  0  0
   -0.3106   -1.7129   -1.1182 H   0  0  0  0  0  0  0  0  0  0  0  0
   -0.4488    0.7236   -0.3049 H   0  0  0  0  0  0  0  0  0  0  0  0
   -2.6568    2.0368    0.4868 N   0  0  0  0  0  0  0  0  0  0  0  0
   -3.7647    2.4480    0.7994 O   0  0  0  0  0  0  0  0  0  0  0  0
   -1.5971    2.6454    0.5142 O   0  0  0  0  0  0  0  0  0  0  0  0
    5.1375    5.7641    0.4941 N   0  0  0  0  0  0  0  0  0  0  0  0
    5.7936    6.6368    0.6662 N   0  0  0  0  0  0  0  0  0  0  0  0
  1  6  1  0  0  0  0
  1  7  1  0  0  0  0
  2  1  2  0  0  0  0
  3  2  1  0  0  0  0
  4  3  2  0  0  0  0
  4  5  1  0  0  0  0
  5 10  1  0  0  0  0
  5  6  2  0  0  0  0
  6 11  1  0  0  0  0
  8  2  1  0  0  0  0
  9  4  1  0  0  0  0
 11 13  2  0  0  0  0
 11 12  2  0  0  0  0
 14 15  3  0  0  0  0
M  RAD  1   3   2
M  END
