Coordinates from ORCA-job 4-NO2-Ph-N2+-B3LYPG-6-31G_dp-MTMO-d009-169-n800
 OpenBabel09051908243D

 15 14  0  0  0  0  0  0  0  0999 V2000
   -3.5063    0.0427   -0.0262 C   0  0  0  0  0  0  0  0  0  0  0  0
   -3.3808   -1.3012   -0.4895 C   0  0  0  0  0  0  0  0  0  0  0  0
   -2.0798   -1.4274   -0.7349 C   0  0  0  0  0  0  0  0  0  0  0  0
   -0.8676   -0.8800   -0.7443 C   0  0  0  0  0  0  0  0  0  0  0  0
   -1.0946    0.4475   -0.2717 C   0  0  0  0  0  0  0  0  0  0  0  0
   -2.3823    0.8641    0.0678 C   0  0  0  0  0  0  0  0  0  0  0  0
   -4.4935    0.4079    0.2488 H   0  0  0  0  0  0  0  0  0  0  0  0
   -4.1995   -2.0046   -0.5956 H   0  0  0  0  0  0  0  0  0  0  0  0
    0.0972   -1.2858   -1.0277 H   0  0  0  0  0  0  0  0  0  0  0  0
   -0.2436    1.1200   -0.1825 H   0  0  0  0  0  0  0  0  0  0  0  0
   -2.5667    2.2559    0.5546 N   0  0  0  0  0  0  0  0  0  0  0  0
   -3.7102    2.5773    0.8432 O   0  0  0  0  0  0  0  0  0  0  0  0
   -1.5572    2.9419    0.6180 O   0  0  0  0  0  0  0  0  0  0  0  0
    3.4530    4.1964    0.2372 N   0  0  0  0  0  0  0  0  0  0  0  0
    4.1434    5.0469    0.3839 N   0  0  0  0  0  0  0  0  0  0  0  0
  1  6  1  0  0  0  0
  1  7  1  0  0  0  0
  2  1  2  0  0  0  0
  3  2  1  0  0  0  0
  4  3  2  0  0  0  0
  4  5  1  0  0  0  0
  5 10  1  0  0  0  0
  5  6  2  0  0  0  0
  6 11  1  0  0  0  0
  8  2  1  0  0  0  0
  9  4  1  0  0  0  0
 11 13  2  0  0  0  0
 11 12  2  0  0  0  0
 14 15  3  0  0  0  0
M  RAD  1   3   2
M  END
