Coordinates from ORCA-job 4-NO2-Ph-N2+-B3LYPG-6-31G_dp-MTMO-d009-169-n800
 OpenBabel09051908243D

 15 14  0  0  0  0  0  0  0  0999 V2000
   -3.9360   -0.2183   -0.0238 C   0  0  0  0  0  0  0  0  0  0  0  0
   -3.9705   -1.5796   -0.4509 C   0  0  0  0  0  0  0  0  0  0  0  0
   -2.7038   -1.8429   -0.7591 C   0  0  0  0  0  0  0  0  0  0  0  0
   -1.4453   -1.4213   -0.8477 C   0  0  0  0  0  0  0  0  0  0  0  0
   -1.5130   -0.0664   -0.4052 C   0  0  0  0  0  0  0  0  0  0  0  0
   -2.7322    0.4872   -0.0130 C   0  0  0  0  0  0  0  0  0  0  0  0
   -4.8658    0.2511    0.2904 H   0  0  0  0  0  0  0  0  0  0  0  0
   -4.8597   -2.1992   -0.4919 H   0  0  0  0  0  0  0  0  0  0  0  0
   -0.5429   -1.9301   -1.1680 H   0  0  0  0  0  0  0  0  0  0  0  0
   -0.5958    0.5187   -0.3804 H   0  0  0  0  0  0  0  0  0  0  0  0
   -2.7497    1.9023    0.4398 N   0  0  0  0  0  0  0  0  0  0  0  0
   -3.8376    2.3458    0.7772 O   0  0  0  0  0  0  0  0  0  0  0  0
   -1.6744    2.4834    0.4305 O   0  0  0  0  0  0  0  0  0  0  0  0
    6.1965    6.6969    0.6460 N   0  0  0  0  0  0  0  0  0  0  0  0
    6.8416    7.5738    0.8371 N   0  0  0  0  0  0  0  0  0  0  0  0
  1  6  1  0  0  0  0
  1  7  1  0  0  0  0
  2  1  2  0  0  0  0
  3  2  1  0  0  0  0
  4  3  2  0  0  0  0
  4  5  1  0  0  0  0
  5 10  1  0  0  0  0
  5  6  2  0  0  0  0
  6 11  1  0  0  0  0
  8  2  1  0  0  0  0
  9  4  1  0  0  0  0
 11 12  2  0  0  0  0
 13 11  2  0  0  0  0
 14 15  3  0  0  0  0
M  RAD  1   3   2
M  END
