Coordinates from ORCA-job 4-NO2-Ph-N2+-B3LYPG-6-31G_dp-MTMO-d009-169-n800
 OpenBabel09051908243D

 15 14  0  0  0  0  0  0  0  0999 V2000
   -3.5346    0.0255   -0.0267 C   0  0  0  0  0  0  0  0  0  0  0  0
   -3.4172   -1.3196   -0.4886 C   0  0  0  0  0  0  0  0  0  0  0  0
   -2.1175   -1.4529   -0.7369 C   0  0  0  0  0  0  0  0  0  0  0  0
   -0.9024   -0.9121   -0.7499 C   0  0  0  0  0  0  0  0  0  0  0  0
   -1.1215    0.4171   -0.2784 C   0  0  0  0  0  0  0  0  0  0  0  0
   -2.4061    0.8410    0.0636 C   0  0  0  0  0  0  0  0  0  0  0  0
   -4.5193    0.3962    0.2501 H   0  0  0  0  0  0  0  0  0  0  0  0
   -4.2399   -2.0189   -0.5919 H   0  0  0  0  0  0  0  0  0  0  0  0
    0.0595   -1.3233   -1.0351 H   0  0  0  0  0  0  0  0  0  0  0  0
   -0.2668    1.0853   -0.1920 H   0  0  0  0  0  0  0  0  0  0  0  0
   -2.5819    2.2344    0.5492 N   0  0  0  0  0  0  0  0  0  0  0  0
   -3.7231    2.5625    0.8396 O   0  0  0  0  0  0  0  0  0  0  0  0
   -1.5685    2.9148    0.6100 O   0  0  0  0  0  0  0  0  0  0  0  0
    3.6333    4.3483    0.2595 N   0  0  0  0  0  0  0  0  0  0  0  0
    4.3176    5.2033    0.4086 N   0  0  0  0  0  0  0  0  0  0  0  0
  1  6  1  0  0  0  0
  1  7  1  0  0  0  0
  2  1  2  0  0  0  0
  3  2  1  0  0  0  0
  4  3  2  0  0  0  0
  4  5  1  0  0  0  0
  5 10  1  0  0  0  0
  5  6  2  0  0  0  0
  6 11  1  0  0  0  0
  8  2  1  0  0  0  0
  9  4  1  0  0  0  0
 11 13  2  0  0  0  0
 11 12  2  0  0  0  0
 14 15  3  0  0  0  0
M  RAD  1   3   2
M  END
