Coordinates from ORCA-job 4-NO2-Ph-N2+-B3LYPG-6-31G_dp-MTMO-d009-169-n800
 OpenBabel09051908243D

 15 15  0  0  0  0  0  0  0  0999 V2000
   -2.0702   -0.2108   -0.6272 C   0  0  0  0  0  0  0  0  0  0  0  0
   -0.6696   -0.2403   -0.7414 C   0  0  0  0  0  0  0  0  0  0  0  0
   -0.1134    0.8669   -0.1716 C   0  0  0  0  0  0  0  0  0  0  0  0
   -0.5844    1.9741    0.4703 C   0  0  0  0  0  0  0  0  0  0  0  0
   -1.9872    1.9447    0.5525 C   0  0  0  0  0  0  0  0  0  0  0  0
   -2.6851    0.8670    0.0086 C   0  0  0  0  0  0  0  0  0  0  0  0
   -2.6709   -1.0195   -1.0297 H   0  0  0  0  0  0  0  0  0  0  0  0
   -0.1298   -1.0466   -1.2216 H   0  0  0  0  0  0  0  0  0  0  0  0
    0.0171    2.7799    0.8712 H   0  0  0  0  0  0  0  0  0  0  0  0
   -2.5262    2.7536    1.0345 H   0  0  0  0  0  0  0  0  0  0  0  0
   -4.1708    0.8669    0.1133 N   0  0  0  0  0  0  0  0  0  0  0  0
   -4.7496   -0.0941   -0.3736 O   0  0  0  0  0  0  0  0  0  0  0  0
   -4.6759    1.8275    0.6770 O   0  0  0  0  0  0  0  0  0  0  0  0
    1.7632    0.8662   -0.3024 N   0  0  0  0  0  0  0  0  0  0  0  0
    2.8644    0.8659   -0.3789 N   0  0  0  0  0  0  0  0  0  0  0  0
  1  6  1  0  0  0  0
  2  1  2  0  0  0  0
  2  3  1  0  0  0  0
  3  4  2  0  0  0  0
  4  5  1  0  0  0  0
  4  9  1  0  0  0  0
  5 10  1  0  0  0  0
  6 11  1  0  0  0  0
  6  5  2  0  0  0  0
  7  1  1  0  0  0  0
  8  2  1  0  0  0  0
 11 13  2  0  0  0  0
 12 11  2  0  0  0  0
 14  3  1  0  0  0  0
 15 14  1  0  0  0  0
M  RAD  2  14   2  15   3
M  END
