Coordinates from ORCA-job 4-NO2-Ph-N2+-B3LYPG-6-31G_dp-MTMO-d009-169-n800
 OpenBabel09051908243D

 15 14  0  0  0  0  0  0  0  0999 V2000
   -4.1298   -0.3617   -0.0255 C   0  0  0  0  0  0  0  0  0  0  0  0
   -4.1913   -1.7268   -0.4371 C   0  0  0  0  0  0  0  0  0  0  0  0
   -2.9345   -2.0111   -0.7667 C   0  0  0  0  0  0  0  0  0  0  0  0
   -1.6723   -1.6084   -0.8839 C   0  0  0  0  0  0  0  0  0  0  0  0
   -1.7128   -0.2480   -0.4550 C   0  0  0  0  0  0  0  0  0  0  0  0
   -2.9164    0.3269   -0.0456 C   0  0  0  0  0  0  0  0  0  0  0  0
   -5.0468    0.1240    0.3015 H   0  0  0  0  0  0  0  0  0  0  0  0
   -5.0895   -2.3344   -0.4540 H   0  0  0  0  0  0  0  0  0  0  0  0
   -0.7833   -2.1331   -1.2160 H   0  0  0  0  0  0  0  0  0  0  0  0
   -0.7874    0.3245   -0.4544 H   0  0  0  0  0  0  0  0  0  0  0  0
   -2.9053    1.7469    0.3918 N   0  0  0  0  0  0  0  0  0  0  0  0
   -3.9798    2.2090    0.7466 O   0  0  0  0  0  0  0  0  0  0  0  0
   -1.8225    2.3129    0.3539 O   0  0  0  0  0  0  0  0  0  0  0  0
    7.4773    7.7467    0.8138 N   0  0  0  0  0  0  0  0  0  0  0  0
    8.1059    8.6340    1.0114 N   0  0  0  0  0  0  0  0  0  0  0  0
  1  7  1  0  0  0  0
  2  1  2  0  0  0  0
  3  2  1  0  0  0  0
  4  3  2  0  0  0  0
  4  5  1  0  0  0  0
  5 10  1  0  0  0  0
  5  6  2  0  0  0  0
  6  1  1  0  0  0  0
  6 11  1  0  0  0  0
  8  2  1  0  0  0  0
  9  4  1  0  0  0  0
 11 12  2  0  0  0  0
 13 11  2  0  0  0  0
 14 15  3  0  0  0  0
M  RAD  1   3   2
M  END
