Coordinates from ORCA-job 4-NO2-Ph-N2+-B3LYPG-6-31G_dp-MTMO-d009-169-n800
 OpenBabel09051908243D

 15 14  0  0  0  0  0  0  0  0999 V2000
   -3.9426   -0.2235   -0.0240 C   0  0  0  0  0  0  0  0  0  0  0  0
   -3.9764   -1.5848   -0.4510 C   0  0  0  0  0  0  0  0  0  0  0  0
   -2.7097   -1.8479   -0.7595 C   0  0  0  0  0  0  0  0  0  0  0  0
   -1.4515   -1.4260   -0.8485 C   0  0  0  0  0  0  0  0  0  0  0  0
   -1.5197   -0.0710   -0.4062 C   0  0  0  0  0  0  0  0  0  0  0  0
   -2.7390    0.4823   -0.0138 C   0  0  0  0  0  0  0  0  0  0  0  0
   -4.8724    0.2457    0.2904 H   0  0  0  0  0  0  0  0  0  0  0  0
   -4.8652   -2.2050   -0.4917 H   0  0  0  0  0  0  0  0  0  0  0  0
   -0.5486   -1.9340   -1.1689 H   0  0  0  0  0  0  0  0  0  0  0  0
   -0.6027    0.5144   -0.3818 H   0  0  0  0  0  0  0  0  0  0  0  0
   -2.7566    1.8975    0.4387 N   0  0  0  0  0  0  0  0  0  0  0  0
   -3.8445    2.3408    0.7763 O   0  0  0  0  0  0  0  0  0  0  0  0
   -1.6815    2.4790    0.4288 O   0  0  0  0  0  0  0  0  0  0  0  0
    6.2382    6.7288    0.6507 N   0  0  0  0  0  0  0  0  0  0  0  0
    6.8835    7.6056    0.8416 N   0  0  0  0  0  0  0  0  0  0  0  0
  1  6  1  0  0  0  0
  1  7  1  0  0  0  0
  2  1  2  0  0  0  0
  3  2  1  0  0  0  0
  4  3  2  0  0  0  0
  4  5  1  0  0  0  0
  5 10  1  0  0  0  0
  5  6  2  0  0  0  0
  6 11  1  0  0  0  0
  8  2  1  0  0  0  0
  9  4  1  0  0  0  0
 11 12  2  0  0  0  0
 13 11  2  0  0  0  0
 14 15  3  0  0  0  0
M  RAD  1   3   2
M  END
