Coordinates from ORCA-job 4-NO2-Ph-N2+-B3LYPG-6-31G_dp-MTMO-d009-169-n800
 OpenBabel09051908243D

 15 14  0  0  0  0  0  0  0  0999 V2000
   -3.9665   -0.2418   -0.0245 C   0  0  0  0  0  0  0  0  0  0  0  0
   -4.0034   -1.6037   -0.4496 C   0  0  0  0  0  0  0  0  0  0  0  0
   -2.7377   -1.8686   -0.7605 C   0  0  0  0  0  0  0  0  0  0  0  0
   -1.4791   -1.4485   -0.8528 C   0  0  0  0  0  0  0  0  0  0  0  0
   -1.5443   -0.0928   -0.4121 C   0  0  0  0  0  0  0  0  0  0  0  0
   -2.7620    0.4625   -0.0177 C   0  0  0  0  0  0  0  0  0  0  0  0
   -4.8951    0.2290    0.2913 H   0  0  0  0  0  0  0  0  0  0  0  0
   -4.8933   -2.2225   -0.4874 H   0  0  0  0  0  0  0  0  0  0  0  0
   -0.5779   -1.9586   -1.1746 H   0  0  0  0  0  0  0  0  0  0  0  0
   -0.6265    0.4914   -0.3904 H   0  0  0  0  0  0  0  0  0  0  0  0
   -2.7769    1.8783    0.4330 N   0  0  0  0  0  0  0  0  0  0  0  0
   -3.8635    2.3234    0.7725 O   0  0  0  0  0  0  0  0  0  0  0  0
   -1.7010    2.4584    0.4201 O   0  0  0  0  0  0  0  0  0  0  0  0
    6.3974    6.8586    0.6713 N   0  0  0  0  0  0  0  0  0  0  0  0
    7.0415    7.7362    0.8626 N   0  0  0  0  0  0  0  0  0  0  0  0
  1  6  1  0  0  0  0
  1  7  1  0  0  0  0
  2  1  2  0  0  0  0
  3  2  1  0  0  0  0
  4  3  2  0  0  0  0
  4  5  1  0  0  0  0
  5 10  1  0  0  0  0
  5  6  2  0  0  0  0
  6 11  1  0  0  0  0
  8  2  1  0  0  0  0
  9  4  1  0  0  0  0
 11 12  2  0  0  0  0
 13 11  2  0  0  0  0
 14 15  3  0  0  0  0
M  RAD  1   3   2
M  END
