Coordinates from ORCA-job 4-NO2-Ph-N2+-B3LYPG-6-31G_dp-MTMO-d009-169-n800
 OpenBabel09051908243D

 15 14  0  0  0  0  0  0  0  0999 V2000
   -4.3395   -0.5264   -0.0335 C   0  0  0  0  0  0  0  0  0  0  0  0
   -4.4111   -1.8947   -0.4329 C   0  0  0  0  0  0  0  0  0  0  0  0
   -3.1600   -2.1854   -0.7780 C   0  0  0  0  0  0  0  0  0  0  0  0
   -1.8983   -1.7877   -0.9163 C   0  0  0  0  0  0  0  0  0  0  0  0
   -1.9285   -0.4237   -0.4981 C   0  0  0  0  0  0  0  0  0  0  0  0
   -3.1245    0.1582   -0.0765 C   0  0  0  0  0  0  0  0  0  0  0  0
   -5.2502   -0.0351    0.3024 H   0  0  0  0  0  0  0  0  0  0  0  0
   -5.3114   -2.4994   -0.4322 H   0  0  0  0  0  0  0  0  0  0  0  0
   -1.0158   -2.3183   -1.2564 H   0  0  0  0  0  0  0  0  0  0  0  0
   -1.0013    0.1458   -0.5151 H   0  0  0  0  0  0  0  0  0  0  0  0
   -3.1028    1.5818    0.3488 N   0  0  0  0  0  0  0  0  0  0  0  0
   -4.1703    2.0498    0.7167 O   0  0  0  0  0  0  0  0  0  0  0  0
   -2.0193    2.1445    0.2888 O   0  0  0  0  0  0  0  0  0  0  0  0
    8.8823    8.8373    0.9775 N   0  0  0  0  0  0  0  0  0  0  0  0
    9.4622    9.7548    1.1859 N   0  0  0  0  0  0  0  0  0  0  0  0
  1  7  1  0  0  0  0
  2  8  1  0  0  0  0
  2  1  2  0  0  0  0
  3  2  1  0  0  0  0
  4  3  2  0  0  0  0
  4  5  1  0  0  0  0
  5  6  2  0  0  0  0
  6  1  1  0  0  0  0
  6 11  1  0  0  0  0
  9  4  1  0  0  0  0
 10  5  1  0  0  0  0
 11 12  2  0  0  0  0
 13 11  2  0  0  0  0
 14 15  3  0  0  0  0
M  RAD  1   3   2
M  END
