Coordinates from ORCA-job 4-NO2-Ph-N2+-B3LYPG-6-31G_dp-MTMO-d009-169-n800
 OpenBabel09051908243D

 15 14  0  0  0  0  0  0  0  0999 V2000
   -4.0958   -0.3363   -0.0251 C   0  0  0  0  0  0  0  0  0  0  0  0
   -4.1530   -1.7008   -0.4393 C   0  0  0  0  0  0  0  0  0  0  0  0
   -2.8946   -1.9817   -0.7653 C   0  0  0  0  0  0  0  0  0  0  0  0
   -1.6329   -1.5761   -0.8777 C   0  0  0  0  0  0  0  0  0  0  0  0
   -1.6777   -0.2165   -0.4464 C   0  0  0  0  0  0  0  0  0  0  0  0
   -2.8839    0.3549   -0.0399 C   0  0  0  0  0  0  0  0  0  0  0  0
   -5.0149    0.1469    0.2998 H   0  0  0  0  0  0  0  0  0  0  0  0
   -5.0499   -2.3103   -0.4604 H   0  0  0  0  0  0  0  0  0  0  0  0
   -0.7416   -2.0983   -1.2078 H   0  0  0  0  0  0  0  0  0  0  0  0
   -0.7534    0.3578   -0.4417 H   0  0  0  0  0  0  0  0  0  0  0  0
   -2.8772    1.7741    0.4001 N   0  0  0  0  0  0  0  0  0  0  0  0
   -3.9539    2.2333    0.7521 O   0  0  0  0  0  0  0  0  0  0  0  0
   -1.7956    2.3426    0.3669 O   0  0  0  0  0  0  0  0  0  0  0  0
    7.2516    7.5635    0.7849 N   0  0  0  0  0  0  0  0  0  0  0  0
    7.8843    8.4483    0.9809 N   0  0  0  0  0  0  0  0  0  0  0  0
  1  7  1  0  0  0  0
  2  1  2  0  0  0  0
  3  2  1  0  0  0  0
  4  3  2  0  0  0  0
  4  5  1  0  0  0  0
  5 10  1  0  0  0  0
  5  6  2  0  0  0  0
  6  1  1  0  0  0  0
  6 11  1  0  0  0  0
  8  2  1  0  0  0  0
  9  4  1  0  0  0  0
 11 12  2  0  0  0  0
 13 11  2  0  0  0  0
 14 15  3  0  0  0  0
M  RAD  1   3   2
M  END
