Coordinates from ORCA-job 4-NO2-Ph-N2+-B3LYPG-6-31G_dp-MTMO-d009-169-n800
 OpenBabel09051908243D

 15 14  0  0  0  0  0  0  0  0999 V2000
   -2.1718   -0.2102   -0.6208 C   0  0  0  0  0  0  0  0  0  0  0  0
   -0.7545   -0.2526   -0.7448 C   0  0  0  0  0  0  0  0  0  0  0  0
   -0.3285    0.8676   -0.1591 C   0  0  0  0  0  0  0  0  0  0  0  0
   -0.6678    1.9875    0.4814 C   0  0  0  0  0  0  0  0  0  0  0  0
   -2.0884    1.9445    0.5588 C   0  0  0  0  0  0  0  0  0  0  0  0
   -2.7889    0.8670    0.0159 C   0  0  0  0  0  0  0  0  0  0  0  0
   -2.7595   -1.0289   -1.0289 H   0  0  0  0  0  0  0  0  0  0  0  0
   -0.1955   -1.0491   -1.2214 H   0  0  0  0  0  0  0  0  0  0  0  0
   -0.0474    2.7840    0.8744 H   0  0  0  0  0  0  0  0  0  0  0  0
   -2.6130    2.7632    1.0455 H   0  0  0  0  0  0  0  0  0  0  0  0
   -4.2712    0.8663    0.1220 N   0  0  0  0  0  0  0  0  0  0  0  0
   -4.8467   -0.0960   -0.3653 O   0  0  0  0  0  0  0  0  0  0  0  0
   -4.7725    1.8278    0.6867 O   0  0  0  0  0  0  0  0  0  0  0  0
    2.4075    0.8659   -0.3456 N   0  0  0  0  0  0  0  0  0  0  0  0
    3.5096    0.8647   -0.4178 N   0  0  0  0  0  0  0  0  0  0  0  0
  1  6  1  0  0  0  0
  2  1  2  0  0  0  0
  2  3  1  0  0  0  0
  3  4  2  0  0  0  0
  4  5  1  0  0  0  0
  4  9  1  0  0  0  0
  5 10  1  0  0  0  0
  6 11  1  0  0  0  0
  6  5  2  0  0  0  0
  7  1  1  0  0  0  0
  8  2  1  0  0  0  0
 11 13  2  0  0  0  0
 12 11  2  0  0  0  0
 15 14  3  0  0  0  0
M  RAD  1   3   2
M  END
