Coordinates from ORCA-job 4-NO2-Ph-N2+-B3LYPG-6-31G_dp-MTMO-d009-169-n800
 OpenBabel09051908243D

 15 14  0  0  0  0  0  0  0  0999 V2000
   -3.5023    0.0449   -0.0261 C   0  0  0  0  0  0  0  0  0  0  0  0
   -3.3752   -1.2988   -0.4897 C   0  0  0  0  0  0  0  0  0  0  0  0
   -2.0740   -1.4235   -0.7346 C   0  0  0  0  0  0  0  0  0  0  0  0
   -0.8624   -0.8748   -0.7434 C   0  0  0  0  0  0  0  0  0  0  0  0
   -1.0911    0.4523   -0.2706 C   0  0  0  0  0  0  0  0  0  0  0  0
   -2.3793    0.8675    0.0684 C   0  0  0  0  0  0  0  0  0  0  0  0
   -4.4901    0.4089    0.2485 H   0  0  0  0  0  0  0  0  0  0  0  0
   -4.1931   -2.0031   -0.5962 H   0  0  0  0  0  0  0  0  0  0  0  0
    0.1030   -1.2795   -1.0265 H   0  0  0  0  0  0  0  0  0  0  0  0
   -0.2408    1.1257   -0.1809 H   0  0  0  0  0  0  0  0  0  0  0  0
   -2.5655    2.2590    0.5554 N   0  0  0  0  0  0  0  0  0  0  0  0
   -3.7095    2.5790    0.8438 O   0  0  0  0  0  0  0  0  0  0  0  0
   -1.5568    2.9461    0.6192 O   0  0  0  0  0  0  0  0  0  0  0  0
    3.4282    4.1744    0.2335 N   0  0  0  0  0  0  0  0  0  0  0  0
    4.1204    5.0234    0.3802 N   0  0  0  0  0  0  0  0  0  0  0  0
  1  6  1  0  0  0  0
  1  7  1  0  0  0  0
  2  1  2  0  0  0  0
  3  2  1  0  0  0  0
  4  3  2  0  0  0  0
  4  5  1  0  0  0  0
  5 10  1  0  0  0  0
  5  6  2  0  0  0  0
  6 11  1  0  0  0  0
  8  2  1  0  0  0  0
  9  4  1  0  0  0  0
 11 13  2  0  0  0  0
 11 12  2  0  0  0  0
 14 15  3  0  0  0  0
M  RAD  1   3   2
M  END
