Coordinates from ORCA-job 4-NO2-Ph-N2+-B3LYPG-6-31G_dp-MTMO-d009-169-n800
 OpenBabel09051908243D

 15 14  0  0  0  0  0  0  0  0999 V2000
   -3.9908   -0.2603   -0.0250 C   0  0  0  0  0  0  0  0  0  0  0  0
   -4.0300   -1.6227   -0.4483 C   0  0  0  0  0  0  0  0  0  0  0  0
   -2.7652   -1.8893   -0.7616 C   0  0  0  0  0  0  0  0  0  0  0  0
   -1.5064   -1.4705   -0.8570 C   0  0  0  0  0  0  0  0  0  0  0  0
   -1.5693   -0.1143   -0.4178 C   0  0  0  0  0  0  0  0  0  0  0  0
   -2.7856    0.4428   -0.0216 C   0  0  0  0  0  0  0  0  0  0  0  0
   -4.9183    0.2118    0.2923 H   0  0  0  0  0  0  0  0  0  0  0  0
   -4.9205   -2.2406   -0.4835 H   0  0  0  0  0  0  0  0  0  0  0  0
   -0.6064   -1.9819   -1.1801 H   0  0  0  0  0  0  0  0  0  0  0  0
   -0.6509    0.4691   -0.3988 H   0  0  0  0  0  0  0  0  0  0  0  0
   -2.7981    1.8591    0.4274 N   0  0  0  0  0  0  0  0  0  0  0  0
   -3.8835    2.3058    0.7688 O   0  0  0  0  0  0  0  0  0  0  0  0
   -1.7217    2.4381    0.4115 O   0  0  0  0  0  0  0  0  0  0  0  0
    6.5577    6.9880    0.6916 N   0  0  0  0  0  0  0  0  0  0  0  0
    7.2005    7.8664    0.8833 N   0  0  0  0  0  0  0  0  0  0  0  0
  1  6  1  0  0  0  0
  1  7  1  0  0  0  0
  2  1  2  0  0  0  0
  3  2  1  0  0  0  0
  4  3  2  0  0  0  0
  4  5  1  0  0  0  0
  5 10  1  0  0  0  0
  5  6  2  0  0  0  0
  6 11  1  0  0  0  0
  8  2  1  0  0  0  0
  9  4  1  0  0  0  0
 11 12  2  0  0  0  0
 13 11  2  0  0  0  0
 14 15  3  0  0  0  0
M  RAD  1   3   2
M  END
