Coordinates from ORCA-job 4-NO2-Ph-N2+-B3LYPG-6-31G_dp-MTMO-d009-169-n800
 OpenBabel09051908243D

 15 14  0  0  0  0  0  0  0  0999 V2000
   -2.5494   -0.2306   -0.6090 C   0  0  0  0  0  0  0  0  0  0  0  0
   -1.1327   -0.3123   -0.7609 C   0  0  0  0  0  0  0  0  0  0  0  0
   -0.6911    0.8004   -0.1814 C   0  0  0  0  0  0  0  0  0  0  0  0
   -0.9654    1.9311    0.4627 C   0  0  0  0  0  0  0  0  0  0  0  0
   -2.3887    1.9224    0.5654 C   0  0  0  0  0  0  0  0  0  0  0  0
   -3.1271    0.8627    0.0373 C   0  0  0  0  0  0  0  0  0  0  0  0
   -3.1621   -1.0370   -1.0064 H   0  0  0  0  0  0  0  0  0  0  0  0
   -0.6013   -1.1236   -1.2462 H   0  0  0  0  0  0  0  0  0  0  0  0
   -0.3154    2.7118    0.8426 H   0  0  0  0  0  0  0  0  0  0  0  0
   -2.8796    2.7574    1.0612 H   0  0  0  0  0  0  0  0  0  0  0  0
   -4.6065    0.9002    0.1707 N   0  0  0  0  0  0  0  0  0  0  0  0
   -5.2139   -0.0481   -0.3046 O   0  0  0  0  0  0  0  0  0  0  0  0
   -5.0708    1.8754    0.7431 O   0  0  0  0  0  0  0  0  0  0  0  0
    4.6058    0.9863   -0.4201 N   0  0  0  0  0  0  0  0  0  0  0  0
    5.7095    1.0054   -0.4733 N   0  0  0  0  0  0  0  0  0  0  0  0
  1  6  1  0  0  0  0
  2  1  2  0  0  0  0
  2  3  1  0  0  0  0
  3  4  2  0  0  0  0
  4  5  1  0  0  0  0
  4  9  1  0  0  0  0
  5 10  1  0  0  0  0
  6 11  1  0  0  0  0
  6  5  2  0  0  0  0
  7  1  1  0  0  0  0
  8  2  1  0  0  0  0
 11 13  2  0  0  0  0
 12 11  2  0  0  0  0
 15 14  3  0  0  0  0
M  RAD  1   3   2
M  END
