Coordinates from ORCA-job 4-NO2-Ph-N2+-B3LYPG-6-31G_dp-MTMO-d009-169-n800
 OpenBabel09051908243D

 15 14  0  0  0  0  0  0  0  0999 V2000
   -4.1730   -0.3963   -0.0280 C   0  0  0  0  0  0  0  0  0  0  0  0
   -4.2352   -1.7621   -0.4378 C   0  0  0  0  0  0  0  0  0  0  0  0
   -2.9791   -2.0463   -0.7696 C   0  0  0  0  0  0  0  0  0  0  0  0
   -1.7172   -1.6435   -0.8898 C   0  0  0  0  0  0  0  0  0  0  0  0
   -1.7569   -0.2826   -0.4625 C   0  0  0  0  0  0  0  0  0  0  0  0
   -2.9599    0.2925   -0.0514 C   0  0  0  0  0  0  0  0  0  0  0  0
   -5.0894    0.0896    0.3002 H   0  0  0  0  0  0  0  0  0  0  0  0
   -5.1335   -2.3697   -0.4521 H   0  0  0  0  0  0  0  0  0  0  0  0
   -0.8289   -2.1688   -1.2230 H   0  0  0  0  0  0  0  0  0  0  0  0
   -0.8315    0.2900   -0.4643 H   0  0  0  0  0  0  0  0  0  0  0  0
   -2.9481    1.7131    0.3841 N   0  0  0  0  0  0  0  0  0  0  0  0
   -4.0217    2.1753    0.7413 O   0  0  0  0  0  0  0  0  0  0  0  0
   -1.8657    2.2794    0.3423 O   0  0  0  0  0  0  0  0  0  0  0  0
    7.7658    7.9689    0.8463 N   0  0  0  0  0  0  0  0  0  0  0  0
    8.3859    8.8620    1.0455 N   0  0  0  0  0  0  0  0  0  0  0  0
  1  7  1  0  0  0  0
  2  1  2  0  0  0  0
  3  2  1  0  0  0  0
  4  3  2  0  0  0  0
  4  5  1  0  0  0  0
  5  6  2  0  0  0  0
  6  1  1  0  0  0  0
  6 11  1  0  0  0  0
  8  2  1  0  0  0  0
  9  4  1  0  0  0  0
 10  5  1  0  0  0  0
 11 12  2  0  0  0  0
 13 11  2  0  0  0  0
 14 15  3  0  0  0  0
M  RAD  1   3   2
M  END
