Coordinates from ORCA-job 4-NO2-Ph-N2+-B3LYPG-6-31G_dp-MTMO-d009-169-n800
 OpenBabel09051908243D

 15 14  0  0  0  0  0  0  0  0999 V2000
   -3.5043    0.0438   -0.0262 C   0  0  0  0  0  0  0  0  0  0  0  0
   -3.3780   -1.3000   -0.4896 C   0  0  0  0  0  0  0  0  0  0  0  0
   -2.0769   -1.4255   -0.7348 C   0  0  0  0  0  0  0  0  0  0  0  0
   -0.8650   -0.8775   -0.7438 C   0  0  0  0  0  0  0  0  0  0  0  0
   -1.0928    0.4499   -0.2711 C   0  0  0  0  0  0  0  0  0  0  0  0
   -2.3808    0.8658    0.0681 C   0  0  0  0  0  0  0  0  0  0  0  0
   -4.4918    0.4085    0.2486 H   0  0  0  0  0  0  0  0  0  0  0  0
   -4.1964   -2.0038   -0.5959 H   0  0  0  0  0  0  0  0  0  0  0  0
    0.1001   -1.2827   -1.0271 H   0  0  0  0  0  0  0  0  0  0  0  0
   -0.2422    1.1228   -0.1817 H   0  0  0  0  0  0  0  0  0  0  0  0
   -2.5660    2.2574    0.5550 N   0  0  0  0  0  0  0  0  0  0  0  0
   -3.7098    2.5782    0.8435 O   0  0  0  0  0  0  0  0  0  0  0  0
   -1.5569    2.9440    0.6186 O   0  0  0  0  0  0  0  0  0  0  0  0
    3.4406    4.1854    0.2354 N   0  0  0  0  0  0  0  0  0  0  0  0
    4.1318    5.0352    0.3820 N   0  0  0  0  0  0  0  0  0  0  0  0
  1  6  1  0  0  0  0
  1  7  1  0  0  0  0
  2  1  2  0  0  0  0
  3  2  1  0  0  0  0
  4  3  2  0  0  0  0
  4  5  1  0  0  0  0
  5 10  1  0  0  0  0
  5  6  2  0  0  0  0
  6 11  1  0  0  0  0
  8  2  1  0  0  0  0
  9  4  1  0  0  0  0
 11 13  2  0  0  0  0
 11 12  2  0  0  0  0
 14 15  3  0  0  0  0
M  RAD  1   3   2
M  END
