Coordinates from ORCA-job 4-NO2-Ph-N2+-B3LYPG-6-31G_dp-MTMO-d009-169-n800
 OpenBabel09051908243D

 15 15  0  0  0  0  0  0  0  0999 V2000
   -1.9850   -0.2122   -0.6337 C   0  0  0  0  0  0  0  0  0  0  0  0
   -0.6169   -0.2300   -0.7386 C   0  0  0  0  0  0  0  0  0  0  0  0
    0.2126    0.8666   -0.1941 C   0  0  0  0  0  0  0  0  0  0  0  0
   -0.5326    1.9636    0.4605 C   0  0  0  0  0  0  0  0  0  0  0  0
   -1.9021    1.9463    0.5469 C   0  0  0  0  0  0  0  0  0  0  0  0
   -2.6055    0.8671    0.0030 C   0  0  0  0  0  0  0  0  0  0  0  0
   -2.5903   -1.0186   -1.0347 H   0  0  0  0  0  0  0  0  0  0  0  0
   -0.0801   -1.0418   -1.2215 H   0  0  0  0  0  0  0  0  0  0  0  0
    0.0664    2.7748    0.8645 H   0  0  0  0  0  0  0  0  0  0  0  0
   -2.4458    2.7529    1.0280 H   0  0  0  0  0  0  0  0  0  0  0  0
   -4.0956    0.8669    0.1080 N   0  0  0  0  0  0  0  0  0  0  0  0
   -4.6690   -0.0946   -0.3826 O   0  0  0  0  0  0  0  0  0  0  0  0
   -4.5948    1.8279    0.6747 O   0  0  0  0  0  0  0  0  0  0  0  0
    1.1504    0.8664   -0.2596 N   0  0  0  0  0  0  0  0  0  0  0  0
    2.2998    0.8663   -0.3398 N   0  0  0  0  0  0  0  0  0  0  0  0
  1  6  1  0  0  0  0
  2  1  2  0  0  0  0
  2  3  1  0  0  0  0
  3  4  2  0  0  0  0
  4  5  1  0  0  0  0
  4  9  1  0  0  0  0
  5 10  1  0  0  0  0
  6 11  1  0  0  0  0
  6  5  2  0  0  0  0
  7  1  1  0  0  0  0
  8  2  1  0  0  0  0
 11 13  2  0  0  0  0
 12 11  2  0  0  0  0
 14  3  1  0  0  0  0
 15 14  1  0  0  0  0
M  RAD  2  14   2  15   3
M  END
