Coordinates from ORCA-job 4-NO2-Ph-N2+-B3LYPG-6-31G_dp-MTMO-d009-169-n800
 OpenBabel09051908243D

 15 14  0  0  0  0  0  0  0  0999 V2000
   -2.5022   -0.2254   -0.6092 C   0  0  0  0  0  0  0  0  0  0  0  0
   -1.0844   -0.2967   -0.7558 C   0  0  0  0  0  0  0  0  0  0  0  0
   -0.6529    0.8189   -0.1742 C   0  0  0  0  0  0  0  0  0  0  0  0
   -0.9379    1.9473    0.4694 C   0  0  0  0  0  0  0  0  0  0  0  0
   -2.3616    1.9282    0.5667 C   0  0  0  0  0  0  0  0  0  0  0  0
   -3.0903    0.8635    0.0353 C   0  0  0  0  0  0  0  0  0  0  0  0
   -3.1076   -1.0360   -1.0092 H   0  0  0  0  0  0  0  0  0  0  0  0
   -0.5452   -1.1040   -1.2393 H   0  0  0  0  0  0  0  0  0  0  0  0
   -0.2950    2.7325    0.8519 H   0  0  0  0  0  0  0  0  0  0  0  0
   -2.8603    2.7594    1.0609 H   0  0  0  0  0  0  0  0  0  0  0  0
   -4.5704    0.8902    0.1632 N   0  0  0  0  0  0  0  0  0  0  0  0
   -5.1691   -0.0621   -0.3149 O   0  0  0  0  0  0  0  0  0  0  0  0
   -5.0438    1.8618    0.7341 O   0  0  0  0  0  0  0  0  0  0  0  0
    4.3643    0.9546   -0.4207 N   0  0  0  0  0  0  0  0  0  0  0  0
    5.4679    0.9690   -0.4770 N   0  0  0  0  0  0  0  0  0  0  0  0
  1  6  1  0  0  0  0
  2  1  2  0  0  0  0
  2  3  1  0  0  0  0
  3  4  2  0  0  0  0
  4  5  1  0  0  0  0
  4  9  1  0  0  0  0
  5 10  1  0  0  0  0
  6 11  1  0  0  0  0
  6  5  2  0  0  0  0
  7  1  1  0  0  0  0
  8  2  1  0  0  0  0
 11 13  2  0  0  0  0
 12 11  2  0  0  0  0
 15 14  3  0  0  0  0
M  RAD  1   3   2
M  END
