Coordinates from ORCA-job 4-NO2-Ph-N2+-B3LYPG-6-31G_dp-MTMO-d009-169-n800
 OpenBabel09051908243D

 15 14  0  0  0  0  0  0  0  0999 V2000
   -2.4280   -0.2184   -0.6100 C   0  0  0  0  0  0  0  0  0  0  0  0
   -1.0089   -0.2768   -0.7486 C   0  0  0  0  0  0  0  0  0  0  0  0
   -0.5905    0.8422   -0.1641 C   0  0  0  0  0  0  0  0  0  0  0  0
   -0.8895    1.9676    0.4783 C   0  0  0  0  0  0  0  0  0  0  0  0
   -2.3133    1.9357    0.5678 C   0  0  0  0  0  0  0  0  0  0  0  0
   -3.0294    0.8648    0.0318 C   0  0  0  0  0  0  0  0  0  0  0  0
   -3.0240   -1.0342   -1.0136 H   0  0  0  0  0  0  0  0  0  0  0  0
   -0.4594   -1.0788   -1.2294 H   0  0  0  0  0  0  0  0  0  0  0  0
   -0.2554    2.7582    0.8646 H   0  0  0  0  0  0  0  0  0  0  0  0
   -2.8224    2.7621    1.0596 H   0  0  0  0  0  0  0  0  0  0  0  0
   -4.5103    0.8782    0.1514 N   0  0  0  0  0  0  0  0  0  0  0  0
   -5.0980   -0.0792   -0.3305 O   0  0  0  0  0  0  0  0  0  0  0  0
   -4.9958    1.8451    0.7203 O   0  0  0  0  0  0  0  0  0  0  0  0
    3.9665    0.9136   -0.4174 N   0  0  0  0  0  0  0  0  0  0  0  0
    5.0698    0.9214   -0.4790 N   0  0  0  0  0  0  0  0  0  0  0  0
  1  6  1  0  0  0  0
  2  1  2  0  0  0  0
  2  3  1  0  0  0  0
  3  4  2  0  0  0  0
  4  5  1  0  0  0  0
  4  9  1  0  0  0  0
  5 10  1  0  0  0  0
  6 11  1  0  0  0  0
  6  5  2  0  0  0  0
  7  1  1  0  0  0  0
  8  2  1  0  0  0  0
 11 13  2  0  0  0  0
 12 11  2  0  0  0  0
 15 14  3  0  0  0  0
M  RAD  1   3   2
M  END
