Coordinates from ORCA-job 4-NO2-Ph-N2+-B3LYPG-6-31G_dp-MTMO-d009-169-n800
 OpenBabel09051908243D

 15 14  0  0  0  0  0  0  0  0999 V2000
   -3.3829    0.1967    0.0048 C   0  0  0  0  0  0  0  0  0  0  0  0
   -3.4535   -1.1606   -0.4313 C   0  0  0  0  0  0  0  0  0  0  0  0
   -2.1919   -1.4592   -0.7276 C   0  0  0  0  0  0  0  0  0  0  0  0
   -0.9207   -1.0738   -0.8000 C   0  0  0  0  0  0  0  0  0  0  0  0
   -0.9523    0.2800   -0.3495 C   0  0  0  0  0  0  0  0  0  0  0  0
   -2.1592    0.8665    0.0331 C   0  0  0  0  0  0  0  0  0  0  0  0
   -4.3018    0.6914    0.3124 H   0  0  0  0  0  0  0  0  0  0  0  0
   -4.3602   -1.7530   -0.4848 H   0  0  0  0  0  0  0  0  0  0  0  0
   -0.0305   -1.6070   -1.1149 H   0  0  0  0  0  0  0  0  0  0  0  0
   -0.0187    0.8383   -0.3119 H   0  0  0  0  0  0  0  0  0  0  0  0
   -2.1405    2.2788    0.4948 N   0  0  0  0  0  0  0  0  0  0  0  0
   -3.2190    2.7519    0.8224 O   0  0  0  0  0  0  0  0  0  0  0  0
   -1.0487    2.8282    0.5017 O   0  0  0  0  0  0  0  0  0  0  0  0
    2.6383    4.1893    0.3393 N   0  0  0  0  0  0  0  0  0  0  0  0
    3.1530    5.1339    0.5926 N   0  0  0  0  0  0  0  0  0  0  0  0
  1  6  1  0  0  0  0
  1  7  1  0  0  0  0
  2  1  2  0  0  0  0
  3  2  1  0  0  0  0
  4  3  2  0  0  0  0
  4  5  1  0  0  0  0
  5 10  1  0  0  0  0
  5  6  2  0  0  0  0
  6 11  1  0  0  0  0
  8  2  1  0  0  0  0
  9  4  1  0  0  0  0
 11 13  2  0  0  0  0
 11 12  2  0  0  0  0
 14 15  3  0  0  0  0
M  RAD  1   3   2
M  END
