Coordinates from ORCA-job 4-NO2-Ph-N2+-B3LYPG-6-31G_dp-MTMO-d009-169-n800
 OpenBabel09051908243D

 15 14  0  0  0  0  0  0  0  0999 V2000
   -2.4502   -0.2203   -0.6097 C   0  0  0  0  0  0  0  0  0  0  0  0
   -1.0315   -0.2824   -0.7505 C   0  0  0  0  0  0  0  0  0  0  0  0
   -0.6095    0.8357   -0.1669 C   0  0  0  0  0  0  0  0  0  0  0  0
   -0.9045    1.9620    0.4759 C   0  0  0  0  0  0  0  0  0  0  0  0
   -2.3283    1.9337    0.5676 C   0  0  0  0  0  0  0  0  0  0  0  0
   -3.0479    0.8644    0.0329 C   0  0  0  0  0  0  0  0  0  0  0  0
   -3.0489   -1.0347   -1.0123 H   0  0  0  0  0  0  0  0  0  0  0  0
   -0.4849   -1.0859   -1.2321 H   0  0  0  0  0  0  0  0  0  0  0  0
   -0.2680    2.7511    0.8611 H   0  0  0  0  0  0  0  0  0  0  0  0
   -2.8346    2.7613    1.0600 H   0  0  0  0  0  0  0  0  0  0  0  0
   -4.5287    0.8815    0.1548 N   0  0  0  0  0  0  0  0  0  0  0  0
   -5.1194   -0.0745   -0.3260 O   0  0  0  0  0  0  0  0  0  0  0  0
   -5.0108    1.8497    0.7243 O   0  0  0  0  0  0  0  0  0  0  0  0
    4.0876    0.9250   -0.4189 N   0  0  0  0  0  0  0  0  0  0  0  0
    5.1911    0.9348   -0.4791 N   0  0  0  0  0  0  0  0  0  0  0  0
  1  6  1  0  0  0  0
  2  1  2  0  0  0  0
  2  3  1  0  0  0  0
  3  4  2  0  0  0  0
  4  5  1  0  0  0  0
  4  9  1  0  0  0  0
  5 10  1  0  0  0  0
  6 11  1  0  0  0  0
  6  5  2  0  0  0  0
  7  1  1  0  0  0  0
  8  2  1  0  0  0  0
 11 13  2  0  0  0  0
 12 11  2  0  0  0  0
 15 14  3  0  0  0  0
M  RAD  1   3   2
M  END
