Coordinates from ORCA-job 4-NO2-Ph-N2+-B3LYPG-6-31G_dp-MTMO-d009-169-n800
 OpenBabel09051908243D

 15 15  0  0  0  0  0  0  0  0999 V2000
   -2.0062   -0.2123   -0.6325 C   0  0  0  0  0  0  0  0  0  0  0  0
   -0.6278   -0.2256   -0.7358 C   0  0  0  0  0  0  0  0  0  0  0  0
    0.1130    0.8667   -0.1872 C   0  0  0  0  0  0  0  0  0  0  0  0
   -0.5439    1.9591    0.4592 C   0  0  0  0  0  0  0  0  0  0  0  0
   -1.9232    1.9463    0.5487 C   0  0  0  0  0  0  0  0  0  0  0  0
   -2.6226    0.8671    0.0042 C   0  0  0  0  0  0  0  0  0  0  0  0
   -2.6131   -1.0168   -1.0322 H   0  0  0  0  0  0  0  0  0  0  0  0
   -0.1026   -1.0422   -1.2206 H   0  0  0  0  0  0  0  0  0  0  0  0
    0.0439    2.7752    0.8668 H   0  0  0  0  0  0  0  0  0  0  0  0
   -2.4686    2.7509    1.0289 H   0  0  0  0  0  0  0  0  0  0  0  0
   -4.1134    0.8669    0.1093 N   0  0  0  0  0  0  0  0  0  0  0  0
   -4.6894   -0.0944   -0.3790 O   0  0  0  0  0  0  0  0  0  0  0  0
   -4.6155    1.8279    0.6739 O   0  0  0  0  0  0  0  0  0  0  0  0
    1.3304    0.8664   -0.2722 N   0  0  0  0  0  0  0  0  0  0  0  0
    2.4507    0.8662   -0.3504 N   0  0  0  0  0  0  0  0  0  0  0  0
  1  6  1  0  0  0  0
  2  1  2  0  0  0  0
  2  3  1  0  0  0  0
  3  4  2  0  0  0  0
  4  5  1  0  0  0  0
  4  9  1  0  0  0  0
  5 10  1  0  0  0  0
  6 11  1  0  0  0  0
  6  5  2  0  0  0  0
  7  1  1  0  0  0  0
  8  2  1  0  0  0  0
 11 13  2  0  0  0  0
 12 11  2  0  0  0  0
 14  3  1  0  0  0  0
 15 14  1  0  0  0  0
M  RAD  2  14   2  15   3
M  END
