Coordinates from ORCA-job 4-NO2-Ph-N2+-B3LYPG-6-31G_dp-MTMO-d009-169-n800
 OpenBabel09051908243D

 15 14  0  0  0  0  0  0  0  0999 V2000
   -3.8855   -0.1804   -0.0228 C   0  0  0  0  0  0  0  0  0  0  0  0
   -3.9142   -1.5408   -0.4535 C   0  0  0  0  0  0  0  0  0  0  0  0
   -2.6454   -1.7996   -0.7568 C   0  0  0  0  0  0  0  0  0  0  0  0
   -1.3878   -1.3743   -0.8388 C   0  0  0  0  0  0  0  0  0  0  0  0
   -1.4614   -0.0206   -0.3931 C   0  0  0  0  0  0  0  0  0  0  0  0
   -2.6839    0.5285   -0.0049 C   0  0  0  0  0  0  0  0  0  0  0  0
   -4.8180    0.2855    0.2885 H   0  0  0  0  0  0  0  0  0  0  0  0
   -4.8015   -2.1628   -0.5000 H   0  0  0  0  0  0  0  0  0  0  0  0
   -0.4825   -1.8796   -1.1564 H   0  0  0  0  0  0  0  0  0  0  0  0
   -0.5459    0.5670   -0.3628 H   0  0  0  0  0  0  0  0  0  0  0  0
   -2.7074    1.9423    0.4513 N   0  0  0  0  0  0  0  0  0  0  0  0
   -3.7980    2.3819    0.7850 O   0  0  0  0  0  0  0  0  0  0  0  0
   -1.6337    2.5266    0.4484 O   0  0  0  0  0  0  0  0  0  0  0  0
    5.8650    6.4260    0.6031 N   0  0  0  0  0  0  0  0  0  0  0  0
    6.5117    7.3018    0.7940 N   0  0  0  0  0  0  0  0  0  0  0  0
  1  6  1  0  0  0  0
  1  7  1  0  0  0  0
  2  1  2  0  0  0  0
  3  2  1  0  0  0  0
  4  3  2  0  0  0  0
  4  5  1  0  0  0  0
  5 10  1  0  0  0  0
  5  6  2  0  0  0  0
  6 11  1  0  0  0  0
  8  2  1  0  0  0  0
  9  4  1  0  0  0  0
 11 12  2  0  0  0  0
 13 11  2  0  0  0  0
 14 15  3  0  0  0  0
M  RAD  1   3   2
M  END
