Coordinates from ORCA-job 4-NO2-Ph-N2+-B3LYPG-6-31G_dp-MTMO-d009-169-n800
 OpenBabel09051908243D

 15 14  0  0  0  0  0  0  0  0999 V2000
   -4.2851   -0.4844   -0.0323 C   0  0  0  0  0  0  0  0  0  0  0  0
   -4.3525   -1.8518   -0.4356 C   0  0  0  0  0  0  0  0  0  0  0  0
   -3.0993   -2.1394   -0.7756 C   0  0  0  0  0  0  0  0  0  0  0  0
   -1.8377   -1.7391   -0.9071 C   0  0  0  0  0  0  0  0  0  0  0  0
   -1.8721   -0.3763   -0.4856 C   0  0  0  0  0  0  0  0  0  0  0  0
   -3.0711    0.2025   -0.0679 C   0  0  0  0  0  0  0  0  0  0  0  0
   -5.1982    0.0045    0.3007 H   0  0  0  0  0  0  0  0  0  0  0  0
   -5.2517   -2.4580   -0.4406 H   0  0  0  0  0  0  0  0  0  0  0  0
   -0.9527   -2.2673   -1.2445 H   0  0  0  0  0  0  0  0  0  0  0  0
   -0.9459    0.1948   -0.4967 H   0  0  0  0  0  0  0  0  0  0  0  0
   -3.0538    1.6249    0.3612 N   0  0  0  0  0  0  0  0  0  0  0  0
   -4.1238    2.0901    0.7253 O   0  0  0  0  0  0  0  0  0  0  0  0
   -1.9711    2.1897    0.3076 O   0  0  0  0  0  0  0  0  0  0  0  0
    8.5167    8.5508    0.9336 N   0  0  0  0  0  0  0  0  0  0  0  0
    9.1099    9.4606    1.1387 N   0  0  0  0  0  0  0  0  0  0  0  0
  1  7  1  0  0  0  0
  2  1  2  0  0  0  0
  3  2  1  0  0  0  0
  4  3  2  0  0  0  0
  4  5  1  0  0  0  0
  5  6  2  0  0  0  0
  6  1  1  0  0  0  0
  6 11  1  0  0  0  0
  8  2  1  0  0  0  0
  9  4  1  0  0  0  0
 10  5  1  0  0  0  0
 11 12  2  0  0  0  0
 13 11  2  0  0  0  0
 14 15  3  0  0  0  0
M  RAD  1   3   2
M  END
