Coordinates from ORCA-job 4-NO2-Ph-N2+-B3LYPG-6-31G_dp-MTMO-d009-169-n800
 OpenBabel09051908243D

 15 14  0  0  0  0  0  0  0  0999 V2000
   -4.1318   -0.3634   -0.0257 C   0  0  0  0  0  0  0  0  0  0  0  0
   -4.1934   -1.7287   -0.4371 C   0  0  0  0  0  0  0  0  0  0  0  0
   -2.9366   -2.0127   -0.7668 C   0  0  0  0  0  0  0  0  0  0  0  0
   -1.6745   -1.6098   -0.8842 C   0  0  0  0  0  0  0  0  0  0  0  0
   -1.7148   -0.2495   -0.4553 C   0  0  0  0  0  0  0  0  0  0  0  0
   -2.9185    0.3253   -0.0458 C   0  0  0  0  0  0  0  0  0  0  0  0
   -5.0488    0.1222    0.3013 H   0  0  0  0  0  0  0  0  0  0  0  0
   -5.0916   -2.3362   -0.4539 H   0  0  0  0  0  0  0  0  0  0  0  0
   -0.7856   -2.1348   -1.2163 H   0  0  0  0  0  0  0  0  0  0  0  0
   -0.7894    0.3231   -0.4547 H   0  0  0  0  0  0  0  0  0  0  0  0
   -2.9074    1.7453    0.3915 N   0  0  0  0  0  0  0  0  0  0  0  0
   -3.9819    2.2074    0.7464 O   0  0  0  0  0  0  0  0  0  0  0  0
   -1.8247    2.3113    0.3533 O   0  0  0  0  0  0  0  0  0  0  0  0
    7.4912    7.7572    0.8153 N   0  0  0  0  0  0  0  0  0  0  0  0
    8.1194    8.6449    1.0130 N   0  0  0  0  0  0  0  0  0  0  0  0
  1  7  1  0  0  0  0
  2  1  2  0  0  0  0
  3  2  1  0  0  0  0
  4  3  2  0  0  0  0
  4  5  1  0  0  0  0
  5 10  1  0  0  0  0
  5  6  2  0  0  0  0
  6  1  1  0  0  0  0
  6 11  1  0  0  0  0
  8  2  1  0  0  0  0
  9  4  1  0  0  0  0
 11 12  2  0  0  0  0
 13 11  2  0  0  0  0
 14 15  3  0  0  0  0
M  RAD  1   3   2
M  END
