Coordinates from ORCA-job 4-NO2-Ph-N2+-B3LYPG-6-31G_dp-MTMO-d009-169-n800
 OpenBabel09051908243D

 15 14  0  0  0  0  0  0  0  0999 V2000
   -2.1873   -0.2102   -0.6198 C   0  0  0  0  0  0  0  0  0  0  0  0
   -0.7691   -0.2532   -0.7444 C   0  0  0  0  0  0  0  0  0  0  0  0
   -0.3494    0.8676   -0.1579 C   0  0  0  0  0  0  0  0  0  0  0  0
   -0.6822    1.9881    0.4825 C   0  0  0  0  0  0  0  0  0  0  0  0
   -2.1037    1.9445    0.5599 C   0  0  0  0  0  0  0  0  0  0  0  0
   -2.8044    0.8670    0.0170 C   0  0  0  0  0  0  0  0  0  0  0  0
   -2.7744   -1.0294   -1.0281 H   0  0  0  0  0  0  0  0  0  0  0  0
   -0.2089   -1.0493   -1.2207 H   0  0  0  0  0  0  0  0  0  0  0  0
   -0.0606    2.7841    0.8751 H   0  0  0  0  0  0  0  0  0  0  0  0
   -2.6277    2.7637    1.0468 H   0  0  0  0  0  0  0  0  0  0  0  0
   -4.2866    0.8663    0.1232 N   0  0  0  0  0  0  0  0  0  0  0  0
   -4.8619   -0.0960   -0.3642 O   0  0  0  0  0  0  0  0  0  0  0  0
   -4.7875    1.8278    0.6880 O   0  0  0  0  0  0  0  0  0  0  0  0
    2.5065    0.8659   -0.3519 N   0  0  0  0  0  0  0  0  0  0  0  0
    3.6087    0.8648   -0.4243 N   0  0  0  0  0  0  0  0  0  0  0  0
  1  6  1  0  0  0  0
  2  1  2  0  0  0  0
  2  3  1  0  0  0  0
  3  4  2  0  0  0  0
  4  5  1  0  0  0  0
  4  9  1  0  0  0  0
  5 10  1  0  0  0  0
  6 11  1  0  0  0  0
  6  5  2  0  0  0  0
  7  1  1  0  0  0  0
  8  2  1  0  0  0  0
 11 13  2  0  0  0  0
 12 11  2  0  0  0  0
 15 14  3  0  0  0  0
M  RAD  1   3   2
M  END
