Coordinates from ORCA-job 4-NO2-Ph-N2+-B3LYPG-6-31G_dp-MTMO-d009-169-n800
 OpenBabel09051908243D

 15 14  0  0  0  0  0  0  0  0999 V2000
   -2.1172   -0.2103   -0.6238 C   0  0  0  0  0  0  0  0  0  0  0  0
   -0.7055   -0.2490   -0.7442 C   0  0  0  0  0  0  0  0  0  0  0  0
   -0.2359    0.8671   -0.1634 C   0  0  0  0  0  0  0  0  0  0  0  0
   -0.6196    1.9831    0.4775 C   0  0  0  0  0  0  0  0  0  0  0  0
   -2.0342    1.9443    0.5555 C   0  0  0  0  0  0  0  0  0  0  0  0
   -2.7336    0.8670    0.0121 C   0  0  0  0  0  0  0  0  0  0  0  0
   -2.7090   -1.0256   -1.0304 H   0  0  0  0  0  0  0  0  0  0  0  0
   -0.1541   -1.0491   -1.2219 H   0  0  0  0  0  0  0  0  0  0  0  0
   -0.0069    2.7830    0.8738 H   0  0  0  0  0  0  0  0  0  0  0  0
   -2.5638    2.7598    1.0404 H   0  0  0  0  0  0  0  0  0  0  0  0
   -4.2170    0.8667    0.1168 N   0  0  0  0  0  0  0  0  0  0  0  0
   -4.7938   -0.0949   -0.3705 O   0  0  0  0  0  0  0  0  0  0  0  0
   -4.7200    1.8280    0.6807 O   0  0  0  0  0  0  0  0  0  0  0  0
    2.0603    0.8660   -0.3229 N   0  0  0  0  0  0  0  0  0  0  0  0
    3.1618    0.8654   -0.3986 N   0  0  0  0  0  0  0  0  0  0  0  0
  1  6  1  0  0  0  0
  2  1  2  0  0  0  0
  2  3  1  0  0  0  0
  3  4  2  0  0  0  0
  4  5  1  0  0  0  0
  4  9  1  0  0  0  0
  5 10  1  0  0  0  0
  6 11  1  0  0  0  0
  6  5  2  0  0  0  0
  7  1  1  0  0  0  0
  8  2  1  0  0  0  0
 11 13  2  0  0  0  0
 12 11  2  0  0  0  0
 15 14  3  0  0  0  0
M  RAD  1   3   2
M  END
