Coordinates from ORCA-job 4-NO2-Ph-N2+-B3LYPG-6-31G_dp-MTMO-d009-169-n800
 OpenBabel09051908243D

 15 14  0  0  0  0  0  0  0  0999 V2000
   -4.3837   -0.5603   -0.0343 C   0  0  0  0  0  0  0  0  0  0  0  0
   -4.4592   -1.9293   -0.4305 C   0  0  0  0  0  0  0  0  0  0  0  0
   -3.2099   -2.2229   -0.7798 C   0  0  0  0  0  0  0  0  0  0  0  0
   -1.9482   -1.8277   -0.9240 C   0  0  0  0  0  0  0  0  0  0  0  0
   -1.9743   -0.4628   -0.5086 C   0  0  0  0  0  0  0  0  0  0  0  0
   -3.1677    0.1222   -0.0836 C   0  0  0  0  0  0  0  0  0  0  0  0
   -5.2923   -0.0667    0.3041 H   0  0  0  0  0  0  0  0  0  0  0  0
   -5.3604   -2.5326   -0.4248 H   0  0  0  0  0  0  0  0  0  0  0  0
   -1.0679   -2.3605   -1.2664 H   0  0  0  0  0  0  0  0  0  0  0  0
   -1.0463    0.1052   -0.5305 H   0  0  0  0  0  0  0  0  0  0  0  0
   -3.1419    1.5466    0.3385 N   0  0  0  0  0  0  0  0  0  0  0  0
   -4.2071    2.0173    0.7095 O   0  0  0  0  0  0  0  0  0  0  0  0
   -2.0577    2.1073    0.2731 O   0  0  0  0  0  0  0  0  0  0  0  0
    9.1785    9.0716    1.0138 N   0  0  0  0  0  0  0  0  0  0  0  0
    9.7497    9.9941    1.2245 N   0  0  0  0  0  0  0  0  0  0  0  0
  1  7  1  0  0  0  0
  2  8  1  0  0  0  0
  2  1  2  0  0  0  0
  3  2  1  0  0  0  0
  4  3  2  0  0  0  0
  4  5  1  0  0  0  0
  5  6  2  0  0  0  0
  6  1  1  0  0  0  0
  6 11  1  0  0  0  0
  9  4  1  0  0  0  0
 10  5  1  0  0  0  0
 11 12  2  0  0  0  0
 13 11  2  0  0  0  0
 14 15  3  0  0  0  0
M  RAD  1   3   2
M  END
