Coordinates from ORCA-job 4-NO2-Ph-N2+-B3LYPG-6-31G_dp-MTMO-d009-169-n800
 OpenBabel09051908243D

 15 14  0  0  0  0  0  0  0  0999 V2000
   -3.9608   -0.2375   -0.0245 C   0  0  0  0  0  0  0  0  0  0  0  0
   -3.9963   -1.5992   -0.4501 C   0  0  0  0  0  0  0  0  0  0  0  0
   -2.7302   -1.8634   -0.7603 C   0  0  0  0  0  0  0  0  0  0  0  0
   -1.4718   -1.4425   -0.8517 C   0  0  0  0  0  0  0  0  0  0  0  0
   -1.5385   -0.0870   -0.4104 C   0  0  0  0  0  0  0  0  0  0  0  0
   -2.7567    0.4675   -0.0167 C   0  0  0  0  0  0  0  0  0  0  0  0
   -4.8899    0.2326    0.2909 H   0  0  0  0  0  0  0  0  0  0  0  0
   -4.8855   -2.2188   -0.4889 H   0  0  0  0  0  0  0  0  0  0  0  0
   -0.5698   -1.9514   -1.1729 H   0  0  0  0  0  0  0  0  0  0  0  0
   -0.6210    0.4977   -0.3879 H   0  0  0  0  0  0  0  0  0  0  0  0
   -2.7727    1.8831    0.4346 N   0  0  0  0  0  0  0  0  0  0  0  0
   -3.8598    2.3275    0.7736 O   0  0  0  0  0  0  0  0  0  0  0  0
   -1.6972    2.4638    0.4225 O   0  0  0  0  0  0  0  0  0  0  0  0
    6.3585    6.8259    0.6659 N   0  0  0  0  0  0  0  0  0  0  0  0
    7.0031    7.7031    0.8570 N   0  0  0  0  0  0  0  0  0  0  0  0
  1  6  1  0  0  0  0
  1  7  1  0  0  0  0
  2  1  2  0  0  0  0
  3  2  1  0  0  0  0
  4  3  2  0  0  0  0
  4  5  1  0  0  0  0
  5 10  1  0  0  0  0
  5  6  2  0  0  0  0
  6 11  1  0  0  0  0
  8  2  1  0  0  0  0
  9  4  1  0  0  0  0
 11 12  2  0  0  0  0
 13 11  2  0  0  0  0
 14 15  3  0  0  0  0
M  RAD  1   3   2
M  END
