Coordinates from ORCA-job 4-NO2-Ph-N2+-B3LYPG-6-31G_dp-MTMO-d009-169-n800
 OpenBabel09051908243D

 15 14  0  0  0  0  0  0  0  0999 V2000
   -2.7770   -0.2614   -0.6082 C   0  0  0  0  0  0  0  0  0  0  0  0
   -1.3686   -0.4138   -0.7810 C   0  0  0  0  0  0  0  0  0  0  0  0
   -0.8637    0.6766   -0.2111 C   0  0  0  0  0  0  0  0  0  0  0  0
   -1.0717    1.8207    0.4343 C   0  0  0  0  0  0  0  0  0  0  0  0
   -2.4921    1.8832    0.5580 C   0  0  0  0  0  0  0  0  0  0  0  0
   -3.2901    0.8607    0.0435 C   0  0  0  0  0  0  0  0  0  0  0  0
   -3.4351   -1.0368   -0.9946 H   0  0  0  0  0  0  0  0  0  0  0  0
   -0.8859   -1.2514   -1.2726 H   0  0  0  0  0  0  0  0  0  0  0  0
   -0.3783    2.5687    0.8031 H   0  0  0  0  0  0  0  0  0  0  0  0
   -2.9331    2.7426    1.0590 H   0  0  0  0  0  0  0  0  0  0  0  0
   -4.7637    0.9720    0.1984 N   0  0  0  0  0  0  0  0  0  0  0  0
   -5.4243    0.0543   -0.2657 O   0  0  0  0  0  0  0  0  0  0  0  0
   -5.1701    1.9703    0.7749 O   0  0  0  0  0  0  0  0  0  0  0  0
    5.6809    1.1832   -0.4089 N   0  0  0  0  0  0  0  0  0  0  0  0
    6.7843    1.2325   -0.4481 N   0  0  0  0  0  0  0  0  0  0  0  0
  1  6  1  0  0  0  0
  2  1  2  0  0  0  0
  2  3  1  0  0  0  0
  3  4  2  0  0  0  0
  4  5  1  0  0  0  0
  4  9  1  0  0  0  0
  5 10  1  0  0  0  0
  6 11  1  0  0  0  0
  6  5  2  0  0  0  0
  7  1  1  0  0  0  0
  8  2  1  0  0  0  0
 11 13  2  0  0  0  0
 12 11  2  0  0  0  0
 15 14  3  0  0  0  0
M  RAD  1   3   2
M  END
