Coordinates from ORCA-job 4-NO2-Ph-N2+-B3LYPG-6-31G_dp-MTMO-d009-169-n800
 OpenBabel09051908243D

 15 14  0  0  0  0  0  0  0  0999 V2000
   -4.1669   -0.3914   -0.0277 C   0  0  0  0  0  0  0  0  0  0  0  0
   -4.2290   -1.7571   -0.4377 C   0  0  0  0  0  0  0  0  0  0  0  0
   -2.9727   -2.0413   -0.7692 C   0  0  0  0  0  0  0  0  0  0  0  0
   -1.7108   -1.6384   -0.8890 C   0  0  0  0  0  0  0  0  0  0  0  0
   -1.7506   -0.2776   -0.4614 C   0  0  0  0  0  0  0  0  0  0  0  0
   -2.9537    0.2974   -0.0506 C   0  0  0  0  0  0  0  0  0  0  0  0
   -5.0834    0.0944    0.3003 H   0  0  0  0  0  0  0  0  0  0  0  0
   -5.1272   -2.3647   -0.4525 H   0  0  0  0  0  0  0  0  0  0  0  0
   -0.8224   -2.1636   -1.2219 H   0  0  0  0  0  0  0  0  0  0  0  0
   -0.8252    0.2950   -0.4628 H   0  0  0  0  0  0  0  0  0  0  0  0
   -2.9421    1.7179    0.3853 N   0  0  0  0  0  0  0  0  0  0  0  0
   -4.0158    2.1801    0.7421 O   0  0  0  0  0  0  0  0  0  0  0  0
   -1.8596    2.2842    0.3440 O   0  0  0  0  0  0  0  0  0  0  0  0
    7.7247    7.9372    0.8416 N   0  0  0  0  0  0  0  0  0  0  0  0
    8.3460    8.8294    1.0405 N   0  0  0  0  0  0  0  0  0  0  0  0
  1  7  1  0  0  0  0
  2  1  2  0  0  0  0
  3  2  1  0  0  0  0
  4  3  2  0  0  0  0
  4  5  1  0  0  0  0
  5  6  2  0  0  0  0
  6  1  1  0  0  0  0
  6 11  1  0  0  0  0
  8  2  1  0  0  0  0
  9  4  1  0  0  0  0
 10  5  1  0  0  0  0
 11 12  2  0  0  0  0
 13 11  2  0  0  0  0
 14 15  3  0  0  0  0
M  RAD  1   3   2
M  END
