Coordinates from ORCA-job 4-NO2-Ph-N2+-B3LYPG-6-31G_dp-MTMO-d009-169-n800
 OpenBabel09051908243D

 15 14  0  0  0  0  0  0  0  0999 V2000
   -3.5698    0.0051   -0.0264 C   0  0  0  0  0  0  0  0  0  0  0  0
   -3.4663   -1.3421   -0.4856 C   0  0  0  0  0  0  0  0  0  0  0  0
   -2.1688   -1.4871   -0.7392 C   0  0  0  0  0  0  0  0  0  0  0  0
   -0.9492   -0.9568   -0.7586 C   0  0  0  0  0  0  0  0  0  0  0  0
   -1.1545    0.3752   -0.2892 C   0  0  0  0  0  0  0  0  0  0  0  0
   -2.4340    0.8110    0.0573 C   0  0  0  0  0  0  0  0  0  0  0  0
   -4.5501    0.3849    0.2538 H   0  0  0  0  0  0  0  0  0  0  0  0
   -4.2955   -2.0343   -0.5837 H   0  0  0  0  0  0  0  0  0  0  0  0
    0.0077   -1.3774   -1.0471 H   0  0  0  0  0  0  0  0  0  0  0  0
   -0.2938    1.0362   -0.2080 H   0  0  0  0  0  0  0  0  0  0  0  0
   -2.5955    2.2069    0.5405 N   0  0  0  0  0  0  0  0  0  0  0  0
   -3.7326    2.5460    0.8342 O   0  0  0  0  0  0  0  0  0  0  0  0
   -1.5757    2.8782    0.5965 O   0  0  0  0  0  0  0  0  0  0  0  0
    3.8554    4.5484    0.2919 N   0  0  0  0  0  0  0  0  0  0  0  0
    4.5342    5.4072    0.4445 N   0  0  0  0  0  0  0  0  0  0  0  0
  1  6  1  0  0  0  0
  1  7  1  0  0  0  0
  2  1  2  0  0  0  0
  3  2  1  0  0  0  0
  4  3  2  0  0  0  0
  4  5  1  0  0  0  0
  5 10  1  0  0  0  0
  5  6  2  0  0  0  0
  6 11  1  0  0  0  0
  8  2  1  0  0  0  0
  9  4  1  0  0  0  0
 11 13  2  0  0  0  0
 11 12  2  0  0  0  0
 14 15  3  0  0  0  0
M  RAD  1   3   2
M  END
