Coordinates from ORCA-job 4-NO2-Ph-N2+-B3LYPG-6-31G_dp-MTMO-d009-169-n800
 OpenBabel09051908243D

 15 14  0  0  0  0  0  0  0  0999 V2000
   -4.1586   -0.3849   -0.0273 C   0  0  0  0  0  0  0  0  0  0  0  0
   -4.2206   -1.7504   -0.4377 C   0  0  0  0  0  0  0  0  0  0  0  0
   -2.9642   -2.0345   -0.7686 C   0  0  0  0  0  0  0  0  0  0  0  0
   -1.7022   -1.6317   -0.8878 C   0  0  0  0  0  0  0  0  0  0  0  0
   -1.7422   -0.2710   -0.4599 C   0  0  0  0  0  0  0  0  0  0  0  0
   -2.9454    0.3040   -0.0494 C   0  0  0  0  0  0  0  0  0  0  0  0
   -5.0753    0.1009    0.3005 H   0  0  0  0  0  0  0  0  0  0  0  0
   -5.1188   -2.3580   -0.4529 H   0  0  0  0  0  0  0  0  0  0  0  0
   -0.8137   -2.1568   -1.2206 H   0  0  0  0  0  0  0  0  0  0  0  0
   -0.8168    0.3016   -0.4608 H   0  0  0  0  0  0  0  0  0  0  0  0
   -2.9340    1.7243    0.3868 N   0  0  0  0  0  0  0  0  0  0  0  0
   -4.0079    2.1865    0.7432 O   0  0  0  0  0  0  0  0  0  0  0  0
   -1.8514    2.2906    0.3462 O   0  0  0  0  0  0  0  0  0  0  0  0
    7.6698    7.8949    0.8354 N   0  0  0  0  0  0  0  0  0  0  0  0
    8.2927    8.7860    1.0340 N   0  0  0  0  0  0  0  0  0  0  0  0
  1  7  1  0  0  0  0
  2  1  2  0  0  0  0
  3  2  1  0  0  0  0
  4  3  2  0  0  0  0
  4  5  1  0  0  0  0
  5  6  2  0  0  0  0
  6  1  1  0  0  0  0
  6 11  1  0  0  0  0
  8  2  1  0  0  0  0
  9  4  1  0  0  0  0
 10  5  1  0  0  0  0
 11 12  2  0  0  0  0
 13 11  2  0  0  0  0
 14 15  3  0  0  0  0
M  RAD  1   3   2
M  END
