Coordinates from ORCA-job 4-NO2-Ph-N2+-B3LYPG-6-31G_dp-MTMO-d009-169-n800
 OpenBabel09051908243D

 15 15  0  0  0  0  0  0  0  0999 V2000
   -2.0640   -0.2109   -0.6277 C   0  0  0  0  0  0  0  0  0  0  0  0
   -0.6654   -0.2385   -0.7407 C   0  0  0  0  0  0  0  0  0  0  0  0
   -0.0931    0.8668   -0.1729 C   0  0  0  0  0  0  0  0  0  0  0  0
   -0.5804    1.9723    0.4691 C   0  0  0  0  0  0  0  0  0  0  0  0
   -1.9810    1.9449    0.5521 C   0  0  0  0  0  0  0  0  0  0  0  0
   -2.6787    0.8670    0.0082 C   0  0  0  0  0  0  0  0  0  0  0  0
   -2.6662   -1.0186   -1.0295 H   0  0  0  0  0  0  0  0  0  0  0  0
   -0.1274   -1.0459   -1.2214 H   0  0  0  0  0  0  0  0  0  0  0  0
    0.0194    2.7792    0.8707 H   0  0  0  0  0  0  0  0  0  0  0  0
   -2.5215    2.7527    1.0337 H   0  0  0  0  0  0  0  0  0  0  0  0
   -4.1649    0.8669    0.1129 N   0  0  0  0  0  0  0  0  0  0  0  0
   -4.7438   -0.0940   -0.3739 O   0  0  0  0  0  0  0  0  0  0  0  0
   -4.6701    1.8274    0.6765 O   0  0  0  0  0  0  0  0  0  0  0  0
    1.7236    0.8663   -0.2997 N   0  0  0  0  0  0  0  0  0  0  0  0
    2.8250    0.8659   -0.3762 N   0  0  0  0  0  0  0  0  0  0  0  0
  1  6  1  0  0  0  0
  2  1  2  0  0  0  0
  2  3  1  0  0  0  0
  3  4  2  0  0  0  0
  4  5  1  0  0  0  0
  4  9  1  0  0  0  0
  5 10  1  0  0  0  0
  6 11  1  0  0  0  0
  6  5  2  0  0  0  0
  7  1  1  0  0  0  0
  8  2  1  0  0  0  0
 11 13  2  0  0  0  0
 12 11  2  0  0  0  0
 14  3  1  0  0  0  0
 15 14  1  0  0  0  0
M  RAD  2  14   2  15   3
M  END
