Coordinates from ORCA-job 4-NO2-Ph-N2+-B3LYPG-6-31G_dp-MTMO-d009-169-n800
 OpenBabel09051908243D

 15 14  0  0  0  0  0  0  0  0999 V2000
   -2.3724   -0.2143   -0.6110 C   0  0  0  0  0  0  0  0  0  0  0  0
   -0.9526   -0.2655   -0.7443 C   0  0  0  0  0  0  0  0  0  0  0  0
   -0.5417    0.8553   -0.1580 C   0  0  0  0  0  0  0  0  0  0  0  0
   -0.8490    1.9791    0.4836 C   0  0  0  0  0  0  0  0  0  0  0  0
   -2.2729    1.9401    0.5679 C   0  0  0  0  0  0  0  0  0  0  0  0
   -2.9816    0.8657    0.0289 C   0  0  0  0  0  0  0  0  0  0  0  0
   -2.9630   -1.0328   -1.0170 H   0  0  0  0  0  0  0  0  0  0  0  0
   -0.3969   -1.0643   -1.2231 H   0  0  0  0  0  0  0  0  0  0  0  0
   -0.2200    2.7724    0.8722 H   0  0  0  0  0  0  0  0  0  0  0  0
   -2.7881    2.7636    1.0580 H   0  0  0  0  0  0  0  0  0  0  0  0
   -4.4630    0.8716    0.1430 N   0  0  0  0  0  0  0  0  0  0  0  0
   -5.0441   -0.0885   -0.3414 O   0  0  0  0  0  0  0  0  0  0  0  0
   -4.9555    1.8359    0.7104 O   0  0  0  0  0  0  0  0  0  0  0  0
    3.6547    0.8897   -0.4111 N   0  0  0  0  0  0  0  0  0  0  0  0
    4.7578    0.8934   -0.4769 N   0  0  0  0  0  0  0  0  0  0  0  0
  1  6  1  0  0  0  0
  2  1  2  0  0  0  0
  2  3  1  0  0  0  0
  3  4  2  0  0  0  0
  4  5  1  0  0  0  0
  4  9  1  0  0  0  0
  5 10  1  0  0  0  0
  6 11  1  0  0  0  0
  6  5  2  0  0  0  0
  7  1  1  0  0  0  0
  8  2  1  0  0  0  0
 11 13  2  0  0  0  0
 12 11  2  0  0  0  0
 15 14  3  0  0  0  0
M  RAD  1   3   2
M  END
