Coordinates from ORCA-job 4-NO2-Ph-N2+-B3LYPG-6-31G_dp-MTMO-d009-169-n800
 OpenBabel09051908243D

 15 14  0  0  0  0  0  0  0  0999 V2000
   -2.1950   -0.2102   -0.6193 C   0  0  0  0  0  0  0  0  0  0  0  0
   -0.7765   -0.2535   -0.7440 C   0  0  0  0  0  0  0  0  0  0  0  0
   -0.3594    0.8675   -0.1572 C   0  0  0  0  0  0  0  0  0  0  0  0
   -0.6896    1.9883    0.4832 C   0  0  0  0  0  0  0  0  0  0  0  0
   -2.1115    1.9445    0.5605 C   0  0  0  0  0  0  0  0  0  0  0  0
   -2.8122    0.8670    0.0175 C   0  0  0  0  0  0  0  0  0  0  0  0
   -2.7819   -1.0297   -1.0277 H   0  0  0  0  0  0  0  0  0  0  0  0
   -0.2158   -1.0493   -1.2202 H   0  0  0  0  0  0  0  0  0  0  0  0
   -0.0675    2.7841    0.8756 H   0  0  0  0  0  0  0  0  0  0  0  0
   -2.6352    2.7639    1.0475 H   0  0  0  0  0  0  0  0  0  0  0  0
   -4.2943    0.8663    0.1237 N   0  0  0  0  0  0  0  0  0  0  0  0
   -4.8696   -0.0960   -0.3638 O   0  0  0  0  0  0  0  0  0  0  0  0
   -4.7952    1.8279    0.6885 O   0  0  0  0  0  0  0  0  0  0  0  0
    2.5564    0.8659   -0.3553 N   0  0  0  0  0  0  0  0  0  0  0  0
    3.6587    0.8649   -0.4280 N   0  0  0  0  0  0  0  0  0  0  0  0
  1  6  1  0  0  0  0
  2  1  2  0  0  0  0
  2  3  1  0  0  0  0
  3  4  2  0  0  0  0
  4  5  1  0  0  0  0
  4  9  1  0  0  0  0
  5 10  1  0  0  0  0
  6 11  1  0  0  0  0
  6  5  2  0  0  0  0
  7  1  1  0  0  0  0
  8  2  1  0  0  0  0
 11 13  2  0  0  0  0
 12 11  2  0  0  0  0
 15 14  3  0  0  0  0
M  RAD  1   3   2
M  END
