Coordinates from ORCA-job 4-NO2-Ph-N2+-B3LYPG-6-31G_dp-MTMO-d009-169-n800
 OpenBabel09051908243D

 15 14  0  0  0  0  0  0  0  0999 V2000
   -2.2887   -0.2109   -0.6138 C   0  0  0  0  0  0  0  0  0  0  0  0
   -0.8686   -0.2563   -0.7411 C   0  0  0  0  0  0  0  0  0  0  0  0
   -0.4625    0.8657   -0.1532 C   0  0  0  0  0  0  0  0  0  0  0  0
   -0.7785    1.9878    0.4873 C   0  0  0  0  0  0  0  0  0  0  0  0
   -2.2022    1.9437    0.5660 C   0  0  0  0  0  0  0  0  0  0  0  0
   -2.9045    0.8667    0.0239 C   0  0  0  0  0  0  0  0  0  0  0  0
   -2.8749   -1.0313   -1.0222 H   0  0  0  0  0  0  0  0  0  0  0  0
   -0.3072   -1.0522   -1.2177 H   0  0  0  0  0  0  0  0  0  0  0  0
   -0.1536    2.7830    0.8783 H   0  0  0  0  0  0  0  0  0  0  0  0
   -2.7230    2.7648    1.0540 H   0  0  0  0  0  0  0  0  0  0  0  0
   -4.3864    0.8670    0.1319 N   0  0  0  0  0  0  0  0  0  0  0  0
   -4.9621   -0.0952   -0.3551 O   0  0  0  0  0  0  0  0  0  0  0  0
   -4.8851    1.8291    0.6975 O   0  0  0  0  0  0  0  0  0  0  0  0
    3.1531    0.8699   -0.3914 N   0  0  0  0  0  0  0  0  0  0  0  0
    4.2557    0.8698   -0.4634 N   0  0  0  0  0  0  0  0  0  0  0  0
  1  6  1  0  0  0  0
  2  1  2  0  0  0  0
  2  3  1  0  0  0  0
  3  4  2  0  0  0  0
  4  5  1  0  0  0  0
  4  9  1  0  0  0  0
  5 10  1  0  0  0  0
  6 11  1  0  0  0  0
  6  5  2  0  0  0  0
  7  1  1  0  0  0  0
  8  2  1  0  0  0  0
 11 13  2  0  0  0  0
 12 11  2  0  0  0  0
 15 14  3  0  0  0  0
M  RAD  1   3   2
M  END
