Coordinates from ORCA-job 4-NO2-Ph-N2+-B3LYPG-6-31G_dp-MTMO-d009-169-n800
 OpenBabel09051908243D

 15 14  0  0  0  0  0  0  0  0999 V2000
   -3.3576    0.2162    0.0060 C   0  0  0  0  0  0  0  0  0  0  0  0
   -3.4171   -1.1406   -0.4332 C   0  0  0  0  0  0  0  0  0  0  0  0
   -2.1522   -1.4295   -0.7254 C   0  0  0  0  0  0  0  0  0  0  0  0
   -0.8836   -1.0341   -0.7921 C   0  0  0  0  0  0  0  0  0  0  0  0
   -0.9263    0.3184   -0.3389 C   0  0  0  0  0  0  0  0  0  0  0  0
   -2.1391    0.8950    0.0404 C   0  0  0  0  0  0  0  0  0  0  0  0
   -4.2813    0.7035    0.3111 H   0  0  0  0  0  0  0  0  0  0  0  0
   -4.3195   -1.7392   -0.4916 H   0  0  0  0  0  0  0  0  0  0  0  0
    0.0116   -1.5604   -1.1046 H   0  0  0  0  0  0  0  0  0  0  0  0
    0.0031    0.8837   -0.2963 H   0  0  0  0  0  0  0  0  0  0  0  0
   -2.1329    2.3064    0.5052 N   0  0  0  0  0  0  0  0  0  0  0  0
   -3.2161    2.7703    0.8305 O   0  0  0  0  0  0  0  0  0  0  0  0
   -1.0455    2.8645    0.5166 O   0  0  0  0  0  0  0  0  0  0  0  0
    2.4719    4.0032    0.3029 N   0  0  0  0  0  0  0  0  0  0  0  0
    2.9960    4.9441    0.5504 N   0  0  0  0  0  0  0  0  0  0  0  0
  1  6  1  0  0  0  0
  1  7  1  0  0  0  0
  2  1  2  0  0  0  0
  3  2  1  0  0  0  0
  4  3  2  0  0  0  0
  4  5  1  0  0  0  0
  5 10  1  0  0  0  0
  5  6  2  0  0  0  0
  6 11  1  0  0  0  0
  8  2  1  0  0  0  0
  9  4  1  0  0  0  0
 11 13  2  0  0  0  0
 11 12  2  0  0  0  0
 14 15  3  0  0  0  0
M  RAD  1   3   2
M  END
