Coordinates from ORCA-job 4-NO2-Ph-N2+-B3LYPG-6-31G_dp-MTMO-d009-169-n800
 OpenBabel09051908243D

 15 14  0  0  0  0  0  0  0  0999 V2000
   -2.2238   -0.2103   -0.6173 C   0  0  0  0  0  0  0  0  0  0  0  0
   -0.8044   -0.2543   -0.7423 C   0  0  0  0  0  0  0  0  0  0  0  0
   -0.3938    0.8673   -0.1546 C   0  0  0  0  0  0  0  0  0  0  0  0
   -0.7173    1.9887    0.4856 C   0  0  0  0  0  0  0  0  0  0  0  0
   -2.1401    1.9444    0.5625 C   0  0  0  0  0  0  0  0  0  0  0  0
   -2.8410    0.8670    0.0195 C   0  0  0  0  0  0  0  0  0  0  0  0
   -2.8100   -1.0303   -1.0261 H   0  0  0  0  0  0  0  0  0  0  0  0
   -0.2425   -1.0498   -1.2183 H   0  0  0  0  0  0  0  0  0  0  0  0
   -0.0939    2.7841    0.8776 H   0  0  0  0  0  0  0  0  0  0  0  0
   -2.6630    2.7644    1.0497 H   0  0  0  0  0  0  0  0  0  0  0  0
   -4.3231    0.8665    0.1255 N   0  0  0  0  0  0  0  0  0  0  0  0
   -4.8980   -0.0958   -0.3621 O   0  0  0  0  0  0  0  0  0  0  0  0
   -4.8235    1.8282    0.6904 O   0  0  0  0  0  0  0  0  0  0  0  0
    2.7418    0.8662   -0.3676 N   0  0  0  0  0  0  0  0  0  0  0  0
    3.8441    0.8655   -0.4414 N   0  0  0  0  0  0  0  0  0  0  0  0
  1  6  1  0  0  0  0
  2  1  2  0  0  0  0
  2  3  1  0  0  0  0
  3  4  2  0  0  0  0
  4  5  1  0  0  0  0
  4  9  1  0  0  0  0
  5 10  1  0  0  0  0
  6 11  1  0  0  0  0
  6  5  2  0  0  0  0
  7  1  1  0  0  0  0
  8  2  1  0  0  0  0
 11 13  2  0  0  0  0
 12 11  2  0  0  0  0
 15 14  3  0  0  0  0
M  RAD  1   3   2
M  END
