Coordinates from ORCA-job 4-NO2-Ph-N2+-B3LYPG-6-31G_dp-MTMO-d009-169-n800
 OpenBabel09051908243D

 15 14  0  0  0  0  0  0  0  0999 V2000
   -2.5056   -0.2257   -0.6093 C   0  0  0  0  0  0  0  0  0  0  0  0
   -1.0879   -0.2978   -0.7562 C   0  0  0  0  0  0  0  0  0  0  0  0
   -0.6557    0.8175   -0.1748 C   0  0  0  0  0  0  0  0  0  0  0  0
   -0.9399    1.9462    0.4688 C   0  0  0  0  0  0  0  0  0  0  0  0
   -2.3635    1.9278    0.5666 C   0  0  0  0  0  0  0  0  0  0  0  0
   -3.0929    0.8635    0.0355 C   0  0  0  0  0  0  0  0  0  0  0  0
   -3.1115   -1.0361   -1.0090 H   0  0  0  0  0  0  0  0  0  0  0  0
   -0.5492   -1.1054   -1.2399 H   0  0  0  0  0  0  0  0  0  0  0  0
   -0.2964    2.7310    0.8511 H   0  0  0  0  0  0  0  0  0  0  0  0
   -2.8617    2.7593    1.0609 H   0  0  0  0  0  0  0  0  0  0  0  0
   -4.5730    0.8910    0.1637 N   0  0  0  0  0  0  0  0  0  0  0  0
   -5.1724   -0.0611   -0.3141 O   0  0  0  0  0  0  0  0  0  0  0  0
   -5.0458    1.8628    0.7349 O   0  0  0  0  0  0  0  0  0  0  0  0
    4.3816    0.9569   -0.4206 N   0  0  0  0  0  0  0  0  0  0  0  0
    5.4852    0.9716   -0.4767 N   0  0  0  0  0  0  0  0  0  0  0  0
  1  6  1  0  0  0  0
  2  1  2  0  0  0  0
  2  3  1  0  0  0  0
  3  4  2  0  0  0  0
  4  5  1  0  0  0  0
  4  9  1  0  0  0  0
  5 10  1  0  0  0  0
  6 11  1  0  0  0  0
  6  5  2  0  0  0  0
  7  1  1  0  0  0  0
  8  2  1  0  0  0  0
 11 13  2  0  0  0  0
 12 11  2  0  0  0  0
 15 14  3  0  0  0  0
M  RAD  1   3   2
M  END
