Coordinates from ORCA-job 4-NO2-Ph-N2+-B3LYPG-6-31G_dp-MTMO-d009-169-n800
 OpenBabel09051908243D

 15 14  0  0  0  0  0  0  0  0999 V2000
   -2.3312   -0.2122   -0.6122 C   0  0  0  0  0  0  0  0  0  0  0  0
   -0.9112   -0.2598   -0.7424 C   0  0  0  0  0  0  0  0  0  0  0  0
   -0.5036    0.8618   -0.1552 C   0  0  0  0  0  0  0  0  0  0  0  0
   -0.8157    1.9846    0.4860 C   0  0  0  0  0  0  0  0  0  0  0  0
   -2.2395    1.9423    0.5672 C   0  0  0  0  0  0  0  0  0  0  0  0
   -2.9444    0.8663    0.0265 C   0  0  0  0  0  0  0  0  0  0  0  0
   -2.9190   -1.0320   -1.0195 H   0  0  0  0  0  0  0  0  0  0  0  0
   -0.3522   -1.0569   -1.2200 H   0  0  0  0  0  0  0  0  0  0  0  0
   -0.1891    2.7792    0.8759 H   0  0  0  0  0  0  0  0  0  0  0  0
   -2.7579    2.7644    1.0562 H   0  0  0  0  0  0  0  0  0  0  0  0
   -4.4260    0.8686    0.1374 N   0  0  0  0  0  0  0  0  0  0  0  0
   -5.0039   -0.0929   -0.3483 O   0  0  0  0  0  0  0  0  0  0  0  0
   -4.9222    1.8315    0.7038 O   0  0  0  0  0  0  0  0  0  0  0  0
    3.4123    0.8776   -0.4027 N   0  0  0  0  0  0  0  0  0  0  0  0
    4.5152    0.8790   -0.4717 N   0  0  0  0  0  0  0  0  0  0  0  0
  1  6  1  0  0  0  0
  2  1  2  0  0  0  0
  2  3  1  0  0  0  0
  3  4  2  0  0  0  0
  4  5  1  0  0  0  0
  4  9  1  0  0  0  0
  5 10  1  0  0  0  0
  6 11  1  0  0  0  0
  6  5  2  0  0  0  0
  7  1  1  0  0  0  0
  8  2  1  0  0  0  0
 11 13  2  0  0  0  0
 12 11  2  0  0  0  0
 15 14  3  0  0  0  0
M  RAD  1   3   2
M  END
