Coordinates from ORCA-job 4-NO2-Ph-N2+-B3LYPG-6-31G_dp-MTMO-d009-169-n800
 OpenBabel09051908243D

 15 15  0  0  0  0  0  0  0  0999 V2000
   -1.9874   -0.2122   -0.6336 C   0  0  0  0  0  0  0  0  0  0  0  0
   -0.6175   -0.2287   -0.7380 C   0  0  0  0  0  0  0  0  0  0  0  0
    0.1966    0.8666   -0.1931 C   0  0  0  0  0  0  0  0  0  0  0  0
   -0.5333    1.9623    0.4599 C   0  0  0  0  0  0  0  0  0  0  0  0
   -1.9044    1.9462    0.5471 C   0  0  0  0  0  0  0  0  0  0  0  0
   -2.6071    0.8671    0.0031 C   0  0  0  0  0  0  0  0  0  0  0  0
   -2.5928   -1.0183   -1.0344 H   0  0  0  0  0  0  0  0  0  0  0  0
   -0.0836   -1.0419   -1.2214 H   0  0  0  0  0  0  0  0  0  0  0  0
    0.0629    2.7749    0.8649 H   0  0  0  0  0  0  0  0  0  0  0  0
   -2.4482    2.7526    1.0281 H   0  0  0  0  0  0  0  0  0  0  0  0
   -4.0976    0.8669    0.1082 N   0  0  0  0  0  0  0  0  0  0  0  0
   -4.6712   -0.0946   -0.3820 O   0  0  0  0  0  0  0  0  0  0  0  0
   -4.5971    1.8280    0.6744 O   0  0  0  0  0  0  0  0  0  0  0  0
    1.1743    0.8664   -0.2612 N   0  0  0  0  0  0  0  0  0  0  0  0
    2.3178    0.8662   -0.3409 N   0  0  0  0  0  0  0  0  0  0  0  0
  1  6  1  0  0  0  0
  2  1  2  0  0  0  0
  2  3  1  0  0  0  0
  3  4  2  0  0  0  0
  4  5  1  0  0  0  0
  4  9  1  0  0  0  0
  5 10  1  0  0  0  0
  6 11  1  0  0  0  0
  6  5  2  0  0  0  0
  7  1  1  0  0  0  0
  8  2  1  0  0  0  0
 11 13  2  0  0  0  0
 12 11  2  0  0  0  0
 14  3  1  0  0  0  0
 15 14  1  0  0  0  0
M  RAD  2  14   2  15   3
M  END
