Coordinates from ORCA-job 4-NO2-Ph-N2+-B3LYPG-6-31G_dp-MTMO-d009-169-n800
 OpenBabel09051908243D

 15 14  0  0  0  0  0  0  0  0999 V2000
   -4.1627   -0.3881   -0.0275 C   0  0  0  0  0  0  0  0  0  0  0  0
   -4.2248   -1.7537   -0.4377 C   0  0  0  0  0  0  0  0  0  0  0  0
   -2.9684   -2.0379   -0.7689 C   0  0  0  0  0  0  0  0  0  0  0  0
   -1.7065   -1.6350   -0.8884 C   0  0  0  0  0  0  0  0  0  0  0  0
   -1.7464   -0.2743   -0.4607 C   0  0  0  0  0  0  0  0  0  0  0  0
   -2.9496    0.3007   -0.0500 C   0  0  0  0  0  0  0  0  0  0  0  0
   -5.0793    0.0977    0.3004 H   0  0  0  0  0  0  0  0  0  0  0  0
   -5.1230   -2.3613   -0.4527 H   0  0  0  0  0  0  0  0  0  0  0  0
   -0.8180   -2.1602   -1.2213 H   0  0  0  0  0  0  0  0  0  0  0  0
   -0.8210    0.2983   -0.4618 H   0  0  0  0  0  0  0  0  0  0  0  0
   -2.9380    1.7211    0.3860 N   0  0  0  0  0  0  0  0  0  0  0  0
   -4.0119    2.1833    0.7426 O   0  0  0  0  0  0  0  0  0  0  0  0
   -1.8555    2.2874    0.3451 O   0  0  0  0  0  0  0  0  0  0  0  0
    7.6972    7.9160    0.8385 N   0  0  0  0  0  0  0  0  0  0  0  0
    8.3194    8.8077    1.0373 N   0  0  0  0  0  0  0  0  0  0  0  0
  1  7  1  0  0  0  0
  2  1  2  0  0  0  0
  3  2  1  0  0  0  0
  4  3  2  0  0  0  0
  4  5  1  0  0  0  0
  5  6  2  0  0  0  0
  6  1  1  0  0  0  0
  6 11  1  0  0  0  0
  8  2  1  0  0  0  0
  9  4  1  0  0  0  0
 10  5  1  0  0  0  0
 11 12  2  0  0  0  0
 13 11  2  0  0  0  0
 14 15  3  0  0  0  0
M  RAD  1   3   2
M  END
