Coordinates from ORCA-job 4-NO2-Ph-N2+-B3LYPG-6-31G_dp-MTMO-d009-169-n800
 OpenBabel09051908243D

 15 14  0  0  0  0  0  0  0  0999 V2000
   -4.3174   -0.5093   -0.0331 C   0  0  0  0  0  0  0  0  0  0  0  0
   -4.3872   -1.8772   -0.4341 C   0  0  0  0  0  0  0  0  0  0  0  0
   -3.1352   -2.1667   -0.7770 C   0  0  0  0  0  0  0  0  0  0  0  0
   -1.8736   -1.7678   -0.9125 C   0  0  0  0  0  0  0  0  0  0  0  0
   -1.9055   -0.4043   -0.4930 C   0  0  0  0  0  0  0  0  0  0  0  0
   -3.1028    0.1763   -0.0730 C   0  0  0  0  0  0  0  0  0  0  0  0
   -5.2291   -0.0191    0.3017 H   0  0  0  0  0  0  0  0  0  0  0  0
   -5.2870   -2.4827   -0.4357 H   0  0  0  0  0  0  0  0  0  0  0  0
   -0.9900   -2.2974   -1.2515 H   0  0  0  0  0  0  0  0  0  0  0  0
   -0.9788    0.1659   -0.5075 H   0  0  0  0  0  0  0  0  0  0  0  0
   -3.0830    1.5994    0.3539 N   0  0  0  0  0  0  0  0  0  0  0  0
   -4.1515    2.0662    0.7202 O   0  0  0  0  0  0  0  0  0  0  0  0
   -1.9999    2.1630    0.2965 O   0  0  0  0  0  0  0  0  0  0  0  0
    8.7336    8.7204    0.9596 N   0  0  0  0  0  0  0  0  0  0  0  0
    9.3187    9.6350    1.1666 N   0  0  0  0  0  0  0  0  0  0  0  0
  1  7  1  0  0  0  0
  2  1  2  0  0  0  0
  3  2  1  0  0  0  0
  4  3  2  0  0  0  0
  4  5  1  0  0  0  0
  5  6  2  0  0  0  0
  6  1  1  0  0  0  0
  6 11  1  0  0  0  0
  8  2  1  0  0  0  0
  9  4  1  0  0  0  0
 10  5  1  0  0  0  0
 11 12  2  0  0  0  0
 13 11  2  0  0  0  0
 14 15  3  0  0  0  0
M  RAD  1   3   2
M  END
