Coordinates from ORCA-job 4-NO2-Ph-N2+-B3LYPG-6-31G_dp-MTMO-d009-169-n800
 OpenBabel09051908243D

 15 15  0  0  0  0  0  0  0  0999 V2000
   -2.0440   -0.2117   -0.6295 C   0  0  0  0  0  0  0  0  0  0  0  0
   -0.6526   -0.2324   -0.7381 C   0  0  0  0  0  0  0  0  0  0  0  0
   -0.0228    0.8668   -0.1777 C   0  0  0  0  0  0  0  0  0  0  0  0
   -0.5681    1.9661    0.4649 C   0  0  0  0  0  0  0  0  0  0  0  0
   -1.9610    1.9456    0.5510 C   0  0  0  0  0  0  0  0  0  0  0  0
   -2.6583    0.8671    0.0067 C   0  0  0  0  0  0  0  0  0  0  0  0
   -2.6502   -1.0164   -1.0295 H   0  0  0  0  0  0  0  0  0  0  0  0
   -0.1206   -1.0437   -1.2205 H   0  0  0  0  0  0  0  0  0  0  0  0
    0.0259    2.7769    0.8691 H   0  0  0  0  0  0  0  0  0  0  0  0
   -2.5057    2.7505    1.0314 H   0  0  0  0  0  0  0  0  0  0  0  0
   -4.1463    0.8669    0.1116 N   0  0  0  0  0  0  0  0  0  0  0  0
   -4.7253   -0.0939   -0.3752 O   0  0  0  0  0  0  0  0  0  0  0  0
   -4.6516    1.8274    0.6752 O   0  0  0  0  0  0  0  0  0  0  0  0
    1.5942    0.8663   -0.2906 N   0  0  0  0  0  0  0  0  0  0  0  0
    2.6979    0.8659   -0.3675 N   0  0  0  0  0  0  0  0  0  0  0  0
  1  6  1  0  0  0  0
  2  1  2  0  0  0  0
  2  3  1  0  0  0  0
  3  4  2  0  0  0  0
  4  5  1  0  0  0  0
  4  9  1  0  0  0  0
  5 10  1  0  0  0  0
  6 11  1  0  0  0  0
  6  5  2  0  0  0  0
  7  1  1  0  0  0  0
  8  2  1  0  0  0  0
 11 13  2  0  0  0  0
 12 11  2  0  0  0  0
 14  3  1  0  0  0  0
 15 14  1  0  0  0  0
M  RAD  2  14   2  15   3
M  END
