Coordinates from ORCA-job 4-NO2-Ph-N2+-B3LYPG-6-31G_dp-MTMO-d009-169-n800
 OpenBabel09051908243D

 15 14  0  0  0  0  0  0  0  0999 V2000
   -4.3516   -0.5356   -0.0337 C   0  0  0  0  0  0  0  0  0  0  0  0
   -4.4242   -1.9041   -0.4323 C   0  0  0  0  0  0  0  0  0  0  0  0
   -3.1736   -2.1956   -0.7785 C   0  0  0  0  0  0  0  0  0  0  0  0
   -1.9119   -1.7986   -0.9184 C   0  0  0  0  0  0  0  0  0  0  0  0
   -1.9410   -0.4343   -0.5010 C   0  0  0  0  0  0  0  0  0  0  0  0
   -3.1363    0.1484   -0.0784 C   0  0  0  0  0  0  0  0  0  0  0  0
   -5.2617   -0.0437    0.3029 H   0  0  0  0  0  0  0  0  0  0  0  0
   -5.3247   -2.5085   -0.4302 H   0  0  0  0  0  0  0  0  0  0  0  0
   -1.0300   -2.3297   -1.2591 H   0  0  0  0  0  0  0  0  0  0  0  0
   -1.0136    0.1347   -0.5193 H   0  0  0  0  0  0  0  0  0  0  0  0
   -3.1135    1.5722    0.3460 N   0  0  0  0  0  0  0  0  0  0  0  0
   -4.1804    2.0409    0.7148 O   0  0  0  0  0  0  0  0  0  0  0  0
   -2.0299    2.1344    0.2845 O   0  0  0  0  0  0  0  0  0  0  0  0
    8.9632    8.9011    0.9874 N   0  0  0  0  0  0  0  0  0  0  0  0
    9.5406    9.8201    1.1964 N   0  0  0  0  0  0  0  0  0  0  0  0
  1  7  1  0  0  0  0
  2  8  1  0  0  0  0
  2  1  2  0  0  0  0
  3  2  1  0  0  0  0
  4  3  2  0  0  0  0
  4  5  1  0  0  0  0
  5  6  2  0  0  0  0
  6  1  1  0  0  0  0
  6 11  1  0  0  0  0
  9  4  1  0  0  0  0
 10  5  1  0  0  0  0
 11 12  2  0  0  0  0
 13 11  2  0  0  0  0
 14 15  3  0  0  0  0
M  RAD  1   3   2
M  END
