Coordinates from ORCA-job 4-NO2-Ph-N2+-B3LYPG-6-31G_dp-MTMO-d009-169-n800
 OpenBabel09051908243D

 15 14  0  0  0  0  0  0  0  0999 V2000
   -3.5244    0.0320   -0.0265 C   0  0  0  0  0  0  0  0  0  0  0  0
   -3.4047   -1.3127   -0.4888 C   0  0  0  0  0  0  0  0  0  0  0  0
   -2.1045   -1.4441   -0.7362 C   0  0  0  0  0  0  0  0  0  0  0  0
   -0.8903   -0.9014   -0.7480 C   0  0  0  0  0  0  0  0  0  0  0  0
   -1.1116    0.4273   -0.2762 C   0  0  0  0  0  0  0  0  0  0  0  0
   -2.3971    0.8492    0.0650 C   0  0  0  0  0  0  0  0  0  0  0  0
   -4.5098    0.4012    0.2498 H   0  0  0  0  0  0  0  0  0  0  0  0
   -4.2262   -2.0131   -0.5930 H   0  0  0  0  0  0  0  0  0  0  0  0
    0.0725   -1.3111   -1.0327 H   0  0  0  0  0  0  0  0  0  0  0  0
   -0.2579    1.0967   -0.1889 H   0  0  0  0  0  0  0  0  0  0  0  0
   -2.5753    2.2421    0.5510 N   0  0  0  0  0  0  0  0  0  0  0  0
   -3.7172    2.5683    0.8408 O   0  0  0  0  0  0  0  0  0  0  0  0
   -1.5630    2.9241    0.6127 O   0  0  0  0  0  0  0  0  0  0  0  0
    3.5677    4.2944    0.2520 N   0  0  0  0  0  0  0  0  0  0  0  0
    4.2532    5.1486    0.4002 N   0  0  0  0  0  0  0  0  0  0  0  0
  1  6  1  0  0  0  0
  1  7  1  0  0  0  0
  2  1  2  0  0  0  0
  3  2  1  0  0  0  0
  4  3  2  0  0  0  0
  4  5  1  0  0  0  0
  5 10  1  0  0  0  0
  5  6  2  0  0  0  0
  6 11  1  0  0  0  0
  8  2  1  0  0  0  0
  9  4  1  0  0  0  0
 11 13  2  0  0  0  0
 11 12  2  0  0  0  0
 14 15  3  0  0  0  0
M  RAD  1   3   2
M  END
