Coordinates from ORCA-job 4-NO2-Ph-N2+-B3LYPG-6-31G_dp-MTMO-d009-169-n800
 OpenBabel09051908243D

 15 14  0  0  0  0  0  0  0  0999 V2000
   -3.7898   -0.1185   -0.0249 C   0  0  0  0  0  0  0  0  0  0  0  0
   -3.7869   -1.4759   -0.4656 C   0  0  0  0  0  0  0  0  0  0  0  0
   -2.5094   -1.7085   -0.7536 C   0  0  0  0  0  0  0  0  0  0  0  0
   -1.2592   -1.2588   -0.8159 C   0  0  0  0  0  0  0  0  0  0  0  0
   -1.3644    0.0899   -0.3616 C   0  0  0  0  0  0  0  0  0  0  0  0
   -2.6022    0.6129    0.0142 C   0  0  0  0  0  0  0  0  0  0  0  0
   -4.7350    0.3275    0.2771 H   0  0  0  0  0  0  0  0  0  0  0  0
   -4.6614   -2.1141   -0.5286 H   0  0  0  0  0  0  0  0  0  0  0  0
   -0.3403   -1.7446   -1.1249 H   0  0  0  0  0  0  0  0  0  0  0  0
   -0.4608    0.6944   -0.3149 H   0  0  0  0  0  0  0  0  0  0  0  0
   -2.6587    2.0226    0.4804 N   0  0  0  0  0  0  0  0  0  0  0  0
   -3.7623    2.4395    0.8002 O   0  0  0  0  0  0  0  0  0  0  0  0
   -1.5961    2.6264    0.4985 O   0  0  0  0  0  0  0  0  0  0  0  0
    5.2419    5.8675    0.5133 N   0  0  0  0  0  0  0  0  0  0  0  0
    5.8959    6.7413    0.6873 N   0  0  0  0  0  0  0  0  0  0  0  0
  1  6  1  0  0  0  0
  1  7  1  0  0  0  0
  2  1  2  0  0  0  0
  3  2  1  0  0  0  0
  4  3  2  0  0  0  0
  4  5  1  0  0  0  0
  5 10  1  0  0  0  0
  5  6  2  0  0  0  0
  6 11  1  0  0  0  0
  8  2  1  0  0  0  0
  9  4  1  0  0  0  0
 11 13  2  0  0  0  0
 11 12  2  0  0  0  0
 14 15  3  0  0  0  0
M  RAD  1   3   2
M  END
