Coordinates from ORCA-job 4-NO2-Ph-N2+-B3LYPG-6-31G_dp-MTMO-d009-169-n800
 OpenBabel09051908243D

 15 14  0  0  0  0  0  0  0  0999 V2000
   -2.3634   -0.2138   -0.6112 C   0  0  0  0  0  0  0  0  0  0  0  0
   -0.9436   -0.2641   -0.7437 C   0  0  0  0  0  0  0  0  0  0  0  0
   -0.5335    0.8569   -0.1571 C   0  0  0  0  0  0  0  0  0  0  0  0
   -0.8420    1.9805    0.4843 C   0  0  0  0  0  0  0  0  0  0  0  0
   -2.2659    1.9406    0.5678 C   0  0  0  0  0  0  0  0  0  0  0  0
   -2.9736    0.8658    0.0284 C   0  0  0  0  0  0  0  0  0  0  0  0
   -2.9533   -1.0326   -1.0175 H   0  0  0  0  0  0  0  0  0  0  0  0
   -0.3871   -1.0625   -1.2222 H   0  0  0  0  0  0  0  0  0  0  0  0
   -0.2136    2.7741    0.8733 H   0  0  0  0  0  0  0  0  0  0  0  0
   -2.7819    2.7638    1.0576 H   0  0  0  0  0  0  0  0  0  0  0  0
   -4.4551    0.8709    0.1416 N   0  0  0  0  0  0  0  0  0  0  0  0
   -5.0354   -0.0896   -0.3431 O   0  0  0  0  0  0  0  0  0  0  0  0
   -4.9485    1.8348    0.7088 O   0  0  0  0  0  0  0  0  0  0  0  0
    3.6027    0.8868   -0.4097 N   0  0  0  0  0  0  0  0  0  0  0  0
    4.7058    0.8898   -0.4761 N   0  0  0  0  0  0  0  0  0  0  0  0
  1  6  1  0  0  0  0
  2  1  2  0  0  0  0
  2  3  1  0  0  0  0
  3  4  2  0  0  0  0
  4  5  1  0  0  0  0
  4  9  1  0  0  0  0
  5 10  1  0  0  0  0
  6 11  1  0  0  0  0
  6  5  2  0  0  0  0
  7  1  1  0  0  0  0
  8  2  1  0  0  0  0
 11 13  2  0  0  0  0
 12 11  2  0  0  0  0
 15 14  3  0  0  0  0
M  RAD  1   3   2
M  END
