Coordinates from ORCA-job 4-NO2-Ph-N2+-B3LYPG-6-31G_dp-MTMO-d009-169-n800
 OpenBabel09051908243D

 15 14  0  0  0  0  0  0  0  0999 V2000
   -2.4727   -0.2224   -0.6095 C   0  0  0  0  0  0  0  0  0  0  0  0
   -1.0544   -0.2883   -0.7528 C   0  0  0  0  0  0  0  0  0  0  0  0
   -0.6286    0.8288   -0.1700 C   0  0  0  0  0  0  0  0  0  0  0  0
   -0.9193    1.9561    0.4731 C   0  0  0  0  0  0  0  0  0  0  0  0
   -2.3431    1.9314    0.5672 C   0  0  0  0  0  0  0  0  0  0  0  0
   -3.0665    0.8640    0.0340 C   0  0  0  0  0  0  0  0  0  0  0  0
   -3.0742   -1.0352   -1.0110 H   0  0  0  0  0  0  0  0  0  0  0  0
   -0.5108   -1.0933   -1.2353 H   0  0  0  0  0  0  0  0  0  0  0  0
   -0.2801    2.7435    0.8572 H   0  0  0  0  0  0  0  0  0  0  0  0
   -2.8463    2.7606    1.0604 H   0  0  0  0  0  0  0  0  0  0  0  0
   -4.5469    0.8850    0.1585 N   0  0  0  0  0  0  0  0  0  0  0  0
   -5.1410   -0.0695   -0.3211 O   0  0  0  0  0  0  0  0  0  0  0  0
   -5.0255    1.8546    0.7287 O   0  0  0  0  0  0  0  0  0  0  0  0
    4.2087    0.9372   -0.4198 N   0  0  0  0  0  0  0  0  0  0  0  0
    5.3122    0.9490   -0.4784 N   0  0  0  0  0  0  0  0  0  0  0  0
  1  6  1  0  0  0  0
  2  1  2  0  0  0  0
  2  3  1  0  0  0  0
  3  4  2  0  0  0  0
  4  5  1  0  0  0  0
  4  9  1  0  0  0  0
  5 10  1  0  0  0  0
  6 11  1  0  0  0  0
  6  5  2  0  0  0  0
  7  1  1  0  0  0  0
  8  2  1  0  0  0  0
 11 13  2  0  0  0  0
 12 11  2  0  0  0  0
 15 14  3  0  0  0  0
M  RAD  1   3   2
M  END
