Coordinates from ORCA-job 4-NO2-Ph-N2+-B3LYPG-6-31G_dp-MTMO-d009-169-n800
 OpenBabel09051908243D

 15 14  0  0  0  0  0  0  0  0999 V2000
   -3.6383   -0.0300   -0.0230 C   0  0  0  0  0  0  0  0  0  0  0  0
   -3.5741   -1.3823   -0.4744 C   0  0  0  0  0  0  0  0  0  0  0  0
   -2.2838   -1.5613   -0.7428 C   0  0  0  0  0  0  0  0  0  0  0  0
   -1.0518   -1.0618   -0.7808 C   0  0  0  0  0  0  0  0  0  0  0  0
   -1.2180    0.2779   -0.3177 C   0  0  0  0  0  0  0  0  0  0  0  0
   -2.4817    0.7478    0.0416 C   0  0  0  0  0  0  0  0  0  0  0  0
   -4.6053    0.3758    0.2665 H   0  0  0  0  0  0  0  0  0  0  0  0
   -4.4214   -2.0542   -0.5573 H   0  0  0  0  0  0  0  0  0  0  0  0
   -0.1094   -1.5080   -1.0785 H   0  0  0  0  0  0  0  0  0  0  0  0
   -0.3402    0.9176   -0.2516 H   0  0  0  0  0  0  0  0  0  0  0  0
   -2.6023    2.1501    0.5179 N   0  0  0  0  0  0  0  0  0  0  0  0
   -3.7273    2.5205    0.8202 O   0  0  0  0  0  0  0  0  0  0  0  0
   -1.5648    2.7949    0.5607 O   0  0  0  0  0  0  0  0  0  0  0  0
    4.2837    4.9731    0.3656 N   0  0  0  0  0  0  0  0  0  0  0  0
    4.9461    5.8415    0.5346 N   0  0  0  0  0  0  0  0  0  0  0  0
  1  6  1  0  0  0  0
  1  7  1  0  0  0  0
  2  1  2  0  0  0  0
  3  2  1  0  0  0  0
  4  3  2  0  0  0  0
  4  5  1  0  0  0  0
  5 10  1  0  0  0  0
  5  6  2  0  0  0  0
  6 11  1  0  0  0  0
  8  2  1  0  0  0  0
  9  4  1  0  0  0  0
 11 13  2  0  0  0  0
 11 12  2  0  0  0  0
 14 15  3  0  0  0  0
M  RAD  1   3   2
M  END
