Coordinates from ORCA-job 4-NO2-Ph-N2+-B3LYPG-6-31G_dp-MTMO-d009-169-n800
 OpenBabel09051908243D

 15 14  0  0  0  0  0  0  0  0999 V2000
   -2.0896   -0.2104   -0.6258 C   0  0  0  0  0  0  0  0  0  0  0  0
   -0.6834   -0.2450   -0.7431 C   0  0  0  0  0  0  0  0  0  0  0  0
   -0.1705    0.8670   -0.1677 C   0  0  0  0  0  0  0  0  0  0  0  0
   -0.5979    1.9788    0.4738 C   0  0  0  0  0  0  0  0  0  0  0  0
   -2.0067    1.9444    0.5536 C   0  0  0  0  0  0  0  0  0  0  0  0
   -2.7052    0.8671    0.0100 C   0  0  0  0  0  0  0  0  0  0  0  0
   -2.6861   -1.0223   -1.0302 H   0  0  0  0  0  0  0  0  0  0  0  0
   -0.1385   -1.0483   -1.2221 H   0  0  0  0  0  0  0  0  0  0  0  0
    0.0085    2.7819    0.8726 H   0  0  0  0  0  0  0  0  0  0  0  0
   -2.5411    2.7565    1.0371 H   0  0  0  0  0  0  0  0  0  0  0  0
   -4.1897    0.8669    0.1147 N   0  0  0  0  0  0  0  0  0  0  0  0
   -4.7676   -0.0945   -0.3722 O   0  0  0  0  0  0  0  0  0  0  0  0
   -4.6939    1.8276    0.6786 O   0  0  0  0  0  0  0  0  0  0  0  0
    1.8860    0.8661   -0.3109 N   0  0  0  0  0  0  0  0  0  0  0  0
    2.9872    0.8657   -0.3871 N   0  0  0  0  0  0  0  0  0  0  0  0
  1  6  1  0  0  0  0
  2  1  2  0  0  0  0
  2  3  1  0  0  0  0
  3  4  2  0  0  0  0
  4  5  1  0  0  0  0
  4  9  1  0  0  0  0
  5 10  1  0  0  0  0
  6 11  1  0  0  0  0
  6  5  2  0  0  0  0
  7  1  1  0  0  0  0
  8  2  1  0  0  0  0
 11 13  2  0  0  0  0
 12 11  2  0  0  0  0
 15 14  3  0  0  0  0
M  RAD  1   3   2
M  END
