Coordinates from ORCA-job 4-NO2-Ph-N2+-B3LYPG-6-31G_dp-MTMO-d009-169-n800
 OpenBabel09051908243D

 15 14  0  0  0  0  0  0  0  0999 V2000
   -2.4534   -0.2206   -0.6097 C   0  0  0  0  0  0  0  0  0  0  0  0
   -1.0347   -0.2832   -0.7508 C   0  0  0  0  0  0  0  0  0  0  0  0
   -0.6122    0.8348   -0.1673 C   0  0  0  0  0  0  0  0  0  0  0  0
   -0.9067    1.9613    0.4756 C   0  0  0  0  0  0  0  0  0  0  0  0
   -2.3305    1.9334    0.5675 C   0  0  0  0  0  0  0  0  0  0  0  0
   -3.0506    0.8644    0.0330 C   0  0  0  0  0  0  0  0  0  0  0  0
   -3.0524   -1.0347   -1.0121 H   0  0  0  0  0  0  0  0  0  0  0  0
   -0.4885   -1.0868   -1.2325 H   0  0  0  0  0  0  0  0  0  0  0  0
   -0.2698    2.7501    0.8607 H   0  0  0  0  0  0  0  0  0  0  0  0
   -2.8364    2.7612    1.0601 H   0  0  0  0  0  0  0  0  0  0  0  0
   -4.5313    0.8820    0.1553 N   0  0  0  0  0  0  0  0  0  0  0  0
   -5.1224   -0.0739   -0.3254 O   0  0  0  0  0  0  0  0  0  0  0  0
   -5.0129    1.8503    0.7249 O   0  0  0  0  0  0  0  0  0  0  0  0
    4.1049    0.9266   -0.4191 N   0  0  0  0  0  0  0  0  0  0  0  0
    5.2084    0.9366   -0.4791 N   0  0  0  0  0  0  0  0  0  0  0  0
  1  6  1  0  0  0  0
  2  1  2  0  0  0  0
  2  3  1  0  0  0  0
  3  4  2  0  0  0  0
  4  5  1  0  0  0  0
  4  9  1  0  0  0  0
  5 10  1  0  0  0  0
  6 11  1  0  0  0  0
  6  5  2  0  0  0  0
  7  1  1  0  0  0  0
  8  2  1  0  0  0  0
 11 13  2  0  0  0  0
 12 11  2  0  0  0  0
 15 14  3  0  0  0  0
M  RAD  1   3   2
M  END
