Coordinates from ORCA-job 4-NO2-Ph-N2+-B3LYPG-6-31G_dp-MTMO-d009-169-n800
 OpenBabel09051908243D

 15 14  0  0  0  0  0  0  0  0999 V2000
   -3.9892   -0.2592   -0.0250 C   0  0  0  0  0  0  0  0  0  0  0  0
   -4.0272   -1.6214   -0.4487 C   0  0  0  0  0  0  0  0  0  0  0  0
   -2.7621   -1.8875   -0.7616 C   0  0  0  0  0  0  0  0  0  0  0  0
   -1.5035   -1.4681   -0.8565 C   0  0  0  0  0  0  0  0  0  0  0  0
   -1.5676   -0.1119   -0.4171 C   0  0  0  0  0  0  0  0  0  0  0  0
   -2.7843    0.4445   -0.0211 C   0  0  0  0  0  0  0  0  0  0  0  0
   -4.9170    0.2124    0.2919 H   0  0  0  0  0  0  0  0  0  0  0  0
   -4.9172   -2.2401   -0.4844 H   0  0  0  0  0  0  0  0  0  0  0  0
   -0.6028   -1.9785   -1.1793 H   0  0  0  0  0  0  0  0  0  0  0  0
   -0.6495    0.4718   -0.3977 H   0  0  0  0  0  0  0  0  0  0  0  0
   -2.7976    1.8607    0.4281 N   0  0  0  0  0  0  0  0  0  0  0  0
   -3.8833    2.3068    0.7692 O   0  0  0  0  0  0  0  0  0  0  0  0
   -1.7215    2.4403    0.4125 O   0  0  0  0  0  0  0  0  0  0  0  0
    6.5456    6.9768    0.6896 N   0  0  0  0  0  0  0  0  0  0  0  0
    7.1888    7.8550    0.8811 N   0  0  0  0  0  0  0  0  0  0  0  0
  1  6  1  0  0  0  0
  1  7  1  0  0  0  0
  2  1  2  0  0  0  0
  3  2  1  0  0  0  0
  4  3  2  0  0  0  0
  4  5  1  0  0  0  0
  5 10  1  0  0  0  0
  5  6  2  0  0  0  0
  6 11  1  0  0  0  0
  8  2  1  0  0  0  0
  9  4  1  0  0  0  0
 11 12  2  0  0  0  0
 13 11  2  0  0  0  0
 14 15  3  0  0  0  0
M  RAD  1   3   2
M  END
