Coordinates from ORCA-job 4-NO2-Ph-N2+-B3LYPG-6-31G_dp-MTMO-d009-169-n800
 OpenBabel09051908243D

 15 14  0  0  0  0  0  0  0  0999 V2000
   -2.1744   -0.2102   -0.6207 C   0  0  0  0  0  0  0  0  0  0  0  0
   -0.7569   -0.2527   -0.7448 C   0  0  0  0  0  0  0  0  0  0  0  0
   -0.3321    0.8676   -0.1589 C   0  0  0  0  0  0  0  0  0  0  0  0
   -0.6701    1.9876    0.4815 C   0  0  0  0  0  0  0  0  0  0  0  0
   -2.0909    1.9445    0.5590 C   0  0  0  0  0  0  0  0  0  0  0  0
   -2.7915    0.8670    0.0161 C   0  0  0  0  0  0  0  0  0  0  0  0
   -2.7619   -1.0290   -1.0288 H   0  0  0  0  0  0  0  0  0  0  0  0
   -0.1977   -1.0491   -1.2213 H   0  0  0  0  0  0  0  0  0  0  0  0
   -0.0496    2.7840    0.8745 H   0  0  0  0  0  0  0  0  0  0  0  0
   -2.6155    2.7633    1.0457 H   0  0  0  0  0  0  0  0  0  0  0  0
   -4.2737    0.8663    0.1222 N   0  0  0  0  0  0  0  0  0  0  0  0
   -4.8492   -0.0960   -0.3651 O   0  0  0  0  0  0  0  0  0  0  0  0
   -4.7750    1.8277    0.6870 O   0  0  0  0  0  0  0  0  0  0  0  0
    2.4239    0.8659   -0.3466 N   0  0  0  0  0  0  0  0  0  0  0  0
    3.5261    0.8647   -0.4187 N   0  0  0  0  0  0  0  0  0  0  0  0
  1  6  1  0  0  0  0
  2  1  2  0  0  0  0
  2  3  1  0  0  0  0
  3  4  2  0  0  0  0
  4  5  1  0  0  0  0
  4  9  1  0  0  0  0
  5 10  1  0  0  0  0
  6 11  1  0  0  0  0
  6  5  2  0  0  0  0
  7  1  1  0  0  0  0
  8  2  1  0  0  0  0
 11 13  2  0  0  0  0
 12 11  2  0  0  0  0
 15 14  3  0  0  0  0
M  RAD  1   3   2
M  END
