Coordinates from ORCA-job 4-NO2-Ph-N2+-B3LYPG-6-31G_dp-MTMO-d009-169-n800
 OpenBabel09051908243D

 15 14  0  0  0  0  0  0  0  0999 V2000
   -4.3556   -0.5387   -0.0338 C   0  0  0  0  0  0  0  0  0  0  0  0
   -4.4286   -1.9073   -0.4321 C   0  0  0  0  0  0  0  0  0  0  0  0
   -3.1781   -2.1991   -0.7786 C   0  0  0  0  0  0  0  0  0  0  0  0
   -1.9164   -1.8022   -0.9191 C   0  0  0  0  0  0  0  0  0  0  0  0
   -1.9451   -0.4379   -0.5019 C   0  0  0  0  0  0  0  0  0  0  0  0
   -3.1402    0.1451   -0.0791 C   0  0  0  0  0  0  0  0  0  0  0  0
   -5.2656   -0.0466    0.3030 H   0  0  0  0  0  0  0  0  0  0  0  0
   -5.3292   -2.5115   -0.4295 H   0  0  0  0  0  0  0  0  0  0  0  0
   -1.0347   -2.3336   -1.2600 H   0  0  0  0  0  0  0  0  0  0  0  0
   -1.0177    0.1311   -0.5207 H   0  0  0  0  0  0  0  0  0  0  0  0
   -3.1171    1.5690    0.3451 N   0  0  0  0  0  0  0  0  0  0  0  0
   -4.1838    2.0379    0.7141 O   0  0  0  0  0  0  0  0  0  0  0  0
   -2.0333    2.1310    0.2831 O   0  0  0  0  0  0  0  0  0  0  0  0
    8.9902    8.9224    0.9907 N   0  0  0  0  0  0  0  0  0  0  0  0
    9.5667    9.8419    1.1999 N   0  0  0  0  0  0  0  0  0  0  0  0
  1  7  1  0  0  0  0
  2  8  1  0  0  0  0
  2  1  2  0  0  0  0
  3  2  1  0  0  0  0
  4  3  2  0  0  0  0
  4  5  1  0  0  0  0
  5  6  2  0  0  0  0
  6  1  1  0  0  0  0
  6 11  1  0  0  0  0
  9  4  1  0  0  0  0
 10  5  1  0  0  0  0
 11 12  2  0  0  0  0
 13 11  2  0  0  0  0
 14 15  3  0  0  0  0
M  RAD  1   3   2
M  END
