Coordinates from ORCA-job 4-NO2-Ph-N2+-B3LYPG-6-31G_dp-MTMO-d009-169-n800
 OpenBabel09051908243D

 15 14  0  0  0  0  0  0  0  0999 V2000
   -2.1590   -0.2102   -0.6215 C   0  0  0  0  0  0  0  0  0  0  0  0
   -0.7426   -0.2521   -0.7448 C   0  0  0  0  0  0  0  0  0  0  0  0
   -0.3099    0.8675   -0.1597 C   0  0  0  0  0  0  0  0  0  0  0  0
   -0.6561    1.9868    0.4807 C   0  0  0  0  0  0  0  0  0  0  0  0
   -2.0758    1.9444    0.5581 C   0  0  0  0  0  0  0  0  0  0  0  0
   -2.7761    0.8670    0.0150 C   0  0  0  0  0  0  0  0  0  0  0  0
   -2.7473   -1.0284   -1.0294 H   0  0  0  0  0  0  0  0  0  0  0  0
   -0.1849   -1.0492   -1.2215 H   0  0  0  0  0  0  0  0  0  0  0  0
   -0.0371    2.7839    0.8744 H   0  0  0  0  0  0  0  0  0  0  0  0
   -2.6012    2.7627    1.0444 H   0  0  0  0  0  0  0  0  0  0  0  0
   -4.2585    0.8664    0.1207 N   0  0  0  0  0  0  0  0  0  0  0  0
   -4.8343   -0.0958   -0.3666 O   0  0  0  0  0  0  0  0  0  0  0  0
   -4.7602    1.8278    0.6853 O   0  0  0  0  0  0  0  0  0  0  0  0
    2.3261    0.8659   -0.3406 N   0  0  0  0  0  0  0  0  0  0  0  0
    3.4282    0.8647   -0.4134 N   0  0  0  0  0  0  0  0  0  0  0  0
  1  6  1  0  0  0  0
  2  1  2  0  0  0  0
  2  3  1  0  0  0  0
  3  4  2  0  0  0  0
  4  5  1  0  0  0  0
  4  9  1  0  0  0  0
  5 10  1  0  0  0  0
  6 11  1  0  0  0  0
  6  5  2  0  0  0  0
  7  1  1  0  0  0  0
  8  2  1  0  0  0  0
 11 13  2  0  0  0  0
 12 11  2  0  0  0  0
 15 14  3  0  0  0  0
M  RAD  1   3   2
M  END
