Coordinates from ORCA-job 4-NO2-Ph-N2+-B3LYPG-6-31G_dp-MTMO-d009-169-n800
 OpenBabel09051908243D

 15 14  0  0  0  0  0  0  0  0999 V2000
   -2.5460   -0.2302   -0.6091 C   0  0  0  0  0  0  0  0  0  0  0  0
   -1.1292   -0.3111   -0.7606 C   0  0  0  0  0  0  0  0  0  0  0  0
   -0.6884    0.8017   -0.1809 C   0  0  0  0  0  0  0  0  0  0  0  0
   -0.9634    1.9324    0.4632 C   0  0  0  0  0  0  0  0  0  0  0  0
   -2.3868    1.9228    0.5655 C   0  0  0  0  0  0  0  0  0  0  0  0
   -3.1245    0.8628    0.0371 C   0  0  0  0  0  0  0  0  0  0  0  0
   -3.1582   -1.0369   -1.0066 H   0  0  0  0  0  0  0  0  0  0  0  0
   -0.5972   -1.1222   -1.2458 H   0  0  0  0  0  0  0  0  0  0  0  0
   -0.3139    2.7133    0.8433 H   0  0  0  0  0  0  0  0  0  0  0  0
   -2.8783    2.7575    1.0612 H   0  0  0  0  0  0  0  0  0  0  0  0
   -4.6039    0.8995    0.1702 N   0  0  0  0  0  0  0  0  0  0  0  0
   -5.2107   -0.0491   -0.3053 O   0  0  0  0  0  0  0  0  0  0  0  0
   -5.0689    1.8744    0.7425 O   0  0  0  0  0  0  0  0  0  0  0  0
    4.5885    0.9840   -0.4202 N   0  0  0  0  0  0  0  0  0  0  0  0
    5.6923    1.0027   -0.4735 N   0  0  0  0  0  0  0  0  0  0  0  0
  1  6  1  0  0  0  0
  2  1  2  0  0  0  0
  2  3  1  0  0  0  0
  3  4  2  0  0  0  0
  4  5  1  0  0  0  0
  4  9  1  0  0  0  0
  5 10  1  0  0  0  0
  6 11  1  0  0  0  0
  6  5  2  0  0  0  0
  7  1  1  0  0  0  0
  8  2  1  0  0  0  0
 11 13  2  0  0  0  0
 12 11  2  0  0  0  0
 15 14  3  0  0  0  0
M  RAD  1   3   2
M  END
