Coordinates from ORCA-job 4-NO2-Ph-N2+-B3LYPG-6-31G_dp-MTMO-d009-169-n800
 OpenBabel09051908243D

 15 14  0  0  0  0  0  0  0  0999 V2000
   -4.0638   -0.3122   -0.0246 C   0  0  0  0  0  0  0  0  0  0  0  0
   -4.1171   -1.6761   -0.4414 C   0  0  0  0  0  0  0  0  0  0  0  0
   -2.8572   -1.9541   -0.7640 C   0  0  0  0  0  0  0  0  0  0  0  0
   -1.5959   -1.5459   -0.8719 C   0  0  0  0  0  0  0  0  0  0  0  0
   -1.6446   -0.1872   -0.4385 C   0  0  0  0  0  0  0  0  0  0  0  0
   -2.8530    0.3814   -0.0346 C   0  0  0  0  0  0  0  0  0  0  0  0
   -4.9847    0.1687    0.2983 H   0  0  0  0  0  0  0  0  0  0  0  0
   -5.0128   -2.2872   -0.4662 H   0  0  0  0  0  0  0  0  0  0  0  0
   -0.7027   -2.0659   -1.2002 H   0  0  0  0  0  0  0  0  0  0  0  0
   -0.7214    0.3889   -0.4299 H   0  0  0  0  0  0  0  0  0  0  0  0
   -2.8504    1.7998    0.4079 N   0  0  0  0  0  0  0  0  0  0  0  0
   -3.9291    2.2564    0.7573 O   0  0  0  0  0  0  0  0  0  0  0  0
   -1.7698    2.3703    0.3789 O   0  0  0  0  0  0  0  0  0  0  0  0
    7.0391    7.3908    0.7577 N   0  0  0  0  0  0  0  0  0  0  0  0
    7.6749    8.2738    0.9523 N   0  0  0  0  0  0  0  0  0  0  0  0
  1  7  1  0  0  0  0
  2  1  2  0  0  0  0
  3  2  1  0  0  0  0
  4  3  2  0  0  0  0
  4  5  1  0  0  0  0
  5 10  1  0  0  0  0
  5  6  2  0  0  0  0
  6  1  1  0  0  0  0
  6 11  1  0  0  0  0
  8  2  1  0  0  0  0
  9  4  1  0  0  0  0
 11 12  2  0  0  0  0
 13 11  2  0  0  0  0
 14 15  3  0  0  0  0
M  RAD  1   3   2
M  END
