Coordinates from ORCA-job 4-NO2-Ph-N2+-B3LYPG-6-31G_dp-MTMO-d009-169-n800
 OpenBabel09051908243D

 15 14  0  0  0  0  0  0  0  0999 V2000
   -2.3784   -0.2146   -0.6109 C   0  0  0  0  0  0  0  0  0  0  0  0
   -0.9587   -0.2664   -0.7447 C   0  0  0  0  0  0  0  0  0  0  0  0
   -0.5472    0.8543   -0.1585 C   0  0  0  0  0  0  0  0  0  0  0  0
   -0.8537    1.9782    0.4832 C   0  0  0  0  0  0  0  0  0  0  0  0
   -2.2776    1.9397    0.5679 C   0  0  0  0  0  0  0  0  0  0  0  0
   -2.9869    0.8656    0.0293 C   0  0  0  0  0  0  0  0  0  0  0  0
   -2.9694   -1.0330   -1.0166 H   0  0  0  0  0  0  0  0  0  0  0  0
   -0.4035   -1.0655   -1.2237 H   0  0  0  0  0  0  0  0  0  0  0  0
   -0.2242    2.7713    0.8715 H   0  0  0  0  0  0  0  0  0  0  0  0
   -2.7923    2.7635    1.0582 H   0  0  0  0  0  0  0  0  0  0  0  0
   -4.4683    0.8722    0.1438 N   0  0  0  0  0  0  0  0  0  0  0  0
   -5.0499   -0.0878   -0.3403 O   0  0  0  0  0  0  0  0  0  0  0  0
   -4.9602    1.8366    0.7114 O   0  0  0  0  0  0  0  0  0  0  0  0
    3.6893    0.8918   -0.4121 N   0  0  0  0  0  0  0  0  0  0  0  0
    4.7924    0.8957   -0.4774 N   0  0  0  0  0  0  0  0  0  0  0  0
  1  6  1  0  0  0  0
  2  1  2  0  0  0  0
  2  3  1  0  0  0  0
  3  4  2  0  0  0  0
  4  5  1  0  0  0  0
  4  9  1  0  0  0  0
  5 10  1  0  0  0  0
  6 11  1  0  0  0  0
  6  5  2  0  0  0  0
  7  1  1  0  0  0  0
  8  2  1  0  0  0  0
 11 13  2  0  0  0  0
 12 11  2  0  0  0  0
 15 14  3  0  0  0  0
M  RAD  1   3   2
M  END
