Coordinates from ORCA-job 4-NO2-Ph-N2+-B3LYPG-6-31G_dp-MTMO-d009-169-n800
 OpenBabel09051908243D

 15 14  0  0  0  0  0  0  0  0999 V2000
   -3.7244   -0.0757   -0.0226 C   0  0  0  0  0  0  0  0  0  0  0  0
   -3.7044   -1.4318   -0.4666 C   0  0  0  0  0  0  0  0  0  0  0  0
   -2.4231   -1.6497   -0.7488 C   0  0  0  0  0  0  0  0  0  0  0  0
   -1.1776   -1.1864   -0.8038 C   0  0  0  0  0  0  0  0  0  0  0  0
   -1.2997    0.1600   -0.3466 C   0  0  0  0  0  0  0  0  0  0  0  0
   -2.5450    0.6685    0.0243 C   0  0  0  0  0  0  0  0  0  0  0  0
   -4.6759    0.3594    0.2756 H   0  0  0  0  0  0  0  0  0  0  0  0
   -4.5716   -2.0795   -0.5353 H   0  0  0  0  0  0  0  0  0  0  0  0
   -0.2520   -1.6611   -1.1100 H   0  0  0  0  0  0  0  0  0  0  0  0
   -0.4031    0.7744   -0.2946 H   0  0  0  0  0  0  0  0  0  0  0  0
   -2.6192    2.0762    0.4941 N   0  0  0  0  0  0  0  0  0  0  0  0
   -3.7297    2.4816    0.8048 O   0  0  0  0  0  0  0  0  0  0  0  0
   -1.5625    2.6898    0.5243 O   0  0  0  0  0  0  0  0  0  0  0  0
    4.8250    5.4994    0.4562 N   0  0  0  0  0  0  0  0  0  0  0  0
    5.4747    6.3764    0.6302 N   0  0  0  0  0  0  0  0  0  0  0  0
  1  6  1  0  0  0  0
  1  7  1  0  0  0  0
  2  1  2  0  0  0  0
  3  2  1  0  0  0  0
  4  3  2  0  0  0  0
  4  5  1  0  0  0  0
  5 10  1  0  0  0  0
  5  6  2  0  0  0  0
  6 11  1  0  0  0  0
  8  2  1  0  0  0  0
  9  4  1  0  0  0  0
 11 13  2  0  0  0  0
 11 12  2  0  0  0  0
 14 15  3  0  0  0  0
M  RAD  1   3   2
M  END
