Coordinates from ORCA-job 4-NO2-Ph-N2+-B3LYPG-6-31G_dp-MTMO-d009-169-n800
 OpenBabel09051908243D

 15 14  0  0  0  0  0  0  0  0999 V2000
   -2.5768   -0.2339   -0.6089 C   0  0  0  0  0  0  0  0  0  0  0  0
   -1.1609   -0.3222   -0.7640 C   0  0  0  0  0  0  0  0  0  0  0  0
   -0.7129    0.7886   -0.1857 C   0  0  0  0  0  0  0  0  0  0  0  0
   -0.9805    1.9208    0.4587 C   0  0  0  0  0  0  0  0  0  0  0  0
   -2.4036    1.9186    0.5646 C   0  0  0  0  0  0  0  0  0  0  0  0
   -3.1481    0.8623    0.0384 C   0  0  0  0  0  0  0  0  0  0  0  0
   -3.1943   -1.0375   -1.0048 H   0  0  0  0  0  0  0  0  0  0  0  0
   -0.6344   -1.1361   -1.2503 H   0  0  0  0  0  0  0  0  0  0  0  0
   -0.3261    2.6986    0.8371 H   0  0  0  0  0  0  0  0  0  0  0  0
   -2.8895    2.7560    1.0613 H   0  0  0  0  0  0  0  0  0  0  0  0
   -4.6270    0.9067    0.1750 N   0  0  0  0  0  0  0  0  0  0  0  0
   -5.2398   -0.0389   -0.2986 O   0  0  0  0  0  0  0  0  0  0  0  0
   -5.0854    1.8842    0.7482 O   0  0  0  0  0  0  0  0  0  0  0  0
    4.7435    1.0062   -0.4192 N   0  0  0  0  0  0  0  0  0  0  0  0
    5.8473    1.0282   -0.4705 N   0  0  0  0  0  0  0  0  0  0  0  0
  1  6  1  0  0  0  0
  2  1  2  0  0  0  0
  2  3  1  0  0  0  0
  3  4  2  0  0  0  0
  4  5  1  0  0  0  0
  4  9  1  0  0  0  0
  5 10  1  0  0  0  0
  6 11  1  0  0  0  0
  6  5  2  0  0  0  0
  7  1  1  0  0  0  0
  8  2  1  0  0  0  0
 11 13  2  0  0  0  0
 12 11  2  0  0  0  0
 15 14  3  0  0  0  0
M  RAD  1   3   2
M  END
