Coordinates from ORCA-job 4-NO2-Ph-N2+-B3LYPG-6-31G_dp-MTMO-d009-169-n800
 OpenBabel09051908243D

 15 14  0  0  0  0  0  0  0  0999 V2000
   -3.8533   -0.1566   -0.0222 C   0  0  0  0  0  0  0  0  0  0  0  0
   -3.8778   -1.5163   -0.4553 C   0  0  0  0  0  0  0  0  0  0  0  0
   -2.6075   -1.7718   -0.7553 C   0  0  0  0  0  0  0  0  0  0  0  0
   -1.3507   -1.3435   -0.8330 C   0  0  0  0  0  0  0  0  0  0  0  0
   -1.4285    0.0093   -0.3853 C   0  0  0  0  0  0  0  0  0  0  0  0
   -2.6533    0.5549    0.0003 C   0  0  0  0  0  0  0  0  0  0  0  0
   -4.7878    0.3068    0.2871 H   0  0  0  0  0  0  0  0  0  0  0  0
   -4.7635   -2.1401   -0.5054 H   0  0  0  0  0  0  0  0  0  0  0  0
   -0.4433   -1.8463   -1.1488 H   0  0  0  0  0  0  0  0  0  0  0  0
   -0.5144    0.5988   -0.3514 H   0  0  0  0  0  0  0  0  0  0  0  0
   -2.6813    1.9680    0.4589 N   0  0  0  0  0  0  0  0  0  0  0  0
   -3.7740    2.4046    0.7897 O   0  0  0  0  0  0  0  0  0  0  0  0
   -1.6089    2.5546    0.4603 O   0  0  0  0  0  0  0  0  0  0  0  0
    5.6543    6.2518    0.5758 N   0  0  0  0  0  0  0  0  0  0  0  0
    6.3016    7.1273    0.7656 N   0  0  0  0  0  0  0  0  0  0  0  0
  1  6  1  0  0  0  0
  1  7  1  0  0  0  0
  2  1  2  0  0  0  0
  3  2  1  0  0  0  0
  4  3  2  0  0  0  0
  4  5  1  0  0  0  0
  5 10  1  0  0  0  0
  5  6  2  0  0  0  0
  6 11  1  0  0  0  0
  8  2  1  0  0  0  0
  9  4  1  0  0  0  0
 11 13  2  0  0  0  0
 11 12  2  0  0  0  0
 14 15  3  0  0  0  0
M  RAD  1   3   2
M  END
