Coordinates from ORCA-job 4-NO2-Ph-N2+-B3LYPG-6-31G_dp-MTMO-d009-169-n800
 OpenBabel09051908243D

 15 14  0  0  0  0  0  0  0  0999 V2000
   -3.3523    0.2205    0.0063 C   0  0  0  0  0  0  0  0  0  0  0  0
   -3.4101   -1.1362   -0.4336 C   0  0  0  0  0  0  0  0  0  0  0  0
   -2.1448   -1.4237   -0.7251 C   0  0  0  0  0  0  0  0  0  0  0  0
   -0.8765   -1.0269   -0.7907 C   0  0  0  0  0  0  0  0  0  0  0  0
   -0.9208    0.3254   -0.3369 C   0  0  0  0  0  0  0  0  0  0  0  0
   -2.1345    0.9005    0.0418 C   0  0  0  0  0  0  0  0  0  0  0  0
   -4.2767    0.7067    0.3110 H   0  0  0  0  0  0  0  0  0  0  0  0
   -4.3119   -1.7357   -0.4929 H   0  0  0  0  0  0  0  0  0  0  0  0
    0.0195   -1.5521   -1.1027 H   0  0  0  0  0  0  0  0  0  0  0  0
    0.0080    0.8917   -0.2933 H   0  0  0  0  0  0  0  0  0  0  0  0
   -2.1302    2.3117    0.5072 N   0  0  0  0  0  0  0  0  0  0  0  0
   -3.2142    2.7742    0.8322 O   0  0  0  0  0  0  0  0  0  0  0  0
   -1.0435    2.8711    0.5192 O   0  0  0  0  0  0  0  0  0  0  0  0
    2.4361    3.9673    0.2966 N   0  0  0  0  0  0  0  0  0  0  0  0
    2.9634    4.9070    0.5419 N   0  0  0  0  0  0  0  0  0  0  0  0
  1  6  1  0  0  0  0
  1  7  1  0  0  0  0
  2  1  2  0  0  0  0
  3  2  1  0  0  0  0
  4  3  2  0  0  0  0
  4  5  1  0  0  0  0
  5 10  1  0  0  0  0
  5  6  2  0  0  0  0
  6 11  1  0  0  0  0
  8  2  1  0  0  0  0
  9  4  1  0  0  0  0
 11 13  2  0  0  0  0
 11 12  2  0  0  0  0
 14 15  3  0  0  0  0
M  RAD  1   3   2
M  END
