Coordinates from ORCA-job 4-NO2-Ph-N2+-B3LYPG-6-31G_dp-MTMO-d009-169-n800
 OpenBabel09051908243D

 15 14  0  0  0  0  0  0  0  0999 V2000
   -2.4059   -0.2165   -0.6104 C   0  0  0  0  0  0  0  0  0  0  0  0
   -0.9865   -0.2716   -0.7469 C   0  0  0  0  0  0  0  0  0  0  0  0
   -0.5715    0.8483   -0.1616 C   0  0  0  0  0  0  0  0  0  0  0  0
   -0.8742    1.9730    0.4805 C   0  0  0  0  0  0  0  0  0  0  0  0
   -2.2980    1.9378    0.5679 C   0  0  0  0  0  0  0  0  0  0  0  0
   -3.0108    0.8652    0.0307 C   0  0  0  0  0  0  0  0  0  0  0  0
   -2.9994   -1.0336   -1.0150 H   0  0  0  0  0  0  0  0  0  0  0  0
   -0.4343   -1.0721   -1.2269 H   0  0  0  0  0  0  0  0  0  0  0  0
   -0.2424    2.7649    0.8677 H   0  0  0  0  0  0  0  0  0  0  0  0
   -2.8098    2.7628    1.0591 H   0  0  0  0  0  0  0  0  0  0  0  0
   -4.4920    0.8750    0.1481 N   0  0  0  0  0  0  0  0  0  0  0  0
   -5.0766   -0.0837   -0.3347 O   0  0  0  0  0  0  0  0  0  0  0  0
   -4.9806    1.8407    0.7165 O   0  0  0  0  0  0  0  0  0  0  0  0
    3.8452    0.9028   -0.4153 N   0  0  0  0  0  0  0  0  0  0  0  0
    4.9485    0.9086   -0.4786 N   0  0  0  0  0  0  0  0  0  0  0  0
  1  6  1  0  0  0  0
  2  1  2  0  0  0  0
  2  3  1  0  0  0  0
  3  4  2  0  0  0  0
  4  5  1  0  0  0  0
  4  9  1  0  0  0  0
  5 10  1  0  0  0  0
  6 11  1  0  0  0  0
  6  5  2  0  0  0  0
  7  1  1  0  0  0  0
  8  2  1  0  0  0  0
 11 13  2  0  0  0  0
 12 11  2  0  0  0  0
 15 14  3  0  0  0  0
M  RAD  1   3   2
M  END
