Coordinates from ORCA-job 4-NO2-Ph-N2+-B3LYPG-6-31G_dp-MTMO-d009-169-n800
 OpenBabel09051908243D

 15 14  0  0  0  0  0  0  0  0999 V2000
   -3.9037   -0.1940   -0.0232 C   0  0  0  0  0  0  0  0  0  0  0  0
   -3.9346   -1.5547   -0.4526 C   0  0  0  0  0  0  0  0  0  0  0  0
   -2.6665   -1.8152   -0.7576 C   0  0  0  0  0  0  0  0  0  0  0  0
   -1.4086   -1.3913   -0.8420 C   0  0  0  0  0  0  0  0  0  0  0  0
   -1.4799   -0.0372   -0.3975 C   0  0  0  0  0  0  0  0  0  0  0  0
   -2.7012    0.5136   -0.0078 C   0  0  0  0  0  0  0  0  0  0  0  0
   -4.8352    0.2732    0.2892 H   0  0  0  0  0  0  0  0  0  0  0  0
   -4.8225   -2.1758   -0.4971 H   0  0  0  0  0  0  0  0  0  0  0  0
   -0.5043   -1.8979   -1.1606 H   0  0  0  0  0  0  0  0  0  0  0  0
   -0.5638    0.5495   -0.3691 H   0  0  0  0  0  0  0  0  0  0  0  0
   -2.7225    1.9279    0.4472 N   0  0  0  0  0  0  0  0  0  0  0  0
   -3.8121    2.3690    0.7821 O   0  0  0  0  0  0  0  0  0  0  0  0
   -1.6481    2.5110    0.4420 O   0  0  0  0  0  0  0  0  0  0  0  0
    5.9842    6.5237    0.6187 N   0  0  0  0  0  0  0  0  0  0  0  0
    6.6304    7.3998    0.8095 N   0  0  0  0  0  0  0  0  0  0  0  0
  1  6  1  0  0  0  0
  1  7  1  0  0  0  0
  2  1  2  0  0  0  0
  3  2  1  0  0  0  0
  4  3  2  0  0  0  0
  4  5  1  0  0  0  0
  5 10  1  0  0  0  0
  5  6  2  0  0  0  0
  6 11  1  0  0  0  0
  8  2  1  0  0  0  0
  9  4  1  0  0  0  0
 11 12  2  0  0  0  0
 13 11  2  0  0  0  0
 14 15  3  0  0  0  0
M  RAD  1   3   2
M  END
