Coordinates from ORCA-job 4-NO2-Ph-N2+-B3LYPG-6-31G_dp-MTMO-d009-169-n800
 OpenBabel09051908243D

 15 14  0  0  0  0  0  0  0  0999 V2000
   -4.1524   -0.3799   -0.0269 C   0  0  0  0  0  0  0  0  0  0  0  0
   -4.2143   -1.7454   -0.4376 C   0  0  0  0  0  0  0  0  0  0  0  0
   -2.9578   -2.0295   -0.7682 C   0  0  0  0  0  0  0  0  0  0  0  0
   -1.6958   -1.6266   -0.8870 C   0  0  0  0  0  0  0  0  0  0  0  0
   -1.7359   -0.2660   -0.4589 C   0  0  0  0  0  0  0  0  0  0  0  0
   -2.9392    0.3089   -0.0486 C   0  0  0  0  0  0  0  0  0  0  0  0
   -5.0692    0.1058    0.3007 H   0  0  0  0  0  0  0  0  0  0  0  0
   -5.1125   -2.3530   -0.4532 H   0  0  0  0  0  0  0  0  0  0  0  0
   -0.8072   -2.1517   -1.2196 H   0  0  0  0  0  0  0  0  0  0  0  0
   -0.8105    0.3066   -0.4593 H   0  0  0  0  0  0  0  0  0  0  0  0
   -2.9279    1.7292    0.3879 N   0  0  0  0  0  0  0  0  0  0  0  0
   -4.0019    2.1913    0.7439 O   0  0  0  0  0  0  0  0  0  0  0  0
   -1.8453    2.2954    0.3479 O   0  0  0  0  0  0  0  0  0  0  0  0
    7.6286    7.8631    0.8308 N   0  0  0  0  0  0  0  0  0  0  0  0
    8.2528    8.7534    1.0291 N   0  0  0  0  0  0  0  0  0  0  0  0
  1  7  1  0  0  0  0
  2  1  2  0  0  0  0
  3  2  1  0  0  0  0
  4  3  2  0  0  0  0
  4  5  1  0  0  0  0
  5  6  2  0  0  0  0
  6  1  1  0  0  0  0
  6 11  1  0  0  0  0
  8  2  1  0  0  0  0
  9  4  1  0  0  0  0
 10  5  1  0  0  0  0
 11 12  2  0  0  0  0
 13 11  2  0  0  0  0
 14 15  3  0  0  0  0
M  RAD  1   3   2
M  END
