Coordinates from ORCA-job 4-NO2-Ph-N2+-B3LYPG-6-31G_dp-MTMO-d009-169-n800
 OpenBabel09051908243D

 15 14  0  0  0  0  0  0  0  0999 V2000
   -3.8875   -0.1818   -0.0228 C   0  0  0  0  0  0  0  0  0  0  0  0
   -3.9167   -1.5421   -0.4533 C   0  0  0  0  0  0  0  0  0  0  0  0
   -2.6480   -1.8014   -0.7568 C   0  0  0  0  0  0  0  0  0  0  0  0
   -1.3903   -1.3764   -0.8392 C   0  0  0  0  0  0  0  0  0  0  0  0
   -1.4634   -0.0227   -0.3937 C   0  0  0  0  0  0  0  0  0  0  0  0
   -2.6856    0.5268   -0.0053 C   0  0  0  0  0  0  0  0  0  0  0  0
   -4.8198    0.2845    0.2887 H   0  0  0  0  0  0  0  0  0  0  0  0
   -4.8041   -2.1639   -0.4995 H   0  0  0  0  0  0  0  0  0  0  0  0
   -0.4852   -1.8821   -1.1570 H   0  0  0  0  0  0  0  0  0  0  0  0
   -0.5478    0.5646   -0.3637 H   0  0  0  0  0  0  0  0  0  0  0  0
   -2.7086    1.9407    0.4508 N   0  0  0  0  0  0  0  0  0  0  0  0
   -3.7990    2.3807    0.7846 O   0  0  0  0  0  0  0  0  0  0  0  0
   -1.6347    2.5246    0.4476 O   0  0  0  0  0  0  0  0  0  0  0  0
    5.8778    6.4370    0.6050 N   0  0  0  0  0  0  0  0  0  0  0  0
    6.5244    7.3129    0.7959 N   0  0  0  0  0  0  0  0  0  0  0  0
  1  6  1  0  0  0  0
  1  7  1  0  0  0  0
  2  1  2  0  0  0  0
  3  2  1  0  0  0  0
  4  3  2  0  0  0  0
  4  5  1  0  0  0  0
  5 10  1  0  0  0  0
  5  6  2  0  0  0  0
  6 11  1  0  0  0  0
  8  2  1  0  0  0  0
  9  4  1  0  0  0  0
 11 12  2  0  0  0  0
 13 11  2  0  0  0  0
 14 15  3  0  0  0  0
M  RAD  1   3   2
M  END
