Coordinates from ORCA-job 4-NO2-Ph-N2+-B3LYPG-6-31G_dp-MTMO-d009-169-n800
 OpenBabel09051908243D

 15 14  0  0  0  0  0  0  0  0999 V2000
   -3.9442   -0.2247   -0.0240 C   0  0  0  0  0  0  0  0  0  0  0  0
   -3.9791   -1.5861   -0.4507 C   0  0  0  0  0  0  0  0  0  0  0  0
   -2.7127   -1.8497   -0.7595 C   0  0  0  0  0  0  0  0  0  0  0  0
   -1.4542   -1.4284   -0.8490 C   0  0  0  0  0  0  0  0  0  0  0  0
   -1.5214   -0.0733   -0.4069 C   0  0  0  0  0  0  0  0  0  0  0  0
   -2.7403    0.4806   -0.0142 C   0  0  0  0  0  0  0  0  0  0  0  0
   -4.8737    0.2450    0.2906 H   0  0  0  0  0  0  0  0  0  0  0  0
   -4.8684   -2.2056   -0.4908 H   0  0  0  0  0  0  0  0  0  0  0  0
   -0.5520   -1.9374   -1.1697 H   0  0  0  0  0  0  0  0  0  0  0  0
   -0.6041    0.5117   -0.3829 H   0  0  0  0  0  0  0  0  0  0  0  0
   -2.7572    1.8959    0.4380 N   0  0  0  0  0  0  0  0  0  0  0  0
   -3.8448    2.3397    0.7760 O   0  0  0  0  0  0  0  0  0  0  0  0
   -1.6818    2.4769    0.4279 O   0  0  0  0  0  0  0  0  0  0  0  0
    6.2504    6.7400    0.6527 N   0  0  0  0  0  0  0  0  0  0  0  0
    6.8953    7.6170    0.8438 N   0  0  0  0  0  0  0  0  0  0  0  0
  1  6  1  0  0  0  0
  1  7  1  0  0  0  0
  2  1  2  0  0  0  0
  3  2  1  0  0  0  0
  4  3  2  0  0  0  0
  4  5  1  0  0  0  0
  5 10  1  0  0  0  0
  5  6  2  0  0  0  0
  6 11  1  0  0  0  0
  8  2  1  0  0  0  0
  9  4  1  0  0  0  0
 11 12  2  0  0  0  0
 13 11  2  0  0  0  0
 14 15  3  0  0  0  0
M  RAD  1   3   2
M  END
