Coordinates from ORCA-job 4-NO2-Ph-N2+-B3LYPG-6-31G_dp-MTMO-d009-169-n800
 OpenBabel09051908243D

 15 14  0  0  0  0  0  0  0  0999 V2000
   -3.4817    0.0534   -0.0245 C   0  0  0  0  0  0  0  0  0  0  0  0
   -3.3410   -1.2890   -0.4882 C   0  0  0  0  0  0  0  0  0  0  0  0
   -2.0383   -1.4008   -0.7316 C   0  0  0  0  0  0  0  0  0  0  0  0
   -0.8322   -0.8402   -0.7388 C   0  0  0  0  0  0  0  0  0  0  0  0
   -1.0742    0.4845   -0.2659 C   0  0  0  0  0  0  0  0  0  0  0  0
   -2.3669    0.8869    0.0716 C   0  0  0  0  0  0  0  0  0  0  0  0
   -4.4733    0.4077    0.2491 H   0  0  0  0  0  0  0  0  0  0  0  0
   -4.1520   -2.0011   -0.5956 H   0  0  0  0  0  0  0  0  0  0  0  0
    0.1373   -1.2355   -1.0212 H   0  0  0  0  0  0  0  0  0  0  0  0
   -0.2306    1.1662   -0.1754 H   0  0  0  0  0  0  0  0  0  0  0  0
   -2.5673    2.2764    0.5588 N   0  0  0  0  0  0  0  0  0  0  0  0
   -3.7148    2.5853    0.8453 O   0  0  0  0  0  0  0  0  0  0  0  0
   -1.5653    2.9730    0.6246 O   0  0  0  0  0  0  0  0  0  0  0  0
    3.2987    4.0538    0.2046 N   0  0  0  0  0  0  0  0  0  0  0  0
    4.0131    4.8810    0.3681 N   0  0  0  0  0  0  0  0  0  0  0  0
  1  6  1  0  0  0  0
  1  7  1  0  0  0  0
  2  1  2  0  0  0  0
  3  2  1  0  0  0  0
  4  3  2  0  0  0  0
  4  5  1  0  0  0  0
  5 10  1  0  0  0  0
  5  6  2  0  0  0  0
  6 11  1  0  0  0  0
  8  2  1  0  0  0  0
  9  4  1  0  0  0  0
 11 13  2  0  0  0  0
 11 12  2  0  0  0  0
 14 15  3  0  0  0  0
M  RAD  1   3   2
M  END
