Coordinates from ORCA-job 4-NO2-Ph-N2+-B3LYPG-6-31G_dp-MTMO-d009-169-n800
 OpenBabel09051908243D

 15 14  0  0  0  0  0  0  0  0999 V2000
   -3.9502   -0.2291   -0.0241 C   0  0  0  0  0  0  0  0  0  0  0  0
   -3.9860   -1.5907   -0.4503 C   0  0  0  0  0  0  0  0  0  0  0  0
   -2.7198   -1.8549   -0.7597 C   0  0  0  0  0  0  0  0  0  0  0  0
   -1.4613   -1.4342   -0.8501 C   0  0  0  0  0  0  0  0  0  0  0  0
   -1.5276   -0.0789   -0.4085 C   0  0  0  0  0  0  0  0  0  0  0  0
   -2.7460    0.4757   -0.0152 C   0  0  0  0  0  0  0  0  0  0  0  0
   -4.8793    0.2411    0.2909 H   0  0  0  0  0  0  0  0  0  0  0  0
   -4.8756   -2.2098   -0.4897 H   0  0  0  0  0  0  0  0  0  0  0  0
   -0.5595   -1.9437   -1.1712 H   0  0  0  0  0  0  0  0  0  0  0  0
   -0.6100    0.5056   -0.3852 H   0  0  0  0  0  0  0  0  0  0  0  0
   -2.7620    1.8911    0.4366 N   0  0  0  0  0  0  0  0  0  0  0  0
   -3.8492    2.3355    0.7750 O   0  0  0  0  0  0  0  0  0  0  0  0
   -1.6863    2.4716    0.4256 O   0  0  0  0  0  0  0  0  0  0  0  0
    6.2899    6.7725    0.6579 N   0  0  0  0  0  0  0  0  0  0  0  0
    6.9345    7.6498    0.8491 N   0  0  0  0  0  0  0  0  0  0  0  0
  1  6  1  0  0  0  0
  1  7  1  0  0  0  0
  2  1  2  0  0  0  0
  3  2  1  0  0  0  0
  4  3  2  0  0  0  0
  4  5  1  0  0  0  0
  5 10  1  0  0  0  0
  5  6  2  0  0  0  0
  6 11  1  0  0  0  0
  8  2  1  0  0  0  0
  9  4  1  0  0  0  0
 11 12  2  0  0  0  0
 13 11  2  0  0  0  0
 14 15  3  0  0  0  0
M  RAD  1   3   2
M  END
