Coordinates from ORCA-job 4-NO2-Ph-N2+-B3LYPG-6-31G_dp-MTMO-d009-169-n800
 OpenBabel09051908243D

 15 15  0  0  0  0  0  0  0  0999 V2000
   -2.0286   -0.2121   -0.6309 C   0  0  0  0  0  0  0  0  0  0  0  0
   -0.6427   -0.2282   -0.7364 C   0  0  0  0  0  0  0  0  0  0  0  0
    0.0333    0.8668   -0.1816 C   0  0  0  0  0  0  0  0  0  0  0  0
   -0.5585    1.9619    0.4619 C   0  0  0  0  0  0  0  0  0  0  0  0
   -1.9456    1.9461    0.5502 C   0  0  0  0  0  0  0  0  0  0  0  0
   -2.6432    0.8671    0.0057 C   0  0  0  0  0  0  0  0  0  0  0  0
   -2.6361   -1.0160   -1.0302 H   0  0  0  0  0  0  0  0  0  0  0  0
   -0.1152   -1.0426   -1.2202 H   0  0  0  0  0  0  0  0  0  0  0  0
    0.0313    2.7758    0.8681 H   0  0  0  0  0  0  0  0  0  0  0  0
   -2.4917    2.7501    1.0301 H   0  0  0  0  0  0  0  0  0  0  0  0
   -4.1326    0.8669    0.1106 N   0  0  0  0  0  0  0  0  0  0  0  0
   -4.7108   -0.0941   -0.3765 O   0  0  0  0  0  0  0  0  0  0  0  0
   -4.6371    1.8275    0.6744 O   0  0  0  0  0  0  0  0  0  0  0  0
    1.4905    0.8663   -0.2834 N   0  0  0  0  0  0  0  0  0  0  0  0
    2.5987    0.8660   -0.3607 N   0  0  0  0  0  0  0  0  0  0  0  0
  1  6  1  0  0  0  0
  2  1  2  0  0  0  0
  2  3  1  0  0  0  0
  3  4  2  0  0  0  0
  4  5  1  0  0  0  0
  4  9  1  0  0  0  0
  5 10  1  0  0  0  0
  6 11  1  0  0  0  0
  6  5  2  0  0  0  0
  7  1  1  0  0  0  0
  8  2  1  0  0  0  0
 11 13  2  0  0  0  0
 12 11  2  0  0  0  0
 14  3  1  0  0  0  0
 15 14  1  0  0  0  0
M  RAD  2  14   2  15   3
M  END
