Coordinates from ORCA-job 4-NO2-Ph-N2+-B3LYPG-6-31G_dp-MTMO-d009-169-n800
 OpenBabel09051908243D

 15 14  0  0  0  0  0  0  0  0999 V2000
   -4.3194   -0.5109   -0.0331 C   0  0  0  0  0  0  0  0  0  0  0  0
   -4.3893   -1.8788   -0.4340 C   0  0  0  0  0  0  0  0  0  0  0  0
   -3.1374   -2.1684   -0.7771 C   0  0  0  0  0  0  0  0  0  0  0  0
   -1.8758   -1.7696   -0.9129 C   0  0  0  0  0  0  0  0  0  0  0  0
   -1.9076   -0.4061   -0.4934 C   0  0  0  0  0  0  0  0  0  0  0  0
   -3.1047    0.1746   -0.0733 C   0  0  0  0  0  0  0  0  0  0  0  0
   -5.2310   -0.0205    0.3017 H   0  0  0  0  0  0  0  0  0  0  0  0
   -5.2892   -2.4842   -0.4354 H   0  0  0  0  0  0  0  0  0  0  0  0
   -0.9924   -2.2993   -1.2519 H   0  0  0  0  0  0  0  0  0  0  0  0
   -0.9808    0.1640   -0.5082 H   0  0  0  0  0  0  0  0  0  0  0  0
   -3.0848    1.5978    0.3534 N   0  0  0  0  0  0  0  0  0  0  0  0
   -4.1533    2.0647    0.7199 O   0  0  0  0  0  0  0  0  0  0  0  0
   -2.0016    2.1613    0.2958 O   0  0  0  0  0  0  0  0  0  0  0  0
    8.7471    8.7310    0.9612 N   0  0  0  0  0  0  0  0  0  0  0  0
    9.3318    9.6459    1.1684 N   0  0  0  0  0  0  0  0  0  0  0  0
  1  7  1  0  0  0  0
  2  1  2  0  0  0  0
  3  2  1  0  0  0  0
  4  3  2  0  0  0  0
  4  5  1  0  0  0  0
  5  6  2  0  0  0  0
  6  1  1  0  0  0  0
  6 11  1  0  0  0  0
  8  2  1  0  0  0  0
  9  4  1  0  0  0  0
 10  5  1  0  0  0  0
 11 12  2  0  0  0  0
 13 11  2  0  0  0  0
 14 15  3  0  0  0  0
M  RAD  1   3   2
M  END
