Coordinates from ORCA-job 4-NO2-Ph-N2+-B3LYPG-6-31G_dp-MTMO-d009-169-n800
 OpenBabel09051908243D

 15 14  0  0  0  0  0  0  0  0999 V2000
   -3.8280   -0.1394   -0.0224 C   0  0  0  0  0  0  0  0  0  0  0  0
   -3.8459   -1.4984   -0.4577 C   0  0  0  0  0  0  0  0  0  0  0  0
   -2.5737   -1.7485   -0.7543 C   0  0  0  0  0  0  0  0  0  0  0  0
   -1.3183   -1.3152   -0.8275 C   0  0  0  0  0  0  0  0  0  0  0  0
   -1.4027    0.0365   -0.3778 C   0  0  0  0  0  0  0  0  0  0  0  0
   -2.6308    0.5768    0.0050 C   0  0  0  0  0  0  0  0  0  0  0  0
   -4.7652    0.3198    0.2849 H   0  0  0  0  0  0  0  0  0  0  0  0
   -4.7290   -2.1256   -0.5116 H   0  0  0  0  0  0  0  0  0  0  0  0
   -0.4080   -1.8140   -1.1414 H   0  0  0  0  0  0  0  0  0  0  0  0
   -0.4911    0.6295   -0.3401 H   0  0  0  0  0  0  0  0  0  0  0  0
   -2.6657    1.9889    0.4658 N   0  0  0  0  0  0  0  0  0  0  0  0
   -3.7612    2.4208    0.7938 O   0  0  0  0  0  0  0  0  0  0  0  0
   -1.5956    2.5796    0.4718 O   0  0  0  0  0  0  0  0  0  0  0  0
    5.4889    6.1080    0.5526 N   0  0  0  0  0  0  0  0  0  0  0  0
    6.1378    6.9828    0.7400 N   0  0  0  0  0  0  0  0  0  0  0  0
  1  6  1  0  0  0  0
  1  7  1  0  0  0  0
  2  1  2  0  0  0  0
  3  2  1  0  0  0  0
  4  3  2  0  0  0  0
  4  5  1  0  0  0  0
  5 10  1  0  0  0  0
  5  6  2  0  0  0  0
  6 11  1  0  0  0  0
  8  2  1  0  0  0  0
  9  4  1  0  0  0  0
 11 13  2  0  0  0  0
 11 12  2  0  0  0  0
 14 15  3  0  0  0  0
M  RAD  1   3   2
M  END
