Coordinates from ORCA-job 4-NO2-Ph-N2+-B3LYPG-6-31G_dp-MTMO-d009-169-n800
 OpenBabel09051908243D

 15 14  0  0  0  0  0  0  0  0999 V2000
   -3.9080   -0.1972   -0.0232 C   0  0  0  0  0  0  0  0  0  0  0  0
   -3.9388   -1.5578   -0.4525 C   0  0  0  0  0  0  0  0  0  0  0  0
   -2.6708   -1.8187   -0.7579 C   0  0  0  0  0  0  0  0  0  0  0  0
   -1.4130   -1.3949   -0.8427 C   0  0  0  0  0  0  0  0  0  0  0  0
   -1.4843   -0.0406   -0.3983 C   0  0  0  0  0  0  0  0  0  0  0  0
   -2.7055    0.5103   -0.0084 C   0  0  0  0  0  0  0  0  0  0  0  0
   -4.8394    0.2702    0.2893 H   0  0  0  0  0  0  0  0  0  0  0  0
   -4.8266   -2.1792   -0.4968 H   0  0  0  0  0  0  0  0  0  0  0  0
   -0.5085   -1.9011   -1.1613 H   0  0  0  0  0  0  0  0  0  0  0  0
   -0.5682    0.5459   -0.3703 H   0  0  0  0  0  0  0  0  0  0  0  0
   -2.7264    1.9247    0.4464 N   0  0  0  0  0  0  0  0  0  0  0  0
   -3.8159    2.3659    0.7815 O   0  0  0  0  0  0  0  0  0  0  0  0
   -1.6520    2.5077    0.4407 O   0  0  0  0  0  0  0  0  0  0  0  0
    6.0113    6.5451    0.6219 N   0  0  0  0  0  0  0  0  0  0  0  0
    6.6575    7.4212    0.8126 N   0  0  0  0  0  0  0  0  0  0  0  0
  1  6  1  0  0  0  0
  1  7  1  0  0  0  0
  2  1  2  0  0  0  0
  3  2  1  0  0  0  0
  4  3  2  0  0  0  0
  4  5  1  0  0  0  0
  5 10  1  0  0  0  0
  5  6  2  0  0  0  0
  6 11  1  0  0  0  0
  8  2  1  0  0  0  0
  9  4  1  0  0  0  0
 11 12  2  0  0  0  0
 13 11  2  0  0  0  0
 14 15  3  0  0  0  0
M  RAD  1   3   2
M  END
