Coordinates from ORCA-job 4-NO2-Ph-N2+-B3LYPG-6-31G_dp-MTMO-d009-169-n800
 OpenBabel09051908243D

 15 14  0  0  0  0  0  0  0  0999 V2000
   -2.5392   -0.2295   -0.6091 C   0  0  0  0  0  0  0  0  0  0  0  0
   -1.1223   -0.3089   -0.7599 C   0  0  0  0  0  0  0  0  0  0  0  0
   -0.6829    0.8044   -0.1799 C   0  0  0  0  0  0  0  0  0  0  0  0
   -0.9595    1.9347    0.4641 C   0  0  0  0  0  0  0  0  0  0  0  0
   -2.3829    1.9236    0.5657 C   0  0  0  0  0  0  0  0  0  0  0  0
   -3.1192    0.8629    0.0369 C   0  0  0  0  0  0  0  0  0  0  0  0
   -3.1505   -1.0368   -1.0070 H   0  0  0  0  0  0  0  0  0  0  0  0
   -0.5892   -1.1194   -1.2448 H   0  0  0  0  0  0  0  0  0  0  0  0
   -0.3110    2.7163    0.8446 H   0  0  0  0  0  0  0  0  0  0  0  0
   -2.8755    2.7578    1.0611 H   0  0  0  0  0  0  0  0  0  0  0  0
   -4.5988    0.8980    0.1691 N   0  0  0  0  0  0  0  0  0  0  0  0
   -5.2043   -0.0511   -0.3067 O   0  0  0  0  0  0  0  0  0  0  0  0
   -5.0650    1.8724    0.7413 O   0  0  0  0  0  0  0  0  0  0  0  0
    4.5541    0.9795   -0.4202 N   0  0  0  0  0  0  0  0  0  0  0  0
    5.6578    0.9976   -0.4740 N   0  0  0  0  0  0  0  0  0  0  0  0
  1  6  1  0  0  0  0
  2  1  2  0  0  0  0
  2  3  1  0  0  0  0
  3  4  2  0  0  0  0
  4  5  1  0  0  0  0
  4  9  1  0  0  0  0
  5 10  1  0  0  0  0
  6 11  1  0  0  0  0
  6  5  2  0  0  0  0
  7  1  1  0  0  0  0
  8  2  1  0  0  0  0
 11 13  2  0  0  0  0
 12 11  2  0  0  0  0
 15 14  3  0  0  0  0
M  RAD  1   3   2
M  END
