Coordinates from ORCA-job 4-NO2-Ph-N2+-B3LYPG-6-31G_dp-MTMO-d009-169-n800
 OpenBabel09051908243D

 15 14  0  0  0  0  0  0  0  0999 V2000
   -3.3931    0.1854    0.0037 C   0  0  0  0  0  0  0  0  0  0  0  0
   -3.4545   -1.1722   -0.4327 C   0  0  0  0  0  0  0  0  0  0  0  0
   -2.1907   -1.4626   -0.7280 C   0  0  0  0  0  0  0  0  0  0  0  0
   -0.9220   -1.0689   -0.7992 C   0  0  0  0  0  0  0  0  0  0  0  0
   -0.9628    0.2844   -0.3484 C   0  0  0  0  0  0  0  0  0  0  0  0
   -2.1738    0.8630    0.0334 C   0  0  0  0  0  0  0  0  0  0  0  0
   -4.3154    0.6740    0.3105 H   0  0  0  0  0  0  0  0  0  0  0  0
   -4.3573   -1.7706   -0.4870 H   0  0  0  0  0  0  0  0  0  0  0  0
   -0.0281   -1.5962   -1.1136 H   0  0  0  0  0  0  0  0  0  0  0  0
   -0.0329    0.8489   -0.3102 H   0  0  0  0  0  0  0  0  0  0  0  0
   -2.1646    2.2752    0.4957 N   0  0  0  0  0  0  0  0  0  0  0  0
   -3.2469    2.7420    0.8200 O   0  0  0  0  0  0  0  0  0  0  0  0
   -1.0760    2.8308    0.5065 O   0  0  0  0  0  0  0  0  0  0  0  0
    2.6942    4.2178    0.3441 N   0  0  0  0  0  0  0  0  0  0  0  0
    3.2352    5.1506    0.5864 N   0  0  0  0  0  0  0  0  0  0  0  0
  1  6  1  0  0  0  0
  1  7  1  0  0  0  0
  2  1  2  0  0  0  0
  3  2  1  0  0  0  0
  4  3  2  0  0  0  0
  4  5  1  0  0  0  0
  5 10  1  0  0  0  0
  5  6  2  0  0  0  0
  6 11  1  0  0  0  0
  8  2  1  0  0  0  0
  9  4  1  0  0  0  0
 11 13  2  0  0  0  0
 11 12  2  0  0  0  0
 14 15  3  0  0  0  0
M  RAD  1   3   2
M  END
