Coordinates from ORCA-job 4-NO2-Ph-N2+-B3LYPG-6-31G_dp-MTMO-d009-169-n800
 OpenBabel09051908243D

 15 14  0  0  0  0  0  0  0  0999 V2000
   -3.7547   -0.0960   -0.0243 C   0  0  0  0  0  0  0  0  0  0  0  0
   -3.7410   -1.4525   -0.4672 C   0  0  0  0  0  0  0  0  0  0  0  0
   -2.4610   -1.6762   -0.7514 C   0  0  0  0  0  0  0  0  0  0  0  0
   -1.2138   -1.2179   -0.8087 C   0  0  0  0  0  0  0  0  0  0  0  0
   -1.3296    0.1293   -0.3524 C   0  0  0  0  0  0  0  0  0  0  0  0
   -2.5720    0.6432    0.0202 C   0  0  0  0  0  0  0  0  0  0  0  0
   -4.7039    0.3433    0.2751 H   0  0  0  0  0  0  0  0  0  0  0  0
   -4.6108   -2.0969   -0.5342 H   0  0  0  0  0  0  0  0  0  0  0  0
   -0.2904   -1.6963   -1.1159 H   0  0  0  0  0  0  0  0  0  0  0  0
   -0.4304    0.7401   -0.3023 H   0  0  0  0  0  0  0  0  0  0  0  0
   -2.6395    2.0516    0.4890 N   0  0  0  0  0  0  0  0  0  0  0  0
   -3.7479    2.4619    0.8012 O   0  0  0  0  0  0  0  0  0  0  0  0
   -1.5803    2.6609    0.5170 O   0  0  0  0  0  0  0  0  0  0  0  0
    5.0167    5.6662    0.4809 N   0  0  0  0  0  0  0  0  0  0  0  0
    5.6699    6.5408    0.6540 N   0  0  0  0  0  0  0  0  0  0  0  0
  1  6  1  0  0  0  0
  1  7  1  0  0  0  0
  2  1  2  0  0  0  0
  3  2  1  0  0  0  0
  4  3  2  0  0  0  0
  4  5  1  0  0  0  0
  5 10  1  0  0  0  0
  5  6  2  0  0  0  0
  6 11  1  0  0  0  0
  8  2  1  0  0  0  0
  9  4  1  0  0  0  0
 11 13  2  0  0  0  0
 11 12  2  0  0  0  0
 14 15  3  0  0  0  0
M  RAD  1   3   2
M  END
