Coordinates from ORCA-job 4-NO2-Ph-N2+-B3LYPG-6-31G_dp-MTMO-d009-169-n800
 OpenBabel09051908243D

 15 14  0  0  0  0  0  0  0  0999 V2000
   -4.1421   -0.3717   -0.0263 C   0  0  0  0  0  0  0  0  0  0  0  0
   -4.2038   -1.7370   -0.4374 C   0  0  0  0  0  0  0  0  0  0  0  0
   -2.9472   -2.0211   -0.7675 C   0  0  0  0  0  0  0  0  0  0  0  0
   -1.6851   -1.6182   -0.8855 C   0  0  0  0  0  0  0  0  0  0  0  0
   -1.7253   -0.2577   -0.4571 C   0  0  0  0  0  0  0  0  0  0  0  0
   -2.9289    0.3171   -0.0472 C   0  0  0  0  0  0  0  0  0  0  0  0
   -5.0590    0.1140    0.3010 H   0  0  0  0  0  0  0  0  0  0  0  0
   -5.1021   -2.3446   -0.4536 H   0  0  0  0  0  0  0  0  0  0  0  0
   -0.7964   -2.1433   -1.2179 H   0  0  0  0  0  0  0  0  0  0  0  0
   -0.8000    0.3148   -0.4570 H   0  0  0  0  0  0  0  0  0  0  0  0
   -2.9177    1.7372    0.3897 N   0  0  0  0  0  0  0  0  0  0  0  0
   -3.9919    2.1993    0.7452 O   0  0  0  0  0  0  0  0  0  0  0  0
   -1.8350    2.3033    0.3506 O   0  0  0  0  0  0  0  0  0  0  0  0
    7.5599    7.8102    0.8230 N   0  0  0  0  0  0  0  0  0  0  0  0
    8.1861    8.6992    1.0211 N   0  0  0  0  0  0  0  0  0  0  0  0
  1  7  1  0  0  0  0
  2  1  2  0  0  0  0
  3  2  1  0  0  0  0
  4  3  2  0  0  0  0
  4  5  1  0  0  0  0
  5 10  1  0  0  0  0
  5  6  2  0  0  0  0
  6  1  1  0  0  0  0
  6 11  1  0  0  0  0
  8  2  1  0  0  0  0
  9  4  1  0  0  0  0
 11 12  2  0  0  0  0
 13 11  2  0  0  0  0
 14 15  3  0  0  0  0
M  RAD  1   3   2
M  END
