Coordinates from ORCA-job 4-NO2-Ph-N2+-B3LYPG-6-31G_dp-MTMO-d009-169-n800
 OpenBabel09051908243D

 15 14  0  0  0  0  0  0  0  0999 V2000
   -3.9218   -0.2074   -0.0234 C   0  0  0  0  0  0  0  0  0  0  0  0
   -3.9550   -1.5685   -0.4515 C   0  0  0  0  0  0  0  0  0  0  0  0
   -2.6878   -1.8308   -0.7584 C   0  0  0  0  0  0  0  0  0  0  0  0
   -1.4295   -1.4086   -0.8453 C   0  0  0  0  0  0  0  0  0  0  0  0
   -1.4985   -0.0539   -0.4019 C   0  0  0  0  0  0  0  0  0  0  0  0
   -2.7185    0.4987   -0.0108 C   0  0  0  0  0  0  0  0  0  0  0  0
   -4.8523    0.2612    0.2900 H   0  0  0  0  0  0  0  0  0  0  0  0
   -4.8438   -2.1886   -0.4939 H   0  0  0  0  0  0  0  0  0  0  0  0
   -0.5263   -1.9165   -1.1649 H   0  0  0  0  0  0  0  0  0  0  0  0
   -0.5816    0.5316   -0.3757 H   0  0  0  0  0  0  0  0  0  0  0  0
   -2.7372    1.9135    0.4429 N   0  0  0  0  0  0  0  0  0  0  0  0
   -3.8257    2.3562    0.7794 O   0  0  0  0  0  0  0  0  0  0  0  0
   -1.6622    2.4952    0.4353 O   0  0  0  0  0  0  0  0  0  0  0  0
    6.1030    6.6214    0.6342 N   0  0  0  0  0  0  0  0  0  0  0  0
    6.7485    7.4979    0.8253 N   0  0  0  0  0  0  0  0  0  0  0  0
  1  6  1  0  0  0  0
  1  7  1  0  0  0  0
  2  1  2  0  0  0  0
  3  2  1  0  0  0  0
  4  3  2  0  0  0  0
  4  5  1  0  0  0  0
  5 10  1  0  0  0  0
  5  6  2  0  0  0  0
  6 11  1  0  0  0  0
  8  2  1  0  0  0  0
  9  4  1  0  0  0  0
 11 12  2  0  0  0  0
 13 11  2  0  0  0  0
 14 15  3  0  0  0  0
M  RAD  1   3   2
M  END
