Coordinates from ORCA-job 4-NO2-Ph-N2+-B3LYPG-6-31G_dp-MTMO-d009-169-n800
 OpenBabel09051908243D

 15 14  0  0  0  0  0  0  0  0999 V2000
   -4.3616   -0.5433   -0.0339 C   0  0  0  0  0  0  0  0  0  0  0  0
   -4.4351   -1.9120   -0.4317 C   0  0  0  0  0  0  0  0  0  0  0  0
   -3.1849   -2.2042   -0.7789 C   0  0  0  0  0  0  0  0  0  0  0  0
   -1.9232   -1.8076   -0.9201 C   0  0  0  0  0  0  0  0  0  0  0  0
   -1.9514   -0.4432   -0.5034 C   0  0  0  0  0  0  0  0  0  0  0  0
   -3.1461    0.1402   -0.0800 C   0  0  0  0  0  0  0  0  0  0  0  0
   -5.2713   -0.0509    0.3033 H   0  0  0  0  0  0  0  0  0  0  0  0
   -5.3359   -2.5161   -0.4285 H   0  0  0  0  0  0  0  0  0  0  0  0
   -1.0418   -2.3393   -1.2614 H   0  0  0  0  0  0  0  0  0  0  0  0
   -1.0238    0.1255   -0.5228 H   0  0  0  0  0  0  0  0  0  0  0  0
   -3.1224    1.5642    0.3437 N   0  0  0  0  0  0  0  0  0  0  0  0
   -4.1888    2.0335    0.7131 O   0  0  0  0  0  0  0  0  0  0  0  0
   -2.0386    2.1259    0.2809 O   0  0  0  0  0  0  0  0  0  0  0  0
    9.0306    8.9543    0.9956 N   0  0  0  0  0  0  0  0  0  0  0  0
    9.6059    9.8745    1.2052 N   0  0  0  0  0  0  0  0  0  0  0  0
  1  7  1  0  0  0  0
  2  8  1  0  0  0  0
  2  1  2  0  0  0  0
  3  2  1  0  0  0  0
  4  3  2  0  0  0  0
  4  5  1  0  0  0  0
  5  6  2  0  0  0  0
  6  1  1  0  0  0  0
  6 11  1  0  0  0  0
  9  4  1  0  0  0  0
 10  5  1  0  0  0  0
 11 12  2  0  0  0  0
 13 11  2  0  0  0  0
 14 15  3  0  0  0  0
M  RAD  1   3   2
M  END
