Coordinates from ORCA-job 4-NO2-Ph-N2+-B3LYPG-6-31G_dp-MTMO-d009-169-n800
 OpenBabel09051908243D

 15 14  0  0  0  0  0  0  0  0999 V2000
   -2.7844   -0.2625   -0.6080 C   0  0  0  0  0  0  0  0  0  0  0  0
   -1.3763   -0.4181   -0.7802 C   0  0  0  0  0  0  0  0  0  0  0  0
   -0.8690    0.6712   -0.2101 C   0  0  0  0  0  0  0  0  0  0  0  0
   -1.0748    1.8158    0.4352 C   0  0  0  0  0  0  0  0  0  0  0  0
   -2.4951    1.8815    0.5582 C   0  0  0  0  0  0  0  0  0  0  0  0
   -3.2952    0.8608    0.0435 C   0  0  0  0  0  0  0  0  0  0  0  0
   -3.4440   -1.0365   -0.9946 H   0  0  0  0  0  0  0  0  0  0  0  0
   -0.8953   -1.2568   -1.2715 H   0  0  0  0  0  0  0  0  0  0  0  0
   -0.3799    2.5622    0.8043 H   0  0  0  0  0  0  0  0  0  0  0  0
   -2.9343    2.7419    1.0590 H   0  0  0  0  0  0  0  0  0  0  0  0
   -4.7686    0.9755    0.1975 N   0  0  0  0  0  0  0  0  0  0  0  0
   -5.4311    0.0593   -0.2669 O   0  0  0  0  0  0  0  0  0  0  0  0
   -5.1730    1.9747    0.7739 O   0  0  0  0  0  0  0  0  0  0  0  0
    5.7146    1.1913   -0.4098 N   0  0  0  0  0  0  0  0  0  0  0  0
    6.8179    1.2413   -0.4494 N   0  0  0  0  0  0  0  0  0  0  0  0
  1  6  1  0  0  0  0
  2  1  2  0  0  0  0
  2  3  1  0  0  0  0
  3  4  2  0  0  0  0
  4  5  1  0  0  0  0
  4  9  1  0  0  0  0
  5 10  1  0  0  0  0
  6 11  1  0  0  0  0
  6  5  2  0  0  0  0
  7  1  1  0  0  0  0
  8  2  1  0  0  0  0
 11 13  2  0  0  0  0
 12 11  2  0  0  0  0
 15 14  3  0  0  0  0
M  RAD  1   3   2
M  END
