Coordinates from ORCA-job 4-NO2-Ph-N2+-B3LYPG-6-31G_dp-MTMO-d009-169-n800
 OpenBabel09051908243D

 15 14  0  0  0  0  0  0  0  0999 V2000
   -4.1019   -0.3408   -0.0251 C   0  0  0  0  0  0  0  0  0  0  0  0
   -4.1598   -1.7054   -0.4389 C   0  0  0  0  0  0  0  0  0  0  0  0
   -2.9016   -1.9869   -0.7656 C   0  0  0  0  0  0  0  0  0  0  0  0
   -1.6398   -1.5818   -0.8788 C   0  0  0  0  0  0  0  0  0  0  0  0
   -1.6839   -0.2221   -0.4479 C   0  0  0  0  0  0  0  0  0  0  0  0
   -2.8896    0.3500   -0.0409 C   0  0  0  0  0  0  0  0  0  0  0  0
   -5.0205    0.1428    0.3001 H   0  0  0  0  0  0  0  0  0  0  0  0
   -5.0568   -2.3145   -0.4592 H   0  0  0  0  0  0  0  0  0  0  0  0
   -0.7489   -2.1044   -1.2092 H   0  0  0  0  0  0  0  0  0  0  0  0
   -0.7594    0.3520   -0.4439 H   0  0  0  0  0  0  0  0  0  0  0  0
   -2.8822    1.7693    0.3987 N   0  0  0  0  0  0  0  0  0  0  0  0
   -3.9585    2.2290    0.7511 O   0  0  0  0  0  0  0  0  0  0  0  0
   -1.8004    2.3374    0.3646 O   0  0  0  0  0  0  0  0  0  0  0  0
    7.2914    7.5958    0.7900 N   0  0  0  0  0  0  0  0  0  0  0  0
    7.9235    8.4810    0.9863 N   0  0  0  0  0  0  0  0  0  0  0  0
  1  7  1  0  0  0  0
  2  1  2  0  0  0  0
  3  2  1  0  0  0  0
  4  3  2  0  0  0  0
  4  5  1  0  0  0  0
  5 10  1  0  0  0  0
  5  6  2  0  0  0  0
  6  1  1  0  0  0  0
  6 11  1  0  0  0  0
  8  2  1  0  0  0  0
  9  4  1  0  0  0  0
 11 12  2  0  0  0  0
 13 11  2  0  0  0  0
 14 15  3  0  0  0  0
M  RAD  1   3   2
M  END
