Coordinates from ORCA-job 4-NO2-Ph-N2+-B3LYPG-6-31G_dp-MTMO-d009-169-n800
 OpenBabel09051908243D

 15 14  0  0  0  0  0  0  0  0999 V2000
   -4.2120   -0.4272   -0.0299 C   0  0  0  0  0  0  0  0  0  0  0  0
   -4.2753   -1.7935   -0.4377 C   0  0  0  0  0  0  0  0  0  0  0  0
   -3.0200   -2.0784   -0.7719 C   0  0  0  0  0  0  0  0  0  0  0  0
   -1.7583   -1.6759   -0.8955 C   0  0  0  0  0  0  0  0  0  0  0  0
   -1.7968   -0.3145   -0.4700 C   0  0  0  0  0  0  0  0  0  0  0  0
   -2.9987    0.2614   -0.0569 C   0  0  0  0  0  0  0  0  0  0  0  0
   -5.1275    0.0593    0.2998 H   0  0  0  0  0  0  0  0  0  0  0  0
   -5.1737   -2.4009   -0.4492 H   0  0  0  0  0  0  0  0  0  0  0  0
   -0.8708   -2.2018   -1.2299 H   0  0  0  0  0  0  0  0  0  0  0  0
   -0.8713    0.2580   -0.4745 H   0  0  0  0  0  0  0  0  0  0  0  0
   -2.9858    1.6826    0.3766 N   0  0  0  0  0  0  0  0  0  0  0  0
   -4.0584    2.1453    0.7361 O   0  0  0  0  0  0  0  0  0  0  0  0
   -1.9035    2.2488    0.3311 O   0  0  0  0  0  0  0  0  0  0  0  0
    8.0261    8.1699    0.8761 N   0  0  0  0  0  0  0  0  0  0  0  0
    8.6376    9.0685    1.0770 N   0  0  0  0  0  0  0  0  0  0  0  0
  1  7  1  0  0  0  0
  2  1  2  0  0  0  0
  3  2  1  0  0  0  0
  4  3  2  0  0  0  0
  4  5  1  0  0  0  0
  5  6  2  0  0  0  0
  6  1  1  0  0  0  0
  6 11  1  0  0  0  0
  8  2  1  0  0  0  0
  9  4  1  0  0  0  0
 10  5  1  0  0  0  0
 11 12  2  0  0  0  0
 13 11  2  0  0  0  0
 14 15  3  0  0  0  0
M  RAD  1   3   2
M  END
