Coordinates from ORCA-job 4-NO2-Ph-N2+-B3LYPG-6-31G_dp-MTMO-d009-169-n800
 OpenBabel09051908243D

 15 14  0  0  0  0  0  0  0  0999 V2000
   -4.0218   -0.2810   -0.0242 C   0  0  0  0  0  0  0  0  0  0  0  0
   -4.0695   -1.6441   -0.4444 C   0  0  0  0  0  0  0  0  0  0  0  0
   -2.8074   -1.9177   -0.7624 C   0  0  0  0  0  0  0  0  0  0  0  0
   -1.5469   -1.5056   -0.8641 C   0  0  0  0  0  0  0  0  0  0  0  0
   -1.6013   -0.1480   -0.4277 C   0  0  0  0  0  0  0  0  0  0  0  0
   -2.8131    0.4161   -0.0276 C   0  0  0  0  0  0  0  0  0  0  0  0
   -4.9455    0.1964    0.2959 H   0  0  0  0  0  0  0  0  0  0  0  0
   -4.9632   -2.2577   -0.4744 H   0  0  0  0  0  0  0  0  0  0  0  0
   -0.6508   -2.0222   -1.1899 H   0  0  0  0  0  0  0  0  0  0  0  0
   -0.6799    0.4307   -0.4140 H   0  0  0  0  0  0  0  0  0  0  0  0
   -2.8165    1.8334    0.4183 N   0  0  0  0  0  0  0  0  0  0  0  0
   -3.8980    2.2862    0.7637 O   0  0  0  0  0  0  0  0  0  0  0  0
   -1.7373    2.4070    0.3959 O   0  0  0  0  0  0  0  0  0  0  0  0
    6.7618    7.1634    0.7216 N   0  0  0  0  0  0  0  0  0  0  0  0
    7.4008    8.0444    0.9143 N   0  0  0  0  0  0  0  0  0  0  0  0
  1  7  1  0  0  0  0
  2  1  2  0  0  0  0
  3  2  1  0  0  0  0
  4  3  2  0  0  0  0
  4  5  1  0  0  0  0
  5 10  1  0  0  0  0
  5  6  2  0  0  0  0
  6  1  1  0  0  0  0
  6 11  1  0  0  0  0
  8  2  1  0  0  0  0
  9  4  1  0  0  0  0
 11 12  2  0  0  0  0
 13 11  2  0  0  0  0
 14 15  3  0  0  0  0
M  RAD  1   3   2
M  END
