Coordinates from ORCA-job 4-NO2-Ph-N2+-B3LYPG-6-31G_dp-MTMO-d009-169-n800
 OpenBabel09051908243D

 15 14  0  0  0  0  0  0  0  0999 V2000
   -2.6228   -0.2397   -0.6089 C   0  0  0  0  0  0  0  0  0  0  0  0
   -1.2083   -0.3404   -0.7694 C   0  0  0  0  0  0  0  0  0  0  0  0
   -0.7484    0.7667   -0.1935 C   0  0  0  0  0  0  0  0  0  0  0  0
   -1.0037    1.9015    0.4515 C   0  0  0  0  0  0  0  0  0  0  0  0
   -2.4264    1.9117    0.5629 C   0  0  0  0  0  0  0  0  0  0  0  0
   -3.1820    0.8617    0.0400 C   0  0  0  0  0  0  0  0  0  0  0  0
   -3.2487   -1.0381   -1.0020 H   0  0  0  0  0  0  0  0  0  0  0  0
   -0.6909   -1.1592   -1.2575 H   0  0  0  0  0  0  0  0  0  0  0  0
   -0.3411    2.6737    0.8270 H   0  0  0  0  0  0  0  0  0  0  0  0
   -2.9030    2.7535    1.0610 H   0  0  0  0  0  0  0  0  0  0  0  0
   -4.6600    0.9189    0.1824 N   0  0  0  0  0  0  0  0  0  0  0  0
   -5.2827   -0.0216   -0.2884 O   0  0  0  0  0  0  0  0  0  0  0  0
   -5.1076    1.9006    0.7568 O   0  0  0  0  0  0  0  0  0  0  0  0
    4.9667    1.0411   -0.4171 N   0  0  0  0  0  0  0  0  0  0  0  0
    6.0705    1.0712   -0.4637 N   0  0  0  0  0  0  0  0  0  0  0  0
  1  6  1  0  0  0  0
  2  1  2  0  0  0  0
  2  3  1  0  0  0  0
  3  4  2  0  0  0  0
  4  5  1  0  0  0  0
  4  9  1  0  0  0  0
  5 10  1  0  0  0  0
  6 11  1  0  0  0  0
  6  5  2  0  0  0  0
  7  1  1  0  0  0  0
  8  2  1  0  0  0  0
 11 13  2  0  0  0  0
 12 11  2  0  0  0  0
 15 14  3  0  0  0  0
M  RAD  1   3   2
M  END
