Coordinates from ORCA-job 4-NO2-Ph-N2+-B3LYPG-6-31G_dp-MTMO-d009-169-n800
 OpenBabel09051908243D

 15 14  0  0  0  0  0  0  0  0999 V2000
   -4.3315   -0.5202   -0.0334 C   0  0  0  0  0  0  0  0  0  0  0  0
   -4.4024   -1.8883   -0.4334 C   0  0  0  0  0  0  0  0  0  0  0  0
   -3.1509   -2.1786   -0.7776 C   0  0  0  0  0  0  0  0  0  0  0  0
   -1.8893   -1.7804   -0.9149 C   0  0  0  0  0  0  0  0  0  0  0  0
   -1.9201   -0.4167   -0.4962 C   0  0  0  0  0  0  0  0  0  0  0  0
   -3.1166    0.1648   -0.0752 C   0  0  0  0  0  0  0  0  0  0  0  0
   -5.2426   -0.0293    0.3021 H   0  0  0  0  0  0  0  0  0  0  0  0
   -5.3025   -2.4934   -0.4335 H   0  0  0  0  0  0  0  0  0  0  0  0
   -1.0064   -2.3107   -1.2546 H   0  0  0  0  0  0  0  0  0  0  0  0
   -0.9931    0.1531   -0.5123 H   0  0  0  0  0  0  0  0  0  0  0  0
   -3.0956    1.5882    0.3507 N   0  0  0  0  0  0  0  0  0  0  0  0
   -4.1635    2.0557    0.7180 O   0  0  0  0  0  0  0  0  0  0  0  0
   -2.0123    2.1512    0.2916 O   0  0  0  0  0  0  0  0  0  0  0  0
    8.8282    8.7948    0.9710 N   0  0  0  0  0  0  0  0  0  0  0  0
    9.4100    9.7112    1.1789 N   0  0  0  0  0  0  0  0  0  0  0  0
  1  7  1  0  0  0  0
  2  1  2  0  0  0  0
  3  2  1  0  0  0  0
  4  3  2  0  0  0  0
  4  5  1  0  0  0  0
  5  6  2  0  0  0  0
  6  1  1  0  0  0  0
  6 11  1  0  0  0  0
  8  2  1  0  0  0  0
  9  4  1  0  0  0  0
 10  5  1  0  0  0  0
 11 12  2  0  0  0  0
 13 11  2  0  0  0  0
 14 15  3  0  0  0  0
M  RAD  1   3   2
M  END
