Coordinates from ORCA-job 4-NO2-Ph-N2+-B3LYPG-6-31G_dp-MTMO-d009-169-n800
 OpenBabel09051908243D

 15 14  0  0  0  0  0  0  0  0999 V2000
   -4.2099   -0.4256   -0.0298 C   0  0  0  0  0  0  0  0  0  0  0  0
   -4.2732   -1.7918   -0.4377 C   0  0  0  0  0  0  0  0  0  0  0  0
   -3.0178   -2.0767   -0.7718 C   0  0  0  0  0  0  0  0  0  0  0  0
   -1.7561   -1.6742   -0.8952 C   0  0  0  0  0  0  0  0  0  0  0  0
   -1.7947   -0.3128   -0.4696 C   0  0  0  0  0  0  0  0  0  0  0  0
   -2.9967    0.2630   -0.0566 C   0  0  0  0  0  0  0  0  0  0  0  0
   -5.1256    0.0609    0.2998 H   0  0  0  0  0  0  0  0  0  0  0  0
   -5.1716   -2.3993   -0.4494 H   0  0  0  0  0  0  0  0  0  0  0  0
   -0.8686   -2.2001   -1.2295 H   0  0  0  0  0  0  0  0  0  0  0  0
   -0.8692    0.2597   -0.4740 H   0  0  0  0  0  0  0  0  0  0  0  0
   -2.9838    1.6842    0.3770 N   0  0  0  0  0  0  0  0  0  0  0  0
   -4.0566    2.1468    0.7363 O   0  0  0  0  0  0  0  0  0  0  0  0
   -1.9015    2.2505    0.3317 O   0  0  0  0  0  0  0  0  0  0  0  0
    8.0124    8.1594    0.8745 N   0  0  0  0  0  0  0  0  0  0  0  0
    8.6244    9.0576    1.0753 N   0  0  0  0  0  0  0  0  0  0  0  0
  1  7  1  0  0  0  0
  2  1  2  0  0  0  0
  3  2  1  0  0  0  0
  4  3  2  0  0  0  0
  4  5  1  0  0  0  0
  5  6  2  0  0  0  0
  6  1  1  0  0  0  0
  6 11  1  0  0  0  0
  8  2  1  0  0  0  0
  9  4  1  0  0  0  0
 10  5  1  0  0  0  0
 11 12  2  0  0  0  0
 13 11  2  0  0  0  0
 14 15  3  0  0  0  0
M  RAD  1   3   2
M  END
