Coordinates from ORCA-job 4-NO2-Ph-N2+-B3LYPG-6-31G_dp-MTMO-d009-169-n800
 OpenBabel09051908243D

 15 14  0  0  0  0  0  0  0  0999 V2000
   -4.0898   -0.3318   -0.0250 C   0  0  0  0  0  0  0  0  0  0  0  0
   -4.1463   -1.6961   -0.4397 C   0  0  0  0  0  0  0  0  0  0  0  0
   -2.8876   -1.9766   -0.7651 C   0  0  0  0  0  0  0  0  0  0  0  0
   -1.6259   -1.5704   -0.8766 C   0  0  0  0  0  0  0  0  0  0  0  0
   -1.6715   -0.2110   -0.4449 C   0  0  0  0  0  0  0  0  0  0  0  0
   -2.8781    0.3599   -0.0389 C   0  0  0  0  0  0  0  0  0  0  0  0
   -5.0093    0.1510    0.2995 H   0  0  0  0  0  0  0  0  0  0  0  0
   -5.0429   -2.3059   -0.4615 H   0  0  0  0  0  0  0  0  0  0  0  0
   -0.7343   -2.0922   -1.2063 H   0  0  0  0  0  0  0  0  0  0  0  0
   -0.7474    0.3637   -0.4395 H   0  0  0  0  0  0  0  0  0  0  0  0
   -2.8722    1.7790    0.4016 N   0  0  0  0  0  0  0  0  0  0  0  0
   -3.9493    2.2377    0.7531 O   0  0  0  0  0  0  0  0  0  0  0  0
   -1.7908    2.3478    0.3691 O   0  0  0  0  0  0  0  0  0  0  0  0
    7.2118    7.5311    0.7798 N   0  0  0  0  0  0  0  0  0  0  0  0
    7.8451    8.4155    0.9755 N   0  0  0  0  0  0  0  0  0  0  0  0
  1  7  1  0  0  0  0
  2  1  2  0  0  0  0
  3  2  1  0  0  0  0
  4  3  2  0  0  0  0
  4  5  1  0  0  0  0
  5 10  1  0  0  0  0
  5  6  2  0  0  0  0
  6  1  1  0  0  0  0
  6 11  1  0  0  0  0
  8  2  1  0  0  0  0
  9  4  1  0  0  0  0
 11 12  2  0  0  0  0
 13 11  2  0  0  0  0
 14 15  3  0  0  0  0
M  RAD  1   3   2
M  END
