Coordinates from ORCA-job 4-NO2-Ph-N2+-B3LYPG-6-31G_dp-MTMO-d009-169-n800
 OpenBabel09051908243D

 15 14  0  0  0  0  0  0  0  0999 V2000
   -3.8113   -0.1299   -0.0231 C   0  0  0  0  0  0  0  0  0  0  0  0
   -3.8212   -1.4883   -0.4606 C   0  0  0  0  0  0  0  0  0  0  0  0
   -2.5470   -1.7316   -0.7538 C   0  0  0  0  0  0  0  0  0  0  0  0
   -1.2936   -1.2921   -0.8228 C   0  0  0  0  0  0  0  0  0  0  0  0
   -1.3860    0.0586   -0.3714 C   0  0  0  0  0  0  0  0  0  0  0  0
   -2.6178    0.5922    0.0087 C   0  0  0  0  0  0  0  0  0  0  0  0
   -4.7517    0.3243    0.2821 H   0  0  0  0  0  0  0  0  0  0  0  0
   -4.7012   -2.1197   -0.5181 H   0  0  0  0  0  0  0  0  0  0  0  0
   -0.3800   -1.7859   -1.1348 H   0  0  0  0  0  0  0  0  0  0  0  0
   -0.4774    0.6560   -0.3301 H   0  0  0  0  0  0  0  0  0  0  0  0
   -2.6611    2.0034    0.4716 N   0  0  0  0  0  0  0  0  0  0  0  0
   -3.7597    2.4294    0.7968 O   0  0  0  0  0  0  0  0  0  0  0  0
   -1.5939    2.5993    0.4819 O   0  0  0  0  0  0  0  0  0  0  0  0
    5.3809    6.0060    0.5353 N   0  0  0  0  0  0  0  0  0  0  0  0
    6.0323    6.8797    0.7194 N   0  0  0  0  0  0  0  0  0  0  0  0
  1  6  1  0  0  0  0
  1  7  1  0  0  0  0
  2  1  2  0  0  0  0
  3  2  1  0  0  0  0
  4  3  2  0  0  0  0
  4  5  1  0  0  0  0
  5 10  1  0  0  0  0
  5  6  2  0  0  0  0
  6 11  1  0  0  0  0
  8  2  1  0  0  0  0
  9  4  1  0  0  0  0
 11 13  2  0  0  0  0
 11 12  2  0  0  0  0
 14 15  3  0  0  0  0
M  RAD  1   3   2
M  END
