Coordinates from ORCA-job 4-NO2-Ph-N2+-B3LYPG-6-31G_dp-MTMO-d009-169-n800
 OpenBabel09051908243D

 15 14  0  0  0  0  0  0  0  0999 V2000
   -2.7699   -0.2603   -0.6084 C   0  0  0  0  0  0  0  0  0  0  0  0
   -1.3612   -0.4098   -0.7816 C   0  0  0  0  0  0  0  0  0  0  0  0
   -0.8582    0.6816   -0.2118 C   0  0  0  0  0  0  0  0  0  0  0  0
   -1.0685    1.8252    0.4337 C   0  0  0  0  0  0  0  0  0  0  0  0
   -2.4889    1.8848    0.5578 C   0  0  0  0  0  0  0  0  0  0  0  0
   -3.2850    0.8606    0.0436 C   0  0  0  0  0  0  0  0  0  0  0  0
   -3.4264   -1.0372   -0.9946 H   0  0  0  0  0  0  0  0  0  0  0  0
   -0.8769   -1.2464   -1.2734 H   0  0  0  0  0  0  0  0  0  0  0  0
   -0.3765    2.5747    0.8023 H   0  0  0  0  0  0  0  0  0  0  0  0
   -2.9315    2.7432    1.0590 H   0  0  0  0  0  0  0  0  0  0  0  0
   -4.7587    0.9689    0.1989 N   0  0  0  0  0  0  0  0  0  0  0  0
   -5.4176    0.0498   -0.2649 O   0  0  0  0  0  0  0  0  0  0  0  0
   -5.1670    1.9663    0.7756 O   0  0  0  0  0  0  0  0  0  0  0  0
    5.6471    1.1757   -0.4081 N   0  0  0  0  0  0  0  0  0  0  0  0
    6.7506    1.2245   -0.4470 N   0  0  0  0  0  0  0  0  0  0  0  0
  1  6  1  0  0  0  0
  2  1  2  0  0  0  0
  2  3  1  0  0  0  0
  3  4  2  0  0  0  0
  4  5  1  0  0  0  0
  4  9  1  0  0  0  0
  5 10  1  0  0  0  0
  6 11  1  0  0  0  0
  6  5  2  0  0  0  0
  7  1  1  0  0  0  0
  8  2  1  0  0  0  0
 11 13  2  0  0  0  0
 12 11  2  0  0  0  0
 15 14  3  0  0  0  0
M  RAD  1   3   2
M  END
