Coordinates from ORCA-job 4-NO2-Ph-N2+-B3LYPG-6-31G_dp-MTMO-d009-169-n800
 OpenBabel09051908243D

 15 14  0  0  0  0  0  0  0  0999 V2000
   -2.1770   -0.2102   -0.6205 C   0  0  0  0  0  0  0  0  0  0  0  0
   -0.7593   -0.2528   -0.7448 C   0  0  0  0  0  0  0  0  0  0  0  0
   -0.3356    0.8676   -0.1587 C   0  0  0  0  0  0  0  0  0  0  0  0
   -0.6725    1.9877    0.4817 C   0  0  0  0  0  0  0  0  0  0  0  0
   -2.0935    1.9445    0.5592 C   0  0  0  0  0  0  0  0  0  0  0  0
   -2.7940    0.8670    0.0163 C   0  0  0  0  0  0  0  0  0  0  0  0
   -2.7644   -1.0291   -1.0286 H   0  0  0  0  0  0  0  0  0  0  0  0
   -0.1999   -1.0492   -1.2212 H   0  0  0  0  0  0  0  0  0  0  0  0
   -0.0517    2.7840    0.8746 H   0  0  0  0  0  0  0  0  0  0  0  0
   -2.6179    2.7634    1.0460 H   0  0  0  0  0  0  0  0  0  0  0  0
   -4.2763    0.8663    0.1224 N   0  0  0  0  0  0  0  0  0  0  0  0
   -4.8518   -0.0960   -0.3649 O   0  0  0  0  0  0  0  0  0  0  0  0
   -4.7775    1.8278    0.6872 O   0  0  0  0  0  0  0  0  0  0  0  0
    2.4403    0.8659   -0.3476 N   0  0  0  0  0  0  0  0  0  0  0  0
    3.5425    0.8647   -0.4198 N   0  0  0  0  0  0  0  0  0  0  0  0
  1  6  1  0  0  0  0
  2  1  2  0  0  0  0
  2  3  1  0  0  0  0
  3  4  2  0  0  0  0
  4  5  1  0  0  0  0
  4  9  1  0  0  0  0
  5 10  1  0  0  0  0
  6 11  1  0  0  0  0
  6  5  2  0  0  0  0
  7  1  1  0  0  0  0
  8  2  1  0  0  0  0
 11 13  2  0  0  0  0
 12 11  2  0  0  0  0
 15 14  3  0  0  0  0
M  RAD  1   3   2
M  END
