Coordinates from ORCA-job 4-NO2-Ph-N2+-B3LYPG-6-31G_dp-MTMO-d009-169-n800
 OpenBabel09051908243D

 15 14  0  0  0  0  0  0  0  0999 V2000
   -2.1148   -0.2103   -0.6240 C   0  0  0  0  0  0  0  0  0  0  0  0
   -0.7035   -0.2487   -0.7441 C   0  0  0  0  0  0  0  0  0  0  0  0
   -0.2310    0.8671   -0.1637 C   0  0  0  0  0  0  0  0  0  0  0  0
   -0.6176    1.9828    0.4772 C   0  0  0  0  0  0  0  0  0  0  0  0
   -2.0319    1.9443    0.5553 C   0  0  0  0  0  0  0  0  0  0  0  0
   -2.7312    0.8670    0.0119 C   0  0  0  0  0  0  0  0  0  0  0  0
   -2.7070   -1.0254   -1.0304 H   0  0  0  0  0  0  0  0  0  0  0  0
   -0.1525   -1.0490   -1.2219 H   0  0  0  0  0  0  0  0  0  0  0  0
   -0.0054    2.7829    0.8737 H   0  0  0  0  0  0  0  0  0  0  0  0
   -2.5617    2.7596    1.0402 H   0  0  0  0  0  0  0  0  0  0  0  0
   -4.2146    0.8668    0.1166 N   0  0  0  0  0  0  0  0  0  0  0  0
   -4.7915   -0.0949   -0.3707 O   0  0  0  0  0  0  0  0  0  0  0  0
   -4.7178    1.8280    0.6805 O   0  0  0  0  0  0  0  0  0  0  0  0
    2.0453    0.8660   -0.3219 N   0  0  0  0  0  0  0  0  0  0  0  0
    3.1468    0.8654   -0.3977 N   0  0  0  0  0  0  0  0  0  0  0  0
  1  6  1  0  0  0  0
  2  1  2  0  0  0  0
  2  3  1  0  0  0  0
  3  4  2  0  0  0  0
  4  5  1  0  0  0  0
  4  9  1  0  0  0  0
  5 10  1  0  0  0  0
  6 11  1  0  0  0  0
  6  5  2  0  0  0  0
  7  1  1  0  0  0  0
  8  2  1  0  0  0  0
 11 13  2  0  0  0  0
 12 11  2  0  0  0  0
 15 14  3  0  0  0  0
M  RAD  1   3   2
M  END
