Coordinates from ORCA-job 4-NO2-Ph-N2+-B3LYPG-6-31G_dp-MTMO-d009-169-n800
 OpenBabel09051908243D

 15 14  0  0  0  0  0  0  0  0999 V2000
   -3.7284   -0.0784   -0.0228 C   0  0  0  0  0  0  0  0  0  0  0  0
   -3.7093   -1.4346   -0.4666 C   0  0  0  0  0  0  0  0  0  0  0  0
   -2.4282   -1.6532   -0.7491 C   0  0  0  0  0  0  0  0  0  0  0  0
   -1.1824   -1.1906   -0.8045 C   0  0  0  0  0  0  0  0  0  0  0  0
   -1.3037    0.1559   -0.3474 C   0  0  0  0  0  0  0  0  0  0  0  0
   -2.5486    0.6651    0.0238 C   0  0  0  0  0  0  0  0  0  0  0  0
   -4.6796    0.3572    0.2755 H   0  0  0  0  0  0  0  0  0  0  0  0
   -4.5769   -2.0818   -0.5351 H   0  0  0  0  0  0  0  0  0  0  0  0
   -0.2572   -1.6658   -1.1108 H   0  0  0  0  0  0  0  0  0  0  0  0
   -0.4067    0.7698   -0.2957 H   0  0  0  0  0  0  0  0  0  0  0  0
   -2.6219    2.0729    0.4934 N   0  0  0  0  0  0  0  0  0  0  0  0
   -3.7321    2.4790    0.8043 O   0  0  0  0  0  0  0  0  0  0  0  0
   -1.5649    2.6860    0.5233 O   0  0  0  0  0  0  0  0  0  0  0  0
    4.8505    5.5217    0.4595 N   0  0  0  0  0  0  0  0  0  0  0  0
    5.5008    6.3983    0.6334 N   0  0  0  0  0  0  0  0  0  0  0  0
  1  6  1  0  0  0  0
  1  7  1  0  0  0  0
  2  1  2  0  0  0  0
  3  2  1  0  0  0  0
  4  3  2  0  0  0  0
  4  5  1  0  0  0  0
  5 10  1  0  0  0  0
  5  6  2  0  0  0  0
  6 11  1  0  0  0  0
  8  2  1  0  0  0  0
  9  4  1  0  0  0  0
 11 13  2  0  0  0  0
 11 12  2  0  0  0  0
 14 15  3  0  0  0  0
M  RAD  1   3   2
M  END
