Coordinates from ORCA-job 4-NO2-Ph-N2+-B3LYPG-6-31G_dp-MTMO-d009-169-n800
 OpenBabel09051908243D

 15 14  0  0  0  0  0  0  0  0999 V2000
   -3.8633   -0.1638   -0.0223 C   0  0  0  0  0  0  0  0  0  0  0  0
   -3.8895   -1.5236   -0.4546 C   0  0  0  0  0  0  0  0  0  0  0  0
   -2.6197   -1.7805   -0.7557 C   0  0  0  0  0  0  0  0  0  0  0  0
   -1.3625   -1.3535   -0.8349 C   0  0  0  0  0  0  0  0  0  0  0  0
   -1.4386   -0.0005   -0.3879 C   0  0  0  0  0  0  0  0  0  0  0  0
   -2.6626    0.5466   -0.0014 C   0  0  0  0  0  0  0  0  0  0  0  0
   -4.7970    0.3007    0.2877 H   0  0  0  0  0  0  0  0  0  0  0  0
   -4.7758   -2.1467   -0.5036 H   0  0  0  0  0  0  0  0  0  0  0  0
   -0.4559   -1.8574   -1.1513 H   0  0  0  0  0  0  0  0  0  0  0  0
   -0.5240    0.5882   -0.3551 H   0  0  0  0  0  0  0  0  0  0  0  0
   -2.6888    1.9600    0.4564 N   0  0  0  0  0  0  0  0  0  0  0  0
   -3.7807    2.3978    0.7882 O   0  0  0  0  0  0  0  0  0  0  0  0
   -1.6158    2.5455    0.4564 O   0  0  0  0  0  0  0  0  0  0  0  0
    5.7194    6.3065    0.5845 N   0  0  0  0  0  0  0  0  0  0  0  0
    6.3664    7.1822    0.7747 N   0  0  0  0  0  0  0  0  0  0  0  0
  1  6  1  0  0  0  0
  1  7  1  0  0  0  0
  2  1  2  0  0  0  0
  3  2  1  0  0  0  0
  4  3  2  0  0  0  0
  4  5  1  0  0  0  0
  5 10  1  0  0  0  0
  5  6  2  0  0  0  0
  6 11  1  0  0  0  0
  8  2  1  0  0  0  0
  9  4  1  0  0  0  0
 11 12  2  0  0  0  0
 13 11  2  0  0  0  0
 14 15  3  0  0  0  0
M  RAD  1   3   2
M  END
