Coordinates from ORCA-job 4-NO2-Ph-N2+-B3LYPG-6-31G_dp-MTMO-d009-169-n800
 OpenBabel09051908243D

 15 14  0  0  0  0  0  0  0  0999 V2000
   -2.1489   -0.2102   -0.6220 C   0  0  0  0  0  0  0  0  0  0  0  0
   -0.7333   -0.2516   -0.7447 C   0  0  0  0  0  0  0  0  0  0  0  0
   -0.2941    0.8674   -0.1603 C   0  0  0  0  0  0  0  0  0  0  0  0
   -0.6470    1.9861    0.4801 C   0  0  0  0  0  0  0  0  0  0  0  0
   -2.0658    1.9444    0.5575 C   0  0  0  0  0  0  0  0  0  0  0  0
   -2.7659    0.8670    0.0143 C   0  0  0  0  0  0  0  0  0  0  0  0
   -2.7378   -1.0278   -1.0297 H   0  0  0  0  0  0  0  0  0  0  0  0
   -0.1768   -1.0492   -1.2215 H   0  0  0  0  0  0  0  0  0  0  0  0
   -0.0292    2.7837    0.8744 H   0  0  0  0  0  0  0  0  0  0  0  0
   -2.5920    2.7621    1.0435 H   0  0  0  0  0  0  0  0  0  0  0  0
   -4.2485    0.8665    0.1197 N   0  0  0  0  0  0  0  0  0  0  0  0
   -4.8244   -0.0956   -0.3677 O   0  0  0  0  0  0  0  0  0  0  0  0
   -4.7505    1.8279    0.6841 O   0  0  0  0  0  0  0  0  0  0  0  0
    2.2619    0.8660   -0.3365 N   0  0  0  0  0  0  0  0  0  0  0  0
    3.3638    0.8648   -0.4101 N   0  0  0  0  0  0  0  0  0  0  0  0
  1  6  1  0  0  0  0
  2  1  2  0  0  0  0
  2  3  1  0  0  0  0
  3  4  2  0  0  0  0
  4  5  1  0  0  0  0
  4  9  1  0  0  0  0
  5 10  1  0  0  0  0
  6 11  1  0  0  0  0
  6  5  2  0  0  0  0
  7  1  1  0  0  0  0
  8  2  1  0  0  0  0
 11 13  2  0  0  0  0
 12 11  2  0  0  0  0
 15 14  3  0  0  0  0
M  RAD  1   3   2
M  END
