Coordinates from ORCA-job 4-NO2-Ph-N2+-B3LYPG-6-31G_dp-MTMO-d009-169-n800
 OpenBabel09051908243D

 15 14  0  0  0  0  0  0  0  0999 V2000
   -3.5284    0.0295   -0.0265 C   0  0  0  0  0  0  0  0  0  0  0  0
   -3.4097   -1.3154   -0.4887 C   0  0  0  0  0  0  0  0  0  0  0  0
   -2.1098   -1.4476   -0.7365 C   0  0  0  0  0  0  0  0  0  0  0  0
   -0.8952   -0.9057   -0.7488 C   0  0  0  0  0  0  0  0  0  0  0  0
   -1.1155    0.4232   -0.2771 C   0  0  0  0  0  0  0  0  0  0  0  0
   -2.4007    0.8459    0.0644 C   0  0  0  0  0  0  0  0  0  0  0  0
   -4.5136    0.3993    0.2499 H   0  0  0  0  0  0  0  0  0  0  0  0
   -4.2318   -2.0154   -0.5926 H   0  0  0  0  0  0  0  0  0  0  0  0
    0.0673   -1.3161   -1.0337 H   0  0  0  0  0  0  0  0  0  0  0  0
   -0.2614    1.0920   -0.1902 H   0  0  0  0  0  0  0  0  0  0  0  0
   -2.5778    2.2390    0.5503 N   0  0  0  0  0  0  0  0  0  0  0  0
   -3.7194    2.5660    0.8403 O   0  0  0  0  0  0  0  0  0  0  0  0
   -1.5650    2.9203    0.6116 O   0  0  0  0  0  0  0  0  0  0  0  0
    3.5938    4.3160    0.2550 N   0  0  0  0  0  0  0  0  0  0  0  0
    4.2787    5.1706    0.4037 N   0  0  0  0  0  0  0  0  0  0  0  0
  1  6  1  0  0  0  0
  1  7  1  0  0  0  0
  2  1  2  0  0  0  0
  3  2  1  0  0  0  0
  4  3  2  0  0  0  0
  4  5  1  0  0  0  0
  5 10  1  0  0  0  0
  5  6  2  0  0  0  0
  6 11  1  0  0  0  0
  8  2  1  0  0  0  0
  9  4  1  0  0  0  0
 11 13  2  0  0  0  0
 11 12  2  0  0  0  0
 14 15  3  0  0  0  0
M  RAD  1   3   2
M  END
