Coordinates from ORCA-job 4-NO2-Ph-N2+-B3LYPG-6-31G_dp-MTMO-d009-169-n800
 OpenBabel09051908243D

 15 14  0  0  0  0  0  0  0  0999 V2000
   -2.1616   -0.2102   -0.6214 C   0  0  0  0  0  0  0  0  0  0  0  0
   -0.7449   -0.2522   -0.7448 C   0  0  0  0  0  0  0  0  0  0  0  0
   -0.3137    0.8675   -0.1596 C   0  0  0  0  0  0  0  0  0  0  0  0
   -0.6584    1.9870    0.4808 C   0  0  0  0  0  0  0  0  0  0  0  0
   -2.0783    1.9444    0.5582 C   0  0  0  0  0  0  0  0  0  0  0  0
   -2.7786    0.8670    0.0152 C   0  0  0  0  0  0  0  0  0  0  0  0
   -2.7497   -1.0285   -1.0293 H   0  0  0  0  0  0  0  0  0  0  0  0
   -0.1870   -1.0492   -1.2215 H   0  0  0  0  0  0  0  0  0  0  0  0
   -0.0391    2.7839    0.8744 H   0  0  0  0  0  0  0  0  0  0  0  0
   -2.6036    2.7628    1.0446 H   0  0  0  0  0  0  0  0  0  0  0  0
   -4.2610    0.8664    0.1210 N   0  0  0  0  0  0  0  0  0  0  0  0
   -4.8367   -0.0958   -0.3663 O   0  0  0  0  0  0  0  0  0  0  0  0
   -4.7626    1.8278    0.6856 O   0  0  0  0  0  0  0  0  0  0  0  0
    2.3423    0.8659   -0.3416 N   0  0  0  0  0  0  0  0  0  0  0  0
    3.4444    0.8646   -0.4142 N   0  0  0  0  0  0  0  0  0  0  0  0
  1  6  1  0  0  0  0
  2  1  2  0  0  0  0
  2  3  1  0  0  0  0
  3  4  2  0  0  0  0
  4  5  1  0  0  0  0
  4  9  1  0  0  0  0
  5 10  1  0  0  0  0
  6 11  1  0  0  0  0
  6  5  2  0  0  0  0
  7  1  1  0  0  0  0
  8  2  1  0  0  0  0
 11 13  2  0  0  0  0
 12 11  2  0  0  0  0
 15 14  3  0  0  0  0
M  RAD  1   3   2
M  END
