Coordinates from ORCA-job 4-NO2-Ph-N2+-B3LYPG-6-31G_dp-MTMO-d009-169-n800
 OpenBabel09051908243D

 15 14  0  0  0  0  0  0  0  0999 V2000
   -2.4858   -0.2237   -0.6094 C   0  0  0  0  0  0  0  0  0  0  0  0
   -1.0677   -0.2919   -0.7541 C   0  0  0  0  0  0  0  0  0  0  0  0
   -0.6394    0.8245   -0.1719 C   0  0  0  0  0  0  0  0  0  0  0  0
   -0.9277    1.9523    0.4714 C   0  0  0  0  0  0  0  0  0  0  0  0
   -2.3513    1.9300    0.5670 C   0  0  0  0  0  0  0  0  0  0  0  0
   -3.0770    0.8638    0.0346 C   0  0  0  0  0  0  0  0  0  0  0  0
   -3.0890   -1.0355   -1.0102 H   0  0  0  0  0  0  0  0  0  0  0  0
   -0.5260   -1.0979   -1.2371 H   0  0  0  0  0  0  0  0  0  0  0  0
   -0.2868    2.7388    0.8548 H   0  0  0  0  0  0  0  0  0  0  0  0
   -2.8526    2.7601    1.0607 H   0  0  0  0  0  0  0  0  0  0  0  0
   -4.5574    0.8873    0.1605 N   0  0  0  0  0  0  0  0  0  0  0  0
   -5.1535   -0.0663   -0.3184 O   0  0  0  0  0  0  0  0  0  0  0  0
   -5.0337    1.8577    0.7311 O   0  0  0  0  0  0  0  0  0  0  0  0
    4.2779    0.9448   -0.4203 N   0  0  0  0  0  0  0  0  0  0  0  0
    5.3815    0.9577   -0.4778 N   0  0  0  0  0  0  0  0  0  0  0  0
  1  6  1  0  0  0  0
  2  1  2  0  0  0  0
  2  3  1  0  0  0  0
  3  4  2  0  0  0  0
  4  5  1  0  0  0  0
  4  9  1  0  0  0  0
  5 10  1  0  0  0  0
  6 11  1  0  0  0  0
  6  5  2  0  0  0  0
  7  1  1  0  0  0  0
  8  2  1  0  0  0  0
 11 13  2  0  0  0  0
 12 11  2  0  0  0  0
 15 14  3  0  0  0  0
M  RAD  1   3   2
M  END
