Coordinates from ORCA-job 4-NO2-Ph-N2+-B3LYPG-6-31G_dp-MTMO-d009-169-n800
 OpenBabel09051908243D

 15 14  0  0  0  0  0  0  0  0999 V2000
   -2.0941   -0.2104   -0.6254 C   0  0  0  0  0  0  0  0  0  0  0  0
   -0.6869   -0.2457   -0.7433 C   0  0  0  0  0  0  0  0  0  0  0  0
   -0.1822    0.8670   -0.1669 C   0  0  0  0  0  0  0  0  0  0  0  0
   -0.6013    1.9796    0.4744 C   0  0  0  0  0  0  0  0  0  0  0  0
   -2.0111    1.9444    0.5539 C   0  0  0  0  0  0  0  0  0  0  0  0
   -2.7098    0.8670    0.0104 C   0  0  0  0  0  0  0  0  0  0  0  0
   -2.6896   -1.0230   -1.0303 H   0  0  0  0  0  0  0  0  0  0  0  0
   -0.1407   -1.0484   -1.2221 H   0  0  0  0  0  0  0  0  0  0  0  0
    0.0063    2.7820    0.8728 H   0  0  0  0  0  0  0  0  0  0  0  0
   -2.5446    2.7571    1.0377 H   0  0  0  0  0  0  0  0  0  0  0  0
   -4.1941    0.8668    0.1151 N   0  0  0  0  0  0  0  0  0  0  0  0
   -4.7718   -0.0945   -0.3720 O   0  0  0  0  0  0  0  0  0  0  0  0
   -4.6981    1.8278    0.6788 O   0  0  0  0  0  0  0  0  0  0  0  0
    1.9142    0.8661   -0.3129 N   0  0  0  0  0  0  0  0  0  0  0  0
    3.0154    0.8656   -0.3890 N   0  0  0  0  0  0  0  0  0  0  0  0
  1  6  1  0  0  0  0
  2  1  2  0  0  0  0
  2  3  1  0  0  0  0
  3  4  2  0  0  0  0
  4  5  1  0  0  0  0
  4  9  1  0  0  0  0
  5 10  1  0  0  0  0
  6 11  1  0  0  0  0
  6  5  2  0  0  0  0
  7  1  1  0  0  0  0
  8  2  1  0  0  0  0
 11 13  2  0  0  0  0
 12 11  2  0  0  0  0
 15 14  3  0  0  0  0
M  RAD  1   3   2
M  END
