Coordinates from ORCA-job 4-NO2-Ph-N2+-B3LYPG-6-31G_dp-MTMO-d009-169-n800
 OpenBabel09051908243D

 15 14  0  0  0  0  0  0  0  0999 V2000
   -4.1854   -0.4061   -0.0287 C   0  0  0  0  0  0  0  0  0  0  0  0
   -4.2479   -1.7720   -0.4378 C   0  0  0  0  0  0  0  0  0  0  0  0
   -2.9919   -2.0564   -0.7703 C   0  0  0  0  0  0  0  0  0  0  0  0
   -1.7301   -1.6537   -0.8916 C   0  0  0  0  0  0  0  0  0  0  0  0
   -1.7695   -0.2926   -0.4648 C   0  0  0  0  0  0  0  0  0  0  0  0
   -2.9722    0.2827   -0.0531 C   0  0  0  0  0  0  0  0  0  0  0  0
   -5.1015    0.0799    0.3000 H   0  0  0  0  0  0  0  0  0  0  0  0
   -5.1461   -2.3796   -0.4514 H   0  0  0  0  0  0  0  0  0  0  0  0
   -0.8420   -2.1791   -1.2251 H   0  0  0  0  0  0  0  0  0  0  0  0
   -0.8441    0.2800   -0.4674 H   0  0  0  0  0  0  0  0  0  0  0  0
   -2.9601    1.7034    0.3818 N   0  0  0  0  0  0  0  0  0  0  0  0
   -4.0335    2.1657    0.7397 O   0  0  0  0  0  0  0  0  0  0  0  0
   -1.8778    2.2698    0.3388 O   0  0  0  0  0  0  0  0  0  0  0  0
    7.8481    8.0324    0.8557 N   0  0  0  0  0  0  0  0  0  0  0  0
    8.4656    8.9271    1.0553 N   0  0  0  0  0  0  0  0  0  0  0  0
  1  7  1  0  0  0  0
  2  1  2  0  0  0  0
  3  2  1  0  0  0  0
  4  3  2  0  0  0  0
  4  5  1  0  0  0  0
  5  6  2  0  0  0  0
  6  1  1  0  0  0  0
  6 11  1  0  0  0  0
  8  2  1  0  0  0  0
  9  4  1  0  0  0  0
 10  5  1  0  0  0  0
 11 12  2  0  0  0  0
 13 11  2  0  0  0  0
 14 15  3  0  0  0  0
M  RAD  1   3   2
M  END
