Coordinates from ORCA-job 4-NO2-Ph-N2+-B3LYPG-6-31G_dp-MTMO-d009-169-n800
 OpenBabel09051908243D

 15 14  0  0  0  0  0  0  0  0999 V2000
   -4.1159   -0.3512   -0.0253 C   0  0  0  0  0  0  0  0  0  0  0  0
   -4.1755   -1.7161   -0.4380 C   0  0  0  0  0  0  0  0  0  0  0  0
   -2.9181   -1.9990   -0.7661 C   0  0  0  0  0  0  0  0  0  0  0  0
   -1.6560   -1.5951   -0.8813 C   0  0  0  0  0  0  0  0  0  0  0  0
   -1.6983   -0.2350   -0.4514 C   0  0  0  0  0  0  0  0  0  0  0  0
   -2.9030    0.3384   -0.0432 C   0  0  0  0  0  0  0  0  0  0  0  0
   -5.0337    0.1334    0.3008 H   0  0  0  0  0  0  0  0  0  0  0  0
   -5.0732   -2.3245   -0.4566 H   0  0  0  0  0  0  0  0  0  0  0  0
   -0.7661   -2.1187   -1.2126 H   0  0  0  0  0  0  0  0  0  0  0  0
   -0.7734    0.3383   -0.4491 H   0  0  0  0  0  0  0  0  0  0  0  0
   -2.8938    1.7581    0.3953 N   0  0  0  0  0  0  0  0  0  0  0  0
   -3.9692    2.2190    0.7489 O   0  0  0  0  0  0  0  0  0  0  0  0
   -1.8115    2.3251    0.3593 O   0  0  0  0  0  0  0  0  0  0  0  0
    7.3844    7.6713    0.8019 N   0  0  0  0  0  0  0  0  0  0  0  0
    8.0148    8.5575    0.9988 N   0  0  0  0  0  0  0  0  0  0  0  0
  1  7  1  0  0  0  0
  2  1  2  0  0  0  0
  3  2  1  0  0  0  0
  4  3  2  0  0  0  0
  4  5  1  0  0  0  0
  5 10  1  0  0  0  0
  5  6  2  0  0  0  0
  6  1  1  0  0  0  0
  6 11  1  0  0  0  0
  8  2  1  0  0  0  0
  9  4  1  0  0  0  0
 11 12  2  0  0  0  0
 13 11  2  0  0  0  0
 14 15  3  0  0  0  0
M  RAD  1   3   2
M  END
