Coordinates from ORCA-job 4-NO2-Ph-N2+-B3LYPG-6-31G_dp-MTMO-d009-169-n800
 OpenBabel09051908243D

 15 14  0  0  0  0  0  0  0  0999 V2000
   -2.4248   -0.2181   -0.6101 C   0  0  0  0  0  0  0  0  0  0  0  0
   -1.0057   -0.2760   -0.7483 C   0  0  0  0  0  0  0  0  0  0  0  0
   -0.5878    0.8431   -0.1637 C   0  0  0  0  0  0  0  0  0  0  0  0
   -0.8873    1.9685    0.4787 C   0  0  0  0  0  0  0  0  0  0  0  0
   -2.3112    1.9361    0.5678 C   0  0  0  0  0  0  0  0  0  0  0  0
   -3.0267    0.8649    0.0317 C   0  0  0  0  0  0  0  0  0  0  0  0
   -3.0204   -1.0341   -1.0138 H   0  0  0  0  0  0  0  0  0  0  0  0
   -0.4557   -1.0777   -1.2290 H   0  0  0  0  0  0  0  0  0  0  0  0
   -0.2536    2.7593    0.8651 H   0  0  0  0  0  0  0  0  0  0  0  0
   -2.8207    2.7622    1.0596 H   0  0  0  0  0  0  0  0  0  0  0  0
   -4.5077    0.8777    0.1509 N   0  0  0  0  0  0  0  0  0  0  0  0
   -5.0949   -0.0799   -0.3312 O   0  0  0  0  0  0  0  0  0  0  0  0
   -4.9937    1.8444    0.7197 O   0  0  0  0  0  0  0  0  0  0  0  0
    3.9492    0.9119   -0.4172 N   0  0  0  0  0  0  0  0  0  0  0  0
    5.0525    0.9194   -0.4791 N   0  0  0  0  0  0  0  0  0  0  0  0
  1  6  1  0  0  0  0
  2  1  2  0  0  0  0
  2  3  1  0  0  0  0
  3  4  2  0  0  0  0
  4  5  1  0  0  0  0
  4  9  1  0  0  0  0
  5 10  1  0  0  0  0
  6 11  1  0  0  0  0
  6  5  2  0  0  0  0
  7  1  1  0  0  0  0
  8  2  1  0  0  0  0
 11 13  2  0  0  0  0
 12 11  2  0  0  0  0
 15 14  3  0  0  0  0
M  RAD  1   3   2
M  END
