Coordinates from ORCA-job 4-NO2-Ph-N2+-B3LYPG-6-31G_dp-MTMO-d009-169-n800
 OpenBabel09051908243D

 15 14  0  0  0  0  0  0  0  0999 V2000
   -2.7030   -0.2506   -0.6091 C   0  0  0  0  0  0  0  0  0  0  0  0
   -1.2916   -0.3754   -0.7795 C   0  0  0  0  0  0  0  0  0  0  0  0
   -0.8089    0.7242   -0.2079 C   0  0  0  0  0  0  0  0  0  0  0  0
   -1.0404    1.8637    0.4377 C   0  0  0  0  0  0  0  0  0  0  0  0
   -2.4619    1.8982    0.5592 C   0  0  0  0  0  0  0  0  0  0  0  0
   -3.2389    0.8607    0.0427 C   0  0  0  0  0  0  0  0  0  0  0  0
   -3.3451   -1.0385   -0.9971 H   0  0  0  0  0  0  0  0  0  0  0  0
   -0.7917   -1.2032   -1.2706 H   0  0  0  0  0  0  0  0  0  0  0  0
   -0.3623    2.6249    0.8080 H   0  0  0  0  0  0  0  0  0  0  0  0
   -2.9205    2.7484    1.0600 H   0  0  0  0  0  0  0  0  0  0  0  0
   -4.7146    0.9430    0.1954 N   0  0  0  0  0  0  0  0  0  0  0  0
   -5.3565    0.0128   -0.2702 O   0  0  0  0  0  0  0  0  0  0  0  0
   -5.1415    1.9327    0.7720 O   0  0  0  0  0  0  0  0  0  0  0  0
    5.3423    1.1098   -0.4095 N   0  0  0  0  0  0  0  0  0  0  0  0
    6.4460    1.1506   -0.4500 N   0  0  0  0  0  0  0  0  0  0  0  0
  1  6  1  0  0  0  0
  2  1  2  0  0  0  0
  2  3  1  0  0  0  0
  3  4  2  0  0  0  0
  4  5  1  0  0  0  0
  4  9  1  0  0  0  0
  5 10  1  0  0  0  0
  6 11  1  0  0  0  0
  6  5  2  0  0  0  0
  7  1  1  0  0  0  0
  8  2  1  0  0  0  0
 11 13  2  0  0  0  0
 12 11  2  0  0  0  0
 15 14  3  0  0  0  0
M  RAD  1   3   2
M  END
