Coordinates from ORCA-job 4-NO2-Ph-N2+-B3LYPG-6-31G_dp-MTMO-d009-169-n800
 OpenBabel09051908243D

 15 14  0  0  0  0  0  0  0  0999 V2000
   -3.5682    0.0058   -0.0265 C   0  0  0  0  0  0  0  0  0  0  0  0
   -3.4630   -1.3411   -0.4860 C   0  0  0  0  0  0  0  0  0  0  0  0
   -2.1652   -1.4850   -0.7391 C   0  0  0  0  0  0  0  0  0  0  0  0
   -0.9461   -0.9535   -0.7579 C   0  0  0  0  0  0  0  0  0  0  0  0
   -1.1532    0.3783   -0.2883 C   0  0  0  0  0  0  0  0  0  0  0  0
   -2.4331    0.8128    0.0578 C   0  0  0  0  0  0  0  0  0  0  0  0
   -4.5490    0.3846    0.2533 H   0  0  0  0  0  0  0  0  0  0  0  0
   -4.2914   -2.0342   -0.5846 H   0  0  0  0  0  0  0  0  0  0  0  0
    0.0115   -1.3728   -1.0460 H   0  0  0  0  0  0  0  0  0  0  0  0
   -0.2931    1.0400   -0.2066 H   0  0  0  0  0  0  0  0  0  0  0  0
   -2.5962    2.2084    0.5412 N   0  0  0  0  0  0  0  0  0  0  0  0
   -3.7337    2.5462    0.8346 O   0  0  0  0  0  0  0  0  0  0  0  0
   -1.5771    2.8808    0.5978 O   0  0  0  0  0  0  0  0  0  0  0  0
    3.8448    4.5366    0.2896 N   0  0  0  0  0  0  0  0  0  0  0  0
    4.5246    5.3946    0.4417 N   0  0  0  0  0  0  0  0  0  0  0  0
  1  6  1  0  0  0  0
  1  7  1  0  0  0  0
  2  1  2  0  0  0  0
  3  2  1  0  0  0  0
  4  3  2  0  0  0  0
  4  5  1  0  0  0  0
  5 10  1  0  0  0  0
  5  6  2  0  0  0  0
  6 11  1  0  0  0  0
  8  2  1  0  0  0  0
  9  4  1  0  0  0  0
 11 13  2  0  0  0  0
 11 12  2  0  0  0  0
 14 15  3  0  0  0  0
M  RAD  1   3   2
M  END
