Coordinates from ORCA-job 4-NO2-Ph-N2+-B3LYPG-6-31G_dp-MTMO-d009-169-n800
 OpenBabel09051908243D

 15 14  0  0  0  0  0  0  0  0999 V2000
   -3.6739   -0.0487   -0.0229 C   0  0  0  0  0  0  0  0  0  0  0  0
   -3.6282   -1.4028   -0.4712 C   0  0  0  0  0  0  0  0  0  0  0  0
   -2.3416   -1.5980   -0.7453 C   0  0  0  0  0  0  0  0  0  0  0  0
   -1.1038   -1.1136   -0.7904 C   0  0  0  0  0  0  0  0  0  0  0  0
   -1.2515    0.2290   -0.3297 C   0  0  0  0  0  0  0  0  0  0  0  0
   -2.5076    0.7151    0.0345 C   0  0  0  0  0  0  0  0  0  0  0  0
   -4.6345    0.3694    0.2703 H   0  0  0  0  0  0  0  0  0  0  0  0
   -4.4841   -2.0646   -0.5482 H   0  0  0  0  0  0  0  0  0  0  0  0
   -0.1683   -1.5719   -1.0917 H   0  0  0  0  0  0  0  0  0  0  0  0
   -0.3656    0.8582   -0.2695 H   0  0  0  0  0  0  0  0  0  0  0  0
   -2.6088    2.1198    0.5082 N   0  0  0  0  0  0  0  0  0  0  0  0
   -3.7279    2.5051    0.8135 O   0  0  0  0  0  0  0  0  0  0  0  0
   -1.5630    2.7514    0.5463 O   0  0  0  0  0  0  0  0  0  0  0  0
    4.5075    5.1899    0.4030 N   0  0  0  0  0  0  0  0  0  0  0  0
    5.1629    6.0632    0.5742 N   0  0  0  0  0  0  0  0  0  0  0  0
  1  6  1  0  0  0  0
  1  7  1  0  0  0  0
  2  1  2  0  0  0  0
  3  2  1  0  0  0  0
  4  3  2  0  0  0  0
  4  5  1  0  0  0  0
  5 10  1  0  0  0  0
  5  6  2  0  0  0  0
  6 11  1  0  0  0  0
  8  2  1  0  0  0  0
  9  4  1  0  0  0  0
 11 13  2  0  0  0  0
 11 12  2  0  0  0  0
 14 15  3  0  0  0  0
M  RAD  1   3   2
M  END
