Coordinates from ORCA-job 4-NO2-Ph-N2+-B3LYPG-6-31G_dp-MTMO-d009-169-n800
 OpenBabel09051908243D

 15 14  0  0  0  0  0  0  0  0999 V2000
   -3.3702    0.2070    0.0056 C   0  0  0  0  0  0  0  0  0  0  0  0
   -3.4376   -1.1501   -0.4316 C   0  0  0  0  0  0  0  0  0  0  0  0
   -2.1749   -1.4458   -0.7265 C   0  0  0  0  0  0  0  0  0  0  0  0
   -0.9044   -1.0575   -0.7968 C   0  0  0  0  0  0  0  0  0  0  0  0
   -0.9393    0.2958   -0.3453 C   0  0  0  0  0  0  0  0  0  0  0  0
   -2.1480    0.8794    0.0361 C   0  0  0  0  0  0  0  0  0  0  0  0
   -4.2906    0.6995    0.3123 H   0  0  0  0  0  0  0  0  0  0  0  0
   -4.3431   -1.7442   -0.4869 H   0  0  0  0  0  0  0  0  0  0  0  0
   -0.0127   -1.5887   -1.1109 H   0  0  0  0  0  0  0  0  0  0  0  0
   -0.0069    0.8563   -0.3060 H   0  0  0  0  0  0  0  0  0  0  0  0
   -2.1330    2.2914    0.4989 N   0  0  0  0  0  0  0  0  0  0  0  0
   -3.2130    2.7617    0.8259 O   0  0  0  0  0  0  0  0  0  0  0  0
   -1.0426    2.8435    0.5072 O   0  0  0  0  0  0  0  0  0  0  0  0
    2.5560    4.1044    0.3235 N   0  0  0  0  0  0  0  0  0  0  0  0
    3.0718    5.0487    0.5755 N   0  0  0  0  0  0  0  0  0  0  0  0
  1  6  1  0  0  0  0
  1  7  1  0  0  0  0
  2  1  2  0  0  0  0
  3  2  1  0  0  0  0
  4  3  2  0  0  0  0
  4  5  1  0  0  0  0
  5 10  1  0  0  0  0
  5  6  2  0  0  0  0
  6 11  1  0  0  0  0
  8  2  1  0  0  0  0
  9  4  1  0  0  0  0
 11 13  2  0  0  0  0
 11 12  2  0  0  0  0
 14 15  3  0  0  0  0
M  RAD  1   3   2
M  END
