Coordinates from ORCA-job 4-NO2-Ph-N2+-B3LYPG-6-31G_dp-MTMO-d009-169-n800
 OpenBabel09051908243D

 15 14  0  0  0  0  0  0  0  0999 V2000
   -4.0179   -0.2782   -0.0243 C   0  0  0  0  0  0  0  0  0  0  0  0
   -4.0648   -1.6412   -0.4448 C   0  0  0  0  0  0  0  0  0  0  0  0
   -2.8024   -1.9142   -0.7623 C   0  0  0  0  0  0  0  0  0  0  0  0
   -1.5420   -1.5015   -0.8633 C   0  0  0  0  0  0  0  0  0  0  0  0
   -1.5972   -0.1440   -0.4265 C   0  0  0  0  0  0  0  0  0  0  0  0
   -2.8095    0.4194   -0.0268 C   0  0  0  0  0  0  0  0  0  0  0  0
   -4.9419    0.1987    0.2955 H   0  0  0  0  0  0  0  0  0  0  0  0
   -4.9582   -2.2552   -0.4754 H   0  0  0  0  0  0  0  0  0  0  0  0
   -0.6455   -2.0176   -1.1888 H   0  0  0  0  0  0  0  0  0  0  0  0
   -0.6761    0.4351   -0.4123 H   0  0  0  0  0  0  0  0  0  0  0  0
   -2.8137    1.8366    0.4194 N   0  0  0  0  0  0  0  0  0  0  0  0
   -3.8956    2.2889    0.7643 O   0  0  0  0  0  0  0  0  0  0  0  0
   -1.7347    2.4107    0.3978 O   0  0  0  0  0  0  0  0  0  0  0  0
    6.7358    7.1416    0.7181 N   0  0  0  0  0  0  0  0  0  0  0  0
    7.3751    8.0224    0.9105 N   0  0  0  0  0  0  0  0  0  0  0  0
  1  7  1  0  0  0  0
  2  1  2  0  0  0  0
  3  2  1  0  0  0  0
  4  3  2  0  0  0  0
  4  5  1  0  0  0  0
  5 10  1  0  0  0  0
  5  6  2  0  0  0  0
  6  1  1  0  0  0  0
  6 11  1  0  0  0  0
  8  2  1  0  0  0  0
  9  4  1  0  0  0  0
 11 12  2  0  0  0  0
 13 11  2  0  0  0  0
 14 15  3  0  0  0  0
M  RAD  1   3   2
M  END
