Coordinates from ORCA-job 4-NO2-Ph-N2+-B3LYPG-6-31G_dp-MTMO-d009-169-n800
 OpenBabel09051908243D

 15 14  0  0  0  0  0  0  0  0999 V2000
   -2.7066   -0.2511   -0.6091 C   0  0  0  0  0  0  0  0  0  0  0  0
   -1.2954   -0.3770   -0.7799 C   0  0  0  0  0  0  0  0  0  0  0  0
   -0.8117    0.7223   -0.2085 C   0  0  0  0  0  0  0  0  0  0  0  0
   -1.0420    1.8621    0.4371 C   0  0  0  0  0  0  0  0  0  0  0  0
   -2.4635    1.8976    0.5590 C   0  0  0  0  0  0  0  0  0  0  0  0
   -3.2414    0.8606    0.0428 C   0  0  0  0  0  0  0  0  0  0  0  0
   -3.3495   -1.0385   -0.9968 H   0  0  0  0  0  0  0  0  0  0  0  0
   -0.7962   -1.2052   -1.2712 H   0  0  0  0  0  0  0  0  0  0  0  0
   -0.3632    2.6227    0.8071 H   0  0  0  0  0  0  0  0  0  0  0  0
   -2.9213    2.7481    1.0599 H   0  0  0  0  0  0  0  0  0  0  0  0
   -4.7171    0.9441    0.1959 N   0  0  0  0  0  0  0  0  0  0  0  0
   -5.3598    0.0144   -0.2694 O   0  0  0  0  0  0  0  0  0  0  0  0
   -5.1430    1.9342    0.7726 O   0  0  0  0  0  0  0  0  0  0  0  0
    5.3593    1.1129   -0.4091 N   0  0  0  0  0  0  0  0  0  0  0  0
    6.4630    1.1542   -0.4494 N   0  0  0  0  0  0  0  0  0  0  0  0
  1  6  1  0  0  0  0
  2  1  2  0  0  0  0
  2  3  1  0  0  0  0
  3  4  2  0  0  0  0
  4  5  1  0  0  0  0
  4  9  1  0  0  0  0
  5 10  1  0  0  0  0
  6 11  1  0  0  0  0
  6  5  2  0  0  0  0
  7  1  1  0  0  0  0
  8  2  1  0  0  0  0
 11 13  2  0  0  0  0
 12 11  2  0  0  0  0
 15 14  3  0  0  0  0
M  RAD  1   3   2
M  END
