Coordinates from ORCA-job 4-NO2-Ph-N2+-B3LYPG-6-31G_dp-MTMO-d009-169-n800
 OpenBabel09051908243D

 15 14  0  0  0  0  0  0  0  0999 V2000
   -2.6921   -0.2492   -0.6090 C   0  0  0  0  0  0  0  0  0  0  0  0
   -1.2802   -0.3706   -0.7781 C   0  0  0  0  0  0  0  0  0  0  0  0
   -0.8006    0.7300   -0.2059 C   0  0  0  0  0  0  0  0  0  0  0  0
   -1.0354    1.8689    0.4396 C   0  0  0  0  0  0  0  0  0  0  0  0
   -2.4571    1.9001    0.5597 C   0  0  0  0  0  0  0  0  0  0  0  0
   -3.2312    0.8608    0.0424 C   0  0  0  0  0  0  0  0  0  0  0  0
   -3.3319   -1.0385   -0.9978 H   0  0  0  0  0  0  0  0  0  0  0  0
   -0.7779   -1.1972   -1.2688 H   0  0  0  0  0  0  0  0  0  0  0  0
   -0.3594    2.6317    0.8107 H   0  0  0  0  0  0  0  0  0  0  0  0
   -2.9181    2.7492    1.0602 H   0  0  0  0  0  0  0  0  0  0  0  0
   -4.7072    0.9397    0.1935 N   0  0  0  0  0  0  0  0  0  0  0  0
   -5.3465    0.0081   -0.2728 O   0  0  0  0  0  0  0  0  0  0  0  0
   -5.1370    1.9284    0.7698 O   0  0  0  0  0  0  0  0  0  0  0  0
    5.2912    1.1003   -0.4106 N   0  0  0  0  0  0  0  0  0  0  0  0
    6.3949    1.1398   -0.4519 N   0  0  0  0  0  0  0  0  0  0  0  0
  1  6  1  0  0  0  0
  2  1  2  0  0  0  0
  2  3  1  0  0  0  0
  3  4  2  0  0  0  0
  4  5  1  0  0  0  0
  4  9  1  0  0  0  0
  5 10  1  0  0  0  0
  6 11  1  0  0  0  0
  6  5  2  0  0  0  0
  7  1  1  0  0  0  0
  8  2  1  0  0  0  0
 11 13  2  0  0  0  0
 12 11  2  0  0  0  0
 15 14  3  0  0  0  0
M  RAD  1   3   2
M  END
