Coordinates from ORCA-job 4-NO2-Ph-N2+-B3LYPG-6-31G_dp-MTMO-d009-169-n800
 OpenBabel09051908243D

 15 14  0  0  0  0  0  0  0  0999 V2000
   -4.3113   -0.5046   -0.0329 C   0  0  0  0  0  0  0  0  0  0  0  0
   -4.3806   -1.8725   -0.4344 C   0  0  0  0  0  0  0  0  0  0  0  0
   -3.1284   -2.1616   -0.7768 C   0  0  0  0  0  0  0  0  0  0  0  0
   -1.8668   -1.7624   -0.9115 C   0  0  0  0  0  0  0  0  0  0  0  0
   -1.8993   -0.3991   -0.4916 C   0  0  0  0  0  0  0  0  0  0  0  0
   -3.0968    0.1812   -0.0720 C   0  0  0  0  0  0  0  0  0  0  0  0
   -5.2233   -0.0147    0.3015 H   0  0  0  0  0  0  0  0  0  0  0  0
   -5.2803   -2.4781   -0.4366 H   0  0  0  0  0  0  0  0  0  0  0  0
   -0.9830   -2.2917   -1.2502 H   0  0  0  0  0  0  0  0  0  0  0  0
   -0.9726    0.1713   -0.5054 H   0  0  0  0  0  0  0  0  0  0  0  0
   -3.0776    1.6042    0.3553 N   0  0  0  0  0  0  0  0  0  0  0  0
   -4.1464    2.0706    0.7212 O   0  0  0  0  0  0  0  0  0  0  0  0
   -1.9945    2.1680    0.2986 O   0  0  0  0  0  0  0  0  0  0  0  0
    8.6930    8.6886    0.9547 N   0  0  0  0  0  0  0  0  0  0  0  0
    9.2796    9.6023    1.1614 N   0  0  0  0  0  0  0  0  0  0  0  0
  1  7  1  0  0  0  0
  2  1  2  0  0  0  0
  3  2  1  0  0  0  0
  4  3  2  0  0  0  0
  4  5  1  0  0  0  0
  5  6  2  0  0  0  0
  6  1  1  0  0  0  0
  6 11  1  0  0  0  0
  8  2  1  0  0  0  0
  9  4  1  0  0  0  0
 10  5  1  0  0  0  0
 11 12  2  0  0  0  0
 13 11  2  0  0  0  0
 14 15  3  0  0  0  0
M  RAD  1   3   2
M  END
