Coordinates from ORCA-job 4-NO2-Ph-N2+-B3LYPG-6-31G_dp-MTMO-d009-169-n800
 OpenBabel09051908243D

 15 14  0  0  0  0  0  0  0  0999 V2000
   -2.2668   -0.2107   -0.6148 C   0  0  0  0  0  0  0  0  0  0  0  0
   -0.8468   -0.2557   -0.7409 C   0  0  0  0  0  0  0  0  0  0  0  0
   -0.4401    0.8662   -0.1528 C   0  0  0  0  0  0  0  0  0  0  0  0
   -0.7581    1.9882    0.4875 C   0  0  0  0  0  0  0  0  0  0  0  0
   -2.1816    1.9440    0.5650 C   0  0  0  0  0  0  0  0  0  0  0  0
   -2.8833    0.8668    0.0224 C   0  0  0  0  0  0  0  0  0  0  0  0
   -2.8527   -1.0310   -1.0235 H   0  0  0  0  0  0  0  0  0  0  0  0
   -0.2849   -1.0514   -1.2171 H   0  0  0  0  0  0  0  0  0  0  0  0
   -0.1336    2.7833    0.8790 H   0  0  0  0  0  0  0  0  0  0  0  0
   -2.7031    2.7648    1.0527 H   0  0  0  0  0  0  0  0  0  0  0  0
   -4.3652    0.8669    0.1292 N   0  0  0  0  0  0  0  0  0  0  0  0
   -4.9405   -0.0953   -0.3582 O   0  0  0  0  0  0  0  0  0  0  0  0
   -4.8647    1.8289    0.6944 O   0  0  0  0  0  0  0  0  0  0  0  0
    3.0153    0.8683   -0.3843 N   0  0  0  0  0  0  0  0  0  0  0  0
    4.1178    0.8682   -0.4575 N   0  0  0  0  0  0  0  0  0  0  0  0
  1  6  1  0  0  0  0
  2  1  2  0  0  0  0
  2  3  1  0  0  0  0
  3  4  2  0  0  0  0
  4  5  1  0  0  0  0
  4  9  1  0  0  0  0
  5 10  1  0  0  0  0
  6 11  1  0  0  0  0
  6  5  2  0  0  0  0
  7  1  1  0  0  0  0
  8  2  1  0  0  0  0
 11 13  2  0  0  0  0
 12 11  2  0  0  0  0
 15 14  3  0  0  0  0
M  RAD  1   3   2
M  END
