Coordinates from ORCA-job 4-NO2-Ph-N2+-B3LYPG-6-31G_dp-MTMO-d009-169-n800
 OpenBabel09051908243D

 15 14  0  0  0  0  0  0  0  0999 V2000
   -3.6999   -0.0620   -0.0225 C   0  0  0  0  0  0  0  0  0  0  0  0
   -3.6684   -1.4173   -0.4684 C   0  0  0  0  0  0  0  0  0  0  0  0
   -2.3847   -1.6252   -0.7471 C   0  0  0  0  0  0  0  0  0  0  0  0
   -1.1426   -1.1525   -0.7978 C   0  0  0  0  0  0  0  0  0  0  0  0
   -1.2761    0.1923   -0.3390 C   0  0  0  0  0  0  0  0  0  0  0  0
   -2.5263    0.6908    0.0290 C   0  0  0  0  0  0  0  0  0  0  0  0
   -4.6555    0.3655    0.2735 H   0  0  0  0  0  0  0  0  0  0  0  0
   -4.5305   -2.0714   -0.5408 H   0  0  0  0  0  0  0  0  0  0  0  0
   -0.2125   -1.6198   -1.1017 H   0  0  0  0  0  0  0  0  0  0  0  0
   -0.3843    0.8133   -0.2833 H   0  0  0  0  0  0  0  0  0  0  0  0
   -2.6125    2.0973    0.5006 N   0  0  0  0  0  0  0  0  0  0  0  0
   -3.7269    2.4937    0.8089 O   0  0  0  0  0  0  0  0  0  0  0  0
   -1.5607    2.7191    0.5342 O   0  0  0  0  0  0  0  0  0  0  0  0
    4.6702    5.3510    0.4312 N   0  0  0  0  0  0  0  0  0  0  0  0
    5.3221    6.2266    0.6041 N   0  0  0  0  0  0  0  0  0  0  0  0
  1  6  1  0  0  0  0
  1  7  1  0  0  0  0
  2  1  2  0  0  0  0
  3  2  1  0  0  0  0
  4  3  2  0  0  0  0
  4  5  1  0  0  0  0
  5 10  1  0  0  0  0
  5  6  2  0  0  0  0
  6 11  1  0  0  0  0
  8  2  1  0  0  0  0
  9  4  1  0  0  0  0
 11 13  2  0  0  0  0
 11 12  2  0  0  0  0
 14 15  3  0  0  0  0
M  RAD  1   3   2
M  END
