Coordinates from ORCA-job 4-NO2-Ph-N2+-B3LYPG-6-31G_dp-MTMO-d009-169-n800
 OpenBabel09051908243D

 15 14  0  0  0  0  0  0  0  0999 V2000
   -3.8696   -0.1683   -0.0224 C   0  0  0  0  0  0  0  0  0  0  0  0
   -3.8961   -1.5282   -0.4543 C   0  0  0  0  0  0  0  0  0  0  0  0
   -2.6266   -1.7858   -0.7561 C   0  0  0  0  0  0  0  0  0  0  0  0
   -1.3694   -1.3593   -0.8360 C   0  0  0  0  0  0  0  0  0  0  0  0
   -1.4450   -0.0060   -0.3893 C   0  0  0  0  0  0  0  0  0  0  0  0
   -2.6685    0.5416   -0.0023 C   0  0  0  0  0  0  0  0  0  0  0  0
   -4.8029    0.2966    0.2879 H   0  0  0  0  0  0  0  0  0  0  0  0
   -4.7825   -2.1512   -0.5028 H   0  0  0  0  0  0  0  0  0  0  0  0
   -0.4628   -1.8630   -1.1526 H   0  0  0  0  0  0  0  0  0  0  0  0
   -0.5302    0.5823   -0.3572 H   0  0  0  0  0  0  0  0  0  0  0  0
   -2.6939    1.9551    0.4551 N   0  0  0  0  0  0  0  0  0  0  0  0
   -3.7854    2.3935    0.7874 O   0  0  0  0  0  0  0  0  0  0  0  0
   -1.6207    2.5403    0.4542 O   0  0  0  0  0  0  0  0  0  0  0  0
    5.7592    6.3390    0.5896 N   0  0  0  0  0  0  0  0  0  0  0  0
    6.4061    7.2147    0.7799 N   0  0  0  0  0  0  0  0  0  0  0  0
  1  6  1  0  0  0  0
  1  7  1  0  0  0  0
  2  1  2  0  0  0  0
  3  2  1  0  0  0  0
  4  3  2  0  0  0  0
  4  5  1  0  0  0  0
  5 10  1  0  0  0  0
  5  6  2  0  0  0  0
  6 11  1  0  0  0  0
  8  2  1  0  0  0  0
  9  4  1  0  0  0  0
 11 12  2  0  0  0  0
 13 11  2  0  0  0  0
 14 15  3  0  0  0  0
M  RAD  1   3   2
M  END
