Coordinates from ORCA-job 4-NO2-Ph-N2+-B3LYPG-6-31G_dp-MTMO-d009-169-n800
 OpenBabel09051908243D

 15 14  0  0  0  0  0  0  0  0999 V2000
   -3.7111   -0.0681   -0.0225 C   0  0  0  0  0  0  0  0  0  0  0  0
   -3.6853   -1.4239   -0.4674 C   0  0  0  0  0  0  0  0  0  0  0  0
   -2.4027   -1.6366   -0.7478 C   0  0  0  0  0  0  0  0  0  0  0  0
   -1.1589   -1.1684   -0.8007 C   0  0  0  0  0  0  0  0  0  0  0  0
   -1.2869    0.1771   -0.3426 C   0  0  0  0  0  0  0  0  0  0  0  0
   -2.5347    0.6805    0.0268 C   0  0  0  0  0  0  0  0  0  0  0  0
   -4.6647    0.3630    0.2746 H   0  0  0  0  0  0  0  0  0  0  0  0
   -4.5498   -2.0748   -0.5381 H   0  0  0  0  0  0  0  0  0  0  0  0
   -0.2310   -1.6393   -1.1057 H   0  0  0  0  0  0  0  0  0  0  0  0
   -0.3927    0.7949   -0.2888 H   0  0  0  0  0  0  0  0  0  0  0  0
   -2.6150    2.0876    0.4975 N   0  0  0  0  0  0  0  0  0  0  0  0
   -3.7276    2.4884    0.8070 O   0  0  0  0  0  0  0  0  0  0  0  0
   -1.5609    2.7054    0.5294 O   0  0  0  0  0  0  0  0  0  0  0  0
    4.7410    5.4197    0.4430 N   0  0  0  0  0  0  0  0  0  0  0  0
    5.3918    6.2961    0.6164 N   0  0  0  0  0  0  0  0  0  0  0  0
  1  6  1  0  0  0  0
  1  7  1  0  0  0  0
  2  1  2  0  0  0  0
  3  2  1  0  0  0  0
  4  3  2  0  0  0  0
  4  5  1  0  0  0  0
  5 10  1  0  0  0  0
  5  6  2  0  0  0  0
  6 11  1  0  0  0  0
  8  2  1  0  0  0  0
  9  4  1  0  0  0  0
 11 13  2  0  0  0  0
 11 12  2  0  0  0  0
 14 15  3  0  0  0  0
M  RAD  1   3   2
M  END
