Coordinates from ORCA-job 4-NO2-Ph-N2+-B3LYPG-6-31G_dp-MTMO-d009-169-n800
 OpenBabel09051908243D

 15 14  0  0  0  0  0  0  0  0999 V2000
   -4.0258   -0.2838   -0.0242 C   0  0  0  0  0  0  0  0  0  0  0  0
   -4.0741   -1.6470   -0.4440 C   0  0  0  0  0  0  0  0  0  0  0  0
   -2.8123   -1.9212   -0.7625 C   0  0  0  0  0  0  0  0  0  0  0  0
   -1.5517   -1.5096   -0.8649 C   0  0  0  0  0  0  0  0  0  0  0  0
   -1.6054   -0.1519   -0.4288 C   0  0  0  0  0  0  0  0  0  0  0  0
   -2.8168    0.4127   -0.0283 C   0  0  0  0  0  0  0  0  0  0  0  0
   -4.9491    0.1940    0.2962 H   0  0  0  0  0  0  0  0  0  0  0  0
   -4.9682   -2.2603   -0.4735 H   0  0  0  0  0  0  0  0  0  0  0  0
   -0.6559   -2.0266   -1.1909 H   0  0  0  0  0  0  0  0  0  0  0  0
   -0.6837    0.4265   -0.4156 H   0  0  0  0  0  0  0  0  0  0  0  0
   -2.8194    1.8302    0.4172 N   0  0  0  0  0  0  0  0  0  0  0  0
   -3.9006    2.2835    0.7632 O   0  0  0  0  0  0  0  0  0  0  0  0
   -1.7400    2.4035    0.3941 O   0  0  0  0  0  0  0  0  0  0  0  0
    6.7879    7.1851    0.7252 N   0  0  0  0  0  0  0  0  0  0  0  0
    7.4265    8.0664    0.9180 N   0  0  0  0  0  0  0  0  0  0  0  0
  1  7  1  0  0  0  0
  2  1  2  0  0  0  0
  3  2  1  0  0  0  0
  4  3  2  0  0  0  0
  4  5  1  0  0  0  0
  5 10  1  0  0  0  0
  5  6  2  0  0  0  0
  6  1  1  0  0  0  0
  6 11  1  0  0  0  0
  8  2  1  0  0  0  0
  9  4  1  0  0  0  0
 11 12  2  0  0  0  0
 13 11  2  0  0  0  0
 14 15  3  0  0  0  0
M  RAD  1   3   2
M  END
