Coordinates from ORCA-job 4-NO2-Ph-N2+-B3LYPG-6-31G_dp-MTMO-d009-169-n800
 OpenBabel09051908243D

 15 14  0  0  0  0  0  0  0  0999 V2000
   -2.8484   -0.2727   -0.6059 C   0  0  0  0  0  0  0  0  0  0  0  0
   -1.4430   -0.4609   -0.7673 C   0  0  0  0  0  0  0  0  0  0  0  0
   -0.9150    0.6166   -0.1937 C   0  0  0  0  0  0  0  0  0  0  0  0
   -1.0991    1.7659    0.4497 C   0  0  0  0  0  0  0  0  0  0  0  0
   -2.5184    1.8646    0.5619 C   0  0  0  0  0  0  0  0  0  0  0  0
   -3.3379    0.8624    0.0413 C   0  0  0  0  0  0  0  0  0  0  0  0
   -3.5228   -1.0314   -0.9973 H   0  0  0  0  0  0  0  0  0  0  0  0
   -0.9778   -1.3107   -1.2549 H   0  0  0  0  0  0  0  0  0  0  0  0
   -0.3900    2.4963    0.8239 H   0  0  0  0  0  0  0  0  0  0  0  0
   -2.9414    2.7351    1.0592 H   0  0  0  0  0  0  0  0  0  0  0  0
   -4.8095    1.0115    0.1838 N   0  0  0  0  0  0  0  0  0  0  0  0
   -5.4895    0.1111   -0.2862 O   0  0  0  0  0  0  0  0  0  0  0  0
   -5.1949    2.0199    0.7570 O   0  0  0  0  0  0  0  0  0  0  0  0
    5.9981    1.2679   -0.4237 N   0  0  0  0  0  0  0  0  0  0  0  0
    7.1010    1.3259   -0.4666 N   0  0  0  0  0  0  0  0  0  0  0  0
  1  6  1  0  0  0  0
  2  1  2  0  0  0  0
  2  3  1  0  0  0  0
  3  4  2  0  0  0  0
  4  5  1  0  0  0  0
  4  9  1  0  0  0  0
  5 10  1  0  0  0  0
  6 11  1  0  0  0  0
  6  5  2  0  0  0  0
  7  1  1  0  0  0  0
  8  2  1  0  0  0  0
 11 13  2  0  0  0  0
 12 11  2  0  0  0  0
 15 14  3  0  0  0  0
M  RAD  1   3   2
M  END
