Coordinates from ORCA-job 4-NO2-Ph-N2+-B3LYPG-6-31G_dp-MTMO-d009-169-n800
 OpenBabel09051908243D

 15 14  0  0  0  0  0  0  0  0999 V2000
   -3.8936   -0.1863   -0.0229 C   0  0  0  0  0  0  0  0  0  0  0  0
   -3.9234   -1.5467   -0.4530 C   0  0  0  0  0  0  0  0  0  0  0  0
   -2.6550   -1.8066   -0.7571 C   0  0  0  0  0  0  0  0  0  0  0  0
   -1.3972   -1.3821   -0.8403 C   0  0  0  0  0  0  0  0  0  0  0  0
   -1.4696   -0.0282   -0.3952 C   0  0  0  0  0  0  0  0  0  0  0  0
   -2.6914    0.5218   -0.0063 C   0  0  0  0  0  0  0  0  0  0  0  0
   -4.8255    0.2804    0.2889 H   0  0  0  0  0  0  0  0  0  0  0  0
   -4.8111   -2.1682   -0.4986 H   0  0  0  0  0  0  0  0  0  0  0  0
   -0.4924   -1.8882   -1.1584 H   0  0  0  0  0  0  0  0  0  0  0  0
   -0.5537    0.5587   -0.3658 H   0  0  0  0  0  0  0  0  0  0  0  0
   -2.7136    1.9359    0.4494 N   0  0  0  0  0  0  0  0  0  0  0  0
   -3.8037    2.3764    0.7837 O   0  0  0  0  0  0  0  0  0  0  0  0
   -1.6395    2.5194    0.4455 O   0  0  0  0  0  0  0  0  0  0  0  0
    5.9175    6.4696    0.6102 N   0  0  0  0  0  0  0  0  0  0  0  0
    6.5639    7.3456    0.8010 N   0  0  0  0  0  0  0  0  0  0  0  0
  1  6  1  0  0  0  0
  1  7  1  0  0  0  0
  2  1  2  0  0  0  0
  3  2  1  0  0  0  0
  4  3  2  0  0  0  0
  4  5  1  0  0  0  0
  5 10  1  0  0  0  0
  5  6  2  0  0  0  0
  6 11  1  0  0  0  0
  8  2  1  0  0  0  0
  9  4  1  0  0  0  0
 11 12  2  0  0  0  0
 13 11  2  0  0  0  0
 14 15  3  0  0  0  0
M  RAD  1   3   2
M  END
