Coordinates from ORCA-job 4-NO2-Ph-N2+-B3LYPG-6-31G_dp-MTMO-d009-169-n800
 OpenBabel09051908243D

 15 14  0  0  0  0  0  0  0  0999 V2000
   -2.6481   -0.2431   -0.6090 C   0  0  0  0  0  0  0  0  0  0  0  0
   -1.2345   -0.3511   -0.7725 C   0  0  0  0  0  0  0  0  0  0  0  0
   -0.7676    0.7537   -0.1979 C   0  0  0  0  0  0  0  0  0  0  0  0
   -1.0156    1.8900    0.4473 C   0  0  0  0  0  0  0  0  0  0  0  0
   -2.4380    1.9076    0.5618 C   0  0  0  0  0  0  0  0  0  0  0  0
   -3.2002    0.8614    0.0409 C   0  0  0  0  0  0  0  0  0  0  0  0
   -3.2789   -1.0383   -1.0005 H   0  0  0  0  0  0  0  0  0  0  0  0
   -0.7224   -1.1726   -1.2616 H   0  0  0  0  0  0  0  0  0  0  0  0
   -0.3483    2.6589    0.8212 H   0  0  0  0  0  0  0  0  0  0  0  0
   -2.9091    2.7520    1.0608 H   0  0  0  0  0  0  0  0  0  0  0  0
   -4.6775    0.9262    0.1865 N   0  0  0  0  0  0  0  0  0  0  0  0
   -5.3061   -0.0112   -0.2827 O   0  0  0  0  0  0  0  0  0  0  0  0
   -5.1188    1.9104    0.7616 O   0  0  0  0  0  0  0  0  0  0  0  0
    5.0864    1.0620   -0.4151 N   0  0  0  0  0  0  0  0  0  0  0  0
    6.1902    1.0957   -0.4596 N   0  0  0  0  0  0  0  0  0  0  0  0
  1  6  1  0  0  0  0
  2  1  2  0  0  0  0
  2  3  1  0  0  0  0
  3  4  2  0  0  0  0
  4  5  1  0  0  0  0
  4  9  1  0  0  0  0
  5 10  1  0  0  0  0
  6 11  1  0  0  0  0
  6  5  2  0  0  0  0
  7  1  1  0  0  0  0
  8  2  1  0  0  0  0
 11 13  2  0  0  0  0
 12 11  2  0  0  0  0
 15 14  3  0  0  0  0
M  RAD  1   3   2
M  END
