Coordinates from ORCA-job 4-NO2-Ph-N2+-B3LYPG-6-31G_dp-MTMO-d009-169-n800
 OpenBabel09051908243D

 15 14  0  0  0  0  0  0  0  0999 V2000
   -4.0798   -0.3242   -0.0248 C   0  0  0  0  0  0  0  0  0  0  0  0
   -4.1351   -1.6884   -0.4404 C   0  0  0  0  0  0  0  0  0  0  0  0
   -2.8759   -1.9679   -0.7647 C   0  0  0  0  0  0  0  0  0  0  0  0
   -1.6144   -1.5610   -0.8748 C   0  0  0  0  0  0  0  0  0  0  0  0
   -1.6611   -0.2018   -0.4424 C   0  0  0  0  0  0  0  0  0  0  0  0
   -2.8685    0.3682   -0.0373 C   0  0  0  0  0  0  0  0  0  0  0  0
   -4.9998    0.1578    0.2990 H   0  0  0  0  0  0  0  0  0  0  0  0
   -5.0313   -2.2987   -0.4633 H   0  0  0  0  0  0  0  0  0  0  0  0
   -0.7221   -2.0821   -1.2040 H   0  0  0  0  0  0  0  0  0  0  0  0
   -0.7374    0.3734   -0.4358 H   0  0  0  0  0  0  0  0  0  0  0  0
   -2.8639    1.7870    0.4040 N   0  0  0  0  0  0  0  0  0  0  0  0
   -3.9415    2.2448    0.7547 O   0  0  0  0  0  0  0  0  0  0  0  0
   -1.7827    2.3565    0.3729 O   0  0  0  0  0  0  0  0  0  0  0  0
    7.1454    7.4772    0.7713 N   0  0  0  0  0  0  0  0  0  0  0  0
    7.7797    8.3610    0.9666 N   0  0  0  0  0  0  0  0  0  0  0  0
  1  7  1  0  0  0  0
  2  1  2  0  0  0  0
  3  2  1  0  0  0  0
  4  3  2  0  0  0  0
  4  5  1  0  0  0  0
  5 10  1  0  0  0  0
  5  6  2  0  0  0  0
  6  1  1  0  0  0  0
  6 11  1  0  0  0  0
  8  2  1  0  0  0  0
  9  4  1  0  0  0  0
 11 12  2  0  0  0  0
 13 11  2  0  0  0  0
 14 15  3  0  0  0  0
M  RAD  1   3   2
M  END
