Coordinates from ORCA-job 4-NO2-Ph-N2+-B3LYPG-6-31G_dp-MTMO-d009-169-n800
 OpenBabel09051908243D

 15 14  0  0  0  0  0  0  0  0999 V2000
   -2.4760   -0.2227   -0.6095 C   0  0  0  0  0  0  0  0  0  0  0  0
   -1.0577   -0.2891   -0.7531 C   0  0  0  0  0  0  0  0  0  0  0  0
   -0.6313    0.8278   -0.1705 C   0  0  0  0  0  0  0  0  0  0  0  0
   -0.9215    1.9552    0.4727 C   0  0  0  0  0  0  0  0  0  0  0  0
   -2.3452    1.9311    0.5672 C   0  0  0  0  0  0  0  0  0  0  0  0
   -3.0691    0.8640    0.0341 C   0  0  0  0  0  0  0  0  0  0  0  0
   -3.0779   -1.0353   -1.0108 H   0  0  0  0  0  0  0  0  0  0  0  0
   -0.5145   -1.0944   -1.2357 H   0  0  0  0  0  0  0  0  0  0  0  0
   -0.2819    2.7424    0.8566 H   0  0  0  0  0  0  0  0  0  0  0  0
   -2.8479    2.7604    1.0605 H   0  0  0  0  0  0  0  0  0  0  0  0
   -4.5495    0.8856    0.1590 N   0  0  0  0  0  0  0  0  0  0  0  0
   -5.1441   -0.0688   -0.3205 O   0  0  0  0  0  0  0  0  0  0  0  0
   -5.0276    1.8553    0.7293 O   0  0  0  0  0  0  0  0  0  0  0  0
    4.2260    0.9390   -0.4200 N   0  0  0  0  0  0  0  0  0  0  0  0
    5.3295    0.9510   -0.4783 N   0  0  0  0  0  0  0  0  0  0  0  0
  1  6  1  0  0  0  0
  2  1  2  0  0  0  0
  2  3  1  0  0  0  0
  3  4  2  0  0  0  0
  4  5  1  0  0  0  0
  4  9  1  0  0  0  0
  5 10  1  0  0  0  0
  6 11  1  0  0  0  0
  6  5  2  0  0  0  0
  7  1  1  0  0  0  0
  8  2  1  0  0  0  0
 11 13  2  0  0  0  0
 12 11  2  0  0  0  0
 15 14  3  0  0  0  0
M  RAD  1   3   2
M  END
