Coordinates from ORCA-job 4-NO2-Ph-N2+-B3LYPG-6-31G_dp-MTMO-d009-169-n800
 OpenBabel09051908243D

 15 14  0  0  0  0  0  0  0  0999 V2000
   -2.2722   -0.2107   -0.6145 C   0  0  0  0  0  0  0  0  0  0  0  0
   -0.8522   -0.2558   -0.7409 C   0  0  0  0  0  0  0  0  0  0  0  0
   -0.4458    0.8661   -0.1528 C   0  0  0  0  0  0  0  0  0  0  0  0
   -0.7632    1.9881    0.4875 C   0  0  0  0  0  0  0  0  0  0  0  0
   -2.1868    1.9439    0.5653 C   0  0  0  0  0  0  0  0  0  0  0  0
   -2.8886    0.8668    0.0228 C   0  0  0  0  0  0  0  0  0  0  0  0
   -2.8582   -1.0310   -1.0232 H   0  0  0  0  0  0  0  0  0  0  0  0
   -0.2904   -1.0516   -1.2171 H   0  0  0  0  0  0  0  0  0  0  0  0
   -0.1386    2.7833    0.8789 H   0  0  0  0  0  0  0  0  0  0  0  0
   -2.7082    2.7648    1.0530 H   0  0  0  0  0  0  0  0  0  0  0  0
   -4.3705    0.8669    0.1298 N   0  0  0  0  0  0  0  0  0  0  0  0
   -4.9459   -0.0953   -0.3575 O   0  0  0  0  0  0  0  0  0  0  0  0
   -4.8698    1.8289    0.6951 O   0  0  0  0  0  0  0  0  0  0  0  0
    3.0497    0.8686   -0.3862 N   0  0  0  0  0  0  0  0  0  0  0  0
    4.1522    0.8685   -0.4591 N   0  0  0  0  0  0  0  0  0  0  0  0
  1  6  1  0  0  0  0
  2  1  2  0  0  0  0
  2  3  1  0  0  0  0
  3  4  2  0  0  0  0
  4  5  1  0  0  0  0
  4  9  1  0  0  0  0
  5 10  1  0  0  0  0
  6 11  1  0  0  0  0
  6  5  2  0  0  0  0
  7  1  1  0  0  0  0
  8  2  1  0  0  0  0
 11 13  2  0  0  0  0
 12 11  2  0  0  0  0
 15 14  3  0  0  0  0
M  RAD  1   3   2
M  END
