Coordinates from ORCA-job 4-NO2-Ph-N2+-B3LYPG-6-31G_dp-MTMO-d009-169-n800
 OpenBabel09051908243D

 15 14  0  0  0  0  0  0  0  0999 V2000
   -3.9344   -0.2172   -0.0238 C   0  0  0  0  0  0  0  0  0  0  0  0
   -3.9677   -1.5783   -0.4512 C   0  0  0  0  0  0  0  0  0  0  0  0
   -2.7008   -1.8411   -0.7591 C   0  0  0  0  0  0  0  0  0  0  0  0
   -1.4426   -1.4190   -0.8472 C   0  0  0  0  0  0  0  0  0  0  0  0
   -1.5113   -0.0640   -0.4044 C   0  0  0  0  0  0  0  0  0  0  0  0
   -2.7309    0.4889   -0.0126 C   0  0  0  0  0  0  0  0  0  0  0  0
   -4.8645    0.2518    0.2902 H   0  0  0  0  0  0  0  0  0  0  0  0
   -4.8564   -2.1986   -0.4928 H   0  0  0  0  0  0  0  0  0  0  0  0
   -0.5394   -1.9267   -1.1672 H   0  0  0  0  0  0  0  0  0  0  0  0
   -0.5944    0.5214   -0.3793 H   0  0  0  0  0  0  0  0  0  0  0  0
   -2.7490    1.9039    0.4404 N   0  0  0  0  0  0  0  0  0  0  0  0
   -3.8372    2.3469    0.7776 O   0  0  0  0  0  0  0  0  0  0  0  0
   -1.6740    2.4855    0.4315 O   0  0  0  0  0  0  0  0  0  0  0  0
    6.1843    6.6857    0.6440 N   0  0  0  0  0  0  0  0  0  0  0  0
    6.8298    7.5624    0.8350 N   0  0  0  0  0  0  0  0  0  0  0  0
  1  6  1  0  0  0  0
  1  7  1  0  0  0  0
  2  1  2  0  0  0  0
  3  2  1  0  0  0  0
  4  3  2  0  0  0  0
  4  5  1  0  0  0  0
  5 10  1  0  0  0  0
  5  6  2  0  0  0  0
  6 11  1  0  0  0  0
  8  2  1  0  0  0  0
  9  4  1  0  0  0  0
 11 12  2  0  0  0  0
 13 11  2  0  0  0  0
 14 15  3  0  0  0  0
M  RAD  1   3   2
M  END
