Coordinates from ORCA-job 4-NO2-Ph-N2+-B3LYPG-6-31G_dp-MTMO-d009-169-n800
 OpenBabel09051908243D

 15 14  0  0  0  0  0  0  0  0999 V2000
   -3.3686    0.2083    0.0057 C   0  0  0  0  0  0  0  0  0  0  0  0
   -3.4351   -1.1488   -0.4318 C   0  0  0  0  0  0  0  0  0  0  0  0
   -2.1722   -1.4438   -0.7264 C   0  0  0  0  0  0  0  0  0  0  0  0
   -0.9019   -1.0547   -0.7963 C   0  0  0  0  0  0  0  0  0  0  0  0
   -0.9376    0.2985   -0.3446 C   0  0  0  0  0  0  0  0  0  0  0  0
   -2.1468    0.8813    0.0366 C   0  0  0  0  0  0  0  0  0  0  0  0
   -4.2893    0.7002    0.3122 H   0  0  0  0  0  0  0  0  0  0  0  0
   -4.3403   -1.7434   -0.4874 H   0  0  0  0  0  0  0  0  0  0  0  0
   -0.0098   -1.5854   -1.1102 H   0  0  0  0  0  0  0  0  0  0  0  0
   -0.0056    0.8595   -0.3048 H   0  0  0  0  0  0  0  0  0  0  0  0
   -2.1327    2.2933    0.4997 N   0  0  0  0  0  0  0  0  0  0  0  0
   -3.2131    2.7629    0.8265 O   0  0  0  0  0  0  0  0  0  0  0  0
   -1.0426    2.8460    0.5083 O   0  0  0  0  0  0  0  0  0  0  0  0
    2.5452    4.0918    0.3210 N   0  0  0  0  0  0  0  0  0  0  0  0
    3.0617    5.0359    0.5726 N   0  0  0  0  0  0  0  0  0  0  0  0
  1  6  1  0  0  0  0
  1  7  1  0  0  0  0
  2  1  2  0  0  0  0
  3  2  1  0  0  0  0
  4  3  2  0  0  0  0
  4  5  1  0  0  0  0
  5 10  1  0  0  0  0
  5  6  2  0  0  0  0
  6 11  1  0  0  0  0
  8  2  1  0  0  0  0
  9  4  1  0  0  0  0
 11 13  2  0  0  0  0
 11 12  2  0  0  0  0
 14 15  3  0  0  0  0
M  RAD  1   3   2
M  END
