Coordinates from ORCA-job 4-NO2-Ph-N2+-B3LYPG-6-31G_dp-MTMO-d009-169-n800
 OpenBabel09051908243D

 15 14  0  0  0  0  0  0  0  0999 V2000
   -2.1565   -0.2102   -0.6216 C   0  0  0  0  0  0  0  0  0  0  0  0
   -0.7402   -0.2520   -0.7448 C   0  0  0  0  0  0  0  0  0  0  0  0
   -0.3060    0.8675   -0.1599 C   0  0  0  0  0  0  0  0  0  0  0  0
   -0.6538    1.9867    0.4806 C   0  0  0  0  0  0  0  0  0  0  0  0
   -2.0733    1.9444    0.5579 C   0  0  0  0  0  0  0  0  0  0  0  0
   -2.7735    0.8670    0.0148 C   0  0  0  0  0  0  0  0  0  0  0  0
   -2.7449   -1.0282   -1.0295 H   0  0  0  0  0  0  0  0  0  0  0  0
   -0.1828   -1.0492   -1.2215 H   0  0  0  0  0  0  0  0  0  0  0  0
   -0.0351    2.7838    0.8744 H   0  0  0  0  0  0  0  0  0  0  0  0
   -2.5989    2.7625    1.0442 H   0  0  0  0  0  0  0  0  0  0  0  0
   -4.2560    0.8664    0.1205 N   0  0  0  0  0  0  0  0  0  0  0  0
   -4.8318   -0.0957   -0.3669 O   0  0  0  0  0  0  0  0  0  0  0  0
   -4.7577    1.8278    0.6850 O   0  0  0  0  0  0  0  0  0  0  0  0
    2.3100    0.8659   -0.3395 N   0  0  0  0  0  0  0  0  0  0  0  0
    3.4120    0.8647   -0.4125 N   0  0  0  0  0  0  0  0  0  0  0  0
  1  6  1  0  0  0  0
  2  1  2  0  0  0  0
  2  3  1  0  0  0  0
  3  4  2  0  0  0  0
  4  5  1  0  0  0  0
  4  9  1  0  0  0  0
  5 10  1  0  0  0  0
  6 11  1  0  0  0  0
  6  5  2  0  0  0  0
  7  1  1  0  0  0  0
  8  2  1  0  0  0  0
 11 13  2  0  0  0  0
 12 11  2  0  0  0  0
 15 14  3  0  0  0  0
M  RAD  1   3   2
M  END
