Coordinates from ORCA-job 4-NO2-Ph-N2+-B3LYPG-6-31G_dp-MTMO-d009-169-n800
 OpenBabel09051908243D

 15 14  0  0  0  0  0  0  0  0999 V2000
   -3.8374   -0.1452   -0.0221 C   0  0  0  0  0  0  0  0  0  0  0  0
   -3.8589   -1.5046   -0.4564 C   0  0  0  0  0  0  0  0  0  0  0  0
   -2.5878   -1.7577   -0.7546 C   0  0  0  0  0  0  0  0  0  0  0  0
   -1.3315   -1.3273   -0.8299 C   0  0  0  0  0  0  0  0  0  0  0  0
   -1.4123    0.0249   -0.3811 C   0  0  0  0  0  0  0  0  0  0  0  0
   -2.6386    0.5683    0.0030 C   0  0  0  0  0  0  0  0  0  0  0  0
   -4.7731    0.3163    0.2861 H   0  0  0  0  0  0  0  0  0  0  0  0
   -4.7436   -2.1298   -0.5086 H   0  0  0  0  0  0  0  0  0  0  0  0
   -0.4228   -1.8283   -1.1447 H   0  0  0  0  0  0  0  0  0  0  0  0
   -0.4993    0.6159   -0.3451 H   0  0  0  0  0  0  0  0  0  0  0  0
   -2.6697    1.9808    0.4628 N   0  0  0  0  0  0  0  0  0  0  0  0
   -3.7637    2.4154    0.7921 O   0  0  0  0  0  0  0  0  0  0  0  0
   -1.5983    2.5691    0.4668 O   0  0  0  0  0  0  0  0  0  0  0  0
    5.5504    6.1641    0.5620 N   0  0  0  0  0  0  0  0  0  0  0  0
    6.1982    7.0395    0.7507 N   0  0  0  0  0  0  0  0  0  0  0  0
  1  6  1  0  0  0  0
  1  7  1  0  0  0  0
  2  1  2  0  0  0  0
  3  2  1  0  0  0  0
  4  3  2  0  0  0  0
  4  5  1  0  0  0  0
  5 10  1  0  0  0  0
  5  6  2  0  0  0  0
  6 11  1  0  0  0  0
  8  2  1  0  0  0  0
  9  4  1  0  0  0  0
 11 13  2  0  0  0  0
 11 12  2  0  0  0  0
 14 15  3  0  0  0  0
M  RAD  1   3   2
M  END
