Coordinates from ORCA-job 4-NO2-Ph-N2+-B3LYPG-6-31G_dp-MTMO-d009-169-n800
 OpenBabel09051908243D

 15 15  0  0  0  0  0  0  0  0999 V2000
   -2.0382   -0.2119   -0.6301 C   0  0  0  0  0  0  0  0  0  0  0  0
   -0.6489   -0.2307   -0.7374 C   0  0  0  0  0  0  0  0  0  0  0  0
   -0.0015    0.8668   -0.1792 C   0  0  0  0  0  0  0  0  0  0  0  0
   -0.5645    1.9644    0.4636 C   0  0  0  0  0  0  0  0  0  0  0  0
   -1.9552    1.9458    0.5507 C   0  0  0  0  0  0  0  0  0  0  0  0
   -2.6525    0.8671    0.0063 C   0  0  0  0  0  0  0  0  0  0  0  0
   -2.6451   -1.0161   -1.0297 H   0  0  0  0  0  0  0  0  0  0  0  0
   -0.1187   -1.0431   -1.2204 H   0  0  0  0  0  0  0  0  0  0  0  0
    0.0278    2.7764    0.8687 H   0  0  0  0  0  0  0  0  0  0  0  0
   -2.5007    2.7502    1.0308 H   0  0  0  0  0  0  0  0  0  0  0  0
   -4.1411    0.8669    0.1112 N   0  0  0  0  0  0  0  0  0  0  0  0
   -4.7199   -0.0939   -0.3756 O   0  0  0  0  0  0  0  0  0  0  0  0
   -4.6461    1.8274    0.6749 O   0  0  0  0  0  0  0  0  0  0  0  0
    1.5555    0.8663   -0.2879 N   0  0  0  0  0  0  0  0  0  0  0  0
    2.6606    0.8660   -0.3650 N   0  0  0  0  0  0  0  0  0  0  0  0
  1  6  1  0  0  0  0
  2  1  2  0  0  0  0
  2  3  1  0  0  0  0
  3  4  2  0  0  0  0
  4  5  1  0  0  0  0
  4  9  1  0  0  0  0
  5 10  1  0  0  0  0
  6 11  1  0  0  0  0
  6  5  2  0  0  0  0
  7  1  1  0  0  0  0
  8  2  1  0  0  0  0
 11 13  2  0  0  0  0
 12 11  2  0  0  0  0
 14  3  1  0  0  0  0
 15 14  1  0  0  0  0
M  RAD  2  14   2  15   3
M  END
