Coordinates from ORCA-job 4-NO2-Ph-N2+-B3LYPG-6-31G_dp-MTMO-d009-169-n800
 OpenBabel09051908243D

 15 14  0  0  0  0  0  0  0  0999 V2000
   -3.9303   -0.2140   -0.0237 C   0  0  0  0  0  0  0  0  0  0  0  0
   -3.9634   -1.5750   -0.4514 C   0  0  0  0  0  0  0  0  0  0  0  0
   -2.6963   -1.8377   -0.7589 C   0  0  0  0  0  0  0  0  0  0  0  0
   -1.4382   -1.4155   -0.8466 C   0  0  0  0  0  0  0  0  0  0  0  0
   -1.5071   -0.0606   -0.4036 C   0  0  0  0  0  0  0  0  0  0  0  0
   -2.7268    0.4921   -0.0120 C   0  0  0  0  0  0  0  0  0  0  0  0
   -4.8605    0.2548    0.2901 H   0  0  0  0  0  0  0  0  0  0  0  0
   -4.8520   -2.1954   -0.4933 H   0  0  0  0  0  0  0  0  0  0  0  0
   -0.5348   -1.9231   -1.1664 H   0  0  0  0  0  0  0  0  0  0  0  0
   -0.5903    0.5249   -0.3780 H   0  0  0  0  0  0  0  0  0  0  0  0
   -2.7452    1.9071    0.4413 N   0  0  0  0  0  0  0  0  0  0  0  0
   -3.8336    2.3500    0.7782 O   0  0  0  0  0  0  0  0  0  0  0  0
   -1.6702    2.4888    0.4328 O   0  0  0  0  0  0  0  0  0  0  0  0
    6.1574    6.6642    0.6407 N   0  0  0  0  0  0  0  0  0  0  0  0
    6.8029    7.5408    0.8317 N   0  0  0  0  0  0  0  0  0  0  0  0
  1  6  1  0  0  0  0
  1  7  1  0  0  0  0
  2  1  2  0  0  0  0
  3  2  1  0  0  0  0
  4  3  2  0  0  0  0
  4  5  1  0  0  0  0
  5 10  1  0  0  0  0
  5  6  2  0  0  0  0
  6 11  1  0  0  0  0
  8  2  1  0  0  0  0
  9  4  1  0  0  0  0
 11 12  2  0  0  0  0
 13 11  2  0  0  0  0
 14 15  3  0  0  0  0
M  RAD  1   3   2
M  END
