Coordinates from ORCA-job 4-NO2-Ph-N2+-B3LYPG-6-31G_dp-MTMO-d009-169-n800
 OpenBabel09051908243D

 15 14  0  0  0  0  0  0  0  0999 V2000
   -2.1196   -0.2103   -0.6237 C   0  0  0  0  0  0  0  0  0  0  0  0
   -0.7075   -0.2493   -0.7442 C   0  0  0  0  0  0  0  0  0  0  0  0
   -0.2409    0.8671   -0.1631 C   0  0  0  0  0  0  0  0  0  0  0  0
   -0.6215    1.9834    0.4778 C   0  0  0  0  0  0  0  0  0  0  0  0
   -2.0366    1.9443    0.5557 C   0  0  0  0  0  0  0  0  0  0  0  0
   -2.7361    0.8670    0.0122 C   0  0  0  0  0  0  0  0  0  0  0  0
   -2.7111   -1.0258   -1.0304 H   0  0  0  0  0  0  0  0  0  0  0  0
   -0.1556   -1.0491   -1.2218 H   0  0  0  0  0  0  0  0  0  0  0  0
   -0.0084    2.7830    0.8739 H   0  0  0  0  0  0  0  0  0  0  0  0
   -2.5658    2.7600    1.0407 H   0  0  0  0  0  0  0  0  0  0  0  0
   -4.2193    0.8667    0.1170 N   0  0  0  0  0  0  0  0  0  0  0  0
   -4.7961   -0.0950   -0.3703 O   0  0  0  0  0  0  0  0  0  0  0  0
   -4.7223    1.8280    0.6810 O   0  0  0  0  0  0  0  0  0  0  0  0
    2.0753    0.8659   -0.3239 N   0  0  0  0  0  0  0  0  0  0  0  0
    3.1769    0.8654   -0.3996 N   0  0  0  0  0  0  0  0  0  0  0  0
  1  6  1  0  0  0  0
  2  1  2  0  0  0  0
  2  3  1  0  0  0  0
  3  4  2  0  0  0  0
  4  5  1  0  0  0  0
  4  9  1  0  0  0  0
  5 10  1  0  0  0  0
  6 11  1  0  0  0  0
  6  5  2  0  0  0  0
  7  1  1  0  0  0  0
  8  2  1  0  0  0  0
 11 13  2  0  0  0  0
 12 11  2  0  0  0  0
 15 14  3  0  0  0  0
M  RAD  1   3   2
M  END
