Coordinates from ORCA-job 4-NO2-Ph-N2+-B3LYPG-6-31G_dp-MTMO-d009-169-n800
 OpenBabel09051908243D

 15 14  0  0  0  0  0  0  0  0999 V2000
   -4.1463   -0.3750   -0.0265 C   0  0  0  0  0  0  0  0  0  0  0  0
   -4.2080   -1.7404   -0.4375 C   0  0  0  0  0  0  0  0  0  0  0  0
   -2.9514   -2.0245   -0.7678 C   0  0  0  0  0  0  0  0  0  0  0  0
   -1.6894   -1.6216   -0.8861 C   0  0  0  0  0  0  0  0  0  0  0  0
   -1.7296   -0.2611   -0.4578 C   0  0  0  0  0  0  0  0  0  0  0  0
   -2.9330    0.3138   -0.0478 C   0  0  0  0  0  0  0  0  0  0  0  0
   -5.0631    0.1107    0.3009 H   0  0  0  0  0  0  0  0  0  0  0  0
   -5.1063   -2.3479   -0.4534 H   0  0  0  0  0  0  0  0  0  0  0  0
   -0.8007   -2.1467   -1.2186 H   0  0  0  0  0  0  0  0  0  0  0  0
   -0.8042    0.3115   -0.4579 H   0  0  0  0  0  0  0  0  0  0  0  0
   -2.9217    1.7340    0.3890 N   0  0  0  0  0  0  0  0  0  0  0  0
   -3.9959    2.1961    0.7447 O   0  0  0  0  0  0  0  0  0  0  0  0
   -1.8391    2.3002    0.3495 O   0  0  0  0  0  0  0  0  0  0  0  0
    7.5874    7.8314    0.8261 N   0  0  0  0  0  0  0  0  0  0  0  0
    8.2128    8.7209    1.0243 N   0  0  0  0  0  0  0  0  0  0  0  0
  1  7  1  0  0  0  0
  2  1  2  0  0  0  0
  3  2  1  0  0  0  0
  4  3  2  0  0  0  0
  4  5  1  0  0  0  0
  5  6  2  0  0  0  0
  6  1  1  0  0  0  0
  6 11  1  0  0  0  0
  8  2  1  0  0  0  0
  9  4  1  0  0  0  0
 10  5  1  0  0  0  0
 11 12  2  0  0  0  0
 13 11  2  0  0  0  0
 14 15  3  0  0  0  0
M  RAD  1   3   2
M  END
