Coordinates from ORCA-job 4-NO2-Ph-N2+-B3LYPG-6-31G_dp-MTMO-d009-169-n800
 OpenBabel09051908243D

 15 14  0  0  0  0  0  0  0  0999 V2000
   -3.7385   -0.0849   -0.0233 C   0  0  0  0  0  0  0  0  0  0  0  0
   -3.7217   -1.4412   -0.4667 C   0  0  0  0  0  0  0  0  0  0  0  0
   -2.4411   -1.6622   -0.7500 C   0  0  0  0  0  0  0  0  0  0  0  0
   -1.1947   -1.2015   -0.8062 C   0  0  0  0  0  0  0  0  0  0  0  0
   -1.3136    0.1454   -0.3494 C   0  0  0  0  0  0  0  0  0  0  0  0
   -2.5574    0.6566    0.0223 C   0  0  0  0  0  0  0  0  0  0  0  0
   -4.6888    0.3524    0.2755 H   0  0  0  0  0  0  0  0  0  0  0  0
   -4.5901   -2.0874   -0.5347 H   0  0  0  0  0  0  0  0  0  0  0  0
   -0.2701   -1.6778   -1.1128 H   0  0  0  0  0  0  0  0  0  0  0  0
   -0.4157    0.7580   -0.2984 H   0  0  0  0  0  0  0  0  0  0  0  0
   -2.6281    2.0647    0.4916 N   0  0  0  0  0  0  0  0  0  0  0  0
   -3.7375    2.4726    0.8031 O   0  0  0  0  0  0  0  0  0  0  0  0
   -1.5702    2.6762    0.5207 O   0  0  0  0  0  0  0  0  0  0  0  0
    4.9138    5.5774    0.4679 N   0  0  0  0  0  0  0  0  0  0  0  0
    5.5651    6.4534    0.6415 N   0  0  0  0  0  0  0  0  0  0  0  0
  1  6  1  0  0  0  0
  1  7  1  0  0  0  0
  2  1  2  0  0  0  0
  3  2  1  0  0  0  0
  4  3  2  0  0  0  0
  4  5  1  0  0  0  0
  5 10  1  0  0  0  0
  5  6  2  0  0  0  0
  6 11  1  0  0  0  0
  8  2  1  0  0  0  0
  9  4  1  0  0  0  0
 11 13  2  0  0  0  0
 11 12  2  0  0  0  0
 14 15  3  0  0  0  0
M  RAD  1   3   2
M  END
