Coordinates from ORCA-job 4-NO2-Ph-N2+-B3LYPG-6-31G_dp-MTMO-d009-169-n800
 OpenBabel09051908243D

 15 14  0  0  0  0  0  0  0  0999 V2000
   -3.6533   -0.0379   -0.0229 C   0  0  0  0  0  0  0  0  0  0  0  0
   -3.5969   -1.3910   -0.4730 C   0  0  0  0  0  0  0  0  0  0  0  0
   -2.3082   -1.5768   -0.7439 C   0  0  0  0  0  0  0  0  0  0  0  0
   -1.0736   -1.0836   -0.7849 C   0  0  0  0  0  0  0  0  0  0  0  0
   -1.2321    0.2573   -0.3228 C   0  0  0  0  0  0  0  0  0  0  0  0
   -2.4926    0.7340    0.0386 C   0  0  0  0  0  0  0  0  0  0  0  0
   -4.6177    0.3731    0.2681 H   0  0  0  0  0  0  0  0  0  0  0  0
   -4.4479   -2.0586   -0.5534 H   0  0  0  0  0  0  0  0  0  0  0  0
   -0.1342   -1.5350   -1.0841 H   0  0  0  0  0  0  0  0  0  0  0  0
   -0.3508    0.8926   -0.2592 H   0  0  0  0  0  0  0  0  0  0  0  0
   -2.6050    2.1374    0.5138 N   0  0  0  0  0  0  0  0  0  0  0  0
   -3.7275    2.5141    0.8174 O   0  0  0  0  0  0  0  0  0  0  0  0
   -1.5640    2.7766    0.5546 O   0  0  0  0  0  0  0  0  0  0  0  0
    4.3780    5.0643    0.3813 N   0  0  0  0  0  0  0  0  0  0  0  0
    5.0372    5.9349    0.5513 N   0  0  0  0  0  0  0  0  0  0  0  0
  1  6  1  0  0  0  0
  1  7  1  0  0  0  0
  2  1  2  0  0  0  0
  3  2  1  0  0  0  0
  4  3  2  0  0  0  0
  4  5  1  0  0  0  0
  5 10  1  0  0  0  0
  5  6  2  0  0  0  0
  6 11  1  0  0  0  0
  8  2  1  0  0  0  0
  9  4  1  0  0  0  0
 11 13  2  0  0  0  0
 11 12  2  0  0  0  0
 14 15  3  0  0  0  0
M  RAD  1   3   2
M  END
