Coordinates from ORCA-job 4-NO2-Ph-N2+-B3LYPG-6-31G_dp-MTMO-d009-169-n800
 OpenBabel09051908243D

 15 14  0  0  0  0  0  0  0  0999 V2000
   -3.9138   -0.2014   -0.0232 C   0  0  0  0  0  0  0  0  0  0  0  0
   -3.9459   -1.5623   -0.4519 C   0  0  0  0  0  0  0  0  0  0  0  0
   -2.6784   -1.8239   -0.7580 C   0  0  0  0  0  0  0  0  0  0  0  0
   -1.4202   -1.4010   -0.8439 C   0  0  0  0  0  0  0  0  0  0  0  0
   -1.4903   -0.0465   -0.4000 C   0  0  0  0  0  0  0  0  0  0  0  0
   -2.7108    0.5053   -0.0095 C   0  0  0  0  0  0  0  0  0  0  0  0
   -4.8447    0.2666    0.2898 H   0  0  0  0  0  0  0  0  0  0  0  0
   -4.8343   -2.1829   -0.4952 H   0  0  0  0  0  0  0  0  0  0  0  0
   -0.5165   -1.9083   -1.1631 H   0  0  0  0  0  0  0  0  0  0  0  0
   -0.5737    0.5394   -0.3729 H   0  0  0  0  0  0  0  0  0  0  0  0
   -2.7305    1.9199    0.4448 N   0  0  0  0  0  0  0  0  0  0  0  0
   -3.8195    2.3620    0.7805 O   0  0  0  0  0  0  0  0  0  0  0  0
   -1.6558    2.5022    0.4382 O   0  0  0  0  0  0  0  0  0  0  0  0
    6.0501    6.5780    0.6273 N   0  0  0  0  0  0  0  0  0  0  0  0
    6.6959    7.4543    0.8184 N   0  0  0  0  0  0  0  0  0  0  0  0
  1  6  1  0  0  0  0
  1  7  1  0  0  0  0
  2  1  2  0  0  0  0
  3  2  1  0  0  0  0
  4  3  2  0  0  0  0
  4  5  1  0  0  0  0
  5 10  1  0  0  0  0
  5  6  2  0  0  0  0
  6 11  1  0  0  0  0
  8  2  1  0  0  0  0
  9  4  1  0  0  0  0
 11 12  2  0  0  0  0
 13 11  2  0  0  0  0
 14 15  3  0  0  0  0
M  RAD  1   3   2
M  END
