Coordinates from ORCA-job 4-NO2-Ph-N2+-B3LYPG-6-31G_dp-MTMO-d009-169-n800
 OpenBabel09051908243D

 15 14  0  0  0  0  0  0  0  0999 V2000
   -2.6264   -0.2402   -0.6089 C   0  0  0  0  0  0  0  0  0  0  0  0
   -1.2120   -0.3419   -0.7699 C   0  0  0  0  0  0  0  0  0  0  0  0
   -0.7511    0.7649   -0.1941 C   0  0  0  0  0  0  0  0  0  0  0  0
   -1.0054    1.8998    0.4509 C   0  0  0  0  0  0  0  0  0  0  0  0
   -2.4281    1.9111    0.5627 C   0  0  0  0  0  0  0  0  0  0  0  0
   -3.1846    0.8616    0.0402 C   0  0  0  0  0  0  0  0  0  0  0  0
   -3.2530   -1.0381   -1.0018 H   0  0  0  0  0  0  0  0  0  0  0  0
   -0.6953   -1.1610   -1.2581 H   0  0  0  0  0  0  0  0  0  0  0  0
   -0.3422    2.6716    0.8262 H   0  0  0  0  0  0  0  0  0  0  0  0
   -2.9038    2.7533    1.0610 H   0  0  0  0  0  0  0  0  0  0  0  0
   -4.6625    0.9199    0.1830 N   0  0  0  0  0  0  0  0  0  0  0  0
   -5.2861   -0.0202   -0.2876 O   0  0  0  0  0  0  0  0  0  0  0  0
   -5.1093    1.9020    0.7575 O   0  0  0  0  0  0  0  0  0  0  0  0
    4.9838    1.0440   -0.4168 N   0  0  0  0  0  0  0  0  0  0  0  0
    6.0876    1.0746   -0.4631 N   0  0  0  0  0  0  0  0  0  0  0  0
  1  6  1  0  0  0  0
  2  1  2  0  0  0  0
  2  3  1  0  0  0  0
  3  4  2  0  0  0  0
  4  5  1  0  0  0  0
  4  9  1  0  0  0  0
  5 10  1  0  0  0  0
  6 11  1  0  0  0  0
  6  5  2  0  0  0  0
  7  1  1  0  0  0  0
  8  2  1  0  0  0  0
 11 13  2  0  0  0  0
 12 11  2  0  0  0  0
 15 14  3  0  0  0  0
M  RAD  1   3   2
M  END
