Coordinates from ORCA-job 4-NO2-Ph-N2+-B3LYPG-6-31G_dp-MTMO-d009-169-n800
 OpenBabel09051908243D

 15 14  0  0  0  0  0  0  0  0999 V2000
   -3.5223    0.0333   -0.0264 C   0  0  0  0  0  0  0  0  0  0  0  0
   -3.4021   -1.3114   -0.4889 C   0  0  0  0  0  0  0  0  0  0  0  0
   -2.1019   -1.4423   -0.7361 C   0  0  0  0  0  0  0  0  0  0  0  0
   -0.8878   -0.8992   -0.7476 C   0  0  0  0  0  0  0  0  0  0  0  0
   -1.1097    0.4294   -0.2757 C   0  0  0  0  0  0  0  0  0  0  0  0
   -2.3954    0.8508    0.0653 C   0  0  0  0  0  0  0  0  0  0  0  0
   -4.5079    0.4021    0.2497 H   0  0  0  0  0  0  0  0  0  0  0  0
   -4.2234   -2.0121   -0.5933 H   0  0  0  0  0  0  0  0  0  0  0  0
    0.0752   -1.3085   -1.0322 H   0  0  0  0  0  0  0  0  0  0  0  0
   -0.2562    1.0990   -0.1882 H   0  0  0  0  0  0  0  0  0  0  0  0
   -2.5741    2.2436    0.5514 N   0  0  0  0  0  0  0  0  0  0  0  0
   -3.7161    2.5694    0.8411 O   0  0  0  0  0  0  0  0  0  0  0  0
   -1.5620    2.9259    0.6132 O   0  0  0  0  0  0  0  0  0  0  0  0
    3.5547    4.2836    0.2504 N   0  0  0  0  0  0  0  0  0  0  0  0
    4.2405    5.1376    0.3985 N   0  0  0  0  0  0  0  0  0  0  0  0
  1  6  1  0  0  0  0
  1  7  1  0  0  0  0
  2  1  2  0  0  0  0
  3  2  1  0  0  0  0
  4  3  2  0  0  0  0
  4  5  1  0  0  0  0
  5 10  1  0  0  0  0
  5  6  2  0  0  0  0
  6 11  1  0  0  0  0
  8  2  1  0  0  0  0
  9  4  1  0  0  0  0
 11 13  2  0  0  0  0
 11 12  2  0  0  0  0
 14 15  3  0  0  0  0
M  RAD  1   3   2
M  END
