Coordinates from ORCA-job 4-NO2-Ph-N2+-B3LYPG-6-31G_dp-MTMO-d009-169-n800
 OpenBabel09051908243D

 15 14  0  0  0  0  0  0  0  0999 V2000
   -4.3435   -0.5294   -0.0336 C   0  0  0  0  0  0  0  0  0  0  0  0
   -4.4155   -1.8978   -0.4327 C   0  0  0  0  0  0  0  0  0  0  0  0
   -3.1645   -2.1888   -0.7781 C   0  0  0  0  0  0  0  0  0  0  0  0
   -1.9029   -1.7913   -0.9170 C   0  0  0  0  0  0  0  0  0  0  0  0
   -1.9326   -0.4273   -0.4991 C   0  0  0  0  0  0  0  0  0  0  0  0
   -3.1284    0.1550   -0.0771 C   0  0  0  0  0  0  0  0  0  0  0  0
   -5.2541   -0.0380    0.3026 H   0  0  0  0  0  0  0  0  0  0  0  0
   -5.3158   -2.5025   -0.4315 H   0  0  0  0  0  0  0  0  0  0  0  0
   -1.0206   -2.3221   -1.2573 H   0  0  0  0  0  0  0  0  0  0  0  0
   -1.0054    0.1421   -0.5165 H   0  0  0  0  0  0  0  0  0  0  0  0
   -3.1064    1.5786    0.3479 N   0  0  0  0  0  0  0  0  0  0  0  0
   -4.1737    2.0468    0.7161 O   0  0  0  0  0  0  0  0  0  0  0  0
   -2.0228    2.1411    0.2873 O   0  0  0  0  0  0  0  0  0  0  0  0
    8.9092    8.8585    0.9808 N   0  0  0  0  0  0  0  0  0  0  0  0
    9.4883    9.7766    1.1894 N   0  0  0  0  0  0  0  0  0  0  0  0
  1  7  1  0  0  0  0
  2  8  1  0  0  0  0
  2  1  2  0  0  0  0
  3  2  1  0  0  0  0
  4  3  2  0  0  0  0
  4  5  1  0  0  0  0
  5  6  2  0  0  0  0
  6  1  1  0  0  0  0
  6 11  1  0  0  0  0
  9  4  1  0  0  0  0
 10  5  1  0  0  0  0
 11 12  2  0  0  0  0
 13 11  2  0  0  0  0
 14 15  3  0  0  0  0
M  RAD  1   3   2
M  END
