Coordinates from ORCA-job 4-NO2-Ph-N2+-B3LYPG-6-31G_dp-MTMO-d009-169-n800
 OpenBabel09051908243D

 15 14  0  0  0  0  0  0  0  0999 V2000
   -2.6015   -0.2369   -0.6089 C   0  0  0  0  0  0  0  0  0  0  0  0
   -1.1863   -0.3318   -0.7669 C   0  0  0  0  0  0  0  0  0  0  0  0
   -0.7320    0.7771   -0.1899 C   0  0  0  0  0  0  0  0  0  0  0  0
   -0.9931    1.9107    0.4549 C   0  0  0  0  0  0  0  0  0  0  0  0
   -2.4160    1.9150    0.5637 C   0  0  0  0  0  0  0  0  0  0  0  0
   -3.1664    0.8620    0.0393 C   0  0  0  0  0  0  0  0  0  0  0  0
   -3.2234   -1.0378   -1.0033 H   0  0  0  0  0  0  0  0  0  0  0  0
   -0.6646   -1.1482   -1.2542 H   0  0  0  0  0  0  0  0  0  0  0  0
   -0.3344    2.6855    0.8317 H   0  0  0  0  0  0  0  0  0  0  0  0
   -2.8970    2.7547    1.0612 H   0  0  0  0  0  0  0  0  0  0  0  0
   -4.6448    0.9130    0.1790 N   0  0  0  0  0  0  0  0  0  0  0  0
   -5.2629   -0.0299   -0.2931 O   0  0  0  0  0  0  0  0  0  0  0  0
   -5.0976    1.8928    0.7528 O   0  0  0  0  0  0  0  0  0  0  0  0
    4.8638    1.0244   -0.4183 N   0  0  0  0  0  0  0  0  0  0  0  0
    5.9676    1.0510   -0.4669 N   0  0  0  0  0  0  0  0  0  0  0  0
  1  6  1  0  0  0  0
  2  1  2  0  0  0  0
  2  3  1  0  0  0  0
  3  4  2  0  0  0  0
  4  5  1  0  0  0  0
  4  9  1  0  0  0  0
  5 10  1  0  0  0  0
  6 11  1  0  0  0  0
  6  5  2  0  0  0  0
  7  1  1  0  0  0  0
  8  2  1  0  0  0  0
 11 13  2  0  0  0  0
 12 11  2  0  0  0  0
 15 14  3  0  0  0  0
M  RAD  1   3   2
M  END
