Coordinates from ORCA-job 4-NO2-Ph-N2+-B3LYPG-6-31G_dp-MTMO-d009-169-n800
 OpenBabel09051908243D

 15 14  0  0  0  0  0  0  0  0999 V2000
   -3.8205   -0.1350   -0.0226 C   0  0  0  0  0  0  0  0  0  0  0  0
   -3.8351   -1.4938   -0.4589 C   0  0  0  0  0  0  0  0  0  0  0  0
   -2.5621   -1.7411   -0.7540 C   0  0  0  0  0  0  0  0  0  0  0  0
   -1.3075   -1.3052   -0.8255 C   0  0  0  0  0  0  0  0  0  0  0  0
   -1.3952    0.0461   -0.3751 C   0  0  0  0  0  0  0  0  0  0  0  0
   -2.6249    0.5836    0.0066 C   0  0  0  0  0  0  0  0  0  0  0  0
   -4.7590    0.3221    0.2837 H   0  0  0  0  0  0  0  0  0  0  0  0
   -4.7169   -2.1227   -0.5143 H   0  0  0  0  0  0  0  0  0  0  0  0
   -0.3958   -1.8019   -1.1386 H   0  0  0  0  0  0  0  0  0  0  0  0
   -0.4848    0.6409   -0.3359 H   0  0  0  0  0  0  0  0  0  0  0  0
   -2.6632    1.9954    0.4683 N   0  0  0  0  0  0  0  0  0  0  0  0
   -3.7600    2.4248    0.7951 O   0  0  0  0  0  0  0  0  0  0  0  0
   -1.5943    2.5882    0.4761 O   0  0  0  0  0  0  0  0  0  0  0  0
    5.4404    6.0629    0.5449 N   0  0  0  0  0  0  0  0  0  0  0  0
    6.0904    6.9372    0.7311 N   0  0  0  0  0  0  0  0  0  0  0  0
  1  6  1  0  0  0  0
  1  7  1  0  0  0  0
  2  1  2  0  0  0  0
  3  2  1  0  0  0  0
  4  3  2  0  0  0  0
  4  5  1  0  0  0  0
  5 10  1  0  0  0  0
  5  6  2  0  0  0  0
  6 11  1  0  0  0  0
  8  2  1  0  0  0  0
  9  4  1  0  0  0  0
 11 13  2  0  0  0  0
 11 12  2  0  0  0  0
 14 15  3  0  0  0  0
M  RAD  1   3   2
M  END
