Coordinates from ORCA-job 4-NO2-Ph-N2+-B3LYPG-6-31G_dp-MTMO-d009-169-n800
 OpenBabel09051908243D

 15 14  0  0  0  0  0  0  0  0999 V2000
   -3.4965    0.0478   -0.0260 C   0  0  0  0  0  0  0  0  0  0  0  0
   -3.3666   -1.2955   -0.4898 C   0  0  0  0  0  0  0  0  0  0  0  0
   -2.0649   -1.4176   -0.7340 C   0  0  0  0  0  0  0  0  0  0  0  0
   -0.8544   -0.8665   -0.7420 C   0  0  0  0  0  0  0  0  0  0  0  0
   -1.0859    0.4601   -0.2690 C   0  0  0  0  0  0  0  0  0  0  0  0
   -2.3752    0.8726    0.0694 C   0  0  0  0  0  0  0  0  0  0  0  0
   -4.4852    0.4099    0.2482 H   0  0  0  0  0  0  0  0  0  0  0  0
   -4.1831   -2.0013   -0.5970 H   0  0  0  0  0  0  0  0  0  0  0  0
    0.1118   -1.2693   -1.0247 H   0  0  0  0  0  0  0  0  0  0  0  0
   -0.2370    1.1351   -0.1786 H   0  0  0  0  0  0  0  0  0  0  0  0
   -2.5644    2.2636    0.5567 N   0  0  0  0  0  0  0  0  0  0  0  0
   -3.7092    2.5812    0.8446 O   0  0  0  0  0  0  0  0  0  0  0  0
   -1.5571    2.9528    0.6211 O   0  0  0  0  0  0  0  0  0  0  0  0
    3.3917    4.1414    0.2274 N   0  0  0  0  0  0  0  0  0  0  0  0
    4.0874    4.9873    0.3749 N   0  0  0  0  0  0  0  0  0  0  0  0
  1  6  1  0  0  0  0
  1  7  1  0  0  0  0
  2  1  2  0  0  0  0
  3  2  1  0  0  0  0
  4  3  2  0  0  0  0
  4  5  1  0  0  0  0
  5 10  1  0  0  0  0
  5  6  2  0  0  0  0
  6 11  1  0  0  0  0
  8  2  1  0  0  0  0
  9  4  1  0  0  0  0
 11 13  2  0  0  0  0
 11 12  2  0  0  0  0
 14 15  3  0  0  0  0
M  RAD  1   3   2
M  END
