Coordinates from ORCA-job 4-NO2-Ph-N2+-B3LYPG-6-31G_dp-MTMO-d009-169-n800
 OpenBabel09051908243D

 15 14  0  0  0  0  0  0  0  0999 V2000
   -2.1032   -0.2103   -0.6248 C   0  0  0  0  0  0  0  0  0  0  0  0
   -0.6940   -0.2472   -0.7438 C   0  0  0  0  0  0  0  0  0  0  0  0
   -0.2047    0.8670   -0.1655 C   0  0  0  0  0  0  0  0  0  0  0  0
   -0.6083    1.9811    0.4757 C   0  0  0  0  0  0  0  0  0  0  0  0
   -2.0202    1.9443    0.5545 C   0  0  0  0  0  0  0  0  0  0  0  0
   -2.7192    0.8670    0.0111 C   0  0  0  0  0  0  0  0  0  0  0  0
   -2.6971   -1.0241   -1.0304 H   0  0  0  0  0  0  0  0  0  0  0  0
   -0.1456   -1.0487   -1.2221 H   0  0  0  0  0  0  0  0  0  0  0  0
    0.0014    2.7825    0.8732 H   0  0  0  0  0  0  0  0  0  0  0  0
   -2.5520    2.7583    1.0388 H   0  0  0  0  0  0  0  0  0  0  0  0
   -4.2031    0.8668    0.1157 N   0  0  0  0  0  0  0  0  0  0  0  0
   -4.7804   -0.0947   -0.3715 O   0  0  0  0  0  0  0  0  0  0  0  0
   -4.7067    1.8279    0.6796 O   0  0  0  0  0  0  0  0  0  0  0  0
    1.9716    0.8661   -0.3168 N   0  0  0  0  0  0  0  0  0  0  0  0
    3.0729    0.8656   -0.3928 N   0  0  0  0  0  0  0  0  0  0  0  0
  1  6  1  0  0  0  0
  2  1  2  0  0  0  0
  2  3  1  0  0  0  0
  3  4  2  0  0  0  0
  4  5  1  0  0  0  0
  4  9  1  0  0  0  0
  5 10  1  0  0  0  0
  6 11  1  0  0  0  0
  6  5  2  0  0  0  0
  7  1  1  0  0  0  0
  8  2  1  0  0  0  0
 11 13  2  0  0  0  0
 12 11  2  0  0  0  0
 15 14  3  0  0  0  0
M  RAD  1   3   2
M  END
