Coordinates from ORCA-job 4-NO2-Ph-N2+-B3LYPG-6-31G_dp-MTMO-d009-169-n800
 OpenBabel09051908243D

 15 14  0  0  0  0  0  0  0  0999 V2000
   -2.0787   -0.2106   -0.6266 C   0  0  0  0  0  0  0  0  0  0  0  0
   -0.6755   -0.2425   -0.7422 C   0  0  0  0  0  0  0  0  0  0  0  0
   -0.1396    0.8669   -0.1698 C   0  0  0  0  0  0  0  0  0  0  0  0
   -0.5902    1.9763    0.4719 C   0  0  0  0  0  0  0  0  0  0  0  0
   -1.9957    1.9446    0.5530 C   0  0  0  0  0  0  0  0  0  0  0  0
   -2.6939    0.8670    0.0093 C   0  0  0  0  0  0  0  0  0  0  0  0
   -2.6775   -1.0208   -1.0299 H   0  0  0  0  0  0  0  0  0  0  0  0
   -0.1333   -1.0474   -1.2219 H   0  0  0  0  0  0  0  0  0  0  0  0
    0.0136    2.7808    0.8718 H   0  0  0  0  0  0  0  0  0  0  0  0
   -2.5326    2.7549    1.0357 H   0  0  0  0  0  0  0  0  0  0  0  0
   -4.1790    0.8669    0.1139 N   0  0  0  0  0  0  0  0  0  0  0  0
   -4.7574   -0.0942   -0.3731 O   0  0  0  0  0  0  0  0  0  0  0  0
   -4.6837    1.8276    0.6776 O   0  0  0  0  0  0  0  0  0  0  0  0
    1.8170    0.8662   -0.3062 N   0  0  0  0  0  0  0  0  0  0  0  0
    2.9181    0.8658   -0.3825 N   0  0  0  0  0  0  0  0  0  0  0  0
  1  6  1  0  0  0  0
  2  1  2  0  0  0  0
  2  3  1  0  0  0  0
  3  4  2  0  0  0  0
  4  5  1  0  0  0  0
  4  9  1  0  0  0  0
  5 10  1  0  0  0  0
  6 11  1  0  0  0  0
  6  5  2  0  0  0  0
  7  1  1  0  0  0  0
  8  2  1  0  0  0  0
 11 13  2  0  0  0  0
 12 11  2  0  0  0  0
 15 14  3  0  0  0  0
M  RAD  1   3   2
M  END
