Coordinates from ORCA-job 4-NO2-Ph-N2+-B3LYPG-6-31G_dp-MTMO-d009-169-n800
 OpenBabel09051908243D

 15 14  0  0  0  0  0  0  0  0999 V2000
   -4.2952   -0.4922   -0.0326 C   0  0  0  0  0  0  0  0  0  0  0  0
   -4.3633   -1.8597   -0.4352 C   0  0  0  0  0  0  0  0  0  0  0  0
   -3.1105   -2.1479   -0.7761 C   0  0  0  0  0  0  0  0  0  0  0  0
   -1.8489   -1.7481   -0.9088 C   0  0  0  0  0  0  0  0  0  0  0  0
   -1.8826   -0.3851   -0.4879 C   0  0  0  0  0  0  0  0  0  0  0  0
   -3.0810    0.1943   -0.0695 C   0  0  0  0  0  0  0  0  0  0  0  0
   -5.2079   -0.0029    0.3010 H   0  0  0  0  0  0  0  0  0  0  0  0
   -5.2627   -2.4658   -0.4391 H   0  0  0  0  0  0  0  0  0  0  0  0
   -0.9643   -2.2767   -1.2467 H   0  0  0  0  0  0  0  0  0  0  0  0
   -0.9562    0.1858   -0.5000 H   0  0  0  0  0  0  0  0  0  0  0  0
   -3.0630    1.6169    0.3589 N   0  0  0  0  0  0  0  0  0  0  0  0
   -4.1326    2.0826    0.7237 O   0  0  0  0  0  0  0  0  0  0  0  0
   -1.9802    2.1814    0.3042 O   0  0  0  0  0  0  0  0  0  0  0  0
    8.5845    8.6038    0.9417 N   0  0  0  0  0  0  0  0  0  0  0  0
    9.1752    9.5151    1.1474 N   0  0  0  0  0  0  0  0  0  0  0  0
  1  7  1  0  0  0  0
  2  1  2  0  0  0  0
  3  2  1  0  0  0  0
  4  3  2  0  0  0  0
  4  5  1  0  0  0  0
  5  6  2  0  0  0  0
  6  1  1  0  0  0  0
  6 11  1  0  0  0  0
  8  2  1  0  0  0  0
  9  4  1  0  0  0  0
 10  5  1  0  0  0  0
 11 12  2  0  0  0  0
 13 11  2  0  0  0  0
 14 15  3  0  0  0  0
M  RAD  1   3   2
M  END
