Coordinates from ORCA-job 4-NO2-Ph-N2+-B3LYPG-6-31G_dp-MTMO-d009-169-n800
 OpenBabel09051908243D

 15 14  0  0  0  0  0  0  0  0999 V2000
   -2.8258   -0.2691   -0.6067 C   0  0  0  0  0  0  0  0  0  0  0  0
   -1.4193   -0.4450   -0.7729 C   0  0  0  0  0  0  0  0  0  0  0  0
   -0.8987    0.6370   -0.2009 C   0  0  0  0  0  0  0  0  0  0  0  0
   -1.0907    1.7846    0.4432 C   0  0  0  0  0  0  0  0  0  0  0  0
   -2.5104    1.8709    0.5603 C   0  0  0  0  0  0  0  0  0  0  0  0
   -3.3230    0.8617    0.0423 C   0  0  0  0  0  0  0  0  0  0  0  0
   -3.4949   -1.0335   -0.9959 H   0  0  0  0  0  0  0  0  0  0  0  0
   -0.9484   -1.2907   -1.2621 H   0  0  0  0  0  0  0  0  0  0  0  0
   -0.3867    2.5210    0.8151 H   0  0  0  0  0  0  0  0  0  0  0  0
   -2.9392    2.7376    1.0590 H   0  0  0  0  0  0  0  0  0  0  0  0
   -4.7952    0.9979    0.1899 N   0  0  0  0  0  0  0  0  0  0  0  0
   -5.4689    0.0915   -0.2777 O   0  0  0  0  0  0  0  0  0  0  0  0
   -5.1875    2.0029    0.7645 O   0  0  0  0  0  0  0  0  0  0  0  0
    5.8985    1.2400   -0.4176 N   0  0  0  0  0  0  0  0  0  0  0  0
    7.0016    1.2947   -0.4593 N   0  0  0  0  0  0  0  0  0  0  0  0
  1  6  1  0  0  0  0
  2  1  2  0  0  0  0
  2  3  1  0  0  0  0
  3  4  2  0  0  0  0
  4  5  1  0  0  0  0
  4  9  1  0  0  0  0
  5 10  1  0  0  0  0
  6 11  1  0  0  0  0
  6  5  2  0  0  0  0
  7  1  1  0  0  0  0
  8  2  1  0  0  0  0
 11 13  2  0  0  0  0
 12 11  2  0  0  0  0
 15 14  3  0  0  0  0
M  RAD  1   3   2
M  END
