Coordinates from ORCA-job 4-NO2-Ph-N2+-B3LYPG-6-31G_dp-MTMO-d009-169-n800
 OpenBabel09051908243D

 15 14  0  0  0  0  0  0  0  0999 V2000
   -3.7751   -0.1109   -0.0259 C   0  0  0  0  0  0  0  0  0  0  0  0
   -3.7640   -1.4677   -0.4684 C   0  0  0  0  0  0  0  0  0  0  0  0
   -2.4845   -1.6930   -0.7532 C   0  0  0  0  0  0  0  0  0  0  0  0
   -1.2366   -1.2366   -0.8114 C   0  0  0  0  0  0  0  0  0  0  0  0
   -1.3499    0.1108   -0.3553 C   0  0  0  0  0  0  0  0  0  0  0  0
   -2.5915    0.6266    0.0177 C   0  0  0  0  0  0  0  0  0  0  0  0
   -4.7235    0.3298    0.2739 H   0  0  0  0  0  0  0  0  0  0  0  0
   -4.6350   -2.1105   -0.5345 H   0  0  0  0  0  0  0  0  0  0  0  0
   -0.3144   -1.7171   -1.1191 H   0  0  0  0  0  0  0  0  0  0  0  0
   -0.4498    0.7203   -0.3059 H   0  0  0  0  0  0  0  0  0  0  0  0
   -2.6568    2.0352    0.4863 N   0  0  0  0  0  0  0  0  0  0  0  0
   -3.7643    2.4473    0.7989 O   0  0  0  0  0  0  0  0  0  0  0  0
   -1.5966    2.6429    0.5134 O   0  0  0  0  0  0  0  0  0  0  0  0
    5.1489    5.7758    0.4962 N   0  0  0  0  0  0  0  0  0  0  0  0
    5.8045    6.6487    0.6684 N   0  0  0  0  0  0  0  0  0  0  0  0
  1  6  1  0  0  0  0
  1  7  1  0  0  0  0
  2  1  2  0  0  0  0
  3  2  1  0  0  0  0
  4  3  2  0  0  0  0
  4  5  1  0  0  0  0
  5 10  1  0  0  0  0
  5  6  2  0  0  0  0
  6 11  1  0  0  0  0
  8  2  1  0  0  0  0
  9  4  1  0  0  0  0
 11 13  2  0  0  0  0
 11 12  2  0  0  0  0
 14 15  3  0  0  0  0
M  RAD  1   3   2
M  END
