Coordinates from ORCA-job 4-NO2-Ph-N2+-B3LYPG-6-31G_dp-MTMO-d009-169-n800
 OpenBabel09051908243D

 15 14  0  0  0  0  0  0  0  0999 V2000
   -2.6846   -0.2481   -0.6090 C   0  0  0  0  0  0  0  0  0  0  0  0
   -1.2724   -0.3671   -0.7771 C   0  0  0  0  0  0  0  0  0  0  0  0
   -0.7951    0.7343   -0.2044 C   0  0  0  0  0  0  0  0  0  0  0  0
   -1.0322    1.8727    0.4410 C   0  0  0  0  0  0  0  0  0  0  0  0
   -2.4541    1.9014    0.5601 C   0  0  0  0  0  0  0  0  0  0  0  0
   -3.2260    0.8609    0.0421 C   0  0  0  0  0  0  0  0  0  0  0  0
   -3.3228   -1.0385   -0.9982 H   0  0  0  0  0  0  0  0  0  0  0  0
   -0.7683   -1.1928   -1.2675 H   0  0  0  0  0  0  0  0  0  0  0  0
   -0.3579    2.6366    0.8126 H   0  0  0  0  0  0  0  0  0  0  0  0
   -2.9169    2.7497    1.0604 H   0  0  0  0  0  0  0  0  0  0  0  0
   -4.7023    0.9373    0.1923 N   0  0  0  0  0  0  0  0  0  0  0  0
   -5.3397    0.0046   -0.2746 O   0  0  0  0  0  0  0  0  0  0  0  0
   -5.1342    1.9251    0.7683 O   0  0  0  0  0  0  0  0  0  0  0  0
    5.2572    1.0934   -0.4116 N   0  0  0  0  0  0  0  0  0  0  0  0
    6.3609    1.1320   -0.4534 N   0  0  0  0  0  0  0  0  0  0  0  0
  1  6  1  0  0  0  0
  2  1  2  0  0  0  0
  2  3  1  0  0  0  0
  3  4  2  0  0  0  0
  4  5  1  0  0  0  0
  4  9  1  0  0  0  0
  5 10  1  0  0  0  0
  6 11  1  0  0  0  0
  6  5  2  0  0  0  0
  7  1  1  0  0  0  0
  8  2  1  0  0  0  0
 11 13  2  0  0  0  0
 12 11  2  0  0  0  0
 15 14  3  0  0  0  0
M  RAD  1   3   2
M  END
