Coordinates from ORCA-job 4-NO2-Ph-N2+-B3LYPG-6-31G_dp-MTMO-d009-169-n800
 OpenBabel09051908243D

 15 14  0  0  0  0  0  0  0  0999 V2000
   -2.2695   -0.2107   -0.6146 C   0  0  0  0  0  0  0  0  0  0  0  0
   -0.8495   -0.2558   -0.7409 C   0  0  0  0  0  0  0  0  0  0  0  0
   -0.4430    0.8662   -0.1528 C   0  0  0  0  0  0  0  0  0  0  0  0
   -0.7607    1.9882    0.4875 C   0  0  0  0  0  0  0  0  0  0  0  0
   -2.1842    1.9439    0.5652 C   0  0  0  0  0  0  0  0  0  0  0  0
   -2.8860    0.8668    0.0226 C   0  0  0  0  0  0  0  0  0  0  0  0
   -2.8555   -1.0310   -1.0233 H   0  0  0  0  0  0  0  0  0  0  0  0
   -0.2877   -1.0515   -1.2171 H   0  0  0  0  0  0  0  0  0  0  0  0
   -0.1361    2.7833    0.8790 H   0  0  0  0  0  0  0  0  0  0  0  0
   -2.7057    2.7648    1.0529 H   0  0  0  0  0  0  0  0  0  0  0  0
   -4.3679    0.8669    0.1295 N   0  0  0  0  0  0  0  0  0  0  0  0
   -4.9432   -0.0953   -0.3579 O   0  0  0  0  0  0  0  0  0  0  0  0
   -4.8673    1.8289    0.6947 O   0  0  0  0  0  0  0  0  0  0  0  0
    3.0325    0.8685   -0.3853 N   0  0  0  0  0  0  0  0  0  0  0  0
    4.1350    0.8684   -0.4584 N   0  0  0  0  0  0  0  0  0  0  0  0
  1  6  1  0  0  0  0
  2  1  2  0  0  0  0
  2  3  1  0  0  0  0
  3  4  2  0  0  0  0
  4  5  1  0  0  0  0
  4  9  1  0  0  0  0
  5 10  1  0  0  0  0
  6 11  1  0  0  0  0
  6  5  2  0  0  0  0
  7  1  1  0  0  0  0
  8  2  1  0  0  0  0
 11 13  2  0  0  0  0
 12 11  2  0  0  0  0
 15 14  3  0  0  0  0
M  RAD  1   3   2
M  END
