Coordinates from ORCA-job 4-NO2-Ph-N2+-B3LYPG-6-31G_dp-MTMO-d009-169-n800
 OpenBabel09051908243D

 15 14  0  0  0  0  0  0  0  0999 V2000
   -3.6270   -0.0240   -0.0231 C   0  0  0  0  0  0  0  0  0  0  0  0
   -3.5570   -1.3757   -0.4753 C   0  0  0  0  0  0  0  0  0  0  0  0
   -2.2657   -1.5497   -0.7420 C   0  0  0  0  0  0  0  0  0  0  0  0
   -1.0355   -1.0455   -0.7778 C   0  0  0  0  0  0  0  0  0  0  0  0
   -1.2075    0.2932   -0.3139 C   0  0  0  0  0  0  0  0  0  0  0  0
   -2.4735    0.7581    0.0438 C   0  0  0  0  0  0  0  0  0  0  0  0
   -4.5960    0.3780    0.2653 H   0  0  0  0  0  0  0  0  0  0  0  0
   -4.4017   -2.0507   -0.5601 H   0  0  0  0  0  0  0  0  0  0  0  0
   -0.0910   -1.4880   -1.0743 H   0  0  0  0  0  0  0  0  0  0  0  0
   -0.3321    0.9361   -0.2460 H   0  0  0  0  0  0  0  0  0  0  0  0
   -2.5999    2.1596    0.5209 N   0  0  0  0  0  0  0  0  0  0  0  0
   -3.7267    2.5254    0.8222 O   0  0  0  0  0  0  0  0  0  0  0  0
   -1.5650    2.8084    0.5652 O   0  0  0  0  0  0  0  0  0  0  0  0
    4.2126    4.9049    0.3540 N   0  0  0  0  0  0  0  0  0  0  0  0
    4.8776    5.7715    0.5221 N   0  0  0  0  0  0  0  0  0  0  0  0
  1  6  1  0  0  0  0
  1  7  1  0  0  0  0
  2  1  2  0  0  0  0
  3  2  1  0  0  0  0
  4  3  2  0  0  0  0
  4  5  1  0  0  0  0
  5 10  1  0  0  0  0
  5  6  2  0  0  0  0
  6 11  1  0  0  0  0
  8  2  1  0  0  0  0
  9  4  1  0  0  0  0
 11 13  2  0  0  0  0
 11 12  2  0  0  0  0
 14 15  3  0  0  0  0
M  RAD  1   3   2
M  END
