Coordinates from ORCA-job 4-NO2-Ph-N2+-B3LYPG-6-31G_dp-MTMO-d009-169-n800
 OpenBabel09051908243D

 15 15  0  0  0  0  0  0  0  0999 V2000
   -2.0210   -0.2123   -0.6315 C   0  0  0  0  0  0  0  0  0  0  0  0
   -0.6377   -0.2268   -0.7359 C   0  0  0  0  0  0  0  0  0  0  0  0
    0.0604    0.8667   -0.1835 C   0  0  0  0  0  0  0  0  0  0  0  0
   -0.5536    1.9604    0.4607 C   0  0  0  0  0  0  0  0  0  0  0  0
   -1.9380    1.9463    0.5497 C   0  0  0  0  0  0  0  0  0  0  0  0
   -2.6361    0.8671    0.0052 C   0  0  0  0  0  0  0  0  0  0  0  0
   -2.6286   -1.0161   -1.0308 H   0  0  0  0  0  0  0  0  0  0  0  0
   -0.1118   -1.0423   -1.2203 H   0  0  0  0  0  0  0  0  0  0  0  0
    0.0347    2.7755    0.8677 H   0  0  0  0  0  0  0  0  0  0  0  0
   -2.4842    2.7502    1.0296 H   0  0  0  0  0  0  0  0  0  0  0  0
   -4.1260    0.8669    0.1102 N   0  0  0  0  0  0  0  0  0  0  0  0
   -4.7036   -0.0942   -0.3772 O   0  0  0  0  0  0  0  0  0  0  0  0
   -4.6298    1.8276    0.6741 O   0  0  0  0  0  0  0  0  0  0  0  0
    1.4376    0.8664   -0.2796 N   0  0  0  0  0  0  0  0  0  0  0  0
    2.5491    0.8660   -0.3572 N   0  0  0  0  0  0  0  0  0  0  0  0
  1  6  1  0  0  0  0
  2  1  2  0  0  0  0
  2  3  1  0  0  0  0
  3  4  2  0  0  0  0
  4  5  1  0  0  0  0
  4  9  1  0  0  0  0
  5 10  1  0  0  0  0
  6 11  1  0  0  0  0
  6  5  2  0  0  0  0
  7  1  1  0  0  0  0
  8  2  1  0  0  0  0
 11 13  2  0  0  0  0
 12 11  2  0  0  0  0
 14  3  1  0  0  0  0
 15 14  1  0  0  0  0
M  RAD  2  14   2  15   3
M  END
