Coordinates from ORCA-job 4-NO2-Ph-N2+-B3LYPG-6-31G_dp-MTMO-d009-169-n800
 OpenBabel09051908243D

 15 14  0  0  0  0  0  0  0  0999 V2000
   -2.3026   -0.2111   -0.6133 C   0  0  0  0  0  0  0  0  0  0  0  0
   -0.8825   -0.2570   -0.7416 C   0  0  0  0  0  0  0  0  0  0  0  0
   -0.4763    0.8650   -0.1538 C   0  0  0  0  0  0  0  0  0  0  0  0
   -0.7911    1.9873    0.4869 C   0  0  0  0  0  0  0  0  0  0  0  0
   -2.2149    1.9434    0.5663 C   0  0  0  0  0  0  0  0  0  0  0  0
   -2.9178    0.8666    0.0248 C   0  0  0  0  0  0  0  0  0  0  0  0
   -2.8892   -1.0314   -1.0213 H   0  0  0  0  0  0  0  0  0  0  0  0
   -0.3217   -1.0532   -1.2185 H   0  0  0  0  0  0  0  0  0  0  0  0
   -0.1658    2.7823    0.8776 H   0  0  0  0  0  0  0  0  0  0  0  0
   -2.7351    2.7647    1.0548 H   0  0  0  0  0  0  0  0  0  0  0  0
   -4.3996    0.8672    0.1338 N   0  0  0  0  0  0  0  0  0  0  0  0
   -4.9758   -0.0949   -0.3527 O   0  0  0  0  0  0  0  0  0  0  0  0
   -4.8977    1.8294    0.6997 O   0  0  0  0  0  0  0  0  0  0  0  0
    3.2394    0.8716   -0.3952 N   0  0  0  0  0  0  0  0  0  0  0  0
    4.3421    0.8717   -0.4664 N   0  0  0  0  0  0  0  0  0  0  0  0
  1  6  1  0  0  0  0
  2  1  2  0  0  0  0
  2  3  1  0  0  0  0
  3  4  2  0  0  0  0
  4  5  1  0  0  0  0
  4  9  1  0  0  0  0
  5 10  1  0  0  0  0
  6 11  1  0  0  0  0
  6  5  2  0  0  0  0
  7  1  1  0  0  0  0
  8  2  1  0  0  0  0
 11 13  2  0  0  0  0
 12 11  2  0  0  0  0
 15 14  3  0  0  0  0
M  RAD  1   3   2
M  END
