Coordinates from ORCA-job 4-NO2-Ph-N2+-B3LYPG-6-31G_dp-MTMO-d009-169-n800
 OpenBabel09051908243D

 15 14  0  0  0  0  0  0  0  0999 V2000
   -2.3428   -0.2127   -0.6118 C   0  0  0  0  0  0  0  0  0  0  0  0
   -0.9228   -0.2612   -0.7426 C   0  0  0  0  0  0  0  0  0  0  0  0
   -0.5145    0.8603   -0.1556 C   0  0  0  0  0  0  0  0  0  0  0  0
   -0.8254    1.9833    0.4856 C   0  0  0  0  0  0  0  0  0  0  0  0
   -2.2492    1.9418    0.5675 C   0  0  0  0  0  0  0  0  0  0  0  0
   -2.9550    0.8661    0.0272 C   0  0  0  0  0  0  0  0  0  0  0  0
   -2.9312   -1.0322   -1.0188 H   0  0  0  0  0  0  0  0  0  0  0  0
   -0.3646   -1.0587   -1.2205 H   0  0  0  0  0  0  0  0  0  0  0  0
   -0.1983    2.7775    0.8753 H   0  0  0  0  0  0  0  0  0  0  0  0
   -2.7669    2.7642    1.0568 H   0  0  0  0  0  0  0  0  0  0  0  0
   -4.4366    0.8694    0.1387 N   0  0  0  0  0  0  0  0  0  0  0  0
   -5.0152   -0.0918   -0.3467 O   0  0  0  0  0  0  0  0  0  0  0  0
   -4.9319    1.8326    0.7054 O   0  0  0  0  0  0  0  0  0  0  0  0
    3.4815    0.8806   -0.4057 N   0  0  0  0  0  0  0  0  0  0  0  0
    4.5844    0.8824   -0.4737 N   0  0  0  0  0  0  0  0  0  0  0  0
  1  6  1  0  0  0  0
  2  1  2  0  0  0  0
  2  3  1  0  0  0  0
  3  4  2  0  0  0  0
  4  5  1  0  0  0  0
  4  9  1  0  0  0  0
  5 10  1  0  0  0  0
  6 11  1  0  0  0  0
  6  5  2  0  0  0  0
  7  1  1  0  0  0  0
  8  2  1  0  0  0  0
 11 13  2  0  0  0  0
 12 11  2  0  0  0  0
 15 14  3  0  0  0  0
M  RAD  1   3   2
M  END
