Coordinates from ORCA-job 4-NO2-Ph-N2+-B3LYPG-6-31G_dp-MTMO-d009-169-n800
 OpenBabel09051908243D

 15 14  0  0  0  0  0  0  0  0999 V2000
   -3.5662    0.0069   -0.0266 C   0  0  0  0  0  0  0  0  0  0  0  0
   -3.4602   -1.3400   -0.4863 C   0  0  0  0  0  0  0  0  0  0  0  0
   -2.1624   -1.4830   -0.7389 C   0  0  0  0  0  0  0  0  0  0  0  0
   -0.9436   -0.9508   -0.7573 C   0  0  0  0  0  0  0  0  0  0  0  0
   -1.1513    0.3807   -0.2876 C   0  0  0  0  0  0  0  0  0  0  0  0
   -2.4316    0.8145    0.0582 C   0  0  0  0  0  0  0  0  0  0  0  0
   -4.5472    0.3851    0.2530 H   0  0  0  0  0  0  0  0  0  0  0  0
   -4.2883   -2.0335   -0.5852 H   0  0  0  0  0  0  0  0  0  0  0  0
    0.0142   -1.3698   -1.0453 H   0  0  0  0  0  0  0  0  0  0  0  0
   -0.2915    1.0429   -0.2055 H   0  0  0  0  0  0  0  0  0  0  0  0
   -2.5956    2.2099    0.5418 N   0  0  0  0  0  0  0  0  0  0  0  0
   -3.7334    2.5471    0.8350 O   0  0  0  0  0  0  0  0  0  0  0  0
   -1.5769    2.8828    0.5986 O   0  0  0  0  0  0  0  0  0  0  0  0
    3.8327    4.5254    0.2878 N   0  0  0  0  0  0  0  0  0  0  0  0
    4.5127    5.3833    0.4395 N   0  0  0  0  0  0  0  0  0  0  0  0
  1  6  1  0  0  0  0
  1  7  1  0  0  0  0
  2  1  2  0  0  0  0
  3  2  1  0  0  0  0
  4  3  2  0  0  0  0
  4  5  1  0  0  0  0
  5 10  1  0  0  0  0
  5  6  2  0  0  0  0
  6 11  1  0  0  0  0
  8  2  1  0  0  0  0
  9  4  1  0  0  0  0
 11 13  2  0  0  0  0
 11 12  2  0  0  0  0
 14 15  3  0  0  0  0
M  RAD  1   3   2
M  END
