Coordinates from ORCA-job 4-NO2-Ph-N2+-B3LYPG-6-31G_dp-MTMO-d009-169-n800
 OpenBabel09051908243D

 15 15  0  0  0  0  0  0  0  0999 V2000
   -1.9830   -0.2124   -0.6334 C   0  0  0  0  0  0  0  0  0  0  0  0
   -0.6168   -0.2316   -0.7392 C   0  0  0  0  0  0  0  0  0  0  0  0
    0.2298    0.8664   -0.1949 C   0  0  0  0  0  0  0  0  0  0  0  0
   -0.5324    1.9649    0.4615 C   0  0  0  0  0  0  0  0  0  0  0  0
   -1.9000    1.9461    0.5470 C   0  0  0  0  0  0  0  0  0  0  0  0
   -2.6042    0.8669    0.0034 C   0  0  0  0  0  0  0  0  0  0  0  0
   -2.5883   -1.0191   -1.0346 H   0  0  0  0  0  0  0  0  0  0  0  0
   -0.0766   -1.0417   -1.2215 H   0  0  0  0  0  0  0  0  0  0  0  0
    0.0698    2.7746    0.8641 H   0  0  0  0  0  0  0  0  0  0  0  0
   -2.4437    2.7530    1.0283 H   0  0  0  0  0  0  0  0  0  0  0  0
   -4.0940    0.8666    0.1084 N   0  0  0  0  0  0  0  0  0  0  0  0
   -4.6671   -0.0940   -0.3841 O   0  0  0  0  0  0  0  0  0  0  0  0
   -4.5929    1.8284    0.6740 O   0  0  0  0  0  0  0  0  0  0  0  0
    1.1275    0.8666   -0.2582 N   0  0  0  0  0  0  0  0  0  0  0  0
    2.2836    0.8668   -0.3397 N   0  0  0  0  0  0  0  0  0  0  0  0
  1  6  1  0  0  0  0
  2  1  2  0  0  0  0
  2  3  1  0  0  0  0
  3  4  2  0  0  0  0
  4  5  1  0  0  0  0
  4  9  1  0  0  0  0
  5 10  1  0  0  0  0
  6 11  1  0  0  0  0
  6  5  2  0  0  0  0
  7  1  1  0  0  0  0
  8  2  1  0  0  0  0
 11 13  2  0  0  0  0
 12 11  2  0  0  0  0
 14  3  1  0  0  0  0
 15 14  1  0  0  0  0
M  RAD  2  14   2  15   3
M  END
