Coordinates from ORCA-job 4-NO2-Ph-N2+-B3LYPG-6-31G_dp-MTMO-d009-169-n800
 OpenBabel09051908243D

 15 14  0  0  0  0  0  0  0  0999 V2000
   -4.1119   -0.3482   -0.0253 C   0  0  0  0  0  0  0  0  0  0  0  0
   -4.1710   -1.7130   -0.4383 C   0  0  0  0  0  0  0  0  0  0  0  0
   -2.9134   -1.9955   -0.7660 C   0  0  0  0  0  0  0  0  0  0  0  0
   -1.6514   -1.5913   -0.8806 C   0  0  0  0  0  0  0  0  0  0  0  0
   -1.6942   -0.2313   -0.4504 C   0  0  0  0  0  0  0  0  0  0  0  0
   -2.8992    0.3417   -0.0426 C   0  0  0  0  0  0  0  0  0  0  0  0
   -5.0299    0.1361    0.3006 H   0  0  0  0  0  0  0  0  0  0  0  0
   -5.0685   -2.3217   -0.4574 H   0  0  0  0  0  0  0  0  0  0  0  0
   -0.7612   -2.1146   -1.2116 H   0  0  0  0  0  0  0  0  0  0  0  0
   -0.7694    0.3422   -0.4476 H   0  0  0  0  0  0  0  0  0  0  0  0
   -2.8905    1.7613    0.3962 N   0  0  0  0  0  0  0  0  0  0  0  0
   -3.9661    2.2219    0.7495 O   0  0  0  0  0  0  0  0  0  0  0  0
   -1.8083    2.3286    0.3608 O   0  0  0  0  0  0  0  0  0  0  0  0
    7.3578    7.6497    0.7985 N   0  0  0  0  0  0  0  0  0  0  0  0
    7.9887    8.5357    0.9952 N   0  0  0  0  0  0  0  0  0  0  0  0
  1  7  1  0  0  0  0
  2  1  2  0  0  0  0
  3  2  1  0  0  0  0
  4  3  2  0  0  0  0
  4  5  1  0  0  0  0
  5 10  1  0  0  0  0
  5  6  2  0  0  0  0
  6  1  1  0  0  0  0
  6 11  1  0  0  0  0
  8  2  1  0  0  0  0
  9  4  1  0  0  0  0
 11 12  2  0  0  0  0
 13 11  2  0  0  0  0
 14 15  3  0  0  0  0
M  RAD  1   3   2
M  END
