Coordinates from ORCA-job 4-NO2-Ph-N2+-B3LYPG-6-31G_dp-MTMO-d009-169-n800
 OpenBabel09051908243D

 15 14  0  0  0  0  0  0  0  0999 V2000
   -3.6869   -0.0553   -0.0226 C   0  0  0  0  0  0  0  0  0  0  0  0
   -3.6484   -1.4100   -0.4697 C   0  0  0  0  0  0  0  0  0  0  0  0
   -2.3632   -1.6117   -0.7462 C   0  0  0  0  0  0  0  0  0  0  0  0
   -1.1232   -1.1332   -0.7942 C   0  0  0  0  0  0  0  0  0  0  0  0
   -1.2638    0.2105   -0.3344 C   0  0  0  0  0  0  0  0  0  0  0  0
   -2.5169    0.7030    0.0317 C   0  0  0  0  0  0  0  0  0  0  0  0
   -4.6450    0.3676    0.2720 H   0  0  0  0  0  0  0  0  0  0  0  0
   -4.5074   -2.0679   -0.5444 H   0  0  0  0  0  0  0  0  0  0  0  0
   -0.1904   -1.5960   -1.0968 H   0  0  0  0  0  0  0  0  0  0  0  0
   -0.3749    0.8356   -0.2765 H   0  0  0  0  0  0  0  0  0  0  0  0
   -2.6104    2.1086    0.5044 N   0  0  0  0  0  0  0  0  0  0  0  0
   -3.7272    2.4995    0.8112 O   0  0  0  0  0  0  0  0  0  0  0  0
   -1.5616    2.7352    0.5402 O   0  0  0  0  0  0  0  0  0  0  0  0
    4.5886    5.2704    0.4172 N   0  0  0  0  0  0  0  0  0  0  0  0
    5.2421    6.1451    0.5892 N   0  0  0  0  0  0  0  0  0  0  0  0
  1  6  1  0  0  0  0
  1  7  1  0  0  0  0
  2  1  2  0  0  0  0
  3  2  1  0  0  0  0
  4  3  2  0  0  0  0
  4  5  1  0  0  0  0
  5 10  1  0  0  0  0
  5  6  2  0  0  0  0
  6 11  1  0  0  0  0
  8  2  1  0  0  0  0
  9  4  1  0  0  0  0
 11 13  2  0  0  0  0
 11 12  2  0  0  0  0
 14 15  3  0  0  0  0
M  RAD  1   3   2
M  END
