Coordinates from ORCA-job 4-NO2-Ph-N2+-B3LYPG-6-31G_dp-MTMO-d009-169-n800
 OpenBabel09051908243D

 15 14  0  0  0  0  0  0  0  0999 V2000
   -3.7588   -0.0988   -0.0246 C   0  0  0  0  0  0  0  0  0  0  0  0
   -3.7456   -1.4554   -0.4673 C   0  0  0  0  0  0  0  0  0  0  0  0
   -2.4659   -1.6796   -0.7517 C   0  0  0  0  0  0  0  0  0  0  0  0
   -1.2184   -1.2219   -0.8093 C   0  0  0  0  0  0  0  0  0  0  0  0
   -1.3336    0.1254   -0.3530 C   0  0  0  0  0  0  0  0  0  0  0  0
   -2.5759    0.6398    0.0196 C   0  0  0  0  0  0  0  0  0  0  0  0
   -4.7077    0.3408    0.2750 H   0  0  0  0  0  0  0  0  0  0  0  0
   -4.6157   -2.0994   -0.5341 H   0  0  0  0  0  0  0  0  0  0  0  0
   -0.2953   -1.7007   -1.1167 H   0  0  0  0  0  0  0  0  0  0  0  0
   -0.4342    0.7358   -0.3031 H   0  0  0  0  0  0  0  0  0  0  0  0
   -2.6427    2.0483    0.4884 N   0  0  0  0  0  0  0  0  0  0  0  0
   -3.7508    2.4591    0.8007 O   0  0  0  0  0  0  0  0  0  0  0  0
   -1.5832    2.6571    0.5161 O   0  0  0  0  0  0  0  0  0  0  0  0
    5.0429    5.6882    0.4841 N   0  0  0  0  0  0  0  0  0  0  0  0
    5.6964    6.5626    0.6571 N   0  0  0  0  0  0  0  0  0  0  0  0
  1  6  1  0  0  0  0
  1  7  1  0  0  0  0
  2  1  2  0  0  0  0
  3  2  1  0  0  0  0
  4  3  2  0  0  0  0
  4  5  1  0  0  0  0
  5 10  1  0  0  0  0
  5  6  2  0  0  0  0
  6 11  1  0  0  0  0
  8  2  1  0  0  0  0
  9  4  1  0  0  0  0
 11 13  2  0  0  0  0
 11 12  2  0  0  0  0
 14 15  3  0  0  0  0
M  RAD  1   3   2
M  END
