Coordinates from ORCA-job 4-NO2-Ph-N2+-B3LYPG-6-31G_dp-MTMO-d009-169-n800
 OpenBabel09051908243D

 15 14  0  0  0  0  0  0  0  0999 V2000
   -2.7586   -0.2586   -0.6087 C   0  0  0  0  0  0  0  0  0  0  0  0
   -1.3495   -0.4033   -0.7825 C   0  0  0  0  0  0  0  0  0  0  0  0
   -0.8501    0.6898   -0.2128 C   0  0  0  0  0  0  0  0  0  0  0  0
   -1.0639    1.8326    0.4329 C   0  0  0  0  0  0  0  0  0  0  0  0
   -2.4845    1.8873    0.5576 C   0  0  0  0  0  0  0  0  0  0  0  0
   -3.2773    0.8605    0.0437 C   0  0  0  0  0  0  0  0  0  0  0  0
   -3.4127   -1.0376   -0.9946 H   0  0  0  0  0  0  0  0  0  0  0  0
   -0.8626   -1.2382   -1.2745 H   0  0  0  0  0  0  0  0  0  0  0  0
   -0.3743    2.5843    0.8013 H   0  0  0  0  0  0  0  0  0  0  0  0
   -2.9298    2.7442    1.0591 H   0  0  0  0  0  0  0  0  0  0  0  0
   -4.7514    0.9637    0.1997 N   0  0  0  0  0  0  0  0  0  0  0  0
   -5.4073    0.0424   -0.2639 O   0  0  0  0  0  0  0  0  0  0  0  0
   -5.1628    1.9597    0.7766 O   0  0  0  0  0  0  0  0  0  0  0  0
    5.5965    1.1635   -0.4072 N   0  0  0  0  0  0  0  0  0  0  0  0
    6.7000    1.2112   -0.4457 N   0  0  0  0  0  0  0  0  0  0  0  0
  1  6  1  0  0  0  0
  2  1  2  0  0  0  0
  2  3  1  0  0  0  0
  3  4  2  0  0  0  0
  4  5  1  0  0  0  0
  4  9  1  0  0  0  0
  5 10  1  0  0  0  0
  6 11  1  0  0  0  0
  6  5  2  0  0  0  0
  7  1  1  0  0  0  0
  8  2  1  0  0  0  0
 11 13  2  0  0  0  0
 12 11  2  0  0  0  0
 15 14  3  0  0  0  0
M  RAD  1   3   2
M  END
