Coordinates from ORCA-job 4-NO2-Ph-N2+-B3LYPG-6-31G_dp-MTMO-d009-169-n800
 OpenBabel09051908243D

 15 14  0  0  0  0  0  0  0  0999 V2000
   -3.7691   -0.1065   -0.0254 C   0  0  0  0  0  0  0  0  0  0  0  0
   -3.7569   -1.4632   -0.4681 C   0  0  0  0  0  0  0  0  0  0  0  0
   -2.4773   -1.6879   -0.7526 C   0  0  0  0  0  0  0  0  0  0  0  0
   -1.2296   -1.2309   -0.8106 C   0  0  0  0  0  0  0  0  0  0  0  0
   -1.3439    0.1165   -0.3544 C   0  0  0  0  0  0  0  0  0  0  0  0
   -2.5858    0.6316    0.0185 C   0  0  0  0  0  0  0  0  0  0  0  0
   -4.7178    0.3336    0.2742 H   0  0  0  0  0  0  0  0  0  0  0  0
   -4.6275   -2.1066   -0.5345 H   0  0  0  0  0  0  0  0  0  0  0  0
   -0.3070   -1.7106   -1.1181 H   0  0  0  0  0  0  0  0  0  0  0  0
   -0.4441    0.7264   -0.3047 H   0  0  0  0  0  0  0  0  0  0  0  0
   -2.6519    2.0401    0.4871 N   0  0  0  0  0  0  0  0  0  0  0  0
   -3.7597    2.4515    0.7997 O   0  0  0  0  0  0  0  0  0  0  0  0
   -1.5921    2.6484    0.5145 O   0  0  0  0  0  0  0  0  0  0  0  0
    5.1095    5.7428    0.4915 N   0  0  0  0  0  0  0  0  0  0  0  0
    5.7646    6.6162    0.6640 N   0  0  0  0  0  0  0  0  0  0  0  0
  1  6  1  0  0  0  0
  1  7  1  0  0  0  0
  2  1  2  0  0  0  0
  3  2  1  0  0  0  0
  4  3  2  0  0  0  0
  4  5  1  0  0  0  0
  5 10  1  0  0  0  0
  5  6  2  0  0  0  0
  6 11  1  0  0  0  0
  8  2  1  0  0  0  0
  9  4  1  0  0  0  0
 11 13  2  0  0  0  0
 11 12  2  0  0  0  0
 14 15  3  0  0  0  0
M  RAD  1   3   2
M  END
