Coordinates from ORCA-job 4-NO2-Ph-N2+-B3LYPG-6-31G_dp-MTMO-d009-169-n800
 OpenBabel09051908243D

 15 14  0  0  0  0  0  0  0  0999 V2000
   -3.6496   -0.0359   -0.0230 C   0  0  0  0  0  0  0  0  0  0  0  0
   -3.5912   -1.3888   -0.4733 C   0  0  0  0  0  0  0  0  0  0  0  0
   -2.3021   -1.5729   -0.7436 C   0  0  0  0  0  0  0  0  0  0  0  0
   -1.0682   -1.0781   -0.7839 C   0  0  0  0  0  0  0  0  0  0  0  0
   -1.2286    0.2624   -0.3215 C   0  0  0  0  0  0  0  0  0  0  0  0
   -2.4899    0.7375    0.0393 C   0  0  0  0  0  0  0  0  0  0  0  0
   -4.6146    0.3738    0.2677 H   0  0  0  0  0  0  0  0  0  0  0  0
   -4.4412   -2.0575   -0.5544 H   0  0  0  0  0  0  0  0  0  0  0  0
   -0.1279   -1.5282   -1.0827 H   0  0  0  0  0  0  0  0  0  0  0  0
   -0.3482    0.8989   -0.2573 H   0  0  0  0  0  0  0  0  0  0  0  0
   -2.6043    2.1406    0.5149 N   0  0  0  0  0  0  0  0  0  0  0  0
   -3.7275    2.5157    0.8181 O   0  0  0  0  0  0  0  0  0  0  0  0
   -1.5642    2.7812    0.5562 O   0  0  0  0  0  0  0  0  0  0  0  0
    4.3544    5.0414    0.3774 N   0  0  0  0  0  0  0  0  0  0  0  0
    5.0145    5.9115    0.5471 N   0  0  0  0  0  0  0  0  0  0  0  0
  1  6  1  0  0  0  0
  1  7  1  0  0  0  0
  2  1  2  0  0  0  0
  3  2  1  0  0  0  0
  4  3  2  0  0  0  0
  4  5  1  0  0  0  0
  5 10  1  0  0  0  0
  5  6  2  0  0  0  0
  6 11  1  0  0  0  0
  8  2  1  0  0  0  0
  9  4  1  0  0  0  0
 11 13  2  0  0  0  0
 11 12  2  0  0  0  0
 14 15  3  0  0  0  0
M  RAD  1   3   2
M  END
