Coordinates from ORCA-job 4-NO2-Ph-N2+-B3LYPG-6-31G_dp-MTMO-d009-169-n800
 OpenBabel09051908243D

 15 14  0  0  0  0  0  0  0  0999 V2000
   -3.5568    0.0120   -0.0268 C   0  0  0  0  0  0  0  0  0  0  0  0
   -3.4460   -1.3341   -0.4874 C   0  0  0  0  0  0  0  0  0  0  0  0
   -2.1473   -1.4732   -0.7384 C   0  0  0  0  0  0  0  0  0  0  0  0
   -0.9301   -0.9374   -0.7546 C   0  0  0  0  0  0  0  0  0  0  0  0
   -1.1426    0.3932   -0.2841 C   0  0  0  0  0  0  0  0  0  0  0  0
   -2.4246    0.8229    0.0602 C   0  0  0  0  0  0  0  0  0  0  0  0
   -4.5393    0.3871    0.2516 H   0  0  0  0  0  0  0  0  0  0  0  0
   -4.2718   -2.0300   -0.5882 H   0  0  0  0  0  0  0  0  0  0  0  0
    0.0295   -1.3530   -1.0414 H   0  0  0  0  0  0  0  0  0  0  0  0
   -0.2849    1.0579   -0.2003 H   0  0  0  0  0  0  0  0  0  0  0  0
   -2.5935    2.2175    0.5446 N   0  0  0  0  0  0  0  0  0  0  0  0
   -3.7327    2.5509    0.8365 O   0  0  0  0  0  0  0  0  0  0  0  0
   -1.5770    2.8935    0.6030 O   0  0  0  0  0  0  0  0  0  0  0  0
    3.7732    4.4688    0.2780 N   0  0  0  0  0  0  0  0  0  0  0  0
    4.4552    5.3254    0.4285 N   0  0  0  0  0  0  0  0  0  0  0  0
  1  6  1  0  0  0  0
  1  7  1  0  0  0  0
  2  1  2  0  0  0  0
  3  2  1  0  0  0  0
  4  3  2  0  0  0  0
  4  5  1  0  0  0  0
  5 10  1  0  0  0  0
  5  6  2  0  0  0  0
  6 11  1  0  0  0  0
  8  2  1  0  0  0  0
  9  4  1  0  0  0  0
 11 13  2  0  0  0  0
 11 12  2  0  0  0  0
 14 15  3  0  0  0  0
M  RAD  1   3   2
M  END
