Coordinates from ORCA-job 4-NO2-Ph-N2+-B3LYPG-6-31G_dp-MTMO-d009-169-n800
 OpenBabel09051908243D

 15 14  0  0  0  0  0  0  0  0999 V2000
   -4.0082   -0.2719   -0.0246 C   0  0  0  0  0  0  0  0  0  0  0  0
   -4.0523   -1.6347   -0.4461 C   0  0  0  0  0  0  0  0  0  0  0  0
   -2.7890   -1.9053   -0.7620 C   0  0  0  0  0  0  0  0  0  0  0  0
   -1.5292   -1.4903   -0.8610 C   0  0  0  0  0  0  0  0  0  0  0  0
   -1.5873   -0.1333   -0.4234 C   0  0  0  0  0  0  0  0  0  0  0  0
   -2.8010    0.4278   -0.0250 C   0  0  0  0  0  0  0  0  0  0  0  0
   -4.9335    0.2033    0.2943 H   0  0  0  0  0  0  0  0  0  0  0  0
   -4.9447   -2.2501   -0.4783 H   0  0  0  0  0  0  0  0  0  0  0  0
   -0.6315   -2.0047   -1.1857 H   0  0  0  0  0  0  0  0  0  0  0  0
   -0.6671    0.4474   -0.4074 H   0  0  0  0  0  0  0  0  0  0  0  0
   -2.8083    1.8447    0.4223 N   0  0  0  0  0  0  0  0  0  0  0  0
   -3.8916    2.2949    0.7656 O   0  0  0  0  0  0  0  0  0  0  0  0
   -1.7302    2.4204    0.4033 O   0  0  0  0  0  0  0  0  0  0  0  0
    6.6724    7.0866    0.7086 N   0  0  0  0  0  0  0  0  0  0  0  0
    7.3129    7.9667    0.9006 N   0  0  0  0  0  0  0  0  0  0  0  0
  1  7  1  0  0  0  0
  2  1  2  0  0  0  0
  3  2  1  0  0  0  0
  4  3  2  0  0  0  0
  4  5  1  0  0  0  0
  5 10  1  0  0  0  0
  5  6  2  0  0  0  0
  6  1  1  0  0  0  0
  6 11  1  0  0  0  0
  8  2  1  0  0  0  0
  9  4  1  0  0  0  0
 11 12  2  0  0  0  0
 13 11  2  0  0  0  0
 14 15  3  0  0  0  0
M  RAD  1   3   2
M  END
