Coordinates from ORCA-job 4-NO2-Ph-N2+-B3LYPG-6-31G_dp-MTMO-d009-169-n800
 OpenBabel09051908243D

 15 14  0  0  0  0  0  0  0  0999 V2000
   -4.2303   -0.4417   -0.0306 C   0  0  0  0  0  0  0  0  0  0  0  0
   -4.2945   -1.8082   -0.4374 C   0  0  0  0  0  0  0  0  0  0  0  0
   -3.0396   -2.0936   -0.7729 C   0  0  0  0  0  0  0  0  0  0  0  0
   -1.7780   -1.6915   -0.8983 C   0  0  0  0  0  0  0  0  0  0  0  0
   -1.8157   -0.3298   -0.4737 C   0  0  0  0  0  0  0  0  0  0  0  0
   -3.0170    0.2467   -0.0596 C   0  0  0  0  0  0  0  0  0  0  0  0
   -5.1454    0.0453    0.2998 H   0  0  0  0  0  0  0  0  0  0  0  0
   -5.1930   -2.4155   -0.4474 H   0  0  0  0  0  0  0  0  0  0  0  0
   -0.8910   -2.2179   -1.2334 H   0  0  0  0  0  0  0  0  0  0  0  0
   -0.8901    0.2425   -0.4797 H   0  0  0  0  0  0  0  0  0  0  0  0
   -3.0032    1.6681    0.3729 N   0  0  0  0  0  0  0  0  0  0  0  0
   -4.0753    2.1313    0.7335 O   0  0  0  0  0  0  0  0  0  0  0  0
   -1.9208    2.2342    0.3255 O   0  0  0  0  0  0  0  0  0  0  0  0
    8.1491    8.2651    0.8904 N   0  0  0  0  0  0  0  0  0  0  0  0
    8.7562    9.1664    1.0922 N   0  0  0  0  0  0  0  0  0  0  0  0
  1  7  1  0  0  0  0
  2  1  2  0  0  0  0
  3  2  1  0  0  0  0
  4  3  2  0  0  0  0
  4  5  1  0  0  0  0
  5  6  2  0  0  0  0
  6  1  1  0  0  0  0
  6 11  1  0  0  0  0
  8  2  1  0  0  0  0
  9  4  1  0  0  0  0
 10  5  1  0  0  0  0
 11 12  2  0  0  0  0
 13 11  2  0  0  0  0
 14 15  3  0  0  0  0
M  RAD  1   3   2
M  END
