Coordinates from ORCA-job 4-NO2-Ph-N2+-B3LYPG-6-31G_dp-MTMO-d009-169-n800
 OpenBabel09051908243D

 15 14  0  0  0  0  0  0  0  0999 V2000
   -2.8066   -0.2659   -0.6074 C   0  0  0  0  0  0  0  0  0  0  0  0
   -1.3993   -0.4318   -0.7770 C   0  0  0  0  0  0  0  0  0  0  0  0
   -0.8853    0.6539   -0.2061 C   0  0  0  0  0  0  0  0  0  0  0  0
   -1.0838    1.8001    0.4386 C   0  0  0  0  0  0  0  0  0  0  0  0
   -2.5038    1.8761    0.5591 C   0  0  0  0  0  0  0  0  0  0  0  0
   -3.3104    0.8612    0.0430 C   0  0  0  0  0  0  0  0  0  0  0  0
   -3.4712   -1.0351   -0.9950 H   0  0  0  0  0  0  0  0  0  0  0  0
   -0.9236   -1.2741   -1.2674 H   0  0  0  0  0  0  0  0  0  0  0  0
   -0.3842    2.5415    0.8089 H   0  0  0  0  0  0  0  0  0  0  0  0
   -2.9378    2.7397    1.0590 H   0  0  0  0  0  0  0  0  0  0  0  0
   -4.7832    0.9867    0.1943 N   0  0  0  0  0  0  0  0  0  0  0  0
   -5.4515    0.0754   -0.2714 O   0  0  0  0  0  0  0  0  0  0  0  0
   -5.1814    1.9888    0.7699 O   0  0  0  0  0  0  0  0  0  0  0  0
    5.8152    1.2165   -0.4134 N   0  0  0  0  0  0  0  0  0  0  0  0
    6.9185    1.2687   -0.4540 N   0  0  0  0  0  0  0  0  0  0  0  0
  1  6  1  0  0  0  0
  2  1  2  0  0  0  0
  2  3  1  0  0  0  0
  3  4  2  0  0  0  0
  4  5  1  0  0  0  0
  4  9  1  0  0  0  0
  5 10  1  0  0  0  0
  6 11  1  0  0  0  0
  6  5  2  0  0  0  0
  7  1  1  0  0  0  0
  8  2  1  0  0  0  0
 11 13  2  0  0  0  0
 12 11  2  0  0  0  0
 15 14  3  0  0  0  0
M  RAD  1   3   2
M  END
