Coordinates from ORCA-job 4-NO2-Ph-N2+-B3LYPG-6-31G_dp-MTMO-d009-169-n800
 OpenBabel09051908243D

 15 14  0  0  0  0  0  0  0  0999 V2000
   -4.0938   -0.3348   -0.0250 C   0  0  0  0  0  0  0  0  0  0  0  0
   -4.1508   -1.6992   -0.4395 C   0  0  0  0  0  0  0  0  0  0  0  0
   -2.8923   -1.9800   -0.7652 C   0  0  0  0  0  0  0  0  0  0  0  0
   -1.6305   -1.5742   -0.8773 C   0  0  0  0  0  0  0  0  0  0  0  0
   -1.6756   -0.2147   -0.4459 C   0  0  0  0  0  0  0  0  0  0  0  0
   -2.8819    0.3566   -0.0396 C   0  0  0  0  0  0  0  0  0  0  0  0
   -5.0130    0.1482    0.2997 H   0  0  0  0  0  0  0  0  0  0  0  0
   -5.0476   -2.3088   -0.4607 H   0  0  0  0  0  0  0  0  0  0  0  0
   -0.7392   -2.0963   -1.2073 H   0  0  0  0  0  0  0  0  0  0  0  0
   -0.7514    0.3598   -0.4410 H   0  0  0  0  0  0  0  0  0  0  0  0
   -2.8756    1.7757    0.4006 N   0  0  0  0  0  0  0  0  0  0  0  0
   -3.9523    2.2348    0.7524 O   0  0  0  0  0  0  0  0  0  0  0  0
   -1.7940    2.3443    0.3676 O   0  0  0  0  0  0  0  0  0  0  0  0
    7.2383    7.5527    0.7832 N   0  0  0  0  0  0  0  0  0  0  0  0
    7.8712    8.4374    0.9791 N   0  0  0  0  0  0  0  0  0  0  0  0
  1  7  1  0  0  0  0
  2  1  2  0  0  0  0
  3  2  1  0  0  0  0
  4  3  2  0  0  0  0
  4  5  1  0  0  0  0
  5 10  1  0  0  0  0
  5  6  2  0  0  0  0
  6  1  1  0  0  0  0
  6 11  1  0  0  0  0
  8  2  1  0  0  0  0
  9  4  1  0  0  0  0
 11 12  2  0  0  0  0
 13 11  2  0  0  0  0
 14 15  3  0  0  0  0
M  RAD  1   3   2
M  END
