Coordinates from ORCA-job 4-NO2-Ph-N2+-B3LYPG-6-31G_dp-MTMO-d009-169-n800
 OpenBabel09051908243D

 15 14  0  0  0  0  0  0  0  0999 V2000
   -2.7512   -0.2574   -0.6088 C   0  0  0  0  0  0  0  0  0  0  0  0
   -1.3417   -0.3991   -0.7829 C   0  0  0  0  0  0  0  0  0  0  0  0
   -0.8447    0.6951   -0.2132 C   0  0  0  0  0  0  0  0  0  0  0  0
   -1.0609    1.8375    0.4326 C   0  0  0  0  0  0  0  0  0  0  0  0
   -2.4816    1.8890    0.5575 C   0  0  0  0  0  0  0  0  0  0  0  0
   -3.2722    0.8605    0.0436 C   0  0  0  0  0  0  0  0  0  0  0  0
   -3.4036   -1.0379   -0.9947 H   0  0  0  0  0  0  0  0  0  0  0  0
   -0.8530   -1.2329   -1.2750 H   0  0  0  0  0  0  0  0  0  0  0  0
   -0.3729    2.5907    0.8009 H   0  0  0  0  0  0  0  0  0  0  0  0
   -2.9288    2.7448    1.0591 H   0  0  0  0  0  0  0  0  0  0  0  0
   -4.7465    0.9603    0.2000 N   0  0  0  0  0  0  0  0  0  0  0  0
   -5.4004    0.0375   -0.2634 O   0  0  0  0  0  0  0  0  0  0  0  0
   -5.1601    1.9554    0.7771 O   0  0  0  0  0  0  0  0  0  0  0  0
    5.5628    1.1555   -0.4067 N   0  0  0  0  0  0  0  0  0  0  0  0
    6.6663    1.2023   -0.4452 N   0  0  0  0  0  0  0  0  0  0  0  0
  1  6  1  0  0  0  0
  2  1  2  0  0  0  0
  2  3  1  0  0  0  0
  3  4  2  0  0  0  0
  4  5  1  0  0  0  0
  4  9  1  0  0  0  0
  5 10  1  0  0  0  0
  6 11  1  0  0  0  0
  6  5  2  0  0  0  0
  7  1  1  0  0  0  0
  8  2  1  0  0  0  0
 11 13  2  0  0  0  0
 12 11  2  0  0  0  0
 15 14  3  0  0  0  0
M  RAD  1   3   2
M  END
