Coordinates from ORCA-job 4-NO2-Ph-N2+-B3LYPG-6-31G_dp-MTMO-d009-169-n800
 OpenBabel09051908243D

 15 14  0  0  0  0  0  0  0  0999 V2000
   -2.2914   -0.2109   -0.6137 C   0  0  0  0  0  0  0  0  0  0  0  0
   -0.8713   -0.2564   -0.7412 C   0  0  0  0  0  0  0  0  0  0  0  0
   -0.4653    0.8656   -0.1533 C   0  0  0  0  0  0  0  0  0  0  0  0
   -0.7810    1.9878    0.4873 C   0  0  0  0  0  0  0  0  0  0  0  0
   -2.2048    1.9437    0.5660 C   0  0  0  0  0  0  0  0  0  0  0  0
   -2.9072    0.8667    0.0240 C   0  0  0  0  0  0  0  0  0  0  0  0
   -2.8777   -1.0313   -1.0220 H   0  0  0  0  0  0  0  0  0  0  0  0
   -0.3100   -1.0524   -1.2178 H   0  0  0  0  0  0  0  0  0  0  0  0
   -0.1560    2.7829    0.8782 H   0  0  0  0  0  0  0  0  0  0  0  0
   -2.7255    2.7648    1.0542 H   0  0  0  0  0  0  0  0  0  0  0  0
   -4.3890    0.8670    0.1322 N   0  0  0  0  0  0  0  0  0  0  0  0
   -4.9648   -0.0951   -0.3546 O   0  0  0  0  0  0  0  0  0  0  0  0
   -4.8876    1.8291    0.6979 O   0  0  0  0  0  0  0  0  0  0  0  0
    3.1703    0.8702   -0.3922 N   0  0  0  0  0  0  0  0  0  0  0  0
    4.2729    0.8701   -0.4640 N   0  0  0  0  0  0  0  0  0  0  0  0
  1  6  1  0  0  0  0
  2  1  2  0  0  0  0
  2  3  1  0  0  0  0
  3  4  2  0  0  0  0
  4  5  1  0  0  0  0
  4  9  1  0  0  0  0
  5 10  1  0  0  0  0
  6 11  1  0  0  0  0
  6  5  2  0  0  0  0
  7  1  1  0  0  0  0
  8  2  1  0  0  0  0
 11 13  2  0  0  0  0
 12 11  2  0  0  0  0
 15 14  3  0  0  0  0
M  RAD  1   3   2
M  END
