Coordinates from ORCA-job 4-NO2-Ph-N2+-B3LYPG-6-31G_dp-MTMO-d009-169-n800
 OpenBabel09051908243D

 15 15  0  0  0  0  0  0  0  0999 V2000
   -2.0099   -0.2123   -0.6323 C   0  0  0  0  0  0  0  0  0  0  0  0
   -0.6302   -0.2256   -0.7357 C   0  0  0  0  0  0  0  0  0  0  0  0
    0.0999    0.8667   -0.1862 C   0  0  0  0  0  0  0  0  0  0  0  0
   -0.5463    1.9592    0.4595 C   0  0  0  0  0  0  0  0  0  0  0  0
   -1.9268    1.9464    0.5489 C   0  0  0  0  0  0  0  0  0  0  0  0
   -2.6258    0.8671    0.0044 C   0  0  0  0  0  0  0  0  0  0  0  0
   -2.6169   -1.0165   -1.0319 H   0  0  0  0  0  0  0  0  0  0  0  0
   -0.1052   -1.0422   -1.2205 H   0  0  0  0  0  0  0  0  0  0  0  0
    0.0413    2.7753    0.8670 H   0  0  0  0  0  0  0  0  0  0  0  0
   -2.4725    2.7507    1.0290 H   0  0  0  0  0  0  0  0  0  0  0  0
   -4.1164    0.8669    0.1095 N   0  0  0  0  0  0  0  0  0  0  0  0
   -4.6928   -0.0944   -0.3785 O   0  0  0  0  0  0  0  0  0  0  0  0
   -4.6190    1.8278    0.6739 O   0  0  0  0  0  0  0  0  0  0  0  0
    1.3573    0.8664   -0.2740 N   0  0  0  0  0  0  0  0  0  0  0  0
    2.4750    0.8661   -0.3521 N   0  0  0  0  0  0  0  0  0  0  0  0
  1  6  1  0  0  0  0
  2  1  2  0  0  0  0
  2  3  1  0  0  0  0
  3  4  2  0  0  0  0
  4  5  1  0  0  0  0
  4  9  1  0  0  0  0
  5 10  1  0  0  0  0
  6 11  1  0  0  0  0
  6  5  2  0  0  0  0
  7  1  1  0  0  0  0
  8  2  1  0  0  0  0
 11 13  2  0  0  0  0
 12 11  2  0  0  0  0
 14  3  1  0  0  0  0
 15 14  1  0  0  0  0
M  RAD  2  14   2  15   3
M  END
