Coordinates from ORCA-job 4-NO2-Ph-N2+-B3LYPG-6-31G_dp-MTMO-d009-169-n800
 OpenBabel09051908243D

 15 14  0  0  0  0  0  0  0  0999 V2000
   -3.6458   -0.0339   -0.0230 C   0  0  0  0  0  0  0  0  0  0  0  0
   -3.5855   -1.3867   -0.4737 C   0  0  0  0  0  0  0  0  0  0  0  0
   -2.2960   -1.5690   -0.7433 C   0  0  0  0  0  0  0  0  0  0  0  0
   -1.0627   -1.0727   -0.7828 C   0  0  0  0  0  0  0  0  0  0  0  0
   -1.2251    0.2676   -0.3202 C   0  0  0  0  0  0  0  0  0  0  0  0
   -2.4872    0.7409    0.0401 C   0  0  0  0  0  0  0  0  0  0  0  0
   -4.6115    0.3744    0.2673 H   0  0  0  0  0  0  0  0  0  0  0  0
   -4.4346   -2.0564   -0.5554 H   0  0  0  0  0  0  0  0  0  0  0  0
   -0.1217   -1.5214   -1.0813 H   0  0  0  0  0  0  0  0  0  0  0  0
   -0.3455    0.9051   -0.2554 H   0  0  0  0  0  0  0  0  0  0  0  0
   -2.6036    2.1438    0.5159 N   0  0  0  0  0  0  0  0  0  0  0  0
   -3.7274    2.5173    0.8188 O   0  0  0  0  0  0  0  0  0  0  0  0
   -1.5644    2.7858    0.5577 O   0  0  0  0  0  0  0  0  0  0  0  0
    4.3309    5.0186    0.3735 N   0  0  0  0  0  0  0  0  0  0  0  0
    4.9917    5.8882    0.5429 N   0  0  0  0  0  0  0  0  0  0  0  0
  1  6  1  0  0  0  0
  1  7  1  0  0  0  0
  2  1  2  0  0  0  0
  3  2  1  0  0  0  0
  4  3  2  0  0  0  0
  4  5  1  0  0  0  0
  5 10  1  0  0  0  0
  5  6  2  0  0  0  0
  6 11  1  0  0  0  0
  8  2  1  0  0  0  0
  9  4  1  0  0  0  0
 11 13  2  0  0  0  0
 11 12  2  0  0  0  0
 14 15  3  0  0  0  0
M  RAD  1   3   2
M  END
