Coordinates from ORCA-job 4-NO2-Ph-N2+-B3LYPG-6-31G_dp-MTMO-d009-169-n800
 OpenBabel09051908243D

 15 15  0  0  0  0  0  0  0  0999 V2000
   -1.9900   -0.2122   -0.6334 C   0  0  0  0  0  0  0  0  0  0  0  0
   -0.6185   -0.2277   -0.7374 C   0  0  0  0  0  0  0  0  0  0  0  0
    0.1814    0.8666   -0.1920 C   0  0  0  0  0  0  0  0  0  0  0  0
   -0.5344    1.9612    0.4595 C   0  0  0  0  0  0  0  0  0  0  0  0
   -1.9070    1.9462    0.5473 C   0  0  0  0  0  0  0  0  0  0  0  0
   -2.6090    0.8671    0.0033 C   0  0  0  0  0  0  0  0  0  0  0  0
   -2.5956   -1.0180   -1.0340 H   0  0  0  0  0  0  0  0  0  0  0  0
   -0.0871   -1.0420   -1.2213 H   0  0  0  0  0  0  0  0  0  0  0  0
    0.0594    2.7750    0.8653 H   0  0  0  0  0  0  0  0  0  0  0  0
   -2.4510    2.7523    1.0282 H   0  0  0  0  0  0  0  0  0  0  0  0
   -4.0998    0.8669    0.1083 N   0  0  0  0  0  0  0  0  0  0  0  0
   -4.6737   -0.0946   -0.3815 O   0  0  0  0  0  0  0  0  0  0  0  0
   -4.5997    1.8280    0.6741 O   0  0  0  0  0  0  0  0  0  0  0  0
    1.1991    0.8665   -0.2630 N   0  0  0  0  0  0  0  0  0  0  0  0
    2.3374    0.8663   -0.3425 N   0  0  0  0  0  0  0  0  0  0  0  0
  1  6  1  0  0  0  0
  2  1  2  0  0  0  0
  2  3  1  0  0  0  0
  3  4  2  0  0  0  0
  4  5  1  0  0  0  0
  4  9  1  0  0  0  0
  5 10  1  0  0  0  0
  6 11  1  0  0  0  0
  6  5  2  0  0  0  0
  7  1  1  0  0  0  0
  8  2  1  0  0  0  0
 11 13  2  0  0  0  0
 12 11  2  0  0  0  0
 14  3  1  0  0  0  0
 15 14  1  0  0  0  0
M  RAD  2  14   2  15   3
M  END
