Coordinates from ORCA-job 4-NO2-Ph-N2+-B3LYPG-6-31G_dp-MTMO-d009-169-n800
 OpenBabel09051908243D

 15 14  0  0  0  0  0  0  0  0999 V2000
   -3.8261   -0.1383   -0.0224 C   0  0  0  0  0  0  0  0  0  0  0  0
   -3.8432   -1.4973   -0.4580 C   0  0  0  0  0  0  0  0  0  0  0  0
   -2.5708   -1.7467   -0.7542 C   0  0  0  0  0  0  0  0  0  0  0  0
   -1.3156   -1.3127   -0.8270 C   0  0  0  0  0  0  0  0  0  0  0  0
   -1.4008    0.0388   -0.3772 C   0  0  0  0  0  0  0  0  0  0  0  0
   -2.6293    0.5785    0.0054 C   0  0  0  0  0  0  0  0  0  0  0  0
   -4.7636    0.3205    0.2846 H   0  0  0  0  0  0  0  0  0  0  0  0
   -4.7260   -2.1249   -0.5123 H   0  0  0  0  0  0  0  0  0  0  0  0
   -0.4050   -1.8110   -1.1407 H   0  0  0  0  0  0  0  0  0  0  0  0
   -0.4895    0.6323   -0.3391 H   0  0  0  0  0  0  0  0  0  0  0  0
   -2.6651    1.9905    0.4664 N   0  0  0  0  0  0  0  0  0  0  0  0
   -3.7608    2.4218    0.7941 O   0  0  0  0  0  0  0  0  0  0  0  0
   -1.5952    2.5817    0.4729 O   0  0  0  0  0  0  0  0  0  0  0  0
    5.4767    6.0967    0.5507 N   0  0  0  0  0  0  0  0  0  0  0  0
    6.1259    6.9714    0.7378 N   0  0  0  0  0  0  0  0  0  0  0  0
  1  6  1  0  0  0  0
  1  7  1  0  0  0  0
  2  1  2  0  0  0  0
  3  2  1  0  0  0  0
  4  3  2  0  0  0  0
  4  5  1  0  0  0  0
  5 10  1  0  0  0  0
  5  6  2  0  0  0  0
  6 11  1  0  0  0  0
  8  2  1  0  0  0  0
  9  4  1  0  0  0  0
 11 13  2  0  0  0  0
 11 12  2  0  0  0  0
 14 15  3  0  0  0  0
M  RAD  1   3   2
M  END
