Coordinates from ORCA-job 4-NO2-Ph-N2+-B3LYPG-6-31G_dp-MTMO-d009-169-n800
 OpenBabel09051908243D

 15 14  0  0  0  0  0  0  0  0999 V2000
   -4.1976   -0.4159   -0.0292 C   0  0  0  0  0  0  0  0  0  0  0  0
   -4.2605   -1.7819   -0.4378 C   0  0  0  0  0  0  0  0  0  0  0  0
   -3.0048   -2.0666   -0.7711 C   0  0  0  0  0  0  0  0  0  0  0  0
   -1.7431   -1.6639   -0.8934 C   0  0  0  0  0  0  0  0  0  0  0  0
   -1.7821   -0.3027   -0.4672 C   0  0  0  0  0  0  0  0  0  0  0  0
   -2.9845    0.2728   -0.0549 C   0  0  0  0  0  0  0  0  0  0  0  0
   -5.1136    0.0704    0.2999 H   0  0  0  0  0  0  0  0  0  0  0  0
   -5.1588   -2.3895   -0.4504 H   0  0  0  0  0  0  0  0  0  0  0  0
   -0.8553   -2.1895   -1.2273 H   0  0  0  0  0  0  0  0  0  0  0  0
   -0.8567    0.2699   -0.4706 H   0  0  0  0  0  0  0  0  0  0  0  0
   -2.9720    1.6938    0.3794 N   0  0  0  0  0  0  0  0  0  0  0  0
   -4.0451    2.1562    0.7380 O   0  0  0  0  0  0  0  0  0  0  0  0
   -1.8897    2.2602    0.3353 O   0  0  0  0  0  0  0  0  0  0  0  0
    7.9303    8.0959    0.8651 N   0  0  0  0  0  0  0  0  0  0  0  0
    8.5451    8.9924    1.0653 N   0  0  0  0  0  0  0  0  0  0  0  0
  1  7  1  0  0  0  0
  2  1  2  0  0  0  0
  3  2  1  0  0  0  0
  4  3  2  0  0  0  0
  4  5  1  0  0  0  0
  5  6  2  0  0  0  0
  6  1  1  0  0  0  0
  6 11  1  0  0  0  0
  8  2  1  0  0  0  0
  9  4  1  0  0  0  0
 10  5  1  0  0  0  0
 11 12  2  0  0  0  0
 13 11  2  0  0  0  0
 14 15  3  0  0  0  0
M  RAD  1   3   2
M  END
