Coordinates from ORCA-job 4-NO2-Ph-N2+-B3LYPG-6-31G_dp-MTMO-d009-169-n800
 OpenBabel09051908243D

 15 15  0  0  0  0  0  0  0  0999 V2000
   -1.9960   -0.2123   -0.6331 C   0  0  0  0  0  0  0  0  0  0  0  0
   -0.6215   -0.2263   -0.7365 C   0  0  0  0  0  0  0  0  0  0  0  0
    0.1530    0.8666   -0.1898 C   0  0  0  0  0  0  0  0  0  0  0  0
   -0.5375    1.9598    0.4591 C   0  0  0  0  0  0  0  0  0  0  0  0
   -1.9130    1.9463    0.5479 C   0  0  0  0  0  0  0  0  0  0  0  0
   -2.6139    0.8671    0.0036 C   0  0  0  0  0  0  0  0  0  0  0  0
   -2.6020   -1.0175   -1.0334 H   0  0  0  0  0  0  0  0  0  0  0  0
   -0.0937   -1.0421   -1.2210 H   0  0  0  0  0  0  0  0  0  0  0  0
    0.0528    2.7751    0.8659 H   0  0  0  0  0  0  0  0  0  0  0  0
   -2.4575    2.7517    1.0284 H   0  0  0  0  0  0  0  0  0  0  0  0
   -4.1048    0.8669    0.1087 N   0  0  0  0  0  0  0  0  0  0  0  0
   -4.6795   -0.0945   -0.3805 O   0  0  0  0  0  0  0  0  0  0  0  0
   -4.6056    1.8280    0.6739 O   0  0  0  0  0  0  0  0  0  0  0  0
    1.2505    0.8664   -0.2666 N   0  0  0  0  0  0  0  0  0  0  0  0
    2.3803    0.8663   -0.3456 N   0  0  0  0  0  0  0  0  0  0  0  0
  1  6  1  0  0  0  0
  2  1  2  0  0  0  0
  2  3  1  0  0  0  0
  3  4  2  0  0  0  0
  4  5  1  0  0  0  0
  4  9  1  0  0  0  0
  5 10  1  0  0  0  0
  6 11  1  0  0  0  0
  6  5  2  0  0  0  0
  7  1  1  0  0  0  0
  8  2  1  0  0  0  0
 11 13  2  0  0  0  0
 12 11  2  0  0  0  0
 14  3  1  0  0  0  0
 15 14  1  0  0  0  0
M  RAD  2  14   2  15   3
M  END
