Coordinates from ORCA-job 4-NO2-Ph-N2+-B3LYPG-6-31G_dp-MTMO-d009-169-n800
 OpenBabel09051908243D

 15 14  0  0  0  0  0  0  0  0999 V2000
   -3.3639    0.2116    0.0058 C   0  0  0  0  0  0  0  0  0  0  0  0
   -3.4273   -1.1454   -0.4325 C   0  0  0  0  0  0  0  0  0  0  0  0
   -2.1635   -1.4377   -0.7260 C   0  0  0  0  0  0  0  0  0  0  0  0
   -0.8940   -1.0458   -0.7944 C   0  0  0  0  0  0  0  0  0  0  0  0
   -0.9328    0.3071   -0.3421 C   0  0  0  0  0  0  0  0  0  0  0  0
   -2.1436    0.8872    0.0383 C   0  0  0  0  0  0  0  0  0  0  0  0
   -4.2859    0.7015    0.3117 H   0  0  0  0  0  0  0  0  0  0  0  0
   -4.3313   -1.7417   -0.4893 H   0  0  0  0  0  0  0  0  0  0  0  0
   -0.0005   -1.5745   -1.1077 H   0  0  0  0  0  0  0  0  0  0  0  0
   -0.0019    0.8701   -0.3011 H   0  0  0  0  0  0  0  0  0  0  0  0
   -2.1330    2.2989    0.5021 N   0  0  0  0  0  0  0  0  0  0  0  0
   -3.2146    2.7660    0.8283 O   0  0  0  0  0  0  0  0  0  0  0  0
   -1.0441    2.8540    0.5119 O   0  0  0  0  0  0  0  0  0  0  0  0
    2.5142    4.0536    0.3130 N   0  0  0  0  0  0  0  0  0  0  0  0
    3.0337    4.9964    0.5631 N   0  0  0  0  0  0  0  0  0  0  0  0
  1  6  1  0  0  0  0
  1  7  1  0  0  0  0
  2  1  2  0  0  0  0
  3  2  1  0  0  0  0
  4  3  2  0  0  0  0
  4  5  1  0  0  0  0
  5 10  1  0  0  0  0
  5  6  2  0  0  0  0
  6 11  1  0  0  0  0
  8  2  1  0  0  0  0
  9  4  1  0  0  0  0
 11 13  2  0  0  0  0
 11 12  2  0  0  0  0
 14 15  3  0  0  0  0
M  RAD  1   3   2
M  END
