Coordinates from ORCA-job 4-NO2-Ph-N2+-B3LYPG-6-31G_dp-MTMO-d009-169-n800
 OpenBabel09051908243D

 15 14  0  0  0  0  0  0  0  0999 V2000
   -4.1258   -0.3587   -0.0254 C   0  0  0  0  0  0  0  0  0  0  0  0
   -4.1868   -1.7238   -0.4373 C   0  0  0  0  0  0  0  0  0  0  0  0
   -2.9298   -2.0076   -0.7665 C   0  0  0  0  0  0  0  0  0  0  0  0
   -1.6677   -1.6046   -0.8832 C   0  0  0  0  0  0  0  0  0  0  0  0
   -1.7087   -0.2442   -0.4539 C   0  0  0  0  0  0  0  0  0  0  0  0
   -2.9126    0.3302   -0.0449 C   0  0  0  0  0  0  0  0  0  0  0  0
   -5.0430    0.1267    0.3013 H   0  0  0  0  0  0  0  0  0  0  0  0
   -5.0848   -2.3316   -0.4548 H   0  0  0  0  0  0  0  0  0  0  0  0
   -0.7784   -2.1290   -1.2150 H   0  0  0  0  0  0  0  0  0  0  0  0
   -0.7834    0.3284   -0.4529 H   0  0  0  0  0  0  0  0  0  0  0  0
   -2.9020    1.7501    0.3928 N   0  0  0  0  0  0  0  0  0  0  0  0
   -3.9767    2.2119    0.7472 O   0  0  0  0  0  0  0  0  0  0  0  0
   -1.8194    2.3164    0.3555 O   0  0  0  0  0  0  0  0  0  0  0  0
    7.4508    7.7251    0.8104 N   0  0  0  0  0  0  0  0  0  0  0  0
    8.0799    8.6122    1.0078 N   0  0  0  0  0  0  0  0  0  0  0  0
  1  7  1  0  0  0  0
  2  1  2  0  0  0  0
  3  2  1  0  0  0  0
  4  3  2  0  0  0  0
  4  5  1  0  0  0  0
  5 10  1  0  0  0  0
  5  6  2  0  0  0  0
  6  1  1  0  0  0  0
  6 11  1  0  0  0  0
  8  2  1  0  0  0  0
  9  4  1  0  0  0  0
 11 12  2  0  0  0  0
 13 11  2  0  0  0  0
 14 15  3  0  0  0  0
M  RAD  1   3   2
M  END
