Coordinates from ORCA-job 4-NO2-Ph-N2+-B3LYPG-6-31G_dp-MTMO-d009-169-n800
 OpenBabel09051908243D

 15 14  0  0  0  0  0  0  0  0999 V2000
   -2.1267   -0.2102   -0.6233 C   0  0  0  0  0  0  0  0  0  0  0  0
   -0.7136   -0.2499   -0.7444 C   0  0  0  0  0  0  0  0  0  0  0  0
   -0.2551    0.8672   -0.1624 C   0  0  0  0  0  0  0  0  0  0  0  0
   -0.6276    1.9842    0.4784 C   0  0  0  0  0  0  0  0  0  0  0  0
   -2.0438    1.9443    0.5561 C   0  0  0  0  0  0  0  0  0  0  0  0
   -2.7434    0.8670    0.0127 C   0  0  0  0  0  0  0  0  0  0  0  0
   -2.7175   -1.0264   -1.0303 H   0  0  0  0  0  0  0  0  0  0  0  0
   -0.1606   -1.0492   -1.2219 H   0  0  0  0  0  0  0  0  0  0  0  0
   -0.0134    2.7834    0.8741 H   0  0  0  0  0  0  0  0  0  0  0  0
   -2.5721    2.7606    1.0414 H   0  0  0  0  0  0  0  0  0  0  0  0
   -4.2265    0.8666    0.1177 N   0  0  0  0  0  0  0  0  0  0  0  0
   -4.8030   -0.0952   -0.3696 O   0  0  0  0  0  0  0  0  0  0  0  0
   -4.7292    1.8279    0.6818 O   0  0  0  0  0  0  0  0  0  0  0  0
    2.1211    0.8660   -0.3273 N   0  0  0  0  0  0  0  0  0  0  0  0
    3.2227    0.8650   -0.4019 N   0  0  0  0  0  0  0  0  0  0  0  0
  1  6  1  0  0  0  0
  2  1  2  0  0  0  0
  2  3  1  0  0  0  0
  3  4  2  0  0  0  0
  4  5  1  0  0  0  0
  4  9  1  0  0  0  0
  5 10  1  0  0  0  0
  6 11  1  0  0  0  0
  6  5  2  0  0  0  0
  7  1  1  0  0  0  0
  8  2  1  0  0  0  0
 11 13  2  0  0  0  0
 12 11  2  0  0  0  0
 15 14  3  0  0  0  0
M  RAD  1   3   2
M  END
