Coordinates from ORCA-job 4-NO2-Ph-N2+-B3LYPG-6-31G_dp-MTMO-d009-169-n800
 OpenBabel09051908243D

 15 14  0  0  0  0  0  0  0  0999 V2000
   -3.8224   -0.1361   -0.0226 C   0  0  0  0  0  0  0  0  0  0  0  0
   -3.8378   -1.4949   -0.4586 C   0  0  0  0  0  0  0  0  0  0  0  0
   -2.5650   -1.7430   -0.7541 C   0  0  0  0  0  0  0  0  0  0  0  0
   -1.3102   -1.3077   -0.8260 C   0  0  0  0  0  0  0  0  0  0  0  0
   -1.3970    0.0436   -0.3758 C   0  0  0  0  0  0  0  0  0  0  0  0
   -2.6263    0.5819    0.0062 C   0  0  0  0  0  0  0  0  0  0  0  0
   -4.7605    0.3216    0.2840 H   0  0  0  0  0  0  0  0  0  0  0  0
   -4.7200   -2.1234   -0.5136 H   0  0  0  0  0  0  0  0  0  0  0  0
   -0.3989   -1.8050   -1.1393 H   0  0  0  0  0  0  0  0  0  0  0  0
   -0.4864    0.6380   -0.3369 H   0  0  0  0  0  0  0  0  0  0  0  0
   -2.6638    1.9938    0.4677 N   0  0  0  0  0  0  0  0  0  0  0  0
   -3.7602    2.4238    0.7948 O   0  0  0  0  0  0  0  0  0  0  0  0
   -1.5946    2.5861    0.4750 O   0  0  0  0  0  0  0  0  0  0  0  0
    5.4525    6.0742    0.5469 N   0  0  0  0  0  0  0  0  0  0  0  0
    6.1022    6.9486    0.7334 N   0  0  0  0  0  0  0  0  0  0  0  0
  1  6  1  0  0  0  0
  1  7  1  0  0  0  0
  2  1  2  0  0  0  0
  3  2  1  0  0  0  0
  4  3  2  0  0  0  0
  4  5  1  0  0  0  0
  5 10  1  0  0  0  0
  5  6  2  0  0  0  0
  6 11  1  0  0  0  0
  8  2  1  0  0  0  0
  9  4  1  0  0  0  0
 11 13  2  0  0  0  0
 11 12  2  0  0  0  0
 14 15  3  0  0  0  0
M  RAD  1   3   2
M  END
