Coordinates from ORCA-job 4-NO2-Ph-N2+-B3LYPG-6-31G_dp-MTMO-d009-169-n800
 OpenBabel09051908243D

 15 14  0  0  0  0  0  0  0  0999 V2000
   -3.7611   -0.1008   -0.0249 C   0  0  0  0  0  0  0  0  0  0  0  0
   -3.7474   -1.4573   -0.4677 C   0  0  0  0  0  0  0  0  0  0  0  0
   -2.4675   -1.6811   -0.7520 C   0  0  0  0  0  0  0  0  0  0  0  0
   -1.2202   -1.2230   -0.8094 C   0  0  0  0  0  0  0  0  0  0  0  0
   -1.3360    0.1242   -0.3530 C   0  0  0  0  0  0  0  0  0  0  0  0
   -2.5784    0.6382    0.0195 C   0  0  0  0  0  0  0  0  0  0  0  0
   -4.7102    0.3386    0.2746 H   0  0  0  0  0  0  0  0  0  0  0  0
   -4.6172   -2.1017   -0.5347 H   0  0  0  0  0  0  0  0  0  0  0  0
   -0.2968   -1.7013   -1.1166 H   0  0  0  0  0  0  0  0  0  0  0  0
   -0.4367    0.7349   -0.3030 H   0  0  0  0  0  0  0  0  0  0  0  0
   -2.6458    2.0466    0.4883 N   0  0  0  0  0  0  0  0  0  0  0  0
   -3.7540    2.4571    0.8006 O   0  0  0  0  0  0  0  0  0  0  0  0
   -1.5865    2.6558    0.5161 O   0  0  0  0  0  0  0  0  0  0  0  0
    5.0575    5.6987    0.4852 N   0  0  0  0  0  0  0  0  0  0  0  0
    5.7118    6.5725    0.6579 N   0  0  0  0  0  0  0  0  0  0  0  0
  1  6  1  0  0  0  0
  1  7  1  0  0  0  0
  2  1  2  0  0  0  0
  3  2  1  0  0  0  0
  4  3  2  0  0  0  0
  4  5  1  0  0  0  0
  5 10  1  0  0  0  0
  5  6  2  0  0  0  0
  6 11  1  0  0  0  0
  8  2  1  0  0  0  0
  9  4  1  0  0  0  0
 11 13  2  0  0  0  0
 11 12  2  0  0  0  0
 14 15  3  0  0  0  0
M  RAD  1   3   2
M  END
