Coordinates from ORCA-job 4-NO2-Ph-N2+-B3LYPG-6-31G_dp-MTMO-d009-169-n800
 OpenBabel09051908243D

 15 14  0  0  0  0  0  0  0  0999 V2000
   -3.6120   -0.0158   -0.0231 C   0  0  0  0  0  0  0  0  0  0  0  0
   -3.5344   -1.3666   -0.4766 C   0  0  0  0  0  0  0  0  0  0  0  0
   -2.2418   -1.5342   -0.7409 C   0  0  0  0  0  0  0  0  0  0  0  0
   -1.0139   -1.0243   -0.7738 C   0  0  0  0  0  0  0  0  0  0  0  0
   -1.1934    0.3132   -0.3090 C   0  0  0  0  0  0  0  0  0  0  0  0
   -2.4622    0.7717    0.0468 C   0  0  0  0  0  0  0  0  0  0  0  0
   -4.5834    0.3813    0.2638 H   0  0  0  0  0  0  0  0  0  0  0  0
   -4.3756   -2.0457   -0.5639 H   0  0  0  0  0  0  0  0  0  0  0  0
   -0.0665   -1.4616   -1.0687 H   0  0  0  0  0  0  0  0  0  0  0  0
   -0.3212    0.9602   -0.2387 H   0  0  0  0  0  0  0  0  0  0  0  0
   -2.5964    2.1722    0.5249 N   0  0  0  0  0  0  0  0  0  0  0  0
   -3.7255    2.5320    0.8249 O   0  0  0  0  0  0  0  0  0  0  0  0
   -1.5649    2.8262    0.5712 O   0  0  0  0  0  0  0  0  0  0  0  0
    4.1169    4.8145    0.3386 N   0  0  0  0  0  0  0  0  0  0  0  0
    4.7857    5.6785    0.5056 N   0  0  0  0  0  0  0  0  0  0  0  0
  1  6  1  0  0  0  0
  1  7  1  0  0  0  0
  2  1  2  0  0  0  0
  3  2  1  0  0  0  0
  4  3  2  0  0  0  0
  4  5  1  0  0  0  0
  5 10  1  0  0  0  0
  5  6  2  0  0  0  0
  6 11  1  0  0  0  0
  8  2  1  0  0  0  0
  9  4  1  0  0  0  0
 11 13  2  0  0  0  0
 11 12  2  0  0  0  0
 14 15  3  0  0  0  0
M  RAD  1   3   2
M  END
