Coordinates from ORCA-job 4-NO2-Ph-N2+-B3LYPG-6-31G_dp-MTMO-d009-169-n800
 OpenBabel09051908243D

 15 14  0  0  0  0  0  0  0  0999 V2000
   -4.2932   -0.4906   -0.0325 C   0  0  0  0  0  0  0  0  0  0  0  0
   -4.3611   -1.8581   -0.4353 C   0  0  0  0  0  0  0  0  0  0  0  0
   -3.1082   -2.1462   -0.7760 C   0  0  0  0  0  0  0  0  0  0  0  0
   -1.8467   -1.7463   -0.9085 C   0  0  0  0  0  0  0  0  0  0  0  0
   -1.8805   -0.3833   -0.4874 C   0  0  0  0  0  0  0  0  0  0  0  0
   -3.0790    0.1959   -0.0692 C   0  0  0  0  0  0  0  0  0  0  0  0
   -5.2060   -0.0015    0.3009 H   0  0  0  0  0  0  0  0  0  0  0  0
   -5.2605   -2.4642   -0.4394 H   0  0  0  0  0  0  0  0  0  0  0  0
   -0.9620   -2.2748   -1.2462 H   0  0  0  0  0  0  0  0  0  0  0  0
   -0.9541    0.1876   -0.4994 H   0  0  0  0  0  0  0  0  0  0  0  0
   -3.0612    1.6185    0.3594 N   0  0  0  0  0  0  0  0  0  0  0  0
   -4.1308    2.0841    0.7240 O   0  0  0  0  0  0  0  0  0  0  0  0
   -1.9783    2.1830    0.3049 O   0  0  0  0  0  0  0  0  0  0  0  0
    8.5710    8.5932    0.9401 N   0  0  0  0  0  0  0  0  0  0  0  0
    9.1621    9.5042    1.1456 N   0  0  0  0  0  0  0  0  0  0  0  0
  1  7  1  0  0  0  0
  2  1  2  0  0  0  0
  3  2  1  0  0  0  0
  4  3  2  0  0  0  0
  4  5  1  0  0  0  0
  5  6  2  0  0  0  0
  6  1  1  0  0  0  0
  6 11  1  0  0  0  0
  8  2  1  0  0  0  0
  9  4  1  0  0  0  0
 10  5  1  0  0  0  0
 11 12  2  0  0  0  0
 13 11  2  0  0  0  0
 14 15  3  0  0  0  0
M  RAD  1   3   2
M  END
