Coordinates from ORCA-job 4-NO2-Ph-N2+-B3LYPG-6-31G_dp-MTMO-d009-169-n800
 OpenBabel09051908243D

 15 14  0  0  0  0  0  0  0  0999 V2000
   -2.1055   -0.2103   -0.6246 C   0  0  0  0  0  0  0  0  0  0  0  0
   -0.6958   -0.2475   -0.7439 C   0  0  0  0  0  0  0  0  0  0  0  0
   -0.2102    0.8670   -0.1651 C   0  0  0  0  0  0  0  0  0  0  0  0
   -0.6101    1.9815    0.4760 C   0  0  0  0  0  0  0  0  0  0  0  0
   -2.0225    1.9443    0.5547 C   0  0  0  0  0  0  0  0  0  0  0  0
   -2.7216    0.8670    0.0112 C   0  0  0  0  0  0  0  0  0  0  0  0
   -2.6990   -1.0244   -1.0304 H   0  0  0  0  0  0  0  0  0  0  0  0
   -0.1470   -1.0488   -1.2221 H   0  0  0  0  0  0  0  0  0  0  0  0
    0.0001    2.7826    0.8733 H   0  0  0  0  0  0  0  0  0  0  0  0
   -2.5539    2.7585    1.0391 H   0  0  0  0  0  0  0  0  0  0  0  0
   -4.2053    0.8668    0.1159 N   0  0  0  0  0  0  0  0  0  0  0  0
   -4.7826   -0.0947   -0.3713 O   0  0  0  0  0  0  0  0  0  0  0  0
   -4.7089    1.8279    0.6798 O   0  0  0  0  0  0  0  0  0  0  0  0
    1.9862    0.8660   -0.3178 N   0  0  0  0  0  0  0  0  0  0  0  0
    3.0875    0.8655   -0.3938 N   0  0  0  0  0  0  0  0  0  0  0  0
  1  6  1  0  0  0  0
  2  1  2  0  0  0  0
  2  3  1  0  0  0  0
  3  4  2  0  0  0  0
  4  5  1  0  0  0  0
  4  9  1  0  0  0  0
  5 10  1  0  0  0  0
  6 11  1  0  0  0  0
  6  5  2  0  0  0  0
  7  1  1  0  0  0  0
  8  2  1  0  0  0  0
 11 13  2  0  0  0  0
 12 11  2  0  0  0  0
 15 14  3  0  0  0  0
M  RAD  1   3   2
M  END
