Coordinates from ORCA-job 4-NO2-Ph-N2+-B3LYPG-6-31G_dp-MTMO-d009-169-n800
 OpenBabel09051908243D

 15 15  0  0  0  0  0  0  0  0999 V2000
   -2.0010   -0.2123   -0.6328 C   0  0  0  0  0  0  0  0  0  0  0  0
   -0.6245   -0.2257   -0.7360 C   0  0  0  0  0  0  0  0  0  0  0  0
    0.1327    0.8667   -0.1885 C   0  0  0  0  0  0  0  0  0  0  0  0
   -0.5405    1.9593    0.4591 C   0  0  0  0  0  0  0  0  0  0  0  0
   -1.9180    1.9463    0.5483 C   0  0  0  0  0  0  0  0  0  0  0  0
   -2.6180    0.8671    0.0039 C   0  0  0  0  0  0  0  0  0  0  0  0
   -2.6074   -1.0171   -1.0328 H   0  0  0  0  0  0  0  0  0  0  0  0
   -0.0984   -1.0422   -1.2208 H   0  0  0  0  0  0  0  0  0  0  0  0
    0.0481    2.7752    0.8664 H   0  0  0  0  0  0  0  0  0  0  0  0
   -2.4629    2.7513    1.0287 H   0  0  0  0  0  0  0  0  0  0  0  0
   -4.1089    0.8669    0.1089 N   0  0  0  0  0  0  0  0  0  0  0  0
   -4.6843   -0.0945   -0.3798 O   0  0  0  0  0  0  0  0  0  0  0  0
   -4.6104    1.8280    0.6738 O   0  0  0  0  0  0  0  0  0  0  0  0
    1.2902    0.8664   -0.2694 N   0  0  0  0  0  0  0  0  0  0  0  0
    2.4149    0.8663   -0.3480 N   0  0  0  0  0  0  0  0  0  0  0  0
  1  6  1  0  0  0  0
  2  1  2  0  0  0  0
  2  3  1  0  0  0  0
  3  4  2  0  0  0  0
  4  5  1  0  0  0  0
  4  9  1  0  0  0  0
  5 10  1  0  0  0  0
  6 11  1  0  0  0  0
  6  5  2  0  0  0  0
  7  1  1  0  0  0  0
  8  2  1  0  0  0  0
 11 13  2  0  0  0  0
 12 11  2  0  0  0  0
 14  3  1  0  0  0  0
 15 14  1  0  0  0  0
M  RAD  2  14   2  15   3
M  END
