Coordinates from ORCA-job 4-NO2-Ph-N2+-B3LYPG-6-31G_dp-MTMO-d009-169-n800
 OpenBabel09051908243D

 15 14  0  0  0  0  0  0  0  0999 V2000
   -3.9461   -0.2258   -0.0239 C   0  0  0  0  0  0  0  0  0  0  0  0
   -3.9817   -1.5874   -0.4504 C   0  0  0  0  0  0  0  0  0  0  0  0
   -2.7155   -1.8515   -0.7595 C   0  0  0  0  0  0  0  0  0  0  0  0
   -1.4569   -1.4308   -0.8495 C   0  0  0  0  0  0  0  0  0  0  0  0
   -1.5234   -0.0755   -0.4076 C   0  0  0  0  0  0  0  0  0  0  0  0
   -2.7419    0.4789   -0.0146 C   0  0  0  0  0  0  0  0  0  0  0  0
   -4.8753    0.2442    0.2909 H   0  0  0  0  0  0  0  0  0  0  0  0
   -4.8713   -2.2065   -0.4901 H   0  0  0  0  0  0  0  0  0  0  0  0
   -0.5550   -1.9402   -1.1704 H   0  0  0  0  0  0  0  0  0  0  0  0
   -0.6058    0.5090   -0.3840 H   0  0  0  0  0  0  0  0  0  0  0  0
   -2.7581    1.8943    0.4374 N   0  0  0  0  0  0  0  0  0  0  0  0
   -3.8454    2.3387    0.7756 O   0  0  0  0  0  0  0  0  0  0  0  0
   -1.6824    2.4748    0.4269 O   0  0  0  0  0  0  0  0  0  0  0  0
    6.2628    6.7511    0.6547 N   0  0  0  0  0  0  0  0  0  0  0  0
    6.9075    7.6283    0.8458 N   0  0  0  0  0  0  0  0  0  0  0  0
  1  6  1  0  0  0  0
  1  7  1  0  0  0  0
  2  1  2  0  0  0  0
  3  2  1  0  0  0  0
  4  3  2  0  0  0  0
  4  5  1  0  0  0  0
  5 10  1  0  0  0  0
  5  6  2  0  0  0  0
  6 11  1  0  0  0  0
  8  2  1  0  0  0  0
  9  4  1  0  0  0  0
 11 12  2  0  0  0  0
 13 11  2  0  0  0  0
 14 15  3  0  0  0  0
M  RAD  1   3   2
M  END
