Coordinates from ORCA-job 4-NO2-Ph-N2+-B3LYPG-6-31G_dp-MTMO-d009-169-n800
 OpenBabel09051908243D

 15 14  0  0  0  0  0  0  0  0999 V2000
   -2.1243   -0.2102   -0.6234 C   0  0  0  0  0  0  0  0  0  0  0  0
   -0.7115   -0.2497   -0.7444 C   0  0  0  0  0  0  0  0  0  0  0  0
   -0.2504    0.8672   -0.1626 C   0  0  0  0  0  0  0  0  0  0  0  0
   -0.6255    1.9840    0.4782 C   0  0  0  0  0  0  0  0  0  0  0  0
   -2.0413    1.9443    0.5559 C   0  0  0  0  0  0  0  0  0  0  0  0
   -2.7409    0.8670    0.0126 C   0  0  0  0  0  0  0  0  0  0  0  0
   -2.7153   -1.0262   -1.0303 H   0  0  0  0  0  0  0  0  0  0  0  0
   -0.1590   -1.0493   -1.2219 H   0  0  0  0  0  0  0  0  0  0  0  0
   -0.0118    2.7834    0.8741 H   0  0  0  0  0  0  0  0  0  0  0  0
   -2.5700    2.7604    1.0412 H   0  0  0  0  0  0  0  0  0  0  0  0
   -4.2241    0.8667    0.1175 N   0  0  0  0  0  0  0  0  0  0  0  0
   -4.8006   -0.0951   -0.3699 O   0  0  0  0  0  0  0  0  0  0  0  0
   -4.7269    1.8280    0.6815 O   0  0  0  0  0  0  0  0  0  0  0  0
    2.1057    0.8660   -0.3263 N   0  0  0  0  0  0  0  0  0  0  0  0
    3.2074    0.8651   -0.4011 N   0  0  0  0  0  0  0  0  0  0  0  0
  1  6  1  0  0  0  0
  2  1  2  0  0  0  0
  2  3  1  0  0  0  0
  3  4  2  0  0  0  0
  4  5  1  0  0  0  0
  4  9  1  0  0  0  0
  5 10  1  0  0  0  0
  6 11  1  0  0  0  0
  6  5  2  0  0  0  0
  7  1  1  0  0  0  0
  8  2  1  0  0  0  0
 11 13  2  0  0  0  0
 12 11  2  0  0  0  0
 15 14  3  0  0  0  0
M  RAD  1   3   2
M  END
