Coordinates from ORCA-job 4-NO2-Ph-N2+-B3LYPG-6-31G_dp-MTMO-d009-169-n800
 OpenBabel09051908243D

 15 14  0  0  0  0  0  0  0  0999 V2000
   -4.0838   -0.3272   -0.0249 C   0  0  0  0  0  0  0  0  0  0  0  0
   -4.1396   -1.6915   -0.4401 C   0  0  0  0  0  0  0  0  0  0  0  0
   -2.8806   -1.9714   -0.7648 C   0  0  0  0  0  0  0  0  0  0  0  0
   -1.6190   -1.5648   -0.8755 C   0  0  0  0  0  0  0  0  0  0  0  0
   -1.6653   -0.2055   -0.4434 C   0  0  0  0  0  0  0  0  0  0  0  0
   -2.8723    0.3648   -0.0379 C   0  0  0  0  0  0  0  0  0  0  0  0
   -5.0036    0.1550    0.2992 H   0  0  0  0  0  0  0  0  0  0  0  0
   -5.0359   -2.3016   -0.4626 H   0  0  0  0  0  0  0  0  0  0  0  0
   -0.7270   -2.0861   -1.2049 H   0  0  0  0  0  0  0  0  0  0  0  0
   -0.7414    0.3695   -0.4373 H   0  0  0  0  0  0  0  0  0  0  0  0
   -2.8672    1.7838    0.4030 N   0  0  0  0  0  0  0  0  0  0  0  0
   -3.9446    2.2420    0.7541 O   0  0  0  0  0  0  0  0  0  0  0  0
   -1.7860    2.3530    0.3714 O   0  0  0  0  0  0  0  0  0  0  0  0
    7.1719    7.4987    0.7747 N   0  0  0  0  0  0  0  0  0  0  0  0
    7.8058    8.3828    0.9701 N   0  0  0  0  0  0  0  0  0  0  0  0
  1  7  1  0  0  0  0
  2  1  2  0  0  0  0
  3  2  1  0  0  0  0
  4  3  2  0  0  0  0
  4  5  1  0  0  0  0
  5 10  1  0  0  0  0
  5  6  2  0  0  0  0
  6  1  1  0  0  0  0
  6 11  1  0  0  0  0
  8  2  1  0  0  0  0
  9  4  1  0  0  0  0
 11 12  2  0  0  0  0
 13 11  2  0  0  0  0
 14 15  3  0  0  0  0
M  RAD  1   3   2
M  END
