Coordinates from ORCA-job 4-NO2-Ph-N2+-B3LYPG-6-31G_dp-MTMO-d009-169-n800
 OpenBabel09051908243D

 15 14  0  0  0  0  0  0  0  0999 V2000
   -2.3197   -0.2117   -0.6127 C   0  0  0  0  0  0  0  0  0  0  0  0
   -0.8996   -0.2585   -0.7421 C   0  0  0  0  0  0  0  0  0  0  0  0
   -0.4927    0.8633   -0.1547 C   0  0  0  0  0  0  0  0  0  0  0  0
   -0.8059    1.9859    0.4863 C   0  0  0  0  0  0  0  0  0  0  0  0
   -2.2297    1.9428    0.5668 C   0  0  0  0  0  0  0  0  0  0  0  0
   -2.9338    0.8664    0.0258 C   0  0  0  0  0  0  0  0  0  0  0  0
   -2.9069   -1.0318   -1.0202 H   0  0  0  0  0  0  0  0  0  0  0  0
   -0.3399   -1.0552   -1.2195 H   0  0  0  0  0  0  0  0  0  0  0  0
   -0.1800    2.7807    0.8766 H   0  0  0  0  0  0  0  0  0  0  0  0
   -2.7489    2.7645    1.0557 H   0  0  0  0  0  0  0  0  0  0  0  0
   -4.4155    0.8679    0.1360 N   0  0  0  0  0  0  0  0  0  0  0  0
   -4.9925   -0.0939   -0.3500 O   0  0  0  0  0  0  0  0  0  0  0  0
   -4.9125    1.8305    0.7022 O   0  0  0  0  0  0  0  0  0  0  0  0
    3.3431    0.8748   -0.3997 N   0  0  0  0  0  0  0  0  0  0  0  0
    4.4459    0.8756   -0.4695 N   0  0  0  0  0  0  0  0  0  0  0  0
  1  6  1  0  0  0  0
  2  1  2  0  0  0  0
  2  3  1  0  0  0  0
  3  4  2  0  0  0  0
  4  5  1  0  0  0  0
  4  9  1  0  0  0  0
  5 10  1  0  0  0  0
  6 11  1  0  0  0  0
  6  5  2  0  0  0  0
  7  1  1  0  0  0  0
  8  2  1  0  0  0  0
 11 13  2  0  0  0  0
 12 11  2  0  0  0  0
 15 14  3  0  0  0  0
M  RAD  1   3   2
M  END
