Coordinates from ORCA-job 4-NO2-Ph-N2+-B3LYPG-6-31G_dp-MTMO-d009-169-n800
 OpenBabel09051908243D

 15 14  0  0  0  0  0  0  0  0999 V2000
   -4.2750   -0.4765   -0.0320 C   0  0  0  0  0  0  0  0  0  0  0  0
   -4.3417   -1.8437   -0.4360 C   0  0  0  0  0  0  0  0  0  0  0  0
   -3.0881   -2.1309   -0.7751 C   0  0  0  0  0  0  0  0  0  0  0  0
   -1.8266   -1.7302   -0.9055 C   0  0  0  0  0  0  0  0  0  0  0  0
   -1.8617   -0.3676   -0.4833 C   0  0  0  0  0  0  0  0  0  0  0  0
   -3.0611    0.2106   -0.0664 C   0  0  0  0  0  0  0  0  0  0  0  0
   -5.1885    0.0119    0.3005 H   0  0  0  0  0  0  0  0  0  0  0  0
   -5.2407   -2.4503   -0.4420 H   0  0  0  0  0  0  0  0  0  0  0  0
   -0.9412   -2.2580   -1.2424 H   0  0  0  0  0  0  0  0  0  0  0  0
   -0.9356    0.2037   -0.4935 H   0  0  0  0  0  0  0  0  0  0  0  0
   -3.0446    1.6329    0.3634 N   0  0  0  0  0  0  0  0  0  0  0  0
   -4.1151    2.0977    0.7268 O   0  0  0  0  0  0  0  0  0  0  0  0
   -1.9620    2.1980    0.3110 O   0  0  0  0  0  0  0  0  0  0  0  0
    8.4487    8.4979    0.9256 N   0  0  0  0  0  0  0  0  0  0  0  0
    9.0446    9.4061    1.1300 N   0  0  0  0  0  0  0  0  0  0  0  0
  1  7  1  0  0  0  0
  2  1  2  0  0  0  0
  3  2  1  0  0  0  0
  4  3  2  0  0  0  0
  4  5  1  0  0  0  0
  5  6  2  0  0  0  0
  6  1  1  0  0  0  0
  6 11  1  0  0  0  0
  8  2  1  0  0  0  0
  9  4  1  0  0  0  0
 10  5  1  0  0  0  0
 11 12  2  0  0  0  0
 13 11  2  0  0  0  0
 14 15  3  0  0  0  0
M  RAD  1   3   2
M  END
