Coordinates from ORCA-job 4-NO2-Ph-N2+-B3LYPG-6-31G_dp-MTMO-d009-169-n800
 OpenBabel09051908243D

 15 14  0  0  0  0  0  0  0  0999 V2000
   -2.6121   -0.2383   -0.6089 C   0  0  0  0  0  0  0  0  0  0  0  0
   -1.1972   -0.3359   -0.7681 C   0  0  0  0  0  0  0  0  0  0  0  0
   -0.7402    0.7721   -0.1916 C   0  0  0  0  0  0  0  0  0  0  0  0
   -0.9985    1.9062    0.4532 C   0  0  0  0  0  0  0  0  0  0  0  0
   -2.4213    1.9134    0.5633 C   0  0  0  0  0  0  0  0  0  0  0  0
   -3.1742    0.8618    0.0396 C   0  0  0  0  0  0  0  0  0  0  0  0
   -3.2359   -1.0379   -1.0027 H   0  0  0  0  0  0  0  0  0  0  0  0
   -0.6776   -1.1535   -1.2558 H   0  0  0  0  0  0  0  0  0  0  0  0
   -0.3379    2.6798    0.8294 H   0  0  0  0  0  0  0  0  0  0  0  0
   -2.9002    2.7542    1.0611 H   0  0  0  0  0  0  0  0  0  0  0  0
   -4.6524    0.9158    0.1807 N   0  0  0  0  0  0  0  0  0  0  0  0
   -5.2727   -0.0259   -0.2908 O   0  0  0  0  0  0  0  0  0  0  0  0
   -5.1027    1.8965    0.7549 O   0  0  0  0  0  0  0  0  0  0  0  0
    4.9153    1.0324   -0.4178 N   0  0  0  0  0  0  0  0  0  0  0  0
    6.0191    1.0608   -0.4654 N   0  0  0  0  0  0  0  0  0  0  0  0
  1  6  1  0  0  0  0
  2  1  2  0  0  0  0
  2  3  1  0  0  0  0
  3  4  2  0  0  0  0
  4  5  1  0  0  0  0
  4  9  1  0  0  0  0
  5 10  1  0  0  0  0
  6 11  1  0  0  0  0
  6  5  2  0  0  0  0
  7  1  1  0  0  0  0
  8  2  1  0  0  0  0
 11 13  2  0  0  0  0
 12 11  2  0  0  0  0
 15 14  3  0  0  0  0
M  RAD  1   3   2
M  END
