Coordinates from ORCA-job 4-NO2-Ph-N2+-B3LYPG-6-31G_dp-MTMO-d009-169-n800
 OpenBabel09051908243D

 15 14  0  0  0  0  0  0  0  0999 V2000
   -3.8393   -0.1464   -0.0221 C   0  0  0  0  0  0  0  0  0  0  0  0
   -3.8615   -1.5058   -0.4562 C   0  0  0  0  0  0  0  0  0  0  0  0
   -2.5905   -1.7595   -0.7546 C   0  0  0  0  0  0  0  0  0  0  0  0
   -1.3341   -1.3296   -0.8303 C   0  0  0  0  0  0  0  0  0  0  0  0
   -1.4142    0.0227   -0.3817 C   0  0  0  0  0  0  0  0  0  0  0  0
   -2.6402    0.5666    0.0026 C   0  0  0  0  0  0  0  0  0  0  0  0
   -4.7748    0.3155    0.2864 H   0  0  0  0  0  0  0  0  0  0  0  0
   -4.7464   -2.1307   -0.5080 H   0  0  0  0  0  0  0  0  0  0  0  0
   -0.4257   -1.8311   -1.1453 H   0  0  0  0  0  0  0  0  0  0  0  0
   -0.5010    0.6133   -0.3461 H   0  0  0  0  0  0  0  0  0  0  0  0
   -2.6706    1.9792    0.4623 N   0  0  0  0  0  0  0  0  0  0  0  0
   -3.7644    2.4143    0.7918 O   0  0  0  0  0  0  0  0  0  0  0  0
   -1.5989    2.5671    0.4659 O   0  0  0  0  0  0  0  0  0  0  0  0
    5.5628    6.1752    0.5639 N   0  0  0  0  0  0  0  0  0  0  0  0
    6.2104    7.0507    0.7528 N   0  0  0  0  0  0  0  0  0  0  0  0
  1  6  1  0  0  0  0
  1  7  1  0  0  0  0
  2  1  2  0  0  0  0
  3  2  1  0  0  0  0
  4  3  2  0  0  0  0
  4  5  1  0  0  0  0
  5 10  1  0  0  0  0
  5  6  2  0  0  0  0
  6 11  1  0  0  0  0
  8  2  1  0  0  0  0
  9  4  1  0  0  0  0
 11 13  2  0  0  0  0
 11 12  2  0  0  0  0
 14 15  3  0  0  0  0
M  RAD  1   3   2
M  END
