Coordinates from ORCA-job 4-NO2-Ph-N2+-B3LYPG-6-31G_dp-MTMO-d009-169-n800
 OpenBabel09051908243D

 15 14  0  0  0  0  0  0  0  0999 V2000
   -3.8023   -0.1250   -0.0237 C   0  0  0  0  0  0  0  0  0  0  0  0
   -3.8071   -1.4830   -0.4625 C   0  0  0  0  0  0  0  0  0  0  0  0
   -2.5316   -1.7221   -0.7536 C   0  0  0  0  0  0  0  0  0  0  0  0
   -1.2794   -1.2785   -0.8200 C   0  0  0  0  0  0  0  0  0  0  0  0
   -1.3769    0.0714   -0.3675 C   0  0  0  0  0  0  0  0  0  0  0  0
   -2.6111    0.6008    0.0109 C   0  0  0  0  0  0  0  0  0  0  0  0
   -4.7446    0.3259    0.2802 H   0  0  0  0  0  0  0  0  0  0  0  0
   -4.6849   -2.1172   -0.5222 H   0  0  0  0  0  0  0  0  0  0  0  0
   -0.3636   -1.7691   -1.1308 H   0  0  0  0  0  0  0  0  0  0  0  0
   -0.4703    0.6716   -0.3240 H   0  0  0  0  0  0  0  0  0  0  0  0
   -2.6597    2.0115    0.4751 N   0  0  0  0  0  0  0  0  0  0  0  0
   -3.7602    2.4338    0.7985 O   0  0  0  0  0  0  0  0  0  0  0  0
   -1.5944    2.6106    0.4881 O   0  0  0  0  0  0  0  0  0  0  0  0
    5.3224    5.9487    0.5258 N   0  0  0  0  0  0  0  0  0  0  0  0
    5.9751    6.8220    0.7068 N   0  0  0  0  0  0  0  0  0  0  0  0
  1  6  1  0  0  0  0
  1  7  1  0  0  0  0
  2  1  2  0  0  0  0
  3  2  1  0  0  0  0
  4  3  2  0  0  0  0
  4  5  1  0  0  0  0
  5 10  1  0  0  0  0
  5  6  2  0  0  0  0
  6 11  1  0  0  0  0
  8  2  1  0  0  0  0
  9  4  1  0  0  0  0
 11 13  2  0  0  0  0
 11 12  2  0  0  0  0
 14 15  3  0  0  0  0
M  RAD  1   3   2
M  END
