Coordinates from ORCA-job 4-NO2-Ph-N2+-B3LYPG-6-31G_dp-MTMO-d009-169-n800
 OpenBabel09051908243D

 15 14  0  0  0  0  0  0  0  0999 V2000
   -3.6289   -0.0250   -0.0231 C   0  0  0  0  0  0  0  0  0  0  0  0
   -3.5599   -1.3769   -0.4752 C   0  0  0  0  0  0  0  0  0  0  0  0
   -2.2687   -1.5516   -0.7421 C   0  0  0  0  0  0  0  0  0  0  0  0
   -1.0382   -1.0482   -0.7783 C   0  0  0  0  0  0  0  0  0  0  0  0
   -1.2092    0.2906   -0.3146 C   0  0  0  0  0  0  0  0  0  0  0  0
   -2.4749    0.7563    0.0434 C   0  0  0  0  0  0  0  0  0  0  0  0
   -4.5975    0.3776    0.2655 H   0  0  0  0  0  0  0  0  0  0  0  0
   -4.4050   -2.0513   -0.5596 H   0  0  0  0  0  0  0  0  0  0  0  0
   -0.0940   -1.4913   -1.0750 H   0  0  0  0  0  0  0  0  0  0  0  0
   -0.3334    0.9330   -0.2469 H   0  0  0  0  0  0  0  0  0  0  0  0
   -2.6003    2.1580    0.5204 N   0  0  0  0  0  0  0  0  0  0  0  0
   -3.7268    2.5246    0.8219 O   0  0  0  0  0  0  0  0  0  0  0  0
   -1.5650    2.8061    0.5645 O   0  0  0  0  0  0  0  0  0  0  0  0
    4.2245    4.9163    0.3559 N   0  0  0  0  0  0  0  0  0  0  0  0
    4.8890    5.7832    0.5242 N   0  0  0  0  0  0  0  0  0  0  0  0
  1  6  1  0  0  0  0
  1  7  1  0  0  0  0
  2  1  2  0  0  0  0
  3  2  1  0  0  0  0
  4  3  2  0  0  0  0
  4  5  1  0  0  0  0
  5 10  1  0  0  0  0
  5  6  2  0  0  0  0
  6 11  1  0  0  0  0
  8  2  1  0  0  0  0
  9  4  1  0  0  0  0
 11 13  2  0  0  0  0
 11 12  2  0  0  0  0
 14 15  3  0  0  0  0
M  RAD  1   3   2
M  END
