Coordinates from ORCA-job 4-NO2-Ph-N2+-B3LYPG-6-31G_dp-MTMO-d009-169-n800
 OpenBabel09051908243D

 15 14  0  0  0  0  0  0  0  0999 V2000
   -4.3375   -0.5248   -0.0335 C   0  0  0  0  0  0  0  0  0  0  0  0
   -4.4089   -1.8931   -0.4331 C   0  0  0  0  0  0  0  0  0  0  0  0
   -3.1577   -2.1837   -0.7779 C   0  0  0  0  0  0  0  0  0  0  0  0
   -1.8961   -1.7859   -0.9160 C   0  0  0  0  0  0  0  0  0  0  0  0
   -1.9264   -0.4220   -0.4977 C   0  0  0  0  0  0  0  0  0  0  0  0
   -3.1225    0.1599   -0.0762 C   0  0  0  0  0  0  0  0  0  0  0  0
   -5.2483   -0.0336    0.3024 H   0  0  0  0  0  0  0  0  0  0  0  0
   -5.3091   -2.4979   -0.4325 H   0  0  0  0  0  0  0  0  0  0  0  0
   -1.0135   -2.3164   -1.2560 H   0  0  0  0  0  0  0  0  0  0  0  0
   -0.9993    0.1476   -0.5144 H   0  0  0  0  0  0  0  0  0  0  0  0
   -3.1010    1.5834    0.3493 N   0  0  0  0  0  0  0  0  0  0  0  0
   -4.1686    2.0513    0.7170 O   0  0  0  0  0  0  0  0  0  0  0  0
   -2.0176    2.1462    0.2895 O   0  0  0  0  0  0  0  0  0  0  0  0
    8.8688    8.8266    0.9759 N   0  0  0  0  0  0  0  0  0  0  0  0
    9.4492    9.7439    1.1841 N   0  0  0  0  0  0  0  0  0  0  0  0
  1  7  1  0  0  0  0
  2  8  1  0  0  0  0
  2  1  2  0  0  0  0
  3  2  1  0  0  0  0
  4  3  2  0  0  0  0
  4  5  1  0  0  0  0
  5  6  2  0  0  0  0
  6  1  1  0  0  0  0
  6 11  1  0  0  0  0
  9  4  1  0  0  0  0
 10  5  1  0  0  0  0
 11 12  2  0  0  0  0
 13 11  2  0  0  0  0
 14 15  3  0  0  0  0
M  RAD  1   3   2
M  END
