Coordinates from ORCA-job 4-NO2-Ph-N2+-B3LYPG-6-31G_dp-MTMO-d009-169-n800
 OpenBabel09051908243D

 15 15  0  0  0  0  0  0  0  0999 V2000
   -2.0558   -0.2112   -0.6285 C   0  0  0  0  0  0  0  0  0  0  0  0
   -0.6601   -0.2361   -0.7397 C   0  0  0  0  0  0  0  0  0  0  0  0
   -0.0653    0.8668   -0.1748 C   0  0  0  0  0  0  0  0  0  0  0  0
   -0.5753    1.9698    0.4674 C   0  0  0  0  0  0  0  0  0  0  0  0
   -1.9729    1.9452    0.5517 C   0  0  0  0  0  0  0  0  0  0  0  0
   -2.6703    0.8670    0.0076 C   0  0  0  0  0  0  0  0  0  0  0  0
   -2.6599   -1.0175   -1.0294 H   0  0  0  0  0  0  0  0  0  0  0  0
   -0.1245   -1.0450   -1.2210 H   0  0  0  0  0  0  0  0  0  0  0  0
    0.0222    2.7783    0.8700 H   0  0  0  0  0  0  0  0  0  0  0  0
   -2.5153    2.7516    1.0327 H   0  0  0  0  0  0  0  0  0  0  0  0
   -4.1572    0.8669    0.1124 N   0  0  0  0  0  0  0  0  0  0  0  0
   -4.7363   -0.0939   -0.3744 O   0  0  0  0  0  0  0  0  0  0  0  0
   -4.6626    1.8274    0.6759 O   0  0  0  0  0  0  0  0  0  0  0  0
    1.6715    0.8663   -0.2960 N   0  0  0  0  0  0  0  0  0  0  0  0
    2.7735    0.8659   -0.3727 N   0  0  0  0  0  0  0  0  0  0  0  0
  1  6  1  0  0  0  0
  2  1  2  0  0  0  0
  2  3  1  0  0  0  0
  3  4  2  0  0  0  0
  4  5  1  0  0  0  0
  4  9  1  0  0  0  0
  5 10  1  0  0  0  0
  6 11  1  0  0  0  0
  6  5  2  0  0  0  0
  7  1  1  0  0  0  0
  8  2  1  0  0  0  0
 11 13  2  0  0  0  0
 12 11  2  0  0  0  0
 14  3  1  0  0  0  0
 15 14  1  0  0  0  0
M  RAD  2  14   2  15   3
M  END
