Coordinates from ORCA-job 4-NO2-Ph-N2+-B3LYPG-6-31G_dp-MTMO-d009-169-n800
 OpenBabel09051908243D

 15 14  0  0  0  0  0  0  0  0999 V2000
   -4.1874   -0.4078   -0.0288 C   0  0  0  0  0  0  0  0  0  0  0  0
   -4.2500   -1.7737   -0.4378 C   0  0  0  0  0  0  0  0  0  0  0  0
   -2.9941   -2.0581   -0.7705 C   0  0  0  0  0  0  0  0  0  0  0  0
   -1.7323   -1.6554   -0.8919 C   0  0  0  0  0  0  0  0  0  0  0  0
   -1.7716   -0.2943   -0.4652 C   0  0  0  0  0  0  0  0  0  0  0  0
   -2.9742    0.2810   -0.0534 C   0  0  0  0  0  0  0  0  0  0  0  0
   -5.1035    0.0783    0.3000 H   0  0  0  0  0  0  0  0  0  0  0  0
   -5.1482   -2.3813   -0.4512 H   0  0  0  0  0  0  0  0  0  0  0  0
   -0.8442   -2.1808   -1.2255 H   0  0  0  0  0  0  0  0  0  0  0  0
   -0.8462    0.2783   -0.4679 H   0  0  0  0  0  0  0  0  0  0  0  0
   -2.9621    1.7018    0.3814 N   0  0  0  0  0  0  0  0  0  0  0  0
   -4.0354    2.1641    0.7394 O   0  0  0  0  0  0  0  0  0  0  0  0
   -1.8798    2.2682    0.3382 O   0  0  0  0  0  0  0  0  0  0  0  0
    7.8618    8.0430    0.8573 N   0  0  0  0  0  0  0  0  0  0  0  0
    8.4788    8.9380    1.0570 N   0  0  0  0  0  0  0  0  0  0  0  0
  1  7  1  0  0  0  0
  2  1  2  0  0  0  0
  3  2  1  0  0  0  0
  4  3  2  0  0  0  0
  4  5  1  0  0  0  0
  5  6  2  0  0  0  0
  6  1  1  0  0  0  0
  6 11  1  0  0  0  0
  8  2  1  0  0  0  0
  9  4  1  0  0  0  0
 10  5  1  0  0  0  0
 11 12  2  0  0  0  0
 13 11  2  0  0  0  0
 14 15  3  0  0  0  0
M  RAD  1   3   2
M  END
