Coordinates from ORCA-job 4-NO2-Ph-N2+-B3LYPG-6-31G_dp-MTMO-d009-169-n800
 OpenBabel09051908243D

 15 14  0  0  0  0  0  0  0  0999 V2000
   -2.4153   -0.2173   -0.6102 C   0  0  0  0  0  0  0  0  0  0  0  0
   -0.9960   -0.2737   -0.7476 C   0  0  0  0  0  0  0  0  0  0  0  0
   -0.5797    0.8458   -0.1627 C   0  0  0  0  0  0  0  0  0  0  0  0
   -0.8808    1.9708    0.4796 C   0  0  0  0  0  0  0  0  0  0  0  0
   -2.3046    1.9369    0.5679 C   0  0  0  0  0  0  0  0  0  0  0  0
   -3.0188    0.8650    0.0312 C   0  0  0  0  0  0  0  0  0  0  0  0
   -3.0099   -1.0338   -1.0144 H   0  0  0  0  0  0  0  0  0  0  0  0
   -0.4449   -1.0748   -1.2279 H   0  0  0  0  0  0  0  0  0  0  0  0
   -0.2481    2.7622    0.8664 H   0  0  0  0  0  0  0  0  0  0  0  0
   -2.8154    2.7625    1.0593 H   0  0  0  0  0  0  0  0  0  0  0  0
   -4.4998    0.8763    0.1495 N   0  0  0  0  0  0  0  0  0  0  0  0
   -5.0857   -0.0818   -0.3330 O   0  0  0  0  0  0  0  0  0  0  0  0
   -4.9872    1.8425    0.7181 O   0  0  0  0  0  0  0  0  0  0  0  0
    3.8972    0.9072   -0.4163 N   0  0  0  0  0  0  0  0  0  0  0  0
    5.0005    0.9138   -0.4789 N   0  0  0  0  0  0  0  0  0  0  0  0
  1  6  1  0  0  0  0
  2  1  2  0  0  0  0
  2  3  1  0  0  0  0
  3  4  2  0  0  0  0
  4  5  1  0  0  0  0
  4  9  1  0  0  0  0
  5 10  1  0  0  0  0
  6 11  1  0  0  0  0
  6  5  2  0  0  0  0
  7  1  1  0  0  0  0
  8  2  1  0  0  0  0
 11 13  2  0  0  0  0
 12 11  2  0  0  0  0
 15 14  3  0  0  0  0
M  RAD  1   3   2
M  END
