Coordinates from ORCA-job 4-NO2-Ph-N2+-B3LYPG-6-31G_dp-MTMO-d009-169-n800
 OpenBabel09051908243D

 15 14  0  0  0  0  0  0  0  0999 V2000
   -3.5468    0.0179   -0.0269 C   0  0  0  0  0  0  0  0  0  0  0  0
   -3.4327   -1.3277   -0.4881 C   0  0  0  0  0  0  0  0  0  0  0  0
   -2.1334   -1.4638   -0.7377 C   0  0  0  0  0  0  0  0  0  0  0  0
   -0.9173   -0.9254   -0.7523 C   0  0  0  0  0  0  0  0  0  0  0  0
   -1.1332    0.4045   -0.2813 C   0  0  0  0  0  0  0  0  0  0  0  0
   -2.4166    0.8312    0.0618 C   0  0  0  0  0  0  0  0  0  0  0  0
   -4.5305    0.3907    0.2507 H   0  0  0  0  0  0  0  0  0  0  0  0
   -4.2568   -2.0254   -0.5902 H   0  0  0  0  0  0  0  0  0  0  0  0
    0.0435   -1.3388   -1.0383 H   0  0  0  0  0  0  0  0  0  0  0  0
   -0.2771    1.0709   -0.1962 H   0  0  0  0  0  0  0  0  0  0  0  0
   -2.5890    2.2251    0.5468 N   0  0  0  0  0  0  0  0  0  0  0  0
   -3.7292    2.5558    0.8380 O   0  0  0  0  0  0  0  0  0  0  0  0
   -1.5740    2.9034    0.6065 O   0  0  0  0  0  0  0  0  0  0  0  0
    3.7107    4.4136    0.2692 N   0  0  0  0  0  0  0  0  0  0  0  0
    4.3938    5.2694    0.4190 N   0  0  0  0  0  0  0  0  0  0  0  0
  1  6  1  0  0  0  0
  1  7  1  0  0  0  0
  2  1  2  0  0  0  0
  3  2  1  0  0  0  0
  4  3  2  0  0  0  0
  4  5  1  0  0  0  0
  5 10  1  0  0  0  0
  5  6  2  0  0  0  0
  6 11  1  0  0  0  0
  8  2  1  0  0  0  0
  9  4  1  0  0  0  0
 11 13  2  0  0  0  0
 11 12  2  0  0  0  0
 14 15  3  0  0  0  0
M  RAD  1   3   2
M  END
