Coordinates from ORCA-job 4-NO2-Ph-N2+-B3LYPG-6-31G_dp-MTMO-d009-169-n800
 OpenBabel09051908243D

 15 14  0  0  0  0  0  0  0  0999 V2000
   -3.8187   -0.1339   -0.0227 C   0  0  0  0  0  0  0  0  0  0  0  0
   -3.8324   -1.4927   -0.4592 C   0  0  0  0  0  0  0  0  0  0  0  0
   -2.5591   -1.7392   -0.7540 C   0  0  0  0  0  0  0  0  0  0  0  0
   -1.3047   -1.3026   -0.8250 C   0  0  0  0  0  0  0  0  0  0  0  0
   -1.3933    0.0485   -0.3743 C   0  0  0  0  0  0  0  0  0  0  0  0
   -2.6234    0.5853    0.0070 C   0  0  0  0  0  0  0  0  0  0  0  0
   -4.7575    0.3226    0.2834 H   0  0  0  0  0  0  0  0  0  0  0  0
   -4.7138   -2.1221   -0.5150 H   0  0  0  0  0  0  0  0  0  0  0  0
   -0.3927   -1.7988   -1.1378 H   0  0  0  0  0  0  0  0  0  0  0  0
   -0.4833    0.6438   -0.3347 H   0  0  0  0  0  0  0  0  0  0  0  0
   -2.6627    1.9970    0.4690 N   0  0  0  0  0  0  0  0  0  0  0  0
   -3.7598    2.4258    0.7955 O   0  0  0  0  0  0  0  0  0  0  0  0
   -1.5942    2.5904    0.4772 O   0  0  0  0  0  0  0  0  0  0  0  0
    5.4284    6.0515    0.5430 N   0  0  0  0  0  0  0  0  0  0  0  0
    6.0787    6.9257    0.7288 N   0  0  0  0  0  0  0  0  0  0  0  0
  1  6  1  0  0  0  0
  1  7  1  0  0  0  0
  2  1  2  0  0  0  0
  3  2  1  0  0  0  0
  4  3  2  0  0  0  0
  4  5  1  0  0  0  0
  5 10  1  0  0  0  0
  5  6  2  0  0  0  0
  6 11  1  0  0  0  0
  8  2  1  0  0  0  0
  9  4  1  0  0  0  0
 11 13  2  0  0  0  0
 11 12  2  0  0  0  0
 14 15  3  0  0  0  0
M  RAD  1   3   2
M  END
