Coordinates from ORCA-job 4-NO2-Ph-N2+-B3LYPG-6-31G_dp-MTMO-d009-169-n800
 OpenBabel09051908243D

 15 14  0  0  0  0  0  0  0  0999 V2000
   -3.6626   -0.0428   -0.0229 C   0  0  0  0  0  0  0  0  0  0  0  0
   -3.6112   -1.3964   -0.4721 C   0  0  0  0  0  0  0  0  0  0  0  0
   -2.3234   -1.5865   -0.7445 C   0  0  0  0  0  0  0  0  0  0  0  0
   -1.0873   -1.0973   -0.7874 C   0  0  0  0  0  0  0  0  0  0  0  0
   -1.2409    0.2444   -0.3260 C   0  0  0  0  0  0  0  0  0  0  0  0
   -2.4994    0.7254    0.0367 C   0  0  0  0  0  0  0  0  0  0  0  0
   -4.6253    0.3715    0.2691 H   0  0  0  0  0  0  0  0  0  0  0  0
   -4.4644   -2.0613   -0.5510 H   0  0  0  0  0  0  0  0  0  0  0  0
   -0.1497   -1.5518   -1.0876 H   0  0  0  0  0  0  0  0  0  0  0  0
   -0.3575    0.8769   -0.2639 H   0  0  0  0  0  0  0  0  0  0  0  0
   -2.6066    2.1294    0.5113 N   0  0  0  0  0  0  0  0  0  0  0  0
   -3.7276    2.5100    0.8157 O   0  0  0  0  0  0  0  0  0  0  0  0
   -1.5635    2.7652    0.5508 O   0  0  0  0  0  0  0  0  0  0  0  0
    4.4368    5.1214    0.3912 N   0  0  0  0  0  0  0  0  0  0  0  0
    5.0942    5.9933    0.5618 N   0  0  0  0  0  0  0  0  0  0  0  0
  1  6  1  0  0  0  0
  1  7  1  0  0  0  0
  2  1  2  0  0  0  0
  3  2  1  0  0  0  0
  4  3  2  0  0  0  0
  4  5  1  0  0  0  0
  5 10  1  0  0  0  0
  5  6  2  0  0  0  0
  6 11  1  0  0  0  0
  8  2  1  0  0  0  0
  9  4  1  0  0  0  0
 11 13  2  0  0  0  0
 11 12  2  0  0  0  0
 14 15  3  0  0  0  0
M  RAD  1   3   2
M  END
