Coordinates from ORCA-job 4-NO2-Ph-N2+-B3LYPG-6-31G_dp-MTMO-d009-169-n800
 OpenBabel09051908243D

 15 14  0  0  0  0  0  0  0  0999 V2000
   -4.2140   -0.4288   -0.0300 C   0  0  0  0  0  0  0  0  0  0  0  0
   -4.2775   -1.7951   -0.4377 C   0  0  0  0  0  0  0  0  0  0  0  0
   -3.0221   -2.0801   -0.7720 C   0  0  0  0  0  0  0  0  0  0  0  0
   -1.7605   -1.6776   -0.8959 C   0  0  0  0  0  0  0  0  0  0  0  0
   -1.7989   -0.3162   -0.4704 C   0  0  0  0  0  0  0  0  0  0  0  0
   -3.0008    0.2598   -0.0572 C   0  0  0  0  0  0  0  0  0  0  0  0
   -5.1295    0.0577    0.2998 H   0  0  0  0  0  0  0  0  0  0  0  0
   -5.1758   -2.4026   -0.4490 H   0  0  0  0  0  0  0  0  0  0  0  0
   -0.8731   -2.2036   -1.2303 H   0  0  0  0  0  0  0  0  0  0  0  0
   -0.8734    0.2562   -0.4751 H   0  0  0  0  0  0  0  0  0  0  0  0
   -2.9877    1.6809    0.3762 N   0  0  0  0  0  0  0  0  0  0  0  0
   -4.0603    2.1437    0.7358 O   0  0  0  0  0  0  0  0  0  0  0  0
   -1.9054    2.2472    0.3305 O   0  0  0  0  0  0  0  0  0  0  0  0
    8.0398    8.1805    0.8777 N   0  0  0  0  0  0  0  0  0  0  0  0
    8.6508    9.0794    1.0787 N   0  0  0  0  0  0  0  0  0  0  0  0
  1  7  1  0  0  0  0
  2  1  2  0  0  0  0
  3  2  1  0  0  0  0
  4  3  2  0  0  0  0
  4  5  1  0  0  0  0
  5  6  2  0  0  0  0
  6  1  1  0  0  0  0
  6 11  1  0  0  0  0
  8  2  1  0  0  0  0
  9  4  1  0  0  0  0
 10  5  1  0  0  0  0
 11 12  2  0  0  0  0
 13 11  2  0  0  0  0
 14 15  3  0  0  0  0
M  RAD  1   3   2
M  END
