Coordinates from ORCA-job 4-NO2-Ph-N2+-B3LYPG-6-31G_dp-MTMO-d009-169-n800
 OpenBabel09051908243D

 15 14  0  0  0  0  0  0  0  0999 V2000
   -3.7810   -0.1144   -0.0259 C   0  0  0  0  0  0  0  0  0  0  0  0
   -3.7718   -1.4713   -0.4680 C   0  0  0  0  0  0  0  0  0  0  0  0
   -2.4929   -1.6985   -0.7535 C   0  0  0  0  0  0  0  0  0  0  0  0
   -1.2443   -1.2439   -0.8127 C   0  0  0  0  0  0  0  0  0  0  0  0
   -1.3557    0.1039   -0.3570 C   0  0  0  0  0  0  0  0  0  0  0  0
   -2.5964    0.6215    0.0167 C   0  0  0  0  0  0  0  0  0  0  0  0
   -4.7287    0.3276    0.2745 H   0  0  0  0  0  0  0  0  0  0  0  0
   -4.6437   -2.1130   -0.5335 H   0  0  0  0  0  0  0  0  0  0  0  0
   -0.3228   -1.7255   -1.1207 H   0  0  0  0  0  0  0  0  0  0  0  0
   -0.4547    0.7120   -0.3081 H   0  0  0  0  0  0  0  0  0  0  0  0
   -2.6594    2.0304    0.4847 N   0  0  0  0  0  0  0  0  0  0  0  0
   -3.7659    2.4436    0.7993 O   0  0  0  0  0  0  0  0  0  0  0  0
   -1.5986    2.6372    0.5094 O   0  0  0  0  0  0  0  0  0  0  0  0
    5.1859    5.8093    0.5024 N   0  0  0  0  0  0  0  0  0  0  0  0
    5.8413    6.6826    0.6737 N   0  0  0  0  0  0  0  0  0  0  0  0
  1  6  1  0  0  0  0
  1  7  1  0  0  0  0
  2  1  2  0  0  0  0
  3  2  1  0  0  0  0
  4  3  2  0  0  0  0
  4  5  1  0  0  0  0
  5 10  1  0  0  0  0
  5  6  2  0  0  0  0
  6 11  1  0  0  0  0
  8  2  1  0  0  0  0
  9  4  1  0  0  0  0
 11 13  2  0  0  0  0
 11 12  2  0  0  0  0
 14 15  3  0  0  0  0
M  RAD  1   3   2
M  END
