Coordinates from ORCA-job 4-NO2-Ph-N2+-B3LYPG-6-31G_dp-MTMO-d009-169-n800
 OpenBabel09051908243D

 15 14  0  0  0  0  0  0  0  0999 V2000
   -3.9706   -0.2449   -0.0246 C   0  0  0  0  0  0  0  0  0  0  0  0
   -4.0078   -1.6068   -0.4494 C   0  0  0  0  0  0  0  0  0  0  0  0
   -2.7423   -1.8721   -0.7607 C   0  0  0  0  0  0  0  0  0  0  0  0
   -1.4836   -1.4521   -0.8535 C   0  0  0  0  0  0  0  0  0  0  0  0
   -1.5485   -0.0964   -0.4130 C   0  0  0  0  0  0  0  0  0  0  0  0
   -2.7660    0.4593   -0.0184 C   0  0  0  0  0  0  0  0  0  0  0  0
   -4.8990    0.2261    0.2915 H   0  0  0  0  0  0  0  0  0  0  0  0
   -4.8978   -2.2255   -0.4868 H   0  0  0  0  0  0  0  0  0  0  0  0
   -0.5826   -1.9624   -1.1755 H   0  0  0  0  0  0  0  0  0  0  0  0
   -0.6306    0.4877   -0.3918 H   0  0  0  0  0  0  0  0  0  0  0  0
   -2.7805    1.8751    0.4321 N   0  0  0  0  0  0  0  0  0  0  0  0
   -3.8669    2.3205    0.7719 O   0  0  0  0  0  0  0  0  0  0  0  0
   -1.7046    2.4550    0.4187 O   0  0  0  0  0  0  0  0  0  0  0  0
    6.4242    6.8802    0.6746 N   0  0  0  0  0  0  0  0  0  0  0  0
    7.0681    7.7579    0.8660 N   0  0  0  0  0  0  0  0  0  0  0  0
  1  6  1  0  0  0  0
  1  7  1  0  0  0  0
  2  1  2  0  0  0  0
  3  2  1  0  0  0  0
  4  3  2  0  0  0  0
  4  5  1  0  0  0  0
  5 10  1  0  0  0  0
  5  6  2  0  0  0  0
  6 11  1  0  0  0  0
  8  2  1  0  0  0  0
  9  4  1  0  0  0  0
 11 12  2  0  0  0  0
 13 11  2  0  0  0  0
 14 15  3  0  0  0  0
M  RAD  1   3   2
M  END
