Coordinates from ORCA-job 4-NO2-Ph-N2+-B3LYPG-6-31G_dp-MTMO-d009-169-n800
 OpenBabel09051908243D

 15 14  0  0  0  0  0  0  0  0999 V2000
   -2.3875   -0.2152   -0.6107 C   0  0  0  0  0  0  0  0  0  0  0  0
   -0.9679   -0.2680   -0.7454 C   0  0  0  0  0  0  0  0  0  0  0  0
   -0.5553    0.8524   -0.1595 C   0  0  0  0  0  0  0  0  0  0  0  0
   -0.8606    1.9766    0.4823 C   0  0  0  0  0  0  0  0  0  0  0  0
   -2.2845    1.9391    0.5679 C   0  0  0  0  0  0  0  0  0  0  0  0
   -2.9949    0.8655    0.0298 C   0  0  0  0  0  0  0  0  0  0  0  0
   -2.9793   -1.0332   -1.0161 H   0  0  0  0  0  0  0  0  0  0  0  0
   -0.4136   -1.0675   -1.2248 H   0  0  0  0  0  0  0  0  0  0  0  0
   -0.2305    2.7693    0.8703 H   0  0  0  0  0  0  0  0  0  0  0  0
   -2.7983    2.7632    1.0585 H   0  0  0  0  0  0  0  0  0  0  0  0
   -4.4762    0.8730    0.1453 N   0  0  0  0  0  0  0  0  0  0  0  0
   -5.0588   -0.0865   -0.3384 O   0  0  0  0  0  0  0  0  0  0  0  0
   -4.9670    1.8378    0.7131 O   0  0  0  0  0  0  0  0  0  0  0  0
    3.7413    0.8952   -0.4133 N   0  0  0  0  0  0  0  0  0  0  0  0
    4.8445    0.8997   -0.4779 N   0  0  0  0  0  0  0  0  0  0  0  0
  1  6  1  0  0  0  0
  2  1  2  0  0  0  0
  2  3  1  0  0  0  0
  3  4  2  0  0  0  0
  4  5  1  0  0  0  0
  4  9  1  0  0  0  0
  5 10  1  0  0  0  0
  6 11  1  0  0  0  0
  6  5  2  0  0  0  0
  7  1  1  0  0  0  0
  8  2  1  0  0  0  0
 11 13  2  0  0  0  0
 12 11  2  0  0  0  0
 15 14  3  0  0  0  0
M  RAD  1   3   2
M  END
