Coordinates from ORCA-job 4-NO2-Ph-N2+-B3LYPG-6-31G_dp-MTMO-d009-169-n800
 OpenBabel09051908243D

 15 14  0  0  0  0  0  0  0  0999 V2000
   -4.0517   -0.3031   -0.0244 C   0  0  0  0  0  0  0  0  0  0  0  0
   -4.1037   -1.6668   -0.4421 C   0  0  0  0  0  0  0  0  0  0  0  0
   -2.8432   -1.9437   -0.7635 C   0  0  0  0  0  0  0  0  0  0  0  0
   -1.5820   -1.5346   -0.8698 C   0  0  0  0  0  0  0  0  0  0  0  0
   -1.6322   -0.1762   -0.4355 C   0  0  0  0  0  0  0  0  0  0  0  0
   -2.8415    0.3913   -0.0326 C   0  0  0  0  0  0  0  0  0  0  0  0
   -4.9734    0.1769    0.2977 H   0  0  0  0  0  0  0  0  0  0  0  0
   -4.9989   -2.2785   -0.4684 H   0  0  0  0  0  0  0  0  0  0  0  0
   -0.6881   -2.0537   -1.1973 H   0  0  0  0  0  0  0  0  0  0  0  0
   -0.7094    0.4006   -0.4255 H   0  0  0  0  0  0  0  0  0  0  0  0
   -2.8404    1.8094    0.4108 N   0  0  0  0  0  0  0  0  0  0  0  0
   -3.9198    2.2650    0.7592 O   0  0  0  0  0  0  0  0  0  0  0  0
   -1.7601    2.3807    0.3835 O   0  0  0  0  0  0  0  0  0  0  0  0
    6.9595    7.3260    0.7476 N   0  0  0  0  0  0  0  0  0  0  0  0
    7.5962    8.2083    0.9415 N   0  0  0  0  0  0  0  0  0  0  0  0
  1  7  1  0  0  0  0
  2  1  2  0  0  0  0
  3  2  1  0  0  0  0
  4  3  2  0  0  0  0
  4  5  1  0  0  0  0
  5 10  1  0  0  0  0
  5  6  2  0  0  0  0
  6  1  1  0  0  0  0
  6 11  1  0  0  0  0
  8  2  1  0  0  0  0
  9  4  1  0  0  0  0
 11 12  2  0  0  0  0
 13 11  2  0  0  0  0
 14 15  3  0  0  0  0
M  RAD  1   3   2
M  END
