Coordinates from ORCA-job 4-NO2-Ph-N2+-B3LYPG-6-31G_dp-MTMO-d009-169-n800
 OpenBabel09051908243D

 15 14  0  0  0  0  0  0  0  0999 V2000
   -2.2452   -0.2105   -0.6160 C   0  0  0  0  0  0  0  0  0  0  0  0
   -0.8254   -0.2551   -0.7415 C   0  0  0  0  0  0  0  0  0  0  0  0
   -0.4173    0.8667   -0.1535 C   0  0  0  0  0  0  0  0  0  0  0  0
   -0.7376    1.9884    0.4867 C   0  0  0  0  0  0  0  0  0  0  0  0
   -2.1608    1.9442    0.5638 C   0  0  0  0  0  0  0  0  0  0  0  0
   -2.8621    0.8669    0.0210 C   0  0  0  0  0  0  0  0  0  0  0  0
   -2.8312   -1.0307   -1.0248 H   0  0  0  0  0  0  0  0  0  0  0  0
   -0.2635   -1.0507   -1.2175 H   0  0  0  0  0  0  0  0  0  0  0  0
   -0.1136    2.7836    0.8785 H   0  0  0  0  0  0  0  0  0  0  0  0
   -2.6830    2.7647    1.0512 H   0  0  0  0  0  0  0  0  0  0  0  0
   -4.3441    0.8667    0.1272 N   0  0  0  0  0  0  0  0  0  0  0  0
   -4.9192   -0.0955   -0.3603 O   0  0  0  0  0  0  0  0  0  0  0  0
   -4.8441    1.8286    0.6922 O   0  0  0  0  0  0  0  0  0  0  0  0
    2.8782    0.8672   -0.3760 N   0  0  0  0  0  0  0  0  0  0  0  0
    3.9806    0.8670   -0.4498 N   0  0  0  0  0  0  0  0  0  0  0  0
  1  6  1  0  0  0  0
  2  1  2  0  0  0  0
  2  3  1  0  0  0  0
  3  4  2  0  0  0  0
  4  5  1  0  0  0  0
  4  9  1  0  0  0  0
  5 10  1  0  0  0  0
  6 11  1  0  0  0  0
  6  5  2  0  0  0  0
  7  1  1  0  0  0  0
  8  2  1  0  0  0  0
 11 13  2  0  0  0  0
 12 11  2  0  0  0  0
 15 14  3  0  0  0  0
M  RAD  1   3   2
M  END
