Coordinates from ORCA-job 4-NO2-Ph-N2+-B3LYPG-6-31G_dp-MTMO-d009-169-n800
 OpenBabel09051908243D

 15 14  0  0  0  0  0  0  0  0999 V2000
   -4.0397   -0.2941   -0.0243 C   0  0  0  0  0  0  0  0  0  0  0  0
   -4.0901   -1.6576   -0.4429 C   0  0  0  0  0  0  0  0  0  0  0  0
   -2.8291   -1.9334   -0.7631 C   0  0  0  0  0  0  0  0  0  0  0  0
   -1.5681   -1.5232   -0.8676 C   0  0  0  0  0  0  0  0  0  0  0  0
   -1.6198   -0.1651   -0.4325 C   0  0  0  0  0  0  0  0  0  0  0  0
   -2.8300    0.4012   -0.0306 C   0  0  0  0  0  0  0  0  0  0  0  0
   -4.9621    0.1850    0.2971 H   0  0  0  0  0  0  0  0  0  0  0  0
   -4.9848   -2.2699   -0.4706 H   0  0  0  0  0  0  0  0  0  0  0  0
   -0.6734   -2.0414   -1.1944 H   0  0  0  0  0  0  0  0  0  0  0  0
   -0.6975    0.4123   -0.4211 H   0  0  0  0  0  0  0  0  0  0  0  0
   -2.8305    1.8190    0.4137 N   0  0  0  0  0  0  0  0  0  0  0  0
   -3.9106    2.2736    0.7611 O   0  0  0  0  0  0  0  0  0  0  0  0
   -1.7506    2.3911    0.3882 O   0  0  0  0  0  0  0  0  0  0  0  0
    6.8801    7.2610    0.7373 N   0  0  0  0  0  0  0  0  0  0  0  0
    7.5177    8.1429    0.9308 N   0  0  0  0  0  0  0  0  0  0  0  0
  1  7  1  0  0  0  0
  2  1  2  0  0  0  0
  3  2  1  0  0  0  0
  4  3  2  0  0  0  0
  4  5  1  0  0  0  0
  5 10  1  0  0  0  0
  5  6  2  0  0  0  0
  6  1  1  0  0  0  0
  6 11  1  0  0  0  0
  8  2  1  0  0  0  0
  9  4  1  0  0  0  0
 11 12  2  0  0  0  0
 13 11  2  0  0  0  0
 14 15  3  0  0  0  0
M  RAD  1   3   2
M  END
