Coordinates from ORCA-job 4-NO2-Ph-N2+-B3LYPG-6-31G_dp-MTMO-d009-169-n800
 OpenBabel09051908243D

 15 14  0  0  0  0  0  0  0  0999 V2000
   -2.4216   -0.2178   -0.6101 C   0  0  0  0  0  0  0  0  0  0  0  0
   -1.0024   -0.2752   -0.7481 C   0  0  0  0  0  0  0  0  0  0  0  0
   -0.5851    0.8441   -0.1634 C   0  0  0  0  0  0  0  0  0  0  0  0
   -0.8852    1.9693    0.4790 C   0  0  0  0  0  0  0  0  0  0  0  0
   -2.3090    1.9364    0.5679 C   0  0  0  0  0  0  0  0  0  0  0  0
   -3.0241    0.8649    0.0315 C   0  0  0  0  0  0  0  0  0  0  0  0
   -3.0168   -1.0340   -1.0140 H   0  0  0  0  0  0  0  0  0  0  0  0
   -0.4521   -1.0767   -1.2286 H   0  0  0  0  0  0  0  0  0  0  0  0
   -0.2518    2.7603    0.8656 H   0  0  0  0  0  0  0  0  0  0  0  0
   -2.8190    2.7623    1.0595 H   0  0  0  0  0  0  0  0  0  0  0  0
   -4.5051    0.8772    0.1504 N   0  0  0  0  0  0  0  0  0  0  0  0
   -5.0918   -0.0806   -0.3318 O   0  0  0  0  0  0  0  0  0  0  0  0
   -4.9915    1.8437    0.7192 O   0  0  0  0  0  0  0  0  0  0  0  0
    3.9318    0.9102   -0.4169 N   0  0  0  0  0  0  0  0  0  0  0  0
    5.0352    0.9174   -0.4790 N   0  0  0  0  0  0  0  0  0  0  0  0
  1  6  1  0  0  0  0
  2  1  2  0  0  0  0
  2  3  1  0  0  0  0
  3  4  2  0  0  0  0
  4  5  1  0  0  0  0
  4  9  1  0  0  0  0
  5 10  1  0  0  0  0
  6 11  1  0  0  0  0
  6  5  2  0  0  0  0
  7  1  1  0  0  0  0
  8  2  1  0  0  0  0
 11 13  2  0  0  0  0
 12 11  2  0  0  0  0
 15 14  3  0  0  0  0
M  RAD  1   3   2
M  END
