Coordinates from ORCA-job 4-NO2-Ph-N2+-B3LYPG-6-31G_dp-MTMO-d009-169-n800
 OpenBabel09051908243D

 15 14  0  0  0  0  0  0  0  0999 V2000
   -3.6308   -0.0260   -0.0231 C   0  0  0  0  0  0  0  0  0  0  0  0
   -3.5627   -1.3780   -0.4750 C   0  0  0  0  0  0  0  0  0  0  0  0
   -2.2718   -1.5535   -0.7423 C   0  0  0  0  0  0  0  0  0  0  0  0
   -1.0409   -1.0509   -0.7788 C   0  0  0  0  0  0  0  0  0  0  0  0
   -1.2110    0.2881   -0.3152 C   0  0  0  0  0  0  0  0  0  0  0  0
   -2.4762    0.7546    0.0431 C   0  0  0  0  0  0  0  0  0  0  0  0
   -4.5991    0.3772    0.2657 H   0  0  0  0  0  0  0  0  0  0  0  0
   -4.4083   -2.0519   -0.5592 H   0  0  0  0  0  0  0  0  0  0  0  0
   -0.0971   -1.4946   -1.0757 H   0  0  0  0  0  0  0  0  0  0  0  0
   -0.3348    0.9299   -0.2479 H   0  0  0  0  0  0  0  0  0  0  0  0
   -2.6007    2.1565    0.5199 N   0  0  0  0  0  0  0  0  0  0  0  0
   -3.7269    2.5237    0.8216 O   0  0  0  0  0  0  0  0  0  0  0  0
   -1.5650    2.8039    0.5637 O   0  0  0  0  0  0  0  0  0  0  0  0
    4.2363    4.9276    0.3578 N   0  0  0  0  0  0  0  0  0  0  0  0
    4.9004    5.7948    0.5263 N   0  0  0  0  0  0  0  0  0  0  0  0
  1  6  1  0  0  0  0
  1  7  1  0  0  0  0
  2  1  2  0  0  0  0
  3  2  1  0  0  0  0
  4  3  2  0  0  0  0
  4  5  1  0  0  0  0
  5 10  1  0  0  0  0
  5  6  2  0  0  0  0
  6 11  1  0  0  0  0
  8  2  1  0  0  0  0
  9  4  1  0  0  0  0
 11 13  2  0  0  0  0
 11 12  2  0  0  0  0
 14 15  3  0  0  0  0
M  RAD  1   3   2
M  END
