Coordinates from ORCA-job 4-NO2-Ph-N2+-B3LYPG-6-31G_dp-MTMO-d009-169-n800
 OpenBabel09051908243D

 15 14  0  0  0  0  0  0  0  0999 V2000
   -3.6589   -0.0408   -0.0229 C   0  0  0  0  0  0  0  0  0  0  0  0
   -3.6055   -1.3942   -0.4725 C   0  0  0  0  0  0  0  0  0  0  0  0
   -2.3173   -1.5826   -0.7443 C   0  0  0  0  0  0  0  0  0  0  0  0
   -1.0819   -1.0918   -0.7864 C   0  0  0  0  0  0  0  0  0  0  0  0
   -1.2373    0.2495   -0.3247 C   0  0  0  0  0  0  0  0  0  0  0  0
   -2.4967    0.7289    0.0375 C   0  0  0  0  0  0  0  0  0  0  0  0
   -4.6223    0.3721    0.2687 H   0  0  0  0  0  0  0  0  0  0  0  0
   -4.4578   -2.0602   -0.5520 H   0  0  0  0  0  0  0  0  0  0  0  0
   -0.1435   -1.5451   -1.0862 H   0  0  0  0  0  0  0  0  0  0  0  0
   -0.3548    0.8832   -0.2620 H   0  0  0  0  0  0  0  0  0  0  0  0
   -2.6059    2.1326    0.5123 N   0  0  0  0  0  0  0  0  0  0  0  0
   -3.7276    2.5117    0.8164 O   0  0  0  0  0  0  0  0  0  0  0  0
   -1.5637    2.7698    0.5524 O   0  0  0  0  0  0  0  0  0  0  0  0
    4.4132    5.0985    0.3873 N   0  0  0  0  0  0  0  0  0  0  0  0
    5.0714    5.9699    0.5576 N   0  0  0  0  0  0  0  0  0  0  0  0
  1  6  1  0  0  0  0
  1  7  1  0  0  0  0
  2  1  2  0  0  0  0
  3  2  1  0  0  0  0
  4  3  2  0  0  0  0
  4  5  1  0  0  0  0
  5 10  1  0  0  0  0
  5  6  2  0  0  0  0
  6 11  1  0  0  0  0
  8  2  1  0  0  0  0
  9  4  1  0  0  0  0
 11 13  2  0  0  0  0
 11 12  2  0  0  0  0
 14 15  3  0  0  0  0
M  RAD  1   3   2
M  END
