Coordinates from ORCA-job 4-NO2-Ph-N2+-B3LYPG-6-31G_dp-MTMO-d009-169-n800
 OpenBabel09051908243D

 15 14  0  0  0  0  0  0  0  0999 V2000
   -2.2560   -0.2106   -0.6153 C   0  0  0  0  0  0  0  0  0  0  0  0
   -0.8360   -0.2554   -0.7411 C   0  0  0  0  0  0  0  0  0  0  0  0
   -0.4289    0.8664   -0.1530 C   0  0  0  0  0  0  0  0  0  0  0  0
   -0.7478    1.9883    0.4872 C   0  0  0  0  0  0  0  0  0  0  0  0
   -2.1712    1.9441    0.5645 C   0  0  0  0  0  0  0  0  0  0  0  0
   -2.8727    0.8669    0.0217 C   0  0  0  0  0  0  0  0  0  0  0  0
   -2.8420   -1.0308   -1.0241 H   0  0  0  0  0  0  0  0  0  0  0  0
   -0.2741   -1.0511   -1.2172 H   0  0  0  0  0  0  0  0  0  0  0  0
   -0.1236    2.7835    0.8789 H   0  0  0  0  0  0  0  0  0  0  0  0
   -2.6931    2.7647    1.0519 H   0  0  0  0  0  0  0  0  0  0  0  0
   -4.3547    0.8668    0.1281 N   0  0  0  0  0  0  0  0  0  0  0  0
   -4.9298   -0.0954   -0.3594 O   0  0  0  0  0  0  0  0  0  0  0  0
   -4.8544    1.8288    0.6932 O   0  0  0  0  0  0  0  0  0  0  0  0
    2.9466    0.8677   -0.3803 N   0  0  0  0  0  0  0  0  0  0  0  0
    4.0490    0.8676   -0.4539 N   0  0  0  0  0  0  0  0  0  0  0  0
  1  6  1  0  0  0  0
  2  1  2  0  0  0  0
  2  3  1  0  0  0  0
  3  4  2  0  0  0  0
  4  5  1  0  0  0  0
  4  9  1  0  0  0  0
  5 10  1  0  0  0  0
  6 11  1  0  0  0  0
  6  5  2  0  0  0  0
  7  1  1  0  0  0  0
  8  2  1  0  0  0  0
 11 13  2  0  0  0  0
 12 11  2  0  0  0  0
 15 14  3  0  0  0  0
M  RAD  1   3   2
M  END
