Coordinates from ORCA-job 4-NO2-Ph-N2+-B3LYPG-6-31G_dp-MTMO-d009-169-n800
 OpenBabel09051908243D

 15 14  0  0  0  0  0  0  0  0999 V2000
   -2.7734   -0.2608   -0.6083 C   0  0  0  0  0  0  0  0  0  0  0  0
   -1.3648   -0.4118   -0.7814 C   0  0  0  0  0  0  0  0  0  0  0  0
   -0.8610    0.6792   -0.2114 C   0  0  0  0  0  0  0  0  0  0  0  0
   -1.0701    1.8231    0.4340 C   0  0  0  0  0  0  0  0  0  0  0  0
   -2.4905    1.8840    0.5579 C   0  0  0  0  0  0  0  0  0  0  0  0
   -3.2875    0.8607    0.0436 C   0  0  0  0  0  0  0  0  0  0  0  0
   -3.4307   -1.0370   -0.9946 H   0  0  0  0  0  0  0  0  0  0  0  0
   -0.8813   -1.2489   -1.2730 H   0  0  0  0  0  0  0  0  0  0  0  0
   -0.3774    2.5718    0.8027 H   0  0  0  0  0  0  0  0  0  0  0  0
   -2.9324    2.7429    1.0590 H   0  0  0  0  0  0  0  0  0  0  0  0
   -4.7612    0.9704    0.1987 N   0  0  0  0  0  0  0  0  0  0  0  0
   -5.4209    0.0520   -0.2653 O   0  0  0  0  0  0  0  0  0  0  0  0
   -5.1686    1.9682    0.7753 O   0  0  0  0  0  0  0  0  0  0  0  0
    5.6639    1.1794   -0.4085 N   0  0  0  0  0  0  0  0  0  0  0  0
    6.7674    1.2284   -0.4475 N   0  0  0  0  0  0  0  0  0  0  0  0
  1  6  1  0  0  0  0
  2  1  2  0  0  0  0
  2  3  1  0  0  0  0
  3  4  2  0  0  0  0
  4  5  1  0  0  0  0
  4  9  1  0  0  0  0
  5 10  1  0  0  0  0
  6 11  1  0  0  0  0
  6  5  2  0  0  0  0
  7  1  1  0  0  0  0
  8  2  1  0  0  0  0
 11 13  2  0  0  0  0
 12 11  2  0  0  0  0
 15 14  3  0  0  0  0
M  RAD  1   3   2
M  END
