Coordinates from ORCA-job 4-NO2-Ph-N2+-B3LYPG-6-31G_dp-MTMO-d009-169-n800
 OpenBabel09051908243D

 15 14  0  0  0  0  0  0  0  0999 V2000
   -4.3536   -0.5372   -0.0338 C   0  0  0  0  0  0  0  0  0  0  0  0
   -4.4264   -1.9057   -0.4322 C   0  0  0  0  0  0  0  0  0  0  0  0
   -3.1758   -2.1973   -0.7785 C   0  0  0  0  0  0  0  0  0  0  0  0
   -1.9142   -1.8004   -0.9187 C   0  0  0  0  0  0  0  0  0  0  0  0
   -1.9431   -0.4361   -0.5015 C   0  0  0  0  0  0  0  0  0  0  0  0
   -3.1382    0.1468   -0.0787 C   0  0  0  0  0  0  0  0  0  0  0  0
   -5.2636   -0.0452    0.3030 H   0  0  0  0  0  0  0  0  0  0  0  0
   -5.3269   -2.5100   -0.4298 H   0  0  0  0  0  0  0  0  0  0  0  0
   -1.0324   -2.3317   -1.2596 H   0  0  0  0  0  0  0  0  0  0  0  0
   -1.0157    0.1329   -0.5200 H   0  0  0  0  0  0  0  0  0  0  0  0
   -3.1153    1.5706    0.3456 N   0  0  0  0  0  0  0  0  0  0  0  0
   -4.1821    2.0394    0.7144 O   0  0  0  0  0  0  0  0  0  0  0  0
   -2.0316    2.1327    0.2838 O   0  0  0  0  0  0  0  0  0  0  0  0
    8.9767    8.9117    0.9890 N   0  0  0  0  0  0  0  0  0  0  0  0
    9.5536    9.8310    1.1982 N   0  0  0  0  0  0  0  0  0  0  0  0
  1  7  1  0  0  0  0
  2  8  1  0  0  0  0
  2  1  2  0  0  0  0
  3  2  1  0  0  0  0
  4  3  2  0  0  0  0
  4  5  1  0  0  0  0
  5  6  2  0  0  0  0
  6  1  1  0  0  0  0
  6 11  1  0  0  0  0
  9  4  1  0  0  0  0
 10  5  1  0  0  0  0
 11 12  2  0  0  0  0
 13 11  2  0  0  0  0
 14 15  3  0  0  0  0
M  RAD  1   3   2
M  END
