Coordinates from ORCA-job 4-NO2-Ph-N2+-B3LYPG-6-31G_dp-MTMO-d009-169-n800
 OpenBabel09051908243D

 15 14  0  0  0  0  0  0  0  0999 V2000
   -4.3093   -0.5031   -0.0329 C   0  0  0  0  0  0  0  0  0  0  0  0
   -4.3785   -1.8709   -0.4345 C   0  0  0  0  0  0  0  0  0  0  0  0
   -3.1262   -2.1599   -0.7767 C   0  0  0  0  0  0  0  0  0  0  0  0
   -1.8646   -1.7606   -0.9112 C   0  0  0  0  0  0  0  0  0  0  0  0
   -1.8972   -0.3973   -0.4911 C   0  0  0  0  0  0  0  0  0  0  0  0
   -3.0949    0.1828   -0.0717 C   0  0  0  0  0  0  0  0  0  0  0  0
   -5.2214   -0.0132    0.3014 H   0  0  0  0  0  0  0  0  0  0  0  0
   -5.2781   -2.4765   -0.4370 H   0  0  0  0  0  0  0  0  0  0  0  0
   -0.9807   -2.2898   -1.2497 H   0  0  0  0  0  0  0  0  0  0  0  0
   -0.9706    0.1731   -0.5048 H   0  0  0  0  0  0  0  0  0  0  0  0
   -3.0757    1.6058    0.3557 N   0  0  0  0  0  0  0  0  0  0  0  0
   -4.1447    2.0721    0.7215 O   0  0  0  0  0  0  0  0  0  0  0  0
   -1.9927    2.1697    0.2993 O   0  0  0  0  0  0  0  0  0  0  0  0
    8.6794    8.6780    0.9531 N   0  0  0  0  0  0  0  0  0  0  0  0
    9.2665    9.5914    1.1596 N   0  0  0  0  0  0  0  0  0  0  0  0
  1  7  1  0  0  0  0
  2  1  2  0  0  0  0
  3  2  1  0  0  0  0
  4  3  2  0  0  0  0
  4  5  1  0  0  0  0
  5  6  2  0  0  0  0
  6  1  1  0  0  0  0
  6 11  1  0  0  0  0
  8  2  1  0  0  0  0
  9  4  1  0  0  0  0
 10  5  1  0  0  0  0
 11 12  2  0  0  0  0
 13 11  2  0  0  0  0
 14 15  3  0  0  0  0
M  RAD  1   3   2
M  END
