Coordinates from ORCA-job 4-NO2-Ph-N2+-B3LYPG-6-31G_dp-MTMO-d009-169-n800
 OpenBabel09051908243D

 15 14  0  0  0  0  0  0  0  0999 V2000
   -3.6832   -0.0534   -0.0227 C   0  0  0  0  0  0  0  0  0  0  0  0
   -3.6426   -1.4079   -0.4701 C   0  0  0  0  0  0  0  0  0  0  0  0
   -2.3570   -1.6078   -0.7460 C   0  0  0  0  0  0  0  0  0  0  0  0
   -1.1176   -1.1276   -0.7931 C   0  0  0  0  0  0  0  0  0  0  0  0
   -1.2603    0.2158   -0.3331 C   0  0  0  0  0  0  0  0  0  0  0  0
   -2.5143    0.7064    0.0325 C   0  0  0  0  0  0  0  0  0  0  0  0
   -4.6421    0.3681    0.2715 H   0  0  0  0  0  0  0  0  0  0  0  0
   -4.5006   -2.0670   -0.5455 H   0  0  0  0  0  0  0  0  0  0  0  0
   -0.1840   -1.5890   -1.0953 H   0  0  0  0  0  0  0  0  0  0  0  0
   -0.3723    0.8420   -0.2745 H   0  0  0  0  0  0  0  0  0  0  0  0
   -2.6100    2.1118    0.5055 N   0  0  0  0  0  0  0  0  0  0  0  0
   -3.7275    2.5011    0.8118 O   0  0  0  0  0  0  0  0  0  0  0  0
   -1.5621    2.7399    0.5421 O   0  0  0  0  0  0  0  0  0  0  0  0
    4.5656    5.2474    0.4131 N   0  0  0  0  0  0  0  0  0  0  0  0
    5.2195    6.1216    0.5849 N   0  0  0  0  0  0  0  0  0  0  0  0
  1  6  1  0  0  0  0
  1  7  1  0  0  0  0
  2  1  2  0  0  0  0
  3  2  1  0  0  0  0
  4  3  2  0  0  0  0
  4  5  1  0  0  0  0
  5 10  1  0  0  0  0
  5  6  2  0  0  0  0
  6 11  1  0  0  0  0
  8  2  1  0  0  0  0
  9  4  1  0  0  0  0
 11 13  2  0  0  0  0
 11 12  2  0  0  0  0
 14 15  3  0  0  0  0
M  RAD  1   3   2
M  END
