Coordinates from ORCA-job 4-NO2-Ph-N2+-B3LYPG-6-31G_dp-MTMO-d009-169-n800
 OpenBabel09051908243D

 15 14  0  0  0  0  0  0  0  0999 V2000
   -4.0537   -0.3046   -0.0245 C   0  0  0  0  0  0  0  0  0  0  0  0
   -4.1059   -1.6683   -0.4420 C   0  0  0  0  0  0  0  0  0  0  0  0
   -2.8455   -1.9455   -0.7636 C   0  0  0  0  0  0  0  0  0  0  0  0
   -1.5843   -1.5365   -0.8701 C   0  0  0  0  0  0  0  0  0  0  0  0
   -1.6342   -0.1780   -0.4360 C   0  0  0  0  0  0  0  0  0  0  0  0
   -2.8434    0.3896   -0.0330 C   0  0  0  0  0  0  0  0  0  0  0  0
   -4.9753    0.1755    0.2978 H   0  0  0  0  0  0  0  0  0  0  0  0
   -5.0012   -2.2800   -0.4680 H   0  0  0  0  0  0  0  0  0  0  0  0
   -0.6905   -2.0558   -1.1978 H   0  0  0  0  0  0  0  0  0  0  0  0
   -0.7114    0.3986   -0.4263 H   0  0  0  0  0  0  0  0  0  0  0  0
   -2.8421    1.8078    0.4103 N   0  0  0  0  0  0  0  0  0  0  0  0
   -3.9213    2.2636    0.7589 O   0  0  0  0  0  0  0  0  0  0  0  0
   -1.7617    2.3790    0.3827 O   0  0  0  0  0  0  0  0  0  0  0  0
    6.9728    7.3368    0.7493 N   0  0  0  0  0  0  0  0  0  0  0  0
    7.6093    8.2192    0.9433 N   0  0  0  0  0  0  0  0  0  0  0  0
  1  7  1  0  0  0  0
  2  1  2  0  0  0  0
  3  2  1  0  0  0  0
  4  3  2  0  0  0  0
  4  5  1  0  0  0  0
  5 10  1  0  0  0  0
  5  6  2  0  0  0  0
  6  1  1  0  0  0  0
  6 11  1  0  0  0  0
  8  2  1  0  0  0  0
  9  4  1  0  0  0  0
 11 12  2  0  0  0  0
 13 11  2  0  0  0  0
 14 15  3  0  0  0  0
M  RAD  1   3   2
M  END
