Coordinates from ORCA-job 4-NO2-Ph-N2+-B3LYPG-6-31G_dp-MTMO-d009-169-n800
 OpenBabel09051908243D

 15 14  0  0  0  0  0  0  0  0999 V2000
   -2.2185   -0.2103   -0.6176 C   0  0  0  0  0  0  0  0  0  0  0  0
   -0.7993   -0.2541   -0.7426 C   0  0  0  0  0  0  0  0  0  0  0  0
   -0.3877    0.8674   -0.1550 C   0  0  0  0  0  0  0  0  0  0  0  0
   -0.7122    1.9886    0.4852 C   0  0  0  0  0  0  0  0  0  0  0  0
   -2.1349    1.9444    0.5622 C   0  0  0  0  0  0  0  0  0  0  0  0
   -2.8358    0.8670    0.0192 C   0  0  0  0  0  0  0  0  0  0  0  0
   -2.8047   -1.0302   -1.0264 H   0  0  0  0  0  0  0  0  0  0  0  0
   -0.2375   -1.0496   -1.2186 H   0  0  0  0  0  0  0  0  0  0  0  0
   -0.0890    2.7841    0.8773 H   0  0  0  0  0  0  0  0  0  0  0  0
   -2.6579    2.7644    1.0493 H   0  0  0  0  0  0  0  0  0  0  0  0
   -4.3178    0.8664    0.1251 N   0  0  0  0  0  0  0  0  0  0  0  0
   -4.8928   -0.0959   -0.3625 O   0  0  0  0  0  0  0  0  0  0  0  0
   -4.8184    1.8281    0.6899 O   0  0  0  0  0  0  0  0  0  0  0  0
    2.7079    0.8660   -0.3654 N   0  0  0  0  0  0  0  0  0  0  0  0
    3.8102    0.8653   -0.4391 N   0  0  0  0  0  0  0  0  0  0  0  0
  1  6  1  0  0  0  0
  2  1  2  0  0  0  0
  2  3  1  0  0  0  0
  3  4  2  0  0  0  0
  4  5  1  0  0  0  0
  4  9  1  0  0  0  0
  5 10  1  0  0  0  0
  6 11  1  0  0  0  0
  6  5  2  0  0  0  0
  7  1  1  0  0  0  0
  8  2  1  0  0  0  0
 11 13  2  0  0  0  0
 12 11  2  0  0  0  0
 15 14  3  0  0  0  0
M  RAD  1   3   2
M  END
