Coordinates from ORCA-job 4-NO2-Ph-N2+-B3LYPG-6-31G_dp-MTMO-d009-169-n800
 OpenBabel09051908243D

 15 14  0  0  0  0  0  0  0  0999 V2000
   -3.9278   -0.2119   -0.0235 C   0  0  0  0  0  0  0  0  0  0  0  0
   -3.9619   -1.5730   -0.4512 C   0  0  0  0  0  0  0  0  0  0  0  0
   -2.6949   -1.8360   -0.7587 C   0  0  0  0  0  0  0  0  0  0  0  0
   -1.4365   -1.4143   -0.8464 C   0  0  0  0  0  0  0  0  0  0  0  0
   -1.5046   -0.0595   -0.4034 C   0  0  0  0  0  0  0  0  0  0  0  0
   -2.7241    0.4937   -0.0118 C   0  0  0  0  0  0  0  0  0  0  0  0
   -4.8578    0.2573    0.2904 H   0  0  0  0  0  0  0  0  0  0  0  0
   -4.8510   -2.1927   -0.4929 H   0  0  0  0  0  0  0  0  0  0  0  0
   -0.5338   -1.9229   -1.1664 H   0  0  0  0  0  0  0  0  0  0  0  0
   -0.5875    0.5256   -0.3779 H   0  0  0  0  0  0  0  0  0  0  0  0
   -2.7420    1.9087    0.4415 N   0  0  0  0  0  0  0  0  0  0  0  0
   -3.8301    2.3520    0.7783 O   0  0  0  0  0  0  0  0  0  0  0  0
   -1.6667    2.4899    0.4331 O   0  0  0  0  0  0  0  0  0  0  0  0
    6.1425    6.6540    0.6394 N   0  0  0  0  0  0  0  0  0  0  0  0
    6.7877    7.5307    0.8306 N   0  0  0  0  0  0  0  0  0  0  0  0
  1  6  1  0  0  0  0
  1  7  1  0  0  0  0
  2  1  2  0  0  0  0
  3  2  1  0  0  0  0
  4  3  2  0  0  0  0
  4  5  1  0  0  0  0
  5 10  1  0  0  0  0
  5  6  2  0  0  0  0
  6 11  1  0  0  0  0
  8  2  1  0  0  0  0
  9  4  1  0  0  0  0
 11 12  2  0  0  0  0
 13 11  2  0  0  0  0
 14 15  3  0  0  0  0
M  RAD  1   3   2
M  END
