Coordinates from ORCA-job 4-NO2-Ph-N2+-B3LYPG-6-31G_dp-MTMO-d009-169-n800
 OpenBabel09051908243D

 15 14  0  0  0  0  0  0  0  0999 V2000
   -3.8150   -0.1319   -0.0229 C   0  0  0  0  0  0  0  0  0  0  0  0
   -3.8268   -1.4905   -0.4599 C   0  0  0  0  0  0  0  0  0  0  0  0
   -2.5531   -1.7354   -0.7539 C   0  0  0  0  0  0  0  0  0  0  0  0
   -1.2992   -1.2974   -0.8239 C   0  0  0  0  0  0  0  0  0  0  0  0
   -1.3896    0.0535   -0.3729 C   0  0  0  0  0  0  0  0  0  0  0  0
   -2.6206    0.5887    0.0079 C   0  0  0  0  0  0  0  0  0  0  0  0
   -4.7546    0.3235    0.2828 H   0  0  0  0  0  0  0  0  0  0  0  0
   -4.7075   -2.1208   -0.5165 H   0  0  0  0  0  0  0  0  0  0  0  0
   -0.3864   -1.7924   -1.1363 H   0  0  0  0  0  0  0  0  0  0  0  0
   -0.4803    0.6498   -0.3325 H   0  0  0  0  0  0  0  0  0  0  0  0
   -2.6618    2.0002    0.4703 N   0  0  0  0  0  0  0  0  0  0  0  0
   -3.7596    2.4276    0.7961 O   0  0  0  0  0  0  0  0  0  0  0  0
   -1.5939    2.5949    0.4795 O   0  0  0  0  0  0  0  0  0  0  0  0
    5.4046    6.0288    0.5392 N   0  0  0  0  0  0  0  0  0  0  0  0
    6.0554    6.9027    0.7241 N   0  0  0  0  0  0  0  0  0  0  0  0
  1  6  1  0  0  0  0
  1  7  1  0  0  0  0
  2  1  2  0  0  0  0
  3  2  1  0  0  0  0
  4  3  2  0  0  0  0
  4  5  1  0  0  0  0
  5 10  1  0  0  0  0
  5  6  2  0  0  0  0
  6 11  1  0  0  0  0
  8  2  1  0  0  0  0
  9  4  1  0  0  0  0
 11 13  2  0  0  0  0
 11 12  2  0  0  0  0
 14 15  3  0  0  0  0
M  RAD  1   3   2
M  END
