Coordinates from ORCA-job 4-NO2-Ph-N2+-B3LYPG-6-31G_dp-MTMO-d009-169-n800
 OpenBabel09051908243D

 15 14  0  0  0  0  0  0  0  0999 V2000
   -3.8816   -0.1771   -0.0226 C   0  0  0  0  0  0  0  0  0  0  0  0
   -3.9100   -1.5372   -0.4535 C   0  0  0  0  0  0  0  0  0  0  0  0
   -2.6411   -1.7963   -0.7566 C   0  0  0  0  0  0  0  0  0  0  0  0
   -1.3835   -1.3710   -0.8383 C   0  0  0  0  0  0  0  0  0  0  0  0
   -1.4573   -0.0174   -0.3923 C   0  0  0  0  0  0  0  0  0  0  0  0
   -2.6798    0.5317   -0.0043 C   0  0  0  0  0  0  0  0  0  0  0  0
   -4.8141    0.2889    0.2886 H   0  0  0  0  0  0  0  0  0  0  0  0
   -4.7970   -2.1595   -0.5005 H   0  0  0  0  0  0  0  0  0  0  0  0
   -0.4778   -1.8759   -1.1557 H   0  0  0  0  0  0  0  0  0  0  0  0
   -0.5418    0.5701   -0.3617 H   0  0  0  0  0  0  0  0  0  0  0  0
   -2.7032    1.9455    0.4522 N   0  0  0  0  0  0  0  0  0  0  0  0
   -3.7940    2.3852    0.7854 O   0  0  0  0  0  0  0  0  0  0  0  0
   -1.6295    2.5296    0.4496 O   0  0  0  0  0  0  0  0  0  0  0  0
    5.8379    6.4045    0.5999 N   0  0  0  0  0  0  0  0  0  0  0  0
    6.4844    7.2804    0.7908 N   0  0  0  0  0  0  0  0  0  0  0  0
  1  6  1  0  0  0  0
  1  7  1  0  0  0  0
  2  1  2  0  0  0  0
  3  2  1  0  0  0  0
  4  3  2  0  0  0  0
  4  5  1  0  0  0  0
  5 10  1  0  0  0  0
  5  6  2  0  0  0  0
  6 11  1  0  0  0  0
  8  2  1  0  0  0  0
  9  4  1  0  0  0  0
 11 12  2  0  0  0  0
 13 11  2  0  0  0  0
 14 15  3  0  0  0  0
M  RAD  1   3   2
M  END
