Coordinates from ORCA-job 4-NO2-Ph-N2+-B3LYPG-6-31G_dp-MTMO-d009-169-n800
 OpenBabel09051908243D

 15 14  0  0  0  0  0  0  0  0999 V2000
   -2.5192   -0.2273   -0.6092 C   0  0  0  0  0  0  0  0  0  0  0  0
   -1.1018   -0.3024   -0.7578 C   0  0  0  0  0  0  0  0  0  0  0  0
   -0.6666    0.8121   -0.1770 C   0  0  0  0  0  0  0  0  0  0  0  0
   -0.9476    1.9414    0.4668 C   0  0  0  0  0  0  0  0  0  0  0  0
   -2.3711    1.9261    0.5662 C   0  0  0  0  0  0  0  0  0  0  0  0
   -3.1034    0.8632    0.0360 C   0  0  0  0  0  0  0  0  0  0  0  0
   -3.1273   -1.0364   -1.0082 H   0  0  0  0  0  0  0  0  0  0  0  0
   -0.5655   -1.1112   -1.2420 H   0  0  0  0  0  0  0  0  0  0  0  0
   -0.3020    2.7249    0.8483 H   0  0  0  0  0  0  0  0  0  0  0  0
   -2.8669    2.7587    1.0610 H   0  0  0  0  0  0  0  0  0  0  0  0
   -4.5833    0.8939    0.1660 N   0  0  0  0  0  0  0  0  0  0  0  0
   -5.1853   -0.0570   -0.3110 O   0  0  0  0  0  0  0  0  0  0  0  0
   -5.0533    1.8668    0.7376 O   0  0  0  0  0  0  0  0  0  0  0  0
    4.4506    0.9662   -0.4202 N   0  0  0  0  0  0  0  0  0  0  0  0
    5.5543    0.9824   -0.4753 N   0  0  0  0  0  0  0  0  0  0  0  0
  1  6  1  0  0  0  0
  2  1  2  0  0  0  0
  2  3  1  0  0  0  0
  3  4  2  0  0  0  0
  4  5  1  0  0  0  0
  4  9  1  0  0  0  0
  5 10  1  0  0  0  0
  6 11  1  0  0  0  0
  6  5  2  0  0  0  0
  7  1  1  0  0  0  0
  8  2  1  0  0  0  0
 11 13  2  0  0  0  0
 12 11  2  0  0  0  0
 15 14  3  0  0  0  0
M  RAD  1   3   2
M  END
