Coordinates from ORCA-job 4-NO2-Ph-N2+-B3LYPG-6-31G_dp-MTMO-d009-169-n800
 OpenBabel09051908243D

 15 14  0  0  0  0  0  0  0  0999 V2000
   -3.9690   -0.2438   -0.0247 C   0  0  0  0  0  0  0  0  0  0  0  0
   -4.0050   -1.6056   -0.4497 C   0  0  0  0  0  0  0  0  0  0  0  0
   -2.7392   -1.8703   -0.7607 C   0  0  0  0  0  0  0  0  0  0  0  0
   -1.4808   -1.4497   -0.8530 C   0  0  0  0  0  0  0  0  0  0  0  0
   -1.5468   -0.0940   -0.4123 C   0  0  0  0  0  0  0  0  0  0  0  0
   -2.7647    0.4609   -0.0179 C   0  0  0  0  0  0  0  0  0  0  0  0
   -4.8977    0.2267    0.2912 H   0  0  0  0  0  0  0  0  0  0  0  0
   -4.8945   -2.2250   -0.4877 H   0  0  0  0  0  0  0  0  0  0  0  0
   -0.5791   -1.9590   -1.1747 H   0  0  0  0  0  0  0  0  0  0  0  0
   -0.6292    0.4905   -0.3906 H   0  0  0  0  0  0  0  0  0  0  0  0
   -2.7800    1.8767    0.4328 N   0  0  0  0  0  0  0  0  0  0  0  0
   -3.8667    2.3215    0.7723 O   0  0  0  0  0  0  0  0  0  0  0  0
   -1.7043    2.4572    0.4197 O   0  0  0  0  0  0  0  0  0  0  0  0
    6.4121    6.8690    0.6726 N   0  0  0  0  0  0  0  0  0  0  0  0
    7.0563    7.7464    0.8638 N   0  0  0  0  0  0  0  0  0  0  0  0
  1  6  1  0  0  0  0
  1  7  1  0  0  0  0
  2  1  2  0  0  0  0
  3  2  1  0  0  0  0
  4  3  2  0  0  0  0
  4  5  1  0  0  0  0
  5 10  1  0  0  0  0
  5  6  2  0  0  0  0
  6 11  1  0  0  0  0
  8  2  1  0  0  0  0
  9  4  1  0  0  0  0
 11 12  2  0  0  0  0
 13 11  2  0  0  0  0
 14 15  3  0  0  0  0
M  RAD  1   3   2
M  END
