Coordinates from ORCA-job 4-NO2-Ph-N2+-B3LYPG-6-31G_dp-MTMO-d009-169-n800
 OpenBabel09051908243D

 15 14  0  0  0  0  0  0  0  0999 V2000
   -4.0618   -0.3107   -0.0246 C   0  0  0  0  0  0  0  0  0  0  0  0
   -4.1149   -1.6745   -0.4415 C   0  0  0  0  0  0  0  0  0  0  0  0
   -2.8549   -1.9524   -0.7639 C   0  0  0  0  0  0  0  0  0  0  0  0
   -1.5936   -1.5440   -0.8716 C   0  0  0  0  0  0  0  0  0  0  0  0
   -1.6425   -0.1853   -0.4380 C   0  0  0  0  0  0  0  0  0  0  0  0
   -2.8511    0.3830   -0.0343 C   0  0  0  0  0  0  0  0  0  0  0  0
   -4.9828    0.1701    0.2982 H   0  0  0  0  0  0  0  0  0  0  0  0
   -5.0105   -2.2857   -0.4665 H   0  0  0  0  0  0  0  0  0  0  0  0
   -0.7002   -2.0639   -1.1997 H   0  0  0  0  0  0  0  0  0  0  0  0
   -0.7194    0.3909   -0.4292 H   0  0  0  0  0  0  0  0  0  0  0  0
   -2.8488    1.8014    0.4083 N   0  0  0  0  0  0  0  0  0  0  0  0
   -3.9275    2.2578    0.7576 O   0  0  0  0  0  0  0  0  0  0  0  0
   -1.7682    2.3721    0.3797 O   0  0  0  0  0  0  0  0  0  0  0  0
    7.0259    7.3800    0.7560 N   0  0  0  0  0  0  0  0  0  0  0  0
    7.6618    8.2629    0.9505 N   0  0  0  0  0  0  0  0  0  0  0  0
  1  7  1  0  0  0  0
  2  1  2  0  0  0  0
  3  2  1  0  0  0  0
  4  3  2  0  0  0  0
  4  5  1  0  0  0  0
  5 10  1  0  0  0  0
  5  6  2  0  0  0  0
  6  1  1  0  0  0  0
  6 11  1  0  0  0  0
  8  2  1  0  0  0  0
  9  4  1  0  0  0  0
 11 12  2  0  0  0  0
 13 11  2  0  0  0  0
 14 15  3  0  0  0  0
M  RAD  1   3   2
M  END
