Coordinates from ORCA-job 4-NO2-Ph-N2+-B3LYPG-6-31G_dp-MTMO-d009-169-n800
 OpenBabel09051908243D

 15 14  0  0  0  0  0  0  0  0999 V2000
   -4.0121   -0.2744   -0.0245 C   0  0  0  0  0  0  0  0  0  0  0  0
   -4.0573   -1.6373   -0.4456 C   0  0  0  0  0  0  0  0  0  0  0  0
   -2.7944   -1.9088   -0.7622 C   0  0  0  0  0  0  0  0  0  0  0  0
   -1.5343   -1.4948   -0.8619 C   0  0  0  0  0  0  0  0  0  0  0  0
   -1.5912   -0.1376   -0.4246 C   0  0  0  0  0  0  0  0  0  0  0  0
   -2.8044    0.4244   -0.0257 C   0  0  0  0  0  0  0  0  0  0  0  0
   -4.9369    0.2015    0.2947 H   0  0  0  0  0  0  0  0  0  0  0  0
   -4.9501   -2.2521   -0.4771 H   0  0  0  0  0  0  0  0  0  0  0  0
   -0.6371   -2.0099   -1.1870 H   0  0  0  0  0  0  0  0  0  0  0  0
   -0.6707    0.4424   -0.4093 H   0  0  0  0  0  0  0  0  0  0  0  0
   -2.8104    1.8415    0.4212 N   0  0  0  0  0  0  0  0  0  0  0  0
   -3.8932    2.2926    0.7649 O   0  0  0  0  0  0  0  0  0  0  0  0
   -1.7319    2.4164    0.4014 O   0  0  0  0  0  0  0  0  0  0  0  0
    6.6978    7.1086    0.7124 N   0  0  0  0  0  0  0  0  0  0  0  0
    7.3377    7.9890    0.9045 N   0  0  0  0  0  0  0  0  0  0  0  0
  1  7  1  0  0  0  0
  2  1  2  0  0  0  0
  3  2  1  0  0  0  0
  4  3  2  0  0  0  0
  4  5  1  0  0  0  0
  5 10  1  0  0  0  0
  5  6  2  0  0  0  0
  6  1  1  0  0  0  0
  6 11  1  0  0  0  0
  8  2  1  0  0  0  0
  9  4  1  0  0  0  0
 11 12  2  0  0  0  0
 13 11  2  0  0  0  0
 14 15  3  0  0  0  0
M  RAD  1   3   2
M  END
