Coordinates from ORCA-job 4-NO2-Ph-N2+-B3LYPG-6-31G_dp-MTMO-d009-169-n800
 OpenBabel09051908243D

 15 14  0  0  0  0  0  0  0  0999 V2000
   -3.8336   -0.1429   -0.0222 C   0  0  0  0  0  0  0  0  0  0  0  0
   -3.8538   -1.5021   -0.4569 C   0  0  0  0  0  0  0  0  0  0  0  0
   -2.5822   -1.7540   -0.7544 C   0  0  0  0  0  0  0  0  0  0  0  0
   -1.3263   -1.3225   -0.8289 C   0  0  0  0  0  0  0  0  0  0  0  0
   -1.4084    0.0295   -0.3798 C   0  0  0  0  0  0  0  0  0  0  0  0
   -2.6355    0.5717    0.0038 C   0  0  0  0  0  0  0  0  0  0  0  0
   -4.7699    0.3178    0.2857 H   0  0  0  0  0  0  0  0  0  0  0  0
   -4.7378   -2.1281   -0.5098 H   0  0  0  0  0  0  0  0  0  0  0  0
   -0.4170   -1.8227   -1.1434 H   0  0  0  0  0  0  0  0  0  0  0  0
   -0.4959    0.6213   -0.3432 H   0  0  0  0  0  0  0  0  0  0  0  0
   -2.6680    1.9841    0.4640 N   0  0  0  0  0  0  0  0  0  0  0  0
   -3.7626    2.4176    0.7928 O   0  0  0  0  0  0  0  0  0  0  0  0
   -1.5971    2.5733    0.4688 O   0  0  0  0  0  0  0  0  0  0  0  0
    5.5257    6.1417    0.5583 N   0  0  0  0  0  0  0  0  0  0  0  0
    6.1739    7.0169    0.7465 N   0  0  0  0  0  0  0  0  0  0  0  0
  1  6  1  0  0  0  0
  1  7  1  0  0  0  0
  2  1  2  0  0  0  0
  3  2  1  0  0  0  0
  4  3  2  0  0  0  0
  4  5  1  0  0  0  0
  5 10  1  0  0  0  0
  5  6  2  0  0  0  0
  6 11  1  0  0  0  0
  8  2  1  0  0  0  0
  9  4  1  0  0  0  0
 11 13  2  0  0  0  0
 11 12  2  0  0  0  0
 14 15  3  0  0  0  0
M  RAD  1   3   2
M  END
