Coordinates from ORCA-job 4-NO2-Ph-N2+-B3LYPG-6-31G_dp-MTMO-d009-169-n800
 OpenBabel09051908243D

 15 14  0  0  0  0  0  0  0  0999 V2000
   -4.0477   -0.3001   -0.0244 C   0  0  0  0  0  0  0  0  0  0  0  0
   -4.0992   -1.6637   -0.4424 C   0  0  0  0  0  0  0  0  0  0  0  0
   -2.8385   -1.9403   -0.7634 C   0  0  0  0  0  0  0  0  0  0  0  0
   -1.5774   -1.5308   -0.8690 C   0  0  0  0  0  0  0  0  0  0  0  0
   -1.6280   -0.1725   -0.4345 C   0  0  0  0  0  0  0  0  0  0  0  0
   -2.8376    0.3946   -0.0320 C   0  0  0  0  0  0  0  0  0  0  0  0
   -4.9696    0.1796    0.2975 H   0  0  0  0  0  0  0  0  0  0  0  0
   -4.9942   -2.2756   -0.4691 H   0  0  0  0  0  0  0  0  0  0  0  0
   -0.6832   -2.0496   -1.1963 H   0  0  0  0  0  0  0  0  0  0  0  0
   -0.7054    0.4045   -0.4240 H   0  0  0  0  0  0  0  0  0  0  0  0
   -2.8371    1.8126    0.4117 N   0  0  0  0  0  0  0  0  0  0  0  0
   -3.9167    2.2679    0.7598 O   0  0  0  0  0  0  0  0  0  0  0  0
   -1.7569    2.3842    0.3851 O   0  0  0  0  0  0  0  0  0  0  0  0
    6.9330    7.3043    0.7442 N   0  0  0  0  0  0  0  0  0  0  0  0
    7.5700    8.1865    0.9379 N   0  0  0  0  0  0  0  0  0  0  0  0
  1  7  1  0  0  0  0
  2  1  2  0  0  0  0
  3  2  1  0  0  0  0
  4  3  2  0  0  0  0
  4  5  1  0  0  0  0
  5 10  1  0  0  0  0
  5  6  2  0  0  0  0
  6  1  1  0  0  0  0
  6 11  1  0  0  0  0
  8  2  1  0  0  0  0
  9  4  1  0  0  0  0
 11 12  2  0  0  0  0
 13 11  2  0  0  0  0
 14 15  3  0  0  0  0
M  RAD  1   3   2
M  END
