Coordinates from ORCA-job 4-NO2-Ph-N2+-B3LYPG-6-31G_dp-MTMO-d009-169-n800
 OpenBabel09051908243D

 15 14  0  0  0  0  0  0  0  0999 V2000
   -2.3283   -0.2121   -0.6124 C   0  0  0  0  0  0  0  0  0  0  0  0
   -0.9083   -0.2594   -0.7423 C   0  0  0  0  0  0  0  0  0  0  0  0
   -0.5009    0.8622   -0.1550 C   0  0  0  0  0  0  0  0  0  0  0  0
   -0.8132    1.9850    0.4860 C   0  0  0  0  0  0  0  0  0  0  0  0
   -2.2371    1.9425    0.5671 C   0  0  0  0  0  0  0  0  0  0  0  0
   -2.9417    0.8663    0.0264 C   0  0  0  0  0  0  0  0  0  0  0  0
   -2.9160   -1.0320   -1.0197 H   0  0  0  0  0  0  0  0  0  0  0  0
   -0.3491   -1.0564   -1.2199 H   0  0  0  0  0  0  0  0  0  0  0  0
   -0.1869    2.7796    0.8761 H   0  0  0  0  0  0  0  0  0  0  0  0
   -2.7557    2.7644    1.0561 H   0  0  0  0  0  0  0  0  0  0  0  0
   -4.4234    0.8684    0.1370 N   0  0  0  0  0  0  0  0  0  0  0  0
   -5.0010   -0.0931   -0.3488 O   0  0  0  0  0  0  0  0  0  0  0  0
   -4.9198    1.8312    0.7035 O   0  0  0  0  0  0  0  0  0  0  0  0
    3.3950    0.8769   -0.4019 N   0  0  0  0  0  0  0  0  0  0  0  0
    4.4979    0.8781   -0.4711 N   0  0  0  0  0  0  0  0  0  0  0  0
  1  6  1  0  0  0  0
  2  1  2  0  0  0  0
  2  3  1  0  0  0  0
  3  4  2  0  0  0  0
  4  5  1  0  0  0  0
  4  9  1  0  0  0  0
  5 10  1  0  0  0  0
  6 11  1  0  0  0  0
  6  5  2  0  0  0  0
  7  1  1  0  0  0  0
  8  2  1  0  0  0  0
 11 13  2  0  0  0  0
 12 11  2  0  0  0  0
 15 14  3  0  0  0  0
M  RAD  1   3   2
M  END
