Coordinates from ORCA-job 4-NO2-Ph-N2+-B3LYPG-6-31G_dp-MTMO-d009-169-n800
 OpenBabel09051908243D

 15 14  0  0  0  0  0  0  0  0999 V2000
   -4.1099   -0.3467   -0.0252 C   0  0  0  0  0  0  0  0  0  0  0  0
   -4.1688   -1.7115   -0.4384 C   0  0  0  0  0  0  0  0  0  0  0  0
   -2.9110   -1.9938   -0.7659 C   0  0  0  0  0  0  0  0  0  0  0  0
   -1.6491   -1.5894   -0.8803 C   0  0  0  0  0  0  0  0  0  0  0  0
   -1.6921   -0.2295   -0.4499 C   0  0  0  0  0  0  0  0  0  0  0  0
   -2.8973    0.3434   -0.0422 C   0  0  0  0  0  0  0  0  0  0  0  0
   -5.0281    0.1374    0.3005 H   0  0  0  0  0  0  0  0  0  0  0  0
   -5.0662   -2.3203   -0.4578 H   0  0  0  0  0  0  0  0  0  0  0  0
   -0.7587   -2.1126   -1.2111 H   0  0  0  0  0  0  0  0  0  0  0  0
   -0.7674    0.3442   -0.4469 H   0  0  0  0  0  0  0  0  0  0  0  0
   -2.8888    1.7629    0.3967 N   0  0  0  0  0  0  0  0  0  0  0  0
   -3.9646    2.2233    0.7498 O   0  0  0  0  0  0  0  0  0  0  0  0
   -1.8067    2.3304    0.3616 O   0  0  0  0  0  0  0  0  0  0  0  0
    7.3446    7.6389    0.7968 N   0  0  0  0  0  0  0  0  0  0  0  0
    7.9757    8.5247    0.9934 N   0  0  0  0  0  0  0  0  0  0  0  0
  1  7  1  0  0  0  0
  2  1  2  0  0  0  0
  3  2  1  0  0  0  0
  4  3  2  0  0  0  0
  4  5  1  0  0  0  0
  5 10  1  0  0  0  0
  5  6  2  0  0  0  0
  6  1  1  0  0  0  0
  6 11  1  0  0  0  0
  8  2  1  0  0  0  0
  9  4  1  0  0  0  0
 11 12  2  0  0  0  0
 13 11  2  0  0  0  0
 14 15  3  0  0  0  0
M  RAD  1   3   2
M  END
