Coordinates from ORCA-job 4-NO2-Ph-N2+-B3LYPG-6-31G_dp-MTMO-d009-169-n800
 OpenBabel09051908243D

 15 14  0  0  0  0  0  0  0  0999 V2000
   -4.1997   -0.4175   -0.0293 C   0  0  0  0  0  0  0  0  0  0  0  0
   -4.2626   -1.7836   -0.4378 C   0  0  0  0  0  0  0  0  0  0  0  0
   -3.0070   -2.0682   -0.7712 C   0  0  0  0  0  0  0  0  0  0  0  0
   -1.7453   -1.6656   -0.8937 C   0  0  0  0  0  0  0  0  0  0  0  0
   -1.7842   -0.3044   -0.4676 C   0  0  0  0  0  0  0  0  0  0  0  0
   -2.9865    0.2712   -0.0552 C   0  0  0  0  0  0  0  0  0  0  0  0
   -5.1156    0.0688    0.2998 H   0  0  0  0  0  0  0  0  0  0  0  0
   -5.1609   -2.3912   -0.4503 H   0  0  0  0  0  0  0  0  0  0  0  0
   -0.8575   -2.1913   -1.2277 H   0  0  0  0  0  0  0  0  0  0  0  0
   -0.8588    0.2682   -0.4712 H   0  0  0  0  0  0  0  0  0  0  0  0
   -2.9740    1.6922    0.3790 N   0  0  0  0  0  0  0  0  0  0  0  0
   -4.0470    2.1547    0.7378 O   0  0  0  0  0  0  0  0  0  0  0  0
   -1.8917    2.2585    0.3347 O   0  0  0  0  0  0  0  0  0  0  0  0
    7.9440    8.1065    0.8667 N   0  0  0  0  0  0  0  0  0  0  0  0
    8.5583    9.0032    1.0670 N   0  0  0  0  0  0  0  0  0  0  0  0
  1  7  1  0  0  0  0
  2  1  2  0  0  0  0
  3  2  1  0  0  0  0
  4  3  2  0  0  0  0
  4  5  1  0  0  0  0
  5  6  2  0  0  0  0
  6  1  1  0  0  0  0
  6 11  1  0  0  0  0
  8  2  1  0  0  0  0
  9  4  1  0  0  0  0
 10  5  1  0  0  0  0
 11 12  2  0  0  0  0
 13 11  2  0  0  0  0
 14 15  3  0  0  0  0
M  RAD  1   3   2
M  END
