Coordinates from ORCA-job 4-NO2-Ph-N2+-B3LYPG-6-31G_dp-MTMO-d009-169-n800
 OpenBabel09051908243D

 15 14  0  0  0  0  0  0  0  0999 V2000
   -2.8556   -0.2738   -0.6056 C   0  0  0  0  0  0  0  0  0  0  0  0
   -1.4505   -0.4656   -0.7656 C   0  0  0  0  0  0  0  0  0  0  0  0
   -0.9205    0.6106   -0.1915 C   0  0  0  0  0  0  0  0  0  0  0  0
   -1.1022    1.7604    0.4516 C   0  0  0  0  0  0  0  0  0  0  0  0
   -2.5214    1.8627    0.5624 C   0  0  0  0  0  0  0  0  0  0  0  0
   -3.3429    0.8626    0.0410 C   0  0  0  0  0  0  0  0  0  0  0  0
   -3.5316   -1.0307   -0.9976 H   0  0  0  0  0  0  0  0  0  0  0  0
   -0.9870   -1.3166   -1.2528 H   0  0  0  0  0  0  0  0  0  0  0  0
   -0.3916    2.4890    0.8265 H   0  0  0  0  0  0  0  0  0  0  0  0
   -2.9427    2.7342    1.0592 H   0  0  0  0  0  0  0  0  0  0  0  0
   -4.8142    1.0154    0.1820 N   0  0  0  0  0  0  0  0  0  0  0  0
   -5.4960    0.1168   -0.2887 O   0  0  0  0  0  0  0  0  0  0  0  0
   -5.1977    2.0248    0.7549 O   0  0  0  0  0  0  0  0  0  0  0  0
    6.0314    1.2763   -0.4258 N   0  0  0  0  0  0  0  0  0  0  0  0
    7.1342    1.3353   -0.4690 N   0  0  0  0  0  0  0  0  0  0  0  0
  1  6  1  0  0  0  0
  2  1  2  0  0  0  0
  2  3  1  0  0  0  0
  3  4  2  0  0  0  0
  4  5  1  0  0  0  0
  4  9  1  0  0  0  0
  5 10  1  0  0  0  0
  6 11  1  0  0  0  0
  6  5  2  0  0  0  0
  7  1  1  0  0  0  0
  8  2  1  0  0  0  0
 11 13  2  0  0  0  0
 12 11  2  0  0  0  0
 15 14  3  0  0  0  0
M  RAD  1   3   2
M  END
