Coordinates from ORCA-job 4-NO2-Ph-N2+-B3LYPG-6-31G_dp-MTMO-d009-169-n800
 OpenBabel09051908243D

 15 14  0  0  0  0  0  0  0  0999 V2000
   -4.2201   -0.4336   -0.0302 C   0  0  0  0  0  0  0  0  0  0  0  0
   -4.2838   -1.8000   -0.4376 C   0  0  0  0  0  0  0  0  0  0  0  0
   -3.0287   -2.0851   -0.7724 C   0  0  0  0  0  0  0  0  0  0  0  0
   -1.7670   -1.6828   -0.8968 C   0  0  0  0  0  0  0  0  0  0  0  0
   -1.8052   -0.3213   -0.4716 C   0  0  0  0  0  0  0  0  0  0  0  0
   -3.0069    0.2548   -0.0581 C   0  0  0  0  0  0  0  0  0  0  0  0
   -5.1355    0.0531    0.2998 H   0  0  0  0  0  0  0  0  0  0  0  0
   -5.1822   -2.4074   -0.4485 H   0  0  0  0  0  0  0  0  0  0  0  0
   -0.8798   -2.2089   -1.2314 H   0  0  0  0  0  0  0  0  0  0  0  0
   -0.8797    0.2511   -0.4768 H   0  0  0  0  0  0  0  0  0  0  0  0
   -2.9936    1.6761    0.3750 N   0  0  0  0  0  0  0  0  0  0  0  0
   -4.0660    2.1390    0.7349 O   0  0  0  0  0  0  0  0  0  0  0  0
   -1.9112    2.2423    0.3286 O   0  0  0  0  0  0  0  0  0  0  0  0
    8.0808    8.2123    0.8824 N   0  0  0  0  0  0  0  0  0  0  0  0
    8.6903    9.1120    1.0838 N   0  0  0  0  0  0  0  0  0  0  0  0
  1  7  1  0  0  0  0
  2  1  2  0  0  0  0
  3  2  1  0  0  0  0
  4  3  2  0  0  0  0
  4  5  1  0  0  0  0
  5  6  2  0  0  0  0
  6  1  1  0  0  0  0
  6 11  1  0  0  0  0
  8  2  1  0  0  0  0
  9  4  1  0  0  0  0
 10  5  1  0  0  0  0
 11 12  2  0  0  0  0
 13 11  2  0  0  0  0
 14 15  3  0  0  0  0
M  RAD  1   3   2
M  END
