Coordinates from ORCA-job 4-NO2-Ph-N2+-B3LYPG-6-31G_dp-MTMO-d009-169-n800
 OpenBabel09051908243D

 15 14  0  0  0  0  0  0  0  0999 V2000
   -3.6346   -0.0280   -0.0230 C   0  0  0  0  0  0  0  0  0  0  0  0
   -3.5684   -1.3802   -0.4747 C   0  0  0  0  0  0  0  0  0  0  0  0
   -2.2778   -1.5574   -0.7425 C   0  0  0  0  0  0  0  0  0  0  0  0
   -1.0463   -1.0563   -0.7798 C   0  0  0  0  0  0  0  0  0  0  0  0
   -1.2145    0.2830   -0.3164 C   0  0  0  0  0  0  0  0  0  0  0  0
   -2.4790    0.7512    0.0423 C   0  0  0  0  0  0  0  0  0  0  0  0
   -4.6022    0.3765    0.2661 H   0  0  0  0  0  0  0  0  0  0  0  0
   -4.4148   -2.0531   -0.5583 H   0  0  0  0  0  0  0  0  0  0  0  0
   -0.1032   -1.5013   -1.0771 H   0  0  0  0  0  0  0  0  0  0  0  0
   -0.3375    0.9238   -0.2497 H   0  0  0  0  0  0  0  0  0  0  0  0
   -2.6015    2.1533    0.5189 N   0  0  0  0  0  0  0  0  0  0  0  0
   -3.7271    2.5221    0.8209 O   0  0  0  0  0  0  0  0  0  0  0  0
   -1.5649    2.7994    0.5622 O   0  0  0  0  0  0  0  0  0  0  0  0
    4.2600    4.9503    0.3617 N   0  0  0  0  0  0  0  0  0  0  0  0
    4.9233    5.8182    0.5304 N   0  0  0  0  0  0  0  0  0  0  0  0
  1  6  1  0  0  0  0
  1  7  1  0  0  0  0
  2  1  2  0  0  0  0
  3  2  1  0  0  0  0
  4  3  2  0  0  0  0
  4  5  1  0  0  0  0
  5 10  1  0  0  0  0
  5  6  2  0  0  0  0
  6 11  1  0  0  0  0
  8  2  1  0  0  0  0
  9  4  1  0  0  0  0
 11 13  2  0  0  0  0
 11 12  2  0  0  0  0
 14 15  3  0  0  0  0
M  RAD  1   3   2
M  END
