Coordinates from ORCA-job 4-NO2-Ph-N2+-B3LYPG-6-31G_dp-MTMO-d009-169-n800
 OpenBabel09051908243D

 15 14  0  0  0  0  0  0  0  0999 V2000
   -2.7401   -0.2558   -0.6090 C   0  0  0  0  0  0  0  0  0  0  0  0
   -1.3302   -0.3930   -0.7832 C   0  0  0  0  0  0  0  0  0  0  0  0
   -0.8365    0.7026   -0.2134 C   0  0  0  0  0  0  0  0  0  0  0  0
   -1.0563    1.8443    0.4325 C   0  0  0  0  0  0  0  0  0  0  0  0
   -2.4771    1.8914    0.5576 C   0  0  0  0  0  0  0  0  0  0  0  0
   -3.2645    0.8604    0.0437 C   0  0  0  0  0  0  0  0  0  0  0  0
   -3.3900   -1.0383   -0.9949 H   0  0  0  0  0  0  0  0  0  0  0  0
   -0.8390   -1.2252   -1.2754 H   0  0  0  0  0  0  0  0  0  0  0  0
   -0.3707    2.5997    0.8008 H   0  0  0  0  0  0  0  0  0  0  0  0
   -2.9269    2.7458    1.0593 H   0  0  0  0  0  0  0  0  0  0  0  0
   -4.7391    0.9557    0.2001 N   0  0  0  0  0  0  0  0  0  0  0  0
   -5.3902    0.0309   -0.2633 O   0  0  0  0  0  0  0  0  0  0  0  0
   -5.1557    1.9494    0.7773 O   0  0  0  0  0  0  0  0  0  0  0  0
    5.5121    1.1442   -0.4062 N   0  0  0  0  0  0  0  0  0  0  0  0
    6.6157    1.1896   -0.4448 N   0  0  0  0  0  0  0  0  0  0  0  0
  1  6  1  0  0  0  0
  2  1  2  0  0  0  0
  2  3  1  0  0  0  0
  3  4  2  0  0  0  0
  4  5  1  0  0  0  0
  4  9  1  0  0  0  0
  5 10  1  0  0  0  0
  6 11  1  0  0  0  0
  6  5  2  0  0  0  0
  7  1  1  0  0  0  0
  8  2  1  0  0  0  0
 11 13  2  0  0  0  0
 12 11  2  0  0  0  0
 15 14  3  0  0  0  0
M  RAD  1   3   2
M  END
