Coordinates from ORCA-job 4-NO2-Ph-N2+-B3LYPG-6-31G_dp-MTMO-d009-169-n800
 OpenBabel09051908243D

 15 14  0  0  0  0  0  0  0  0999 V2000
   -2.7475   -0.2570   -0.6089 C   0  0  0  0  0  0  0  0  0  0  0  0
   -1.3380   -0.3971   -0.7830 C   0  0  0  0  0  0  0  0  0  0  0  0
   -0.8419    0.6975   -0.2133 C   0  0  0  0  0  0  0  0  0  0  0  0
   -1.0593    1.8396    0.4325 C   0  0  0  0  0  0  0  0  0  0  0  0
   -2.4801    1.8898    0.5576 C   0  0  0  0  0  0  0  0  0  0  0  0
   -3.2696    0.8604    0.0437 C   0  0  0  0  0  0  0  0  0  0  0  0
   -3.3991   -1.0381   -0.9948 H   0  0  0  0  0  0  0  0  0  0  0  0
   -0.8485   -1.2304   -1.2751 H   0  0  0  0  0  0  0  0  0  0  0  0
   -0.3721    2.5935    0.8008 H   0  0  0  0  0  0  0  0  0  0  0  0
   -2.9280    2.7452    1.0592 H   0  0  0  0  0  0  0  0  0  0  0  0
   -4.7440    0.9589    0.2000 N   0  0  0  0  0  0  0  0  0  0  0  0
   -5.3971    0.0355   -0.2634 O   0  0  0  0  0  0  0  0  0  0  0  0
   -5.1586    1.9535    0.7771 O   0  0  0  0  0  0  0  0  0  0  0  0
    5.5459    1.1519   -0.4065 N   0  0  0  0  0  0  0  0  0  0  0  0
    6.6494    1.1983   -0.4450 N   0  0  0  0  0  0  0  0  0  0  0  0
  1  6  1  0  0  0  0
  2  1  2  0  0  0  0
  2  3  1  0  0  0  0
  3  4  2  0  0  0  0
  4  5  1  0  0  0  0
  4  9  1  0  0  0  0
  5 10  1  0  0  0  0
  6 11  1  0  0  0  0
  6  5  2  0  0  0  0
  7  1  1  0  0  0  0
  8  2  1  0  0  0  0
 11 13  2  0  0  0  0
 12 11  2  0  0  0  0
 15 14  3  0  0  0  0
M  RAD  1   3   2
M  END
