Coordinates from ORCA-job 4-NO2-Ph-N2+-B3LYPG-6-31G_dp-MTMO-d009-169-n800
 OpenBabel09051908243D

 15 14  0  0  0  0  0  0  0  0999 V2000
   -3.3791    0.1999    0.0051 C   0  0  0  0  0  0  0  0  0  0  0  0
   -3.4492   -1.1573   -0.4312 C   0  0  0  0  0  0  0  0  0  0  0  0
   -2.1874   -1.4555   -0.7273 C   0  0  0  0  0  0  0  0  0  0  0  0
   -0.9163   -1.0696   -0.7992 C   0  0  0  0  0  0  0  0  0  0  0  0
   -0.9484    0.2841   -0.3485 C   0  0  0  0  0  0  0  0  0  0  0  0
   -2.1556    0.8701    0.0339 C   0  0  0  0  0  0  0  0  0  0  0  0
   -4.2982    0.6942    0.3125 H   0  0  0  0  0  0  0  0  0  0  0  0
   -4.3557   -1.7501   -0.4851 H   0  0  0  0  0  0  0  0  0  0  0  0
   -0.0258   -1.6025   -1.1140 H   0  0  0  0  0  0  0  0  0  0  0  0
   -0.0150    0.8428   -0.3105 H   0  0  0  0  0  0  0  0  0  0  0  0
   -2.1375    2.2824    0.4958 N   0  0  0  0  0  0  0  0  0  0  0  0
   -3.2163    2.7550    0.8233 O   0  0  0  0  0  0  0  0  0  0  0  0
   -1.0460    2.8322    0.5029 O   0  0  0  0  0  0  0  0  0  0  0  0
    2.6137    4.1655    0.3351 N   0  0  0  0  0  0  0  0  0  0  0  0
    3.1283    5.1102    0.5883 N   0  0  0  0  0  0  0  0  0  0  0  0
  1  6  1  0  0  0  0
  1  7  1  0  0  0  0
  2  1  2  0  0  0  0
  3  2  1  0  0  0  0
  4  3  2  0  0  0  0
  4  5  1  0  0  0  0
  5 10  1  0  0  0  0
  5  6  2  0  0  0  0
  6 11  1  0  0  0  0
  8  2  1  0  0  0  0
  9  4  1  0  0  0  0
 11 13  2  0  0  0  0
 11 12  2  0  0  0  0
 14 15  3  0  0  0  0
M  RAD  1   3   2
M  END
