Coordinates from ORCA-job 4-NO2-Ph-N2+-B3LYPG-6-31G_dp-MTMO-d009-169-n800
 OpenBabel09051908243D

 15 14  0  0  0  0  0  0  0  0999 V2000
   -3.5162    0.0370   -0.0263 C   0  0  0  0  0  0  0  0  0  0  0  0
   -3.3943   -1.3074   -0.4891 C   0  0  0  0  0  0  0  0  0  0  0  0
   -2.0938   -1.4368   -0.7357 C   0  0  0  0  0  0  0  0  0  0  0  0
   -0.8803   -0.8923   -0.7464 C   0  0  0  0  0  0  0  0  0  0  0  0
   -1.1039    0.4359   -0.2743 C   0  0  0  0  0  0  0  0  0  0  0  0
   -2.3903    0.8558    0.0662 C   0  0  0  0  0  0  0  0  0  0  0  0
   -4.5024    0.4046    0.2494 H   0  0  0  0  0  0  0  0  0  0  0  0
   -4.2147   -2.0090   -0.5941 H   0  0  0  0  0  0  0  0  0  0  0  0
    0.0832   -1.3005   -1.0306 H   0  0  0  0  0  0  0  0  0  0  0  0
   -0.2512    1.1065   -0.1862 H   0  0  0  0  0  0  0  0  0  0  0  0
   -2.5709    2.2482    0.5525 N   0  0  0  0  0  0  0  0  0  0  0  0
   -3.7134    2.5726    0.8419 O   0  0  0  0  0  0  0  0  0  0  0  0
   -1.5597    2.9318    0.6150 O   0  0  0  0  0  0  0  0  0  0  0  0
    3.5161    4.2510    0.2457 N   0  0  0  0  0  0  0  0  0  0  0  0
    4.2032    5.1041    0.3931 N   0  0  0  0  0  0  0  0  0  0  0  0
  1  6  1  0  0  0  0
  1  7  1  0  0  0  0
  2  1  2  0  0  0  0
  3  2  1  0  0  0  0
  4  3  2  0  0  0  0
  4  5  1  0  0  0  0
  5 10  1  0  0  0  0
  5  6  2  0  0  0  0
  6 11  1  0  0  0  0
  8  2  1  0  0  0  0
  9  4  1  0  0  0  0
 11 13  2  0  0  0  0
 11 12  2  0  0  0  0
 14 15  3  0  0  0  0
M  RAD  1   3   2
M  END
