Coordinates from ORCA-job 4-NO2-Ph-N2+-B3LYPG-6-31G_dp-MTMO-d009-169-n800
 OpenBabel09051908243D

 15 14  0  0  0  0  0  0  0  0999 V2000
   -3.5548    0.0132   -0.0269 C   0  0  0  0  0  0  0  0  0  0  0  0
   -3.4433   -1.3328   -0.4876 C   0  0  0  0  0  0  0  0  0  0  0  0
   -2.1445   -1.4713   -0.7383 C   0  0  0  0  0  0  0  0  0  0  0  0
   -0.9275   -0.9350   -0.7541 C   0  0  0  0  0  0  0  0  0  0  0  0
   -1.1407    0.3955   -0.2835 C   0  0  0  0  0  0  0  0  0  0  0  0
   -2.4231    0.8245    0.0605 C   0  0  0  0  0  0  0  0  0  0  0  0
   -4.5376    0.3878    0.2514 H   0  0  0  0  0  0  0  0  0  0  0  0
   -4.2687   -2.0292   -0.5886 H   0  0  0  0  0  0  0  0  0  0  0  0
    0.0324   -1.3501   -1.0407 H   0  0  0  0  0  0  0  0  0  0  0  0
   -0.2834    1.0606   -0.1994 H   0  0  0  0  0  0  0  0  0  0  0  0
   -2.5927    2.2190    0.5450 N   0  0  0  0  0  0  0  0  0  0  0  0
   -3.7321    2.5519    0.8368 O   0  0  0  0  0  0  0  0  0  0  0  0
   -1.5765    2.8956    0.6037 O   0  0  0  0  0  0  0  0  0  0  0  0
    3.7608    4.4577    0.2762 N   0  0  0  0  0  0  0  0  0  0  0  0
    4.4431    5.3141    0.4265 N   0  0  0  0  0  0  0  0  0  0  0  0
  1  6  1  0  0  0  0
  1  7  1  0  0  0  0
  2  1  2  0  0  0  0
  3  2  1  0  0  0  0
  4  3  2  0  0  0  0
  4  5  1  0  0  0  0
  5 10  1  0  0  0  0
  5  6  2  0  0  0  0
  6 11  1  0  0  0  0
  8  2  1  0  0  0  0
  9  4  1  0  0  0  0
 11 13  2  0  0  0  0
 11 12  2  0  0  0  0
 14 15  3  0  0  0  0
M  RAD  1   3   2
M  END
