Coordinates from ORCA-job 4-NO2-Ph-N2+-B3LYPG-6-31G_dp-MTMO-d009-169-n800
 OpenBabel09051908243D

 15 14  0  0  0  0  0  0  0  0999 V2000
   -3.5990   -0.0090   -0.0240 C   0  0  0  0  0  0  0  0  0  0  0  0
   -3.5142   -1.3588   -0.4792 C   0  0  0  0  0  0  0  0  0  0  0  0
   -2.2202   -1.5202   -0.7404 C   0  0  0  0  0  0  0  0  0  0  0  0
   -0.9945   -1.0046   -0.7694 C   0  0  0  0  0  0  0  0  0  0  0  0
   -1.1812    0.3314   -0.3032 C   0  0  0  0  0  0  0  0  0  0  0  0
   -2.4530    0.7836    0.0499 C   0  0  0  0  0  0  0  0  0  0  0  0
   -4.5729    0.3833    0.2610 H   0  0  0  0  0  0  0  0  0  0  0  0
   -4.3521   -2.0415   -0.5696 H   0  0  0  0  0  0  0  0  0  0  0  0
   -0.0444   -1.4373   -1.0625 H   0  0  0  0  0  0  0  0  0  0  0  0
   -0.3122    0.9823   -0.2298 H   0  0  0  0  0  0  0  0  0  0  0  0
   -2.5948    2.1828    0.5296 N   0  0  0  0  0  0  0  0  0  0  0  0
   -3.7262    2.5369    0.8276 O   0  0  0  0  0  0  0  0  0  0  0  0
   -1.5666    2.8416    0.5786 O   0  0  0  0  0  0  0  0  0  0  0  0
    4.0359    4.7340    0.3246 N   0  0  0  0  0  0  0  0  0  0  0  0
    4.7068    5.5970    0.4877 N   0  0  0  0  0  0  0  0  0  0  0  0
  1  6  1  0  0  0  0
  1  7  1  0  0  0  0
  2  1  2  0  0  0  0
  3  2  1  0  0  0  0
  4  3  2  0  0  0  0
  4  5  1  0  0  0  0
  5 10  1  0  0  0  0
  5  6  2  0  0  0  0
  6 11  1  0  0  0  0
  8  2  1  0  0  0  0
  9  4  1  0  0  0  0
 11 13  2  0  0  0  0
 11 12  2  0  0  0  0
 14 15  3  0  0  0  0
M  RAD  1   3   2
M  END
