Coordinates from ORCA-job 4-NO2-Ph-N2+-B3LYPG-6-31G_dp-MTMO-d009-169-n800
 OpenBabel09051908243D

 15 14  0  0  0  0  0  0  0  0999 V2000
   -3.5841   -0.0010   -0.0250 C   0  0  0  0  0  0  0  0  0  0  0  0
   -3.4913   -1.3496   -0.4821 C   0  0  0  0  0  0  0  0  0  0  0  0
   -2.1957   -1.5042   -0.7398 C   0  0  0  0  0  0  0  0  0  0  0  0
   -0.9725   -0.9825   -0.7644 C   0  0  0  0  0  0  0  0  0  0  0  0
   -1.1672    0.3518   -0.2967 C   0  0  0  0  0  0  0  0  0  0  0  0
   -2.4423    0.7971    0.0534 C   0  0  0  0  0  0  0  0  0  0  0  0
   -4.5607    0.3861    0.2578 H   0  0  0  0  0  0  0  0  0  0  0  0
   -4.3255   -2.0364   -0.5761 H   0  0  0  0  0  0  0  0  0  0  0  0
   -0.0194   -1.4100   -1.0554 H   0  0  0  0  0  0  0  0  0  0  0  0
   -0.3016    1.0068   -0.2197 H   0  0  0  0  0  0  0  0  0  0  0  0
   -2.5924    2.1949    0.5347 N   0  0  0  0  0  0  0  0  0  0  0  0
   -3.7263    2.5427    0.8308 O   0  0  0  0  0  0  0  0  0  0  0  0
   -1.5677    2.8590    0.5870 O   0  0  0  0  0  0  0  0  0  0  0  0
    3.9427    4.6422    0.3092 N   0  0  0  0  0  0  0  0  0  0  0  0
    4.6156    5.5045    0.4674 N   0  0  0  0  0  0  0  0  0  0  0  0
  1  6  1  0  0  0  0
  1  7  1  0  0  0  0
  2  1  2  0  0  0  0
  3  2  1  0  0  0  0
  4  3  2  0  0  0  0
  4  5  1  0  0  0  0
  5 10  1  0  0  0  0
  5  6  2  0  0  0  0
  6 11  1  0  0  0  0
  8  2  1  0  0  0  0
  9  4  1  0  0  0  0
 11 13  2  0  0  0  0
 11 12  2  0  0  0  0
 14 15  3  0  0  0  0
M  RAD  1   3   2
M  END
