Coordinates from ORCA-job 4-NO2-Ph-N2+-B3LYPG-6-31G_dp-MTMO-d009-169-n800
 OpenBabel09051908243D

 15 14  0  0  0  0  0  0  0  0999 V2000
   -3.5860   -0.0020   -0.0248 C   0  0  0  0  0  0  0  0  0  0  0  0
   -3.4941   -1.3508   -0.4817 C   0  0  0  0  0  0  0  0  0  0  0  0
   -2.1987   -1.5062   -0.7399 C   0  0  0  0  0  0  0  0  0  0  0  0
   -0.9753   -0.9852   -0.7650 C   0  0  0  0  0  0  0  0  0  0  0  0
   -1.1690    0.3493   -0.2975 C   0  0  0  0  0  0  0  0  0  0  0  0
   -2.4437    0.7955    0.0530 C   0  0  0  0  0  0  0  0  0  0  0  0
   -4.5623    0.3857    0.2582 H   0  0  0  0  0  0  0  0  0  0  0  0
   -4.3288   -2.0371   -0.5753 H   0  0  0  0  0  0  0  0  0  0  0  0
   -0.0225   -1.4133   -1.0562 H   0  0  0  0  0  0  0  0  0  0  0  0
   -0.3030    1.0038   -0.2210 H   0  0  0  0  0  0  0  0  0  0  0  0
   -2.5928    2.1934    0.5341 N   0  0  0  0  0  0  0  0  0  0  0  0
   -3.7264    2.5419    0.8304 O   0  0  0  0  0  0  0  0  0  0  0  0
   -1.5676    2.8569    0.5860 O   0  0  0  0  0  0  0  0  0  0  0  0
    3.9544    4.6537    0.3110 N   0  0  0  0  0  0  0  0  0  0  0  0
    4.6272    5.5160    0.4699 N   0  0  0  0  0  0  0  0  0  0  0  0
  1  6  1  0  0  0  0
  1  7  1  0  0  0  0
  2  1  2  0  0  0  0
  3  2  1  0  0  0  0
  4  3  2  0  0  0  0
  4  5  1  0  0  0  0
  5 10  1  0  0  0  0
  5  6  2  0  0  0  0
  6 11  1  0  0  0  0
  8  2  1  0  0  0  0
  9  4  1  0  0  0  0
 11 13  2  0  0  0  0
 11 12  2  0  0  0  0
 14 15  3  0  0  0  0
M  RAD  1   3   2
M  END
