Coordinates from ORCA-job 4-NO2-Ph-N2+-B3LYPG-6-31G_dp-MTMO-d009-169-n800
 OpenBabel09051908243D

 15 14  0  0  0  0  0  0  0  0999 V2000
   -4.2608   -0.4655   -0.0316 C   0  0  0  0  0  0  0  0  0  0  0  0
   -4.3266   -1.8325   -0.4365 C   0  0  0  0  0  0  0  0  0  0  0  0
   -3.0726   -2.1190   -0.7745 C   0  0  0  0  0  0  0  0  0  0  0  0
   -1.8110   -1.7178   -0.9032 C   0  0  0  0  0  0  0  0  0  0  0  0
   -1.8471   -0.3555   -0.4802 C   0  0  0  0  0  0  0  0  0  0  0  0
   -3.0471    0.2221   -0.0642 C   0  0  0  0  0  0  0  0  0  0  0  0
   -5.1749    0.0224    0.3002 H   0  0  0  0  0  0  0  0  0  0  0  0
   -5.2255   -2.4393   -0.4439 H   0  0  0  0  0  0  0  0  0  0  0  0
   -0.9251   -2.2451   -1.2395 H   0  0  0  0  0  0  0  0  0  0  0  0
   -0.9211    0.2162   -0.4890 H   0  0  0  0  0  0  0  0  0  0  0  0
   -3.0316    1.6441    0.3665 N   0  0  0  0  0  0  0  0  0  0  0  0
   -4.1026    2.1083    0.7290 O   0  0  0  0  0  0  0  0  0  0  0  0
   -1.9491    2.2096    0.3157 O   0  0  0  0  0  0  0  0  0  0  0  0
    8.3535    8.4238    0.9143 N   0  0  0  0  0  0  0  0  0  0  0  0
    8.9530    9.3298    1.1179 N   0  0  0  0  0  0  0  0  0  0  0  0
  1  7  1  0  0  0  0
  2  1  2  0  0  0  0
  3  2  1  0  0  0  0
  4  3  2  0  0  0  0
  4  5  1  0  0  0  0
  5  6  2  0  0  0  0
  6  1  1  0  0  0  0
  6 11  1  0  0  0  0
  8  2  1  0  0  0  0
  9  4  1  0  0  0  0
 10  5  1  0  0  0  0
 11 12  2  0  0  0  0
 13 11  2  0  0  0  0
 14 15  3  0  0  0  0
M  RAD  1   3   2
M  END
