Coordinates from ORCA-job 4-NO2-Ph-N2+-B3LYPG-6-31G_dp-MTMO-d009-169-n800
 OpenBabel09051908243D

 15 14  0  0  0  0  0  0  0  0999 V2000
   -2.4890   -0.2240   -0.6094 C   0  0  0  0  0  0  0  0  0  0  0  0
   -1.0710   -0.2928   -0.7545 C   0  0  0  0  0  0  0  0  0  0  0  0
   -0.6421    0.8234   -0.1723 C   0  0  0  0  0  0  0  0  0  0  0  0
   -0.9297    1.9513    0.4710 C   0  0  0  0  0  0  0  0  0  0  0  0
   -2.3534    1.9297    0.5669 C   0  0  0  0  0  0  0  0  0  0  0  0
   -3.0797    0.8638    0.0347 C   0  0  0  0  0  0  0  0  0  0  0  0
   -3.0927   -1.0356   -1.0100 H   0  0  0  0  0  0  0  0  0  0  0  0
   -0.5298   -1.0991   -1.2375 H   0  0  0  0  0  0  0  0  0  0  0  0
   -0.2885    2.7376    0.8543 H   0  0  0  0  0  0  0  0  0  0  0  0
   -2.8542    2.7599    1.0607 H   0  0  0  0  0  0  0  0  0  0  0  0
   -4.5600    0.8879    0.1611 N   0  0  0  0  0  0  0  0  0  0  0  0
   -5.1566   -0.0655   -0.3177 O   0  0  0  0  0  0  0  0  0  0  0  0
   -5.0358    1.8585    0.7317 O   0  0  0  0  0  0  0  0  0  0  0  0
    4.2952    0.9467   -0.4204 N   0  0  0  0  0  0  0  0  0  0  0  0
    5.3988    0.9598   -0.4777 N   0  0  0  0  0  0  0  0  0  0  0  0
  1  6  1  0  0  0  0
  2  1  2  0  0  0  0
  2  3  1  0  0  0  0
  3  4  2  0  0  0  0
  4  5  1  0  0  0  0
  4  9  1  0  0  0  0
  5 10  1  0  0  0  0
  6 11  1  0  0  0  0
  6  5  2  0  0  0  0
  7  1  1  0  0  0  0
  8  2  1  0  0  0  0
 11 13  2  0  0  0  0
 12 11  2  0  0  0  0
 15 14  3  0  0  0  0
M  RAD  1   3   2
M  END
