Coordinates from ORCA-job 4-NO2-Ph-N2+-B3LYPG-6-31G_dp-MTMO-d009-169-n800
 OpenBabel09051908243D

 15 14  0  0  0  0  0  0  0  0999 V2000
   -3.6888   -0.0562   -0.0226 C   0  0  0  0  0  0  0  0  0  0  0  0
   -3.6513   -1.4110   -0.4695 C   0  0  0  0  0  0  0  0  0  0  0  0
   -2.3663   -1.6136   -0.7463 C   0  0  0  0  0  0  0  0  0  0  0  0
   -1.1260   -1.1360   -0.7947 C   0  0  0  0  0  0  0  0  0  0  0  0
   -1.2655    0.2079   -0.3351 C   0  0  0  0  0  0  0  0  0  0  0  0
   -2.5182    0.7012    0.0313 C   0  0  0  0  0  0  0  0  0  0  0  0
   -4.6465    0.3674    0.2722 H   0  0  0  0  0  0  0  0  0  0  0  0
   -4.5107   -2.0684   -0.5439 H   0  0  0  0  0  0  0  0  0  0  0  0
   -0.1935   -1.5994   -1.0975 H   0  0  0  0  0  0  0  0  0  0  0  0
   -0.3762    0.8323   -0.2775 H   0  0  0  0  0  0  0  0  0  0  0  0
   -2.6106    2.1070    0.5038 N   0  0  0  0  0  0  0  0  0  0  0  0
   -3.7271    2.4987    0.8109 O   0  0  0  0  0  0  0  0  0  0  0  0
   -1.5614    2.7329    0.5393 O   0  0  0  0  0  0  0  0  0  0  0  0
    4.6002    5.2820    0.4192 N   0  0  0  0  0  0  0  0  0  0  0  0
    5.2534    6.1567    0.5914 N   0  0  0  0  0  0  0  0  0  0  0  0
  1  6  1  0  0  0  0
  1  7  1  0  0  0  0
  2  1  2  0  0  0  0
  3  2  1  0  0  0  0
  4  3  2  0  0  0  0
  4  5  1  0  0  0  0
  5 10  1  0  0  0  0
  5  6  2  0  0  0  0
  6 11  1  0  0  0  0
  8  2  1  0  0  0  0
  9  4  1  0  0  0  0
 11 13  2  0  0  0  0
 11 12  2  0  0  0  0
 14 15  3  0  0  0  0
M  RAD  1   3   2
M  END
