Coordinates from ORCA-job 4-NO2-Ph-N2+-B3LYPG-6-31G_dp-MTMO-d009-169-n800
 OpenBabel09051908243D

 15 15  0  0  0  0  0  0  0  0999 V2000
   -2.0538   -0.2113   -0.6287 C   0  0  0  0  0  0  0  0  0  0  0  0
   -0.6589   -0.2355   -0.7394 C   0  0  0  0  0  0  0  0  0  0  0  0
   -0.0582    0.8668   -0.1753 C   0  0  0  0  0  0  0  0  0  0  0  0
   -0.5741    1.9692    0.4669 C   0  0  0  0  0  0  0  0  0  0  0  0
   -1.9709    1.9453    0.5515 C   0  0  0  0  0  0  0  0  0  0  0  0
   -2.6682    0.8671    0.0074 C   0  0  0  0  0  0  0  0  0  0  0  0
   -2.6583   -1.0173   -1.0294 H   0  0  0  0  0  0  0  0  0  0  0  0
   -0.1239   -1.0447   -1.2209 H   0  0  0  0  0  0  0  0  0  0  0  0
    0.0228    2.7780    0.8699 H   0  0  0  0  0  0  0  0  0  0  0  0
   -2.5138    2.7514    1.0324 H   0  0  0  0  0  0  0  0  0  0  0  0
   -4.1553    0.8669    0.1122 N   0  0  0  0  0  0  0  0  0  0  0  0
   -4.7345   -0.0939   -0.3745 O   0  0  0  0  0  0  0  0  0  0  0  0
   -4.6608    1.8273    0.6758 O   0  0  0  0  0  0  0  0  0  0  0  0
    1.6586    0.8663   -0.2951 N   0  0  0  0  0  0  0  0  0  0  0  0
    2.7608    0.8659   -0.3718 N   0  0  0  0  0  0  0  0  0  0  0  0
  1  6  1  0  0  0  0
  2  1  2  0  0  0  0
  2  3  1  0  0  0  0
  3  4  2  0  0  0  0
  4  5  1  0  0  0  0
  4  9  1  0  0  0  0
  5 10  1  0  0  0  0
  6 11  1  0  0  0  0
  6  5  2  0  0  0  0
  7  1  1  0  0  0  0
  8  2  1  0  0  0  0
 11 13  2  0  0  0  0
 12 11  2  0  0  0  0
 14  3  1  0  0  0  0
 15 14  1  0  0  0  0
M  RAD  2  14   2  15   3
M  END
