Coordinates from ORCA-job 4-NO2-Ph-N2+-B3LYPG-6-31G_dp-MTMO-d009-169-n800
 OpenBabel09051908243D

 15 14  0  0  0  0  0  0  0  0999 V2000
   -3.5953   -0.0070   -0.0242 C   0  0  0  0  0  0  0  0  0  0  0  0
   -3.5084   -1.3566   -0.4799 C   0  0  0  0  0  0  0  0  0  0  0  0
   -2.2140   -1.5162   -0.7403 C   0  0  0  0  0  0  0  0  0  0  0  0
   -0.9890   -0.9990   -0.7681 C   0  0  0  0  0  0  0  0  0  0  0  0
   -1.1777    0.3365   -0.3016 C   0  0  0  0  0  0  0  0  0  0  0  0
   -2.4504    0.7870    0.0508 C   0  0  0  0  0  0  0  0  0  0  0  0
   -4.5699    0.3839    0.2602 H   0  0  0  0  0  0  0  0  0  0  0  0
   -4.3454   -2.0403   -0.5713 H   0  0  0  0  0  0  0  0  0  0  0  0
   -0.0381   -1.4303   -1.0607 H   0  0  0  0  0  0  0  0  0  0  0  0
   -0.3096    0.9885   -0.2272 H   0  0  0  0  0  0  0  0  0  0  0  0
   -2.5944    2.1859    0.5309 N   0  0  0  0  0  0  0  0  0  0  0  0
   -3.7264    2.5383    0.8284 O   0  0  0  0  0  0  0  0  0  0  0  0
   -1.5670    2.8460    0.5808 O   0  0  0  0  0  0  0  0  0  0  0  0
    4.0128    4.7110    0.3207 N   0  0  0  0  0  0  0  0  0  0  0  0
    4.6843    5.5738    0.4826 N   0  0  0  0  0  0  0  0  0  0  0  0
  1  6  1  0  0  0  0
  1  7  1  0  0  0  0
  2  1  2  0  0  0  0
  3  2  1  0  0  0  0
  4  3  2  0  0  0  0
  4  5  1  0  0  0  0
  5 10  1  0  0  0  0
  5  6  2  0  0  0  0
  6 11  1  0  0  0  0
  8  2  1  0  0  0  0
  9  4  1  0  0  0  0
 11 13  2  0  0  0  0
 11 12  2  0  0  0  0
 14 15  3  0  0  0  0
M  RAD  1   3   2
M  END
