Coordinates from ORCA-job 4-NO2-Ph-N2+-B3LYPG-6-31G_dp-MTMO-d009-169-n800
 OpenBabel09051908243D

 15 14  0  0  0  0  0  0  0  0999 V2000
   -3.5646    0.0076   -0.0267 C   0  0  0  0  0  0  0  0  0  0  0  0
   -3.4570   -1.3390   -0.4867 C   0  0  0  0  0  0  0  0  0  0  0  0
   -2.1588   -1.4808   -0.7389 C   0  0  0  0  0  0  0  0  0  0  0  0
   -0.9405   -0.9476   -0.7566 C   0  0  0  0  0  0  0  0  0  0  0  0
   -1.1499    0.3837   -0.2866 C   0  0  0  0  0  0  0  0  0  0  0  0
   -2.4307    0.8162    0.0587 C   0  0  0  0  0  0  0  0  0  0  0  0
   -4.5460    0.3848    0.2526 H   0  0  0  0  0  0  0  0  0  0  0  0
   -4.2842   -2.0334   -0.5861 H   0  0  0  0  0  0  0  0  0  0  0  0
    0.0179   -1.3653   -1.0442 H   0  0  0  0  0  0  0  0  0  0  0  0
   -0.2908    1.0467   -0.2041 H   0  0  0  0  0  0  0  0  0  0  0  0
   -2.5962    2.2114    0.5425 N   0  0  0  0  0  0  0  0  0  0  0  0
   -3.7345    2.5474    0.8353 O   0  0  0  0  0  0  0  0  0  0  0  0
   -1.5782    2.8853    0.5998 O   0  0  0  0  0  0  0  0  0  0  0  0
    3.8220    4.5136    0.2854 N   0  0  0  0  0  0  0  0  0  0  0  0
    4.5031    5.3708    0.4367 N   0  0  0  0  0  0  0  0  0  0  0  0
  1  6  1  0  0  0  0
  1  7  1  0  0  0  0
  2  1  2  0  0  0  0
  3  2  1  0  0  0  0
  4  3  2  0  0  0  0
  4  5  1  0  0  0  0
  5 10  1  0  0  0  0
  5  6  2  0  0  0  0
  6 11  1  0  0  0  0
  8  2  1  0  0  0  0
  9  4  1  0  0  0  0
 11 13  2  0  0  0  0
 11 12  2  0  0  0  0
 14 15  3  0  0  0  0
M  RAD  1   3   2
M  END
