Coordinates from ORCA-job 4-NO2-Ph-N2+-B3LYPG-6-31G_dp-MTMO-d009-169-n800
 OpenBabel09051908243D

 15 14  0  0  0  0  0  0  0  0999 V2000
   -4.0738   -0.3197   -0.0248 C   0  0  0  0  0  0  0  0  0  0  0  0
   -4.1283   -1.6838   -0.4407 C   0  0  0  0  0  0  0  0  0  0  0  0
   -2.8689   -1.9627   -0.7644 C   0  0  0  0  0  0  0  0  0  0  0  0
   -1.6074   -1.5553   -0.8737 C   0  0  0  0  0  0  0  0  0  0  0  0
   -1.6549   -0.1963   -0.4409 C   0  0  0  0  0  0  0  0  0  0  0  0
   -2.8627    0.3731   -0.0363 C   0  0  0  0  0  0  0  0  0  0  0  0
   -4.9942    0.1619    0.2987 H   0  0  0  0  0  0  0  0  0  0  0  0
   -5.0244   -2.2944   -0.4644 H   0  0  0  0  0  0  0  0  0  0  0  0
   -0.7148   -2.0760   -1.2025 H   0  0  0  0  0  0  0  0  0  0  0  0
   -0.7314    0.3792   -0.4336 H   0  0  0  0  0  0  0  0  0  0  0  0
   -2.8588    1.7918    0.4054 N   0  0  0  0  0  0  0  0  0  0  0  0
   -3.9369    2.2492    0.7557 O   0  0  0  0  0  0  0  0  0  0  0  0
   -1.7779    2.3617    0.3752 O   0  0  0  0  0  0  0  0  0  0  0  0
    7.1055    7.4448    0.7662 N   0  0  0  0  0  0  0  0  0  0  0  0
    7.7404    8.3283    0.9612 N   0  0  0  0  0  0  0  0  0  0  0  0
  1  7  1  0  0  0  0
  2  1  2  0  0  0  0
  3  2  1  0  0  0  0
  4  3  2  0  0  0  0
  4  5  1  0  0  0  0
  5 10  1  0  0  0  0
  5  6  2  0  0  0  0
  6  1  1  0  0  0  0
  6 11  1  0  0  0  0
  8  2  1  0  0  0  0
  9  4  1  0  0  0  0
 11 12  2  0  0  0  0
 13 11  2  0  0  0  0
 14 15  3  0  0  0  0
M  RAD  1   3   2
M  END
