Coordinates from ORCA-job 4-NO2-Ph-N2+-B3LYPG-6-31G_dp-MTMO-d009-169-n800
 OpenBabel09051908243D

 15 14  0  0  0  0  0  0  0  0999 V2000
   -2.6809   -0.2475   -0.6090 C   0  0  0  0  0  0  0  0  0  0  0  0
   -1.2685   -0.3654   -0.7766 C   0  0  0  0  0  0  0  0  0  0  0  0
   -0.7924    0.7364   -0.2037 C   0  0  0  0  0  0  0  0  0  0  0  0
   -1.0306    1.8746    0.4417 C   0  0  0  0  0  0  0  0  0  0  0  0
   -2.4526    1.9021    0.5603 C   0  0  0  0  0  0  0  0  0  0  0  0
   -3.2235    0.8609    0.0420 C   0  0  0  0  0  0  0  0  0  0  0  0
   -3.3183   -1.0385   -0.9985 H   0  0  0  0  0  0  0  0  0  0  0  0
   -0.7635   -1.1906   -1.2668 H   0  0  0  0  0  0  0  0  0  0  0  0
   -0.3570    2.6390    0.8135 H   0  0  0  0  0  0  0  0  0  0  0  0
   -2.9163    2.7499    1.0604 H   0  0  0  0  0  0  0  0  0  0  0  0
   -4.6999    0.9361    0.1917 N   0  0  0  0  0  0  0  0  0  0  0  0
   -5.3363    0.0029   -0.2754 O   0  0  0  0  0  0  0  0  0  0  0  0
   -5.1327    1.9235    0.7677 O   0  0  0  0  0  0  0  0  0  0  0  0
    5.2401    1.0900   -0.4120 N   0  0  0  0  0  0  0  0  0  0  0  0
    6.3438    1.1281   -0.4541 N   0  0  0  0  0  0  0  0  0  0  0  0
  1  6  1  0  0  0  0
  2  1  2  0  0  0  0
  2  3  1  0  0  0  0
  3  4  2  0  0  0  0
  4  5  1  0  0  0  0
  4  9  1  0  0  0  0
  5 10  1  0  0  0  0
  6 11  1  0  0  0  0
  6  5  2  0  0  0  0
  7  1  1  0  0  0  0
  8  2  1  0  0  0  0
 11 13  2  0  0  0  0
 12 11  2  0  0  0  0
 15 14  3  0  0  0  0
M  RAD  1   3   2
M  END
