Coordinates from ORCA-job 4-NO2-Ph-N2+-B3LYPG-6-31G_dp-MTMO-d009-169-n800
 OpenBabel09051908243D

 15 14  0  0  0  0  0  0  0  0999 V2000
   -4.0878   -0.3302   -0.0250 C   0  0  0  0  0  0  0  0  0  0  0  0
   -4.1441   -1.6946   -0.4398 C   0  0  0  0  0  0  0  0  0  0  0  0
   -2.8852   -1.9748   -0.7650 C   0  0  0  0  0  0  0  0  0  0  0  0
   -1.6236   -1.5686   -0.8763 C   0  0  0  0  0  0  0  0  0  0  0  0
   -1.6694   -0.2092   -0.4444 C   0  0  0  0  0  0  0  0  0  0  0  0
   -2.8762    0.3615   -0.0386 C   0  0  0  0  0  0  0  0  0  0  0  0
   -5.0074    0.1523    0.2994 H   0  0  0  0  0  0  0  0  0  0  0  0
   -5.0406   -2.3045   -0.4618 H   0  0  0  0  0  0  0  0  0  0  0  0
   -0.7319   -2.0902   -1.2059 H   0  0  0  0  0  0  0  0  0  0  0  0
   -0.7454    0.3656   -0.4387 H   0  0  0  0  0  0  0  0  0  0  0  0
   -2.8706    1.7806    0.4021 N   0  0  0  0  0  0  0  0  0  0  0  0
   -3.9477    2.2391    0.7534 O   0  0  0  0  0  0  0  0  0  0  0  0
   -1.7892    2.3495    0.3699 O   0  0  0  0  0  0  0  0  0  0  0  0
    7.1985    7.5203    0.7781 N   0  0  0  0  0  0  0  0  0  0  0  0
    7.8320    8.4046    0.9737 N   0  0  0  0  0  0  0  0  0  0  0  0
  1  7  1  0  0  0  0
  2  1  2  0  0  0  0
  3  2  1  0  0  0  0
  4  3  2  0  0  0  0
  4  5  1  0  0  0  0
  5 10  1  0  0  0  0
  5  6  2  0  0  0  0
  6  1  1  0  0  0  0
  6 11  1  0  0  0  0
  8  2  1  0  0  0  0
  9  4  1  0  0  0  0
 11 12  2  0  0  0  0
 13 11  2  0  0  0  0
 14 15  3  0  0  0  0
M  RAD  1   3   2
M  END
