Coordinates from ORCA-job 4-NO2-Ph-N2+-B3LYPG-6-31G_dp-MTMO-d009-169-n800
 OpenBabel09051908243D

 15 14  0  0  0  0  0  0  0  0999 V2000
   -2.5124   -0.2265   -0.6092 C   0  0  0  0  0  0  0  0  0  0  0  0
   -1.0948   -0.3001   -0.7570 C   0  0  0  0  0  0  0  0  0  0  0  0
   -0.6611    0.8148   -0.1759 C   0  0  0  0  0  0  0  0  0  0  0  0
   -0.9438    1.9438    0.4678 C   0  0  0  0  0  0  0  0  0  0  0  0
   -2.3673    1.9270    0.5664 C   0  0  0  0  0  0  0  0  0  0  0  0
   -3.0982    0.8634    0.0357 C   0  0  0  0  0  0  0  0  0  0  0  0
   -3.1194   -1.0362   -1.0086 H   0  0  0  0  0  0  0  0  0  0  0  0
   -0.5573   -1.1082   -1.2409 H   0  0  0  0  0  0  0  0  0  0  0  0
   -0.2992    2.7280    0.8497 H   0  0  0  0  0  0  0  0  0  0  0  0
   -2.8643    2.7590    1.0610 H   0  0  0  0  0  0  0  0  0  0  0  0
   -4.5781    0.8924    0.1649 N   0  0  0  0  0  0  0  0  0  0  0  0
   -5.1788   -0.0591   -0.3125 O   0  0  0  0  0  0  0  0  0  0  0  0
   -5.0496    1.8648    0.7362 O   0  0  0  0  0  0  0  0  0  0  0  0
    4.4161    0.9615   -0.4204 N   0  0  0  0  0  0  0  0  0  0  0  0
    5.5198    0.9770   -0.4760 N   0  0  0  0  0  0  0  0  0  0  0  0
  1  6  1  0  0  0  0
  2  1  2  0  0  0  0
  2  3  1  0  0  0  0
  3  4  2  0  0  0  0
  4  5  1  0  0  0  0
  4  9  1  0  0  0  0
  5 10  1  0  0  0  0
  6 11  1  0  0  0  0
  6  5  2  0  0  0  0
  7  1  1  0  0  0  0
  8  2  1  0  0  0  0
 11 13  2  0  0  0  0
 12 11  2  0  0  0  0
 15 14  3  0  0  0  0
M  RAD  1   3   2
M  END
