Coordinates from ORCA-job 4-NO2-Ph-N2+-B3LYPG-6-31G_dp-MTMO-d009-169-n800
 OpenBabel09051908243D

 15 14  0  0  0  0  0  0  0  0999 V2000
   -2.1101   -0.2103   -0.6243 C   0  0  0  0  0  0  0  0  0  0  0  0
   -0.6996   -0.2482   -0.7440 C   0  0  0  0  0  0  0  0  0  0  0  0
   -0.2207    0.8670   -0.1644 C   0  0  0  0  0  0  0  0  0  0  0  0
   -0.6138    1.9822    0.4767 C   0  0  0  0  0  0  0  0  0  0  0  0
   -2.0272    1.9443    0.5550 C   0  0  0  0  0  0  0  0  0  0  0  0
   -2.7264    0.8670    0.0116 C   0  0  0  0  0  0  0  0  0  0  0  0
   -2.7029   -1.0249   -1.0304 H   0  0  0  0  0  0  0  0  0  0  0  0
   -0.1497   -1.0490   -1.2220 H   0  0  0  0  0  0  0  0  0  0  0  0
   -0.0026    2.7828    0.8735 H   0  0  0  0  0  0  0  0  0  0  0  0
   -2.5578    2.7590    1.0396 H   0  0  0  0  0  0  0  0  0  0  0  0
   -4.2099    0.8668    0.1163 N   0  0  0  0  0  0  0  0  0  0  0  0
   -4.7870   -0.0948   -0.3710 O   0  0  0  0  0  0  0  0  0  0  0  0
   -4.7133    1.8280    0.6801 O   0  0  0  0  0  0  0  0  0  0  0  0
    2.0156    0.8660   -0.3199 N   0  0  0  0  0  0  0  0  0  0  0  0
    3.1170    0.8655   -0.3958 N   0  0  0  0  0  0  0  0  0  0  0  0
  1  6  1  0  0  0  0
  2  1  2  0  0  0  0
  2  3  1  0  0  0  0
  3  4  2  0  0  0  0
  4  5  1  0  0  0  0
  4  9  1  0  0  0  0
  5 10  1  0  0  0  0
  6 11  1  0  0  0  0
  6  5  2  0  0  0  0
  7  1  1  0  0  0  0
  8  2  1  0  0  0  0
 11 13  2  0  0  0  0
 12 11  2  0  0  0  0
 15 14  3  0  0  0  0
M  RAD  1   3   2
M  END
