Coordinates from ORCA-job 4-NO2-Ph-N2+-B3LYPG-6-31G_dp-MTMO-d009-169-n800
 OpenBabel09051908243D

 15 14  0  0  0  0  0  0  0  0999 V2000
   -2.3936   -0.2156   -0.6106 C   0  0  0  0  0  0  0  0  0  0  0  0
   -0.9741   -0.2692   -0.7459 C   0  0  0  0  0  0  0  0  0  0  0  0
   -0.5607    0.8511   -0.1603 C   0  0  0  0  0  0  0  0  0  0  0  0
   -0.8652    1.9755    0.4817 C   0  0  0  0  0  0  0  0  0  0  0  0
   -2.2890    1.9387    0.5679 C   0  0  0  0  0  0  0  0  0  0  0  0
   -3.0002    0.8654    0.0301 C   0  0  0  0  0  0  0  0  0  0  0  0
   -2.9860   -1.0333   -1.0157 H   0  0  0  0  0  0  0  0  0  0  0  0
   -0.4205   -1.0690   -1.2255 H   0  0  0  0  0  0  0  0  0  0  0  0
   -0.2345    2.7679    0.8694 H   0  0  0  0  0  0  0  0  0  0  0  0
   -2.8022    2.7631    1.0587 H   0  0  0  0  0  0  0  0  0  0  0  0
   -4.4814    0.8737    0.1462 N   0  0  0  0  0  0  0  0  0  0  0  0
   -5.0647   -0.0856   -0.3372 O   0  0  0  0  0  0  0  0  0  0  0  0
   -4.9716    1.8387    0.7142 O   0  0  0  0  0  0  0  0  0  0  0  0
    3.7759    0.8976   -0.4140 N   0  0  0  0  0  0  0  0  0  0  0  0
    4.8791    0.9026   -0.4781 N   0  0  0  0  0  0  0  0  0  0  0  0
  1  6  1  0  0  0  0
  2  1  2  0  0  0  0
  2  3  1  0  0  0  0
  3  4  2  0  0  0  0
  4  5  1  0  0  0  0
  4  9  1  0  0  0  0
  5 10  1  0  0  0  0
  6 11  1  0  0  0  0
  6  5  2  0  0  0  0
  7  1  1  0  0  0  0
  8  2  1  0  0  0  0
 11 13  2  0  0  0  0
 12 11  2  0  0  0  0
 15 14  3  0  0  0  0
M  RAD  1   3   2
M  END
