Coordinates from ORCA-job 4-NO2-Ph-N2+-B3LYPG-6-31G_dp-MTMO-d009-169-n800
 OpenBabel09051908243D

 15 14  0  0  0  0  0  0  0  0999 V2000
   -2.5158   -0.2269   -0.6092 C   0  0  0  0  0  0  0  0  0  0  0  0
   -1.0983   -0.3012   -0.7574 C   0  0  0  0  0  0  0  0  0  0  0  0
   -0.6638    0.8135   -0.1764 C   0  0  0  0  0  0  0  0  0  0  0  0
   -0.9457    1.9426    0.4673 C   0  0  0  0  0  0  0  0  0  0  0  0
   -2.3693    1.9265    0.5663 C   0  0  0  0  0  0  0  0  0  0  0  0
   -3.1008    0.8633    0.0359 C   0  0  0  0  0  0  0  0  0  0  0  0
   -3.1234   -1.0363   -1.0084 H   0  0  0  0  0  0  0  0  0  0  0  0
   -0.5614   -1.1097   -1.2415 H   0  0  0  0  0  0  0  0  0  0  0  0
   -0.3007    2.7265    0.8490 H   0  0  0  0  0  0  0  0  0  0  0  0
   -2.8657    2.7589    1.0610 H   0  0  0  0  0  0  0  0  0  0  0  0
   -4.5807    0.8932    0.1654 N   0  0  0  0  0  0  0  0  0  0  0  0
   -5.1820   -0.0581   -0.3118 O   0  0  0  0  0  0  0  0  0  0  0  0
   -5.0515    1.8658    0.7369 O   0  0  0  0  0  0  0  0  0  0  0  0
    4.4334    0.9638   -0.4203 N   0  0  0  0  0  0  0  0  0  0  0  0
    5.5370    0.9796   -0.4757 N   0  0  0  0  0  0  0  0  0  0  0  0
  1  6  1  0  0  0  0
  2  1  2  0  0  0  0
  2  3  1  0  0  0  0
  3  4  2  0  0  0  0
  4  5  1  0  0  0  0
  4  9  1  0  0  0  0
  5 10  1  0  0  0  0
  6 11  1  0  0  0  0
  6  5  2  0  0  0  0
  7  1  1  0  0  0  0
  8  2  1  0  0  0  0
 11 13  2  0  0  0  0
 12 11  2  0  0  0  0
 15 14  3  0  0  0  0
M  RAD  1   3   2
M  END
