Coordinates from ORCA-job 4-NO2-Ph-N2+-B3LYPG-6-31G_dp-MTMO-d009-169-n800
 OpenBabel09051908243D

 15 14  0  0  0  0  0  0  0  0999 V2000
   -4.2038   -0.4207   -0.0295 C   0  0  0  0  0  0  0  0  0  0  0  0
   -4.2669   -1.7869   -0.4378 C   0  0  0  0  0  0  0  0  0  0  0  0
   -3.0113   -2.0716   -0.7714 C   0  0  0  0  0  0  0  0  0  0  0  0
   -1.7496   -1.6690   -0.8943 C   0  0  0  0  0  0  0  0  0  0  0  0
   -1.7884   -0.3077   -0.4684 C   0  0  0  0  0  0  0  0  0  0  0  0
   -2.9906    0.2679   -0.0557 C   0  0  0  0  0  0  0  0  0  0  0  0
   -5.1196    0.0656    0.2998 H   0  0  0  0  0  0  0  0  0  0  0  0
   -5.1652   -2.3944   -0.4499 H   0  0  0  0  0  0  0  0  0  0  0  0
   -0.8619   -2.1948   -1.2284 H   0  0  0  0  0  0  0  0  0  0  0  0
   -0.8630    0.2648   -0.4723 H   0  0  0  0  0  0  0  0  0  0  0  0
   -2.9779    1.6890    0.3782 N   0  0  0  0  0  0  0  0  0  0  0  0
   -4.0508    2.1515    0.7372 O   0  0  0  0  0  0  0  0  0  0  0  0
   -1.8956    2.2553    0.3335 O   0  0  0  0  0  0  0  0  0  0  0  0
    7.9714    8.1276    0.8698 N   0  0  0  0  0  0  0  0  0  0  0  0
    8.5847    9.0250    1.0703 N   0  0  0  0  0  0  0  0  0  0  0  0
  1  7  1  0  0  0  0
  2  1  2  0  0  0  0
  3  2  1  0  0  0  0
  4  3  2  0  0  0  0
  4  5  1  0  0  0  0
  5  6  2  0  0  0  0
  6  1  1  0  0  0  0
  6 11  1  0  0  0  0
  8  2  1  0  0  0  0
  9  4  1  0  0  0  0
 10  5  1  0  0  0  0
 11 12  2  0  0  0  0
 13 11  2  0  0  0  0
 14 15  3  0  0  0  0
M  RAD  1   3   2
M  END
