Coordinates from ORCA-job 4-NO2-Ph-N2+-B3LYPG-6-31G_dp-MTMO-d009-169-n800
 OpenBabel09051908243D

 15 14  0  0  0  0  0  0  0  0999 V2000
   -2.4343   -0.2189   -0.6099 C   0  0  0  0  0  0  0  0  0  0  0  0
   -1.0153   -0.2784   -0.7491 C   0  0  0  0  0  0  0  0  0  0  0  0
   -0.5960    0.8404   -0.1648 C   0  0  0  0  0  0  0  0  0  0  0  0
   -0.8938    1.9662    0.4777 C   0  0  0  0  0  0  0  0  0  0  0  0
   -2.3176    1.9352    0.5678 C   0  0  0  0  0  0  0  0  0  0  0  0
   -3.0347    0.8647    0.0321 C   0  0  0  0  0  0  0  0  0  0  0  0
   -3.0310   -1.0343   -1.0133 H   0  0  0  0  0  0  0  0  0  0  0  0
   -0.4665   -1.0807   -1.2301 H   0  0  0  0  0  0  0  0  0  0  0  0
   -0.2591    2.7563    0.8637 H   0  0  0  0  0  0  0  0  0  0  0  0
   -2.8260    2.7619    1.0597 H   0  0  0  0  0  0  0  0  0  0  0  0
   -4.5156    0.8791    0.1523 N   0  0  0  0  0  0  0  0  0  0  0  0
   -5.1040   -0.0779   -0.3293 O   0  0  0  0  0  0  0  0  0  0  0  0
   -5.0001    1.8463    0.7214 O   0  0  0  0  0  0  0  0  0  0  0  0
    4.0010    0.9167   -0.4180 N   0  0  0  0  0  0  0  0  0  0  0  0
    5.1044    0.9250   -0.4792 N   0  0  0  0  0  0  0  0  0  0  0  0
  1  6  1  0  0  0  0
  2  1  2  0  0  0  0
  2  3  1  0  0  0  0
  3  4  2  0  0  0  0
  4  5  1  0  0  0  0
  4  9  1  0  0  0  0
  5 10  1  0  0  0  0
  6 11  1  0  0  0  0
  6  5  2  0  0  0  0
  7  1  1  0  0  0  0
  8  2  1  0  0  0  0
 11 13  2  0  0  0  0
 12 11  2  0  0  0  0
 15 14  3  0  0  0  0
M  RAD  1   3   2
M  END
