Coordinates from ORCA-job 4-NO2-Ph-N2+-B3LYPG-6-31G_dp-MTMO-d009-169-n800
 OpenBabel09051908243D

 15 15  0  0  0  0  0  0  0  0999 V2000
   -2.0154   -0.2124   -0.6318 C   0  0  0  0  0  0  0  0  0  0  0  0
   -0.6339   -0.2261   -0.7357 C   0  0  0  0  0  0  0  0  0  0  0  0
    0.0803    0.8667   -0.1849 C   0  0  0  0  0  0  0  0  0  0  0  0
   -0.5499    1.9596    0.4600 C   0  0  0  0  0  0  0  0  0  0  0  0
   -1.9324    1.9463    0.5494 C   0  0  0  0  0  0  0  0  0  0  0  0
   -2.6309    0.8670    0.0049 C   0  0  0  0  0  0  0  0  0  0  0  0
   -2.6228   -1.0163   -1.0313 H   0  0  0  0  0  0  0  0  0  0  0  0
   -0.1087   -1.0423   -1.2203 H   0  0  0  0  0  0  0  0  0  0  0  0
    0.0378    2.7753    0.8674 H   0  0  0  0  0  0  0  0  0  0  0  0
   -2.4783    2.7504    1.0294 H   0  0  0  0  0  0  0  0  0  0  0  0
   -4.1212    0.8669    0.1098 N   0  0  0  0  0  0  0  0  0  0  0  0
   -4.6982   -0.0942   -0.3780 O   0  0  0  0  0  0  0  0  0  0  0  0
   -4.6244    1.8278    0.6739 O   0  0  0  0  0  0  0  0  0  0  0  0
    1.3976    0.8664   -0.2769 N   0  0  0  0  0  0  0  0  0  0  0  0
    2.5119    0.8662   -0.3548 N   0  0  0  0  0  0  0  0  0  0  0  0
  1  6  1  0  0  0  0
  2  1  2  0  0  0  0
  2  3  1  0  0  0  0
  3  4  2  0  0  0  0
  4  5  1  0  0  0  0
  4  9  1  0  0  0  0
  5 10  1  0  0  0  0
  6 11  1  0  0  0  0
  6  5  2  0  0  0  0
  7  1  1  0  0  0  0
  8  2  1  0  0  0  0
 11 13  2  0  0  0  0
 12 11  2  0  0  0  0
 14  3  1  0  0  0  0
 15 14  1  0  0  0  0
M  RAD  2  14   2  15   3
M  END
