Coordinates from ORCA-job 4-NO2-Ph-N2+-B3LYPG-6-31G_dp-MTMO-d009-169-n800
 OpenBabel09051908243D

 15 15  0  0  0  0  0  0  0  0999 V2000
   -2.0363   -0.2119   -0.6302 C   0  0  0  0  0  0  0  0  0  0  0  0
   -0.6477   -0.2302   -0.7372 C   0  0  0  0  0  0  0  0  0  0  0  0
    0.0055    0.8668   -0.1797 C   0  0  0  0  0  0  0  0  0  0  0  0
   -0.5633    1.9638    0.4633 C   0  0  0  0  0  0  0  0  0  0  0  0
   -1.9533    1.9459    0.5506 C   0  0  0  0  0  0  0  0  0  0  0  0
   -2.6506    0.8671    0.0062 C   0  0  0  0  0  0  0  0  0  0  0  0
   -2.6434   -1.0160   -1.0298 H   0  0  0  0  0  0  0  0  0  0  0  0
   -0.1181   -1.0430   -1.2203 H   0  0  0  0  0  0  0  0  0  0  0  0
    0.0284    2.7763    0.8686 H   0  0  0  0  0  0  0  0  0  0  0  0
   -2.4989    2.7502    1.0307 H   0  0  0  0  0  0  0  0  0  0  0  0
   -4.1393    0.8669    0.1111 N   0  0  0  0  0  0  0  0  0  0  0  0
   -4.7180   -0.0940   -0.3758 O   0  0  0  0  0  0  0  0  0  0  0  0
   -4.6443    1.8274    0.6747 O   0  0  0  0  0  0  0  0  0  0  0  0
    1.5426    0.8663   -0.2870 N   0  0  0  0  0  0  0  0  0  0  0  0
    2.6482    0.8660   -0.3641 N   0  0  0  0  0  0  0  0  0  0  0  0
  1  6  1  0  0  0  0
  2  1  2  0  0  0  0
  2  3  1  0  0  0  0
  3  4  2  0  0  0  0
  4  5  1  0  0  0  0
  4  9  1  0  0  0  0
  5 10  1  0  0  0  0
  6 11  1  0  0  0  0
  6  5  2  0  0  0  0
  7  1  1  0  0  0  0
  8  2  1  0  0  0  0
 11 13  2  0  0  0  0
 12 11  2  0  0  0  0
 14  3  1  0  0  0  0
 15 14  1  0  0  0  0
M  RAD  2  14   2  15   3
M  END
