Coordinates from ORCA-job 4-NO2-Ph-N2+-B3LYPG-6-31G_dp-MTMO-d009-169-n800
 OpenBabel09051908243D

 15 14  0  0  0  0  0  0  0  0999 V2000
   -4.1771   -0.3996   -0.0282 C   0  0  0  0  0  0  0  0  0  0  0  0
   -4.2394   -1.7654   -0.4378 C   0  0  0  0  0  0  0  0  0  0  0  0
   -2.9834   -2.0497   -0.7698 C   0  0  0  0  0  0  0  0  0  0  0  0
   -1.7215   -1.6469   -0.8904 C   0  0  0  0  0  0  0  0  0  0  0  0
   -1.7611   -0.2859   -0.4633 C   0  0  0  0  0  0  0  0  0  0  0  0
   -2.9640    0.2892   -0.0520 C   0  0  0  0  0  0  0  0  0  0  0  0
   -5.0935    0.0864    0.3001 H   0  0  0  0  0  0  0  0  0  0  0  0
   -5.1377   -2.3730   -0.4519 H   0  0  0  0  0  0  0  0  0  0  0  0
   -0.8333   -2.1722   -1.2237 H   0  0  0  0  0  0  0  0  0  0  0  0
   -0.8357    0.2867   -0.4653 H   0  0  0  0  0  0  0  0  0  0  0  0
   -2.9521    1.7098    0.3834 N   0  0  0  0  0  0  0  0  0  0  0  0
   -4.0257    2.1721    0.7408 O   0  0  0  0  0  0  0  0  0  0  0  0
   -1.8697    2.2762    0.3411 O   0  0  0  0  0  0  0  0  0  0  0  0
    7.7933    7.9901    0.8494 N   0  0  0  0  0  0  0  0  0  0  0  0
    8.4125    8.8837    1.0487 N   0  0  0  0  0  0  0  0  0  0  0  0
  1  7  1  0  0  0  0
  2  1  2  0  0  0  0
  3  2  1  0  0  0  0
  4  3  2  0  0  0  0
  4  5  1  0  0  0  0
  5  6  2  0  0  0  0
  6  1  1  0  0  0  0
  6 11  1  0  0  0  0
  8  2  1  0  0  0  0
  9  4  1  0  0  0  0
 10  5  1  0  0  0  0
 11 12  2  0  0  0  0
 13 11  2  0  0  0  0
 14 15  3  0  0  0  0
M  RAD  1   3   2
M  END
