Coordinates from ORCA-job 4-NO2-Ph-N2+-B3LYPG-6-31G_dp-MTMO-d009-169-n800
 OpenBabel09051908243D

 15 14  0  0  0  0  0  0  0  0999 V2000
   -2.5630   -0.2322   -0.6090 C   0  0  0  0  0  0  0  0  0  0  0  0
   -1.1467   -0.3171   -0.7624 C   0  0  0  0  0  0  0  0  0  0  0  0
   -0.7020    0.7947   -0.1835 C   0  0  0  0  0  0  0  0  0  0  0  0
   -0.9730    1.9262    0.4608 C   0  0  0  0  0  0  0  0  0  0  0  0
   -2.3963    1.9206    0.5650 C   0  0  0  0  0  0  0  0  0  0  0  0
   -3.1376    0.8625    0.0378 C   0  0  0  0  0  0  0  0  0  0  0  0
   -3.1780   -1.0372   -1.0056 H   0  0  0  0  0  0  0  0  0  0  0  0
   -0.6176   -1.1297   -1.2483 H   0  0  0  0  0  0  0  0  0  0  0  0
   -0.3209    2.7055    0.8400 H   0  0  0  0  0  0  0  0  0  0  0  0
   -2.8848    2.7567    1.0612 H   0  0  0  0  0  0  0  0  0  0  0  0
   -4.6168    0.9033    0.1729 N   0  0  0  0  0  0  0  0  0  0  0  0
   -5.2268   -0.0437   -0.3016 O   0  0  0  0  0  0  0  0  0  0  0  0
   -5.0782    1.8796    0.7457 O   0  0  0  0  0  0  0  0  0  0  0  0
    4.6747    0.9959   -0.4198 N   0  0  0  0  0  0  0  0  0  0  0  0
    5.7784    1.0164   -0.4720 N   0  0  0  0  0  0  0  0  0  0  0  0
  1  6  1  0  0  0  0
  2  1  2  0  0  0  0
  2  3  1  0  0  0  0
  3  4  2  0  0  0  0
  4  5  1  0  0  0  0
  4  9  1  0  0  0  0
  5 10  1  0  0  0  0
  6 11  1  0  0  0  0
  6  5  2  0  0  0  0
  7  1  1  0  0  0  0
  8  2  1  0  0  0  0
 11 13  2  0  0  0  0
 12 11  2  0  0  0  0
 15 14  3  0  0  0  0
M  RAD  1   3   2
M  END
