Coordinates from ORCA-job 4-NO2-Ph-N2+-B3LYPG-6-31G_dp-MTMO-d009-169-n800
 OpenBabel09051908243D

 15 14  0  0  0  0  0  0  0  0999 V2000
   -3.5508    0.0155   -0.0269 C   0  0  0  0  0  0  0  0  0  0  0  0
   -3.4379   -1.3303   -0.4879 C   0  0  0  0  0  0  0  0  0  0  0  0
   -2.1389   -1.4675   -0.7380 C   0  0  0  0  0  0  0  0  0  0  0  0
   -0.9224   -0.9301   -0.7532 C   0  0  0  0  0  0  0  0  0  0  0  0
   -1.1370    0.4000   -0.2824 C   0  0  0  0  0  0  0  0  0  0  0  0
   -2.4199    0.8279    0.0612 C   0  0  0  0  0  0  0  0  0  0  0  0
   -4.5340    0.3892    0.2511 H   0  0  0  0  0  0  0  0  0  0  0  0
   -4.2627   -2.0273   -0.5894 H   0  0  0  0  0  0  0  0  0  0  0  0
    0.0380   -1.3444   -1.0395 H   0  0  0  0  0  0  0  0  0  0  0  0
   -0.2803    1.0658   -0.1978 H   0  0  0  0  0  0  0  0  0  0  0  0
   -2.5909    2.2221    0.5459 N   0  0  0  0  0  0  0  0  0  0  0  0
   -3.7307    2.5538    0.8374 O   0  0  0  0  0  0  0  0  0  0  0  0
   -1.5754    2.8995    0.6051 O   0  0  0  0  0  0  0  0  0  0  0  0
    3.7359    4.4356    0.2727 N   0  0  0  0  0  0  0  0  0  0  0  0
    4.4186    5.2917    0.4227 N   0  0  0  0  0  0  0  0  0  0  0  0
  1  6  1  0  0  0  0
  1  7  1  0  0  0  0
  2  1  2  0  0  0  0
  3  2  1  0  0  0  0
  4  3  2  0  0  0  0
  4  5  1  0  0  0  0
  5 10  1  0  0  0  0
  5  6  2  0  0  0  0
  6 11  1  0  0  0  0
  8  2  1  0  0  0  0
  9  4  1  0  0  0  0
 11 13  2  0  0  0  0
 11 12  2  0  0  0  0
 14 15  3  0  0  0  0
M  RAD  1   3   2
M  END
