Coordinates from ORCA-job 4-NO2-Ph-N2+-B3LYPG-6-31G_dp-MTMO-d009-169-n800
 OpenBabel09051908243D

 15 14  0  0  0  0  0  0  0  0999 V2000
   -2.1667   -0.2102   -0.6211 C   0  0  0  0  0  0  0  0  0  0  0  0
   -0.7497   -0.2524   -0.7449 C   0  0  0  0  0  0  0  0  0  0  0  0
   -0.3212    0.8675   -0.1593 C   0  0  0  0  0  0  0  0  0  0  0  0
   -0.6630    1.9872    0.4811 C   0  0  0  0  0  0  0  0  0  0  0  0
   -2.0833    1.9445    0.5585 C   0  0  0  0  0  0  0  0  0  0  0  0
   -2.7837    0.8670    0.0156 C   0  0  0  0  0  0  0  0  0  0  0  0
   -2.7545   -1.0287   -1.0291 H   0  0  0  0  0  0  0  0  0  0  0  0
   -0.1912   -1.0491   -1.2215 H   0  0  0  0  0  0  0  0  0  0  0  0
   -0.0432    2.7840    0.8744 H   0  0  0  0  0  0  0  0  0  0  0  0
   -2.6083    2.7630    1.0451 H   0  0  0  0  0  0  0  0  0  0  0  0
   -4.2661    0.8663    0.1215 N   0  0  0  0  0  0  0  0  0  0  0  0
   -4.8417   -0.0959   -0.3658 O   0  0  0  0  0  0  0  0  0  0  0  0
   -4.7675    1.8278    0.6861 O   0  0  0  0  0  0  0  0  0  0  0  0
    2.3748    0.8659   -0.3436 N   0  0  0  0  0  0  0  0  0  0  0  0
    3.4769    0.8646   -0.4159 N   0  0  0  0  0  0  0  0  0  0  0  0
  1  6  1  0  0  0  0
  2  1  2  0  0  0  0
  2  3  1  0  0  0  0
  3  4  2  0  0  0  0
  4  5  1  0  0  0  0
  4  9  1  0  0  0  0
  5 10  1  0  0  0  0
  6 11  1  0  0  0  0
  6  5  2  0  0  0  0
  7  1  1  0  0  0  0
  8  2  1  0  0  0  0
 11 13  2  0  0  0  0
 12 11  2  0  0  0  0
 15 14  3  0  0  0  0
M  RAD  1   3   2
M  END
