Coordinates from ORCA-job 4-NO2-Ph-N2+-B3LYPG-6-31G_dp-MTMO-d009-169-n800
 OpenBabel09051908243D

 15 14  0  0  0  0  0  0  0  0999 V2000
   -4.0357   -0.2912   -0.0243 C   0  0  0  0  0  0  0  0  0  0  0  0
   -4.0856   -1.6545   -0.4432 C   0  0  0  0  0  0  0  0  0  0  0  0
   -2.8243   -1.9299   -0.7629 C   0  0  0  0  0  0  0  0  0  0  0  0
   -1.5635   -1.5193   -0.8668 C   0  0  0  0  0  0  0  0  0  0  0  0
   -1.6156   -0.1613   -0.4314 C   0  0  0  0  0  0  0  0  0  0  0  0
   -2.8262    0.4045   -0.0300 C   0  0  0  0  0  0  0  0  0  0  0  0
   -4.9584    0.1876    0.2968 H   0  0  0  0  0  0  0  0  0  0  0  0
   -4.9801   -2.2671   -0.4714 H   0  0  0  0  0  0  0  0  0  0  0  0
   -0.6685   -2.0373   -1.1934 H   0  0  0  0  0  0  0  0  0  0  0  0
   -0.6935    0.4163   -0.4195 H   0  0  0  0  0  0  0  0  0  0  0  0
   -2.8272    1.8222    0.4147 N   0  0  0  0  0  0  0  0  0  0  0  0
   -3.9076    2.2765    0.7617 O   0  0  0  0  0  0  0  0  0  0  0  0
   -1.7475    2.3946    0.3898 O   0  0  0  0  0  0  0  0  0  0  0  0
    6.8537    7.2394    0.7339 N   0  0  0  0  0  0  0  0  0  0  0  0
    7.4915    8.1211    0.9271 N   0  0  0  0  0  0  0  0  0  0  0  0
  1  7  1  0  0  0  0
  2  1  2  0  0  0  0
  3  2  1  0  0  0  0
  4  3  2  0  0  0  0
  4  5  1  0  0  0  0
  5 10  1  0  0  0  0
  5  6  2  0  0  0  0
  6  1  1  0  0  0  0
  6 11  1  0  0  0  0
  8  2  1  0  0  0  0
  9  4  1  0  0  0  0
 11 12  2  0  0  0  0
 13 11  2  0  0  0  0
 14 15  3  0  0  0  0
M  RAD  1   3   2
M  END
