Coordinates from ORCA-job 4-NO2-Ph-N2+-B3LYPG-6-31G_dp-MTMO-d009-169-n800
 OpenBabel09051908243D

 15 14  0  0  0  0  0  0  0  0999 V2000
   -3.7187   -0.0724   -0.0225 C   0  0  0  0  0  0  0  0  0  0  0  0
   -3.6963   -1.4284   -0.4669 C   0  0  0  0  0  0  0  0  0  0  0  0
   -2.4145   -1.6441   -0.7484 C   0  0  0  0  0  0  0  0  0  0  0  0
   -1.1697   -1.1788   -0.8025 C   0  0  0  0  0  0  0  0  0  0  0  0
   -1.2942    0.1673   -0.3450 C   0  0  0  0  0  0  0  0  0  0  0  0
   -2.5405    0.6736    0.0254 C   0  0  0  0  0  0  0  0  0  0  0  0
   -4.6710    0.3611    0.2752 H   0  0  0  0  0  0  0  0  0  0  0  0
   -4.5624   -2.0774   -0.5364 H   0  0  0  0  0  0  0  0  0  0  0  0
   -0.2431   -1.6519   -1.1082 H   0  0  0  0  0  0  0  0  0  0  0  0
   -0.3986    0.7831   -0.2922 H   0  0  0  0  0  0  0  0  0  0  0  0
   -2.6172    2.0811    0.4956 N   0  0  0  0  0  0  0  0  0  0  0  0
   -3.7286    2.4846    0.8057 O   0  0  0  0  0  0  0  0  0  0  0  0
   -1.5616    2.6965    0.5264 O   0  0  0  0  0  0  0  0  0  0  0  0
    4.7888    5.4653    0.4506 N   0  0  0  0  0  0  0  0  0  0  0  0
    5.4389    6.3421    0.6243 N   0  0  0  0  0  0  0  0  0  0  0  0
  1  6  1  0  0  0  0
  1  7  1  0  0  0  0
  2  1  2  0  0  0  0
  3  2  1  0  0  0  0
  4  3  2  0  0  0  0
  4  5  1  0  0  0  0
  5 10  1  0  0  0  0
  5  6  2  0  0  0  0
  6 11  1  0  0  0  0
  8  2  1  0  0  0  0
  9  4  1  0  0  0  0
 11 13  2  0  0  0  0
 11 12  2  0  0  0  0
 14 15  3  0  0  0  0
M  RAD  1   3   2
M  END
