Coordinates from ORCA-job 4-NO2-Ph-N2+-B3LYPG-6-31G_dp-MTMO-d009-169-n800
 OpenBabel09051908243D

 15 15  0  0  0  0  0  0  0  0999 V2000
   -2.0248   -0.2122   -0.6312 C   0  0  0  0  0  0  0  0  0  0  0  0
   -0.6403   -0.2274   -0.7361 C   0  0  0  0  0  0  0  0  0  0  0  0
    0.0470    0.8667   -0.1826 C   0  0  0  0  0  0  0  0  0  0  0  0
   -0.5561    1.9610    0.4612 C   0  0  0  0  0  0  0  0  0  0  0  0
   -1.9418    1.9462    0.5500 C   0  0  0  0  0  0  0  0  0  0  0  0
   -2.6397    0.8671    0.0054 C   0  0  0  0  0  0  0  0  0  0  0  0
   -2.6323   -1.0160   -1.0305 H   0  0  0  0  0  0  0  0  0  0  0  0
   -0.1135   -1.0423   -1.2202 H   0  0  0  0  0  0  0  0  0  0  0  0
    0.0329    2.7755    0.8678 H   0  0  0  0  0  0  0  0  0  0  0  0
   -2.4879    2.7502    1.0299 H   0  0  0  0  0  0  0  0  0  0  0  0
   -4.1293    0.8669    0.1104 N   0  0  0  0  0  0  0  0  0  0  0  0
   -4.7072   -0.0941   -0.3768 O   0  0  0  0  0  0  0  0  0  0  0  0
   -4.6335    1.8276    0.6742 O   0  0  0  0  0  0  0  0  0  0  0  0
    1.4642    0.8663   -0.2815 N   0  0  0  0  0  0  0  0  0  0  0  0
    2.5739    0.8660   -0.3590 N   0  0  0  0  0  0  0  0  0  0  0  0
  1  6  1  0  0  0  0
  2  1  2  0  0  0  0
  2  3  1  0  0  0  0
  3  4  2  0  0  0  0
  4  5  1  0  0  0  0
  4  9  1  0  0  0  0
  5 10  1  0  0  0  0
  6 11  1  0  0  0  0
  6  5  2  0  0  0  0
  7  1  1  0  0  0  0
  8  2  1  0  0  0  0
 11 13  2  0  0  0  0
 12 11  2  0  0  0  0
 14  3  1  0  0  0  0
 15 14  1  0  0  0  0
M  RAD  2  14   2  15   3
M  END
