Coordinates from ORCA-job 4-NO2-Ph-N2+-B3LYPG-6-31G_dp-MTMO-d009-169-n800
 OpenBabel09051908243D

 15 14  0  0  0  0  0  0  0  0999 V2000
   -2.6050   -0.2374   -0.6089 C   0  0  0  0  0  0  0  0  0  0  0  0
   -1.1899   -0.3332   -0.7673 C   0  0  0  0  0  0  0  0  0  0  0  0
   -0.7347    0.7754   -0.1905 C   0  0  0  0  0  0  0  0  0  0  0  0
   -0.9949    1.9092    0.4543 C   0  0  0  0  0  0  0  0  0  0  0  0
   -2.4178    1.9145    0.5636 C   0  0  0  0  0  0  0  0  0  0  0  0
   -3.1690    0.8619    0.0394 C   0  0  0  0  0  0  0  0  0  0  0  0
   -3.2275   -1.0379   -1.0031 H   0  0  0  0  0  0  0  0  0  0  0  0
   -0.6689   -1.1500   -1.2547 H   0  0  0  0  0  0  0  0  0  0  0  0
   -0.3356    2.6836    0.8310 H   0  0  0  0  0  0  0  0  0  0  0  0
   -2.8981    2.7545    1.0612 H   0  0  0  0  0  0  0  0  0  0  0  0
   -4.6473    0.9140    0.1796 N   0  0  0  0  0  0  0  0  0  0  0  0
   -5.2662   -0.0286   -0.2924 O   0  0  0  0  0  0  0  0  0  0  0  0
   -5.0993    1.8940    0.7535 O   0  0  0  0  0  0  0  0  0  0  0  0
    4.8810    1.0271   -0.4181 N   0  0  0  0  0  0  0  0  0  0  0  0
    5.9847    1.0543   -0.4664 N   0  0  0  0  0  0  0  0  0  0  0  0
  1  6  1  0  0  0  0
  2  1  2  0  0  0  0
  2  3  1  0  0  0  0
  3  4  2  0  0  0  0
  4  5  1  0  0  0  0
  4  9  1  0  0  0  0
  5 10  1  0  0  0  0
  6 11  1  0  0  0  0
  6  5  2  0  0  0  0
  7  1  1  0  0  0  0
  8  2  1  0  0  0  0
 11 13  2  0  0  0  0
 12 11  2  0  0  0  0
 15 14  3  0  0  0  0
M  RAD  1   3   2
M  END
