Coordinates from ORCA-job 4-NO2-Ph-N2+-B3LYPG-6-31G_dp-MTMO-d009-169-n800
 OpenBabel09051908243D

 15 14  0  0  0  0  0  0  0  0999 V2000
   -4.3274   -0.5171   -0.0333 C   0  0  0  0  0  0  0  0  0  0  0  0
   -4.3980   -1.8852   -0.4336 C   0  0  0  0  0  0  0  0  0  0  0  0
   -3.1464   -2.1752   -0.7775 C   0  0  0  0  0  0  0  0  0  0  0  0
   -1.8848   -1.7768   -0.9143 C   0  0  0  0  0  0  0  0  0  0  0  0
   -1.9159   -0.4131   -0.4953 C   0  0  0  0  0  0  0  0  0  0  0  0
   -3.1126    0.1681   -0.0746 C   0  0  0  0  0  0  0  0  0  0  0  0
   -5.2387   -0.0264    0.3020 H   0  0  0  0  0  0  0  0  0  0  0  0
   -5.2980   -2.4903   -0.4341 H   0  0  0  0  0  0  0  0  0  0  0  0
   -1.0017   -2.3069   -1.2537 H   0  0  0  0  0  0  0  0  0  0  0  0
   -0.9890    0.1567   -0.5109 H   0  0  0  0  0  0  0  0  0  0  0  0
   -3.0920    1.5914    0.3516 N   0  0  0  0  0  0  0  0  0  0  0  0
   -4.1601    2.0587    0.7186 O   0  0  0  0  0  0  0  0  0  0  0  0
   -2.0087    2.1546    0.2930 O   0  0  0  0  0  0  0  0  0  0  0  0
    8.8012    8.7735    0.9677 N   0  0  0  0  0  0  0  0  0  0  0  0
    9.3839    9.6894    1.1754 N   0  0  0  0  0  0  0  0  0  0  0  0
  1  7  1  0  0  0  0
  2  1  2  0  0  0  0
  3  2  1  0  0  0  0
  4  3  2  0  0  0  0
  4  5  1  0  0  0  0
  5  6  2  0  0  0  0
  6  1  1  0  0  0  0
  6 11  1  0  0  0  0
  8  2  1  0  0  0  0
  9  4  1  0  0  0  0
 10  5  1  0  0  0  0
 11 12  2  0  0  0  0
 13 11  2  0  0  0  0
 14 15  3  0  0  0  0
M  RAD  1   3   2
M  END
