Coordinates from ORCA-job 4-NO2-Ph-N2+-B3LYPG-6-31G_dp-MTMO-d009-169-n800
 OpenBabel09051908243D

 15 14  0  0  0  0  0  0  0  0999 V2000
   -3.3593    0.2150    0.0060 C   0  0  0  0  0  0  0  0  0  0  0  0
   -3.4195   -1.1419   -0.4331 C   0  0  0  0  0  0  0  0  0  0  0  0
   -2.1549   -1.4315   -0.7256 C   0  0  0  0  0  0  0  0  0  0  0  0
   -0.8861   -1.0369   -0.7926 C   0  0  0  0  0  0  0  0  0  0  0  0
   -0.9280    0.3157   -0.3396 C   0  0  0  0  0  0  0  0  0  0  0  0
   -2.1403    0.8931    0.0399 C   0  0  0  0  0  0  0  0  0  0  0  0
   -4.2826    0.7028    0.3113 H   0  0  0  0  0  0  0  0  0  0  0  0
   -4.3223   -1.7400   -0.4911 H   0  0  0  0  0  0  0  0  0  0  0  0
    0.0087   -1.5637   -1.1053 H   0  0  0  0  0  0  0  0  0  0  0  0
    0.0017    0.8806   -0.2975 H   0  0  0  0  0  0  0  0  0  0  0  0
   -2.1332    2.3046    0.5045 N   0  0  0  0  0  0  0  0  0  0  0  0
   -3.2161    2.7692    0.8300 O   0  0  0  0  0  0  0  0  0  0  0  0
   -1.0455    2.8620    0.5156 O   0  0  0  0  0  0  0  0  0  0  0  0
    2.4829    4.0156    0.3052 N   0  0  0  0  0  0  0  0  0  0  0  0
    3.0059    4.9569    0.5535 N   0  0  0  0  0  0  0  0  0  0  0  0
  1  6  1  0  0  0  0
  1  7  1  0  0  0  0
  2  1  2  0  0  0  0
  3  2  1  0  0  0  0
  4  3  2  0  0  0  0
  4  5  1  0  0  0  0
  5 10  1  0  0  0  0
  5  6  2  0  0  0  0
  6 11  1  0  0  0  0
  8  2  1  0  0  0  0
  9  4  1  0  0  0  0
 11 13  2  0  0  0  0
 11 12  2  0  0  0  0
 14 15  3  0  0  0  0
M  RAD  1   3   2
M  END
