Coordinates from ORCA-job 4-NO2-Ph-N2+-B3LYPG-6-31G_dp-MTMO-d009-169-n800
 OpenBabel09051908243D

 15 14  0  0  0  0  0  0  0  0999 V2000
   -3.9933   -0.2623   -0.0251 C   0  0  0  0  0  0  0  0  0  0  0  0
   -4.0316   -1.6246   -0.4485 C   0  0  0  0  0  0  0  0  0  0  0  0
   -2.7667   -1.8909   -0.7618 C   0  0  0  0  0  0  0  0  0  0  0  0
   -1.5081   -1.4718   -0.8572 C   0  0  0  0  0  0  0  0  0  0  0  0
   -1.5718   -0.1155   -0.4180 C   0  0  0  0  0  0  0  0  0  0  0  0
   -2.7882    0.4412   -0.0218 C   0  0  0  0  0  0  0  0  0  0  0  0
   -4.9208    0.2095    0.2921 H   0  0  0  0  0  0  0  0  0  0  0  0
   -4.9217   -2.2432   -0.4838 H   0  0  0  0  0  0  0  0  0  0  0  0
   -0.6076   -1.9824   -1.1802 H   0  0  0  0  0  0  0  0  0  0  0  0
   -0.6535    0.4681   -0.3990 H   0  0  0  0  0  0  0  0  0  0  0  0
   -2.8011    1.8575    0.4272 N   0  0  0  0  0  0  0  0  0  0  0  0
   -3.8867    2.3038    0.7685 O   0  0  0  0  0  0  0  0  0  0  0  0
   -1.7249    2.4369    0.4111 O   0  0  0  0  0  0  0  0  0  0  0  0
    6.5724    6.9983    0.6930 N   0  0  0  0  0  0  0  0  0  0  0  0
    7.2153    7.8767    0.8845 N   0  0  0  0  0  0  0  0  0  0  0  0
  1  6  1  0  0  0  0
  1  7  1  0  0  0  0
  2  1  2  0  0  0  0
  3  2  1  0  0  0  0
  4  3  2  0  0  0  0
  4  5  1  0  0  0  0
  5 10  1  0  0  0  0
  5  6  2  0  0  0  0
  6 11  1  0  0  0  0
  8  2  1  0  0  0  0
  9  4  1  0  0  0  0
 11 12  2  0  0  0  0
 13 11  2  0  0  0  0
 14 15  3  0  0  0  0
M  RAD  1   3   2
M  END
