Coordinates from ORCA-job 4-NO2-Ph-N2+-B3LYPG-6-31G_dp-MTMO-d009-169-n800
 OpenBabel09051908243D

 15 14  0  0  0  0  0  0  0  0999 V2000
   -4.3697   -0.5495   -0.0341 C   0  0  0  0  0  0  0  0  0  0  0  0
   -4.4439   -1.9183   -0.4313 C   0  0  0  0  0  0  0  0  0  0  0  0
   -3.1940   -2.2110   -0.7792 C   0  0  0  0  0  0  0  0  0  0  0  0
   -1.9323   -1.8149   -0.9215 C   0  0  0  0  0  0  0  0  0  0  0  0
   -1.9597   -0.4503   -0.5053 C   0  0  0  0  0  0  0  0  0  0  0  0
   -3.1540    0.1336   -0.0813 C   0  0  0  0  0  0  0  0  0  0  0  0
   -5.2789   -0.0567    0.3036 H   0  0  0  0  0  0  0  0  0  0  0  0
   -5.3448   -2.5221   -0.4271 H   0  0  0  0  0  0  0  0  0  0  0  0
   -1.0513   -2.3470   -1.2632 H   0  0  0  0  0  0  0  0  0  0  0  0
   -1.0320    0.1181   -0.5256 H   0  0  0  0  0  0  0  0  0  0  0  0
   -3.1295    1.5578    0.3418 N   0  0  0  0  0  0  0  0  0  0  0  0
   -4.1955    2.0276    0.7118 O   0  0  0  0  0  0  0  0  0  0  0  0
   -2.0456    2.1192    0.2781 O   0  0  0  0  0  0  0  0  0  0  0  0
    9.0844    8.9969    1.0022 N   0  0  0  0  0  0  0  0  0  0  0  0
    9.6581    9.9180    1.2122 N   0  0  0  0  0  0  0  0  0  0  0  0
  1  7  1  0  0  0  0
  2  8  1  0  0  0  0
  2  1  2  0  0  0  0
  3  2  1  0  0  0  0
  4  3  2  0  0  0  0
  4  5  1  0  0  0  0
  5  6  2  0  0  0  0
  6  1  1  0  0  0  0
  6 11  1  0  0  0  0
  9  4  1  0  0  0  0
 10  5  1  0  0  0  0
 11 12  2  0  0  0  0
 13 11  2  0  0  0  0
 14 15  3  0  0  0  0
M  RAD  1   3   2
M  END
