Coordinates from ORCA-job 4-NO2-Ph-N2+-B3LYPG-6-31G_dp-MTMO-d009-169-n800
 OpenBabel09051908243D

 15 14  0  0  0  0  0  0  0  0999 V2000
   -3.6796   -0.0515   -0.0227 C   0  0  0  0  0  0  0  0  0  0  0  0
   -3.6368   -1.4059   -0.4705 C   0  0  0  0  0  0  0  0  0  0  0  0
   -2.3507   -1.6039   -0.7457 C   0  0  0  0  0  0  0  0  0  0  0  0
   -1.1120   -1.1219   -0.7920 C   0  0  0  0  0  0  0  0  0  0  0  0
   -1.2569    0.2212   -0.3317 C   0  0  0  0  0  0  0  0  0  0  0  0
   -2.5117    0.7099    0.0333 C   0  0  0  0  0  0  0  0  0  0  0  0
   -4.6392    0.3685    0.2710 H   0  0  0  0  0  0  0  0  0  0  0  0
   -4.4938   -2.0661   -0.5467 H   0  0  0  0  0  0  0  0  0  0  0  0
   -0.1775   -1.5819   -1.0939 H   0  0  0  0  0  0  0  0  0  0  0  0
   -0.3697    0.8486   -0.2725 H   0  0  0  0  0  0  0  0  0  0  0  0
   -2.6097    2.1150    0.5066 N   0  0  0  0  0  0  0  0  0  0  0  0
   -3.7279    2.5026    0.8124 O   0  0  0  0  0  0  0  0  0  0  0  0
   -1.5627    2.7446    0.5439 O   0  0  0  0  0  0  0  0  0  0  0  0
    4.5426    5.2242    0.4090 N   0  0  0  0  0  0  0  0  0  0  0  0
    5.1971    6.0982    0.5805 N   0  0  0  0  0  0  0  0  0  0  0  0
  1  6  1  0  0  0  0
  1  7  1  0  0  0  0
  2  1  2  0  0  0  0
  3  2  1  0  0  0  0
  4  3  2  0  0  0  0
  4  5  1  0  0  0  0
  5 10  1  0  0  0  0
  5  6  2  0  0  0  0
  6 11  1  0  0  0  0
  8  2  1  0  0  0  0
  9  4  1  0  0  0  0
 11 13  2  0  0  0  0
 11 12  2  0  0  0  0
 14 15  3  0  0  0  0
M  RAD  1   3   2
M  END
