Coordinates from ORCA-job 4-NO2-Ph-N2+-B3LYPG-6-31G_dp-MTMO-d009-169-n800
 OpenBabel09051908243D

 15 14  0  0  0  0  0  0  0  0999 V2000
   -3.9527   -0.2312   -0.0242 C   0  0  0  0  0  0  0  0  0  0  0  0
   -3.9876   -1.5926   -0.4504 C   0  0  0  0  0  0  0  0  0  0  0  0
   -2.7212   -1.8566   -0.7599 C   0  0  0  0  0  0  0  0  0  0  0  0
   -1.4629   -1.4354   -0.8503 C   0  0  0  0  0  0  0  0  0  0  0  0
   -1.5301   -0.0800   -0.4086 C   0  0  0  0  0  0  0  0  0  0  0  0
   -2.7487    0.4741   -0.0154 C   0  0  0  0  0  0  0  0  0  0  0  0
   -4.8820    0.2387    0.2907 H   0  0  0  0  0  0  0  0  0  0  0  0
   -4.8767   -2.2124   -0.4901 H   0  0  0  0  0  0  0  0  0  0  0  0
   -0.5606   -1.9440   -1.1712 H   0  0  0  0  0  0  0  0  0  0  0  0
   -0.6127    0.5048   -0.3853 H   0  0  0  0  0  0  0  0  0  0  0  0
   -2.7652    1.8895    0.4364 N   0  0  0  0  0  0  0  0  0  0  0  0
   -3.8526    2.3335    0.7748 O   0  0  0  0  0  0  0  0  0  0  0  0
   -1.6898    2.4704    0.4252 O   0  0  0  0  0  0  0  0  0  0  0  0
    6.3047    6.7828    0.6592 N   0  0  0  0  0  0  0  0  0  0  0  0
    6.9495    7.6599    0.8503 N   0  0  0  0  0  0  0  0  0  0  0  0
  1  6  1  0  0  0  0
  1  7  1  0  0  0  0
  2  1  2  0  0  0  0
  3  2  1  0  0  0  0
  4  3  2  0  0  0  0
  4  5  1  0  0  0  0
  5 10  1  0  0  0  0
  5  6  2  0  0  0  0
  6 11  1  0  0  0  0
  8  2  1  0  0  0  0
  9  4  1  0  0  0  0
 11 12  2  0  0  0  0
 13 11  2  0  0  0  0
 14 15  3  0  0  0  0
M  RAD  1   3   2
M  END
