Coordinates from ORCA-job 4-NO2-Ph-N2+-B3LYPG-6-31G_dp-MTMO-d009-169-n800
 OpenBabel09051908243D

 15 14  0  0  0  0  0  0  0  0999 V2000
   -3.5203    0.0346   -0.0264 C   0  0  0  0  0  0  0  0  0  0  0  0
   -3.3995   -1.3100   -0.4890 C   0  0  0  0  0  0  0  0  0  0  0  0
   -2.0992   -1.4404   -0.7360 C   0  0  0  0  0  0  0  0  0  0  0  0
   -0.8853   -0.8969   -0.7473 C   0  0  0  0  0  0  0  0  0  0  0  0
   -1.1077    0.4316   -0.2752 C   0  0  0  0  0  0  0  0  0  0  0  0
   -2.3936    0.8525    0.0656 C   0  0  0  0  0  0  0  0  0  0  0  0
   -4.5060    0.4030    0.2496 H   0  0  0  0  0  0  0  0  0  0  0  0
   -4.2206   -2.0110   -0.5935 H   0  0  0  0  0  0  0  0  0  0  0  0
    0.0778   -1.3059   -1.0317 H   0  0  0  0  0  0  0  0  0  0  0  0
   -0.2545    1.1015   -0.1876 H   0  0  0  0  0  0  0  0  0  0  0  0
   -2.5730    2.2451    0.5518 N   0  0  0  0  0  0  0  0  0  0  0  0
   -3.7151    2.5705    0.8413 O   0  0  0  0  0  0  0  0  0  0  0  0
   -1.5611    2.9278    0.6138 O   0  0  0  0  0  0  0  0  0  0  0  0
    3.5418    4.2728    0.2489 N   0  0  0  0  0  0  0  0  0  0  0  0
    4.2279    5.1265    0.3967 N   0  0  0  0  0  0  0  0  0  0  0  0
  1  6  1  0  0  0  0
  1  7  1  0  0  0  0
  2  1  2  0  0  0  0
  3  2  1  0  0  0  0
  4  3  2  0  0  0  0
  4  5  1  0  0  0  0
  5 10  1  0  0  0  0
  5  6  2  0  0  0  0
  6 11  1  0  0  0  0
  8  2  1  0  0  0  0
  9  4  1  0  0  0  0
 11 13  2  0  0  0  0
 11 12  2  0  0  0  0
 14 15  3  0  0  0  0
M  RAD  1   3   2
M  END
