Coordinates from ORCA-job 4-NO2-Ph-N2+-B3LYPG-6-31G_dp-MTMO-d009-169-n800
 OpenBabel09051908243D

 15 14  0  0  0  0  0  0  0  0999 V2000
   -3.4852    0.0526   -0.0251 C   0  0  0  0  0  0  0  0  0  0  0  0
   -3.3481   -1.2901   -0.4889 C   0  0  0  0  0  0  0  0  0  0  0  0
   -2.0457   -1.4053   -0.7324 C   0  0  0  0  0  0  0  0  0  0  0  0
   -0.8381   -0.8479   -0.7395 C   0  0  0  0  0  0  0  0  0  0  0  0
   -1.0766    0.4774   -0.2666 C   0  0  0  0  0  0  0  0  0  0  0  0
   -2.3682    0.8832    0.0711 C   0  0  0  0  0  0  0  0  0  0  0  0
   -4.4758    0.4095    0.2486 H   0  0  0  0  0  0  0  0  0  0  0  0
   -4.1609   -2.0001   -0.5964 H   0  0  0  0  0  0  0  0  0  0  0  0
    0.1303   -1.2458   -1.0219 H   0  0  0  0  0  0  0  0  0  0  0  0
   -0.2312    1.1569   -0.1759 H   0  0  0  0  0  0  0  0  0  0  0  0
   -2.5649    2.2731    0.5583 N   0  0  0  0  0  0  0  0  0  0  0  0
   -3.7115    2.5849    0.8456 O   0  0  0  0  0  0  0  0  0  0  0  0
   -1.5612    2.9673    0.6236 O   0  0  0  0  0  0  0  0  0  0  0  0
    3.3202    4.0762    0.2112 N   0  0  0  0  0  0  0  0  0  0  0  0
    4.0284    4.9097    0.3694 N   0  0  0  0  0  0  0  0  0  0  0  0
  1  6  1  0  0  0  0
  1  7  1  0  0  0  0
  2  1  2  0  0  0  0
  3  2  1  0  0  0  0
  4  3  2  0  0  0  0
  4  5  1  0  0  0  0
  5 10  1  0  0  0  0
  5  6  2  0  0  0  0
  6 11  1  0  0  0  0
  8  2  1  0  0  0  0
  9  4  1  0  0  0  0
 11 13  2  0  0  0  0
 11 12  2  0  0  0  0
 14 15  3  0  0  0  0
M  RAD  1   3   2
M  END
