Coordinates from ORCA-job p-NO2-Ph-N2-Cl-B3LYPG-aug-cc-pVDZ-scan-d09-49-n400
 OpenBabel10311713223D

 16 16  0  0  0  0  0  0  0  0999 V2000
   -1.3618   -1.4877   -1.0613 C   0  0  0  0  0  0  0  0  0  0  0  0
   -0.0078   -1.2064   -1.1201 C   0  0  0  0  0  0  0  0  0  0  0  0
    0.4563    0.1431   -1.0066 C   0  0  0  0  0  0  0  0  0  0  0  0
   -0.5111    1.1847   -0.8370 C   0  0  0  0  0  0  0  0  0  0  0  0
   -1.8610    0.8831   -0.7806 C   0  0  0  0  0  0  0  0  0  0  0  0
   -2.2773   -0.4455   -0.8956 C   0  0  0  0  0  0  0  0  0  0  0  0
   -1.7199   -2.5114   -1.1398 H   0  0  0  0  0  0  0  0  0  0  0  0
    0.7256   -2.0003   -1.2469 H   0  0  0  0  0  0  0  0  0  0  0  0
   -0.1609    2.2112   -0.7483 H   0  0  0  0  0  0  0  0  0  0  0  0
   -2.6000    1.6691   -0.6449 H   0  0  0  0  0  0  0  0  0  0  0  0
   -3.7131   -0.7541   -0.8419 N   0  0  0  0  0  0  0  0  0  0  0  0
   -4.4922    0.1854   -0.6971 O   0  0  0  0  0  0  0  0  0  0  0  0
   -4.0464   -1.9323   -0.9479 O   0  0  0  0  0  0  0  0  0  0  0  0
    1.5889    0.3890   -1.0690 N   0  0  0  0  0  0  0  0  0  0  0  0
    2.6750    0.5730   -0.6910 N   0  0  0  0  0  0  0  0  0  0  0  0
    2.7867    0.3470    1.4242 Cl  0  0  0  0  0  0  0  0  0  0  0  0
  1  6  1  0  0  0  0
  2  1  2  0  0  0  0
  2  3  1  0  0  0  0
  3  4  2  0  0  0  0
  4  5  1  0  0  0  0
  4  9  1  0  0  0  0
  5 10  1  0  0  0  0
  6 11  1  0  0  0  0
  6  5  2  0  0  0  0
  7  1  1  0  0  0  0
  8  2  1  0  0  0  0
 11 12  2  0  0  0  0
 13 11  2  0  0  0  0
 14  3  1  0  0  0  0
 14 15  1  0  0  0  0
 15 16  1  0  0  0  0
M  RAD  2  14   2  15   2
M  END
