Coordinates from ORCA-job p-NO2-Ph-N2-Cl-B3LYPG-aug-cc-pVDZ-scan-d09-49-n400
 OpenBabel10311713223D

 16 16  0  0  0  0  0  0  0  0999 V2000
   -1.4997   -1.5734   -1.3209 C   0  0  0  0  0  0  0  0  0  0  0  0
   -0.1111   -1.4306   -1.2695 C   0  0  0  0  0  0  0  0  0  0  0  0
    0.3700   -0.2231   -0.7953 C   0  0  0  0  0  0  0  0  0  0  0  0
   -0.3765    0.8577   -0.3682 C   0  0  0  0  0  0  0  0  0  0  0  0
   -1.7664    0.6972   -0.4271 C   0  0  0  0  0  0  0  0  0  0  0  0
   -2.2953   -0.5058   -0.8985 C   0  0  0  0  0  0  0  0  0  0  0  0
   -1.9640   -2.4884   -1.6794 H   0  0  0  0  0  0  0  0  0  0  0  0
    0.5623   -2.2242   -1.5846 H   0  0  0  0  0  0  0  0  0  0  0  0
    0.1005    1.7672   -0.0106 H   0  0  0  0  0  0  0  0  0  0  0  0
   -2.4339    1.4952   -0.1113 H   0  0  0  0  0  0  0  0  0  0  0  0
   -3.7695   -0.6591   -0.9542 N   0  0  0  0  0  0  0  0  0  0  0  0
   -4.4514    0.2898   -0.5831 O   0  0  0  0  0  0  0  0  0  0  0  0
   -4.2114   -1.7235   -1.3745 O   0  0  0  0  0  0  0  0  0  0  0  0
    2.0911   -0.1694   -0.7825 N   0  0  0  0  0  0  0  0  0  0  0  0
    2.8904    0.6094   -0.4679 N   0  0  0  0  0  0  0  0  0  0  0  0
    2.3460    2.5289    0.3239 Cl  0  0  0  0  0  0  0  0  0  0  0  0
  1  2  2  0  0  0  0
  1  6  1  0  0  0  0
  2  3  1  0  0  0  0
  3 14  1  0  0  0  0
  3  4  2  0  0  0  0
  4  9  1  0  0  0  0
  5  4  1  0  0  0  0
  5 10  1  0  0  0  0
  6  5  2  0  0  0  0
  7  1  1  0  0  0  0
  8  2  1  0  0  0  0
 11  6  1  0  0  0  0
 11 12  2  0  0  0  0
 13 11  2  0  0  0  0
 14 15  2  0  0  0  0
 15 16  1  0  0  0  0
M  END
