Coordinates from ORCA-job p-NO2-Ph-N2-Cl-B3LYPG-aug-cc-pVDZ-scan-d09-49-n400
 OpenBabel10311713223D

 16 14  0  0  0  0  0  0  0  0999 V2000
   -1.5931   -1.5860   -1.3290 C   0  0  0  0  0  0  0  0  0  0  0  0
   -0.1836   -1.5198   -1.3048 C   0  0  0  0  0  0  0  0  0  0  0  0
    0.1737   -0.2847   -0.8153 C   0  0  0  0  0  0  0  0  0  0  0  0
   -0.4653    0.7201   -0.4157 C   0  0  0  0  0  0  0  0  0  0  0  0
   -1.8624    0.7215   -0.4131 C   0  0  0  0  0  0  0  0  0  0  0  0
   -2.3817   -0.4996   -0.8968 C   0  0  0  0  0  0  0  0  0  0  0  0
   -2.0905   -2.4858   -1.6853 H   0  0  0  0  0  0  0  0  0  0  0  0
    0.4606   -2.3320   -1.6281 H   0  0  0  0  0  0  0  0  0  0  0  0
    0.4487    2.4742    0.2787 H   0  0  0  0  0  0  0  0  0  0  0  0
   -2.5133    1.5298   -0.0915 H   0  0  0  0  0  0  0  0  0  0  0  0
   -3.8544   -0.6479   -0.9535 N   0  0  0  0  0  0  0  0  0  0  0  0
   -4.5326    0.3023   -0.5756 O   0  0  0  0  0  0  0  0  0  0  0  0
   -4.3096   -1.7082   -1.3735 O   0  0  0  0  0  0  0  0  0  0  0  0
    3.1559   -0.7559   -1.0064 N   0  0  0  0  0  0  0  0  0  0  0  0
    4.1492   -0.3078   -0.8294 N   0  0  0  0  0  0  0  0  0  0  0  0
    0.8795    3.6277    0.7356 Cl  0  0  0  0  0  0  0  0  0  0  0  0
  1  2  2  0  0  0  0
  1  6  1  0  0  0  0
  2  3  1  0  0  0  0
  3  4  2  0  0  0  0
  4  5  1  0  0  0  0
  5 10  1  0  0  0  0
  6  5  2  0  0  0  0
  7  1  1  0  0  0  0
  8  2  1  0  0  0  0
  9 16  1  0  0  0  0
 11  6  1  0  0  0  0
 11 12  2  0  0  0  0
 13 11  2  0  0  0  0
 14 15  3  0  0  0  0
M  RAD  2   3   2   4   2
M  END
