Coordinates from ORCA-job p-NO2-Ph-N2-Cl-B3LYPG-aug-cc-pVDZ-scan-d09-49-n400
 OpenBabel10311713223D

 16 16  0  0  0  0  0  0  0  0999 V2000
   -1.4750   -1.5659   -1.3158 C   0  0  0  0  0  0  0  0  0  0  0  0
   -0.0922   -1.4115   -1.2632 C   0  0  0  0  0  0  0  0  0  0  0  0
    0.4349   -0.2039   -0.7935 C   0  0  0  0  0  0  0  0  0  0  0  0
   -0.3640    0.8648   -0.3742 C   0  0  0  0  0  0  0  0  0  0  0  0
   -1.7490    0.7031   -0.4316 C   0  0  0  0  0  0  0  0  0  0  0  0
   -2.2761   -0.5020   -0.8978 C   0  0  0  0  0  0  0  0  0  0  0  0
   -1.9337   -2.4844   -1.6715 H   0  0  0  0  0  0  0  0  0  0  0  0
    0.5778   -2.2087   -1.5788 H   0  0  0  0  0  0  0  0  0  0  0  0
    0.0930    1.7832   -0.0165 H   0  0  0  0  0  0  0  0  0  0  0  0
   -2.4188    1.5000   -0.1188 H   0  0  0  0  0  0  0  0  0  0  0  0
   -3.7505   -0.6608   -0.9530 N   0  0  0  0  0  0  0  0  0  0  0  0
   -4.4355    0.2858   -0.5820 O   0  0  0  0  0  0  0  0  0  0  0  0
   -4.1881   -1.7299   -1.3656 O   0  0  0  0  0  0  0  0  0  0  0  0
    1.9154   -0.1524   -0.7846 N   0  0  0  0  0  0  0  0  0  0  0  0
    2.7881    0.5678   -0.4860 N   0  0  0  0  0  0  0  0  0  0  0  0
    2.3547    2.4626    0.3293 Cl  0  0  0  0  0  0  0  0  0  0  0  0
  1  2  2  0  0  0  0
  1  6  1  0  0  0  0
  2  3  1  0  0  0  0
  3 14  1  0  0  0  0
  3  4  2  0  0  0  0
  4  9  1  0  0  0  0
  5  4  1  0  0  0  0
  5 10  1  0  0  0  0
  6  5  2  0  0  0  0
  7  1  1  0  0  0  0
  8  2  1  0  0  0  0
 11  6  1  0  0  0  0
 11 12  2  0  0  0  0
 13 11  2  0  0  0  0
 14 15  2  0  0  0  0
 15 16  1  0  0  0  0
M  END
