Coordinates from ORCA-job p-NO2-Ph-N2-Cl-B3LYPG-aug-cc-pVDZ-scan-d09-49-n400
 OpenBabel10311713223D

 16 14  0  0  0  0  0  0  0  0999 V2000
   -1.5353   -1.4692   -1.2828 C   0  0  0  0  0  0  0  0  0  0  0  0
   -0.1391   -1.2777   -1.2087 C   0  0  0  0  0  0  0  0  0  0  0  0
    0.0936   -0.0145   -0.7079 C   0  0  0  0  0  0  0  0  0  0  0  0
   -0.6598    0.9176   -0.3370 C   0  0  0  0  0  0  0  0  0  0  0  0
   -2.0488    0.8032   -0.3805 C   0  0  0  0  0  0  0  0  0  0  0  0
   -2.4353   -0.4602   -0.8812 C   0  0  0  0  0  0  0  0  0  0  0  0
   -1.9368   -2.4095   -1.6553 H   0  0  0  0  0  0  0  0  0  0  0  0
    0.5839   -2.0308   -1.5085 H   0  0  0  0  0  0  0  0  0  0  0  0
    0.1409    2.7842    0.4024 H   0  0  0  0  0  0  0  0  0  0  0  0
   -2.7806    1.5490   -0.0836 H   0  0  0  0  0  0  0  0  0  0  0  0
   -3.8857   -0.7416   -0.9909 N   0  0  0  0  0  0  0  0  0  0  0  0
   -4.6605    0.1424   -0.6388 O   0  0  0  0  0  0  0  0  0  0  0  0
   -4.2274   -1.8381   -1.4250 O   0  0  0  0  0  0  0  0  0  0  0  0
    3.7320   -1.4364   -1.2772 N   0  0  0  0  0  0  0  0  0  0  0  0
    4.8165   -1.2436   -1.2022 N   0  0  0  0  0  0  0  0  0  0  0  0
    0.4233    3.9730    0.8736 Cl  0  0  0  0  0  0  0  0  0  0  0  0
  1  2  2  0  0  0  0
  1  6  1  0  0  0  0
  2  3  1  0  0  0  0
  3  4  2  0  0  0  0
  5  4  1  0  0  0  0
  5 10  1  0  0  0  0
  6  5  2  0  0  0  0
  7  1  1  0  0  0  0
  8  2  1  0  0  0  0
  9 16  1  0  0  0  0
 11  6  1  0  0  0  0
 11 12  2  0  0  0  0
 13 11  2  0  0  0  0
 14 15  3  0  0  0  0
M  RAD  2   3   2   4   2
M  END
