Coordinates from ORCA-job p-NO2-Ph-N2-Cl-B3LYPG-aug-cc-pVDZ-scan-d09-49-n400
 OpenBabel10311713223D

 16 14  0  0  0  0  0  0  0  0999 V2000
   -1.5538   -1.6216   -1.3434 C   0  0  0  0  0  0  0  0  0  0  0  0
   -0.1462   -1.5964   -1.3354 C   0  0  0  0  0  0  0  0  0  0  0  0
    0.2543   -0.3775   -0.8523 C   0  0  0  0  0  0  0  0  0  0  0  0
   -0.2968    0.6864   -0.4294 C   0  0  0  0  0  0  0  0  0  0  0  0
   -1.7054    0.6863   -0.4274 C   0  0  0  0  0  0  0  0  0  0  0  0
   -2.2885   -0.5042   -0.8989 C   0  0  0  0  0  0  0  0  0  0  0  0
   -2.0855   -2.5039   -1.6927 H   0  0  0  0  0  0  0  0  0  0  0  0
    0.4768   -2.4234   -1.6645 H   0  0  0  0  0  0  0  0  0  0  0  0
    0.5402    2.1377    0.1451 H   0  0  0  0  0  0  0  0  0  0  0  0
   -2.3217    1.5188   -0.0961 H   0  0  0  0  0  0  0  0  0  0  0  0
   -3.7672   -0.5939   -0.9324 N   0  0  0  0  0  0  0  0  0  0  0  0
   -4.4017    0.3811   -0.5438 O   0  0  0  0  0  0  0  0  0  0  0  0
   -4.2686   -1.6365   -1.3447 O   0  0  0  0  0  0  0  0  0  0  0  0
    2.4876   -0.3801   -0.8563 N   0  0  0  0  0  0  0  0  0  0  0  0
    3.3792    0.2266   -0.6159 N   0  0  0  0  0  0  0  0  0  0  0  0
    1.1783    3.2483    0.5846 Cl  0  0  0  0  0  0  0  0  0  0  0  0
  1  2  2  0  0  0  0
  1  6  1  0  0  0  0
  2  3  1  0  0  0  0
  3  4  2  0  0  0  0
  4  5  1  0  0  0  0
  5 10  1  0  0  0  0
  6  5  2  0  0  0  0
  7  1  1  0  0  0  0
  8  2  1  0  0  0  0
  9 16  1  0  0  0  0
 11  6  1  0  0  0  0
 11 12  2  0  0  0  0
 13 11  2  0  0  0  0
 14 15  3  0  0  0  0
M  RAD  2   3   2   4   2
M  END
