Coordinates from ORCA-job p-NO2-Ph-N2-Cl-B3LYPG-aug-cc-pVDZ-scan-d09-49-n400
 OpenBabel10311713223D

 16 14  0  0  0  0  0  0  0  0999 V2000
   -1.5140   -1.4441   -1.2731 C   0  0  0  0  0  0  0  0  0  0  0  0
   -0.1223   -1.2265   -1.1885 C   0  0  0  0  0  0  0  0  0  0  0  0
    0.0840    0.0408   -0.6859 C   0  0  0  0  0  0  0  0  0  0  0  0
   -0.6907    0.9578   -0.3210 C   0  0  0  0  0  0  0  0  0  0  0  0
   -2.0767    0.8181   -0.3746 C   0  0  0  0  0  0  0  0  0  0  0  0
   -2.4358   -0.4522   -0.8783 C   0  0  0  0  0  0  0  0  0  0  0  0
   -1.8950   -2.3917   -1.6486 H   0  0  0  0  0  0  0  0  0  0  0  0
    0.6167   -1.9661   -1.4830 H   0  0  0  0  0  0  0  0  0  0  0  0
    0.0761    2.8404    0.4248 H   0  0  0  0  0  0  0  0  0  0  0  0
   -2.8244    1.5502   -0.0832 H   0  0  0  0  0  0  0  0  0  0  0  0
   -3.8798   -0.7605   -0.9988 N   0  0  0  0  0  0  0  0  0  0  0  0
   -4.6736    0.1085   -0.6517 O   0  0  0  0  0  0  0  0  0  0  0  0
   -4.1977   -1.8635   -1.4346 O   0  0  0  0  0  0  0  0  0  0  0  0
    3.7955   -1.5723   -1.3311 N   0  0  0  0  0  0  0  0  0  0  0  0
    4.8882   -1.4255   -1.2744 N   0  0  0  0  0  0  0  0  0  0  0  0
    0.3307    4.0345    0.8982 Cl  0  0  0  0  0  0  0  0  0  0  0  0
  1  2  2  0  0  0  0
  1  6  1  0  0  0  0
  2  3  1  0  0  0  0
  3  4  2  0  0  0  0
  5  4  1  0  0  0  0
  5 10  1  0  0  0  0
  6  5  2  0  0  0  0
  7  1  1  0  0  0  0
  8  2  1  0  0  0  0
  9 16  1  0  0  0  0
 11  6  1  0  0  0  0
 11 12  2  0  0  0  0
 13 11  2  0  0  0  0
 14 15  3  0  0  0  0
M  RAD  2   3   2   4   2
M  END
