Coordinates from ORCA-job p-NO2-Ph-N2-Cl-B3LYPG-aug-cc-pVDZ-scan-d09-49-n400
 OpenBabel10311713223D

 16 14  0  0  0  0  0  0  0  0999 V2000
   -1.5604   -1.5047   -1.2980 C   0  0  0  0  0  0  0  0  0  0  0  0
   -0.1588   -1.3501   -1.2379 C   0  0  0  0  0  0  0  0  0  0  0  0
    0.1118   -0.0942   -0.7399 C   0  0  0  0  0  0  0  0  0  0  0  0
   -0.6106    0.8592   -0.3609 C   0  0  0  0  0  0  0  0  0  0  0  0
   -2.0028    0.7806   -0.3908 C   0  0  0  0  0  0  0  0  0  0  0  0
   -2.4286   -0.4717   -0.8874 C   0  0  0  0  0  0  0  0  0  0  0  0
   -1.9905   -2.4338   -1.6663 H   0  0  0  0  0  0  0  0  0  0  0  0
    0.5397   -2.1229   -1.5452 H   0  0  0  0  0  0  0  0  0  0  0  0
    0.2346    2.7005    0.3693 H   0  0  0  0  0  0  0  0  0  0  0  0
   -2.7114    1.5457   -0.0866 H   0  0  0  0  0  0  0  0  0  0  0  0
   -3.8871   -0.7137   -0.9822 N   0  0  0  0  0  0  0  0  0  0  0  0
   -4.6341    0.1886   -0.6166 O   0  0  0  0  0  0  0  0  0  0  0  0
   -4.2626   -1.8028   -1.4071 O   0  0  0  0  0  0  0  0  0  0  0  0
    3.6083   -1.2376   -1.1970 N   0  0  0  0  0  0  0  0  0  0  0  0
    4.6760   -0.9759   -1.0945 N   0  0  0  0  0  0  0  0  0  0  0  0
    0.5577    3.8805    0.8374 Cl  0  0  0  0  0  0  0  0  0  0  0  0
  1  2  2  0  0  0  0
  1  6  1  0  0  0  0
  2  3  1  0  0  0  0
  3  4  2  0  0  0  0
  5  4  1  0  0  0  0
  5 10  1  0  0  0  0
  6  5  2  0  0  0  0
  7  1  1  0  0  0  0
  8  2  1  0  0  0  0
  9 16  1  0  0  0  0
 11  6  1  0  0  0  0
 11 12  2  0  0  0  0
 13 11  2  0  0  0  0
 14 15  3  0  0  0  0
M  RAD  2   3   2   4   2
M  END
