Coordinates from ORCA-job p-NO2-Ph-N2-Cl-B3LYPG-aug-cc-pVDZ-scan-d09-49-n400
 OpenBabel10311713223D

 16 14  0  0  0  0  0  0  0  0999 V2000
   -1.5109   -1.4407   -1.2715 C   0  0  0  0  0  0  0  0  0  0  0  0
   -0.1199   -1.2193   -1.1855 C   0  0  0  0  0  0  0  0  0  0  0  0
    0.0829    0.0485   -0.6828 C   0  0  0  0  0  0  0  0  0  0  0  0
   -0.6948    0.9633   -0.3187 C   0  0  0  0  0  0  0  0  0  0  0  0
   -2.0804    0.8200   -0.3737 C   0  0  0  0  0  0  0  0  0  0  0  0
   -2.4357   -0.4513   -0.8776 C   0  0  0  0  0  0  0  0  0  0  0  0
   -1.8890   -2.3893   -1.6473 H   0  0  0  0  0  0  0  0  0  0  0  0
    0.6214   -1.9569   -1.4792 H   0  0  0  0  0  0  0  0  0  0  0  0
    0.0671    2.8482    0.4278 H   0  0  0  0  0  0  0  0  0  0  0  0
   -2.8303    1.5501   -0.0829 H   0  0  0  0  0  0  0  0  0  0  0  0
   -3.8787   -0.7634   -0.9994 N   0  0  0  0  0  0  0  0  0  0  0  0
   -4.6751    0.1041   -0.6543 O   0  0  0  0  0  0  0  0  0  0  0  0
   -4.1933   -1.8668   -1.4367 O   0  0  0  0  0  0  0  0  0  0  0  0
    3.8031   -1.5909   -1.3387 N   0  0  0  0  0  0  0  0  0  0  0  0
    4.8969   -1.4504   -1.2846 N   0  0  0  0  0  0  0  0  0  0  0  0
    0.3178    4.0429    0.9014 Cl  0  0  0  0  0  0  0  0  0  0  0  0
  1  2  2  0  0  0  0
  1  6  1  0  0  0  0
  2  3  1  0  0  0  0
  3  4  2  0  0  0  0
  5  4  1  0  0  0  0
  5 10  1  0  0  0  0
  6  5  2  0  0  0  0
  7  1  1  0  0  0  0
  8  2  1  0  0  0  0
  9 16  1  0  0  0  0
 11  6  1  0  0  0  0
 11 12  2  0  0  0  0
 13 11  2  0  0  0  0
 14 15  3  0  0  0  0
M  RAD  2   3   2   4   2
M  END
