Coordinates from ORCA-job p-NO2-Ph-N2-Cl-B3LYPG-aug-cc-pVDZ-scan-d09-49-n400
 OpenBabel10311713223D

 16 14  0  0  0  0  0  0  0  0999 V2000
   -1.5299   -1.5892   -1.3298 C   0  0  0  0  0  0  0  0  0  0  0  0
   -0.1341   -1.4730   -1.2859 C   0  0  0  0  0  0  0  0  0  0  0  0
    0.3150   -0.2670   -0.8083 C   0  0  0  0  0  0  0  0  0  0  0  0
   -0.3696    0.8323   -0.3713 C   0  0  0  0  0  0  0  0  0  0  0  0
   -1.7661    0.6871   -0.4267 C   0  0  0  0  0  0  0  0  0  0  0  0
   -2.3085   -0.5101   -0.9006 C   0  0  0  0  0  0  0  0  0  0  0  0
   -2.0087   -2.4969   -1.6890 H   0  0  0  0  0  0  0  0  0  0  0  0
    0.5324   -2.2709   -1.6033 H   0  0  0  0  0  0  0  0  0  0  0  0
    0.1429    1.7298   -0.0161 H   0  0  0  0  0  0  0  0  0  0  0  0
   -2.4220    1.4932   -0.1060 H   0  0  0  0  0  0  0  0  0  0  0  0
   -3.7844   -0.6456   -0.9520 N   0  0  0  0  0  0  0  0  0  0  0  0
   -4.4531    0.3098   -0.5745 O   0  0  0  0  0  0  0  0  0  0  0  0
   -4.2400   -1.7038   -1.3732 O   0  0  0  0  0  0  0  0  0  0  0  0
    2.2545   -0.1643   -0.7707 N   0  0  0  0  0  0  0  0  0  0  0  0
    2.9793    0.6580   -0.4457 N   0  0  0  0  0  0  0  0  0  0  0  0
    2.2735    2.6585    0.3492 Cl  0  0  0  0  0  0  0  0  0  0  0  0
  1  2  2  0  0  0  0
  1  6  1  0  0  0  0
  2  3  1  0  0  0  0
  3  4  2  0  0  0  0
  4  9  1  0  0  0  0
  5  4  1  0  0  0  0
  5 10  1  0  0  0  0
  6  5  2  0  0  0  0
  7  1  1  0  0  0  0
  8  2  1  0  0  0  0
 11  6  1  0  0  0  0
 11 12  2  0  0  0  0
 13 11  2  0  0  0  0
 14 15  3  0  0  0  0
M  RAD  2   3   2  16   2
M  END
