Coordinates from ORCA-job p-NO2-Ph-N2-Cl-B3LYPG-aug-cc-pVDZ-scan-d09-49-n400
 OpenBabel10311713223D

 16 16  0  0  0  0  0  0  0  0999 V2000
   -1.4621   -1.5657   -1.3067 C   0  0  0  0  0  0  0  0  0  0  0  0
   -0.0827   -1.4034   -1.2645 C   0  0  0  0  0  0  0  0  0  0  0  0
    0.4721   -0.1897   -0.8075 C   0  0  0  0  0  0  0  0  0  0  0  0
   -0.3582    0.8759   -0.3970 C   0  0  0  0  0  0  0  0  0  0  0  0
   -1.7401    0.7112   -0.4469 C   0  0  0  0  0  0  0  0  0  0  0  0
   -2.2660   -0.5008   -0.8964 C   0  0  0  0  0  0  0  0  0  0  0  0
   -1.9184   -2.4899   -1.6506 H   0  0  0  0  0  0  0  0  0  0  0  0
    0.5846   -2.2041   -1.5792 H   0  0  0  0  0  0  0  0  0  0  0  0
    0.0913    1.8015   -0.0475 H   0  0  0  0  0  0  0  0  0  0  0  0
   -2.4112    1.5095   -0.1402 H   0  0  0  0  0  0  0  0  0  0  0  0
   -3.7403   -0.6659   -0.9429 N   0  0  0  0  0  0  0  0  0  0  0  0
   -4.4268    0.2825   -0.5797 O   0  0  0  0  0  0  0  0  0  0  0  0
   -4.1750   -1.7410   -1.3429 O   0  0  0  0  0  0  0  0  0  0  0  0
    1.8115   -0.1225   -0.8042 N   0  0  0  0  0  0  0  0  0  0  0  0
    2.7335    0.5402   -0.5075 N   0  0  0  0  0  0  0  0  0  0  0  0
    2.3689    2.4101    0.4100 Cl  0  0  0  0  0  0  0  0  0  0  0  0
  1  2  2  0  0  0  0
  1  6  1  0  0  0  0
  2  3  1  0  0  0  0
  3 14  1  0  0  0  0
  3  4  2  0  0  0  0
  4  9  1  0  0  0  0
  5  4  1  0  0  0  0
  5 10  1  0  0  0  0
  6  5  2  0  0  0  0
  7  1  1  0  0  0  0
  8  2  1  0  0  0  0
 11  6  1  0  0  0  0
 11 12  2  0  0  0  0
 13 11  2  0  0  0  0
 14 15  2  0  0  0  0
 15 16  1  0  0  0  0
M  END
