Coordinates from ORCA-job p-NO2-Ph-N2-Cl-B3LYPG-aug-cc-pVDZ-scan-d09-49-n400
 OpenBabel10311713223D

 16 16  0  0  0  0  0  0  0  0999 V2000
   -1.3553   -1.4864   -1.0628 C   0  0  0  0  0  0  0  0  0  0  0  0
   -0.0011   -1.2014   -1.1356 C   0  0  0  0  0  0  0  0  0  0  0  0
    0.4547    0.1451   -1.0270 C   0  0  0  0  0  0  0  0  0  0  0  0
   -0.5037    1.1862   -0.8528 C   0  0  0  0  0  0  0  0  0  0  0  0
   -1.8544    0.8848   -0.7820 C   0  0  0  0  0  0  0  0  0  0  0  0
   -2.2691   -0.4444   -0.8898 C   0  0  0  0  0  0  0  0  0  0  0  0
   -1.7130   -2.5105   -1.1359 H   0  0  0  0  0  0  0  0  0  0  0  0
    0.7318   -1.9946   -1.2689 H   0  0  0  0  0  0  0  0  0  0  0  0
   -0.1539    2.2133   -0.7704 H   0  0  0  0  0  0  0  0  0  0  0  0
   -2.5930    1.6701   -0.6407 H   0  0  0  0  0  0  0  0  0  0  0  0
   -3.7055   -0.7549   -0.8213 N   0  0  0  0  0  0  0  0  0  0  0  0
   -4.4837    0.1839   -0.6705 O   0  0  0  0  0  0  0  0  0  0  0  0
   -4.0381   -1.9335   -0.9213 O   0  0  0  0  0  0  0  0  0  0  0  0
    1.6153    0.3989   -1.1071 N   0  0  0  0  0  0  0  0  0  0  0  0
    2.6781    0.5696   -0.6561 N   0  0  0  0  0  0  0  0  0  0  0  0
    2.6720    0.3217    1.4385 Cl  0  0  0  0  0  0  0  0  0  0  0  0
  1  6  1  0  0  0  0
  2  1  2  0  0  0  0
  2  3  1  0  0  0  0
  3  4  2  0  0  0  0
  4  5  1  0  0  0  0
  4  9  1  0  0  0  0
  5 10  1  0  0  0  0
  6 11  1  0  0  0  0
  6  5  2  0  0  0  0
  7  1  1  0  0  0  0
  8  2  1  0  0  0  0
 11 12  2  0  0  0  0
 13 11  2  0  0  0  0
 14  3  1  0  0  0  0
 14 15  1  0  0  0  0
 15 16  1  0  0  0  0
M  RAD  2  14   2  15   2
M  END
