Coordinates from ORCA-job p-NO2-Ph-N2-Cl-B3LYPG-aug-cc-pVDZ-scan-d09-49-n400
 OpenBabel10311713223D

 16 14  0  0  0  0  0  0  0  0999 V2000
   -1.5753   -1.6189   -1.3412 C   0  0  0  0  0  0  0  0  0  0  0  0
   -0.1654   -1.5904   -1.3329 C   0  0  0  0  0  0  0  0  0  0  0  0
    0.2237   -0.3673   -0.8482 C   0  0  0  0  0  0  0  0  0  0  0  0
   -0.3525    0.6750   -0.4334 C   0  0  0  0  0  0  0  0  0  0  0  0
   -1.7557    0.6924   -0.4236 C   0  0  0  0  0  0  0  0  0  0  0  0
   -2.3227   -0.5081   -0.8988 C   0  0  0  0  0  0  0  0  0  0  0  0
   -2.1021   -2.5041   -1.6914 H   0  0  0  0  0  0  0  0  0  0  0  0
    0.4576   -2.4169   -1.6621 H   0  0  0  0  0  0  0  0  0  0  0  0
    0.5303    2.2931    0.2066 H   0  0  0  0  0  0  0  0  0  0  0  0
   -2.3791    1.5196   -0.0940 H   0  0  0  0  0  0  0  0  0  0  0  0
   -3.8000   -0.6111   -0.9365 N   0  0  0  0  0  0  0  0  0  0  0  0
   -4.4441    0.3610   -0.5554 O   0  0  0  0  0  0  0  0  0  0  0  0
   -4.2923   -1.6552   -1.3558 O   0  0  0  0  0  0  0  0  0  0  0  0
    2.7334   -0.5014   -0.9060 N   0  0  0  0  0  0  0  0  0  0  0  0
    3.6579    0.0600   -0.6832 N   0  0  0  0  0  0  0  0  0  0  0  0
    1.0675    3.4201    0.6524 Cl  0  0  0  0  0  0  0  0  0  0  0  0
  1  2  2  0  0  0  0
  1  6  1  0  0  0  0
  2  3  1  0  0  0  0
  3  4  2  0  0  0  0
  4  5  1  0  0  0  0
  5 10  1  0  0  0  0
  6  5  2  0  0  0  0
  7  1  1  0  0  0  0
  8  2  1  0  0  0  0
  9 16  1  0  0  0  0
 11  6  1  0  0  0  0
 11 12  2  0  0  0  0
 13 11  2  0  0  0  0
 14 15  3  0  0  0  0
M  RAD  2   3   2   4   2
M  END
