Coordinates from ORCA-job p-NO2-Ph-N2-Cl-B3LYPG-aug-cc-pVDZ-scan-d09-49-n400
 OpenBabel10311713223D

 16 14  0  0  0  0  0  0  0  0999 V2000
   -1.1791   -1.2227   -1.1852 C   0  0  0  0  0  0  0  0  0  0  0  0
    0.1438   -0.7664   -1.0061 C   0  0  0  0  0  0  0  0  0  0  0  0
    0.0951    0.5159   -0.4973 C   0  0  0  0  0  0  0  0  0  0  0  0
   -0.8568    1.2747   -0.1949 C   0  0  0  0  0  0  0  0  0  0  0  0
   -2.1903    0.9003   -0.3415 C   0  0  0  0  0  0  0  0  0  0  0  0
   -2.2856   -0.4102   -0.8612 C   0  0  0  0  0  0  0  0  0  0  0  0
   -1.3614   -2.2199   -1.5805 H   0  0  0  0  0  0  0  0  0  0  0  0
    1.0165   -1.3674   -1.2458 H   0  0  0  0  0  0  0  0  0  0  0  0
   -0.4512    3.2738    0.5975 H   0  0  0  0  0  0  0  0  0  0  0  0
   -3.0722    1.4893   -0.1064 H   0  0  0  0  0  0  0  0  0  0  0  0
   -3.6416   -0.9654   -1.0794 N   0  0  0  0  0  0  0  0  0  0  0  0
   -4.5973   -0.2499   -0.7955 O   0  0  0  0  0  0  0  0  0  0  0  0
   -3.7309   -2.1033   -1.5322 O   0  0  0  0  0  0  0  0  0  0  0  0
    3.5142   -2.4927   -1.6962 N   0  0  0  0  0  0  0  0  0  0  0  0
    4.5280   -2.8984   -1.8588 N   0  0  0  0  0  0  0  0  0  0  0  0
   -0.4500    4.4901    1.0799 Cl  0  0  0  0  0  0  0  0  0  0  0  0
  1  2  2  0  0  0  0
  1  6  1  0  0  0  0
  2  3  1  0  0  0  0
  3  4  2  0  0  0  0
  5  4  1  0  0  0  0
  5 10  1  0  0  0  0
  6  5  2  0  0  0  0
  7  1  1  0  0  0  0
  8  2  1  0  0  0  0
  9 16  1  0  0  0  0
 11  6  1  0  0  0  0
 11 12  2  0  0  0  0
 13 11  2  0  0  0  0
 15 14  3  0  0  0  0
M  RAD  2   3   2   4   2
M  END
