Coordinates from ORCA-job p-NO2-Ph-N2-Cl-B3LYPG-aug-cc-pVDZ-scan-d09-49-n400
 OpenBabel10311713223D

 16 14  0  0  0  0  0  0  0  0999 V2000
   -1.5824   -1.5426   -1.3110 C   0  0  0  0  0  0  0  0  0  0  0  0
   -0.1764   -1.4273   -1.2676 C   0  0  0  0  0  0  0  0  0  0  0  0
    0.1340   -0.1800   -0.7734 C   0  0  0  0  0  0  0  0  0  0  0  0
   -0.5535    0.7956   -0.3854 C   0  0  0  0  0  0  0  0  0  0  0  0
   -1.9482    0.7543   -0.3994 C   0  0  0  0  0  0  0  0  0  0  0  0
   -2.4157   -0.4853   -0.8902 C   0  0  0  0  0  0  0  0  0  0  0  0
   -2.0429   -2.4593   -1.6737 H   0  0  0  0  0  0  0  0  0  0  0  0
    0.4972   -2.2189   -1.5826 H   0  0  0  0  0  0  0  0  0  0  0  0
    0.3341    2.6054    0.3312 H   0  0  0  0  0  0  0  0  0  0  0  0
   -2.6313    1.5390   -0.0871 H   0  0  0  0  0  0  0  0  0  0  0  0
   -3.8815   -0.6858   -0.9672 N   0  0  0  0  0  0  0  0  0  0  0  0
   -4.5982    0.2410   -0.6026 O   0  0  0  0  0  0  0  0  0  0  0  0
   -4.2929   -1.7602   -1.3965 O   0  0  0  0  0  0  0  0  0  0  0  0
    3.4478   -1.0237   -1.1136 N   0  0  0  0  0  0  0  0  0  0  0  0
    4.4878   -0.6790   -0.9790 N   0  0  0  0  0  0  0  0  0  0  0  0
    0.7030    3.7747    0.7945 Cl  0  0  0  0  0  0  0  0  0  0  0  0
  1  2  2  0  0  0  0
  1  6  1  0  0  0  0
  2  3  1  0  0  0  0
  3  4  2  0  0  0  0
  5  4  1  0  0  0  0
  5 10  1  0  0  0  0
  6  5  2  0  0  0  0
  7  1  1  0  0  0  0
  8  2  1  0  0  0  0
  9 16  1  0  0  0  0
 11  6  1  0  0  0  0
 11 12  2  0  0  0  0
 13 11  2  0  0  0  0
 14 15  3  0  0  0  0
M  RAD  2   3   2   4   2
M  END
