Coordinates from ORCA-job p-NO2-Ph-N2-Cl-B3LYPG-aug-cc-pVDZ-scan-d09-49-n400
 OpenBabel10311713223D

 16 14  0  0  0  0  0  0  0  0999 V2000
   -1.4549   -1.3885   -1.2509 C   0  0  0  0  0  0  0  0  0  0  0  0
   -0.0753   -1.1131   -1.1435 C   0  0  0  0  0  0  0  0  0  0  0  0
    0.0724    0.1624   -0.6376 C   0  0  0  0  0  0  0  0  0  0  0  0
   -0.7506    1.0419   -0.2876 C   0  0  0  0  0  0  0  0  0  0  0  0
   -2.1281    0.8474   -0.3629 C   0  0  0  0  0  0  0  0  0  0  0  0
   -2.4246   -0.4368   -0.8720 C   0  0  0  0  0  0  0  0  0  0  0  0
   -1.7894   -2.3511   -1.6324 H   0  0  0  0  0  0  0  0  0  0  0  0
    0.6969   -1.8230   -1.4262 H   0  0  0  0  0  0  0  0  0  0  0  0
   -0.0607    2.9630    0.4737 H   0  0  0  0  0  0  0  0  0  0  0  0
   -2.9102    1.5477   -0.0839 H   0  0  0  0  0  0  0  0  0  0  0  0
   -3.8521   -0.8058   -1.0165 N   0  0  0  0  0  0  0  0  0  0  0  0
   -4.6875    0.0292   -0.6837 O   0  0  0  0  0  0  0  0  0  0  0  0
   -4.1159   -1.9208   -1.4579 O   0  0  0  0  0  0  0  0  0  0  0  0
    3.8634   -1.8538   -1.4431 N   0  0  0  0  0  0  0  0  0  0  0  0
    4.9668   -1.8172   -1.4300 N   0  0  0  0  0  0  0  0  0  0  0  0
    0.1308    4.1666    0.9509 Cl  0  0  0  0  0  0  0  0  0  0  0  0
  1  2  2  0  0  0  0
  1  6  1  0  0  0  0
  2  3  1  0  0  0  0
  3  4  2  0  0  0  0
  5  4  1  0  0  0  0
  5 10  1  0  0  0  0
  6  5  2  0  0  0  0
  7  1  1  0  0  0  0
  8  2  1  0  0  0  0
  9 16  1  0  0  0  0
 11  6  1  0  0  0  0
 11 12  2  0  0  0  0
 13 11  2  0  0  0  0
 14 15  3  0  0  0  0
M  RAD  2   3   2   4   2
M  END
