Coordinates from ORCA-job p-NO2-Ph-N2-Cl-B3LYPG-aug-cc-pVDZ-scan-d09-49-n400
 OpenBabel10311713223D

 16 14  0  0  0  0  0  0  0  0999 V2000
   -1.5710   -1.5211   -1.3033 C   0  0  0  0  0  0  0  0  0  0  0  0
   -0.1674   -1.3832   -1.2504 C   0  0  0  0  0  0  0  0  0  0  0  0
    0.1206   -0.1308   -0.7541 C   0  0  0  0  0  0  0  0  0  0  0  0
   -0.5874    0.8320   -0.3712 C   0  0  0  0  0  0  0  0  0  0  0  0
   -1.9807    0.7694   -0.3942 C   0  0  0  0  0  0  0  0  0  0  0  0
   -2.4244   -0.4776   -0.8882 C   0  0  0  0  0  0  0  0  0  0  0  0
   -2.0141   -2.4451   -1.6692 H   0  0  0  0  0  0  0  0  0  0  0  0
    0.5208   -2.1639   -1.5611 H   0  0  0  0  0  0  0  0  0  0  0  0
    0.2770    2.6608    0.3533 H   0  0  0  0  0  0  0  0  0  0  0  0
   -2.6786    1.5430   -0.0864 H   0  0  0  0  0  0  0  0  0  0  0  0
   -3.8862   -0.7020   -0.9753 N   0  0  0  0  0  0  0  0  0  0  0  0
   -4.6203    0.2115   -0.6115 O   0  0  0  0  0  0  0  0  0  0  0  0
   -4.2771   -1.7844   -1.4035 O   0  0  0  0  0  0  0  0  0  0  0  0
    3.5467   -1.1467   -1.1618 N   0  0  0  0  0  0  0  0  0  0  0  0
    4.6040   -0.8506   -1.0463 N   0  0  0  0  0  0  0  0  0  0  0  0
    0.6192    3.8365    0.8194 Cl  0  0  0  0  0  0  0  0  0  0  0  0
  1  2  2  0  0  0  0
  1  6  1  0  0  0  0
  2  3  1  0  0  0  0
  3  4  2  0  0  0  0
  5  4  1  0  0  0  0
  5 10  1  0  0  0  0
  6  5  2  0  0  0  0
  7  1  1  0  0  0  0
  8  2  1  0  0  0  0
  9 16  1  0  0  0  0
 11  6  1  0  0  0  0
 11 12  2  0  0  0  0
 13 11  2  0  0  0  0
 14 15  3  0  0  0  0
M  RAD  2   3   2   4   2
M  END
