Coordinates from ORCA-job p-NO2-Ph-N2-Cl-B3LYPG-aug-cc-pVDZ-scan-d09-49-n400
 OpenBabel10311713223D

 16 14  0  0  0  0  0  0  0  0999 V2000
   -1.1724   -1.2163   -1.1830 C   0  0  0  0  0  0  0  0  0  0  0  0
    0.1482   -0.7543   -1.0015 C   0  0  0  0  0  0  0  0  0  0  0  0
    0.0934    0.5274   -0.4928 C   0  0  0  0  0  0  0  0  0  0  0  0
   -0.8617    1.2828   -0.1918 C   0  0  0  0  0  0  0  0  0  0  0  0
   -2.1934    0.9026   -0.3407 C   0  0  0  0  0  0  0  0  0  0  0  0
   -2.2826   -0.4082   -0.8608 C   0  0  0  0  0  0  0  0  0  0  0  0
   -1.3498   -2.2142   -1.5787 H   0  0  0  0  0  0  0  0  0  0  0  0
    1.0246   -1.3507   -1.2393 H   0  0  0  0  0  0  0  0  0  0  0  0
   -0.4658    3.2827    0.6011 H   0  0  0  0  0  0  0  0  0  0  0  0
   -3.0780    1.4881   -0.1072 H   0  0  0  0  0  0  0  0  0  0  0  0
   -3.6360   -0.9688   -1.0813 N   0  0  0  0  0  0  0  0  0  0  0  0
   -4.5950   -0.2576   -0.7977 O   0  0  0  0  0  0  0  0  0  0  0  0
   -3.7200   -2.1074   -1.5331 O   0  0  0  0  0  0  0  0  0  0  0  0
    3.5166   -2.5178   -1.7060 N   0  0  0  0  0  0  0  0  0  0  0  0
    4.5230   -2.9391   -1.8747 N   0  0  0  0  0  0  0  0  0  0  0  0
   -0.4700    4.4989    1.0837 Cl  0  0  0  0  0  0  0  0  0  0  0  0
  1  2  2  0  0  0  0
  1  6  1  0  0  0  0
  2  3  1  0  0  0  0
  3  4  2  0  0  0  0
  5  4  1  0  0  0  0
  5 10  1  0  0  0  0
  6  5  2  0  0  0  0
  7  1  1  0  0  0  0
  8  2  1  0  0  0  0
  9 16  1  0  0  0  0
 11  6  1  0  0  0  0
 11 12  2  0  0  0  0
 13 11  2  0  0  0  0
 15 14  3  0  0  0  0
M  RAD  2   3   2   4   2
M  END
