Coordinates from ORCA-job p-NO2-Ph-N2-Cl-B3LYPG-aug-cc-pVDZ-scan-d09-49-n400
 OpenBabel10311713223D

 16 16  0  0  0  0  0  0  0  0999 V2000
   -1.4657   -1.5655   -1.3099 C   0  0  0  0  0  0  0  0  0  0  0  0
   -0.0853   -1.4059   -1.2635 C   0  0  0  0  0  0  0  0  0  0  0  0
    0.4614   -0.1950   -0.8015 C   0  0  0  0  0  0  0  0  0  0  0  0
   -0.3593    0.8710   -0.3875 C   0  0  0  0  0  0  0  0  0  0  0  0
   -1.7422    0.7079   -0.4400 C   0  0  0  0  0  0  0  0  0  0  0  0
   -2.2687   -0.5012   -0.8962 C   0  0  0  0  0  0  0  0  0  0  0  0
   -1.9227   -2.4875   -1.6586 H   0  0  0  0  0  0  0  0  0  0  0  0
    0.5827   -2.2054   -1.5791 H   0  0  0  0  0  0  0  0  0  0  0  0
    0.0925    1.7939   -0.0344 H   0  0  0  0  0  0  0  0  0  0  0  0
   -2.4127    1.5056   -0.1306 H   0  0  0  0  0  0  0  0  0  0  0  0
   -3.7431   -0.6641   -0.9460 N   0  0  0  0  0  0  0  0  0  0  0  0
   -4.4291    0.2849   -0.5832 O   0  0  0  0  0  0  0  0  0  0  0  0
   -4.1788   -1.7363   -1.3526 O   0  0  0  0  0  0  0  0  0  0  0  0
    1.8412   -0.1328   -0.7963 N   0  0  0  0  0  0  0  0  0  0  0  0
    2.7485    0.5483   -0.5008 N   0  0  0  0  0  0  0  0  0  0  0  0
    2.3624    2.4298    0.3763 Cl  0  0  0  0  0  0  0  0  0  0  0  0
  1  2  2  0  0  0  0
  1  6  1  0  0  0  0
  2  3  1  0  0  0  0
  3 14  1  0  0  0  0
  3  4  2  0  0  0  0
  4  9  1  0  0  0  0
  5  4  1  0  0  0  0
  5 10  1  0  0  0  0
  6  5  2  0  0  0  0
  7  1  1  0  0  0  0
  8  2  1  0  0  0  0
 11  6  1  0  0  0  0
 11 12  2  0  0  0  0
 13 11  2  0  0  0  0
 14 15  2  0  0  0  0
 15 16  1  0  0  0  0
M  END
