Coordinates from ORCA-job p-NO2-Ph-N2-Cl-B3LYPG-aug-cc-pVDZ-scan-d09-49-n400
 OpenBabel10311713223D

 16 14  0  0  0  0  0  0  0  0999 V2000
   -1.5930   -1.5804   -1.3268 C   0  0  0  0  0  0  0  0  0  0  0  0
   -0.1838   -1.5078   -1.3001 C   0  0  0  0  0  0  0  0  0  0  0  0
    0.1674   -0.2710   -0.8099 C   0  0  0  0  0  0  0  0  0  0  0  0
   -0.4784    0.7298   -0.4119 C   0  0  0  0  0  0  0  0  0  0  0  0
   -1.8751    0.7259   -0.4114 C   0  0  0  0  0  0  0  0  0  0  0  0
   -2.3876   -0.4978   -0.8961 C   0  0  0  0  0  0  0  0  0  0  0  0
   -2.0856   -2.4825   -1.6840 H   0  0  0  0  0  0  0  0  0  0  0  0
    0.4642   -2.3175   -1.6223 H   0  0  0  0  0  0  0  0  0  0  0  0
    0.4342    2.4926    0.2861 H   0  0  0  0  0  0  0  0  0  0  0  0
   -2.5303    1.5311   -0.0909 H   0  0  0  0  0  0  0  0  0  0  0  0
   -3.8596   -0.6530   -0.9555 N   0  0  0  0  0  0  0  0  0  0  0  0
   -4.5429    0.2940   -0.5788 O   0  0  0  0  0  0  0  0  0  0  0  0
   -4.3091   -1.7154   -1.3764 O   0  0  0  0  0  0  0  0  0  0  0  0
    3.2016   -0.7902   -1.0200 N   0  0  0  0  0  0  0  0  0  0  0  0
    4.2032   -0.3583   -0.8496 N   0  0  0  0  0  0  0  0  0  0  0  0
    0.8562    3.6483    0.7439 Cl  0  0  0  0  0  0  0  0  0  0  0  0
  1  2  2  0  0  0  0
  1  6  1  0  0  0  0
  2  3  1  0  0  0  0
  3  4  2  0  0  0  0
  4  5  1  0  0  0  0
  5 10  1  0  0  0  0
  6  5  2  0  0  0  0
  7  1  1  0  0  0  0
  8  2  1  0  0  0  0
  9 16  1  0  0  0  0
 11  6  1  0  0  0  0
 11 12  2  0  0  0  0
 13 11  2  0  0  0  0
 14 15  3  0  0  0  0
M  RAD  2   3   2   4   2
M  END
