Coordinates from ORCA-job p-NO2-Ph-N2-Cl-B3LYPG-aug-cc-pVDZ-scan-d09-49-n400
 OpenBabel10311713223D

 16 14  0  0  0  0  0  0  0  0999 V2000
   -1.5026   -1.4319   -1.2681 C   0  0  0  0  0  0  0  0  0  0  0  0
   -0.1137   -1.2004   -1.1781 C   0  0  0  0  0  0  0  0  0  0  0  0
    0.0807    0.0684   -0.6748 C   0  0  0  0  0  0  0  0  0  0  0  0
   -0.7051    0.9772   -0.3132 C   0  0  0  0  0  0  0  0  0  0  0  0
   -2.0896    0.8249   -0.3718 C   0  0  0  0  0  0  0  0  0  0  0  0
   -2.4350   -0.4487   -0.8767 C   0  0  0  0  0  0  0  0  0  0  0  0
   -1.8730   -2.3831   -1.6450 H   0  0  0  0  0  0  0  0  0  0  0  0
    0.6343   -1.9321   -1.4694 H   0  0  0  0  0  0  0  0  0  0  0  0
    0.0438    2.8684    0.4359 H   0  0  0  0  0  0  0  0  0  0  0  0
   -2.8450    1.5500   -0.0830 H   0  0  0  0  0  0  0  0  0  0  0  0
   -3.8757   -0.7703   -1.0024 N   0  0  0  0  0  0  0  0  0  0  0  0
   -4.6786    0.0917   -0.6590 O   0  0  0  0  0  0  0  0  0  0  0  0
   -4.1818   -1.8759   -1.4401 O   0  0  0  0  0  0  0  0  0  0  0  0
    3.8211   -1.6394   -1.3579 N   0  0  0  0  0  0  0  0  0  0  0  0
    4.9172   -1.5157   -1.3105 N   0  0  0  0  0  0  0  0  0  0  0  0
    0.2842    4.0649    0.9102 Cl  0  0  0  0  0  0  0  0  0  0  0  0
  1  2  2  0  0  0  0
  1  6  1  0  0  0  0
  2  3  1  0  0  0  0
  3  4  2  0  0  0  0
  5  4  1  0  0  0  0
  5 10  1  0  0  0  0
  6  5  2  0  0  0  0
  7  1  1  0  0  0  0
  8  2  1  0  0  0  0
  9 16  1  0  0  0  0
 11  6  1  0  0  0  0
 11 12  2  0  0  0  0
 13 11  2  0  0  0  0
 14 15  3  0  0  0  0
M  RAD  2   3   2   4   2
M  END
