Coordinates from ORCA-job p-NO2-Ph-N2-Cl-B3LYPG-aug-cc-pVDZ-scan-d09-49-n400
 OpenBabel10311713223D

 16 16  0  0  0  0  0  0  0  0999 V2000
   -1.4910   -1.5703   -1.3180 C   0  0  0  0  0  0  0  0  0  0  0  0
   -0.1047   -1.4209   -1.2666 C   0  0  0  0  0  0  0  0  0  0  0  0
    0.3909   -0.2125   -0.7961 C   0  0  0  0  0  0  0  0  0  0  0  0
   -0.3751    0.8635   -0.3737 C   0  0  0  0  0  0  0  0  0  0  0  0
   -1.7631    0.7006   -0.4315 C   0  0  0  0  0  0  0  0  0  0  0  0
   -2.2900   -0.5046   -0.8988 C   0  0  0  0  0  0  0  0  0  0  0  0
   -1.9520   -2.4878   -1.6738 H   0  0  0  0  0  0  0  0  0  0  0  0
    0.5688   -2.2151   -1.5807 H   0  0  0  0  0  0  0  0  0  0  0  0
    0.0926    1.7774   -0.0175 H   0  0  0  0  0  0  0  0  0  0  0  0
   -2.4324    1.4978   -0.1180 H   0  0  0  0  0  0  0  0  0  0  0  0
   -3.7640   -0.6618   -0.9537 N   0  0  0  0  0  0  0  0  0  0  0  0
   -4.4483    0.2852   -0.5822 O   0  0  0  0  0  0  0  0  0  0  0  0
   -4.2032   -1.7298   -1.3675 O   0  0  0  0  0  0  0  0  0  0  0  0
    2.0320   -0.1636   -0.7888 N   0  0  0  0  0  0  0  0  0  0  0  0
    2.8576    0.5947   -0.4747 N   0  0  0  0  0  0  0  0  0  0  0  0
    2.3629    2.4948    0.3379 Cl  0  0  0  0  0  0  0  0  0  0  0  0
  1  2  2  0  0  0  0
  1  6  1  0  0  0  0
  2  3  1  0  0  0  0
  3 14  1  0  0  0  0
  3  4  2  0  0  0  0
  4  9  1  0  0  0  0
  5  4  1  0  0  0  0
  5 10  1  0  0  0  0
  6  5  2  0  0  0  0
  7  1  1  0  0  0  0
  8  2  1  0  0  0  0
 11  6  1  0  0  0  0
 11 12  2  0  0  0  0
 13 11  2  0  0  0  0
 14 15  2  0  0  0  0
 15 16  1  0  0  0  0
M  END
