Coordinates from ORCA-job p-NO2-Ph-N2-Cl-B3LYPG-aug-cc-pVDZ-scan-d09-49-n400
 OpenBabel10311713223D

 16 14  0  0  0  0  0  0  0  0999 V2000
   -1.5925   -1.5910   -1.3314 C   0  0  0  0  0  0  0  0  0  0  0  0
   -0.1826   -1.5309   -1.3095 C   0  0  0  0  0  0  0  0  0  0  0  0
    0.1794   -0.2975   -0.8206 C   0  0  0  0  0  0  0  0  0  0  0  0
   -0.4517    0.7119   -0.4192 C   0  0  0  0  0  0  0  0  0  0  0  0
   -1.8493    0.7175   -0.4151 C   0  0  0  0  0  0  0  0  0  0  0  0
   -2.3753   -0.5009   -0.8979 C   0  0  0  0  0  0  0  0  0  0  0  0
   -2.0944   -2.4886   -1.6869 H   0  0  0  0  0  0  0  0  0  0  0  0
    0.4578   -2.3457   -1.6337 H   0  0  0  0  0  0  0  0  0  0  0  0
    0.4614    2.4549    0.2710 H   0  0  0  0  0  0  0  0  0  0  0  0
   -2.4961    1.5286   -0.0924 H   0  0  0  0  0  0  0  0  0  0  0  0
   -3.8488   -0.6426   -0.9521 N   0  0  0  0  0  0  0  0  0  0  0  0
   -4.5221    0.3098   -0.5712 O   0  0  0  0  0  0  0  0  0  0  0  0
   -4.3095   -1.7015   -1.3696 O   0  0  0  0  0  0  0  0  0  0  0  0
    3.1088   -0.7229   -0.9929 N   0  0  0  0  0  0  0  0  0  0  0  0
    4.0935   -0.2589   -0.8091 N   0  0  0  0  0  0  0  0  0  0  0  0
    0.9024    3.6057    0.7268 Cl  0  0  0  0  0  0  0  0  0  0  0  0
  1  2  2  0  0  0  0
  1  6  1  0  0  0  0
  2  3  1  0  0  0  0
  3  4  2  0  0  0  0
  4  5  1  0  0  0  0
  5 10  1  0  0  0  0
  6  5  2  0  0  0  0
  7  1  1  0  0  0  0
  8  2  1  0  0  0  0
  9 16  1  0  0  0  0
 11  6  1  0  0  0  0
 11 12  2  0  0  0  0
 13 11  2  0  0  0  0
 14 15  3  0  0  0  0
M  RAD  2   3   2   4   2
M  END
