Coordinates from ORCA-job p-NO2-Ph-N2-Cl-B3LYPG-aug-cc-pVDZ-scan-d09-49-n400
 OpenBabel10311713223D

 16 14  0  0  0  0  0  0  0  0999 V2000
   -1.4871   -1.4171   -1.2616 C   0  0  0  0  0  0  0  0  0  0  0  0
   -0.1007   -1.1720   -1.1665 C   0  0  0  0  0  0  0  0  0  0  0  0
    0.0778    0.0998   -0.6622 C   0  0  0  0  0  0  0  0  0  0  0  0
   -0.7211    0.9984   -0.3045 C   0  0  0  0  0  0  0  0  0  0  0  0
   -2.1033    0.8328   -0.3681 C   0  0  0  0  0  0  0  0  0  0  0  0
   -2.4323   -0.4446   -0.8743 C   0  0  0  0  0  0  0  0  0  0  0  0
   -1.8458   -2.3723   -1.6399 H   0  0  0  0  0  0  0  0  0  0  0  0
    0.6533   -1.8984   -1.4558 H   0  0  0  0  0  0  0  0  0  0  0  0
    0.0082    2.9012    0.4488 H   0  0  0  0  0  0  0  0  0  0  0  0
   -2.8676    1.5499   -0.0824 H   0  0  0  0  0  0  0  0  0  0  0  0
   -3.8687   -0.7825   -1.0060 N   0  0  0  0  0  0  0  0  0  0  0  0
   -4.6828    0.0717   -0.6690 O   0  0  0  0  0  0  0  0  0  0  0  0
   -4.1606   -1.8903   -1.4477 O   0  0  0  0  0  0  0  0  0  0  0  0
    3.8401   -1.7120   -1.3872 N   0  0  0  0  0  0  0  0  0  0  0  0
    4.9395   -1.6170   -1.3514 N   0  0  0  0  0  0  0  0  0  0  0  0
    0.2322    4.1003    0.9240 Cl  0  0  0  0  0  0  0  0  0  0  0  0
  1  2  2  0  0  0  0
  1  6  1  0  0  0  0
  2  3  1  0  0  0  0
  3  4  2  0  0  0  0
  5  4  1  0  0  0  0
  5 10  1  0  0  0  0
  6  5  2  0  0  0  0
  7  1  1  0  0  0  0
  8  2  1  0  0  0  0
  9 16  1  0  0  0  0
 11  6  1  0  0  0  0
 11 12  2  0  0  0  0
 13 11  2  0  0  0  0
 14 15  3  0  0  0  0
M  RAD  2   3   2   4   2
M  END
