Coordinates from ORCA-job p-NO2-Ph-N2-Cl-B3LYPG-aug-cc-pVDZ-scan-d09-49-n400
 OpenBabel10311713223D

 16 16  0  0  0  0  0  0  0  0999 V2000
   -1.3685   -1.4890   -1.0594 C   0  0  0  0  0  0  0  0  0  0  0  0
   -0.0148   -1.2117   -1.1024 C   0  0  0  0  0  0  0  0  0  0  0  0
    0.4589    0.1410   -0.9833 C   0  0  0  0  0  0  0  0  0  0  0  0
   -0.5189    1.1827   -0.8190 C   0  0  0  0  0  0  0  0  0  0  0  0
   -1.8676    0.8812   -0.7788 C   0  0  0  0  0  0  0  0  0  0  0  0
   -2.2862   -0.4466   -0.9018 C   0  0  0  0  0  0  0  0  0  0  0  0
   -1.7265   -2.5123   -1.1444 H   0  0  0  0  0  0  0  0  0  0  0  0
    0.7197   -2.0058   -1.2223 H   0  0  0  0  0  0  0  0  0  0  0  0
   -0.1676    2.2083   -0.7235 H   0  0  0  0  0  0  0  0  0  0  0  0
   -2.6067    1.6683   -0.6496 H   0  0  0  0  0  0  0  0  0  0  0  0
   -3.7208   -0.7530   -0.8650 N   0  0  0  0  0  0  0  0  0  0  0  0
   -4.5007    0.1871   -0.7251 O   0  0  0  0  0  0  0  0  0  0  0  0
   -4.0548   -1.9311   -0.9760 O   0  0  0  0  0  0  0  0  0  0  0  0
    1.5633    0.3788   -1.0279 N   0  0  0  0  0  0  0  0  0  0  0  0
    2.6689    0.5757   -0.7244 N   0  0  0  0  0  0  0  0  0  0  0  0
    2.9034    0.3743    1.3992 Cl  0  0  0  0  0  0  0  0  0  0  0  0
  1  6  1  0  0  0  0
  2  1  2  0  0  0  0
  2  3  1  0  0  0  0
  3  4  2  0  0  0  0
  4  5  1  0  0  0  0
  4  9  1  0  0  0  0
  5 10  1  0  0  0  0
  6 11  1  0  0  0  0
  6  5  2  0  0  0  0
  7  1  1  0  0  0  0
  8  2  1  0  0  0  0
 11 12  2  0  0  0  0
 13 11  2  0  0  0  0
 14  3  1  0  0  0  0
 14 15  1  0  0  0  0
 15 16  1  0  0  0  0
M  RAD  2  14   2  15   2
M  END
