Coordinates from ORCA-job p-NO2-Ph-N2-Cl-B3LYPG-aug-cc-pVDZ-scan-d09-49-n400
 OpenBabel10311713223D

 16 14  0  0  0  0  0  0  0  0999 V2000
   -1.5931   -1.5906   -1.3310 C   0  0  0  0  0  0  0  0  0  0  0  0
   -0.1835   -1.5292   -1.3087 C   0  0  0  0  0  0  0  0  0  0  0  0
    0.1793   -0.2955   -0.8197 C   0  0  0  0  0  0  0  0  0  0  0  0
   -0.4539    0.7126   -0.4188 C   0  0  0  0  0  0  0  0  0  0  0  0
   -1.8515    0.7177   -0.4147 C   0  0  0  0  0  0  0  0  0  0  0  0
   -2.3766   -0.5011   -0.8975 C   0  0  0  0  0  0  0  0  0  0  0  0
   -2.0942   -2.4886   -1.6865 H   0  0  0  0  0  0  0  0  0  0  0  0
    0.4581   -2.3431   -1.6326 H   0  0  0  0  0  0  0  0  0  0  0  0
    0.4598    2.4587    0.2725 H   0  0  0  0  0  0  0  0  0  0  0  0
   -2.4989    1.5284   -0.0921 H   0  0  0  0  0  0  0  0  0  0  0  0
   -3.8501   -0.6436   -0.9518 N   0  0  0  0  0  0  0  0  0  0  0  0
   -4.5240    0.3091   -0.5726 O   0  0  0  0  0  0  0  0  0  0  0  0
   -4.3101   -1.7022   -1.3709 O   0  0  0  0  0  0  0  0  0  0  0  0
    3.1176   -0.7281   -0.9953 N   0  0  0  0  0  0  0  0  0  0  0  0
    4.1039   -0.2667   -0.8127 N   0  0  0  0  0  0  0  0  0  0  0  0
    0.8983    3.6101    0.7286 Cl  0  0  0  0  0  0  0  0  0  0  0  0
  1  2  2  0  0  0  0
  1  6  1  0  0  0  0
  2  3  1  0  0  0  0
  3  4  2  0  0  0  0
  4  5  1  0  0  0  0
  5 10  1  0  0  0  0
  6  5  2  0  0  0  0
  7  1  1  0  0  0  0
  8  2  1  0  0  0  0
  9 16  1  0  0  0  0
 11  6  1  0  0  0  0
 11 12  2  0  0  0  0
 13 11  2  0  0  0  0
 14 15  3  0  0  0  0
M  RAD  2   3   2   4   2
M  END
