Coordinates from ORCA-job p-NO2-Ph-N2-Cl-B3LYPG-aug-cc-pVDZ-scan-d09-49-n400
 OpenBabel10311713223D

 16 14  0  0  0  0  0  0  0  0999 V2000
   -1.4241   -1.3619   -1.2403 C   0  0  0  0  0  0  0  0  0  0  0  0
   -0.0516   -1.0581   -1.1216 C   0  0  0  0  0  0  0  0  0  0  0  0
    0.0674    0.2198   -0.6148 C   0  0  0  0  0  0  0  0  0  0  0  0
   -0.7767    1.0819   -0.2717 C   0  0  0  0  0  0  0  0  0  0  0  0
   -2.1493    0.8599   -0.3578 C   0  0  0  0  0  0  0  0  0  0  0  0
   -2.4158   -0.4301   -0.8692 C   0  0  0  0  0  0  0  0  0  0  0  0
   -1.7357   -2.3312   -1.6243 H   0  0  0  0  0  0  0  0  0  0  0  0
    0.7379   -1.7515   -1.3978 H   0  0  0  0  0  0  0  0  0  0  0  0
   -0.1261    3.0178    0.4955 H   0  0  0  0  0  0  0  0  0  0  0  0
   -2.9476    1.5443   -0.0852 H   0  0  0  0  0  0  0  0  0  0  0  0
   -3.8344   -0.8276   -1.0250 N   0  0  0  0  0  0  0  0  0  0  0  0
   -4.6890   -0.0095   -0.6992 O   0  0  0  0  0  0  0  0  0  0  0  0
   -4.0721   -1.9474   -1.4690 O   0  0  0  0  0  0  0  0  0  0  0  0
    3.8789   -1.9825   -1.4942 N   0  0  0  0  0  0  0  0  0  0  0  0
    4.9828   -2.0010   -1.5032 N   0  0  0  0  0  0  0  0  0  0  0  0
    0.0365    4.2249    0.9742 Cl  0  0  0  0  0  0  0  0  0  0  0  0
  1  2  2  0  0  0  0
  1  6  1  0  0  0  0
  2  3  1  0  0  0  0
  3  4  2  0  0  0  0
  5  4  1  0  0  0  0
  5 10  1  0  0  0  0
  6  5  2  0  0  0  0
  7  1  1  0  0  0  0
  8  2  1  0  0  0  0
  9 16  1  0  0  0  0
 11  6  1  0  0  0  0
 11 12  2  0  0  0  0
 13 11  2  0  0  0  0
 15 14  3  0  0  0  0
M  RAD  2   3   2   4   2
M  END
