Coordinates from ORCA-job p-NO2-Ph-N2-Cl-B3LYPG-aug-cc-pVDZ-scan-d09-49-n400
 OpenBabel10311713223D

 16 14  0  0  0  0  0  0  0  0999 V2000
   -1.5426   -1.4786   -1.2865 C   0  0  0  0  0  0  0  0  0  0  0  0
   -0.1449   -1.2970   -1.2163 C   0  0  0  0  0  0  0  0  0  0  0  0
    0.0978   -0.0356   -0.7162 C   0  0  0  0  0  0  0  0  0  0  0  0
   -0.6474    0.9023   -0.3431 C   0  0  0  0  0  0  0  0  0  0  0  0
   -2.0373    0.7973   -0.3829 C   0  0  0  0  0  0  0  0  0  0  0  0
   -2.4344   -0.4632   -0.8824 C   0  0  0  0  0  0  0  0  0  0  0  0
   -1.9518   -2.4160   -1.6578 H   0  0  0  0  0  0  0  0  0  0  0  0
    0.5720   -2.0551   -1.5181 H   0  0  0  0  0  0  0  0  0  0  0  0
    0.1655    2.7621    0.3936 H   0  0  0  0  0  0  0  0  0  0  0  0
   -2.7630    1.5483   -0.0840 H   0  0  0  0  0  0  0  0  0  0  0  0
   -3.8870   -0.7343   -0.9880 N   0  0  0  0  0  0  0  0  0  0  0  0
   -4.6545    0.1552   -0.6338 O   0  0  0  0  0  0  0  0  0  0  0  0
   -4.2376   -1.8284   -1.4212 O   0  0  0  0  0  0  0  0  0  0  0  0
    3.7036   -1.3842   -1.2564 N   0  0  0  0  0  0  0  0  0  0  0  0
    4.7843   -1.1737   -1.1745 N   0  0  0  0  0  0  0  0  0  0  0  0
    0.4584    3.9488    0.8640 Cl  0  0  0  0  0  0  0  0  0  0  0  0
  1  2  2  0  0  0  0
  1  6  1  0  0  0  0
  2  3  1  0  0  0  0
  3  4  2  0  0  0  0
  5  4  1  0  0  0  0
  5 10  1  0  0  0  0
  6  5  2  0  0  0  0
  7  1  1  0  0  0  0
  8  2  1  0  0  0  0
  9 16  1  0  0  0  0
 11  6  1  0  0  0  0
 11 12  2  0  0  0  0
 13 11  2  0  0  0  0
 14 15  3  0  0  0  0
M  RAD  2   3   2   4   2
M  END
