Coordinates from ORCA-job p-NO2-Ph-N2-Cl-B3LYPG-aug-cc-pVDZ-scan-d09-49-n400
 OpenBabel10311713223D

 16 14  0  0  0  0  0  0  0  0999 V2000
   -1.4086   -1.3484   -1.2349 C   0  0  0  0  0  0  0  0  0  0  0  0
   -0.0396   -1.0310   -1.1109 C   0  0  0  0  0  0  0  0  0  0  0  0
    0.0646    0.2479   -0.6037 C   0  0  0  0  0  0  0  0  0  0  0  0
   -0.7894    1.1015   -0.2639 C   0  0  0  0  0  0  0  0  0  0  0  0
   -2.1594    0.8661   -0.3554 C   0  0  0  0  0  0  0  0  0  0  0  0
   -2.4110   -0.4265   -0.8678 C   0  0  0  0  0  0  0  0  0  0  0  0
   -1.7090   -2.3207   -1.6202 H   0  0  0  0  0  0  0  0  0  0  0  0
    0.7572   -1.7172   -1.3842 H   0  0  0  0  0  0  0  0  0  0  0  0
   -0.1588    3.0440    0.5060 H   0  0  0  0  0  0  0  0  0  0  0  0
   -2.9654    1.5426   -0.0859 H   0  0  0  0  0  0  0  0  0  0  0  0
   -3.8249   -0.8382   -1.0292 N   0  0  0  0  0  0  0  0  0  0  0  0
   -4.6889   -0.0287   -0.7068 O   0  0  0  0  0  0  0  0  0  0  0  0
   -4.0497   -1.9603   -1.4742 O   0  0  0  0  0  0  0  0  0  0  0  0
    3.8856   -2.0449   -1.5190 N   0  0  0  0  0  0  0  0  0  0  0  0
    4.9885   -2.0909   -1.5390 N   0  0  0  0  0  0  0  0  0  0  0  0
   -0.0101    4.2526    0.9853 Cl  0  0  0  0  0  0  0  0  0  0  0  0
  1  2  2  0  0  0  0
  1  6  1  0  0  0  0
  2  3  1  0  0  0  0
  3  4  2  0  0  0  0
  5  4  1  0  0  0  0
  5 10  1  0  0  0  0
  6  5  2  0  0  0  0
  7  1  1  0  0  0  0
  8  2  1  0  0  0  0
  9 16  1  0  0  0  0
 11  6  1  0  0  0  0
 11 12  2  0  0  0  0
 13 11  2  0  0  0  0
 15 14  3  0  0  0  0
M  RAD  2   3   2   4   2
M  END
