Coordinates from ORCA-job p-NO2-Ph-N2-Cl-B3LYPG-aug-cc-pVDZ-scan-d09-49-n400
 OpenBabel10311713223D

 16 14  0  0  0  0  0  0  0  0999 V2000
   -1.5779   -1.6172   -1.3415 C   0  0  0  0  0  0  0  0  0  0  0  0
   -0.1678   -1.5874   -1.3320 C   0  0  0  0  0  0  0  0  0  0  0  0
    0.2200   -0.3634   -0.8469 C   0  0  0  0  0  0  0  0  0  0  0  0
   -0.3606    0.6761   -0.4334 C   0  0  0  0  0  0  0  0  0  0  0  0
   -1.7632    0.6943   -0.4239 C   0  0  0  0  0  0  0  0  0  0  0  0
   -2.3275   -0.5076   -0.9000 C   0  0  0  0  0  0  0  0  0  0  0  0
   -2.1034   -2.5030   -1.6922 H   0  0  0  0  0  0  0  0  0  0  0  0
    0.4557   -2.4135   -1.6609 H   0  0  0  0  0  0  0  0  0  0  0  0
    0.5259    2.3100    0.2132 H   0  0  0  0  0  0  0  0  0  0  0  0
   -2.3881    1.5205   -0.0950 H   0  0  0  0  0  0  0  0  0  0  0  0
   -3.8045   -0.6127   -0.9393 N   0  0  0  0  0  0  0  0  0  0  0  0
   -4.4504    0.3566   -0.5538 O   0  0  0  0  0  0  0  0  0  0  0  0
   -4.2950   -1.6594   -1.3542 O   0  0  0  0  0  0  0  0  0  0  0  0
    2.7685   -0.5195   -0.9123 N   0  0  0  0  0  0  0  0  0  0  0  0
    3.6980    0.0342   -0.6920 N   0  0  0  0  0  0  0  0  0  0  0  0
    1.0514    3.4398    0.6604 Cl  0  0  0  0  0  0  0  0  0  0  0  0
  1  2  2  0  0  0  0
  1  6  1  0  0  0  0
  2  3  1  0  0  0  0
  3  4  2  0  0  0  0
  4  5  1  0  0  0  0
  5 10  1  0  0  0  0
  6  5  2  0  0  0  0
  7  1  1  0  0  0  0
  8  2  1  0  0  0  0
  9 16  1  0  0  0  0
 11  6  1  0  0  0  0
 11 12  2  0  0  0  0
 13 11  2  0  0  0  0
 14 15  3  0  0  0  0
M  RAD  2   3   2   4   2
M  END
