Coordinates from ORCA-job p-NO2-Ph-N2-Cl-B3LYPG-aug-cc-pVDZ-scan-d09-49-n400
 OpenBabel10311713223D

 16 16  0  0  0  0  0  0  0  0999 V2000
   -1.4713   -1.5653   -1.3145 C   0  0  0  0  0  0  0  0  0  0  0  0
   -0.0894   -1.4090   -1.2630 C   0  0  0  0  0  0  0  0  0  0  0  0
    0.4451   -0.2006   -0.7954 C   0  0  0  0  0  0  0  0  0  0  0  0
   -0.3623    0.8668   -0.3781 C   0  0  0  0  0  0  0  0  0  0  0  0
   -1.7464    0.7048   -0.4345 C   0  0  0  0  0  0  0  0  0  0  0  0
   -2.2733   -0.5014   -0.8981 C   0  0  0  0  0  0  0  0  0  0  0  0
   -1.9292   -2.4849   -1.6683 H   0  0  0  0  0  0  0  0  0  0  0  0
    0.5799   -2.2071   -1.5785 H   0  0  0  0  0  0  0  0  0  0  0  0
    0.0924    1.7867   -0.0215 H   0  0  0  0  0  0  0  0  0  0  0  0
   -2.4166    1.5019   -0.1229 H   0  0  0  0  0  0  0  0  0  0  0  0
   -3.7477   -0.6615   -0.9523 N   0  0  0  0  0  0  0  0  0  0  0  0
   -4.4332    0.2846   -0.5811 O   0  0  0  0  0  0  0  0  0  0  0  0
   -4.1844   -1.7328   -1.3603 O   0  0  0  0  0  0  0  0  0  0  0  0
    1.8854   -0.1460   -0.7872 N   0  0  0  0  0  0  0  0  0  0  0  0
    2.7719    0.5595   -0.4906 N   0  0  0  0  0  0  0  0  0  0  0  0
    2.3600    2.4520    0.3426 Cl  0  0  0  0  0  0  0  0  0  0  0  0
  1  2  2  0  0  0  0
  1  6  1  0  0  0  0
  2  3  1  0  0  0  0
  3 14  1  0  0  0  0
  3  4  2  0  0  0  0
  4  9  1  0  0  0  0
  5  4  1  0  0  0  0
  5 10  1  0  0  0  0
  6  5  2  0  0  0  0
  7  1  1  0  0  0  0
  8  2  1  0  0  0  0
 11  6  1  0  0  0  0
 11 12  2  0  0  0  0
 13 11  2  0  0  0  0
 14 15  2  0  0  0  0
 15 16  1  0  0  0  0
M  END
