Coordinates from ORCA-job p-NO2-Ph-N2-Cl-B3LYPG-aug-cc-pVDZ-scan-d09-49-n400
 OpenBabel10311713223D

 16 14  0  0  0  0  0  0  0  0999 V2000
   -1.5793   -1.5360   -1.3091 C   0  0  0  0  0  0  0  0  0  0  0  0
   -0.1741   -1.4139   -1.2626 C   0  0  0  0  0  0  0  0  0  0  0  0
    0.1299   -0.1650   -0.7677 C   0  0  0  0  0  0  0  0  0  0  0  0
   -0.5643    0.8065   -0.3814 C   0  0  0  0  0  0  0  0  0  0  0  0
   -1.9585    0.7590   -0.3983 C   0  0  0  0  0  0  0  0  0  0  0  0
   -2.4188   -0.4828   -0.8903 C   0  0  0  0  0  0  0  0  0  0  0  0
   -2.0345   -2.4549   -1.6730 H   0  0  0  0  0  0  0  0  0  0  0  0
    0.5043   -2.2019   -1.5761 H   0  0  0  0  0  0  0  0  0  0  0  0
    0.3170    2.6227    0.3382 H   0  0  0  0  0  0  0  0  0  0  0  0
   -2.6461    1.5405   -0.0874 H   0  0  0  0  0  0  0  0  0  0  0  0
   -3.8834   -0.6904   -0.9706 N   0  0  0  0  0  0  0  0  0  0  0  0
   -4.6054    0.2314   -0.6037 O   0  0  0  0  0  0  0  0  0  0  0  0
   -4.2886   -1.7682   -1.3971 O   0  0  0  0  0  0  0  0  0  0  0  0
    3.4799   -1.0614   -1.1279 N   0  0  0  0  0  0  0  0  0  0  0  0
    4.5256   -0.7319   -0.9992 N   0  0  0  0  0  0  0  0  0  0  0  0
    0.6774    3.7940    0.8025 Cl  0  0  0  0  0  0  0  0  0  0  0  0
  1  2  2  0  0  0  0
  1  6  1  0  0  0  0
  2  3  1  0  0  0  0
  3  4  2  0  0  0  0
  5  4  1  0  0  0  0
  5 10  1  0  0  0  0
  6  5  2  0  0  0  0
  7  1  1  0  0  0  0
  8  2  1  0  0  0  0
  9 16  1  0  0  0  0
 11  6  1  0  0  0  0
 11 12  2  0  0  0  0
 13 11  2  0  0  0  0
 14 15  3  0  0  0  0
M  RAD  2   3   2   4   2
M  END
