Coordinates from ORCA-job p-NO2-Ph-N2-Cl-B3LYPG-aug-cc-pVDZ-scan-d09-49-n400
 OpenBabel10311713223D

 16 14  0  0  0  0  0  0  0  0999 V2000
   -1.5663   -1.6217   -1.3433 C   0  0  0  0  0  0  0  0  0  0  0  0
   -0.1570   -1.5966   -1.3356 C   0  0  0  0  0  0  0  0  0  0  0  0
    0.2364   -0.3754   -0.8515 C   0  0  0  0  0  0  0  0  0  0  0  0
   -0.3259    0.6771   -0.4330 C   0  0  0  0  0  0  0  0  0  0  0  0
   -1.7316    0.6886   -0.4263 C   0  0  0  0  0  0  0  0  0  0  0  0
   -2.3069   -0.5073   -0.8999 C   0  0  0  0  0  0  0  0  0  0  0  0
   -2.0965   -2.5050   -1.6930 H   0  0  0  0  0  0  0  0  0  0  0  0
    0.4644   -2.4243   -1.6650 H   0  0  0  0  0  0  0  0  0  0  0  0
    0.5407    2.2297    0.1815 H   0  0  0  0  0  0  0  0  0  0  0  0
   -2.3512    1.5186   -0.0959 H   0  0  0  0  0  0  0  0  0  0  0  0
   -3.7848   -0.6031   -0.9356 N   0  0  0  0  0  0  0  0  0  0  0  0
   -4.4237    0.3701   -0.5486 O   0  0  0  0  0  0  0  0  0  0  0  0
   -4.2824   -1.6469   -1.3493 O   0  0  0  0  0  0  0  0  0  0  0  0
    2.6189   -0.4443   -0.8822 N   0  0  0  0  0  0  0  0  0  0  0  0
    3.5261    0.1412   -0.6497 N   0  0  0  0  0  0  0  0  0  0  0  0
    1.1209    3.3472    0.6238 Cl  0  0  0  0  0  0  0  0  0  0  0  0
  1  2  2  0  0  0  0
  1  6  1  0  0  0  0
  2  3  1  0  0  0  0
  3  4  2  0  0  0  0
  4  5  1  0  0  0  0
  5 10  1  0  0  0  0
  6  5  2  0  0  0  0
  7  1  1  0  0  0  0
  8  2  1  0  0  0  0
  9 16  1  0  0  0  0
 11  6  1  0  0  0  0
 11 12  2  0  0  0  0
 13 11  2  0  0  0  0
 14 15  3  0  0  0  0
M  RAD  2   3   2   4   2
M  END
