Coordinates from ORCA-job p-NO2-Ph-N2-Cl-B3LYPG-aug-cc-pVDZ-scan-d09-49-n400
 OpenBabel10311713223D

 16 14  0  0  0  0  0  0  0  0999 V2000
   -1.5916   -1.5960   -1.3332 C   0  0  0  0  0  0  0  0  0  0  0  0
   -0.1816   -1.5417   -1.3137 C   0  0  0  0  0  0  0  0  0  0  0  0
    0.1857   -0.3099   -0.8255 C   0  0  0  0  0  0  0  0  0  0  0  0
   -0.4385    0.7034   -0.4225 C   0  0  0  0  0  0  0  0  0  0  0  0
   -1.8365    0.7134   -0.4165 C   0  0  0  0  0  0  0  0  0  0  0  0
   -2.3688   -0.5025   -0.8982 C   0  0  0  0  0  0  0  0  0  0  0  0
   -2.0979   -2.4915   -1.6878 H   0  0  0  0  0  0  0  0  0  0  0  0
    0.4556   -2.3587   -1.6389 H   0  0  0  0  0  0  0  0  0  0  0  0
    0.4741    2.4365    0.2636 H   0  0  0  0  0  0  0  0  0  0  0  0
   -2.4793    1.5273   -0.0926 H   0  0  0  0  0  0  0  0  0  0  0  0
   -3.8430   -0.6379   -0.9498 N   0  0  0  0  0  0  0  0  0  0  0  0
   -4.5116    0.3177   -0.5686 O   0  0  0  0  0  0  0  0  0  0  0  0
   -4.3089   -1.6945   -1.3675 O   0  0  0  0  0  0  0  0  0  0  0  0
    3.0614   -0.6909   -0.9804 N   0  0  0  0  0  0  0  0  0  0  0  0
    4.0377   -0.2117   -0.7903 N   0  0  0  0  0  0  0  0  0  0  0  0
    0.9243    3.5849    0.7184 Cl  0  0  0  0  0  0  0  0  0  0  0  0
  1  2  2  0  0  0  0
  1  6  1  0  0  0  0
  2  3  1  0  0  0  0
  3  4  2  0  0  0  0
  4  5  1  0  0  0  0
  5 10  1  0  0  0  0
  6  5  2  0  0  0  0
  7  1  1  0  0  0  0
  8  2  1  0  0  0  0
  9 16  1  0  0  0  0
 11  6  1  0  0  0  0
 11 12  2  0  0  0  0
 13 11  2  0  0  0  0
 14 15  3  0  0  0  0
M  RAD  2   3   2   4   2
M  END
