Coordinates from ORCA-job p-NO2-Ph-N2-Cl-B3LYPG-aug-cc-pVDZ-scan-d09-49-n400
 OpenBabel10311713223D

 16 15  0  0  0  0  0  0  0  0999 V2000
   -1.5179   -1.5818   -1.3274 C   0  0  0  0  0  0  0  0  0  0  0  0
   -0.1248   -1.4548   -1.2788 C   0  0  0  0  0  0  0  0  0  0  0  0
    0.3344   -0.2485   -0.8010 C   0  0  0  0  0  0  0  0  0  0  0  0
   -0.3744    0.8434   -0.3671 C   0  0  0  0  0  0  0  0  0  0  0  0
   -1.7683    0.6914   -0.4256 C   0  0  0  0  0  0  0  0  0  0  0  0
   -2.3040   -0.5079   -0.9006 C   0  0  0  0  0  0  0  0  0  0  0  0
   -1.9905   -2.4921   -1.6878 H   0  0  0  0  0  0  0  0  0  0  0  0
    0.5454   -2.2503   -1.5951 H   0  0  0  0  0  0  0  0  0  0  0  0
    0.1244    1.7446   -0.0103 H   0  0  0  0  0  0  0  0  0  0  0  0
   -2.4296    1.4936   -0.1067 H   0  0  0  0  0  0  0  0  0  0  0  0
   -3.7792   -0.6509   -0.9554 N   0  0  0  0  0  0  0  0  0  0  0  0
   -4.4539    0.2999   -0.5767 O   0  0  0  0  0  0  0  0  0  0  0  0
   -4.2285   -1.7125   -1.3748 O   0  0  0  0  0  0  0  0  0  0  0  0
    2.1949   -0.1697   -0.7721 N   0  0  0  0  0  0  0  0  0  0  0  0
    2.9476    0.6382   -0.4527 N   0  0  0  0  0  0  0  0  0  0  0  0
    2.3056    2.6053    0.3283 Cl  0  0  0  0  0  0  0  0  0  0  0  0
  1  2  2  0  0  0  0
  1  6  1  0  0  0  0
  2  3  1  0  0  0  0
  3 14  1  0  0  0  0
  3  4  2  0  0  0  0
  4  9  1  0  0  0  0
  5  4  1  0  0  0  0
  5 10  1  0  0  0  0
  6  5  2  0  0  0  0
  7  1  1  0  0  0  0
  8  2  1  0  0  0  0
 11  6  1  0  0  0  0
 11 12  2  0  0  0  0
 13 11  2  0  0  0  0
 14 15  2  0  0  0  0
M  RAD  2  15   2  16   2
M  END
