Coordinates from ORCA-job p-NO2-Ph-N2-Cl-B3LYPG-aug-cc-pVDZ-scan-d09-49-n400
 OpenBabel10311713223D

 16 14  0  0  0  0  0  0  0  0999 V2000
   -1.5927   -1.5841   -1.3277 C   0  0  0  0  0  0  0  0  0  0  0  0
   -0.1831   -1.5159   -1.3031 C   0  0  0  0  0  0  0  0  0  0  0  0
    0.1709   -0.2802   -0.8134 C   0  0  0  0  0  0  0  0  0  0  0  0
   -0.4696    0.7236   -0.4141 C   0  0  0  0  0  0  0  0  0  0  0  0
   -1.8666    0.7231   -0.4119 C   0  0  0  0  0  0  0  0  0  0  0  0
   -2.3835   -0.4991   -0.8959 C   0  0  0  0  0  0  0  0  0  0  0  0
   -2.0886   -2.4846   -1.6842 H   0  0  0  0  0  0  0  0  0  0  0  0
    0.4617   -2.3277   -1.6263 H   0  0  0  0  0  0  0  0  0  0  0  0
    0.4437    2.4800    0.2810 H   0  0  0  0  0  0  0  0  0  0  0  0
   -2.5189    1.5303   -0.0906 H   0  0  0  0  0  0  0  0  0  0  0  0
   -3.8560   -0.6501   -0.9532 N   0  0  0  0  0  0  0  0  0  0  0  0
   -4.5361    0.3000   -0.5783 O   0  0  0  0  0  0  0  0  0  0  0  0
   -4.3092   -1.7101   -1.3761 O   0  0  0  0  0  0  0  0  0  0  0  0
    3.1705   -0.7671   -1.0114 N   0  0  0  0  0  0  0  0  0  0  0  0
    4.1665   -0.3241   -0.8366 N   0  0  0  0  0  0  0  0  0  0  0  0
    0.8721    3.6341    0.7380 Cl  0  0  0  0  0  0  0  0  0  0  0  0
  1  2  2  0  0  0  0
  1  6  1  0  0  0  0
  2  3  1  0  0  0  0
  3  4  2  0  0  0  0
  4  5  1  0  0  0  0
  5 10  1  0  0  0  0
  6  5  2  0  0  0  0
  7  1  1  0  0  0  0
  8  2  1  0  0  0  0
  9 16  1  0  0  0  0
 11  6  1  0  0  0  0
 11 12  2  0  0  0  0
 13 11  2  0  0  0  0
 14 15  3  0  0  0  0
M  RAD  2   3   2   4   2
M  END
