Coordinates from ORCA-job p-NO2-Ph-N2-Cl-B3LYPG-aug-cc-pVDZ-scan-d09-49-n400
 OpenBabel10311713223D

 16 14  0  0  0  0  0  0  0  0999 V2000
   -1.4911   -1.4211   -1.2637 C   0  0  0  0  0  0  0  0  0  0  0  0
   -0.1042   -1.1793   -1.1697 C   0  0  0  0  0  0  0  0  0  0  0  0
    0.0790    0.0915   -0.6657 C   0  0  0  0  0  0  0  0  0  0  0  0
   -0.7168    0.9926   -0.3070 C   0  0  0  0  0  0  0  0  0  0  0  0
   -2.0996    0.8307   -0.3694 C   0  0  0  0  0  0  0  0  0  0  0  0
   -2.4329   -0.4457   -0.8754 C   0  0  0  0  0  0  0  0  0  0  0  0
   -1.8528   -2.3752   -1.6418 H   0  0  0  0  0  0  0  0  0  0  0  0
    0.6486   -1.9069   -1.4594 H   0  0  0  0  0  0  0  0  0  0  0  0
    0.0178    2.8928    0.4456 H   0  0  0  0  0  0  0  0  0  0  0  0
   -2.8615    1.5500   -0.0829 H   0  0  0  0  0  0  0  0  0  0  0  0
   -3.8705   -0.7791   -1.0057 N   0  0  0  0  0  0  0  0  0  0  0  0
   -4.6816    0.0766   -0.6653 O   0  0  0  0  0  0  0  0  0  0  0  0
   -4.1662   -1.8869   -1.4447 O   0  0  0  0  0  0  0  0  0  0  0  0
    3.8342   -1.6928   -1.3791 N   0  0  0  0  0  0  0  0  0  0  0  0
    4.9328   -1.5904   -1.3402 N   0  0  0  0  0  0  0  0  0  0  0  0
    0.2459    4.0912    0.9206 Cl  0  0  0  0  0  0  0  0  0  0  0  0
  1  2  2  0  0  0  0
  1  6  1  0  0  0  0
  2  3  1  0  0  0  0
  3  4  2  0  0  0  0
  5  4  1  0  0  0  0
  5 10  1  0  0  0  0
  6  5  2  0  0  0  0
  7  1  1  0  0  0  0
  8  2  1  0  0  0  0
  9 16  1  0  0  0  0
 11  6  1  0  0  0  0
 11 12  2  0  0  0  0
 13 11  2  0  0  0  0
 14 15  3  0  0  0  0
M  RAD  2   3   2   4   2
M  END
