Coordinates from ORCA-job p-NO2-Ph-N2-Cl-B3LYPG-aug-cc-pVDZ-scan-d09-49-n400
 OpenBabel10311713223D

 16 14  0  0  0  0  0  0  0  0999 V2000
   -1.5541   -1.4952   -1.2922 C   0  0  0  0  0  0  0  0  0  0  0  0
   -0.1538   -1.3307   -1.2292 C   0  0  0  0  0  0  0  0  0  0  0  0
    0.1058   -0.0724   -0.7307 C   0  0  0  0  0  0  0  0  0  0  0  0
   -0.6249    0.8754   -0.3536 C   0  0  0  0  0  0  0  0  0  0  0  0
   -2.0163    0.7867   -0.3865 C   0  0  0  0  0  0  0  0  0  0  0  0
   -2.4313   -0.4690   -0.8837 C   0  0  0  0  0  0  0  0  0  0  0  0
   -1.9766   -2.4277   -1.6612 H   0  0  0  0  0  0  0  0  0  0  0  0
    0.5519   -2.0977   -1.5346 H   0  0  0  0  0  0  0  0  0  0  0  0
    0.2086    2.7235    0.3781 H   0  0  0  0  0  0  0  0  0  0  0  0
   -2.7314    1.5464   -0.0840 H   0  0  0  0  0  0  0  0  0  0  0  0
   -3.8876   -0.7225   -0.9817 N   0  0  0  0  0  0  0  0  0  0  0  0
   -4.6425    0.1778   -0.6276 O   0  0  0  0  0  0  0  0  0  0  0  0
   -4.2538   -1.8108   -1.4167 O   0  0  0  0  0  0  0  0  0  0  0  0
    3.6468   -1.2922   -1.2205 N   0  0  0  0  0  0  0  0  0  0  0  0
    4.7198   -1.0498   -1.1264 N   0  0  0  0  0  0  0  0  0  0  0  0
    0.5206    3.9062    0.8468 Cl  0  0  0  0  0  0  0  0  0  0  0  0
  1  2  2  0  0  0  0
  1  6  1  0  0  0  0
  2  3  1  0  0  0  0
  3  4  2  0  0  0  0
  5  4  1  0  0  0  0
  5 10  1  0  0  0  0
  6  5  2  0  0  0  0
  7  1  1  0  0  0  0
  8  2  1  0  0  0  0
  9 16  1  0  0  0  0
 11  6  1  0  0  0  0
 11 12  2  0  0  0  0
 13 11  2  0  0  0  0
 14 15  3  0  0  0  0
M  RAD  2   3   2   4   2
M  END
