Coordinates from ORCA-job p-NO2-Ph-N2-Cl-B3LYPG-aug-cc-pVDZ-scan-d09-49-n400
 OpenBabel10311713223D

 16 16  0  0  0  0  0  0  0  0999 V2000
   -1.5071   -1.5762   -1.3247 C   0  0  0  0  0  0  0  0  0  0  0  0
   -0.1166   -1.4400   -1.2729 C   0  0  0  0  0  0  0  0  0  0  0  0
    0.3539   -0.2334   -0.7955 C   0  0  0  0  0  0  0  0  0  0  0  0
   -0.3766    0.8517   -0.3646 C   0  0  0  0  0  0  0  0  0  0  0  0
   -1.7682    0.6944   -0.4248 C   0  0  0  0  0  0  0  0  0  0  0  0
   -2.2993   -0.5066   -0.8998 C   0  0  0  0  0  0  0  0  0  0  0  0
   -1.9746   -2.4888   -1.6855 H   0  0  0  0  0  0  0  0  0  0  0  0
    0.5560   -2.2338   -1.5885 H   0  0  0  0  0  0  0  0  0  0  0  0
    0.1091    1.7574   -0.0063 H   0  0  0  0  0  0  0  0  0  0  0  0
   -2.4336    1.4935   -0.1073 H   0  0  0  0  0  0  0  0  0  0  0  0
   -3.7738   -0.6557   -0.9567 N   0  0  0  0  0  0  0  0  0  0  0  0
   -4.4532    0.2928   -0.5801 O   0  0  0  0  0  0  0  0  0  0  0  0
   -4.2184   -1.7189   -1.3770 O   0  0  0  0  0  0  0  0  0  0  0  0
    2.1349   -0.1723   -0.7744 N   0  0  0  0  0  0  0  0  0  0  0  0
    2.9148    0.6201   -0.4605 N   0  0  0  0  0  0  0  0  0  0  0  0
    2.3338    2.5638    0.3149 Cl  0  0  0  0  0  0  0  0  0  0  0  0
  1  2  2  0  0  0  0
  1  6  1  0  0  0  0
  2  3  1  0  0  0  0
  3 14  1  0  0  0  0
  3  4  2  0  0  0  0
  4  9  1  0  0  0  0
  5  4  1  0  0  0  0
  5 10  1  0  0  0  0
  6  5  2  0  0  0  0
  7  1  1  0  0  0  0
  8  2  1  0  0  0  0
 11  6  1  0  0  0  0
 11 12  2  0  0  0  0
 13 11  2  0  0  0  0
 14 15  2  0  0  0  0
 15 16  1  0  0  0  0
M  END
