Coordinates from ORCA-job p-NO2-Ph-N2-Cl-B3LYPG-aug-cc-pVDZ-scan-d09-49-n400
 OpenBabel10311713223D

 16 14  0  0  0  0  0  0  0  0999 V2000
   -1.4215   -1.3594   -1.2394 C   0  0  0  0  0  0  0  0  0  0  0  0
   -0.0493   -1.0541   -1.1201 C   0  0  0  0  0  0  0  0  0  0  0  0
    0.0668    0.2244   -0.6130 C   0  0  0  0  0  0  0  0  0  0  0  0
   -0.7789    1.0852   -0.2704 C   0  0  0  0  0  0  0  0  0  0  0  0
   -2.1511    0.8611   -0.3575 C   0  0  0  0  0  0  0  0  0  0  0  0
   -2.4149   -0.4292   -0.8691 C   0  0  0  0  0  0  0  0  0  0  0  0
   -1.7315   -2.3291   -1.6237 H   0  0  0  0  0  0  0  0  0  0  0  0
    0.7407   -1.7470   -1.3961 H   0  0  0  0  0  0  0  0  0  0  0  0
   -0.1315    3.0221    0.4973 H   0  0  0  0  0  0  0  0  0  0  0  0
   -2.9506    1.5442   -0.0854 H   0  0  0  0  0  0  0  0  0  0  0  0
   -3.8328   -0.8292   -1.0259 N   0  0  0  0  0  0  0  0  0  0  0  0
   -4.6891   -0.0128   -0.7001 O   0  0  0  0  0  0  0  0  0  0  0  0
   -4.0683   -1.9496   -1.4694 O   0  0  0  0  0  0  0  0  0  0  0  0
    3.8802   -1.9927   -1.4982 N   0  0  0  0  0  0  0  0  0  0  0  0
    4.9840   -2.0154   -1.5088 N   0  0  0  0  0  0  0  0  0  0  0  0
    0.0289    4.2294    0.9761 Cl  0  0  0  0  0  0  0  0  0  0  0  0
  1  2  2  0  0  0  0
  1  6  1  0  0  0  0
  2  3  1  0  0  0  0
  3  4  2  0  0  0  0
  5  4  1  0  0  0  0
  5 10  1  0  0  0  0
  6  5  2  0  0  0  0
  7  1  1  0  0  0  0
  8  2  1  0  0  0  0
  9 16  1  0  0  0  0
 11  6  1  0  0  0  0
 11 12  2  0  0  0  0
 13 11  2  0  0  0  0
 15 14  3  0  0  0  0
M  RAD  2   3   2   4   2
M  END
