Coordinates from ORCA-job p-NO2-Ph-N2-Cl-B3LYPG-aug-cc-pVDZ-scan-d09-49-n400
 OpenBabel10311713223D

 16 14  0  0  0  0  0  0  0  0999 V2000
   -1.5841   -1.6133   -1.3400 C   0  0  0  0  0  0  0  0  0  0  0  0
   -0.1739   -1.5785   -1.3285 C   0  0  0  0  0  0  0  0  0  0  0  0
    0.2108   -0.3526   -0.8426 C   0  0  0  0  0  0  0  0  0  0  0  0
   -0.3823    0.6791   -0.4322 C   0  0  0  0  0  0  0  0  0  0  0  0
   -1.7832    0.6982   -0.4223 C   0  0  0  0  0  0  0  0  0  0  0  0
   -2.3400   -0.5073   -0.8998 C   0  0  0  0  0  0  0  0  0  0  0  0
   -2.1055   -2.5012   -1.6915 H   0  0  0  0  0  0  0  0  0  0  0  0
    0.4524   -2.4027   -1.6566 H   0  0  0  0  0  0  0  0  0  0  0  0
    0.5159    2.3502    0.2291 H   0  0  0  0  0  0  0  0  0  0  0  0
   -2.4120    1.5218   -0.0945 H   0  0  0  0  0  0  0  0  0  0  0  0
   -3.8164   -0.6191   -0.9418 N   0  0  0  0  0  0  0  0  0  0  0  0
   -4.4673    0.3473   -0.5575 O   0  0  0  0  0  0  0  0  0  0  0  0
   -4.3016   -1.6679   -1.3576 O   0  0  0  0  0  0  0  0  0  0  0  0
    2.8553   -0.5638   -0.9300 N   0  0  0  0  0  0  0  0  0  0  0  0
    3.7969   -0.0282   -0.7168 N   0  0  0  0  0  0  0  0  0  0  0  0
    1.0160    3.4860    0.6787 Cl  0  0  0  0  0  0  0  0  0  0  0  0
  1  2  2  0  0  0  0
  1  6  1  0  0  0  0
  2  3  1  0  0  0  0
  3  4  2  0  0  0  0
  4  5  1  0  0  0  0
  5 10  1  0  0  0  0
  6  5  2  0  0  0  0
  7  1  1  0  0  0  0
  8  2  1  0  0  0  0
  9 16  1  0  0  0  0
 11  6  1  0  0  0  0
 11 12  2  0  0  0  0
 13 11  2  0  0  0  0
 14 15  3  0  0  0  0
M  RAD  2   3   2   4   2
M  END
