Coordinates from ORCA-job p-NO2-Ph-N2-Cl-B3LYPG-aug-cc-pVDZ-scan-d09-49-n400
 OpenBabel10311713223D

 16 16  0  0  0  0  0  0  0  0999 V2000
   -1.5034   -1.5745   -1.3235 C   0  0  0  0  0  0  0  0  0  0  0  0
   -0.1139   -1.4354   -1.2712 C   0  0  0  0  0  0  0  0  0  0  0  0
    0.3619   -0.2286   -0.7947 C   0  0  0  0  0  0  0  0  0  0  0  0
   -0.3765    0.8543   -0.3653 C   0  0  0  0  0  0  0  0  0  0  0  0
   -1.7673    0.6956   -0.4255 C   0  0  0  0  0  0  0  0  0  0  0  0
   -2.2972   -0.5061   -0.8996 C   0  0  0  0  0  0  0  0  0  0  0  0
   -1.9693   -2.4880   -1.6838 H   0  0  0  0  0  0  0  0  0  0  0  0
    0.5591   -2.2291   -1.5865 H   0  0  0  0  0  0  0  0  0  0  0  0
    0.1050    1.7616   -0.0068 H   0  0  0  0  0  0  0  0  0  0  0  0
   -2.4337    1.4941   -0.1086 H   0  0  0  0  0  0  0  0  0  0  0  0
   -3.7717   -0.6569   -0.9565 N   0  0  0  0  0  0  0  0  0  0  0  0
   -4.4523    0.2910   -0.5808 O   0  0  0  0  0  0  0  0  0  0  0  0
   -4.2149   -1.7211   -1.3761 O   0  0  0  0  0  0  0  0  0  0  0  0
    2.1130   -0.1716   -0.7765 N   0  0  0  0  0  0  0  0  0  0  0  0
    2.9026    0.6145   -0.4634 N   0  0  0  0  0  0  0  0  0  0  0  0
    2.3397    2.5479    0.3151 Cl  0  0  0  0  0  0  0  0  0  0  0  0
  1  2  2  0  0  0  0
  1  6  1  0  0  0  0
  2  3  1  0  0  0  0
  3 14  1  0  0  0  0
  3  4  2  0  0  0  0
  4  9  1  0  0  0  0
  5  4  1  0  0  0  0
  5 10  1  0  0  0  0
  6  5  2  0  0  0  0
  7  1  1  0  0  0  0
  8  2  1  0  0  0  0
 11  6  1  0  0  0  0
 11 12  2  0  0  0  0
 13 11  2  0  0  0  0
 14 15  2  0  0  0  0
 15 16  1  0  0  0  0
M  END
