Coordinates from ORCA-job p-NO2-Ph-N2-Cl-B3LYPG-aug-cc-pVDZ-scan-d09-49-n400
 OpenBabel10311713223D

 16 14  0  0  0  0  0  0  0  0999 V2000
   -1.5895   -1.6018   -1.3358 C   0  0  0  0  0  0  0  0  0  0  0  0
   -0.1792   -1.5547   -1.3191 C   0  0  0  0  0  0  0  0  0  0  0  0
    0.1934   -0.3251   -0.8317 C   0  0  0  0  0  0  0  0  0  0  0  0
   -0.4196    0.6948   -0.4261 C   0  0  0  0  0  0  0  0  0  0  0  0
   -1.8185    0.7086   -0.4186 C   0  0  0  0  0  0  0  0  0  0  0  0
   -2.3593   -0.5039   -0.8990 C   0  0  0  0  0  0  0  0  0  0  0  0
   -2.1012   -2.4945   -1.6894 H   0  0  0  0  0  0  0  0  0  0  0  0
    0.4535   -2.3748   -1.6455 H   0  0  0  0  0  0  0  0  0  0  0  0
    0.4868    2.4087    0.2524 H   0  0  0  0  0  0  0  0  0  0  0  0
   -2.4564    1.5259   -0.0934 H   0  0  0  0  0  0  0  0  0  0  0  0
   -3.8343   -0.6310   -0.9474 N   0  0  0  0  0  0  0  0  0  0  0  0
   -4.4968    0.3279   -0.5638 O   0  0  0  0  0  0  0  0  0  0  0  0
   -4.3070   -1.6854   -1.3631 O   0  0  0  0  0  0  0  0  0  0  0  0
    2.9964   -0.6492   -0.9636 N   0  0  0  0  0  0  0  0  0  0  0  0
    3.9616   -0.1512   -0.7655 N   0  0  0  0  0  0  0  0  0  0  0  0
    0.9513    3.5537    0.7059 Cl  0  0  0  0  0  0  0  0  0  0  0  0
  1  2  2  0  0  0  0
  1  6  1  0  0  0  0
  2  3  1  0  0  0  0
  3  4  2  0  0  0  0
  4  5  1  0  0  0  0
  5 10  1  0  0  0  0
  6  5  2  0  0  0  0
  7  1  1  0  0  0  0
  8  2  1  0  0  0  0
  9 16  1  0  0  0  0
 11  6  1  0  0  0  0
 11 12  2  0  0  0  0
 13 11  2  0  0  0  0
 14 15  3  0  0  0  0
M  RAD  2   3   2   4   2
M  END
