Coordinates from ORCA-job p-NO2-Ph-N2-Cl-B3LYPG-aug-cc-pVDZ-scan-d09-49-n400
 OpenBabel10311713223D

 16 14  0  0  0  0  0  0  0  0999 V2000
   -1.5473   -1.4849   -1.2888 C   0  0  0  0  0  0  0  0  0  0  0  0
   -0.1488   -1.3089   -1.2210 C   0  0  0  0  0  0  0  0  0  0  0  0
    0.1013   -0.0490   -0.7215 C   0  0  0  0  0  0  0  0  0  0  0  0
   -0.6392    0.8923   -0.3471 C   0  0  0  0  0  0  0  0  0  0  0  0
   -2.0297    0.7932   -0.3844 C   0  0  0  0  0  0  0  0  0  0  0  0
   -2.4335   -0.4655   -0.8832 C   0  0  0  0  0  0  0  0  0  0  0  0
   -1.9611   -2.4206   -1.6594 H   0  0  0  0  0  0  0  0  0  0  0  0
    0.5648   -2.0696   -1.5238 H   0  0  0  0  0  0  0  0  0  0  0  0
    0.1812    2.7481    0.3880 H   0  0  0  0  0  0  0  0  0  0  0  0
   -2.7514    1.5475   -0.0842 H   0  0  0  0  0  0  0  0  0  0  0  0
   -3.8876   -0.7298   -0.9861 N   0  0  0  0  0  0  0  0  0  0  0  0
   -4.6503    0.1635   -0.6309 O   0  0  0  0  0  0  0  0  0  0  0  0
   -4.2441   -1.8221   -1.4190 O   0  0  0  0  0  0  0  0  0  0  0  0
    3.6840   -1.3508   -1.2432 N   0  0  0  0  0  0  0  0  0  0  0  0
    4.7621   -1.1291   -1.1569 N   0  0  0  0  0  0  0  0  0  0  0  0
    0.4807    3.9335    0.8579 Cl  0  0  0  0  0  0  0  0  0  0  0  0
  1  2  2  0  0  0  0
  1  6  1  0  0  0  0
  2  3  1  0  0  0  0
  3  4  2  0  0  0  0
  5  4  1  0  0  0  0
  5 10  1  0  0  0  0
  6  5  2  0  0  0  0
  7  1  1  0  0  0  0
  8  2  1  0  0  0  0
  9 16  1  0  0  0  0
 11  6  1  0  0  0  0
 11 12  2  0  0  0  0
 13 11  2  0  0  0  0
 14 15  3  0  0  0  0
M  RAD  2   3   2   4   2
M  END
