Coordinates from ORCA-job p-NO2-Ph-N2-Cl-B3LYPG-aug-cc-pVDZ-scan-d09-49-n400
 OpenBabel10311713223D

 16 16  0  0  0  0  0  0  0  0999 V2000
   -1.3760   -1.4899   -1.0542 C   0  0  0  0  0  0  0  0  0  0  0  0
   -0.0238   -1.2219   -1.0704 C   0  0  0  0  0  0  0  0  0  0  0  0
    0.4739    0.1391   -0.9401 C   0  0  0  0  0  0  0  0  0  0  0  0
   -0.5297    1.1812   -0.7860 C   0  0  0  0  0  0  0  0  0  0  0  0
   -1.8745    0.8779   -0.7740 C   0  0  0  0  0  0  0  0  0  0  0  0
   -2.2985   -0.4482   -0.9104 C   0  0  0  0  0  0  0  0  0  0  0  0
   -1.7331   -2.5128   -1.1513 H   0  0  0  0  0  0  0  0  0  0  0  0
    0.7137   -2.0149   -1.1792 H   0  0  0  0  0  0  0  0  0  0  0  0
   -0.1748    2.2045   -0.6799 H   0  0  0  0  0  0  0  0  0  0  0  0
   -2.6133    1.6677   -0.6565 H   0  0  0  0  0  0  0  0  0  0  0  0
   -3.7289   -0.7503   -0.9020 N   0  0  0  0  0  0  0  0  0  0  0  0
   -4.5109    0.1911   -0.7736 O   0  0  0  0  0  0  0  0  0  0  0  0
   -4.0648   -1.9279   -1.0244 O   0  0  0  0  0  0  0  0  0  0  0  0
    1.5111    0.3592   -0.9549 N   0  0  0  0  0  0  0  0  0  0  0  0
    2.6425    0.5758   -0.7719 N   0  0  0  0  0  0  0  0  0  0  0  0
    3.0683    0.4174    1.3252 Cl  0  0  0  0  0  0  0  0  0  0  0  0
  1  6  1  0  0  0  0
  2  1  2  0  0  0  0
  2  3  1  0  0  0  0
  3  4  2  0  0  0  0
  4  5  1  0  0  0  0
  4  9  1  0  0  0  0
  5 10  1  0  0  0  0
  6 11  1  0  0  0  0
  6  5  2  0  0  0  0
  7  1  1  0  0  0  0
  8  2  1  0  0  0  0
 11 12  2  0  0  0  0
 13 11  2  0  0  0  0
 14  3  1  0  0  0  0
 14 15  1  0  0  0  0
 15 16  1  0  0  0  0
M  RAD  2  14   2  15   2
M  END
