Coordinates from ORCA-job p-NO2-Ph-N2-Cl-B3LYPG-aug-cc-pVDZ-scan-d09-49-n400
 OpenBabel10311713223D

 16 16  0  0  0  0  0  0  0  0999 V2000
   -1.4649   -1.5654   -1.3095 C   0  0  0  0  0  0  0  0  0  0  0  0
   -0.0847   -1.4051   -1.2637 C   0  0  0  0  0  0  0  0  0  0  0  0
    0.4639   -0.1936   -0.8027 C   0  0  0  0  0  0  0  0  0  0  0  0
   -0.3593    0.8723   -0.3897 C   0  0  0  0  0  0  0  0  0  0  0  0
   -1.7419    0.7088   -0.4420 C   0  0  0  0  0  0  0  0  0  0  0  0
   -2.2682   -0.5010   -0.8968 C   0  0  0  0  0  0  0  0  0  0  0  0
   -1.9216   -2.4879   -1.6572 H   0  0  0  0  0  0  0  0  0  0  0  0
    0.5832   -2.2049   -1.5791 H   0  0  0  0  0  0  0  0  0  0  0  0
    0.0918    1.7958   -0.0374 H   0  0  0  0  0  0  0  0  0  0  0  0
   -2.4126    1.5066   -0.1334 H   0  0  0  0  0  0  0  0  0  0  0  0
   -3.7426   -0.6644   -0.9462 N   0  0  0  0  0  0  0  0  0  0  0  0
   -4.4287    0.2838   -0.5817 O   0  0  0  0  0  0  0  0  0  0  0  0
   -4.1779   -1.7382   -1.3490 O   0  0  0  0  0  0  0  0  0  0  0  0
    1.8336   -0.1303   -0.7977 N   0  0  0  0  0  0  0  0  0  0  0  0
    2.7450    0.5459   -0.5021 N   0  0  0  0  0  0  0  0  0  0  0  0
    2.3661    2.4254    0.3845 Cl  0  0  0  0  0  0  0  0  0  0  0  0
  1  2  2  0  0  0  0
  1  6  1  0  0  0  0
  2  3  1  0  0  0  0
  3 14  1  0  0  0  0
  3  4  2  0  0  0  0
  4  9  1  0  0  0  0
  5  4  1  0  0  0  0
  5 10  1  0  0  0  0
  6  5  2  0  0  0  0
  7  1  1  0  0  0  0
  8  2  1  0  0  0  0
 11  6  1  0  0  0  0
 11 12  2  0  0  0  0
 13 11  2  0  0  0  0
 14 15  2  0  0  0  0
 15 16  1  0  0  0  0
M  END
