Coordinates from ORCA-job p-NO2-Ph-N2-Cl-B3LYPG-aug-cc-pVDZ-scan-d09-49-n400
 OpenBabel10311713223D

 16 16  0  0  0  0  0  0  0  0999 V2000
   -1.5012   -1.5736   -1.3218 C   0  0  0  0  0  0  0  0  0  0  0  0
   -0.1124   -1.4312   -1.2699 C   0  0  0  0  0  0  0  0  0  0  0  0
    0.3666   -0.2235   -0.7953 C   0  0  0  0  0  0  0  0  0  0  0  0
   -0.3783    0.8576   -0.3680 C   0  0  0  0  0  0  0  0  0  0  0  0
   -1.7684    0.6969   -0.4276 C   0  0  0  0  0  0  0  0  0  0  0  0
   -2.2969   -0.5061   -0.8995 C   0  0  0  0  0  0  0  0  0  0  0  0
   -1.9654   -2.4885   -1.6807 H   0  0  0  0  0  0  0  0  0  0  0  0
    0.5613   -2.2245   -1.5847 H   0  0  0  0  0  0  0  0  0  0  0  0
    0.0993    1.7668   -0.0104 H   0  0  0  0  0  0  0  0  0  0  0  0
   -2.4360    1.4948   -0.1118 H   0  0  0  0  0  0  0  0  0  0  0  0
   -3.7711   -0.6594   -0.9558 N   0  0  0  0  0  0  0  0  0  0  0  0
   -4.4532    0.2881   -0.5817 O   0  0  0  0  0  0  0  0  0  0  0  0
   -4.2128   -1.7249   -1.3736 O   0  0  0  0  0  0  0  0  0  0  0  0
    2.0978   -0.1692   -0.7811 N   0  0  0  0  0  0  0  0  0  0  0  0
    2.8962    0.6098   -0.4666 N   0  0  0  0  0  0  0  0  0  0  0  0
    2.3556    2.5348    0.3247 Cl  0  0  0  0  0  0  0  0  0  0  0  0
  1  2  2  0  0  0  0
  1  6  1  0  0  0  0
  2  3  1  0  0  0  0
  3 14  1  0  0  0  0
  3  4  2  0  0  0  0
  4  9  1  0  0  0  0
  5  4  1  0  0  0  0
  5 10  1  0  0  0  0
  6  5  2  0  0  0  0
  7  1  1  0  0  0  0
  8  2  1  0  0  0  0
 11  6  1  0  0  0  0
 11 12  2  0  0  0  0
 13 11  2  0  0  0  0
 14 15  2  0  0  0  0
 15 16  1  0  0  0  0
M  END
