Coordinates from ORCA-job p-NO2-Ph-N2-Cl-B3LYPG-aug-cc-pVDZ-scan-d09-49-n400
 OpenBabel10311713223D

 16 14  0  0  0  0  0  0  0  0999 V2000
   -1.4643   -1.3973   -1.2543 C   0  0  0  0  0  0  0  0  0  0  0  0
   -0.0830   -1.1298   -1.1501 C   0  0  0  0  0  0  0  0  0  0  0  0
    0.0747    0.1443   -0.6448 C   0  0  0  0  0  0  0  0  0  0  0  0
   -0.7419    1.0290   -0.2926 C   0  0  0  0  0  0  0  0  0  0  0  0
   -2.1209    0.8429   -0.3645 C   0  0  0  0  0  0  0  0  0  0  0  0
   -2.4268   -0.4394   -0.8729 C   0  0  0  0  0  0  0  0  0  0  0  0
   -1.8055   -2.3578   -1.6349 H   0  0  0  0  0  0  0  0  0  0  0  0
    0.6854   -1.8432   -1.4342 H   0  0  0  0  0  0  0  0  0  0  0  0
   -0.0402    2.9458    0.4667 H   0  0  0  0  0  0  0  0  0  0  0  0
   -2.8978    1.5481   -0.0836 H   0  0  0  0  0  0  0  0  0  0  0  0
   -3.8570   -0.7992   -1.0136 N   0  0  0  0  0  0  0  0  0  0  0  0
   -4.6862    0.0413   -0.6792 O   0  0  0  0  0  0  0  0  0  0  0  0
   -4.1291   -1.9123   -1.4548 O   0  0  0  0  0  0  0  0  0  0  0  0
    3.8554   -1.8129   -1.4269 N   0  0  0  0  0  0  0  0  0  0  0  0
    4.9581   -1.7598   -1.4074 N   0  0  0  0  0  0  0  0  0  0  0  0
    0.1602    4.1481    0.9434 Cl  0  0  0  0  0  0  0  0  0  0  0  0
  1  2  2  0  0  0  0
  1  6  1  0  0  0  0
  2  3  1  0  0  0  0
  3  4  2  0  0  0  0
  5  4  1  0  0  0  0
  5 10  1  0  0  0  0
  6  5  2  0  0  0  0
  7  1  1  0  0  0  0
  8  2  1  0  0  0  0
  9 16  1  0  0  0  0
 11  6  1  0  0  0  0
 11 12  2  0  0  0  0
 13 11  2  0  0  0  0
 14 15  3  0  0  0  0
M  RAD  2   3   2   4   2
M  END
