Coordinates from ORCA-job p-NO2-Ph-N2-Cl-B3LYPG-aug-cc-pVDZ-scan-d09-49-n400
 OpenBabel10311713223D

 16 14  0  0  0  0  0  0  0  0999 V2000
   -1.5549   -1.6221   -1.3425 C   0  0  0  0  0  0  0  0  0  0  0  0
   -0.1473   -1.5967   -1.3353 C   0  0  0  0  0  0  0  0  0  0  0  0
    0.2532   -0.3777   -0.8523 C   0  0  0  0  0  0  0  0  0  0  0  0
   -0.2982    0.6857   -0.4292 C   0  0  0  0  0  0  0  0  0  0  0  0
   -1.7067    0.6859   -0.4263 C   0  0  0  0  0  0  0  0  0  0  0  0
   -2.2897   -0.5049   -0.8976 C   0  0  0  0  0  0  0  0  0  0  0  0
   -2.0867   -2.5044   -1.6916 H   0  0  0  0  0  0  0  0  0  0  0  0
    0.4755   -2.4237   -1.6647 H   0  0  0  0  0  0  0  0  0  0  0  0
    0.5397    2.1408    0.1464 H   0  0  0  0  0  0  0  0  0  0  0  0
   -2.3231    1.5182   -0.0947 H   0  0  0  0  0  0  0  0  0  0  0  0
   -3.7684   -0.5951   -0.9303 N   0  0  0  0  0  0  0  0  0  0  0  0
   -4.4029    0.3822   -0.5471 O   0  0  0  0  0  0  0  0  0  0  0  0
   -4.2698   -1.6355   -1.3481 O   0  0  0  0  0  0  0  0  0  0  0  0
    2.4966   -0.3817   -0.8581 N   0  0  0  0  0  0  0  0  0  0  0  0
    3.3882    0.2251   -0.6180 N   0  0  0  0  0  0  0  0  0  0  0  0
    1.1755    3.2519    0.5858 Cl  0  0  0  0  0  0  0  0  0  0  0  0
  1  2  2  0  0  0  0
  1  6  1  0  0  0  0
  2  3  1  0  0  0  0
  3  4  2  0  0  0  0
  4  5  1  0  0  0  0
  5 10  1  0  0  0  0
  6  5  2  0  0  0  0
  7  1  1  0  0  0  0
  8  2  1  0  0  0  0
  9 16  1  0  0  0  0
 11  6  1  0  0  0  0
 11 12  2  0  0  0  0
 13 11  2  0  0  0  0
 14 15  3  0  0  0  0
M  RAD  2   3   2   4   2
M  END
