Coordinates from ORCA-job p-NO2-Ph-N2-Cl-B3LYPG-aug-cc-pVDZ-scan-d09-49-n400
 OpenBabel10311713223D

 16 15  0  0  0  0  0  0  0  0999 V2000
   -1.5168   -1.5815   -1.3271 C   0  0  0  0  0  0  0  0  0  0  0  0
   -0.1239   -1.4537   -1.2783 C   0  0  0  0  0  0  0  0  0  0  0  0
    0.3357   -0.2471   -0.8006 C   0  0  0  0  0  0  0  0  0  0  0  0
   -0.3745    0.8442   -0.3669 C   0  0  0  0  0  0  0  0  0  0  0  0
   -1.7683    0.6915   -0.4255 C   0  0  0  0  0  0  0  0  0  0  0  0
   -2.3035   -0.5080   -0.9004 C   0  0  0  0  0  0  0  0  0  0  0  0
   -1.9889   -2.4920   -1.6874 H   0  0  0  0  0  0  0  0  0  0  0  0
    0.5466   -2.2489   -1.5945 H   0  0  0  0  0  0  0  0  0  0  0  0
    0.1233    1.7458   -0.0100 H   0  0  0  0  0  0  0  0  0  0  0  0
   -2.4300    1.4933   -0.1067 H   0  0  0  0  0  0  0  0  0  0  0  0
   -3.7786   -0.6518   -0.9553 N   0  0  0  0  0  0  0  0  0  0  0  0
   -4.4538    0.2990   -0.5775 O   0  0  0  0  0  0  0  0  0  0  0  0
   -4.2275   -1.7132   -1.3755 O   0  0  0  0  0  0  0  0  0  0  0  0
    2.1863   -0.1699   -0.7725 N   0  0  0  0  0  0  0  0  0  0  0  0
    2.9425    0.6357   -0.4539 N   0  0  0  0  0  0  0  0  0  0  0  0
    2.3125    2.6043    0.3284 Cl  0  0  0  0  0  0  0  0  0  0  0  0
  1  2  2  0  0  0  0
  1  6  1  0  0  0  0
  2  3  1  0  0  0  0
  3 14  1  0  0  0  0
  3  4  2  0  0  0  0
  4  9  1  0  0  0  0
  5  4  1  0  0  0  0
  5 10  1  0  0  0  0
  6  5  2  0  0  0  0
  7  1  1  0  0  0  0
  8  2  1  0  0  0  0
 11  6  1  0  0  0  0
 11 12  2  0  0  0  0
 13 11  2  0  0  0  0
 14 15  2  0  0  0  0
M  RAD  2  15   2  16   2
M  END
