Coordinates from ORCA-job p-NO2-Ph-N2-Cl-B3LYPG-aug-cc-pVDZ-scan-d09-49-n400
 OpenBabel10311713223D

 16 16  0  0  0  0  0  0  0  0999 V2000
   -1.4730   -1.5655   -1.3150 C   0  0  0  0  0  0  0  0  0  0  0  0
   -0.0908   -1.4104   -1.2630 C   0  0  0  0  0  0  0  0  0  0  0  0
    0.4409   -0.2027   -0.7942 C   0  0  0  0  0  0  0  0  0  0  0  0
   -0.3626    0.8651   -0.3756 C   0  0  0  0  0  0  0  0  0  0  0  0
   -1.7471    0.7038   -0.4324 C   0  0  0  0  0  0  0  0  0  0  0  0
   -2.2744   -0.5016   -0.8975 C   0  0  0  0  0  0  0  0  0  0  0  0
   -1.9315   -2.4845   -1.6700 H   0  0  0  0  0  0  0  0  0  0  0  0
    0.5787   -2.2082   -1.5787 H   0  0  0  0  0  0  0  0  0  0  0  0
    0.0933    1.7843   -0.0183 H   0  0  0  0  0  0  0  0  0  0  0  0
   -2.4169    1.5009   -0.1199 H   0  0  0  0  0  0  0  0  0  0  0  0
   -3.7489   -0.6608   -0.9521 N   0  0  0  0  0  0  0  0  0  0  0  0
   -4.4339    0.2862   -0.5822 O   0  0  0  0  0  0  0  0  0  0  0  0
   -4.1862   -1.7302   -1.3642 O   0  0  0  0  0  0  0  0  0  0  0  0
    1.9013   -0.1492   -0.7854 N   0  0  0  0  0  0  0  0  0  0  0  0
    2.7805    0.5642   -0.4883 N   0  0  0  0  0  0  0  0  0  0  0  0
    2.3519    2.4568    0.3332 Cl  0  0  0  0  0  0  0  0  0  0  0  0
  1  2  2  0  0  0  0
  1  6  1  0  0  0  0
  2  3  1  0  0  0  0
  3 14  1  0  0  0  0
  3  4  2  0  0  0  0
  4  9  1  0  0  0  0
  5  4  1  0  0  0  0
  5 10  1  0  0  0  0
  6  5  2  0  0  0  0
  7  1  1  0  0  0  0
  8  2  1  0  0  0  0
 11  6  1  0  0  0  0
 11 12  2  0  0  0  0
 13 11  2  0  0  0  0
 14 15  2  0  0  0  0
 15 16  1  0  0  0  0
M  END
