Coordinates from ORCA-job p-NO2-Ph-N2-Cl-B3LYPG-aug-cc-pVDZ-scan-d09-49-n400
 OpenBabel10311713223D

 16 14  0  0  0  0  0  0  0  0999 V2000
   -1.5551   -1.4964   -1.2935 C   0  0  0  0  0  0  0  0  0  0  0  0
   -0.1546   -1.3333   -1.2307 C   0  0  0  0  0  0  0  0  0  0  0  0
    0.1068   -0.0754   -0.7321 C   0  0  0  0  0  0  0  0  0  0  0  0
   -0.6229    0.8731   -0.3549 C   0  0  0  0  0  0  0  0  0  0  0  0
   -2.0144    0.7859   -0.3876 C   0  0  0  0  0  0  0  0  0  0  0  0
   -2.4310   -0.4692   -0.8849 C   0  0  0  0  0  0  0  0  0  0  0  0
   -1.9787   -2.4283   -1.6626 H   0  0  0  0  0  0  0  0  0  0  0  0
    0.5504   -2.1009   -1.5362 H   0  0  0  0  0  0  0  0  0  0  0  0
    0.2123    2.7203    0.3770 H   0  0  0  0  0  0  0  0  0  0  0  0
   -2.7285    1.5465   -0.0849 H   0  0  0  0  0  0  0  0  0  0  0  0
   -3.8876   -0.7208   -0.9827 N   0  0  0  0  0  0  0  0  0  0  0  0
   -4.6413    0.1787   -0.6244 O   0  0  0  0  0  0  0  0  0  0  0  0
   -4.2551   -1.8102   -1.4138 O   0  0  0  0  0  0  0  0  0  0  0  0
    3.6415   -1.2848   -1.2168 N   0  0  0  0  0  0  0  0  0  0  0  0
    4.7137   -1.0397   -1.1213 N   0  0  0  0  0  0  0  0  0  0  0  0
    0.5257    3.9026    0.8457 Cl  0  0  0  0  0  0  0  0  0  0  0  0
  1  2  2  0  0  0  0
  1  6  1  0  0  0  0
  2  3  1  0  0  0  0
  3  4  2  0  0  0  0
  5  4  1  0  0  0  0
  5 10  1  0  0  0  0
  6  5  2  0  0  0  0
  7  1  1  0  0  0  0
  8  2  1  0  0  0  0
  9 16  1  0  0  0  0
 11  6  1  0  0  0  0
 11 12  2  0  0  0  0
 13 11  2  0  0  0  0
 14 15  3  0  0  0  0
M  RAD  2   3   2   4   2
M  END
