Coordinates from ORCA-job p-NO2-Ph-N2-Cl-B3LYPG-aug-cc-pVDZ-scan-d09-49-n400
 OpenBabel10311713223D

 16 14  0  0  0  0  0  0  0  0999 V2000
   -1.5002   -1.4298   -1.2665 C   0  0  0  0  0  0  0  0  0  0  0  0
   -0.1115   -1.1968   -1.1763 C   0  0  0  0  0  0  0  0  0  0  0  0
    0.0802    0.0729   -0.6729 C   0  0  0  0  0  0  0  0  0  0  0  0
   -0.7075    0.9802   -0.3117 C   0  0  0  0  0  0  0  0  0  0  0  0
   -2.0916    0.8260   -0.3708 C   0  0  0  0  0  0  0  0  0  0  0  0
   -2.4345   -0.4482   -0.8756 C   0  0  0  0  0  0  0  0  0  0  0  0
   -1.8691   -2.3815   -1.6435 H   0  0  0  0  0  0  0  0  0  0  0  0
    0.6368   -1.9284   -1.4677 H   0  0  0  0  0  0  0  0  0  0  0  0
    0.0384    2.8731    0.4377 H   0  0  0  0  0  0  0  0  0  0  0  0
   -2.8483    1.5500   -0.0824 H   0  0  0  0  0  0  0  0  0  0  0  0
   -3.8746   -0.7724   -1.0019 N   0  0  0  0  0  0  0  0  0  0  0  0
   -4.6793    0.0895   -0.6621 O   0  0  0  0  0  0  0  0  0  0  0  0
   -4.1785   -1.8774   -1.4426 O   0  0  0  0  0  0  0  0  0  0  0  0
    3.8238   -1.6496   -1.3624 N   0  0  0  0  0  0  0  0  0  0  0  0
    4.9204   -1.5298   -1.3169 N   0  0  0  0  0  0  0  0  0  0  0  0
    0.2766    4.0701    0.9119 Cl  0  0  0  0  0  0  0  0  0  0  0  0
  1  2  2  0  0  0  0
  1  6  1  0  0  0  0
  2  3  1  0  0  0  0
  3  4  2  0  0  0  0
  5  4  1  0  0  0  0
  5 10  1  0  0  0  0
  6  5  2  0  0  0  0
  7  1  1  0  0  0  0
  8  2  1  0  0  0  0
  9 16  1  0  0  0  0
 11  6  1  0  0  0  0
 11 12  2  0  0  0  0
 13 11  2  0  0  0  0
 14 15  3  0  0  0  0
M  RAD  2   3   2   4   2
M  END
