Coordinates from ORCA-job p-NO2-Ph-N2-Cl-B3LYPG-aug-cc-pVDZ-scan-d09-49-n400
 OpenBabel10311713223D

 16 14  0  0  0  0  0  0  0  0999 V2000
   -1.5401   -1.5990   -1.3336 C   0  0  0  0  0  0  0  0  0  0  0  0
   -0.1410   -1.5014   -1.2972 C   0  0  0  0  0  0  0  0  0  0  0  0
    0.3035   -0.2970   -0.8202 C   0  0  0  0  0  0  0  0  0  0  0  0
   -0.3489    0.8123   -0.3792 C   0  0  0  0  0  0  0  0  0  0  0  0
   -1.7491    0.6818   -0.4287 C   0  0  0  0  0  0  0  0  0  0  0  0
   -2.3047   -0.5106   -0.9007 C   0  0  0  0  0  0  0  0  0  0  0  0
   -2.0305   -2.5015   -1.6907 H   0  0  0  0  0  0  0  0  0  0  0  0
    0.5169   -2.3052   -1.6170 H   0  0  0  0  0  0  0  0  0  0  0  0
    0.1859    1.7040   -0.0264 H   0  0  0  0  0  0  0  0  0  0  0  0
   -2.3945    1.4953   -0.1050 H   0  0  0  0  0  0  0  0  0  0  0  0
   -3.7823   -0.6314   -0.9461 N   0  0  0  0  0  0  0  0  0  0  0  0
   -4.4395    0.3307   -0.5664 O   0  0  0  0  0  0  0  0  0  0  0  0
   -4.2497   -1.6850   -1.3660 O   0  0  0  0  0  0  0  0  0  0  0  0
    2.2906   -0.1568   -0.7679 N   0  0  0  0  0  0  0  0  0  0  0  0
    2.9815    0.6827   -0.4359 N   0  0  0  0  0  0  0  0  0  0  0  0
    2.1829    2.7290    0.3774 Cl  0  0  0  0  0  0  0  0  0  0  0  0
  1  2  2  0  0  0  0
  1  6  1  0  0  0  0
  2  3  1  0  0  0  0
  3  4  2  0  0  0  0
  4  9  1  0  0  0  0
  5  4  1  0  0  0  0
  5 10  1  0  0  0  0
  6  5  2  0  0  0  0
  7  1  1  0  0  0  0
  8  2  1  0  0  0  0
 11  6  1  0  0  0  0
 11 12  2  0  0  0  0
 13 11  2  0  0  0  0
 14 15  3  0  0  0  0
M  RAD  2   3   2  16   2
M  END
