Coordinates from ORCA-job p-NO2-Ph-N2-Cl-B3LYPG-aug-cc-pVDZ-scan-d09-49-n400
 OpenBabel10311713223D

 16 14  0  0  0  0  0  0  0  0999 V2000
   -1.5932   -1.5778   -1.3257 C   0  0  0  0  0  0  0  0  0  0  0  0
   -0.1844   -1.5016   -1.2976 C   0  0  0  0  0  0  0  0  0  0  0  0
    0.1649   -0.2640   -0.8071 C   0  0  0  0  0  0  0  0  0  0  0  0
   -0.4848    0.7345   -0.4099 C   0  0  0  0  0  0  0  0  0  0  0  0
   -1.8815    0.7278   -0.4105 C   0  0  0  0  0  0  0  0  0  0  0  0
   -2.3907   -0.4971   -0.8957 C   0  0  0  0  0  0  0  0  0  0  0  0
   -2.0832   -2.4811   -1.6833 H   0  0  0  0  0  0  0  0  0  0  0  0
    0.4661   -2.3095   -1.6190 H   0  0  0  0  0  0  0  0  0  0  0  0
    0.4268    2.5021    0.2899 H   0  0  0  0  0  0  0  0  0  0  0  0
   -2.5388    1.5316   -0.0907 H   0  0  0  0  0  0  0  0  0  0  0  0
   -3.8623   -0.6555   -0.9565 N   0  0  0  0  0  0  0  0  0  0  0  0
   -4.5481    0.2900   -0.5807 O   0  0  0  0  0  0  0  0  0  0  0  0
   -4.3090   -1.7189   -1.3779 O   0  0  0  0  0  0  0  0  0  0  0  0
    3.2248   -0.8076   -1.0271 N   0  0  0  0  0  0  0  0  0  0  0  0
    4.2306   -0.3842   -0.8601 N   0  0  0  0  0  0  0  0  0  0  0  0
    0.8440    3.6590    0.7482 Cl  0  0  0  0  0  0  0  0  0  0  0  0
  1  2  2  0  0  0  0
  1  6  1  0  0  0  0
  2  3  1  0  0  0  0
  3  4  2  0  0  0  0
  5  4  1  0  0  0  0
  5 10  1  0  0  0  0
  6  5  2  0  0  0  0
  7  1  1  0  0  0  0
  8  2  1  0  0  0  0
  9 16  1  0  0  0  0
 11  6  1  0  0  0  0
 11 12  2  0  0  0  0
 13 11  2  0  0  0  0
 14 15  3  0  0  0  0
M  RAD  2   3   2   4   2
M  END
