Coordinates from ORCA-job p-NO2-Ph-N2-Cl-B3LYPG-aug-cc-pVDZ-scan-d09-49-n400
 OpenBabel10311713223D

 16 16  0  0  0  0  0  0  0  0999 V2000
   -1.4951   -1.5718   -1.3197 C   0  0  0  0  0  0  0  0  0  0  0  0
   -0.1076   -1.4264   -1.2684 C   0  0  0  0  0  0  0  0  0  0  0  0
    0.3806   -0.2185   -0.7961 C   0  0  0  0  0  0  0  0  0  0  0  0
   -0.3746    0.8604   -0.3713 C   0  0  0  0  0  0  0  0  0  0  0  0
   -1.7637    0.6992   -0.4297 C   0  0  0  0  0  0  0  0  0  0  0  0
   -2.2919   -0.5048   -0.8989 C   0  0  0  0  0  0  0  0  0  0  0  0
   -1.9583   -2.4879   -1.6767 H   0  0  0  0  0  0  0  0  0  0  0  0
    0.5656   -2.2205   -1.5830 H   0  0  0  0  0  0  0  0  0  0  0  0
    0.0984    1.7718   -0.0143 H   0  0  0  0  0  0  0  0  0  0  0  0
   -2.4319    1.4970   -0.1151 H   0  0  0  0  0  0  0  0  0  0  0  0
   -3.7662   -0.6595   -0.9542 N   0  0  0  0  0  0  0  0  0  0  0  0
   -4.4489    0.2881   -0.5814 O   0  0  0  0  0  0  0  0  0  0  0  0
   -4.2072   -1.7262   -1.3695 O   0  0  0  0  0  0  0  0  0  0  0  0
    2.0618   -0.1670   -0.7860 N   0  0  0  0  0  0  0  0  0  0  0  0
    2.8726    0.6029   -0.4709 N   0  0  0  0  0  0  0  0  0  0  0  0
    2.3476    2.5111    0.3316 Cl  0  0  0  0  0  0  0  0  0  0  0  0
  1  2  2  0  0  0  0
  1  6  1  0  0  0  0
  2  3  1  0  0  0  0
  3 14  1  0  0  0  0
  3  4  2  0  0  0  0
  4  9  1  0  0  0  0
  5  4  1  0  0  0  0
  5 10  1  0  0  0  0
  6  5  2  0  0  0  0
  7  1  1  0  0  0  0
  8  2  1  0  0  0  0
 11  6  1  0  0  0  0
 11 12  2  0  0  0  0
 13 11  2  0  0  0  0
 14 15  2  0  0  0  0
 15 16  1  0  0  0  0
M  END
