Coordinates from ORCA-job p-NO2-Ph-N2-Cl-B3LYPG-aug-cc-pVDZ-scan-d09-49-n400
 OpenBabel10311713223D

 16 14  0  0  0  0  0  0  0  0999 V2000
   -1.4697   -1.4020   -1.2563 C   0  0  0  0  0  0  0  0  0  0  0  0
   -0.0875   -1.1389   -1.1537 C   0  0  0  0  0  0  0  0  0  0  0  0
    0.0756    0.1343   -0.6487 C   0  0  0  0  0  0  0  0  0  0  0  0
   -0.7373    1.0221   -0.2954 C   0  0  0  0  0  0  0  0  0  0  0  0
   -2.1170    0.8406   -0.3655 C   0  0  0  0  0  0  0  0  0  0  0  0
   -2.4282   -0.4407   -0.8735 C   0  0  0  0  0  0  0  0  0  0  0  0
   -1.8146   -2.3614   -1.6365 H   0  0  0  0  0  0  0  0  0  0  0  0
    0.6788   -1.8545   -1.4387 H   0  0  0  0  0  0  0  0  0  0  0  0
   -0.0293    2.9361    0.4629 H   0  0  0  0  0  0  0  0  0  0  0  0
   -2.8911    1.5485   -0.0836 H   0  0  0  0  0  0  0  0  0  0  0  0
   -3.8599   -0.7953   -1.0123 N   0  0  0  0  0  0  0  0  0  0  0  0
   -4.6855    0.0481   -0.6762 O   0  0  0  0  0  0  0  0  0  0  0  0
   -4.1365   -1.9075   -1.4527 O   0  0  0  0  0  0  0  0  0  0  0  0
    3.8526   -1.7907   -1.4180 N   0  0  0  0  0  0  0  0  0  0  0  0
    4.9547   -1.7284   -1.3948 N   0  0  0  0  0  0  0  0  0  0  0  0
    0.1761    4.1377    0.9393 Cl  0  0  0  0  0  0  0  0  0  0  0  0
  1  2  2  0  0  0  0
  1  6  1  0  0  0  0
  2  3  1  0  0  0  0
  3  4  2  0  0  0  0
  5  4  1  0  0  0  0
  5 10  1  0  0  0  0
  6  5  2  0  0  0  0
  7  1  1  0  0  0  0
  8  2  1  0  0  0  0
  9 16  1  0  0  0  0
 11  6  1  0  0  0  0
 11 12  2  0  0  0  0
 13 11  2  0  0  0  0
 14 15  3  0  0  0  0
M  RAD  2   3   2   4   2
M  END
