Coordinates from ORCA-job p-NO2-Ph-N2-Cl-B3LYPG-aug-cc-pVDZ-scan-d09-49-n400
 OpenBabel10311713223D

 16 14  0  0  0  0  0  0  0  0999 V2000
   -1.4752   -1.4066   -1.2580 C   0  0  0  0  0  0  0  0  0  0  0  0
   -0.0918   -1.1487   -1.1576 C   0  0  0  0  0  0  0  0  0  0  0  0
    0.0762    0.1239   -0.6528 C   0  0  0  0  0  0  0  0  0  0  0  0
   -0.7325    1.0149   -0.2982 C   0  0  0  0  0  0  0  0  0  0  0  0
   -2.1130    0.8383   -0.3664 C   0  0  0  0  0  0  0  0  0  0  0  0
   -2.4297   -0.4419   -0.8739 C   0  0  0  0  0  0  0  0  0  0  0  0
   -1.8243   -2.3648   -1.6377 H   0  0  0  0  0  0  0  0  0  0  0  0
    0.6710   -1.8673   -1.4437 H   0  0  0  0  0  0  0  0  0  0  0  0
   -0.0181    2.9257    0.4587 H   0  0  0  0  0  0  0  0  0  0  0  0
   -2.8841    1.5490   -0.0833 H   0  0  0  0  0  0  0  0  0  0  0  0
   -3.8629   -0.7913   -1.0105 N   0  0  0  0  0  0  0  0  0  0  0  0
   -4.6850    0.0552   -0.6738 O   0  0  0  0  0  0  0  0  0  0  0  0
   -4.1442   -1.9024   -1.4509 O   0  0  0  0  0  0  0  0  0  0  0  0
    3.8502   -1.7673   -1.4088 N   0  0  0  0  0  0  0  0  0  0  0  0
    4.9516   -1.6953   -1.3818 N   0  0  0  0  0  0  0  0  0  0  0  0
    0.1929    4.1266    0.9348 Cl  0  0  0  0  0  0  0  0  0  0  0  0
  1  2  2  0  0  0  0
  1  6  1  0  0  0  0
  2  3  1  0  0  0  0
  3  4  2  0  0  0  0
  5  4  1  0  0  0  0
  5 10  1  0  0  0  0
  6  5  2  0  0  0  0
  7  1  1  0  0  0  0
  8  2  1  0  0  0  0
  9 16  1  0  0  0  0
 11  6  1  0  0  0  0
 11 12  2  0  0  0  0
 13 11  2  0  0  0  0
 14 15  3  0  0  0  0
M  RAD  2   3   2   4   2
M  END
