Coordinates from ORCA-job p-NO2-Ph-N2-Cl-B3LYPG-aug-cc-pVDZ-scan-d09-49-n400
 OpenBabel10311713223D

 16 14  0  0  0  0  0  0  0  0999 V2000
   -1.5230   -1.4544   -1.2772 C   0  0  0  0  0  0  0  0  0  0  0  0
   -0.1294   -1.2473   -1.1968 C   0  0  0  0  0  0  0  0  0  0  0  0
    0.0878    0.0184   -0.6948 C   0  0  0  0  0  0  0  0  0  0  0  0
   -0.6783    0.9415   -0.3275 C   0  0  0  0  0  0  0  0  0  0  0  0
   -2.0656    0.8121   -0.3771 C   0  0  0  0  0  0  0  0  0  0  0  0
   -2.4360   -0.4554   -0.8796 C   0  0  0  0  0  0  0  0  0  0  0  0
   -1.9123   -2.3990   -1.6515 H   0  0  0  0  0  0  0  0  0  0  0  0
    0.6033   -1.9923   -1.4934 H   0  0  0  0  0  0  0  0  0  0  0  0
    0.1024    2.8177    0.4158 H   0  0  0  0  0  0  0  0  0  0  0  0
   -2.8069    1.5498   -0.0834 H   0  0  0  0  0  0  0  0  0  0  0  0
   -3.8826   -0.7527   -0.9958 N   0  0  0  0  0  0  0  0  0  0  0  0
   -4.6687    0.1223   -0.6461 O   0  0  0  0  0  0  0  0  0  0  0  0
   -4.2103   -1.8533   -1.4304 O   0  0  0  0  0  0  0  0  0  0  0  0
    3.7714   -1.5173   -1.3092 N   0  0  0  0  0  0  0  0  0  0  0  0
    4.8611   -1.3520   -1.2450 N   0  0  0  0  0  0  0  0  0  0  0  0
    0.3682    4.0097    0.8883 Cl  0  0  0  0  0  0  0  0  0  0  0  0
  1  2  2  0  0  0  0
  1  6  1  0  0  0  0
  2  3  1  0  0  0  0
  3  4  2  0  0  0  0
  5  4  1  0  0  0  0
  5 10  1  0  0  0  0
  6  5  2  0  0  0  0
  7  1  1  0  0  0  0
  8  2  1  0  0  0  0
  9 16  1  0  0  0  0
 11  6  1  0  0  0  0
 11 12  2  0  0  0  0
 13 11  2  0  0  0  0
 14 15  3  0  0  0  0
M  RAD  2   3   2   4   2
M  END
