Coordinates from ORCA-job p-NO2-Ph-N2-Cl-B3LYPG-aug-cc-pVDZ-scan-d09-49-n400
 OpenBabel10311713223D

 16 15  0  0  0  0  0  0  0  0999 V2000
   -1.5194   -1.5828   -1.3264 C   0  0  0  0  0  0  0  0  0  0  0  0
   -0.1263   -1.4555   -1.2787 C   0  0  0  0  0  0  0  0  0  0  0  0
    0.3316   -0.2489   -0.8012 C   0  0  0  0  0  0  0  0  0  0  0  0
   -0.3761    0.8429   -0.3668 C   0  0  0  0  0  0  0  0  0  0  0  0
   -1.7700    0.6904   -0.4244 C   0  0  0  0  0  0  0  0  0  0  0  0
   -2.3057   -0.5092   -0.8990 C   0  0  0  0  0  0  0  0  0  0  0  0
   -1.9919   -2.4933   -1.6865 H   0  0  0  0  0  0  0  0  0  0  0  0
    0.5441   -2.2506   -1.5954 H   0  0  0  0  0  0  0  0  0  0  0  0
    0.1232    1.7441   -0.0104 H   0  0  0  0  0  0  0  0  0  0  0  0
   -2.4314    1.4924   -0.1050 H   0  0  0  0  0  0  0  0  0  0  0  0
   -3.7808   -0.6528   -0.9528 N   0  0  0  0  0  0  0  0  0  0  0  0
   -4.4556    0.3007   -0.5810 O   0  0  0  0  0  0  0  0  0  0  0  0
   -4.2300   -1.7116   -1.3793 O   0  0  0  0  0  0  0  0  0  0  0  0
    2.2021   -0.1683   -0.7731 N   0  0  0  0  0  0  0  0  0  0  0  0
    2.9539    0.6399   -0.4538 N   0  0  0  0  0  0  0  0  0  0  0  0
    2.3134    2.6106    0.3300 Cl  0  0  0  0  0  0  0  0  0  0  0  0
  1  2  2  0  0  0  0
  1  6  1  0  0  0  0
  2  3  1  0  0  0  0
  3 14  1  0  0  0  0
  3  4  2  0  0  0  0
  4  9  1  0  0  0  0
  5  4  1  0  0  0  0
  5 10  1  0  0  0  0
  6  5  2  0  0  0  0
  7  1  1  0  0  0  0
  8  2  1  0  0  0  0
 11  6  1  0  0  0  0
 11 12  2  0  0  0  0
 13 11  2  0  0  0  0
 14 15  2  0  0  0  0
M  RAD  2  15   2  16   2
M  END
