Coordinates from ORCA-job p-NO2-Ph-N2-Cl-B3LYPG-aug-cc-pVDZ-scan-d09-49-n400
 OpenBabel10311713223D

 16 16  0  0  0  0  0  0  0  0999 V2000
   -1.4961   -1.5721   -1.3199 C   0  0  0  0  0  0  0  0  0  0  0  0
   -0.1084   -1.4273   -1.2686 C   0  0  0  0  0  0  0  0  0  0  0  0
    0.3790   -0.2198   -0.7957 C   0  0  0  0  0  0  0  0  0  0  0  0
   -0.3747    0.8595   -0.3704 C   0  0  0  0  0  0  0  0  0  0  0  0
   -1.7639    0.6988   -0.4290 C   0  0  0  0  0  0  0  0  0  0  0  0
   -2.2925   -0.5048   -0.8988 C   0  0  0  0  0  0  0  0  0  0  0  0
   -1.9596   -2.4878   -1.6774 H   0  0  0  0  0  0  0  0  0  0  0  0
    0.5647   -2.2214   -1.5834 H   0  0  0  0  0  0  0  0  0  0  0  0
    0.0991    1.7705   -0.0131 H   0  0  0  0  0  0  0  0  0  0  0  0
   -2.4318    1.4968   -0.1140 H   0  0  0  0  0  0  0  0  0  0  0  0
   -3.7668   -0.6589   -0.9542 N   0  0  0  0  0  0  0  0  0  0  0  0
   -4.4491    0.2891   -0.5816 O   0  0  0  0  0  0  0  0  0  0  0  0
   -4.2081   -1.7250   -1.3706 O   0  0  0  0  0  0  0  0  0  0  0  0
    2.0702   -0.1676   -0.7851 N   0  0  0  0  0  0  0  0  0  0  0  0
    2.8776    0.6051   -0.4700 N   0  0  0  0  0  0  0  0  0  0  0  0
    2.3417    2.5129    0.3281 Cl  0  0  0  0  0  0  0  0  0  0  0  0
  1  2  2  0  0  0  0
  1  6  1  0  0  0  0
  2  3  1  0  0  0  0
  3 14  1  0  0  0  0
  3  4  2  0  0  0  0
  4  9  1  0  0  0  0
  5  4  1  0  0  0  0
  5 10  1  0  0  0  0
  6  5  2  0  0  0  0
  7  1  1  0  0  0  0
  8  2  1  0  0  0  0
 11  6  1  0  0  0  0
 11 12  2  0  0  0  0
 13 11  2  0  0  0  0
 14 15  2  0  0  0  0
 15 16  1  0  0  0  0
M  END
