Coordinates from ORCA-job p-NO2-Ph-N2-Cl-B3LYPG-aug-cc-pVDZ-scan-d09-49-n400
 OpenBabel10311713223D

 16 14  0  0  0  0  0  0  0  0999 V2000
   -1.5923   -1.5734   -1.3241 C   0  0  0  0  0  0  0  0  0  0  0  0
   -0.1835   -1.4934   -1.2944 C   0  0  0  0  0  0  0  0  0  0  0  0
    0.1599   -0.2545   -0.8033 C   0  0  0  0  0  0  0  0  0  0  0  0
   -0.4938    0.7416   -0.4072 C   0  0  0  0  0  0  0  0  0  0  0  0
   -1.8901    0.7314   -0.4093 C   0  0  0  0  0  0  0  0  0  0  0  0
   -2.3942   -0.4954   -0.8953 C   0  0  0  0  0  0  0  0  0  0  0  0
   -2.0791   -2.4782   -1.6824 H   0  0  0  0  0  0  0  0  0  0  0  0
    0.4691   -2.2998   -1.6153 H   0  0  0  0  0  0  0  0  0  0  0  0
    0.4164    2.5142    0.2947 H   0  0  0  0  0  0  0  0  0  0  0  0
   -2.5505    1.5329   -0.0903 H   0  0  0  0  0  0  0  0  0  0  0  0
   -3.8652   -0.6591   -0.9581 N   0  0  0  0  0  0  0  0  0  0  0  0
   -4.5548    0.2838   -0.5826 O   0  0  0  0  0  0  0  0  0  0  0  0
   -4.3076   -1.7242   -1.3795 O   0  0  0  0  0  0  0  0  0  0  0  0
    3.2536   -0.8314   -1.0364 N   0  0  0  0  0  0  0  0  0  0  0  0
    4.2647   -0.4191   -0.8739 N   0  0  0  0  0  0  0  0  0  0  0  0
    0.8285    3.6725    0.7536 Cl  0  0  0  0  0  0  0  0  0  0  0  0
  1  2  2  0  0  0  0
  1  6  1  0  0  0  0
  2  3  1  0  0  0  0
  3  4  2  0  0  0  0
  5  4  1  0  0  0  0
  5 10  1  0  0  0  0
  6  5  2  0  0  0  0
  7  1  1  0  0  0  0
  8  2  1  0  0  0  0
  9 16  1  0  0  0  0
 11  6  1  0  0  0  0
 11 12  2  0  0  0  0
 13 11  2  0  0  0  0
 14 15  3  0  0  0  0
M  RAD  2   3   2   4   2
M  END
