Coordinates from ORCA-job p-NO2-Ph-N2-Cl-B3LYPG-aug-cc-pVDZ-scan-d09-49-n400
 OpenBabel10311713223D

 16 14  0  0  0  0  0  0  0  0999 V2000
   -1.1837   -1.2270   -1.1872 C   0  0  0  0  0  0  0  0  0  0  0  0
    0.1405   -0.7740   -1.0092 C   0  0  0  0  0  0  0  0  0  0  0  0
    0.0961    0.5081   -0.5004 C   0  0  0  0  0  0  0  0  0  0  0  0
   -0.8536    1.2693   -0.1971 C   0  0  0  0  0  0  0  0  0  0  0  0
   -2.1882    0.8987   -0.3423 C   0  0  0  0  0  0  0  0  0  0  0  0
   -2.2876   -0.4115   -0.8621 C   0  0  0  0  0  0  0  0  0  0  0  0
   -1.3689   -2.2237   -1.5824 H   0  0  0  0  0  0  0  0  0  0  0  0
    1.0122   -1.3763   -1.2494 H   0  0  0  0  0  0  0  0  0  0  0  0
   -0.4417    3.2678    0.5952 H   0  0  0  0  0  0  0  0  0  0  0  0
   -3.0682    1.4902   -0.1064 H   0  0  0  0  0  0  0  0  0  0  0  0
   -3.6453   -0.9630   -1.0790 N   0  0  0  0  0  0  0  0  0  0  0  0
   -4.5987   -0.2453   -0.7929 O   0  0  0  0  0  0  0  0  0  0  0  0
   -3.7382   -2.1010   -1.5305 O   0  0  0  0  0  0  0  0  0  0  0  0
    3.5126   -2.4760   -1.6894 N   0  0  0  0  0  0  0  0  0  0  0  0
    4.5306   -2.8725   -1.8484 N   0  0  0  0  0  0  0  0  0  0  0  0
   -0.4369    4.4840    1.0777 Cl  0  0  0  0  0  0  0  0  0  0  0  0
  1  2  2  0  0  0  0
  1  6  1  0  0  0  0
  2  3  1  0  0  0  0
  3  4  2  0  0  0  0
  5  4  1  0  0  0  0
  5 10  1  0  0  0  0
  6  5  2  0  0  0  0
  7  1  1  0  0  0  0
  8  2  1  0  0  0  0
  9 16  1  0  0  0  0
 11  6  1  0  0  0  0
 11 12  2  0  0  0  0
 13 11  2  0  0  0  0
 15 14  3  0  0  0  0
M  RAD  2   3   2   4   2
M  END
