Coordinates from ORCA-job p-NO2-Ph-N2-Cl-B3LYPG-aug-cc-pVDZ-scan-d09-49-n400
 OpenBabel10311713223D

 16 16  0  0  0  0  0  0  0  0999 V2000
   -1.3392   -1.4859   -1.0700 C   0  0  0  0  0  0  0  0  0  0  0  0
    0.0156   -1.1951   -1.1785 C   0  0  0  0  0  0  0  0  0  0  0  0
    0.4509    0.1422   -1.0737 C   0  0  0  0  0  0  0  0  0  0  0  0
   -0.4791    1.1857   -0.8859 C   0  0  0  0  0  0  0  0  0  0  0  0
   -1.8325    0.8874   -0.7800 C   0  0  0  0  0  0  0  0  0  0  0  0
   -2.2449   -0.4425   -0.8734 C   0  0  0  0  0  0  0  0  0  0  0  0
   -1.7001   -2.5093   -1.1344 H   0  0  0  0  0  0  0  0  0  0  0  0
    0.7450   -1.9874   -1.3342 H   0  0  0  0  0  0  0  0  0  0  0  0
   -0.1278    2.2133   -0.8173 H   0  0  0  0  0  0  0  0  0  0  0  0
   -2.5691    1.6714   -0.6234 H   0  0  0  0  0  0  0  0  0  0  0  0
   -3.6830   -0.7545   -0.7665 N   0  0  0  0  0  0  0  0  0  0  0  0
   -4.4570    0.1836   -0.5972 O   0  0  0  0  0  0  0  0  0  0  0  0
   -4.0169   -1.9329   -0.8551 O   0  0  0  0  0  0  0  0  0  0  0  0
    1.7047    0.4189   -1.2078 N   0  0  0  0  0  0  0  0  0  0  0  0
    2.6726    0.5584   -0.5500 N   0  0  0  0  0  0  0  0  0  0  0  0
    2.3420    0.2945    1.4438 Cl  0  0  0  0  0  0  0  0  0  0  0  0
  1  6  2  0  0  0  0
  2  3  2  0  0  0  0
  2  1  1  0  0  0  0
  3  4  1  0  0  0  0
  4  9  1  0  0  0  0
  4  5  2  0  0  0  0
  5 10  1  0  0  0  0
  6  5  1  0  0  0  0
  6 11  1  0  0  0  0
  7  1  1  0  0  0  0
  8  2  1  0  0  0  0
 11 12  2  0  0  0  0
 13 11  2  0  0  0  0
 14  3  1  0  0  0  0
 14 15  1  0  0  0  0
 15 16  1  0  0  0  0
M  RAD  2  14   2  15   2
M  END
