Coordinates from ORCA-job p-NO2-Ph-N2-Cl-B3LYPG-aug-cc-pVDZ-scan-d09-49-n400
 OpenBabel10311713223D

 16 14  0  0  0  0  0  0  0  0999 V2000
   -1.5532   -1.6213   -1.3435 C   0  0  0  0  0  0  0  0  0  0  0  0
   -0.1459   -1.5951   -1.3350 C   0  0  0  0  0  0  0  0  0  0  0  0
    0.2552   -0.3764   -0.8519 C   0  0  0  0  0  0  0  0  0  0  0  0
   -0.2949    0.6891   -0.4284 C   0  0  0  0  0  0  0  0  0  0  0  0
   -1.7039    0.6861   -0.4277 C   0  0  0  0  0  0  0  0  0  0  0  0
   -2.2877   -0.5039   -0.8991 C   0  0  0  0  0  0  0  0  0  0  0  0
   -2.0846   -2.5037   -1.6929 H   0  0  0  0  0  0  0  0  0  0  0  0
    0.4777   -2.4218   -1.6639 H   0  0  0  0  0  0  0  0  0  0  0  0
    0.5385    2.1260    0.1404 H   0  0  0  0  0  0  0  0  0  0  0  0
   -2.3205    1.5186   -0.0965 H   0  0  0  0  0  0  0  0  0  0  0  0
   -3.7664   -0.5933   -0.9326 N   0  0  0  0  0  0  0  0  0  0  0  0
   -4.4007    0.3815   -0.5431 O   0  0  0  0  0  0  0  0  0  0  0  0
   -4.2678   -1.6363   -1.3440 O   0  0  0  0  0  0  0  0  0  0  0  0
    2.4785   -0.3719   -0.8529 N   0  0  0  0  0  0  0  0  0  0  0  0
    3.3699    0.2351   -0.6122 N   0  0  0  0  0  0  0  0  0  0  0  0
    1.1870    3.2351    0.5794 Cl  0  0  0  0  0  0  0  0  0  0  0  0
  1  2  2  0  0  0  0
  1  6  1  0  0  0  0
  2  3  1  0  0  0  0
  3  4  2  0  0  0  0
  4  5  1  0  0  0  0
  5 10  1  0  0  0  0
  6  5  2  0  0  0  0
  7  1  1  0  0  0  0
  8  2  1  0  0  0  0
  9 16  1  0  0  0  0
 11  6  1  0  0  0  0
 11 12  2  0  0  0  0
 13 11  2  0  0  0  0
 14 15  3  0  0  0  0
M  RAD  2   3   2   4   2
M  END
