Coordinates from ORCA-job p-NO2-Ph-N2-Cl-B3LYPG-aug-cc-pVDZ-scan-d09-49-n400
 OpenBabel10311713223D

 16 14  0  0  0  0  0  0  0  0999 V2000
   -1.4114   -1.3507   -1.2350 C   0  0  0  0  0  0  0  0  0  0  0  0
   -0.0413   -1.0367   -1.1127 C   0  0  0  0  0  0  0  0  0  0  0  0
    0.0648    0.2428   -0.6056 C   0  0  0  0  0  0  0  0  0  0  0  0
   -0.7872    1.0979   -0.2651 C   0  0  0  0  0  0  0  0  0  0  0  0
   -2.1578    0.8650   -0.3552 C   0  0  0  0  0  0  0  0  0  0  0  0
   -2.4119   -0.4271   -0.8671 C   0  0  0  0  0  0  0  0  0  0  0  0
   -1.7142   -2.3225   -1.6198 H   0  0  0  0  0  0  0  0  0  0  0  0
    0.7529   -1.7255   -1.3872 H   0  0  0  0  0  0  0  0  0  0  0  0
   -0.1529    3.0393    0.5038 H   0  0  0  0  0  0  0  0  0  0  0  0
   -2.9624    1.5429   -0.0851 H   0  0  0  0  0  0  0  0  0  0  0  0
   -3.8267   -0.8367   -1.0271 N   0  0  0  0  0  0  0  0  0  0  0  0
   -4.6891   -0.0244   -0.7075 O   0  0  0  0  0  0  0  0  0  0  0  0
   -4.0537   -1.9571   -1.4751 O   0  0  0  0  0  0  0  0  0  0  0  0
    3.8852   -2.0334   -1.5149 N   0  0  0  0  0  0  0  0  0  0  0  0
    4.9884   -2.0737   -1.5329 N   0  0  0  0  0  0  0  0  0  0  0  0
   -0.0015    4.2477    0.9828 Cl  0  0  0  0  0  0  0  0  0  0  0  0
  1  2  2  0  0  0  0
  1  6  1  0  0  0  0
  2  3  1  0  0  0  0
  3  4  2  0  0  0  0
  5  4  1  0  0  0  0
  5 10  1  0  0  0  0
  6  5  2  0  0  0  0
  7  1  1  0  0  0  0
  8  2  1  0  0  0  0
  9 16  1  0  0  0  0
 11  6  1  0  0  0  0
 11 12  2  0  0  0  0
 13 11  2  0  0  0  0
 15 14  3  0  0  0  0
M  RAD  2   3   2   4   2
M  END
