Coordinates from ORCA-job p-NO2-Ph-N2-Cl-B3LYPG-aug-cc-pVDZ-scan-d09-49-n400
 OpenBabel10311713223D

 16 16  0  0  0  0  0  0  0  0999 V2000
   -1.3431   -1.4843   -1.0640 C   0  0  0  0  0  0  0  0  0  0  0  0
    0.0109   -1.1937   -1.1613 C   0  0  0  0  0  0  0  0  0  0  0  0
    0.4538    0.1478   -1.0594 C   0  0  0  0  0  0  0  0  0  0  0  0
   -0.4897    1.1884   -0.8777 C   0  0  0  0  0  0  0  0  0  0  0  0
   -1.8415    0.8875   -0.7820 C   0  0  0  0  0  0  0  0  0  0  0  0
   -2.2533   -0.4428   -0.8771 C   0  0  0  0  0  0  0  0  0  0  0  0
   -1.7011   -2.5088   -1.1288 H   0  0  0  0  0  0  0  0  0  0  0  0
    0.7424   -1.9860   -1.3079 H   0  0  0  0  0  0  0  0  0  0  0  0
   -0.1407    2.2168   -0.8076 H   0  0  0  0  0  0  0  0  0  0  0  0
   -2.5795    1.6715   -0.6318 H   0  0  0  0  0  0  0  0  0  0  0  0
   -3.6903   -0.7561   -0.7817 N   0  0  0  0  0  0  0  0  0  0  0  0
   -4.4676    0.1822   -0.6269 O   0  0  0  0  0  0  0  0  0  0  0  0
   -4.0228   -1.9345   -0.8784 O   0  0  0  0  0  0  0  0  0  0  0  0
    1.6700    0.4170   -1.1744 N   0  0  0  0  0  0  0  0  0  0  0  0
    2.6770    0.5614   -0.5868 N   0  0  0  0  0  0  0  0  0  0  0  0
    2.4565    0.2814    1.4421 Cl  0  0  0  0  0  0  0  0  0  0  0  0
  1  6  1  0  0  0  0
  2  1  2  0  0  0  0
  2  3  1  0  0  0  0
  3  4  2  0  0  0  0
  4  9  1  0  0  0  0
  4  5  1  0  0  0  0
  5 10  1  0  0  0  0
  6  5  2  0  0  0  0
  6 11  1  0  0  0  0
  7  1  1  0  0  0  0
  8  2  1  0  0  0  0
 11 12  2  0  0  0  0
 13 11  2  0  0  0  0
 14  3  1  0  0  0  0
 14 15  1  0  0  0  0
 15 16  1  0  0  0  0
M  RAD  2  14   2  15   2
M  END
