Coordinates from ORCA-job p-NO2-Ph-N2-Cl-B3LYPG-aug-cc-pVDZ-scan-d09-49-n400
 OpenBabel10311713223D

 16 16  0  0  0  0  0  0  0  0999 V2000
   -1.3771   -1.4891   -1.0519 C   0  0  0  0  0  0  0  0  0  0  0  0
   -0.0261   -1.2259   -1.0598 C   0  0  0  0  0  0  0  0  0  0  0  0
    0.4847    0.1397   -0.9255 C   0  0  0  0  0  0  0  0  0  0  0  0
   -0.5330    1.1814   -0.7750 C   0  0  0  0  0  0  0  0  0  0  0  0
   -1.8752    0.8763   -0.7720 C   0  0  0  0  0  0  0  0  0  0  0  0
   -2.3025   -0.4488   -0.9122 C   0  0  0  0  0  0  0  0  0  0  0  0
   -1.7331   -2.5123   -1.1532 H   0  0  0  0  0  0  0  0  0  0  0  0
    0.7140   -2.0167   -1.1661 H   0  0  0  0  0  0  0  0  0  0  0  0
   -0.1745    2.2033   -0.6667 H   0  0  0  0  0  0  0  0  0  0  0  0
   -2.6133    1.6676   -0.6585 H   0  0  0  0  0  0  0  0  0  0  0  0
   -3.7298   -0.7493   -0.9123 N   0  0  0  0  0  0  0  0  0  0  0  0
   -4.5133    0.1925   -0.7880 O   0  0  0  0  0  0  0  0  0  0  0  0
   -4.0671   -1.9269   -1.0389 O   0  0  0  0  0  0  0  0  0  0  0  0
    1.4928    0.3526   -0.9314 N   0  0  0  0  0  0  0  0  0  0  0  0
    2.6325    0.5746   -0.7793 N   0  0  0  0  0  0  0  0  0  0  0  0
    3.1022    0.4289    1.2872 Cl  0  0  0  0  0  0  0  0  0  0  0  0
  1  6  1  0  0  0  0
  2  1  2  0  0  0  0
  2  3  1  0  0  0  0
  3  4  2  0  0  0  0
  4  5  1  0  0  0  0
  4  9  1  0  0  0  0
  5 10  1  0  0  0  0
  6  5  2  0  0  0  0
  7  1  1  0  0  0  0
  8  2  1  0  0  0  0
 11  6  1  0  0  0  0
 11 12  2  0  0  0  0
 13 11  2  0  0  0  0
 14  3  1  0  0  0  0
 14 15  1  0  0  0  0
 15 16  1  0  0  0  0
M  RAD  2  14   2  15   2
M  END
