Coordinates from ORCA-job p-NO2-Ph-N2-Cl-B3LYPG-aug-cc-pVDZ-scan-d09-49-n400
 OpenBabel10311713223D

 16 16  0  0  0  0  0  0  0  0999 V2000
   -1.4602   -1.5659   -1.3051 C   0  0  0  0  0  0  0  0  0  0  0  0
   -0.0813   -1.4025   -1.2648 C   0  0  0  0  0  0  0  0  0  0  0  0
    0.4780   -0.1873   -0.8101 C   0  0  0  0  0  0  0  0  0  0  0  0
   -0.3570    0.8783   -0.4013 C   0  0  0  0  0  0  0  0  0  0  0  0
   -1.7385    0.7127   -0.4501 C   0  0  0  0  0  0  0  0  0  0  0  0
   -2.2643   -0.5004   -0.8962 C   0  0  0  0  0  0  0  0  0  0  0  0
   -1.9163   -2.4911   -1.6465 H   0  0  0  0  0  0  0  0  0  0  0  0
    0.5857   -2.2036   -1.5793 H   0  0  0  0  0  0  0  0  0  0  0  0
    0.0909    1.8052   -0.0536 H   0  0  0  0  0  0  0  0  0  0  0  0
   -2.4099    1.5114   -0.1451 H   0  0  0  0  0  0  0  0  0  0  0  0
   -3.7387   -0.6664   -0.9411 N   0  0  0  0  0  0  0  0  0  0  0  0
   -4.4253    0.2810   -0.5756 O   0  0  0  0  0  0  0  0  0  0  0  0
   -4.1730   -1.7416   -1.3409 O   0  0  0  0  0  0  0  0  0  0  0  0
    1.7972   -0.1184   -0.8075 N   0  0  0  0  0  0  0  0  0  0  0  0
    2.7256    0.5365   -0.5100 N   0  0  0  0  0  0  0  0  0  0  0  0
    2.3681    2.4002    0.4238 Cl  0  0  0  0  0  0  0  0  0  0  0  0
  1  2  2  0  0  0  0
  1  6  1  0  0  0  0
  2  3  1  0  0  0  0
  3 14  1  0  0  0  0
  3  4  2  0  0  0  0
  4  9  1  0  0  0  0
  5  4  1  0  0  0  0
  5 10  1  0  0  0  0
  6  5  2  0  0  0  0
  7  1  1  0  0  0  0
  8  2  1  0  0  0  0
 11  6  1  0  0  0  0
 11 12  2  0  0  0  0
 13 11  2  0  0  0  0
 14 15  2  0  0  0  0
 15 16  1  0  0  0  0
M  END
