Coordinates from ORCA-job p-NO2-Ph-N2-Cl-B3LYPG-aug-cc-pVDZ-scan-d09-49-n400
 OpenBabel10311713223D

 16 14  0  0  0  0  0  0  0  0999 V2000
   -1.1587   -1.2045   -1.1783 C   0  0  0  0  0  0  0  0  0  0  0  0
    0.1577   -0.7324   -0.9928 C   0  0  0  0  0  0  0  0  0  0  0  0
    0.0915    0.5488   -0.4843 C   0  0  0  0  0  0  0  0  0  0  0  0
   -0.8701    1.2971   -0.1861 C   0  0  0  0  0  0  0  0  0  0  0  0
   -2.1983    0.9066   -0.3392 C   0  0  0  0  0  0  0  0  0  0  0  0
   -2.2760   -0.4049   -0.8594 C   0  0  0  0  0  0  0  0  0  0  0  0
   -1.3273   -2.2037   -1.5745 H   0  0  0  0  0  0  0  0  0  0  0  0
    1.0391   -1.3225   -1.2281 H   0  0  0  0  0  0  0  0  0  0  0  0
   -0.4926    3.2994    0.6078 H   0  0  0  0  0  0  0  0  0  0  0  0
   -3.0881    1.4853   -0.1084 H   0  0  0  0  0  0  0  0  0  0  0  0
   -3.6244   -0.9758   -1.0841 N   0  0  0  0  0  0  0  0  0  0  0  0
   -4.5896   -0.2719   -0.8034 O   0  0  0  0  0  0  0  0  0  0  0  0
   -3.6984   -2.1150   -1.5361 O   0  0  0  0  0  0  0  0  0  0  0  0
    3.5154   -2.5628   -1.7239 N   0  0  0  0  0  0  0  0  0  0  0  0
    4.5081   -3.0112   -1.9033 N   0  0  0  0  0  0  0  0  0  0  0  0
   -0.5072    4.5156    1.0904 Cl  0  0  0  0  0  0  0  0  0  0  0  0
  1  2  2  0  0  0  0
  1  6  1  0  0  0  0
  2  3  1  0  0  0  0
  3  4  2  0  0  0  0
  5  4  1  0  0  0  0
  5 10  1  0  0  0  0
  6  5  2  0  0  0  0
  7  1  1  0  0  0  0
  8  2  1  0  0  0  0
  9 16  1  0  0  0  0
 11  6  1  0  0  0  0
 11 12  2  0  0  0  0
 13 11  2  0  0  0  0
 15 14  3  0  0  0  0
M  RAD  2   3   2   4   2
M  END
