Coordinates from ORCA-job p-NO2-Ph-N2-Cl-B3LYPG-aug-cc-pVDZ-scan-d09-49-n400
 OpenBabel10311713223D

 16 15  0  0  0  0  0  0  0  0999 V2000
   -1.5227   -1.5847   -1.3290 C   0  0  0  0  0  0  0  0  0  0  0  0
   -0.1284   -1.4624   -1.2819 C   0  0  0  0  0  0  0  0  0  0  0  0
    0.3259   -0.2560   -0.8041 C   0  0  0  0  0  0  0  0  0  0  0  0
   -0.3725    0.8391   -0.3693 C   0  0  0  0  0  0  0  0  0  0  0  0
   -1.7675    0.6900   -0.4270 C   0  0  0  0  0  0  0  0  0  0  0  0
   -2.3058   -0.5086   -0.9016 C   0  0  0  0  0  0  0  0  0  0  0  0
   -1.9977   -2.4940   -1.6890 H   0  0  0  0  0  0  0  0  0  0  0  0
    0.5404   -2.2588   -1.5984 H   0  0  0  0  0  0  0  0  0  0  0  0
    0.1329    1.7383   -0.0132 H   0  0  0  0  0  0  0  0  0  0  0  0
   -2.4266    1.4938   -0.1077 H   0  0  0  0  0  0  0  0  0  0  0  0
   -3.7813   -0.6484   -0.9557 N   0  0  0  0  0  0  0  0  0  0  0  0
   -4.4536    0.3027   -0.5737 O   0  0  0  0  0  0  0  0  0  0  0  0
   -4.2330   -1.7103   -1.3717 O   0  0  0  0  0  0  0  0  0  0  0  0
    2.2160   -0.1679   -0.7712 N   0  0  0  0  0  0  0  0  0  0  0  0
    2.9580    0.6452   -0.4493 N   0  0  0  0  0  0  0  0  0  0  0  0
    2.2970    2.6298    0.3392 Cl  0  0  0  0  0  0  0  0  0  0  0  0
  1  2  2  0  0  0  0
  1  6  1  0  0  0  0
  2  3  1  0  0  0  0
  3 14  1  0  0  0  0
  3  4  2  0  0  0  0
  4  9  1  0  0  0  0
  5  4  1  0  0  0  0
  5 10  1  0  0  0  0
  6  5  2  0  0  0  0
  7  1  1  0  0  0  0
  8  2  1  0  0  0  0
 11  6  1  0  0  0  0
 11 12  2  0  0  0  0
 13 11  2  0  0  0  0
 14 15  2  0  0  0  0
M  RAD  2  15   2  16   2
M  END
