Coordinates from ORCA-job p-NO2-Ph-N2-Cl-B3LYPG-aug-cc-pVDZ-scan-d09-49-n400
 OpenBabel10311713223D

 16 16  0  0  0  0  0  0  0  0999 V2000
   -1.4629   -1.5654   -1.3082 C   0  0  0  0  0  0  0  0  0  0  0  0
   -0.0832   -1.4043   -1.2642 C   0  0  0  0  0  0  0  0  0  0  0  0
    0.4696   -0.1916   -0.8052 C   0  0  0  0  0  0  0  0  0  0  0  0
   -0.3580    0.8741   -0.3934 C   0  0  0  0  0  0  0  0  0  0  0  0
   -1.7402    0.7101   -0.4445 C   0  0  0  0  0  0  0  0  0  0  0  0
   -2.2665   -0.5007   -0.8967 C   0  0  0  0  0  0  0  0  0  0  0  0
   -1.9196   -2.4887   -1.6540 H   0  0  0  0  0  0  0  0  0  0  0  0
    0.5841   -2.2047   -1.5793 H   0  0  0  0  0  0  0  0  0  0  0  0
    0.0921    1.7987   -0.0423 H   0  0  0  0  0  0  0  0  0  0  0  0
   -2.4111    1.5082   -0.1369 H   0  0  0  0  0  0  0  0  0  0  0  0
   -3.7409   -0.6648   -0.9447 N   0  0  0  0  0  0  0  0  0  0  0  0
   -4.4271    0.2835   -0.5805 O   0  0  0  0  0  0  0  0  0  0  0  0
   -4.1759   -1.7395   -1.3451 O   0  0  0  0  0  0  0  0  0  0  0  0
    1.8191   -0.1263   -0.8007 N   0  0  0  0  0  0  0  0  0  0  0  0
    2.7368    0.5424   -0.5049 N   0  0  0  0  0  0  0  0  0  0  0  0
    2.3648    2.4169    0.3969 Cl  0  0  0  0  0  0  0  0  0  0  0  0
  1  2  2  0  0  0  0
  1  6  1  0  0  0  0
  2  3  1  0  0  0  0
  3 14  1  0  0  0  0
  3  4  2  0  0  0  0
  4  9  1  0  0  0  0
  5  4  1  0  0  0  0
  5 10  1  0  0  0  0
  6  5  2  0  0  0  0
  7  1  1  0  0  0  0
  8  2  1  0  0  0  0
 11  6  1  0  0  0  0
 11 12  2  0  0  0  0
 13 11  2  0  0  0  0
 14 15  2  0  0  0  0
 15 16  1  0  0  0  0
M  END
