Coordinates from ORCA-job p-NO2-Ph-N2-Cl-B3LYPG-aug-cc-pVDZ-scan-d09-49-n400
 OpenBabel10311713223D

 16 16  0  0  0  0  0  0  0  0999 V2000
   -1.5096   -1.5769   -1.3250 C   0  0  0  0  0  0  0  0  0  0  0  0
   -0.1189   -1.4414   -1.2734 C   0  0  0  0  0  0  0  0  0  0  0  0
    0.3496   -0.2348   -0.7959 C   0  0  0  0  0  0  0  0  0  0  0  0
   -0.3784    0.8508   -0.3646 C   0  0  0  0  0  0  0  0  0  0  0  0
   -1.7702    0.6938   -0.4248 C   0  0  0  0  0  0  0  0  0  0  0  0
   -2.3014   -0.5071   -0.8999 C   0  0  0  0  0  0  0  0  0  0  0  0
   -1.9773   -2.4894   -1.6859 H   0  0  0  0  0  0  0  0  0  0  0  0
    0.5538   -2.2351   -1.5890 H   0  0  0  0  0  0  0  0  0  0  0  0
    0.1085    1.7561   -0.0064 H   0  0  0  0  0  0  0  0  0  0  0  0
   -2.4353    1.4932   -0.1071 H   0  0  0  0  0  0  0  0  0  0  0  0
   -3.7760   -0.6559   -0.9567 N   0  0  0  0  0  0  0  0  0  0  0  0
   -4.4552    0.2928   -0.5803 O   0  0  0  0  0  0  0  0  0  0  0  0
   -4.2207   -1.7189   -1.3775 O   0  0  0  0  0  0  0  0  0  0  0  0
    2.1506   -0.1716   -0.7738 N   0  0  0  0  0  0  0  0  0  0  0  0
    2.9262    0.6234   -0.4591 N   0  0  0  0  0  0  0  0  0  0  0  0
    2.3355    2.5688    0.3159 Cl  0  0  0  0  0  0  0  0  0  0  0  0
  1  2  2  0  0  0  0
  1  6  1  0  0  0  0
  2  3  1  0  0  0  0
  3 14  1  0  0  0  0
  3  4  2  0  0  0  0
  4  9  1  0  0  0  0
  5  4  1  0  0  0  0
  5 10  1  0  0  0  0
  6  5  2  0  0  0  0
  7  1  1  0  0  0  0
  8  2  1  0  0  0  0
 11  6  1  0  0  0  0
 11 12  2  0  0  0  0
 13 11  2  0  0  0  0
 14 15  2  0  0  0  0
 15 16  1  0  0  0  0
M  END
