Coordinates from ORCA-job p-NO2-Ph-N2-Cl-B3LYPG-aug-cc-pVDZ-scan-d09-49-n400
 OpenBabel10311713223D

 16 14  0  0  0  0  0  0  0  0999 V2000
   -1.5838   -1.5450   -1.3126 C   0  0  0  0  0  0  0  0  0  0  0  0
   -0.1777   -1.4325   -1.2700 C   0  0  0  0  0  0  0  0  0  0  0  0
    0.1363   -0.1858   -0.7759 C   0  0  0  0  0  0  0  0  0  0  0  0
   -0.5493    0.7911   -0.3875 C   0  0  0  0  0  0  0  0  0  0  0  0
   -1.9440    0.7525   -0.4008 C   0  0  0  0  0  0  0  0  0  0  0  0
   -2.4146   -0.4860   -0.8914 C   0  0  0  0  0  0  0  0  0  0  0  0
   -2.0464   -2.4607   -1.6752 H   0  0  0  0  0  0  0  0  0  0  0  0
    0.4949   -2.2247   -1.5851 H   0  0  0  0  0  0  0  0  0  0  0  0
    0.3409    2.5987    0.3285 H   0  0  0  0  0  0  0  0  0  0  0  0
   -2.6253    1.5387   -0.0880 H   0  0  0  0  0  0  0  0  0  0  0  0
   -3.8808   -0.6832   -0.9676 N   0  0  0  0  0  0  0  0  0  0  0  0
   -4.5953    0.2438   -0.5991 O   0  0  0  0  0  0  0  0  0  0  0  0
   -4.2948   -1.7580   -1.3933 O   0  0  0  0  0  0  0  0  0  0  0  0
    3.4353   -1.0093   -1.1073 N   0  0  0  0  0  0  0  0  0  0  0  0
    4.4731   -0.6588   -0.9701 N   0  0  0  0  0  0  0  0  0  0  0  0
    0.7126    3.7672    0.7917 Cl  0  0  0  0  0  0  0  0  0  0  0  0
  1  2  2  0  0  0  0
  1  6  1  0  0  0  0
  2  3  1  0  0  0  0
  3  4  2  0  0  0  0
  5  4  1  0  0  0  0
  5 10  1  0  0  0  0
  6  5  2  0  0  0  0
  7  1  1  0  0  0  0
  8  2  1  0  0  0  0
  9 16  1  0  0  0  0
 11  6  1  0  0  0  0
 11 12  2  0  0  0  0
 13 11  2  0  0  0  0
 14 15  3  0  0  0  0
M  RAD  2   3   2   4   2
M  END
