Coordinates from ORCA-job p-NO2-Ph-N2-Cl-B3LYPG-aug-cc-pVDZ-scan-d09-49-n400
 OpenBabel10311713223D

 16 16  0  0  0  0  0  0  0  0999 V2000
   -1.3651   -1.4883   -1.0605 C   0  0  0  0  0  0  0  0  0  0  0  0
   -0.0112   -1.2085   -1.1126 C   0  0  0  0  0  0  0  0  0  0  0  0
    0.4566    0.1421   -0.9969 C   0  0  0  0  0  0  0  0  0  0  0  0
   -0.5148    1.1836   -0.8294 C   0  0  0  0  0  0  0  0  0  0  0  0
   -1.8642    0.8822   -0.7799 C   0  0  0  0  0  0  0  0  0  0  0  0
   -2.2816   -0.4461   -0.8983 C   0  0  0  0  0  0  0  0  0  0  0  0
   -1.7230   -2.5119   -1.1419 H   0  0  0  0  0  0  0  0  0  0  0  0
    0.7229   -2.0024   -1.2365 H   0  0  0  0  0  0  0  0  0  0  0  0
   -0.1639    2.2096   -0.7379 H   0  0  0  0  0  0  0  0  0  0  0  0
   -2.6031    1.6687   -0.6469 H   0  0  0  0  0  0  0  0  0  0  0  0
   -3.7169   -0.7537   -0.8520 N   0  0  0  0  0  0  0  0  0  0  0  0
   -4.4963    0.1860   -0.7088 O   0  0  0  0  0  0  0  0  0  0  0  0
   -4.0504   -1.9319   -0.9597 O   0  0  0  0  0  0  0  0  0  0  0  0
    1.5799    0.3851   -1.0524 N   0  0  0  0  0  0  0  0  0  0  0  0
    2.6744    0.5745   -0.7050 N   0  0  0  0  0  0  0  0  0  0  0  0
    2.8378    0.3588    1.4151 Cl  0  0  0  0  0  0  0  0  0  0  0  0
  1  6  1  0  0  0  0
  2  1  2  0  0  0  0
  2  3  1  0  0  0  0
  3  4  2  0  0  0  0
  4  5  1  0  0  0  0
  4  9  1  0  0  0  0
  5 10  1  0  0  0  0
  6 11  1  0  0  0  0
  6  5  2  0  0  0  0
  7  1  1  0  0  0  0
  8  2  1  0  0  0  0
 11 12  2  0  0  0  0
 13 11  2  0  0  0  0
 14  3  1  0  0  0  0
 14 15  1  0  0  0  0
 15 16  1  0  0  0  0
M  RAD  2  14   2  15   2
M  END
