Coordinates from ORCA-job p-NO2-Ph-N2-Cl-B3LYPG-aug-cc-pVDZ-scan-d09-49-n400
 OpenBabel10311713223D

 16 14  0  0  0  0  0  0  0  0999 V2000
   -1.5801   -1.5374   -1.3096 C   0  0  0  0  0  0  0  0  0  0  0  0
   -0.1748   -1.4165   -1.2636 C   0  0  0  0  0  0  0  0  0  0  0  0
    0.1311   -0.1680   -0.7688 C   0  0  0  0  0  0  0  0  0  0  0  0
   -0.5621    0.8042   -0.3823 C   0  0  0  0  0  0  0  0  0  0  0  0
   -1.9564    0.7580   -0.3987 C   0  0  0  0  0  0  0  0  0  0  0  0
   -2.4183   -0.4833   -0.8904 C   0  0  0  0  0  0  0  0  0  0  0  0
   -2.0364   -2.4558   -1.6733 H   0  0  0  0  0  0  0  0  0  0  0  0
    0.5031   -2.2048   -1.5772 H   0  0  0  0  0  0  0  0  0  0  0  0
    0.3204    2.6193    0.3368 H   0  0  0  0  0  0  0  0  0  0  0  0
   -2.6431    1.5401   -0.0875 H   0  0  0  0  0  0  0  0  0  0  0  0
   -3.8832   -0.6894   -0.9701 N   0  0  0  0  0  0  0  0  0  0  0  0
   -4.6040    0.2334   -0.6032 O   0  0  0  0  0  0  0  0  0  0  0  0
   -4.2897   -1.7666   -1.3967 O   0  0  0  0  0  0  0  0  0  0  0  0
    3.4738   -1.0540   -1.1250 N   0  0  0  0  0  0  0  0  0  0  0  0
    4.5185   -0.7215   -0.9951 N   0  0  0  0  0  0  0  0  0  0  0  0
    0.6823    3.7903    0.8010 Cl  0  0  0  0  0  0  0  0  0  0  0  0
  1  2  2  0  0  0  0
  1  6  1  0  0  0  0
  2  3  1  0  0  0  0
  3  4  2  0  0  0  0
  5  4  1  0  0  0  0
  5 10  1  0  0  0  0
  6  5  2  0  0  0  0
  7  1  1  0  0  0  0
  8  2  1  0  0  0  0
  9 16  1  0  0  0  0
 11  6  1  0  0  0  0
 11 12  2  0  0  0  0
 13 11  2  0  0  0  0
 14 15  3  0  0  0  0
M  RAD  2   3   2   4   2
M  END
