Coordinates from ORCA-job p-NO2-Ph-N2-Cl-B3LYPG-aug-cc-pVDZ-scan-d09-49-n400
 OpenBabel10311713223D

 16 14  0  0  0  0  0  0  0  0999 V2000
   -1.5366   -1.4709   -1.2834 C   0  0  0  0  0  0  0  0  0  0  0  0
   -0.1403   -1.2806   -1.2098 C   0  0  0  0  0  0  0  0  0  0  0  0
    0.0947   -0.0179   -0.7092 C   0  0  0  0  0  0  0  0  0  0  0  0
   -0.6578    0.9150   -0.3380 C   0  0  0  0  0  0  0  0  0  0  0  0
   -2.0469    0.8020   -0.3809 C   0  0  0  0  0  0  0  0  0  0  0  0
   -2.4352   -0.4608   -0.8814 C   0  0  0  0  0  0  0  0  0  0  0  0
   -1.9392   -2.4107   -1.6557 H   0  0  0  0  0  0  0  0  0  0  0  0
    0.5821   -2.0342   -1.5098 H   0  0  0  0  0  0  0  0  0  0  0  0
    0.1449    2.7807    0.4010 H   0  0  0  0  0  0  0  0  0  0  0  0
   -2.7777    1.5488   -0.0836 H   0  0  0  0  0  0  0  0  0  0  0  0
   -3.8859   -0.7404   -0.9903 N   0  0  0  0  0  0  0  0  0  0  0  0
   -4.6594    0.1447   -0.6382 O   0  0  0  0  0  0  0  0  0  0  0  0
   -4.2291   -1.8364   -1.4246 O   0  0  0  0  0  0  0  0  0  0  0  0
    3.7275   -1.4280   -1.2740 N   0  0  0  0  0  0  0  0  0  0  0  0
    4.8114   -1.2325   -1.1979 N   0  0  0  0  0  0  0  0  0  0  0  0
    0.4287    3.9692    0.8721 Cl  0  0  0  0  0  0  0  0  0  0  0  0
  1  2  2  0  0  0  0
  1  6  1  0  0  0  0
  2  3  1  0  0  0  0
  3  4  2  0  0  0  0
  5  4  1  0  0  0  0
  5 10  1  0  0  0  0
  6  5  2  0  0  0  0
  7  1  1  0  0  0  0
  8  2  1  0  0  0  0
  9 16  1  0  0  0  0
 11  6  1  0  0  0  0
 11 12  2  0  0  0  0
 13 11  2  0  0  0  0
 14 15  3  0  0  0  0
M  RAD  2   3   2   4   2
M  END
