Coordinates from ORCA-job p-NO2-Ph-N2-Cl-B3LYPG-aug-cc-pVDZ-scan-d09-49-n400
 OpenBabel10311713223D

 16 14  0  0  0  0  0  0  0  0999 V2000
   -1.5215   -1.4536   -1.2740 C   0  0  0  0  0  0  0  0  0  0  0  0
   -0.1282   -1.2447   -1.1943 C   0  0  0  0  0  0  0  0  0  0  0  0
    0.0869    0.0216   -0.6928 C   0  0  0  0  0  0  0  0  0  0  0  0
   -0.6804    0.9438   -0.3256 C   0  0  0  0  0  0  0  0  0  0  0  0
   -2.0675    0.8123   -0.3746 C   0  0  0  0  0  0  0  0  0  0  0  0
   -2.4360   -0.4560   -0.8764 C   0  0  0  0  0  0  0  0  0  0  0  0
   -1.9097   -2.3989   -1.6478 H   0  0  0  0  0  0  0  0  0  0  0  0
    0.6051   -1.9891   -1.4910 H   0  0  0  0  0  0  0  0  0  0  0  0
    0.0983    2.8215    0.4167 H   0  0  0  0  0  0  0  0  0  0  0  0
   -2.8098    1.5490   -0.0809 H   0  0  0  0  0  0  0  0  0  0  0  0
   -3.8822   -0.7558   -0.9917 N   0  0  0  0  0  0  0  0  0  0  0  0
   -4.6695    0.1231   -0.6548 O   0  0  0  0  0  0  0  0  0  0  0  0
   -4.2082   -1.8521   -1.4383 O   0  0  0  0  0  0  0  0  0  0  0  0
    3.7755   -1.5251   -1.3145 N   0  0  0  0  0  0  0  0  0  0  0  0
    4.8657   -1.3623   -1.2524 N   0  0  0  0  0  0  0  0  0  0  0  0
    0.3626    4.0140    0.8887 Cl  0  0  0  0  0  0  0  0  0  0  0  0
  1  2  2  0  0  0  0
  1  6  1  0  0  0  0
  2  3  1  0  0  0  0
  3  4  2  0  0  0  0
  5  4  1  0  0  0  0
  5 10  1  0  0  0  0
  6  5  2  0  0  0  0
  7  1  1  0  0  0  0
  8  2  1  0  0  0  0
  9 16  1  0  0  0  0
 11  6  1  0  0  0  0
 11 12  2  0  0  0  0
 13 11  2  0  0  0  0
 14 15  3  0  0  0  0
M  RAD  2   3   2   4   2
M  END
