Coordinates from ORCA-job p-NO2-Ph-N2-Cl-B3LYPG-aug-cc-pVDZ-scan-d09-49-n400
 OpenBabel10311713223D

 16 14  0  0  0  0  0  0  0  0999 V2000
   -1.5886   -1.6033   -1.3356 C   0  0  0  0  0  0  0  0  0  0  0  0
   -0.1781   -1.5579   -1.3201 C   0  0  0  0  0  0  0  0  0  0  0  0
    0.1948   -0.3287   -0.8329 C   0  0  0  0  0  0  0  0  0  0  0  0
   -0.4151    0.6929   -0.4265 C   0  0  0  0  0  0  0  0  0  0  0  0
   -1.8142    0.7073   -0.4182 C   0  0  0  0  0  0  0  0  0  0  0  0
   -2.3569   -0.5045   -0.8981 C   0  0  0  0  0  0  0  0  0  0  0  0
   -2.1017   -2.4955   -1.6887 H   0  0  0  0  0  0  0  0  0  0  0  0
    0.4531   -2.3788   -1.6470 H   0  0  0  0  0  0  0  0  0  0  0  0
    0.4903    2.4019    0.2497 H   0  0  0  0  0  0  0  0  0  0  0  0
   -2.4510    1.5253   -0.0925 H   0  0  0  0  0  0  0  0  0  0  0  0
   -3.8321   -0.6302   -0.9453 N   0  0  0  0  0  0  0  0  0  0  0  0
   -4.4932    0.3310   -0.5654 O   0  0  0  0  0  0  0  0  0  0  0  0
   -4.3062   -1.6825   -1.3648 O   0  0  0  0  0  0  0  0  0  0  0  0
    2.9794   -0.6388   -0.9603 N   0  0  0  0  0  0  0  0  0  0  0  0
    3.9418   -0.1361   -0.7606 N   0  0  0  0  0  0  0  0  0  0  0  0
    0.9589    3.5459    0.7026 Cl  0  0  0  0  0  0  0  0  0  0  0  0
  1  2  2  0  0  0  0
  1  6  1  0  0  0  0
  2  3  1  0  0  0  0
  3  4  2  0  0  0  0
  4  5  1  0  0  0  0
  5 10  1  0  0  0  0
  6  5  2  0  0  0  0
  7  1  1  0  0  0  0
  8  2  1  0  0  0  0
  9 16  1  0  0  0  0
 11  6  1  0  0  0  0
 11 12  2  0  0  0  0
 13 11  2  0  0  0  0
 14 15  3  0  0  0  0
M  RAD  2   3   2   4   2
M  END
