Coordinates from ORCA-job p-NO2-Ph-N2-Cl-B3LYPG-aug-cc-pVDZ-scan-d09-49-n400
 OpenBabel10311713223D

 16 16  0  0  0  0  0  0  0  0999 V2000
   -1.4897   -1.5695   -1.3187 C   0  0  0  0  0  0  0  0  0  0  0  0
   -0.1037   -1.4204   -1.2665 C   0  0  0  0  0  0  0  0  0  0  0  0
    0.3948   -0.2126   -0.7955 C   0  0  0  0  0  0  0  0  0  0  0  0
   -0.3735    0.8630   -0.3733 C   0  0  0  0  0  0  0  0  0  0  0  0
   -1.7613    0.7011   -0.4318 C   0  0  0  0  0  0  0  0  0  0  0  0
   -2.2886   -0.5037   -0.8997 C   0  0  0  0  0  0  0  0  0  0  0  0
   -1.9509   -2.4867   -1.6751 H   0  0  0  0  0  0  0  0  0  0  0  0
    0.5693   -2.2151   -1.5807 H   0  0  0  0  0  0  0  0  0  0  0  0
    0.0937    1.7769   -0.0164 H   0  0  0  0  0  0  0  0  0  0  0  0
   -2.4303    1.4985   -0.1183 H   0  0  0  0  0  0  0  0  0  0  0  0
   -3.7627   -0.6601   -0.9555 N   0  0  0  0  0  0  0  0  0  0  0  0
   -4.4467    0.2854   -0.5795 O   0  0  0  0  0  0  0  0  0  0  0  0
   -4.2021   -1.7296   -1.3654 O   0  0  0  0  0  0  0  0  0  0  0  0
    2.0259   -0.1639   -0.7870 N   0  0  0  0  0  0  0  0  0  0  0  0
    2.8532    0.5936   -0.4740 N   0  0  0  0  0  0  0  0  0  0  0  0
    2.3537    2.4910    0.3336 Cl  0  0  0  0  0  0  0  0  0  0  0  0
  1  2  2  0  0  0  0
  1  6  1  0  0  0  0
  2  3  1  0  0  0  0
  3 14  1  0  0  0  0
  3  4  2  0  0  0  0
  4  9  1  0  0  0  0
  5  4  1  0  0  0  0
  5 10  1  0  0  0  0
  6  5  2  0  0  0  0
  7  1  1  0  0  0  0
  8  2  1  0  0  0  0
 11  6  1  0  0  0  0
 11 12  2  0  0  0  0
 13 11  2  0  0  0  0
 14 15  2  0  0  0  0
 15 16  1  0  0  0  0
M  END
