Coordinates from ORCA-job p-NO2-Ph-N2-Cl-B3LYPG-aug-cc-pVDZ-scan-d09-49-n400
 OpenBabel10311713223D

 16 16  0  0  0  0  0  0  0  0999 V2000
   -1.4866   -1.5685   -1.3180 C   0  0  0  0  0  0  0  0  0  0  0  0
   -0.1014   -1.4179   -1.2653 C   0  0  0  0  0  0  0  0  0  0  0  0
    0.4030   -0.2104   -0.7943 C   0  0  0  0  0  0  0  0  0  0  0  0
   -0.3721    0.8633   -0.3725 C   0  0  0  0  0  0  0  0  0  0  0  0
   -1.7592    0.7012   -0.4308 C   0  0  0  0  0  0  0  0  0  0  0  0
   -2.2863   -0.5035   -0.8989 C   0  0  0  0  0  0  0  0  0  0  0  0
   -1.9470   -2.4860   -1.6746 H   0  0  0  0  0  0  0  0  0  0  0  0
    0.5712   -2.2128   -1.5799 H   0  0  0  0  0  0  0  0  0  0  0  0
    0.0924    1.7782   -0.0152 H   0  0  0  0  0  0  0  0  0  0  0  0
   -2.4286    1.4983   -0.1172 H   0  0  0  0  0  0  0  0  0  0  0  0
   -3.7604   -0.6607   -0.9546 N   0  0  0  0  0  0  0  0  0  0  0  0
   -4.4449    0.2854   -0.5813 O   0  0  0  0  0  0  0  0  0  0  0  0
   -4.1992   -1.7293   -1.3675 O   0  0  0  0  0  0  0  0  0  0  0  0
    2.0040   -0.1623   -0.7860 N   0  0  0  0  0  0  0  0  0  0  0  0
    2.8407    0.5884   -0.4766 N   0  0  0  0  0  0  0  0  0  0  0  0
    2.3556    2.4846    0.3290 Cl  0  0  0  0  0  0  0  0  0  0  0  0
  1  2  2  0  0  0  0
  1  6  1  0  0  0  0
  2  3  1  0  0  0  0
  3 14  1  0  0  0  0
  3  4  2  0  0  0  0
  4  9  1  0  0  0  0
  5  4  1  0  0  0  0
  5 10  1  0  0  0  0
  6  5  2  0  0  0  0
  7  1  1  0  0  0  0
  8  2  1  0  0  0  0
 11  6  1  0  0  0  0
 11 12  2  0  0  0  0
 13 11  2  0  0  0  0
 14 15  2  0  0  0  0
 15 16  1  0  0  0  0
M  END
