Coordinates from ORCA-job p-NO2-Ph-N2-Cl-B3LYPG-aug-cc-pVDZ-scan-d09-49-n400
 OpenBabel10311713223D

 16 14  0  0  0  0  0  0  0  0999 V2000
   -1.5805   -1.6147   -1.3408 C   0  0  0  0  0  0  0  0  0  0  0  0
   -0.1702   -1.5828   -1.3303 C   0  0  0  0  0  0  0  0  0  0  0  0
    0.2146   -0.3581   -0.8448 C   0  0  0  0  0  0  0  0  0  0  0  0
   -0.3714    0.6779   -0.4328 C   0  0  0  0  0  0  0  0  0  0  0  0
   -1.7731    0.6969   -0.4232 C   0  0  0  0  0  0  0  0  0  0  0  0
   -2.3334   -0.5069   -0.9001 C   0  0  0  0  0  0  0  0  0  0  0  0
   -2.1041   -2.5015   -1.6920 H   0  0  0  0  0  0  0  0  0  0  0  0
    0.4543   -2.4083   -1.6589 H   0  0  0  0  0  0  0  0  0  0  0  0
    0.5199    2.3284    0.2205 H   0  0  0  0  0  0  0  0  0  0  0  0
   -2.3998    1.5218   -0.0949 H   0  0  0  0  0  0  0  0  0  0  0  0
   -3.8102   -0.6155   -0.9410 N   0  0  0  0  0  0  0  0  0  0  0  0
   -4.4587    0.3517   -0.5547 O   0  0  0  0  0  0  0  0  0  0  0  0
   -4.2978   -1.6639   -1.3550 O   0  0  0  0  0  0  0  0  0  0  0  0
    2.8113   -0.5415   -0.9208 N   0  0  0  0  0  0  0  0  0  0  0  0
    3.7470    0.0032   -0.7039 N   0  0  0  0  0  0  0  0  0  0  0  0
    1.0332    3.4611    0.6689 Cl  0  0  0  0  0  0  0  0  0  0  0  0
  1  2  2  0  0  0  0
  1  6  1  0  0  0  0
  2  3  1  0  0  0  0
  3  4  2  0  0  0  0
  4  5  1  0  0  0  0
  5 10  1  0  0  0  0
  6  5  2  0  0  0  0
  7  1  1  0  0  0  0
  8  2  1  0  0  0  0
  9 16  1  0  0  0  0
 11  6  1  0  0  0  0
 11 12  2  0  0  0  0
 13 11  2  0  0  0  0
 14 15  3  0  0  0  0
M  RAD  2   3   2   4   2
M  END
