Coordinates from ORCA-job p-NO2-Ph-N2-Cl-B3LYPG-aug-cc-pVDZ-scan-d09-49-n400
 OpenBabel10311713223D

 16 14  0  0  0  0  0  0  0  0999 V2000
   -1.5287   -1.4611   -1.2795 C   0  0  0  0  0  0  0  0  0  0  0  0
   -0.1340   -1.2608   -1.2020 C   0  0  0  0  0  0  0  0  0  0  0  0
    0.0906    0.0037   -0.7006 C   0  0  0  0  0  0  0  0  0  0  0  0
   -0.6701    0.9308   -0.3317 C   0  0  0  0  0  0  0  0  0  0  0  0
   -2.0581    0.8080   -0.3785 C   0  0  0  0  0  0  0  0  0  0  0  0
   -2.4358   -0.4577   -0.8801 C   0  0  0  0  0  0  0  0  0  0  0  0
   -1.9234   -2.4039   -1.6530 H   0  0  0  0  0  0  0  0  0  0  0  0
    0.5946   -2.0093   -1.4999 H   0  0  0  0  0  0  0  0  0  0  0  0
    0.1196    2.8028    0.4098 H   0  0  0  0  0  0  0  0  0  0  0  0
   -2.7952    1.5494   -0.0833 H   0  0  0  0  0  0  0  0  0  0  0  0
   -3.8841   -0.7478   -0.9932 N   0  0  0  0  0  0  0  0  0  0  0  0
   -4.6651    0.1316   -0.6434 O   0  0  0  0  0  0  0  0  0  0  0  0
   -4.2181   -1.8463   -1.4285 O   0  0  0  0  0  0  0  0  0  0  0  0
    3.7544   -1.4812   -1.2951 N   0  0  0  0  0  0  0  0  0  0  0  0
    4.8419   -1.3037   -1.2262 N   0  0  0  0  0  0  0  0  0  0  0  0
    0.3927    3.9934    0.8817 Cl  0  0  0  0  0  0  0  0  0  0  0  0
  1  2  2  0  0  0  0
  1  6  1  0  0  0  0
  2  3  1  0  0  0  0
  3  4  2  0  0  0  0
  5  4  1  0  0  0  0
  5 10  1  0  0  0  0
  6  5  2  0  0  0  0
  7  1  1  0  0  0  0
  8  2  1  0  0  0  0
  9 16  1  0  0  0  0
 11  6  1  0  0  0  0
 11 12  2  0  0  0  0
 13 11  2  0  0  0  0
 14 15  3  0  0  0  0
M  RAD  2   3   2   4   2
M  END
