Coordinates from ORCA-job p-NO2-Ph-N2-Cl-B3LYPG-aug-cc-pVDZ-scan-d09-49-n400
 OpenBabel10311713223D

 16 16  0  0  0  0  0  0  0  0999 V2000
   -1.3730   -1.4899   -1.0570 C   0  0  0  0  0  0  0  0  0  0  0  0
   -0.0197   -1.2168   -1.0870 C   0  0  0  0  0  0  0  0  0  0  0  0
    0.4640    0.1396   -0.9626 C   0  0  0  0  0  0  0  0  0  0  0  0
   -0.5247    1.1819   -0.8031 C   0  0  0  0  0  0  0  0  0  0  0  0
   -1.8719    0.8797   -0.7765 C   0  0  0  0  0  0  0  0  0  0  0  0
   -2.2925   -0.4474   -0.9061 C   0  0  0  0  0  0  0  0  0  0  0  0
   -1.7311   -2.5128   -1.1477 H   0  0  0  0  0  0  0  0  0  0  0  0
    0.7155   -2.0110   -1.2013 H   0  0  0  0  0  0  0  0  0  0  0  0
   -0.1726    2.2066   -0.7021 H   0  0  0  0  0  0  0  0  0  0  0  0
   -2.6113    1.6677   -0.6529 H   0  0  0  0  0  0  0  0  0  0  0  0
   -3.7258   -0.7519   -0.8831 N   0  0  0  0  0  0  0  0  0  0  0  0
   -4.5065    0.1890   -0.7498 O   0  0  0  0  0  0  0  0  0  0  0  0
   -4.0605   -1.9296   -1.0006 O   0  0  0  0  0  0  0  0  0  0  0  0
    1.5398    0.3697   -0.9922 N   0  0  0  0  0  0  0  0  0  0  0  0
    2.6591    0.5767   -0.7509 N   0  0  0  0  0  0  0  0  0  0  0  0
    2.9923    0.3963    1.3694 Cl  0  0  0  0  0  0  0  0  0  0  0  0
  1  6  1  0  0  0  0
  2  1  2  0  0  0  0
  2  3  1  0  0  0  0
  3  4  2  0  0  0  0
  4  5  1  0  0  0  0
  4  9  1  0  0  0  0
  5 10  1  0  0  0  0
  6 11  1  0  0  0  0
  6  5  2  0  0  0  0
  7  1  1  0  0  0  0
  8  2  1  0  0  0  0
 11 12  2  0  0  0  0
 13 11  2  0  0  0  0
 14  3  1  0  0  0  0
 14 15  1  0  0  0  0
 15 16  1  0  0  0  0
M  RAD  2  14   2  15   2
M  END
