Coordinates from ORCA-job p-NO2-Ph-N2-Cl-B3LYPG-aug-cc-pVDZ-scan-d09-49-n400
 OpenBabel10311713223D

 16 14  0  0  0  0  0  0  0  0999 V2000
   -1.5720   -1.5226   -1.3037 C   0  0  0  0  0  0  0  0  0  0  0  0
   -0.1683   -1.3861   -1.2515 C   0  0  0  0  0  0  0  0  0  0  0  0
    0.1216   -0.1340   -0.7553 C   0  0  0  0  0  0  0  0  0  0  0  0
   -0.5854    0.8295   -0.3721 C   0  0  0  0  0  0  0  0  0  0  0  0
   -1.9788    0.7683   -0.3945 C   0  0  0  0  0  0  0  0  0  0  0  0
   -2.4240   -0.4782   -0.8883 C   0  0  0  0  0  0  0  0  0  0  0  0
   -2.0163   -2.4461   -1.6694 H   0  0  0  0  0  0  0  0  0  0  0  0
    0.5193   -2.1671   -1.5623 H   0  0  0  0  0  0  0  0  0  0  0  0
    0.2806    2.6573    0.3519 H   0  0  0  0  0  0  0  0  0  0  0  0
   -2.6757    1.5427   -0.0864 H   0  0  0  0  0  0  0  0  0  0  0  0
   -3.8858   -0.7009   -0.9747 N   0  0  0  0  0  0  0  0  0  0  0  0
   -4.6187    0.2136   -0.6111 O   0  0  0  0  0  0  0  0  0  0  0  0
   -4.2780   -1.7827   -1.4032 O   0  0  0  0  0  0  0  0  0  0  0  0
    3.5409   -1.1388   -1.1588 N   0  0  0  0  0  0  0  0  0  0  0  0
    4.5972   -0.8398   -1.0422 N   0  0  0  0  0  0  0  0  0  0  0  0
    0.6243    3.8327    0.8179 Cl  0  0  0  0  0  0  0  0  0  0  0  0
  1  2  2  0  0  0  0
  1  6  1  0  0  0  0
  2  3  1  0  0  0  0
  3  4  2  0  0  0  0
  5  4  1  0  0  0  0
  5 10  1  0  0  0  0
  6  5  2  0  0  0  0
  7  1  1  0  0  0  0
  8  2  1  0  0  0  0
  9 16  1  0  0  0  0
 11  6  1  0  0  0  0
 11 12  2  0  0  0  0
 13 11  2  0  0  0  0
 14 15  3  0  0  0  0
M  RAD  2   3   2   4   2
M  END
