Coordinates from ORCA-job p-NO2-Ph-N2-Cl-B3LYPG-aug-cc-pVDZ-scan-d09-49-n400
 OpenBabel10311713223D

 16 16  0  0  0  0  0  0  0  0999 V2000
   -1.4676   -1.5652   -1.3122 C   0  0  0  0  0  0  0  0  0  0  0  0
   -0.0866   -1.4070   -1.2631 C   0  0  0  0  0  0  0  0  0  0  0  0
    0.4560   -0.1972   -0.7981 C   0  0  0  0  0  0  0  0  0  0  0  0
   -0.3602    0.8690   -0.3825 C   0  0  0  0  0  0  0  0  0  0  0  0
   -1.7436    0.7064   -0.4371 C   0  0  0  0  0  0  0  0  0  0  0  0
   -2.2702   -0.5012   -0.8971 C   0  0  0  0  0  0  0  0  0  0  0  0
   -1.9250   -2.4860   -1.6635 H   0  0  0  0  0  0  0  0  0  0  0  0
    0.5818   -2.2060   -1.5787 H   0  0  0  0  0  0  0  0  0  0  0  0
    0.0923    1.7908   -0.0275 H   0  0  0  0  0  0  0  0  0  0  0  0
   -2.4140    1.5037   -0.1266 H   0  0  0  0  0  0  0  0  0  0  0  0
   -3.7447   -0.6628   -0.9492 N   0  0  0  0  0  0  0  0  0  0  0  0
   -4.4304    0.2847   -0.5823 O   0  0  0  0  0  0  0  0  0  0  0  0
   -4.1807   -1.7345   -1.3566 O   0  0  0  0  0  0  0  0  0  0  0  0
    1.8560   -0.1388   -0.7911 N   0  0  0  0  0  0  0  0  0  0  0  0
    2.7559    0.5521   -0.4962 N   0  0  0  0  0  0  0  0  0  0  0  0
    2.3622    2.4400    0.3583 Cl  0  0  0  0  0  0  0  0  0  0  0  0
  1  2  2  0  0  0  0
  1  6  1  0  0  0  0
  2  3  1  0  0  0  0
  3 14  1  0  0  0  0
  3  4  2  0  0  0  0
  4  9  1  0  0  0  0
  5  4  1  0  0  0  0
  5 10  1  0  0  0  0
  6  5  2  0  0  0  0
  7  1  1  0  0  0  0
  8  2  1  0  0  0  0
 11  6  1  0  0  0  0
 11 12  2  0  0  0  0
 13 11  2  0  0  0  0
 14 15  2  0  0  0  0
 15 16  1  0  0  0  0
M  END
