Coordinates from ORCA-job p-NO2-Ph-N2-Cl-B3LYPG-aug-cc-pVDZ-scan-d09-49-n400
 OpenBabel10311713223D

 16 14  0  0  0  0  0  0  0  0999 V2000
   -1.5906   -1.5627   -1.3196 C   0  0  0  0  0  0  0  0  0  0  0  0
   -0.1827   -1.4704   -1.2851 C   0  0  0  0  0  0  0  0  0  0  0  0
    0.1496   -0.2283   -0.7929 C   0  0  0  0  0  0  0  0  0  0  0  0
   -0.5173    0.7599   -0.3999 C   0  0  0  0  0  0  0  0  0  0  0  0
   -1.9129    0.7396   -0.4058 C   0  0  0  0  0  0  0  0  0  0  0  0
   -2.4039   -0.4920   -0.8936 C   0  0  0  0  0  0  0  0  0  0  0  0
   -2.0684   -2.4717   -1.6795 H   0  0  0  0  0  0  0  0  0  0  0  0
    0.4779   -2.2712   -1.6037 H   0  0  0  0  0  0  0  0  0  0  0  0
    0.3897    2.5482    0.3083 H   0  0  0  0  0  0  0  0  0  0  0  0
   -2.5814    1.5352   -0.0892 H   0  0  0  0  0  0  0  0  0  0  0  0
   -3.8731   -0.6688   -0.9616 N   0  0  0  0  0  0  0  0  0  0  0  0
   -4.5724    0.2684   -0.5897 O   0  0  0  0  0  0  0  0  0  0  0  0
   -4.3046   -1.7374   -1.3855 O   0  0  0  0  0  0  0  0  0  0  0  0
    3.3334   -0.9032   -1.0652 N   0  0  0  0  0  0  0  0  0  0  0  0
    4.3525   -0.5082   -0.9099 N   0  0  0  0  0  0  0  0  0  0  0  0
    0.7853    3.7106    0.7689 Cl  0  0  0  0  0  0  0  0  0  0  0  0
  1  2  2  0  0  0  0
  1  6  1  0  0  0  0
  2  3  1  0  0  0  0
  3  4  2  0  0  0  0
  5  4  1  0  0  0  0
  5 10  1  0  0  0  0
  6  5  2  0  0  0  0
  7  1  1  0  0  0  0
  8  2  1  0  0  0  0
  9 16  1  0  0  0  0
 11  6  1  0  0  0  0
 11 12  2  0  0  0  0
 13 11  2  0  0  0  0
 14 15  3  0  0  0  0
M  RAD  2   3   2   4   2
M  END
