Coordinates from ORCA-job p-NO2-Ph-N2-Cl-B3LYPG-aug-cc-pVDZ-scan-d09-49-n400
 OpenBabel10311713223D

 16 14  0  0  0  0  0  0  0  0999 V2000
   -1.5763   -1.6175   -1.3418 C   0  0  0  0  0  0  0  0  0  0  0  0
   -0.1660   -1.5886   -1.3325 C   0  0  0  0  0  0  0  0  0  0  0  0
    0.2212   -0.3652   -0.8476 C   0  0  0  0  0  0  0  0  0  0  0  0
   -0.3567    0.6760   -0.4335 C   0  0  0  0  0  0  0  0  0  0  0  0
   -1.7595    0.6939   -0.4242 C   0  0  0  0  0  0  0  0  0  0  0  0
   -2.3250   -0.5073   -0.9000 C   0  0  0  0  0  0  0  0  0  0  0  0
   -2.1024   -2.5029   -1.6923 H   0  0  0  0  0  0  0  0  0  0  0  0
    0.4569   -2.4152   -1.6615 H   0  0  0  0  0  0  0  0  0  0  0  0
    0.5277    2.3009    0.2096 H   0  0  0  0  0  0  0  0  0  0  0  0
   -2.3837    1.5207   -0.0951 H   0  0  0  0  0  0  0  0  0  0  0  0
   -3.8021   -0.6115   -0.9391 N   0  0  0  0  0  0  0  0  0  0  0  0
   -4.4473    0.3579   -0.5529 O   0  0  0  0  0  0  0  0  0  0  0  0
   -4.2933   -1.6582   -1.3534 O   0  0  0  0  0  0  0  0  0  0  0  0
    2.7504   -0.5108   -0.9087 N   0  0  0  0  0  0  0  0  0  0  0  0
    3.6775    0.0465   -0.6870 N   0  0  0  0  0  0  0  0  0  0  0  0
    1.0596    3.4292    0.6562 Cl  0  0  0  0  0  0  0  0  0  0  0  0
  1  2  2  0  0  0  0
  1  6  1  0  0  0  0
  2  3  1  0  0  0  0
  3  4  2  0  0  0  0
  4  5  1  0  0  0  0
  5 10  1  0  0  0  0
  6  5  2  0  0  0  0
  7  1  1  0  0  0  0
  8  2  1  0  0  0  0
  9 16  1  0  0  0  0
 11  6  1  0  0  0  0
 11 12  2  0  0  0  0
 13 11  2  0  0  0  0
 14 15  3  0  0  0  0
M  RAD  2   3   2   4   2
M  END
