Coordinates from ORCA-job p-NO2-Ph-N2-Cl-B3LYPG-aug-cc-pVDZ-scan-d09-49-n400
 OpenBabel10311713223D

 16 14  0  0  0  0  0  0  0  0999 V2000
   -1.5805   -1.5388   -1.3093 C   0  0  0  0  0  0  0  0  0  0  0  0
   -0.1749   -1.4194   -1.2643 C   0  0  0  0  0  0  0  0  0  0  0  0
    0.1315   -0.1711   -0.7698 C   0  0  0  0  0  0  0  0  0  0  0  0
   -0.5600    0.8021   -0.3827 C   0  0  0  0  0  0  0  0  0  0  0  0
   -1.9544    0.7570   -0.3982 C   0  0  0  0  0  0  0  0  0  0  0  0
   -2.4176   -0.4841   -0.8895 C   0  0  0  0  0  0  0  0  0  0  0  0
   -2.0379   -2.4569   -1.6726 H   0  0  0  0  0  0  0  0  0  0  0  0
    0.5013   -2.2089   -1.5786 H   0  0  0  0  0  0  0  0  0  0  0  0
    0.3238    2.6158    0.3353 H   0  0  0  0  0  0  0  0  0  0  0  0
   -2.6402    1.5397   -0.0866 H   0  0  0  0  0  0  0  0  0  0  0  0
   -3.8826   -0.6890   -0.9682 N   0  0  0  0  0  0  0  0  0  0  0  0
   -4.6025    0.2360   -0.6051 O   0  0  0  0  0  0  0  0  0  0  0  0
   -4.2903   -1.7643   -1.3986 O   0  0  0  0  0  0  0  0  0  0  0  0
    3.4670   -1.0461   -1.1227 N   0  0  0  0  0  0  0  0  0  0  0  0
    4.5105   -0.7103   -0.9918 N   0  0  0  0  0  0  0  0  0  0  0  0
    0.6878    3.7863    0.7991 Cl  0  0  0  0  0  0  0  0  0  0  0  0
  1  2  2  0  0  0  0
  1  6  1  0  0  0  0
  2  3  1  0  0  0  0
  3  4  2  0  0  0  0
  5  4  1  0  0  0  0
  5 10  1  0  0  0  0
  6  5  2  0  0  0  0
  7  1  1  0  0  0  0
  8  2  1  0  0  0  0
  9 16  1  0  0  0  0
 11  6  1  0  0  0  0
 11 12  2  0  0  0  0
 13 11  2  0  0  0  0
 14 15  3  0  0  0  0
M  RAD  2   3   2   4   2
M  END
