Coordinates from ORCA-job p-NO2-Ph-N2-Cl-B3LYPG-aug-cc-pVDZ-scan-d09-49-n400
 OpenBabel10311713223D

 16 14  0  0  0  0  0  0  0  0999 V2000
   -1.5581   -1.6224   -1.3431 C   0  0  0  0  0  0  0  0  0  0  0  0
   -0.1502   -1.5978   -1.3358 C   0  0  0  0  0  0  0  0  0  0  0  0
    0.2497   -0.3786   -0.8527 C   0  0  0  0  0  0  0  0  0  0  0  0
   -0.3031    0.6830   -0.4305 C   0  0  0  0  0  0  0  0  0  0  0  0
   -1.7111    0.6860   -0.4268 C   0  0  0  0  0  0  0  0  0  0  0  0
   -2.2934   -0.5053   -0.8985 C   0  0  0  0  0  0  0  0  0  0  0  0
   -2.0899   -2.5047   -1.6923 H   0  0  0  0  0  0  0  0  0  0  0  0
    0.4723   -2.4250   -1.6652 H   0  0  0  0  0  0  0  0  0  0  0  0
    0.5400    2.1553    0.1521 H   0  0  0  0  0  0  0  0  0  0  0  0
   -2.3275    1.5183   -0.0954 H   0  0  0  0  0  0  0  0  0  0  0  0
   -3.7720   -0.5957   -0.9316 N   0  0  0  0  0  0  0  0  0  0  0  0
   -4.4067    0.3805   -0.5461 O   0  0  0  0  0  0  0  0  0  0  0  0
   -4.2732   -1.6371   -1.3471 O   0  0  0  0  0  0  0  0  0  0  0  0
    2.5231   -0.3908   -0.8613 N   0  0  0  0  0  0  0  0  0  0  0  0
    3.4155    0.2148   -0.6214 N   0  0  0  0  0  0  0  0  0  0  0  0
    1.1657    3.2673    0.5920 Cl  0  0  0  0  0  0  0  0  0  0  0  0
  1  2  2  0  0  0  0
  1  6  1  0  0  0  0
  2  3  1  0  0  0  0
  3  4  2  0  0  0  0
  4  5  1  0  0  0  0
  5 10  1  0  0  0  0
  6  5  2  0  0  0  0
  7  1  1  0  0  0  0
  8  2  1  0  0  0  0
  9 16  1  0  0  0  0
 11  6  1  0  0  0  0
 11 12  2  0  0  0  0
 13 11  2  0  0  0  0
 14 15  3  0  0  0  0
M  RAD  2   3   2   4   2
M  END
