Coordinates from ORCA-job p-NO2-Ph-N2-Cl-B3LYPG-aug-cc-pVDZ-scan-d09-49-n400
 OpenBabel10311713223D

 16 14  0  0  0  0  0  0  0  0999 V2000
   -1.1965   -1.2411   -1.1928 C   0  0  0  0  0  0  0  0  0  0  0  0
    0.1316   -0.7989   -1.0191 C   0  0  0  0  0  0  0  0  0  0  0  0
    0.1016    0.4839   -0.5100 C   0  0  0  0  0  0  0  0  0  0  0  0
   -0.8423    1.2512   -0.2043 C   0  0  0  0  0  0  0  0  0  0  0  0
   -2.1805    0.8931   -0.3446 C   0  0  0  0  0  0  0  0  0  0  0  0
   -2.2924   -0.4164   -0.8640 C   0  0  0  0  0  0  0  0  0  0  0  0
   -1.3914   -2.2362   -1.5873 H   0  0  0  0  0  0  0  0  0  0  0  0
    0.9994   -1.4057   -1.2610 H   0  0  0  0  0  0  0  0  0  0  0  0
   -0.4120    3.2506    0.5884 H   0  0  0  0  0  0  0  0  0  0  0  0
   -3.0546    1.4920   -0.1057 H   0  0  0  0  0  0  0  0  0  0  0  0
   -3.6555   -0.9563   -1.0764 N   0  0  0  0  0  0  0  0  0  0  0  0
   -4.6018   -0.2306   -0.7869 O   0  0  0  0  0  0  0  0  0  0  0  0
   -3.7596   -2.0935   -1.5275 O   0  0  0  0  0  0  0  0  0  0  0  0
    3.5004   -2.4221   -1.6680 N   0  0  0  0  0  0  0  0  0  0  0  0
    4.5315   -2.7883   -1.8150 N   0  0  0  0  0  0  0  0  0  0  0  0
   -0.3966    4.4665    1.0706 Cl  0  0  0  0  0  0  0  0  0  0  0  0
  1  2  2  0  0  0  0
  1  6  1  0  0  0  0
  2  3  1  0  0  0  0
  3  4  2  0  0  0  0
  5  4  1  0  0  0  0
  5 10  1  0  0  0  0
  6  5  2  0  0  0  0
  7  1  1  0  0  0  0
  8  2  1  0  0  0  0
  9 16  1  0  0  0  0
 11  6  1  0  0  0  0
 11 12  2  0  0  0  0
 13 11  2  0  0  0  0
 15 14  3  0  0  0  0
M  RAD  2   3   2   4   2
M  END
