Coordinates from ORCA-job p-NO2-Ph-N2-Cl-B3LYPG-aug-cc-pVDZ-scan-d09-49-n400
 OpenBabel10311713223D

 16 16  0  0  0  0  0  0  0  0999 V2000
   -1.3514   -1.4856   -1.0626 C   0  0  0  0  0  0  0  0  0  0  0  0
    0.0025   -1.1986   -1.1442 C   0  0  0  0  0  0  0  0  0  0  0  0
    0.4550    0.1464   -1.0387 C   0  0  0  0  0  0  0  0  0  0  0  0
   -0.4995    1.1869   -0.8614 C   0  0  0  0  0  0  0  0  0  0  0  0
   -1.8504    0.8856   -0.7816 C   0  0  0  0  0  0  0  0  0  0  0  0
   -2.2642   -0.4440   -0.8846 C   0  0  0  0  0  0  0  0  0  0  0  0
   -1.7091   -2.5099   -1.1324 H   0  0  0  0  0  0  0  0  0  0  0  0
    0.7349   -1.9915   -1.2823 H   0  0  0  0  0  0  0  0  0  0  0  0
   -0.1502    2.2146   -0.7837 H   0  0  0  0  0  0  0  0  0  0  0  0
   -2.5888    1.6703   -0.6371 H   0  0  0  0  0  0  0  0  0  0  0  0
   -3.7007   -0.7556   -0.8062 N   0  0  0  0  0  0  0  0  0  0  0  0
   -4.4790    0.1833   -0.6577 O   0  0  0  0  0  0  0  0  0  0  0  0
   -4.0335   -1.9338   -0.9086 O   0  0  0  0  0  0  0  0  0  0  0  0
    1.6342    0.4054   -1.1303 N   0  0  0  0  0  0  0  0  0  0  0  0
    2.6807    0.5674   -0.6332 N   0  0  0  0  0  0  0  0  0  0  0  0
    2.6004    0.3070    1.4410 Cl  0  0  0  0  0  0  0  0  0  0  0  0
  1  6  1  0  0  0  0
  2  1  2  0  0  0  0
  2  3  1  0  0  0  0
  3  4  2  0  0  0  0
  4  9  1  0  0  0  0
  4  5  1  0  0  0  0
  5 10  1  0  0  0  0
  6 11  1  0  0  0  0
  6  5  2  0  0  0  0
  7  1  1  0  0  0  0
  8  2  1  0  0  0  0
 11 12  2  0  0  0  0
 13 11  2  0  0  0  0
 14  3  1  0  0  0  0
 14 15  1  0  0  0  0
 15 16  1  0  0  0  0
M  RAD  2  14   2  15   2
M  END
