Coordinates from ORCA-job p-NO2-Ph-N2-Cl-B3LYPG-aug-cc-pVDZ-scan-d09-49-n400
 OpenBabel10311713223D

 16 14  0  0  0  0  0  0  0  0999 V2000
   -1.5523   -1.4921   -1.2919 C   0  0  0  0  0  0  0  0  0  0  0  0
   -0.1525   -1.3245   -1.2272 C   0  0  0  0  0  0  0  0  0  0  0  0
    0.1046   -0.0657   -0.7282 C   0  0  0  0  0  0  0  0  0  0  0  0
   -0.6290    0.8802   -0.3520 C   0  0  0  0  0  0  0  0  0  0  0  0
   -2.0201    0.7887   -0.3865 C   0  0  0  0  0  0  0  0  0  0  0  0
   -2.4320   -0.4677   -0.8843 C   0  0  0  0  0  0  0  0  0  0  0  0
   -1.9723   -2.4254   -1.6615 H   0  0  0  0  0  0  0  0  0  0  0  0
    0.5556   -2.0896   -1.5317 H   0  0  0  0  0  0  0  0  0  0  0  0
    0.2009    2.7304    0.3810 H   0  0  0  0  0  0  0  0  0  0  0  0
   -2.7371    1.5470   -0.0847 H   0  0  0  0  0  0  0  0  0  0  0  0
   -3.8877   -0.7240   -0.9841 N   0  0  0  0  0  0  0  0  0  0  0  0
   -4.6447    0.1731   -0.6265 O   0  0  0  0  0  0  0  0  0  0  0  0
   -4.2512   -1.8147   -1.4155 O   0  0  0  0  0  0  0  0  0  0  0  0
    3.6577   -1.3090   -1.2264 N   0  0  0  0  0  0  0  0  0  0  0  0
    4.7322   -1.0726   -1.1343 N   0  0  0  0  0  0  0  0  0  0  0  0
    0.5092    3.9139    0.8502 Cl  0  0  0  0  0  0  0  0  0  0  0  0
  1  2  2  0  0  0  0
  1  6  1  0  0  0  0
  2  3  1  0  0  0  0
  3  4  2  0  0  0  0
  5  4  1  0  0  0  0
  5 10  1  0  0  0  0
  6  5  2  0  0  0  0
  7  1  1  0  0  0  0
  8  2  1  0  0  0  0
  9 16  1  0  0  0  0
 11  6  1  0  0  0  0
 11 12  2  0  0  0  0
 13 11  2  0  0  0  0
 14 15  3  0  0  0  0
M  RAD  2   3   2   4   2
M  END
