Coordinates from ORCA-job p-NO2-Ph-N2-Cl-B3LYPG-aug-cc-pVDZ-scan-d09-49-n400
 OpenBabel10311713223D

 16 14  0  0  0  0  0  0  0  0999 V2000
   -1.5300   -1.4634   -1.2783 C   0  0  0  0  0  0  0  0  0  0  0  0
   -0.1349   -1.2650   -1.2026 C   0  0  0  0  0  0  0  0  0  0  0  0
    0.0908   -0.0004   -0.7017 C   0  0  0  0  0  0  0  0  0  0  0  0
   -0.6680    0.9278   -0.3321 C   0  0  0  0  0  0  0  0  0  0  0  0
   -2.0563    0.8065   -0.3773 C   0  0  0  0  0  0  0  0  0  0  0  0
   -2.4358   -0.4589   -0.8781 C   0  0  0  0  0  0  0  0  0  0  0  0
   -1.9263   -2.4058   -1.6511 H   0  0  0  0  0  0  0  0  0  0  0  0
    0.5920   -2.0147   -1.5013 H   0  0  0  0  0  0  0  0  0  0  0  0
    0.1242    2.7989    0.4079 H   0  0  0  0  0  0  0  0  0  0  0  0
   -2.7922    1.5487   -0.0815 H   0  0  0  0  0  0  0  0  0  0  0  0
   -3.8845   -0.7479   -0.9894 N   0  0  0  0  0  0  0  0  0  0  0  0
   -4.6643    0.1361   -0.6482 O   0  0  0  0  0  0  0  0  0  0  0  0
   -4.2200   -1.8424   -1.4332 O   0  0  0  0  0  0  0  0  0  0  0  0
    3.7500   -1.4710   -1.2926 N   0  0  0  0  0  0  0  0  0  0  0  0
    4.8369   -1.2898   -1.2231 N   0  0  0  0  0  0  0  0  0  0  0  0
    0.3995    3.9893    0.8791 Cl  0  0  0  0  0  0  0  0  0  0  0  0
  1  2  2  0  0  0  0
  1  6  1  0  0  0  0
  2  3  1  0  0  0  0
  3  4  2  0  0  0  0
  5  4  1  0  0  0  0
  5 10  1  0  0  0  0
  6  5  2  0  0  0  0
  7  1  1  0  0  0  0
  8  2  1  0  0  0  0
  9 16  1  0  0  0  0
 11  6  1  0  0  0  0
 11 12  2  0  0  0  0
 13 11  2  0  0  0  0
 14 15  3  0  0  0  0
M  RAD  2   3   2   4   2
M  END
