Coordinates from ORCA-job p-NO2-Ph-N2-Cl-B3LYPG-aug-cc-pVDZ-scan-d09-49-n400
 OpenBabel10311713223D

 16 14  0  0  0  0  0  0  0  0999 V2000
   -1.5063   -1.4356   -1.2694 C   0  0  0  0  0  0  0  0  0  0  0  0
   -0.1165   -1.2084   -1.1812 C   0  0  0  0  0  0  0  0  0  0  0  0
    0.0813    0.0599   -0.6782 C   0  0  0  0  0  0  0  0  0  0  0  0
   -0.7008    0.9715   -0.3154 C   0  0  0  0  0  0  0  0  0  0  0  0
   -2.0858    0.8228   -0.3725 C   0  0  0  0  0  0  0  0  0  0  0  0
   -2.4355   -0.4498   -0.8770 C   0  0  0  0  0  0  0  0  0  0  0  0
   -1.8800   -2.3857   -1.6459 H   0  0  0  0  0  0  0  0  0  0  0  0
    0.6285   -1.9427   -1.4736 H   0  0  0  0  0  0  0  0  0  0  0  0
    0.0535    2.8596    0.4324 H   0  0  0  0  0  0  0  0  0  0  0  0
   -2.8389    1.5501   -0.0829 H   0  0  0  0  0  0  0  0  0  0  0  0
   -3.8772   -0.7674   -1.0010 N   0  0  0  0  0  0  0  0  0  0  0  0
   -4.6773    0.0971   -0.6572 O   0  0  0  0  0  0  0  0  0  0  0  0
   -4.1869   -1.8719   -1.4388 O   0  0  0  0  0  0  0  0  0  0  0  0
    3.8146   -1.6189   -1.3498 N   0  0  0  0  0  0  0  0  0  0  0  0
    4.9097   -1.4880   -1.2996 N   0  0  0  0  0  0  0  0  0  0  0  0
    0.2985    4.0553    0.9063 Cl  0  0  0  0  0  0  0  0  0  0  0  0
  1  2  2  0  0  0  0
  1  6  1  0  0  0  0
  2  3  1  0  0  0  0
  3  4  2  0  0  0  0
  5  4  1  0  0  0  0
  5 10  1  0  0  0  0
  6  5  2  0  0  0  0
  7  1  1  0  0  0  0
  8  2  1  0  0  0  0
  9 16  1  0  0  0  0
 11  6  1  0  0  0  0
 11 12  2  0  0  0  0
 13 11  2  0  0  0  0
 14 15  3  0  0  0  0
M  RAD  2   3   2   4   2
M  END
