Coordinates from ORCA-job p-NO2-Ph-N2-Cl-B3LYPG-aug-cc-pVDZ-scan-d09-49-n400
 OpenBabel10311713223D

 16 14  0  0  0  0  0  0  0  0999 V2000
   -1.5171   -1.4478   -1.2737 C   0  0  0  0  0  0  0  0  0  0  0  0
   -0.1246   -1.2341   -1.1911 C   0  0  0  0  0  0  0  0  0  0  0  0
    0.0848    0.0329   -0.6888 C   0  0  0  0  0  0  0  0  0  0  0  0
   -0.6865    0.9522   -0.3229 C   0  0  0  0  0  0  0  0  0  0  0  0
   -2.0731    0.8160   -0.3748 C   0  0  0  0  0  0  0  0  0  0  0  0
   -2.4359   -0.4535   -0.8778 C   0  0  0  0  0  0  0  0  0  0  0  0
   -1.9012   -2.3943   -1.6486 H   0  0  0  0  0  0  0  0  0  0  0  0
    0.6116   -1.9761   -1.4866 H   0  0  0  0  0  0  0  0  0  0  0  0
    0.0853    2.8325    0.4215 H   0  0  0  0  0  0  0  0  0  0  0  0
   -2.8186    1.5499   -0.0825 H   0  0  0  0  0  0  0  0  0  0  0  0
   -3.8809   -0.7584   -0.9964 N   0  0  0  0  0  0  0  0  0  0  0  0
   -4.6721    0.1141   -0.6521 O   0  0  0  0  0  0  0  0  0  0  0  0
   -4.2020   -1.8592   -1.4353 O   0  0  0  0  0  0  0  0  0  0  0  0
    3.7877   -1.5528   -1.3240 N   0  0  0  0  0  0  0  0  0  0  0  0
    4.8794   -1.3994   -1.2649 N   0  0  0  0  0  0  0  0  0  0  0  0
    0.3441    4.0259    0.8943 Cl  0  0  0  0  0  0  0  0  0  0  0  0
  1  2  2  0  0  0  0
  1  6  1  0  0  0  0
  2  3  1  0  0  0  0
  3  4  2  0  0  0  0
  5  4  1  0  0  0  0
  5 10  1  0  0  0  0
  6  5  2  0  0  0  0
  7  1  1  0  0  0  0
  8  2  1  0  0  0  0
  9 16  1  0  0  0  0
 11  6  1  0  0  0  0
 11 12  2  0  0  0  0
 13 11  2  0  0  0  0
 14 15  3  0  0  0  0
M  RAD  2   3   2   4   2
M  END
