Coordinates from ORCA-job p-NO2-Ph-N2-Cl-B3LYPG-aug-cc-pVDZ-scan-d09-49-n400
 OpenBabel10311713223D

 16 16  0  0  0  0  0  0  0  0999 V2000
   -1.5024   -1.5731   -1.3249 C   0  0  0  0  0  0  0  0  0  0  0  0
   -0.1133   -1.4326   -1.2710 C   0  0  0  0  0  0  0  0  0  0  0  0
    0.3637   -0.2253   -0.7951 C   0  0  0  0  0  0  0  0  0  0  0  0
   -0.3782    0.8568   -0.3680 C   0  0  0  0  0  0  0  0  0  0  0  0
   -1.7687    0.6974   -0.4296 C   0  0  0  0  0  0  0  0  0  0  0  0
   -2.2975   -0.5049   -0.9031 C   0  0  0  0  0  0  0  0  0  0  0  0
   -1.9672   -2.4873   -1.6849 H   0  0  0  0  0  0  0  0  0  0  0  0
    0.5603   -2.2263   -1.5850 H   0  0  0  0  0  0  0  0  0  0  0  0
    0.1009    1.7651   -0.0096 H   0  0  0  0  0  0  0  0  0  0  0  0
   -2.4359    1.4959   -0.1144 H   0  0  0  0  0  0  0  0  0  0  0  0
   -3.7718   -0.6566   -0.9620 N   0  0  0  0  0  0  0  0  0  0  0  0
   -4.4533    0.2856   -0.5736 O   0  0  0  0  0  0  0  0  0  0  0  0
   -4.2138   -1.7271   -1.3662 O   0  0  0  0  0  0  0  0  0  0  0  0
    2.1049   -0.1710   -0.7770 N   0  0  0  0  0  0  0  0  0  0  0  0
    2.8999    0.6104   -0.4624 N   0  0  0  0  0  0  0  0  0  0  0  0
    2.3533    2.5409    0.3231 Cl  0  0  0  0  0  0  0  0  0  0  0  0
  1  2  2  0  0  0  0
  1  6  1  0  0  0  0
  2  3  1  0  0  0  0
  3 14  1  0  0  0  0
  3  4  2  0  0  0  0
  4  9  1  0  0  0  0
  5  4  1  0  0  0  0
  5 10  1  0  0  0  0
  6  5  2  0  0  0  0
  7  1  1  0  0  0  0
  8  2  1  0  0  0  0
 11  6  1  0  0  0  0
 11 12  2  0  0  0  0
 13 11  2  0  0  0  0
 14 15  2  0  0  0  0
 15 16  1  0  0  0  0
M  END
