Coordinates from ORCA-job p-NO2-Ph-N2-Cl-B3LYPG-aug-cc-pVDZ-scan-d09-49-n400
 OpenBabel10311713223D

 16 16  0  0  0  0  0  0  0  0999 V2000
   -1.5106   -1.5771   -1.3257 C   0  0  0  0  0  0  0  0  0  0  0  0
   -0.1196   -1.4428   -1.2741 C   0  0  0  0  0  0  0  0  0  0  0  0
    0.3479   -0.2364   -0.7964 C   0  0  0  0  0  0  0  0  0  0  0  0
   -0.3778    0.8500   -0.3650 C   0  0  0  0  0  0  0  0  0  0  0  0
   -1.7698    0.6939   -0.4252 C   0  0  0  0  0  0  0  0  0  0  0  0
   -2.3017   -0.5067   -0.9005 C   0  0  0  0  0  0  0  0  0  0  0  0
   -1.9789   -2.4893   -1.6867 H   0  0  0  0  0  0  0  0  0  0  0  0
    0.5528   -2.2368   -1.5897 H   0  0  0  0  0  0  0  0  0  0  0  0
    0.1105    1.7548   -0.0068 H   0  0  0  0  0  0  0  0  0  0  0  0
   -2.4344    1.4937   -0.1075 H   0  0  0  0  0  0  0  0  0  0  0  0
   -3.7763   -0.6545   -0.9574 N   0  0  0  0  0  0  0  0  0  0  0  0
   -4.4549    0.2935   -0.5784 O   0  0  0  0  0  0  0  0  0  0  0  0
   -4.2217   -1.7182   -1.3757 O   0  0  0  0  0  0  0  0  0  0  0  0
    2.1589   -0.1722   -0.7734 N   0  0  0  0  0  0  0  0  0  0  0  0
    2.9302    0.6256   -0.4576 N   0  0  0  0  0  0  0  0  0  0  0  0
    2.3266    2.5705    0.3162 Cl  0  0  0  0  0  0  0  0  0  0  0  0
  1  2  2  0  0  0  0
  1  6  1  0  0  0  0
  2  3  1  0  0  0  0
  3 14  1  0  0  0  0
  3  4  2  0  0  0  0
  4  9  1  0  0  0  0
  5  4  1  0  0  0  0
  5 10  1  0  0  0  0
  6  5  2  0  0  0  0
  7  1  1  0  0  0  0
  8  2  1  0  0  0  0
 11  6  1  0  0  0  0
 11 12  2  0  0  0  0
 13 11  2  0  0  0  0
 14 15  2  0  0  0  0
 15 16  1  0  0  0  0
M  END
