Coordinates from ORCA-job p-NO2-Ph-N2-Cl-B3LYPG-aug-cc-pVDZ-scan-d09-49-n400
 OpenBabel10311713223D

 16 14  0  0  0  0  0  0  0  0999 V2000
   -1.5930   -1.5877   -1.3300 C   0  0  0  0  0  0  0  0  0  0  0  0
   -0.1834   -1.5236   -1.3065 C   0  0  0  0  0  0  0  0  0  0  0  0
    0.1757   -0.2891   -0.8172 C   0  0  0  0  0  0  0  0  0  0  0  0
   -0.4609    0.7170   -0.4171 C   0  0  0  0  0  0  0  0  0  0  0  0
   -1.8581    0.7202   -0.4140 C   0  0  0  0  0  0  0  0  0  0  0  0
   -2.3797   -0.5000   -0.8974 C   0  0  0  0  0  0  0  0  0  0  0  0
   -2.0919   -2.4867   -1.6861 H   0  0  0  0  0  0  0  0  0  0  0  0
    0.4597   -2.3367   -1.6300 H   0  0  0  0  0  0  0  0  0  0  0  0
    0.4533    2.4680    0.2762 H   0  0  0  0  0  0  0  0  0  0  0  0
   -2.5075    1.5295   -0.0920 H   0  0  0  0  0  0  0  0  0  0  0  0
   -3.8527   -0.6460   -0.9534 N   0  0  0  0  0  0  0  0  0  0  0  0
   -4.5293    0.3046   -0.5735 O   0  0  0  0  0  0  0  0  0  0  0  0
   -4.3098   -1.7062   -1.3716 O   0  0  0  0  0  0  0  0  0  0  0  0
    3.1405   -0.7448   -1.0016 N   0  0  0  0  0  0  0  0  0  0  0  0
    4.1309   -0.2913   -0.8222 N   0  0  0  0  0  0  0  0  0  0  0  0
    0.8872    3.6205    0.7328 Cl  0  0  0  0  0  0  0  0  0  0  0  0
  1  2  2  0  0  0  0
  1  6  1  0  0  0  0
  2  3  1  0  0  0  0
  3  4  2  0  0  0  0
  4  5  1  0  0  0  0
  5 10  1  0  0  0  0
  6  5  2  0  0  0  0
  7  1  1  0  0  0  0
  8  2  1  0  0  0  0
  9 16  1  0  0  0  0
 11  6  1  0  0  0  0
 11 12  2  0  0  0  0
 13 11  2  0  0  0  0
 14 15  3  0  0  0  0
M  RAD  2   3   2   4   2
M  END
