Coordinates from ORCA-job p-NO2-Ph-N2-Cl-B3LYPG-aug-cc-pVDZ-scan-d09-49-n400
 OpenBabel10311713223D

 16 16  0  0  0  0  0  0  0  0999 V2000
   -1.3755   -1.4901   -1.0562 C   0  0  0  0  0  0  0  0  0  0  0  0
   -0.0225   -1.2187   -1.0795 C   0  0  0  0  0  0  0  0  0  0  0  0
    0.4648    0.1386   -0.9525 C   0  0  0  0  0  0  0  0  0  0  0  0
   -0.5277    1.1808   -0.7955 C   0  0  0  0  0  0  0  0  0  0  0  0
   -1.8743    0.8788   -0.7758 C   0  0  0  0  0  0  0  0  0  0  0  0
   -2.2962   -0.4479   -0.9087 C   0  0  0  0  0  0  0  0  0  0  0  0
   -1.7330   -2.5131   -1.1497 H   0  0  0  0  0  0  0  0  0  0  0  0
    0.7138   -2.0123   -1.1909 H   0  0  0  0  0  0  0  0  0  0  0  0
   -0.1741    2.2048   -0.6918 H   0  0  0  0  0  0  0  0  0  0  0  0
   -2.6132    1.6676   -0.6549 H   0  0  0  0  0  0  0  0  0  0  0  0
   -3.7285   -0.7514   -0.8927 N   0  0  0  0  0  0  0  0  0  0  0  0
   -4.5097    0.1897   -0.7606 O   0  0  0  0  0  0  0  0  0  0  0  0
   -4.0636   -1.9290   -1.0114 O   0  0  0  0  0  0  0  0  0  0  0  0
    1.5311    0.3659   -0.9760 N   0  0  0  0  0  0  0  0  0  0  0  0
    2.6549    0.5770   -0.7607 N   0  0  0  0  0  0  0  0  0  0  0  0
    3.0346    0.4071    1.3530 Cl  0  0  0  0  0  0  0  0  0  0  0  0
  1  6  1  0  0  0  0
  2  1  2  0  0  0  0
  2  3  1  0  0  0  0
  3  4  2  0  0  0  0
  4  5  1  0  0  0  0
  4  9  1  0  0  0  0
  5 10  1  0  0  0  0
  6 11  1  0  0  0  0
  6  5  2  0  0  0  0
  7  1  1  0  0  0  0
  8  2  1  0  0  0  0
 11 12  2  0  0  0  0
 13 11  2  0  0  0  0
 14  3  1  0  0  0  0
 14 15  1  0  0  0  0
 15 16  1  0  0  0  0
M  RAD  2  14   2  15   2
M  END
