Coordinates from ORCA-job p-NO2-Ph-N2-Cl-B3LYPG-aug-cc-pVDZ-scan-d09-49-n400
 OpenBabel10311713223D

 16 14  0  0  0  0  0  0  0  0999 V2000
   -1.5919   -1.5704   -1.3230 C   0  0  0  0  0  0  0  0  0  0  0  0
   -0.1833   -1.4869   -1.2918 C   0  0  0  0  0  0  0  0  0  0  0  0
    0.1570   -0.2472   -0.8004 C   0  0  0  0  0  0  0  0  0  0  0  0
   -0.5003    0.7468   -0.4051 C   0  0  0  0  0  0  0  0  0  0  0  0
   -1.8965    0.7337   -0.4084 C   0  0  0  0  0  0  0  0  0  0  0  0
   -2.3970   -0.4944   -0.8950 C   0  0  0  0  0  0  0  0  0  0  0  0
   -2.0762   -2.4764   -1.6817 H   0  0  0  0  0  0  0  0  0  0  0  0
    0.4714   -2.2919   -1.6121 H   0  0  0  0  0  0  0  0  0  0  0  0
    0.4084    2.5235    0.2985 H   0  0  0  0  0  0  0  0  0  0  0  0
   -2.5591    1.5336   -0.0901 H   0  0  0  0  0  0  0  0  0  0  0  0
   -3.8675   -0.6616   -0.9593 N   0  0  0  0  0  0  0  0  0  0  0  0
   -4.5598    0.2794   -0.5842 O   0  0  0  0  0  0  0  0  0  0  0  0
   -4.3069   -1.7280   -1.3808 O   0  0  0  0  0  0  0  0  0  0  0  0
    3.2757   -0.8496   -1.0436 N   0  0  0  0  0  0  0  0  0  0  0  0
    4.2908   -0.4458   -0.8845 N   0  0  0  0  0  0  0  0  0  0  0  0
    0.8160    3.6830    0.7579 Cl  0  0  0  0  0  0  0  0  0  0  0  0
  1  2  2  0  0  0  0
  1  6  1  0  0  0  0
  2  3  1  0  0  0  0
  3  4  2  0  0  0  0
  5  4  1  0  0  0  0
  5 10  1  0  0  0  0
  6  5  2  0  0  0  0
  7  1  1  0  0  0  0
  8  2  1  0  0  0  0
  9 16  1  0  0  0  0
 11  6  1  0  0  0  0
 11 12  2  0  0  0  0
 13 11  2  0  0  0  0
 14 15  3  0  0  0  0
M  RAD  2   3   2   4   2
M  END
