Coordinates from ORCA-job p-NO2-Ph-N2-Cl-B3LYPG-aug-cc-pVDZ-scan-d09-49-n400
 OpenBabel10311713223D

 16 14  0  0  0  0  0  0  0  0999 V2000
   -1.4504   -1.3845   -1.2492 C   0  0  0  0  0  0  0  0  0  0  0  0
   -0.0720   -1.1039   -1.1398 C   0  0  0  0  0  0  0  0  0  0  0  0
    0.0716    0.1715   -0.6340 C   0  0  0  0  0  0  0  0  0  0  0  0
   -0.7549    1.0483   -0.2850 C   0  0  0  0  0  0  0  0  0  0  0  0
   -2.1317    0.8493   -0.3620 C   0  0  0  0  0  0  0  0  0  0  0  0
   -2.4235   -0.4359   -0.8715 C   0  0  0  0  0  0  0  0  0  0  0  0
   -1.7809   -2.3483   -1.6311 H   0  0  0  0  0  0  0  0  0  0  0  0
    0.7036   -1.8107   -1.4213 H   0  0  0  0  0  0  0  0  0  0  0  0
   -0.0710    2.9718    0.4771 H   0  0  0  0  0  0  0  0  0  0  0  0
   -2.9163    1.5471   -0.0841 H   0  0  0  0  0  0  0  0  0  0  0  0
   -3.8496   -0.8094   -1.0177 N   0  0  0  0  0  0  0  0  0  0  0  0
   -4.6880    0.0232   -0.6864 O   0  0  0  0  0  0  0  0  0  0  0  0
   -4.1093   -1.9250   -1.4599 O   0  0  0  0  0  0  0  0  0  0  0  0
    3.8670   -1.8747   -1.4515 N   0  0  0  0  0  0  0  0  0  0  0  0
    4.9707   -1.8469   -1.4420 N   0  0  0  0  0  0  0  0  0  0  0  0
    0.1158    4.1760    0.9546 Cl  0  0  0  0  0  0  0  0  0  0  0  0
  1  2  2  0  0  0  0
  1  6  1  0  0  0  0
  2  3  1  0  0  0  0
  3  4  2  0  0  0  0
  5  4  1  0  0  0  0
  5 10  1  0  0  0  0
  6  5  2  0  0  0  0
  7  1  1  0  0  0  0
  8  2  1  0  0  0  0
  9 16  1  0  0  0  0
 11  6  1  0  0  0  0
 11 12  2  0  0  0  0
 13 11  2  0  0  0  0
 14 15  3  0  0  0  0
M  RAD  2   3   2   4   2
M  END
