Coordinates from ORCA-job p-NO2-Ph-N2-Cl-B3LYPG-aug-cc-pVDZ-scan-d09-49-n400
 OpenBabel10311713223D

 16 14  0  0  0  0  0  0  0  0999 V2000
   -1.5666   -1.6209   -1.3434 C   0  0  0  0  0  0  0  0  0  0  0  0
   -0.1571   -1.5956   -1.3353 C   0  0  0  0  0  0  0  0  0  0  0  0
    0.2346   -0.3744   -0.8512 C   0  0  0  0  0  0  0  0  0  0  0  0
   -0.3281    0.6777   -0.4330 C   0  0  0  0  0  0  0  0  0  0  0  0
   -1.7336    0.6895   -0.4263 C   0  0  0  0  0  0  0  0  0  0  0  0
   -2.3080   -0.5068   -0.9003 C   0  0  0  0  0  0  0  0  0  0  0  0
   -2.0963   -2.5044   -1.6932 H   0  0  0  0  0  0  0  0  0  0  0  0
    0.4643   -2.4234   -1.6646 H   0  0  0  0  0  0  0  0  0  0  0  0
    0.5393    2.2333    0.1829 H   0  0  0  0  0  0  0  0  0  0  0  0
   -2.3537    1.5192   -0.0962 H   0  0  0  0  0  0  0  0  0  0  0  0
   -3.7859   -0.6035   -0.9366 N   0  0  0  0  0  0  0  0  0  0  0  0
   -4.4254    0.3686   -0.5479 O   0  0  0  0  0  0  0  0  0  0  0  0
   -4.2827   -1.6483   -1.3486 O   0  0  0  0  0  0  0  0  0  0  0  0
    2.6269   -0.4487   -0.8836 N   0  0  0  0  0  0  0  0  0  0  0  0
    3.5356    0.1347   -0.6518 N   0  0  0  0  0  0  0  0  0  0  0  0
    1.1178    3.3511    0.6254 Cl  0  0  0  0  0  0  0  0  0  0  0  0
  1  2  2  0  0  0  0
  1  6  1  0  0  0  0
  2  3  1  0  0  0  0
  3  4  2  0  0  0  0
  4  5  1  0  0  0  0
  5 10  1  0  0  0  0
  6  5  2  0  0  0  0
  7  1  1  0  0  0  0
  8  2  1  0  0  0  0
  9 16  1  0  0  0  0
 11  6  1  0  0  0  0
 11 12  2  0  0  0  0
 13 11  2  0  0  0  0
 14 15  3  0  0  0  0
M  RAD  2   3   2   4   2
M  END
