Coordinates from ORCA-job p-NO2-Ph-N2-Cl-B3LYPG-aug-cc-pVDZ-scan-d09-49-n400
 OpenBabel10311713223D

 16 14  0  0  0  0  0  0  0  0999 V2000
   -1.4273   -1.3647   -1.2406 C   0  0  0  0  0  0  0  0  0  0  0  0
   -0.0539   -1.0638   -1.1235 C   0  0  0  0  0  0  0  0  0  0  0  0
    0.0676    0.2142   -0.6169 C   0  0  0  0  0  0  0  0  0  0  0  0
   -0.7744    1.0781   -0.2730 C   0  0  0  0  0  0  0  0  0  0  0  0
   -2.1475    0.8587   -0.3578 C   0  0  0  0  0  0  0  0  0  0  0  0
   -2.4168   -0.4309   -0.8686 C   0  0  0  0  0  0  0  0  0  0  0  0
   -1.7413   -2.3333   -1.6242 H   0  0  0  0  0  0  0  0  0  0  0  0
    0.7336   -1.7592   -1.4006 H   0  0  0  0  0  0  0  0  0  0  0  0
   -0.1200    3.0127    0.4932 H   0  0  0  0  0  0  0  0  0  0  0  0
   -2.9442    1.5446   -0.0844 H   0  0  0  0  0  0  0  0  0  0  0  0
   -3.8363   -0.8259   -1.0229 N   0  0  0  0  0  0  0  0  0  0  0  0
   -4.6891   -0.0048   -0.6997 O   0  0  0  0  0  0  0  0  0  0  0  0
   -4.0766   -1.9440   -1.4697 O   0  0  0  0  0  0  0  0  0  0  0  0
    3.8790   -1.9703   -1.4899 N   0  0  0  0  0  0  0  0  0  0  0  0
    4.9829   -1.9830   -1.4968 N   0  0  0  0  0  0  0  0  0  0  0  0
    0.0455    4.2195    0.9716 Cl  0  0  0  0  0  0  0  0  0  0  0  0
  1  2  2  0  0  0  0
  1  6  1  0  0  0  0
  2  3  1  0  0  0  0
  3  4  2  0  0  0  0
  5  4  1  0  0  0  0
  5 10  1  0  0  0  0
  6  5  2  0  0  0  0
  7  1  1  0  0  0  0
  8  2  1  0  0  0  0
  9 16  1  0  0  0  0
 11  6  1  0  0  0  0
 11 12  2  0  0  0  0
 13 11  2  0  0  0  0
 15 14  3  0  0  0  0
M  RAD  2   3   2   4   2
M  END
