Coordinates from ORCA-job p-NO2-Ph-N2-Cl-B3LYPG-aug-cc-pVDZ-scan-d09-49-n400
 OpenBabel10311713223D

 16 14  0  0  0  0  0  0  0  0999 V2000
   -1.5734   -1.6184   -1.3423 C   0  0  0  0  0  0  0  0  0  0  0  0
   -0.1633   -1.5905   -1.3333 C   0  0  0  0  0  0  0  0  0  0  0  0
    0.2241   -0.3676   -0.8486 C   0  0  0  0  0  0  0  0  0  0  0  0
   -0.3485    0.6771   -0.4331 C   0  0  0  0  0  0  0  0  0  0  0  0
   -1.7523    0.6927   -0.4249 C   0  0  0  0  0  0  0  0  0  0  0  0
   -2.3201   -0.5072   -0.9003 C   0  0  0  0  0  0  0  0  0  0  0  0
   -2.1005   -2.5033   -1.6927 H   0  0  0  0  0  0  0  0  0  0  0  0
    0.4591   -2.4175   -1.6624 H   0  0  0  0  0  0  0  0  0  0  0  0
    0.5311    2.2817    0.2020 H   0  0  0  0  0  0  0  0  0  0  0  0
   -2.3754    1.5202   -0.0956 H   0  0  0  0  0  0  0  0  0  0  0  0
   -3.7975   -0.6094   -0.9387 N   0  0  0  0  0  0  0  0  0  0  0  0
   -4.4411    0.3605   -0.5513 O   0  0  0  0  0  0  0  0  0  0  0  0
   -4.2901   -1.6558   -1.3518 O   0  0  0  0  0  0  0  0  0  0  0  0
    2.7144   -0.4926   -0.9012 N   0  0  0  0  0  0  0  0  0  0  0  0
    3.6366    0.0718   -0.6767 N   0  0  0  0  0  0  0  0  0  0  0  0
    1.0779    3.4062    0.6472 Cl  0  0  0  0  0  0  0  0  0  0  0  0
  1  2  2  0  0  0  0
  1  6  1  0  0  0  0
  2  3  1  0  0  0  0
  3  4  2  0  0  0  0
  4  5  1  0  0  0  0
  5 10  1  0  0  0  0
  6  5  2  0  0  0  0
  7  1  1  0  0  0  0
  8  2  1  0  0  0  0
  9 16  1  0  0  0  0
 11  6  1  0  0  0  0
 11 12  2  0  0  0  0
 13 11  2  0  0  0  0
 14 15  3  0  0  0  0
M  RAD  2   3   2   4   2
M  END
