Coordinates from ORCA-job p-NO2-Ph-N2-Cl-B3LYPG-aug-cc-pVDZ-scan-d09-49-n400
 OpenBabel10311713223D

 16 16  0  0  0  0  0  0  0  0999 V2000
   -1.4919   -1.5713   -1.3168 C   0  0  0  0  0  0  0  0  0  0  0  0
   -0.1052   -1.4228   -1.2667 C   0  0  0  0  0  0  0  0  0  0  0  0
    0.3885   -0.2144   -0.7961 C   0  0  0  0  0  0  0  0  0  0  0  0
   -0.3743    0.8623   -0.3723 C   0  0  0  0  0  0  0  0  0  0  0  0
   -1.7626    0.6995   -0.4290 C   0  0  0  0  0  0  0  0  0  0  0  0
   -2.2901   -0.5054   -0.8963 C   0  0  0  0  0  0  0  0  0  0  0  0
   -1.9537   -2.4885   -1.6726 H   0  0  0  0  0  0  0  0  0  0  0  0
    0.5681   -2.2167   -1.5817 H   0  0  0  0  0  0  0  0  0  0  0  0
    0.0951    1.7755   -0.0161 H   0  0  0  0  0  0  0  0  0  0  0  0
   -2.4315    1.4968   -0.1145 H   0  0  0  0  0  0  0  0  0  0  0  0
   -3.7642   -0.6623   -0.9498 N   0  0  0  0  0  0  0  0  0  0  0  0
   -4.4478    0.2887   -0.5873 O   0  0  0  0  0  0  0  0  0  0  0  0
   -4.2040   -1.7261   -1.3737 O   0  0  0  0  0  0  0  0  0  0  0  0
    2.0396   -0.1643   -0.7897 N   0  0  0  0  0  0  0  0  0  0  0  0
    2.8605    0.5980   -0.4756 N   0  0  0  0  0  0  0  0  0  0  0  0
    2.3548    2.4990    0.3346 Cl  0  0  0  0  0  0  0  0  0  0  0  0
  1  2  2  0  0  0  0
  1  6  1  0  0  0  0
  2  3  1  0  0  0  0
  3 14  1  0  0  0  0
  3  4  2  0  0  0  0
  4  9  1  0  0  0  0
  5  4  1  0  0  0  0
  5 10  1  0  0  0  0
  6  5  2  0  0  0  0
  7  1  1  0  0  0  0
  8  2  1  0  0  0  0
 11  6  1  0  0  0  0
 11 12  2  0  0  0  0
 13 11  2  0  0  0  0
 14 15  2  0  0  0  0
 15 16  1  0  0  0  0
M  END
