Coordinates from ORCA-job p-NO2-Ph-N2-Cl-B3LYPG-aug-cc-pVDZ-scan-d09-49-n400
 OpenBabel10311713223D

 16 16  0  0  0  0  0  0  0  0999 V2000
   -1.4796   -1.5670   -1.3164 C   0  0  0  0  0  0  0  0  0  0  0  0
   -0.0957   -1.4144   -1.2638 C   0  0  0  0  0  0  0  0  0  0  0  0
    0.4221   -0.2074   -0.7931 C   0  0  0  0  0  0  0  0  0  0  0  0
   -0.3664    0.8632   -0.3720 C   0  0  0  0  0  0  0  0  0  0  0  0
   -1.7523    0.7018   -0.4296 C   0  0  0  0  0  0  0  0  0  0  0  0
   -2.2798   -0.5027   -0.8971 C   0  0  0  0  0  0  0  0  0  0  0  0
   -1.9392   -2.4848   -1.6729 H   0  0  0  0  0  0  0  0  0  0  0  0
    0.5752   -2.2107   -1.5794 H   0  0  0  0  0  0  0  0  0  0  0  0
    0.0938    1.7799   -0.0141 H   0  0  0  0  0  0  0  0  0  0  0  0
   -2.4217    1.4987   -0.1158 H   0  0  0  0  0  0  0  0  0  0  0  0
   -3.7541   -0.6605   -0.9523 N   0  0  0  0  0  0  0  0  0  0  0  0
   -4.4386    0.2875   -0.5838 O   0  0  0  0  0  0  0  0  0  0  0  0
   -4.1925   -1.7274   -1.3699 O   0  0  0  0  0  0  0  0  0  0  0  0
    1.9529   -0.1578   -0.7846 N   0  0  0  0  0  0  0  0  0  0  0  0
    2.8090    0.5776   -0.4822 N   0  0  0  0  0  0  0  0  0  0  0  0
    2.3480    2.4720    0.3232 Cl  0  0  0  0  0  0  0  0  0  0  0  0
  1  2  2  0  0  0  0
  1  6  1  0  0  0  0
  2  3  1  0  0  0  0
  3 14  1  0  0  0  0
  3  4  2  0  0  0  0
  4  9  1  0  0  0  0
  5  4  1  0  0  0  0
  5 10  1  0  0  0  0
  6  5  2  0  0  0  0
  7  1  1  0  0  0  0
  8  2  1  0  0  0  0
 11  6  1  0  0  0  0
 11 12  2  0  0  0  0
 13 11  2  0  0  0  0
 14 15  2  0  0  0  0
 15 16  1  0  0  0  0
M  END
