Coordinates from ORCA-job p-NO2-Ph-N2-Cl-B3LYPG-aug-cc-pVDZ-scan-d09-49-n400
 OpenBabel10311713223D

 16 14  0  0  0  0  0  0  0  0999 V2000
   -1.5405   -1.4757   -1.2853 C   0  0  0  0  0  0  0  0  0  0  0  0
   -0.1435   -1.2900   -1.2135 C   0  0  0  0  0  0  0  0  0  0  0  0
    0.0972   -0.0284   -0.7134 C   0  0  0  0  0  0  0  0  0  0  0  0
   -0.6514    0.9073   -0.3411 C   0  0  0  0  0  0  0  0  0  0  0  0
   -2.0411    0.7989   -0.3822 C   0  0  0  0  0  0  0  0  0  0  0  0
   -2.4349   -0.4625   -0.8820 C   0  0  0  0  0  0  0  0  0  0  0  0
   -1.9468   -2.4142   -1.6570 H   0  0  0  0  0  0  0  0  0  0  0  0
    0.5762   -2.0457   -1.5143 H   0  0  0  0  0  0  0  0  0  0  0  0
    0.1571    2.7697    0.3966 H   0  0  0  0  0  0  0  0  0  0  0  0
   -2.7688    1.5483   -0.0839 H   0  0  0  0  0  0  0  0  0  0  0  0
   -3.8868   -0.7368   -0.9888 N   0  0  0  0  0  0  0  0  0  0  0  0
   -4.6565    0.1512   -0.6357 O   0  0  0  0  0  0  0  0  0  0  0  0
   -4.2346   -1.8315   -1.4227 O   0  0  0  0  0  0  0  0  0  0  0  0
    3.7136   -1.4021   -1.2636 N   0  0  0  0  0  0  0  0  0  0  0  0
    4.7957   -1.1978   -1.1841 N   0  0  0  0  0  0  0  0  0  0  0  0
    0.4461    3.9572    0.8673 Cl  0  0  0  0  0  0  0  0  0  0  0  0
  1  2  2  0  0  0  0
  1  6  1  0  0  0  0
  2  3  1  0  0  0  0
  3  4  2  0  0  0  0
  5  4  1  0  0  0  0
  5 10  1  0  0  0  0
  6  5  2  0  0  0  0
  7  1  1  0  0  0  0
  8  2  1  0  0  0  0
  9 16  1  0  0  0  0
 11  6  1  0  0  0  0
 11 12  2  0  0  0  0
 13 11  2  0  0  0  0
 14 15  3  0  0  0  0
M  RAD  2   3   2   4   2
M  END
