Coordinates from ORCA-job p-NO2-Ph-N2-Cl-B3LYPG-aug-cc-pVDZ-scan-d09-49-n400
 OpenBabel10311713223D

 16 14  0  0  0  0  0  0  0  0999 V2000
   -1.5613   -1.6223   -1.3436 C   0  0  0  0  0  0  0  0  0  0  0  0
   -0.1527   -1.5986   -1.3363 C   0  0  0  0  0  0  0  0  0  0  0  0
    0.2448   -0.3788   -0.8529 C   0  0  0  0  0  0  0  0  0  0  0  0
   -0.3107    0.6796   -0.4321 C   0  0  0  0  0  0  0  0  0  0  0  0
   -1.7178    0.6870   -0.4270 C   0  0  0  0  0  0  0  0  0  0  0  0
   -2.2980   -0.5059   -0.8994 C   0  0  0  0  0  0  0  0  0  0  0  0
   -2.0931   -2.5047   -1.6929 H   0  0  0  0  0  0  0  0  0  0  0  0
    0.4688   -2.4264   -1.6658 H   0  0  0  0  0  0  0  0  0  0  0  0
    0.5406    2.1820    0.1626 H   0  0  0  0  0  0  0  0  0  0  0  0
   -2.3349    1.5188   -0.0959 H   0  0  0  0  0  0  0  0  0  0  0  0
   -3.7763   -0.5975   -0.9335 N   0  0  0  0  0  0  0  0  0  0  0  0
   -4.4121    0.3771   -0.5457 O   0  0  0  0  0  0  0  0  0  0  0  0
   -4.2767   -1.6403   -1.3466 O   0  0  0  0  0  0  0  0  0  0  0  0
    2.5581   -0.4093   -0.8682 N   0  0  0  0  0  0  0  0  0  0  0  0
    3.4542    0.1911   -0.6300 N   0  0  0  0  0  0  0  0  0  0  0  0
    1.1483    3.2961    0.6035 Cl  0  0  0  0  0  0  0  0  0  0  0  0
  1  2  2  0  0  0  0
  1  6  1  0  0  0  0
  2  3  1  0  0  0  0
  3  4  2  0  0  0  0
  4  5  1  0  0  0  0
  5 10  1  0  0  0  0
  6  5  2  0  0  0  0
  7  1  1  0  0  0  0
  8  2  1  0  0  0  0
  9 16  1  0  0  0  0
 11  6  1  0  0  0  0
 11 12  2  0  0  0  0
 13 11  2  0  0  0  0
 14 15  3  0  0  0  0
M  RAD  2   3   2   4   2
M  END
