Coordinates from ORCA-job p-NO2-Ph-N2-Cl-B3LYPG-aug-cc-pVDZ-scan-d09-49-n400
 OpenBabel10311713223D

 16 16  0  0  0  0  0  0  0  0999 V2000
   -1.3749   -1.4867   -1.0479 C   0  0  0  0  0  0  0  0  0  0  0  0
   -0.0260   -1.2339   -1.0447 C   0  0  0  0  0  0  0  0  0  0  0  0
    0.5120    0.1426   -0.9021 C   0  0  0  0  0  0  0  0  0  0  0  0
   -0.5354    1.1852   -0.7584 C   0  0  0  0  0  0  0  0  0  0  0  0
   -1.8720    0.8741   -0.7685 C   0  0  0  0  0  0  0  0  0  0  0  0
   -2.3058   -0.4493   -0.9136 C   0  0  0  0  0  0  0  0  0  0  0  0
   -1.7292   -2.5104   -1.1562 H   0  0  0  0  0  0  0  0  0  0  0  0
    0.7201   -2.0190   -1.1486 H   0  0  0  0  0  0  0  0  0  0  0  0
   -0.1691    2.2039   -0.6488 H   0  0  0  0  0  0  0  0  0  0  0  0
   -2.6090    1.6682   -0.6617 H   0  0  0  0  0  0  0  0  0  0  0  0
   -3.7265   -0.7470   -0.9259 N   0  0  0  0  0  0  0  0  0  0  0  0
   -4.5129    0.1951   -0.8056 O   0  0  0  0  0  0  0  0  0  0  0  0
   -4.0665   -1.9251   -1.0565 O   0  0  0  0  0  0  0  0  0  0  0  0
    1.4517    0.3396   -0.8950 N   0  0  0  0  0  0  0  0  0  0  0  0
    2.6078    0.5695   -0.7807 N   0  0  0  0  0  0  0  0  0  0  0  0
    3.1170    0.4411    1.2105 Cl  0  0  0  0  0  0  0  0  0  0  0  0
  1  2  2  0  0  0  0
  1  6  1  0  0  0  0
  2  3  1  0  0  0  0
  3 14  1  0  0  0  0
  3  4  2  0  0  0  0
  4  9  1  0  0  0  0
  5  4  1  0  0  0  0
  5 10  1  0  0  0  0
  6  5  2  0  0  0  0
  7  1  1  0  0  0  0
  8  2  1  0  0  0  0
 11  6  1  0  0  0  0
 11 12  2  0  0  0  0
 13 11  2  0  0  0  0
 14 15  1  0  0  0  0
 15 16  1  0  0  0  0
M  RAD  2  14   2  15   2
M  END
