Coordinates from ORCA-job p-NO2-Ph-N2-Cl-B3LYPG-aug-cc-pVDZ-scan-d09-49-n400
 OpenBabel10311713223D

 16 14  0  0  0  0  0  0  0  0999 V2000
   -1.5918   -1.5926   -1.3313 C   0  0  0  0  0  0  0  0  0  0  0  0
   -0.1817   -1.5345   -1.3106 C   0  0  0  0  0  0  0  0  0  0  0  0
    0.1808   -0.3016   -0.8220 C   0  0  0  0  0  0  0  0  0  0  0  0
   -0.4472    0.7095   -0.4198 C   0  0  0  0  0  0  0  0  0  0  0  0
   -1.8450    0.7162   -0.4148 C   0  0  0  0  0  0  0  0  0  0  0  0
   -2.3729   -0.5017   -0.8971 C   0  0  0  0  0  0  0  0  0  0  0  0
   -2.0952   -2.4896   -1.6863 H   0  0  0  0  0  0  0  0  0  0  0  0
    0.4571   -2.3504   -1.6354 H   0  0  0  0  0  0  0  0  0  0  0  0
    0.4653    2.4485    0.2684 H   0  0  0  0  0  0  0  0  0  0  0  0
   -2.4906    1.5281   -0.0915 H   0  0  0  0  0  0  0  0  0  0  0  0
   -3.8467   -0.6417   -0.9501 N   0  0  0  0  0  0  0  0  0  0  0  0
   -4.5186    0.3131   -0.5726 O   0  0  0  0  0  0  0  0  0  0  0  0
   -4.3089   -1.6986   -1.3711 O   0  0  0  0  0  0  0  0  0  0  0  0
    3.0923   -0.7122   -0.9894 N   0  0  0  0  0  0  0  0  0  0  0  0
    4.0742   -0.2429   -0.8037 N   0  0  0  0  0  0  0  0  0  0  0  0
    0.9101    3.5984    0.7237 Cl  0  0  0  0  0  0  0  0  0  0  0  0
  1  2  2  0  0  0  0
  1  6  1  0  0  0  0
  2  3  1  0  0  0  0
  3  4  2  0  0  0  0
  4  5  1  0  0  0  0
  5 10  1  0  0  0  0
  6  5  2  0  0  0  0
  7  1  1  0  0  0  0
  8  2  1  0  0  0  0
  9 16  1  0  0  0  0
 11  6  1  0  0  0  0
 11 12  2  0  0  0  0
 13 11  2  0  0  0  0
 14 15  3  0  0  0  0
M  RAD  2   3   2   4   2
M  END
