Coordinates from ORCA-job p-NO2-Ph-N2-Cl-B3LYPG-aug-cc-pVDZ-scan-d09-49-n400
 OpenBabel10311713223D

 16 14  0  0  0  0  0  0  0  0999 V2000
   -1.5923   -1.5683   -1.3220 C   0  0  0  0  0  0  0  0  0  0  0  0
   -0.1844   -1.4813   -1.2895 C   0  0  0  0  0  0  0  0  0  0  0  0
    0.1553   -0.2408   -0.7979 C   0  0  0  0  0  0  0  0  0  0  0  0
   -0.5067    0.7503   -0.4037 C   0  0  0  0  0  0  0  0  0  0  0  0
   -1.9026    0.7352   -0.4077 C   0  0  0  0  0  0  0  0  0  0  0  0
   -2.4000   -0.4939   -0.8946 C   0  0  0  0  0  0  0  0  0  0  0  0
   -2.0743   -2.4754   -1.6811 H   0  0  0  0  0  0  0  0  0  0  0  0
    0.4745   -2.2834   -1.6087 H   0  0  0  0  0  0  0  0  0  0  0  0
    0.4033    2.5331    0.3023 H   0  0  0  0  0  0  0  0  0  0  0  0
   -2.5671    1.5338   -0.0899 H   0  0  0  0  0  0  0  0  0  0  0  0
   -3.8701   -0.6641   -0.9599 N   0  0  0  0  0  0  0  0  0  0  0  0
   -4.5646    0.2760   -0.5861 O   0  0  0  0  0  0  0  0  0  0  0  0
   -4.3070   -1.7310   -1.3825 O   0  0  0  0  0  0  0  0  0  0  0  0
    3.2986   -0.8705   -1.0521 N   0  0  0  0  0  0  0  0  0  0  0  0
    4.3131   -0.4654   -0.8925 N   0  0  0  0  0  0  0  0  0  0  0  0
    0.8055    3.6938    0.7622 Cl  0  0  0  0  0  0  0  0  0  0  0  0
  1  2  2  0  0  0  0
  1  6  1  0  0  0  0
  2  3  1  0  0  0  0
  3  4  2  0  0  0  0
  5  4  1  0  0  0  0
  5 10  1  0  0  0  0
  6  5  2  0  0  0  0
  7  1  1  0  0  0  0
  8  2  1  0  0  0  0
  9 16  1  0  0  0  0
 11  6  1  0  0  0  0
 11 12  2  0  0  0  0
 13 11  2  0  0  0  0
 14 15  3  0  0  0  0
M  RAD  2   3   2   4   2
M  END
