Coordinates from ORCA-job p-NO2-Ph-N2-Cl-B3LYPG-aug-cc-pVDZ-scan-d09-49-n400
 OpenBabel10311713223D

 16 14  0  0  0  0  0  0  0  0999 V2000
   -1.5915   -1.5955   -1.3315 C   0  0  0  0  0  0  0  0  0  0  0  0
   -0.1814   -1.5401   -1.3125 C   0  0  0  0  0  0  0  0  0  0  0  0
    0.1842   -0.3079   -0.8244 C   0  0  0  0  0  0  0  0  0  0  0  0
   -0.4407    0.7049   -0.4212 C   0  0  0  0  0  0  0  0  0  0  0  0
   -1.8386    0.7137   -0.4148 C   0  0  0  0  0  0  0  0  0  0  0  0
   -2.3698   -0.5029   -0.8963 C   0  0  0  0  0  0  0  0  0  0  0  0
   -2.0971   -2.4915   -1.6859 H   0  0  0  0  0  0  0  0  0  0  0  0
    0.4560   -2.3568   -1.6379 H   0  0  0  0  0  0  0  0  0  0  0  0
    0.4718    2.4394    0.2648 H   0  0  0  0  0  0  0  0  0  0  0  0
   -2.4822    1.5270   -0.0907 H   0  0  0  0  0  0  0  0  0  0  0  0
   -3.8439   -0.6399   -0.9474 N   0  0  0  0  0  0  0  0  0  0  0  0
   -4.5133    0.3181   -0.5738 O   0  0  0  0  0  0  0  0  0  0  0  0
   -4.3088   -1.6940   -1.3724 O   0  0  0  0  0  0  0  0  0  0  0  0
    3.0689   -0.6957   -0.9838 N   0  0  0  0  0  0  0  0  0  0  0  0
    4.0466   -0.2188   -0.7953 N   0  0  0  0  0  0  0  0  0  0  0  0
    0.9209    3.5882    0.7194 Cl  0  0  0  0  0  0  0  0  0  0  0  0
  1  2  2  0  0  0  0
  1  6  1  0  0  0  0
  2  3  1  0  0  0  0
  3  4  2  0  0  0  0
  4  5  1  0  0  0  0
  5 10  1  0  0  0  0
  6  5  2  0  0  0  0
  7  1  1  0  0  0  0
  8  2  1  0  0  0  0
  9 16  1  0  0  0  0
 11  6  1  0  0  0  0
 11 12  2  0  0  0  0
 13 11  2  0  0  0  0
 14 15  3  0  0  0  0
M  RAD  2   3   2   4   2
M  END
