Coordinates from ORCA-job p-NO2-Ph-N2-Cl-B3LYPG-aug-cc-pVDZ-scan-d09-49-n400
 OpenBabel10311713223D

 16 14  0  0  0  0  0  0  0  0999 V2000
   -1.5897   -1.5594   -1.3183 C   0  0  0  0  0  0  0  0  0  0  0  0
   -0.1821   -1.4635   -1.2823 C   0  0  0  0  0  0  0  0  0  0  0  0
    0.1466   -0.2205   -0.7898 C   0  0  0  0  0  0  0  0  0  0  0  0
   -0.5236    0.7657   -0.3976 C   0  0  0  0  0  0  0  0  0  0  0  0
   -1.9191    0.7420   -0.4049 C   0  0  0  0  0  0  0  0  0  0  0  0
   -2.4063   -0.4908   -0.8933 C   0  0  0  0  0  0  0  0  0  0  0  0
   -2.0647   -2.4696   -1.6787 H   0  0  0  0  0  0  0  0  0  0  0  0
    0.4805   -2.2629   -1.6004 H   0  0  0  0  0  0  0  0  0  0  0  0
    0.3808    2.5574    0.3120 H   0  0  0  0  0  0  0  0  0  0  0  0
   -2.5899    1.5360   -0.0890 H   0  0  0  0  0  0  0  0  0  0  0  0
   -3.8750   -0.6715   -0.9628 N   0  0  0  0  0  0  0  0  0  0  0  0
   -4.5771    0.2638   -0.5912 O   0  0  0  0  0  0  0  0  0  0  0  0
   -4.3032   -1.7413   -1.3868 O   0  0  0  0  0  0  0  0  0  0  0  0
    3.3545   -0.9226   -1.0728 N   0  0  0  0  0  0  0  0  0  0  0  0
    4.3773   -0.5359   -0.9208 N   0  0  0  0  0  0  0  0  0  0  0  0
    0.7721    3.7209    0.7731 Cl  0  0  0  0  0  0  0  0  0  0  0  0
  1  2  2  0  0  0  0
  1  6  1  0  0  0  0
  2  3  1  0  0  0  0
  3  4  2  0  0  0  0
  5  4  1  0  0  0  0
  5 10  1  0  0  0  0
  6  5  2  0  0  0  0
  7  1  1  0  0  0  0
  8  2  1  0  0  0  0
  9 16  1  0  0  0  0
 11  6  1  0  0  0  0
 11 12  2  0  0  0  0
 13 11  2  0  0  0  0
 14 15  3  0  0  0  0
M  RAD  2   3   2   4   2
M  END
