Coordinates from ORCA-job p-NO2-Ph-N2-Cl-B3LYPG-aug-cc-pVDZ-scan-d09-49-n400
 OpenBabel10311713223D

 16 14  0  0  0  0  0  0  0  0999 V2000
   -1.5511   -1.6195   -1.3425 C   0  0  0  0  0  0  0  0  0  0  0  0
   -0.1451   -1.5972   -1.3354 C   0  0  0  0  0  0  0  0  0  0  0  0
    0.2961   -0.3960   -0.8595 C   0  0  0  0  0  0  0  0  0  0  0  0
   -0.2400    0.7251   -0.4142 C   0  0  0  0  0  0  0  0  0  0  0  0
   -1.6530    0.6763   -0.4318 C   0  0  0  0  0  0  0  0  0  0  0  0
   -2.2622   -0.4948   -0.8955 C   0  0  0  0  0  0  0  0  0  0  0  0
   -2.0885   -2.4988   -1.6906 H   0  0  0  0  0  0  0  0  0  0  0  0
    0.4735   -2.4271   -1.6653 H   0  0  0  0  0  0  0  0  0  0  0  0
    0.3731    1.6563   -0.0457 H   0  0  0  0  0  0  0  0  0  0  0  0
   -2.2491    1.5223   -0.0956 H   0  0  0  0  0  0  0  0  0  0  0  0
   -3.7441   -0.5577   -0.9186 N   0  0  0  0  0  0  0  0  0  0  0  0
   -4.3560    0.4279   -0.5254 O   0  0  0  0  0  0  0  0  0  0  0  0
   -4.2597   -1.5935   -1.3274 O   0  0  0  0  0  0  0  0  0  0  0  0
    2.3681   -0.1974   -0.7832 N   0  0  0  0  0  0  0  0  0  0  0  0
    2.9926    0.6601   -0.4438 N   0  0  0  0  0  0  0  0  0  0  0  0
    1.5266    2.9619    0.4708 Cl  0  0  0  0  0  0  0  0  0  0  0  0
  1  2  2  0  0  0  0
  1  6  1  0  0  0  0
  2  3  1  0  0  0  0
  3  4  2  0  0  0  0
  4  9  1  0  0  0  0
  5  4  1  0  0  0  0
  5 10  1  0  0  0  0
  6  5  2  0  0  0  0
  7  1  1  0  0  0  0
  8  2  1  0  0  0  0
 11  6  1  0  0  0  0
 11 12  2  0  0  0  0
 13 11  2  0  0  0  0
 14 15  3  0  0  0  0
M  RAD  2   3   2  16   2
M  END
