Coordinates from ORCA-job p-NO2-Ph-N2-Cl-B3LYPG-aug-cc-pVDZ-scan-d09-49-n400
 OpenBabel10311713223D

 16 14  0  0  0  0  0  0  0  0999 V2000
   -1.5912   -1.5639   -1.3203 C   0  0  0  0  0  0  0  0  0  0  0  0
   -0.1833   -1.4725   -1.2860 C   0  0  0  0  0  0  0  0  0  0  0  0
    0.1509   -0.2308   -0.7939 C   0  0  0  0  0  0  0  0  0  0  0  0
   -0.5152    0.7579   -0.4007 C   0  0  0  0  0  0  0  0  0  0  0  0
   -1.9109    0.7387   -0.4064 C   0  0  0  0  0  0  0  0  0  0  0  0
   -2.4031   -0.4924   -0.8940 C   0  0  0  0  0  0  0  0  0  0  0  0
   -2.0698   -2.4725   -1.6800 H   0  0  0  0  0  0  0  0  0  0  0  0
    0.4771   -2.2735   -1.6047 H   0  0  0  0  0  0  0  0  0  0  0  0
    0.3926    2.5453    0.3072 H   0  0  0  0  0  0  0  0  0  0  0  0
   -2.5786    1.5349   -0.0895 H   0  0  0  0  0  0  0  0  0  0  0  0
   -3.8723   -0.6678   -0.9614 N   0  0  0  0  0  0  0  0  0  0  0  0
   -4.5705    0.2698   -0.5885 O   0  0  0  0  0  0  0  0  0  0  0  0
   -4.3049   -1.7363   -1.3845 O   0  0  0  0  0  0  0  0  0  0  0  0
    3.3266   -0.8969   -1.0625 N   0  0  0  0  0  0  0  0  0  0  0  0
    4.3445   -0.4994   -0.9060 N   0  0  0  0  0  0  0  0  0  0  0  0
    0.7893    3.7074    0.7677 Cl  0  0  0  0  0  0  0  0  0  0  0  0
  1  2  2  0  0  0  0
  1  6  1  0  0  0  0
  2  3  1  0  0  0  0
  3  4  2  0  0  0  0
  5  4  1  0  0  0  0
  5 10  1  0  0  0  0
  6  5  2  0  0  0  0
  7  1  1  0  0  0  0
  8  2  1  0  0  0  0
  9 16  1  0  0  0  0
 11  6  1  0  0  0  0
 11 12  2  0  0  0  0
 13 11  2  0  0  0  0
 14 15  3  0  0  0  0
M  RAD  2   3   2   4   2
M  END
