Coordinates from ORCA-job p-NO2-Ph-N2-Cl-B3LYPG-aug-cc-pVDZ-scan-d09-49-n400
 OpenBabel10311713223D

 16 14  0  0  0  0  0  0  0  0999 V2000
   -1.4008   -1.3416   -1.2322 C   0  0  0  0  0  0  0  0  0  0  0  0
   -0.0335   -1.0177   -1.1056 C   0  0  0  0  0  0  0  0  0  0  0  0
    0.0633    0.2619   -0.5981 C   0  0  0  0  0  0  0  0  0  0  0  0
   -0.7957    1.1113   -0.2600 C   0  0  0  0  0  0  0  0  0  0  0  0
   -2.1643    0.8691   -0.3542 C   0  0  0  0  0  0  0  0  0  0  0  0
   -2.4084   -0.4247   -0.8671 C   0  0  0  0  0  0  0  0  0  0  0  0
   -1.6957   -2.3153   -1.6181 H   0  0  0  0  0  0  0  0  0  0  0  0
    0.7669   -1.7003   -1.3775 H   0  0  0  0  0  0  0  0  0  0  0  0
   -0.1752    3.0570    0.5111 H   0  0  0  0  0  0  0  0  0  0  0  0
   -2.9742    1.5416   -0.0863 H   0  0  0  0  0  0  0  0  0  0  0  0
   -3.8200   -0.8434   -1.0313 N   0  0  0  0  0  0  0  0  0  0  0  0
   -4.6886   -0.0382   -0.7106 O   0  0  0  0  0  0  0  0  0  0  0  0
   -4.0383   -1.9666   -1.4767 O   0  0  0  0  0  0  0  0  0  0  0  0
    3.8885   -2.0759   -1.5313 N   0  0  0  0  0  0  0  0  0  0  0  0
    4.9907   -2.1357   -1.5568 N   0  0  0  0  0  0  0  0  0  0  0  0
   -0.0335    4.2663    0.9908 Cl  0  0  0  0  0  0  0  0  0  0  0  0
  1  2  2  0  0  0  0
  1  6  1  0  0  0  0
  2  3  1  0  0  0  0
  3  4  2  0  0  0  0
  5  4  1  0  0  0  0
  5 10  1  0  0  0  0
  6  5  2  0  0  0  0
  7  1  1  0  0  0  0
  8  2  1  0  0  0  0
  9 16  1  0  0  0  0
 11  6  1  0  0  0  0
 11 12  2  0  0  0  0
 13 11  2  0  0  0  0
 15 14  3  0  0  0  0
M  RAD  2   3   2   4   2
M  END
