Coordinates from ORCA-job p-NO2-Ph-N2-Cl-B3LYPG-aug-cc-pVDZ-scan-d09-49-n400
 OpenBabel10311713223D

 16 14  0  0  0  0  0  0  0  0999 V2000
   -1.5855   -1.5487   -1.3141 C   0  0  0  0  0  0  0  0  0  0  0  0
   -0.1791   -1.4403   -1.2731 C   0  0  0  0  0  0  0  0  0  0  0  0
    0.1390   -0.1946   -0.7794 C   0  0  0  0  0  0  0  0  0  0  0  0
   -0.5428    0.7846   -0.3900 C   0  0  0  0  0  0  0  0  0  0  0  0
   -1.9378    0.7498   -0.4019 C   0  0  0  0  0  0  0  0  0  0  0  0
   -2.4126   -0.4872   -0.8919 C   0  0  0  0  0  0  0  0  0  0  0  0
   -2.0512   -2.4631   -1.6762 H   0  0  0  0  0  0  0  0  0  0  0  0
    0.4910   -2.2344   -1.5890 H   0  0  0  0  0  0  0  0  0  0  0  0
    0.3510    2.5883    0.3244 H   0  0  0  0  0  0  0  0  0  0  0  0
   -2.6164    1.5379   -0.0883 H   0  0  0  0  0  0  0  0  0  0  0  0
   -3.8795   -0.6802   -0.9664 N   0  0  0  0  0  0  0  0  0  0  0  0
   -4.5908    0.2489   -0.5970 O   0  0  0  0  0  0  0  0  0  0  0  0
   -4.2972   -1.7537   -1.3916 O   0  0  0  0  0  0  0  0  0  0  0  0
    3.4156   -0.9872   -1.0985 N   0  0  0  0  0  0  0  0  0  0  0  0
    4.4499   -0.6277   -0.9576 N   0  0  0  0  0  0  0  0  0  0  0  0
    0.7276    3.7556    0.7870 Cl  0  0  0  0  0  0  0  0  0  0  0  0
  1  2  2  0  0  0  0
  1  6  1  0  0  0  0
  2  3  1  0  0  0  0
  3  4  2  0  0  0  0
  5  4  1  0  0  0  0
  5 10  1  0  0  0  0
  6  5  2  0  0  0  0
  7  1  1  0  0  0  0
  8  2  1  0  0  0  0
  9 16  1  0  0  0  0
 11  6  1  0  0  0  0
 11 12  2  0  0  0  0
 13 11  2  0  0  0  0
 14 15  3  0  0  0  0
M  RAD  2   3   2   4   2
M  END
