Coordinates from ORCA-job p-NO2-Ph-N2-Cl-B3LYPG-aug-cc-pVDZ-scan-d09-49-n400
 OpenBabel10311713223D

 16 14  0  0  0  0  0  0  0  0999 V2000
   -1.5774   -1.5321   -1.3076 C   0  0  0  0  0  0  0  0  0  0  0  0
   -0.1727   -1.4057   -1.2594 C   0  0  0  0  0  0  0  0  0  0  0  0
    0.1274   -0.1559   -0.7641 C   0  0  0  0  0  0  0  0  0  0  0  0
   -0.5706    0.8133   -0.3787 C   0  0  0  0  0  0  0  0  0  0  0  0
   -1.9646    0.7618   -0.3972 C   0  0  0  0  0  0  0  0  0  0  0  0
   -2.4205   -0.4814   -0.8897 C   0  0  0  0  0  0  0  0  0  0  0  0
   -2.0295   -2.4524   -1.6719 H   0  0  0  0  0  0  0  0  0  0  0  0
    0.5086   -2.1916   -1.5720 H   0  0  0  0  0  0  0  0  0  0  0  0
    0.3062    2.6329    0.3422 H   0  0  0  0  0  0  0  0  0  0  0  0
   -2.6550    1.5411   -0.0871 H   0  0  0  0  0  0  0  0  0  0  0  0
   -3.8841   -0.6935   -0.9717 N   0  0  0  0  0  0  0  0  0  0  0  0
   -4.6093    0.2263   -0.6059 O   0  0  0  0  0  0  0  0  0  0  0  0
   -4.2855   -1.7724   -1.3989 O   0  0  0  0  0  0  0  0  0  0  0  0
    3.4987   -1.0843   -1.1370 N   0  0  0  0  0  0  0  0  0  0  0  0
    4.5477   -0.7638   -1.0118 N   0  0  0  0  0  0  0  0  0  0  0  0
    0.6617    3.8055    0.8071 Cl  0  0  0  0  0  0  0  0  0  0  0  0
  1  2  2  0  0  0  0
  1  6  1  0  0  0  0
  2  3  1  0  0  0  0
  3  4  2  0  0  0  0
  5  4  1  0  0  0  0
  5 10  1  0  0  0  0
  6  5  2  0  0  0  0
  7  1  1  0  0  0  0
  8  2  1  0  0  0  0
  9 16  1  0  0  0  0
 11  6  1  0  0  0  0
 11 12  2  0  0  0  0
 13 11  2  0  0  0  0
 14 15  3  0  0  0  0
M  RAD  2   3   2   4   2
M  END
