Coordinates from ORCA-job p-NO2-Ph-N2-Cl-B3LYPG-aug-cc-pVDZ-scan-d09-49-n400
 OpenBabel10311713223D

 16 14  0  0  0  0  0  0  0  0999 V2000
   -1.4432   -1.3780   -1.2467 C   0  0  0  0  0  0  0  0  0  0  0  0
   -0.0664   -1.0912   -1.1348 C   0  0  0  0  0  0  0  0  0  0  0  0
    0.0700    0.1851   -0.6286 C   0  0  0  0  0  0  0  0  0  0  0  0
   -0.7613    1.0579   -0.2812 C   0  0  0  0  0  0  0  0  0  0  0  0
   -2.1370    0.8525   -0.3608 C   0  0  0  0  0  0  0  0  0  0  0  0
   -2.4216   -0.4341   -0.8708 C   0  0  0  0  0  0  0  0  0  0  0  0
   -1.7686   -2.3433   -1.6292 H   0  0  0  0  0  0  0  0  0  0  0  0
    0.7127   -1.7946   -1.4149 H   0  0  0  0  0  0  0  0  0  0  0  0
   -0.0867    2.9848    0.4823 H   0  0  0  0  0  0  0  0  0  0  0  0
   -2.9255    1.5465   -0.0843 H   0  0  0  0  0  0  0  0  0  0  0  0
   -3.8457   -0.8144   -1.0197 N   0  0  0  0  0  0  0  0  0  0  0  0
   -4.6887    0.0141   -0.6899 O   0  0  0  0  0  0  0  0  0  0  0  0
   -4.0992   -1.9312   -1.4624 O   0  0  0  0  0  0  0  0  0  0  0  0
    3.8723   -1.9056   -1.4637 N   0  0  0  0  0  0  0  0  0  0  0  0
    4.9763   -1.8904   -1.4593 N   0  0  0  0  0  0  0  0  0  0  0  0
    0.0934    4.1898    0.9601 Cl  0  0  0  0  0  0  0  0  0  0  0  0
  1  2  2  0  0  0  0
  1  6  1  0  0  0  0
  2  3  1  0  0  0  0
  3  4  2  0  0  0  0
  5  4  1  0  0  0  0
  5 10  1  0  0  0  0
  6  5  2  0  0  0  0
  7  1  1  0  0  0  0
  8  2  1  0  0  0  0
  9 16  1  0  0  0  0
 11  6  1  0  0  0  0
 11 12  2  0  0  0  0
 13 11  2  0  0  0  0
 14 15  3  0  0  0  0
M  RAD  2   3   2   4   2
M  END
