Coordinates from ORCA-job p-NO2-Ph-N2-Cl-B3LYPG-aug-cc-pVDZ-scan-d09-49-n400
 OpenBabel10311713223D

 16 14  0  0  0  0  0  0  0  0999 V2000
   -1.5683   -1.6211   -1.3425 C   0  0  0  0  0  0  0  0  0  0  0  0
   -0.1587   -1.5953   -1.3349 C   0  0  0  0  0  0  0  0  0  0  0  0
    0.2329   -0.3737   -0.8508 C   0  0  0  0  0  0  0  0  0  0  0  0
   -0.3324    0.6763   -0.4331 C   0  0  0  0  0  0  0  0  0  0  0  0
   -1.7374    0.6895   -0.4252 C   0  0  0  0  0  0  0  0  0  0  0  0
   -2.3106   -0.5076   -0.8991 C   0  0  0  0  0  0  0  0  0  0  0  0
   -2.0976   -2.5049   -1.6922 H   0  0  0  0  0  0  0  0  0  0  0  0
    0.4629   -2.4228   -1.6644 H   0  0  0  0  0  0  0  0  0  0  0  0
    0.5389    2.2448    0.1875 H   0  0  0  0  0  0  0  0  0  0  0  0
   -2.3579    1.5188   -0.0950 H   0  0  0  0  0  0  0  0  0  0  0  0
   -3.7884   -0.6054   -0.9351 N   0  0  0  0  0  0  0  0  0  0  0  0
   -4.4286    0.3682   -0.5514 O   0  0  0  0  0  0  0  0  0  0  0  0
   -4.2846   -1.6486   -1.3520 O   0  0  0  0  0  0  0  0  0  0  0  0
    2.6450   -0.4572   -0.8880 N   0  0  0  0  0  0  0  0  0  0  0  0
    3.5562    0.1228   -0.6579 N   0  0  0  0  0  0  0  0  0  0  0  0
    1.1095    3.3641    0.6303 Cl  0  0  0  0  0  0  0  0  0  0  0  0
  1  2  2  0  0  0  0
  1  6  1  0  0  0  0
  2  3  1  0  0  0  0
  3  4  2  0  0  0  0
  4  5  1  0  0  0  0
  5 10  1  0  0  0  0
  6  5  2  0  0  0  0
  7  1  1  0  0  0  0
  8  2  1  0  0  0  0
  9 16  1  0  0  0  0
 11  6  1  0  0  0  0
 11 12  2  0  0  0  0
 13 11  2  0  0  0  0
 14 15  3  0  0  0  0
M  RAD  2   3   2   4   2
M  END
