Coordinates from ORCA-job p-NO2-Ph-N2-Cl-B3LYPG-aug-cc-pVDZ-scan-d09-49-n400
 OpenBabel10311713223D

 16 14  0  0  0  0  0  0  0  0999 V2000
   -1.1669   -1.2113   -1.1813 C   0  0  0  0  0  0  0  0  0  0  0  0
    0.1522   -0.7458   -0.9982 C   0  0  0  0  0  0  0  0  0  0  0  0
    0.0926    0.5359   -0.4894 C   0  0  0  0  0  0  0  0  0  0  0  0
   -0.8650    1.2885   -0.1895 C   0  0  0  0  0  0  0  0  0  0  0  0
   -2.1955    0.9044   -0.3403 C   0  0  0  0  0  0  0  0  0  0  0  0
   -2.2801   -0.4066   -0.8605 C   0  0  0  0  0  0  0  0  0  0  0  0
   -1.3410   -2.2097   -1.5773 H   0  0  0  0  0  0  0  0  0  0  0  0
    1.0296   -1.3410   -1.2355 H   0  0  0  0  0  0  0  0  0  0  0  0
   -0.4763    3.2893    0.6039 H   0  0  0  0  0  0  0  0  0  0  0  0
   -3.0821    1.4871   -0.1079 H   0  0  0  0  0  0  0  0  0  0  0  0
   -3.6315   -0.9713   -1.0829 N   0  0  0  0  0  0  0  0  0  0  0  0
   -4.5930   -0.2635   -0.7992 O   0  0  0  0  0  0  0  0  0  0  0  0
   -3.7115   -2.1107   -1.5336 O   0  0  0  0  0  0  0  0  0  0  0  0
    3.5163   -2.5357   -1.7130 N   0  0  0  0  0  0  0  0  0  0  0  0
    4.5178   -2.9671   -1.8856 N   0  0  0  0  0  0  0  0  0  0  0  0
   -0.4846    4.5055    1.0865 Cl  0  0  0  0  0  0  0  0  0  0  0  0
  1  2  2  0  0  0  0
  1  6  1  0  0  0  0
  2  3  1  0  0  0  0
  3  4  2  0  0  0  0
  5  4  1  0  0  0  0
  5 10  1  0  0  0  0
  6  5  2  0  0  0  0
  7  1  1  0  0  0  0
  8  2  1  0  0  0  0
  9 16  1  0  0  0  0
 11  6  1  0  0  0  0
 11 12  2  0  0  0  0
 13 11  2  0  0  0  0
 15 14  3  0  0  0  0
M  RAD  2   3   2   4   2
M  END
