13
Coordinates from ORCA-job Ph-N2+-B3LYPG-6-31G_dp-MTMO-d009-169-n800
  C   -1.92802844964519      0.09082784357129     -1.08368226241067
  C   -0.54792925234108      0.01493333891226     -0.97162482220473
  C   0.05936942368725      0.82830738394740      0.00807166629783
  C   -0.64626118782764      1.69862755845342      0.86524844081249
  C   -2.02455268809977      1.74344395251276      0.71926287567634
  C   -2.65871827144416      0.94723152483183     -0.24637307556003
  H   -2.43793206675106     -0.51626338559833     -1.82376493907241
  H   0.04661962317806     -0.63571095240256     -1.60334890612260
  N   1.43282922915111      0.76949524488871      0.13538124649381
  N   2.54245777260792      0.72213031870013      0.23786513400942
  H   -3.73877105608008      0.99526215824841     -0.34822367089067
  H   -2.60800484142962      2.39863066360409      1.35689603532837
  H   -0.12477823500573      2.30078435033059      1.60109227764286
