17
Coordinates from ORCA-job Ph-N2-NO3-B3LYPG-aug-cc-pVDZ-scan-d09-49-n400
  C   -0.75793912393420     -0.41385546336888     -0.19294809700241
  C   0.22770128267828      0.01072854301960     -1.04997028585941
  C   1.06314702464203      1.03727585515322     -0.57213070098850
  C   1.15932736334386      1.60323471131176      0.75632114329166
  C   -0.04280492696896      1.20189458968995      1.52020948690695
  C   -0.89667305581260      0.23127767515921      1.08155310530835
  H   -1.43538842249852     -1.21270980407846     -0.48634611133565
  H   0.36533740308076     -0.41175566163210     -2.04289345327469
  N   2.11239451401869      1.62047807936023     -1.61738526794746
  N   2.87313863283924      2.03046162639036     -2.33063869445975
  H   -1.74238578528224     -0.04374311313388      1.71363688372320
  H   -0.20990953278272      1.70722174598379      2.47041664132216
  H   1.39264024108290      2.67119332303960      0.80705907710371
  O   2.54045405802740      1.23144520388392      1.55674482501770
  N   2.82468848087001     -0.09327941085890      1.81877149887610
  O   3.80473329529530     -0.25510205586536      2.51728208288504
  O   2.10423855140074     -0.94966584405408      1.33751786643300
