17
Coordinates from ORCA-job Ph-N2-NO3-B3LYPG-aug-cc-pVDZ-scan-d09-49-n400
  C   -1.67729117565843      0.14779627681422     -0.60309375722508
  C   -0.35550199499774      0.09071329488040     -1.10288916738124
  C   0.53519046396990      0.44852511169180     -0.14295471012416
  C   0.46687014719173      0.83381486383766      1.15356679140490
  C   -0.87916479882364      0.86902549235923      1.58756952629589
  C   -1.92421411323866      0.53118915347701      0.71977133291797
  H   -2.49524789321226     -0.11338381645965     -1.27547450068858
  H   -0.10927363025286     -0.19952866583422     -2.12081871355889
  N   2.60624514076678      0.41766848013883     -0.76667938909892
  N   3.30413018367148      0.32036762112408     -1.62273017083088
  H   -2.95144489173456      0.56585999871726      1.08107282202836
  H   -1.07884225179114      1.16338799866250      2.61832974112109
  H   1.33505853069102      1.07256332092001      1.76673591004718
  O   5.30059797684619      1.06135427183074      0.42801814191976
  N   4.68003209008493      0.95961236351128      1.49693720919230
  O   5.21077726722791      1.09074829546893      2.60409087114915
  O   3.41477894925932      0.70538593885988      1.46574806283112
