17
Coordinates from ORCA-job Ph-N2-NO3-B3LYPG-aug-cc-pVDZ-scan-d09-49-n400
  C   -1.47567665206575      0.06608540260547     -0.61432765815929
  C   -0.13423923838043      0.09748143172746     -1.00645874077525
  C   0.76643291053345      0.55637844425323     -0.05403987344579
  C   0.46982259613481      0.97678941731769      1.22955966212741
  C   -0.88493736998826      0.93661154837718      1.58131614851862
  C   -1.84543407155986      0.48452564181424      0.66997989822810
  H   -2.22863139963486     -0.28617471966830     -1.31870009706962
  H   0.18720384252912     -0.21764343217690     -1.99629314096902
  N   2.29505681144839      0.60051814565475     -0.53046170723153
  N   2.98240986026704      0.56868400676983     -1.41468813421402
  H   -2.89491462501691      0.45534839952501      0.96256599260422
  H   -1.18212148406140      1.25771417647811      2.57891787512097
  H   1.25433702387003      1.30295521787551      1.90557625049928
  O   5.04282273025840      0.81417189085172      0.18008978247631
  N   4.55389602723681      0.79442308525282      1.32332128653690
  O   5.21792729180782      0.85113048220434      2.35170015801692
  O   3.25874574662156      0.70610086113784      1.43914229773577
