17
Coordinates from ORCA-job Ph-N2-NO3-B3LYPG-aug-cc-pVDZ-scan-d09-49-n400
  C   -0.74544488999991     -0.38037446784673     -0.21839843464732
  C   0.25239187065099      0.00736030225007     -1.05564699021155
  C   1.17116101865107      1.03212760702832     -0.62980394270905
  C   1.20510248049822      1.57588307251334      0.76597908588111
  C   -0.00541901563999      1.17051709171985      1.53859046000819
  C   -0.88519921737311      0.25073079822062      1.07706525517670
  H   -1.45030993163297     -1.15158423639764     -0.52311674472929
  H   0.37543975455784     -0.42723555043568     -2.04693367413684
  N   2.03302601882309      1.53487309379033     -1.49560747086794
  N   2.78540818937629      1.97726931850805     -2.22725598022728
  H   -1.74505695343995     -0.01479243802088      1.69389591936415
  H   -0.14717259131577      1.65151805707314      2.50585123822497
  H   1.34827641919556      2.66508240478749      0.77509965308698
  O   2.50048954352250      1.27332416229752      1.51846816870240
  N   2.80651328865913     -0.07303448987444      1.79585628073948
  O   3.77716312549709     -0.19305321014512      2.50506618886633
  O   2.10633088996993     -0.93351151546827      1.30809098747895
