19
Coordinates from ORCA-job p-NO2-Ph-N2-NO3-B3LYPG-aug-cc-pVDZ-scan-d09-49-n400
  C   -0.21850294211785      0.04213074189167     -1.07650549752616
  C   1.04845667168043     -0.21626991123317     -0.34756594586541
  C   1.04081332478204      0.63727514199927      0.81794861355560
  C   0.27792578492100      1.76615270500155      1.13206005498499
  C   -0.76671988438143      2.04339739571285      0.28080701425900
  C   -0.99661161137008      1.12488299729452     -0.78796456885592
  H   -0.51374255851222     -0.65145444520806     -1.85889469449919
  H   1.23195955680228     -1.28039260515026     -0.16489989751010
  H   0.50522352617584      2.38905114759693      1.99394782554985
  H   -1.40569343245435      2.90884308919109      0.41430291329062
  N   -2.21408802767403      1.33361143078081     -1.61950054203248
  O   -2.45693840186367      0.52035273283089     -2.50459355972413
  O   -2.90079996690278      2.31899922558219     -1.36831966875146
  N   2.19617361136889      0.23238744790827      1.95661357539342
  N   2.99582570025684     -0.04000494125488      2.68535944827883
  O   1.90320695166309      2.09441919453879     -1.58724521889628
  N   2.62440240446444      1.15319252844841     -1.85846768811371
  O   3.59708932911549      1.13655915309260     -2.57796361052164
  O   2.33751996404602     -0.08463302902346     -1.28841855301580
