20
Coordinates from ORCA-job 4-NO2-Ph-N2-BF4-B3LYPG-6-31G_dp-MTMO-d009-169-n800
  C   -2.16404143571460     -0.21216899542401      0.68161536689559
  C   -0.87760458060016      0.31720999611014      0.63478231605159
  C   -0.71376772045544      1.67225099831980      0.90281918511670
  C   -1.77195571701476      2.52017557034730      1.21403366637197
  C   -3.05636250697878      1.98662715787376      1.26010356811410
  C   -3.23195315752405      0.62903068906451      0.99303711900169
  H   -2.35282304125239     -1.25912721499469      0.48104681766395
  H   -0.01630689240127     -0.29461582653849      0.39696294943772
  H   -1.58191374852709      3.56827980382242      1.41485371637719
  H   -3.91725995964837      2.59847028490178      1.49732727001243
  N   -4.58947093279562      0.06617626876069      1.04188913983798
  O   -4.71677735526180     -1.13364148520930      0.80191149710507
  O   -5.51265374789905      0.83046154788531      1.31979564617206
  N   13.61464471913143     -0.89339906374959     -3.60365579818331
  N   12.56887550769896     -0.78818816735081     -3.26166136495645
  B   2.74167691338460      1.33830372213173      0.00542183440280
  F   2.33563062955649      0.07811569789260      0.07151408972661
  F   3.34689306933979      1.88430158669406      1.03974235803957
  F   2.60472185685515      2.00886077513020     -1.12050649466266
  F   0.53374810010718      2.20177665433243      0.86216711747544
