20
Coordinates from ORCA-job 4-NO2-Ph-N2-BF4-B3LYPG-6-31G_dp-MTMO-d009-169-n800
  C   -1.06063501753391     -0.11243105090846      0.49187396815945
  C   0.28270756177952      0.19550297984082      0.16636642032419
  C   0.31223073241722      1.46223713348268     -0.25071004314224
  C   -0.50272078704994      2.52427112686931     -0.44869750766072
  C   -1.81503260283291      2.15323150115103     -0.09873288871861
  C   -2.05785425829151      0.85507865088415      0.35499094867909
  H   -1.30439850589433     -1.09968732320943      0.86786568662526
  H   1.16775031131193     -0.47843041377781      0.29970309163201
  H   -0.22121752491769      3.50168619461408     -0.81291544887016
  H   -2.62764842375837      2.86455303849444     -0.18645915953523
  N   -3.44757323171678      0.49170471817859      0.71014089796591
  O   -3.64190349262793     -0.65364971927654      1.10013363832337
  O   -4.30068637695269      1.36499475132545      0.58380460530876
  N   2.28515012628196      2.01163713616565     -0.94220386013559
  N   3.32000344377923      2.13703523480621     -1.30534947553545
  B   3.41389490065945     -0.01310611954289      1.25043296966831
  F   2.64541890785786     -1.04237277905327      0.55003623126291
  F   3.87274498166095     -0.51924865050088      2.43576185244857
  F   4.42380009311442      0.41650686356200      0.39865828675384
  F   2.49926916271343      1.05938672689483      1.46849978644634
