20
Coordinates from ORCA-job 4-NO2-Ph-N2-BF4-B3LYPG-6-31G_dp-MTMO-d009-169-n800
  C   -1.36453203613010     -0.28760237621760      0.57611286310090
  C   -0.06513717377578      0.19798200393589      0.68787429947013
  C   0.11202107490186      1.55549543703849      0.93535118456703
  C   -0.94670433715101      2.44725731109321      1.07502592286543
  C   -2.24450596131691      1.95760606871244      0.96386370138592
  C   -2.43287676401156      0.59809358260485      0.71589609364237
  H   -1.56336532922302     -1.33409456953758      0.38259265002580
  H   0.79792721379148     -0.44830944135131      0.58524737838039
  H   -0.74702029023508      3.49503679796804      1.26859321603093
  H   -3.10642069497118      2.60460610468325      1.06515661724711
  N   -3.80437122577869      0.08177516557131      0.59900525830420
  O   -3.94309152909828     -1.12102101751286      0.38052421234293
  O   -4.72763743157967      0.88485407738372      0.72717962600487
  N   6.53099770018254     -0.24026923789414     -2.10965563255212
  N   5.65724462743074      0.14200770018601     -1.55299004956747
  B   3.42528056565620      1.14379167472416     -0.17612336388220
  F   3.19487179536555     -0.07753927857567      0.28432032213454
  F   4.20435305701601      1.96397574720922      0.49841867569365
  F   2.89370811253004      1.51700765544980     -1.32393698855361
  F   1.37255862639687      2.03824659452863      1.05074401335925
