20
Coordinates from ORCA-job 4-NO2-Ph-N2-BF4-B3LYPG-6-31G_dp-MTMO-d009-169-n800
  C   -1.10562609505124     -0.11483388718377      0.54573202495719
  C   0.23007748644710      0.14039973760489      0.25075472131267
  C   0.52892047127912      1.40834923864184     -0.26241441957298
  C   -0.41664354855251      2.42102278765355     -0.48863449638012
  C   -1.73913168239109      2.14512267641671     -0.17355842211070
  C   -2.05315644045918      0.88349861825552      0.33327772253614
  H   -1.41639574723277     -1.07186471333176      0.94527240498806
  H   1.03517313917507     -0.57606472160796      0.39723913003665
  H   -0.11944015617033      3.38445499092058     -0.88618502099929
  H   -2.52256884788324      2.87848604952975     -0.31392293004238
  N   -3.47308956448796      0.59598553100024      0.65889892997527
  O   -3.73061460854854     -0.51918730347923      1.09655107300646
  O   -4.28265083575080      1.49719558307808      0.46246752274052
  N   1.85261928910891      1.70405524983895     -0.61188823805872
  N   2.86580767234396      1.99977845786773     -0.96555745307307
  B   3.54755854060539      0.04811039969995      1.16135392664702
  F   2.90850878871619     -0.86371562229890      0.26606355601957
  F   4.21226420796314     -0.60163687631724      2.16078102970826
  F   4.40457548754484      0.86617342661355      0.38348977994966
  F   2.51711244334389      0.89357037709747      1.67347915835984
