Coordinates from ORCA-job 4-MeO-Ph-N2+-B3LYPG-6-31G_dp-MTMO-d009-169-n900
 OpenBabel09051907383D

 17 17  0  0  0  0  0  0  0  0999 V2000
   -1.9448   -0.2216    0.1511 C   0  0  0  0  0  0  0  0  0  0  0  0
   -0.6359   -0.2724   -0.2581 C   0  0  0  0  0  0  0  0  0  0  0  0
    0.1510    0.9222   -0.2747 C   0  0  0  0  0  0  0  0  0  0  0  0
   -0.4245    2.1721    0.1358 C   0  0  0  0  0  0  0  0  0  0  0  0
   -1.7289    2.2055    0.5407 C   0  0  0  0  0  0  0  0  0  0  0  0
   -2.5136    1.0167    0.5569 C   0  0  0  0  0  0  0  0  0  0  0  0
   -2.5327   -1.1309    0.1592 H   0  0  0  0  0  0  0  0  0  0  0  0
   -0.1862   -1.2086   -0.5717 H   0  0  0  0  0  0  0  0  0  0  0  0
    0.1837    3.0704    0.1186 H   0  0  0  0  0  0  0  0  0  0  0  0
   -2.1948    3.1318    0.8573 H   0  0  0  0  0  0  0  0  0  0  0  0
    1.3319    0.8768   -0.6440 N   0  0  0  0  0  0  0  0  0  0  0  0
    2.4080    0.8394   -0.9798 N   0  0  0  0  0  0  0  0  0  0  0  0
   -3.7553    1.1697    0.9629 O   0  0  0  0  0  0  0  0  0  0  0  0
   -4.6697    0.0504    1.0306 C   0  0  0  0  0  0  0  0  0  0  0  0
   -5.6068    0.4742    1.3847 H   0  0  0  0  0  0  0  0  0  0  0  0
   -4.3036   -0.6953    1.7413 H   0  0  0  0  0  0  0  0  0  0  0  0
   -4.8073   -0.3869    0.0386 H   0  0  0  0  0  0  0  0  0  0  0  0
  1  7  1  0  0  0  0
  1  6  2  0  0  0  0
  2  1  1  0  0  0  0
  3  2  2  0  0  0  0
  3  4  1  0  0  0  0
  4  5  2  0  0  0  0
  5  6  1  0  0  0  0
  5 10  1  0  0  0  0
  6 13  1  0  0  0  0
  8  2  1  0  0  0  0
  9  4  1  0  0  0  0
 11  3  1  0  0  0  0
 12 11  1  0  0  0  0
 13 14  1  0  0  0  0
 14 15  1  0  0  0  0
 14 16  1  0  0  0  0
 17 14  1  0  0  0  0
M  RAD  2  11   2  12   3
M  END
