Coordinates from ORCA-job 4-MeO-Ph-N2+-B3LYPG-6-31G_dp-MTMO-d009-169-n900
 OpenBabel09051907383D

 17 16  0  0  0  0  0  0  0  0999 V2000
   -0.7449    2.0095   -0.0091 C   0  0  0  0  0  0  0  0  0  0  0  0
   -0.3430    3.3669    0.0141 C   0  0  0  0  0  0  0  0  0  0  0  0
   -1.4240    4.0927    0.3326 C   0  0  0  0  0  0  0  0  0  0  0  0
   -2.5922    3.9991    0.9886 C   0  0  0  0  0  0  0  0  0  0  0  0
   -2.9283    2.6297    0.9522 C   0  0  0  0  0  0  0  0  0  0  0  0
   -2.0208    1.6396    0.4809 C   0  0  0  0  0  0  0  0  0  0  0  0
   -0.0446    1.2866   -0.4116 H   0  0  0  0  0  0  0  0  0  0  0  0
    0.6467    3.7147   -0.2599 H   0  0  0  0  0  0  0  0  0  0  0  0
   -3.2657    4.7812    1.3191 H   0  0  0  0  0  0  0  0  0  0  0  0
   -3.9384    2.3400    1.2294 H   0  0  0  0  0  0  0  0  0  0  0  0
   -2.9295   -6.7449   -0.2191 N   0  0  0  0  0  0  0  0  0  0  0  0
   -3.1751   -7.8205   -0.2856 N   0  0  0  0  0  0  0  0  0  0  0  0
   -2.4785    0.3964    0.5336 O   0  0  0  0  0  0  0  0  0  0  0  0
   -1.6368   -0.7077    0.1403 C   0  0  0  0  0  0  0  0  0  0  0  0
   -2.2492   -1.5966    0.2785 H   0  0  0  0  0  0  0  0  0  0  0  0
   -0.7508   -0.7606    0.7788 H   0  0  0  0  0  0  0  0  0  0  0  0
   -1.3542   -0.6128   -0.9132 H   0  0  0  0  0  0  0  0  0  0  0  0
  1  2  2  0  0  0  0
  1  6  1  0  0  0  0
  2  3  1  0  0  0  0
  3  4  2  0  0  0  0
  4  9  1  0  0  0  0
  5  4  1  0  0  0  0
  5 10  1  0  0  0  0
  6 13  1  0  0  0  0
  6  5  2  0  0  0  0
  7  1  1  0  0  0  0
  8  2  1  0  0  0  0
 12 11  3  0  0  0  0
 14 15  1  0  0  0  0
 14 13  1  0  0  0  0
 14 16  1  0  0  0  0
 17 14  1  0  0  0  0
M  RAD  1   3   2
M  END
