Coordinates from ORCA-job 4-MeO-Ph-N2+-B3LYPG-6-31G_dp-MTMO-d009-169-n900
 OpenBabel09051907383D

 17 16  0  0  0  0  0  0  0  0999 V2000
   -0.6914    2.3813    0.0132 C   0  0  0  0  0  0  0  0  0  0  0  0
   -0.2974    3.7413    0.0072 C   0  0  0  0  0  0  0  0  0  0  0  0
   -1.3802    4.4663    0.3213 C   0  0  0  0  0  0  0  0  0  0  0  0
   -2.5427    4.3787    0.9879 C   0  0  0  0  0  0  0  0  0  0  0  0
   -2.8707    3.0068    0.9803 C   0  0  0  0  0  0  0  0  0  0  0  0
   -1.9610    2.0135    0.5205 C   0  0  0  0  0  0  0  0  0  0  0  0
    0.0101    1.6550   -0.3811 H   0  0  0  0  0  0  0  0  0  0  0  0
    0.6879    4.0897   -0.2812 H   0  0  0  0  0  0  0  0  0  0  0  0
   -3.2184    5.1630    1.3087 H   0  0  0  0  0  0  0  0  0  0  0  0
   -3.8768    2.7165    1.2710 H   0  0  0  0  0  0  0  0  0  0  0  0
   -3.3511   -9.5506   -0.4707 N   0  0  0  0  0  0  0  0  0  0  0  0
   -3.6238  -10.6192   -0.5442 N   0  0  0  0  0  0  0  0  0  0  0  0
   -2.4108    0.7687    0.6002 O   0  0  0  0  0  0  0  0  0  0  0  0
   -1.5655   -0.3372    0.2205 C   0  0  0  0  0  0  0  0  0  0  0  0
   -2.1720   -1.2268    0.3788 H   0  0  0  0  0  0  0  0  0  0  0  0
   -0.6748   -0.3741    0.8536 H   0  0  0  0  0  0  0  0  0  0  0  0
   -1.2908   -0.2594   -0.8364 H   0  0  0  0  0  0  0  0  0  0  0  0
  1  6  1  0  0  0  0
  2  1  2  0  0  0  0
  2  3  1  0  0  0  0
  3  4  2  0  0  0  0
  4  9  1  0  0  0  0
  5  4  1  0  0  0  0
  5 10  1  0  0  0  0
  6 13  1  0  0  0  0
  6  5  2  0  0  0  0
  7  1  1  0  0  0  0
  8  2  1  0  0  0  0
 12 11  3  0  0  0  0
 14 15  1  0  0  0  0
 14 13  1  0  0  0  0
 14 16  1  0  0  0  0
 17 14  1  0  0  0  0
M  RAD  1   3   2
M  END
