Coordinates from ORCA-job 4-MeO-Ph-N2+-B3LYPG-6-31G_dp-MTMO-d009-169-n900
 OpenBabel09051907383D

 17 16  0  0  0  0  0  0  0  0999 V2000
   -0.7600    1.8442   -0.0186 C   0  0  0  0  0  0  0  0  0  0  0  0
   -0.3896    3.2091    0.0459 C   0  0  0  0  0  0  0  0  0  0  0  0
   -1.4903    3.9041    0.3681 C   0  0  0  0  0  0  0  0  0  0  0  0
   -2.6628    3.7653    1.0089 C   0  0  0  0  0  0  0  0  0  0  0  0
   -2.9677    2.3904    0.9321 C   0  0  0  0  0  0  0  0  0  0  0  0
   -2.0329    1.4327    0.4461 C   0  0  0  0  0  0  0  0  0  0  0  0
   -0.0388    1.1480   -0.4312 H   0  0  0  0  0  0  0  0  0  0  0  0
    0.5956    3.5855   -0.2057 H   0  0  0  0  0  0  0  0  0  0  0  0
   -3.3581    4.5227    1.3514 H   0  0  0  0  0  0  0  0  0  0  0  0
   -3.9745    2.0713    1.1884 H   0  0  0  0  0  0  0  0  0  0  0  0
   -2.8135   -5.2747   -0.0394 N   0  0  0  0  0  0  0  0  0  0  0  0
   -3.0796   -6.3468   -0.0706 N   0  0  0  0  0  0  0  0  0  0  0  0
   -2.4633    0.1789    0.4618 O   0  0  0  0  0  0  0  0  0  0  0  0
   -1.5933   -0.8975    0.0510 C   0  0  0  0  0  0  0  0  0  0  0  0
   -2.1854   -1.8043    0.1611 H   0  0  0  0  0  0  0  0  0  0  0  0
   -0.7127   -0.9453    0.6973 H   0  0  0  0  0  0  0  0  0  0  0  0
   -1.3025   -0.7701   -0.9967 H   0  0  0  0  0  0  0  0  0  0  0  0
  1  2  2  0  0  0  0
  1  6  1  0  0  0  0
  2  3  1  0  0  0  0
  3  4  2  0  0  0  0
  4  9  1  0  0  0  0
  5  4  1  0  0  0  0
  5 10  1  0  0  0  0
  6 13  1  0  0  0  0
  6  5  2  0  0  0  0
  7  1  1  0  0  0  0
  8  2  1  0  0  0  0
 12 11  3  0  0  0  0
 14 15  1  0  0  0  0
 14 13  1  0  0  0  0
 14 16  1  0  0  0  0
 17 14  1  0  0  0  0
M  RAD  1   3   2
M  END
