Coordinates from ORCA-job 4-MeO-Ph-N2+-B3LYPG-6-31G_dp-MTMO-d009-169-n900
 OpenBabel09051907383D

 17 16  0  0  0  0  0  0  0  0999 V2000
   -2.0128   -0.2092    0.1730 C   0  0  0  0  0  0  0  0  0  0  0  0
   -0.6727   -0.2860   -0.2495 C   0  0  0  0  0  0  0  0  0  0  0  0
   -0.0848    0.9341   -0.2004 C   0  0  0  0  0  0  0  0  0  0  0  0
   -0.4602    2.1950    0.1510 C   0  0  0  0  0  0  0  0  0  0  0  0
   -1.7967    2.2044    0.5602 C   0  0  0  0  0  0  0  0  0  0  0  0
   -2.5758    1.0216    0.5756 C   0  0  0  0  0  0  0  0  0  0  0  0
   -2.5895   -1.1263    0.1751 H   0  0  0  0  0  0  0  0  0  0  0  0
   -0.2069   -1.2099   -0.5652 H   0  0  0  0  0  0  0  0  0  0  0  0
    0.1599    3.0813    0.1280 H   0  0  0  0  0  0  0  0  0  0  0  0
   -2.2496    3.1391    0.8738 H   0  0  0  0  0  0  0  0  0  0  0  0
    1.8097    0.8631   -0.7906 N   0  0  0  0  0  0  0  0  0  0  0  0
    2.8633    0.8271   -1.1190 N   0  0  0  0  0  0  0  0  0  0  0  0
   -3.8332    1.1796    0.9872 O   0  0  0  0  0  0  0  0  0  0  0  0
   -4.7181    0.0482    1.0457 C   0  0  0  0  0  0  0  0  0  0  0  0
   -5.6675    0.4433    1.4020 H   0  0  0  0  0  0  0  0  0  0  0  0
   -4.3432   -0.7011    1.7506 H   0  0  0  0  0  0  0  0  0  0  0  0
   -4.8515   -0.3911    0.0520 H   0  0  0  0  0  0  0  0  0  0  0  0
  1  7  1  0  0  0  0
  1  6  2  0  0  0  0
  2  3  2  0  0  0  0
  2  1  1  0  0  0  0
  3  4  1  0  0  0  0
  4  5  2  0  0  0  0
  5  6  1  0  0  0  0
  5 10  1  0  0  0  0
  6 13  1  0  0  0  0
  8  2  1  0  0  0  0
  9  4  1  0  0  0  0
 12 11  3  0  0  0  0
 13 14  1  0  0  0  0
 14 15  1  0  0  0  0
 14 16  1  0  0  0  0
 17 14  1  0  0  0  0
M  RAD  1   3   2
M  END
