Coordinates from ORCA-job 4-MeO-Ph-N2+-B3LYPG-6-31G_dp-MTMO-d009-169-n900
 OpenBabel09051907383D

 17 16  0  0  0  0  0  0  0  0999 V2000
   -1.0039    1.3660   -0.0062 C   0  0  0  0  0  0  0  0  0  0  0  0
   -0.2738    2.5771   -0.0698 C   0  0  0  0  0  0  0  0  0  0  0  0
   -1.1279    3.5678    0.2255 C   0  0  0  0  0  0  0  0  0  0  0  0
   -2.2584    3.8027    0.9127 C   0  0  0  0  0  0  0  0  0  0  0  0
   -2.9287    2.5634    0.9628 C   0  0  0  0  0  0  0  0  0  0  0  0
   -2.3143    1.3542    0.5310 C   0  0  0  0  0  0  0  0  0  0  0  0
   -0.5240    0.4708   -0.3851 H   0  0  0  0  0  0  0  0  0  0  0  0
    0.7604    2.6496   -0.3871 H   0  0  0  0  0  0  0  0  0  0  0  0
   -2.7004    4.7449    1.2142 H   0  0  0  0  0  0  0  0  0  0  0  0
   -3.9686    2.5513    1.2783 H   0  0  0  0  0  0  0  0  0  0  0  0
   -1.1734   -3.8878   -0.4366 N   0  0  0  0  0  0  0  0  0  0  0  0
   -0.8488   -4.9270   -0.6253 N   0  0  0  0  0  0  0  0  0  0  0  0
   -3.0643    0.2702    0.6648 O   0  0  0  0  0  0  0  0  0  0  0  0
   -2.5320   -1.0289    0.3260 C   0  0  0  0  0  0  0  0  0  0  0  0
   -3.3401   -1.7300    0.5233 H   0  0  0  0  0  0  0  0  0  0  0  0
   -1.6702   -1.2662    0.9545 H   0  0  0  0  0  0  0  0  0  0  0  0
   -2.2614   -1.0645   -0.7333 H   0  0  0  0  0  0  0  0  0  0  0  0
  1  6  1  0  0  0  0
  2  1  2  0  0  0  0
  2  3  1  0  0  0  0
  3  4  2  0  0  0  0
  4  5  1  0  0  0  0
  4  9  1  0  0  0  0
  5 10  1  0  0  0  0
  6 13  1  0  0  0  0
  6  5  2  0  0  0  0
  7  1  1  0  0  0  0
  8  2  1  0  0  0  0
 12 11  3  0  0  0  0
 14 15  1  0  0  0  0
 14 13  1  0  0  0  0
 14 16  1  0  0  0  0
 17 14  1  0  0  0  0
M  RAD  1   3   2
M  END
