Coordinates from ORCA-job 4-MeO-Ph-N2+-B3LYPG-6-31G_dp-MTMO-d009-169-n900
 OpenBabel09051907383D

 17 16  0  0  0  0  0  0  0  0999 V2000
   -0.7462    1.9982   -0.0097 C   0  0  0  0  0  0  0  0  0  0  0  0
   -0.3454    3.3559    0.0151 C   0  0  0  0  0  0  0  0  0  0  0  0
   -1.4272    4.0805    0.3338 C   0  0  0  0  0  0  0  0  0  0  0  0
   -2.5957    3.9852    0.9891 C   0  0  0  0  0  0  0  0  0  0  0  0
   -2.9306    2.6156    0.9511 C   0  0  0  0  0  0  0  0  0  0  0  0
   -2.0221    1.6268    0.4792 C   0  0  0  0  0  0  0  0  0  0  0  0
   -0.0452    1.2763   -0.4127 H   0  0  0  0  0  0  0  0  0  0  0  0
    0.6441    3.7048   -0.2581 H   0  0  0  0  0  0  0  0  0  0  0  0
   -3.2700    4.7664    1.3201 H   0  0  0  0  0  0  0  0  0  0  0  0
   -3.9407    2.3248    1.2274 H   0  0  0  0  0  0  0  0  0  0  0  0
   -2.9195   -6.6515   -0.2090 N   0  0  0  0  0  0  0  0  0  0  0  0
   -3.1650   -7.7270   -0.2751 N   0  0  0  0  0  0  0  0  0  0  0  0
   -2.4788    0.3831    0.5304 O   0  0  0  0  0  0  0  0  0  0  0  0
   -1.6360   -0.7199    0.1363 C   0  0  0  0  0  0  0  0  0  0  0  0
   -2.2477   -1.6095    0.2734 H   0  0  0  0  0  0  0  0  0  0  0  0
   -0.7503   -0.7727    0.7752 H   0  0  0  0  0  0  0  0  0  0  0  0
   -1.3531   -0.6237   -0.9169 H   0  0  0  0  0  0  0  0  0  0  0  0
  1  2  2  0  0  0  0
  1  6  1  0  0  0  0
  2  3  1  0  0  0  0
  3  4  2  0  0  0  0
  4  9  1  0  0  0  0
  5  4  1  0  0  0  0
  5 10  1  0  0  0  0
  6 13  1  0  0  0  0
  6  5  2  0  0  0  0
  7  1  1  0  0  0  0
  8  2  1  0  0  0  0
 12 11  3  0  0  0  0
 14 15  1  0  0  0  0
 14 13  1  0  0  0  0
 14 16  1  0  0  0  0
 17 14  1  0  0  0  0
M  RAD  1   3   2
M  END
