Coordinates from ORCA-job 4-MeO-Ph-N2+-B3LYPG-6-31G_dp-MTMO-d009-169-n900
 OpenBabel09051907383D

 17 16  0  0  0  0  0  0  0  0999 V2000
   -1.6422    0.5639    0.1137 C   0  0  0  0  0  0  0  0  0  0  0  0
   -0.3936    1.1864   -0.1395 C   0  0  0  0  0  0  0  0  0  0  0  0
   -0.5884    2.5034    0.0053 C   0  0  0  0  0  0  0  0  0  0  0  0
   -1.3791    3.3893    0.6327 C   0  0  0  0  0  0  0  0  0  0  0  0
   -2.5886    2.7065    0.8764 C   0  0  0  0  0  0  0  0  0  0  0  0
   -2.7230    1.3102    0.6411 C   0  0  0  0  0  0  0  0  0  0  0  0
   -1.7252   -0.4906   -0.1249 H   0  0  0  0  0  0  0  0  0  0  0  0
    0.4913    0.6519   -0.4697 H   0  0  0  0  0  0  0  0  0  0  0  0
   -1.2386    4.4529    0.7867 H   0  0  0  0  0  0  0  0  0  0  0  0
   -3.4525    3.2831    1.1964 H   0  0  0  0  0  0  0  0  0  0  0  0
    2.0691   -2.0212   -1.2046 N   0  0  0  0  0  0  0  0  0  0  0  0
    2.7185   -2.8700   -1.4854 N   0  0  0  0  0  0  0  0  0  0  0  0
   -3.9135    0.8064    0.9399 O   0  0  0  0  0  0  0  0  0  0  0  0
   -4.1550   -0.6096    0.8141 C   0  0  0  0  0  0  0  0  0  0  0  0
   -5.1895   -0.7515    1.1199 H   0  0  0  0  0  0  0  0  0  0  0  0
   -3.4895   -1.1723    1.4744 H   0  0  0  0  0  0  0  0  0  0  0  0
   -4.0298   -0.9255   -0.2268 H   0  0  0  0  0  0  0  0  0  0  0  0
  1  6  2  0  0  0  0
  2  3  2  0  0  0  0
  2  1  1  0  0  0  0
  3  4  1  0  0  0  0
  4  9  1  0  0  0  0
  4  5  2  0  0  0  0
  5 10  1  0  0  0  0
  6  5  1  0  0  0  0
  6 13  1  0  0  0  0
  7  1  1  0  0  0  0
  8  2  1  0  0  0  0
 12 11  3  0  0  0  0
 14 13  1  0  0  0  0
 14 15  1  0  0  0  0
 14 16  1  0  0  0  0
 17 14  1  0  0  0  0
M  RAD  1   3   2
M  END
