Coordinates from ORCA-job 4-MeO-Ph-N2+-B3LYPG-6-31G_dp-MTMO-d009-169-n900
 OpenBabel09051907383D

 17 16  0  0  0  0  0  0  0  0999 V2000
   -2.2027   -0.1899    0.1380 C   0  0  0  0  0  0  0  0  0  0  0  0
   -0.8525   -0.2396   -0.2910 C   0  0  0  0  0  0  0  0  0  0  0  0
   -0.4160    1.0243   -0.3373 C   0  0  0  0  0  0  0  0  0  0  0  0
   -0.6444    2.2408    0.1807 C   0  0  0  0  0  0  0  0  0  0  0  0
   -1.9888    2.2178    0.6076 C   0  0  0  0  0  0  0  0  0  0  0  0
   -2.7600    1.0232    0.6071 C   0  0  0  0  0  0  0  0  0  0  0  0
   -2.7752   -1.1092    0.0813 H   0  0  0  0  0  0  0  0  0  0  0  0
   -0.3383   -1.1462   -0.5879 H   0  0  0  0  0  0  0  0  0  0  0  0
   -0.0301    3.1328    0.1491 H   0  0  0  0  0  0  0  0  0  0  0  0
   -2.4567    3.1585    0.8850 H   0  0  0  0  0  0  0  0  0  0  0  0
    3.1493    0.7711   -1.0300 N   0  0  0  0  0  0  0  0  0  0  0  0
    4.2242    0.7210   -1.2813 N   0  0  0  0  0  0  0  0  0  0  0  0
   -4.0015    1.1608    1.0559 O   0  0  0  0  0  0  0  0  0  0  0  0
   -4.8636    0.0111    1.1677 C   0  0  0  0  0  0  0  0  0  0  0  0
   -5.8045    0.3954    1.5559 H   0  0  0  0  0  0  0  0  0  0  0  0
   -4.4422   -0.7185    1.8654 H   0  0  0  0  0  0  0  0  0  0  0  0
   -5.0263   -0.4402    0.1836 H   0  0  0  0  0  0  0  0  0  0  0  0
  1  6  2  0  0  0  0
  2  1  1  0  0  0  0
  3  2  2  0  0  0  0
  3  4  1  0  0  0  0
  4  5  2  0  0  0  0
  5 10  1  0  0  0  0
  6  5  1  0  0  0  0
  6 13  1  0  0  0  0
  7  1  1  0  0  0  0
  8  2  1  0  0  0  0
  9  4  1  0  0  0  0
 12 11  3  0  0  0  0
 13 14  1  0  0  0  0
 14 15  1  0  0  0  0
 14 16  1  0  0  0  0
 17 14  1  0  0  0  0
M  RAD  1   3   2
M  END
