Coordinates from ORCA-job 4-MeO-Ph-N2+-B3LYPG-6-31G_dp-MTMO-d009-169-n900
 OpenBabel09051907383D

 17 16  0  0  0  0  0  0  0  0999 V2000
   -0.6988    2.3326    0.0101 C   0  0  0  0  0  0  0  0  0  0  0  0
   -0.3021    3.6918    0.0062 C   0  0  0  0  0  0  0  0  0  0  0  0
   -1.3836    4.4186    0.3207 C   0  0  0  0  0  0  0  0  0  0  0  0
   -2.5466    4.3324    0.9866 C   0  0  0  0  0  0  0  0  0  0  0  0
   -2.8773    2.9612    0.9770 C   0  0  0  0  0  0  0  0  0  0  0  0
   -1.9694    1.9666    0.5163 C   0  0  0  0  0  0  0  0  0  0  0  0
    0.0014    1.6054   -0.3848 H   0  0  0  0  0  0  0  0  0  0  0  0
    0.6840    4.0387   -0.2814 H   0  0  0  0  0  0  0  0  0  0  0  0
   -3.2208    5.1175    1.3083 H   0  0  0  0  0  0  0  0  0  0  0  0
   -3.8842    2.6724    1.2668 H   0  0  0  0  0  0  0  0  0  0  0  0
   -3.2937   -9.1945   -0.4426 N   0  0  0  0  0  0  0  0  0  0  0  0
   -3.5602  -10.2647   -0.5146 N   0  0  0  0  0  0  0  0  0  0  0  0
   -2.4217    0.7226    0.5941 O   0  0  0  0  0  0  0  0  0  0  0  0
   -1.5785   -0.3844    0.2133 C   0  0  0  0  0  0  0  0  0  0  0  0
   -2.1868   -1.2730    0.3702 H   0  0  0  0  0  0  0  0  0  0  0  0
   -0.6881   -0.4239    0.8467 H   0  0  0  0  0  0  0  0  0  0  0  0
   -1.3031   -0.3058   -0.8434 H   0  0  0  0  0  0  0  0  0  0  0  0
  1  6  1  0  0  0  0
  2  1  2  0  0  0  0
  2  3  1  0  0  0  0
  3  4  2  0  0  0  0
  4  9  1  0  0  0  0
  5  4  1  0  0  0  0
  5 10  1  0  0  0  0
  6 13  1  0  0  0  0
  6  5  2  0  0  0  0
  7  1  1  0  0  0  0
  8  2  1  0  0  0  0
 12 11  3  0  0  0  0
 14 15  1  0  0  0  0
 14 13  1  0  0  0  0
 14 16  1  0  0  0  0
 17 14  1  0  0  0  0
M  RAD  1   3   2
M  END
