Coordinates from ORCA-job 4-MeO-Ph-N2+-B3LYPG-6-31G_dp-MTMO-d009-169-n900
 OpenBabel09051907383D

 17 16  0  0  0  0  0  0  0  0999 V2000
   -0.7222    2.1755    0.0006 C   0  0  0  0  0  0  0  0  0  0  0  0
   -0.3182    3.5325    0.0065 C   0  0  0  0  0  0  0  0  0  0  0  0
   -1.3966    4.2632    0.3228 C   0  0  0  0  0  0  0  0  0  0  0  0
   -2.5618    4.1789    0.9853 C   0  0  0  0  0  0  0  0  0  0  0  0
   -2.8999    2.8096    0.9660 C   0  0  0  0  0  0  0  0  0  0  0  0
   -1.9961    1.8131    0.5011 C   0  0  0  0  0  0  0  0  0  0  0  0
   -0.0250    1.4471   -0.3973 H   0  0  0  0  0  0  0  0  0  0  0  0
    0.6705    3.8759   -0.2763 H   0  0  0  0  0  0  0  0  0  0  0  0
   -3.2325    4.9655    1.3104 H   0  0  0  0  0  0  0  0  0  0  0  0
   -3.9090    2.5244    1.2513 H   0  0  0  0  0  0  0  0  0  0  0  0
   -3.1078   -8.0333   -0.3439 N   0  0  0  0  0  0  0  0  0  0  0  0
   -3.3608   -9.1069   -0.4129 N   0  0  0  0  0  0  0  0  0  0  0  0
   -2.4554    0.5711    0.5697 O   0  0  0  0  0  0  0  0  0  0  0  0
   -1.6171   -0.5381    0.1842 C   0  0  0  0  0  0  0  0  0  0  0  0
   -2.2304   -1.4245    0.3342 H   0  0  0  0  0  0  0  0  0  0  0  0
   -0.7285   -0.5861    0.8194 H   0  0  0  0  0  0  0  0  0  0  0  0
   -1.3389   -0.4546   -0.8714 H   0  0  0  0  0  0  0  0  0  0  0  0
  1  2  2  0  0  0  0
  1  6  1  0  0  0  0
  2  3  1  0  0  0  0
  3  4  2  0  0  0  0
  4  9  1  0  0  0  0
  5  4  1  0  0  0  0
  5 10  1  0  0  0  0
  6 13  1  0  0  0  0
  6  5  2  0  0  0  0
  7  1  1  0  0  0  0
  8  2  1  0  0  0  0
 12 11  3  0  0  0  0
 14 15  1  0  0  0  0
 14 13  1  0  0  0  0
 14 16  1  0  0  0  0
 17 14  1  0  0  0  0
M  RAD  1   3   2
M  END
