Coordinates from ORCA-job 4-MeO-Ph-N2+-B3LYPG-6-31G_dp-MTMO-d009-169-n900
 OpenBabel09051907383D

 17 16  0  0  0  0  0  0  0  0999 V2000
   -0.6849    2.4236    0.0159 C   0  0  0  0  0  0  0  0  0  0  0  0
   -0.2933    3.7842    0.0084 C   0  0  0  0  0  0  0  0  0  0  0  0
   -1.3771    4.5078    0.3220 C   0  0  0  0  0  0  0  0  0  0  0  0
   -2.5392    4.4190    0.9892 C   0  0  0  0  0  0  0  0  0  0  0  0
   -2.8649    3.0466    0.9832 C   0  0  0  0  0  0  0  0  0  0  0  0
   -1.9537    2.0542    0.5241 C   0  0  0  0  0  0  0  0  0  0  0  0
    0.0176    1.6980   -0.3778 H   0  0  0  0  0  0  0  0  0  0  0  0
    0.6914    4.1339   -0.2807 H   0  0  0  0  0  0  0  0  0  0  0  0
   -3.2161    5.2024    1.3093 H   0  0  0  0  0  0  0  0  0  0  0  0
   -3.8705    2.7549    1.2745 H   0  0  0  0  0  0  0  0  0  0  0  0
   -3.4002   -9.8604   -0.4945 N   0  0  0  0  0  0  0  0  0  0  0  0
   -3.6795  -10.9271   -0.5699 N   0  0  0  0  0  0  0  0  0  0  0  0
   -2.4015    0.8088    0.6053 O   0  0  0  0  0  0  0  0  0  0  0  0
   -1.5544   -0.2961    0.2264 C   0  0  0  0  0  0  0  0  0  0  0  0
   -2.1594   -1.1866    0.3857 H   0  0  0  0  0  0  0  0  0  0  0  0
   -0.6635   -0.3309    0.8592 H   0  0  0  0  0  0  0  0  0  0  0  0
   -1.2801   -0.2188   -0.8307 H   0  0  0  0  0  0  0  0  0  0  0  0
  1  6  1  0  0  0  0
  2  1  2  0  0  0  0
  2  3  1  0  0  0  0
  3  4  2  0  0  0  0
  4  9  1  0  0  0  0
  5  4  1  0  0  0  0
  5 10  1  0  0  0  0
  6 13  1  0  0  0  0
  6  5  2  0  0  0  0
  7  1  1  0  0  0  0
  8  2  1  0  0  0  0
 12 11  3  0  0  0  0
 14 15  1  0  0  0  0
 14 13  1  0  0  0  0
 14 16  1  0  0  0  0
 17 14  1  0  0  0  0
M  RAD  1   3   2
M  END
