Coordinates from ORCA-job 4-MeO-Ph-N2+-B3LYPG-6-31G_dp-MTMO-d009-169-n900
 OpenBabel09051907383D

 17 16  0  0  0  0  0  0  0  0999 V2000
   -0.9218    1.5305   -0.0152 C   0  0  0  0  0  0  0  0  0  0  0  0
   -0.3117    2.8074   -0.0452 C   0  0  0  0  0  0  0  0  0  0  0  0
   -1.2571    3.7068    0.2651 C   0  0  0  0  0  0  0  0  0  0  0  0
   -2.4080    3.8170    0.9496 C   0  0  0  0  0  0  0  0  0  0  0  0
   -2.9565    2.5179    0.9657 C   0  0  0  0  0  0  0  0  0  0  0  0
   -2.2278    1.3820    0.5116 C   0  0  0  0  0  0  0  0  0  0  0  0
   -0.3553    0.6937   -0.4073 H   0  0  0  0  0  0  0  0  0  0  0  0
    0.7138    2.9859   -0.3488 H   0  0  0  0  0  0  0  0  0  0  0  0
   -2.9420    4.7050    1.2663 H   0  0  0  0  0  0  0  0  0  0  0  0
   -3.9932    2.4000    1.2699 H   0  0  0  0  0  0  0  0  0  0  0  0
   -1.6529   -4.3510   -0.3402 N   0  0  0  0  0  0  0  0  0  0  0  0
   -1.5478   -5.4402   -0.4942 N   0  0  0  0  0  0  0  0  0  0  0  0
   -2.8736    0.2298    0.6167 O   0  0  0  0  0  0  0  0  0  0  0  0
   -2.2265   -1.0091    0.2522 C   0  0  0  0  0  0  0  0  0  0  0  0
   -2.9675   -1.7844    0.4315 H   0  0  0  0  0  0  0  0  0  0  0  0
   -1.3481   -1.1810    0.8796 H   0  0  0  0  0  0  0  0  0  0  0  0
   -1.9535   -0.9970   -0.8076 H   0  0  0  0  0  0  0  0  0  0  0  0
  1  6  1  0  0  0  0
  2  1  2  0  0  0  0
  2  3  1  0  0  0  0
  3  4  2  0  0  0  0
  4  5  1  0  0  0  0
  4  9  1  0  0  0  0
  5 10  1  0  0  0  0
  6 13  1  0  0  0  0
  6  5  2  0  0  0  0
  7  1  1  0  0  0  0
  8  2  1  0  0  0  0
 12 11  3  0  0  0  0
 14 15  1  0  0  0  0
 14 13  1  0  0  0  0
 14 16  1  0  0  0  0
 17 14  1  0  0  0  0
M  RAD  1   3   2
M  END
