Coordinates from ORCA-job 4-MeO-Ph-N2+-B3LYPG-6-31G_dp-MTMO-d009-169-n900
 OpenBabel09051907383D

 17 17  0  0  0  0  0  0  0  0999 V2000
   -1.9945   -0.2120    0.1672 C   0  0  0  0  0  0  0  0  0  0  0  0
   -0.6627   -0.2813   -0.2516 C   0  0  0  0  0  0  0  0  0  0  0  0
   -0.0249    0.9312   -0.2191 C   0  0  0  0  0  0  0  0  0  0  0  0
   -0.4501    2.1884    0.1466 C   0  0  0  0  0  0  0  0  0  0  0  0
   -1.7781    2.2050    0.5548 C   0  0  0  0  0  0  0  0  0  0  0  0
   -2.5572    1.0206    0.5701 C   0  0  0  0  0  0  0  0  0  0  0  0
   -2.5771   -1.1248    0.1723 H   0  0  0  0  0  0  0  0  0  0  0  0
   -0.2017   -1.2086   -0.5665 H   0  0  0  0  0  0  0  0  0  0  0  0
    0.1665    3.0778    0.1253 H   0  0  0  0  0  0  0  0  0  0  0  0
   -2.2376    3.1353    0.8698 H   0  0  0  0  0  0  0  0  0  0  0  0
    1.6826    0.8653   -0.7519 N   0  0  0  0  0  0  0  0  0  0  0  0
    2.7377    0.8289   -1.0808 N   0  0  0  0  0  0  0  0  0  0  0  0
   -3.8127    1.1781    0.9810 O   0  0  0  0  0  0  0  0  0  0  0  0
   -4.7026    0.0495    1.0410 C   0  0  0  0  0  0  0  0  0  0  0  0
   -5.6499    0.4496    1.3970 H   0  0  0  0  0  0  0  0  0  0  0  0
   -4.3300   -0.6999    1.7466 H   0  0  0  0  0  0  0  0  0  0  0  0
   -4.8373   -0.3899    0.0479 H   0  0  0  0  0  0  0  0  0  0  0  0
  1  7  1  0  0  0  0
  1  6  2  0  0  0  0
  2  3  2  0  0  0  0
  2  1  1  0  0  0  0
  3  4  1  0  0  0  0
  4  5  2  0  0  0  0
  5  6  1  0  0  0  0
  5 10  1  0  0  0  0
  6 13  1  0  0  0  0
  8  2  1  0  0  0  0
  9  4  1  0  0  0  0
 11  3  1  0  0  0  0
 12 11  1  0  0  0  0
 13 14  1  0  0  0  0
 14 15  1  0  0  0  0
 14 16  1  0  0  0  0
 17 14  1  0  0  0  0
M  RAD  2  11   2  12   3
M  END
