Coordinates from ORCA-job 4-MeO-Ph-N2+-B3LYPG-6-31G_dp-MTMO-d009-169-n900
 OpenBabel09051907383D

 17 16  0  0  0  0  0  0  0  0999 V2000
   -1.6416    0.6299    0.1131 C   0  0  0  0  0  0  0  0  0  0  0  0
   -0.4125    1.2909   -0.1335 C   0  0  0  0  0  0  0  0  0  0  0  0
   -0.6414    2.6015    0.0235 C   0  0  0  0  0  0  0  0  0  0  0  0
   -1.4535    3.4572    0.6655 C   0  0  0  0  0  0  0  0  0  0  0  0
   -2.6434    2.7384    0.9020 C   0  0  0  0  0  0  0  0  0  0  0  0
   -2.7410    1.3415    0.6508 C   0  0  0  0  0  0  0  0  0  0  0  0
   -1.6963   -0.4241   -0.1352 H   0  0  0  0  0  0  0  0  0  0  0  0
    0.4888    0.7885   -0.4680 H   0  0  0  0  0  0  0  0  0  0  0  0
   -1.3436    4.5227    0.8306 H   0  0  0  0  0  0  0  0  0  0  0  0
   -3.5229    3.2878    1.2272 H   0  0  0  0  0  0  0  0  0  0  0  0
    2.1798   -2.3340   -1.2688 N   0  0  0  0  0  0  0  0  0  0  0  0
    2.8166   -3.1951   -1.5415 N   0  0  0  0  0  0  0  0  0  0  0  0
   -3.9168    0.8033    0.9457 O   0  0  0  0  0  0  0  0  0  0  0  0
   -4.1213   -0.6174    0.8057 C   0  0  0  0  0  0  0  0  0  0  0  0
   -5.1512   -0.7895    1.1113 H   0  0  0  0  0  0  0  0  0  0  0  0
   -3.4402   -1.1690    1.4596 H   0  0  0  0  0  0  0  0  0  0  0  0
   -3.9892   -0.9193   -0.2385 H   0  0  0  0  0  0  0  0  0  0  0  0
  1  6  2  0  0  0  0
  2  3  2  0  0  0  0
  2  1  1  0  0  0  0
  3  4  1  0  0  0  0
  4  9  1  0  0  0  0
  4  5  2  0  0  0  0
  5 10  1  0  0  0  0
  6  5  1  0  0  0  0
  6 13  1  0  0  0  0
  7  1  1  0  0  0  0
  8  2  1  0  0  0  0
 12 11  3  0  0  0  0
 14 13  1  0  0  0  0
 14 15  1  0  0  0  0
 14 16  1  0  0  0  0
 17 14  1  0  0  0  0
M  RAD  1   3   2
M  END
