Coordinates from ORCA-job 4-MeO-Ph-N2+-B3LYPG-6-31G_dp-MTMO-d009-169-n900
 OpenBabel09051907383D

 17 16  0  0  0  0  0  0  0  0999 V2000
   -0.7529    1.9333   -0.0138 C   0  0  0  0  0  0  0  0  0  0  0  0
   -0.3633    3.2939    0.0220 C   0  0  0  0  0  0  0  0  0  0  0  0
   -1.4519    4.0081    0.3416 C   0  0  0  0  0  0  0  0  0  0  0  0
   -2.6215    3.8984    0.9928 C   0  0  0  0  0  0  0  0  0  0  0  0
   -2.9453    2.5265    0.9442 C   0  0  0  0  0  0  0  0  0  0  0  0
   -2.0273    1.5482    0.4684 C   0  0  0  0  0  0  0  0  0  0  0  0
   -0.0447    1.2199   -0.4194 H   0  0  0  0  0  0  0  0  0  0  0  0
    0.6244    3.6526   -0.2452 H   0  0  0  0  0  0  0  0  0  0  0  0
   -3.3033    4.6717    1.3269 H   0  0  0  0  0  0  0  0  0  0  0  0
   -3.9539    2.2257    1.2149 H   0  0  0  0  0  0  0  0  0  0  0  0
   -2.8715   -6.0890   -0.1469 N   0  0  0  0  0  0  0  0  0  0  0  0
   -3.1222   -7.1638   -0.2058 N   0  0  0  0  0  0  0  0  0  0  0  0
   -2.4743    0.3007    0.5095 O   0  0  0  0  0  0  0  0  0  0  0  0
   -1.6216   -0.7932    0.1105 C   0  0  0  0  0  0  0  0  0  0  0  0
   -2.2264   -1.6887    0.2400 H   0  0  0  0  0  0  0  0  0  0  0  0
   -0.7373   -0.8431    0.7514 H   0  0  0  0  0  0  0  0  0  0  0  0
   -1.3367   -0.6876   -0.9413 H   0  0  0  0  0  0  0  0  0  0  0  0
  1  2  2  0  0  0  0
  1  6  1  0  0  0  0
  2  3  1  0  0  0  0
  3  4  2  0  0  0  0
  4  9  1  0  0  0  0
  5  4  1  0  0  0  0
  5 10  1  0  0  0  0
  6 13  1  0  0  0  0
  6  5  2  0  0  0  0
  7  1  1  0  0  0  0
  8  2  1  0  0  0  0
 12 11  3  0  0  0  0
 14 15  1  0  0  0  0
 14 13  1  0  0  0  0
 14 16  1  0  0  0  0
 17 14  1  0  0  0  0
M  RAD  1   3   2
M  END
