Coordinates from ORCA-job 4-MeO-Ph-N2+-B3LYPG-6-31G_dp-MTMO-d009-169-n900
 OpenBabel09051907383D

 17 16  0  0  0  0  0  0  0  0999 V2000
   -0.7513    1.9507   -0.0126 C   0  0  0  0  0  0  0  0  0  0  0  0
   -0.3578    3.3104    0.0198 C   0  0  0  0  0  0  0  0  0  0  0  0
   -1.4441    4.0281    0.3391 C   0  0  0  0  0  0  0  0  0  0  0  0
   -2.6133    3.9233    0.9916 C   0  0  0  0  0  0  0  0  0  0  0  0
   -2.9410    2.5522    0.9462 C   0  0  0  0  0  0  0  0  0  0  0  0
   -2.0263    1.5703    0.4716 C   0  0  0  0  0  0  0  0  0  0  0  0
   -0.0455    1.2345   -0.4174 H   0  0  0  0  0  0  0  0  0  0  0  0
    0.6306    3.6657   -0.2492 H   0  0  0  0  0  0  0  0  0  0  0  0
   -3.2926    4.6992    1.3247 H   0  0  0  0  0  0  0  0  0  0  0  0
   -3.9502    2.2547    1.2186 H   0  0  0  0  0  0  0  0  0  0  0  0
   -2.8829   -6.2455   -0.1641 N   0  0  0  0  0  0  0  0  0  0  0  0
   -3.1304   -7.3208   -0.2268 N   0  0  0  0  0  0  0  0  0  0  0  0
   -2.4767    0.3241    0.5157 O   0  0  0  0  0  0  0  0  0  0  0  0
   -1.6275   -0.7729    0.1182 C   0  0  0  0  0  0  0  0  0  0  0  0
   -2.2347   -1.6663    0.2498 H   0  0  0  0  0  0  0  0  0  0  0  0
   -0.7427   -0.8241    0.7585 H   0  0  0  0  0  0  0  0  0  0  0  0
   -1.3431   -0.6702   -0.9341 H   0  0  0  0  0  0  0  0  0  0  0  0
  1  2  2  0  0  0  0
  1  6  1  0  0  0  0
  2  3  1  0  0  0  0
  3  4  2  0  0  0  0
  4  9  1  0  0  0  0
  5  4  1  0  0  0  0
  5 10  1  0  0  0  0
  6 13  1  0  0  0  0
  6  5  2  0  0  0  0
  7  1  1  0  0  0  0
  8  2  1  0  0  0  0
 12 11  3  0  0  0  0
 14 15  1  0  0  0  0
 14 13  1  0  0  0  0
 14 16  1  0  0  0  0
 17 14  1  0  0  0  0
M  RAD  1   3   2
M  END
