Coordinates from ORCA-job 4-MeO-Ph-N2+-B3LYPG-6-31G_dp-MTMO-d009-169-n900
 OpenBabel09051907383D

 17 16  0  0  0  0  0  0  0  0999 V2000
   -2.0316   -0.2074    0.1789 C   0  0  0  0  0  0  0  0  0  0  0  0
   -0.6852   -0.2891   -0.2463 C   0  0  0  0  0  0  0  0  0  0  0  0
   -0.1368    0.9370   -0.1847 C   0  0  0  0  0  0  0  0  0  0  0  0
   -0.4734    2.2005    0.1562 C   0  0  0  0  0  0  0  0  0  0  0  0
   -1.8164    2.2045    0.5663 C   0  0  0  0  0  0  0  0  0  0  0  0
   -2.5955    1.0221    0.5817 C   0  0  0  0  0  0  0  0  0  0  0  0
   -2.6028   -1.1284    0.1783 H   0  0  0  0  0  0  0  0  0  0  0  0
   -0.2146   -1.2102   -0.5626 H   0  0  0  0  0  0  0  0  0  0  0  0
    0.1499    3.0842    0.1316 H   0  0  0  0  0  0  0  0  0  0  0  0
   -2.2638    3.1428    0.8787 H   0  0  0  0  0  0  0  0  0  0  0  0
    1.9450    0.8614   -0.8320 N   0  0  0  0  0  0  0  0  0  0  0  0
    2.9984    0.8255   -1.1602 N   0  0  0  0  0  0  0  0  0  0  0  0
   -3.8536    1.1800    0.9934 O   0  0  0  0  0  0  0  0  0  0  0  0
   -4.7358    0.0464    1.0509 C   0  0  0  0  0  0  0  0  0  0  0  0
   -5.6863    0.4387    1.4071 H   0  0  0  0  0  0  0  0  0  0  0  0
   -4.3593   -0.7023    1.7556 H   0  0  0  0  0  0  0  0  0  0  0  0
   -4.8679   -0.3922    0.0567 H   0  0  0  0  0  0  0  0  0  0  0  0
  1  6  2  0  0  0  0
  2  3  2  0  0  0  0
  2  1  1  0  0  0  0
  3  4  1  0  0  0  0
  4  5  2  0  0  0  0
  5  6  1  0  0  0  0
  5 10  1  0  0  0  0
  6 13  1  0  0  0  0
  7  1  1  0  0  0  0
  8  2  1  0  0  0  0
  9  4  1  0  0  0  0
 12 11  3  0  0  0  0
 13 14  1  0  0  0  0
 14 15  1  0  0  0  0
 14 16  1  0  0  0  0
 17 14  1  0  0  0  0
M  RAD  1   3   2
M  END
