Coordinates from ORCA-job 4-MeO-Ph-N2+-B3LYPG-6-31G_dp-MTMO-d009-169-n900
 OpenBabel09051907383D

 17 16  0  0  0  0  0  0  0  0999 V2000
   -0.6587    2.5947    0.0275 C   0  0  0  0  0  0  0  0  0  0  0  0
   -0.2751    3.9576    0.0155 C   0  0  0  0  0  0  0  0  0  0  0  0
   -1.3630    4.6757    0.3279 C   0  0  0  0  0  0  0  0  0  0  0  0
   -2.5241    4.5819    0.9962 C   0  0  0  0  0  0  0  0  0  0  0  0
   -2.8416    3.2076    0.9946 C   0  0  0  0  0  0  0  0  0  0  0  0
   -1.9248    2.2193    0.5378 C   0  0  0  0  0  0  0  0  0  0  0  0
    0.0478    1.8721   -0.3646 H   0  0  0  0  0  0  0  0  0  0  0  0
    0.7072    4.3123   -0.2754 H   0  0  0  0  0  0  0  0  0  0  0  0
   -3.2054    5.3623    1.3144 H   0  0  0  0  0  0  0  0  0  0  0  0
   -3.8452    2.9108    1.2875 H   0  0  0  0  0  0  0  0  0  0  0  0
   -3.5955  -11.1155   -0.5889 N   0  0  0  0  0  0  0  0  0  0  0  0
   -3.9043  -12.1736   -0.6707 N   0  0  0  0  0  0  0  0  0  0  0  0
   -2.3651    0.9714    0.6231 O   0  0  0  0  0  0  0  0  0  0  0  0
   -1.5117   -0.1294    0.2469 C   0  0  0  0  0  0  0  0  0  0  0  0
   -2.1112   -1.0230    0.4094 H   0  0  0  0  0  0  0  0  0  0  0  0
   -0.6201   -0.1570    0.8791 H   0  0  0  0  0  0  0  0  0  0  0  0
   -1.2387   -0.0537   -0.8107 H   0  0  0  0  0  0  0  0  0  0  0  0
  1  6  1  0  0  0  0
  2  1  2  0  0  0  0
  2  3  1  0  0  0  0
  3  4  2  0  0  0  0
  4  9  1  0  0  0  0
  5  4  1  0  0  0  0
  5 10  1  0  0  0  0
  6 13  1  0  0  0  0
  6  5  2  0  0  0  0
  7  1  1  0  0  0  0
  8  2  1  0  0  0  0
 12 11  3  0  0  0  0
 14 15  1  0  0  0  0
 14 13  1  0  0  0  0
 14 16  1  0  0  0  0
 17 14  1  0  0  0  0
M  RAD  1   3   2
M  END
