Coordinates from ORCA-job 4-MeO-Ph-N2+-B3LYPG-6-31G_dp-MTMO-d009-169-n900
 OpenBabel09051907383D

 17 16  0  0  0  0  0  0  0  0999 V2000
   -1.6430    0.6000    0.1135 C   0  0  0  0  0  0  0  0  0  0  0  0
   -0.4047    1.2432   -0.1362 C   0  0  0  0  0  0  0  0  0  0  0  0
   -0.6177    2.5569    0.0149 C   0  0  0  0  0  0  0  0  0  0  0  0
   -1.4198    3.4266    0.6508 C   0  0  0  0  0  0  0  0  0  0  0  0
   -2.6190    2.7245    0.8907 C   0  0  0  0  0  0  0  0  0  0  0  0
   -2.7338    1.3278    0.6467 C   0  0  0  0  0  0  0  0  0  0  0  0
   -1.7110   -0.4543   -0.1304 H   0  0  0  0  0  0  0  0  0  0  0  0
    0.4890    0.7258   -0.4689 H   0  0  0  0  0  0  0  0  0  0  0  0
   -1.2956    4.4912    0.8111 H   0  0  0  0  0  0  0  0  0  0  0  0
   -3.4912    3.2867    1.2138 H   0  0  0  0  0  0  0  0  0  0  0  0
    2.1369   -2.1945   -1.2419 N   0  0  0  0  0  0  0  0  0  0  0  0
    2.7792   -3.0503   -1.5181 N   0  0  0  0  0  0  0  0  0  0  0  0
   -3.9164    0.8055    0.9434 O   0  0  0  0  0  0  0  0  0  0  0  0
   -4.1383   -0.6132    0.8101 C   0  0  0  0  0  0  0  0  0  0  0  0
   -5.1704   -0.7711    1.1159 H   0  0  0  0  0  0  0  0  0  0  0  0
   -3.4644   -1.1699    1.4670 H   0  0  0  0  0  0  0  0  0  0  0  0
   -4.0093   -0.9216   -0.2326 H   0  0  0  0  0  0  0  0  0  0  0  0
  1  6  2  0  0  0  0
  2  3  2  0  0  0  0
  2  1  1  0  0  0  0
  3  4  1  0  0  0  0
  4  9  1  0  0  0  0
  4  5  2  0  0  0  0
  5 10  1  0  0  0  0
  6  5  1  0  0  0  0
  6 13  1  0  0  0  0
  7  1  1  0  0  0  0
  8  2  1  0  0  0  0
 12 11  3  0  0  0  0
 14 13  1  0  0  0  0
 14 15  1  0  0  0  0
 14 16  1  0  0  0  0
 17 14  1  0  0  0  0
M  RAD  1   3   2
M  END
