Coordinates from ORCA-job 4-MeO-Ph-N2+-B3LYPG-6-31G_dp-MTMO-d009-169-n900
 OpenBabel09051907383D

 17 16  0  0  0  0  0  0  0  0999 V2000
   -1.1501    1.0769    0.0339 C   0  0  0  0  0  0  0  0  0  0  0  0
   -0.2411    2.1547   -0.0896 C   0  0  0  0  0  0  0  0  0  0  0  0
   -0.9242    3.2847    0.1488 C   0  0  0  0  0  0  0  0  0  0  0  0
   -1.9986    3.7323    0.8197 C   0  0  0  0  0  0  0  0  0  0  0  0
   -2.8547    2.6170    0.9304 C   0  0  0  0  0  0  0  0  0  0  0  0
   -2.4428    1.3040    0.5653 C   0  0  0  0  0  0  0  0  0  0  0  0
   -0.8160    0.0957   -0.2863 H   0  0  0  0  0  0  0  0  0  0  0  0
    0.7925    2.0472   -0.3989 H   0  0  0  0  0  0  0  0  0  0  0  0
   -2.2895    4.7469    1.0647 H   0  0  0  0  0  0  0  0  0  0  0  0
   -3.8839    2.7871    1.2354 H   0  0  0  0  0  0  0  0  0  0  0  0
   -0.2578   -3.0638   -0.6648 N   0  0  0  0  0  0  0  0  0  0  0  0
    0.2136   -4.0376   -0.8898 N   0  0  0  0  0  0  0  0  0  0  0  0
   -3.3575    0.3635    0.7536 O   0  0  0  0  0  0  0  0  0  0  0  0
   -3.0457   -1.0185    0.4784 C   0  0  0  0  0  0  0  0  0  0  0  0
   -3.9561   -1.5674    0.7107 H   0  0  0  0  0  0  0  0  0  0  0  0
   -2.2267   -1.3614    1.1159 H   0  0  0  0  0  0  0  0  0  0  0  0
   -2.7909   -1.1480   -0.5779 H   0  0  0  0  0  0  0  0  0  0  0  0
  1  6  1  0  0  0  0
  2  1  2  0  0  0  0
  2  3  1  0  0  0  0
  3  4  2  0  0  0  0
  4  5  1  0  0  0  0
  4  9  1  0  0  0  0
  5 10  1  0  0  0  0
  6 13  1  0  0  0  0
  6  5  2  0  0  0  0
  7  1  1  0  0  0  0
  8  2  1  0  0  0  0
 12 11  3  0  0  0  0
 14 15  1  0  0  0  0
 14 13  1  0  0  0  0
 14 16  1  0  0  0  0
 17 14  1  0  0  0  0
M  RAD  1   3   2
M  END
