Coordinates from ORCA-job 4-MeO-Ph-N2+-B3LYPG-6-31G_dp-MTMO-d009-169-n900
 OpenBabel09051907383D

 17 16  0  0  0  0  0  0  0  0999 V2000
   -0.7545    1.9146   -0.0151 C   0  0  0  0  0  0  0  0  0  0  0  0
   -0.3697    3.2765    0.0249 C   0  0  0  0  0  0  0  0  0  0  0  0
   -1.4613    3.9861    0.3449 C   0  0  0  0  0  0  0  0  0  0  0  0
   -2.6312    3.8704    0.9945 C   0  0  0  0  0  0  0  0  0  0  0  0
   -2.9501    2.4975    0.9418 C   0  0  0  0  0  0  0  0  0  0  0  0
   -2.0281    1.5236    0.4645 C   0  0  0  0  0  0  0  0  0  0  0  0
   -0.0433    1.2048   -0.4218 H   0  0  0  0  0  0  0  0  0  0  0  0
    0.6171    3.6392   -0.2401 H   0  0  0  0  0  0  0  0  0  0  0  0
   -3.3161    4.6403    1.3298 H   0  0  0  0  0  0  0  0  0  0  0  0
   -3.9580    2.1924    1.2104 H   0  0  0  0  0  0  0  0  0  0  0  0
   -2.8599   -5.9167   -0.1284 N   0  0  0  0  0  0  0  0  0  0  0  0
   -3.1168   -6.9904   -0.1800 N   0  0  0  0  0  0  0  0  0  0  0  0
   -2.4707    0.2744    0.5019 O   0  0  0  0  0  0  0  0  0  0  0  0
   -1.6138   -0.8156    0.1013 C   0  0  0  0  0  0  0  0  0  0  0  0
   -2.2152   -1.7137    0.2283 H   0  0  0  0  0  0  0  0  0  0  0  0
   -0.7298   -0.8635    0.7429 H   0  0  0  0  0  0  0  0  0  0  0  0
   -1.3283   -0.7066   -0.9500 H   0  0  0  0  0  0  0  0  0  0  0  0
  1  2  2  0  0  0  0
  1  6  1  0  0  0  0
  2  3  1  0  0  0  0
  3  4  2  0  0  0  0
  4  9  1  0  0  0  0
  5  4  1  0  0  0  0
  5 10  1  0  0  0  0
  6 13  1  0  0  0  0
  6  5  2  0  0  0  0
  7  1  1  0  0  0  0
  8  2  1  0  0  0  0
 12 11  3  0  0  0  0
 14 15  1  0  0  0  0
 14 13  1  0  0  0  0
 14 16  1  0  0  0  0
 17 14  1  0  0  0  0
M  RAD  1   3   2
M  END
