Coordinates from ORCA-job 4-MeO-Ph-N2+-B3LYPG-6-31G_dp-MTMO-d009-169-n900
 OpenBabel09051907383D

 17 16  0  0  0  0  0  0  0  0999 V2000
   -2.0622   -0.2054    0.1869 C   0  0  0  0  0  0  0  0  0  0  0  0
   -0.7091   -0.2911   -0.2397 C   0  0  0  0  0  0  0  0  0  0  0  0
   -0.2023    0.9418   -0.1690 C   0  0  0  0  0  0  0  0  0  0  0  0
   -0.4991    2.2066    0.1663 C   0  0  0  0  0  0  0  0  0  0  0  0
   -1.8487    2.2052    0.5766 C   0  0  0  0  0  0  0  0  0  0  0  0
   -2.6277    1.0227    0.5912 C   0  0  0  0  0  0  0  0  0  0  0  0
   -2.6280   -1.1303    0.1808 H   0  0  0  0  0  0  0  0  0  0  0  0
   -0.2323   -1.2092   -0.5560 H   0  0  0  0  0  0  0  0  0  0  0  0
    0.1279    3.0879    0.1403 H   0  0  0  0  0  0  0  0  0  0  0  0
   -2.2915    3.1473    0.8860 H   0  0  0  0  0  0  0  0  0  0  0  0
    2.1708    0.8583   -0.8980 N   0  0  0  0  0  0  0  0  0  0  0  0
    3.2240    0.8231   -1.2282 N   0  0  0  0  0  0  0  0  0  0  0  0
   -3.8860    1.1795    1.0025 O   0  0  0  0  0  0  0  0  0  0  0  0
   -4.7654    0.0433    1.0607 C   0  0  0  0  0  0  0  0  0  0  0  0
   -5.7170    0.4332    1.4169 H   0  0  0  0  0  0  0  0  0  0  0  0
   -4.3865   -0.7038    1.7660 H   0  0  0  0  0  0  0  0  0  0  0  0
   -4.8964   -0.3956    0.0664 H   0  0  0  0  0  0  0  0  0  0  0  0
  1  6  2  0  0  0  0
  2  3  2  0  0  0  0
  2  1  1  0  0  0  0
  3  4  1  0  0  0  0
  4  5  2  0  0  0  0
  5  6  1  0  0  0  0
  5 10  1  0  0  0  0
  6 13  1  0  0  0  0
  7  1  1  0  0  0  0
  8  2  1  0  0  0  0
  9  4  1  0  0  0  0
 12 11  3  0  0  0  0
 13 14  1  0  0  0  0
 14 15  1  0  0  0  0
 14 16  1  0  0  0  0
 17 14  1  0  0  0  0
M  RAD  1   3   2
M  END
