Coordinates from ORCA-job 4-MeO-Ph-N2+-B3LYPG-6-31G_dp-MTMO-d009-169-n900
 OpenBabel09051907383D

 17 16  0  0  0  0  0  0  0  0999 V2000
   -0.6547    2.6204    0.0293 C   0  0  0  0  0  0  0  0  0  0  0  0
   -0.2726    3.9837    0.0171 C   0  0  0  0  0  0  0  0  0  0  0  0
   -1.3613    4.7006    0.3294 C   0  0  0  0  0  0  0  0  0  0  0  0
   -2.5224    4.6057    0.9975 C   0  0  0  0  0  0  0  0  0  0  0  0
   -2.8383    3.2310    0.9962 C   0  0  0  0  0  0  0  0  0  0  0  0
   -1.9204    2.2437    0.5396 C   0  0  0  0  0  0  0  0  0  0  0  0
    0.0527    1.8985   -0.3627 H   0  0  0  0  0  0  0  0  0  0  0  0
    0.7093    4.3395   -0.2739 H   0  0  0  0  0  0  0  0  0  0  0  0
   -3.2045    5.3854    1.3157 H   0  0  0  0  0  0  0  0  0  0  0  0
   -3.8416    2.9331    1.2892 H   0  0  0  0  0  0  0  0  0  0  0  0
   -3.6254  -11.3013   -0.6026 N   0  0  0  0  0  0  0  0  0  0  0  0
   -3.9381  -12.3583   -0.6847 N   0  0  0  0  0  0  0  0  0  0  0  0
   -2.3593    0.9953    0.6252 O   0  0  0  0  0  0  0  0  0  0  0  0
   -1.5047   -0.1047    0.2493 C   0  0  0  0  0  0  0  0  0  0  0  0
   -2.1033   -0.9989    0.4120 H   0  0  0  0  0  0  0  0  0  0  0  0
   -0.6131   -0.1312    0.8814 H   0  0  0  0  0  0  0  0  0  0  0  0
   -1.2318   -0.0290   -0.8084 H   0  0  0  0  0  0  0  0  0  0  0  0
  1  6  1  0  0  0  0
  2  1  2  0  0  0  0
  2  3  1  0  0  0  0
  3  4  2  0  0  0  0
  4  9  1  0  0  0  0
  5  4  1  0  0  0  0
  5 10  1  0  0  0  0
  6 13  1  0  0  0  0
  6  5  2  0  0  0  0
  7  1  1  0  0  0  0
  8  2  1  0  0  0  0
 12 11  3  0  0  0  0
 14 15  1  0  0  0  0
 14 13  1  0  0  0  0
 14 16  1  0  0  0  0
 17 14  1  0  0  0  0
M  RAD  1   3   2
M  END
