Coordinates from ORCA-job 4-MeO-Ph-N2+-B3LYPG-6-31G_dp-MTMO-d009-169-n900
 OpenBabel09051907383D

 17 16  0  0  0  0  0  0  0  0999 V2000
   -1.6397    0.5449    0.1138 C   0  0  0  0  0  0  0  0  0  0  0  0
   -0.3858    1.1571   -0.1406 C   0  0  0  0  0  0  0  0  0  0  0  0
   -0.5722    2.4754    0.0004 C   0  0  0  0  0  0  0  0  0  0  0  0
   -1.3577    3.3695    0.6227 C   0  0  0  0  0  0  0  0  0  0  0  0
   -2.5722    2.6964    0.8680 C   0  0  0  0  0  0  0  0  0  0  0  0
   -2.7160    1.3003    0.6375 C   0  0  0  0  0  0  0  0  0  0  0  0
   -1.7298   -0.5097   -0.1216 H   0  0  0  0  0  0  0  0  0  0  0  0
    0.4944    0.6133   -0.4688 H   0  0  0  0  0  0  0  0  0  0  0  0
   -1.2092    4.4324    0.7736 H   0  0  0  0  0  0  0  0  0  0  0  0
   -3.4320    3.2801    1.1863 H   0  0  0  0  0  0  0  0  0  0  0  0
    2.0233   -1.9236   -1.1817 N   0  0  0  0  0  0  0  0  0  0  0  0
    2.6718   -2.7720   -1.4655 N   0  0  0  0  0  0  0  0  0  0  0  0
   -3.9102    0.8055    0.9366 O   0  0  0  0  0  0  0  0  0  0  0  0
   -4.1610   -0.6092    0.8152 C   0  0  0  0  0  0  0  0  0  0  0  0
   -5.1966   -0.7434    1.1205 H   0  0  0  0  0  0  0  0  0  0  0  0
   -3.4998   -1.1743    1.4780 H   0  0  0  0  0  0  0  0  0  0  0  0
   -4.0368   -0.9293   -0.2246 H   0  0  0  0  0  0  0  0  0  0  0  0
  1  6  2  0  0  0  0
  2  3  2  0  0  0  0
  2  1  1  0  0  0  0
  3  4  1  0  0  0  0
  4  9  1  0  0  0  0
  4  5  2  0  0  0  0
  5 10  1  0  0  0  0
  6  5  1  0  0  0  0
  6 13  1  0  0  0  0
  7  1  1  0  0  0  0
  8  2  1  0  0  0  0
 12 11  3  0  0  0  0
 14 13  1  0  0  0  0
 14 15  1  0  0  0  0
 14 16  1  0  0  0  0
 17 14  1  0  0  0  0
M  RAD  1   3   2
M  END
