Coordinates from ORCA-job 4-MeO-Ph-N2+-B3LYPG-6-31G_dp-MTMO-d009-169-n900
 OpenBabel09051907383D

 17 16  0  0  0  0  0  0  0  0999 V2000
   -1.6404    0.5497    0.1138 C   0  0  0  0  0  0  0  0  0  0  0  0
   -0.3877    1.1645   -0.1403 C   0  0  0  0  0  0  0  0  0  0  0  0
   -0.5762    2.4824    0.0016 C   0  0  0  0  0  0  0  0  0  0  0  0
   -1.3630    3.3744    0.6252 C   0  0  0  0  0  0  0  0  0  0  0  0
   -2.5764    2.6989    0.8701 C   0  0  0  0  0  0  0  0  0  0  0  0
   -2.7178    1.3028    0.6384 C   0  0  0  0  0  0  0  0  0  0  0  0
   -1.7286   -0.5049   -0.1224 H   0  0  0  0  0  0  0  0  0  0  0  0
    0.4936    0.6229   -0.4691 H   0  0  0  0  0  0  0  0  0  0  0  0
   -1.2165    4.4375    0.7769 H   0  0  0  0  0  0  0  0  0  0  0  0
   -3.4371    3.2809    1.1888 H   0  0  0  0  0  0  0  0  0  0  0  0
    2.0348   -1.9480   -1.1875 N   0  0  0  0  0  0  0  0  0  0  0  0
    2.6835   -2.7966   -1.4704 N   0  0  0  0  0  0  0  0  0  0  0  0
   -3.9110    0.8057    0.9374 O   0  0  0  0  0  0  0  0  0  0  0  0
   -4.1595   -0.6093    0.8149 C   0  0  0  0  0  0  0  0  0  0  0  0
   -5.1948   -0.7455    1.1204 H   0  0  0  0  0  0  0  0  0  0  0  0
   -3.4973   -1.1738    1.4771 H   0  0  0  0  0  0  0  0  0  0  0  0
   -4.0350   -0.9284   -0.2251 H   0  0  0  0  0  0  0  0  0  0  0  0
  1  6  2  0  0  0  0
  2  3  2  0  0  0  0
  2  1  1  0  0  0  0
  3  4  1  0  0  0  0
  4  9  1  0  0  0  0
  4  5  2  0  0  0  0
  5 10  1  0  0  0  0
  6  5  1  0  0  0  0
  6 13  1  0  0  0  0
  7  1  1  0  0  0  0
  8  2  1  0  0  0  0
 12 11  3  0  0  0  0
 14 13  1  0  0  0  0
 14 15  1  0  0  0  0
 14 16  1  0  0  0  0
 17 14  1  0  0  0  0
M  RAD  1   3   2
M  END
