Coordinates from ORCA-job 4-MeO-Ph-N2+-B3LYPG-6-31G_dp-MTMO-d009-169-n900
 OpenBabel09051907383D

 17 16  0  0  0  0  0  0  0  0999 V2000
   -0.6749    2.4891    0.0204 C   0  0  0  0  0  0  0  0  0  0  0  0
   -0.2864    3.8507    0.0110 C   0  0  0  0  0  0  0  0  0  0  0  0
   -1.3719    4.5721    0.3242 C   0  0  0  0  0  0  0  0  0  0  0  0
   -2.5336    4.4813    0.9917 C   0  0  0  0  0  0  0  0  0  0  0  0
   -2.8560    3.1081    0.9875 C   0  0  0  0  0  0  0  0  0  0  0  0
   -1.9426    2.1174    0.5294 C   0  0  0  0  0  0  0  0  0  0  0  0
    0.0292    1.7648   -0.3727 H   0  0  0  0  0  0  0  0  0  0  0  0
    0.6973    4.2024   -0.2789 H   0  0  0  0  0  0  0  0  0  0  0  0
   -3.2122    5.2636    1.3112 H   0  0  0  0  0  0  0  0  0  0  0  0
   -3.8608    2.8144    1.2795 H   0  0  0  0  0  0  0  0  0  0  0  0
   -3.4751  -10.3408   -0.5305 N   0  0  0  0  0  0  0  0  0  0  0  0
   -3.7657  -11.4043   -0.6089 N   0  0  0  0  0  0  0  0  0  0  0  0
   -2.3874    0.8710    0.6123 O   0  0  0  0  0  0  0  0  0  0  0  0
   -1.5379   -0.2323    0.2345 C   0  0  0  0  0  0  0  0  0  0  0  0
   -2.1407   -1.1240    0.3952 H   0  0  0  0  0  0  0  0  0  0  0  0
   -0.6467   -0.2643    0.8670 H   0  0  0  0  0  0  0  0  0  0  0  0
   -1.2642   -0.1558   -0.8228 H   0  0  0  0  0  0  0  0  0  0  0  0
  1  6  1  0  0  0  0
  2  1  2  0  0  0  0
  2  3  1  0  0  0  0
  3  4  2  0  0  0  0
  4  9  1  0  0  0  0
  5  4  1  0  0  0  0
  5 10  1  0  0  0  0
  6 13  1  0  0  0  0
  6  5  2  0  0  0  0
  7  1  1  0  0  0  0
  8  2  1  0  0  0  0
 12 11  3  0  0  0  0
 14 15  1  0  0  0  0
 14 13  1  0  0  0  0
 14 16  1  0  0  0  0
 17 14  1  0  0  0  0
M  RAD  1   3   2
M  END
