Coordinates from ORCA-job 4-MeO-Ph-N2+-B3LYPG-6-31G_dp-MTMO-d009-169-n900
 OpenBabel09051907383D

 17 16  0  0  0  0  0  0  0  0999 V2000
   -1.6293    0.7062    0.1105 C   0  0  0  0  0  0  0  0  0  0  0  0
   -0.4254    1.4144   -0.1269 C   0  0  0  0  0  0  0  0  0  0  0  0
   -0.6988    2.7147    0.0461 C   0  0  0  0  0  0  0  0  0  0  0  0
   -1.5389    3.5324    0.7016 C   0  0  0  0  0  0  0  0  0  0  0  0
   -2.7024    2.7685    0.9282 C   0  0  0  0  0  0  0  0  0  0  0  0
   -2.7519    1.3724    0.6584 C   0  0  0  0  0  0  0  0  0  0  0  0
   -1.6469   -0.3462   -0.1497 H   0  0  0  0  0  0  0  0  0  0  0  0
    0.4949    0.9516   -0.4659 H   0  0  0  0  0  0  0  0  0  0  0  0
   -1.4681    4.5992    0.8795 H   0  0  0  0  0  0  0  0  0  0  0  0
   -3.6012    3.2826    1.2588 H   0  0  0  0  0  0  0  0  0  0  0  0
    2.2281   -2.6656   -1.3176 N   0  0  0  0  0  0  0  0  0  0  0  0
    2.8545   -3.5368   -1.5823 N   0  0  0  0  0  0  0  0  0  0  0  0
   -3.9079    0.7903    0.9472 O   0  0  0  0  0  0  0  0  0  0  0  0
   -4.0637   -0.6348    0.7898 C   0  0  0  0  0  0  0  0  0  0  0  0
   -5.0866   -0.8459    1.0944 H   0  0  0  0  0  0  0  0  0  0  0  0
   -3.3630   -1.1705    1.4359 H   0  0  0  0  0  0  0  0  0  0  0  0
   -3.9229   -0.9191   -0.2582 H   0  0  0  0  0  0  0  0  0  0  0  0
  1  6  2  0  0  0  0
  2  3  2  0  0  0  0
  2  1  1  0  0  0  0
  3  4  1  0  0  0  0
  4  9  1  0  0  0  0
  4  5  2  0  0  0  0
  5 10  1  0  0  0  0
  6  5  1  0  0  0  0
  6 13  1  0  0  0  0
  7  1  1  0  0  0  0
  8  2  1  0  0  0  0
 12 11  3  0  0  0  0
 14 13  1  0  0  0  0
 14 15  1  0  0  0  0
 14 16  1  0  0  0  0
 17 14  1  0  0  0  0
M  RAD  1   3   2
M  END
