Coordinates from ORCA-job 4-MeO-Ph-N2+-B3LYPG-6-31G_dp-MTMO-d009-169-n900
 OpenBabel09051907383D

 17 16  0  0  0  0  0  0  0  0999 V2000
   -0.6725    2.5041    0.0214 C   0  0  0  0  0  0  0  0  0  0  0  0
   -0.2851    3.8660    0.0118 C   0  0  0  0  0  0  0  0  0  0  0  0
   -1.3710    4.5866    0.3249 C   0  0  0  0  0  0  0  0  0  0  0  0
   -2.5327    4.4952    0.9924 C   0  0  0  0  0  0  0  0  0  0  0  0
   -2.8541    3.1217    0.9885 C   0  0  0  0  0  0  0  0  0  0  0  0
   -1.9400    2.1316    0.5305 C   0  0  0  0  0  0  0  0  0  0  0  0
    0.0321    1.7802   -0.3716 H   0  0  0  0  0  0  0  0  0  0  0  0
    0.6984    4.2183   -0.2782 H   0  0  0  0  0  0  0  0  0  0  0  0
   -3.2118    5.2770    1.3117 H   0  0  0  0  0  0  0  0  0  0  0  0
   -3.8587    2.8273    1.2805 H   0  0  0  0  0  0  0  0  0  0  0  0
   -3.4920  -10.4493   -0.5382 N   0  0  0  0  0  0  0  0  0  0  0  0
   -3.7863  -11.5117   -0.6175 N   0  0  0  0  0  0  0  0  0  0  0  0
   -2.3839    0.8848    0.6136 O   0  0  0  0  0  0  0  0  0  0  0  0
   -1.5336   -0.2179    0.2360 C   0  0  0  0  0  0  0  0  0  0  0  0
   -2.1358   -1.1100    0.3969 H   0  0  0  0  0  0  0  0  0  0  0  0
   -0.6423   -0.2491    0.8685 H   0  0  0  0  0  0  0  0  0  0  0  0
   -1.2600   -0.1414   -0.8213 H   0  0  0  0  0  0  0  0  0  0  0  0
  1  6  1  0  0  0  0
  2  1  2  0  0  0  0
  2  3  1  0  0  0  0
  3  4  2  0  0  0  0
  4  9  1  0  0  0  0
  5  4  1  0  0  0  0
  5 10  1  0  0  0  0
  6 13  1  0  0  0  0
  6  5  2  0  0  0  0
  7  1  1  0  0  0  0
  8  2  1  0  0  0  0
 12 11  3  0  0  0  0
 14 15  1  0  0  0  0
 14 13  1  0  0  0  0
 14 16  1  0  0  0  0
 17 14  1  0  0  0  0
M  RAD  1   3   2
M  END
