Coordinates from ORCA-job 4-MeO-Ph-N2+-B3LYPG-6-31G_dp-MTMO-d009-169-n900
 OpenBabel09051907383D

 17 16  0  0  0  0  0  0  0  0999 V2000
   -0.6755    2.4849    0.0201 C   0  0  0  0  0  0  0  0  0  0  0  0
   -0.2868    3.8463    0.0108 C   0  0  0  0  0  0  0  0  0  0  0  0
   -1.3721    4.5679    0.3240 C   0  0  0  0  0  0  0  0  0  0  0  0
   -2.5339    4.4774    0.9915 C   0  0  0  0  0  0  0  0  0  0  0  0
   -2.8566    3.1043    0.9873 C   0  0  0  0  0  0  0  0  0  0  0  0
   -1.9434    2.1133    0.5290 C   0  0  0  0  0  0  0  0  0  0  0  0
    0.0284    1.7603   -0.3731 H   0  0  0  0  0  0  0  0  0  0  0  0
    0.6970    4.1979   -0.2791 H   0  0  0  0  0  0  0  0  0  0  0  0
   -3.2123    5.2598    1.3110 H   0  0  0  0  0  0  0  0  0  0  0  0
   -3.8614    2.8107    1.2792 H   0  0  0  0  0  0  0  0  0  0  0  0
   -3.4703  -10.3098   -0.5283 N   0  0  0  0  0  0  0  0  0  0  0  0
   -3.7598  -11.3736   -0.6065 N   0  0  0  0  0  0  0  0  0  0  0  0
   -2.3884    0.8670    0.6119 O   0  0  0  0  0  0  0  0  0  0  0  0
   -1.5391   -0.2365    0.2341 C   0  0  0  0  0  0  0  0  0  0  0  0
   -2.1422   -1.1280    0.3947 H   0  0  0  0  0  0  0  0  0  0  0  0
   -0.6479   -0.2686    0.8666 H   0  0  0  0  0  0  0  0  0  0  0  0
   -1.2654   -0.1599   -0.8233 H   0  0  0  0  0  0  0  0  0  0  0  0
  1  6  1  0  0  0  0
  2  1  2  0  0  0  0
  2  3  1  0  0  0  0
  3  4  2  0  0  0  0
  4  9  1  0  0  0  0
  5  4  1  0  0  0  0
  5 10  1  0  0  0  0
  6 13  1  0  0  0  0
  6  5  2  0  0  0  0
  7  1  1  0  0  0  0
  8  2  1  0  0  0  0
 12 11  3  0  0  0  0
 14 15  1  0  0  0  0
 14 13  1  0  0  0  0
 14 16  1  0  0  0  0
 17 14  1  0  0  0  0
M  RAD  1   3   2
M  END
