Coordinates from ORCA-job 4-MeO-Ph-N2+-B3LYPG-6-31G_dp-MTMO-d009-169-n900
 OpenBabel09051907383D

 17 16  0  0  0  0  0  0  0  0999 V2000
   -0.6878    2.4046    0.0147 C   0  0  0  0  0  0  0  0  0  0  0  0
   -0.2952    3.7650    0.0079 C   0  0  0  0  0  0  0  0  0  0  0  0
   -1.3786    4.4891    0.3218 C   0  0  0  0  0  0  0  0  0  0  0  0
   -2.5410    4.4008    0.9886 C   0  0  0  0  0  0  0  0  0  0  0  0
   -2.8676    3.0286    0.9819 C   0  0  0  0  0  0  0  0  0  0  0  0
   -1.9570    2.0359    0.5224 C   0  0  0  0  0  0  0  0  0  0  0  0
    0.0143    1.6788   -0.3793 H   0  0  0  0  0  0  0  0  0  0  0  0
    0.6897    4.1143   -0.2809 H   0  0  0  0  0  0  0  0  0  0  0  0
   -3.2173    5.1845    1.3091 H   0  0  0  0  0  0  0  0  0  0  0  0
   -3.8734    2.7374    1.2728 H   0  0  0  0  0  0  0  0  0  0  0  0
   -3.3783   -9.7210   -0.4838 N   0  0  0  0  0  0  0  0  0  0  0  0
   -3.6547  -10.7885   -0.5582 N   0  0  0  0  0  0  0  0  0  0  0  0
   -2.4055    0.7907    0.6029 O   0  0  0  0  0  0  0  0  0  0  0  0
   -1.5592   -0.3146    0.2237 C   0  0  0  0  0  0  0  0  0  0  0  0
   -2.1648   -1.2047    0.3826 H   0  0  0  0  0  0  0  0  0  0  0  0
   -0.6684   -0.3503    0.8566 H   0  0  0  0  0  0  0  0  0  0  0  0
   -1.2847   -0.2371   -0.8334 H   0  0  0  0  0  0  0  0  0  0  0  0
  1  6  1  0  0  0  0
  2  1  2  0  0  0  0
  2  3  1  0  0  0  0
  3  4  2  0  0  0  0
  4  9  1  0  0  0  0
  5  4  1  0  0  0  0
  5 10  1  0  0  0  0
  6 13  1  0  0  0  0
  6  5  2  0  0  0  0
  7  1  1  0  0  0  0
  8  2  1  0  0  0  0
 12 11  3  0  0  0  0
 14 15  1  0  0  0  0
 14 13  1  0  0  0  0
 14 16  1  0  0  0  0
 17 14  1  0  0  0  0
M  RAD  1   3   2
M  END
