Coordinates from ORCA-job 4-MeO-Ph-N2+-B3LYPG-6-31G_dp-MTMO-d009-169-n900
 OpenBabel09051907383D

 17 16  0  0  0  0  0  0  0  0999 V2000
   -0.6868    2.4110    0.0152 C   0  0  0  0  0  0  0  0  0  0  0  0
   -0.2946    3.7715    0.0081 C   0  0  0  0  0  0  0  0  0  0  0  0
   -1.3782    4.4954    0.3220 C   0  0  0  0  0  0  0  0  0  0  0  0
   -2.5405    4.4068    0.9888 C   0  0  0  0  0  0  0  0  0  0  0  0
   -2.8667    3.0345    0.9823 C   0  0  0  0  0  0  0  0  0  0  0  0
   -1.9559    2.0420    0.5230 C   0  0  0  0  0  0  0  0  0  0  0  0
    0.0154    1.6853   -0.3788 H   0  0  0  0  0  0  0  0  0  0  0  0
    0.6902    4.1210   -0.2808 H   0  0  0  0  0  0  0  0  0  0  0  0
   -3.2170    5.1904    1.3092 H   0  0  0  0  0  0  0  0  0  0  0  0
   -3.8724    2.7430    1.2733 H   0  0  0  0  0  0  0  0  0  0  0  0
   -3.3857   -9.7675   -0.4873 N   0  0  0  0  0  0  0  0  0  0  0  0
   -3.6632  -10.8347   -0.5620 N   0  0  0  0  0  0  0  0  0  0  0  0
   -2.4041    0.7966    0.6037 O   0  0  0  0  0  0  0  0  0  0  0  0
   -1.5575   -0.3084    0.2246 C   0  0  0  0  0  0  0  0  0  0  0  0
   -2.1628   -1.1987    0.3836 H   0  0  0  0  0  0  0  0  0  0  0  0
   -0.6666   -0.3438    0.8574 H   0  0  0  0  0  0  0  0  0  0  0  0
   -1.2831   -0.2310   -0.8325 H   0  0  0  0  0  0  0  0  0  0  0  0
  1  6  1  0  0  0  0
  2  1  2  0  0  0  0
  2  3  1  0  0  0  0
  3  4  2  0  0  0  0
  4  9  1  0  0  0  0
  5  4  1  0  0  0  0
  5 10  1  0  0  0  0
  6 13  1  0  0  0  0
  6  5  2  0  0  0  0
  7  1  1  0  0  0  0
  8  2  1  0  0  0  0
 12 11  3  0  0  0  0
 14 15  1  0  0  0  0
 14 13  1  0  0  0  0
 14 16  1  0  0  0  0
 17 14  1  0  0  0  0
M  RAD  1   3   2
M  END
