Coordinates from ORCA-job 4-MeO-Ph-N2+-B3LYPG-6-31G_dp-MTMO-d009-169-n900
 OpenBabel09051907383D

 17 16  0  0  0  0  0  0  0  0999 V2000
   -0.7458    2.0019   -0.0095 C   0  0  0  0  0  0  0  0  0  0  0  0
   -0.3446    3.3596    0.0147 C   0  0  0  0  0  0  0  0  0  0  0  0
   -1.4262    4.0846    0.3334 C   0  0  0  0  0  0  0  0  0  0  0  0
   -2.5945    3.9899    0.9889 C   0  0  0  0  0  0  0  0  0  0  0  0
   -2.9299    2.6204    0.9515 C   0  0  0  0  0  0  0  0  0  0  0  0
   -2.0216    1.6311    0.4798 C   0  0  0  0  0  0  0  0  0  0  0  0
   -0.0450    1.2797   -0.4123 H   0  0  0  0  0  0  0  0  0  0  0  0
    0.6450    3.7081   -0.2587 H   0  0  0  0  0  0  0  0  0  0  0  0
   -3.2685    4.7713    1.3198 H   0  0  0  0  0  0  0  0  0  0  0  0
   -3.9399    2.3299    1.2281 H   0  0  0  0  0  0  0  0  0  0  0  0
   -2.9228   -6.6826   -0.2123 N   0  0  0  0  0  0  0  0  0  0  0  0
   -3.1683   -7.7582   -0.2787 N   0  0  0  0  0  0  0  0  0  0  0  0
   -2.4788    0.3876    0.5315 O   0  0  0  0  0  0  0  0  0  0  0  0
   -1.6363   -0.7158    0.1377 C   0  0  0  0  0  0  0  0  0  0  0  0
   -2.2483   -1.6052    0.2751 H   0  0  0  0  0  0  0  0  0  0  0  0
   -0.7505   -0.7687    0.7764 H   0  0  0  0  0  0  0  0  0  0  0  0
   -1.3535   -0.6201   -0.9157 H   0  0  0  0  0  0  0  0  0  0  0  0
  1  2  2  0  0  0  0
  1  6  1  0  0  0  0
  2  3  1  0  0  0  0
  3  4  2  0  0  0  0
  4  9  1  0  0  0  0
  5  4  1  0  0  0  0
  5 10  1  0  0  0  0
  6 13  1  0  0  0  0
  6  5  2  0  0  0  0
  7  1  1  0  0  0  0
  8  2  1  0  0  0  0
 12 11  3  0  0  0  0
 14 15  1  0  0  0  0
 14 13  1  0  0  0  0
 14 16  1  0  0  0  0
 17 14  1  0  0  0  0
M  RAD  1   3   2
M  END
