Coordinates from ORCA-job 4-MeO-Ph-N2+-B3LYPG-6-31G_dp-MTMO-d009-169-n900
 OpenBabel09051907383D

 17 16  0  0  0  0  0  0  0  0999 V2000
   -0.6560    2.6118    0.0287 C   0  0  0  0  0  0  0  0  0  0  0  0
   -0.2735    3.9751    0.0166 C   0  0  0  0  0  0  0  0  0  0  0  0
   -1.3619    4.6923    0.3289 C   0  0  0  0  0  0  0  0  0  0  0  0
   -2.5230    4.5977    0.9971 C   0  0  0  0  0  0  0  0  0  0  0  0
   -2.8394    3.2231    0.9957 C   0  0  0  0  0  0  0  0  0  0  0  0
   -1.9219    2.2355    0.5390 C   0  0  0  0  0  0  0  0  0  0  0  0
    0.0511    1.8898   -0.3633 H   0  0  0  0  0  0  0  0  0  0  0  0
    0.7086    4.3305   -0.2744 H   0  0  0  0  0  0  0  0  0  0  0  0
   -3.2049    5.3776    1.3153 H   0  0  0  0  0  0  0  0  0  0  0  0
   -3.8428    2.9256    1.2886 H   0  0  0  0  0  0  0  0  0  0  0  0
   -3.6155  -11.2394   -0.5980 N   0  0  0  0  0  0  0  0  0  0  0  0
   -3.9269  -12.2967   -0.6800 N   0  0  0  0  0  0  0  0  0  0  0  0
   -2.3612    0.9873    0.6245 O   0  0  0  0  0  0  0  0  0  0  0  0
   -1.5070   -0.1129    0.2484 C   0  0  0  0  0  0  0  0  0  0  0  0
   -2.1058   -1.0069    0.4111 H   0  0  0  0  0  0  0  0  0  0  0  0
   -0.6153   -0.1398    0.8806 H   0  0  0  0  0  0  0  0  0  0  0  0
   -1.2340   -0.0373   -0.8092 H   0  0  0  0  0  0  0  0  0  0  0  0
  1  6  1  0  0  0  0
  2  1  2  0  0  0  0
  2  3  1  0  0  0  0
  3  4  2  0  0  0  0
  4  9  1  0  0  0  0
  5  4  1  0  0  0  0
  5 10  1  0  0  0  0
  6 13  1  0  0  0  0
  6  5  2  0  0  0  0
  7  1  1  0  0  0  0
  8  2  1  0  0  0  0
 12 11  3  0  0  0  0
 14 15  1  0  0  0  0
 14 13  1  0  0  0  0
 14 16  1  0  0  0  0
 17 14  1  0  0  0  0
M  RAD  1   3   2
M  END
