Coordinates from ORCA-job 4-MeO-Ph-N2+-B3LYPG-6-31G_dp-MTMO-d009-169-n900
 OpenBabel09051907383D

 17 16  0  0  0  0  0  0  0  0999 V2000
   -0.7574    1.8717   -0.0164 C   0  0  0  0  0  0  0  0  0  0  0  0
   -0.3799    3.2349    0.0428 C   0  0  0  0  0  0  0  0  0  0  0  0
   -1.4767    3.9360    0.3645 C   0  0  0  0  0  0  0  0  0  0  0  0
   -2.6493    3.8058    1.0068 C   0  0  0  0  0  0  0  0  0  0  0  0
   -2.9611    2.4321    0.9352 C   0  0  0  0  0  0  0  0  0  0  0  0
   -2.0318    1.4684    0.4512 C   0  0  0  0  0  0  0  0  0  0  0  0
   -0.0403    1.1705   -0.4276 H   0  0  0  0  0  0  0  0  0  0  0  0
    0.6067    3.6056   -0.2116 H   0  0  0  0  0  0  0  0  0  0  0  0
   -3.3403    4.5679    1.3476 H   0  0  0  0  0  0  0  0  0  0  0  0
   -3.9691    2.1189    1.1940 H   0  0  0  0  0  0  0  0  0  0  0  0
   -2.8314   -5.5252   -0.0657 N   0  0  0  0  0  0  0  0  0  0  0  0
   -3.0876   -6.5996   -0.1027 N   0  0  0  0  0  0  0  0  0  0  0  0
   -2.4684    0.2168    0.4712 O   0  0  0  0  0  0  0  0  0  0  0  0
   -1.6043   -0.8648    0.0625 C   0  0  0  0  0  0  0  0  0  0  0  0
   -2.2013   -1.7679    0.1758 H   0  0  0  0  0  0  0  0  0  0  0  0
   -0.7233   -0.9157    0.7080 H   0  0  0  0  0  0  0  0  0  0  0  0
   -1.3140   -0.7420   -0.9859 H   0  0  0  0  0  0  0  0  0  0  0  0
  1  2  2  0  0  0  0
  1  6  1  0  0  0  0
  2  3  1  0  0  0  0
  3  4  2  0  0  0  0
  4  9  1  0  0  0  0
  5  4  1  0  0  0  0
  5 10  1  0  0  0  0
  6 13  1  0  0  0  0
  6  5  2  0  0  0  0
  7  1  1  0  0  0  0
  8  2  1  0  0  0  0
 12 11  3  0  0  0  0
 14 15  1  0  0  0  0
 14 13  1  0  0  0  0
 14 16  1  0  0  0  0
 17 14  1  0  0  0  0
M  RAD  1   3   2
M  END
