Coordinates from ORCA-job 4-MeO-Ph-N2+-B3LYPG-6-31G_dp-MTMO-d009-169-n900
 OpenBabel09051907383D

 17 16  0  0  0  0  0  0  0  0999 V2000
   -0.7155    2.2212    0.0033 C   0  0  0  0  0  0  0  0  0  0  0  0
   -0.3133    3.5788    0.0058 C   0  0  0  0  0  0  0  0  0  0  0  0
   -1.3923    4.3087    0.3216 C   0  0  0  0  0  0  0  0  0  0  0  0
   -2.5567    4.2244    0.9853 C   0  0  0  0  0  0  0  0  0  0  0  0
   -2.8930    2.8546    0.9693 C   0  0  0  0  0  0  0  0  0  0  0  0
   -1.9884    1.8583    0.5058 C   0  0  0  0  0  0  0  0  0  0  0  0
   -0.0177    1.4929   -0.3936 H   0  0  0  0  0  0  0  0  0  0  0  0
    0.6748    3.9228   -0.2787 H   0  0  0  0  0  0  0  0  0  0  0  0
   -3.2282    5.0109    1.3092 H   0  0  0  0  0  0  0  0  0  0  0  0
   -3.9015    2.5688    1.2562 H   0  0  0  0  0  0  0  0  0  0  0  0
   -3.1615   -8.3740   -0.3740 N   0  0  0  0  0  0  0  0  0  0  0  0
   -3.4177   -9.4469   -0.4437 N   0  0  0  0  0  0  0  0  0  0  0  0
   -2.4460    0.6159    0.5776 O   0  0  0  0  0  0  0  0  0  0  0  0
   -1.6066   -0.4931    0.1937 C   0  0  0  0  0  0  0  0  0  0  0  0
   -2.2188   -1.3799    0.3460 H   0  0  0  0  0  0  0  0  0  0  0  0
   -0.7175   -0.5387    0.8282 H   0  0  0  0  0  0  0  0  0  0  0  0
   -1.3294   -0.4114   -0.8623 H   0  0  0  0  0  0  0  0  0  0  0  0
  1  2  2  0  0  0  0
  1  6  1  0  0  0  0
  2  3  1  0  0  0  0
  3  4  2  0  0  0  0
  4  9  1  0  0  0  0
  5  4  1  0  0  0  0
  5 10  1  0  0  0  0
  6 13  1  0  0  0  0
  6  5  2  0  0  0  0
  7  1  1  0  0  0  0
  8  2  1  0  0  0  0
 12 11  3  0  0  0  0
 14 15  1  0  0  0  0
 14 13  1  0  0  0  0
 14 16  1  0  0  0  0
 17 14  1  0  0  0  0
M  RAD  1   3   2
M  END
