Coordinates from ORCA-job 4-MeO-Ph-N2+-B3LYPG-6-31G_dp-MTMO-d009-169-n900
 OpenBabel09051907383D

 17 16  0  0  0  0  0  0  0  0999 V2000
   -1.0160    1.3449   -0.0048 C   0  0  0  0  0  0  0  0  0  0  0  0
   -0.2704    2.5463   -0.0734 C   0  0  0  0  0  0  0  0  0  0  0  0
   -1.1115    3.5486    0.2199 C   0  0  0  0  0  0  0  0  0  0  0  0
   -2.2381    3.8003    0.9076 C   0  0  0  0  0  0  0  0  0  0  0  0
   -2.9243    2.5699    0.9626 C   0  0  0  0  0  0  0  0  0  0  0  0
   -2.3259    1.3516    0.5339 C   0  0  0  0  0  0  0  0  0  0  0  0
   -0.5482    0.4425   -0.3817 H   0  0  0  0  0  0  0  0  0  0  0  0
    0.7641    2.6046   -0.3925 H   0  0  0  0  0  0  0  0  0  0  0  0
   -2.6674    4.7491    1.2068 H   0  0  0  0  0  0  0  0  0  0  0  0
   -3.9637    2.5721    1.2797 H   0  0  0  0  0  0  0  0  0  0  0  0
   -1.1024   -3.8349   -0.4508 N   0  0  0  0  0  0  0  0  0  0  0  0
   -0.7579   -4.8668   -0.6445 N   0  0  0  0  0  0  0  0  0  0  0  0
   -3.0894    0.2776    0.6718 O   0  0  0  0  0  0  0  0  0  0  0  0
   -2.5727   -1.0286    0.3366 C   0  0  0  0  0  0  0  0  0  0  0  0
   -3.3890   -1.7195    0.5366 H   0  0  0  0  0  0  0  0  0  0  0  0
   -1.7132   -1.2741    0.9648 H   0  0  0  0  0  0  0  0  0  0  0  0
   -2.3032   -1.0705   -0.7228 H   0  0  0  0  0  0  0  0  0  0  0  0
  1  6  1  0  0  0  0
  2  1  2  0  0  0  0
  2  3  1  0  0  0  0
  3  4  2  0  0  0  0
  4  5  1  0  0  0  0
  4  9  1  0  0  0  0
  5 10  1  0  0  0  0
  6 13  1  0  0  0  0
  6  5  2  0  0  0  0
  7  1  1  0  0  0  0
  8  2  1  0  0  0  0
 12 11  3  0  0  0  0
 14 15  1  0  0  0  0
 14 13  1  0  0  0  0
 14 16  1  0  0  0  0
 17 14  1  0  0  0  0
M  RAD  1   3   2
M  END
