Coordinates from ORCA-job 4-MeO-Ph-N2+-B3LYPG-6-31G_dp-MTMO-d009-169-n900
 OpenBabel09051907383D

 17 16  0  0  0  0  0  0  0  0999 V2000
   -0.9718    1.4273   -0.0129 C   0  0  0  0  0  0  0  0  0  0  0  0
   -0.2857    2.6645   -0.0608 C   0  0  0  0  0  0  0  0  0  0  0  0
   -1.1744    3.6218    0.2438 C   0  0  0  0  0  0  0  0  0  0  0  0
   -2.3132    3.8082    0.9321 C   0  0  0  0  0  0  0  0  0  0  0  0
   -2.9388    2.5451    0.9662 C   0  0  0  0  0  0  0  0  0  0  0  0
   -2.2816    1.3630    0.5217 C   0  0  0  0  0  0  0  0  0  0  0  0
   -0.4593    0.5538   -0.3997 H   0  0  0  0  0  0  0  0  0  0  0  0
    0.7463    2.7776   -0.3735 H   0  0  0  0  0  0  0  0  0  0  0  0
   -2.7899    4.7304    1.2426 H   0  0  0  0  0  0  0  0  0  0  0  0
   -3.9785    2.4927    1.2780 H   0  0  0  0  0  0  0  0  0  0  0  0
   -1.3574   -4.0485   -0.3914 N   0  0  0  0  0  0  0  0  0  0  0  0
   -1.1056   -5.1116   -0.5567 N   0  0  0  0  0  0  0  0  0  0  0  0
   -2.9938    0.2523    0.6424 O   0  0  0  0  0  0  0  0  0  0  0  0
   -2.4201   -1.0256    0.2903 C   0  0  0  0  0  0  0  0  0  0  0  0
   -3.2050   -1.7542    0.4799 H   0  0  0  0  0  0  0  0  0  0  0  0
   -1.5516   -1.2420    0.9173 H   0  0  0  0  0  0  0  0  0  0  0  0
   -2.1490   -1.0415   -0.7696 H   0  0  0  0  0  0  0  0  0  0  0  0
  1  6  1  0  0  0  0
  2  1  2  0  0  0  0
  2  3  1  0  0  0  0
  3  4  2  0  0  0  0
  4  5  1  0  0  0  0
  4  9  1  0  0  0  0
  5 10  1  0  0  0  0
  6 13  1  0  0  0  0
  6  5  2  0  0  0  0
  7  1  1  0  0  0  0
  8  2  1  0  0  0  0
 12 11  3  0  0  0  0
 14 15  1  0  0  0  0
 14 13  1  0  0  0  0
 14 16  1  0  0  0  0
 17 14  1  0  0  0  0
M  RAD  1   3   2
M  END
