Coordinates from ORCA-job 4-MeO-Ph-N2+-B3LYPG-6-31G_dp-MTMO-d009-169-n900
 OpenBabel09051907383D

 17 16  0  0  0  0  0  0  0  0999 V2000
   -0.6824    2.4402    0.0170 C   0  0  0  0  0  0  0  0  0  0  0  0
   -0.2912    3.8009    0.0087 C   0  0  0  0  0  0  0  0  0  0  0  0
   -1.3752    4.5244    0.3222 C   0  0  0  0  0  0  0  0  0  0  0  0
   -2.5372    4.4355    0.9896 C   0  0  0  0  0  0  0  0  0  0  0  0
   -2.8624    3.0630    0.9844 C   0  0  0  0  0  0  0  0  0  0  0  0
   -1.9510    2.0707    0.5256 C   0  0  0  0  0  0  0  0  0  0  0  0
    0.0202    1.7146   -0.3765 H   0  0  0  0  0  0  0  0  0  0  0  0
    0.6933    4.1508   -0.2807 H   0  0  0  0  0  0  0  0  0  0  0  0
   -3.2143    5.2189    1.3095 H   0  0  0  0  0  0  0  0  0  0  0  0
   -3.8678    2.7711    1.2760 H   0  0  0  0  0  0  0  0  0  0  0  0
   -3.4193   -9.9844   -0.5043 N   0  0  0  0  0  0  0  0  0  0  0  0
   -3.7000  -11.0506   -0.5805 N   0  0  0  0  0  0  0  0  0  0  0  0
   -2.3984    0.8251    0.6075 O   0  0  0  0  0  0  0  0  0  0  0  0
   -1.5511   -0.2797    0.2290 C   0  0  0  0  0  0  0  0  0  0  0  0
   -2.1558   -1.1702    0.3888 H   0  0  0  0  0  0  0  0  0  0  0  0
   -0.6600   -0.3139    0.8616 H   0  0  0  0  0  0  0  0  0  0  0  0
   -1.2770   -0.2028   -0.8282 H   0  0  0  0  0  0  0  0  0  0  0  0
  1  6  1  0  0  0  0
  2  1  2  0  0  0  0
  2  3  1  0  0  0  0
  3  4  2  0  0  0  0
  4  9  1  0  0  0  0
  5  4  1  0  0  0  0
  5 10  1  0  0  0  0
  6 13  1  0  0  0  0
  6  5  2  0  0  0  0
  7  1  1  0  0  0  0
  8  2  1  0  0  0  0
 12 11  3  0  0  0  0
 14 15  1  0  0  0  0
 14 13  1  0  0  0  0
 14 16  1  0  0  0  0
 17 14  1  0  0  0  0
M  RAD  1   3   2
M  END
