Coordinates from ORCA-job 4-MeO-Ph-N2+-B3LYPG-6-31G_dp-MTMO-d009-169-n900
 OpenBabel09051907383D

 17 16  0  0  0  0  0  0  0  0999 V2000
   -1.6528    0.4719    0.1213 C   0  0  0  0  0  0  0  0  0  0  0  0
   -0.3765    1.0361   -0.1396 C   0  0  0  0  0  0  0  0  0  0  0  0
   -0.5211    2.3599   -0.0147 C   0  0  0  0  0  0  0  0  0  0  0  0
   -1.2794    3.2913    0.5858 C   0  0  0  0  0  0  0  0  0  0  0  0
   -2.5164    2.6633    0.8387 C   0  0  0  0  0  0  0  0  0  0  0  0
   -2.7051    1.2696    0.6296 C   0  0  0  0  0  0  0  0  0  0  0  0
   -1.7771   -0.5825   -0.0990 H   0  0  0  0  0  0  0  0  0  0  0  0
    0.4836    0.4546   -0.4596 H   0  0  0  0  0  0  0  0  0  0  0  0
   -1.0945    4.3506    0.7208 H   0  0  0  0  0  0  0  0  0  0  0  0
   -3.3561    3.2799    1.1481 H   0  0  0  0  0  0  0  0  0  0  0  0
    1.9698   -1.6068   -1.1323 N   0  0  0  0  0  0  0  0  0  0  0  0
    2.6446   -2.4251   -1.4413 N   0  0  0  0  0  0  0  0  0  0  0  0
   -3.9161    0.8183    0.9325 O   0  0  0  0  0  0  0  0  0  0  0  0
   -4.2122   -0.5888    0.8295 C   0  0  0  0  0  0  0  0  0  0  0  0
   -5.2523   -0.6855    1.1343 H   0  0  0  0  0  0  0  0  0  0  0  0
   -3.5711   -1.1664    1.5012 H   0  0  0  0  0  0  0  0  0  0  0  0
   -4.0968   -0.9270   -0.2056 H   0  0  0  0  0  0  0  0  0  0  0  0
  1  6  2  0  0  0  0
  2  3  2  0  0  0  0
  2  1  1  0  0  0  0
  3  4  1  0  0  0  0
  4  9  1  0  0  0  0
  4  5  2  0  0  0  0
  5 10  1  0  0  0  0
  6  5  1  0  0  0  0
  6 13  1  0  0  0  0
  7  1  1  0  0  0  0
  8  2  1  0  0  0  0
 12 11  3  0  0  0  0
 14 13  1  0  0  0  0
 14 15  1  0  0  0  0
 14 16  1  0  0  0  0
 17 14  1  0  0  0  0
M  RAD  1   3   2
M  END
