Coordinates from ORCA-job 4-MeO-Ph-N2+-B3LYPG-6-31G_dp-MTMO-d009-169-n900
 OpenBabel09051907383D

 17 16  0  0  0  0  0  0  0  0999 V2000
   -1.6612    0.4545    0.1224 C   0  0  0  0  0  0  0  0  0  0  0  0
   -0.3802    1.0065   -0.1411 C   0  0  0  0  0  0  0  0  0  0  0  0
   -0.5122    2.3318   -0.0196 C   0  0  0  0  0  0  0  0  0  0  0  0
   -1.2610    3.2723    0.5783 C   0  0  0  0  0  0  0  0  0  0  0  0
   -2.5036    2.6559    0.8340 C   0  0  0  0  0  0  0  0  0  0  0  0
   -2.7056    1.2635    0.6292 C   0  0  0  0  0  0  0  0  0  0  0  0
   -1.7950   -0.5997   -0.0929 H   0  0  0  0  0  0  0  0  0  0  0  0
    0.4750    0.4161   -0.4586 H   0  0  0  0  0  0  0  0  0  0  0  0
   -1.0672    4.3306    0.7085 H   0  0  0  0  0  0  0  0  0  0  0  0
   -3.3377    3.2813    1.1407 H   0  0  0  0  0  0  0  0  0  0  0  0
    1.9714   -1.5565   -1.1245 N   0  0  0  0  0  0  0  0  0  0  0  0
    2.6826   -2.3383   -1.4459 N   0  0  0  0  0  0  0  0  0  0  0  0
   -3.9206    0.8245    0.9346 O   0  0  0  0  0  0  0  0  0  0  0  0
   -4.2302   -0.5798    0.8351 C   0  0  0  0  0  0  0  0  0  0  0  0
   -5.2711   -0.6658    1.1405 H   0  0  0  0  0  0  0  0  0  0  0  0
   -3.5945   -1.1620    1.5081 H   0  0  0  0  0  0  0  0  0  0  0  0
   -4.1184   -0.9217   -0.1991 H   0  0  0  0  0  0  0  0  0  0  0  0
  1  6  2  0  0  0  0
  2  3  2  0  0  0  0
  2  1  1  0  0  0  0
  3  4  1  0  0  0  0
  4  9  1  0  0  0  0
  4  5  2  0  0  0  0
  5 10  1  0  0  0  0
  6  5  1  0  0  0  0
  6 13  1  0  0  0  0
  7  1  1  0  0  0  0
  8  2  1  0  0  0  0
 12 11  3  0  0  0  0
 14 13  1  0  0  0  0
 14 15  1  0  0  0  0
 14 16  1  0  0  0  0
 17 14  1  0  0  0  0
M  RAD  1   3   2
M  END
