Coordinates from ORCA-job 4-MeO-Ph-N2+-B3LYPG-6-31G_dp-MTMO-d009-169-n900
 OpenBabel09051907383D

 17 16  0  0  0  0  0  0  0  0999 V2000
   -1.7446    0.3335    0.1310 C   0  0  0  0  0  0  0  0  0  0  0  0
   -0.4302    0.7889   -0.1561 C   0  0  0  0  0  0  0  0  0  0  0  0
   -0.4654    2.1202   -0.0581 C   0  0  0  0  0  0  0  0  0  0  0  0
   -1.1372    3.1262    0.5242 C   0  0  0  0  0  0  0  0  0  0  0  0
   -2.4170    2.6039    0.8051 C   0  0  0  0  0  0  0  0  0  0  0  0
   -2.7213    1.2258    0.6313 C   0  0  0  0  0  0  0  0  0  0  0  0
   -1.9547   -0.7135   -0.0564 H   0  0  0  0  0  0  0  0  0  0  0  0
    0.3867    0.1419   -0.4666 H   0  0  0  0  0  0  0  0  0  0  0  0
   -0.8693    4.1711    0.6263 H   0  0  0  0  0  0  0  0  0  0  0  0
   -3.2013    3.2939    1.1048 H   0  0  0  0  0  0  0  0  0  0  0  0
    2.1537   -1.1850   -1.1361 N   0  0  0  0  0  0  0  0  0  0  0  0
    3.0063   -1.8087   -1.4582 N   0  0  0  0  0  0  0  0  0  0  0  0
   -3.9619    0.8830    0.9586 O   0  0  0  0  0  0  0  0  0  0  0  0
   -4.3762   -0.4953    0.8842 C   0  0  0  0  0  0  0  0  0  0  0  0
   -5.4171   -0.4988    1.2012 H   0  0  0  0  0  0  0  0  0  0  0  0
   -3.7784   -1.1134    1.5599 H   0  0  0  0  0  0  0  0  0  0  0  0
   -4.3016   -0.8604   -0.1455 H   0  0  0  0  0  0  0  0  0  0  0  0
  1  6  2  0  0  0  0
  2  3  2  0  0  0  0
  2  1  1  0  0  0  0
  3  4  1  0  0  0  0
  4  9  1  0  0  0  0
  4  5  2  0  0  0  0
  5 10  1  0  0  0  0
  6  5  1  0  0  0  0
  6 13  1  0  0  0  0
  7  1  1  0  0  0  0
  8  2  1  0  0  0  0
 12 11  3  0  0  0  0
 14 13  1  0  0  0  0
 14 15  1  0  0  0  0
 14 16  1  0  0  0  0
 17 14  1  0  0  0  0
M  RAD  1   3   2
M  END
