Coordinates from ORCA-job 4-MeO-Ph-N2+-B3LYPG-6-31G_dp-MTMO-d009-169-n900
 OpenBabel09051907383D

 17 16  0  0  0  0  0  0  0  0999 V2000
   -0.7623    1.8168   -0.0216 C   0  0  0  0  0  0  0  0  0  0  0  0
   -0.4030    3.1845    0.0458 C   0  0  0  0  0  0  0  0  0  0  0  0
   -1.5095    3.8705    0.3684 C   0  0  0  0  0  0  0  0  0  0  0  0
   -2.6810    3.7201    1.0088 C   0  0  0  0  0  0  0  0  0  0  0  0
   -2.9747    2.3430    0.9292 C   0  0  0  0  0  0  0  0  0  0  0  0
   -2.0319    1.3937    0.4418 C   0  0  0  0  0  0  0  0  0  0  0  0
   -0.0354    1.1273   -0.4356 H   0  0  0  0  0  0  0  0  0  0  0  0
    0.5792    3.5692   -0.2047 H   0  0  0  0  0  0  0  0  0  0  0  0
   -3.3827    4.4710    1.3525 H   0  0  0  0  0  0  0  0  0  0  0  0
   -3.9789    2.0152    1.1843 H   0  0  0  0  0  0  0  0  0  0  0  0
   -2.8068   -5.0071   -0.0153 N   0  0  0  0  0  0  0  0  0  0  0  0
   -3.0881   -6.0754   -0.0434 N   0  0  0  0  0  0  0  0  0  0  0  0
   -2.4518    0.1364    0.4553 O   0  0  0  0  0  0  0  0  0  0  0  0
   -1.5725   -0.9326    0.0441 C   0  0  0  0  0  0  0  0  0  0  0  0
   -2.1558   -1.8452    0.1538 H   0  0  0  0  0  0  0  0  0  0  0  0
   -0.6912   -0.9722    0.6900 H   0  0  0  0  0  0  0  0  0  0  0  0
   -1.2831   -0.8018   -1.0037 H   0  0  0  0  0  0  0  0  0  0  0  0
  1  2  2  0  0  0  0
  1  6  1  0  0  0  0
  2  3  1  0  0  0  0
  3  4  2  0  0  0  0
  4  9  1  0  0  0  0
  5  4  1  0  0  0  0
  5 10  1  0  0  0  0
  6 13  1  0  0  0  0
  6  5  2  0  0  0  0
  7  1  1  0  0  0  0
  8  2  1  0  0  0  0
 12 11  3  0  0  0  0
 14 15  1  0  0  0  0
 14 13  1  0  0  0  0
 14 16  1  0  0  0  0
 17 14  1  0  0  0  0
M  RAD  1   3   2
M  END
