Coordinates from ORCA-job 4-MeO-Ph-N2+-B3LYPG-6-31G_dp-MTMO-d009-169-n900
 OpenBabel09051907383D

 17 16  0  0  0  0  0  0  0  0999 V2000
   -0.9307    1.5144   -0.0158 C   0  0  0  0  0  0  0  0  0  0  0  0
   -0.3069    2.7845   -0.0480 C   0  0  0  0  0  0  0  0  0  0  0  0
   -1.2421    3.6946    0.2627 C   0  0  0  0  0  0  0  0  0  0  0  0
   -2.3907    3.8177    0.9489 C   0  0  0  0  0  0  0  0  0  0  0  0
   -2.9531    2.5247    0.9672 C   0  0  0  0  0  0  0  0  0  0  0  0
   -2.2374    1.3806    0.5132 C   0  0  0  0  0  0  0  0  0  0  0  0
   -0.3738    0.6710   -0.4078 H   0  0  0  0  0  0  0  0  0  0  0  0
    0.7200    2.9517   -0.3532 H   0  0  0  0  0  0  0  0  0  0  0  0
   -2.9146    4.7118    1.2656 H   0  0  0  0  0  0  0  0  0  0  0  0
   -3.9905    2.4183    1.2729 H   0  0  0  0  0  0  0  0  0  0  0  0
   -1.5976   -4.3113   -0.3461 N   0  0  0  0  0  0  0  0  0  0  0  0
   -1.4665   -5.3973   -0.5022 N   0  0  0  0  0  0  0  0  0  0  0  0
   -2.8954    0.2355    0.6204 O   0  0  0  0  0  0  0  0  0  0  0  0
   -2.2624   -1.0107    0.2561 C   0  0  0  0  0  0  0  0  0  0  0  0
   -3.0119   -1.7775    0.4371 H   0  0  0  0  0  0  0  0  0  0  0  0
   -1.3853   -1.1920    0.8826 H   0  0  0  0  0  0  0  0  0  0  0  0
   -1.9904   -1.0025   -0.8039 H   0  0  0  0  0  0  0  0  0  0  0  0
  1  6  1  0  0  0  0
  2  1  2  0  0  0  0
  2  3  1  0  0  0  0
  3  4  2  0  0  0  0
  4  5  1  0  0  0  0
  4  9  1  0  0  0  0
  5 10  1  0  0  0  0
  6 13  1  0  0  0  0
  6  5  2  0  0  0  0
  7  1  1  0  0  0  0
  8  2  1  0  0  0  0
 12 11  3  0  0  0  0
 14 15  1  0  0  0  0
 14 13  1  0  0  0  0
 14 16  1  0  0  0  0
 17 14  1  0  0  0  0
M  RAD  1   3   2
M  END
