Coordinates from ORCA-job 4-MeO-Ph-N2+-B3LYPG-6-31G_dp-MTMO-d009-169-n900
 OpenBabel09051907383D

 17 16  0  0  0  0  0  0  0  0999 V2000
   -1.6258    0.7197    0.1099 C   0  0  0  0  0  0  0  0  0  0  0  0
   -0.4268    1.4366   -0.1257 C   0  0  0  0  0  0  0  0  0  0  0  0
   -0.7087    2.7347    0.0501 C   0  0  0  0  0  0  0  0  0  0  0  0
   -1.5541    3.5453    0.7078 C   0  0  0  0  0  0  0  0  0  0  0  0
   -2.7124    2.7730    0.9325 C   0  0  0  0  0  0  0  0  0  0  0  0
   -2.7527    1.3772    0.6593 C   0  0  0  0  0  0  0  0  0  0  0  0
   -1.6364   -0.3323   -0.1524 H   0  0  0  0  0  0  0  0  0  0  0  0
    0.4968    0.9810   -0.4653 H   0  0  0  0  0  0  0  0  0  0  0  0
   -1.4906    4.6121    0.8879 H   0  0  0  0  0  0  0  0  0  0  0  0
   -3.6147    3.2804    1.2638 H   0  0  0  0  0  0  0  0  0  0  0  0
    2.2283   -2.7204   -1.3237 N   0  0  0  0  0  0  0  0  0  0  0  0
    2.8527   -3.5936   -1.5869 N   0  0  0  0  0  0  0  0  0  0  0  0
   -3.9049    0.7870    0.9468 O   0  0  0  0  0  0  0  0  0  0  0  0
   -4.0514   -0.6388    0.7862 C   0  0  0  0  0  0  0  0  0  0  0  0
   -5.0728   -0.8572    1.0905 H   0  0  0  0  0  0  0  0  0  0  0  0
   -3.3471   -1.1713    1.4311 H   0  0  0  0  0  0  0  0  0  0  0  0
   -3.9089   -0.9198   -0.2624 H   0  0  0  0  0  0  0  0  0  0  0  0
  1  6  2  0  0  0  0
  2  3  2  0  0  0  0
  2  1  1  0  0  0  0
  3  4  1  0  0  0  0
  4  9  1  0  0  0  0
  4  5  2  0  0  0  0
  5 10  1  0  0  0  0
  6  5  1  0  0  0  0
  6 13  1  0  0  0  0
  7  1  1  0  0  0  0
  8  2  1  0  0  0  0
 12 11  3  0  0  0  0
 14 13  1  0  0  0  0
 14 15  1  0  0  0  0
 14 16  1  0  0  0  0
 17 14  1  0  0  0  0
M  RAD  1   3   2
M  END
