Coordinates from ORCA-job 4-MeO-Ph-N2+-B3LYPG-6-31G_dp-MTMO-d009-169-n900
 OpenBabel09051907383D

 17 16  0  0  0  0  0  0  0  0999 V2000
   -0.7556    1.8971   -0.0151 C   0  0  0  0  0  0  0  0  0  0  0  0
   -0.3724    3.2592    0.0346 C   0  0  0  0  0  0  0  0  0  0  0  0
   -1.4656    3.9660    0.3555 C   0  0  0  0  0  0  0  0  0  0  0  0
   -2.6372    3.8447    1.0013 C   0  0  0  0  0  0  0  0  0  0  0  0
   -2.9546    2.4719    0.9389 C   0  0  0  0  0  0  0  0  0  0  0  0
   -2.0302    1.5018    0.4583 C   0  0  0  0  0  0  0  0  0  0  0  0
   -0.0424    1.1906   -0.4241 H   0  0  0  0  0  0  0  0  0  0  0  0
    0.6148    3.6245   -0.2251 H   0  0  0  0  0  0  0  0  0  0  0  0
   -3.3240    4.6118    1.3394 H   0  0  0  0  0  0  0  0  0  0  0  0
   -3.9630    2.1641    1.2027 H   0  0  0  0  0  0  0  0  0  0  0  0
   -2.8487   -5.7600   -0.1004 N   0  0  0  0  0  0  0  0  0  0  0  0
   -3.0987   -6.8355   -0.1464 N   0  0  0  0  0  0  0  0  0  0  0  0
   -2.4717    0.2520    0.4869 O   0  0  0  0  0  0  0  0  0  0  0  0
   -1.6125   -0.8349    0.0823 C   0  0  0  0  0  0  0  0  0  0  0  0
   -2.2130   -1.7346    0.2027 H   0  0  0  0  0  0  0  0  0  0  0  0
   -0.7301   -0.8855    0.7258 H   0  0  0  0  0  0  0  0  0  0  0  0
   -1.3245   -0.7196   -0.9676 H   0  0  0  0  0  0  0  0  0  0  0  0
  1  2  2  0  0  0  0
  1  6  1  0  0  0  0
  2  3  1  0  0  0  0
  3  4  2  0  0  0  0
  4  9  1  0  0  0  0
  5  4  1  0  0  0  0
  5 10  1  0  0  0  0
  6 13  1  0  0  0  0
  6  5  2  0  0  0  0
  7  1  1  0  0  0  0
  8  2  1  0  0  0  0
 12 11  3  0  0  0  0
 14 15  1  0  0  0  0
 14 13  1  0  0  0  0
 14 16  1  0  0  0  0
 17 14  1  0  0  0  0
M  RAD  1   3   2
M  END
