Coordinates from ORCA-job 4-MeO-Ph-N2+-B3LYPG-6-31G_dp-MTMO-d009-169-n900
 OpenBabel09051907383D

 17 16  0  0  0  0  0  0  0  0999 V2000
   -0.7336    2.0958   -0.0040 C   0  0  0  0  0  0  0  0  0  0  0  0
   -0.3282    3.4523    0.0090 C   0  0  0  0  0  0  0  0  0  0  0  0
   -1.4064    4.1827    0.3264 C   0  0  0  0  0  0  0  0  0  0  0  0
   -2.5730    4.0965    0.9862 C   0  0  0  0  0  0  0  0  0  0  0  0
   -2.9125    2.7277    0.9598 C   0  0  0  0  0  0  0  0  0  0  0  0
   -2.0089    1.7324    0.4922 C   0  0  0  0  0  0  0  0  0  0  0  0
   -0.0364    1.3685   -0.4039 H   0  0  0  0  0  0  0  0  0  0  0  0
    0.6615    3.7959   -0.2702 H   0  0  0  0  0  0  0  0  0  0  0  0
   -3.2435    4.8824    1.3136 H   0  0  0  0  0  0  0  0  0  0  0  0
   -3.9225    2.4423    1.2418 H   0  0  0  0  0  0  0  0  0  0  0  0
   -3.0171   -7.4287   -0.2879 N   0  0  0  0  0  0  0  0  0  0  0  0
   -3.2654   -8.5036   -0.3559 N   0  0  0  0  0  0  0  0  0  0  0  0
   -2.4696    0.4906    0.5542 O   0  0  0  0  0  0  0  0  0  0  0  0
   -1.6317   -0.6179    0.1654 C   0  0  0  0  0  0  0  0  0  0  0  0
   -2.2462   -1.5043    0.3105 H   0  0  0  0  0  0  0  0  0  0  0  0
   -0.7443   -0.6694    0.8020 H   0  0  0  0  0  0  0  0  0  0  0  0
   -1.3516   -0.5300   -0.8894 H   0  0  0  0  0  0  0  0  0  0  0  0
  1  2  2  0  0  0  0
  1  6  1  0  0  0  0
  2  3  1  0  0  0  0
  3  4  2  0  0  0  0
  4  9  1  0  0  0  0
  5  4  1  0  0  0  0
  5 10  1  0  0  0  0
  6 13  1  0  0  0  0
  6  5  2  0  0  0  0
  7  1  1  0  0  0  0
  8  2  1  0  0  0  0
 12 11  3  0  0  0  0
 14 15  1  0  0  0  0
 14 13  1  0  0  0  0
 14 16  1  0  0  0  0
 17 14  1  0  0  0  0
M  RAD  1   3   2
M  END
