Coordinates from ORCA-job 4-MeO-Ph-N2+-B3LYPG-6-31G_dp-MTMO-d009-169-n900
 OpenBabel09051907383D

 17 16  0  0  0  0  0  0  0  0999 V2000
   -1.0880    1.2285   -0.0026 C   0  0  0  0  0  0  0  0  0  0  0  0
   -0.2581    2.3716   -0.0932 C   0  0  0  0  0  0  0  0  0  0  0  0
   -1.0200    3.4370    0.1947 C   0  0  0  0  0  0  0  0  0  0  0  0
   -2.1178    3.7794    0.8896 C   0  0  0  0  0  0  0  0  0  0  0  0
   -2.8911    2.6029    0.9663 C   0  0  0  0  0  0  0  0  0  0  0  0
   -2.3882    1.3386    0.5477 C   0  0  0  0  0  0  0  0  0  0  0  0
   -0.6905    0.2886   -0.3693 H   0  0  0  0  0  0  0  0  0  0  0  0
    0.7754    2.3503   -0.4199 H   0  0  0  0  0  0  0  0  0  0  0  0
   -2.4750    4.7606    1.1789 H   0  0  0  0  0  0  0  0  0  0  0  0
   -3.9250    2.6852    1.2908 H   0  0  0  0  0  0  0  0  0  0  0  0
   -0.6660   -3.5403   -0.5161 N   0  0  0  0  0  0  0  0  0  0  0  0
   -0.2452   -4.5420   -0.7175 N   0  0  0  0  0  0  0  0  0  0  0  0
   -3.2278    0.3256    0.7059 O   0  0  0  0  0  0  0  0  0  0  0  0
   -2.8127   -1.0181    0.3798 C   0  0  0  0  0  0  0  0  0  0  0  0
   -3.6757   -1.6441    0.5980 H   0  0  0  0  0  0  0  0  0  0  0  0
   -1.9643   -1.3196    0.9988 H   0  0  0  0  0  0  0  0  0  0  0  0
   -2.5596   -1.0909   -0.6822 H   0  0  0  0  0  0  0  0  0  0  0  0
  1  6  1  0  0  0  0
  2  1  2  0  0  0  0
  2  3  1  0  0  0  0
  3  4  2  0  0  0  0
  4  5  1  0  0  0  0
  4  9  1  0  0  0  0
  5 10  1  0  0  0  0
  6 13  1  0  0  0  0
  6  5  2  0  0  0  0
  7  1  1  0  0  0  0
  8  2  1  0  0  0  0
 12 11  3  0  0  0  0
 14 15  1  0  0  0  0
 14 13  1  0  0  0  0
 14 16  1  0  0  0  0
 17 14  1  0  0  0  0
M  RAD  1   3   2
M  END
