Coordinates from ORCA-job 4-MeO-Ph-N2+-B3LYPG-6-31G_dp-MTMO-d009-169-n900
 OpenBabel09051907383D

 17 16  0  0  0  0  0  0  0  0999 V2000
   -1.0650    1.2704   -0.0082 C   0  0  0  0  0  0  0  0  0  0  0  0
   -0.2627    2.4338   -0.0895 C   0  0  0  0  0  0  0  0  0  0  0  0
   -1.0509    3.4777    0.2060 C   0  0  0  0  0  0  0  0  0  0  0  0
   -2.1573    3.7877    0.9025 C   0  0  0  0  0  0  0  0  0  0  0  0
   -2.9020    2.5923    0.9699 C   0  0  0  0  0  0  0  0  0  0  0  0
   -2.3680    1.3442    0.5420 C   0  0  0  0  0  0  0  0  0  0  0  0
   -0.6449    0.3438   -0.3832 H   0  0  0  0  0  0  0  0  0  0  0  0
    0.7708    2.4401   -0.4168 H   0  0  0  0  0  0  0  0  0  0  0  0
   -2.5377    4.7577    1.1998 H   0  0  0  0  0  0  0  0  0  0  0  0
   -3.9374    2.6468    1.2952 H   0  0  0  0  0  0  0  0  0  0  0  0
   -0.8101   -3.6499   -0.4817 N   0  0  0  0  0  0  0  0  0  0  0  0
   -0.4159   -4.6639   -0.6753 N   0  0  0  0  0  0  0  0  0  0  0  0
   -3.1821    0.3095    0.6918 O   0  0  0  0  0  0  0  0  0  0  0  0
   -2.7325   -1.0210    0.3571 C   0  0  0  0  0  0  0  0  0  0  0  0
   -3.5794   -1.6706    0.5693 H   0  0  0  0  0  0  0  0  0  0  0  0
   -1.8781   -1.3053    0.9759 H   0  0  0  0  0  0  0  0  0  0  0  0
   -2.4762   -1.0799   -0.7049 H   0  0  0  0  0  0  0  0  0  0  0  0
  1  6  1  0  0  0  0
  2  1  2  0  0  0  0
  2  3  1  0  0  0  0
  3  4  2  0  0  0  0
  4  5  1  0  0  0  0
  4  9  1  0  0  0  0
  5 10  1  0  0  0  0
  6 13  1  0  0  0  0
  6  5  2  0  0  0  0
  7  1  1  0  0  0  0
  8  2  1  0  0  0  0
 12 11  3  0  0  0  0
 14 15  1  0  0  0  0
 14 13  1  0  0  0  0
 14 16  1  0  0  0  0
 17 14  1  0  0  0  0
M  RAD  1   3   2
M  END
