Coordinates from ORCA-job 4-MeO-Ph-N2+-B3LYPG-6-31G_dp-MTMO-d009-169-n900
 OpenBabel09051907383D

 17 16  0  0  0  0  0  0  0  0999 V2000
   -0.7210    2.1838    0.0011 C   0  0  0  0  0  0  0  0  0  0  0  0
   -0.3173    3.5409    0.0064 C   0  0  0  0  0  0  0  0  0  0  0  0
   -1.3958    4.2715    0.3226 C   0  0  0  0  0  0  0  0  0  0  0  0
   -2.5608    4.1872    0.9853 C   0  0  0  0  0  0  0  0  0  0  0  0
   -2.8986    2.8178    0.9666 C   0  0  0  0  0  0  0  0  0  0  0  0
   -1.9947    1.8213    0.5020 C   0  0  0  0  0  0  0  0  0  0  0  0
   -0.0237    1.4554   -0.3966 H   0  0  0  0  0  0  0  0  0  0  0  0
    0.6713    3.8843   -0.2768 H   0  0  0  0  0  0  0  0  0  0  0  0
   -3.2316    4.9739    1.3102 H   0  0  0  0  0  0  0  0  0  0  0  0
   -3.9076    2.5325    1.2523 H   0  0  0  0  0  0  0  0  0  0  0  0
   -3.1175   -8.0952   -0.3495 N   0  0  0  0  0  0  0  0  0  0  0  0
   -3.3710   -9.1688   -0.4186 N   0  0  0  0  0  0  0  0  0  0  0  0
   -2.4537    0.5793    0.5712 O   0  0  0  0  0  0  0  0  0  0  0  0
   -1.6153   -0.5300    0.1860 C   0  0  0  0  0  0  0  0  0  0  0  0
   -2.2284   -1.4164    0.3364 H   0  0  0  0  0  0  0  0  0  0  0  0
   -0.7265   -0.5775    0.8210 H   0  0  0  0  0  0  0  0  0  0  0  0
   -1.3372   -0.4467   -0.8697 H   0  0  0  0  0  0  0  0  0  0  0  0
  1  2  2  0  0  0  0
  1  6  1  0  0  0  0
  2  3  1  0  0  0  0
  3  4  2  0  0  0  0
  4  9  1  0  0  0  0
  5  4  1  0  0  0  0
  5 10  1  0  0  0  0
  6 13  1  0  0  0  0
  6  5  2  0  0  0  0
  7  1  1  0  0  0  0
  8  2  1  0  0  0  0
 12 11  3  0  0  0  0
 14 15  1  0  0  0  0
 14 13  1  0  0  0  0
 14 16  1  0  0  0  0
 17 14  1  0  0  0  0
M  RAD  1   3   2
M  END
