Coordinates from ORCA-job 4-MeO-Ph-N2+-B3LYPG-6-31G_dp-MTMO-d009-169-n900
 OpenBabel09051907383D

 17 16  0  0  0  0  0  0  0  0999 V2000
   -0.7413    2.0383   -0.0074 C   0  0  0  0  0  0  0  0  0  0  0  0
   -0.3374    3.3952    0.0120 C   0  0  0  0  0  0  0  0  0  0  0  0
   -1.4170    4.1233    0.3302 C   0  0  0  0  0  0  0  0  0  0  0  0
   -2.5846    4.0330    0.9876 C   0  0  0  0  0  0  0  0  0  0  0  0
   -2.9227    2.6641    0.9549 C   0  0  0  0  0  0  0  0  0  0  0  0
   -2.0172    1.6715    0.4850 C   0  0  0  0  0  0  0  0  0  0  0  0
   -0.0425    1.3134   -0.4089 H   0  0  0  0  0  0  0  0  0  0  0  0
    0.6525    3.7409   -0.2640 H   0  0  0  0  0  0  0  0  0  0  0  0
   -3.2566    4.8169    1.3169 H   0  0  0  0  0  0  0  0  0  0  0  0
   -3.9329    2.3764    1.2339 H   0  0  0  0  0  0  0  0  0  0  0  0
   -2.9569   -6.9783   -0.2434 N   0  0  0  0  0  0  0  0  0  0  0  0
   -3.2029   -8.0537   -0.3106 N   0  0  0  0  0  0  0  0  0  0  0  0
   -2.4767    0.4291    0.5411 O   0  0  0  0  0  0  0  0  0  0  0  0
   -1.6370   -0.6771    0.1495 C   0  0  0  0  0  0  0  0  0  0  0  0
   -2.2506   -1.5647    0.2902 H   0  0  0  0  0  0  0  0  0  0  0  0
   -0.7505   -0.7300    0.7873 H   0  0  0  0  0  0  0  0  0  0  0  0
   -1.3553   -0.5849   -0.9045 H   0  0  0  0  0  0  0  0  0  0  0  0
  1  2  2  0  0  0  0
  1  6  1  0  0  0  0
  2  3  1  0  0  0  0
  3  4  2  0  0  0  0
  4  9  1  0  0  0  0
  5  4  1  0  0  0  0
  5 10  1  0  0  0  0
  6 13  1  0  0  0  0
  6  5  2  0  0  0  0
  7  1  1  0  0  0  0
  8  2  1  0  0  0  0
 12 11  3  0  0  0  0
 14 15  1  0  0  0  0
 14 13  1  0  0  0  0
 14 16  1  0  0  0  0
 17 14  1  0  0  0  0
M  RAD  1   3   2
M  END
