Coordinates from ORCA-job 4-MeO-Ph-N2+-B3LYPG-6-31G_dp-MTMO-d009-169-n900
 OpenBabel09051907383D

 17 16  0  0  0  0  0  0  0  0999 V2000
   -0.7536    1.9247   -0.0144 C   0  0  0  0  0  0  0  0  0  0  0  0
   -0.3662    3.2860    0.0232 C   0  0  0  0  0  0  0  0  0  0  0  0
   -1.4561    3.9981    0.3429 C   0  0  0  0  0  0  0  0  0  0  0  0
   -2.6258    3.8858    0.9935 C   0  0  0  0  0  0  0  0  0  0  0  0
   -2.9474    2.5134    0.9431 C   0  0  0  0  0  0  0  0  0  0  0  0
   -2.0277    1.5370    0.4667 C   0  0  0  0  0  0  0  0  0  0  0  0
   -0.0441    1.2129   -0.4204 H   0  0  0  0  0  0  0  0  0  0  0  0
    0.6211    3.6464   -0.2430 H   0  0  0  0  0  0  0  0  0  0  0  0
   -3.3090    4.6576    1.3281 H   0  0  0  0  0  0  0  0  0  0  0  0
   -3.9557    2.2107    1.2129 H   0  0  0  0  0  0  0  0  0  0  0  0
   -2.8662   -6.0107   -0.1384 N   0  0  0  0  0  0  0  0  0  0  0  0
   -3.1194   -7.0851   -0.1945 N   0  0  0  0  0  0  0  0  0  0  0  0
   -2.4727    0.2888    0.5062 O   0  0  0  0  0  0  0  0  0  0  0  0
   -1.6182   -0.8034    0.1065 C   0  0  0  0  0  0  0  0  0  0  0  0
   -2.2215   -1.7000    0.2348 H   0  0  0  0  0  0  0  0  0  0  0  0
   -0.7340   -0.8524    0.7477 H   0  0  0  0  0  0  0  0  0  0  0  0
   -1.3330   -0.6963   -0.9451 H   0  0  0  0  0  0  0  0  0  0  0  0
  1  2  2  0  0  0  0
  1  6  1  0  0  0  0
  2  3  1  0  0  0  0
  3  4  2  0  0  0  0
  4  9  1  0  0  0  0
  5  4  1  0  0  0  0
  5 10  1  0  0  0  0
  6 13  1  0  0  0  0
  6  5  2  0  0  0  0
  7  1  1  0  0  0  0
  8  2  1  0  0  0  0
 12 11  3  0  0  0  0
 14 15  1  0  0  0  0
 14 13  1  0  0  0  0
 14 16  1  0  0  0  0
 17 14  1  0  0  0  0
M  RAD  1   3   2
M  END
