Coordinates from ORCA-job 4-MeO-Ph-N2+-B3LYPG-6-31G_dp-MTMO-d009-169-n900
 OpenBabel09051907383D

 17 16  0  0  0  0  0  0  0  0999 V2000
   -2.0548   -0.2059    0.1853 C   0  0  0  0  0  0  0  0  0  0  0  0
   -0.7030   -0.2910   -0.2413 C   0  0  0  0  0  0  0  0  0  0  0  0
   -0.1881    0.9406   -0.1714 C   0  0  0  0  0  0  0  0  0  0  0  0
   -0.4925    2.2053    0.1636 C   0  0  0  0  0  0  0  0  0  0  0  0
   -1.8409    2.2049    0.5741 C   0  0  0  0  0  0  0  0  0  0  0  0
   -2.6200    1.0226    0.5891 C   0  0  0  0  0  0  0  0  0  0  0  0
   -2.6214   -1.1301    0.1810 H   0  0  0  0  0  0  0  0  0  0  0  0
   -0.2277   -1.2097   -0.5578 H   0  0  0  0  0  0  0  0  0  0  0  0
    0.1336    3.0872    0.1379 H   0  0  0  0  0  0  0  0  0  0  0  0
   -2.2843    3.1464    0.8845 H   0  0  0  0  0  0  0  0  0  0  0  0
    2.1161    0.8591   -0.8823 N   0  0  0  0  0  0  0  0  0  0  0  0
    3.1692    0.8238   -1.2124 N   0  0  0  0  0  0  0  0  0  0  0  0
   -3.8783    1.1797    1.0005 O   0  0  0  0  0  0  0  0  0  0  0  0
   -4.7583    0.0441    1.0580 C   0  0  0  0  0  0  0  0  0  0  0  0
   -5.7097    0.4344    1.4141 H   0  0  0  0  0  0  0  0  0  0  0  0
   -4.3801   -0.7035    1.7631 H   0  0  0  0  0  0  0  0  0  0  0  0
   -4.8894   -0.3945    0.0636 H   0  0  0  0  0  0  0  0  0  0  0  0
  1  6  2  0  0  0  0
  2  3  2  0  0  0  0
  2  1  1  0  0  0  0
  3  4  1  0  0  0  0
  4  5  2  0  0  0  0
  5  6  1  0  0  0  0
  5 10  1  0  0  0  0
  6 13  1  0  0  0  0
  7  1  1  0  0  0  0
  8  2  1  0  0  0  0
  9  4  1  0  0  0  0
 12 11  3  0  0  0  0
 13 14  1  0  0  0  0
 14 15  1  0  0  0  0
 14 16  1  0  0  0  0
 17 14  1  0  0  0  0
M  RAD  1   3   2
M  END
