Coordinates from ORCA-job 4-MeO-Ph-N2+-B3LYPG-6-31G_dp-MTMO-d009-169-n900
 OpenBabel09051907383D

 17 16  0  0  0  0  0  0  0  0999 V2000
   -1.6324    0.6931    0.1111 C   0  0  0  0  0  0  0  0  0  0  0  0
   -0.4239    1.3929   -0.1281 C   0  0  0  0  0  0  0  0  0  0  0  0
   -0.6891    2.6951    0.0421 C   0  0  0  0  0  0  0  0  0  0  0  0
   -1.5242    3.5197    0.6955 C   0  0  0  0  0  0  0  0  0  0  0  0
   -2.6925    2.7639    0.9240 C   0  0  0  0  0  0  0  0  0  0  0  0
   -2.7508    1.3675    0.6573 C   0  0  0  0  0  0  0  0  0  0  0  0
   -1.6567   -0.3597   -0.1471 H   0  0  0  0  0  0  0  0  0  0  0  0
    0.4931    0.9230   -0.4664 H   0  0  0  0  0  0  0  0  0  0  0  0
   -1.4463    4.5864    0.8712 H   0  0  0  0  0  0  0  0  0  0  0  0
   -3.5879    3.2844    1.2537 H   0  0  0  0  0  0  0  0  0  0  0  0
    2.2259   -2.6111   -1.3111 N   0  0  0  0  0  0  0  0  0  0  0  0
    2.8543   -3.4805   -1.5773 N   0  0  0  0  0  0  0  0  0  0  0  0
   -3.9105    0.7933    0.9473 O   0  0  0  0  0  0  0  0  0  0  0  0
   -4.0752   -0.6311    0.7930 C   0  0  0  0  0  0  0  0  0  0  0  0
   -5.0994   -0.8351    1.0979 H   0  0  0  0  0  0  0  0  0  0  0  0
   -3.3780   -1.1698    1.4405 H   0  0  0  0  0  0  0  0  0  0  0  0
   -3.9360   -0.9185   -0.2543 H   0  0  0  0  0  0  0  0  0  0  0  0
  1  6  2  0  0  0  0
  2  3  2  0  0  0  0
  2  1  1  0  0  0  0
  3  4  1  0  0  0  0
  4  9  1  0  0  0  0
  4  5  2  0  0  0  0
  5 10  1  0  0  0  0
  6  5  1  0  0  0  0
  6 13  1  0  0  0  0
  7  1  1  0  0  0  0
  8  2  1  0  0  0  0
 12 11  3  0  0  0  0
 14 13  1  0  0  0  0
 14 15  1  0  0  0  0
 14 16  1  0  0  0  0
 17 14  1  0  0  0  0
M  RAD  1   3   2
M  END
