Coordinates from ORCA-job 4-MeO-Ph-N2+-B3LYPG-6-31G_dp-MTMO-d009-169-n900
 OpenBabel09051907383D

 17 16  0  0  0  0  0  0  0  0999 V2000
   -0.7616    1.8292   -0.0203 C   0  0  0  0  0  0  0  0  0  0  0  0
   -0.3966    3.1956    0.0445 C   0  0  0  0  0  0  0  0  0  0  0  0
   -1.4999    3.8864    0.3669 C   0  0  0  0  0  0  0  0  0  0  0  0
   -2.6718    3.7423    1.0080 C   0  0  0  0  0  0  0  0  0  0  0  0
   -2.9713    2.3662    0.9307 C   0  0  0  0  0  0  0  0  0  0  0  0
   -2.0327    1.4123    0.4444 C   0  0  0  0  0  0  0  0  0  0  0  0
   -0.0378    1.1361   -0.4336 H   0  0  0  0  0  0  0  0  0  0  0  0
    0.5870    3.5758   -0.2073 H   0  0  0  0  0  0  0  0  0  0  0  0
   -3.3702    4.4967    1.3509 H   0  0  0  0  0  0  0  0  0  0  0  0
   -3.9767    2.0430    1.1871 H   0  0  0  0  0  0  0  0  0  0  0  0
   -2.8087   -5.1330   -0.0295 N   0  0  0  0  0  0  0  0  0  0  0  0
   -3.0810   -6.2035   -0.0609 N   0  0  0  0  0  0  0  0  0  0  0  0
   -2.4579    0.1567    0.4601 O   0  0  0  0  0  0  0  0  0  0  0  0
   -1.5834   -0.9164    0.0499 C   0  0  0  0  0  0  0  0  0  0  0  0
   -2.1708   -1.8262    0.1613 H   0  0  0  0  0  0  0  0  0  0  0  0
   -0.7020   -0.9592    0.6955 H   0  0  0  0  0  0  0  0  0  0  0  0
   -1.2939   -0.7886   -0.9982 H   0  0  0  0  0  0  0  0  0  0  0  0
  1  2  2  0  0  0  0
  1  6  1  0  0  0  0
  2  3  1  0  0  0  0
  3  4  2  0  0  0  0
  4  9  1  0  0  0  0
  5  4  1  0  0  0  0
  5 10  1  0  0  0  0
  6 13  1  0  0  0  0
  6  5  2  0  0  0  0
  7  1  1  0  0  0  0
  8  2  1  0  0  0  0
 12 11  3  0  0  0  0
 14 15  1  0  0  0  0
 14 13  1  0  0  0  0
 14 16  1  0  0  0  0
 17 14  1  0  0  0  0
M  RAD  1   3   2
M  END
