Coordinates from ORCA-job 4-MeO-Ph-N2+-B3LYPG-6-31G_dp-MTMO-d009-169-n900
 OpenBabel09051907383D

 17 16  0  0  0  0  0  0  0  0999 V2000
   -1.7854    0.2786    0.1343 C   0  0  0  0  0  0  0  0  0  0  0  0
   -0.4597    0.6911   -0.1622 C   0  0  0  0  0  0  0  0  0  0  0  0
   -0.4493    2.0239   -0.0778 C   0  0  0  0  0  0  0  0  0  0  0  0
   -1.0833    3.0559    0.5014 C   0  0  0  0  0  0  0  0  0  0  0  0
   -2.3776    2.5762    0.7926 C   0  0  0  0  0  0  0  0  0  0  0  0
   -2.7288    1.2073    0.6321 C   0  0  0  0  0  0  0  0  0  0  0  0
   -2.0294   -0.7634   -0.0386 H   0  0  0  0  0  0  0  0  0  0  0  0
    0.3420    0.0223   -0.4654 H   0  0  0  0  0  0  0  0  0  0  0  0
   -0.7841    4.0934    0.5897 H   0  0  0  0  0  0  0  0  0  0  0  0
   -3.1387    3.2943    1.0862 H   0  0  0  0  0  0  0  0  0  0  0  0
    2.2473   -1.0312   -1.1367 N   0  0  0  0  0  0  0  0  0  0  0  0
    3.1599   -1.5556   -1.4713 N   0  0  0  0  0  0  0  0  0  0  0  0
   -3.9782    0.9098    0.9693 O   0  0  0  0  0  0  0  0  0  0  0  0
   -4.4404   -0.4539    0.9061 C   0  0  0  0  0  0  0  0  0  0  0  0
   -5.4793   -0.4192    1.2278 H   0  0  0  0  0  0  0  0  0  0  0  0
   -3.8611   -1.0878    1.5834 H   0  0  0  0  0  0  0  0  0  0  0  0
   -4.3832   -0.8283   -0.1213 H   0  0  0  0  0  0  0  0  0  0  0  0
  1  6  2  0  0  0  0
  2  3  2  0  0  0  0
  2  1  1  0  0  0  0
  3  4  1  0  0  0  0
  4  9  1  0  0  0  0
  4  5  2  0  0  0  0
  5 10  1  0  0  0  0
  6  5  1  0  0  0  0
  6 13  1  0  0  0  0
  7  1  1  0  0  0  0
  8  2  1  0  0  0  0
 12 11  3  0  0  0  0
 14 13  1  0  0  0  0
 14 15  1  0  0  0  0
 14 16  1  0  0  0  0
 17 14  1  0  0  0  0
M  RAD  1   3   2
M  END
