Coordinates from ORCA-job 4-MeO-Ph-N2+-B3LYPG-6-31G_dp-MTMO-d009-169-n900
 OpenBabel09051907383D

 17 16  0  0  0  0  0  0  0  0999 V2000
   -0.6451    2.6818    0.0337 C   0  0  0  0  0  0  0  0  0  0  0  0
   -0.2660    4.0460    0.0208 C   0  0  0  0  0  0  0  0  0  0  0  0
   -1.3562    4.7607    0.3327 C   0  0  0  0  0  0  0  0  0  0  0  0
   -2.5171    4.6637    1.0009 C   0  0  0  0  0  0  0  0  0  0  0  0
   -2.8301    3.2883    1.0002 C   0  0  0  0  0  0  0  0  0  0  0  0
   -1.9101    2.3027    0.5441 C   0  0  0  0  0  0  0  0  0  0  0  0
    0.0638    1.9613   -0.3579 H   0  0  0  0  0  0  0  0  0  0  0  0
    0.7152    4.4037   -0.2703 H   0  0  0  0  0  0  0  0  0  0  0  0
   -3.2009    5.4420    1.3186 H   0  0  0  0  0  0  0  0  0  0  0  0
   -3.8327    2.9884    1.2933 H   0  0  0  0  0  0  0  0  0  0  0  0
   -3.6969  -11.7504   -0.6359 N   0  0  0  0  0  0  0  0  0  0  0  0
   -4.0175  -12.8049   -0.7188 N   0  0  0  0  0  0  0  0  0  0  0  0
   -2.3463    1.0535    0.6303 O   0  0  0  0  0  0  0  0  0  0  0  0
   -1.4893   -0.0449    0.2550 C   0  0  0  0  0  0  0  0  0  0  0  0
   -2.0859   -0.9403    0.4183 H   0  0  0  0  0  0  0  0  0  0  0  0
   -0.5976   -0.0691    0.8872 H   0  0  0  0  0  0  0  0  0  0  0  0
   -1.2166    0.0308   -0.8027 H   0  0  0  0  0  0  0  0  0  0  0  0
  1  6  1  0  0  0  0
  2  1  2  0  0  0  0
  2  3  1  0  0  0  0
  3  4  2  0  0  0  0
  4  9  1  0  0  0  0
  5  4  1  0  0  0  0
  5 10  1  0  0  0  0
  6 13  1  0  0  0  0
  6  5  2  0  0  0  0
  7  1  1  0  0  0  0
  8  2  1  0  0  0  0
 12 11  3  0  0  0  0
 14 15  1  0  0  0  0
 14 13  1  0  0  0  0
 14 16  1  0  0  0  0
 17 14  1  0  0  0  0
M  RAD  1   3   2
M  END
