Coordinates from ORCA-job 4-MeO-Ph-N2+-B3LYPG-6-31G_dp-MTMO-d009-169-n900
 OpenBabel09051907383D

 17 16  0  0  0  0  0  0  0  0999 V2000
   -0.7045    2.2946    0.0077 C   0  0  0  0  0  0  0  0  0  0  0  0
   -0.3058    3.6532    0.0057 C   0  0  0  0  0  0  0  0  0  0  0  0
   -1.3864    4.3812    0.3207 C   0  0  0  0  0  0  0  0  0  0  0  0
   -2.5498    4.2959    0.9859 C   0  0  0  0  0  0  0  0  0  0  0  0
   -2.8826    2.9252    0.9744 C   0  0  0  0  0  0  0  0  0  0  0  0
   -1.9759    1.9299    0.5129 C   0  0  0  0  0  0  0  0  0  0  0  0
   -0.0053    1.5669   -0.3878 H   0  0  0  0  0  0  0  0  0  0  0  0
    0.6810    3.9990   -0.2809 H   0  0  0  0  0  0  0  0  0  0  0  0
   -3.2229    5.0817    1.3083 H   0  0  0  0  0  0  0  0  0  0  0  0
   -3.8900    2.6376    1.2634 H   0  0  0  0  0  0  0  0  0  0  0  0
   -3.2486   -8.9159   -0.4199 N   0  0  0  0  0  0  0  0  0  0  0  0
   -3.5111   -9.9871   -0.4909 N   0  0  0  0  0  0  0  0  0  0  0  0
   -2.4302    0.6865    0.5889 O   0  0  0  0  0  0  0  0  0  0  0  0
   -1.5884   -0.4214    0.2072 C   0  0  0  0  0  0  0  0  0  0  0  0
   -2.1981   -1.3093    0.3627 H   0  0  0  0  0  0  0  0  0  0  0  0
   -0.6984   -0.4629    0.8409 H   0  0  0  0  0  0  0  0  0  0  0  0
   -1.3125   -0.3419   -0.8494 H   0  0  0  0  0  0  0  0  0  0  0  0
  1  6  1  0  0  0  0
  2  1  2  0  0  0  0
  2  3  1  0  0  0  0
  3  4  2  0  0  0  0
  4  9  1  0  0  0  0
  5  4  1  0  0  0  0
  5 10  1  0  0  0  0
  6 13  1  0  0  0  0
  6  5  2  0  0  0  0
  7  1  1  0  0  0  0
  8  2  1  0  0  0  0
 12 11  3  0  0  0  0
 14 15  1  0  0  0  0
 14 13  1  0  0  0  0
 14 16  1  0  0  0  0
 17 14  1  0  0  0  0
M  RAD  1   3   2
M  END
