Coordinates from ORCA-job 4-MeO-Ph-N2+-B3LYPG-6-31G_dp-MTMO-d009-169-n900
 OpenBabel09051907383D

 17 16  0  0  0  0  0  0  0  0999 V2000
   -1.8090    0.2449    0.1369 C   0  0  0  0  0  0  0  0  0  0  0  0
   -0.4773    0.6314   -0.1644 C   0  0  0  0  0  0  0  0  0  0  0  0
   -0.4394    1.9648   -0.0890 C   0  0  0  0  0  0  0  0  0  0  0  0
   -1.0506    3.0116    0.4879 C   0  0  0  0  0  0  0  0  0  0  0  0
   -2.3532    2.5578    0.7842 C   0  0  0  0  0  0  0  0  0  0  0  0
   -2.7322    1.1952    0.6320 C   0  0  0  0  0  0  0  0  0  0  0  0
   -2.0733   -0.7935   -0.0274 H   0  0  0  0  0  0  0  0  0  0  0  0
    0.3153   -0.0496   -0.4631 H   0  0  0  0  0  0  0  0  0  0  0  0
   -0.7329    4.0443    0.5678 H   0  0  0  0  0  0  0  0  0  0  0  0
   -3.1005    3.2924    1.0726 H   0  0  0  0  0  0  0  0  0  0  0  0
    2.2987   -0.9316   -1.1377 N   0  0  0  0  0  0  0  0  0  0  0  0
    3.2410   -1.3979   -1.4756 N   0  0  0  0  0  0  0  0  0  0  0  0
   -3.9865    0.9251    0.9740 O   0  0  0  0  0  0  0  0  0  0  0  0
   -4.4769   -0.4291    0.9186 C   0  0  0  0  0  0  0  0  0  0  0  0
   -5.5140   -0.3714    1.2427 H   0  0  0  0  0  0  0  0  0  0  0  0
   -3.9089   -1.0715    1.5974 H   0  0  0  0  0  0  0  0  0  0  0  0
   -4.4299   -0.8095   -0.1072 H   0  0  0  0  0  0  0  0  0  0  0  0
  1  6  2  0  0  0  0
  2  3  2  0  0  0  0
  2  1  1  0  0  0  0
  3  4  1  0  0  0  0
  4  9  1  0  0  0  0
  4  5  2  0  0  0  0
  5 10  1  0  0  0  0
  6  5  1  0  0  0  0
  6 13  1  0  0  0  0
  7  1  1  0  0  0  0
  8  2  1  0  0  0  0
 12 11  3  0  0  0  0
 14 13  1  0  0  0  0
 14 15  1  0  0  0  0
 14 16  1  0  0  0  0
 17 14  1  0  0  0  0
M  RAD  1   3   2
M  END
