Coordinates from ORCA-job 4-MeO-Ph-N2+-B3LYPG-6-31G_dp-MTMO-d009-169-n900
 OpenBabel09051907383D

 17 16  0  0  0  0  0  0  0  0999 V2000
   -1.6394    0.6530    0.1126 C   0  0  0  0  0  0  0  0  0  0  0  0
   -0.4174    1.3277   -0.1315 C   0  0  0  0  0  0  0  0  0  0  0  0
   -0.6590    2.6355    0.0302 C   0  0  0  0  0  0  0  0  0  0  0  0
   -1.4793    3.4803    0.6766 C   0  0  0  0  0  0  0  0  0  0  0  0
   -2.6617    2.7483    0.9103 C   0  0  0  0  0  0  0  0  0  0  0  0
   -2.7455    1.3515    0.6535 C   0  0  0  0  0  0  0  0  0  0  0  0
   -1.6834   -0.4007   -0.1393 H   0  0  0  0  0  0  0  0  0  0  0  0
    0.4895    0.8367   -0.4675 H   0  0  0  0  0  0  0  0  0  0  0  0
   -1.3806    4.5463    0.8456 H   0  0  0  0  0  0  0  0  0  0  0  0
   -3.5468    3.2876    1.2373 H   0  0  0  0  0  0  0  0  0  0  0  0
    2.2038   -2.4379   -1.2864 N   0  0  0  0  0  0  0  0  0  0  0  0
    2.8376   -3.3019   -1.5568 N   0  0  0  0  0  0  0  0  0  0  0  0
   -3.9157    0.8006    0.9468 O   0  0  0  0  0  0  0  0  0  0  0  0
   -4.1062   -0.6216    0.8017 C   0  0  0  0  0  0  0  0  0  0  0  0
   -5.1342   -0.8049    1.1072 H   0  0  0  0  0  0  0  0  0  0  0  0
   -3.4194   -1.1687    1.4532 H   0  0  0  0  0  0  0  0  0  0  0  0
   -3.9717   -0.9183   -0.2437 H   0  0  0  0  0  0  0  0  0  0  0  0
  1  6  2  0  0  0  0
  2  3  2  0  0  0  0
  2  1  1  0  0  0  0
  3  4  1  0  0  0  0
  4  9  1  0  0  0  0
  4  5  2  0  0  0  0
  5 10  1  0  0  0  0
  6  5  1  0  0  0  0
  6 13  1  0  0  0  0
  7  1  1  0  0  0  0
  8  2  1  0  0  0  0
 12 11  3  0  0  0  0
 14 13  1  0  0  0  0
 14 15  1  0  0  0  0
 14 16  1  0  0  0  0
 17 14  1  0  0  0  0
M  RAD  1   3   2
M  END
