Coordinates from ORCA-job 4-MeO-Ph-N2+-B3LYPG-6-31G_dp-MTMO-d009-169-n900
 OpenBabel09051907383D

 17 16  0  0  0  0  0  0  0  0999 V2000
   -1.6423    0.5084    0.1173 C   0  0  0  0  0  0  0  0  0  0  0  0
   -0.3775    1.0982   -0.1397 C   0  0  0  0  0  0  0  0  0  0  0  0
   -0.5446    2.4194   -0.0070 C   0  0  0  0  0  0  0  0  0  0  0  0
   -1.3182    3.3313    0.6040 C   0  0  0  0  0  0  0  0  0  0  0  0
   -2.5436    2.6792    0.8525 C   0  0  0  0  0  0  0  0  0  0  0  0
   -2.7079    1.2839    0.6326 C   0  0  0  0  0  0  0  0  0  0  0  0
   -1.7480   -0.5464   -0.1107 H   0  0  0  0  0  0  0  0  0  0  0  0
    0.4936    0.5362   -0.4632 H   0  0  0  0  0  0  0  0  0  0  0  0
   -1.1529    4.3928    0.7470 H   0  0  0  0  0  0  0  0  0  0  0  0
   -3.3944    3.2784    1.1657 H   0  0  0  0  0  0  0  0  0  0  0  0
    1.9781   -1.7568   -1.1504 N   0  0  0  0  0  0  0  0  0  0  0  0
    2.6325   -2.5956   -1.4485 N   0  0  0  0  0  0  0  0  0  0  0  0
   -3.9104    0.8093    0.9329 O   0  0  0  0  0  0  0  0  0  0  0  0
   -4.1821   -0.6021    0.8206 C   0  0  0  0  0  0  0  0  0  0  0  0
   -5.2202   -0.7188    1.1251 H   0  0  0  0  0  0  0  0  0  0  0  0
   -3.5307   -1.1727    1.4884 H   0  0  0  0  0  0  0  0  0  0  0  0
   -4.0611   -0.9312   -0.2167 H   0  0  0  0  0  0  0  0  0  0  0  0
  1  6  2  0  0  0  0
  2  3  2  0  0  0  0
  2  1  1  0  0  0  0
  3  4  1  0  0  0  0
  4  9  1  0  0  0  0
  4  5  2  0  0  0  0
  5 10  1  0  0  0  0
  6  5  1  0  0  0  0
  6 13  1  0  0  0  0
  7  1  1  0  0  0  0
  8  2  1  0  0  0  0
 12 11  3  0  0  0  0
 14 13  1  0  0  0  0
 14 15  1  0  0  0  0
 14 16  1  0  0  0  0
 17 14  1  0  0  0  0
M  RAD  1   3   2
M  END
