Coordinates from ORCA-job 4-MeO-Ph-N2+-B3LYPG-6-31G_dp-MTMO-d009-169-n900
 OpenBabel09051907383D

 17 16  0  0  0  0  0  0  0  0999 V2000
   -1.7286    0.3534    0.1294 C   0  0  0  0  0  0  0  0  0  0  0  0
   -0.4198    0.8266   -0.1529 C   0  0  0  0  0  0  0  0  0  0  0  0
   -0.4725    2.1575   -0.0509 C   0  0  0  0  0  0  0  0  0  0  0  0
   -1.1584    3.1524    0.5337 C   0  0  0  0  0  0  0  0  0  0  0  0
   -2.4322    2.6124    0.8096 C   0  0  0  0  0  0  0  0  0  0  0  0
   -2.7182    1.2312    0.6304 C   0  0  0  0  0  0  0  0  0  0  0  0
   -1.9248   -0.6957   -0.0615 H   0  0  0  0  0  0  0  0  0  0  0  0
    0.4048    0.1892   -0.4626 H   0  0  0  0  0  0  0  0  0  0  0  0
   -0.9046    4.2004    0.6398 H   0  0  0  0  0  0  0  0  0  0  0  0
   -3.2263    3.2913    1.1091 H   0  0  0  0  0  0  0  0  0  0  0  0
    2.1211   -1.2377   -1.1281 N   0  0  0  0  0  0  0  0  0  0  0  0
    2.9425   -1.8973   -1.4596 N   0  0  0  0  0  0  0  0  0  0  0  0
   -3.9549    0.8711    0.9536 O   0  0  0  0  0  0  0  0  0  0  0  0
   -4.3506   -0.5125    0.8750 C   0  0  0  0  0  0  0  0  0  0  0  0
   -5.3921   -0.5306    1.1894 H   0  0  0  0  0  0  0  0  0  0  0  0
   -3.7462   -1.1241    1.5507 H   0  0  0  0  0  0  0  0  0  0  0  0
   -4.2686   -0.8741   -0.1554 H   0  0  0  0  0  0  0  0  0  0  0  0
  1  6  2  0  0  0  0
  2  3  2  0  0  0  0
  2  1  1  0  0  0  0
  3  4  1  0  0  0  0
  4  9  1  0  0  0  0
  4  5  2  0  0  0  0
  5 10  1  0  0  0  0
  6  5  1  0  0  0  0
  6 13  1  0  0  0  0
  7  1  1  0  0  0  0
  8  2  1  0  0  0  0
 12 11  3  0  0  0  0
 14 13  1  0  0  0  0
 14 15  1  0  0  0  0
 14 16  1  0  0  0  0
 17 14  1  0  0  0  0
M  RAD  1   3   2
M  END
