Coordinates from ORCA-job 4-MeO-Ph-N2+-B3LYPG-6-31G_dp-MTMO-d009-169-n900
 OpenBabel09051907383D

 17 16  0  0  0  0  0  0  0  0999 V2000
   -0.7171    2.2108    0.0027 C   0  0  0  0  0  0  0  0  0  0  0  0
   -0.3144    3.5683    0.0059 C   0  0  0  0  0  0  0  0  0  0  0  0
   -1.3932    4.2984    0.3218 C   0  0  0  0  0  0  0  0  0  0  0  0
   -2.5578    4.2141    0.9853 C   0  0  0  0  0  0  0  0  0  0  0  0
   -2.8946    2.8444    0.9685 C   0  0  0  0  0  0  0  0  0  0  0  0
   -1.9902    1.8480    0.5048 C   0  0  0  0  0  0  0  0  0  0  0  0
   -0.0194    1.4824   -0.3945 H   0  0  0  0  0  0  0  0  0  0  0  0
    0.6738    3.9121   -0.2782 H   0  0  0  0  0  0  0  0  0  0  0  0
   -3.2291    5.0007    1.3094 H   0  0  0  0  0  0  0  0  0  0  0  0
   -3.9032    2.5588    1.2552 H   0  0  0  0  0  0  0  0  0  0  0  0
   -3.1492   -8.2965   -0.3672 N   0  0  0  0  0  0  0  0  0  0  0  0
   -3.4047   -9.3696   -0.4368 N   0  0  0  0  0  0  0  0  0  0  0  0
   -2.4482    0.6057    0.5759 O   0  0  0  0  0  0  0  0  0  0  0  0
   -1.6091   -0.5034    0.1916 C   0  0  0  0  0  0  0  0  0  0  0  0
   -2.2215   -1.3900    0.3434 H   0  0  0  0  0  0  0  0  0  0  0  0
   -0.7200   -0.5495    0.8263 H   0  0  0  0  0  0  0  0  0  0  0  0
   -1.3316   -0.4212   -0.8644 H   0  0  0  0  0  0  0  0  0  0  0  0
  1  2  2  0  0  0  0
  1  6  1  0  0  0  0
  2  3  1  0  0  0  0
  3  4  2  0  0  0  0
  4  9  1  0  0  0  0
  5  4  1  0  0  0  0
  5 10  1  0  0  0  0
  6 13  1  0  0  0  0
  6  5  2  0  0  0  0
  7  1  1  0  0  0  0
  8  2  1  0  0  0  0
 12 11  3  0  0  0  0
 14 15  1  0  0  0  0
 14 13  1  0  0  0  0
 14 16  1  0  0  0  0
 17 14  1  0  0  0  0
M  RAD  1   3   2
M  END
