Coordinates from ORCA-job 4-MeO-Ph-N2+-B3LYPG-6-31G_dp-MTMO-d009-169-n900
 OpenBabel09051907383D

 17 16  0  0  0  0  0  0  0  0999 V2000
   -2.2202   -0.1824    0.1443 C   0  0  0  0  0  0  0  0  0  0  0  0
   -0.8690   -0.2221   -0.2822 C   0  0  0  0  0  0  0  0  0  0  0  0
   -0.4413    1.0452   -0.3290 C   0  0  0  0  0  0  0  0  0  0  0  0
   -0.6766    2.2590    0.1929 C   0  0  0  0  0  0  0  0  0  0  0  0
   -2.0217    2.2262    0.6174 C   0  0  0  0  0  0  0  0  0  0  0  0
   -2.7855    1.0267    0.6142 C   0  0  0  0  0  0  0  0  0  0  0  0
   -2.7867   -1.1053    0.0864 H   0  0  0  0  0  0  0  0  0  0  0  0
   -0.3470   -1.1251   -0.5768 H   0  0  0  0  0  0  0  0  0  0  0  0
   -0.0690    3.1556    0.1626 H   0  0  0  0  0  0  0  0  0  0  0  0
   -2.4970    3.1638    0.8930 H   0  0  0  0  0  0  0  0  0  0  0  0
    3.3261    0.7332   -1.0813 N   0  0  0  0  0  0  0  0  0  0  0  0
    4.3994    0.6776   -1.3383 N   0  0  0  0  0  0  0  0  0  0  0  0
   -4.0282    1.1562    1.0616 O   0  0  0  0  0  0  0  0  0  0  0  0
   -4.8838    0.0013    1.1712 C   0  0  0  0  0  0  0  0  0  0  0  0
   -5.8275    0.3798    1.5583 H   0  0  0  0  0  0  0  0  0  0  0  0
   -4.4591   -0.7263    1.8691 H   0  0  0  0  0  0  0  0  0  0  0  0
   -5.0422   -0.4501    0.1864 H   0  0  0  0  0  0  0  0  0  0  0  0
  1  6  2  0  0  0  0
  2  1  1  0  0  0  0
  3  2  2  0  0  0  0
  3  4  1  0  0  0  0
  4  5  2  0  0  0  0
  5 10  1  0  0  0  0
  6  5  1  0  0  0  0
  6 13  1  0  0  0  0
  7  1  1  0  0  0  0
  8  2  1  0  0  0  0
  9  4  1  0  0  0  0
 12 11  3  0  0  0  0
 13 14  1  0  0  0  0
 14 15  1  0  0  0  0
 14 16  1  0  0  0  0
 17 14  1  0  0  0  0
M  RAD  1   3   2
M  END
