Coordinates from ORCA-job 4-MeO-Ph-N2+-B3LYPG-6-31G_dp-MTMO-d009-169-n900
 OpenBabel09051907383D

 17 16  0  0  0  0  0  0  0  0999 V2000
   -2.0720   -0.2048    0.1879 C   0  0  0  0  0  0  0  0  0  0  0  0
   -0.7174   -0.2912   -0.2382 C   0  0  0  0  0  0  0  0  0  0  0  0
   -0.2195    0.9436   -0.1688 C   0  0  0  0  0  0  0  0  0  0  0  0
   -0.5076    2.2077    0.1697 C   0  0  0  0  0  0  0  0  0  0  0  0
   -1.8585    2.2053    0.5798 C   0  0  0  0  0  0  0  0  0  0  0  0
   -2.6376    1.0228    0.5938 C   0  0  0  0  0  0  0  0  0  0  0  0
   -2.6373   -1.1301    0.1787 H   0  0  0  0  0  0  0  0  0  0  0  0
   -0.2389   -1.2087   -0.5540 H   0  0  0  0  0  0  0  0  0  0  0  0
    0.1203    3.0886    0.1434 H   0  0  0  0  0  0  0  0  0  0  0  0
   -2.3008    3.1485    0.8872 H   0  0  0  0  0  0  0  0  0  0  0  0
    2.2409    0.8574   -0.9166 N   0  0  0  0  0  0  0  0  0  0  0  0
    3.2943    0.8225   -1.2463 N   0  0  0  0  0  0  0  0  0  0  0  0
   -3.8958    1.1792    1.0051 O   0  0  0  0  0  0  0  0  0  0  0  0
   -4.7742    0.0422    1.0650 C   0  0  0  0  0  0  0  0  0  0  0  0
   -5.7259    0.4317    1.4213 H   0  0  0  0  0  0  0  0  0  0  0  0
   -4.3941   -0.7037    1.7708 H   0  0  0  0  0  0  0  0  0  0  0  0
   -4.9054   -0.3975    0.0710 H   0  0  0  0  0  0  0  0  0  0  0  0
  1  6  2  0  0  0  0
  2  3  2  0  0  0  0
  2  1  1  0  0  0  0
  3  4  1  0  0  0  0
  4  5  2  0  0  0  0
  5  6  1  0  0  0  0
  5 10  1  0  0  0  0
  6 13  1  0  0  0  0
  7  1  1  0  0  0  0
  8  2  1  0  0  0  0
  9  4  1  0  0  0  0
 12 11  3  0  0  0  0
 13 14  1  0  0  0  0
 14 15  1  0  0  0  0
 14 16  1  0  0  0  0
 17 14  1  0  0  0  0
M  RAD  1   3   2
M  END
