Coordinates from ORCA-job 4-MeO-Ph-N2+-B3LYPG-6-31G_dp-MTMO-d009-169-n900
 OpenBabel09051907383D

 17 16  0  0  0  0  0  0  0  0999 V2000
   -2.1346   -0.1980    0.1336 C   0  0  0  0  0  0  0  0  0  0  0  0
   -0.7833   -0.2674   -0.2944 C   0  0  0  0  0  0  0  0  0  0  0  0
   -0.3288    0.9889   -0.3262 C   0  0  0  0  0  0  0  0  0  0  0  0
   -0.5619    2.2168    0.1612 C   0  0  0  0  0  0  0  0  0  0  0  0
   -1.9073    2.2087    0.5850 C   0  0  0  0  0  0  0  0  0  0  0  0
   -2.6865    1.0215    0.5893 C   0  0  0  0  0  0  0  0  0  0  0  0
   -2.7140   -1.1132    0.0801 H   0  0  0  0  0  0  0  0  0  0  0  0
   -0.2851   -1.1805   -0.5963 H   0  0  0  0  0  0  0  0  0  0  0  0
    0.0640    3.1003    0.1334 H   0  0  0  0  0  0  0  0  0  0  0  0
   -2.3634    3.1528    0.8696 H   0  0  0  0  0  0  0  0  0  0  0  0
    2.6099    0.8235   -0.9073 N   0  0  0  0  0  0  0  0  0  0  0  0
    3.6833    0.7791   -1.1647 N   0  0  0  0  0  0  0  0  0  0  0  0
   -3.9317    1.1702    1.0296 O   0  0  0  0  0  0  0  0  0  0  0  0
   -4.8001    0.0264    1.1390 C   0  0  0  0  0  0  0  0  0  0  0  0
   -5.7411    0.4161    1.5219 H   0  0  0  0  0  0  0  0  0  0  0  0
   -4.3874   -0.7050    1.8406 H   0  0  0  0  0  0  0  0  0  0  0  0
   -4.9614   -0.4268    0.1555 H   0  0  0  0  0  0  0  0  0  0  0  0
  1  6  2  0  0  0  0
  2  1  1  0  0  0  0
  3  2  2  0  0  0  0
  3  4  1  0  0  0  0
  4  5  2  0  0  0  0
  5  6  1  0  0  0  0
  5 10  1  0  0  0  0
  6 13  1  0  0  0  0
  7  1  1  0  0  0  0
  8  2  1  0  0  0  0
  9  4  1  0  0  0  0
 12 11  3  0  0  0  0
 13 14  1  0  0  0  0
 14 15  1  0  0  0  0
 14 16  1  0  0  0  0
 17 14  1  0  0  0  0
M  RAD  1   3   2
M  END
