Coordinates from ORCA-job 4-MeO-Ph-N2+-B3LYPG-6-31G_dp-MTMO-d009-169-n900
 OpenBabel09051907383D

 17 17  0  0  0  0  0  0  0  0999 V2000
   -1.9620   -0.2188    0.1569 C   0  0  0  0  0  0  0  0  0  0  0  0
   -0.6459   -0.2732   -0.2550 C   0  0  0  0  0  0  0  0  0  0  0  0
    0.0912    0.9256   -0.2557 C   0  0  0  0  0  0  0  0  0  0  0  0
   -0.4344    2.1759    0.1395 C   0  0  0  0  0  0  0  0  0  0  0  0
   -1.7460    2.2060    0.5459 C   0  0  0  0  0  0  0  0  0  0  0  0
   -2.5277    1.0180    0.5614 C   0  0  0  0  0  0  0  0  0  0  0  0
   -2.5501   -1.1277    0.1650 H   0  0  0  0  0  0  0  0  0  0  0  0
   -0.1942   -1.2075   -0.5686 H   0  0  0  0  0  0  0  0  0  0  0  0
    0.1748    3.0724    0.1217 H   0  0  0  0  0  0  0  0  0  0  0  0
   -2.2123    3.1318    0.8624 H   0  0  0  0  0  0  0  0  0  0  0  0
    1.4587    0.8721   -0.6835 N   0  0  0  0  0  0  0  0  0  0  0  0
    2.5246    0.8351   -1.0161 N   0  0  0  0  0  0  0  0  0  0  0  0
   -3.7749    1.1726    0.9692 O   0  0  0  0  0  0  0  0  0  0  0  0
   -4.6803    0.0504    1.0339 C   0  0  0  0  0  0  0  0  0  0  0  0
   -5.6213    0.4657    1.3886 H   0  0  0  0  0  0  0  0  0  0  0  0
   -4.3126   -0.6971    1.7425 H   0  0  0  0  0  0  0  0  0  0  0  0
   -4.8171   -0.3879    0.0416 H   0  0  0  0  0  0  0  0  0  0  0  0
  1  7  1  0  0  0  0
  1  6  2  0  0  0  0
  2  1  1  0  0  0  0
  3  2  2  0  0  0  0
  3  4  1  0  0  0  0
  4  5  2  0  0  0  0
  5  6  1  0  0  0  0
  5 10  1  0  0  0  0
  6 13  1  0  0  0  0
  8  2  1  0  0  0  0
  9  4  1  0  0  0  0
 11  3  1  0  0  0  0
 12 11  1  0  0  0  0
 13 14  1  0  0  0  0
 14 15  1  0  0  0  0
 14 16  1  0  0  0  0
 17 14  1  0  0  0  0
M  RAD  2  11   2  12   3
M  END
