Coordinates from ORCA-job 4-MeO-Ph-N2+-B3LYPG-6-31G_dp-MTMO-d009-169-n900
 OpenBabel09051907383D

 17 16  0  0  0  0  0  0  0  0999 V2000
   -0.7252    2.1549   -0.0006 C   0  0  0  0  0  0  0  0  0  0  0  0
   -0.3206    3.5117    0.0070 C   0  0  0  0  0  0  0  0  0  0  0  0
   -1.3988    4.2425    0.3236 C   0  0  0  0  0  0  0  0  0  0  0  0
   -2.5643    4.1580    0.9854 C   0  0  0  0  0  0  0  0  0  0  0  0
   -2.9030    2.7889    0.9644 C   0  0  0  0  0  0  0  0  0  0  0  0
   -1.9995    1.7925    0.4989 C   0  0  0  0  0  0  0  0  0  0  0  0
   -0.0281    1.4266   -0.3990 H   0  0  0  0  0  0  0  0  0  0  0  0
    0.6684    3.8549   -0.2750 H   0  0  0  0  0  0  0  0  0  0  0  0
   -3.2348    4.9446    1.3111 H   0  0  0  0  0  0  0  0  0  0  0  0
   -3.9124    2.5039    1.2490 H   0  0  0  0  0  0  0  0  0  0  0  0
   -3.0838   -7.8783   -0.3299 N   0  0  0  0  0  0  0  0  0  0  0  0
   -3.3355   -8.9523   -0.3987 N   0  0  0  0  0  0  0  0  0  0  0  0
   -2.4594    0.5507    0.5659 O   0  0  0  0  0  0  0  0  0  0  0  0
   -1.6214   -0.5586    0.1796 C   0  0  0  0  0  0  0  0  0  0  0  0
   -2.2352   -1.4448    0.3285 H   0  0  0  0  0  0  0  0  0  0  0  0
   -0.7331   -0.6076    0.8152 H   0  0  0  0  0  0  0  0  0  0  0  0
   -1.3427   -0.4741   -0.8758 H   0  0  0  0  0  0  0  0  0  0  0  0
  1  2  2  0  0  0  0
  1  6  1  0  0  0  0
  2  3  1  0  0  0  0
  3  4  2  0  0  0  0
  4  9  1  0  0  0  0
  5  4  1  0  0  0  0
  5 10  1  0  0  0  0
  6 13  1  0  0  0  0
  6  5  2  0  0  0  0
  7  1  1  0  0  0  0
  8  2  1  0  0  0  0
 12 11  3  0  0  0  0
 14 15  1  0  0  0  0
 14 13  1  0  0  0  0
 14 16  1  0  0  0  0
 17 14  1  0  0  0  0
M  RAD  1   3   2
M  END
