Coordinates from ORCA-job 4-MeO-Ph-N2+-B3LYPG-6-31G_dp-MTMO-d009-169-n900
 OpenBabel09051907383D

 17 16  0  0  0  0  0  0  0  0999 V2000
   -1.6805    0.4246    0.1270 C   0  0  0  0  0  0  0  0  0  0  0  0
   -0.3894    0.9520   -0.1413 C   0  0  0  0  0  0  0  0  0  0  0  0
   -0.4990    2.2792   -0.0263 C   0  0  0  0  0  0  0  0  0  0  0  0
   -1.2315    3.2373    0.5639 C   0  0  0  0  0  0  0  0  0  0  0  0
   -2.4842    2.6445    0.8250 C   0  0  0  0  0  0  0  0  0  0  0  0
   -2.7101    1.2544    0.6293 C   0  0  0  0  0  0  0  0  0  0  0  0
   -1.8329   -0.6284   -0.0824 H   0  0  0  0  0  0  0  0  0  0  0  0
    0.4556    0.3456   -0.4573 H   0  0  0  0  0  0  0  0  0  0  0  0
   -1.0184    4.2926    0.6877 H   0  0  0  0  0  0  0  0  0  0  0  0
   -3.3066    3.2861    1.1300 H   0  0  0  0  0  0  0  0  0  0  0  0
    2.0174   -1.4576   -1.1264 N   0  0  0  0  0  0  0  0  0  0  0  0
    2.7597   -2.2066   -1.4552 N   0  0  0  0  0  0  0  0  0  0  0  0
   -3.9325    0.8383    0.9385 O   0  0  0  0  0  0  0  0  0  0  0  0
   -4.2665   -0.5608    0.8469 C   0  0  0  0  0  0  0  0  0  0  0  0
   -5.3082   -0.6272    1.1544 H   0  0  0  0  0  0  0  0  0  0  0  0
   -3.6399   -1.1505    1.5218 H   0  0  0  0  0  0  0  0  0  0  0  0
   -4.1625   -0.9101   -0.1858 H   0  0  0  0  0  0  0  0  0  0  0  0
  1  6  2  0  0  0  0
  2  3  2  0  0  0  0
  2  1  1  0  0  0  0
  3  4  1  0  0  0  0
  4  9  1  0  0  0  0
  4  5  2  0  0  0  0
  5 10  1  0  0  0  0
  6  5  1  0  0  0  0
  6 13  1  0  0  0  0
  7  1  1  0  0  0  0
  8  2  1  0  0  0  0
 12 11  3  0  0  0  0
 14 13  1  0  0  0  0
 14 15  1  0  0  0  0
 14 16  1  0  0  0  0
 17 14  1  0  0  0  0
M  RAD  1   3   2
M  END
