Coordinates from ORCA-job 4-MeO-Ph-N2+-B3LYPG-6-31G_dp-MTMO-d009-169-n900
 OpenBabel09051907383D

 17 16  0  0  0  0  0  0  0  0999 V2000
   -1.6351    0.6803    0.1117 C   0  0  0  0  0  0  0  0  0  0  0  0
   -0.4221    1.3719   -0.1291 C   0  0  0  0  0  0  0  0  0  0  0  0
   -0.6796    2.6760    0.0383 C   0  0  0  0  0  0  0  0  0  0  0  0
   -1.5098    3.5072    0.6895 C   0  0  0  0  0  0  0  0  0  0  0  0
   -2.6828    2.7592    0.9198 C   0  0  0  0  0  0  0  0  0  0  0  0
   -2.7495    1.3626    0.6563 C   0  0  0  0  0  0  0  0  0  0  0  0
   -1.6659   -0.3728   -0.1445 H   0  0  0  0  0  0  0  0  0  0  0  0
    0.4916    0.8952   -0.4667 H   0  0  0  0  0  0  0  0  0  0  0  0
   -1.4251    4.5737    0.8631 H   0  0  0  0  0  0  0  0  0  0  0  0
   -3.5749    3.2859    1.2486 H   0  0  0  0  0  0  0  0  0  0  0  0
    2.2218   -2.5572   -1.3042 N   0  0  0  0  0  0  0  0  0  0  0  0
    2.8521   -3.4247   -1.5717 N   0  0  0  0  0  0  0  0  0  0  0  0
   -3.9127    0.7961    0.9474 O   0  0  0  0  0  0  0  0  0  0  0  0
   -4.0858   -0.6277    0.7961 C   0  0  0  0  0  0  0  0  0  0  0  0
   -5.1114   -0.8249    1.1012 H   0  0  0  0  0  0  0  0  0  0  0  0
   -3.3920   -1.1692    1.4448 H   0  0  0  0  0  0  0  0  0  0  0  0
   -3.9482   -0.9182   -0.2507 H   0  0  0  0  0  0  0  0  0  0  0  0
  1  6  2  0  0  0  0
  2  3  2  0  0  0  0
  2  1  1  0  0  0  0
  3  4  1  0  0  0  0
  4  9  1  0  0  0  0
  4  5  2  0  0  0  0
  5 10  1  0  0  0  0
  6  5  1  0  0  0  0
  6 13  1  0  0  0  0
  7  1  1  0  0  0  0
  8  2  1  0  0  0  0
 12 11  3  0  0  0  0
 14 13  1  0  0  0  0
 14 15  1  0  0  0  0
 14 16  1  0  0  0  0
 17 14  1  0  0  0  0
M  RAD  1   3   2
M  END
