Coordinates from ORCA-job 4-MeO-Ph-N2+-B3LYPG-6-31G_dp-MTMO-d009-169-n900
 OpenBabel09051907383D

 17 17  0  0  0  0  0  0  0  0999 V2000
   -1.9270   -0.2244    0.1454 C   0  0  0  0  0  0  0  0  0  0  0  0
   -0.6266   -0.2761   -0.2617 C   0  0  0  0  0  0  0  0  0  0  0  0
    0.2254    0.9182   -0.2983 C   0  0  0  0  0  0  0  0  0  0  0  0
   -0.4146    2.1730    0.1332 C   0  0  0  0  0  0  0  0  0  0  0  0
   -1.7114    2.2047    0.5356 C   0  0  0  0  0  0  0  0  0  0  0  0
   -2.5000    1.0151    0.5527 C   0  0  0  0  0  0  0  0  0  0  0  0
   -2.5136   -1.1351    0.1531 H   0  0  0  0  0  0  0  0  0  0  0  0
   -0.1710   -1.2101   -0.5768 H   0  0  0  0  0  0  0  0  0  0  0  0
    0.1998    3.0681    0.1136 H   0  0  0  0  0  0  0  0  0  0  0  0
   -2.1757    3.1323    0.8522 H   0  0  0  0  0  0  0  0  0  0  0  0
    1.1856    0.8826   -0.5988 N   0  0  0  0  0  0  0  0  0  0  0  0
    2.2820    0.8447   -0.9412 N   0  0  0  0  0  0  0  0  0  0  0  0
   -3.7357    1.1663    0.9565 O   0  0  0  0  0  0  0  0  0  0  0  0
   -4.6600    0.0502    1.0275 C   0  0  0  0  0  0  0  0  0  0  0  0
   -5.5930    0.4833    1.3804 H   0  0  0  0  0  0  0  0  0  0  0  0
   -4.2958   -0.6932    1.7408 H   0  0  0  0  0  0  0  0  0  0  0  0
   -4.7979   -0.3862    0.0356 H   0  0  0  0  0  0  0  0  0  0  0  0
  1  7  1  0  0  0  0
  1  6  2  0  0  0  0
  2  1  1  0  0  0  0
  3  2  2  0  0  0  0
  3  4  1  0  0  0  0
  4  5  2  0  0  0  0
  5  6  1  0  0  0  0
  5 10  1  0  0  0  0
  6 13  1  0  0  0  0
  8  2  1  0  0  0  0
  9  4  1  0  0  0  0
 11  3  1  0  0  0  0
 12 11  1  0  0  0  0
 13 14  1  0  0  0  0
 14 15  1  0  0  0  0
 14 16  1  0  0  0  0
 17 14  1  0  0  0  0
M  RAD  2  11   2  12   3
M  END
