Coordinates from ORCA-job 4-MeO-Ph-N2+-B3LYPG-6-31G_dp-MTMO-d009-169-n900
 OpenBabel09051907383D

 17 16  0  0  0  0  0  0  0  0999 V2000
   -2.2187   -0.1832    0.1438 C   0  0  0  0  0  0  0  0  0  0  0  0
   -0.8675   -0.2235   -0.2824 C   0  0  0  0  0  0  0  0  0  0  0  0
   -0.4393    1.0438   -0.3303 C   0  0  0  0  0  0  0  0  0  0  0  0
   -0.6737    2.2574    0.1925 C   0  0  0  0  0  0  0  0  0  0  0  0
   -2.0188    2.2254    0.6168 C   0  0  0  0  0  0  0  0  0  0  0  0
   -2.7833    1.0262    0.6136 C   0  0  0  0  0  0  0  0  0  0  0  0
   -2.7857   -1.1059    0.0862 H   0  0  0  0  0  0  0  0  0  0  0  0
   -0.3455   -1.1267   -0.5764 H   0  0  0  0  0  0  0  0  0  0  0  0
   -0.0655    3.1536    0.1623 H   0  0  0  0  0  0  0  0  0  0  0  0
   -2.4938    3.1632    0.8923 H   0  0  0  0  0  0  0  0  0  0  0  0
    3.3112    0.7364   -1.0778 N   0  0  0  0  0  0  0  0  0  0  0  0
    4.3846    0.6813   -1.3345 N   0  0  0  0  0  0  0  0  0  0  0  0
   -4.0260    1.1566    1.0609 O   0  0  0  0  0  0  0  0  0  0  0  0
   -4.8824    0.0022    1.1706 C   0  0  0  0  0  0  0  0  0  0  0  0
   -5.8259    0.3814    1.5574 H   0  0  0  0  0  0  0  0  0  0  0  0
   -4.4582   -0.7254    1.8687 H   0  0  0  0  0  0  0  0  0  0  0  0
   -5.0408   -0.4493    0.1859 H   0  0  0  0  0  0  0  0  0  0  0  0
  1  6  2  0  0  0  0
  2  1  1  0  0  0  0
  3  2  2  0  0  0  0
  3  4  1  0  0  0  0
  4  5  2  0  0  0  0
  5 10  1  0  0  0  0
  6  5  1  0  0  0  0
  6 13  1  0  0  0  0
  7  1  1  0  0  0  0
  8  2  1  0  0  0  0
  9  4  1  0  0  0  0
 12 11  3  0  0  0  0
 13 14  1  0  0  0  0
 14 15  1  0  0  0  0
 14 16  1  0  0  0  0
 17 14  1  0  0  0  0
M  RAD  1   3   2
M  END
