Coordinates from ORCA-job 4-MeO-Ph-N2+-B3LYPG-6-31G_dp-MTMO-d009-169-n900
 OpenBabel09051907383D

 17 16  0  0  0  0  0  0  0  0999 V2000
   -0.7403    2.0461   -0.0069 C   0  0  0  0  0  0  0  0  0  0  0  0
   -0.3360    3.4029    0.0116 C   0  0  0  0  0  0  0  0  0  0  0  0
   -1.4153    4.1315    0.3296 C   0  0  0  0  0  0  0  0  0  0  0  0
   -2.5828    4.0420    0.9873 C   0  0  0  0  0  0  0  0  0  0  0  0
   -2.9213    2.6730    0.9556 C   0  0  0  0  0  0  0  0  0  0  0  0
   -2.0161    1.6800    0.4860 C   0  0  0  0  0  0  0  0  0  0  0  0
   -0.0418    1.3208   -0.4082 H   0  0  0  0  0  0  0  0  0  0  0  0
    0.6539    3.7482   -0.2649 H   0  0  0  0  0  0  0  0  0  0  0  0
   -3.2544    4.8262    1.3164 H   0  0  0  0  0  0  0  0  0  0  0  0
   -3.9315    2.3858    1.2350 H   0  0  0  0  0  0  0  0  0  0  0  0
   -2.9647   -7.0405   -0.2497 N   0  0  0  0  0  0  0  0  0  0  0  0
   -3.2109   -8.1159   -0.3170 N   0  0  0  0  0  0  0  0  0  0  0  0
   -2.4759    0.4377    0.5430 O   0  0  0  0  0  0  0  0  0  0  0  0
   -1.6366   -0.6689    0.1518 C   0  0  0  0  0  0  0  0  0  0  0  0
   -2.2505   -1.5563    0.2932 H   0  0  0  0  0  0  0  0  0  0  0  0
   -0.7500   -0.7217    0.7894 H   0  0  0  0  0  0  0  0  0  0  0  0
   -1.3551   -0.5774   -0.9023 H   0  0  0  0  0  0  0  0  0  0  0  0
  1  2  2  0  0  0  0
  1  6  1  0  0  0  0
  2  3  1  0  0  0  0
  3  4  2  0  0  0  0
  4  9  1  0  0  0  0
  5  4  1  0  0  0  0
  5 10  1  0  0  0  0
  6 13  1  0  0  0  0
  6  5  2  0  0  0  0
  7  1  1  0  0  0  0
  8  2  1  0  0  0  0
 12 11  3  0  0  0  0
 14 15  1  0  0  0  0
 14 13  1  0  0  0  0
 14 16  1  0  0  0  0
 17 14  1  0  0  0  0
M  RAD  1   3   2
M  END
