Coordinates from ORCA-job 4-MeO-Ph-N2+-B3LYPG-6-31G_dp-MTMO-d009-169-n900
 OpenBabel09051907383D

 17 16  0  0  0  0  0  0  0  0999 V2000
   -0.7270    2.1426   -0.0013 C   0  0  0  0  0  0  0  0  0  0  0  0
   -0.3221    3.4993    0.0073 C   0  0  0  0  0  0  0  0  0  0  0  0
   -1.4002    4.2301    0.3241 C   0  0  0  0  0  0  0  0  0  0  0  0
   -2.5659    4.1454    0.9855 C   0  0  0  0  0  0  0  0  0  0  0  0
   -2.9049    2.7764    0.9635 C   0  0  0  0  0  0  0  0  0  0  0  0
   -2.0015    1.7801    0.4975 C   0  0  0  0  0  0  0  0  0  0  0  0
   -0.0300    1.4144   -0.4000 H   0  0  0  0  0  0  0  0  0  0  0  0
    0.6671    3.8425   -0.2741 H   0  0  0  0  0  0  0  0  0  0  0  0
   -3.2363    4.9319    1.3115 H   0  0  0  0  0  0  0  0  0  0  0  0
   -3.9145    2.4914    1.2476 H   0  0  0  0  0  0  0  0  0  0  0  0
   -3.0697   -7.7853   -0.3214 N   0  0  0  0  0  0  0  0  0  0  0  0
   -3.3205   -8.8596   -0.3900 N   0  0  0  0  0  0  0  0  0  0  0  0
   -2.4617    0.5383    0.5636 O   0  0  0  0  0  0  0  0  0  0  0  0
   -1.6238   -0.5709    0.1768 C   0  0  0  0  0  0  0  0  0  0  0  0
   -2.2379   -1.4571    0.3249 H   0  0  0  0  0  0  0  0  0  0  0  0
   -0.7357   -0.6205    0.8125 H   0  0  0  0  0  0  0  0  0  0  0  0
   -1.3449   -0.4857   -0.8785 H   0  0  0  0  0  0  0  0  0  0  0  0
  1  2  2  0  0  0  0
  1  6  1  0  0  0  0
  2  3  1  0  0  0  0
  3  4  2  0  0  0  0
  4  9  1  0  0  0  0
  5  4  1  0  0  0  0
  5 10  1  0  0  0  0
  6 13  1  0  0  0  0
  6  5  2  0  0  0  0
  7  1  1  0  0  0  0
  8  2  1  0  0  0  0
 12 11  3  0  0  0  0
 14 15  1  0  0  0  0
 14 13  1  0  0  0  0
 14 16  1  0  0  0  0
 17 14  1  0  0  0  0
M  RAD  1   3   2
M  END
