Coordinates from ORCA-job 4-MeO-Ph-N2+-B3LYPG-6-31G_dp-MTMO-d009-169-n900
 OpenBabel09051907383D

 17 16  0  0  0  0  0  0  0  0999 V2000
   -0.6520    2.6374    0.0305 C   0  0  0  0  0  0  0  0  0  0  0  0
   -0.2709    4.0010    0.0181 C   0  0  0  0  0  0  0  0  0  0  0  0
   -1.3600    4.7171    0.3303 C   0  0  0  0  0  0  0  0  0  0  0  0
   -2.5210    4.6217    0.9984 C   0  0  0  0  0  0  0  0  0  0  0  0
   -2.8361    3.2467    0.9973 C   0  0  0  0  0  0  0  0  0  0  0  0
   -1.9176    2.2599    0.5409 C   0  0  0  0  0  0  0  0  0  0  0  0
    0.0558    1.9159   -0.3613 H   0  0  0  0  0  0  0  0  0  0  0  0
    0.7109    4.3573   -0.2729 H   0  0  0  0  0  0  0  0  0  0  0  0
   -3.2036    5.4009    1.3165 H   0  0  0  0  0  0  0  0  0  0  0  0
   -3.8391    2.9482    1.2903 H   0  0  0  0  0  0  0  0  0  0  0  0
   -3.6452  -11.4252   -0.6118 N   0  0  0  0  0  0  0  0  0  0  0  0
   -3.9602  -12.4814   -0.6941 N   0  0  0  0  0  0  0  0  0  0  0  0
   -2.3556    1.0113    0.6266 O   0  0  0  0  0  0  0  0  0  0  0  0
   -1.5003   -0.0882    0.2509 C   0  0  0  0  0  0  0  0  0  0  0  0
   -2.0983   -0.9827    0.4138 H   0  0  0  0  0  0  0  0  0  0  0  0
   -0.6087   -0.1140    0.8830 H   0  0  0  0  0  0  0  0  0  0  0  0
   -1.2275   -0.0125   -0.8068 H   0  0  0  0  0  0  0  0  0  0  0  0
  1  6  1  0  0  0  0
  2  1  2  0  0  0  0
  2  3  1  0  0  0  0
  3  4  2  0  0  0  0
  4  9  1  0  0  0  0
  5  4  1  0  0  0  0
  5 10  1  0  0  0  0
  6 13  1  0  0  0  0
  6  5  2  0  0  0  0
  7  1  1  0  0  0  0
  8  2  1  0  0  0  0
 12 11  3  0  0  0  0
 14 15  1  0  0  0  0
 14 13  1  0  0  0  0
 14 16  1  0  0  0  0
 17 14  1  0  0  0  0
M  RAD  1   3   2
M  END
