Coordinates from ORCA-job 4-MeO-Ph-N2+-B3LYPG-6-31G_dp-MTMO-d009-169-n900
 OpenBabel09051907383D

 17 16  0  0  0  0  0  0  0  0999 V2000
   -0.6610    2.5799    0.0265 C   0  0  0  0  0  0  0  0  0  0  0  0
   -0.2768    3.9426    0.0148 C   0  0  0  0  0  0  0  0  0  0  0  0
   -1.3643    4.6612    0.3273 C   0  0  0  0  0  0  0  0  0  0  0  0
   -2.5255    4.5679    0.9955 C   0  0  0  0  0  0  0  0  0  0  0  0
   -2.8436    3.1936    0.9937 C   0  0  0  0  0  0  0  0  0  0  0  0
   -1.9273    2.2050    0.5366 C   0  0  0  0  0  0  0  0  0  0  0  0
    0.0452    1.8571   -0.3657 H   0  0  0  0  0  0  0  0  0  0  0  0
    0.7058    4.2969   -0.2760 H   0  0  0  0  0  0  0  0  0  0  0  0
   -3.2064    5.3484    1.3139 H   0  0  0  0  0  0  0  0  0  0  0  0
   -3.8473    2.8972    1.2865 H   0  0  0  0  0  0  0  0  0  0  0  0
   -3.5784  -11.0071   -0.5806 N   0  0  0  0  0  0  0  0  0  0  0  0
   -3.8853  -12.0658   -0.6623 N   0  0  0  0  0  0  0  0  0  0  0  0
   -2.3682    0.9574    0.6217 O   0  0  0  0  0  0  0  0  0  0  0  0
   -1.5153   -0.1438    0.2453 C   0  0  0  0  0  0  0  0  0  0  0  0
   -2.1152   -1.0372    0.4075 H   0  0  0  0  0  0  0  0  0  0  0  0
   -0.6237   -0.1720    0.8775 H   0  0  0  0  0  0  0  0  0  0  0  0
   -1.2422   -0.0680   -0.8123 H   0  0  0  0  0  0  0  0  0  0  0  0
  1  6  1  0  0  0  0
  2  1  2  0  0  0  0
  2  3  1  0  0  0  0
  3  4  2  0  0  0  0
  4  9  1  0  0  0  0
  5  4  1  0  0  0  0
  5 10  1  0  0  0  0
  6 13  1  0  0  0  0
  6  5  2  0  0  0  0
  7  1  1  0  0  0  0
  8  2  1  0  0  0  0
 12 11  3  0  0  0  0
 14 15  1  0  0  0  0
 14 13  1  0  0  0  0
 14 16  1  0  0  0  0
 17 14  1  0  0  0  0
M  RAD  1   3   2
M  END
