Coordinates from ORCA-job 4-MeO-Ph-N2+-B3LYPG-6-31G_dp-MTMO-d009-169-n900
 OpenBabel09051907383D

 17 16  0  0  0  0  0  0  0  0999 V2000
   -0.7460    2.0001   -0.0096 C   0  0  0  0  0  0  0  0  0  0  0  0
   -0.3450    3.3577    0.0149 C   0  0  0  0  0  0  0  0  0  0  0  0
   -1.4267    4.0826    0.3336 C   0  0  0  0  0  0  0  0  0  0  0  0
   -2.5951    3.9876    0.9890 C   0  0  0  0  0  0  0  0  0  0  0  0
   -2.9302    2.6180    0.9513 C   0  0  0  0  0  0  0  0  0  0  0  0
   -2.0219    1.6289    0.4795 C   0  0  0  0  0  0  0  0  0  0  0  0
   -0.0451    1.2780   -0.4125 H   0  0  0  0  0  0  0  0  0  0  0  0
    0.6445    3.7064   -0.2584 H   0  0  0  0  0  0  0  0  0  0  0  0
   -3.2692    4.7689    1.3199 H   0  0  0  0  0  0  0  0  0  0  0  0
   -3.9403    2.3273    1.2278 H   0  0  0  0  0  0  0  0  0  0  0  0
   -2.9211   -6.6670   -0.2106 N   0  0  0  0  0  0  0  0  0  0  0  0
   -3.1667   -7.7426   -0.2769 N   0  0  0  0  0  0  0  0  0  0  0  0
   -2.4788    0.3853    0.5309 O   0  0  0  0  0  0  0  0  0  0  0  0
   -1.6362   -0.7178    0.1370 C   0  0  0  0  0  0  0  0  0  0  0  0
   -2.2480   -1.6073    0.2743 H   0  0  0  0  0  0  0  0  0  0  0  0
   -0.7504   -0.7707    0.7758 H   0  0  0  0  0  0  0  0  0  0  0  0
   -1.3533   -0.6219   -0.9163 H   0  0  0  0  0  0  0  0  0  0  0  0
  1  2  2  0  0  0  0
  1  6  1  0  0  0  0
  2  3  1  0  0  0  0
  3  4  2  0  0  0  0
  4  9  1  0  0  0  0
  5  4  1  0  0  0  0
  5 10  1  0  0  0  0
  6 13  1  0  0  0  0
  6  5  2  0  0  0  0
  7  1  1  0  0  0  0
  8  2  1  0  0  0  0
 12 11  3  0  0  0  0
 14 15  1  0  0  0  0
 14 13  1  0  0  0  0
 14 16  1  0  0  0  0
 17 14  1  0  0  0  0
M  RAD  1   3   2
M  END
