Coordinates from ORCA-job 4-MeO-Ph-N2+-B3LYPG-6-31G_dp-MTMO-d009-169-n900
 OpenBabel09051907383D

 17 16  0  0  0  0  0  0  0  0999 V2000
   -2.2107   -0.1874    0.1406 C   0  0  0  0  0  0  0  0  0  0  0  0
   -0.8602   -0.2342   -0.2879 C   0  0  0  0  0  0  0  0  0  0  0  0
   -0.4265    1.0309   -0.3339 C   0  0  0  0  0  0  0  0  0  0  0  0
   -0.6570    2.2467    0.1850 C   0  0  0  0  0  0  0  0  0  0  0  0
   -2.0016    2.2203    0.6113 C   0  0  0  0  0  0  0  0  0  0  0  0
   -2.7705    1.0243    0.6100 C   0  0  0  0  0  0  0  0  0  0  0  0
   -2.7813   -1.1079    0.0835 H   0  0  0  0  0  0  0  0  0  0  0  0
   -0.3436   -1.1397   -0.5841 H   0  0  0  0  0  0  0  0  0  0  0  0
   -0.0449    3.1402    0.1539 H   0  0  0  0  0  0  0  0  0  0  0  0
   -2.4719    3.1601    0.8882 H   0  0  0  0  0  0  0  0  0  0  0  0
    3.2237    0.7591   -1.0508 N   0  0  0  0  0  0  0  0  0  0  0  0
    4.2980    0.7074   -1.3040 N   0  0  0  0  0  0  0  0  0  0  0  0
   -4.0124    1.1594    1.0584 O   0  0  0  0  0  0  0  0  0  0  0  0
   -4.8725    0.0080    1.1695 C   0  0  0  0  0  0  0  0  0  0  0  0
   -5.8143    0.3905    1.5574 H   0  0  0  0  0  0  0  0  0  0  0  0
   -4.4500   -0.7210    1.8673 H   0  0  0  0  0  0  0  0  0  0  0  0
   -5.0339   -0.4433    0.1852 H   0  0  0  0  0  0  0  0  0  0  0  0
  1  6  2  0  0  0  0
  2  1  1  0  0  0  0
  3  2  2  0  0  0  0
  3  4  1  0  0  0  0
  4  5  2  0  0  0  0
  5 10  1  0  0  0  0
  6  5  1  0  0  0  0
  6 13  1  0  0  0  0
  7  1  1  0  0  0  0
  8  2  1  0  0  0  0
  9  4  1  0  0  0  0
 12 11  3  0  0  0  0
 13 14  1  0  0  0  0
 14 15  1  0  0  0  0
 14 16  1  0  0  0  0
 17 14  1  0  0  0  0
M  RAD  1   3   2
M  END
