Coordinates from ORCA-job 4-MeO-Ph-N2+-B3LYPG-6-31G_dp-MTMO-d009-169-n900
 OpenBabel09051907383D

 17 16  0  0  0  0  0  0  0  0999 V2000
   -0.7543    1.7811   -0.0270 C   0  0  0  0  0  0  0  0  0  0  0  0
   -0.4487    3.1604    0.0622 C   0  0  0  0  0  0  0  0  0  0  0  0
   -1.5833    3.7966    0.3881 C   0  0  0  0  0  0  0  0  0  0  0  0
   -2.7516    3.5917    1.0191 C   0  0  0  0  0  0  0  0  0  0  0  0
   -2.9910    2.2058    0.9182 C   0  0  0  0  0  0  0  0  0  0  0  0
   -2.0089    1.3018    0.4226 C   0  0  0  0  0  0  0  0  0  0  0  0
    0.0004    1.1270   -0.4487 H   0  0  0  0  0  0  0  0  0  0  0  0
    0.5186    3.5870   -0.1784 H   0  0  0  0  0  0  0  0  0  0  0  0
   -3.4836    4.3100    1.3694 H   0  0  0  0  0  0  0  0  0  0  0  0
   -3.9828    1.8348    1.1628 H   0  0  0  0  0  0  0  0  0  0  0  0
   -2.8979   -4.4510    0.0857 N   0  0  0  0  0  0  0  0  0  0  0  0
   -3.2774   -5.4886    0.0970 N   0  0  0  0  0  0  0  0  0  0  0  0
   -2.3785    0.0293    0.4142 O   0  0  0  0  0  0  0  0  0  0  0  0
   -1.4533   -0.9961   -0.0085 C   0  0  0  0  0  0  0  0  0  0  0  0
   -1.9994   -1.9332    0.0815 H   0  0  0  0  0  0  0  0  0  0  0  0
   -0.5752   -1.0092    0.6430 H   0  0  0  0  0  0  0  0  0  0  0  0
   -1.1624   -0.8342   -1.0516 H   0  0  0  0  0  0  0  0  0  0  0  0
  1  2  2  0  0  0  0
  1  6  1  0  0  0  0
  2  3  1  0  0  0  0
  3  4  2  0  0  0  0
  4  9  1  0  0  0  0
  5  4  1  0  0  0  0
  5 10  1  0  0  0  0
  6  5  2  0  0  0  0
  7  1  1  0  0  0  0
  8  2  1  0  0  0  0
 11 12  3  0  0  0  0
 13  6  1  0  0  0  0
 14 15  1  0  0  0  0
 14 13  1  0  0  0  0
 14 16  1  0  0  0  0
 17 14  1  0  0  0  0
M  RAD  1   3   2
M  END
