Coordinates from ORCA-job 4-MeO-Ph-N2+-B3LYPG-6-31G_dp-MTMO-d009-169-n900
 OpenBabel09051907383D

 17 16  0  0  0  0  0  0  0  0999 V2000
   -0.6940    2.3643    0.0121 C   0  0  0  0  0  0  0  0  0  0  0  0
   -0.2991    3.7241    0.0068 C   0  0  0  0  0  0  0  0  0  0  0  0
   -1.3814    4.4497    0.3211 C   0  0  0  0  0  0  0  0  0  0  0  0
   -2.5441    4.3626    0.9874 C   0  0  0  0  0  0  0  0  0  0  0  0
   -2.8730    2.9910    0.9792 C   0  0  0  0  0  0  0  0  0  0  0  0
   -1.9639    1.9972    0.5191 C   0  0  0  0  0  0  0  0  0  0  0  0
    0.0070    1.6377   -0.3824 H   0  0  0  0  0  0  0  0  0  0  0  0
    0.6866    4.0719   -0.2813 H   0  0  0  0  0  0  0  0  0  0  0  0
   -3.2192    5.1472    1.3085 H   0  0  0  0  0  0  0  0  0  0  0  0
   -3.8794    2.7012    1.2696 H   0  0  0  0  0  0  0  0  0  0  0  0
   -3.3311   -9.4268   -0.4610 N   0  0  0  0  0  0  0  0  0  0  0  0
   -3.6016  -10.4959   -0.5340 N   0  0  0  0  0  0  0  0  0  0  0  0
   -2.4146    0.7527    0.5982 O   0  0  0  0  0  0  0  0  0  0  0  0
   -1.5701   -0.3536    0.2181 C   0  0  0  0  0  0  0  0  0  0  0  0
   -2.1772   -1.2429    0.3759 H   0  0  0  0  0  0  0  0  0  0  0  0
   -0.6795   -0.3914    0.8512 H   0  0  0  0  0  0  0  0  0  0  0  0
   -1.2951   -0.2756   -0.8388 H   0  0  0  0  0  0  0  0  0  0  0  0
  1  6  1  0  0  0  0
  2  1  2  0  0  0  0
  2  3  1  0  0  0  0
  3  4  2  0  0  0  0
  4  9  1  0  0  0  0
  5  4  1  0  0  0  0
  5 10  1  0  0  0  0
  6 13  1  0  0  0  0
  6  5  2  0  0  0  0
  7  1  1  0  0  0  0
  8  2  1  0  0  0  0
 12 11  3  0  0  0  0
 14 15  1  0  0  0  0
 14 13  1  0  0  0  0
 14 16  1  0  0  0  0
 17 14  1  0  0  0  0
M  RAD  1   3   2
M  END
