Coordinates from ORCA-job 4-MeO-Ph-N2+-B3LYPG-6-31G_dp-MTMO-d009-169-n900
 OpenBabel09051907383D

 17 16  0  0  0  0  0  0  0  0999 V2000
   -0.7042    2.2967    0.0079 C   0  0  0  0  0  0  0  0  0  0  0  0
   -0.3056    3.6554    0.0057 C   0  0  0  0  0  0  0  0  0  0  0  0
   -1.3862    4.3833    0.3207 C   0  0  0  0  0  0  0  0  0  0  0  0
   -2.5496    4.2980    0.9860 C   0  0  0  0  0  0  0  0  0  0  0  0
   -2.8823    2.9273    0.9746 C   0  0  0  0  0  0  0  0  0  0  0  0
   -1.9755    1.9320    0.5130 C   0  0  0  0  0  0  0  0  0  0  0  0
   -0.0049    1.5690   -0.3876 H   0  0  0  0  0  0  0  0  0  0  0  0
    0.6811    4.0012   -0.2810 H   0  0  0  0  0  0  0  0  0  0  0  0
   -3.2228    5.0837    1.3083 H   0  0  0  0  0  0  0  0  0  0  0  0
   -3.8897    2.6396    1.2636 H   0  0  0  0  0  0  0  0  0  0  0  0
   -3.2511   -8.9313   -0.4211 N   0  0  0  0  0  0  0  0  0  0  0  0
   -3.5138  -10.0026   -0.4923 N   0  0  0  0  0  0  0  0  0  0  0  0
   -2.4297    0.6885    0.5892 O   0  0  0  0  0  0  0  0  0  0  0  0
   -1.5878   -0.4193    0.2075 C   0  0  0  0  0  0  0  0  0  0  0  0
   -2.1975   -1.3073    0.3631 H   0  0  0  0  0  0  0  0  0  0  0  0
   -0.6978   -0.4608    0.8412 H   0  0  0  0  0  0  0  0  0  0  0  0
   -1.3119   -0.3399   -0.8490 H   0  0  0  0  0  0  0  0  0  0  0  0
  1  6  1  0  0  0  0
  2  1  2  0  0  0  0
  2  3  1  0  0  0  0
  3  4  2  0  0  0  0
  4  9  1  0  0  0  0
  5  4  1  0  0  0  0
  5 10  1  0  0  0  0
  6 13  1  0  0  0  0
  6  5  2  0  0  0  0
  7  1  1  0  0  0  0
  8  2  1  0  0  0  0
 12 11  3  0  0  0  0
 14 15  1  0  0  0  0
 14 13  1  0  0  0  0
 14 16  1  0  0  0  0
 17 14  1  0  0  0  0
M  RAD  1   3   2
M  END
