Coordinates from ORCA-job 4-MeO-Ph-N2+-B3LYPG-6-31G_dp-MTMO-d009-169-n900
 OpenBabel09051907383D

 17 16  0  0  0  0  0  0  0  0999 V2000
   -0.9498    1.4772   -0.0178 C   0  0  0  0  0  0  0  0  0  0  0  0
   -0.2970    2.7326   -0.0535 C   0  0  0  0  0  0  0  0  0  0  0  0
   -1.2102    3.6640    0.2591 C   0  0  0  0  0  0  0  0  0  0  0  0
   -2.3536    3.8142    0.9486 C   0  0  0  0  0  0  0  0  0  0  0  0
   -2.9456    2.5345    0.9701 C   0  0  0  0  0  0  0  0  0  0  0  0
   -2.2577    1.3739    0.5153 C   0  0  0  0  0  0  0  0  0  0  0  0
   -0.4139    0.6209   -0.4110 H   0  0  0  0  0  0  0  0  0  0  0  0
    0.7324    2.8757   -0.3627 H   0  0  0  0  0  0  0  0  0  0  0  0
   -2.8555    4.7205    1.2661 H   0  0  0  0  0  0  0  0  0  0  0  0
   -3.9842    2.4523    1.2794 H   0  0  0  0  0  0  0  0  0  0  0  0
   -1.4831   -4.2017   -0.3559 N   0  0  0  0  0  0  0  0  0  0  0  0
   -1.2976   -5.2806   -0.5063 N   0  0  0  0  0  0  0  0  0  0  0  0
   -2.9413    0.2443    0.6257 O   0  0  0  0  0  0  0  0  0  0  0  0
   -2.3375   -1.0163    0.2613 C   0  0  0  0  0  0  0  0  0  0  0  0
   -3.1042   -1.7652    0.4448 H   0  0  0  0  0  0  0  0  0  0  0  0
   -1.4634   -1.2174    0.8859 H   0  0  0  0  0  0  0  0  0  0  0  0
   -2.0675   -1.0155   -0.7992 H   0  0  0  0  0  0  0  0  0  0  0  0
  1  6  1  0  0  0  0
  2  1  2  0  0  0  0
  2  3  1  0  0  0  0
  3  4  2  0  0  0  0
  4  5  1  0  0  0  0
  4  9  1  0  0  0  0
  5 10  1  0  0  0  0
  6 13  1  0  0  0  0
  6  5  2  0  0  0  0
  7  1  1  0  0  0  0
  8  2  1  0  0  0  0
 12 11  3  0  0  0  0
 14 15  1  0  0  0  0
 14 13  1  0  0  0  0
 14 16  1  0  0  0  0
 17 14  1  0  0  0  0
M  RAD  1   3   2
M  END
