Coordinates from ORCA-job 4-MeO-Ph-N2+-B3LYPG-6-31G_dp-MTMO-d009-169-n900
 OpenBabel09051907383D

 17 16  0  0  0  0  0  0  0  0999 V2000
   -0.6933    2.3686    0.0124 C   0  0  0  0  0  0  0  0  0  0  0  0
   -0.2987    3.7284    0.0069 C   0  0  0  0  0  0  0  0  0  0  0  0
   -1.3811    4.4539    0.3211 C   0  0  0  0  0  0  0  0  0  0  0  0
   -2.5437    4.3667    0.9875 C   0  0  0  0  0  0  0  0  0  0  0  0
   -2.8724    2.9950    0.9795 C   0  0  0  0  0  0  0  0  0  0  0  0
   -1.9632    2.0013    0.5194 C   0  0  0  0  0  0  0  0  0  0  0  0
    0.0078    1.6420   -0.3820 H   0  0  0  0  0  0  0  0  0  0  0  0
    0.6869    4.0764   -0.2813 H   0  0  0  0  0  0  0  0  0  0  0  0
   -3.2189    5.1511    1.3086 H   0  0  0  0  0  0  0  0  0  0  0  0
   -3.8787    2.7050    1.2699 H   0  0  0  0  0  0  0  0  0  0  0  0
   -3.3361   -9.4577   -0.4634 N   0  0  0  0  0  0  0  0  0  0  0  0
   -3.6071  -10.5268   -0.5365 N   0  0  0  0  0  0  0  0  0  0  0  0
   -2.4137    0.7567    0.5987 O   0  0  0  0  0  0  0  0  0  0  0  0
   -1.5689   -0.3495    0.2187 C   0  0  0  0  0  0  0  0  0  0  0  0
   -2.1759   -1.2389    0.3767 H   0  0  0  0  0  0  0  0  0  0  0  0
   -0.6783   -0.3871    0.8518 H   0  0  0  0  0  0  0  0  0  0  0  0
   -1.2940   -0.2716   -0.8382 H   0  0  0  0  0  0  0  0  0  0  0  0
  1  6  1  0  0  0  0
  2  1  2  0  0  0  0
  2  3  1  0  0  0  0
  3  4  2  0  0  0  0
  4  9  1  0  0  0  0
  5  4  1  0  0  0  0
  5 10  1  0  0  0  0
  6 13  1  0  0  0  0
  6  5  2  0  0  0  0
  7  1  1  0  0  0  0
  8  2  1  0  0  0  0
 12 11  3  0  0  0  0
 14 15  1  0  0  0  0
 14 13  1  0  0  0  0
 14 16  1  0  0  0  0
 17 14  1  0  0  0  0
M  RAD  1   3   2
M  END
