Coordinates from ORCA-job 4-MeO-Ph-N2+-B3LYPG-6-31G_dp-MTMO-d009-169-n900
 OpenBabel09051907383D

 17 16  0  0  0  0  0  0  0  0999 V2000
   -0.7471    1.9907   -0.0102 C   0  0  0  0  0  0  0  0  0  0  0  0
   -0.3472    3.3487    0.0157 C   0  0  0  0  0  0  0  0  0  0  0  0
   -1.4295    4.0724    0.3346 C   0  0  0  0  0  0  0  0  0  0  0  0
   -2.5981    3.9759    0.9894 C   0  0  0  0  0  0  0  0  0  0  0  0
   -2.9322    2.6061    0.9504 C   0  0  0  0  0  0  0  0  0  0  0  0
   -2.0229    1.6182    0.4781 C   0  0  0  0  0  0  0  0  0  0  0  0
   -0.0454    1.2695   -0.4134 H   0  0  0  0  0  0  0  0  0  0  0  0
    0.6423    3.6984   -0.2568 H   0  0  0  0  0  0  0  0  0  0  0  0
   -3.2730    4.7564    1.3208 H   0  0  0  0  0  0  0  0  0  0  0  0
   -3.9421    2.3144    1.2261 H   0  0  0  0  0  0  0  0  0  0  0  0
   -2.9132   -6.5891   -0.2021 N   0  0  0  0  0  0  0  0  0  0  0  0
   -3.1588   -7.6647   -0.2680 N   0  0  0  0  0  0  0  0  0  0  0  0
   -2.4789    0.3742    0.5282 O   0  0  0  0  0  0  0  0  0  0  0  0
   -1.6352   -0.7280    0.1336 C   0  0  0  0  0  0  0  0  0  0  0  0
   -2.2464   -1.6181    0.2699 H   0  0  0  0  0  0  0  0  0  0  0  0
   -0.7497   -0.7808    0.7727 H   0  0  0  0  0  0  0  0  0  0  0  0
   -1.3521   -0.6309   -0.9195 H   0  0  0  0  0  0  0  0  0  0  0  0
  1  2  2  0  0  0  0
  1  6  1  0  0  0  0
  2  3  1  0  0  0  0
  3  4  2  0  0  0  0
  4  9  1  0  0  0  0
  5  4  1  0  0  0  0
  5 10  1  0  0  0  0
  6 13  1  0  0  0  0
  6  5  2  0  0  0  0
  7  1  1  0  0  0  0
  8  2  1  0  0  0  0
 12 11  3  0  0  0  0
 14 15  1  0  0  0  0
 14 13  1  0  0  0  0
 14 16  1  0  0  0  0
 17 14  1  0  0  0  0
M  RAD  1   3   2
M  END
