Coordinates from ORCA-job 4-MeO-Ph-N2+-B3LYPG-6-31G_dp-MTMO-d009-169-n900
 OpenBabel09051907383D

 17 16  0  0  0  0  0  0  0  0999 V2000
   -0.6415    2.7051    0.0354 C   0  0  0  0  0  0  0  0  0  0  0  0
   -0.2633    4.0695    0.0223 C   0  0  0  0  0  0  0  0  0  0  0  0
   -1.3540    4.7835    0.3341 C   0  0  0  0  0  0  0  0  0  0  0  0
   -2.5148    4.6858    1.0022 C   0  0  0  0  0  0  0  0  0  0  0  0
   -2.8269    3.3102    1.0018 C   0  0  0  0  0  0  0  0  0  0  0  0
   -1.9062    2.3251    0.5459 C   0  0  0  0  0  0  0  0  0  0  0  0
    0.0679    1.9850   -0.3561 H   0  0  0  0  0  0  0  0  0  0  0  0
    0.7177    4.4278   -0.2689 H   0  0  0  0  0  0  0  0  0  0  0  0
   -3.1992    5.4637    1.3198 H   0  0  0  0  0  0  0  0  0  0  0  0
   -3.8293    3.0096    1.2949 H   0  0  0  0  0  0  0  0  0  0  0  0
   -3.7240  -11.9207   -0.6484 N   0  0  0  0  0  0  0  0  0  0  0  0
   -4.0470  -12.9744   -0.7317 N   0  0  0  0  0  0  0  0  0  0  0  0
   -2.3416    1.0756    0.6322 O   0  0  0  0  0  0  0  0  0  0  0  0
   -1.4839   -0.0222    0.2571 C   0  0  0  0  0  0  0  0  0  0  0  0
   -2.0799   -0.9180    0.4205 H   0  0  0  0  0  0  0  0  0  0  0  0
   -0.5921   -0.0457    0.8893 H   0  0  0  0  0  0  0  0  0  0  0  0
   -1.2112    0.0535   -0.8006 H   0  0  0  0  0  0  0  0  0  0  0  0
  1  6  1  0  0  0  0
  2  1  2  0  0  0  0
  2  3  1  0  0  0  0
  3  4  2  0  0  0  0
  4  9  1  0  0  0  0
  5  4  1  0  0  0  0
  5 10  1  0  0  0  0
  6 13  1  0  0  0  0
  6  5  2  0  0  0  0
  7  1  1  0  0  0  0
  8  2  1  0  0  0  0
 12 11  3  0  0  0  0
 14 15  1  0  0  0  0
 14 13  1  0  0  0  0
 14 16  1  0  0  0  0
 17 14  1  0  0  0  0
M  RAD  1   3   2
M  END
