Coordinates from ORCA-job 4-MeO-Ph-N2+-B3LYPG-6-31G_dp-MTMO-d009-169-n900
 OpenBabel09051907383D

 17 16  0  0  0  0  0  0  0  0999 V2000
   -1.6427    0.6107    0.1134 C   0  0  0  0  0  0  0  0  0  0  0  0
   -0.4076    1.2603   -0.1352 C   0  0  0  0  0  0  0  0  0  0  0  0
   -0.6262    2.5729    0.0180 C   0  0  0  0  0  0  0  0  0  0  0  0
   -1.4319    3.4376    0.6561 C   0  0  0  0  0  0  0  0  0  0  0  0
   -2.6278    2.7296    0.8948 C   0  0  0  0  0  0  0  0  0  0  0  0
   -2.7365    1.3328    0.6482 C   0  0  0  0  0  0  0  0  0  0  0  0
   -1.7059   -0.4435   -0.1320 H   0  0  0  0  0  0  0  0  0  0  0  0
    0.4889    0.7483   -0.4685 H   0  0  0  0  0  0  0  0  0  0  0  0
   -1.3128    4.5026    0.8181 H   0  0  0  0  0  0  0  0  0  0  0  0
   -3.5027    3.2872    1.2186 H   0  0  0  0  0  0  0  0  0  0  0  0
    2.1536   -2.2448   -1.2520 N   0  0  0  0  0  0  0  0  0  0  0  0
    2.7935   -3.1029   -1.5269 N   0  0  0  0  0  0  0  0  0  0  0  0
   -3.9167    0.8048    0.9443 O   0  0  0  0  0  0  0  0  0  0  0  0
   -4.1324   -0.6146    0.8086 C   0  0  0  0  0  0  0  0  0  0  0  0
   -5.1638   -0.7775    1.1144 H   0  0  0  0  0  0  0  0  0  0  0  0
   -3.4560   -1.1695    1.4644 H   0  0  0  0  0  0  0  0  0  0  0  0
   -4.0024   -0.9207   -0.2346 H   0  0  0  0  0  0  0  0  0  0  0  0
  1  6  2  0  0  0  0
  2  3  2  0  0  0  0
  2  1  1  0  0  0  0
  3  4  1  0  0  0  0
  4  9  1  0  0  0  0
  4  5  2  0  0  0  0
  5 10  1  0  0  0  0
  6  5  1  0  0  0  0
  6 13  1  0  0  0  0
  7  1  1  0  0  0  0
  8  2  1  0  0  0  0
 12 11  3  0  0  0  0
 14 13  1  0  0  0  0
 14 15  1  0  0  0  0
 14 16  1  0  0  0  0
 17 14  1  0  0  0  0
M  RAD  1   3   2
M  END
