Coordinates from ORCA-job 4-MeO-Ph-N2+-B3LYPG-6-31G_dp-MTMO-d009-169-n900
 OpenBabel09051907383D

 17 16  0  0  0  0  0  0  0  0999 V2000
   -0.7064    2.2820    0.0070 C   0  0  0  0  0  0  0  0  0  0  0  0
   -0.3071    3.6404    0.0057 C   0  0  0  0  0  0  0  0  0  0  0  0
   -1.3873    4.3688    0.3207 C   0  0  0  0  0  0  0  0  0  0  0  0
   -2.5509    4.2837    0.9858 C   0  0  0  0  0  0  0  0  0  0  0  0
   -2.8843    2.9132    0.9736 C   0  0  0  0  0  0  0  0  0  0  0  0
   -1.9781    1.9177    0.5117 C   0  0  0  0  0  0  0  0  0  0  0  0
   -0.0075    1.5541   -0.3888 H   0  0  0  0  0  0  0  0  0  0  0  0
    0.6799    3.9858   -0.2807 H   0  0  0  0  0  0  0  0  0  0  0  0
   -3.2237    5.0697    1.3084 H   0  0  0  0  0  0  0  0  0  0  0  0
   -3.8919    2.6259    1.2622 H   0  0  0  0  0  0  0  0  0  0  0  0
   -3.2336   -8.8230   -0.4122 N   0  0  0  0  0  0  0  0  0  0  0  0
   -3.4949   -9.8946   -0.4830 N   0  0  0  0  0  0  0  0  0  0  0  0
   -2.4329    0.6744    0.5871 O   0  0  0  0  0  0  0  0  0  0  0  0
   -1.5916   -0.4337    0.2050 C   0  0  0  0  0  0  0  0  0  0  0  0
   -2.2018   -1.3214    0.3600 H   0  0  0  0  0  0  0  0  0  0  0  0
   -0.7017   -0.4759    0.8388 H   0  0  0  0  0  0  0  0  0  0  0  0
   -1.3155   -0.3539   -0.8515 H   0  0  0  0  0  0  0  0  0  0  0  0
  1  6  1  0  0  0  0
  2  1  2  0  0  0  0
  2  3  1  0  0  0  0
  3  4  2  0  0  0  0
  4  9  1  0  0  0  0
  5  4  1  0  0  0  0
  5 10  1  0  0  0  0
  6 13  1  0  0  0  0
  6  5  2  0  0  0  0
  7  1  1  0  0  0  0
  8  2  1  0  0  0  0
 12 11  3  0  0  0  0
 14 15  1  0  0  0  0
 14 13  1  0  0  0  0
 14 16  1  0  0  0  0
 17 14  1  0  0  0  0
M  RAD  1   3   2
M  END
