Coordinates from ORCA-job 4-MeO-Ph-N2+-B3LYPG-6-31G_dp-MTMO-d009-169-n900
 OpenBabel09051907383D

 17 16  0  0  0  0  0  0  0  0999 V2000
   -1.6434    0.5892    0.1136 C   0  0  0  0  0  0  0  0  0  0  0  0
   -0.4019    1.2260   -0.1371 C   0  0  0  0  0  0  0  0  0  0  0  0
   -0.6092    2.5408    0.0118 C   0  0  0  0  0  0  0  0  0  0  0  0
   -1.4077    3.4154    0.6454 C   0  0  0  0  0  0  0  0  0  0  0  0
   -2.6101    2.7194    0.8866 C   0  0  0  0  0  0  0  0  0  0  0  0
   -2.7311    1.3228    0.6451 C   0  0  0  0  0  0  0  0  0  0  0  0
   -1.7162   -0.4651   -0.1287 H   0  0  0  0  0  0  0  0  0  0  0  0
    0.4890    0.7031   -0.4693 H   0  0  0  0  0  0  0  0  0  0  0  0
   -1.2783    4.4797    0.8040 H   0  0  0  0  0  0  0  0  0  0  0  0
   -3.4797    3.2861    1.2089 H   0  0  0  0  0  0  0  0  0  0  0  0
    2.1200   -2.1445   -1.2318 N   0  0  0  0  0  0  0  0  0  0  0  0
    2.7657   -2.9971   -1.5096 N   0  0  0  0  0  0  0  0  0  0  0  0
   -3.9162    0.8063    0.9425 O   0  0  0  0  0  0  0  0  0  0  0  0
   -4.1442   -0.6116    0.8116 C   0  0  0  0  0  0  0  0  0  0  0  0
   -5.1770   -0.7646    1.1175 H   0  0  0  0  0  0  0  0  0  0  0  0
   -3.4729   -1.1703    1.4696 H   0  0  0  0  0  0  0  0  0  0  0  0
   -4.0164   -0.9224   -0.2305 H   0  0  0  0  0  0  0  0  0  0  0  0
  1  6  2  0  0  0  0
  2  3  2  0  0  0  0
  2  1  1  0  0  0  0
  3  4  1  0  0  0  0
  4  9  1  0  0  0  0
  4  5  2  0  0  0  0
  5 10  1  0  0  0  0
  6  5  1  0  0  0  0
  6 13  1  0  0  0  0
  7  1  1  0  0  0  0
  8  2  1  0  0  0  0
 12 11  3  0  0  0  0
 14 13  1  0  0  0  0
 14 15  1  0  0  0  0
 14 16  1  0  0  0  0
 17 14  1  0  0  0  0
M  RAD  1   3   2
M  END
