Coordinates from ORCA-job 4-MeO-Ph-N2+-B3LYPG-6-31G_dp-MTMO-d009-169-n900
 OpenBabel09051907383D

 17 16  0  0  0  0  0  0  0  0999 V2000
   -0.7408    2.0422   -0.0071 C   0  0  0  0  0  0  0  0  0  0  0  0
   -0.3367    3.3991    0.0118 C   0  0  0  0  0  0  0  0  0  0  0  0
   -1.4161    4.1274    0.3299 C   0  0  0  0  0  0  0  0  0  0  0  0
   -2.5837    4.0375    0.9874 C   0  0  0  0  0  0  0  0  0  0  0  0
   -2.9220    2.6686    0.9553 C   0  0  0  0  0  0  0  0  0  0  0  0
   -2.0166    1.6758    0.4855 C   0  0  0  0  0  0  0  0  0  0  0  0
   -0.0422    1.3171   -0.4086 H   0  0  0  0  0  0  0  0  0  0  0  0
    0.6532    3.7445   -0.2644 H   0  0  0  0  0  0  0  0  0  0  0  0
   -3.2555    4.8215    1.3167 H   0  0  0  0  0  0  0  0  0  0  0  0
   -3.9322    2.3812    1.2345 H   0  0  0  0  0  0  0  0  0  0  0  0
   -2.9608   -7.0094   -0.2466 N   0  0  0  0  0  0  0  0  0  0  0  0
   -3.2069   -8.0848   -0.3138 N   0  0  0  0  0  0  0  0  0  0  0  0
   -2.4763    0.4334    0.5421 O   0  0  0  0  0  0  0  0  0  0  0  0
   -1.6368   -0.6730    0.1506 C   0  0  0  0  0  0  0  0  0  0  0  0
   -2.2506   -1.5605    0.2917 H   0  0  0  0  0  0  0  0  0  0  0  0
   -0.7503   -0.7259    0.7883 H   0  0  0  0  0  0  0  0  0  0  0  0
   -1.3552   -0.5812   -0.9034 H   0  0  0  0  0  0  0  0  0  0  0  0
  1  2  2  0  0  0  0
  1  6  1  0  0  0  0
  2  3  1  0  0  0  0
  3  4  2  0  0  0  0
  4  9  1  0  0  0  0
  5  4  1  0  0  0  0
  5 10  1  0  0  0  0
  6 13  1  0  0  0  0
  6  5  2  0  0  0  0
  7  1  1  0  0  0  0
  8  2  1  0  0  0  0
 12 11  3  0  0  0  0
 14 15  1  0  0  0  0
 14 13  1  0  0  0  0
 14 16  1  0  0  0  0
 17 14  1  0  0  0  0
M  RAD  1   3   2
M  END
