Coordinates from ORCA-job 4-MeO-Ph-N2+-B3LYPG-6-31G_dp-MTMO-d009-169-n900
 OpenBabel09051907383D

 17 16  0  0  0  0  0  0  0  0999 V2000
   -1.6316    0.6963    0.1109 C   0  0  0  0  0  0  0  0  0  0  0  0
   -0.4243    1.3982   -0.1278 C   0  0  0  0  0  0  0  0  0  0  0  0
   -0.6915    2.7000    0.0431 C   0  0  0  0  0  0  0  0  0  0  0  0
   -1.5278    3.5229    0.6971 C   0  0  0  0  0  0  0  0  0  0  0  0
   -2.6950    2.7650    0.9251 C   0  0  0  0  0  0  0  0  0  0  0  0
   -2.7511    1.3687    0.6576 C   0  0  0  0  0  0  0  0  0  0  0  0
   -1.6543   -0.3564   -0.1477 H   0  0  0  0  0  0  0  0  0  0  0  0
    0.4935    0.9301   -0.4662 H   0  0  0  0  0  0  0  0  0  0  0  0
   -1.4517    4.5896    0.8733 H   0  0  0  0  0  0  0  0  0  0  0  0
   -3.5912    3.2840    1.2550 H   0  0  0  0  0  0  0  0  0  0  0  0
    2.2267   -2.6247   -1.3128 N   0  0  0  0  0  0  0  0  0  0  0  0
    2.8545   -3.4945   -1.5786 N   0  0  0  0  0  0  0  0  0  0  0  0
   -3.9099    0.7926    0.9473 O   0  0  0  0  0  0  0  0  0  0  0  0
   -4.0724   -0.6320    0.7922 C   0  0  0  0  0  0  0  0  0  0  0  0
   -5.0963   -0.8378    1.0971 H   0  0  0  0  0  0  0  0  0  0  0  0
   -3.3743   -1.1700    1.4394 H   0  0  0  0  0  0  0  0  0  0  0  0
   -3.9328   -0.9187   -0.2553 H   0  0  0  0  0  0  0  0  0  0  0  0
  1  6  2  0  0  0  0
  2  3  2  0  0  0  0
  2  1  1  0  0  0  0
  3  4  1  0  0  0  0
  4  9  1  0  0  0  0
  4  5  2  0  0  0  0
  5 10  1  0  0  0  0
  6  5  1  0  0  0  0
  6 13  1  0  0  0  0
  7  1  1  0  0  0  0
  8  2  1  0  0  0  0
 12 11  3  0  0  0  0
 14 13  1  0  0  0  0
 14 15  1  0  0  0  0
 14 16  1  0  0  0  0
 17 14  1  0  0  0  0
M  RAD  1   3   2
M  END
