Coordinates from ORCA-job 4-MeO-Ph-N2+-B3LYPG-6-31G_dp-MTMO-d009-169-n900
 OpenBabel09051907383D

 17 16  0  0  0  0  0  0  0  0999 V2000
   -0.7279    2.1364   -0.0017 C   0  0  0  0  0  0  0  0  0  0  0  0
   -0.3229    3.4931    0.0075 C   0  0  0  0  0  0  0  0  0  0  0  0
   -1.4010    4.2239    0.3244 C   0  0  0  0  0  0  0  0  0  0  0  0
   -2.5668    4.1391    0.9856 C   0  0  0  0  0  0  0  0  0  0  0  0
   -2.9059    2.7701    0.9630 C   0  0  0  0  0  0  0  0  0  0  0  0
   -2.0025    1.7739    0.4969 C   0  0  0  0  0  0  0  0  0  0  0  0
   -0.0309    1.4083   -0.4005 H   0  0  0  0  0  0  0  0  0  0  0  0
    0.6664    3.8363   -0.2737 H   0  0  0  0  0  0  0  0  0  0  0  0
   -3.2371    4.9256    1.3118 H   0  0  0  0  0  0  0  0  0  0  0  0
   -3.9155    2.4851    1.2469 H   0  0  0  0  0  0  0  0  0  0  0  0
   -3.0626   -7.7388   -0.3171 N   0  0  0  0  0  0  0  0  0  0  0  0
   -3.3132   -8.8131   -0.3856 N   0  0  0  0  0  0  0  0  0  0  0  0
   -2.4628    0.5321    0.5624 O   0  0  0  0  0  0  0  0  0  0  0  0
   -1.6250   -0.5770    0.1754 C   0  0  0  0  0  0  0  0  0  0  0  0
   -2.2391   -1.4632    0.3231 H   0  0  0  0  0  0  0  0  0  0  0  0
   -0.7370   -0.6269    0.8112 H   0  0  0  0  0  0  0  0  0  0  0  0
   -1.3459   -0.4915   -0.8798 H   0  0  0  0  0  0  0  0  0  0  0  0
  1  2  2  0  0  0  0
  1  6  1  0  0  0  0
  2  3  1  0  0  0  0
  3  4  2  0  0  0  0
  4  9  1  0  0  0  0
  5  4  1  0  0  0  0
  5 10  1  0  0  0  0
  6 13  1  0  0  0  0
  6  5  2  0  0  0  0
  7  1  1  0  0  0  0
  8  2  1  0  0  0  0
 12 11  3  0  0  0  0
 14 15  1  0  0  0  0
 14 13  1  0  0  0  0
 14 16  1  0  0  0  0
 17 14  1  0  0  0  0
M  RAD  1   3   2
M  END
