Coordinates from ORCA-job 4-MeO-Ph-N2+-B3LYPG-6-31G_dp-MTMO-d009-169-n900
 OpenBabel09051907383D

 17 16  0  0  0  0  0  0  0  0999 V2000
   -0.6686    2.5298    0.0232 C   0  0  0  0  0  0  0  0  0  0  0  0
   -0.2827    3.8921    0.0132 C   0  0  0  0  0  0  0  0  0  0  0  0
   -1.3695    4.6115    0.3261 C   0  0  0  0  0  0  0  0  0  0  0  0
   -2.5311    4.5189    0.9937 C   0  0  0  0  0  0  0  0  0  0  0  0
   -2.8509    3.1450    0.9901 C   0  0  0  0  0  0  0  0  0  0  0  0
   -1.9356    2.1559    0.5324 C   0  0  0  0  0  0  0  0  0  0  0  0
    0.0369    1.8066   -0.3696 H   0  0  0  0  0  0  0  0  0  0  0  0
    0.7004    4.2456   -0.2768 H   0  0  0  0  0  0  0  0  0  0  0  0
   -3.2112    5.2999    1.3128 H   0  0  0  0  0  0  0  0  0  0  0  0
   -3.8551    2.8495    1.2822 H   0  0  0  0  0  0  0  0  0  0  0  0
   -3.5208  -10.6353   -0.5512 N   0  0  0  0  0  0  0  0  0  0  0  0
   -3.8217  -11.6957   -0.6323 N   0  0  0  0  0  0  0  0  0  0  0  0
   -2.3780    0.9086    0.6158 O   0  0  0  0  0  0  0  0  0  0  0  0
   -1.5264   -0.1932    0.2385 C   0  0  0  0  0  0  0  0  0  0  0  0
   -2.1275   -1.0860    0.3996 H   0  0  0  0  0  0  0  0  0  0  0  0
   -0.6350   -0.2232    0.8710 H   0  0  0  0  0  0  0  0  0  0  0  0
   -1.2528   -0.1166   -0.8189 H   0  0  0  0  0  0  0  0  0  0  0  0
  1  6  1  0  0  0  0
  2  1  2  0  0  0  0
  2  3  1  0  0  0  0
  3  4  2  0  0  0  0
  4  9  1  0  0  0  0
  5  4  1  0  0  0  0
  5 10  1  0  0  0  0
  6 13  1  0  0  0  0
  6  5  2  0  0  0  0
  7  1  1  0  0  0  0
  8  2  1  0  0  0  0
 12 11  3  0  0  0  0
 14 15  1  0  0  0  0
 14 13  1  0  0  0  0
 14 16  1  0  0  0  0
 17 14  1  0  0  0  0
M  RAD  1   3   2
M  END
