Coordinates from ORCA-job 4-MeO-Ph-N2+-B3LYPG-6-31G_dp-MTMO-d009-169-n900
 OpenBabel09051907383D

 17 16  0  0  0  0  0  0  0  0999 V2000
   -0.6765    2.4784    0.0196 C   0  0  0  0  0  0  0  0  0  0  0  0
   -0.2874    3.8398    0.0104 C   0  0  0  0  0  0  0  0  0  0  0  0
   -1.3725    4.5617    0.3237 C   0  0  0  0  0  0  0  0  0  0  0  0
   -2.5342    4.4715    0.9912 C   0  0  0  0  0  0  0  0  0  0  0  0
   -2.8574    3.0984    0.9868 C   0  0  0  0  0  0  0  0  0  0  0  0
   -1.9445    2.1073    0.5286 C   0  0  0  0  0  0  0  0  0  0  0  0
    0.0272    1.7537   -0.3736 H   0  0  0  0  0  0  0  0  0  0  0  0
    0.6966    4.1910   -0.2794 H   0  0  0  0  0  0  0  0  0  0  0  0
   -3.2124    5.2540    1.3108 H   0  0  0  0  0  0  0  0  0  0  0  0
   -3.8623    2.8052    1.2788 H   0  0  0  0  0  0  0  0  0  0  0  0
   -3.4630  -10.2633   -0.5250 N   0  0  0  0  0  0  0  0  0  0  0  0
   -3.7510  -11.3275   -0.6028 N   0  0  0  0  0  0  0  0  0  0  0  0
   -2.3899    0.8611    0.6113 O   0  0  0  0  0  0  0  0  0  0  0  0
   -1.5410   -0.2426    0.2334 C   0  0  0  0  0  0  0  0  0  0  0  0
   -2.1443   -1.1340    0.3939 H   0  0  0  0  0  0  0  0  0  0  0  0
   -0.6498   -0.2751    0.8659 H   0  0  0  0  0  0  0  0  0  0  0  0
   -1.2672   -0.1661   -0.8239 H   0  0  0  0  0  0  0  0  0  0  0  0
  1  6  1  0  0  0  0
  2  1  2  0  0  0  0
  2  3  1  0  0  0  0
  3  4  2  0  0  0  0
  4  9  1  0  0  0  0
  5  4  1  0  0  0  0
  5 10  1  0  0  0  0
  6 13  1  0  0  0  0
  6  5  2  0  0  0  0
  7  1  1  0  0  0  0
  8  2  1  0  0  0  0
 12 11  3  0  0  0  0
 14 15  1  0  0  0  0
 14 13  1  0  0  0  0
 14 16  1  0  0  0  0
 17 14  1  0  0  0  0
M  RAD  1   3   2
M  END
