Coordinates from ORCA-job 4-MeO-Ph-N2+-B3LYPG-6-31G_dp-MTMO-d009-169-n900
 OpenBabel09051907383D

 17 16  0  0  0  0  0  0  0  0999 V2000
   -0.7573    1.8734   -0.0163 C   0  0  0  0  0  0  0  0  0  0  0  0
   -0.3794    3.2365    0.0423 C   0  0  0  0  0  0  0  0  0  0  0  0
   -1.4759    3.9380    0.3640 C   0  0  0  0  0  0  0  0  0  0  0  0
   -2.6484    3.8084    1.0065 C   0  0  0  0  0  0  0  0  0  0  0  0
   -2.9607    2.4349    0.9354 C   0  0  0  0  0  0  0  0  0  0  0  0
   -2.0317    1.4706    0.4516 C   0  0  0  0  0  0  0  0  0  0  0  0
   -0.0405    1.1718   -0.4274 H   0  0  0  0  0  0  0  0  0  0  0  0
    0.6073    3.6067   -0.2124 H   0  0  0  0  0  0  0  0  0  0  0  0
   -3.3391    4.5709    1.3471 H   0  0  0  0  0  0  0  0  0  0  0  0
   -3.9687    2.1220    1.1946 H   0  0  0  0  0  0  0  0  0  0  0  0
   -2.8324   -5.5409   -0.0679 N   0  0  0  0  0  0  0  0  0  0  0  0
   -3.0881   -6.6154   -0.1056 N   0  0  0  0  0  0  0  0  0  0  0  0
   -2.4688    0.2191    0.4722 O   0  0  0  0  0  0  0  0  0  0  0  0
   -1.6050   -0.8628    0.0638 C   0  0  0  0  0  0  0  0  0  0  0  0
   -2.2023   -1.7656    0.1775 H   0  0  0  0  0  0  0  0  0  0  0  0
   -0.7239   -0.9137    0.7091 H   0  0  0  0  0  0  0  0  0  0  0  0
   -1.3148   -0.7405   -0.9848 H   0  0  0  0  0  0  0  0  0  0  0  0
  1  2  2  0  0  0  0
  1  6  1  0  0  0  0
  2  3  1  0  0  0  0
  3  4  2  0  0  0  0
  4  9  1  0  0  0  0
  5  4  1  0  0  0  0
  5 10  1  0  0  0  0
  6 13  1  0  0  0  0
  6  5  2  0  0  0  0
  7  1  1  0  0  0  0
  8  2  1  0  0  0  0
 12 11  3  0  0  0  0
 14 15  1  0  0  0  0
 14 13  1  0  0  0  0
 14 16  1  0  0  0  0
 17 14  1  0  0  0  0
M  RAD  1   3   2
M  END
