Coordinates from ORCA-job 4-MeO-Ph-N2+-B3LYPG-6-31G_dp-MTMO-d009-169-n900
 OpenBabel09051907383D

 17 16  0  0  0  0  0  0  0  0999 V2000
   -0.6689    2.5277    0.0230 C   0  0  0  0  0  0  0  0  0  0  0  0
   -0.2829    3.8899    0.0131 C   0  0  0  0  0  0  0  0  0  0  0  0
   -1.3697    4.6094    0.3260 C   0  0  0  0  0  0  0  0  0  0  0  0
   -2.5312    4.5169    0.9936 C   0  0  0  0  0  0  0  0  0  0  0  0
   -2.8511    3.1431    0.9900 C   0  0  0  0  0  0  0  0  0  0  0  0
   -1.9360    2.1538    0.5322 C   0  0  0  0  0  0  0  0  0  0  0  0
    0.0365    1.8044   -0.3698 H   0  0  0  0  0  0  0  0  0  0  0  0
    0.7002    4.2433   -0.2770 H   0  0  0  0  0  0  0  0  0  0  0  0
   -3.2112    5.2980    1.3127 H   0  0  0  0  0  0  0  0  0  0  0  0
   -3.8554    2.8476    1.2821 H   0  0  0  0  0  0  0  0  0  0  0  0
   -3.5184  -10.6198   -0.5502 N   0  0  0  0  0  0  0  0  0  0  0  0
   -3.8188  -11.6804   -0.6310 N   0  0  0  0  0  0  0  0  0  0  0  0
   -2.3785    0.9066    0.6156 O   0  0  0  0  0  0  0  0  0  0  0  0
   -1.5270   -0.1953    0.2383 C   0  0  0  0  0  0  0  0  0  0  0  0
   -2.1282   -1.0880    0.3994 H   0  0  0  0  0  0  0  0  0  0  0  0
   -0.6356   -0.2254    0.8708 H   0  0  0  0  0  0  0  0  0  0  0  0
   -1.2534   -0.1187   -0.8191 H   0  0  0  0  0  0  0  0  0  0  0  0
  1  6  1  0  0  0  0
  2  1  2  0  0  0  0
  2  3  1  0  0  0  0
  3  4  2  0  0  0  0
  4  9  1  0  0  0  0
  5  4  1  0  0  0  0
  5 10  1  0  0  0  0
  6 13  1  0  0  0  0
  6  5  2  0  0  0  0
  7  1  1  0  0  0  0
  8  2  1  0  0  0  0
 12 11  3  0  0  0  0
 14 15  1  0  0  0  0
 14 13  1  0  0  0  0
 14 16  1  0  0  0  0
 17 14  1  0  0  0  0
M  RAD  1   3   2
M  END
