Coordinates from ORCA-job 4-MeO-Ph-N2+-B3LYPG-6-31G_dp-MTMO-d009-169-n900
 OpenBabel09051907383D

 17 17  0  0  0  0  0  0  0  0999 V2000
   -1.9652   -0.2182    0.1579 C   0  0  0  0  0  0  0  0  0  0  0  0
   -0.6477   -0.2737   -0.2545 C   0  0  0  0  0  0  0  0  0  0  0  0
    0.0799    0.9262   -0.2522 C   0  0  0  0  0  0  0  0  0  0  0  0
   -0.4361    2.1769    0.1402 C   0  0  0  0  0  0  0  0  0  0  0  0
   -1.7491    2.2060    0.5468 C   0  0  0  0  0  0  0  0  0  0  0  0
   -2.5305    1.0183    0.5622 C   0  0  0  0  0  0  0  0  0  0  0  0
   -2.5532   -1.1271    0.1660 H   0  0  0  0  0  0  0  0  0  0  0  0
   -0.1952   -1.2074   -0.5683 H   0  0  0  0  0  0  0  0  0  0  0  0
    0.1737    3.0728    0.1221 H   0  0  0  0  0  0  0  0  0  0  0  0
   -2.2153    3.1319    0.8633 H   0  0  0  0  0  0  0  0  0  0  0  0
    1.4815    0.8713   -0.6905 N   0  0  0  0  0  0  0  0  0  0  0  0
    2.5458    0.8343   -1.0226 N   0  0  0  0  0  0  0  0  0  0  0  0
   -3.7786    1.1732    0.9704 O   0  0  0  0  0  0  0  0  0  0  0  0
   -4.6824    0.0504    1.0345 C   0  0  0  0  0  0  0  0  0  0  0  0
   -5.6240    0.4641    1.3894 H   0  0  0  0  0  0  0  0  0  0  0  0
   -4.3142   -0.6974    1.7428 H   0  0  0  0  0  0  0  0  0  0  0  0
   -4.8189   -0.3881    0.0422 H   0  0  0  0  0  0  0  0  0  0  0  0
  1  7  1  0  0  0  0
  1  6  2  0  0  0  0
  2  3  2  0  0  0  0
  2  1  1  0  0  0  0
  3  4  1  0  0  0  0
  4  5  2  0  0  0  0
  5  6  1  0  0  0  0
  5 10  1  0  0  0  0
  6 13  1  0  0  0  0
  8  2  1  0  0  0  0
  9  4  1  0  0  0  0
 11  3  1  0  0  0  0
 12 11  1  0  0  0  0
 13 14  1  0  0  0  0
 14 15  1  0  0  0  0
 14 16  1  0  0  0  0
 17 14  1  0  0  0  0
M  RAD  2  11   2  12   3
M  END
