Coordinates from ORCA-job 4-MeO-Ph-N2+-B3LYPG-6-31G_dp-MTMO-d009-169-n900
 OpenBabel09051907383D

 17 16  0  0  0  0  0  0  0  0999 V2000
   -0.8935    1.5761   -0.0143 C   0  0  0  0  0  0  0  0  0  0  0  0
   -0.3283    2.8737   -0.0352 C   0  0  0  0  0  0  0  0  0  0  0  0
   -1.3069    3.7365    0.2751 C   0  0  0  0  0  0  0  0  0  0  0  0
   -2.4652    3.8026    0.9526 C   0  0  0  0  0  0  0  0  0  0  0  0
   -2.9674    2.4848    0.9602 C   0  0  0  0  0  0  0  0  0  0  0  0
   -2.1961    1.3783    0.5047 C   0  0  0  0  0  0  0  0  0  0  0  0
   -0.2959    0.7622   -0.4085 H   0  0  0  0  0  0  0  0  0  0  0  0
    0.6913    3.0896   -0.3344 H   0  0  0  0  0  0  0  0  0  0  0  0
   -3.0316    4.6697    1.2711 H   0  0  0  0  0  0  0  0  0  0  0  0
   -4.0005    2.3287    1.2593 H   0  0  0  0  0  0  0  0  0  0  0  0
   -1.8476   -4.4221   -0.3037 N   0  0  0  0  0  0  0  0  0  0  0  0
   -1.8155   -5.5166   -0.4522 N   0  0  0  0  0  0  0  0  0  0  0  0
   -2.8002    0.2027    0.5999 O   0  0  0  0  0  0  0  0  0  0  0  0
   -2.1051   -1.0088    0.2328 C   0  0  0  0  0  0  0  0  0  0  0  0
   -2.8155   -1.8136    0.4052 H   0  0  0  0  0  0  0  0  0  0  0  0
   -1.2229   -1.1491    0.8630 H   0  0  0  0  0  0  0  0  0  0  0  0
   -1.8285   -0.9812   -0.8259 H   0  0  0  0  0  0  0  0  0  0  0  0
  1  6  1  0  0  0  0
  2  1  2  0  0  0  0
  2  3  1  0  0  0  0
  3  4  2  0  0  0  0
  4  5  1  0  0  0  0
  4  9  1  0  0  0  0
  5 10  1  0  0  0  0
  6 13  1  0  0  0  0
  6  5  2  0  0  0  0
  7  1  1  0  0  0  0
  8  2  1  0  0  0  0
 12 11  3  0  0  0  0
 14 15  1  0  0  0  0
 14 13  1  0  0  0  0
 14 16  1  0  0  0  0
 17 14  1  0  0  0  0
M  RAD  1   3   2
M  END
