Coordinates from ORCA-job 4-MeO-Ph-N2+-B3LYPG-6-31G_dp-MTMO-d009-169-n900
 OpenBabel09051907383D

 17 16  0  0  0  0  0  0  0  0999 V2000
   -0.7516    1.9472   -0.0129 C   0  0  0  0  0  0  0  0  0  0  0  0
   -0.3588    3.3070    0.0202 C   0  0  0  0  0  0  0  0  0  0  0  0
   -1.4456    4.0241    0.3396 C   0  0  0  0  0  0  0  0  0  0  0  0
   -2.6149    3.9184    0.9919 C   0  0  0  0  0  0  0  0  0  0  0  0
   -2.9419    2.5471    0.9458 C   0  0  0  0  0  0  0  0  0  0  0  0
   -2.0265    1.5659    0.4710 C   0  0  0  0  0  0  0  0  0  0  0  0
   -0.0454    1.2315   -0.4178 H   0  0  0  0  0  0  0  0  0  0  0  0
    0.6294    3.6630   -0.2484 H   0  0  0  0  0  0  0  0  0  0  0  0
   -3.2946    4.6938    1.3252 H   0  0  0  0  0  0  0  0  0  0  0  0
   -3.9509    2.2490    1.2179 H   0  0  0  0  0  0  0  0  0  0  0  0
   -2.8805   -6.2142   -0.1607 N   0  0  0  0  0  0  0  0  0  0  0  0
   -3.1285   -7.2894   -0.2227 N   0  0  0  0  0  0  0  0  0  0  0  0
   -2.4763    0.3194    0.5145 O   0  0  0  0  0  0  0  0  0  0  0  0
   -1.6264   -0.7769    0.1167 C   0  0  0  0  0  0  0  0  0  0  0  0
   -2.2332   -1.6708    0.2479 H   0  0  0  0  0  0  0  0  0  0  0  0
   -0.7418   -0.8279    0.7571 H   0  0  0  0  0  0  0  0  0  0  0  0
   -1.3419   -0.6737   -0.9355 H   0  0  0  0  0  0  0  0  0  0  0  0
  1  2  2  0  0  0  0
  1  6  1  0  0  0  0
  2  3  1  0  0  0  0
  3  4  2  0  0  0  0
  4  9  1  0  0  0  0
  5  4  1  0  0  0  0
  5 10  1  0  0  0  0
  6 13  1  0  0  0  0
  6  5  2  0  0  0  0
  7  1  1  0  0  0  0
  8  2  1  0  0  0  0
 12 11  3  0  0  0  0
 14 15  1  0  0  0  0
 14 13  1  0  0  0  0
 14 16  1  0  0  0  0
 17 14  1  0  0  0  0
M  RAD  1   3   2
M  END
