Coordinates from ORCA-job 4-MeO-Ph-N2+-B3LYPG-6-31G_dp-MTMO-d009-169-n900
 OpenBabel09051907383D

 17 16  0  0  0  0  0  0  0  0999 V2000
   -0.6650    2.5528    0.0247 C   0  0  0  0  0  0  0  0  0  0  0  0
   -0.2800    3.9153    0.0139 C   0  0  0  0  0  0  0  0  0  0  0  0
   -1.3672    4.6343    0.3266 C   0  0  0  0  0  0  0  0  0  0  0  0
   -2.5286    4.5413    0.9945 C   0  0  0  0  0  0  0  0  0  0  0  0
   -2.8475    3.1673    0.9917 C   0  0  0  0  0  0  0  0  0  0  0  0
   -1.9318    2.1784    0.5343 C   0  0  0  0  0  0  0  0  0  0  0  0
    0.0408    1.8298   -0.3678 H   0  0  0  0  0  0  0  0  0  0  0  0
    0.7028    4.2692   -0.2764 H   0  0  0  0  0  0  0  0  0  0  0  0
   -3.2091    5.3221    1.3133 H   0  0  0  0  0  0  0  0  0  0  0  0
   -3.8515    2.8713    1.2841 H   0  0  0  0  0  0  0  0  0  0  0  0
   -3.5473  -10.8057   -0.5647 N   0  0  0  0  0  0  0  0  0  0  0  0
   -3.8509  -11.8653   -0.6460 N   0  0  0  0  0  0  0  0  0  0  0  0
   -2.3734    0.9309    0.6185 O   0  0  0  0  0  0  0  0  0  0  0  0
   -1.5212   -0.1706    0.2416 C   0  0  0  0  0  0  0  0  0  0  0  0
   -2.1218   -1.0636    0.4033 H   0  0  0  0  0  0  0  0  0  0  0  0
   -0.6297   -0.1998    0.8740 H   0  0  0  0  0  0  0  0  0  0  0  0
   -1.2479   -0.0944   -0.8159 H   0  0  0  0  0  0  0  0  0  0  0  0
  1  6  1  0  0  0  0
  2  1  2  0  0  0  0
  2  3  1  0  0  0  0
  3  4  2  0  0  0  0
  4  9  1  0  0  0  0
  5  4  1  0  0  0  0
  5 10  1  0  0  0  0
  6 13  1  0  0  0  0
  6  5  2  0  0  0  0
  7  1  1  0  0  0  0
  8  2  1  0  0  0  0
 12 11  3  0  0  0  0
 14 15  1  0  0  0  0
 14 13  1  0  0  0  0
 14 16  1  0  0  0  0
 17 14  1  0  0  0  0
M  RAD  1   3   2
M  END
