Coordinates from ORCA-job 4-MeO-Ph-N2+-B3LYPG-6-31G_dp-MTMO-d009-169-n900
 OpenBabel09051907383D

 17 16  0  0  0  0  0  0  0  0999 V2000
   -1.0009    1.3713   -0.0069 C   0  0  0  0  0  0  0  0  0  0  0  0
   -0.2747    2.5849   -0.0691 C   0  0  0  0  0  0  0  0  0  0  0  0
   -1.1319    3.5726    0.2272 C   0  0  0  0  0  0  0  0  0  0  0  0
   -2.2633    3.8031    0.9145 C   0  0  0  0  0  0  0  0  0  0  0  0
   -2.9297    2.5616    0.9632 C   0  0  0  0  0  0  0  0  0  0  0  0
   -2.3114    1.3548    0.5301 C   0  0  0  0  0  0  0  0  0  0  0  0
   -0.5181    0.4780   -0.3866 H   0  0  0  0  0  0  0  0  0  0  0  0
    0.7593    2.6610   -0.3861 H   0  0  0  0  0  0  0  0  0  0  0  0
   -2.7084    4.7436    1.2170 H   0  0  0  0  0  0  0  0  0  0  0  0
   -3.9695    2.5459    1.2784 H   0  0  0  0  0  0  0  0  0  0  0  0
   -1.1908   -3.9010   -0.4320 N   0  0  0  0  0  0  0  0  0  0  0  0
   -0.8715   -4.9423   -0.6186 N   0  0  0  0  0  0  0  0  0  0  0  0
   -3.0580    0.2683    0.6627 O   0  0  0  0  0  0  0  0  0  0  0  0
   -2.5219   -1.0289    0.3226 C   0  0  0  0  0  0  0  0  0  0  0  0
   -3.3279   -1.7326    0.5191 H   0  0  0  0  0  0  0  0  0  0  0  0
   -1.6595   -1.2643    0.9509 H   0  0  0  0  0  0  0  0  0  0  0  0
   -2.2512   -1.0625   -0.7368 H   0  0  0  0  0  0  0  0  0  0  0  0
  1  6  1  0  0  0  0
  2  1  2  0  0  0  0
  2  3  1  0  0  0  0
  3  4  2  0  0  0  0
  4  5  1  0  0  0  0
  4  9  1  0  0  0  0
  5 10  1  0  0  0  0
  6 13  1  0  0  0  0
  6  5  2  0  0  0  0
  7  1  1  0  0  0  0
  8  2  1  0  0  0  0
 12 11  3  0  0  0  0
 14 15  1  0  0  0  0
 14 13  1  0  0  0  0
 14 16  1  0  0  0  0
 17 14  1  0  0  0  0
M  RAD  1   3   2
M  END
