Coordinates from ORCA-job 4-MeO-Ph-N2+-B3LYPG-6-31G_dp-MTMO-d009-169-n900
 OpenBabel09051907383D

 17 16  0  0  0  0  0  0  0  0999 V2000
   -2.0476   -0.2063    0.1834 C   0  0  0  0  0  0  0  0  0  0  0  0
   -0.6973   -0.2905   -0.2432 C   0  0  0  0  0  0  0  0  0  0  0  0
   -0.1735    0.9395   -0.1750 C   0  0  0  0  0  0  0  0  0  0  0  0
   -0.4864    2.2041    0.1609 C   0  0  0  0  0  0  0  0  0  0  0  0
   -1.8333    2.2048    0.5716 C   0  0  0  0  0  0  0  0  0  0  0  0
   -2.6123    1.0225    0.5868 C   0  0  0  0  0  0  0  0  0  0  0  0
   -2.6153   -1.1298    0.1805 H   0  0  0  0  0  0  0  0  0  0  0  0
   -0.2232   -1.2097   -0.5600 H   0  0  0  0  0  0  0  0  0  0  0  0
    0.1392    3.0863    0.1353 H   0  0  0  0  0  0  0  0  0  0  0  0
   -2.2775    3.1454    0.8829 H   0  0  0  0  0  0  0  0  0  0  0  0
    2.0621    0.8599   -0.8672 N   0  0  0  0  0  0  0  0  0  0  0  0
    3.1158    0.8240   -1.1948 N   0  0  0  0  0  0  0  0  0  0  0  0
   -3.8705    1.1798    0.9985 O   0  0  0  0  0  0  0  0  0  0  0  0
   -4.7512    0.0448    1.0558 C   0  0  0  0  0  0  0  0  0  0  0  0
   -5.7024    0.4356    1.4121 H   0  0  0  0  0  0  0  0  0  0  0  0
   -4.3735   -0.7033    1.7606 H   0  0  0  0  0  0  0  0  0  0  0  0
   -4.8826   -0.3936    0.0613 H   0  0  0  0  0  0  0  0  0  0  0  0
  1  6  2  0  0  0  0
  2  3  2  0  0  0  0
  2  1  1  0  0  0  0
  3  4  1  0  0  0  0
  4  5  2  0  0  0  0
  5  6  1  0  0  0  0
  5 10  1  0  0  0  0
  6 13  1  0  0  0  0
  7  1  1  0  0  0  0
  8  2  1  0  0  0  0
  9  4  1  0  0  0  0
 12 11  3  0  0  0  0
 13 14  1  0  0  0  0
 14 15  1  0  0  0  0
 14 16  1  0  0  0  0
 17 14  1  0  0  0  0
M  RAD  1   3   2
M  END
