Coordinates from ORCA-job 4-MeO-Ph-N2+-B3LYPG-6-31G_dp-MTMO-d009-169-n900
 OpenBabel09051907383D

 17 16  0  0  0  0  0  0  0  0999 V2000
   -0.7552    1.9026   -0.0152 C   0  0  0  0  0  0  0  0  0  0  0  0
   -0.3722    3.2648    0.0305 C   0  0  0  0  0  0  0  0  0  0  0  0
   -1.4652    3.9719    0.3512 C   0  0  0  0  0  0  0  0  0  0  0  0
   -2.6361    3.8523    0.9984 C   0  0  0  0  0  0  0  0  0  0  0  0
   -2.9533    2.4793    0.9399 C   0  0  0  0  0  0  0  0  0  0  0  0
   -2.0292    1.5082    0.4607 C   0  0  0  0  0  0  0  0  0  0  0  0
   -0.0424    1.1952   -0.4232 H   0  0  0  0  0  0  0  0  0  0  0  0
    0.6146    3.6298   -0.2312 H   0  0  0  0  0  0  0  0  0  0  0  0
   -3.3225    4.6202    1.3355 H   0  0  0  0  0  0  0  0  0  0  0  0
   -3.9612    2.1719    1.2057 H   0  0  0  0  0  0  0  0  0  0  0  0
   -2.8529   -5.8071   -0.1107 N   0  0  0  0  0  0  0  0  0  0  0  0
   -3.1066   -6.8817   -0.1579 N   0  0  0  0  0  0  0  0  0  0  0  0
   -2.4704    0.2584    0.4927 O   0  0  0  0  0  0  0  0  0  0  0  0
   -1.6117   -0.8292    0.0895 C   0  0  0  0  0  0  0  0  0  0  0  0
   -2.2122   -1.7286    0.2122 H   0  0  0  0  0  0  0  0  0  0  0  0
   -0.7287   -0.8788    0.7324 H   0  0  0  0  0  0  0  0  0  0  0  0
   -1.3245   -0.7159   -0.9608 H   0  0  0  0  0  0  0  0  0  0  0  0
  1  2  2  0  0  0  0
  1  6  1  0  0  0  0
  2  3  1  0  0  0  0
  3  4  2  0  0  0  0
  4  9  1  0  0  0  0
  5  4  1  0  0  0  0
  5 10  1  0  0  0  0
  6 13  1  0  0  0  0
  6  5  2  0  0  0  0
  7  1  1  0  0  0  0
  8  2  1  0  0  0  0
 12 11  3  0  0  0  0
 14 15  1  0  0  0  0
 14 13  1  0  0  0  0
 14 16  1  0  0  0  0
 17 14  1  0  0  0  0
M  RAD  1   3   2
M  END
