Coordinates from ORCA-job 4-MeO-Ph-N2+-B3LYPG-6-31G_dp-MTMO-d009-169-n900
 OpenBabel09051907383D

 17 16  0  0  0  0  0  0  0  0999 V2000
   -0.7291    2.1282   -0.0021 C   0  0  0  0  0  0  0  0  0  0  0  0
   -0.3239    3.4849    0.0078 C   0  0  0  0  0  0  0  0  0  0  0  0
   -1.4020    4.2157    0.3247 C   0  0  0  0  0  0  0  0  0  0  0  0
   -2.5679    4.1306    0.9857 C   0  0  0  0  0  0  0  0  0  0  0  0
   -2.9072    2.7617    0.9624 C   0  0  0  0  0  0  0  0  0  0  0  0
   -2.0038    1.7656    0.4959 C   0  0  0  0  0  0  0  0  0  0  0  0
   -0.0320    1.4003   -0.4012 H   0  0  0  0  0  0  0  0  0  0  0  0
    0.6655    3.8281   -0.2730 H   0  0  0  0  0  0  0  0  0  0  0  0
   -3.2383    4.9170    1.3121 H   0  0  0  0  0  0  0  0  0  0  0  0
   -3.9169    2.4767    1.2459 H   0  0  0  0  0  0  0  0  0  0  0  0
   -3.0533   -7.6768   -0.3114 N   0  0  0  0  0  0  0  0  0  0  0  0
   -3.3034   -8.7513   -0.3797 N   0  0  0  0  0  0  0  0  0  0  0  0
   -2.4642    0.5239    0.5608 O   0  0  0  0  0  0  0  0  0  0  0  0
   -1.6265   -0.5852    0.1734 C   0  0  0  0  0  0  0  0  0  0  0  0
   -2.2407   -1.4714    0.3207 H   0  0  0  0  0  0  0  0  0  0  0  0
   -0.7386   -0.6354    0.8094 H   0  0  0  0  0  0  0  0  0  0  0  0
   -1.3472   -0.4993   -0.8817 H   0  0  0  0  0  0  0  0  0  0  0  0
  1  2  2  0  0  0  0
  1  6  1  0  0  0  0
  2  3  1  0  0  0  0
  3  4  2  0  0  0  0
  4  9  1  0  0  0  0
  5  4  1  0  0  0  0
  5 10  1  0  0  0  0
  6 13  1  0  0  0  0
  6  5  2  0  0  0  0
  7  1  1  0  0  0  0
  8  2  1  0  0  0  0
 12 11  3  0  0  0  0
 14 15  1  0  0  0  0
 14 13  1  0  0  0  0
 14 16  1  0  0  0  0
 17 14  1  0  0  0  0
M  RAD  1   3   2
M  END
