Coordinates from ORCA-job 4-MeO-Ph-N2+-B3LYPG-6-31G_dp-MTMO-d009-169-n900
 OpenBabel09051907383D

 17 16  0  0  0  0  0  0  0  0999 V2000
   -0.7374    2.0678   -0.0056 C   0  0  0  0  0  0  0  0  0  0  0  0
   -0.3324    3.4244    0.0104 C   0  0  0  0  0  0  0  0  0  0  0  0
   -1.4111    4.1540    0.3281 C   0  0  0  0  0  0  0  0  0  0  0  0
   -2.5781    4.0662    0.9868 C   0  0  0  0  0  0  0  0  0  0  0  0
   -2.9174    2.6974    0.9575 C   0  0  0  0  0  0  0  0  0  0  0  0
   -2.0131    1.7031    0.4888 C   0  0  0  0  0  0  0  0  0  0  0  0
   -0.0396    1.3414   -0.4063 H   0  0  0  0  0  0  0  0  0  0  0  0
    0.6575    3.7687   -0.2674 H   0  0  0  0  0  0  0  0  0  0  0  0
   -3.2491    4.8513    1.3151 H   0  0  0  0  0  0  0  0  0  0  0  0
   -3.9275    2.4112    1.2381 H   0  0  0  0  0  0  0  0  0  0  0  0
   -2.9870   -7.2114   -0.2668 N   0  0  0  0  0  0  0  0  0  0  0  0
   -3.2340   -8.2866   -0.3344 N   0  0  0  0  0  0  0  0  0  0  0  0
   -2.4735    0.4612    0.5480 O   0  0  0  0  0  0  0  0  0  0  0  0
   -1.6350   -0.6465    0.1579 C   0  0  0  0  0  0  0  0  0  0  0  0
   -2.2493   -1.5333    0.3010 H   0  0  0  0  0  0  0  0  0  0  0  0
   -0.7481   -0.6988    0.7951 H   0  0  0  0  0  0  0  0  0  0  0  0
   -1.3542   -0.5567   -0.8965 H   0  0  0  0  0  0  0  0  0  0  0  0
  1  2  2  0  0  0  0
  1  6  1  0  0  0  0
  2  3  1  0  0  0  0
  3  4  2  0  0  0  0
  4  9  1  0  0  0  0
  5  4  1  0  0  0  0
  5 10  1  0  0  0  0
  6 13  1  0  0  0  0
  6  5  2  0  0  0  0
  7  1  1  0  0  0  0
  8  2  1  0  0  0  0
 12 11  3  0  0  0  0
 14 15  1  0  0  0  0
 14 13  1  0  0  0  0
 14 16  1  0  0  0  0
 17 14  1  0  0  0  0
M  RAD  1   3   2
M  END
