Coordinates from ORCA-job 4-MeO-Ph-N2+-B3LYPG-6-31G_dp-MTMO-d009-169-n900
 OpenBabel09051907383D

 17 16  0  0  0  0  0  0  0  0999 V2000
   -0.6904    2.3877    0.0136 C   0  0  0  0  0  0  0  0  0  0  0  0
   -0.2968    3.7478    0.0074 C   0  0  0  0  0  0  0  0  0  0  0  0
   -1.3798    4.4725    0.3214 C   0  0  0  0  0  0  0  0  0  0  0  0
   -2.5423    4.3848    0.9881 C   0  0  0  0  0  0  0  0  0  0  0  0
   -2.8698    3.0128    0.9807 C   0  0  0  0  0  0  0  0  0  0  0  0
   -1.9599    2.0196    0.5210 C   0  0  0  0  0  0  0  0  0  0  0  0
    0.0112    1.6615   -0.3806 H   0  0  0  0  0  0  0  0  0  0  0  0
    0.6884    4.0964   -0.2811 H   0  0  0  0  0  0  0  0  0  0  0  0
   -3.2181    5.1688    1.3088 H   0  0  0  0  0  0  0  0  0  0  0  0
   -3.8759    2.7222    1.2715 H   0  0  0  0  0  0  0  0  0  0  0  0
   -3.3585   -9.5971   -0.4743 N   0  0  0  0  0  0  0  0  0  0  0  0
   -3.6322  -10.6654   -0.5480 N   0  0  0  0  0  0  0  0  0  0  0  0
   -2.4094    0.7747    0.6010 O   0  0  0  0  0  0  0  0  0  0  0  0
   -1.5638   -0.3310    0.2214 C   0  0  0  0  0  0  0  0  0  0  0  0
   -2.1701   -1.2208    0.3799 H   0  0  0  0  0  0  0  0  0  0  0  0
   -0.6731   -0.3676    0.8544 H   0  0  0  0  0  0  0  0  0  0  0  0
   -1.2891   -0.2533   -0.8356 H   0  0  0  0  0  0  0  0  0  0  0  0
  1  6  1  0  0  0  0
  2  1  2  0  0  0  0
  2  3  1  0  0  0  0
  3  4  2  0  0  0  0
  4  9  1  0  0  0  0
  5  4  1  0  0  0  0
  5 10  1  0  0  0  0
  6 13  1  0  0  0  0
  6  5  2  0  0  0  0
  7  1  1  0  0  0  0
  8  2  1  0  0  0  0
 12 11  3  0  0  0  0
 14 15  1  0  0  0  0
 14 13  1  0  0  0  0
 14 16  1  0  0  0  0
 17 14  1  0  0  0  0
M  RAD  1   3   2
M  END
