Coordinates from ORCA-job 4-MeO-Ph-N2+-B3LYPG-6-31G_dp-MTMO-d009-169-n900
 OpenBabel09051907383D

 17 16  0  0  0  0  0  0  0  0999 V2000
   -0.7010    2.3178    0.0092 C   0  0  0  0  0  0  0  0  0  0  0  0
   -0.3036    3.6768    0.0060 C   0  0  0  0  0  0  0  0  0  0  0  0
   -1.3847    4.4041    0.3207 C   0  0  0  0  0  0  0  0  0  0  0  0
   -2.5478    4.3182    0.9863 C   0  0  0  0  0  0  0  0  0  0  0  0
   -2.8793    2.9472    0.9760 C   0  0  0  0  0  0  0  0  0  0  0  0
   -1.9719    1.9524    0.5150 C   0  0  0  0  0  0  0  0  0  0  0  0
   -0.0012    1.5904   -0.3860 H   0  0  0  0  0  0  0  0  0  0  0  0
    0.6828    4.0232   -0.2812 H   0  0  0  0  0  0  0  0  0  0  0  0
   -3.2216    5.1036    1.3082 H   0  0  0  0  0  0  0  0  0  0  0  0
   -3.8864    2.6589    1.2655 H   0  0  0  0  0  0  0  0  0  0  0  0
   -3.2762   -9.0861   -0.4338 N   0  0  0  0  0  0  0  0  0  0  0  0
   -3.5410  -10.1568   -0.5054 N   0  0  0  0  0  0  0  0  0  0  0  0
   -2.4250    0.7086    0.5921 O   0  0  0  0  0  0  0  0  0  0  0  0
   -1.5824   -0.3988    0.2110 C   0  0  0  0  0  0  0  0  0  0  0  0
   -2.1912   -1.2871    0.3673 H   0  0  0  0  0  0  0  0  0  0  0  0
   -0.6921   -0.4391    0.8445 H   0  0  0  0  0  0  0  0  0  0  0  0
   -1.3068   -0.3199   -0.8457 H   0  0  0  0  0  0  0  0  0  0  0  0
  1  6  1  0  0  0  0
  2  1  2  0  0  0  0
  2  3  1  0  0  0  0
  3  4  2  0  0  0  0
  4  9  1  0  0  0  0
  5  4  1  0  0  0  0
  5 10  1  0  0  0  0
  6 13  1  0  0  0  0
  6  5  2  0  0  0  0
  7  1  1  0  0  0  0
  8  2  1  0  0  0  0
 12 11  3  0  0  0  0
 14 15  1  0  0  0  0
 14 13  1  0  0  0  0
 14 16  1  0  0  0  0
 17 14  1  0  0  0  0
M  RAD  1   3   2
M  END
