Coordinates from ORCA-job 4-MeO-Ph-N2+-B3LYPG-6-31G_dp-MTMO-d009-169-n900
 OpenBabel09051907383D

 17 16  0  0  0  0  0  0  0  0999 V2000
   -0.6828    2.4381    0.0169 C   0  0  0  0  0  0  0  0  0  0  0  0
   -0.2915    3.7988    0.0087 C   0  0  0  0  0  0  0  0  0  0  0  0
   -1.3755    4.5223    0.3222 C   0  0  0  0  0  0  0  0  0  0  0  0
   -2.5374    4.4334    0.9896 C   0  0  0  0  0  0  0  0  0  0  0  0
   -2.8627    3.0609    0.9843 C   0  0  0  0  0  0  0  0  0  0  0  0
   -1.9513    2.0686    0.5254 C   0  0  0  0  0  0  0  0  0  0  0  0
    0.0199    1.7125   -0.3766 H   0  0  0  0  0  0  0  0  0  0  0  0
    0.6931    4.1487   -0.2807 H   0  0  0  0  0  0  0  0  0  0  0  0
   -3.2145    5.2168    1.3095 H   0  0  0  0  0  0  0  0  0  0  0  0
   -3.8682    2.7690    1.2758 H   0  0  0  0  0  0  0  0  0  0  0  0
   -3.4169   -9.9689   -0.5031 N   0  0  0  0  0  0  0  0  0  0  0  0
   -3.6975  -11.0352   -0.5792 N   0  0  0  0  0  0  0  0  0  0  0  0
   -2.3987    0.8231    0.6072 O   0  0  0  0  0  0  0  0  0  0  0  0
   -1.5515   -0.2817    0.2287 C   0  0  0  0  0  0  0  0  0  0  0  0
   -2.1562   -1.1723    0.3884 H   0  0  0  0  0  0  0  0  0  0  0  0
   -0.6605   -0.3161    0.8613 H   0  0  0  0  0  0  0  0  0  0  0  0
   -1.2774   -0.2048   -0.8286 H   0  0  0  0  0  0  0  0  0  0  0  0
  1  6  1  0  0  0  0
  2  1  2  0  0  0  0
  2  3  1  0  0  0  0
  3  4  2  0  0  0  0
  4  9  1  0  0  0  0
  5  4  1  0  0  0  0
  5 10  1  0  0  0  0
  6 13  1  0  0  0  0
  6  5  2  0  0  0  0
  7  1  1  0  0  0  0
  8  2  1  0  0  0  0
 12 11  3  0  0  0  0
 14 15  1  0  0  0  0
 14 13  1  0  0  0  0
 14 16  1  0  0  0  0
 17 14  1  0  0  0  0
M  RAD  1   3   2
M  END
