Coordinates from ORCA-job 4-MeO-Ph-N2+-B3LYPG-6-31G_dp-MTMO-d009-169-n900
 OpenBabel09051907383D

 17 16  0  0  0  0  0  0  0  0999 V2000
   -1.6418    0.5617    0.1137 C   0  0  0  0  0  0  0  0  0  0  0  0
   -0.3925    1.1830   -0.1397 C   0  0  0  0  0  0  0  0  0  0  0  0
   -0.5864    2.5001    0.0046 C   0  0  0  0  0  0  0  0  0  0  0  0
   -1.3766    3.3869    0.6315 C   0  0  0  0  0  0  0  0  0  0  0  0
   -2.5866    2.7053    0.8754 C   0  0  0  0  0  0  0  0  0  0  0  0
   -2.7221    1.3090    0.6406 C   0  0  0  0  0  0  0  0  0  0  0  0
   -1.7255   -0.4928   -0.1245 H   0  0  0  0  0  0  0  0  0  0  0  0
    0.4917    0.6472   -0.4696 H   0  0  0  0  0  0  0  0  0  0  0  0
   -1.2351    4.4504    0.7852 H   0  0  0  0  0  0  0  0  0  0  0  0
   -3.4500    3.2828    1.1953 H   0  0  0  0  0  0  0  0  0  0  0  0
    2.0630   -2.0091   -1.2016 N   0  0  0  0  0  0  0  0  0  0  0  0
    2.7119   -2.8581   -1.4827 N   0  0  0  0  0  0  0  0  0  0  0  0
   -3.9130    0.8062    0.9393 O   0  0  0  0  0  0  0  0  0  0  0  0
   -4.1555   -0.6097    0.8141 C   0  0  0  0  0  0  0  0  0  0  0  0
   -5.1901   -0.7508    1.1199 H   0  0  0  0  0  0  0  0  0  0  0  0
   -3.4905   -1.1726    1.4749 H   0  0  0  0  0  0  0  0  0  0  0  0
   -4.0303   -0.9261   -0.2266 H   0  0  0  0  0  0  0  0  0  0  0  0
  1  6  2  0  0  0  0
  2  3  2  0  0  0  0
  2  1  1  0  0  0  0
  3  4  1  0  0  0  0
  4  9  1  0  0  0  0
  4  5  2  0  0  0  0
  5 10  1  0  0  0  0
  6  5  1  0  0  0  0
  6 13  1  0  0  0  0
  7  1  1  0  0  0  0
  8  2  1  0  0  0  0
 12 11  3  0  0  0  0
 14 13  1  0  0  0  0
 14 15  1  0  0  0  0
 14 16  1  0  0  0  0
 17 14  1  0  0  0  0
M  RAD  1   3   2
M  END
