Coordinates from ORCA-job 4-MeO-Ph-N2+-B3LYPG-6-31G_dp-MTMO-d009-169-n900
 OpenBabel09051907383D

 17 16  0  0  0  0  0  0  0  0999 V2000
   -0.7112    2.2505    0.0051 C   0  0  0  0  0  0  0  0  0  0  0  0
   -0.3103    3.6085    0.0056 C   0  0  0  0  0  0  0  0  0  0  0  0
   -1.3898    4.3377    0.3210 C   0  0  0  0  0  0  0  0  0  0  0  0
   -2.5538    4.2531    0.9854 C   0  0  0  0  0  0  0  0  0  0  0  0
   -2.8888    2.8830    0.9714 C   0  0  0  0  0  0  0  0  0  0  0  0
   -1.9835    1.8870    0.5087 C   0  0  0  0  0  0  0  0  0  0  0  0
   -0.0128    1.5223   -0.3913 H   0  0  0  0  0  0  0  0  0  0  0  0
    0.6773    3.9531   -0.2798 H   0  0  0  0  0  0  0  0  0  0  0  0
   -3.2259    5.0394    1.3087 H   0  0  0  0  0  0  0  0  0  0  0  0
   -3.8969    2.5965    1.2592 H   0  0  0  0  0  0  0  0  0  0  0  0
   -3.1962   -8.5907   -0.3926 N   0  0  0  0  0  0  0  0  0  0  0  0
   -3.4547   -9.6630   -0.4628 N   0  0  0  0  0  0  0  0  0  0  0  0
   -2.4398    0.6442    0.5823 O   0  0  0  0  0  0  0  0  0  0  0  0
   -1.5995   -0.4644    0.1993 C   0  0  0  0  0  0  0  0  0  0  0  0
   -2.2108   -1.3516    0.3530 H   0  0  0  0  0  0  0  0  0  0  0  0
   -0.7100   -0.5084    0.8335 H   0  0  0  0  0  0  0  0  0  0  0  0
   -1.3229   -0.3837   -0.8569 H   0  0  0  0  0  0  0  0  0  0  0  0
  1  2  2  0  0  0  0
  1  6  1  0  0  0  0
  2  3  1  0  0  0  0
  3  4  2  0  0  0  0
  4  9  1  0  0  0  0
  5  4  1  0  0  0  0
  5 10  1  0  0  0  0
  6 13  1  0  0  0  0
  6  5  2  0  0  0  0
  7  1  1  0  0  0  0
  8  2  1  0  0  0  0
 12 11  3  0  0  0  0
 14 15  1  0  0  0  0
 14 13  1  0  0  0  0
 14 16  1  0  0  0  0
 17 14  1  0  0  0  0
M  RAD  1   3   2
M  END
