Coordinates from ORCA-job 4-MeO-Ph-N2+-B3LYPG-6-31G_dp-MTMO-d009-169-n900
 OpenBabel09051907383D

 17 16  0  0  0  0  0  0  0  0999 V2000
   -1.1339    1.1241    0.0199 C   0  0  0  0  0  0  0  0  0  0  0  0
   -0.2471    2.2212   -0.0942 C   0  0  0  0  0  0  0  0  0  0  0  0
   -0.9525    3.3333    0.1626 C   0  0  0  0  0  0  0  0  0  0  0  0
   -2.0324    3.7497    0.8446 C   0  0  0  0  0  0  0  0  0  0  0  0
   -2.8653    2.6161    0.9454 C   0  0  0  0  0  0  0  0  0  0  0  0
   -2.4283    1.3169    0.5607 C   0  0  0  0  0  0  0  0  0  0  0  0
   -0.7825    0.1546   -0.3164 H   0  0  0  0  0  0  0  0  0  0  0  0
    0.7865    2.1390   -0.4111 H   0  0  0  0  0  0  0  0  0  0  0  0
   -2.3419    4.7548    1.1053 H   0  0  0  0  0  0  0  0  0  0  0  0
   -3.8957    2.7608    1.2591 H   0  0  0  0  0  0  0  0  0  0  0  0
   -0.3693   -3.2258   -0.6159 N   0  0  0  0  0  0  0  0  0  0  0  0
    0.0963   -4.2039   -0.8342 N   0  0  0  0  0  0  0  0  0  0  0  0
   -3.3218    0.3548    0.7405 O   0  0  0  0  0  0  0  0  0  0  0  0
   -2.9814   -1.0167    0.4461 C   0  0  0  0  0  0  0  0  0  0  0  0
   -3.8788   -1.5881    0.6750 H   0  0  0  0  0  0  0  0  0  0  0  0
   -2.1524   -1.3502    1.0752 H   0  0  0  0  0  0  0  0  0  0  0  0
   -2.7290   -1.1273   -0.6129 H   0  0  0  0  0  0  0  0  0  0  0  0
  1  6  1  0  0  0  0
  2  1  2  0  0  0  0
  2  3  1  0  0  0  0
  3  4  2  0  0  0  0
  4  5  1  0  0  0  0
  4  9  1  0  0  0  0
  5 10  1  0  0  0  0
  6 13  1  0  0  0  0
  6  5  2  0  0  0  0
  7  1  1  0  0  0  0
  8  2  1  0  0  0  0
 12 11  3  0  0  0  0
 14 15  1  0  0  0  0
 14 13  1  0  0  0  0
 14 16  1  0  0  0  0
 17 14  1  0  0  0  0
M  RAD  1   3   2
M  END
