Coordinates from ORCA-job 4-MeO-Ph-N2+-B3LYPG-6-31G_dp-MTMO-d009-169-n900
 OpenBabel09051907383D

 17 16  0  0  0  0  0  0  0  0999 V2000
   -0.7068    2.2799    0.0068 C   0  0  0  0  0  0  0  0  0  0  0  0
   -0.3073    3.6383    0.0056 C   0  0  0  0  0  0  0  0  0  0  0  0
   -1.3875    4.3667    0.3207 C   0  0  0  0  0  0  0  0  0  0  0  0
   -2.5511    4.2817    0.9857 C   0  0  0  0  0  0  0  0  0  0  0  0
   -2.8846    2.9112    0.9734 C   0  0  0  0  0  0  0  0  0  0  0  0
   -1.9784    1.9156    0.5115 C   0  0  0  0  0  0  0  0  0  0  0  0
   -0.0078    1.5520   -0.3890 H   0  0  0  0  0  0  0  0  0  0  0  0
    0.6798    3.9836   -0.2806 H   0  0  0  0  0  0  0  0  0  0  0  0
   -3.2239    5.0676    1.3084 H   0  0  0  0  0  0  0  0  0  0  0  0
   -3.8923    2.6240    1.2620 H   0  0  0  0  0  0  0  0  0  0  0  0
   -3.2311   -8.8075   -0.4109 N   0  0  0  0  0  0  0  0  0  0  0  0
   -3.4922   -9.8791   -0.4816 N   0  0  0  0  0  0  0  0  0  0  0  0
   -2.4334    0.6724    0.5867 O   0  0  0  0  0  0  0  0  0  0  0  0
   -1.5921   -0.4357    0.2046 C   0  0  0  0  0  0  0  0  0  0  0  0
   -2.2024   -1.3234    0.3595 H   0  0  0  0  0  0  0  0  0  0  0  0
   -0.7023   -0.4781    0.8385 H   0  0  0  0  0  0  0  0  0  0  0  0
   -1.3160   -0.3559   -0.8518 H   0  0  0  0  0  0  0  0  0  0  0  0
  1  6  1  0  0  0  0
  2  1  2  0  0  0  0
  2  3  1  0  0  0  0
  3  4  2  0  0  0  0
  4  9  1  0  0  0  0
  5  4  1  0  0  0  0
  5 10  1  0  0  0  0
  6 13  1  0  0  0  0
  6  5  2  0  0  0  0
  7  1  1  0  0  0  0
  8  2  1  0  0  0  0
 12 11  3  0  0  0  0
 14 15  1  0  0  0  0
 14 13  1  0  0  0  0
 14 16  1  0  0  0  0
 17 14  1  0  0  0  0
M  RAD  1   3   2
M  END
