Coordinates from ORCA-job 4-MeO-Ph-N2+-B3LYPG-6-31G_dp-MTMO-d009-169-n900
 OpenBabel09051907383D

 17 16  0  0  0  0  0  0  0  0999 V2000
   -0.7560    1.8920   -0.0154 C   0  0  0  0  0  0  0  0  0  0  0  0
   -0.3739    3.2542    0.0360 C   0  0  0  0  0  0  0  0  0  0  0  0
   -1.4678    3.9600    0.3571 C   0  0  0  0  0  0  0  0  0  0  0  0
   -2.6395    3.8371    1.0022 C   0  0  0  0  0  0  0  0  0  0  0  0
   -2.9559    2.4641    0.9382 C   0  0  0  0  0  0  0  0  0  0  0  0
   -2.0306    1.4951    0.4570 C   0  0  0  0  0  0  0  0  0  0  0  0
   -0.0421    1.1864   -0.4248 H   0  0  0  0  0  0  0  0  0  0  0  0
    0.6132    3.6205   -0.2228 H   0  0  0  0  0  0  0  0  0  0  0  0
   -3.3271    4.6032    1.3408 H   0  0  0  0  0  0  0  0  0  0  0  0
   -3.9642    2.1553    1.2011 H   0  0  0  0  0  0  0  0  0  0  0  0
   -2.8450   -5.7131   -0.0939 N   0  0  0  0  0  0  0  0  0  0  0  0
   -3.0962   -6.7884   -0.1384 N   0  0  0  0  0  0  0  0  0  0  0  0
   -2.4711    0.2450    0.4841 O   0  0  0  0  0  0  0  0  0  0  0  0
   -1.6110   -0.8410    0.0788 C   0  0  0  0  0  0  0  0  0  0  0  0
   -2.2108   -1.7413    0.1979 H   0  0  0  0  0  0  0  0  0  0  0  0
   -0.7288   -0.8915    0.7227 H   0  0  0  0  0  0  0  0  0  0  0  0
   -1.3226   -0.7243   -0.9709 H   0  0  0  0  0  0  0  0  0  0  0  0
  1  2  2  0  0  0  0
  1  6  1  0  0  0  0
  2  3  1  0  0  0  0
  3  4  2  0  0  0  0
  4  9  1  0  0  0  0
  5  4  1  0  0  0  0
  5 10  1  0  0  0  0
  6 13  1  0  0  0  0
  6  5  2  0  0  0  0
  7  1  1  0  0  0  0
  8  2  1  0  0  0  0
 12 11  3  0  0  0  0
 14 15  1  0  0  0  0
 14 13  1  0  0  0  0
 14 16  1  0  0  0  0
 17 14  1  0  0  0  0
M  RAD  1   3   2
M  END
