Coordinates from ORCA-job 4-MeO-Ph-N2+-B3LYPG-6-31G_dp-MTMO-d009-169-n900
 OpenBabel09051907383D

 17 16  0  0  0  0  0  0  0  0999 V2000
   -0.6872    2.4089    0.0150 C   0  0  0  0  0  0  0  0  0  0  0  0
   -0.2948    3.7694    0.0081 C   0  0  0  0  0  0  0  0  0  0  0  0
   -1.3784    4.4933    0.3219 C   0  0  0  0  0  0  0  0  0  0  0  0
   -2.5407    4.4048    0.9887 C   0  0  0  0  0  0  0  0  0  0  0  0
   -2.8670    3.0325    0.9821 C   0  0  0  0  0  0  0  0  0  0  0  0
   -1.9562    2.0399    0.5228 C   0  0  0  0  0  0  0  0  0  0  0  0
    0.0151    1.6831   -0.3789 H   0  0  0  0  0  0  0  0  0  0  0  0
    0.6901    4.1187   -0.2808 H   0  0  0  0  0  0  0  0  0  0  0  0
   -3.2171    5.1884    1.3092 H   0  0  0  0  0  0  0  0  0  0  0  0
   -3.8727    2.7412    1.2732 H   0  0  0  0  0  0  0  0  0  0  0  0
   -3.3832   -9.7520   -0.4861 N   0  0  0  0  0  0  0  0  0  0  0  0
   -3.6604  -10.8193   -0.5607 N   0  0  0  0  0  0  0  0  0  0  0  0
   -2.4046    0.7946    0.6034 O   0  0  0  0  0  0  0  0  0  0  0  0
   -1.5581   -0.3105    0.2243 C   0  0  0  0  0  0  0  0  0  0  0  0
   -2.1635   -1.2007    0.3832 H   0  0  0  0  0  0  0  0  0  0  0  0
   -0.6672   -0.3460    0.8571 H   0  0  0  0  0  0  0  0  0  0  0  0
   -1.2836   -0.2330   -0.8328 H   0  0  0  0  0  0  0  0  0  0  0  0
  1  6  1  0  0  0  0
  2  1  2  0  0  0  0
  2  3  1  0  0  0  0
  3  4  2  0  0  0  0
  4  9  1  0  0  0  0
  5  4  1  0  0  0  0
  5 10  1  0  0  0  0
  6 13  1  0  0  0  0
  6  5  2  0  0  0  0
  7  1  1  0  0  0  0
  8  2  1  0  0  0  0
 12 11  3  0  0  0  0
 14 15  1  0  0  0  0
 14 13  1  0  0  0  0
 14 16  1  0  0  0  0
 17 14  1  0  0  0  0
M  RAD  1   3   2
M  END
