Coordinates from ORCA-job 4-MeO-Ph-N2+-B3LYPG-6-31G_dp-MTMO-d009-169-n900
 OpenBabel09051907383D

 17 16  0  0  0  0  0  0  0  0999 V2000
   -2.1449   -0.1972    0.1322 C   0  0  0  0  0  0  0  0  0  0  0  0
   -0.7939   -0.2636   -0.2960 C   0  0  0  0  0  0  0  0  0  0  0  0
   -0.3426    0.9940   -0.3320 C   0  0  0  0  0  0  0  0  0  0  0  0
   -0.5729    2.2193    0.1630 C   0  0  0  0  0  0  0  0  0  0  0  0
   -1.9180    2.2096    0.5877 C   0  0  0  0  0  0  0  0  0  0  0  0
   -2.6966    1.0214    0.5913 C   0  0  0  0  0  0  0  0  0  0  0  0
   -2.7238   -1.1127    0.0777 H   0  0  0  0  0  0  0  0  0  0  0  0
   -0.2932   -1.1757   -0.5973 H   0  0  0  0  0  0  0  0  0  0  0  0
    0.0514    3.1039    0.1339 H   0  0  0  0  0  0  0  0  0  0  0  0
   -2.3756    3.1535    0.8707 H   0  0  0  0  0  0  0  0  0  0  0  0
    2.6847    0.8174   -0.9211 N   0  0  0  0  0  0  0  0  0  0  0  0
    3.7588    0.7722   -1.1755 N   0  0  0  0  0  0  0  0  0  0  0  0
   -3.9406    1.1688    1.0340 O   0  0  0  0  0  0  0  0  0  0  0  0
   -4.8085    0.0244    1.1448 C   0  0  0  0  0  0  0  0  0  0  0  0
   -5.7489    0.4136    1.5295 H   0  0  0  0  0  0  0  0  0  0  0  0
   -4.3938   -0.7068    1.8454 H   0  0  0  0  0  0  0  0  0  0  0  0
   -4.9711   -0.4286    0.1614 H   0  0  0  0  0  0  0  0  0  0  0  0
  1  6  2  0  0  0  0
  2  1  1  0  0  0  0
  3  2  2  0  0  0  0
  3  4  1  0  0  0  0
  4  5  2  0  0  0  0
  5  6  1  0  0  0  0
  5 10  1  0  0  0  0
  6 13  1  0  0  0  0
  7  1  1  0  0  0  0
  8  2  1  0  0  0  0
  9  4  1  0  0  0  0
 12 11  3  0  0  0  0
 13 14  1  0  0  0  0
 14 15  1  0  0  0  0
 14 16  1  0  0  0  0
 17 14  1  0  0  0  0
M  RAD  1   3   2
M  END
