Coordinates from ORCA-job 4-MeO-Ph-N2+-B3LYPG-6-31G_dp-MTMO-d009-169-n900
 OpenBabel09051907383D

 17 16  0  0  0  0  0  0  0  0999 V2000
   -2.0281   -0.2077    0.1778 C   0  0  0  0  0  0  0  0  0  0  0  0
   -0.6827   -0.2887   -0.2469 C   0  0  0  0  0  0  0  0  0  0  0  0
   -0.1279    0.9365   -0.1872 C   0  0  0  0  0  0  0  0  0  0  0  0
   -0.4707    2.1996    0.1552 C   0  0  0  0  0  0  0  0  0  0  0  0
   -1.8127    2.2044    0.5652 C   0  0  0  0  0  0  0  0  0  0  0  0
   -2.5918    1.0220    0.5806 C   0  0  0  0  0  0  0  0  0  0  0  0
   -2.6002   -1.1280    0.1777 H   0  0  0  0  0  0  0  0  0  0  0  0
   -0.2130   -1.2102   -0.5632 H   0  0  0  0  0  0  0  0  0  0  0  0
    0.1520    3.0837    0.1309 H   0  0  0  0  0  0  0  0  0  0  0  0
   -2.2610    3.1422    0.8777 H   0  0  0  0  0  0  0  0  0  0  0  0
    1.9198    0.8617   -0.8243 N   0  0  0  0  0  0  0  0  0  0  0  0
    2.9732    0.8257   -1.1526 N   0  0  0  0  0  0  0  0  0  0  0  0
   -3.8499    1.1800    0.9923 O   0  0  0  0  0  0  0  0  0  0  0  0
   -4.7324    0.0468    1.0499 C   0  0  0  0  0  0  0  0  0  0  0  0
   -5.6828    0.4395    1.4062 H   0  0  0  0  0  0  0  0  0  0  0  0
   -4.3562   -0.7021    1.7547 H   0  0  0  0  0  0  0  0  0  0  0  0
   -4.8648   -0.3920    0.0558 H   0  0  0  0  0  0  0  0  0  0  0  0
  1  6  2  0  0  0  0
  2  3  2  0  0  0  0
  2  1  1  0  0  0  0
  3  4  1  0  0  0  0
  4  5  2  0  0  0  0
  5  6  1  0  0  0  0
  5 10  1  0  0  0  0
  6 13  1  0  0  0  0
  7  1  1  0  0  0  0
  8  2  1  0  0  0  0
  9  4  1  0  0  0  0
 12 11  3  0  0  0  0
 13 14  1  0  0  0  0
 14 15  1  0  0  0  0
 14 16  1  0  0  0  0
 17 14  1  0  0  0  0
M  RAD  1   3   2
M  END
