Coordinates from ORCA-job 4-MeO-Ph-N2+-B3LYPG-6-31G_dp-MTMO-d009-169-n900
 OpenBabel09051907383D

 17 16  0  0  0  0  0  0  0  0999 V2000
   -1.6395    0.5238    0.1152 C   0  0  0  0  0  0  0  0  0  0  0  0
   -0.3795    1.1238   -0.1406 C   0  0  0  0  0  0  0  0  0  0  0  0
   -0.5555    2.4437   -0.0041 C   0  0  0  0  0  0  0  0  0  0  0  0
   -1.3346    3.3476    0.6119 C   0  0  0  0  0  0  0  0  0  0  0  0
   -2.5551    2.6859    0.8589 C   0  0  0  0  0  0  0  0  0  0  0  0
   -2.7100    1.2902    0.6342 C   0  0  0  0  0  0  0  0  0  0  0  0
   -1.7380   -0.5309   -0.1161 H   0  0  0  0  0  0  0  0  0  0  0  0
    0.4957    0.5699   -0.4662 H   0  0  0  0  0  0  0  0  0  0  0  0
   -1.1769    4.4098    0.7584 H   0  0  0  0  0  0  0  0  0  0  0  0
   -3.4100    3.2781    1.1743 H   0  0  0  0  0  0  0  0  0  0  0  0
    1.9879   -1.8230   -1.1611 N   0  0  0  0  0  0  0  0  0  0  0  0
    2.6377   -2.6682   -1.4512 N   0  0  0  0  0  0  0  0  0  0  0  0
   -3.9088    0.8064    0.9340 O   0  0  0  0  0  0  0  0  0  0  0  0
   -4.1710   -0.6065    0.8175 C   0  0  0  0  0  0  0  0  0  0  0  0
   -5.2080   -0.7312    1.1224 H   0  0  0  0  0  0  0  0  0  0  0  0
   -3.5152   -1.1747    1.4830 H   0  0  0  0  0  0  0  0  0  0  0  0
   -4.0485   -0.9315   -0.2209 H   0  0  0  0  0  0  0  0  0  0  0  0
  1  6  2  0  0  0  0
  2  3  2  0  0  0  0
  2  1  1  0  0  0  0
  3  4  1  0  0  0  0
  4  9  1  0  0  0  0
  4  5  2  0  0  0  0
  5 10  1  0  0  0  0
  6  5  1  0  0  0  0
  6 13  1  0  0  0  0
  7  1  1  0  0  0  0
  8  2  1  0  0  0  0
 12 11  3  0  0  0  0
 14 13  1  0  0  0  0
 14 15  1  0  0  0  0
 14 16  1  0  0  0  0
 17 14  1  0  0  0  0
M  RAD  1   3   2
M  END
