Coordinates from ORCA-job 4-MeO-Ph-N2+-B3LYPG-6-31G_dp-MTMO-d009-169-n900
 OpenBabel09051907383D

 17 16  0  0  0  0  0  0  0  0999 V2000
   -0.7207    2.1859    0.0012 C   0  0  0  0  0  0  0  0  0  0  0  0
   -0.3171    3.5430    0.0063 C   0  0  0  0  0  0  0  0  0  0  0  0
   -1.3956    4.2735    0.3225 C   0  0  0  0  0  0  0  0  0  0  0  0
   -2.5606    4.1893    0.9853 C   0  0  0  0  0  0  0  0  0  0  0  0
   -2.8983    2.8199    0.9667 C   0  0  0  0  0  0  0  0  0  0  0  0
   -1.9944    1.8234    0.5022 C   0  0  0  0  0  0  0  0  0  0  0  0
   -0.0234    1.4575   -0.3965 H   0  0  0  0  0  0  0  0  0  0  0  0
    0.6715    3.8865   -0.2769 H   0  0  0  0  0  0  0  0  0  0  0  0
   -3.2314    4.9759    1.3101 H   0  0  0  0  0  0  0  0  0  0  0  0
   -3.9073    2.5346    1.2525 H   0  0  0  0  0  0  0  0  0  0  0  0
   -3.1199   -8.1107   -0.3508 N   0  0  0  0  0  0  0  0  0  0  0  0
   -3.3736   -9.1842   -0.4200 N   0  0  0  0  0  0  0  0  0  0  0  0
   -2.4533    0.5813    0.5716 O   0  0  0  0  0  0  0  0  0  0  0  0
   -1.6148   -0.5279    0.1864 C   0  0  0  0  0  0  0  0  0  0  0  0
   -2.2279   -1.4143    0.3369 H   0  0  0  0  0  0  0  0  0  0  0  0
   -0.7260   -0.5754    0.8215 H   0  0  0  0  0  0  0  0  0  0  0  0
   -1.3368   -0.4448   -0.8693 H   0  0  0  0  0  0  0  0  0  0  0  0
  1  2  2  0  0  0  0
  1  6  1  0  0  0  0
  2  3  1  0  0  0  0
  3  4  2  0  0  0  0
  4  9  1  0  0  0  0
  5  4  1  0  0  0  0
  5 10  1  0  0  0  0
  6 13  1  0  0  0  0
  6  5  2  0  0  0  0
  7  1  1  0  0  0  0
  8  2  1  0  0  0  0
 12 11  3  0  0  0  0
 14 15  1  0  0  0  0
 14 13  1  0  0  0  0
 14 16  1  0  0  0  0
 17 14  1  0  0  0  0
M  RAD  1   3   2
M  END
