Coordinates from ORCA-job 4-MeO-Ph-N2+-B3LYPG-6-31G_dp-MTMO-d009-169-n900
 OpenBabel09051907383D

 17 17  0  0  0  0  0  0  0  0999 V2000
   -1.9525   -0.2204    0.1537 C   0  0  0  0  0  0  0  0  0  0  0  0
   -0.6404   -0.2723   -0.2566 C   0  0  0  0  0  0  0  0  0  0  0  0
    0.1240    0.9238   -0.2661 C   0  0  0  0  0  0  0  0  0  0  0  0
   -0.4291    2.1734    0.1374 C   0  0  0  0  0  0  0  0  0  0  0  0
   -1.7366    2.2058    0.5430 C   0  0  0  0  0  0  0  0  0  0  0  0
   -2.5198    1.0173    0.5589 C   0  0  0  0  0  0  0  0  0  0  0  0
   -2.5406   -1.1294    0.1619 H   0  0  0  0  0  0  0  0  0  0  0  0
   -0.1904   -1.2080   -0.5701 H   0  0  0  0  0  0  0  0  0  0  0  0
    0.1791    3.0712    0.1202 H   0  0  0  0  0  0  0  0  0  0  0  0
   -2.2029    3.1317    0.8597 H   0  0  0  0  0  0  0  0  0  0  0  0
    1.3898    0.8747   -0.6620 N   0  0  0  0  0  0  0  0  0  0  0  0
    2.4608    0.8374   -0.9962 N   0  0  0  0  0  0  0  0  0  0  0  0
   -3.7640    1.1710    0.9657 O   0  0  0  0  0  0  0  0  0  0  0  0
   -4.6744    0.0505    1.0321 C   0  0  0  0  0  0  0  0  0  0  0  0
   -5.6132    0.4704    1.3865 H   0  0  0  0  0  0  0  0  0  0  0  0
   -4.3076   -0.6961    1.7418 H   0  0  0  0  0  0  0  0  0  0  0  0
   -4.8117   -0.3873    0.0400 H   0  0  0  0  0  0  0  0  0  0  0  0
  1  7  1  0  0  0  0
  1  6  2  0  0  0  0
  2  1  1  0  0  0  0
  3  2  2  0  0  0  0
  3  4  1  0  0  0  0
  4  5  2  0  0  0  0
  5  6  1  0  0  0  0
  5 10  1  0  0  0  0
  6 13  1  0  0  0  0
  8  2  1  0  0  0  0
  9  4  1  0  0  0  0
 11  3  1  0  0  0  0
 12 11  1  0  0  0  0
 13 14  1  0  0  0  0
 14 15  1  0  0  0  0
 14 16  1  0  0  0  0
 17 14  1  0  0  0  0
M  RAD  2  11   2  12   3
M  END
