Coordinates from ORCA-job 4-MeO-Ph-N2+-B3LYPG-6-31G_dp-MTMO-d009-169-n900
 OpenBabel09051907383D

 17 16  0  0  0  0  0  0  0  0999 V2000
   -1.6373    0.6679    0.1121 C   0  0  0  0  0  0  0  0  0  0  0  0
   -0.4202    1.3517   -0.1302 C   0  0  0  0  0  0  0  0  0  0  0  0
   -0.6704    2.6576    0.0347 C   0  0  0  0  0  0  0  0  0  0  0  0
   -1.4960    3.4951    0.6837 C   0  0  0  0  0  0  0  0  0  0  0  0
   -2.6733    2.7544    0.9155 C   0  0  0  0  0  0  0  0  0  0  0  0
   -2.7479    1.3577    0.6551 C   0  0  0  0  0  0  0  0  0  0  0  0
   -1.6742   -0.3855   -0.1421 H   0  0  0  0  0  0  0  0  0  0  0  0
    0.4904    0.8684   -0.4671 H   0  0  0  0  0  0  0  0  0  0  0  0
   -1.4048    4.5614    0.8552 H   0  0  0  0  0  0  0  0  0  0  0  0
   -3.5622    3.2869    1.2436 H   0  0  0  0  0  0  0  0  0  0  0  0
    2.2153   -2.5038   -1.2967 N   0  0  0  0  0  0  0  0  0  0  0  0
    2.8473   -3.3696   -1.5655 N   0  0  0  0  0  0  0  0  0  0  0  0
   -3.9144    0.7983    0.9472 O   0  0  0  0  0  0  0  0  0  0  0  0
   -4.0955   -0.6247    0.7988 C   0  0  0  0  0  0  0  0  0  0  0  0
   -5.1222   -0.8156    1.1041 H   0  0  0  0  0  0  0  0  0  0  0  0
   -3.4049   -1.1688    1.4488 H   0  0  0  0  0  0  0  0  0  0  0  0
   -3.9593   -0.9181   -0.2473 H   0  0  0  0  0  0  0  0  0  0  0  0
  1  6  2  0  0  0  0
  2  3  2  0  0  0  0
  2  1  1  0  0  0  0
  3  4  1  0  0  0  0
  4  9  1  0  0  0  0
  4  5  2  0  0  0  0
  5 10  1  0  0  0  0
  6  5  1  0  0  0  0
  6 13  1  0  0  0  0
  7  1  1  0  0  0  0
  8  2  1  0  0  0  0
 12 11  3  0  0  0  0
 14 13  1  0  0  0  0
 14 15  1  0  0  0  0
 14 16  1  0  0  0  0
 17 14  1  0  0  0  0
M  RAD  1   3   2
M  END
