Coordinates from ORCA-job 4-MeO-Ph-N2+-B3LYPG-6-31G_dp-MTMO-d009-169-n900
 OpenBabel09051907383D

 17 16  0  0  0  0  0  0  0  0999 V2000
   -2.1894   -0.1928    0.1344 C   0  0  0  0  0  0  0  0  0  0  0  0
   -0.8396   -0.2480   -0.2966 C   0  0  0  0  0  0  0  0  0  0  0  0
   -0.3990    1.0143   -0.3408 C   0  0  0  0  0  0  0  0  0  0  0  0
   -0.6248    2.2329    0.1729 C   0  0  0  0  0  0  0  0  0  0  0  0
   -1.9689    2.2141    0.6014 C   0  0  0  0  0  0  0  0  0  0  0  0
   -2.7432    1.0220    0.6025 C   0  0  0  0  0  0  0  0  0  0  0  0
   -2.7647   -1.1105    0.0787 H   0  0  0  0  0  0  0  0  0  0  0  0
   -0.3295   -1.1564   -0.5948 H   0  0  0  0  0  0  0  0  0  0  0  0
   -0.0071    3.1224    0.1415 H   0  0  0  0  0  0  0  0  0  0  0  0
   -2.4331    3.1560    0.8809 H   0  0  0  0  0  0  0  0  0  0  0  0
    3.0300    0.7885   -0.9967 N   0  0  0  0  0  0  0  0  0  0  0  0
    4.1054    0.7405   -1.2456 N   0  0  0  0  0  0  0  0  0  0  0  0
   -3.9845    1.1632    1.0517 O   0  0  0  0  0  0  0  0  0  0  0  0
   -4.8492    0.0157    1.1643 C   0  0  0  0  0  0  0  0  0  0  0  0
   -5.7889    0.4021    1.5533 H   0  0  0  0  0  0  0  0  0  0  0  0
   -4.4291   -0.7150    1.8620 H   0  0  0  0  0  0  0  0  0  0  0  0
   -5.0139   -0.4355    0.1805 H   0  0  0  0  0  0  0  0  0  0  0  0
  1  6  2  0  0  0  0
  2  1  1  0  0  0  0
  3  2  2  0  0  0  0
  3  4  1  0  0  0  0
  4  5  2  0  0  0  0
  5  6  1  0  0  0  0
  5 10  1  0  0  0  0
  6 13  1  0  0  0  0
  7  1  1  0  0  0  0
  8  2  1  0  0  0  0
  9  4  1  0  0  0  0
 12 11  3  0  0  0  0
 13 14  1  0  0  0  0
 14 15  1  0  0  0  0
 14 16  1  0  0  0  0
 17 14  1  0  0  0  0
M  RAD  1   3   2
M  END
