Coordinates from ORCA-job 4-MeO-Ph-N2+-B3LYPG-6-31G_dp-MTMO-d009-169-n900
 OpenBabel09051907383D

 17 16  0  0  0  0  0  0  0  0999 V2000
   -2.0368   -0.2070    0.1805 C   0  0  0  0  0  0  0  0  0  0  0  0
   -0.6890   -0.2897   -0.2452 C   0  0  0  0  0  0  0  0  0  0  0  0
   -0.1495    0.9378   -0.1810 C   0  0  0  0  0  0  0  0  0  0  0  0
   -0.4775    2.2017    0.1577 C   0  0  0  0  0  0  0  0  0  0  0  0
   -1.8220    2.2045    0.5681 C   0  0  0  0  0  0  0  0  0  0  0  0
   -2.6010    1.0222    0.5834 C   0  0  0  0  0  0  0  0  0  0  0  0
   -2.6068   -1.1289    0.1791 H   0  0  0  0  0  0  0  0  0  0  0  0
   -0.2173   -1.2101   -0.5618 H   0  0  0  0  0  0  0  0  0  0  0  0
    0.1466    3.0849    0.1328 H   0  0  0  0  0  0  0  0  0  0  0  0
   -2.2682    3.1437    0.8801 H   0  0  0  0  0  0  0  0  0  0  0  0
    1.9834    0.8609   -0.8436 N   0  0  0  0  0  0  0  0  0  0  0  0
    3.0369    0.8250   -1.1718 N   0  0  0  0  0  0  0  0  0  0  0  0
   -3.8592    1.1800    0.9951 O   0  0  0  0  0  0  0  0  0  0  0  0
   -4.7409    0.0459    1.0524 C   0  0  0  0  0  0  0  0  0  0  0  0
   -5.6917    0.4377    1.4087 H   0  0  0  0  0  0  0  0  0  0  0  0
   -4.3640   -0.7027    1.7572 H   0  0  0  0  0  0  0  0  0  0  0  0
   -4.8727   -0.3926    0.0581 H   0  0  0  0  0  0  0  0  0  0  0  0
  1  6  2  0  0  0  0
  2  3  2  0  0  0  0
  2  1  1  0  0  0  0
  3  4  1  0  0  0  0
  4  5  2  0  0  0  0
  5  6  1  0  0  0  0
  5 10  1  0  0  0  0
  6 13  1  0  0  0  0
  7  1  1  0  0  0  0
  8  2  1  0  0  0  0
  9  4  1  0  0  0  0
 12 11  3  0  0  0  0
 13 14  1  0  0  0  0
 14 15  1  0  0  0  0
 14 16  1  0  0  0  0
 17 14  1  0  0  0  0
M  RAD  1   3   2
M  END
