Coordinates from ORCA-job 4-MeO-Ph-N2+-B3LYPG-6-31G_dp-MTMO-d009-169-n900
 OpenBabel09051907383D

 17 16  0  0  0  0  0  0  0  0999 V2000
   -0.9502    1.4747   -0.0179 C   0  0  0  0  0  0  0  0  0  0  0  0
   -0.2964    2.7297   -0.0536 C   0  0  0  0  0  0  0  0  0  0  0  0
   -1.2093    3.6613    0.2592 C   0  0  0  0  0  0  0  0  0  0  0  0
   -2.3529    3.8123    0.9482 C   0  0  0  0  0  0  0  0  0  0  0  0
   -2.9456    2.5329    0.9698 C   0  0  0  0  0  0  0  0  0  0  0  0
   -2.2582    1.3721    0.5150 C   0  0  0  0  0  0  0  0  0  0  0  0
   -0.4148    0.6182   -0.4114 H   0  0  0  0  0  0  0  0  0  0  0  0
    0.7328    2.8724   -0.3633 H   0  0  0  0  0  0  0  0  0  0  0  0
   -2.8540    4.7189    1.2659 H   0  0  0  0  0  0  0  0  0  0  0  0
   -3.9841    2.4512    1.2794 H   0  0  0  0  0  0  0  0  0  0  0  0
   -1.4825   -4.1867   -0.3542 N   0  0  0  0  0  0  0  0  0  0  0  0
   -1.2954   -5.2653   -0.5045 N   0  0  0  0  0  0  0  0  0  0  0  0
   -2.9423    0.2427    0.6253 O   0  0  0  0  0  0  0  0  0  0  0  0
   -2.3385   -1.0179    0.2610 C   0  0  0  0  0  0  0  0  0  0  0  0
   -3.1049   -1.7670    0.4448 H   0  0  0  0  0  0  0  0  0  0  0  0
   -1.4643   -1.2188    0.8855 H   0  0  0  0  0  0  0  0  0  0  0  0
   -2.0689   -1.0173   -0.7996 H   0  0  0  0  0  0  0  0  0  0  0  0
  1  6  1  0  0  0  0
  2  1  2  0  0  0  0
  2  3  1  0  0  0  0
  3  4  2  0  0  0  0
  4  5  1  0  0  0  0
  4  9  1  0  0  0  0
  5 10  1  0  0  0  0
  6 13  1  0  0  0  0
  6  5  2  0  0  0  0
  7  1  1  0  0  0  0
  8  2  1  0  0  0  0
 12 11  3  0  0  0  0
 14 15  1  0  0  0  0
 14 13  1  0  0  0  0
 14 16  1  0  0  0  0
 17 14  1  0  0  0  0
M  RAD  1   3   2
M  END
