Coordinates from ORCA-job 4-MeO-Ph-N2+-B3LYPG-6-31G_dp-MTMO-d009-169-n900
 OpenBabel09051907383D

 17 16  0  0  0  0  0  0  0  0999 V2000
   -0.7174    2.2087    0.0026 C   0  0  0  0  0  0  0  0  0  0  0  0
   -0.3146    3.5661    0.0060 C   0  0  0  0  0  0  0  0  0  0  0  0
   -1.3934    4.2963    0.3219 C   0  0  0  0  0  0  0  0  0  0  0  0
   -2.5580    4.2120    0.9853 C   0  0  0  0  0  0  0  0  0  0  0  0
   -2.8949    2.8424    0.9684 C   0  0  0  0  0  0  0  0  0  0  0  0
   -1.9905    1.8460    0.5045 C   0  0  0  0  0  0  0  0  0  0  0  0
   -0.0197    1.4803   -0.3946 H   0  0  0  0  0  0  0  0  0  0  0  0
    0.6736    3.9099   -0.2781 H   0  0  0  0  0  0  0  0  0  0  0  0
   -3.2292    4.9986    1.3095 H   0  0  0  0  0  0  0  0  0  0  0  0
   -3.9036    2.5568    1.2549 H   0  0  0  0  0  0  0  0  0  0  0  0
   -3.1468   -8.2811   -0.3659 N   0  0  0  0  0  0  0  0  0  0  0  0
   -3.4021   -9.3542   -0.4354 N   0  0  0  0  0  0  0  0  0  0  0  0
   -2.4486    0.6037    0.5755 O   0  0  0  0  0  0  0  0  0  0  0  0
   -1.6096   -0.5054    0.1912 C   0  0  0  0  0  0  0  0  0  0  0  0
   -2.2221   -1.3920    0.3429 H   0  0  0  0  0  0  0  0  0  0  0  0
   -0.7205   -0.5516    0.8259 H   0  0  0  0  0  0  0  0  0  0  0  0
   -1.3321   -0.4232   -0.8648 H   0  0  0  0  0  0  0  0  0  0  0  0
  1  2  2  0  0  0  0
  1  6  1  0  0  0  0
  2  3  1  0  0  0  0
  3  4  2  0  0  0  0
  4  9  1  0  0  0  0
  5  4  1  0  0  0  0
  5 10  1  0  0  0  0
  6 13  1  0  0  0  0
  6  5  2  0  0  0  0
  7  1  1  0  0  0  0
  8  2  1  0  0  0  0
 12 11  3  0  0  0  0
 14 15  1  0  0  0  0
 14 13  1  0  0  0  0
 14 16  1  0  0  0  0
 17 14  1  0  0  0  0
M  RAD  1   3   2
M  END
