Coordinates from ORCA-job 4-MeO-Ph-N2+-B3LYPG-6-31G_dp-MTMO-d009-169-n900
 OpenBabel09051907383D

 17 16  0  0  0  0  0  0  0  0999 V2000
   -2.0404   -0.2068    0.1815 C   0  0  0  0  0  0  0  0  0  0  0  0
   -0.6917   -0.2900   -0.2446 C   0  0  0  0  0  0  0  0  0  0  0  0
   -0.1577    0.9383   -0.1788 C   0  0  0  0  0  0  0  0  0  0  0  0
   -0.4803    2.2025    0.1588 C   0  0  0  0  0  0  0  0  0  0  0  0
   -1.8257    2.2046    0.5692 C   0  0  0  0  0  0  0  0  0  0  0  0
   -2.6048    1.0223    0.5846 C   0  0  0  0  0  0  0  0  0  0  0  0
   -2.6095   -1.1293    0.1797 H   0  0  0  0  0  0  0  0  0  0  0  0
   -0.2191   -1.2100   -0.5612 H   0  0  0  0  0  0  0  0  0  0  0  0
    0.1442    3.0854    0.1336 H   0  0  0  0  0  0  0  0  0  0  0  0
   -2.2712    3.1443    0.8810 H   0  0  0  0  0  0  0  0  0  0  0  0
    2.0094    0.8606   -0.8515 N   0  0  0  0  0  0  0  0  0  0  0  0
    3.0629    0.8248   -1.1795 N   0  0  0  0  0  0  0  0  0  0  0  0
   -3.8630    1.1799    0.9962 O   0  0  0  0  0  0  0  0  0  0  0  0
   -4.7443    0.0455    1.0535 C   0  0  0  0  0  0  0  0  0  0  0  0
   -5.6952    0.4370    1.4097 H   0  0  0  0  0  0  0  0  0  0  0  0
   -4.3671   -0.7029    1.7583 H   0  0  0  0  0  0  0  0  0  0  0  0
   -4.8760   -0.3929    0.0591 H   0  0  0  0  0  0  0  0  0  0  0  0
  1  6  2  0  0  0  0
  2  3  2  0  0  0  0
  2  1  1  0  0  0  0
  3  4  1  0  0  0  0
  4  5  2  0  0  0  0
  5  6  1  0  0  0  0
  5 10  1  0  0  0  0
  6 13  1  0  0  0  0
  7  1  1  0  0  0  0
  8  2  1  0  0  0  0
  9  4  1  0  0  0  0
 12 11  3  0  0  0  0
 13 14  1  0  0  0  0
 14 15  1  0  0  0  0
 14 16  1  0  0  0  0
 17 14  1  0  0  0  0
M  RAD  1   3   2
M  END
