Coordinates from ORCA-job 4-MeO-Ph-N2+-B3LYPG-6-31G_dp-MTMO-d009-169-n900
 OpenBabel09051907383D

 17 16  0  0  0  0  0  0  0  0999 V2000
   -0.8693    1.6123   -0.0136 C   0  0  0  0  0  0  0  0  0  0  0  0
   -0.3456    2.9272   -0.0286 C   0  0  0  0  0  0  0  0  0  0  0  0
   -1.3528    3.7573    0.2794 C   0  0  0  0  0  0  0  0  0  0  0  0
   -2.5151    3.7850    0.9529 C   0  0  0  0  0  0  0  0  0  0  0  0
   -2.9752    2.4519    0.9546 C   0  0  0  0  0  0  0  0  0  0  0  0
   -2.1673    1.3720    0.4990 C   0  0  0  0  0  0  0  0  0  0  0  0
   -0.2442    0.8189   -0.4070 H   0  0  0  0  0  0  0  0  0  0  0  0
    0.6678    3.1770   -0.3222 H   0  0  0  0  0  0  0  0  0  0  0  0
   -3.1096    4.6329    1.2718 H   0  0  0  0  0  0  0  0  0  0  0  0
   -4.0039    2.2617    1.2490 H   0  0  0  0  0  0  0  0  0  0  0  0
   -2.0111   -4.4673   -0.2557 N   0  0  0  0  0  0  0  0  0  0  0  0
   -2.0561   -5.5571   -0.4323 N   0  0  0  0  0  0  0  0  0  0  0  0
   -2.7340    0.1776    0.5879 O   0  0  0  0  0  0  0  0  0  0  0  0
   -1.9984   -1.0087    0.2184 C   0  0  0  0  0  0  0  0  0  0  0  0
   -2.6814   -1.8382    0.3833 H   0  0  0  0  0  0  0  0  0  0  0  0
   -1.1145   -1.1224    0.8518 H   0  0  0  0  0  0  0  0  0  0  0  0
   -1.7186   -0.9666   -0.8391 H   0  0  0  0  0  0  0  0  0  0  0  0
  1  6  1  0  0  0  0
  2  1  2  0  0  0  0
  2  3  1  0  0  0  0
  3  4  2  0  0  0  0
  4  5  1  0  0  0  0
  4  9  1  0  0  0  0
  5 10  1  0  0  0  0
  6 13  1  0  0  0  0
  6  5  2  0  0  0  0
  7  1  1  0  0  0  0
  8  2  1  0  0  0  0
 12 11  3  0  0  0  0
 14 15  1  0  0  0  0
 14 13  1  0  0  0  0
 14 16  1  0  0  0  0
 17 14  1  0  0  0  0
M  RAD  1   3   2
M  END
