Coordinates from ORCA-job 4-MeO-Ph-N2+-B3LYPG-6-31G_dp-MTMO-d009-169-n900
 OpenBabel09051907383D

 17 16  0  0  0  0  0  0  0  0999 V2000
   -0.9712    1.4301   -0.0131 C   0  0  0  0  0  0  0  0  0  0  0  0
   -0.2862    2.6678   -0.0607 C   0  0  0  0  0  0  0  0  0  0  0  0
   -1.1753    3.6247    0.2441 C   0  0  0  0  0  0  0  0  0  0  0  0
   -2.3140    3.8100    0.9330 C   0  0  0  0  0  0  0  0  0  0  0  0
   -2.9388    2.5465    0.9666 C   0  0  0  0  0  0  0  0  0  0  0  0
   -2.2810    1.3648    0.5217 C   0  0  0  0  0  0  0  0  0  0  0  0
   -0.4582    0.5569   -0.3999 H   0  0  0  0  0  0  0  0  0  0  0  0
    0.7458    2.7816   -0.3729 H   0  0  0  0  0  0  0  0  0  0  0  0
   -2.7916    4.7318    1.2436 H   0  0  0  0  0  0  0  0  0  0  0  0
   -3.9786    2.4934    1.2782 H   0  0  0  0  0  0  0  0  0  0  0  0
   -1.3579   -4.0633   -0.3925 N   0  0  0  0  0  0  0  0  0  0  0  0
   -1.1081   -5.1270   -0.5571 N   0  0  0  0  0  0  0  0  0  0  0  0
   -2.9926    0.2538    0.6423 O   0  0  0  0  0  0  0  0  0  0  0  0
   -2.4191   -1.0242    0.2900 C   0  0  0  0  0  0  0  0  0  0  0  0
   -3.2043   -1.7525    0.4793 H   0  0  0  0  0  0  0  0  0  0  0  0
   -1.5507   -1.2409    0.9171 H   0  0  0  0  0  0  0  0  0  0  0  0
   -2.1477   -1.0400   -0.7699 H   0  0  0  0  0  0  0  0  0  0  0  0
  1  6  1  0  0  0  0
  2  1  2  0  0  0  0
  2  3  1  0  0  0  0
  3  4  2  0  0  0  0
  4  5  1  0  0  0  0
  4  9  1  0  0  0  0
  5 10  1  0  0  0  0
  6 13  1  0  0  0  0
  6  5  2  0  0  0  0
  7  1  1  0  0  0  0
  8  2  1  0  0  0  0
 12 11  3  0  0  0  0
 14 15  1  0  0  0  0
 14 13  1  0  0  0  0
 14 16  1  0  0  0  0
 17 14  1  0  0  0  0
M  RAD  1   3   2
M  END
