Coordinates from ORCA-job 4-MeO-Ph-N2+-B3LYPG-6-31G_dp-MTMO-d009-169-n900
 OpenBabel09051907383D

 17 16  0  0  0  0  0  0  0  0999 V2000
   -2.1488   -0.1968    0.1321 C   0  0  0  0  0  0  0  0  0  0  0  0
   -0.7980   -0.2624   -0.2970 C   0  0  0  0  0  0  0  0  0  0  0  0
   -0.3479    0.9957   -0.3332 C   0  0  0  0  0  0  0  0  0  0  0  0
   -0.5774    2.2207    0.1632 C   0  0  0  0  0  0  0  0  0  0  0  0
   -1.9224    2.2098    0.5887 C   0  0  0  0  0  0  0  0  0  0  0  0
   -2.7006    1.0214    0.5922 C   0  0  0  0  0  0  0  0  0  0  0  0
   -2.7275   -1.1124    0.0776 H   0  0  0  0  0  0  0  0  0  0  0  0
   -0.2965   -1.1742   -0.5979 H   0  0  0  0  0  0  0  0  0  0  0  0
    0.0465    3.1056    0.1341 H   0  0  0  0  0  0  0  0  0  0  0  0
   -2.3805    3.1535    0.8717 H   0  0  0  0  0  0  0  0  0  0  0  0
    2.7146    0.8150   -0.9268 N   0  0  0  0  0  0  0  0  0  0  0  0
    3.7889    0.7695   -1.1802 N   0  0  0  0  0  0  0  0  0  0  0  0
   -3.9443    1.1683    1.0357 O   0  0  0  0  0  0  0  0  0  0  0  0
   -4.8119    0.0236    1.1469 C   0  0  0  0  0  0  0  0  0  0  0  0
   -5.7521    0.4126    1.5322 H   0  0  0  0  0  0  0  0  0  0  0  0
   -4.3966   -0.7075    1.8471 H   0  0  0  0  0  0  0  0  0  0  0  0
   -4.9750   -0.4291    0.1634 H   0  0  0  0  0  0  0  0  0  0  0  0
  1  6  2  0  0  0  0
  2  1  1  0  0  0  0
  3  2  2  0  0  0  0
  3  4  1  0  0  0  0
  4  5  2  0  0  0  0
  5  6  1  0  0  0  0
  5 10  1  0  0  0  0
  6 13  1  0  0  0  0
  7  1  1  0  0  0  0
  8  2  1  0  0  0  0
  9  4  1  0  0  0  0
 12 11  3  0  0  0  0
 13 14  1  0  0  0  0
 14 15  1  0  0  0  0
 14 16  1  0  0  0  0
 17 14  1  0  0  0  0
M  RAD  1   3   2
M  END
