Coordinates from ORCA-job 4-MeO-Ph-N2+-B3LYPG-6-31G_dp-MTMO-d009-169-n900
 OpenBabel09051907383D

 17 16  0  0  0  0  0  0  0  0999 V2000
   -0.7626    1.8092   -0.0223 C   0  0  0  0  0  0  0  0  0  0  0  0
   -0.4074    3.1778    0.0467 C   0  0  0  0  0  0  0  0  0  0  0  0
   -1.5159    3.8604    0.3693 C   0  0  0  0  0  0  0  0  0  0  0  0
   -2.6871    3.7058    1.0093 C   0  0  0  0  0  0  0  0  0  0  0  0
   -2.9768    2.3280    0.9282 C   0  0  0  0  0  0  0  0  0  0  0  0
   -2.0311    1.3820    0.4402 C   0  0  0  0  0  0  0  0  0  0  0  0
   -0.0335    1.1223   -0.4369 H   0  0  0  0  0  0  0  0  0  0  0  0
    0.5738    3.5657   -0.2031 H   0  0  0  0  0  0  0  0  0  0  0  0
   -3.3912    4.4544    1.3536 H   0  0  0  0  0  0  0  0  0  0  0  0
   -3.9802    1.9970    1.1826 H   0  0  0  0  0  0  0  0  0  0  0  0
   -2.8068   -4.9285   -0.0062 N   0  0  0  0  0  0  0  0  0  0  0  0
   -3.0950   -5.9950   -0.0318 N   0  0  0  0  0  0  0  0  0  0  0  0
   -2.4473    0.1235    0.4523 O   0  0  0  0  0  0  0  0  0  0  0  0
   -1.5646   -0.9425    0.0402 C   0  0  0  0  0  0  0  0  0  0  0  0
   -2.1450   -1.8571    0.1486 H   0  0  0  0  0  0  0  0  0  0  0  0
   -0.6834   -0.9799    0.6864 H   0  0  0  0  0  0  0  0  0  0  0  0
   -1.2752   -0.8096   -1.0073 H   0  0  0  0  0  0  0  0  0  0  0  0
  1  2  2  0  0  0  0
  1  6  1  0  0  0  0
  2  3  1  0  0  0  0
  3  4  2  0  0  0  0
  4  9  1  0  0  0  0
  5  4  1  0  0  0  0
  5 10  1  0  0  0  0
  6 13  1  0  0  0  0
  6  5  2  0  0  0  0
  7  1  1  0  0  0  0
  8  2  1  0  0  0  0
 12 11  3  0  0  0  0
 14 15  1  0  0  0  0
 14 13  1  0  0  0  0
 14 16  1  0  0  0  0
 17 14  1  0  0  0  0
M  RAD  1   3   2
M  END
