Coordinates from ORCA-job 4-MeO-Ph-N2+-B3LYPG-6-31G_dp-MTMO-d009-169-n900
 OpenBabel09051907383D

 17 16  0  0  0  0  0  0  0  0999 V2000
   -0.9675    1.4369   -0.0145 C   0  0  0  0  0  0  0  0  0  0  0  0
   -0.2878    2.6778   -0.0595 C   0  0  0  0  0  0  0  0  0  0  0  0
   -1.1811    3.6299    0.2476 C   0  0  0  0  0  0  0  0  0  0  0  0
   -2.3208    3.8090    0.9365 C   0  0  0  0  0  0  0  0  0  0  0  0
   -2.9399    2.5426    0.9674 C   0  0  0  0  0  0  0  0  0  0  0  0
   -2.2769    1.3649    0.5200 C   0  0  0  0  0  0  0  0  0  0  0  0
   -0.4505    0.5670   -0.4032 H   0  0  0  0  0  0  0  0  0  0  0  0
    0.7437    2.7969   -0.3716 H   0  0  0  0  0  0  0  0  0  0  0  0
   -2.8024    4.7280    1.2490 H   0  0  0  0  0  0  0  0  0  0  0  0
   -3.9794    2.4843    1.2789 H   0  0  0  0  0  0  0  0  0  0  0  0
   -1.3815   -4.0760   -0.3825 N   0  0  0  0  0  0  0  0  0  0  0  0
   -1.1429   -5.1429   -0.5428 N   0  0  0  0  0  0  0  0  0  0  0  0
   -2.9837    0.2504    0.6382 O   0  0  0  0  0  0  0  0  0  0  0  0
   -2.4044   -1.0242    0.2829 C   0  0  0  0  0  0  0  0  0  0  0  0
   -3.1859   -1.7567    0.4714 H   0  0  0  0  0  0  0  0  0  0  0  0
   -1.5346   -1.2380    0.9091 H   0  0  0  0  0  0  0  0  0  0  0  0
   -2.1339   -1.0365   -0.7772 H   0  0  0  0  0  0  0  0  0  0  0  0
  1  6  1  0  0  0  0
  2  1  2  0  0  0  0
  2  3  1  0  0  0  0
  3  4  2  0  0  0  0
  4  5  1  0  0  0  0
  4  9  1  0  0  0  0
  5 10  1  0  0  0  0
  6 13  1  0  0  0  0
  6  5  2  0  0  0  0
  7  1  1  0  0  0  0
  8  2  1  0  0  0  0
 12 11  3  0  0  0  0
 14 15  1  0  0  0  0
 14 13  1  0  0  0  0
 14 16  1  0  0  0  0
 17 14  1  0  0  0  0
M  RAD  1   3   2
M  END
