Coordinates from ORCA-job 4-MeO-Ph-N2+-B3LYPG-6-31G_dp-MTMO-d009-169-n900
 OpenBabel09051907383D

 17 16  0  0  0  0  0  0  0  0999 V2000
   -0.7087    2.2673    0.0061 C   0  0  0  0  0  0  0  0  0  0  0  0
   -0.3086    3.6255    0.0056 C   0  0  0  0  0  0  0  0  0  0  0  0
   -1.3885    4.3543    0.3208 C   0  0  0  0  0  0  0  0  0  0  0  0
   -2.5523    4.2695    0.9856 C   0  0  0  0  0  0  0  0  0  0  0  0
   -2.8864    2.8991    0.9725 C   0  0  0  0  0  0  0  0  0  0  0  0
   -1.9806    1.9033    0.5103 C   0  0  0  0  0  0  0  0  0  0  0  0
   -0.0100    1.5393   -0.3900 H   0  0  0  0  0  0  0  0  0  0  0  0
    0.6787    3.9705   -0.2803 H   0  0  0  0  0  0  0  0  0  0  0  0
   -3.2247    5.0556    1.3085 H   0  0  0  0  0  0  0  0  0  0  0  0
   -3.8942    2.6123    1.2608 H   0  0  0  0  0  0  0  0  0  0  0  0
   -3.2161   -8.7146   -0.4031 N   0  0  0  0  0  0  0  0  0  0  0  0
   -3.4761   -9.7865   -0.4736 N   0  0  0  0  0  0  0  0  0  0  0  0
   -2.4362    0.6603    0.5849 O   0  0  0  0  0  0  0  0  0  0  0  0
   -1.5953   -0.4480    0.2024 C   0  0  0  0  0  0  0  0  0  0  0  0
   -2.2060   -1.3355    0.3568 H   0  0  0  0  0  0  0  0  0  0  0  0
   -0.7056   -0.4911    0.8364 H   0  0  0  0  0  0  0  0  0  0  0  0
   -1.3190   -0.3678   -0.8540 H   0  0  0  0  0  0  0  0  0  0  0  0
  1  6  1  0  0  0  0
  2  1  2  0  0  0  0
  2  3  1  0  0  0  0
  3  4  2  0  0  0  0
  4  9  1  0  0  0  0
  5  4  1  0  0  0  0
  5 10  1  0  0  0  0
  6 13  1  0  0  0  0
  6  5  2  0  0  0  0
  7  1  1  0  0  0  0
  8  2  1  0  0  0  0
 12 11  3  0  0  0  0
 14 15  1  0  0  0  0
 14 13  1  0  0  0  0
 14 16  1  0  0  0  0
 17 14  1  0  0  0  0
M  RAD  1   3   2
M  END
