Coordinates from ORCA-job 4-MeO-Ph-N2+-B3LYPG-6-31G_dp-MTMO-d009-169-n900
 OpenBabel09051907383D

 17 16  0  0  0  0  0  0  0  0999 V2000
   -1.6436    0.5865    0.1137 C   0  0  0  0  0  0  0  0  0  0  0  0
   -0.4012    1.2216   -0.1374 C   0  0  0  0  0  0  0  0  0  0  0  0
   -0.6070    2.5367    0.0111 C   0  0  0  0  0  0  0  0  0  0  0  0
   -1.4046    3.4126    0.6441 C   0  0  0  0  0  0  0  0  0  0  0  0
   -2.6079    2.7182    0.8855 C   0  0  0  0  0  0  0  0  0  0  0  0
   -2.7304    1.3216    0.6448 C   0  0  0  0  0  0  0  0  0  0  0  0
   -1.7176   -0.4679   -0.1282 H   0  0  0  0  0  0  0  0  0  0  0  0
    0.4889    0.6974   -0.4694 H   0  0  0  0  0  0  0  0  0  0  0  0
   -1.2739    4.4768    0.8022 H   0  0  0  0  0  0  0  0  0  0  0  0
   -3.4768    3.2860    1.2077 H   0  0  0  0  0  0  0  0  0  0  0  0
    2.1158   -2.1320   -1.2293 N   0  0  0  0  0  0  0  0  0  0  0  0
    2.7626   -2.9836   -1.5075 N   0  0  0  0  0  0  0  0  0  0  0  0
   -3.9161    0.8065    0.9423 O   0  0  0  0  0  0  0  0  0  0  0  0
   -4.1457   -0.6112    0.8120 C   0  0  0  0  0  0  0  0  0  0  0  0
   -5.1788   -0.7628    1.1179 H   0  0  0  0  0  0  0  0  0  0  0  0
   -3.4751   -1.1703    1.4702 H   0  0  0  0  0  0  0  0  0  0  0  0
   -4.0183   -0.9225   -0.2300 H   0  0  0  0  0  0  0  0  0  0  0  0
  1  6  2  0  0  0  0
  2  3  2  0  0  0  0
  2  1  1  0  0  0  0
  3  4  1  0  0  0  0
  4  9  1  0  0  0  0
  4  5  2  0  0  0  0
  5 10  1  0  0  0  0
  6  5  1  0  0  0  0
  6 13  1  0  0  0  0
  7  1  1  0  0  0  0
  8  2  1  0  0  0  0
 12 11  3  0  0  0  0
 14 13  1  0  0  0  0
 14 15  1  0  0  0  0
 14 16  1  0  0  0  0
 17 14  1  0  0  0  0
M  RAD  1   3   2
M  END
