Coordinates from ORCA-job 4-MeO-Ph-N2+-B3LYPG-6-31G_dp-MTMO-d009-169-n900
 OpenBabel09051907383D

 17 17  0  0  0  0  0  0  0  0999 V2000
   -2.0012   -0.2108    0.1693 C   0  0  0  0  0  0  0  0  0  0  0  0
   -0.6661   -0.2831   -0.2510 C   0  0  0  0  0  0  0  0  0  0  0  0
   -0.0475    0.9322   -0.2120 C   0  0  0  0  0  0  0  0  0  0  0  0
   -0.4534    2.1909    0.1481 C   0  0  0  0  0  0  0  0  0  0  0  0
   -1.7847    2.2047    0.5567 C   0  0  0  0  0  0  0  0  0  0  0  0
   -2.5638    1.0210    0.5720 C   0  0  0  0  0  0  0  0  0  0  0  0
   -2.5816   -1.1251    0.1733 H   0  0  0  0  0  0  0  0  0  0  0  0
   -0.2034   -1.2091   -0.5661 H   0  0  0  0  0  0  0  0  0  0  0  0
    0.1645    3.0791    0.1261 H   0  0  0  0  0  0  0  0  0  0  0  0
   -2.2418    3.1366    0.8712 H   0  0  0  0  0  0  0  0  0  0  0  0
    1.7280    0.8644   -0.7657 N   0  0  0  0  0  0  0  0  0  0  0  0
    2.7823    0.8282   -1.0942 N   0  0  0  0  0  0  0  0  0  0  0  0
   -3.8202    1.1788    0.9833 O   0  0  0  0  0  0  0  0  0  0  0  0
   -4.7079    0.0491    1.0427 C   0  0  0  0  0  0  0  0  0  0  0  0
   -5.6561    0.4471    1.3989 H   0  0  0  0  0  0  0  0  0  0  0  0
   -4.3344   -0.7003    1.7479 H   0  0  0  0  0  0  0  0  0  0  0  0
   -4.8422   -0.3903    0.0494 H   0  0  0  0  0  0  0  0  0  0  0  0
  1  7  1  0  0  0  0
  1  6  2  0  0  0  0
  2  3  2  0  0  0  0
  2  1  1  0  0  0  0
  3  4  1  0  0  0  0
  4  5  2  0  0  0  0
  5  6  1  0  0  0  0
  5 10  1  0  0  0  0
  6 13  1  0  0  0  0
  8  2  1  0  0  0  0
  9  4  1  0  0  0  0
 11  3  1  0  0  0  0
 12 11  1  0  0  0  0
 13 14  1  0  0  0  0
 14 15  1  0  0  0  0
 14 16  1  0  0  0  0
 17 14  1  0  0  0  0
M  RAD  2  11   2  12   3
M  END
