Coordinates from ORCA-job 4-MeO-Ph-N2+-B3LYPG-6-31G_dp-MTMO-d009-169-n900
 OpenBabel09051907383D

 17 16  0  0  0  0  0  0  0  0999 V2000
   -0.9626    1.4493   -0.0160 C   0  0  0  0  0  0  0  0  0  0  0  0
   -0.2905    2.6942   -0.0579 C   0  0  0  0  0  0  0  0  0  0  0  0
   -1.1891    3.6409    0.2512 C   0  0  0  0  0  0  0  0  0  0  0  0
   -2.3295    3.8116    0.9410 C   0  0  0  0  0  0  0  0  0  0  0  0
   -2.9412    2.5414    0.9688 C   0  0  0  0  0  0  0  0  0  0  0  0
   -2.2715    1.3684    0.5186 C   0  0  0  0  0  0  0  0  0  0  0  0
   -0.4405    0.5831   -0.4062 H   0  0  0  0  0  0  0  0  0  0  0  0
    0.7405    2.8200   -0.3690 H   0  0  0  0  0  0  0  0  0  0  0  0
   -2.8168    4.7269    1.2553 H   0  0  0  0  0  0  0  0  0  0  0  0
   -3.9805    2.4765    1.2797 H   0  0  0  0  0  0  0  0  0  0  0  0
   -1.4069   -4.1185   -0.3753 N   0  0  0  0  0  0  0  0  0  0  0  0
   -1.1838   -5.1894   -0.5310 N   0  0  0  0  0  0  0  0  0  0  0  0
   -2.9721    0.2499    0.6345 O   0  0  0  0  0  0  0  0  0  0  0  0
   -2.3870   -1.0212    0.2760 C   0  0  0  0  0  0  0  0  0  0  0  0
   -3.1652   -1.7576    0.4627 H   0  0  0  0  0  0  0  0  0  0  0  0
   -1.5162   -1.2326    0.9016 H   0  0  0  0  0  0  0  0  0  0  0  0
   -2.1165   -1.0296   -0.7843 H   0  0  0  0  0  0  0  0  0  0  0  0
  1  6  1  0  0  0  0
  2  1  2  0  0  0  0
  2  3  1  0  0  0  0
  3  4  2  0  0  0  0
  4  5  1  0  0  0  0
  4  9  1  0  0  0  0
  5 10  1  0  0  0  0
  6 13  1  0  0  0  0
  6  5  2  0  0  0  0
  7  1  1  0  0  0  0
  8  2  1  0  0  0  0
 12 11  3  0  0  0  0
 14 15  1  0  0  0  0
 14 13  1  0  0  0  0
 14 16  1  0  0  0  0
 17 14  1  0  0  0  0
M  RAD  1   3   2
M  END
