Coordinates from ORCA-job 4-MeO-Ph-N2+-B3LYPG-6-31G_dp-MTMO-d009-169-n900
 OpenBabel09051907383D

 17 16  0  0  0  0  0  0  0  0999 V2000
   -1.6536    0.4688    0.1214 C   0  0  0  0  0  0  0  0  0  0  0  0
   -0.3763    1.0309   -0.1399 C   0  0  0  0  0  0  0  0  0  0  0  0
   -0.5190    2.3548   -0.0155 C   0  0  0  0  0  0  0  0  0  0  0  0
   -1.2759    3.2878    0.5842 C   0  0  0  0  0  0  0  0  0  0  0  0
   -2.5139    2.6618    0.8377 C   0  0  0  0  0  0  0  0  0  0  0  0
   -2.7047    1.2683    0.6293 C   0  0  0  0  0  0  0  0  0  0  0  0
   -1.7795   -0.5856   -0.0982 H   0  0  0  0  0  0  0  0  0  0  0  0
    0.4828    0.4477   -0.4597 H   0  0  0  0  0  0  0  0  0  0  0  0
   -1.0894    4.3469    0.7185 H   0  0  0  0  0  0  0  0  0  0  0  0
   -3.3526    3.2799    1.1467 H   0  0  0  0  0  0  0  0  0  0  0  0
    1.9676   -1.5938   -1.1302 N   0  0  0  0  0  0  0  0  0  0  0  0
    2.6449   -2.4098   -1.4398 N   0  0  0  0  0  0  0  0  0  0  0  0
   -3.9164    0.8189    0.9326 O   0  0  0  0  0  0  0  0  0  0  0  0
   -4.2146   -0.5877    0.8302 C   0  0  0  0  0  0  0  0  0  0  0  0
   -5.2548   -0.6828    1.1350 H   0  0  0  0  0  0  0  0  0  0  0  0
   -3.5743   -1.1660    1.5022 H   0  0  0  0  0  0  0  0  0  0  0  0
   -4.0997   -0.9266   -0.2048 H   0  0  0  0  0  0  0  0  0  0  0  0
  1  6  2  0  0  0  0
  2  3  2  0  0  0  0
  2  1  1  0  0  0  0
  3  4  1  0  0  0  0
  4  9  1  0  0  0  0
  4  5  2  0  0  0  0
  5 10  1  0  0  0  0
  6  5  1  0  0  0  0
  6 13  1  0  0  0  0
  7  1  1  0  0  0  0
  8  2  1  0  0  0  0
 12 11  3  0  0  0  0
 14 13  1  0  0  0  0
 14 15  1  0  0  0  0
 14 16  1  0  0  0  0
 17 14  1  0  0  0  0
M  RAD  1   3   2
M  END
