Coordinates from ORCA-job 4-MeO-Ph-N2+-B3LYPG-6-31G_dp-MTMO-d009-169-n900
 OpenBabel09051907383D

 17 16  0  0  0  0  0  0  0  0999 V2000
   -2.1547   -0.1963    0.1320 C   0  0  0  0  0  0  0  0  0  0  0  0
   -0.8041   -0.2603   -0.2976 C   0  0  0  0  0  0  0  0  0  0  0  0
   -0.3559    0.9986   -0.3356 C   0  0  0  0  0  0  0  0  0  0  0  0
   -0.5840    2.2224    0.1643 C   0  0  0  0  0  0  0  0  0  0  0  0
   -1.9289    2.2104    0.5905 C   0  0  0  0  0  0  0  0  0  0  0  0
   -2.7066    1.0214    0.5936 C   0  0  0  0  0  0  0  0  0  0  0  0
   -2.7330   -1.1122    0.0774 H   0  0  0  0  0  0  0  0  0  0  0  0
   -0.3010   -1.1715   -0.5979 H   0  0  0  0  0  0  0  0  0  0  0  0
    0.0390    3.1080    0.1347 H   0  0  0  0  0  0  0  0  0  0  0  0
   -2.3879    3.1538    0.8729 H   0  0  0  0  0  0  0  0  0  0  0  0
    2.7593    0.8112   -0.9359 N   0  0  0  0  0  0  0  0  0  0  0  0
    3.8340    0.7653   -1.1882 N   0  0  0  0  0  0  0  0  0  0  0  0
   -3.9498    1.1675    1.0383 O   0  0  0  0  0  0  0  0  0  0  0  0
   -4.8170    0.0225    1.1497 C   0  0  0  0  0  0  0  0  0  0  0  0
   -5.7570    0.4112    1.5359 H   0  0  0  0  0  0  0  0  0  0  0  0
   -4.4010   -0.7088    1.8493 H   0  0  0  0  0  0  0  0  0  0  0  0
   -4.9807   -0.4298    0.1662 H   0  0  0  0  0  0  0  0  0  0  0  0
  1  6  2  0  0  0  0
  2  1  1  0  0  0  0
  3  2  2  0  0  0  0
  3  4  1  0  0  0  0
  4  5  2  0  0  0  0
  5  6  1  0  0  0  0
  5 10  1  0  0  0  0
  6 13  1  0  0  0  0
  7  1  1  0  0  0  0
  8  2  1  0  0  0  0
  9  4  1  0  0  0  0
 12 11  3  0  0  0  0
 13 14  1  0  0  0  0
 14 15  1  0  0  0  0
 14 16  1  0  0  0  0
 17 14  1  0  0  0  0
M  RAD  1   3   2
M  END
