Coordinates from ORCA-job 4-MeO-Ph-N2+-B3LYPG-6-31G_dp-MTMO-d009-169-n900
 OpenBabel09051907383D

 17 16  0  0  0  0  0  0  0  0999 V2000
   -0.6644    2.5570    0.0249 C   0  0  0  0  0  0  0  0  0  0  0  0
   -0.2795    3.9196    0.0141 C   0  0  0  0  0  0  0  0  0  0  0  0
   -1.3668    4.6384    0.3268 C   0  0  0  0  0  0  0  0  0  0  0  0
   -2.5282    4.5454    0.9946 C   0  0  0  0  0  0  0  0  0  0  0  0
   -2.8469    3.1713    0.9920 C   0  0  0  0  0  0  0  0  0  0  0  0
   -1.9311    2.1825    0.5347 C   0  0  0  0  0  0  0  0  0  0  0  0
    0.0415    1.8340   -0.3675 H   0  0  0  0  0  0  0  0  0  0  0  0
    0.7032    4.2736   -0.2764 H   0  0  0  0  0  0  0  0  0  0  0  0
   -3.2087    5.3261    1.3134 H   0  0  0  0  0  0  0  0  0  0  0  0
   -3.8509    2.8752    1.2845 H   0  0  0  0  0  0  0  0  0  0  0  0
   -3.5521  -10.8367   -0.5671 N   0  0  0  0  0  0  0  0  0  0  0  0
   -3.8563  -11.8962   -0.6485 N   0  0  0  0  0  0  0  0  0  0  0  0
   -2.3725    0.9350    0.6190 O   0  0  0  0  0  0  0  0  0  0  0  0
   -1.5202   -0.1665    0.2422 C   0  0  0  0  0  0  0  0  0  0  0  0
   -2.1207   -1.0595    0.4039 H   0  0  0  0  0  0  0  0  0  0  0  0
   -0.6288   -0.1955    0.8745 H   0  0  0  0  0  0  0  0  0  0  0  0
   -1.2470   -0.0904   -0.8153 H   0  0  0  0  0  0  0  0  0  0  0  0
  1  6  1  0  0  0  0
  2  1  2  0  0  0  0
  2  3  1  0  0  0  0
  3  4  2  0  0  0  0
  4  9  1  0  0  0  0
  5  4  1  0  0  0  0
  5 10  1  0  0  0  0
  6 13  1  0  0  0  0
  6  5  2  0  0  0  0
  7  1  1  0  0  0  0
  8  2  1  0  0  0  0
 12 11  3  0  0  0  0
 14 15  1  0  0  0  0
 14 13  1  0  0  0  0
 14 16  1  0  0  0  0
 17 14  1  0  0  0  0
M  RAD  1   3   2
M  END
