Coordinates from ORCA-job 4-MeO-Ph-N2+-B3LYPG-6-31G_dp-MTMO-d009-169-n900
 OpenBabel09051907383D

 17 16  0  0  0  0  0  0  0  0999 V2000
   -1.7380    0.3411    0.1304 C   0  0  0  0  0  0  0  0  0  0  0  0
   -0.4258    0.8034   -0.1546 C   0  0  0  0  0  0  0  0  0  0  0  0
   -0.4678    2.1347   -0.0550 C   0  0  0  0  0  0  0  0  0  0  0  0
   -1.1451    3.1364    0.5279 C   0  0  0  0  0  0  0  0  0  0  0  0
   -2.4227    2.6070    0.8067 C   0  0  0  0  0  0  0  0  0  0  0  0
   -2.7199    1.2277    0.6308 C   0  0  0  0  0  0  0  0  0  0  0  0
   -1.9426   -0.7068   -0.0581 H   0  0  0  0  0  0  0  0  0  0  0  0
    0.3944    0.1604   -0.4645 H   0  0  0  0  0  0  0  0  0  0  0  0
   -0.8829    4.1826    0.6313 H   0  0  0  0  0  0  0  0  0  0  0  0
   -3.2110    3.2927    1.1059 H   0  0  0  0  0  0  0  0  0  0  0  0
    2.1397   -1.2032   -1.1326 N   0  0  0  0  0  0  0  0  0  0  0  0
    2.9786   -1.8433   -1.4586 N   0  0  0  0  0  0  0  0  0  0  0  0
   -3.9590    0.8783    0.9564 O   0  0  0  0  0  0  0  0  0  0  0  0
   -4.3660   -0.5022    0.8804 C   0  0  0  0  0  0  0  0  0  0  0  0
   -5.4072   -0.5114    1.1964 H   0  0  0  0  0  0  0  0  0  0  0  0
   -3.7657   -1.1178    1.5563 H   0  0  0  0  0  0  0  0  0  0  0  0
   -4.2885   -0.8660   -0.1495 H   0  0  0  0  0  0  0  0  0  0  0  0
  1  6  2  0  0  0  0
  2  3  2  0  0  0  0
  2  1  1  0  0  0  0
  3  4  1  0  0  0  0
  4  9  1  0  0  0  0
  4  5  2  0  0  0  0
  5 10  1  0  0  0  0
  6  5  1  0  0  0  0
  6 13  1  0  0  0  0
  7  1  1  0  0  0  0
  8  2  1  0  0  0  0
 12 11  3  0  0  0  0
 14 13  1  0  0  0  0
 14 15  1  0  0  0  0
 14 16  1  0  0  0  0
 17 14  1  0  0  0  0
M  RAD  1   3   2
M  END
