Coordinates from ORCA-job 4-MeO-Ph-N2+-B3LYPG-6-31G_dp-MTMO-d009-169-n900
 OpenBabel09051907383D

 17 16  0  0  0  0  0  0  0  0999 V2000
   -0.7504    1.9597   -0.0121 C   0  0  0  0  0  0  0  0  0  0  0  0
   -0.3551    3.3189    0.0190 C   0  0  0  0  0  0  0  0  0  0  0  0
   -1.4404    4.0381    0.3383 C   0  0  0  0  0  0  0  0  0  0  0  0
   -2.6096    3.9354    0.9912 C   0  0  0  0  0  0  0  0  0  0  0  0
   -2.9390    2.5647    0.9471 C   0  0  0  0  0  0  0  0  0  0  0  0
   -2.0257    1.5812    0.4729 C   0  0  0  0  0  0  0  0  0  0  0  0
   -0.0457    1.2422   -0.4166 H   0  0  0  0  0  0  0  0  0  0  0  0
    0.6336    3.6727   -0.2507 H   0  0  0  0  0  0  0  0  0  0  0  0
   -3.2876    4.7125    1.3241 H   0  0  0  0  0  0  0  0  0  0  0  0
   -3.9485    2.2687    1.2202 H   0  0  0  0  0  0  0  0  0  0  0  0
   -2.8891   -6.3237   -0.1725 N   0  0  0  0  0  0  0  0  0  0  0  0
   -3.1358   -7.3991   -0.2362 N   0  0  0  0  0  0  0  0  0  0  0  0
   -2.4776    0.3356    0.5183 O   0  0  0  0  0  0  0  0  0  0  0  0
   -1.6298   -0.7626    0.1215 C   0  0  0  0  0  0  0  0  0  0  0  0
   -2.2381   -1.6552    0.2544 H   0  0  0  0  0  0  0  0  0  0  0  0
   -0.7449   -0.8143    0.7615 H   0  0  0  0  0  0  0  0  0  0  0  0
   -1.3458   -0.6614   -0.9309 H   0  0  0  0  0  0  0  0  0  0  0  0
  1  2  2  0  0  0  0
  1  6  1  0  0  0  0
  2  3  1  0  0  0  0
  3  4  2  0  0  0  0
  4  9  1  0  0  0  0
  5  4  1  0  0  0  0
  5 10  1  0  0  0  0
  6 13  1  0  0  0  0
  6  5  2  0  0  0  0
  7  1  1  0  0  0  0
  8  2  1  0  0  0  0
 12 11  3  0  0  0  0
 14 15  1  0  0  0  0
 14 13  1  0  0  0  0
 14 16  1  0  0  0  0
 17 14  1  0  0  0  0
M  RAD  1   3   2
M  END
