Coordinates from ORCA-job 4-MeO-Ph-N2+-B3LYPG-6-31G_dp-MTMO-d009-169-n900
 OpenBabel09051907383D

 17 16  0  0  0  0  0  0  0  0999 V2000
   -2.0264   -0.2078    0.1773 C   0  0  0  0  0  0  0  0  0  0  0  0
   -0.6815   -0.2884   -0.2472 C   0  0  0  0  0  0  0  0  0  0  0  0
   -0.1234    0.9362   -0.1886 C   0  0  0  0  0  0  0  0  0  0  0  0
   -0.4694    2.1991    0.1547 C   0  0  0  0  0  0  0  0  0  0  0  0
   -1.8109    2.2044    0.5646 C   0  0  0  0  0  0  0  0  0  0  0  0
   -2.5900    1.0220    0.5800 C   0  0  0  0  0  0  0  0  0  0  0  0
   -2.5990   -1.1278    0.1774 H   0  0  0  0  0  0  0  0  0  0  0  0
   -0.2122   -1.2102   -0.5634 H   0  0  0  0  0  0  0  0  0  0  0  0
    0.1530    3.0835    0.1305 H   0  0  0  0  0  0  0  0  0  0  0  0
   -2.2596    3.1419    0.8773 H   0  0  0  0  0  0  0  0  0  0  0  0
    1.9073    0.8618   -0.8205 N   0  0  0  0  0  0  0  0  0  0  0  0
    2.9606    0.8259   -1.1488 N   0  0  0  0  0  0  0  0  0  0  0  0
   -3.8480    1.1800    0.9917 O   0  0  0  0  0  0  0  0  0  0  0  0
   -4.7308    0.0469    1.0494 C   0  0  0  0  0  0  0  0  0  0  0  0
   -5.6811    0.4399    1.4057 H   0  0  0  0  0  0  0  0  0  0  0  0
   -4.3547   -0.7020    1.7542 H   0  0  0  0  0  0  0  0  0  0  0  0
   -4.8633   -0.3919    0.0553 H   0  0  0  0  0  0  0  0  0  0  0  0
  1  7  1  0  0  0  0
  1  6  2  0  0  0  0
  2  3  2  0  0  0  0
  2  1  1  0  0  0  0
  3  4  1  0  0  0  0
  4  5  2  0  0  0  0
  5  6  1  0  0  0  0
  5 10  1  0  0  0  0
  6 13  1  0  0  0  0
  8  2  1  0  0  0  0
  9  4  1  0  0  0  0
 12 11  3  0  0  0  0
 13 14  1  0  0  0  0
 14 15  1  0  0  0  0
 14 16  1  0  0  0  0
 17 14  1  0  0  0  0
M  RAD  1   3   2
M  END
