Coordinates from ORCA-job 4-MeO-Ph-N2+-B3LYPG-6-31G_dp-MTMO-d009-169-n900
 OpenBabel09051907383D

 17 16  0  0  0  0  0  0  0  0999 V2000
   -2.0530   -0.2060    0.1848 C   0  0  0  0  0  0  0  0  0  0  0  0
   -0.7015   -0.2909   -0.2418 C   0  0  0  0  0  0  0  0  0  0  0  0
   -0.1845    0.9403   -0.1723 C   0  0  0  0  0  0  0  0  0  0  0  0
   -0.4910    2.2050    0.1629 C   0  0  0  0  0  0  0  0  0  0  0  0
   -1.8390    2.2049    0.5735 C   0  0  0  0  0  0  0  0  0  0  0  0
   -2.6181    1.0225    0.5885 C   0  0  0  0  0  0  0  0  0  0  0  0
   -2.6199   -1.1301    0.1808 H   0  0  0  0  0  0  0  0  0  0  0  0
   -0.2266   -1.2097   -0.5584 H   0  0  0  0  0  0  0  0  0  0  0  0
    0.1350    3.0871    0.1372 H   0  0  0  0  0  0  0  0  0  0  0  0
   -2.2826    3.1461    0.8841 H   0  0  0  0  0  0  0  0  0  0  0  0
    2.1026    0.8592   -0.8783 N   0  0  0  0  0  0  0  0  0  0  0  0
    3.1558    0.8239   -1.2080 N   0  0  0  0  0  0  0  0  0  0  0  0
   -3.8763    1.1797    1.0000 O   0  0  0  0  0  0  0  0  0  0  0  0
   -4.7565    0.0443    1.0575 C   0  0  0  0  0  0  0  0  0  0  0  0
   -5.7079    0.4347    1.4137 H   0  0  0  0  0  0  0  0  0  0  0  0
   -4.3784   -0.7035    1.7625 H   0  0  0  0  0  0  0  0  0  0  0  0
   -4.8877   -0.3942    0.0630 H   0  0  0  0  0  0  0  0  0  0  0  0
  1  6  2  0  0  0  0
  2  3  2  0  0  0  0
  2  1  1  0  0  0  0
  3  4  1  0  0  0  0
  4  5  2  0  0  0  0
  5  6  1  0  0  0  0
  5 10  1  0  0  0  0
  6 13  1  0  0  0  0
  7  1  1  0  0  0  0
  8  2  1  0  0  0  0
  9  4  1  0  0  0  0
 12 11  3  0  0  0  0
 13 14  1  0  0  0  0
 14 15  1  0  0  0  0
 14 16  1  0  0  0  0
 17 14  1  0  0  0  0
M  RAD  1   3   2
M  END
