Coordinates from ORCA-job 4-MeO-Ph-N2+-B3LYPG-6-31G_dp-MTMO-d009-169-n900
 OpenBabel09051907383D

 17 16  0  0  0  0  0  0  0  0999 V2000
   -0.7570    1.8784   -0.0161 C   0  0  0  0  0  0  0  0  0  0  0  0
   -0.3779    3.2413    0.0405 C   0  0  0  0  0  0  0  0  0  0  0  0
   -1.4736    3.9440    0.3621 C   0  0  0  0  0  0  0  0  0  0  0  0
   -2.6460    3.8163    1.0052 C   0  0  0  0  0  0  0  0  0  0  0  0
   -2.9594    2.4429    0.9361 C   0  0  0  0  0  0  0  0  0  0  0  0
   -2.0314    1.4773    0.4531 C   0  0  0  0  0  0  0  0  0  0  0  0
   -0.0409    1.1757   -0.4267 H   0  0  0  0  0  0  0  0  0  0  0  0
    0.6089    3.6105   -0.2154 H   0  0  0  0  0  0  0  0  0  0  0  0
   -3.3357    4.5799    1.3454 H   0  0  0  0  0  0  0  0  0  0  0  0
   -3.9675    2.1311    1.1964 H   0  0  0  0  0  0  0  0  0  0  0  0
   -2.8358   -5.5879   -0.0751 N   0  0  0  0  0  0  0  0  0  0  0  0
   -3.0900   -6.6627   -0.1148 N   0  0  0  0  0  0  0  0  0  0  0  0
   -2.4694    0.2262    0.4755 O   0  0  0  0  0  0  0  0  0  0  0  0
   -1.6067   -0.8569    0.0680 C   0  0  0  0  0  0  0  0  0  0  0  0
   -2.2048   -1.7589    0.1833 H   0  0  0  0  0  0  0  0  0  0  0  0
   -0.7253   -0.9078    0.7130 H   0  0  0  0  0  0  0  0  0  0  0  0
   -1.3170   -0.7362   -0.9809 H   0  0  0  0  0  0  0  0  0  0  0  0
  1  2  2  0  0  0  0
  1  6  1  0  0  0  0
  2  3  1  0  0  0  0
  3  4  2  0  0  0  0
  4  9  1  0  0  0  0
  5  4  1  0  0  0  0
  5 10  1  0  0  0  0
  6 13  1  0  0  0  0
  6  5  2  0  0  0  0
  7  1  1  0  0  0  0
  8  2  1  0  0  0  0
 12 11  3  0  0  0  0
 14 15  1  0  0  0  0
 14 13  1  0  0  0  0
 14 16  1  0  0  0  0
 17 14  1  0  0  0  0
M  RAD  1   3   2
M  END
