Coordinates from ORCA-job 4-MeO-Ph-N2+-B3LYPG-6-31G_dp-MTMO-d009-169-n900
 OpenBabel09051907383D

 17 16  0  0  0  0  0  0  0  0999 V2000
   -0.9225    1.5278   -0.0152 C   0  0  0  0  0  0  0  0  0  0  0  0
   -0.3111    2.8042   -0.0454 C   0  0  0  0  0  0  0  0  0  0  0  0
   -1.2559    3.7041    0.2652 C   0  0  0  0  0  0  0  0  0  0  0  0
   -2.4070    3.8153    0.9492 C   0  0  0  0  0  0  0  0  0  0  0  0
   -2.9565    2.5166    0.9656 C   0  0  0  0  0  0  0  0  0  0  0  0
   -2.2286    1.3803    0.5116 C   0  0  0  0  0  0  0  0  0  0  0  0
   -0.3567    0.6906   -0.4076 H   0  0  0  0  0  0  0  0  0  0  0  0
    0.7143    2.9818   -0.3496 H   0  0  0  0  0  0  0  0  0  0  0  0
   -2.9401    4.7038    1.2661 H   0  0  0  0  0  0  0  0  0  0  0  0
   -3.9932    2.3996    1.2700 H   0  0  0  0  0  0  0  0  0  0  0  0
   -1.6503   -4.3360   -0.3388 N   0  0  0  0  0  0  0  0  0  0  0  0
   -1.5431   -5.4250   -0.4930 N   0  0  0  0  0  0  0  0  0  0  0  0
   -2.8751    0.2284    0.6165 O   0  0  0  0  0  0  0  0  0  0  0  0
   -2.2285   -1.0106    0.2520 C   0  0  0  0  0  0  0  0  0  0  0  0
   -2.9696   -1.7858    0.4316 H   0  0  0  0  0  0  0  0  0  0  0  0
   -1.3500   -1.1828    0.8793 H   0  0  0  0  0  0  0  0  0  0  0  0
   -1.9556   -0.9988   -0.8078 H   0  0  0  0  0  0  0  0  0  0  0  0
  1  6  1  0  0  0  0
  2  1  2  0  0  0  0
  2  3  1  0  0  0  0
  3  4  2  0  0  0  0
  4  5  1  0  0  0  0
  4  9  1  0  0  0  0
  5 10  1  0  0  0  0
  6 13  1  0  0  0  0
  6  5  2  0  0  0  0
  7  1  1  0  0  0  0
  8  2  1  0  0  0  0
 12 11  3  0  0  0  0
 14 15  1  0  0  0  0
 14 13  1  0  0  0  0
 14 16  1  0  0  0  0
 17 14  1  0  0  0  0
M  RAD  1   3   2
M  END
