Coordinates from ORCA-job 4-MeO-Ph-N2+-B3LYPG-6-31G_dp-MTMO-d009-169-n900
 OpenBabel09051907383D

 17 16  0  0  0  0  0  0  0  0999 V2000
   -2.1508   -0.1966    0.1320 C   0  0  0  0  0  0  0  0  0  0  0  0
   -0.8001   -0.2617   -0.2973 C   0  0  0  0  0  0  0  0  0  0  0  0
   -0.3505    0.9966   -0.3338 C   0  0  0  0  0  0  0  0  0  0  0  0
   -0.5796    2.2212    0.1635 C   0  0  0  0  0  0  0  0  0  0  0  0
   -1.9245    2.2100    0.5893 C   0  0  0  0  0  0  0  0  0  0  0  0
   -2.7026    1.0215    0.5926 C   0  0  0  0  0  0  0  0  0  0  0  0
   -2.7294   -1.1123    0.0774 H   0  0  0  0  0  0  0  0  0  0  0  0
   -0.2982   -1.1734   -0.5981 H   0  0  0  0  0  0  0  0  0  0  0  0
    0.0439    3.1064    0.1342 H   0  0  0  0  0  0  0  0  0  0  0  0
   -2.3829    3.1537    0.8721 H   0  0  0  0  0  0  0  0  0  0  0  0
    2.7296    0.8138   -0.9298 N   0  0  0  0  0  0  0  0  0  0  0  0
    3.8041    0.7681   -1.1826 N   0  0  0  0  0  0  0  0  0  0  0  0
   -3.9462    1.1680    1.0366 O   0  0  0  0  0  0  0  0  0  0  0  0
   -4.8136    0.0232    1.1479 C   0  0  0  0  0  0  0  0  0  0  0  0
   -5.7537    0.4121    1.5335 H   0  0  0  0  0  0  0  0  0  0  0  0
   -4.3980   -0.7079    1.8479 H   0  0  0  0  0  0  0  0  0  0  0  0
   -4.9769   -0.4294    0.1645 H   0  0  0  0  0  0  0  0  0  0  0  0
  1  6  2  0  0  0  0
  2  1  1  0  0  0  0
  3  2  2  0  0  0  0
  3  4  1  0  0  0  0
  4  5  2  0  0  0  0
  5  6  1  0  0  0  0
  5 10  1  0  0  0  0
  6 13  1  0  0  0  0
  7  1  1  0  0  0  0
  8  2  1  0  0  0  0
  9  4  1  0  0  0  0
 12 11  3  0  0  0  0
 13 14  1  0  0  0  0
 14 15  1  0  0  0  0
 14 16  1  0  0  0  0
 17 14  1  0  0  0  0
M  RAD  1   3   2
M  END
