Coordinates from ORCA-job 4-MeO-Ph-N2+-B3LYPG-6-31G_dp-MTMO-d009-169-n900
 OpenBabel09051907383D

 17 16  0  0  0  0  0  0  0  0999 V2000
   -0.6428    2.6966    0.0348 C   0  0  0  0  0  0  0  0  0  0  0  0
   -0.2643    4.0610    0.0217 C   0  0  0  0  0  0  0  0  0  0  0  0
   -1.3549    4.7752    0.3336 C   0  0  0  0  0  0  0  0  0  0  0  0
   -2.5157    4.6777    1.0017 C   0  0  0  0  0  0  0  0  0  0  0  0
   -2.8281    3.3022    1.0012 C   0  0  0  0  0  0  0  0  0  0  0  0
   -1.9076    2.3170    0.5452 C   0  0  0  0  0  0  0  0  0  0  0  0
    0.0664    1.9764   -0.3568 H   0  0  0  0  0  0  0  0  0  0  0  0
    0.7168    4.4191   -0.2694 H   0  0  0  0  0  0  0  0  0  0  0  0
   -3.1998    5.4558    1.3194 H   0  0  0  0  0  0  0  0  0  0  0  0
   -3.8306    3.0019    1.2943 H   0  0  0  0  0  0  0  0  0  0  0  0
   -3.7142  -11.8587   -0.6439 N   0  0  0  0  0  0  0  0  0  0  0  0
   -4.0363  -12.9127   -0.7270 N   0  0  0  0  0  0  0  0  0  0  0  0
   -2.3433    1.0676    0.6316 O   0  0  0  0  0  0  0  0  0  0  0  0
   -1.4858   -0.0305    0.2564 C   0  0  0  0  0  0  0  0  0  0  0  0
   -2.0820   -0.9261    0.4197 H   0  0  0  0  0  0  0  0  0  0  0  0
   -0.5941   -0.0542    0.8885 H   0  0  0  0  0  0  0  0  0  0  0  0
   -1.2131    0.0452   -0.8013 H   0  0  0  0  0  0  0  0  0  0  0  0
  1  6  1  0  0  0  0
  2  1  2  0  0  0  0
  2  3  1  0  0  0  0
  3  4  2  0  0  0  0
  4  9  1  0  0  0  0
  5  4  1  0  0  0  0
  5 10  1  0  0  0  0
  6 13  1  0  0  0  0
  6  5  2  0  0  0  0
  7  1  1  0  0  0  0
  8  2  1  0  0  0  0
 12 11  3  0  0  0  0
 14 15  1  0  0  0  0
 14 13  1  0  0  0  0
 14 16  1  0  0  0  0
 17 14  1  0  0  0  0
M  RAD  1   3   2
M  END
