Coordinates from ORCA-job 4-MeO-Ph-N2+-B3LYPG-6-31G_dp-MTMO-d009-169-n900
 OpenBabel09051907383D

 17 16  0  0  0  0  0  0  0  0999 V2000
   -0.6956    2.3538    0.0114 C   0  0  0  0  0  0  0  0  0  0  0  0
   -0.3001    3.7133    0.0066 C   0  0  0  0  0  0  0  0  0  0  0  0
   -1.3821    4.4393    0.3209 C   0  0  0  0  0  0  0  0  0  0  0  0
   -2.5449    4.3526    0.9871 C   0  0  0  0  0  0  0  0  0  0  0  0
   -2.8744    2.9811    0.9785 C   0  0  0  0  0  0  0  0  0  0  0  0
   -1.9657    1.9870    0.5181 C   0  0  0  0  0  0  0  0  0  0  0  0
    0.0051    1.6269   -0.3832 H   0  0  0  0  0  0  0  0  0  0  0  0
    0.6857    4.0608   -0.2814 H   0  0  0  0  0  0  0  0  0  0  0  0
   -3.2197    5.1373    1.3084 H   0  0  0  0  0  0  0  0  0  0  0  0
   -3.8810    2.6916    1.2687 H   0  0  0  0  0  0  0  0  0  0  0  0
   -3.3187   -9.3493   -0.4549 N   0  0  0  0  0  0  0  0  0  0  0  0
   -3.5877  -10.4189   -0.5275 N   0  0  0  0  0  0  0  0  0  0  0  0
   -2.4170    0.7427    0.5968 O   0  0  0  0  0  0  0  0  0  0  0  0
   -1.5729   -0.3639    0.2166 C   0  0  0  0  0  0  0  0  0  0  0  0
   -2.1804   -1.2529    0.3741 H   0  0  0  0  0  0  0  0  0  0  0  0
   -0.6824   -0.4023    0.8498 H   0  0  0  0  0  0  0  0  0  0  0  0
   -1.2978   -0.2857   -0.8403 H   0  0  0  0  0  0  0  0  0  0  0  0
  1  6  1  0  0  0  0
  2  1  2  0  0  0  0
  2  3  1  0  0  0  0
  3  4  2  0  0  0  0
  4  9  1  0  0  0  0
  5  4  1  0  0  0  0
  5 10  1  0  0  0  0
  6 13  1  0  0  0  0
  6  5  2  0  0  0  0
  7  1  1  0  0  0  0
  8  2  1  0  0  0  0
 12 11  3  0  0  0  0
 14 15  1  0  0  0  0
 14 13  1  0  0  0  0
 14 16  1  0  0  0  0
 17 14  1  0  0  0  0
M  RAD  1   3   2
M  END
