Coordinates from ORCA-job 4-MeO-Ph-N2+-B3LYPG-6-31G_dp-MTMO-d009-169-n900
 OpenBabel09051907383D

 17 16  0  0  0  0  0  0  0  0999 V2000
   -0.7579    1.7822   -0.0261 C   0  0  0  0  0  0  0  0  0  0  0  0
   -0.4384    3.1587    0.0574 C   0  0  0  0  0  0  0  0  0  0  0  0
   -1.5660    3.8081    0.3820 C   0  0  0  0  0  0  0  0  0  0  0  0
   -2.7352    3.6169    1.0160 C   0  0  0  0  0  0  0  0  0  0  0  0
   -2.9887    2.2331    0.9208 C   0  0  0  0  0  0  0  0  0  0  0  0
   -2.0165    1.3172    0.4273 C   0  0  0  0  0  0  0  0  0  0  0  0
   -0.0102    1.1189   -0.4459 H   0  0  0  0  0  0  0  0  0  0  0  0
    0.5329    3.5744   -0.1861 H   0  0  0  0  0  0  0  0  0  0  0  0
   -3.4594    4.3438    1.3648 H   0  0  0  0  0  0  0  0  0  0  0  0
   -3.9838    1.8733    1.1685 H   0  0  0  0  0  0  0  0  0  0  0  0
   -2.8626   -4.5318    0.0620 N   0  0  0  0  0  0  0  0  0  0  0  0
   -3.2171   -5.5783    0.0626 N   0  0  0  0  0  0  0  0  0  0  0  0
   -2.3989    0.0484    0.4249 O   0  0  0  0  0  0  0  0  0  0  0  0
   -1.4855   -0.9886    0.0052 C   0  0  0  0  0  0  0  0  0  0  0  0
   -2.0409   -1.9199    0.1005 H   0  0  0  0  0  0  0  0  0  0  0  0
   -0.6063   -1.0082    0.6550 H   0  0  0  0  0  0  0  0  0  0  0  0
   -1.1950   -0.8349   -1.0392 H   0  0  0  0  0  0  0  0  0  0  0  0
  1  2  2  0  0  0  0
  1  6  1  0  0  0  0
  2  3  1  0  0  0  0
  3  4  2  0  0  0  0
  4  9  1  0  0  0  0
  5  4  1  0  0  0  0
  5 10  1  0  0  0  0
  6  5  2  0  0  0  0
  7  1  1  0  0  0  0
  8  2  1  0  0  0  0
 11 12  3  0  0  0  0
 13  6  1  0  0  0  0
 14 15  1  0  0  0  0
 14 13  1  0  0  0  0
 14 16  1  0  0  0  0
 17 14  1  0  0  0  0
M  RAD  1   3   2
M  END
