Coordinates from ORCA-job 4-MeO-Ph-N2+-B3LYPG-6-31G_dp-MTMO-d009-169-n900
 OpenBabel09051907383D

 17 16  0  0  0  0  0  0  0  0999 V2000
   -2.0760   -0.2045    0.1879 C   0  0  0  0  0  0  0  0  0  0  0  0
   -0.7209   -0.2911   -0.2378 C   0  0  0  0  0  0  0  0  0  0  0  0
   -0.2264    0.9446   -0.1701 C   0  0  0  0  0  0  0  0  0  0  0  0
   -0.5111    2.2081    0.1712 C   0  0  0  0  0  0  0  0  0  0  0  0
   -1.8625    2.2054    0.5811 C   0  0  0  0  0  0  0  0  0  0  0  0
   -2.6416    1.0228    0.5947 C   0  0  0  0  0  0  0  0  0  0  0  0
   -2.6414   -1.1298    0.1766 H   0  0  0  0  0  0  0  0  0  0  0  0
   -0.2417   -1.2085   -0.5531 H   0  0  0  0  0  0  0  0  0  0  0  0
    0.1170    3.0888    0.1449 H   0  0  0  0  0  0  0  0  0  0  0  0
   -2.3048    3.1490    0.8873 H   0  0  0  0  0  0  0  0  0  0  0  0
    2.2695    0.8569   -0.9235 N   0  0  0  0  0  0  0  0  0  0  0  0
    3.3231    0.8221   -1.2528 N   0  0  0  0  0  0  0  0  0  0  0  0
   -3.8997    1.1791    1.0060 O   0  0  0  0  0  0  0  0  0  0  0  0
   -4.7777    0.0417    1.0671 C   0  0  0  0  0  0  0  0  0  0  0  0
   -5.7293    0.4310    1.4236 H   0  0  0  0  0  0  0  0  0  0  0  0
   -4.3969   -0.7036    1.7732 H   0  0  0  0  0  0  0  0  0  0  0  0
   -4.9091   -0.3987    0.0735 H   0  0  0  0  0  0  0  0  0  0  0  0
  1  6  2  0  0  0  0
  2  3  2  0  0  0  0
  2  1  1  0  0  0  0
  3  4  1  0  0  0  0
  4  5  2  0  0  0  0
  5  6  1  0  0  0  0
  5 10  1  0  0  0  0
  6 13  1  0  0  0  0
  7  1  1  0  0  0  0
  8  2  1  0  0  0  0
  9  4  1  0  0  0  0
 12 11  3  0  0  0  0
 13 14  1  0  0  0  0
 14 15  1  0  0  0  0
 14 16  1  0  0  0  0
 17 14  1  0  0  0  0
M  RAD  1   3   2
M  END
