Coordinates from ORCA-job 4-MeO-Ph-N2+-B3LYPG-6-31G_dp-MTMO-d009-169-n900
 OpenBabel09051907383D

 17 16  0  0  0  0  0  0  0  0999 V2000
   -0.7243    2.1611   -0.0002 C   0  0  0  0  0  0  0  0  0  0  0  0
   -0.3199    3.5179    0.0068 C   0  0  0  0  0  0  0  0  0  0  0  0
   -1.3981    4.2487    0.3233 C   0  0  0  0  0  0  0  0  0  0  0  0
   -2.5635    4.1643    0.9854 C   0  0  0  0  0  0  0  0  0  0  0  0
   -2.9021    2.7951    0.9649 C   0  0  0  0  0  0  0  0  0  0  0  0
   -1.9985    1.7987    0.4996 C   0  0  0  0  0  0  0  0  0  0  0  0
   -0.0272    1.4327   -0.3985 H   0  0  0  0  0  0  0  0  0  0  0  0
    0.6690    3.8612   -0.2754 H   0  0  0  0  0  0  0  0  0  0  0  0
   -3.2341    4.9509    1.3109 H   0  0  0  0  0  0  0  0  0  0  0  0
   -3.9114    2.5101    1.2497 H   0  0  0  0  0  0  0  0  0  0  0  0
   -3.0910   -7.9248   -0.3342 N   0  0  0  0  0  0  0  0  0  0  0  0
   -3.3430   -8.9987   -0.4030 N   0  0  0  0  0  0  0  0  0  0  0  0
   -2.4582    0.5568    0.5671 O   0  0  0  0  0  0  0  0  0  0  0  0
   -1.6201   -0.5525    0.1810 C   0  0  0  0  0  0  0  0  0  0  0  0
   -2.2338   -1.4387    0.3302 H   0  0  0  0  0  0  0  0  0  0  0  0
   -0.7317   -0.6012    0.8164 H   0  0  0  0  0  0  0  0  0  0  0  0
   -1.3416   -0.4682   -0.8745 H   0  0  0  0  0  0  0  0  0  0  0  0
  1  2  2  0  0  0  0
  1  6  1  0  0  0  0
  2  3  1  0  0  0  0
  3  4  2  0  0  0  0
  4  9  1  0  0  0  0
  5  4  1  0  0  0  0
  5 10  1  0  0  0  0
  6 13  1  0  0  0  0
  6  5  2  0  0  0  0
  7  1  1  0  0  0  0
  8  2  1  0  0  0  0
 12 11  3  0  0  0  0
 14 15  1  0  0  0  0
 14 13  1  0  0  0  0
 14 16  1  0  0  0  0
 17 14  1  0  0  0  0
M  RAD  1   3   2
M  END
