Coordinates from ORCA-job 4-MeO-Ph-N2+-B3LYPG-6-31G_dp-MTMO-d009-169-n900
 OpenBabel09051907383D

 17 16  0  0  0  0  0  0  0  0999 V2000
   -0.6965    2.3474    0.0110 C   0  0  0  0  0  0  0  0  0  0  0  0
   -0.3007    3.7069    0.0065 C   0  0  0  0  0  0  0  0  0  0  0  0
   -1.3825    4.4331    0.3209 C   0  0  0  0  0  0  0  0  0  0  0  0
   -2.5454    4.3465    0.9870 C   0  0  0  0  0  0  0  0  0  0  0  0
   -2.8753    2.9751    0.9780 C   0  0  0  0  0  0  0  0  0  0  0  0
   -1.9668    1.9809    0.5176 C   0  0  0  0  0  0  0  0  0  0  0  0
    0.0040    1.6205   -0.3837 H   0  0  0  0  0  0  0  0  0  0  0  0
    0.6852    4.0542   -0.2814 H   0  0  0  0  0  0  0  0  0  0  0  0
   -3.2200    5.1314    1.3084 H   0  0  0  0  0  0  0  0  0  0  0  0
   -3.8819    2.6859    1.2681 H   0  0  0  0  0  0  0  0  0  0  0  0
   -3.3112   -9.3029   -0.4512 N   0  0  0  0  0  0  0  0  0  0  0  0
   -3.5794  -10.3727   -0.5236 N   0  0  0  0  0  0  0  0  0  0  0  0
   -2.4184    0.7367    0.5960 O   0  0  0  0  0  0  0  0  0  0  0  0
   -1.5746   -0.3701    0.2156 C   0  0  0  0  0  0  0  0  0  0  0  0
   -2.1824   -1.2590    0.3729 H   0  0  0  0  0  0  0  0  0  0  0  0
   -0.6841   -0.4088    0.8489 H   0  0  0  0  0  0  0  0  0  0  0  0
   -1.2994   -0.2917   -0.8412 H   0  0  0  0  0  0  0  0  0  0  0  0
  1  6  1  0  0  0  0
  2  1  2  0  0  0  0
  2  3  1  0  0  0  0
  3  4  2  0  0  0  0
  4  9  1  0  0  0  0
  5  4  1  0  0  0  0
  5 10  1  0  0  0  0
  6 13  1  0  0  0  0
  6  5  2  0  0  0  0
  7  1  1  0  0  0  0
  8  2  1  0  0  0  0
 12 11  3  0  0  0  0
 14 15  1  0  0  0  0
 14 13  1  0  0  0  0
 14 16  1  0  0  0  0
 17 14  1  0  0  0  0
M  RAD  1   3   2
M  END
