Coordinates from ORCA-job 4-MeO-Ph-N2+-B3LYPG-6-31G_dp-MTMO-d009-169-n900
 OpenBabel09051907383D

 17 17  0  0  0  0  0  0  0  0999 V2000
   -1.9995   -0.2111    0.1688 C   0  0  0  0  0  0  0  0  0  0  0  0
   -0.6652   -0.2827   -0.2511 C   0  0  0  0  0  0  0  0  0  0  0  0
   -0.0419    0.9320   -0.2138 C   0  0  0  0  0  0  0  0  0  0  0  0
   -0.4525    2.1903    0.1477 C   0  0  0  0  0  0  0  0  0  0  0  0
   -1.7830    2.2048    0.5562 C   0  0  0  0  0  0  0  0  0  0  0  0
   -2.5621    1.0209    0.5715 C   0  0  0  0  0  0  0  0  0  0  0  0
   -2.5805   -1.1250    0.1730 H   0  0  0  0  0  0  0  0  0  0  0  0
   -0.2029   -1.2090   -0.5662 H   0  0  0  0  0  0  0  0  0  0  0  0
    0.1650    3.0788    0.1259 H   0  0  0  0  0  0  0  0  0  0  0  0
   -2.2407    3.1363    0.8708 H   0  0  0  0  0  0  0  0  0  0  0  0
    1.7166    0.8647   -0.7622 N   0  0  0  0  0  0  0  0  0  0  0  0
    2.7710    0.8284   -1.0908 N   0  0  0  0  0  0  0  0  0  0  0  0
   -3.8183    1.1787    0.9827 O   0  0  0  0  0  0  0  0  0  0  0  0
   -4.7065    0.0492    1.0422 C   0  0  0  0  0  0  0  0  0  0  0  0
   -5.6545    0.4477    1.3984 H   0  0  0  0  0  0  0  0  0  0  0  0
   -4.3333   -0.7002    1.7476 H   0  0  0  0  0  0  0  0  0  0  0  0
   -4.8409   -0.3902    0.0490 H   0  0  0  0  0  0  0  0  0  0  0  0
  1  7  1  0  0  0  0
  1  6  2  0  0  0  0
  2  3  2  0  0  0  0
  2  1  1  0  0  0  0
  3  4  1  0  0  0  0
  4  5  2  0  0  0  0
  5  6  1  0  0  0  0
  5 10  1  0  0  0  0
  6 13  1  0  0  0  0
  8  2  1  0  0  0  0
  9  4  1  0  0  0  0
 11  3  1  0  0  0  0
 12 11  1  0  0  0  0
 13 14  1  0  0  0  0
 14 15  1  0  0  0  0
 14 16  1  0  0  0  0
 17 14  1  0  0  0  0
M  RAD  2  11   2  12   3
M  END
