Coordinates from ORCA-job 4-MeO-Ph-N2+-B3LYPG-6-31G_dp-MTMO-d009-169-n900
 OpenBabel09051907383D

 17 16  0  0  0  0  0  0  0  0999 V2000
   -0.6953    2.3559    0.0116 C   0  0  0  0  0  0  0  0  0  0  0  0
   -0.2999    3.7155    0.0066 C   0  0  0  0  0  0  0  0  0  0  0  0
   -1.3820    4.4414    0.3209 C   0  0  0  0  0  0  0  0  0  0  0  0
   -2.5447    4.3546    0.9872 C   0  0  0  0  0  0  0  0  0  0  0  0
   -2.8741    2.9831    0.9786 C   0  0  0  0  0  0  0  0  0  0  0  0
   -1.9654    1.9891    0.5183 C   0  0  0  0  0  0  0  0  0  0  0  0
    0.0055    1.6291   -0.3830 H   0  0  0  0  0  0  0  0  0  0  0  0
    0.6859    4.0630   -0.2814 H   0  0  0  0  0  0  0  0  0  0  0  0
   -3.2196    5.1393    1.3084 H   0  0  0  0  0  0  0  0  0  0  0  0
   -3.8806    2.6936    1.2688 H   0  0  0  0  0  0  0  0  0  0  0  0
   -3.3212   -9.3648   -0.4561 N   0  0  0  0  0  0  0  0  0  0  0  0
   -3.5905  -10.4343   -0.5288 N   0  0  0  0  0  0  0  0  0  0  0  0
   -2.4165    0.7447    0.5971 O   0  0  0  0  0  0  0  0  0  0  0  0
   -1.5723   -0.3619    0.2169 C   0  0  0  0  0  0  0  0  0  0  0  0
   -2.1798   -1.2509    0.3744 H   0  0  0  0  0  0  0  0  0  0  0  0
   -0.6818   -0.4001    0.8501 H   0  0  0  0  0  0  0  0  0  0  0  0
   -1.2973   -0.2837   -0.8400 H   0  0  0  0  0  0  0  0  0  0  0  0
  1  6  1  0  0  0  0
  2  1  2  0  0  0  0
  2  3  1  0  0  0  0
  3  4  2  0  0  0  0
  4  9  1  0  0  0  0
  5  4  1  0  0  0  0
  5 10  1  0  0  0  0
  6 13  1  0  0  0  0
  6  5  2  0  0  0  0
  7  1  1  0  0  0  0
  8  2  1  0  0  0  0
 12 11  3  0  0  0  0
 14 15  1  0  0  0  0
 14 13  1  0  0  0  0
 14 16  1  0  0  0  0
 17 14  1  0  0  0  0
M  RAD  1   3   2
M  END
