Coordinates from ORCA-job 4-MeO-Ph-N2+-B3LYPG-6-31G_dp-MTMO-d009-169-n900
 OpenBabel09051907383D

 17 16  0  0  0  0  0  0  0  0999 V2000
   -0.7296    2.1242   -0.0024 C   0  0  0  0  0  0  0  0  0  0  0  0
   -0.3244    3.4808    0.0079 C   0  0  0  0  0  0  0  0  0  0  0  0
   -1.4025    4.2116    0.3249 C   0  0  0  0  0  0  0  0  0  0  0  0
   -2.5685    4.1264    0.9858 C   0  0  0  0  0  0  0  0  0  0  0  0
   -2.9079    2.7575    0.9620 C   0  0  0  0  0  0  0  0  0  0  0  0
   -2.0045    1.7615    0.4955 C   0  0  0  0  0  0  0  0  0  0  0  0
   -0.0326    1.3963   -0.4015 H   0  0  0  0  0  0  0  0  0  0  0  0
    0.6650    3.8240   -0.2727 H   0  0  0  0  0  0  0  0  0  0  0  0
   -3.2389    4.9128    1.3123 H   0  0  0  0  0  0  0  0  0  0  0  0
   -3.9176    2.4724    1.2454 H   0  0  0  0  0  0  0  0  0  0  0  0
   -3.0487   -7.6458   -0.3085 N   0  0  0  0  0  0  0  0  0  0  0  0
   -3.2985   -8.7203   -0.3768 N   0  0  0  0  0  0  0  0  0  0  0  0
   -2.4649    0.5198    0.5600 O   0  0  0  0  0  0  0  0  0  0  0  0
   -1.6272   -0.5893    0.1725 C   0  0  0  0  0  0  0  0  0  0  0  0
   -2.2415   -1.4755    0.3194 H   0  0  0  0  0  0  0  0  0  0  0  0
   -0.7394   -0.6397    0.8085 H   0  0  0  0  0  0  0  0  0  0  0  0
   -1.3478   -0.5031   -0.8826 H   0  0  0  0  0  0  0  0  0  0  0  0
  1  2  2  0  0  0  0
  1  6  1  0  0  0  0
  2  3  1  0  0  0  0
  3  4  2  0  0  0  0
  4  9  1  0  0  0  0
  5  4  1  0  0  0  0
  5 10  1  0  0  0  0
  6 13  1  0  0  0  0
  6  5  2  0  0  0  0
  7  1  1  0  0  0  0
  8  2  1  0  0  0  0
 12 11  3  0  0  0  0
 14 15  1  0  0  0  0
 14 13  1  0  0  0  0
 14 16  1  0  0  0  0
 17 14  1  0  0  0  0
M  RAD  1   3   2
M  END
