Coordinates from ORCA-job 4-MeO-Ph-N2+-B3LYPG-6-31G_dp-MTMO-d009-169-n900
 OpenBabel09051907383D

 17 16  0  0  0  0  0  0  0  0999 V2000
   -0.7580    1.7845   -0.0260 C   0  0  0  0  0  0  0  0  0  0  0  0
   -0.4361    3.1604    0.0566 C   0  0  0  0  0  0  0  0  0  0  0  0
   -1.5623    3.8127    0.3807 C   0  0  0  0  0  0  0  0  0  0  0  0
   -2.7314    3.6240    1.0156 C   0  0  0  0  0  0  0  0  0  0  0  0
   -2.9877    2.2406    0.9214 C   0  0  0  0  0  0  0  0  0  0  0  0
   -2.0175    1.3224    0.4281 C   0  0  0  0  0  0  0  0  0  0  0  0
   -0.0117    1.1194   -0.4453 H   0  0  0  0  0  0  0  0  0  0  0  0
    0.5361    3.5741   -0.1868 H   0  0  0  0  0  0  0  0  0  0  0  0
   -3.4541    4.3525    1.3642 H   0  0  0  0  0  0  0  0  0  0  0  0
   -3.9834    1.8829    1.1694 H   0  0  0  0  0  0  0  0  0  0  0  0
   -2.8591   -4.5631    0.0570 N   0  0  0  0  0  0  0  0  0  0  0  0
   -3.2076   -5.6116    0.0553 N   0  0  0  0  0  0  0  0  0  0  0  0
   -2.4025    0.0544    0.4269 O   0  0  0  0  0  0  0  0  0  0  0  0
   -1.4916   -0.9852    0.0079 C   0  0  0  0  0  0  0  0  0  0  0  0
   -2.0490   -1.9152    0.1044 H   0  0  0  0  0  0  0  0  0  0  0  0
   -0.6121   -1.0060    0.6572 H   0  0  0  0  0  0  0  0  0  0  0  0
   -1.2014   -0.8333   -1.0369 H   0  0  0  0  0  0  0  0  0  0  0  0
  1  2  2  0  0  0  0
  1  6  1  0  0  0  0
  2  3  1  0  0  0  0
  3  4  2  0  0  0  0
  4  9  1  0  0  0  0
  5  4  1  0  0  0  0
  5 10  1  0  0  0  0
  6  5  2  0  0  0  0
  7  1  1  0  0  0  0
  8  2  1  0  0  0  0
 12 11  3  0  0  0  0
 13  6  1  0  0  0  0
 14 15  1  0  0  0  0
 14 13  1  0  0  0  0
 14 16  1  0  0  0  0
 17 14  1  0  0  0  0
M  RAD  1   3   2
M  END
