Coordinates from ORCA-job 4-MeO-Ph-N2+-B3LYPG-6-31G_dp-MTMO-d009-169-n900
 OpenBabel09051907383D

 17 16  0  0  0  0  0  0  0  0999 V2000
   -1.6414    0.6328    0.1131 C   0  0  0  0  0  0  0  0  0  0  0  0
   -0.4131    1.2954   -0.1332 C   0  0  0  0  0  0  0  0  0  0  0  0
   -0.6435    2.6056    0.0243 C   0  0  0  0  0  0  0  0  0  0  0  0
   -1.4567    3.4600    0.6669 C   0  0  0  0  0  0  0  0  0  0  0  0
   -2.6456    2.7396    0.9031 C   0  0  0  0  0  0  0  0  0  0  0  0
   -2.7416    1.3428    0.6511 C   0  0  0  0  0  0  0  0  0  0  0  0
   -1.6948   -0.4212   -0.1357 H   0  0  0  0  0  0  0  0  0  0  0  0
    0.4889    0.7944   -0.4679 H   0  0  0  0  0  0  0  0  0  0  0  0
   -1.3481    4.5256    0.8325 H   0  0  0  0  0  0  0  0  0  0  0  0
   -3.5259    3.2878    1.2285 H   0  0  0  0  0  0  0  0  0  0  0  0
    2.1832   -2.3469   -1.2711 N   0  0  0  0  0  0  0  0  0  0  0  0
    2.8196   -3.2083   -1.5435 N   0  0  0  0  0  0  0  0  0  0  0  0
   -3.9167    0.8030    0.9459 O   0  0  0  0  0  0  0  0  0  0  0  0
   -4.1195   -0.6179    0.8053 C   0  0  0  0  0  0  0  0  0  0  0  0
   -5.1492   -0.7913    1.1109 H   0  0  0  0  0  0  0  0  0  0  0  0
   -3.4378   -1.1689    1.4588 H   0  0  0  0  0  0  0  0  0  0  0  0
   -3.9872   -0.9191   -0.2391 H   0  0  0  0  0  0  0  0  0  0  0  0
  1  6  2  0  0  0  0
  2  3  2  0  0  0  0
  2  1  1  0  0  0  0
  3  4  1  0  0  0  0
  4  9  1  0  0  0  0
  4  5  2  0  0  0  0
  5 10  1  0  0  0  0
  6  5  1  0  0  0  0
  6 13  1  0  0  0  0
  7  1  1  0  0  0  0
  8  2  1  0  0  0  0
 12 11  3  0  0  0  0
 14 13  1  0  0  0  0
 14 15  1  0  0  0  0
 14 16  1  0  0  0  0
 17 14  1  0  0  0  0
M  RAD  1   3   2
M  END
