Coordinates from ORCA-job 4-MeO-Ph-N2+-B3LYPG-6-31G_dp-MTMO-d009-169-n900
 OpenBabel09051907383D

 17 16  0  0  0  0  0  0  0  0999 V2000
   -0.7509    1.9543   -0.0124 C   0  0  0  0  0  0  0  0  0  0  0  0
   -0.3567    3.3138    0.0193 C   0  0  0  0  0  0  0  0  0  0  0  0
   -1.4426    4.0321    0.3386 C   0  0  0  0  0  0  0  0  0  0  0  0
   -2.6118    3.9282    0.9914 C   0  0  0  0  0  0  0  0  0  0  0  0
   -2.9402    2.5572    0.9466 C   0  0  0  0  0  0  0  0  0  0  0  0
   -2.0260    1.5747    0.4723 C   0  0  0  0  0  0  0  0  0  0  0  0
   -0.0456    1.2375   -0.4170 H   0  0  0  0  0  0  0  0  0  0  0  0
    0.6318    3.6685   -0.2500 H   0  0  0  0  0  0  0  0  0  0  0  0
   -3.2906    4.7046    1.3243 H   0  0  0  0  0  0  0  0  0  0  0  0
   -3.9495    2.2604    1.2194 H   0  0  0  0  0  0  0  0  0  0  0  0
   -2.8853   -6.2768   -0.1676 N   0  0  0  0  0  0  0  0  0  0  0  0
   -3.1325   -7.3521   -0.2308 N   0  0  0  0  0  0  0  0  0  0  0  0
   -2.4771    0.3287    0.5170 O   0  0  0  0  0  0  0  0  0  0  0  0
   -1.6285   -0.7688    0.1197 C   0  0  0  0  0  0  0  0  0  0  0  0
   -2.2362   -1.6619    0.2518 H   0  0  0  0  0  0  0  0  0  0  0  0
   -0.7436   -0.8202    0.7599 H   0  0  0  0  0  0  0  0  0  0  0  0
   -1.3442   -0.6666   -0.9326 H   0  0  0  0  0  0  0  0  0  0  0  0
  1  2  2  0  0  0  0
  1  6  1  0  0  0  0
  2  3  1  0  0  0  0
  3  4  2  0  0  0  0
  4  9  1  0  0  0  0
  5  4  1  0  0  0  0
  5 10  1  0  0  0  0
  6 13  1  0  0  0  0
  6  5  2  0  0  0  0
  7  1  1  0  0  0  0
  8  2  1  0  0  0  0
 12 11  3  0  0  0  0
 14 15  1  0  0  0  0
 14 13  1  0  0  0  0
 14 16  1  0  0  0  0
 17 14  1  0  0  0  0
M  RAD  1   3   2
M  END
