Coordinates from ORCA-job 4-MeO-Ph-N2+-B3LYPG-6-31G_dp-MTMO-d009-169-n900
 OpenBabel09051907383D

 17 16  0  0  0  0  0  0  0  0999 V2000
   -1.6508    0.4786    0.1208 C   0  0  0  0  0  0  0  0  0  0  0  0
   -0.3765    1.0475   -0.1393 C   0  0  0  0  0  0  0  0  0  0  0  0
   -0.5253    2.3708   -0.0131 C   0  0  0  0  0  0  0  0  0  0  0  0
   -1.2866    3.2987    0.5891 C   0  0  0  0  0  0  0  0  0  0  0  0
   -2.5215    2.6663    0.8411 C   0  0  0  0  0  0  0  0  0  0  0  0
   -2.7056    1.2722    0.6301 C   0  0  0  0  0  0  0  0  0  0  0  0
   -1.7717   -0.5760   -0.1009 H   0  0  0  0  0  0  0  0  0  0  0  0
    0.4857    0.4695   -0.4599 H   0  0  0  0  0  0  0  0  0  0  0  0
   -1.1052    4.3585    0.7255 H   0  0  0  0  0  0  0  0  0  0  0  0
   -3.3633    3.2797    1.1510 H   0  0  0  0  0  0  0  0  0  0  0  0
    1.9719   -1.6338   -1.1357 N   0  0  0  0  0  0  0  0  0  0  0  0
    2.6415   -2.4569   -1.4432 N   0  0  0  0  0  0  0  0  0  0  0  0
   -3.9151    0.8166    0.9325 O   0  0  0  0  0  0  0  0  0  0  0  0
   -4.2067   -0.5913    0.8278 C   0  0  0  0  0  0  0  0  0  0  0  0
   -5.2465   -0.6917    1.1325 H   0  0  0  0  0  0  0  0  0  0  0  0
   -3.5638   -1.1675    1.4990 H   0  0  0  0  0  0  0  0  0  0  0  0
   -4.0901   -0.9279   -0.2076 H   0  0  0  0  0  0  0  0  0  0  0  0
  1  6  2  0  0  0  0
  2  3  2  0  0  0  0
  2  1  1  0  0  0  0
  3  4  1  0  0  0  0
  4  9  1  0  0  0  0
  4  5  2  0  0  0  0
  5 10  1  0  0  0  0
  6  5  1  0  0  0  0
  6 13  1  0  0  0  0
  7  1  1  0  0  0  0
  8  2  1  0  0  0  0
 12 11  3  0  0  0  0
 14 13  1  0  0  0  0
 14 15  1  0  0  0  0
 14 16  1  0  0  0  0
 17 14  1  0  0  0  0
M  RAD  1   3   2
M  END
