Coordinates from ORCA-job 4-MeO-Ph-N2+-B3LYPG-6-31G_dp-MTMO-d009-169-n900
 OpenBabel09051907383D

 17 16  0  0  0  0  0  0  0  0999 V2000
   -0.9980    1.3766   -0.0075 C   0  0  0  0  0  0  0  0  0  0  0  0
   -0.2757    2.5925   -0.0683 C   0  0  0  0  0  0  0  0  0  0  0  0
   -1.1360    3.5773    0.2288 C   0  0  0  0  0  0  0  0  0  0  0  0
   -2.2681    3.8035    0.9163 C   0  0  0  0  0  0  0  0  0  0  0  0
   -2.9306    2.5599    0.9635 C   0  0  0  0  0  0  0  0  0  0  0  0
   -2.3085    1.3554    0.5292 C   0  0  0  0  0  0  0  0  0  0  0  0
   -0.5123    0.4853   -0.3881 H   0  0  0  0  0  0  0  0  0  0  0  0
    0.7582    2.6723   -0.3849 H   0  0  0  0  0  0  0  0  0  0  0  0
   -2.7163    4.7423    1.2196 H   0  0  0  0  0  0  0  0  0  0  0  0
   -3.9705    2.5405    1.2784 H   0  0  0  0  0  0  0  0  0  0  0  0
   -1.2079   -3.9143   -0.4275 N   0  0  0  0  0  0  0  0  0  0  0  0
   -0.8940   -4.9575   -0.6122 N   0  0  0  0  0  0  0  0  0  0  0  0
   -3.0518    0.2665    0.6606 O   0  0  0  0  0  0  0  0  0  0  0  0
   -2.5119   -1.0288    0.3193 C   0  0  0  0  0  0  0  0  0  0  0  0
   -3.3158   -1.7350    0.5151 H   0  0  0  0  0  0  0  0  0  0  0  0
   -1.6489   -1.2624    0.9475 H   0  0  0  0  0  0  0  0  0  0  0  0
   -2.2412   -1.0607   -0.7402 H   0  0  0  0  0  0  0  0  0  0  0  0
  1  6  1  0  0  0  0
  2  1  2  0  0  0  0
  2  3  1  0  0  0  0
  3  4  2  0  0  0  0
  4  5  1  0  0  0  0
  4  9  1  0  0  0  0
  5 10  1  0  0  0  0
  6 13  1  0  0  0  0
  6  5  2  0  0  0  0
  7  1  1  0  0  0  0
  8  2  1  0  0  0  0
 12 11  3  0  0  0  0
 14 15  1  0  0  0  0
 14 13  1  0  0  0  0
 14 16  1  0  0  0  0
 17 14  1  0  0  0  0
M  RAD  1   3   2
M  END
