Coordinates from ORCA-job 4-MeO-Ph-N2+-B3LYPG-6-31G_dp-MTMO-d009-169-n900
 OpenBabel09051907383D

 17 16  0  0  0  0  0  0  0  0999 V2000
   -0.7198    2.1921    0.0016 C   0  0  0  0  0  0  0  0  0  0  0  0
   -0.3164    3.5493    0.0062 C   0  0  0  0  0  0  0  0  0  0  0  0
   -1.3950    4.2797    0.3223 C   0  0  0  0  0  0  0  0  0  0  0  0
   -2.5599    4.1955    0.9853 C   0  0  0  0  0  0  0  0  0  0  0  0
   -2.8974    2.8260    0.9672 C   0  0  0  0  0  0  0  0  0  0  0  0
   -1.9933    1.8296    0.5028 C   0  0  0  0  0  0  0  0  0  0  0  0
   -0.0224    1.4637   -0.3960 H   0  0  0  0  0  0  0  0  0  0  0  0
    0.6721    3.8928   -0.2772 H   0  0  0  0  0  0  0  0  0  0  0  0
   -3.2308    4.9821    1.3099 H   0  0  0  0  0  0  0  0  0  0  0  0
   -3.9063    2.5406    1.2532 H   0  0  0  0  0  0  0  0  0  0  0  0
   -3.1272   -8.1572   -0.3550 N   0  0  0  0  0  0  0  0  0  0  0  0
   -3.3813   -9.2306   -0.4242 N   0  0  0  0  0  0  0  0  0  0  0  0
   -2.4520    0.5874    0.5726 O   0  0  0  0  0  0  0  0  0  0  0  0
   -1.6134   -0.5218    0.1877 C   0  0  0  0  0  0  0  0  0  0  0  0
   -2.2263   -1.4082    0.3386 H   0  0  0  0  0  0  0  0  0  0  0  0
   -0.7246   -0.5689    0.8227 H   0  0  0  0  0  0  0  0  0  0  0  0
   -1.3355   -0.4389   -0.8681 H   0  0  0  0  0  0  0  0  0  0  0  0
  1  2  2  0  0  0  0
  1  6  1  0  0  0  0
  2  3  1  0  0  0  0
  3  4  2  0  0  0  0
  4  9  1  0  0  0  0
  5  4  1  0  0  0  0
  5 10  1  0  0  0  0
  6 13  1  0  0  0  0
  6  5  2  0  0  0  0
  7  1  1  0  0  0  0
  8  2  1  0  0  0  0
 12 11  3  0  0  0  0
 14 15  1  0  0  0  0
 14 13  1  0  0  0  0
 14 16  1  0  0  0  0
 17 14  1  0  0  0  0
M  RAD  1   3   2
M  END
