Coordinates from ORCA-job 4-MeO-Ph-N2+-B3LYPG-6-31G_dp-MTMO-d009-169-n900
 OpenBabel09051907383D

 17 16  0  0  0  0  0  0  0  0999 V2000
   -1.1303    1.1328    0.0185 C   0  0  0  0  0  0  0  0  0  0  0  0
   -0.2478    2.2336   -0.0938 C   0  0  0  0  0  0  0  0  0  0  0  0
   -0.9578    3.3422    0.1652 C   0  0  0  0  0  0  0  0  0  0  0  0
   -2.0394    3.7530    0.8479 C   0  0  0  0  0  0  0  0  0  0  0  0
   -2.8677    2.6159    0.9469 C   0  0  0  0  0  0  0  0  0  0  0  0
   -2.4254    1.3192    0.5599 C   0  0  0  0  0  0  0  0  0  0  0  0
   -0.7751    0.1655   -0.3200 H   0  0  0  0  0  0  0  0  0  0  0  0
    0.7859    2.1561   -0.4113 H   0  0  0  0  0  0  0  0  0  0  0  0
   -2.3527    4.7563    1.1107 H   0  0  0  0  0  0  0  0  0  0  0  0
   -3.8986    2.7557    1.2613 H   0  0  0  0  0  0  0  0  0  0  0  0
   -0.3921   -3.2548   -0.6096 N   0  0  0  0  0  0  0  0  0  0  0  0
    0.0714   -4.2341   -0.8272 N   0  0  0  0  0  0  0  0  0  0  0  0
   -3.3148    0.3530    0.7379 O   0  0  0  0  0  0  0  0  0  0  0  0
   -2.9683   -1.0166    0.4414 C   0  0  0  0  0  0  0  0  0  0  0  0
   -3.8633   -1.5922    0.6693 H   0  0  0  0  0  0  0  0  0  0  0  0
   -2.1380   -1.3475    1.0702 H   0  0  0  0  0  0  0  0  0  0  0  0
   -2.7154   -1.1245   -0.6177 H   0  0  0  0  0  0  0  0  0  0  0  0
  1  6  1  0  0  0  0
  2  1  2  0  0  0  0
  2  3  1  0  0  0  0
  3  4  2  0  0  0  0
  4  5  1  0  0  0  0
  4  9  1  0  0  0  0
  5 10  1  0  0  0  0
  6 13  1  0  0  0  0
  6  5  2  0  0  0  0
  7  1  1  0  0  0  0
  8  2  1  0  0  0  0
 12 11  3  0  0  0  0
 14 15  1  0  0  0  0
 14 13  1  0  0  0  0
 14 16  1  0  0  0  0
 17 14  1  0  0  0  0
M  RAD  1   3   2
M  END
