Coordinates from ORCA-job 4-MeO-Ph-N2+-B3LYPG-6-31G_dp-MTMO-d009-169-n900
 OpenBabel09051907383D

 17 16  0  0  0  0  0  0  0  0999 V2000
   -0.7225    2.1734    0.0005 C   0  0  0  0  0  0  0  0  0  0  0  0
   -0.3185    3.5305    0.0066 C   0  0  0  0  0  0  0  0  0  0  0  0
   -1.3968    4.2611    0.3229 C   0  0  0  0  0  0  0  0  0  0  0  0
   -2.5620    4.1768    0.9853 C   0  0  0  0  0  0  0  0  0  0  0  0
   -2.9002    2.8075    0.9658 C   0  0  0  0  0  0  0  0  0  0  0  0
   -1.9964    1.8111    0.5009 C   0  0  0  0  0  0  0  0  0  0  0  0
   -0.0253    1.4451   -0.3975 H   0  0  0  0  0  0  0  0  0  0  0  0
    0.6703    3.8738   -0.2762 H   0  0  0  0  0  0  0  0  0  0  0  0
   -3.2327    4.9635    1.3105 H   0  0  0  0  0  0  0  0  0  0  0  0
   -3.9093    2.5224    1.2511 H   0  0  0  0  0  0  0  0  0  0  0  0
   -3.1054   -8.0178   -0.3425 N   0  0  0  0  0  0  0  0  0  0  0  0
   -3.3582   -9.0915   -0.4115 N   0  0  0  0  0  0  0  0  0  0  0  0
   -2.4558    0.5691    0.5694 O   0  0  0  0  0  0  0  0  0  0  0  0
   -1.6175   -0.5402    0.1837 C   0  0  0  0  0  0  0  0  0  0  0  0
   -2.2309   -1.4265    0.3336 H   0  0  0  0  0  0  0  0  0  0  0  0
   -0.7289   -0.5883    0.8190 H   0  0  0  0  0  0  0  0  0  0  0  0
   -1.3393   -0.4565   -0.8718 H   0  0  0  0  0  0  0  0  0  0  0  0
  1  2  2  0  0  0  0
  1  6  1  0  0  0  0
  2  3  1  0  0  0  0
  3  4  2  0  0  0  0
  4  9  1  0  0  0  0
  5  4  1  0  0  0  0
  5 10  1  0  0  0  0
  6 13  1  0  0  0  0
  6  5  2  0  0  0  0
  7  1  1  0  0  0  0
  8  2  1  0  0  0  0
 12 11  3  0  0  0  0
 14 15  1  0  0  0  0
 14 13  1  0  0  0  0
 14 16  1  0  0  0  0
 17 14  1  0  0  0  0
M  RAD  1   3   2
M  END
