Coordinates from ORCA-job 4-MeO-Ph-N2+-B3LYPG-6-31G_dp-MTMO-d009-169-n900
 OpenBabel09051907383D

 17 16  0  0  0  0  0  0  0  0999 V2000
   -0.7143    2.2296    0.0038 C   0  0  0  0  0  0  0  0  0  0  0  0
   -0.3124    3.5873    0.0057 C   0  0  0  0  0  0  0  0  0  0  0  0
   -1.3916    4.3170    0.3214 C   0  0  0  0  0  0  0  0  0  0  0  0
   -2.5559    4.2326    0.9853 C   0  0  0  0  0  0  0  0  0  0  0  0
   -2.8918    2.8628    0.9699 C   0  0  0  0  0  0  0  0  0  0  0  0
   -1.9870    1.8665    0.5066 C   0  0  0  0  0  0  0  0  0  0  0  0
   -0.0163    1.5013   -0.3930 H   0  0  0  0  0  0  0  0  0  0  0  0
    0.6755    3.9314   -0.2790 H   0  0  0  0  0  0  0  0  0  0  0  0
   -3.2275    5.0191    1.3090 H   0  0  0  0  0  0  0  0  0  0  0  0
   -3.9002    2.5767    1.2571 H   0  0  0  0  0  0  0  0  0  0  0  0
   -3.1714   -8.4359   -0.3793 N   0  0  0  0  0  0  0  0  0  0  0  0
   -3.4282   -9.5086   -0.4492 N   0  0  0  0  0  0  0  0  0  0  0  0
   -2.4443    0.6240    0.5790 O   0  0  0  0  0  0  0  0  0  0  0  0
   -1.6047   -0.4849    0.1953 C   0  0  0  0  0  0  0  0  0  0  0  0
   -2.2165   -1.3718    0.3481 H   0  0  0  0  0  0  0  0  0  0  0  0
   -0.7154   -0.5300    0.8298 H   0  0  0  0  0  0  0  0  0  0  0  0
   -1.3276   -0.4035   -0.8608 H   0  0  0  0  0  0  0  0  0  0  0  0
  1  2  2  0  0  0  0
  1  6  1  0  0  0  0
  2  3  1  0  0  0  0
  3  4  2  0  0  0  0
  4  9  1  0  0  0  0
  5  4  1  0  0  0  0
  5 10  1  0  0  0  0
  6 13  1  0  0  0  0
  6  5  2  0  0  0  0
  7  1  1  0  0  0  0
  8  2  1  0  0  0  0
 12 11  3  0  0  0  0
 14 15  1  0  0  0  0
 14 13  1  0  0  0  0
 14 16  1  0  0  0  0
 17 14  1  0  0  0  0
M  RAD  1   3   2
M  END
