Coordinates from ORCA-job 4-MeO-Ph-N2+-B3LYPG-6-31G_dp-MTMO-d009-169-n900
 OpenBabel09051907383D

 17 16  0  0  0  0  0  0  0  0999 V2000
   -0.7584    1.8598   -0.0173 C   0  0  0  0  0  0  0  0  0  0  0  0
   -0.3839    3.2237    0.0451 C   0  0  0  0  0  0  0  0  0  0  0  0
   -1.4824    3.9221    0.3672 C   0  0  0  0  0  0  0  0  0  0  0  0
   -2.6552    3.7878    1.0084 C   0  0  0  0  0  0  0  0  0  0  0  0
   -2.9641    2.4137    0.9335 C   0  0  0  0  0  0  0  0  0  0  0  0
   -2.0323    1.4528    0.4484 C   0  0  0  0  0  0  0  0  0  0  0  0
   -0.0394    1.1610   -0.4293 H   0  0  0  0  0  0  0  0  0  0  0  0
    0.6022    3.5970   -0.2075 H   0  0  0  0  0  0  0  0  0  0  0  0
   -3.3481    4.5477    1.3502 H   0  0  0  0  0  0  0  0  0  0  0  0
   -3.9716    2.0978    1.1908 H   0  0  0  0  0  0  0  0  0  0  0  0
   -2.8235   -5.4156   -0.0524 N   0  0  0  0  0  0  0  0  0  0  0  0
   -3.0841   -6.4891   -0.0860 N   0  0  0  0  0  0  0  0  0  0  0  0
   -2.4663    0.2002    0.4657 O   0  0  0  0  0  0  0  0  0  0  0  0
   -1.5997   -0.8790    0.0558 C   0  0  0  0  0  0  0  0  0  0  0  0
   -2.1947   -1.7837    0.1673 H   0  0  0  0  0  0  0  0  0  0  0  0
   -0.7189   -0.9289    0.7018 H   0  0  0  0  0  0  0  0  0  0  0  0
   -1.3089   -0.7538   -0.9922 H   0  0  0  0  0  0  0  0  0  0  0  0
  1  2  2  0  0  0  0
  1  6  1  0  0  0  0
  2  3  1  0  0  0  0
  3  4  2  0  0  0  0
  4  9  1  0  0  0  0
  5  4  1  0  0  0  0
  5 10  1  0  0  0  0
  6 13  1  0  0  0  0
  6  5  2  0  0  0  0
  7  1  1  0  0  0  0
  8  2  1  0  0  0  0
 12 11  3  0  0  0  0
 14 15  1  0  0  0  0
 14 13  1  0  0  0  0
 14 16  1  0  0  0  0
 17 14  1  0  0  0  0
M  RAD  1   3   2
M  END
