Coordinates from ORCA-job 4-MeO-Ph-N2+-B3LYPG-6-31G_dp-MTMO-d009-169-n900
 OpenBabel09051907383D

 17 17  0  0  0  0  0  0  0  0999 V2000
   -1.9929   -0.2123    0.1667 C   0  0  0  0  0  0  0  0  0  0  0  0
   -0.6619   -0.2808   -0.2517 C   0  0  0  0  0  0  0  0  0  0  0  0
   -0.0191    0.9309   -0.2209 C   0  0  0  0  0  0  0  0  0  0  0  0
   -0.4493    2.1877    0.1462 C   0  0  0  0  0  0  0  0  0  0  0  0
   -1.7764    2.2051    0.5543 C   0  0  0  0  0  0  0  0  0  0  0  0
   -2.5556    1.0205    0.5696 C   0  0  0  0  0  0  0  0  0  0  0  0
   -2.5759   -1.1247    0.1720 H   0  0  0  0  0  0  0  0  0  0  0  0
   -0.2013   -1.2084   -0.5666 H   0  0  0  0  0  0  0  0  0  0  0  0
    0.1669    3.0775    0.1251 H   0  0  0  0  0  0  0  0  0  0  0  0
   -2.2365    3.1350    0.8695 H   0  0  0  0  0  0  0  0  0  0  0  0
    1.6714    0.8656   -0.7485 N   0  0  0  0  0  0  0  0  0  0  0  0
    2.7267    0.8291   -1.0775 N   0  0  0  0  0  0  0  0  0  0  0  0
   -3.8108    1.1779    0.9804 O   0  0  0  0  0  0  0  0  0  0  0  0
   -4.7013    0.0496    1.0406 C   0  0  0  0  0  0  0  0  0  0  0  0
   -5.6484    0.4503    1.3966 H   0  0  0  0  0  0  0  0  0  0  0  0
   -4.3290   -0.6998    1.7463 H   0  0  0  0  0  0  0  0  0  0  0  0
   -4.8361   -0.3898    0.0475 H   0  0  0  0  0  0  0  0  0  0  0  0
  1  7  1  0  0  0  0
  1  6  2  0  0  0  0
  2  3  2  0  0  0  0
  2  1  1  0  0  0  0
  3  4  1  0  0  0  0
  4  5  2  0  0  0  0
  5  6  1  0  0  0  0
  5 10  1  0  0  0  0
  6 13  1  0  0  0  0
  8  2  1  0  0  0  0
  9  4  1  0  0  0  0
 11  3  1  0  0  0  0
 12 11  1  0  0  0  0
 13 14  1  0  0  0  0
 14 15  1  0  0  0  0
 14 16  1  0  0  0  0
 17 14  1  0  0  0  0
M  RAD  2  11   2  12   3
M  END
