Coordinates from ORCA-job 4-MeO-Ph-N2+-B3LYPG-6-31G_dp-MTMO-d009-169-n900
 OpenBabel09051907383D

 17 17  0  0  0  0  0  0  0  0999 V2000
   -1.9896   -0.2130    0.1657 C   0  0  0  0  0  0  0  0  0  0  0  0
   -0.6602   -0.2798   -0.2520 C   0  0  0  0  0  0  0  0  0  0  0  0
   -0.0075    0.9304   -0.2246 C   0  0  0  0  0  0  0  0  0  0  0  0
   -0.4477    2.1864    0.1455 C   0  0  0  0  0  0  0  0  0  0  0  0
   -1.7731    2.2052    0.5534 C   0  0  0  0  0  0  0  0  0  0  0  0
   -2.5525    1.0203    0.5687 C   0  0  0  0  0  0  0  0  0  0  0  0
   -2.5736   -1.1247    0.1715 H   0  0  0  0  0  0  0  0  0  0  0  0
   -0.2006   -1.2082   -0.5667 H   0  0  0  0  0  0  0  0  0  0  0  0
    0.1677    3.0769    0.1247 H   0  0  0  0  0  0  0  0  0  0  0  0
   -2.2343    3.1344    0.8688 H   0  0  0  0  0  0  0  0  0  0  0  0
    1.6490    0.8661   -0.7417 N   0  0  0  0  0  0  0  0  0  0  0  0
    2.7050    0.8296   -1.0709 N   0  0  0  0  0  0  0  0  0  0  0  0
   -3.8070    1.1774    0.9793 O   0  0  0  0  0  0  0  0  0  0  0  0
   -4.6988    0.0497    1.0398 C   0  0  0  0  0  0  0  0  0  0  0  0
   -5.6453    0.4518    1.3957 H   0  0  0  0  0  0  0  0  0  0  0  0
   -4.3270   -0.6995    1.7457 H   0  0  0  0  0  0  0  0  0  0  0  0
   -4.8339   -0.3896    0.0469 H   0  0  0  0  0  0  0  0  0  0  0  0
  1  7  1  0  0  0  0
  1  6  2  0  0  0  0
  2  3  2  0  0  0  0
  2  1  1  0  0  0  0
  3  4  1  0  0  0  0
  4  5  2  0  0  0  0
  5  6  1  0  0  0  0
  5 10  1  0  0  0  0
  6 13  1  0  0  0  0
  8  2  1  0  0  0  0
  9  4  1  0  0  0  0
 11  3  1  0  0  0  0
 12 11  1  0  0  0  0
 13 14  1  0  0  0  0
 14 15  1  0  0  0  0
 14 16  1  0  0  0  0
 17 14  1  0  0  0  0
M  RAD  2  11   2  12   3
M  END
