Coordinates from ORCA-job 4-MeO-Ph-N2+-B3LYPG-6-31G_dp-MTMO-d009-169-n900
 OpenBabel09051907383D

 17 16  0  0  0  0  0  0  0  0999 V2000
   -1.6429    0.6027    0.1135 C   0  0  0  0  0  0  0  0  0  0  0  0
   -0.4054    1.2474   -0.1359 C   0  0  0  0  0  0  0  0  0  0  0  0
   -0.6198    2.5609    0.0156 C   0  0  0  0  0  0  0  0  0  0  0  0
   -1.4229    3.4293    0.6521 C   0  0  0  0  0  0  0  0  0  0  0  0
   -2.6212    2.7258    0.8917 C   0  0  0  0  0  0  0  0  0  0  0  0
   -2.7345    1.3291    0.6471 C   0  0  0  0  0  0  0  0  0  0  0  0
   -1.7097   -0.4516   -0.1308 H   0  0  0  0  0  0  0  0  0  0  0  0
    0.4890    0.7314   -0.4688 H   0  0  0  0  0  0  0  0  0  0  0  0
   -1.2999    4.4941    0.8128 H   0  0  0  0  0  0  0  0  0  0  0  0
   -3.4941    3.2868    1.2150 H   0  0  0  0  0  0  0  0  0  0  0  0
    2.1412   -2.2070   -1.2444 N   0  0  0  0  0  0  0  0  0  0  0  0
    2.7828   -3.0634   -1.5203 N   0  0  0  0  0  0  0  0  0  0  0  0
   -3.9165    0.8054    0.9436 O   0  0  0  0  0  0  0  0  0  0  0  0
   -4.1368   -0.6135    0.8097 C   0  0  0  0  0  0  0  0  0  0  0  0
   -5.1688   -0.7727    1.1155 H   0  0  0  0  0  0  0  0  0  0  0  0
   -3.4623   -1.1698    1.4664 H   0  0  0  0  0  0  0  0  0  0  0  0
   -4.0076   -0.9213   -0.2331 H   0  0  0  0  0  0  0  0  0  0  0  0
  1  6  2  0  0  0  0
  2  3  2  0  0  0  0
  2  1  1  0  0  0  0
  3  4  1  0  0  0  0
  4  9  1  0  0  0  0
  4  5  2  0  0  0  0
  5 10  1  0  0  0  0
  6  5  1  0  0  0  0
  6 13  1  0  0  0  0
  7  1  1  0  0  0  0
  8  2  1  0  0  0  0
 12 11  3  0  0  0  0
 14 13  1  0  0  0  0
 14 15  1  0  0  0  0
 14 16  1  0  0  0  0
 17 14  1  0  0  0  0
M  RAD  1   3   2
M  END
