Coordinates from ORCA-job 4-MeO-Ph-N2+-B3LYPG-6-31G_dp-MTMO-d009-169-n900
 OpenBabel09051907383D

 17 16  0  0  0  0  0  0  0  0999 V2000
   -0.7130    2.2379    0.0043 C   0  0  0  0  0  0  0  0  0  0  0  0
   -0.3115    3.5957    0.0057 C   0  0  0  0  0  0  0  0  0  0  0  0
   -1.3909    4.3253    0.3212 C   0  0  0  0  0  0  0  0  0  0  0  0
   -2.5550    4.2408    0.9853 C   0  0  0  0  0  0  0  0  0  0  0  0
   -2.8906    2.8709    0.9705 C   0  0  0  0  0  0  0  0  0  0  0  0
   -1.9856    1.8747    0.5075 C   0  0  0  0  0  0  0  0  0  0  0  0
   -0.0149    1.5097   -0.3923 H   0  0  0  0  0  0  0  0  0  0  0  0
    0.6762    3.9401   -0.2794 H   0  0  0  0  0  0  0  0  0  0  0  0
   -3.2268    5.0272    1.3089 H   0  0  0  0  0  0  0  0  0  0  0  0
   -3.8989    2.5847    1.2579 H   0  0  0  0  0  0  0  0  0  0  0  0
   -3.1813   -8.4978   -0.3847 N   0  0  0  0  0  0  0  0  0  0  0  0
   -3.4388   -9.5704   -0.4547 N   0  0  0  0  0  0  0  0  0  0  0  0
   -2.4425    0.6321    0.5803 O   0  0  0  0  0  0  0  0  0  0  0  0
   -1.6026   -0.4767    0.1969 C   0  0  0  0  0  0  0  0  0  0  0  0
   -2.2143   -1.3637    0.3501 H   0  0  0  0  0  0  0  0  0  0  0  0
   -0.7132   -0.5214    0.8313 H   0  0  0  0  0  0  0  0  0  0  0  0
   -1.3257   -0.3956   -0.8592 H   0  0  0  0  0  0  0  0  0  0  0  0
  1  2  2  0  0  0  0
  1  6  1  0  0  0  0
  2  3  1  0  0  0  0
  3  4  2  0  0  0  0
  4  9  1  0  0  0  0
  5  4  1  0  0  0  0
  5 10  1  0  0  0  0
  6 13  1  0  0  0  0
  6  5  2  0  0  0  0
  7  1  1  0  0  0  0
  8  2  1  0  0  0  0
 12 11  3  0  0  0  0
 14 15  1  0  0  0  0
 14 13  1  0  0  0  0
 14 16  1  0  0  0  0
 17 14  1  0  0  0  0
M  RAD  1   3   2
M  END
