Coordinates from ORCA-job 4-MeO-Ph-N2+-B3LYPG-6-31G_dp-MTMO-d009-169-n900
 OpenBabel09051907383D

 17 16  0  0  0  0  0  0  0  0999 V2000
   -0.7228    2.1714    0.0004 C   0  0  0  0  0  0  0  0  0  0  0  0
   -0.3187    3.5284    0.0066 C   0  0  0  0  0  0  0  0  0  0  0  0
   -1.3970    4.2590    0.3230 C   0  0  0  0  0  0  0  0  0  0  0  0
   -2.5622    4.1747    0.9853 C   0  0  0  0  0  0  0  0  0  0  0  0
   -2.9005    2.8055    0.9656 C   0  0  0  0  0  0  0  0  0  0  0  0
   -1.9968    1.8090    0.5007 C   0  0  0  0  0  0  0  0  0  0  0  0
   -0.0256    1.4430   -0.3976 H   0  0  0  0  0  0  0  0  0  0  0  0
    0.6701    3.8717   -0.2761 H   0  0  0  0  0  0  0  0  0  0  0  0
   -3.2329    4.9614    1.3105 H   0  0  0  0  0  0  0  0  0  0  0  0
   -3.9097    2.5203    1.2509 H   0  0  0  0  0  0  0  0  0  0  0  0
   -3.1030   -8.0023   -0.3411 N   0  0  0  0  0  0  0  0  0  0  0  0
   -3.3557   -9.0760   -0.4101 N   0  0  0  0  0  0  0  0  0  0  0  0
   -2.4562    0.5670    0.5690 O   0  0  0  0  0  0  0  0  0  0  0  0
   -1.6180   -0.5422    0.1833 C   0  0  0  0  0  0  0  0  0  0  0  0
   -2.2314   -1.4285    0.3331 H   0  0  0  0  0  0  0  0  0  0  0  0
   -0.7294   -0.5904    0.8186 H   0  0  0  0  0  0  0  0  0  0  0  0
   -1.3397   -0.4585   -0.8723 H   0  0  0  0  0  0  0  0  0  0  0  0
  1  2  2  0  0  0  0
  1  6  1  0  0  0  0
  2  3  1  0  0  0  0
  3  4  2  0  0  0  0
  4  9  1  0  0  0  0
  5  4  1  0  0  0  0
  5 10  1  0  0  0  0
  6 13  1  0  0  0  0
  6  5  2  0  0  0  0
  7  1  1  0  0  0  0
  8  2  1  0  0  0  0
 12 11  3  0  0  0  0
 14 15  1  0  0  0  0
 14 13  1  0  0  0  0
 14 16  1  0  0  0  0
 17 14  1  0  0  0  0
M  RAD  1   3   2
M  END
