Coordinates from ORCA-job 4-MeO-Ph-N2+-B3LYPG-6-31G_dp-MTMO-d009-169-n900
 OpenBabel09051907383D

 17 16  0  0  0  0  0  0  0  0999 V2000
   -0.7621    1.8199   -0.0213 C   0  0  0  0  0  0  0  0  0  0  0  0
   -0.4014    3.1872    0.0456 C   0  0  0  0  0  0  0  0  0  0  0  0
   -1.5070    3.8745    0.3681 C   0  0  0  0  0  0  0  0  0  0  0  0
   -2.6786    3.7257    1.0086 C   0  0  0  0  0  0  0  0  0  0  0  0
   -2.9738    2.3488    0.9295 C   0  0  0  0  0  0  0  0  0  0  0  0
   -2.0321    1.3984    0.4424 C   0  0  0  0  0  0  0  0  0  0  0  0
   -0.0360    1.1295   -0.4351 H   0  0  0  0  0  0  0  0  0  0  0  0
    0.5812    3.5708   -0.2052 H   0  0  0  0  0  0  0  0  0  0  0  0
   -3.3796    4.4775    1.3521 H   0  0  0  0  0  0  0  0  0  0  0  0
   -3.9784    2.0222    1.1850 H   0  0  0  0  0  0  0  0  0  0  0  0
   -2.8073   -5.0386   -0.0188 N   0  0  0  0  0  0  0  0  0  0  0  0
   -3.0861   -6.1075   -0.0477 N   0  0  0  0  0  0  0  0  0  0  0  0
   -2.4534    0.1415    0.4565 O   0  0  0  0  0  0  0  0  0  0  0  0
   -1.5753   -0.9285    0.0455 C   0  0  0  0  0  0  0  0  0  0  0  0
   -2.1596   -1.8405    0.1557 H   0  0  0  0  0  0  0  0  0  0  0  0
   -0.6940   -0.9689    0.6913 H   0  0  0  0  0  0  0  0  0  0  0  0
   -1.2859   -0.7986   -1.0024 H   0  0  0  0  0  0  0  0  0  0  0  0
  1  2  2  0  0  0  0
  1  6  1  0  0  0  0
  2  3  1  0  0  0  0
  3  4  2  0  0  0  0
  4  9  1  0  0  0  0
  5  4  1  0  0  0  0
  5 10  1  0  0  0  0
  6 13  1  0  0  0  0
  6  5  2  0  0  0  0
  7  1  1  0  0  0  0
  8  2  1  0  0  0  0
 12 11  3  0  0  0  0
 14 15  1  0  0  0  0
 14 13  1  0  0  0  0
 14 16  1  0  0  0  0
 17 14  1  0  0  0  0
M  RAD  1   3   2
M  END
