Coordinates from ORCA-job 4-MeO-Ph-N2+-B3LYPG-6-31G_dp-MTMO-d009-169-n900
 OpenBabel09051907383D

 17 16  0  0  0  0  0  0  0  0999 V2000
   -2.2075   -0.1885    0.1395 C   0  0  0  0  0  0  0  0  0  0  0  0
   -0.8570   -0.2362   -0.2888 C   0  0  0  0  0  0  0  0  0  0  0  0
   -0.4223    1.0284   -0.3355 C   0  0  0  0  0  0  0  0  0  0  0  0
   -0.6519    2.2442    0.1836 C   0  0  0  0  0  0  0  0  0  0  0  0
   -1.9965    2.2194    0.6099 C   0  0  0  0  0  0  0  0  0  0  0  0
   -2.7663    1.0238    0.6088 C   0  0  0  0  0  0  0  0  0  0  0  0
   -2.7789   -1.1085    0.0825 H   0  0  0  0  0  0  0  0  0  0  0  0
   -0.3413   -1.1421   -0.5852 H   0  0  0  0  0  0  0  0  0  0  0  0
   -0.0391    3.1372    0.1522 H   0  0  0  0  0  0  0  0  0  0  0  0
   -2.4659    3.1596    0.8868 H   0  0  0  0  0  0  0  0  0  0  0  0
    3.1939    0.7638   -1.0427 N   0  0  0  0  0  0  0  0  0  0  0  0
    4.2685    0.7127   -1.2952 N   0  0  0  0  0  0  0  0  0  0  0  0
   -4.0080    1.1599    1.0573 O   0  0  0  0  0  0  0  0  0  0  0  0
   -4.8690    0.0092    1.1687 C   0  0  0  0  0  0  0  0  0  0  0  0
   -5.8104    0.3924    1.5567 H   0  0  0  0  0  0  0  0  0  0  0  0
   -4.4469   -0.7200    1.8665 H   0  0  0  0  0  0  0  0  0  0  0  0
   -5.0308   -0.4421    0.1845 H   0  0  0  0  0  0  0  0  0  0  0  0
  1  6  2  0  0  0  0
  2  1  1  0  0  0  0
  3  2  2  0  0  0  0
  3  4  1  0  0  0  0
  4  5  2  0  0  0  0
  5 10  1  0  0  0  0
  6  5  1  0  0  0  0
  6 13  1  0  0  0  0
  7  1  1  0  0  0  0
  8  2  1  0  0  0  0
  9  4  1  0  0  0  0
 12 11  3  0  0  0  0
 13 14  1  0  0  0  0
 14 15  1  0  0  0  0
 14 16  1  0  0  0  0
 17 14  1  0  0  0  0
M  RAD  1   3   2
M  END
