Coordinates from ORCA-job 4-MeO-Ph-N2+-B3LYPG-6-31G_dp-MTMO-d009-169-n900
 OpenBabel09051907383D

 17 16  0  0  0  0  0  0  0  0999 V2000
   -0.6648    2.5548    0.0248 C   0  0  0  0  0  0  0  0  0  0  0  0
   -0.2797    3.9173    0.0139 C   0  0  0  0  0  0  0  0  0  0  0  0
   -1.3669    4.6363    0.3265 C   0  0  0  0  0  0  0  0  0  0  0  0
   -2.5282    4.5435    0.9945 C   0  0  0  0  0  0  0  0  0  0  0  0
   -2.8472    3.1695    0.9919 C   0  0  0  0  0  0  0  0  0  0  0  0
   -1.9315    2.1805    0.5346 C   0  0  0  0  0  0  0  0  0  0  0  0
    0.0410    1.8317   -0.3677 H   0  0  0  0  0  0  0  0  0  0  0  0
    0.7031    4.2710   -0.2766 H   0  0  0  0  0  0  0  0  0  0  0  0
   -3.2087    5.3243    1.3132 H   0  0  0  0  0  0  0  0  0  0  0  0
   -3.8512    2.8736    1.2844 H   0  0  0  0  0  0  0  0  0  0  0  0
   -3.5495  -10.8212   -0.5661 N   0  0  0  0  0  0  0  0  0  0  0  0
   -3.8533  -11.8808   -0.6475 N   0  0  0  0  0  0  0  0  0  0  0  0
   -2.3732    0.9330    0.6189 O   0  0  0  0  0  0  0  0  0  0  0  0
   -1.5210   -0.1685    0.2421 C   0  0  0  0  0  0  0  0  0  0  0  0
   -2.1215   -1.0616    0.4038 H   0  0  0  0  0  0  0  0  0  0  0  0
   -0.6295   -0.1976    0.8744 H   0  0  0  0  0  0  0  0  0  0  0  0
   -1.2477   -0.0923   -0.8154 H   0  0  0  0  0  0  0  0  0  0  0  0
  1  6  1  0  0  0  0
  2  1  2  0  0  0  0
  2  3  1  0  0  0  0
  3  4  2  0  0  0  0
  4  9  1  0  0  0  0
  5  4  1  0  0  0  0
  5 10  1  0  0  0  0
  6 13  1  0  0  0  0
  6  5  2  0  0  0  0
  7  1  1  0  0  0  0
  8  2  1  0  0  0  0
 12 11  3  0  0  0  0
 14 15  1  0  0  0  0
 14 13  1  0  0  0  0
 14 16  1  0  0  0  0
 17 14  1  0  0  0  0
M  RAD  1   3   2
M  END
