Coordinates from ORCA-job 4-MeO-Ph-N2+-B3LYPG-6-31G_dp-MTMO-d009-169-n900
 OpenBabel09051907383D

 17 16  0  0  0  0  0  0  0  0999 V2000
   -1.6420    0.6244    0.1132 C   0  0  0  0  0  0  0  0  0  0  0  0
   -0.4111    1.2820   -0.1340 C   0  0  0  0  0  0  0  0  0  0  0  0
   -0.6370    2.5932    0.0219 C   0  0  0  0  0  0  0  0  0  0  0  0
   -1.4473    3.4516    0.6628 C   0  0  0  0  0  0  0  0  0  0  0  0
   -2.6389    2.7359    0.9000 C   0  0  0  0  0  0  0  0  0  0  0  0
   -2.7397    1.3390    0.6501 C   0  0  0  0  0  0  0  0  0  0  0  0
   -1.6992   -0.4297   -0.1343 H   0  0  0  0  0  0  0  0  0  0  0  0
    0.4888    0.7769   -0.4681 H   0  0  0  0  0  0  0  0  0  0  0  0
   -1.3347    4.5170    0.8270 H   0  0  0  0  0  0  0  0  0  0  0  0
   -3.5171    3.2877    1.2248 H   0  0  0  0  0  0  0  0  0  0  0  0
    2.1728   -2.3084   -1.2641 N   0  0  0  0  0  0  0  0  0  0  0  0
    2.8103   -3.1686   -1.5374 N   0  0  0  0  0  0  0  0  0  0  0  0
   -3.9168    0.8038    0.9453 O   0  0  0  0  0  0  0  0  0  0  0  0
   -4.1246   -0.6166    0.8066 C   0  0  0  0  0  0  0  0  0  0  0  0
   -5.1550   -0.7859    1.1123 H   0  0  0  0  0  0  0  0  0  0  0  0
   -3.4449   -1.1691    1.4610 H   0  0  0  0  0  0  0  0  0  0  0  0
   -3.9931   -0.9196   -0.2373 H   0  0  0  0  0  0  0  0  0  0  0  0
  1  6  2  0  0  0  0
  2  3  2  0  0  0  0
  2  1  1  0  0  0  0
  3  4  1  0  0  0  0
  4  9  1  0  0  0  0
  4  5  2  0  0  0  0
  5 10  1  0  0  0  0
  6  5  1  0  0  0  0
  6 13  1  0  0  0  0
  7  1  1  0  0  0  0
  8  2  1  0  0  0  0
 12 11  3  0  0  0  0
 14 13  1  0  0  0  0
 14 15  1  0  0  0  0
 14 16  1  0  0  0  0
 17 14  1  0  0  0  0
M  RAD  1   3   2
M  END
