Coordinates from ORCA-job 4-MeO-Ph-N2+-B3LYPG-6-31G_dp-MTMO-d009-169-n900
 OpenBabel09051907383D

 17 16  0  0  0  0  0  0  0  0999 V2000
   -0.7626    1.8077   -0.0225 C   0  0  0  0  0  0  0  0  0  0  0  0
   -0.4083    3.1766    0.0469 C   0  0  0  0  0  0  0  0  0  0  0  0
   -1.5173    3.8583    0.3695 C   0  0  0  0  0  0  0  0  0  0  0  0
   -2.6885    3.7029    1.0095 C   0  0  0  0  0  0  0  0  0  0  0  0
   -2.9773    2.3249    0.9280 C   0  0  0  0  0  0  0  0  0  0  0  0
   -2.0309    1.3796    0.4399 C   0  0  0  0  0  0  0  0  0  0  0  0
   -0.0331    1.1214   -0.4372 H   0  0  0  0  0  0  0  0  0  0  0  0
    0.5727    3.5651   -0.2027 H   0  0  0  0  0  0  0  0  0  0  0  0
   -3.3930    4.4509    1.3538 H   0  0  0  0  0  0  0  0  0  0  0  0
   -3.9805    1.9932    1.1822 H   0  0  0  0  0  0  0  0  0  0  0  0
   -2.8071   -4.9128   -0.0043 N   0  0  0  0  0  0  0  0  0  0  0  0
   -3.0968   -5.9789   -0.0293 N   0  0  0  0  0  0  0  0  0  0  0  0
   -2.4463    0.1208    0.4516 O   0  0  0  0  0  0  0  0  0  0  0  0
   -1.5629   -0.9445    0.0393 C   0  0  0  0  0  0  0  0  0  0  0  0
   -2.1426   -1.8595    0.1475 H   0  0  0  0  0  0  0  0  0  0  0  0
   -0.6817   -0.9815    0.6856 H   0  0  0  0  0  0  0  0  0  0  0  0
   -1.2734   -0.8111   -1.0081 H   0  0  0  0  0  0  0  0  0  0  0  0
  1  2  2  0  0  0  0
  1  6  1  0  0  0  0
  2  3  1  0  0  0  0
  3  4  2  0  0  0  0
  4  9  1  0  0  0  0
  5  4  1  0  0  0  0
  5 10  1  0  0  0  0
  6 13  1  0  0  0  0
  6  5  2  0  0  0  0
  7  1  1  0  0  0  0
  8  2  1  0  0  0  0
 12 11  3  0  0  0  0
 14 15  1  0  0  0  0
 14 13  1  0  0  0  0
 14 16  1  0  0  0  0
 17 14  1  0  0  0  0
M  RAD  1   3   2
M  END
