Coordinates from ORCA-job 4-MeO-Ph-N2+-B3LYPG-6-31G_dp-MTMO-d009-169-n900
 OpenBabel09051907383D

 17 17  0  0  0  0  0  0  0  0999 V2000
   -1.9798   -0.2151    0.1626 C   0  0  0  0  0  0  0  0  0  0  0  0
   -0.6554   -0.2770   -0.2529 C   0  0  0  0  0  0  0  0  0  0  0  0
    0.0278    0.9288   -0.2357 C   0  0  0  0  0  0  0  0  0  0  0  0
   -0.4433    2.1824    0.1434 C   0  0  0  0  0  0  0  0  0  0  0  0
   -1.7635    2.2057    0.5508 C   0  0  0  0  0  0  0  0  0  0  0  0
   -2.5433    1.0195    0.5660 C   0  0  0  0  0  0  0  0  0  0  0  0
   -2.5660   -1.1252    0.1696 H   0  0  0  0  0  0  0  0  0  0  0  0
   -0.1986   -1.2075   -0.5671 H   0  0  0  0  0  0  0  0  0  0  0  0
    0.1699    3.0750    0.1237 H   0  0  0  0  0  0  0  0  0  0  0  0
   -2.2274    3.1330    0.8667 H   0  0  0  0  0  0  0  0  0  0  0  0
    1.5823    0.8679   -0.7214 N   0  0  0  0  0  0  0  0  0  0  0  0
    2.6409    0.8312   -1.0516 N   0  0  0  0  0  0  0  0  0  0  0  0
   -3.7956    1.1758    0.9758 O   0  0  0  0  0  0  0  0  0  0  0  0
   -4.6919    0.0501    1.0375 C   0  0  0  0  0  0  0  0  0  0  0  0
   -5.6366    0.4565    1.3931 H   0  0  0  0  0  0  0  0  0  0  0  0
   -4.3216   -0.6988    1.7443 H   0  0  0  0  0  0  0  0  0  0  0  0
   -4.8275   -0.3890    0.0449 H   0  0  0  0  0  0  0  0  0  0  0  0
  1  7  1  0  0  0  0
  1  6  2  0  0  0  0
  2  3  2  0  0  0  0
  2  1  1  0  0  0  0
  3  4  1  0  0  0  0
  4  5  2  0  0  0  0
  5  6  1  0  0  0  0
  5 10  1  0  0  0  0
  6 13  1  0  0  0  0
  8  2  1  0  0  0  0
  9  4  1  0  0  0  0
 11  3  1  0  0  0  0
 12 11  1  0  0  0  0
 13 14  1  0  0  0  0
 14 15  1  0  0  0  0
 14 16  1  0  0  0  0
 17 14  1  0  0  0  0
M  RAD  2  11   2  12   3
M  END
