Coordinates from ORCA-job 4-MeO-Ph-N2+-B3LYPG-6-31G_dp-MTMO-d009-169-n900
 OpenBabel09051907383D

 17 16  0  0  0  0  0  0  0  0999 V2000
   -0.6510    2.6437    0.0310 C   0  0  0  0  0  0  0  0  0  0  0  0
   -0.2702    4.0074    0.0185 C   0  0  0  0  0  0  0  0  0  0  0  0
   -1.3595    4.7234    0.3306 C   0  0  0  0  0  0  0  0  0  0  0  0
   -2.5205    4.6276    0.9988 C   0  0  0  0  0  0  0  0  0  0  0  0
   -2.8352    3.2527    0.9977 C   0  0  0  0  0  0  0  0  0  0  0  0
   -1.9165    2.2660    0.5413 C   0  0  0  0  0  0  0  0  0  0  0  0
    0.0569    1.9224   -0.3609 H   0  0  0  0  0  0  0  0  0  0  0  0
    0.7115    4.3640   -0.2726 H   0  0  0  0  0  0  0  0  0  0  0  0
   -3.2033    5.4068    1.3168 H   0  0  0  0  0  0  0  0  0  0  0  0
   -3.8382    2.9539    1.2908 H   0  0  0  0  0  0  0  0  0  0  0  0
   -3.6526  -11.4716   -0.6152 N   0  0  0  0  0  0  0  0  0  0  0  0
   -3.9685  -12.5276   -0.6976 N   0  0  0  0  0  0  0  0  0  0  0  0
   -2.3543    1.0173    0.6272 O   0  0  0  0  0  0  0  0  0  0  0  0
   -1.4987   -0.0820    0.2515 C   0  0  0  0  0  0  0  0  0  0  0  0
   -2.0965   -0.9767    0.4144 H   0  0  0  0  0  0  0  0  0  0  0  0
   -0.6070   -0.1076    0.8836 H   0  0  0  0  0  0  0  0  0  0  0  0
   -1.2259   -0.0063   -0.8062 H   0  0  0  0  0  0  0  0  0  0  0  0
  1  6  1  0  0  0  0
  2  1  2  0  0  0  0
  2  3  1  0  0  0  0
  3  4  2  0  0  0  0
  4  9  1  0  0  0  0
  5  4  1  0  0  0  0
  5 10  1  0  0  0  0
  6 13  1  0  0  0  0
  6  5  2  0  0  0  0
  7  1  1  0  0  0  0
  8  2  1  0  0  0  0
 12 11  3  0  0  0  0
 14 15  1  0  0  0  0
 14 13  1  0  0  0  0
 14 16  1  0  0  0  0
 17 14  1  0  0  0  0
M  RAD  1   3   2
M  END
