Coordinates from ORCA-job 4-MeO-Ph-N2+-B3LYPG-6-31G_dp-MTMO-d009-169-n900
 OpenBabel09051907383D

 17 16  0  0  0  0  0  0  0  0999 V2000
   -1.1527    1.0686    0.0361 C   0  0  0  0  0  0  0  0  0  0  0  0
   -0.2401    2.1430   -0.0891 C   0  0  0  0  0  0  0  0  0  0  0  0
   -0.9194    3.2760    0.1463 C   0  0  0  0  0  0  0  0  0  0  0  0
   -1.9926    3.7289    0.8154 C   0  0  0  0  0  0  0  0  0  0  0  0
   -2.8526    2.6167    0.9279 C   0  0  0  0  0  0  0  0  0  0  0  0
   -2.4451    1.3015    0.5661 C   0  0  0  0  0  0  0  0  0  0  0  0
   -0.8216    0.0854   -0.2813 H   0  0  0  0  0  0  0  0  0  0  0  0
    0.7935    2.0313   -0.3970 H   0  0  0  0  0  0  0  0  0  0  0  0
   -2.2804    4.7450    1.0578 H   0  0  0  0  0  0  0  0  0  0  0  0
   -3.8815    2.7911    1.2316 H   0  0  0  0  0  0  0  0  0  0  0  0
   -0.2415   -3.0346   -0.6718 N   0  0  0  0  0  0  0  0  0  0  0  0
    0.2339   -4.0061   -0.8985 N   0  0  0  0  0  0  0  0  0  0  0  0
   -3.3633    0.3647    0.7558 O   0  0  0  0  0  0  0  0  0  0  0  0
   -3.0564   -1.0191    0.4837 C   0  0  0  0  0  0  0  0  0  0  0  0
   -3.9690   -1.5641    0.7165 H   0  0  0  0  0  0  0  0  0  0  0  0
   -2.2391   -1.3636    1.1224 H   0  0  0  0  0  0  0  0  0  0  0  0
   -2.8015   -1.1515   -0.5722 H   0  0  0  0  0  0  0  0  0  0  0  0
  1  6  1  0  0  0  0
  2  1  2  0  0  0  0
  2  3  1  0  0  0  0
  3  4  2  0  0  0  0
  4  5  1  0  0  0  0
  4  9  1  0  0  0  0
  5 10  1  0  0  0  0
  6 13  1  0  0  0  0
  6  5  2  0  0  0  0
  7  1  1  0  0  0  0
  8  2  1  0  0  0  0
 12 11  3  0  0  0  0
 14 15  1  0  0  0  0
 14 13  1  0  0  0  0
 14 16  1  0  0  0  0
 17 14  1  0  0  0  0
M  RAD  1   3   2
M  END
