Coordinates from ORCA-job 4-MeO-Ph-N2+-B3LYPG-6-31G_dp-MTMO-d009-169-n900
 OpenBabel09051907383D

 17 16  0  0  0  0  0  0  0  0999 V2000
   -1.1515    1.0727    0.0350 C   0  0  0  0  0  0  0  0  0  0  0  0
   -0.2406    2.1488   -0.0893 C   0  0  0  0  0  0  0  0  0  0  0  0
   -0.9217    3.2803    0.1475 C   0  0  0  0  0  0  0  0  0  0  0  0
   -1.9955    3.7306    0.8175 C   0  0  0  0  0  0  0  0  0  0  0  0
   -2.8537    2.6169    0.9291 C   0  0  0  0  0  0  0  0  0  0  0  0
   -2.4440    1.3028    0.5657 C   0  0  0  0  0  0  0  0  0  0  0  0
   -0.8189    0.0905   -0.2837 H   0  0  0  0  0  0  0  0  0  0  0  0
    0.7930    2.0391   -0.3978 H   0  0  0  0  0  0  0  0  0  0  0  0
   -2.2848    4.7460    1.0612 H   0  0  0  0  0  0  0  0  0  0  0  0
   -3.8827    2.7892    1.2334 H   0  0  0  0  0  0  0  0  0  0  0  0
   -0.2491   -3.0491   -0.6688 N   0  0  0  0  0  0  0  0  0  0  0  0
    0.2241   -4.0220   -0.8943 N   0  0  0  0  0  0  0  0  0  0  0  0
   -3.3606    0.3642    0.7546 O   0  0  0  0  0  0  0  0  0  0  0  0
   -3.0512   -1.0188    0.4812 C   0  0  0  0  0  0  0  0  0  0  0  0
   -3.9628   -1.5656    0.7138 H   0  0  0  0  0  0  0  0  0  0  0  0
   -2.2331   -1.3624    1.1194 H   0  0  0  0  0  0  0  0  0  0  0  0
   -2.7964   -1.1499   -0.5749 H   0  0  0  0  0  0  0  0  0  0  0  0
  1  6  1  0  0  0  0
  2  1  2  0  0  0  0
  2  3  1  0  0  0  0
  3  4  2  0  0  0  0
  4  5  1  0  0  0  0
  4  9  1  0  0  0  0
  5 10  1  0  0  0  0
  6 13  1  0  0  0  0
  6  5  2  0  0  0  0
  7  1  1  0  0  0  0
  8  2  1  0  0  0  0
 12 11  3  0  0  0  0
 14 15  1  0  0  0  0
 14 13  1  0  0  0  0
 14 16  1  0  0  0  0
 17 14  1  0  0  0  0
M  RAD  1   3   2
M  END
