Coordinates from ORCA-job 4-MeO-Ph-N2+-B3LYPG-6-31G_dp-MTMO-d009-169-n900
 OpenBabel09051907383D

 17 16  0  0  0  0  0  0  0  0999 V2000
   -0.9455    1.4841   -0.0177 C   0  0  0  0  0  0  0  0  0  0  0  0
   -0.2988    2.7428   -0.0521 C   0  0  0  0  0  0  0  0  0  0  0  0
   -1.2171    3.6690    0.2608 C   0  0  0  0  0  0  0  0  0  0  0  0
   -2.3619    3.8131    0.9491 C   0  0  0  0  0  0  0  0  0  0  0  0
   -2.9475    2.5304    0.9695 C   0  0  0  0  0  0  0  0  0  0  0  0
   -2.2532    1.3737    0.5143 C   0  0  0  0  0  0  0  0  0  0  0  0
   -0.4050    0.6309   -0.4114 H   0  0  0  0  0  0  0  0  0  0  0  0
    0.7298    2.8914   -0.3610 H   0  0  0  0  0  0  0  0  0  0  0  0
   -2.8685    4.7166    1.2671 H   0  0  0  0  0  0  0  0  0  0  0  0
   -3.9857    2.4426    1.2782 H   0  0  0  0  0  0  0  0  0  0  0  0
   -1.5109   -4.2141   -0.3499 N   0  0  0  0  0  0  0  0  0  0  0  0
   -1.3370   -5.2948   -0.5011 N   0  0  0  0  0  0  0  0  0  0  0  0
   -2.9310    0.2404    0.6233 O   0  0  0  0  0  0  0  0  0  0  0  0
   -2.3200   -1.0165    0.2583 C   0  0  0  0  0  0  0  0  0  0  0  0
   -3.0822   -1.7701    0.4413 H   0  0  0  0  0  0  0  0  0  0  0  0
   -1.4449   -1.2128    0.8830 H   0  0  0  0  0  0  0  0  0  0  0  0
   -2.0500   -1.0136   -0.8022 H   0  0  0  0  0  0  0  0  0  0  0  0
  1  6  1  0  0  0  0
  2  1  2  0  0  0  0
  2  3  1  0  0  0  0
  3  4  2  0  0  0  0
  4  5  1  0  0  0  0
  4  9  1  0  0  0  0
  5 10  1  0  0  0  0
  6 13  1  0  0  0  0
  6  5  2  0  0  0  0
  7  1  1  0  0  0  0
  8  2  1  0  0  0  0
 12 11  3  0  0  0  0
 14 15  1  0  0  0  0
 14 13  1  0  0  0  0
 14 16  1  0  0  0  0
 17 14  1  0  0  0  0
M  RAD  1   3   2
M  END
