Coordinates from ORCA-job 4-MeO-Ph-N2+-B3LYPG-6-31G_dp-MTMO-d009-169-n900
 OpenBabel09051907383D

 17 16  0  0  0  0  0  0  0  0999 V2000
   -0.7489    1.9742   -0.0112 C   0  0  0  0  0  0  0  0  0  0  0  0
   -0.3512    3.3327    0.0174 C   0  0  0  0  0  0  0  0  0  0  0  0
   -1.4351    4.0543    0.3365 C   0  0  0  0  0  0  0  0  0  0  0  0
   -2.6040    3.9546    0.9904 C   0  0  0  0  0  0  0  0  0  0  0  0
   -2.9358    2.5844    0.9486 C   0  0  0  0  0  0  0  0  0  0  0  0
   -2.0245    1.5987    0.4754 C   0  0  0  0  0  0  0  0  0  0  0  0
   -0.0457    1.2548   -0.4151 H   0  0  0  0  0  0  0  0  0  0  0  0
    0.6378    3.6845   -0.2537 H   0  0  0  0  0  0  0  0  0  0  0  0
   -3.2804    4.7334    1.3225 H   0  0  0  0  0  0  0  0  0  0  0  0
   -3.9455    2.2905    1.2231 H   0  0  0  0  0  0  0  0  0  0  0  0
   -2.8999   -6.4487   -0.1865 N   0  0  0  0  0  0  0  0  0  0  0  0
   -3.1460   -7.5242   -0.2514 N   0  0  0  0  0  0  0  0  0  0  0  0
   -2.4785    0.3539    0.5231 O   0  0  0  0  0  0  0  0  0  0  0  0
   -1.6328   -0.7464    0.1273 C   0  0  0  0  0  0  0  0  0  0  0  0
   -2.2425   -1.6377    0.2618 H   0  0  0  0  0  0  0  0  0  0  0  0
   -0.7475   -0.7986    0.7669 H   0  0  0  0  0  0  0  0  0  0  0  0
   -1.3491   -0.6471   -0.9254 H   0  0  0  0  0  0  0  0  0  0  0  0
  1  2  2  0  0  0  0
  1  6  1  0  0  0  0
  2  3  1  0  0  0  0
  3  4  2  0  0  0  0
  4  9  1  0  0  0  0
  5  4  1  0  0  0  0
  5 10  1  0  0  0  0
  6 13  1  0  0  0  0
  6  5  2  0  0  0  0
  7  1  1  0  0  0  0
  8  2  1  0  0  0  0
 12 11  3  0  0  0  0
 14 15  1  0  0  0  0
 14 13  1  0  0  0  0
 14 16  1  0  0  0  0
 17 14  1  0  0  0  0
M  RAD  1   3   2
M  END
