Coordinates from ORCA-job 4-MeO-Ph-N2+-B3LYPG-6-31G_dp-MTMO-d009-169-n900
 OpenBabel09051907383D

 17 16  0  0  0  0  0  0  0  0999 V2000
   -1.7076    0.3833    0.1289 C   0  0  0  0  0  0  0  0  0  0  0  0
   -0.4055    0.8792   -0.1475 C   0  0  0  0  0  0  0  0  0  0  0  0
   -0.4831    2.2084   -0.0395 C   0  0  0  0  0  0  0  0  0  0  0  0
   -1.1900    3.1884    0.5459 C   0  0  0  0  0  0  0  0  0  0  0  0
   -2.4551    2.6261    0.8155 C   0  0  0  0  0  0  0  0  0  0  0  0
   -2.7150    1.2407    0.6297 C   0  0  0  0  0  0  0  0  0  0  0  0
   -1.8851   -0.6675   -0.0708 H   0  0  0  0  0  0  0  0  0  0  0  0
    0.4271    0.2541   -0.4610 H   0  0  0  0  0  0  0  0  0  0  0  0
   -0.9528    4.2395    0.6600 H   0  0  0  0  0  0  0  0  0  0  0  0
   -3.2613    3.2891    1.1182 H   0  0  0  0  0  0  0  0  0  0  0  0
    2.0768   -1.3232   -1.1257 N   0  0  0  0  0  0  0  0  0  0  0  0
    2.8626   -2.0247   -1.4579 N   0  0  0  0  0  0  0  0  0  0  0  0
   -3.9459    0.8562    0.9465 O   0  0  0  0  0  0  0  0  0  0  0  0
   -4.3146   -0.5346    0.8628 C   0  0  0  0  0  0  0  0  0  0  0  0
   -5.3565   -0.5738    1.1744 H   0  0  0  0  0  0  0  0  0  0  0  0
   -3.7003   -1.1365    1.5384 H   0  0  0  0  0  0  0  0  0  0  0  0
   -4.2231   -0.8913   -0.1684 H   0  0  0  0  0  0  0  0  0  0  0  0
  1  6  2  0  0  0  0
  2  3  2  0  0  0  0
  2  1  1  0  0  0  0
  3  4  1  0  0  0  0
  4  9  1  0  0  0  0
  4  5  2  0  0  0  0
  5 10  1  0  0  0  0
  6  5  1  0  0  0  0
  6 13  1  0  0  0  0
  7  1  1  0  0  0  0
  8  2  1  0  0  0  0
 12 11  3  0  0  0  0
 14 13  1  0  0  0  0
 14 15  1  0  0  0  0
 14 16  1  0  0  0  0
 17 14  1  0  0  0  0
M  RAD  1   3   2
M  END
