Coordinates from ORCA-job 4-MeO-Ph-N2+-B3LYPG-6-31G_dp-MTMO-d009-169-n900
 OpenBabel09051907383D

 17 17  0  0  0  0  0  0  0  0999 V2000
   -1.9831   -0.2144    0.1636 C   0  0  0  0  0  0  0  0  0  0  0  0
   -0.6570   -0.2779   -0.2526 C   0  0  0  0  0  0  0  0  0  0  0  0
    0.0160    0.9293   -0.2320 C   0  0  0  0  0  0  0  0  0  0  0  0
   -0.4448    2.1837    0.1441 C   0  0  0  0  0  0  0  0  0  0  0  0
   -1.7667    2.2055    0.5516 C   0  0  0  0  0  0  0  0  0  0  0  0
   -2.5463    1.0198    0.5669 C   0  0  0  0  0  0  0  0  0  0  0  0
   -2.5686   -1.1250    0.1703 H   0  0  0  0  0  0  0  0  0  0  0  0
   -0.1993   -1.2077   -0.5670 H   0  0  0  0  0  0  0  0  0  0  0  0
    0.1692    3.0756    0.1240 H   0  0  0  0  0  0  0  0  0  0  0  0
   -2.2298    3.1334    0.8674 H   0  0  0  0  0  0  0  0  0  0  0  0
    1.6045    0.8673   -0.7281 N   0  0  0  0  0  0  0  0  0  0  0  0
    2.6621    0.8306   -1.0579 N   0  0  0  0  0  0  0  0  0  0  0  0
   -3.7994    1.1764    0.9769 O   0  0  0  0  0  0  0  0  0  0  0  0
   -4.6941    0.0500    1.0383 C   0  0  0  0  0  0  0  0  0  0  0  0
   -5.6394    0.4549    1.3940 H   0  0  0  0  0  0  0  0  0  0  0  0
   -4.3233   -0.6990    1.7447 H   0  0  0  0  0  0  0  0  0  0  0  0
   -4.8296   -0.3892    0.0455 H   0  0  0  0  0  0  0  0  0  0  0  0
  1  7  1  0  0  0  0
  1  6  2  0  0  0  0
  2  3  2  0  0  0  0
  2  1  1  0  0  0  0
  3  4  1  0  0  0  0
  4  5  2  0  0  0  0
  5  6  1  0  0  0  0
  5 10  1  0  0  0  0
  6 13  1  0  0  0  0
  8  2  1  0  0  0  0
  9  4  1  0  0  0  0
 11  3  1  0  0  0  0
 12 11  1  0  0  0  0
 13 14  1  0  0  0  0
 14 15  1  0  0  0  0
 14 16  1  0  0  0  0
 17 14  1  0  0  0  0
M  RAD  2  11   2  12   3
M  END
