Coordinates from ORCA-job 4-MeO-Ph-N2+-B3LYPG-6-31G_dp-MTMO-d009-169-n900
 OpenBabel09051907383D

 17 16  0  0  0  0  0  0  0  0999 V2000
   -1.6429    0.5686    0.1138 C   0  0  0  0  0  0  0  0  0  0  0  0
   -0.3955    1.1936   -0.1391 C   0  0  0  0  0  0  0  0  0  0  0  0
   -0.5925    2.5102    0.0066 C   0  0  0  0  0  0  0  0  0  0  0  0
   -1.3845    3.3942    0.6351 C   0  0  0  0  0  0  0  0  0  0  0  0
   -2.5927    2.7091    0.8784 C   0  0  0  0  0  0  0  0  0  0  0  0
   -2.7249    1.3128    0.6420 C   0  0  0  0  0  0  0  0  0  0  0  0
   -1.7241   -0.4858   -0.1255 H   0  0  0  0  0  0  0  0  0  0  0  0
    0.4904    0.6612   -0.4697 H   0  0  0  0  0  0  0  0  0  0  0  0
   -1.2459    4.4579    0.7898 H   0  0  0  0  0  0  0  0  0  0  0  0
   -3.4576    3.2840    1.1989 H   0  0  0  0  0  0  0  0  0  0  0  0
    2.0810   -2.0455   -1.2105 N   0  0  0  0  0  0  0  0  0  0  0  0
    2.7307   -2.8942   -1.4908 N   0  0  0  0  0  0  0  0  0  0  0  0
   -3.9144    0.8068    0.9406 O   0  0  0  0  0  0  0  0  0  0  0  0
   -4.1537   -0.6096    0.8138 C   0  0  0  0  0  0  0  0  0  0  0  0
   -5.1878   -0.7534    1.1198 H   0  0  0  0  0  0  0  0  0  0  0  0
   -3.4871   -1.1717    1.4737 H   0  0  0  0  0  0  0  0  0  0  0  0
   -4.0281   -0.9245   -0.2273 H   0  0  0  0  0  0  0  0  0  0  0  0
  1  6  2  0  0  0  0
  2  3  2  0  0  0  0
  2  1  1  0  0  0  0
  3  4  1  0  0  0  0
  4  9  1  0  0  0  0
  4  5  2  0  0  0  0
  5 10  1  0  0  0  0
  6  5  1  0  0  0  0
  6 13  1  0  0  0  0
  7  1  1  0  0  0  0
  8  2  1  0  0  0  0
 12 11  3  0  0  0  0
 14 13  1  0  0  0  0
 14 15  1  0  0  0  0
 14 16  1  0  0  0  0
 17 14  1  0  0  0  0
M  RAD  1   3   2
M  END
