Coordinates from ORCA-job 4-MeO-Ph-N2+-B3LYPG-6-31G_dp-MTMO-d009-169-n900
 OpenBabel09051907383D

 17 16  0  0  0  0  0  0  0  0999 V2000
   -1.7882    0.2733    0.1344 C   0  0  0  0  0  0  0  0  0  0  0  0
   -0.4618    0.6822   -0.1628 C   0  0  0  0  0  0  0  0  0  0  0  0
   -0.4473    2.0153   -0.0795 C   0  0  0  0  0  0  0  0  0  0  0  0
   -1.0778    3.0494    0.4995 C   0  0  0  0  0  0  0  0  0  0  0  0
   -2.3734    2.5732    0.7914 C   0  0  0  0  0  0  0  0  0  0  0  0
   -2.7287    1.2051    0.6320 C   0  0  0  0  0  0  0  0  0  0  0  0
   -2.0351   -0.7683   -0.0370 H   0  0  0  0  0  0  0  0  0  0  0  0
    0.3392    0.0124   -0.4654 H   0  0  0  0  0  0  0  0  0  0  0  0
   -0.7762    4.0863    0.5862 H   0  0  0  0  0  0  0  0  0  0  0  0
   -3.1327    3.2936    1.0837 H   0  0  0  0  0  0  0  0  0  0  0  0
    2.2503   -1.0156   -1.1352 N   0  0  0  0  0  0  0  0  0  0  0  0
    3.1677   -1.5308   -1.4706 N   0  0  0  0  0  0  0  0  0  0  0  0
   -3.9788    0.9117    0.9700 O   0  0  0  0  0  0  0  0  0  0  0  0
   -4.4453   -0.4505    0.9078 C   0  0  0  0  0  0  0  0  0  0  0  0
   -5.4839   -0.4124    1.2299 H   0  0  0  0  0  0  0  0  0  0  0  0
   -3.8676   -1.0859    1.5850 H   0  0  0  0  0  0  0  0  0  0  0  0
   -4.3897   -0.8256   -0.1195 H   0  0  0  0  0  0  0  0  0  0  0  0
  1  6  2  0  0  0  0
  2  3  2  0  0  0  0
  2  1  1  0  0  0  0
  3  4  1  0  0  0  0
  4  9  1  0  0  0  0
  4  5  2  0  0  0  0
  5 10  1  0  0  0  0
  6  5  1  0  0  0  0
  6 13  1  0  0  0  0
  7  1  1  0  0  0  0
  8  2  1  0  0  0  0
 12 11  3  0  0  0  0
 14 13  1  0  0  0  0
 14 15  1  0  0  0  0
 14 16  1  0  0  0  0
 17 14  1  0  0  0  0
M  RAD  1   3   2
M  END
