Coordinates from ORCA-job 4-MeO-Ph-N2+-B3LYPG-6-31G_dp-MTMO-d009-169-n900
 OpenBabel09051907383D

 17 16  0  0  0  0  0  0  0  0999 V2000
   -0.7592    1.8528   -0.0178 C   0  0  0  0  0  0  0  0  0  0  0  0
   -0.3863    3.2171    0.0456 C   0  0  0  0  0  0  0  0  0  0  0  0
   -1.4857    3.9141    0.3677 C   0  0  0  0  0  0  0  0  0  0  0  0
   -2.6585    3.7778    1.0087 C   0  0  0  0  0  0  0  0  0  0  0  0
   -2.9657    2.4034    0.9329 C   0  0  0  0  0  0  0  0  0  0  0  0
   -2.0327    1.4439    0.4473 C   0  0  0  0  0  0  0  0  0  0  0  0
   -0.0392    1.1551   -0.4302 H   0  0  0  0  0  0  0  0  0  0  0  0
    0.5994    3.5917   -0.2066 H   0  0  0  0  0  0  0  0  0  0  0  0
   -3.3524    4.5367    1.3508 H   0  0  0  0  0  0  0  0  0  0  0  0
   -3.9729    2.0862    1.1897 H   0  0  0  0  0  0  0  0  0  0  0  0
   -2.8187   -5.3530   -0.0465 N   0  0  0  0  0  0  0  0  0  0  0  0
   -3.0815   -6.4259   -0.0790 N   0  0  0  0  0  0  0  0  0  0  0  0
   -2.4652    0.1908    0.4639 O   0  0  0  0  0  0  0  0  0  0  0  0
   -1.5971   -0.8872    0.0536 C   0  0  0  0  0  0  0  0  0  0  0  0
   -2.1909   -1.7928    0.1643 H   0  0  0  0  0  0  0  0  0  0  0  0
   -0.7165   -0.9363    0.6997 H   0  0  0  0  0  0  0  0  0  0  0  0
   -1.3063   -0.7610   -0.9943 H   0  0  0  0  0  0  0  0  0  0  0  0
  1  2  2  0  0  0  0
  1  6  1  0  0  0  0
  2  3  1  0  0  0  0
  3  4  2  0  0  0  0
  4  9  1  0  0  0  0
  5  4  1  0  0  0  0
  5 10  1  0  0  0  0
  6 13  1  0  0  0  0
  6  5  2  0  0  0  0
  7  1  1  0  0  0  0
  8  2  1  0  0  0  0
 12 11  3  0  0  0  0
 14 15  1  0  0  0  0
 14 13  1  0  0  0  0
 14 16  1  0  0  0  0
 17 14  1  0  0  0  0
M  RAD  1   3   2
M  END
