Coordinates from ORCA-job 4-MeO-Ph-N2+-B3LYPG-6-31G_dp-MTMO-d009-169-n900
 OpenBabel09051907383D

 17 16  0  0  0  0  0  0  0  0999 V2000
   -0.7618    1.8261   -0.0207 C   0  0  0  0  0  0  0  0  0  0  0  0
   -0.3982    3.1928    0.0449 C   0  0  0  0  0  0  0  0  0  0  0  0
   -1.5023    3.8825    0.3674 C   0  0  0  0  0  0  0  0  0  0  0  0
   -2.6741    3.7367    1.0082 C   0  0  0  0  0  0  0  0  0  0  0  0
   -2.9721    2.3604    0.9303 C   0  0  0  0  0  0  0  0  0  0  0  0
   -2.0325    1.4077    0.4437 C   0  0  0  0  0  0  0  0  0  0  0  0
   -0.0371    1.1340   -0.4341 H   0  0  0  0  0  0  0  0  0  0  0  0
    0.5851    3.5742   -0.2065 H   0  0  0  0  0  0  0  0  0  0  0  0
   -3.3734    4.4902    1.3513 H   0  0  0  0  0  0  0  0  0  0  0  0
   -3.9773    2.0360    1.1864 H   0  0  0  0  0  0  0  0  0  0  0  0
   -2.8083   -5.1015   -0.0258 N   0  0  0  0  0  0  0  0  0  0  0  0
   -3.0827   -6.1715   -0.0564 N   0  0  0  0  0  0  0  0  0  0  0  0
   -2.4564    0.1517    0.4588 O   0  0  0  0  0  0  0  0  0  0  0  0
   -1.5807   -0.9205    0.0483 C   0  0  0  0  0  0  0  0  0  0  0  0
   -2.1670   -1.8310    0.1594 H   0  0  0  0  0  0  0  0  0  0  0  0
   -0.6993   -0.9624    0.6940 H   0  0  0  0  0  0  0  0  0  0  0  0
   -1.2913   -0.7920   -0.9997 H   0  0  0  0  0  0  0  0  0  0  0  0
  1  2  2  0  0  0  0
  1  6  1  0  0  0  0
  2  3  1  0  0  0  0
  3  4  2  0  0  0  0
  4  9  1  0  0  0  0
  5  4  1  0  0  0  0
  5 10  1  0  0  0  0
  6 13  1  0  0  0  0
  6  5  2  0  0  0  0
  7  1  1  0  0  0  0
  8  2  1  0  0  0  0
 12 11  3  0  0  0  0
 14 15  1  0  0  0  0
 14 13  1  0  0  0  0
 14 16  1  0  0  0  0
 17 14  1  0  0  0  0
M  RAD  1   3   2
M  END
