Coordinates from ORCA-job 4-MeO-Ph-N2+-B3LYPG-6-31G_dp-MTMO-d009-169-n900
 OpenBabel09051907383D

 17 16  0  0  0  0  0  0  0  0999 V2000
   -1.8037    0.2521    0.1362 C   0  0  0  0  0  0  0  0  0  0  0  0
   -0.4733    0.6443   -0.1641 C   0  0  0  0  0  0  0  0  0  0  0  0
   -0.4414    1.9777   -0.0866 C   0  0  0  0  0  0  0  0  0  0  0  0
   -1.0575    3.0213    0.4908 C   0  0  0  0  0  0  0  0  0  0  0  0
   -2.3584    2.5617    0.7861 C   0  0  0  0  0  0  0  0  0  0  0  0
   -2.7313    1.1977    0.6320 C   0  0  0  0  0  0  0  0  0  0  0  0
   -2.0636   -0.7871   -0.0298 H   0  0  0  0  0  0  0  0  0  0  0  0
    0.3215   -0.0337   -0.4638 H   0  0  0  0  0  0  0  0  0  0  0  0
   -0.7439    4.0551    0.5725 H   0  0  0  0  0  0  0  0  0  0  0  0
   -3.1087    3.2927    1.0755 H   0  0  0  0  0  0  0  0  0  0  0  0
    2.2864   -0.9530   -1.1370 N   0  0  0  0  0  0  0  0  0  0  0  0
    3.2226   -1.4319   -1.4743 N   0  0  0  0  0  0  0  0  0  0  0  0
   -3.9846    0.9217    0.9731 O   0  0  0  0  0  0  0  0  0  0  0  0
   -4.4689   -0.4346    0.9159 C   0  0  0  0  0  0  0  0  0  0  0  0
   -5.5064   -0.3819    1.2395 H   0  0  0  0  0  0  0  0  0  0  0  0
   -3.8985   -1.0753    1.5942 H   0  0  0  0  0  0  0  0  0  0  0  0
   -4.4198   -0.8136   -0.1103 H   0  0  0  0  0  0  0  0  0  0  0  0
  1  6  2  0  0  0  0
  2  3  2  0  0  0  0
  2  1  1  0  0  0  0
  3  4  1  0  0  0  0
  4  9  1  0  0  0  0
  4  5  2  0  0  0  0
  5 10  1  0  0  0  0
  6  5  1  0  0  0  0
  6 13  1  0  0  0  0
  7  1  1  0  0  0  0
  8  2  1  0  0  0  0
 12 11  3  0  0  0  0
 14 13  1  0  0  0  0
 14 15  1  0  0  0  0
 14 16  1  0  0  0  0
 17 14  1  0  0  0  0
M  RAD  1   3   2
M  END
