Coordinates from ORCA-job 4-MeO-Ph-N2+-B3LYPG-6-31G_dp-MTMO-d009-169-n900
 OpenBabel09051907383D

 17 16  0  0  0  0  0  0  0  0999 V2000
   -1.7549    0.3202    0.1311 C   0  0  0  0  0  0  0  0  0  0  0  0
   -0.4376    0.7647   -0.1588 C   0  0  0  0  0  0  0  0  0  0  0  0
   -0.4611    2.0965   -0.0637 C   0  0  0  0  0  0  0  0  0  0  0  0
   -1.1231    3.1091    0.5183 C   0  0  0  0  0  0  0  0  0  0  0  0
   -2.4068    2.5975    0.8023 C   0  0  0  0  0  0  0  0  0  0  0  0
   -2.7231    1.2216    0.6315 C   0  0  0  0  0  0  0  0  0  0  0  0
   -1.9737   -0.7256   -0.0528 H   0  0  0  0  0  0  0  0  0  0  0  0
    0.3752    0.1118   -0.4676 H   0  0  0  0  0  0  0  0  0  0  0  0
   -0.8473    4.1521    0.6171 H   0  0  0  0  0  0  0  0  0  0  0  0
   -3.1850    3.2946    1.1012 H   0  0  0  0  0  0  0  0  0  0  0  0
    2.1759   -1.1499   -1.1338 N   0  0  0  0  0  0  0  0  0  0  0  0
    3.0448   -1.7476   -1.4616 N   0  0  0  0  0  0  0  0  0  0  0  0
   -3.9659    0.8902    0.9618 O   0  0  0  0  0  0  0  0  0  0  0  0
   -4.3924   -0.4846    0.8899 C   0  0  0  0  0  0  0  0  0  0  0  0
   -5.4328   -0.4785    1.2085 H   0  0  0  0  0  0  0  0  0  0  0  0
   -3.7990   -1.1070    1.5656 H   0  0  0  0  0  0  0  0  0  0  0  0
   -4.3226   -0.8517   -0.1394 H   0  0  0  0  0  0  0  0  0  0  0  0
  1  6  2  0  0  0  0
  2  3  2  0  0  0  0
  2  1  1  0  0  0  0
  3  4  1  0  0  0  0
  4  9  1  0  0  0  0
  4  5  2  0  0  0  0
  5 10  1  0  0  0  0
  6  5  1  0  0  0  0
  6 13  1  0  0  0  0
  7  1  1  0  0  0  0
  8  2  1  0  0  0  0
 12 11  3  0  0  0  0
 14 13  1  0  0  0  0
 14 15  1  0  0  0  0
 14 16  1  0  0  0  0
 17 14  1  0  0  0  0
M  RAD  1   3   2
M  END
