Coordinates from ORCA-job 4-MeO-Ph-N2+-B3LYPG-6-31G_dp-MTMO-d009-169-n900
 OpenBabel09051907383D

 17 16  0  0  0  0  0  0  0  0999 V2000
   -0.7216    2.1797    0.0008 C   0  0  0  0  0  0  0  0  0  0  0  0
   -0.3178    3.5367    0.0064 C   0  0  0  0  0  0  0  0  0  0  0  0
   -1.3962    4.2673    0.3227 C   0  0  0  0  0  0  0  0  0  0  0  0
   -2.5613    4.1830    0.9853 C   0  0  0  0  0  0  0  0  0  0  0  0
   -2.8992    2.8137    0.9663 C   0  0  0  0  0  0  0  0  0  0  0  0
   -1.9954    1.8172    0.5015 C   0  0  0  0  0  0  0  0  0  0  0  0
   -0.0244    1.4513   -0.3970 H   0  0  0  0  0  0  0  0  0  0  0  0
    0.6709    3.8801   -0.2766 H   0  0  0  0  0  0  0  0  0  0  0  0
   -3.2320    4.9697    1.3103 H   0  0  0  0  0  0  0  0  0  0  0  0
   -3.9083    2.5285    1.2518 H   0  0  0  0  0  0  0  0  0  0  0  0
   -3.1126   -8.0642   -0.3467 N   0  0  0  0  0  0  0  0  0  0  0  0
   -3.3659   -9.1379   -0.4158 N   0  0  0  0  0  0  0  0  0  0  0  0
   -2.4545    0.5752    0.5705 O   0  0  0  0  0  0  0  0  0  0  0  0
   -1.6162   -0.5341    0.1851 C   0  0  0  0  0  0  0  0  0  0  0  0
   -2.2294   -1.4204    0.3353 H   0  0  0  0  0  0  0  0  0  0  0  0
   -0.7275   -0.5818    0.8202 H   0  0  0  0  0  0  0  0  0  0  0  0
   -1.3380   -0.4507   -0.8706 H   0  0  0  0  0  0  0  0  0  0  0  0
  1  2  2  0  0  0  0
  1  6  1  0  0  0  0
  2  3  1  0  0  0  0
  3  4  2  0  0  0  0
  4  9  1  0  0  0  0
  5  4  1  0  0  0  0
  5 10  1  0  0  0  0
  6 13  1  0  0  0  0
  6  5  2  0  0  0  0
  7  1  1  0  0  0  0
  8  2  1  0  0  0  0
 12 11  3  0  0  0  0
 14 15  1  0  0  0  0
 14 13  1  0  0  0  0
 14 16  1  0  0  0  0
 17 14  1  0  0  0  0
M  RAD  1   3   2
M  END
