Coordinates from ORCA-job 4-MeO-Ph-N2+-B3LYPG-6-31G_dp-MTMO-d009-169-n900
 OpenBabel09051907383D

 17 16  0  0  0  0  0  0  0  0999 V2000
   -1.0068    1.3606   -0.0054 C   0  0  0  0  0  0  0  0  0  0  0  0
   -0.2728    2.5693   -0.0706 C   0  0  0  0  0  0  0  0  0  0  0  0
   -1.1238    3.5630    0.2237 C   0  0  0  0  0  0  0  0  0  0  0  0
   -2.2535    3.8023    0.9108 C   0  0  0  0  0  0  0  0  0  0  0  0
   -2.9278    2.5652    0.9624 C   0  0  0  0  0  0  0  0  0  0  0  0
   -2.3172    1.3535    0.5319 C   0  0  0  0  0  0  0  0  0  0  0  0
   -0.5298    0.4634   -0.3835 H   0  0  0  0  0  0  0  0  0  0  0  0
    0.7615    2.6382   -0.3882 H   0  0  0  0  0  0  0  0  0  0  0  0
   -2.6924    4.7462    1.2113 H   0  0  0  0  0  0  0  0  0  0  0  0
   -3.9676    2.5567    1.2781 H   0  0  0  0  0  0  0  0  0  0  0  0
   -1.1561   -3.8745   -0.4413 N   0  0  0  0  0  0  0  0  0  0  0  0
   -0.8259   -4.9116   -0.6323 N   0  0  0  0  0  0  0  0  0  0  0  0
   -3.0706    0.2720    0.6670 O   0  0  0  0  0  0  0  0  0  0  0  0
   -2.5421   -1.0290    0.3296 C   0  0  0  0  0  0  0  0  0  0  0  0
   -3.3523   -1.7274    0.5276 H   0  0  0  0  0  0  0  0  0  0  0  0
   -1.6810   -1.2681    0.9583 H   0  0  0  0  0  0  0  0  0  0  0  0
   -2.2715   -1.0664   -0.7297 H   0  0  0  0  0  0  0  0  0  0  0  0
  1  6  1  0  0  0  0
  2  1  2  0  0  0  0
  2  3  1  0  0  0  0
  3  4  2  0  0  0  0
  4  5  1  0  0  0  0
  4  9  1  0  0  0  0
  5 10  1  0  0  0  0
  6 13  1  0  0  0  0
  6  5  2  0  0  0  0
  7  1  1  0  0  0  0
  8  2  1  0  0  0  0
 12 11  3  0  0  0  0
 14 15  1  0  0  0  0
 14 13  1  0  0  0  0
 14 16  1  0  0  0  0
 17 14  1  0  0  0  0
M  RAD  1   3   2
M  END
