Coordinates from ORCA-job 4-MeO-Ph-N2+-B3LYPG-6-31G_dp-MTMO-d009-169-n900
 OpenBabel09051907383D

 17 17  0  0  0  0  0  0  0  0999 V2000
   -1.9418   -0.2221    0.1501 C   0  0  0  0  0  0  0  0  0  0  0  0
   -0.6342   -0.2726   -0.2587 C   0  0  0  0  0  0  0  0  0  0  0  0
    0.1618    0.9216   -0.2781 C   0  0  0  0  0  0  0  0  0  0  0  0
   -0.4227    2.1718    0.1352 C   0  0  0  0  0  0  0  0  0  0  0  0
   -1.7260    2.2054    0.5398 C   0  0  0  0  0  0  0  0  0  0  0  0
   -2.5112    1.0165    0.5562 C   0  0  0  0  0  0  0  0  0  0  0  0
   -2.5295   -1.1315    0.1581 H   0  0  0  0  0  0  0  0  0  0  0  0
   -0.1843   -1.2089   -0.5724 H   0  0  0  0  0  0  0  0  0  0  0  0
    0.1858    3.0700    0.1179 H   0  0  0  0  0  0  0  0  0  0  0  0
   -2.1916    3.1318    0.8564 H   0  0  0  0  0  0  0  0  0  0  0  0
    1.3088    0.8777   -0.6367 N   0  0  0  0  0  0  0  0  0  0  0  0
    2.3873    0.8401   -0.9733 N   0  0  0  0  0  0  0  0  0  0  0  0
   -3.7520    1.1692    0.9618 O   0  0  0  0  0  0  0  0  0  0  0  0
   -4.6679    0.0504    1.0301 C   0  0  0  0  0  0  0  0  0  0  0  0
   -5.6043    0.4756    1.3841 H   0  0  0  0  0  0  0  0  0  0  0  0
   -4.3021   -0.6950    1.7411 H   0  0  0  0  0  0  0  0  0  0  0  0
   -4.8056   -0.3868    0.0381 H   0  0  0  0  0  0  0  0  0  0  0  0
  1  7  1  0  0  0  0
  1  6  2  0  0  0  0
  2  1  1  0  0  0  0
  3  2  2  0  0  0  0
  3  4  1  0  0  0  0
  4  5  2  0  0  0  0
  5  6  1  0  0  0  0
  5 10  1  0  0  0  0
  6 13  1  0  0  0  0
  8  2  1  0  0  0  0
  9  4  1  0  0  0  0
 11  3  1  0  0  0  0
 12 11  1  0  0  0  0
 13 14  1  0  0  0  0
 14 15  1  0  0  0  0
 14 16  1  0  0  0  0
 17 14  1  0  0  0  0
M  RAD  2  11   2  12   3
M  END
