Coordinates from ORCA-job 4-MeO-Ph-N2+-B3LYPG-6-31G_dp-MTMO-d009-169-n900
 OpenBabel09051907383D

 17 16  0  0  0  0  0  0  0  0999 V2000
   -0.7398    2.0500   -0.0067 C   0  0  0  0  0  0  0  0  0  0  0  0
   -0.3353    3.4068    0.0113 C   0  0  0  0  0  0  0  0  0  0  0  0
   -1.4145    4.1356    0.3293 C   0  0  0  0  0  0  0  0  0  0  0  0
   -2.5819    4.0464    0.9872 C   0  0  0  0  0  0  0  0  0  0  0  0
   -2.9205    2.6775    0.9559 C   0  0  0  0  0  0  0  0  0  0  0  0
   -2.0156    1.6842    0.4865 C   0  0  0  0  0  0  0  0  0  0  0  0
   -0.0415    1.3245   -0.4079 H   0  0  0  0  0  0  0  0  0  0  0  0
    0.6546    3.7519   -0.2654 H   0  0  0  0  0  0  0  0  0  0  0  0
   -3.2534    4.8308    1.3162 H   0  0  0  0  0  0  0  0  0  0  0  0
   -3.9308    2.3905    1.2356 H   0  0  0  0  0  0  0  0  0  0  0  0
   -2.9686   -7.0716   -0.2529 N   0  0  0  0  0  0  0  0  0  0  0  0
   -3.2150   -8.1469   -0.3202 N   0  0  0  0  0  0  0  0  0  0  0  0
   -2.4755    0.4420    0.5439 O   0  0  0  0  0  0  0  0  0  0  0  0
   -1.6364   -0.6648    0.1529 C   0  0  0  0  0  0  0  0  0  0  0  0
   -2.2504   -1.5521    0.2946 H   0  0  0  0  0  0  0  0  0  0  0  0
   -0.7497   -0.7176    0.7904 H   0  0  0  0  0  0  0  0  0  0  0  0
   -1.3550   -0.5737   -0.9012 H   0  0  0  0  0  0  0  0  0  0  0  0
  1  2  2  0  0  0  0
  1  6  1  0  0  0  0
  2  3  1  0  0  0  0
  3  4  2  0  0  0  0
  4  9  1  0  0  0  0
  5  4  1  0  0  0  0
  5 10  1  0  0  0  0
  6 13  1  0  0  0  0
  6  5  2  0  0  0  0
  7  1  1  0  0  0  0
  8  2  1  0  0  0  0
 12 11  3  0  0  0  0
 14 15  1  0  0  0  0
 14 13  1  0  0  0  0
 14 16  1  0  0  0  0
 17 14  1  0  0  0  0
M  RAD  1   3   2
M  END
