Coordinates from ORCA-job 4-MeO-Ph-N2+-B3LYPG-6-31G_dp-MTMO-d009-169-n900
 OpenBabel09051907383D

 17 16  0  0  0  0  0  0  0  0999 V2000
   -0.6699    2.5213    0.0226 C   0  0  0  0  0  0  0  0  0  0  0  0
   -0.2835    3.8834    0.0127 C   0  0  0  0  0  0  0  0  0  0  0  0
   -1.3701    4.6032    0.3257 C   0  0  0  0  0  0  0  0  0  0  0  0
   -2.5316    4.5110    0.9932 C   0  0  0  0  0  0  0  0  0  0  0  0
   -2.8520    3.1373    0.9896 C   0  0  0  0  0  0  0  0  0  0  0  0
   -1.9371    2.1478    0.5317 C   0  0  0  0  0  0  0  0  0  0  0  0
    0.0353    1.7978   -0.3703 H   0  0  0  0  0  0  0  0  0  0  0  0
    0.6997    4.2365   -0.2773 H   0  0  0  0  0  0  0  0  0  0  0  0
   -3.2114    5.2923    1.3124 H   0  0  0  0  0  0  0  0  0  0  0  0
   -3.8563    2.8421    1.2817 H   0  0  0  0  0  0  0  0  0  0  0  0
   -3.5112  -10.5733   -0.5469 N   0  0  0  0  0  0  0  0  0  0  0  0
   -3.8099  -11.6344   -0.6274 N   0  0  0  0  0  0  0  0  0  0  0  0
   -2.3799    0.9007    0.6151 O   0  0  0  0  0  0  0  0  0  0  0  0
   -1.5288   -0.2014    0.2377 C   0  0  0  0  0  0  0  0  0  0  0  0
   -2.1302   -1.0940    0.3987 H   0  0  0  0  0  0  0  0  0  0  0  0
   -0.6374   -0.2318    0.8702 H   0  0  0  0  0  0  0  0  0  0  0  0
   -1.2552   -0.1249   -0.8197 H   0  0  0  0  0  0  0  0  0  0  0  0
  1  6  1  0  0  0  0
  2  1  2  0  0  0  0
  2  3  1  0  0  0  0
  3  4  2  0  0  0  0
  4  9  1  0  0  0  0
  5  4  1  0  0  0  0
  5 10  1  0  0  0  0
  6 13  1  0  0  0  0
  6  5  2  0  0  0  0
  7  1  1  0  0  0  0
  8  2  1  0  0  0  0
 12 11  3  0  0  0  0
 14 15  1  0  0  0  0
 14 13  1  0  0  0  0
 14 16  1  0  0  0  0
 17 14  1  0  0  0  0
M  RAD  1   3   2
M  END
