Coordinates from ORCA-job 4-MeO-Ph-N2+-B3LYPG-6-31G_dp-MTMO-d009-169-n900
 OpenBabel09051907383D

 17 16  0  0  0  0  0  0  0  0999 V2000
   -0.7344    2.0898   -0.0044 C   0  0  0  0  0  0  0  0  0  0  0  0
   -0.3291    3.4463    0.0093 C   0  0  0  0  0  0  0  0  0  0  0  0
   -1.4074    4.1766    0.3267 C   0  0  0  0  0  0  0  0  0  0  0  0
   -2.5740    4.0901    0.9863 C   0  0  0  0  0  0  0  0  0  0  0  0
   -2.9136    2.7213    0.9593 C   0  0  0  0  0  0  0  0  0  0  0  0
   -2.0098    1.7261    0.4915 C   0  0  0  0  0  0  0  0  0  0  0  0
   -0.0371    1.3626   -0.4044 H   0  0  0  0  0  0  0  0  0  0  0  0
    0.6607    3.7900   -0.2696 H   0  0  0  0  0  0  0  0  0  0  0  0
   -3.2446    4.8758    1.3139 H   0  0  0  0  0  0  0  0  0  0  0  0
   -3.9236    2.4357    1.2410 H   0  0  0  0  0  0  0  0  0  0  0  0
   -3.0105   -7.3822   -0.2835 N   0  0  0  0  0  0  0  0  0  0  0  0
   -3.2585   -8.4571   -0.3514 N   0  0  0  0  0  0  0  0  0  0  0  0
   -2.4705    0.4843    0.5529 O   0  0  0  0  0  0  0  0  0  0  0  0
   -1.6325   -0.6240    0.1638 C   0  0  0  0  0  0  0  0  0  0  0  0
   -2.2470   -1.5105    0.3085 H   0  0  0  0  0  0  0  0  0  0  0  0
   -0.7452   -0.6757    0.8005 H   0  0  0  0  0  0  0  0  0  0  0  0
   -1.3522   -0.5358   -0.8908 H   0  0  0  0  0  0  0  0  0  0  0  0
  1  2  2  0  0  0  0
  1  6  1  0  0  0  0
  2  3  1  0  0  0  0
  3  4  2  0  0  0  0
  4  9  1  0  0  0  0
  5  4  1  0  0  0  0
  5 10  1  0  0  0  0
  6 13  1  0  0  0  0
  6  5  2  0  0  0  0
  7  1  1  0  0  0  0
  8  2  1  0  0  0  0
 12 11  3  0  0  0  0
 14 15  1  0  0  0  0
 14 13  1  0  0  0  0
 14 16  1  0  0  0  0
 17 14  1  0  0  0  0
M  RAD  1   3   2
M  END
