Coordinates from ORCA-job 4-MeO-Ph-N2+-B3LYPG-6-31G_dp-MTMO-d009-169-n900
 OpenBabel09051907383D

 17 16  0  0  0  0  0  0  0  0999 V2000
   -0.7491    1.9724   -0.0113 C   0  0  0  0  0  0  0  0  0  0  0  0
   -0.3517    3.3310    0.0176 C   0  0  0  0  0  0  0  0  0  0  0  0
   -1.4357    4.0522    0.3368 C   0  0  0  0  0  0  0  0  0  0  0  0
   -2.6047    3.9522    0.9905 C   0  0  0  0  0  0  0  0  0  0  0  0
   -2.9362    2.5819    0.9485 C   0  0  0  0  0  0  0  0  0  0  0  0
   -2.0246    1.5965    0.4751 C   0  0  0  0  0  0  0  0  0  0  0  0
   -0.0457    1.2532   -0.4153 H   0  0  0  0  0  0  0  0  0  0  0  0
    0.6373    3.6830   -0.2533 H   0  0  0  0  0  0  0  0  0  0  0  0
   -3.2813    4.7308    1.3227 H   0  0  0  0  0  0  0  0  0  0  0  0
   -3.9459    2.2878    1.2227 H   0  0  0  0  0  0  0  0  0  0  0  0
   -2.8985   -6.4330   -0.1847 N   0  0  0  0  0  0  0  0  0  0  0  0
   -3.1446   -7.5086   -0.2495 N   0  0  0  0  0  0  0  0  0  0  0  0
   -2.4784    0.3516    0.5225 O   0  0  0  0  0  0  0  0  0  0  0  0
   -1.6324   -0.7484    0.1266 C   0  0  0  0  0  0  0  0  0  0  0  0
   -2.2420   -1.6399    0.2609 H   0  0  0  0  0  0  0  0  0  0  0  0
   -0.7472   -0.8006    0.7662 H   0  0  0  0  0  0  0  0  0  0  0  0
   -1.3487   -0.6489   -0.9261 H   0  0  0  0  0  0  0  0  0  0  0  0
  1  2  2  0  0  0  0
  1  6  1  0  0  0  0
  2  3  1  0  0  0  0
  3  4  2  0  0  0  0
  4  9  1  0  0  0  0
  5  4  1  0  0  0  0
  5 10  1  0  0  0  0
  6 13  1  0  0  0  0
  6  5  2  0  0  0  0
  7  1  1  0  0  0  0
  8  2  1  0  0  0  0
 12 11  3  0  0  0  0
 14 15  1  0  0  0  0
 14 13  1  0  0  0  0
 14 16  1  0  0  0  0
 17 14  1  0  0  0  0
M  RAD  1   3   2
M  END
