Coordinates from ORCA-job 4-MeO-Ph-N2+-B3LYPG-6-31G_dp-MTMO-d009-169-n900
 OpenBabel09051907383D

 17 17  0  0  0  0  0  0  0  0999 V2000
   -1.9479   -0.2212    0.1522 C   0  0  0  0  0  0  0  0  0  0  0  0
   -0.6377   -0.2723   -0.2575 C   0  0  0  0  0  0  0  0  0  0  0  0
    0.1402    0.9229   -0.2713 C   0  0  0  0  0  0  0  0  0  0  0  0
   -0.4263    2.1725    0.1364 C   0  0  0  0  0  0  0  0  0  0  0  0
   -1.7319    2.2057    0.5417 C   0  0  0  0  0  0  0  0  0  0  0  0
   -2.5160    1.0169    0.5577 C   0  0  0  0  0  0  0  0  0  0  0  0
   -2.5358   -1.1303    0.1603 H   0  0  0  0  0  0  0  0  0  0  0  0
   -0.1880   -1.2084   -0.5710 H   0  0  0  0  0  0  0  0  0  0  0  0
    0.1818    3.0707    0.1193 H   0  0  0  0  0  0  0  0  0  0  0  0
   -2.1980    3.1317    0.8583 H   0  0  0  0  0  0  0  0  0  0  0  0
    1.3551    0.8760   -0.6512 N   0  0  0  0  0  0  0  0  0  0  0  0
    2.4290    0.8386   -0.9864 N   0  0  0  0  0  0  0  0  0  0  0  0
   -3.7588    1.1702    0.9640 O   0  0  0  0  0  0  0  0  0  0  0  0
   -4.6715    0.0504    1.0312 C   0  0  0  0  0  0  0  0  0  0  0  0
   -5.6093    0.4727    1.3854 H   0  0  0  0  0  0  0  0  0  0  0  0
   -4.3052   -0.6956    1.7415 H   0  0  0  0  0  0  0  0  0  0  0  0
   -4.8090   -0.3871    0.0391 H   0  0  0  0  0  0  0  0  0  0  0  0
  1  7  1  0  0  0  0
  1  6  2  0  0  0  0
  2  1  1  0  0  0  0
  3  2  2  0  0  0  0
  3  4  1  0  0  0  0
  4  5  2  0  0  0  0
  5  6  1  0  0  0  0
  5 10  1  0  0  0  0
  6 13  1  0  0  0  0
  8  2  1  0  0  0  0
  9  4  1  0  0  0  0
 11  3  1  0  0  0  0
 12 11  1  0  0  0  0
 13 14  1  0  0  0  0
 14 15  1  0  0  0  0
 14 16  1  0  0  0  0
 17 14  1  0  0  0  0
M  RAD  2  11   2  12   3
M  END
