Coordinates from ORCA-job 4-MeO-Ph-N2+-B3LYPG-6-31G_dp-MTMO-d009-169-n900
 OpenBabel09051907383D

 17 16  0  0  0  0  0  0  0  0999 V2000
   -0.6514    2.6416    0.0308 C   0  0  0  0  0  0  0  0  0  0  0  0
   -0.2704    4.0053    0.0184 C   0  0  0  0  0  0  0  0  0  0  0  0
   -1.3597    4.7213    0.3305 C   0  0  0  0  0  0  0  0  0  0  0  0
   -2.5207    4.6256    0.9986 C   0  0  0  0  0  0  0  0  0  0  0  0
   -2.8355    3.2507    0.9976 C   0  0  0  0  0  0  0  0  0  0  0  0
   -1.9169    2.2640    0.5412 C   0  0  0  0  0  0  0  0  0  0  0  0
    0.0565    1.9203   -0.3610 H   0  0  0  0  0  0  0  0  0  0  0  0
    0.7113    4.3617   -0.2727 H   0  0  0  0  0  0  0  0  0  0  0  0
   -3.2034    5.4048    1.3167 H   0  0  0  0  0  0  0  0  0  0  0  0
   -3.8385    2.9520    1.2906 H   0  0  0  0  0  0  0  0  0  0  0  0
   -3.6501  -11.4562   -0.6141 N   0  0  0  0  0  0  0  0  0  0  0  0
   -3.9657  -12.5122   -0.6964 N   0  0  0  0  0  0  0  0  0  0  0  0
   -2.3547    1.0153    0.6270 O   0  0  0  0  0  0  0  0  0  0  0  0
   -1.4993   -0.0841    0.2513 C   0  0  0  0  0  0  0  0  0  0  0  0
   -2.0971   -0.9787    0.4142 H   0  0  0  0  0  0  0  0  0  0  0  0
   -0.6076   -0.1097    0.8834 H   0  0  0  0  0  0  0  0  0  0  0  0
   -1.2264   -0.0084   -0.8064 H   0  0  0  0  0  0  0  0  0  0  0  0
  1  6  1  0  0  0  0
  2  1  2  0  0  0  0
  2  3  1  0  0  0  0
  3  4  2  0  0  0  0
  4  9  1  0  0  0  0
  5  4  1  0  0  0  0
  5 10  1  0  0  0  0
  6 13  1  0  0  0  0
  6  5  2  0  0  0  0
  7  1  1  0  0  0  0
  8  2  1  0  0  0  0
 12 11  3  0  0  0  0
 14 15  1  0  0  0  0
 14 13  1  0  0  0  0
 14 16  1  0  0  0  0
 17 14  1  0  0  0  0
M  RAD  1   3   2
M  END
