Coordinates from ORCA-job 4-MeO-Ph-N2+-B3LYPG-6-31G_dp-MTMO-d009-169-n900
 OpenBabel09051907383D

 17 16  0  0  0  0  0  0  0  0999 V2000
   -0.9445    1.4892   -0.0175 C   0  0  0  0  0  0  0  0  0  0  0  0
   -0.2999    2.7488   -0.0518 C   0  0  0  0  0  0  0  0  0  0  0  0
   -1.2191    3.6744    0.2606 C   0  0  0  0  0  0  0  0  0  0  0  0
   -2.3637    3.8168    0.9498 C   0  0  0  0  0  0  0  0  0  0  0  0
   -2.9476    2.5333    0.9699 C   0  0  0  0  0  0  0  0  0  0  0  0
   -2.2521    1.3773    0.5147 C   0  0  0  0  0  0  0  0  0  0  0  0
   -0.4028    0.6366   -0.4106 H   0  0  0  0  0  0  0  0  0  0  0  0
    0.7289    2.8988   -0.3597 H   0  0  0  0  0  0  0  0  0  0  0  0
   -2.8719    4.7196    1.2674 H   0  0  0  0  0  0  0  0  0  0  0  0
   -3.9859    2.4444    1.2782 H   0  0  0  0  0  0  0  0  0  0  0  0
   -1.5134   -4.2442   -0.3532 N   0  0  0  0  0  0  0  0  0  0  0  0
   -1.3432   -5.3255   -0.5043 N   0  0  0  0  0  0  0  0  0  0  0  0
   -2.9287    0.2434    0.6240 O   0  0  0  0  0  0  0  0  0  0  0  0
   -2.3172   -1.0133    0.2588 C   0  0  0  0  0  0  0  0  0  0  0  0
   -3.0795   -1.7670    0.4413 H   0  0  0  0  0  0  0  0  0  0  0  0
   -1.4422   -1.2095    0.8837 H   0  0  0  0  0  0  0  0  0  0  0  0
   -2.0468   -1.0099   -0.8016 H   0  0  0  0  0  0  0  0  0  0  0  0
  1  6  1  0  0  0  0
  2  1  2  0  0  0  0
  2  3  1  0  0  0  0
  3  4  2  0  0  0  0
  4  5  1  0  0  0  0
  4  9  1  0  0  0  0
  5 10  1  0  0  0  0
  6 13  1  0  0  0  0
  6  5  2  0  0  0  0
  7  1  1  0  0  0  0
  8  2  1  0  0  0  0
 12 11  3  0  0  0  0
 14 15  1  0  0  0  0
 14 13  1  0  0  0  0
 14 16  1  0  0  0  0
 17 14  1  0  0  0  0
M  RAD  1   3   2
M  END
