Coordinates from ORCA-job 4-MeO-Ph-N2+-B3LYPG-6-31G_dp-MTMO-d009-169-n900
 OpenBabel09051907383D

 17 16  0  0  0  0  0  0  0  0999 V2000
   -0.7511    1.9525   -0.0125 C   0  0  0  0  0  0  0  0  0  0  0  0
   -0.3572    3.3121    0.0196 C   0  0  0  0  0  0  0  0  0  0  0  0
   -1.4434    4.0301    0.3389 C   0  0  0  0  0  0  0  0  0  0  0  0
   -2.6126    3.9257    0.9915 C   0  0  0  0  0  0  0  0  0  0  0  0
   -2.9406    2.5547    0.9464 C   0  0  0  0  0  0  0  0  0  0  0  0
   -2.0261    1.5725    0.4719 C   0  0  0  0  0  0  0  0  0  0  0  0
   -0.0455    1.2360   -0.4172 H   0  0  0  0  0  0  0  0  0  0  0  0
    0.6312    3.6671   -0.2496 H   0  0  0  0  0  0  0  0  0  0  0  0
   -3.2916    4.7019    1.3245 H   0  0  0  0  0  0  0  0  0  0  0  0
   -3.9498    2.2575    1.2190 H   0  0  0  0  0  0  0  0  0  0  0  0
   -2.8841   -6.2612   -0.1659 N   0  0  0  0  0  0  0  0  0  0  0  0
   -3.1315   -7.3365   -0.2288 N   0  0  0  0  0  0  0  0  0  0  0  0
   -2.4769    0.3264    0.5163 O   0  0  0  0  0  0  0  0  0  0  0  0
   -1.6280   -0.7708    0.1189 C   0  0  0  0  0  0  0  0  0  0  0  0
   -2.2355   -1.6641    0.2508 H   0  0  0  0  0  0  0  0  0  0  0  0
   -0.7432   -0.8221    0.7592 H   0  0  0  0  0  0  0  0  0  0  0  0
   -1.3436   -0.6684   -0.9334 H   0  0  0  0  0  0  0  0  0  0  0  0
  1  2  2  0  0  0  0
  1  6  1  0  0  0  0
  2  3  1  0  0  0  0
  3  4  2  0  0  0  0
  4  9  1  0  0  0  0
  5  4  1  0  0  0  0
  5 10  1  0  0  0  0
  6 13  1  0  0  0  0
  6  5  2  0  0  0  0
  7  1  1  0  0  0  0
  8  2  1  0  0  0  0
 12 11  3  0  0  0  0
 14 15  1  0  0  0  0
 14 13  1  0  0  0  0
 14 16  1  0  0  0  0
 17 14  1  0  0  0  0
M  RAD  1   3   2
M  END
