Coordinates from ORCA-job 4-MeO-Ph-N2+-B3LYPG-6-31G_dp-MTMO-d009-169-n900
 OpenBabel09051907383D

 17 16  0  0  0  0  0  0  0  0999 V2000
   -0.7314    2.1120   -0.0031 C   0  0  0  0  0  0  0  0  0  0  0  0
   -0.3260    3.4685    0.0084 C   0  0  0  0  0  0  0  0  0  0  0  0
   -1.4041    4.1992    0.3255 C   0  0  0  0  0  0  0  0  0  0  0  0
   -2.5704    4.1136    0.9859 C   0  0  0  0  0  0  0  0  0  0  0  0
   -2.9099    2.7448    0.9611 C   0  0  0  0  0  0  0  0  0  0  0  0
   -2.0064    1.7490    0.4941 C   0  0  0  0  0  0  0  0  0  0  0  0
   -0.0342    1.3843   -0.4025 H   0  0  0  0  0  0  0  0  0  0  0  0
    0.6636    3.8118   -0.2717 H   0  0  0  0  0  0  0  0  0  0  0  0
   -3.2407    4.8998    1.3128 H   0  0  0  0  0  0  0  0  0  0  0  0
   -3.9197    2.4596    1.2439 H   0  0  0  0  0  0  0  0  0  0  0  0
   -3.0350   -7.5528   -0.2997 N   0  0  0  0  0  0  0  0  0  0  0  0
   -3.2841   -8.6274   -0.3679 N   0  0  0  0  0  0  0  0  0  0  0  0
   -2.4670    0.5073    0.5576 O   0  0  0  0  0  0  0  0  0  0  0  0
   -1.6293   -0.6015    0.1695 C   0  0  0  0  0  0  0  0  0  0  0  0
   -2.2437   -1.4878    0.3156 H   0  0  0  0  0  0  0  0  0  0  0  0
   -0.7416   -0.6524    0.8057 H   0  0  0  0  0  0  0  0  0  0  0  0
   -1.3495   -0.5147   -0.8855 H   0  0  0  0  0  0  0  0  0  0  0  0
  1  2  2  0  0  0  0
  1  6  1  0  0  0  0
  2  3  1  0  0  0  0
  3  4  2  0  0  0  0
  4  9  1  0  0  0  0
  5  4  1  0  0  0  0
  5 10  1  0  0  0  0
  6 13  1  0  0  0  0
  6  5  2  0  0  0  0
  7  1  1  0  0  0  0
  8  2  1  0  0  0  0
 12 11  3  0  0  0  0
 14 15  1  0  0  0  0
 14 13  1  0  0  0  0
 14 16  1  0  0  0  0
 17 14  1  0  0  0  0
M  RAD  1   3   2
M  END
