Coordinates from ORCA-job 4-MeO-Ph-N2+-B3LYPG-6-31G_dp-MTMO-d009-169-n900
 OpenBabel09051907383D

 17 16  0  0  0  0  0  0  0  0999 V2000
   -0.7137    2.2338    0.0040 C   0  0  0  0  0  0  0  0  0  0  0  0
   -0.3120    3.5915    0.0057 C   0  0  0  0  0  0  0  0  0  0  0  0
   -1.3912    4.3211    0.3213 C   0  0  0  0  0  0  0  0  0  0  0  0
   -2.5555    4.2367    0.9853 C   0  0  0  0  0  0  0  0  0  0  0  0
   -2.8912    2.8668    0.9702 C   0  0  0  0  0  0  0  0  0  0  0  0
   -1.9863    1.8706    0.5070 C   0  0  0  0  0  0  0  0  0  0  0  0
   -0.0156    1.5055   -0.3926 H   0  0  0  0  0  0  0  0  0  0  0  0
    0.6759    3.9357   -0.2792 H   0  0  0  0  0  0  0  0  0  0  0  0
   -3.2271    5.0232    1.3090 H   0  0  0  0  0  0  0  0  0  0  0  0
   -3.8995    2.5807    1.2575 H   0  0  0  0  0  0  0  0  0  0  0  0
   -3.1763   -8.4669   -0.3820 N   0  0  0  0  0  0  0  0  0  0  0  0
   -3.4335   -9.5395   -0.4519 N   0  0  0  0  0  0  0  0  0  0  0  0
   -2.4434    0.6280    0.5796 O   0  0  0  0  0  0  0  0  0  0  0  0
   -1.6036   -0.4808    0.1961 C   0  0  0  0  0  0  0  0  0  0  0  0
   -2.2154   -1.3678    0.3491 H   0  0  0  0  0  0  0  0  0  0  0  0
   -0.7143   -0.5257    0.8305 H   0  0  0  0  0  0  0  0  0  0  0  0
   -1.3266   -0.3995   -0.8600 H   0  0  0  0  0  0  0  0  0  0  0  0
  1  2  2  0  0  0  0
  1  6  1  0  0  0  0
  2  3  1  0  0  0  0
  3  4  2  0  0  0  0
  4  9  1  0  0  0  0
  5  4  1  0  0  0  0
  5 10  1  0  0  0  0
  6 13  1  0  0  0  0
  6  5  2  0  0  0  0
  7  1  1  0  0  0  0
  8  2  1  0  0  0  0
 12 11  3  0  0  0  0
 14 15  1  0  0  0  0
 14 13  1  0  0  0  0
 14 16  1  0  0  0  0
 17 14  1  0  0  0  0
M  RAD  1   3   2
M  END
