Coordinates from ORCA-job 4-MeO-Ph-N2+-B3LYPG-6-31G_dp-MTMO-d009-169-n900
 OpenBabel09051907383D

 17 16  0  0  0  0  0  0  0  0999 V2000
   -0.7546    1.7844   -0.0269 C   0  0  0  0  0  0  0  0  0  0  0  0
   -0.4449    3.1628    0.0609 C   0  0  0  0  0  0  0  0  0  0  0  0
   -1.5774    3.8037    0.3857 C   0  0  0  0  0  0  0  0  0  0  0  0
   -2.7456    3.6027    1.0184 C   0  0  0  0  0  0  0  0  0  0  0  0
   -2.9896    2.2175    0.9191 C   0  0  0  0  0  0  0  0  0  0  0  0
   -2.0106    1.3097    0.4239 C   0  0  0  0  0  0  0  0  0  0  0  0
   -0.0021    1.1274   -0.4478 H   0  0  0  0  0  0  0  0  0  0  0  0
    0.5239    3.5860   -0.1797 H   0  0  0  0  0  0  0  0  0  0  0  0
   -3.4750    4.3237    1.3685 H   0  0  0  0  0  0  0  0  0  0  0  0
   -3.9825    1.8501    1.1644 H   0  0  0  0  0  0  0  0  0  0  0  0
   -2.8920   -4.4977    0.0779 N   0  0  0  0  0  0  0  0  0  0  0  0
   -3.2612   -5.5391    0.0851 N   0  0  0  0  0  0  0  0  0  0  0  0
   -2.3843    0.0385    0.4175 O   0  0  0  0  0  0  0  0  0  0  0  0
   -1.4634   -0.9912   -0.0041 C   0  0  0  0  0  0  0  0  0  0  0  0
   -2.0128   -1.9262    0.0880 H   0  0  0  0  0  0  0  0  0  0  0  0
   -0.5847   -1.0065    0.6465 H   0  0  0  0  0  0  0  0  0  0  0  0
   -1.1728   -0.8324   -1.0478 H   0  0  0  0  0  0  0  0  0  0  0  0
  1  2  2  0  0  0  0
  1  6  1  0  0  0  0
  2  3  1  0  0  0  0
  3  4  2  0  0  0  0
  4  9  1  0  0  0  0
  5  4  1  0  0  0  0
  5 10  1  0  0  0  0
  6  5  2  0  0  0  0
  7  1  1  0  0  0  0
  8  2  1  0  0  0  0
 11 12  3  0  0  0  0
 13  6  1  0  0  0  0
 14 15  1  0  0  0  0
 14 13  1  0  0  0  0
 14 16  1  0  0  0  0
 17 14  1  0  0  0  0
M  RAD  1   3   2
M  END
