Coordinates from ORCA-job 4-MeO-Ph-N2+-B3LYPG-6-31G_dp-MTMO-d009-169-n900
 OpenBabel09051907383D

 17 16  0  0  0  0  0  0  0  0999 V2000
   -0.6576    2.6012    0.0280 C   0  0  0  0  0  0  0  0  0  0  0  0
   -0.2745    3.9642    0.0160 C   0  0  0  0  0  0  0  0  0  0  0  0
   -1.3627    4.6819    0.3284 C   0  0  0  0  0  0  0  0  0  0  0  0
   -2.5238    4.5878    0.9965 C   0  0  0  0  0  0  0  0  0  0  0  0
   -2.8408    3.2133    0.9950 C   0  0  0  0  0  0  0  0  0  0  0  0
   -1.9237    2.2254    0.5382 C   0  0  0  0  0  0  0  0  0  0  0  0
    0.0491    1.8789   -0.3641 H   0  0  0  0  0  0  0  0  0  0  0  0
    0.7077    4.3193   -0.2749 H   0  0  0  0  0  0  0  0  0  0  0  0
   -3.2053    5.3679    1.3148 H   0  0  0  0  0  0  0  0  0  0  0  0
   -3.8443    2.9162    1.2879 H   0  0  0  0  0  0  0  0  0  0  0  0
   -3.6031  -11.1620   -0.5922 N   0  0  0  0  0  0  0  0  0  0  0  0
   -3.9129  -12.2197   -0.6741 N   0  0  0  0  0  0  0  0  0  0  0  0
   -2.3635    0.9774    0.6235 O   0  0  0  0  0  0  0  0  0  0  0  0
   -1.5098   -0.1232    0.2474 C   0  0  0  0  0  0  0  0  0  0  0  0
   -2.1091   -1.0170    0.4100 H   0  0  0  0  0  0  0  0  0  0  0  0
   -0.6182   -0.1506    0.8796 H   0  0  0  0  0  0  0  0  0  0  0  0
   -1.2369   -0.0476   -0.8102 H   0  0  0  0  0  0  0  0  0  0  0  0
  1  6  1  0  0  0  0
  2  1  2  0  0  0  0
  2  3  1  0  0  0  0
  3  4  2  0  0  0  0
  4  9  1  0  0  0  0
  5  4  1  0  0  0  0
  5 10  1  0  0  0  0
  6 13  1  0  0  0  0
  6  5  2  0  0  0  0
  7  1  1  0  0  0  0
  8  2  1  0  0  0  0
 12 11  3  0  0  0  0
 14 15  1  0  0  0  0
 14 13  1  0  0  0  0
 14 16  1  0  0  0  0
 17 14  1  0  0  0  0
M  RAD  1   3   2
M  END
