Coordinates from ORCA-job 4-MeO-Ph-N2+-B3LYPG-6-31G_dp-MTMO-d009-169-n900
 OpenBabel09051907383D

 17 16  0  0  0  0  0  0  0  0999 V2000
   -0.6891    2.3962    0.0142 C   0  0  0  0  0  0  0  0  0  0  0  0
   -0.2960    3.7564    0.0077 C   0  0  0  0  0  0  0  0  0  0  0  0
   -1.3792    4.4808    0.3216 C   0  0  0  0  0  0  0  0  0  0  0  0
   -2.5416    4.3928    0.9883 C   0  0  0  0  0  0  0  0  0  0  0  0
   -2.8687    3.0207    0.9813 C   0  0  0  0  0  0  0  0  0  0  0  0
   -1.9584    2.0277    0.5217 C   0  0  0  0  0  0  0  0  0  0  0  0
    0.0127    1.6701   -0.3799 H   0  0  0  0  0  0  0  0  0  0  0  0
    0.6891    4.1053   -0.2810 H   0  0  0  0  0  0  0  0  0  0  0  0
   -3.2177    5.1767    1.3090 H   0  0  0  0  0  0  0  0  0  0  0  0
   -3.8746    2.7298    1.2722 H   0  0  0  0  0  0  0  0  0  0  0  0
   -3.3684   -9.6590   -0.4790 N   0  0  0  0  0  0  0  0  0  0  0  0
   -3.6435  -10.7270   -0.5531 N   0  0  0  0  0  0  0  0  0  0  0  0
   -2.4075    0.7827    0.6020 O   0  0  0  0  0  0  0  0  0  0  0  0
   -1.5615   -0.3228    0.2226 C   0  0  0  0  0  0  0  0  0  0  0  0
   -2.1674   -1.2127    0.3812 H   0  0  0  0  0  0  0  0  0  0  0  0
   -0.6707   -0.3590    0.8555 H   0  0  0  0  0  0  0  0  0  0  0  0
   -1.2869   -0.2452   -0.8345 H   0  0  0  0  0  0  0  0  0  0  0  0
  1  6  1  0  0  0  0
  2  1  2  0  0  0  0
  2  3  1  0  0  0  0
  3  4  2  0  0  0  0
  4  9  1  0  0  0  0
  5  4  1  0  0  0  0
  5 10  1  0  0  0  0
  6 13  1  0  0  0  0
  6  5  2  0  0  0  0
  7  1  1  0  0  0  0
  8  2  1  0  0  0  0
 12 11  3  0  0  0  0
 14 15  1  0  0  0  0
 14 13  1  0  0  0  0
 14 16  1  0  0  0  0
 17 14  1  0  0  0  0
M  RAD  1   3   2
M  END
