Coordinates from ORCA-job 4-MeO-Ph-N2+-B3LYPG-6-31G_dp-MTMO-d009-169-n900
 OpenBabel09051907383D

 17 16  0  0  0  0  0  0  0  0999 V2000
   -1.6390    0.6559    0.1125 C   0  0  0  0  0  0  0  0  0  0  0  0
   -0.4180    1.3324   -0.1312 C   0  0  0  0  0  0  0  0  0  0  0  0
   -0.6613    2.6399    0.0311 C   0  0  0  0  0  0  0  0  0  0  0  0
   -1.4826    3.4832    0.6780 C   0  0  0  0  0  0  0  0  0  0  0  0
   -2.6640    2.7495    0.9114 C   0  0  0  0  0  0  0  0  0  0  0  0
   -2.7460    1.3528    0.6538 C   0  0  0  0  0  0  0  0  0  0  0  0
   -1.6817   -0.3977   -0.1399 H   0  0  0  0  0  0  0  0  0  0  0  0
    0.4897    0.8429   -0.4674 H   0  0  0  0  0  0  0  0  0  0  0  0
   -1.3853    4.5493    0.8475 H   0  0  0  0  0  0  0  0  0  0  0  0
   -3.5499    3.2875    1.2386 H   0  0  0  0  0  0  0  0  0  0  0  0
    2.2063   -2.4510   -1.2885 N   0  0  0  0  0  0  0  0  0  0  0  0
    2.8398   -3.3153   -1.5586 N   0  0  0  0  0  0  0  0  0  0  0  0
   -3.9155    0.8002    0.9469 O   0  0  0  0  0  0  0  0  0  0  0  0
   -4.1042   -0.6222    0.8011 C   0  0  0  0  0  0  0  0  0  0  0  0
   -5.1319   -0.8070    1.1066 H   0  0  0  0  0  0  0  0  0  0  0  0
   -3.4166   -1.1687    1.4523 H   0  0  0  0  0  0  0  0  0  0  0  0
   -3.9693   -0.9182   -0.2444 H   0  0  0  0  0  0  0  0  0  0  0  0
  1  6  2  0  0  0  0
  2  3  2  0  0  0  0
  2  1  1  0  0  0  0
  3  4  1  0  0  0  0
  4  9  1  0  0  0  0
  4  5  2  0  0  0  0
  5 10  1  0  0  0  0
  6  5  1  0  0  0  0
  6 13  1  0  0  0  0
  7  1  1  0  0  0  0
  8  2  1  0  0  0  0
 12 11  3  0  0  0  0
 14 13  1  0  0  0  0
 14 15  1  0  0  0  0
 14 16  1  0  0  0  0
 17 14  1  0  0  0  0
M  RAD  1   3   2
M  END
