Coordinates from ORCA-job 4-MeO-Ph-N2+-B3LYPG-6-31G_dp-MTMO-d009-169-n900
 OpenBabel09051907383D

 17 16  0  0  0  0  0  0  0  0999 V2000
   -0.7487    1.9760   -0.0111 C   0  0  0  0  0  0  0  0  0  0  0  0
   -0.3508    3.3345    0.0172 C   0  0  0  0  0  0  0  0  0  0  0  0
   -1.4344    4.0563    0.3363 C   0  0  0  0  0  0  0  0  0  0  0  0
   -2.6033    3.9570    0.9902 C   0  0  0  0  0  0  0  0  0  0  0  0
   -2.9354    2.5868    0.9488 C   0  0  0  0  0  0  0  0  0  0  0  0
   -2.0243    1.6008    0.4757 C   0  0  0  0  0  0  0  0  0  0  0  0
   -0.0457    1.2564   -0.4149 H   0  0  0  0  0  0  0  0  0  0  0  0
    0.6383    3.6860   -0.2540 H   0  0  0  0  0  0  0  0  0  0  0  0
   -3.2796    4.7360    1.3223 H   0  0  0  0  0  0  0  0  0  0  0  0
   -3.9451    2.2932    1.2234 H   0  0  0  0  0  0  0  0  0  0  0  0
   -2.9013   -6.4643   -0.1883 N   0  0  0  0  0  0  0  0  0  0  0  0
   -3.1473   -7.5398   -0.2533 N   0  0  0  0  0  0  0  0  0  0  0  0
   -2.4785    0.3562    0.5236 O   0  0  0  0  0  0  0  0  0  0  0  0
   -1.6331   -0.7443    0.1280 C   0  0  0  0  0  0  0  0  0  0  0  0
   -2.2430   -1.6355    0.2627 H   0  0  0  0  0  0  0  0  0  0  0  0
   -0.7478   -0.7966    0.7676 H   0  0  0  0  0  0  0  0  0  0  0  0
   -1.3495   -0.6453   -0.9248 H   0  0  0  0  0  0  0  0  0  0  0  0
  1  2  2  0  0  0  0
  1  6  1  0  0  0  0
  2  3  1  0  0  0  0
  3  4  2  0  0  0  0
  4  9  1  0  0  0  0
  5  4  1  0  0  0  0
  5 10  1  0  0  0  0
  6 13  1  0  0  0  0
  6  5  2  0  0  0  0
  7  1  1  0  0  0  0
  8  2  1  0  0  0  0
 12 11  3  0  0  0  0
 14 15  1  0  0  0  0
 14 13  1  0  0  0  0
 14 16  1  0  0  0  0
 17 14  1  0  0  0  0
M  RAD  1   3   2
M  END
