Coordinates from ORCA-job 4-MeO-Ph-N2+-B3LYPG-6-31G_dp-MTMO-d009-169-n900
 OpenBabel09051907383D

 17 16  0  0  0  0  0  0  0  0999 V2000
   -2.1137   -0.1988    0.1366 C   0  0  0  0  0  0  0  0  0  0  0  0
   -0.7619   -0.2726   -0.2898 C   0  0  0  0  0  0  0  0  0  0  0  0
   -0.2990    0.9805   -0.3130 C   0  0  0  0  0  0  0  0  0  0  0  0
   -0.5410    2.2129    0.1586 C   0  0  0  0  0  0  0  0  0  0  0  0
   -1.8870    2.2080    0.5797 C   0  0  0  0  0  0  0  0  0  0  0  0
   -2.6669    1.0222    0.5855 C   0  0  0  0  0  0  0  0  0  0  0  0
   -2.6931   -1.1141    0.0857 H   0  0  0  0  0  0  0  0  0  0  0  0
   -0.2692   -1.1874   -0.5945 H   0  0  0  0  0  0  0  0  0  0  0  0
    0.0864    3.0950    0.1323 H   0  0  0  0  0  0  0  0  0  0  0  0
   -2.3402    3.1525    0.8673 H   0  0  0  0  0  0  0  0  0  0  0  0
    2.4615    0.8321   -0.8806 N   0  0  0  0  0  0  0  0  0  0  0  0
    3.5330    0.7879   -1.1453 N   0  0  0  0  0  0  0  0  0  0  0  0
   -3.9142    1.1726    1.0212 O   0  0  0  0  0  0  0  0  0  0  0  0
   -4.7833    0.0296    1.1269 C   0  0  0  0  0  0  0  0  0  0  0  0
   -5.7256    0.4193    1.5064 H   0  0  0  0  0  0  0  0  0  0  0  0
   -4.3740   -0.7025    1.8299 H   0  0  0  0  0  0  0  0  0  0  0  0
   -4.9415   -0.4238    0.1429 H   0  0  0  0  0  0  0  0  0  0  0  0
  1  6  2  0  0  0  0
  2  1  1  0  0  0  0
  3  2  2  0  0  0  0
  3  4  1  0  0  0  0
  4  5  2  0  0  0  0
  5  6  1  0  0  0  0
  5 10  1  0  0  0  0
  6 13  1  0  0  0  0
  7  1  1  0  0  0  0
  8  2  1  0  0  0  0
  9  4  1  0  0  0  0
 12 11  3  0  0  0  0
 13 14  1  0  0  0  0
 14 15  1  0  0  0  0
 14 16  1  0  0  0  0
 17 14  1  0  0  0  0
M  RAD  1   3   2
M  END
