Coordinates from ORCA-job 4-MeO-Ph-N2+-B3LYPG-6-31G_dp-MTMO-d009-169-n900
 OpenBabel09051907383D

 17 16  0  0  0  0  0  0  0  0999 V2000
   -0.6478    2.6649    0.0325 C   0  0  0  0  0  0  0  0  0  0  0  0
   -0.2679    4.0289    0.0198 C   0  0  0  0  0  0  0  0  0  0  0  0
   -1.3577    4.7441    0.3318 C   0  0  0  0  0  0  0  0  0  0  0  0
   -2.5186    4.6476    0.9999 C   0  0  0  0  0  0  0  0  0  0  0  0
   -2.8324    3.2724    0.9991 C   0  0  0  0  0  0  0  0  0  0  0  0
   -1.9129    2.2864    0.5429 C   0  0  0  0  0  0  0  0  0  0  0  0
    0.0607    1.9441   -0.3592 H   0  0  0  0  0  0  0  0  0  0  0  0
    0.7135    4.3861   -0.2713 H   0  0  0  0  0  0  0  0  0  0  0  0
   -3.2020    5.4263    1.3178 H   0  0  0  0  0  0  0  0  0  0  0  0
   -3.8352    2.9730    1.2922 H   0  0  0  0  0  0  0  0  0  0  0  0
   -3.6773  -11.6265   -0.6267 N   0  0  0  0  0  0  0  0  0  0  0  0
   -3.9958  -12.6816   -0.7094 N   0  0  0  0  0  0  0  0  0  0  0  0
   -2.3498    1.0374    0.6289 O   0  0  0  0  0  0  0  0  0  0  0  0
   -1.4934   -0.0614    0.2535 C   0  0  0  0  0  0  0  0  0  0  0  0
   -2.0905   -0.9565    0.4166 H   0  0  0  0  0  0  0  0  0  0  0  0
   -0.6017   -0.0862    0.8856 H   0  0  0  0  0  0  0  0  0  0  0  0
   -1.2207    0.0143   -0.8042 H   0  0  0  0  0  0  0  0  0  0  0  0
  1  6  1  0  0  0  0
  2  1  2  0  0  0  0
  2  3  1  0  0  0  0
  3  4  2  0  0  0  0
  4  9  1  0  0  0  0
  5  4  1  0  0  0  0
  5 10  1  0  0  0  0
  6 13  1  0  0  0  0
  6  5  2  0  0  0  0
  7  1  1  0  0  0  0
  8  2  1  0  0  0  0
 12 11  3  0  0  0  0
 14 15  1  0  0  0  0
 14 13  1  0  0  0  0
 14 16  1  0  0  0  0
 17 14  1  0  0  0  0
M  RAD  1   3   2
M  END
