Coordinates from ORCA-job 4-MeO-Ph-N2+-B3LYPG-6-31G_dp-MTMO-d009-169-n900
 OpenBabel09051907383D

 17 16  0  0  0  0  0  0  0  0999 V2000
   -0.7554    1.8989   -0.0150 C   0  0  0  0  0  0  0  0  0  0  0  0
   -0.3720    3.2609    0.0341 C   0  0  0  0  0  0  0  0  0  0  0  0
   -1.4650    3.9679    0.3550 C   0  0  0  0  0  0  0  0  0  0  0  0
   -2.6365    3.8472    1.0009 C   0  0  0  0  0  0  0  0  0  0  0  0
   -2.9542    2.4744    0.9391 C   0  0  0  0  0  0  0  0  0  0  0  0
   -2.0300    1.5040    0.4587 C   0  0  0  0  0  0  0  0  0  0  0  0
   -0.0424    1.1921   -0.4239 H   0  0  0  0  0  0  0  0  0  0  0  0
    0.6152    3.6261   -0.2259 H   0  0  0  0  0  0  0  0  0  0  0  0
   -3.3231    4.6145    1.3390 H   0  0  0  0  0  0  0  0  0  0  0  0
   -3.9625    2.1669    1.2032 H   0  0  0  0  0  0  0  0  0  0  0  0
   -2.8502   -5.7756   -0.1026 N   0  0  0  0  0  0  0  0  0  0  0  0
   -3.1000   -6.8512   -0.1491 N   0  0  0  0  0  0  0  0  0  0  0  0
   -2.4717    0.2543    0.4878 O   0  0  0  0  0  0  0  0  0  0  0  0
   -1.6128   -0.8330    0.0835 C   0  0  0  0  0  0  0  0  0  0  0  0
   -2.2135   -1.7324    0.2044 H   0  0  0  0  0  0  0  0  0  0  0  0
   -0.7303   -0.8835    0.7269 H   0  0  0  0  0  0  0  0  0  0  0  0
   -1.3250   -0.7181   -0.9665 H   0  0  0  0  0  0  0  0  0  0  0  0
  1  2  2  0  0  0  0
  1  6  1  0  0  0  0
  2  3  1  0  0  0  0
  3  4  2  0  0  0  0
  4  9  1  0  0  0  0
  5  4  1  0  0  0  0
  5 10  1  0  0  0  0
  6 13  1  0  0  0  0
  6  5  2  0  0  0  0
  7  1  1  0  0  0  0
  8  2  1  0  0  0  0
 12 11  3  0  0  0  0
 14 15  1  0  0  0  0
 14 13  1  0  0  0  0
 14 16  1  0  0  0  0
 17 14  1  0  0  0  0
M  RAD  1   3   2
M  END
