Coordinates from ORCA-job 4-MeO-Ph-N2+-B3LYPG-6-31G_dp-MTMO-d009-169-n900
 OpenBabel09051907383D

 17 16  0  0  0  0  0  0  0  0999 V2000
   -1.1210    1.1553    0.0137 C   0  0  0  0  0  0  0  0  0  0  0  0
   -0.2500    2.2657   -0.0936 C   0  0  0  0  0  0  0  0  0  0  0  0
   -0.9716    3.3650    0.1722 C   0  0  0  0  0  0  0  0  0  0  0  0
   -2.0572    3.7604    0.8578 C   0  0  0  0  0  0  0  0  0  0  0  0
   -2.8736    2.6143    0.9516 C   0  0  0  0  0  0  0  0  0  0  0  0
   -2.4176    1.3247    0.5572 C   0  0  0  0  0  0  0  0  0  0  0  0
   -0.7566    0.1939   -0.3315 H   0  0  0  0  0  0  0  0  0  0  0  0
    0.7839    2.2007   -0.4134 H   0  0  0  0  0  0  0  0  0  0  0  0
   -2.3803    4.7590    1.1269 H   0  0  0  0  0  0  0  0  0  0  0  0
   -3.9053    2.7414    1.2684 H   0  0  0  0  0  0  0  0  0  0  0  0
   -0.4527   -3.3273   -0.5892 N   0  0  0  0  0  0  0  0  0  0  0  0
    0.0049   -4.3098   -0.8044 N   0  0  0  0  0  0  0  0  0  0  0  0
   -3.2961    0.3477    0.7306 O   0  0  0  0  0  0  0  0  0  0  0  0
   -2.9340   -1.0165    0.4277 C   0  0  0  0  0  0  0  0  0  0  0  0
   -3.8221   -1.6035    0.6534 H   0  0  0  0  0  0  0  0  0  0  0  0
   -2.0995   -1.3408    1.0543 H   0  0  0  0  0  0  0  0  0  0  0  0
   -2.6807   -1.1167   -0.6321 H   0  0  0  0  0  0  0  0  0  0  0  0
  1  6  1  0  0  0  0
  2  1  2  0  0  0  0
  2  3  1  0  0  0  0
  3  4  2  0  0  0  0
  4  5  1  0  0  0  0
  4  9  1  0  0  0  0
  5 10  1  0  0  0  0
  6 13  1  0  0  0  0
  6  5  2  0  0  0  0
  7  1  1  0  0  0  0
  8  2  1  0  0  0  0
 12 11  3  0  0  0  0
 14 15  1  0  0  0  0
 14 13  1  0  0  0  0
 14 16  1  0  0  0  0
 17 14  1  0  0  0  0
M  RAD  1   3   2
M  END
