Coordinates from ORCA-job 4-MeO-Ph-N2+-B3LYPG-6-31G_dp-MTMO-d009-169-n900
 OpenBabel09051907383D

 17 16  0  0  0  0  0  0  0  0999 V2000
   -0.7447    2.0114   -0.0090 C   0  0  0  0  0  0  0  0  0  0  0  0
   -0.3426    3.3688    0.0139 C   0  0  0  0  0  0  0  0  0  0  0  0
   -1.4235    4.0948    0.3324 C   0  0  0  0  0  0  0  0  0  0  0  0
   -2.5917    4.0014    0.9885 C   0  0  0  0  0  0  0  0  0  0  0  0
   -2.9279    2.6321    0.9524 C   0  0  0  0  0  0  0  0  0  0  0  0
   -2.0206    1.6418    0.4812 C   0  0  0  0  0  0  0  0  0  0  0  0
   -0.0445    1.2883   -0.4114 H   0  0  0  0  0  0  0  0  0  0  0  0
    0.6471    3.7164   -0.2602 H   0  0  0  0  0  0  0  0  0  0  0  0
   -3.2650    4.7836    1.3189 H   0  0  0  0  0  0  0  0  0  0  0  0
   -3.9381    2.3424    1.2297 H   0  0  0  0  0  0  0  0  0  0  0  0
   -2.9312   -6.7605   -0.2207 N   0  0  0  0  0  0  0  0  0  0  0  0
   -3.1768   -7.8360   -0.2874 N   0  0  0  0  0  0  0  0  0  0  0  0
   -2.4784    0.3986    0.5341 O   0  0  0  0  0  0  0  0  0  0  0  0
   -1.6369   -0.7056    0.1410 C   0  0  0  0  0  0  0  0  0  0  0  0
   -2.2494   -1.5944    0.2794 H   0  0  0  0  0  0  0  0  0  0  0  0
   -0.7509   -0.7586    0.7794 H   0  0  0  0  0  0  0  0  0  0  0  0
   -1.3544   -0.6109   -0.9126 H   0  0  0  0  0  0  0  0  0  0  0  0
  1  2  2  0  0  0  0
  1  6  1  0  0  0  0
  2  3  1  0  0  0  0
  3  4  2  0  0  0  0
  4  9  1  0  0  0  0
  5  4  1  0  0  0  0
  5 10  1  0  0  0  0
  6 13  1  0  0  0  0
  6  5  2  0  0  0  0
  7  1  1  0  0  0  0
  8  2  1  0  0  0  0
 12 11  3  0  0  0  0
 14 15  1  0  0  0  0
 14 13  1  0  0  0  0
 14 16  1  0  0  0  0
 17 14  1  0  0  0  0
M  RAD  1   3   2
M  END
