Coordinates from ORCA-job 4-MeO-Ph-N2+-B3LYPG-6-31G_dp-MTMO-d009-169-n900
 OpenBabel09051907383D

 17 16  0  0  0  0  0  0  0  0999 V2000
   -0.6455    2.6797    0.0335 C   0  0  0  0  0  0  0  0  0  0  0  0
   -0.2662    4.0439    0.0207 C   0  0  0  0  0  0  0  0  0  0  0  0
   -1.3564    4.7586    0.3326 C   0  0  0  0  0  0  0  0  0  0  0  0
   -2.5173    4.6617    1.0007 C   0  0  0  0  0  0  0  0  0  0  0  0
   -2.8304    3.2863    1.0001 C   0  0  0  0  0  0  0  0  0  0  0  0
   -1.9105    2.3007    0.5440 C   0  0  0  0  0  0  0  0  0  0  0  0
    0.0634    1.9592   -0.3581 H   0  0  0  0  0  0  0  0  0  0  0  0
    0.7150    4.4015   -0.2705 H   0  0  0  0  0  0  0  0  0  0  0  0
   -3.2010    5.4401    1.3185 H   0  0  0  0  0  0  0  0  0  0  0  0
   -3.8330    2.9865    1.2932 H   0  0  0  0  0  0  0  0  0  0  0  0
   -3.6945  -11.7349   -0.6347 N   0  0  0  0  0  0  0  0  0  0  0  0
   -4.0148  -12.7895   -0.7176 N   0  0  0  0  0  0  0  0  0  0  0  0
   -2.3467    1.0515    0.6302 O   0  0  0  0  0  0  0  0  0  0  0  0
   -1.4898   -0.0470    0.2548 C   0  0  0  0  0  0  0  0  0  0  0  0
   -2.0865   -0.9423    0.4181 H   0  0  0  0  0  0  0  0  0  0  0  0
   -0.5981   -0.0713    0.8870 H   0  0  0  0  0  0  0  0  0  0  0  0
   -1.2171    0.0287   -0.8028 H   0  0  0  0  0  0  0  0  0  0  0  0
  1  6  1  0  0  0  0
  2  1  2  0  0  0  0
  2  3  1  0  0  0  0
  3  4  2  0  0  0  0
  4  9  1  0  0  0  0
  5  4  1  0  0  0  0
  5 10  1  0  0  0  0
  6 13  1  0  0  0  0
  6  5  2  0  0  0  0
  7  1  1  0  0  0  0
  8  2  1  0  0  0  0
 12 11  3  0  0  0  0
 14 15  1  0  0  0  0
 14 13  1  0  0  0  0
 14 16  1  0  0  0  0
 17 14  1  0  0  0  0
M  RAD  1   3   2
M  END
