Coordinates from ORCA-job 4-MeO-Ph-N2+-B3LYPG-6-31G_dp-MTMO-d009-169-n900
 OpenBabel09051907383D

 17 17  0  0  0  0  0  0  0  0999 V2000
   -2.0045   -0.2103    0.1703 C   0  0  0  0  0  0  0  0  0  0  0  0
   -0.6679   -0.2840   -0.2506 C   0  0  0  0  0  0  0  0  0  0  0  0
   -0.0585    0.9328   -0.2086 C   0  0  0  0  0  0  0  0  0  0  0  0
   -0.4552    2.1921    0.1489 C   0  0  0  0  0  0  0  0  0  0  0  0
   -1.7881    2.2046    0.5576 C   0  0  0  0  0  0  0  0  0  0  0  0
   -2.5672    1.0212    0.5730 C   0  0  0  0  0  0  0  0  0  0  0  0
   -2.5839   -1.1254    0.1738 H   0  0  0  0  0  0  0  0  0  0  0  0
   -0.2043   -1.2094   -0.5659 H   0  0  0  0  0  0  0  0  0  0  0  0
    0.1633    3.0797    0.1266 H   0  0  0  0  0  0  0  0  0  0  0  0
   -2.2440    3.1373    0.8719 H   0  0  0  0  0  0  0  0  0  0  0  0
    1.7511    0.8641   -0.7727 N   0  0  0  0  0  0  0  0  0  0  0  0
    2.8051    0.8279   -1.1011 N   0  0  0  0  0  0  0  0  0  0  0  0
   -3.8239    1.1791    0.9844 O   0  0  0  0  0  0  0  0  0  0  0  0
   -4.7107    0.0488    1.0435 C   0  0  0  0  0  0  0  0  0  0  0  0
   -5.6593    0.4459    1.3998 H   0  0  0  0  0  0  0  0  0  0  0  0
   -4.3368   -0.7005    1.7487 H   0  0  0  0  0  0  0  0  0  0  0  0
   -4.8448   -0.3905    0.0501 H   0  0  0  0  0  0  0  0  0  0  0  0
  1  7  1  0  0  0  0
  1  6  2  0  0  0  0
  2  3  2  0  0  0  0
  2  1  1  0  0  0  0
  3  4  1  0  0  0  0
  4  5  2  0  0  0  0
  5  6  1  0  0  0  0
  5 10  1  0  0  0  0
  6 13  1  0  0  0  0
  8  2  1  0  0  0  0
  9  4  1  0  0  0  0
 11  3  1  0  0  0  0
 12 11  1  0  0  0  0
 13 14  1  0  0  0  0
 14 15  1  0  0  0  0
 14 16  1  0  0  0  0
 17 14  1  0  0  0  0
M  RAD  2  11   2  12   3
M  END
