Coordinates from ORCA-job 4-MeO-Ph-N2+-B3LYPG-6-31G_dp-MTMO-d009-169-n900
 OpenBabel09051907383D

 17 16  0  0  0  0  0  0  0  0999 V2000
   -0.7549    1.9095   -0.0154 C   0  0  0  0  0  0  0  0  0  0  0  0
   -0.3716    3.2718    0.0255 C   0  0  0  0  0  0  0  0  0  0  0  0
   -1.4640    3.9800    0.3456 C   0  0  0  0  0  0  0  0  0  0  0  0
   -2.6340    3.8627    0.9948 C   0  0  0  0  0  0  0  0  0  0  0  0
   -2.9515    2.4896    0.9411 C   0  0  0  0  0  0  0  0  0  0  0  0
   -2.0283    1.5169    0.4636 C   0  0  0  0  0  0  0  0  0  0  0  0
   -0.0428    1.2007   -0.4223 H   0  0  0  0  0  0  0  0  0  0  0  0
    0.6149    3.6359   -0.2389 H   0  0  0  0  0  0  0  0  0  0  0  0
   -3.3197    4.6318    1.3305 H   0  0  0  0  0  0  0  0  0  0  0  0
   -3.9591    2.1832    1.2093 H   0  0  0  0  0  0  0  0  0  0  0  0
   -2.8567   -5.8699   -0.1240 N   0  0  0  0  0  0  0  0  0  0  0  0
   -3.1160   -6.9431   -0.1728 N   0  0  0  0  0  0  0  0  0  0  0  0
   -2.4695    0.2672    0.5001 O   0  0  0  0  0  0  0  0  0  0  0  0
   -1.6114   -0.8216    0.0989 C   0  0  0  0  0  0  0  0  0  0  0  0
   -2.2119   -1.7205    0.2252 H   0  0  0  0  0  0  0  0  0  0  0  0
   -0.7276   -0.8694    0.7407 H   0  0  0  0  0  0  0  0  0  0  0  0
   -1.3257   -0.7115   -0.9522 H   0  0  0  0  0  0  0  0  0  0  0  0
  1  2  2  0  0  0  0
  1  6  1  0  0  0  0
  2  3  1  0  0  0  0
  3  4  2  0  0  0  0
  4  9  1  0  0  0  0
  5  4  1  0  0  0  0
  5 10  1  0  0  0  0
  6 13  1  0  0  0  0
  6  5  2  0  0  0  0
  7  1  1  0  0  0  0
  8  2  1  0  0  0  0
 12 11  3  0  0  0  0
 14 15  1  0  0  0  0
 14 13  1  0  0  0  0
 14 16  1  0  0  0  0
 17 14  1  0  0  0  0
M  RAD  1   3   2
M  END
