Coordinates from ORCA-job 4-MeO-Ph-N2+-B3LYPG-6-31G_dp-MTMO-d009-169-n900
 OpenBabel09051907383D

 17 16  0  0  0  0  0  0  0  0999 V2000
   -0.7549    1.9077   -0.0152 C   0  0  0  0  0  0  0  0  0  0  0  0
   -0.3712    3.2698    0.0281 C   0  0  0  0  0  0  0  0  0  0  0  0
   -1.4635    3.9781    0.3484 C   0  0  0  0  0  0  0  0  0  0  0  0
   -2.6340    3.8600    0.9967 C   0  0  0  0  0  0  0  0  0  0  0  0
   -2.9519    2.4871    0.9407 C   0  0  0  0  0  0  0  0  0  0  0  0
   -2.0287    1.5148    0.4623 C   0  0  0  0  0  0  0  0  0  0  0  0
   -0.0428    1.1993   -0.4227 H   0  0  0  0  0  0  0  0  0  0  0  0
    0.6156    3.6338   -0.2351 H   0  0  0  0  0  0  0  0  0  0  0  0
   -3.3199    4.6288    1.3330 H   0  0  0  0  0  0  0  0  0  0  0  0
   -3.9598    2.1807    1.2076 H   0  0  0  0  0  0  0  0  0  0  0  0
   -2.8557   -5.8540   -0.1184 N   0  0  0  0  0  0  0  0  0  0  0  0
   -3.1114   -6.9281   -0.1674 N   0  0  0  0  0  0  0  0  0  0  0  0
   -2.4705    0.2652    0.4966 O   0  0  0  0  0  0  0  0  0  0  0  0
   -1.6124   -0.8234    0.0947 C   0  0  0  0  0  0  0  0  0  0  0  0
   -2.2132   -1.7223    0.2194 H   0  0  0  0  0  0  0  0  0  0  0  0
   -0.7289   -0.8719    0.7370 H   0  0  0  0  0  0  0  0  0  0  0  0
   -1.3261   -0.7122   -0.9561 H   0  0  0  0  0  0  0  0  0  0  0  0
  1  2  2  0  0  0  0
  1  6  1  0  0  0  0
  2  3  1  0  0  0  0
  3  4  2  0  0  0  0
  4  9  1  0  0  0  0
  5  4  1  0  0  0  0
  5 10  1  0  0  0  0
  6 13  1  0  0  0  0
  6  5  2  0  0  0  0
  7  1  1  0  0  0  0
  8  2  1  0  0  0  0
 12 11  3  0  0  0  0
 14 15  1  0  0  0  0
 14 13  1  0  0  0  0
 14 16  1  0  0  0  0
 17 14  1  0  0  0  0
M  RAD  1   3   2
M  END
