Coordinates from ORCA-job 4-MeO-Ph-N2+-B3LYPG-6-31G_dp-MTMO-d009-169-n900
 OpenBabel09051907383D

 17 16  0  0  0  0  0  0  0  0999 V2000
   -0.6982    2.3368    0.0104 C   0  0  0  0  0  0  0  0  0  0  0  0
   -0.3017    3.6961    0.0063 C   0  0  0  0  0  0  0  0  0  0  0  0
   -1.3833    4.4227    0.3208 C   0  0  0  0  0  0  0  0  0  0  0  0
   -2.5463    4.3364    0.9867 C   0  0  0  0  0  0  0  0  0  0  0  0
   -2.8767    2.9652    0.9773 C   0  0  0  0  0  0  0  0  0  0  0  0
   -1.9686    1.9707    0.5167 C   0  0  0  0  0  0  0  0  0  0  0  0
    0.0021    1.6097   -0.3845 H   0  0  0  0  0  0  0  0  0  0  0  0
    0.6844    4.0431   -0.2814 H   0  0  0  0  0  0  0  0  0  0  0  0
   -3.2205    5.1215    1.3083 H   0  0  0  0  0  0  0  0  0  0  0  0
   -3.8835    2.6763    1.2672 H   0  0  0  0  0  0  0  0  0  0  0  0
   -3.2987   -9.2255   -0.4450 N   0  0  0  0  0  0  0  0  0  0  0  0
   -3.5657  -10.2956   -0.5172 N   0  0  0  0  0  0  0  0  0  0  0  0
   -2.4208    0.7266    0.5947 O   0  0  0  0  0  0  0  0  0  0  0  0
   -1.5774   -0.3803    0.2140 C   0  0  0  0  0  0  0  0  0  0  0  0
   -2.1855   -1.2690    0.3710 H   0  0  0  0  0  0  0  0  0  0  0  0
   -0.6870   -0.4196    0.8473 H   0  0  0  0  0  0  0  0  0  0  0  0
   -1.3021   -0.3018   -0.8428 H   0  0  0  0  0  0  0  0  0  0  0  0
  1  6  1  0  0  0  0
  2  1  2  0  0  0  0
  2  3  1  0  0  0  0
  3  4  2  0  0  0  0
  4  9  1  0  0  0  0
  5  4  1  0  0  0  0
  5 10  1  0  0  0  0
  6 13  1  0  0  0  0
  6  5  2  0  0  0  0
  7  1  1  0  0  0  0
  8  2  1  0  0  0  0
 12 11  3  0  0  0  0
 14 15  1  0  0  0  0
 14 13  1  0  0  0  0
 14 16  1  0  0  0  0
 17 14  1  0  0  0  0
M  RAD  1   3   2
M  END
