Coordinates from ORCA-job 4-MeO-Ph-N2+-B3LYPG-6-31G_dp-MTMO-d009-169-n900
 OpenBabel09051907383D

 17 16  0  0  0  0  0  0  0  0999 V2000
   -0.7083    2.2694    0.0062 C   0  0  0  0  0  0  0  0  0  0  0  0
   -0.3083    3.6276    0.0056 C   0  0  0  0  0  0  0  0  0  0  0  0
   -1.3883    4.3564    0.3208 C   0  0  0  0  0  0  0  0  0  0  0  0
   -2.5521    4.2715    0.9856 C   0  0  0  0  0  0  0  0  0  0  0  0
   -2.8861    2.9012    0.9727 C   0  0  0  0  0  0  0  0  0  0  0  0
   -1.9802    1.9054    0.5105 C   0  0  0  0  0  0  0  0  0  0  0  0
   -0.0096    1.5414   -0.3898 H   0  0  0  0  0  0  0  0  0  0  0  0
    0.6789    3.9727   -0.2804 H   0  0  0  0  0  0  0  0  0  0  0  0
   -3.2246    5.0576    1.3085 H   0  0  0  0  0  0  0  0  0  0  0  0
   -3.8939    2.6142    1.2610 H   0  0  0  0  0  0  0  0  0  0  0  0
   -3.2186   -8.7301   -0.4044 N   0  0  0  0  0  0  0  0  0  0  0  0
   -3.4788   -9.8020   -0.4750 N   0  0  0  0  0  0  0  0  0  0  0  0
   -2.4357    0.6623    0.5852 O   0  0  0  0  0  0  0  0  0  0  0  0
   -1.5948   -0.4460    0.2028 C   0  0  0  0  0  0  0  0  0  0  0  0
   -2.2054   -1.3335    0.3573 H   0  0  0  0  0  0  0  0  0  0  0  0
   -0.7051   -0.4889    0.8367 H   0  0  0  0  0  0  0  0  0  0  0  0
   -1.3185   -0.3658   -0.8536 H   0  0  0  0  0  0  0  0  0  0  0  0
  1  6  1  0  0  0  0
  2  1  2  0  0  0  0
  2  3  1  0  0  0  0
  3  4  2  0  0  0  0
  4  9  1  0  0  0  0
  5  4  1  0  0  0  0
  5 10  1  0  0  0  0
  6 13  1  0  0  0  0
  6  5  2  0  0  0  0
  7  1  1  0  0  0  0
  8  2  1  0  0  0  0
 12 11  3  0  0  0  0
 14 15  1  0  0  0  0
 14 13  1  0  0  0  0
 14 16  1  0  0  0  0
 17 14  1  0  0  0  0
M  RAD  1   3   2
M  END
