Coordinates from ORCA-job 4-MeO-Ph-N2+-B3LYPG-6-31G_dp-MTMO-d009-169-n900
 OpenBabel09051907383D

 17 16  0  0  0  0  0  0  0  0999 V2000
   -1.6301    0.7029    0.1107 C   0  0  0  0  0  0  0  0  0  0  0  0
   -0.4251    1.4090   -0.1272 C   0  0  0  0  0  0  0  0  0  0  0  0
   -0.6964    2.7098    0.0451 C   0  0  0  0  0  0  0  0  0  0  0  0
   -1.5352    3.5292    0.7001 C   0  0  0  0  0  0  0  0  0  0  0  0
   -2.6999    2.7673    0.9272 C   0  0  0  0  0  0  0  0  0  0  0  0
   -2.7516    1.3712    0.6581 C   0  0  0  0  0  0  0  0  0  0  0  0
   -1.6494   -0.3496   -0.1491 H   0  0  0  0  0  0  0  0  0  0  0  0
    0.4944    0.9443   -0.4660 H   0  0  0  0  0  0  0  0  0  0  0  0
   -1.4626    4.5960    0.8774 H   0  0  0  0  0  0  0  0  0  0  0  0
   -3.5978    3.2830    1.2575 H   0  0  0  0  0  0  0  0  0  0  0  0
    2.2278   -2.6519   -1.3160 N   0  0  0  0  0  0  0  0  0  0  0  0
    2.8546   -3.5226   -1.5811 N   0  0  0  0  0  0  0  0  0  0  0  0
   -3.9086    0.7911    0.9472 O   0  0  0  0  0  0  0  0  0  0  0  0
   -4.0666   -0.6339    0.7906 C   0  0  0  0  0  0  0  0  0  0  0  0
   -5.0899   -0.8431    1.0953 H   0  0  0  0  0  0  0  0  0  0  0  0
   -3.3668   -1.1703    1.4371 H   0  0  0  0  0  0  0  0  0  0  0  0
   -3.9263   -0.9189   -0.2572 H   0  0  0  0  0  0  0  0  0  0  0  0
  1  6  2  0  0  0  0
  2  3  2  0  0  0  0
  2  1  1  0  0  0  0
  3  4  1  0  0  0  0
  4  9  1  0  0  0  0
  4  5  2  0  0  0  0
  5 10  1  0  0  0  0
  6  5  1  0  0  0  0
  6 13  1  0  0  0  0
  7  1  1  0  0  0  0
  8  2  1  0  0  0  0
 12 11  3  0  0  0  0
 14 13  1  0  0  0  0
 14 15  1  0  0  0  0
 14 16  1  0  0  0  0
 17 14  1  0  0  0  0
M  RAD  1   3   2
M  END
