Coordinates from ORCA-job 4-MeO-Ph-N2+-B3LYPG-6-31G_dp-MTMO-d009-169-n900
 OpenBabel09051907383D

 17 16  0  0  0  0  0  0  0  0999 V2000
   -2.2060   -0.1889    0.1391 C   0  0  0  0  0  0  0  0  0  0  0  0
   -0.8556   -0.2377   -0.2901 C   0  0  0  0  0  0  0  0  0  0  0  0
   -0.4202    1.0267   -0.3357 C   0  0  0  0  0  0  0  0  0  0  0  0
   -0.6493    2.2431    0.1821 C   0  0  0  0  0  0  0  0  0  0  0  0
   -1.9938    2.2187    0.6090 C   0  0  0  0  0  0  0  0  0  0  0  0
   -2.7642    1.0236    0.6083 C   0  0  0  0  0  0  0  0  0  0  0  0
   -2.7778   -1.1087    0.0824 H   0  0  0  0  0  0  0  0  0  0  0  0
   -0.3406   -1.1439   -0.5866 H   0  0  0  0  0  0  0  0  0  0  0  0
   -0.0359    3.1357    0.1509 H   0  0  0  0  0  0  0  0  0  0  0  0
   -2.4626    3.1590    0.8864 H   0  0  0  0  0  0  0  0  0  0  0  0
    3.1791    0.7667   -1.0382 N   0  0  0  0  0  0  0  0  0  0  0  0
    4.2538    0.7161   -1.2903 N   0  0  0  0  0  0  0  0  0  0  0  0
   -4.0059    1.1603    1.0569 O   0  0  0  0  0  0  0  0  0  0  0  0
   -4.8672    0.0100    1.1684 C   0  0  0  0  0  0  0  0  0  0  0  0
   -5.8084    0.3936    1.5566 H   0  0  0  0  0  0  0  0  0  0  0  0
   -4.4454   -0.7194    1.8662 H   0  0  0  0  0  0  0  0  0  0  0  0
   -5.0294   -0.4413    0.1842 H   0  0  0  0  0  0  0  0  0  0  0  0
  1  6  2  0  0  0  0
  2  1  1  0  0  0  0
  3  2  2  0  0  0  0
  3  4  1  0  0  0  0
  4  5  2  0  0  0  0
  5 10  1  0  0  0  0
  6  5  1  0  0  0  0
  6 13  1  0  0  0  0
  7  1  1  0  0  0  0
  8  2  1  0  0  0  0
  9  4  1  0  0  0  0
 12 11  3  0  0  0  0
 13 14  1  0  0  0  0
 14 15  1  0  0  0  0
 14 16  1  0  0  0  0
 17 14  1  0  0  0  0
M  RAD  1   3   2
M  END
