Coordinates from ORCA-job 4-MeO-Ph-N2+-B3LYPG-6-31G_dp-MTMO-d009-169-n900
 OpenBabel09051907383D

 17 16  0  0  0  0  0  0  0  0999 V2000
   -0.6596    2.5885    0.0271 C   0  0  0  0  0  0  0  0  0  0  0  0
   -0.2759    3.9514    0.0153 C   0  0  0  0  0  0  0  0  0  0  0  0
   -1.3637    4.6694    0.3278 C   0  0  0  0  0  0  0  0  0  0  0  0
   -2.5249    4.5758    0.9959 C   0  0  0  0  0  0  0  0  0  0  0  0
   -2.8425    3.2015    0.9941 C   0  0  0  0  0  0  0  0  0  0  0  0
   -1.9258    2.2132    0.5372 C   0  0  0  0  0  0  0  0  0  0  0  0
    0.0469    1.8659   -0.3651 H   0  0  0  0  0  0  0  0  0  0  0  0
    0.7065    4.3060   -0.2755 H   0  0  0  0  0  0  0  0  0  0  0  0
   -3.2061    5.3562    1.3143 H   0  0  0  0  0  0  0  0  0  0  0  0
   -3.8461    2.9047    1.2870 H   0  0  0  0  0  0  0  0  0  0  0  0
   -3.5884  -11.0690   -0.5852 N   0  0  0  0  0  0  0  0  0  0  0  0
   -3.8964  -12.1274   -0.6670 N   0  0  0  0  0  0  0  0  0  0  0  0
   -2.3662    0.9653    0.6224 O   0  0  0  0  0  0  0  0  0  0  0  0
   -1.5130   -0.1356    0.2461 C   0  0  0  0  0  0  0  0  0  0  0  0
   -2.1127   -1.0291    0.4085 H   0  0  0  0  0  0  0  0  0  0  0  0
   -0.6214   -0.1635    0.8782 H   0  0  0  0  0  0  0  0  0  0  0  0
   -1.2400   -0.0599   -0.8115 H   0  0  0  0  0  0  0  0  0  0  0  0
  1  6  1  0  0  0  0
  2  1  2  0  0  0  0
  2  3  1  0  0  0  0
  3  4  2  0  0  0  0
  4  9  1  0  0  0  0
  5  4  1  0  0  0  0
  5 10  1  0  0  0  0
  6 13  1  0  0  0  0
  6  5  2  0  0  0  0
  7  1  1  0  0  0  0
  8  2  1  0  0  0  0
 12 11  3  0  0  0  0
 14 15  1  0  0  0  0
 14 13  1  0  0  0  0
 14 16  1  0  0  0  0
 17 14  1  0  0  0  0
M  RAD  1   3   2
M  END
