Coordinates from ORCA-job 4-MeO-Ph-N2+-B3LYPG-6-31G_dp-MTMO-d009-169-n900
 OpenBabel09051907383D

 17 16  0  0  0  0  0  0  0  0999 V2000
   -2.0603   -0.2055    0.1865 C   0  0  0  0  0  0  0  0  0  0  0  0
   -0.7075   -0.2910   -0.2401 C   0  0  0  0  0  0  0  0  0  0  0  0
   -0.1988    0.9416   -0.1694 C   0  0  0  0  0  0  0  0  0  0  0  0
   -0.4974    2.2063    0.1657 C   0  0  0  0  0  0  0  0  0  0  0  0
   -1.8468    2.2051    0.5760 C   0  0  0  0  0  0  0  0  0  0  0  0
   -2.6258    1.0227    0.5907 C   0  0  0  0  0  0  0  0  0  0  0  0
   -2.6263   -1.1303    0.1810 H   0  0  0  0  0  0  0  0  0  0  0  0
   -0.2310   -1.2092   -0.5564 H   0  0  0  0  0  0  0  0  0  0  0  0
    0.1293    3.0878    0.1397 H   0  0  0  0  0  0  0  0  0  0  0  0
   -2.2897    3.1471    0.8857 H   0  0  0  0  0  0  0  0  0  0  0  0
    2.1570    0.8583   -0.8941 N   0  0  0  0  0  0  0  0  0  0  0  0
    3.2101    0.8231   -1.2244 N   0  0  0  0  0  0  0  0  0  0  0  0
   -3.8841    1.1795    1.0020 O   0  0  0  0  0  0  0  0  0  0  0  0
   -4.7636    0.0435    1.0600 C   0  0  0  0  0  0  0  0  0  0  0  0
   -5.7152    0.4335    1.4161 H   0  0  0  0  0  0  0  0  0  0  0  0
   -4.3849   -0.7037    1.7652 H   0  0  0  0  0  0  0  0  0  0  0  0
   -4.8946   -0.3953    0.0656 H   0  0  0  0  0  0  0  0  0  0  0  0
  1  6  2  0  0  0  0
  2  3  2  0  0  0  0
  2  1  1  0  0  0  0
  3  4  1  0  0  0  0
  4  5  2  0  0  0  0
  5  6  1  0  0  0  0
  5 10  1  0  0  0  0
  6 13  1  0  0  0  0
  7  1  1  0  0  0  0
  8  2  1  0  0  0  0
  9  4  1  0  0  0  0
 12 11  3  0  0  0  0
 13 14  1  0  0  0  0
 14 15  1  0  0  0  0
 14 16  1  0  0  0  0
 17 14  1  0  0  0  0
M  RAD  1   3   2
M  END
