Coordinates from ORCA-job 4-MeO-Ph-N2+-B3LYPG-6-31G_dp-MTMO-d009-169-n900
 OpenBabel09051907383D

 17 16  0  0  0  0  0  0  0  0999 V2000
   -2.1053   -0.1986    0.1374 C   0  0  0  0  0  0  0  0  0  0  0  0
   -0.7538   -0.2741   -0.2904 C   0  0  0  0  0  0  0  0  0  0  0  0
   -0.2870    0.9778   -0.3082 C   0  0  0  0  0  0  0  0  0  0  0  0
   -0.5335    2.2127    0.1555 C   0  0  0  0  0  0  0  0  0  0  0  0
   -1.8792    2.2080    0.5770 C   0  0  0  0  0  0  0  0  0  0  0  0
   -2.6589    1.0226    0.5839 C   0  0  0  0  0  0  0  0  0  0  0  0
   -2.6842   -1.1143    0.0892 H   0  0  0  0  0  0  0  0  0  0  0  0
   -0.2633   -1.1893   -0.5966 H   0  0  0  0  0  0  0  0  0  0  0  0
    0.0943    3.0944    0.1301 H   0  0  0  0  0  0  0  0  0  0  0  0
   -2.3314    3.1520    0.8675 H   0  0  0  0  0  0  0  0  0  0  0  0
    2.4025    0.8341   -0.8682 N   0  0  0  0  0  0  0  0  0  0  0  0
    3.4736    0.7891   -1.1339 N   0  0  0  0  0  0  0  0  0  0  0  0
   -3.9070    1.1734    1.0188 O   0  0  0  0  0  0  0  0  0  0  0  0
   -4.7761    0.0305    1.1226 C   0  0  0  0  0  0  0  0  0  0  0  0
   -5.7188    0.4198    1.5017 H   0  0  0  0  0  0  0  0  0  0  0  0
   -4.3677   -0.7024    1.8254 H   0  0  0  0  0  0  0  0  0  0  0  0
   -4.9337   -0.4222    0.1382 H   0  0  0  0  0  0  0  0  0  0  0  0
  1  6  2  0  0  0  0
  2  1  1  0  0  0  0
  3  2  2  0  0  0  0
  3  4  1  0  0  0  0
  4  5  2  0  0  0  0
  5  6  1  0  0  0  0
  5 10  1  0  0  0  0
  6 13  1  0  0  0  0
  7  1  1  0  0  0  0
  8  2  1  0  0  0  0
  9  4  1  0  0  0  0
 12 11  3  0  0  0  0
 13 14  1  0  0  0  0
 14 15  1  0  0  0  0
 14 16  1  0  0  0  0
 17 14  1  0  0  0  0
M  RAD  1   3   2
M  END
