Coordinates from ORCA-job 4-MeO-Ph-N2+-B3LYPG-6-31G_dp-MTMO-d009-169-n900
 OpenBabel09051907383D

 17 16  0  0  0  0  0  0  0  0999 V2000
   -0.6683    2.5318    0.0233 C   0  0  0  0  0  0  0  0  0  0  0  0
   -0.2824    3.8940    0.0132 C   0  0  0  0  0  0  0  0  0  0  0  0
   -1.3692    4.6136    0.3260 C   0  0  0  0  0  0  0  0  0  0  0  0
   -2.5307    4.5210    0.9937 C   0  0  0  0  0  0  0  0  0  0  0  0
   -2.8505    3.1472    0.9903 C   0  0  0  0  0  0  0  0  0  0  0  0
   -1.9353    2.1579    0.5326 C   0  0  0  0  0  0  0  0  0  0  0  0
    0.0371    1.8085   -0.3694 H   0  0  0  0  0  0  0  0  0  0  0  0
    0.7007    4.2474   -0.2770 H   0  0  0  0  0  0  0  0  0  0  0  0
   -3.2108    5.3021    1.3127 H   0  0  0  0  0  0  0  0  0  0  0  0
   -3.8547    2.8517    1.2825 H   0  0  0  0  0  0  0  0  0  0  0  0
   -3.5230  -10.6508   -0.5526 N   0  0  0  0  0  0  0  0  0  0  0  0
   -3.8241  -11.7112   -0.6337 N   0  0  0  0  0  0  0  0  0  0  0  0
   -2.3777    0.9107    0.6162 O   0  0  0  0  0  0  0  0  0  0  0  0
   -1.5261   -0.1912    0.2389 C   0  0  0  0  0  0  0  0  0  0  0  0
   -2.1272   -1.0839    0.4001 H   0  0  0  0  0  0  0  0  0  0  0  0
   -0.6348   -0.2211    0.8714 H   0  0  0  0  0  0  0  0  0  0  0  0
   -1.2525   -0.1146   -0.8184 H   0  0  0  0  0  0  0  0  0  0  0  0
  1  6  1  0  0  0  0
  2  1  2  0  0  0  0
  2  3  1  0  0  0  0
  3  4  2  0  0  0  0
  4  9  1  0  0  0  0
  5  4  1  0  0  0  0
  5 10  1  0  0  0  0
  6 13  1  0  0  0  0
  6  5  2  0  0  0  0
  7  1  1  0  0  0  0
  8  2  1  0  0  0  0
 12 11  3  0  0  0  0
 14 15  1  0  0  0  0
 14 13  1  0  0  0  0
 14 16  1  0  0  0  0
 17 14  1  0  0  0  0
M  RAD  1   3   2
M  END
