Coordinates from ORCA-job 4-MeO-Ph-N2+-B3LYPG-6-31G_dp-MTMO-d009-169-n900
 OpenBabel09051907383D

 17 16  0  0  0  0  0  0  0  0999 V2000
   -0.6812    2.4486    0.0176 C   0  0  0  0  0  0  0  0  0  0  0  0
   -0.2903    3.8094    0.0090 C   0  0  0  0  0  0  0  0  0  0  0  0
   -1.3745    4.5327    0.3225 C   0  0  0  0  0  0  0  0  0  0  0  0
   -2.5364    4.4436    0.9899 C   0  0  0  0  0  0  0  0  0  0  0  0
   -2.8612    3.0710    0.9850 C   0  0  0  0  0  0  0  0  0  0  0  0
   -1.9496    2.0788    0.5263 C   0  0  0  0  0  0  0  0  0  0  0  0
    0.0217    1.7231   -0.3758 H   0  0  0  0  0  0  0  0  0  0  0  0
    0.6941    4.1595   -0.2806 H   0  0  0  0  0  0  0  0  0  0  0  0
   -3.2136    5.2268    1.3097 H   0  0  0  0  0  0  0  0  0  0  0  0
   -3.8666    2.7789    1.2767 H   0  0  0  0  0  0  0  0  0  0  0  0
   -3.4289  -10.0463   -0.5090 N   0  0  0  0  0  0  0  0  0  0  0  0
   -3.7109  -11.1123   -0.5856 N   0  0  0  0  0  0  0  0  0  0  0  0
   -2.3966    0.8332    0.6084 O   0  0  0  0  0  0  0  0  0  0  0  0
   -1.5491   -0.2714    0.2301 C   0  0  0  0  0  0  0  0  0  0  0  0
   -2.1535   -1.1621    0.3901 H   0  0  0  0  0  0  0  0  0  0  0  0
   -0.6580   -0.3054    0.8627 H   0  0  0  0  0  0  0  0  0  0  0  0
   -1.2750   -0.1947   -0.8272 H   0  0  0  0  0  0  0  0  0  0  0  0
  1  6  1  0  0  0  0
  2  1  2  0  0  0  0
  2  3  1  0  0  0  0
  3  4  2  0  0  0  0
  4  9  1  0  0  0  0
  5  4  1  0  0  0  0
  5 10  1  0  0  0  0
  6 13  1  0  0  0  0
  6  5  2  0  0  0  0
  7  1  1  0  0  0  0
  8  2  1  0  0  0  0
 12 11  3  0  0  0  0
 14 15  1  0  0  0  0
 14 13  1  0  0  0  0
 14 16  1  0  0  0  0
 17 14  1  0  0  0  0
M  RAD  1   3   2
M  END
