Coordinates from ORCA-job 4-MeO-Ph-N2+-B3LYPG-6-31G_dp-MTMO-d009-169-n900
 OpenBabel09051907383D

 17 16  0  0  0  0  0  0  0  0999 V2000
   -0.7552    1.9044   -0.0154 C   0  0  0  0  0  0  0  0  0  0  0  0
   -0.3725    3.2668    0.0283 C   0  0  0  0  0  0  0  0  0  0  0  0
   -1.4654    3.9740    0.3488 C   0  0  0  0  0  0  0  0  0  0  0  0
   -2.6359    3.8550    0.9967 C   0  0  0  0  0  0  0  0  0  0  0  0
   -2.9528    2.4818    0.9403 C   0  0  0  0  0  0  0  0  0  0  0  0
   -2.0288    1.5103    0.4618 C   0  0  0  0  0  0  0  0  0  0  0  0
   -0.0424    1.1966   -0.4230 H   0  0  0  0  0  0  0  0  0  0  0  0
    0.6141    3.6316   -0.2346 H   0  0  0  0  0  0  0  0  0  0  0  0
   -3.3223    4.6232    1.3332 H   0  0  0  0  0  0  0  0  0  0  0  0
   -3.9605    2.1745    1.2071 H   0  0  0  0  0  0  0  0  0  0  0  0
   -2.8537   -5.8228   -0.1158 N   0  0  0  0  0  0  0  0  0  0  0  0
   -3.1109   -6.8966   -0.1630 N   0  0  0  0  0  0  0  0  0  0  0  0
   -2.4696    0.2604    0.4958 O   0  0  0  0  0  0  0  0  0  0  0  0
   -1.6108   -0.8274    0.0934 C   0  0  0  0  0  0  0  0  0  0  0  0
   -2.2110   -1.7268    0.2176 H   0  0  0  0  0  0  0  0  0  0  0  0
   -0.7274   -0.8760    0.7358 H   0  0  0  0  0  0  0  0  0  0  0  0
   -1.3243   -0.7154   -0.9573 H   0  0  0  0  0  0  0  0  0  0  0  0
  1  2  2  0  0  0  0
  1  6  1  0  0  0  0
  2  3  1  0  0  0  0
  3  4  2  0  0  0  0
  4  9  1  0  0  0  0
  5  4  1  0  0  0  0
  5 10  1  0  0  0  0
  6 13  1  0  0  0  0
  6  5  2  0  0  0  0
  7  1  1  0  0  0  0
  8  2  1  0  0  0  0
 12 11  3  0  0  0  0
 14 15  1  0  0  0  0
 14 13  1  0  0  0  0
 14 16  1  0  0  0  0
 17 14  1  0  0  0  0
M  RAD  1   3   2
M  END
