Coordinates from ORCA-job 4-MeO-Ph-N2+-B3LYPG-6-31G_dp-MTMO-d009-169-n900
 OpenBabel09051907383D

 17 16  0  0  0  0  0  0  0  0999 V2000
   -1.0400    1.3082   -0.0065 C   0  0  0  0  0  0  0  0  0  0  0  0
   -0.2661    2.4911   -0.0814 C   0  0  0  0  0  0  0  0  0  0  0  0
   -1.0816    3.5140    0.2131 C   0  0  0  0  0  0  0  0  0  0  0  0
   -2.1987    3.7944    0.9050 C   0  0  0  0  0  0  0  0  0  0  0  0
   -2.9140    2.5810    0.9662 C   0  0  0  0  0  0  0  0  0  0  0  0
   -2.3469    1.3478    0.5379 C   0  0  0  0  0  0  0  0  0  0  0  0
   -0.5957    0.3937   -0.3830 H   0  0  0  0  0  0  0  0  0  0  0  0
    0.7681    2.5238   -0.4051 H   0  0  0  0  0  0  0  0  0  0  0  0
   -2.6038    4.7540    1.2036 H   0  0  0  0  0  0  0  0  0  0  0  0
   -3.9516    2.6088    1.2878 H   0  0  0  0  0  0  0  0  0  0  0  0
   -0.9617   -3.7427   -0.4659 N   0  0  0  0  0  0  0  0  0  0  0  0
   -0.5905   -4.7654   -0.6591 N   0  0  0  0  0  0  0  0  0  0  0  0
   -3.1353    0.2926    0.6816 O   0  0  0  0  0  0  0  0  0  0  0  0
   -2.6503   -1.0256    0.3466 C   0  0  0  0  0  0  0  0  0  0  0  0
   -3.4815   -1.6972    0.5520 H   0  0  0  0  0  0  0  0  0  0  0  0
   -1.7933   -1.2895    0.9707 H   0  0  0  0  0  0  0  0  0  0  0  0
   -2.3865   -1.0757   -0.7139 H   0  0  0  0  0  0  0  0  0  0  0  0
  1  6  1  0  0  0  0
  2  1  2  0  0  0  0
  2  3  1  0  0  0  0
  3  4  2  0  0  0  0
  4  5  1  0  0  0  0
  4  9  1  0  0  0  0
  5 10  1  0  0  0  0
  6 13  1  0  0  0  0
  6  5  2  0  0  0  0
  7  1  1  0  0  0  0
  8  2  1  0  0  0  0
 12 11  3  0  0  0  0
 14 15  1  0  0  0  0
 14 13  1  0  0  0  0
 14 16  1  0  0  0  0
 17 14  1  0  0  0  0
M  RAD  1   3   2
M  END
