Coordinates from ORCA-job 4-MeO-Ph-N2+-B3LYPG-6-31G_dp-MTMO-d009-169-n900
 OpenBabel09051907383D

 17 16  0  0  0  0  0  0  0  0999 V2000
   -0.6422    2.7009    0.0351 C   0  0  0  0  0  0  0  0  0  0  0  0
   -0.2638    4.0652    0.0220 C   0  0  0  0  0  0  0  0  0  0  0  0
   -1.3544    4.7793    0.3338 C   0  0  0  0  0  0  0  0  0  0  0  0
   -2.5153    4.6818    1.0019 C   0  0  0  0  0  0  0  0  0  0  0  0
   -2.8275    3.3062    1.0015 C   0  0  0  0  0  0  0  0  0  0  0  0
   -1.9069    2.3211    0.5455 C   0  0  0  0  0  0  0  0  0  0  0  0
    0.0671    1.9807   -0.3565 H   0  0  0  0  0  0  0  0  0  0  0  0
    0.7172    4.4234   -0.2692 H   0  0  0  0  0  0  0  0  0  0  0  0
   -3.1995    5.4598    1.3196 H   0  0  0  0  0  0  0  0  0  0  0  0
   -3.8300    3.0058    1.2946 H   0  0  0  0  0  0  0  0  0  0  0  0
   -3.7191  -11.8897   -0.6461 N   0  0  0  0  0  0  0  0  0  0  0  0
   -4.0417  -12.9436   -0.7294 N   0  0  0  0  0  0  0  0  0  0  0  0
   -2.3424    1.0716    0.6319 O   0  0  0  0  0  0  0  0  0  0  0  0
   -1.4849   -0.0263    0.2567 C   0  0  0  0  0  0  0  0  0  0  0  0
   -2.0809   -0.9220    0.4201 H   0  0  0  0  0  0  0  0  0  0  0  0
   -0.5931   -0.0500    0.8889 H   0  0  0  0  0  0  0  0  0  0  0  0
   -1.2122    0.0494   -0.8009 H   0  0  0  0  0  0  0  0  0  0  0  0
  1  6  1  0  0  0  0
  2  1  2  0  0  0  0
  2  3  1  0  0  0  0
  3  4  2  0  0  0  0
  4  9  1  0  0  0  0
  5  4  1  0  0  0  0
  5 10  1  0  0  0  0
  6 13  1  0  0  0  0
  6  5  2  0  0  0  0
  7  1  1  0  0  0  0
  8  2  1  0  0  0  0
 12 11  3  0  0  0  0
 14 15  1  0  0  0  0
 14 13  1  0  0  0  0
 14 16  1  0  0  0  0
 17 14  1  0  0  0  0
M  RAD  1   3   2
M  END
