Coordinates from ORCA-job 4-MeO-Ph-N2+-B3LYPG-6-31G_dp-MTMO-d009-169-n900
 OpenBabel09051907383D

 17 16  0  0  0  0  0  0  0  0999 V2000
   -1.7243    0.3622    0.1309 C   0  0  0  0  0  0  0  0  0  0  0  0
   -0.4167    0.8411   -0.1495 C   0  0  0  0  0  0  0  0  0  0  0  0
   -0.4768    2.1716   -0.0462 C   0  0  0  0  0  0  0  0  0  0  0  0
   -1.1693    3.1628    0.5372 C   0  0  0  0  0  0  0  0  0  0  0  0
   -2.4409    2.6172    0.8111 C   0  0  0  0  0  0  0  0  0  0  0  0
   -2.7192    1.2346    0.6307 C   0  0  0  0  0  0  0  0  0  0  0  0
   -1.9154   -0.6872   -0.0632 H   0  0  0  0  0  0  0  0  0  0  0  0
    0.4100    0.2070   -0.4607 H   0  0  0  0  0  0  0  0  0  0  0  0
   -0.9193    4.2115    0.6457 H   0  0  0  0  0  0  0  0  0  0  0  0
   -3.2382    3.2917    1.1116 H   0  0  0  0  0  0  0  0  0  0  0  0
    2.1255   -1.2600   -1.1329 N   0  0  0  0  0  0  0  0  0  0  0  0
    2.9292   -1.9414   -1.4641 N   0  0  0  0  0  0  0  0  0  0  0  0
   -3.9545    0.8677    0.9514 O   0  0  0  0  0  0  0  0  0  0  0  0
   -4.3425   -0.5180    0.8721 C   0  0  0  0  0  0  0  0  0  0  0  0
   -5.3842   -0.5420    1.1857 H   0  0  0  0  0  0  0  0  0  0  0  0
   -3.7353   -1.1265    1.5482 H   0  0  0  0  0  0  0  0  0  0  0  0
   -4.2577   -0.8788   -0.1583 H   0  0  0  0  0  0  0  0  0  0  0  0
  1  6  2  0  0  0  0
  2  3  2  0  0  0  0
  2  1  1  0  0  0  0
  3  4  1  0  0  0  0
  4  9  1  0  0  0  0
  4  5  2  0  0  0  0
  5 10  1  0  0  0  0
  6  5  1  0  0  0  0
  6 13  1  0  0  0  0
  7  1  1  0  0  0  0
  8  2  1  0  0  0  0
 12 11  3  0  0  0  0
 14 13  1  0  0  0  0
 14 15  1  0  0  0  0
 14 16  1  0  0  0  0
 17 14  1  0  0  0  0
M  RAD  1   3   2
M  END
