Coordinates from ORCA-job 4-MeO-Ph-N2+-B3LYPG-6-31G_dp-MTMO-d009-169-n900
 OpenBabel09051907383D

 17 16  0  0  0  0  0  0  0  0999 V2000
   -2.0422   -0.2067    0.1820 C   0  0  0  0  0  0  0  0  0  0  0  0
   -0.6930   -0.2902   -0.2442 C   0  0  0  0  0  0  0  0  0  0  0  0
   -0.1617    0.9386   -0.1778 C   0  0  0  0  0  0  0  0  0  0  0  0
   -0.4818    2.2029    0.1593 C   0  0  0  0  0  0  0  0  0  0  0  0
   -1.8276    2.2047    0.5698 C   0  0  0  0  0  0  0  0  0  0  0  0
   -2.6067    1.0223    0.5852 C   0  0  0  0  0  0  0  0  0  0  0  0
   -2.6109   -1.1294    0.1799 H   0  0  0  0  0  0  0  0  0  0  0  0
   -0.2201   -1.2099   -0.5609 H   0  0  0  0  0  0  0  0  0  0  0  0
    0.1430    3.0856    0.1340 H   0  0  0  0  0  0  0  0  0  0  0  0
   -2.2727    3.1446    0.8815 H   0  0  0  0  0  0  0  0  0  0  0  0
    2.0224    0.8604   -0.8554 N   0  0  0  0  0  0  0  0  0  0  0  0
    3.0760    0.8246   -1.1833 N   0  0  0  0  0  0  0  0  0  0  0  0
   -3.8648    1.1799    0.9968 O   0  0  0  0  0  0  0  0  0  0  0  0
   -4.7460    0.0454    1.0540 C   0  0  0  0  0  0  0  0  0  0  0  0
   -5.6970    0.4366    1.4103 H   0  0  0  0  0  0  0  0  0  0  0  0
   -4.3687   -0.7030    1.7588 H   0  0  0  0  0  0  0  0  0  0  0  0
   -4.8776   -0.3931    0.0596 H   0  0  0  0  0  0  0  0  0  0  0  0
  1  6  2  0  0  0  0
  2  3  2  0  0  0  0
  2  1  1  0  0  0  0
  3  4  1  0  0  0  0
  4  5  2  0  0  0  0
  5  6  1  0  0  0  0
  5 10  1  0  0  0  0
  6 13  1  0  0  0  0
  7  1  1  0  0  0  0
  8  2  1  0  0  0  0
  9  4  1  0  0  0  0
 12 11  3  0  0  0  0
 13 14  1  0  0  0  0
 14 15  1  0  0  0  0
 14 16  1  0  0  0  0
 17 14  1  0  0  0  0
M  RAD  1   3   2
M  END
