Coordinates from ORCA-job 4-MeO-Ph-N2+-B3LYPG-6-31G_dp-MTMO-d009-169-n900
 OpenBabel09051907383D

 17 16  0  0  0  0  0  0  0  0999 V2000
   -1.6249    0.7231    0.1098 C   0  0  0  0  0  0  0  0  0  0  0  0
   -0.4272    1.4422   -0.1254 C   0  0  0  0  0  0  0  0  0  0  0  0
   -0.7112    2.7398    0.0512 C   0  0  0  0  0  0  0  0  0  0  0  0
   -1.5579    3.5485    0.7094 C   0  0  0  0  0  0  0  0  0  0  0  0
   -2.7149    2.7741    0.9335 C   0  0  0  0  0  0  0  0  0  0  0  0
   -2.7529    1.3784    0.6596 C   0  0  0  0  0  0  0  0  0  0  0  0
   -1.6337   -0.3288   -0.1531 H   0  0  0  0  0  0  0  0  0  0  0  0
    0.4974    0.9885   -0.4651 H   0  0  0  0  0  0  0  0  0  0  0  0
   -1.4963    4.6154    0.8901 H   0  0  0  0  0  0  0  0  0  0  0  0
   -3.6181    3.2797    1.2651 H   0  0  0  0  0  0  0  0  0  0  0  0
    2.2281   -2.7342   -1.3252 N   0  0  0  0  0  0  0  0  0  0  0  0
    2.8519   -3.6079   -1.5880 N   0  0  0  0  0  0  0  0  0  0  0  0
   -3.9041    0.7861    0.9467 O   0  0  0  0  0  0  0  0  0  0  0  0
   -4.0482   -0.6399    0.7853 C   0  0  0  0  0  0  0  0  0  0  0  0
   -5.0692   -0.8602    1.0895 H   0  0  0  0  0  0  0  0  0  0  0  0
   -3.3430   -1.1716    1.4299 H   0  0  0  0  0  0  0  0  0  0  0  0
   -3.9052   -0.9201   -0.2635 H   0  0  0  0  0  0  0  0  0  0  0  0
  1  6  2  0  0  0  0
  2  3  2  0  0  0  0
  2  1  1  0  0  0  0
  3  4  1  0  0  0  0
  4  9  1  0  0  0  0
  4  5  2  0  0  0  0
  5 10  1  0  0  0  0
  6  5  1  0  0  0  0
  6 13  1  0  0  0  0
  7  1  1  0  0  0  0
  8  2  1  0  0  0  0
 12 11  3  0  0  0  0
 14 13  1  0  0  0  0
 14 15  1  0  0  0  0
 14 16  1  0  0  0  0
 17 14  1  0  0  0  0
M  RAD  1   3   2
M  END
