Coordinates from ORCA-job 4-MeO-Ph-N2+-B3LYPG-6-31G_dp-MTMO-d009-169-n900
 OpenBabel09051907383D

 17 16  0  0  0  0  0  0  0  0999 V2000
   -0.6924    2.3749    0.0128 C   0  0  0  0  0  0  0  0  0  0  0  0
   -0.2980    3.7348    0.0071 C   0  0  0  0  0  0  0  0  0  0  0  0
   -1.3806    4.4601    0.3212 C   0  0  0  0  0  0  0  0  0  0  0  0
   -2.5432    4.3727    0.9877 C   0  0  0  0  0  0  0  0  0  0  0  0
   -2.8715    3.0009    0.9799 C   0  0  0  0  0  0  0  0  0  0  0  0
   -1.9621    2.0074    0.5200 C   0  0  0  0  0  0  0  0  0  0  0  0
    0.0089    1.6485   -0.3815 H   0  0  0  0  0  0  0  0  0  0  0  0
    0.6874    4.0830   -0.2813 H   0  0  0  0  0  0  0  0  0  0  0  0
   -3.2186    5.1571    1.3086 H   0  0  0  0  0  0  0  0  0  0  0  0
   -3.8778    2.7108    1.2704 H   0  0  0  0  0  0  0  0  0  0  0  0
   -3.3436   -9.5042   -0.4671 N   0  0  0  0  0  0  0  0  0  0  0  0
   -3.6155  -10.5730   -0.5404 N   0  0  0  0  0  0  0  0  0  0  0  0
   -2.4122    0.7627    0.5995 O   0  0  0  0  0  0  0  0  0  0  0  0
   -1.5672   -0.3434    0.2197 C   0  0  0  0  0  0  0  0  0  0  0  0
   -2.1740   -1.2328    0.3777 H   0  0  0  0  0  0  0  0  0  0  0  0
   -0.6766   -0.3806    0.8527 H   0  0  0  0  0  0  0  0  0  0  0  0
   -1.2924   -0.2655   -0.8373 H   0  0  0  0  0  0  0  0  0  0  0  0
  1  6  1  0  0  0  0
  2  1  2  0  0  0  0
  2  3  1  0  0  0  0
  3  4  2  0  0  0  0
  4  9  1  0  0  0  0
  5  4  1  0  0  0  0
  5 10  1  0  0  0  0
  6 13  1  0  0  0  0
  6  5  2  0  0  0  0
  7  1  1  0  0  0  0
  8  2  1  0  0  0  0
 12 11  3  0  0  0  0
 14 15  1  0  0  0  0
 14 13  1  0  0  0  0
 14 16  1  0  0  0  0
 17 14  1  0  0  0  0
M  RAD  1   3   2
M  END
