Coordinates from ORCA-job 4-MeO-Ph-N2+-B3LYPG-6-31G_dp-MTMO-d009-169-n900
 OpenBabel09051907383D

 17 16  0  0  0  0  0  0  0  0999 V2000
   -0.7255    2.1528   -0.0007 C   0  0  0  0  0  0  0  0  0  0  0  0
   -0.3209    3.5096    0.0071 C   0  0  0  0  0  0  0  0  0  0  0  0
   -1.3990    4.2404    0.3237 C   0  0  0  0  0  0  0  0  0  0  0  0
   -2.5646    4.1559    0.9855 C   0  0  0  0  0  0  0  0  0  0  0  0
   -2.9033    2.7868    0.9642 C   0  0  0  0  0  0  0  0  0  0  0  0
   -1.9998    1.7904    0.4987 C   0  0  0  0  0  0  0  0  0  0  0  0
   -0.0285    1.4246   -0.3991 H   0  0  0  0  0  0  0  0  0  0  0  0
    0.6682    3.8528   -0.2748 H   0  0  0  0  0  0  0  0  0  0  0  0
   -3.2350    4.9425    1.3112 H   0  0  0  0  0  0  0  0  0  0  0  0
   -3.9128    2.5018    1.2488 H   0  0  0  0  0  0  0  0  0  0  0  0
   -3.0815   -7.8628   -0.3285 N   0  0  0  0  0  0  0  0  0  0  0  0
   -3.3330   -8.9369   -0.3972 N   0  0  0  0  0  0  0  0  0  0  0  0
   -2.4597    0.5486    0.5656 O   0  0  0  0  0  0  0  0  0  0  0  0
   -1.6218   -0.5606    0.1792 C   0  0  0  0  0  0  0  0  0  0  0  0
   -2.2357   -1.4469    0.3279 H   0  0  0  0  0  0  0  0  0  0  0  0
   -0.7335   -0.6097    0.8147 H   0  0  0  0  0  0  0  0  0  0  0  0
   -1.3431   -0.4760   -0.8762 H   0  0  0  0  0  0  0  0  0  0  0  0
  1  2  2  0  0  0  0
  1  6  1  0  0  0  0
  2  3  1  0  0  0  0
  3  4  2  0  0  0  0
  4  9  1  0  0  0  0
  5  4  1  0  0  0  0
  5 10  1  0  0  0  0
  6 13  1  0  0  0  0
  6  5  2  0  0  0  0
  7  1  1  0  0  0  0
  8  2  1  0  0  0  0
 12 11  3  0  0  0  0
 14 15  1  0  0  0  0
 14 13  1  0  0  0  0
 14 16  1  0  0  0  0
 17 14  1  0  0  0  0
M  RAD  1   3   2
M  END
