Coordinates from ORCA-job 4-MeO-Ph-N2+-B3LYPG-6-31G_dp-MTMO-d009-169-n900
 OpenBabel09051907383D

 17 16  0  0  0  0  0  0  0  0999 V2000
   -1.6437    0.5837    0.1137 C   0  0  0  0  0  0  0  0  0  0  0  0
   -0.4005    1.2172   -0.1376 C   0  0  0  0  0  0  0  0  0  0  0  0
   -0.6049    2.5325    0.0103 C   0  0  0  0  0  0  0  0  0  0  0  0
   -1.4015    3.4097    0.6427 C   0  0  0  0  0  0  0  0  0  0  0  0
   -2.6056    2.7169    0.8845 C   0  0  0  0  0  0  0  0  0  0  0  0
   -2.7298    1.3204    0.6444 C   0  0  0  0  0  0  0  0  0  0  0  0
   -1.7190   -0.4706   -0.1278 H   0  0  0  0  0  0  0  0  0  0  0  0
    0.4888    0.6915   -0.4695 H   0  0  0  0  0  0  0  0  0  0  0  0
   -1.2695    4.4738    0.8004 H   0  0  0  0  0  0  0  0  0  0  0  0
   -3.4738    3.2859    1.2064 H   0  0  0  0  0  0  0  0  0  0  0  0
    2.1117   -2.1195   -1.2268 N   0  0  0  0  0  0  0  0  0  0  0  0
    2.7597   -2.9701   -1.5054 N   0  0  0  0  0  0  0  0  0  0  0  0
   -3.9161    0.8068    0.9421 O   0  0  0  0  0  0  0  0  0  0  0  0
   -4.1473   -0.6107    0.8124 C   0  0  0  0  0  0  0  0  0  0  0  0
   -5.1805   -0.7611    1.1184 H   0  0  0  0  0  0  0  0  0  0  0  0
   -3.4773   -1.1703    1.4709 H   0  0  0  0  0  0  0  0  0  0  0  0
   -4.0202   -0.9227   -0.2294 H   0  0  0  0  0  0  0  0  0  0  0  0
  1  6  2  0  0  0  0
  2  3  2  0  0  0  0
  2  1  1  0  0  0  0
  3  4  1  0  0  0  0
  4  9  1  0  0  0  0
  4  5  2  0  0  0  0
  5 10  1  0  0  0  0
  6  5  1  0  0  0  0
  6 13  1  0  0  0  0
  7  1  1  0  0  0  0
  8  2  1  0  0  0  0
 12 11  3  0  0  0  0
 14 13  1  0  0  0  0
 14 15  1  0  0  0  0
 14 16  1  0  0  0  0
 17 14  1  0  0  0  0
M  RAD  1   3   2
M  END
