Coordinates from ORCA-job 4-MeO-Ph-N2+-B3LYPG-6-31G_dp-MTMO-d009-169-n900
 OpenBabel09051907383D

 17 16  0  0  0  0  0  0  0  0999 V2000
   -0.6907    2.3855    0.0135 C   0  0  0  0  0  0  0  0  0  0  0  0
   -0.2970    3.7456    0.0074 C   0  0  0  0  0  0  0  0  0  0  0  0
   -1.3799    4.4705    0.3214 C   0  0  0  0  0  0  0  0  0  0  0  0
   -2.5424    4.3827    0.9880 C   0  0  0  0  0  0  0  0  0  0  0  0
   -2.8701    3.0108    0.9806 C   0  0  0  0  0  0  0  0  0  0  0  0
   -1.9602    2.0176    0.5208 C   0  0  0  0  0  0  0  0  0  0  0  0
    0.0108    1.6593   -0.3807 H   0  0  0  0  0  0  0  0  0  0  0  0
    0.6882    4.0942   -0.2812 H   0  0  0  0  0  0  0  0  0  0  0  0
   -3.2182    5.1669    1.3088 H   0  0  0  0  0  0  0  0  0  0  0  0
   -3.8762    2.7203    1.2713 H   0  0  0  0  0  0  0  0  0  0  0  0
   -3.3560   -9.5816   -0.4731 N   0  0  0  0  0  0  0  0  0  0  0  0
   -3.6294  -10.6500   -0.5468 N   0  0  0  0  0  0  0  0  0  0  0  0
   -2.4099    0.7727    0.6007 O   0  0  0  0  0  0  0  0  0  0  0  0
   -1.5644   -0.3331    0.2211 C   0  0  0  0  0  0  0  0  0  0  0  0
   -2.1707   -1.2228    0.3795 H   0  0  0  0  0  0  0  0  0  0  0  0
   -0.6737   -0.3698    0.8541 H   0  0  0  0  0  0  0  0  0  0  0  0
   -1.2897   -0.2554   -0.8359 H   0  0  0  0  0  0  0  0  0  0  0  0
  1  6  1  0  0  0  0
  2  1  2  0  0  0  0
  2  3  1  0  0  0  0
  3  4  2  0  0  0  0
  4  9  1  0  0  0  0
  5  4  1  0  0  0  0
  5 10  1  0  0  0  0
  6 13  1  0  0  0  0
  6  5  2  0  0  0  0
  7  1  1  0  0  0  0
  8  2  1  0  0  0  0
 12 11  3  0  0  0  0
 14 15  1  0  0  0  0
 14 13  1  0  0  0  0
 14 16  1  0  0  0  0
 17 14  1  0  0  0  0
M  RAD  1   3   2
M  END
