Coordinates from ORCA-job 4-MeO-Ph-N2+-B3LYPG-6-31G_dp-MTMO-d009-169-n900
 OpenBabel09051907383D

 17 16  0  0  0  0  0  0  0  0999 V2000
   -0.7416    2.0364   -0.0075 C   0  0  0  0  0  0  0  0  0  0  0  0
   -0.3377    3.3933    0.0121 C   0  0  0  0  0  0  0  0  0  0  0  0
   -1.4174    4.1213    0.3303 C   0  0  0  0  0  0  0  0  0  0  0  0
   -2.5851    4.0308    0.9876 C   0  0  0  0  0  0  0  0  0  0  0  0
   -2.9231    2.6618    0.9547 C   0  0  0  0  0  0  0  0  0  0  0  0
   -2.0174    1.6694    0.4847 C   0  0  0  0  0  0  0  0  0  0  0  0
   -0.0427    1.3116   -0.4091 H   0  0  0  0  0  0  0  0  0  0  0  0
    0.6521    3.7391   -0.2637 H   0  0  0  0  0  0  0  0  0  0  0  0
   -3.2571    4.8145    1.3171 H   0  0  0  0  0  0  0  0  0  0  0  0
   -3.9333    2.3741    1.2336 H   0  0  0  0  0  0  0  0  0  0  0  0
   -2.9550   -6.9628   -0.2418 N   0  0  0  0  0  0  0  0  0  0  0  0
   -3.2010   -8.0382   -0.3090 N   0  0  0  0  0  0  0  0  0  0  0  0
   -2.4768    0.4269    0.5406 O   0  0  0  0  0  0  0  0  0  0  0  0
   -1.6370   -0.6791    0.1489 C   0  0  0  0  0  0  0  0  0  0  0  0
   -2.2506   -1.5668    0.2895 H   0  0  0  0  0  0  0  0  0  0  0  0
   -0.7506   -0.7320    0.7867 H   0  0  0  0  0  0  0  0  0  0  0  0
   -1.3553   -0.5868   -0.9051 H   0  0  0  0  0  0  0  0  0  0  0  0
  1  2  2  0  0  0  0
  1  6  1  0  0  0  0
  2  3  1  0  0  0  0
  3  4  2  0  0  0  0
  4  9  1  0  0  0  0
  5  4  1  0  0  0  0
  5 10  1  0  0  0  0
  6 13  1  0  0  0  0
  6  5  2  0  0  0  0
  7  1  1  0  0  0  0
  8  2  1  0  0  0  0
 12 11  3  0  0  0  0
 14 15  1  0  0  0  0
 14 13  1  0  0  0  0
 14 16  1  0  0  0  0
 17 14  1  0  0  0  0
M  RAD  1   3   2
M  END
