Coordinates from ORCA-job 4-MeO-Ph-N2+-B3LYPG-6-31G_dp-MTMO-d009-169-n900
 OpenBabel09051907383D

 17 16  0  0  0  0  0  0  0  0999 V2000
   -0.7451    2.0076   -0.0092 C   0  0  0  0  0  0  0  0  0  0  0  0
   -0.3434    3.3651    0.0142 C   0  0  0  0  0  0  0  0  0  0  0  0
   -1.4246    4.0907    0.3328 C   0  0  0  0  0  0  0  0  0  0  0  0
   -2.5928    3.9968    0.9887 C   0  0  0  0  0  0  0  0  0  0  0  0
   -2.9287    2.6274    0.9520 C   0  0  0  0  0  0  0  0  0  0  0  0
   -2.0210    1.6375    0.4807 C   0  0  0  0  0  0  0  0  0  0  0  0
   -0.0447    1.2848   -0.4118 H   0  0  0  0  0  0  0  0  0  0  0  0
    0.6463    3.7130   -0.2596 H   0  0  0  0  0  0  0  0  0  0  0  0
   -3.2664    4.7787    1.3193 H   0  0  0  0  0  0  0  0  0  0  0  0
   -3.9388    2.3374    1.2290 H   0  0  0  0  0  0  0  0  0  0  0  0
   -2.9278   -6.7294   -0.2174 N   0  0  0  0  0  0  0  0  0  0  0  0
   -3.1734   -7.8049   -0.2839 N   0  0  0  0  0  0  0  0  0  0  0  0
   -2.4786    0.3942    0.5331 O   0  0  0  0  0  0  0  0  0  0  0  0
   -1.6367   -0.7097    0.1397 C   0  0  0  0  0  0  0  0  0  0  0  0
   -2.2490   -1.5987    0.2777 H   0  0  0  0  0  0  0  0  0  0  0  0
   -0.7508   -0.7626    0.7782 H   0  0  0  0  0  0  0  0  0  0  0  0
   -1.3541   -0.6146   -0.9138 H   0  0  0  0  0  0  0  0  0  0  0  0
  1  2  2  0  0  0  0
  1  6  1  0  0  0  0
  2  3  1  0  0  0  0
  3  4  2  0  0  0  0
  4  9  1  0  0  0  0
  5  4  1  0  0  0  0
  5 10  1  0  0  0  0
  6 13  1  0  0  0  0
  6  5  2  0  0  0  0
  7  1  1  0  0  0  0
  8  2  1  0  0  0  0
 12 11  3  0  0  0  0
 14 15  1  0  0  0  0
 14 13  1  0  0  0  0
 14 16  1  0  0  0  0
 17 14  1  0  0  0  0
M  RAD  1   3   2
M  END
