Coordinates from ORCA-job 4-MeO-Ph-N2+-B3LYPG-6-31G_dp-MTMO-d009-169-n900
 OpenBabel09051907383D

 17 16  0  0  0  0  0  0  0  0999 V2000
   -0.7498    1.9651   -0.0118 C   0  0  0  0  0  0  0  0  0  0  0  0
   -0.3536    3.3241    0.0184 C   0  0  0  0  0  0  0  0  0  0  0  0
   -1.4383    4.0442    0.3377 C   0  0  0  0  0  0  0  0  0  0  0  0
   -2.6074    3.9426    0.9909 C   0  0  0  0  0  0  0  0  0  0  0  0
   -2.9378    2.5721    0.9477 C   0  0  0  0  0  0  0  0  0  0  0  0
   -2.0252    1.5878    0.4739 C   0  0  0  0  0  0  0  0  0  0  0  0
   -0.0457    1.2469   -0.4160 H   0  0  0  0  0  0  0  0  0  0  0  0
    0.6352    3.6771   -0.2518 H   0  0  0  0  0  0  0  0  0  0  0  0
   -3.2849    4.7204    1.3235 H   0  0  0  0  0  0  0  0  0  0  0  0
   -3.9474    2.2769    1.2213 H   0  0  0  0  0  0  0  0  0  0  0  0
   -2.8931   -6.3706   -0.1777 N   0  0  0  0  0  0  0  0  0  0  0  0
   -3.1395   -7.4460   -0.2419 N   0  0  0  0  0  0  0  0  0  0  0  0
   -2.4780    0.3425    0.5201 O   0  0  0  0  0  0  0  0  0  0  0  0
   -1.6310   -0.7565    0.1237 C   0  0  0  0  0  0  0  0  0  0  0  0
   -2.2399   -1.6486    0.2571 H   0  0  0  0  0  0  0  0  0  0  0  0
   -0.7460   -0.8084    0.7635 H   0  0  0  0  0  0  0  0  0  0  0  0
   -1.3471   -0.6560   -0.9289 H   0  0  0  0  0  0  0  0  0  0  0  0
  1  2  2  0  0  0  0
  1  6  1  0  0  0  0
  2  3  1  0  0  0  0
  3  4  2  0  0  0  0
  4  9  1  0  0  0  0
  5  4  1  0  0  0  0
  5 10  1  0  0  0  0
  6 13  1  0  0  0  0
  6  5  2  0  0  0  0
  7  1  1  0  0  0  0
  8  2  1  0  0  0  0
 12 11  3  0  0  0  0
 14 15  1  0  0  0  0
 14 13  1  0  0  0  0
 14 16  1  0  0  0  0
 17 14  1  0  0  0  0
M  RAD  1   3   2
M  END
