Coordinates from ORCA-job 4-MeO-Ph-N2+-B3LYPG-6-31G_dp-MTMO-d009-169-n900
 OpenBabel09051907383D

 17 16  0  0  0  0  0  0  0  0999 V2000
   -0.7180    2.2046    0.0023 C   0  0  0  0  0  0  0  0  0  0  0  0
   -0.3151    3.5619    0.0060 C   0  0  0  0  0  0  0  0  0  0  0  0
   -1.3938    4.2921    0.3220 C   0  0  0  0  0  0  0  0  0  0  0  0
   -2.5585    4.2079    0.9853 C   0  0  0  0  0  0  0  0  0  0  0  0
   -2.8955    2.8383    0.9681 C   0  0  0  0  0  0  0  0  0  0  0  0
   -1.9912    1.8419    0.5041 C   0  0  0  0  0  0  0  0  0  0  0  0
   -0.0204    1.4762   -0.3950 H   0  0  0  0  0  0  0  0  0  0  0  0
    0.6732    3.9056   -0.2779 H   0  0  0  0  0  0  0  0  0  0  0  0
   -3.2296    4.9945    1.3096 H   0  0  0  0  0  0  0  0  0  0  0  0
   -3.9042    2.5527    1.2545 H   0  0  0  0  0  0  0  0  0  0  0  0
   -3.1419   -8.2501   -0.3632 N   0  0  0  0  0  0  0  0  0  0  0  0
   -3.3969   -9.3233   -0.4326 N   0  0  0  0  0  0  0  0  0  0  0  0
   -2.4495    0.5996    0.5748 O   0  0  0  0  0  0  0  0  0  0  0  0
   -1.6105   -0.5095    0.1903 C   0  0  0  0  0  0  0  0  0  0  0  0
   -2.2232   -1.3961    0.3418 H   0  0  0  0  0  0  0  0  0  0  0  0
   -0.7216   -0.5560    0.8251 H   0  0  0  0  0  0  0  0  0  0  0  0
   -1.3330   -0.4271   -0.8656 H   0  0  0  0  0  0  0  0  0  0  0  0
  1  2  2  0  0  0  0
  1  6  1  0  0  0  0
  2  3  1  0  0  0  0
  3  4  2  0  0  0  0
  4  9  1  0  0  0  0
  5  4  1  0  0  0  0
  5 10  1  0  0  0  0
  6 13  1  0  0  0  0
  6  5  2  0  0  0  0
  7  1  1  0  0  0  0
  8  2  1  0  0  0  0
 12 11  3  0  0  0  0
 14 15  1  0  0  0  0
 14 13  1  0  0  0  0
 14 16  1  0  0  0  0
 17 14  1  0  0  0  0
M  RAD  1   3   2
M  END
