Coordinates from ORCA-job 4-MeO-Ph-N2+-B3LYPG-6-31G_dp-MTMO-d009-169-n900
 OpenBabel09051907383D

 17 16  0  0  0  0  0  0  0  0999 V2000
   -1.7096    0.3794    0.1284 C   0  0  0  0  0  0  0  0  0  0  0  0
   -0.4067    0.8725   -0.1488 C   0  0  0  0  0  0  0  0  0  0  0  0
   -0.4813    2.2019   -0.0412 C   0  0  0  0  0  0  0  0  0  0  0  0
   -1.1855    3.1836    0.5443 C   0  0  0  0  0  0  0  0  0  0  0  0
   -2.4518    2.6240    0.8147 C   0  0  0  0  0  0  0  0  0  0  0  0
   -2.7149    1.2391    0.6295 C   0  0  0  0  0  0  0  0  0  0  0  0
   -1.8894   -0.6713   -0.0702 H   0  0  0  0  0  0  0  0  0  0  0  0
    0.4249    0.2460   -0.4620 H   0  0  0  0  0  0  0  0  0  0  0  0
   -0.9462    4.2343    0.6574 H   0  0  0  0  0  0  0  0  0  0  0  0
   -3.2565    3.2888    1.1171 H   0  0  0  0  0  0  0  0  0  0  0  0
    2.0778   -1.3087   -1.1241 N   0  0  0  0  0  0  0  0  0  0  0  0
    2.8676   -2.0061   -1.4555 N   0  0  0  0  0  0  0  0  0  0  0  0
   -3.9465    0.8574    0.9471 O   0  0  0  0  0  0  0  0  0  0  0  0
   -4.3183   -0.5325    0.8641 C   0  0  0  0  0  0  0  0  0  0  0  0
   -5.3600   -0.5693    1.1762 H   0  0  0  0  0  0  0  0  0  0  0  0
   -3.7050   -1.1356    1.5395 H   0  0  0  0  0  0  0  0  0  0  0  0
   -4.2281   -0.8899   -0.1671 H   0  0  0  0  0  0  0  0  0  0  0  0
  1  6  2  0  0  0  0
  2  3  2  0  0  0  0
  2  1  1  0  0  0  0
  3  4  1  0  0  0  0
  4  9  1  0  0  0  0
  4  5  2  0  0  0  0
  5 10  1  0  0  0  0
  6  5  1  0  0  0  0
  6 13  1  0  0  0  0
  7  1  1  0  0  0  0
  8  2  1  0  0  0  0
 12 11  3  0  0  0  0
 14 13  1  0  0  0  0
 14 15  1  0  0  0  0
 14 16  1  0  0  0  0
 17 14  1  0  0  0  0
M  RAD  1   3   2
M  END
