Coordinates from ORCA-job 4-MeO-Ph-N2+-B3LYPG-6-31G_dp-MTMO-d009-169-n900
 OpenBabel09051907383D

 17 17  0  0  0  0  0  0  0  0999 V2000
   -1.9374   -0.2227    0.1488 C   0  0  0  0  0  0  0  0  0  0  0  0
   -0.6317   -0.2731   -0.2595 C   0  0  0  0  0  0  0  0  0  0  0  0
    0.1782    0.9207   -0.2833 C   0  0  0  0  0  0  0  0  0  0  0  0
   -0.4201    2.1717    0.1345 C   0  0  0  0  0  0  0  0  0  0  0  0
   -1.7216    2.2052    0.5386 C   0  0  0  0  0  0  0  0  0  0  0  0
   -2.5078    1.0161    0.5551 C   0  0  0  0  0  0  0  0  0  0  0  0
   -2.5249   -1.1325    0.1567 H   0  0  0  0  0  0  0  0  0  0  0  0
   -0.1810   -1.2092   -0.5735 H   0  0  0  0  0  0  0  0  0  0  0  0
    0.1893    3.0695    0.1168 H   0  0  0  0  0  0  0  0  0  0  0  0
   -2.1869    3.1319    0.8551 H   0  0  0  0  0  0  0  0  0  0  0  0
    1.2743    0.8790   -0.6261 N   0  0  0  0  0  0  0  0  0  0  0  0
    2.3567    0.8413   -0.9641 N   0  0  0  0  0  0  0  0  0  0  0  0
   -3.7472    1.1684    0.9603 O   0  0  0  0  0  0  0  0  0  0  0  0
   -4.6653    0.0503    1.0292 C   0  0  0  0  0  0  0  0  0  0  0  0
   -5.6009    0.4777    1.3830 H   0  0  0  0  0  0  0  0  0  0  0  0
   -4.3001   -0.6945    1.7409 H   0  0  0  0  0  0  0  0  0  0  0  0
   -4.8031   -0.3866    0.0373 H   0  0  0  0  0  0  0  0  0  0  0  0
  1  7  1  0  0  0  0
  1  6  2  0  0  0  0
  2  1  1  0  0  0  0
  3  2  2  0  0  0  0
  3  4  1  0  0  0  0
  4  5  2  0  0  0  0
  5  6  1  0  0  0  0
  5 10  1  0  0  0  0
  6 13  1  0  0  0  0
  8  2  1  0  0  0  0
  9  4  1  0  0  0  0
 11  3  1  0  0  0  0
 12 11  1  0  0  0  0
 13 14  1  0  0  0  0
 14 15  1  0  0  0  0
 14 16  1  0  0  0  0
 17 14  1  0  0  0  0
M  RAD  2  11   2  12   3
M  END
