Coordinates from ORCA-job 4-MeO-Ph-N2+-B3LYPG-6-31G_dp-MTMO-d009-169-n900
 OpenBabel09051907383D

 17 16  0  0  0  0  0  0  0  0999 V2000
   -0.6491    2.6565    0.0319 C   0  0  0  0  0  0  0  0  0  0  0  0
   -0.2688    4.0203    0.0193 C   0  0  0  0  0  0  0  0  0  0  0  0
   -1.3585    4.7358    0.3313 C   0  0  0  0  0  0  0  0  0  0  0  0
   -2.5194    4.6396    0.9995 C   0  0  0  0  0  0  0  0  0  0  0  0
   -2.8335    3.2645    0.9986 C   0  0  0  0  0  0  0  0  0  0  0  0
   -1.9144    2.2782    0.5423 C   0  0  0  0  0  0  0  0  0  0  0  0
    0.0592    1.9354   -0.3599 H   0  0  0  0  0  0  0  0  0  0  0  0
    0.7127    4.3773   -0.2718 H   0  0  0  0  0  0  0  0  0  0  0  0
   -3.2026    5.4185    1.3174 H   0  0  0  0  0  0  0  0  0  0  0  0
   -3.8364    2.9654    1.2916 H   0  0  0  0  0  0  0  0  0  0  0  0
   -3.6674  -11.5645   -0.6221 N   0  0  0  0  0  0  0  0  0  0  0  0
   -3.9849  -12.6200   -0.7047 N   0  0  0  0  0  0  0  0  0  0  0  0
   -2.3516    1.0294    0.6282 O   0  0  0  0  0  0  0  0  0  0  0  0
   -1.4955   -0.0696    0.2527 C   0  0  0  0  0  0  0  0  0  0  0  0
   -2.0929   -0.9646    0.4157 H   0  0  0  0  0  0  0  0  0  0  0  0
   -0.6038   -0.0948    0.8848 H   0  0  0  0  0  0  0  0  0  0  0  0
   -1.2227    0.0061   -0.8050 H   0  0  0  0  0  0  0  0  0  0  0  0
  1  6  1  0  0  0  0
  2  1  2  0  0  0  0
  2  3  1  0  0  0  0
  3  4  2  0  0  0  0
  4  9  1  0  0  0  0
  5  4  1  0  0  0  0
  5 10  1  0  0  0  0
  6 13  1  0  0  0  0
  6  5  2  0  0  0  0
  7  1  1  0  0  0  0
  8  2  1  0  0  0  0
 12 11  3  0  0  0  0
 14 15  1  0  0  0  0
 14 13  1  0  0  0  0
 14 16  1  0  0  0  0
 17 14  1  0  0  0  0
M  RAD  1   3   2
M  END
