Coordinates from ORCA-job 4-MeO-Ph-N2+-B3LYPG-6-31G_dp-MTMO-d009-169-n900
 OpenBabel09051907383D

 17 16  0  0  0  0  0  0  0  0999 V2000
   -0.7302    2.1201   -0.0026 C   0  0  0  0  0  0  0  0  0  0  0  0
   -0.3249    3.4767    0.0081 C   0  0  0  0  0  0  0  0  0  0  0  0
   -1.4030    4.2074    0.3251 C   0  0  0  0  0  0  0  0  0  0  0  0
   -2.5691    4.1221    0.9858 C   0  0  0  0  0  0  0  0  0  0  0  0
   -2.9085    2.7533    0.9617 C   0  0  0  0  0  0  0  0  0  0  0  0
   -2.0051    1.7573    0.4950 C   0  0  0  0  0  0  0  0  0  0  0  0
   -0.0331    1.3923   -0.4019 H   0  0  0  0  0  0  0  0  0  0  0  0
    0.6645    3.8199   -0.2724 H   0  0  0  0  0  0  0  0  0  0  0  0
   -3.2395    4.9085    1.3125 H   0  0  0  0  0  0  0  0  0  0  0  0
   -3.9183    2.4682    1.2449 H   0  0  0  0  0  0  0  0  0  0  0  0
   -3.0441   -7.6148   -0.3056 N   0  0  0  0  0  0  0  0  0  0  0  0
   -3.2937   -8.6894   -0.3739 N   0  0  0  0  0  0  0  0  0  0  0  0
   -2.4656    0.5156    0.5592 O   0  0  0  0  0  0  0  0  0  0  0  0
   -1.6279   -0.5933    0.1715 C   0  0  0  0  0  0  0  0  0  0  0  0
   -2.2423   -1.4796    0.3182 H   0  0  0  0  0  0  0  0  0  0  0  0
   -0.7401   -0.6439    0.8076 H   0  0  0  0  0  0  0  0  0  0  0  0
   -1.3484   -0.5070   -0.8836 H   0  0  0  0  0  0  0  0  0  0  0  0
  1  2  2  0  0  0  0
  1  6  1  0  0  0  0
  2  3  1  0  0  0  0
  3  4  2  0  0  0  0
  4  9  1  0  0  0  0
  5  4  1  0  0  0  0
  5 10  1  0  0  0  0
  6 13  1  0  0  0  0
  6  5  2  0  0  0  0
  7  1  1  0  0  0  0
  8  2  1  0  0  0  0
 12 11  3  0  0  0  0
 14 15  1  0  0  0  0
 14 13  1  0  0  0  0
 14 16  1  0  0  0  0
 17 14  1  0  0  0  0
M  RAD  1   3   2
M  END
