Coordinates from ORCA-job 4-MeO-Ph-N2+-B3LYPG-6-31G_dp-MTMO-d009-169-n900
 OpenBabel09051907383D

 17 16  0  0  0  0  0  0  0  0999 V2000
   -0.6972    2.3432    0.0108 C   0  0  0  0  0  0  0  0  0  0  0  0
   -0.3011    3.7026    0.0064 C   0  0  0  0  0  0  0  0  0  0  0  0
   -1.3828    4.4290    0.3208 C   0  0  0  0  0  0  0  0  0  0  0  0
   -2.5457    4.3425    0.9869 C   0  0  0  0  0  0  0  0  0  0  0  0
   -2.8759    2.9711    0.9778 C   0  0  0  0  0  0  0  0  0  0  0  0
   -1.9676    1.9768    0.5172 C   0  0  0  0  0  0  0  0  0  0  0  0
    0.0032    1.6162   -0.3840 H   0  0  0  0  0  0  0  0  0  0  0  0
    0.6849    4.0497   -0.2814 H   0  0  0  0  0  0  0  0  0  0  0  0
   -3.2202    5.1274    1.3083 H   0  0  0  0  0  0  0  0  0  0  0  0
   -3.8826    2.6820    1.2678 H   0  0  0  0  0  0  0  0  0  0  0  0
   -3.3062   -9.2719   -0.4488 N   0  0  0  0  0  0  0  0  0  0  0  0
   -3.5739  -10.3418   -0.5211 N   0  0  0  0  0  0  0  0  0  0  0  0
   -2.4194    0.7327    0.5955 O   0  0  0  0  0  0  0  0  0  0  0  0
   -1.5757   -0.3742    0.2150 C   0  0  0  0  0  0  0  0  0  0  0  0
   -2.1836   -1.2630    0.3721 H   0  0  0  0  0  0  0  0  0  0  0  0
   -0.6853   -0.4131    0.8482 H   0  0  0  0  0  0  0  0  0  0  0  0
   -1.3005   -0.2958   -0.8418 H   0  0  0  0  0  0  0  0  0  0  0  0
  1  6  1  0  0  0  0
  2  1  2  0  0  0  0
  2  3  1  0  0  0  0
  3  4  2  0  0  0  0
  4  9  1  0  0  0  0
  5  4  1  0  0  0  0
  5 10  1  0  0  0  0
  6 13  1  0  0  0  0
  6  5  2  0  0  0  0
  7  1  1  0  0  0  0
  8  2  1  0  0  0  0
 12 11  3  0  0  0  0
 14 15  1  0  0  0  0
 14 13  1  0  0  0  0
 14 16  1  0  0  0  0
 17 14  1  0  0  0  0
M  RAD  1   3   2
M  END
