Coordinates from ORCA-job 4-MeO-Ph-N2+-B3LYPG-6-31G_dp-MTMO-d009-169-n900
 OpenBabel09051907383D

 17 16  0  0  0  0  0  0  0  0999 V2000
   -1.8254    0.2226    0.1393 C   0  0  0  0  0  0  0  0  0  0  0  0
   -0.4896    0.5910   -0.1647 C   0  0  0  0  0  0  0  0  0  0  0  0
   -0.4331    1.9244   -0.0958 C   0  0  0  0  0  0  0  0  0  0  0  0
   -1.0293    2.9811    0.4788 C   0  0  0  0  0  0  0  0  0  0  0  0
   -2.3374    2.5454    0.7781 C   0  0  0  0  0  0  0  0  0  0  0  0
   -2.7350    1.1873    0.6317 C   0  0  0  0  0  0  0  0  0  0  0  0
   -2.1036   -0.8130   -0.0195 H   0  0  0  0  0  0  0  0  0  0  0  0
    0.2958   -0.0994   -0.4602 H   0  0  0  0  0  0  0  0  0  0  0  0
   -0.6987    4.0101    0.5536 H   0  0  0  0  0  0  0  0  0  0  0  0
   -3.0749    3.2911    1.0630 H   0  0  0  0  0  0  0  0  0  0  0  0
    2.3365   -0.8662   -1.1399 N   0  0  0  0  0  0  0  0  0  0  0  0
    3.2977   -1.2905   -1.4804 N   0  0  0  0  0  0  0  0  0  0  0  0
   -3.9923    0.9358    0.9763 O   0  0  0  0  0  0  0  0  0  0  0  0
   -4.5013   -0.4118    0.9270 C   0  0  0  0  0  0  0  0  0  0  0  0
   -5.5370   -0.3386    1.2523 H   0  0  0  0  0  0  0  0  0  0  0  0
   -3.9411   -1.0591    1.6075 H   0  0  0  0  0  0  0  0  0  0  0  0
   -4.4609   -0.7968   -0.0973 H   0  0  0  0  0  0  0  0  0  0  0  0
  1  6  2  0  0  0  0
  2  3  2  0  0  0  0
  2  1  1  0  0  0  0
  3  4  1  0  0  0  0
  4  9  1  0  0  0  0
  4  5  2  0  0  0  0
  5 10  1  0  0  0  0
  6  5  1  0  0  0  0
  6 13  1  0  0  0  0
  7  1  1  0  0  0  0
  8  2  1  0  0  0  0
 12 11  3  0  0  0  0
 14 13  1  0  0  0  0
 14 15  1  0  0  0  0
 14 16  1  0  0  0  0
 17 14  1  0  0  0  0
M  RAD  1   3   2
M  END
