Coordinates from ORCA-job 4-MeO-Ph-N2+-B3LYPG-6-31G_dp-MTMO-d009-169-n900
 OpenBabel09051907383D

 17 16  0  0  0  0  0  0  0  0999 V2000
   -0.7514    1.9490   -0.0127 C   0  0  0  0  0  0  0  0  0  0  0  0
   -0.3583    3.3087    0.0200 C   0  0  0  0  0  0  0  0  0  0  0  0
   -1.4448    4.0261    0.3393 C   0  0  0  0  0  0  0  0  0  0  0  0
   -2.6141    3.9208    0.9917 C   0  0  0  0  0  0  0  0  0  0  0  0
   -2.9414    2.5496    0.9460 C   0  0  0  0  0  0  0  0  0  0  0  0
   -2.0264    1.5681    0.4713 C   0  0  0  0  0  0  0  0  0  0  0  0
   -0.0454    1.2330   -0.4176 H   0  0  0  0  0  0  0  0  0  0  0  0
    0.6300    3.6643   -0.2488 H   0  0  0  0  0  0  0  0  0  0  0  0
   -3.2936    4.6965    1.3250 H   0  0  0  0  0  0  0  0  0  0  0  0
   -3.9506    2.2519    1.2183 H   0  0  0  0  0  0  0  0  0  0  0  0
   -2.8817   -6.2299   -0.1624 N   0  0  0  0  0  0  0  0  0  0  0  0
   -3.1295   -7.3051   -0.2247 N   0  0  0  0  0  0  0  0  0  0  0  0
   -2.4765    0.3218    0.5151 O   0  0  0  0  0  0  0  0  0  0  0  0
   -1.6270   -0.7749    0.1174 C   0  0  0  0  0  0  0  0  0  0  0  0
   -2.2340   -1.6685    0.2489 H   0  0  0  0  0  0  0  0  0  0  0  0
   -0.7423   -0.8260    0.7578 H   0  0  0  0  0  0  0  0  0  0  0  0
   -1.3425   -0.6719   -0.9348 H   0  0  0  0  0  0  0  0  0  0  0  0
  1  2  2  0  0  0  0
  1  6  1  0  0  0  0
  2  3  1  0  0  0  0
  3  4  2  0  0  0  0
  4  9  1  0  0  0  0
  5  4  1  0  0  0  0
  5 10  1  0  0  0  0
  6 13  1  0  0  0  0
  6  5  2  0  0  0  0
  7  1  1  0  0  0  0
  8  2  1  0  0  0  0
 12 11  3  0  0  0  0
 14 15  1  0  0  0  0
 14 13  1  0  0  0  0
 14 16  1  0  0  0  0
 17 14  1  0  0  0  0
M  RAD  1   3   2
M  END
