Coordinates from ORCA-job 4-MeO-Ph-N2+-B3LYPG-6-31G_dp-MTMO-d009-169-n900
 OpenBabel09051907383D

 17 16  0  0  0  0  0  0  0  0999 V2000
   -0.7149    2.2254    0.0035 C   0  0  0  0  0  0  0  0  0  0  0  0
   -0.3128    3.5830    0.0058 C   0  0  0  0  0  0  0  0  0  0  0  0
   -1.3919    4.3128    0.3215 C   0  0  0  0  0  0  0  0  0  0  0  0
   -2.5563    4.2285    0.9853 C   0  0  0  0  0  0  0  0  0  0  0  0
   -2.8924    2.8587    0.9696 C   0  0  0  0  0  0  0  0  0  0  0  0
   -1.9877    1.8624    0.5062 C   0  0  0  0  0  0  0  0  0  0  0  0
   -0.0170    1.4971   -0.3933 H   0  0  0  0  0  0  0  0  0  0  0  0
    0.6751    3.9271   -0.2789 H   0  0  0  0  0  0  0  0  0  0  0  0
   -3.2278    5.0150    1.3091 H   0  0  0  0  0  0  0  0  0  0  0  0
   -3.9009    2.5728    1.2567 H   0  0  0  0  0  0  0  0  0  0  0  0
   -3.1665   -8.4049   -0.3767 N   0  0  0  0  0  0  0  0  0  0  0  0
   -3.4230   -9.4777   -0.4464 N   0  0  0  0  0  0  0  0  0  0  0  0
   -2.4451    0.6199    0.5783 O   0  0  0  0  0  0  0  0  0  0  0  0
   -1.6057   -0.4890    0.1945 C   0  0  0  0  0  0  0  0  0  0  0  0
   -2.2177   -1.3759    0.3470 H   0  0  0  0  0  0  0  0  0  0  0  0
   -0.7164   -0.5344    0.8290 H   0  0  0  0  0  0  0  0  0  0  0  0
   -1.3285   -0.4074   -0.8616 H   0  0  0  0  0  0  0  0  0  0  0  0
  1  2  2  0  0  0  0
  1  6  1  0  0  0  0
  2  3  1  0  0  0  0
  3  4  2  0  0  0  0
  4  9  1  0  0  0  0
  5  4  1  0  0  0  0
  5 10  1  0  0  0  0
  6 13  1  0  0  0  0
  6  5  2  0  0  0  0
  7  1  1  0  0  0  0
  8  2  1  0  0  0  0
 12 11  3  0  0  0  0
 14 15  1  0  0  0  0
 14 13  1  0  0  0  0
 14 16  1  0  0  0  0
 17 14  1  0  0  0  0
M  RAD  1   3   2
M  END
