Coordinates from ORCA-job 4-MeO-Ph-N2+-B3LYPG-6-31G_dp-MTMO-d009-169-n900
 OpenBabel09051907383D

 17 16  0  0  0  0  0  0  0  0999 V2000
   -0.9317    1.5093   -0.0160 C   0  0  0  0  0  0  0  0  0  0  0  0
   -0.3059    2.7786   -0.0482 C   0  0  0  0  0  0  0  0  0  0  0  0
   -1.2402    3.6892    0.2631 C   0  0  0  0  0  0  0  0  0  0  0  0
   -2.3890    3.8140    0.9485 C   0  0  0  0  0  0  0  0  0  0  0  0
   -2.9531    2.5216    0.9669 C   0  0  0  0  0  0  0  0  0  0  0  0
   -2.2386    1.3769    0.5128 C   0  0  0  0  0  0  0  0  0  0  0  0
   -0.3761    0.6655   -0.4088 H   0  0  0  0  0  0  0  0  0  0  0  0
    0.7208    2.9445   -0.3545 H   0  0  0  0  0  0  0  0  0  0  0  0
   -2.9114    4.7088    1.2655 H   0  0  0  0  0  0  0  0  0  0  0  0
   -3.9905    2.4164    1.2731 H   0  0  0  0  0  0  0  0  0  0  0  0
   -1.5949   -4.2812   -0.3423 N   0  0  0  0  0  0  0  0  0  0  0  0
   -1.4602   -5.3668   -0.4984 N   0  0  0  0  0  0  0  0  0  0  0  0
   -2.8977    0.2324    0.6196 O   0  0  0  0  0  0  0  0  0  0  0  0
   -2.2651   -1.0139    0.2553 C   0  0  0  0  0  0  0  0  0  0  0  0
   -3.0144   -1.7807    0.4367 H   0  0  0  0  0  0  0  0  0  0  0  0
   -1.3877   -1.1952    0.8814 H   0  0  0  0  0  0  0  0  0  0  0  0
   -1.9936   -1.0060   -0.8049 H   0  0  0  0  0  0  0  0  0  0  0  0
  1  6  1  0  0  0  0
  2  1  2  0  0  0  0
  2  3  1  0  0  0  0
  3  4  2  0  0  0  0
  4  5  1  0  0  0  0
  4  9  1  0  0  0  0
  5 10  1  0  0  0  0
  6 13  1  0  0  0  0
  6  5  2  0  0  0  0
  7  1  1  0  0  0  0
  8  2  1  0  0  0  0
 12 11  3  0  0  0  0
 14 15  1  0  0  0  0
 14 13  1  0  0  0  0
 14 16  1  0  0  0  0
 17 14  1  0  0  0  0
M  RAD  1   3   2
M  END
