Coordinates from ORCA-job 4-MeO-Ph-N2+-B3LYPG-6-31G_dp-MTMO-d009-169-n900
 OpenBabel09051907383D

 17 16  0  0  0  0  0  0  0  0999 V2000
   -1.7574    0.3153    0.1310 C   0  0  0  0  0  0  0  0  0  0  0  0
   -0.4394    0.7566   -0.1595 C   0  0  0  0  0  0  0  0  0  0  0  0
   -0.4592    2.0886   -0.0654 C   0  0  0  0  0  0  0  0  0  0  0  0
   -1.1180    3.1033    0.5166 C   0  0  0  0  0  0  0  0  0  0  0  0
   -2.4028    2.5947    0.8012 C   0  0  0  0  0  0  0  0  0  0  0  0
   -2.7229    1.2196    0.6314 C   0  0  0  0  0  0  0  0  0  0  0  0
   -1.9788   -0.7303   -0.0512 H   0  0  0  0  0  0  0  0  0  0  0  0
    0.3728    0.1027   -0.4676 H   0  0  0  0  0  0  0  0  0  0  0  0
   -0.8399    4.1459    0.6139 H   0  0  0  0  0  0  0  0  0  0  0  0
   -3.1795    3.2941    1.0989 H   0  0  0  0  0  0  0  0  0  0  0  0
    2.1780   -1.1350   -1.1321 N   0  0  0  0  0  0  0  0  0  0  0  0
    3.0518   -1.7249   -1.4609 N   0  0  0  0  0  0  0  0  0  0  0  0
   -3.9665    0.8919    0.9625 O   0  0  0  0  0  0  0  0  0  0  0  0
   -4.3969   -0.4817    0.8914 C   0  0  0  0  0  0  0  0  0  0  0  0
   -5.4372   -0.4725    1.2104 H   0  0  0  0  0  0  0  0  0  0  0  0
   -3.8051   -1.1055    1.5671 H   0  0  0  0  0  0  0  0  0  0  0  0
   -4.3286   -0.8495   -0.1378 H   0  0  0  0  0  0  0  0  0  0  0  0
  1  6  2  0  0  0  0
  2  3  2  0  0  0  0
  2  1  1  0  0  0  0
  3  4  1  0  0  0  0
  4  9  1  0  0  0  0
  4  5  2  0  0  0  0
  5 10  1  0  0  0  0
  6  5  1  0  0  0  0
  6 13  1  0  0  0  0
  7  1  1  0  0  0  0
  8  2  1  0  0  0  0
 12 11  3  0  0  0  0
 14 13  1  0  0  0  0
 14 15  1  0  0  0  0
 14 16  1  0  0  0  0
 17 14  1  0  0  0  0
M  RAD  1   3   2
M  END
