Coordinates from ORCA-job 4-MeO-Ph-N2+-B3LYPG-6-31G_dp-MTMO-d009-169-n900
 OpenBabel09051907383D

 17 16  0  0  0  0  0  0  0  0999 V2000
   -0.6631    2.5654    0.0255 C   0  0  0  0  0  0  0  0  0  0  0  0
   -0.2786    3.9280    0.0144 C   0  0  0  0  0  0  0  0  0  0  0  0
   -1.3660    4.6467    0.3270 C   0  0  0  0  0  0  0  0  0  0  0  0
   -2.5273    4.5535    0.9950 C   0  0  0  0  0  0  0  0  0  0  0  0
   -2.8457    3.1794    0.9926 C   0  0  0  0  0  0  0  0  0  0  0  0
   -1.9297    2.1907    0.5353 C   0  0  0  0  0  0  0  0  0  0  0  0
    0.0429    1.8425   -0.3669 H   0  0  0  0  0  0  0  0  0  0  0  0
    0.7041    4.2822   -0.2762 H   0  0  0  0  0  0  0  0  0  0  0  0
   -3.2080    5.3342    1.3136 H   0  0  0  0  0  0  0  0  0  0  0  0
   -3.8496    2.8831    1.2852 H   0  0  0  0  0  0  0  0  0  0  0  0
   -3.5618  -10.8986   -0.5720 N   0  0  0  0  0  0  0  0  0  0  0  0
   -3.8669  -11.9578   -0.6535 N   0  0  0  0  0  0  0  0  0  0  0  0
   -2.3709    0.9431    0.6199 O   0  0  0  0  0  0  0  0  0  0  0  0
   -1.5183   -0.1583    0.2433 C   0  0  0  0  0  0  0  0  0  0  0  0
   -2.1186   -1.0514    0.4052 H   0  0  0  0  0  0  0  0  0  0  0  0
   -0.6268   -0.1869    0.8755 H   0  0  0  0  0  0  0  0  0  0  0  0
   -1.2451   -0.0822   -0.8143 H   0  0  0  0  0  0  0  0  0  0  0  0
  1  6  1  0  0  0  0
  2  1  2  0  0  0  0
  2  3  1  0  0  0  0
  3  4  2  0  0  0  0
  4  9  1  0  0  0  0
  5  4  1  0  0  0  0
  5 10  1  0  0  0  0
  6 13  1  0  0  0  0
  6  5  2  0  0  0  0
  7  1  1  0  0  0  0
  8  2  1  0  0  0  0
 12 11  3  0  0  0  0
 14 15  1  0  0  0  0
 14 13  1  0  0  0  0
 14 16  1  0  0  0  0
 17 14  1  0  0  0  0
M  RAD  1   3   2
M  END
