Coordinates from ORCA-job 4-MeO-Ph-N2+-B3LYPG-6-31G_dp-MTMO-d009-169-n900
 OpenBabel09051907383D

 17 16  0  0  0  0  0  0  0  0999 V2000
   -0.7553    1.9007   -0.0150 C   0  0  0  0  0  0  0  0  0  0  0  0
   -0.3716    3.2626    0.0335 C   0  0  0  0  0  0  0  0  0  0  0  0
   -1.4644    3.9699    0.3544 C   0  0  0  0  0  0  0  0  0  0  0  0
   -2.6358    3.8497    1.0005 C   0  0  0  0  0  0  0  0  0  0  0  0
   -2.9537    2.4770    0.9394 C   0  0  0  0  0  0  0  0  0  0  0  0
   -2.0299    1.5062    0.4592 C   0  0  0  0  0  0  0  0  0  0  0  0
   -0.0425    1.1935   -0.4237 H   0  0  0  0  0  0  0  0  0  0  0  0
    0.6157    3.6274   -0.2269 H   0  0  0  0  0  0  0  0  0  0  0  0
   -3.3221    4.6174    1.3384 H   0  0  0  0  0  0  0  0  0  0  0  0
   -3.9621    2.1698    1.2038 H   0  0  0  0  0  0  0  0  0  0  0  0
   -2.8515   -5.7913   -0.1050 N   0  0  0  0  0  0  0  0  0  0  0  0
   -3.1011   -6.8669   -0.1520 N   0  0  0  0  0  0  0  0  0  0  0  0
   -2.4718    0.2566    0.4889 O   0  0  0  0  0  0  0  0  0  0  0  0
   -1.6132   -0.8310    0.0849 C   0  0  0  0  0  0  0  0  0  0  0  0
   -2.2140   -1.7303    0.2063 H   0  0  0  0  0  0  0  0  0  0  0  0
   -0.7305   -0.8814    0.7282 H   0  0  0  0  0  0  0  0  0  0  0  0
   -1.3255   -0.7166   -0.9652 H   0  0  0  0  0  0  0  0  0  0  0  0
  1  2  2  0  0  0  0
  1  6  1  0  0  0  0
  2  3  1  0  0  0  0
  3  4  2  0  0  0  0
  4  9  1  0  0  0  0
  5  4  1  0  0  0  0
  5 10  1  0  0  0  0
  6 13  1  0  0  0  0
  6  5  2  0  0  0  0
  7  1  1  0  0  0  0
  8  2  1  0  0  0  0
 12 11  3  0  0  0  0
 14 15  1  0  0  0  0
 14 13  1  0  0  0  0
 14 16  1  0  0  0  0
 17 14  1  0  0  0  0
M  RAD  1   3   2
M  END
