Coordinates from ORCA-job 4-MeO-Ph-N2+-B3LYPG-6-31G_dp-MTMO-d009-169-n900
 OpenBabel09051907383D

 17 16  0  0  0  0  0  0  0  0999 V2000
   -0.6775    2.4720    0.0192 C   0  0  0  0  0  0  0  0  0  0  0  0
   -0.2879    3.8332    0.0101 C   0  0  0  0  0  0  0  0  0  0  0  0
   -1.3728    4.5554    0.3234 C   0  0  0  0  0  0  0  0  0  0  0  0
   -2.5346    4.4655    0.9909 C   0  0  0  0  0  0  0  0  0  0  0  0
   -2.8582    3.0926    0.9864 C   0  0  0  0  0  0  0  0  0  0  0  0
   -1.9456    2.1012    0.5281 C   0  0  0  0  0  0  0  0  0  0  0  0
    0.0260    1.7471   -0.3740 H   0  0  0  0  0  0  0  0  0  0  0  0
    0.6961    4.1842   -0.2797 H   0  0  0  0  0  0  0  0  0  0  0  0
   -3.2126    5.2483    1.3105 H   0  0  0  0  0  0  0  0  0  0  0  0
   -3.8632    2.7996    1.2783 H   0  0  0  0  0  0  0  0  0  0  0  0
   -3.4557  -10.2168   -0.5216 N   0  0  0  0  0  0  0  0  0  0  0  0
   -3.7421  -11.2815   -0.5992 N   0  0  0  0  0  0  0  0  0  0  0  0
   -2.3914    0.8551    0.6107 O   0  0  0  0  0  0  0  0  0  0  0  0
   -1.5428   -0.2488    0.2327 C   0  0  0  0  0  0  0  0  0  0  0  0
   -2.1464   -1.1400    0.3932 H   0  0  0  0  0  0  0  0  0  0  0  0
   -0.6516   -0.2817    0.8652 H   0  0  0  0  0  0  0  0  0  0  0  0
   -1.2690   -0.1723   -0.8246 H   0  0  0  0  0  0  0  0  0  0  0  0
  1  6  1  0  0  0  0
  2  1  2  0  0  0  0
  2  3  1  0  0  0  0
  3  4  2  0  0  0  0
  4  9  1  0  0  0  0
  5  4  1  0  0  0  0
  5 10  1  0  0  0  0
  6 13  1  0  0  0  0
  6  5  2  0  0  0  0
  7  1  1  0  0  0  0
  8  2  1  0  0  0  0
 12 11  3  0  0  0  0
 14 15  1  0  0  0  0
 14 13  1  0  0  0  0
 14 16  1  0  0  0  0
 17 14  1  0  0  0  0
M  RAD  1   3   2
M  END
