Coordinates from ORCA-job 4-MeO-Ph-N2+-B3LYPG-6-31G_dp-MTMO-d009-169-n900
 OpenBabel09051907383D

 17 16  0  0  0  0  0  0  0  0999 V2000
   -0.6600    2.5862    0.0269 C   0  0  0  0  0  0  0  0  0  0  0  0
   -0.2761    3.9490    0.0151 C   0  0  0  0  0  0  0  0  0  0  0  0
   -1.3638    4.6674    0.3275 C   0  0  0  0  0  0  0  0  0  0  0  0
   -2.5249    4.5739    0.9958 C   0  0  0  0  0  0  0  0  0  0  0  0
   -2.8427    3.1996    0.9941 C   0  0  0  0  0  0  0  0  0  0  0  0
   -1.9263    2.2111    0.5371 C   0  0  0  0  0  0  0  0  0  0  0  0
    0.0463    1.8635   -0.3653 H   0  0  0  0  0  0  0  0  0  0  0  0
    0.7064    4.3035   -0.2758 H   0  0  0  0  0  0  0  0  0  0  0  0
   -3.2060    5.3544    1.3141 H   0  0  0  0  0  0  0  0  0  0  0  0
   -3.8464    2.9031    1.2869 H   0  0  0  0  0  0  0  0  0  0  0  0
   -3.5857  -11.0536   -0.5841 N   0  0  0  0  0  0  0  0  0  0  0  0
   -3.8934  -12.1120   -0.6659 N   0  0  0  0  0  0  0  0  0  0  0  0
   -2.3669    0.9634    0.6223 O   0  0  0  0  0  0  0  0  0  0  0  0
   -1.5138   -0.1377    0.2460 C   0  0  0  0  0  0  0  0  0  0  0  0
   -2.1135   -1.0311    0.4083 H   0  0  0  0  0  0  0  0  0  0  0  0
   -0.6222   -0.1656    0.8782 H   0  0  0  0  0  0  0  0  0  0  0  0
   -1.2407   -0.0619   -0.8116 H   0  0  0  0  0  0  0  0  0  0  0  0
  1  6  1  0  0  0  0
  2  1  2  0  0  0  0
  2  3  1  0  0  0  0
  3  4  2  0  0  0  0
  4  9  1  0  0  0  0
  5  4  1  0  0  0  0
  5 10  1  0  0  0  0
  6 13  1  0  0  0  0
  6  5  2  0  0  0  0
  7  1  1  0  0  0  0
  8  2  1  0  0  0  0
 12 11  3  0  0  0  0
 14 15  1  0  0  0  0
 14 13  1  0  0  0  0
 14 16  1  0  0  0  0
 17 14  1  0  0  0  0
M  RAD  1   3   2
M  END
