Coordinates from ORCA-job 4-MeO-Ph-N2+-B3LYPG-6-31G_dp-MTMO-d009-169-n900
 OpenBabel09051907383D

 17 16  0  0  0  0  0  0  0  0999 V2000
   -0.6468    2.6713    0.0329 C   0  0  0  0  0  0  0  0  0  0  0  0
   -0.2672    4.0353    0.0202 C   0  0  0  0  0  0  0  0  0  0  0  0
   -1.3572    4.7503    0.3321 C   0  0  0  0  0  0  0  0  0  0  0  0
   -2.5181    4.6536    1.0003 C   0  0  0  0  0  0  0  0  0  0  0  0
   -2.8315    3.2784    0.9995 C   0  0  0  0  0  0  0  0  0  0  0  0
   -1.9119    2.2925    0.5434 C   0  0  0  0  0  0  0  0  0  0  0  0
    0.0619    1.9506   -0.3587 H   0  0  0  0  0  0  0  0  0  0  0  0
    0.7142    4.3927   -0.2710 H   0  0  0  0  0  0  0  0  0  0  0  0
   -3.2016    5.4322    1.3181 H   0  0  0  0  0  0  0  0  0  0  0  0
   -3.8343    2.9788    1.2926 H   0  0  0  0  0  0  0  0  0  0  0  0
   -3.6846  -11.6729   -0.6301 N   0  0  0  0  0  0  0  0  0  0  0  0
   -4.0040  -12.7278   -0.7129 N   0  0  0  0  0  0  0  0  0  0  0  0
   -2.3485    1.0434    0.6295 O   0  0  0  0  0  0  0  0  0  0  0  0
   -1.4919   -0.0552    0.2540 C   0  0  0  0  0  0  0  0  0  0  0  0
   -2.0888   -0.9504    0.4172 H   0  0  0  0  0  0  0  0  0  0  0  0
   -0.6002   -0.0798    0.8862 H   0  0  0  0  0  0  0  0  0  0  0  0
   -1.2191    0.0205   -0.8036 H   0  0  0  0  0  0  0  0  0  0  0  0
  1  6  1  0  0  0  0
  2  1  2  0  0  0  0
  2  3  1  0  0  0  0
  3  4  2  0  0  0  0
  4  9  1  0  0  0  0
  5  4  1  0  0  0  0
  5 10  1  0  0  0  0
  6 13  1  0  0  0  0
  6  5  2  0  0  0  0
  7  1  1  0  0  0  0
  8  2  1  0  0  0  0
 12 11  3  0  0  0  0
 14 15  1  0  0  0  0
 14 13  1  0  0  0  0
 14 16  1  0  0  0  0
 17 14  1  0  0  0  0
M  RAD  1   3   2
M  END
