Coordinates from ORCA-job 4-MeO-Ph-N2+-B3LYPG-6-31G_dp-MTMO-d009-169-n900
 OpenBabel09051907383D

 17 16  0  0  0  0  0  0  0  0999 V2000
   -1.7359    0.3454    0.1313 C   0  0  0  0  0  0  0  0  0  0  0  0
   -0.4242    0.8106   -0.1527 C   0  0  0  0  0  0  0  0  0  0  0  0
   -0.4699    2.1417   -0.0528 C   0  0  0  0  0  0  0  0  0  0  0  0
   -1.1506    3.1416    0.5296 C   0  0  0  0  0  0  0  0  0  0  0  0
   -2.4271    2.6095    0.8074 C   0  0  0  0  0  0  0  0  0  0  0  0
   -2.7204    1.2294    0.6310 C   0  0  0  0  0  0  0  0  0  0  0  0
   -1.9379   -0.7027   -0.0586 H   0  0  0  0  0  0  0  0  0  0  0  0
    0.3969    0.1688   -0.4631 H   0  0  0  0  0  0  0  0  0  0  0  0
   -0.8904    4.1882    0.6342 H   0  0  0  0  0  0  0  0  0  0  0  0
   -3.2170    3.2931    1.1071 H   0  0  0  0  0  0  0  0  0  0  0  0
    2.1428   -1.2139   -1.1350 N   0  0  0  0  0  0  0  0  0  0  0  0
    2.9725   -1.8656   -1.4615 N   0  0  0  0  0  0  0  0  0  0  0  0
   -3.9589    0.8766    0.9554 O   0  0  0  0  0  0  0  0  0  0  0  0
   -4.3622   -0.5049    0.8790 C   0  0  0  0  0  0  0  0  0  0  0  0
   -5.4036   -0.5170    1.1942 H   0  0  0  0  0  0  0  0  0  0  0  0
   -3.7606   -1.1189    1.5552 H   0  0  0  0  0  0  0  0  0  0  0  0
   -4.2830   -0.8684   -0.1509 H   0  0  0  0  0  0  0  0  0  0  0  0
  1  6  2  0  0  0  0
  2  3  2  0  0  0  0
  2  1  1  0  0  0  0
  3  4  1  0  0  0  0
  4  9  1  0  0  0  0
  4  5  2  0  0  0  0
  5 10  1  0  0  0  0
  6  5  1  0  0  0  0
  6 13  1  0  0  0  0
  7  1  1  0  0  0  0
  8  2  1  0  0  0  0
 12 11  3  0  0  0  0
 14 13  1  0  0  0  0
 14 15  1  0  0  0  0
 14 16  1  0  0  0  0
 17 14  1  0  0  0  0
M  RAD  1   3   2
M  END
