Coordinates from ORCA-job 4-MeO-Ph-N2+-B3LYPG-6-31G_dp-MTMO-d009-169-n900
 OpenBabel09051907383D

 17 16  0  0  0  0  0  0  0  0999 V2000
   -0.7342    2.0918   -0.0043 C   0  0  0  0  0  0  0  0  0  0  0  0
   -0.3288    3.4483    0.0092 C   0  0  0  0  0  0  0  0  0  0  0  0
   -1.4071    4.1786    0.3266 C   0  0  0  0  0  0  0  0  0  0  0  0
   -2.5737    4.0922    0.9863 C   0  0  0  0  0  0  0  0  0  0  0  0
   -2.9132    2.7234    0.9595 C   0  0  0  0  0  0  0  0  0  0  0  0
   -2.0095    1.7282    0.4917 C   0  0  0  0  0  0  0  0  0  0  0  0
   -0.0369    1.3646   -0.4042 H   0  0  0  0  0  0  0  0  0  0  0  0
    0.6609    3.7919   -0.2698 H   0  0  0  0  0  0  0  0  0  0  0  0
   -3.2442    4.8780    1.3138 H   0  0  0  0  0  0  0  0  0  0  0  0
   -3.9232    2.4379    1.2413 H   0  0  0  0  0  0  0  0  0  0  0  0
   -3.0127   -7.3977   -0.2850 N   0  0  0  0  0  0  0  0  0  0  0  0
   -3.2608   -8.4726   -0.3529 N   0  0  0  0  0  0  0  0  0  0  0  0
   -2.4702    0.4864    0.5533 O   0  0  0  0  0  0  0  0  0  0  0  0
   -1.6323   -0.6219    0.1643 C   0  0  0  0  0  0  0  0  0  0  0  0
   -2.2467   -1.5084    0.3092 H   0  0  0  0  0  0  0  0  0  0  0  0
   -0.7449   -0.6736    0.8010 H   0  0  0  0  0  0  0  0  0  0  0  0
   -1.3520   -0.5339   -0.8904 H   0  0  0  0  0  0  0  0  0  0  0  0
  1  2  2  0  0  0  0
  1  6  1  0  0  0  0
  2  3  1  0  0  0  0
  3  4  2  0  0  0  0
  4  9  1  0  0  0  0
  5  4  1  0  0  0  0
  5 10  1  0  0  0  0
  6 13  1  0  0  0  0
  6  5  2  0  0  0  0
  7  1  1  0  0  0  0
  8  2  1  0  0  0  0
 12 11  3  0  0  0  0
 14 15  1  0  0  0  0
 14 13  1  0  0  0  0
 14 16  1  0  0  0  0
 17 14  1  0  0  0  0
M  RAD  1   3   2
M  END
