Coordinates from ORCA-job 4-MeO-Ph-N2+-B3LYPG-6-31G_dp-MTMO-d009-169-n900
 OpenBabel09051907383D

 17 16  0  0  0  0  0  0  0  0999 V2000
   -0.6580    2.5990    0.0278 C   0  0  0  0  0  0  0  0  0  0  0  0
   -0.2748    3.9621    0.0159 C   0  0  0  0  0  0  0  0  0  0  0  0
   -1.3628    4.6798    0.3283 C   0  0  0  0  0  0  0  0  0  0  0  0
   -2.5239    4.5858    0.9964 C   0  0  0  0  0  0  0  0  0  0  0  0
   -2.8411    3.2114    0.9948 C   0  0  0  0  0  0  0  0  0  0  0  0
   -1.9241    2.2233    0.5380 C   0  0  0  0  0  0  0  0  0  0  0  0
    0.0487    1.8767   -0.3643 H   0  0  0  0  0  0  0  0  0  0  0  0
    0.7075    4.3170   -0.2751 H   0  0  0  0  0  0  0  0  0  0  0  0
   -3.2054    5.3660    1.3147 H   0  0  0  0  0  0  0  0  0  0  0  0
   -3.8446    2.9143    1.2878 H   0  0  0  0  0  0  0  0  0  0  0  0
   -3.6006  -11.1465   -0.5911 N   0  0  0  0  0  0  0  0  0  0  0  0
   -3.9101  -12.2044   -0.6730 N   0  0  0  0  0  0  0  0  0  0  0  0
   -2.3640    0.9754    0.6234 O   0  0  0  0  0  0  0  0  0  0  0  0
   -1.5104   -0.1253    0.2472 C   0  0  0  0  0  0  0  0  0  0  0  0
   -2.1097   -1.0190    0.4098 H   0  0  0  0  0  0  0  0  0  0  0  0
   -0.6188   -0.1527    0.8794 H   0  0  0  0  0  0  0  0  0  0  0  0
   -1.2374   -0.0496   -0.8104 H   0  0  0  0  0  0  0  0  0  0  0  0
  1  6  1  0  0  0  0
  2  1  2  0  0  0  0
  2  3  1  0  0  0  0
  3  4  2  0  0  0  0
  4  9  1  0  0  0  0
  5  4  1  0  0  0  0
  5 10  1  0  0  0  0
  6 13  1  0  0  0  0
  6  5  2  0  0  0  0
  7  1  1  0  0  0  0
  8  2  1  0  0  0  0
 12 11  3  0  0  0  0
 14 15  1  0  0  0  0
 14 13  1  0  0  0  0
 14 16  1  0  0  0  0
 17 14  1  0  0  0  0
M  RAD  1   3   2
M  END
