Coordinates from ORCA-job 4-MeO-Ph-N2+-B3LYPG-6-31G_dp-MTMO-d009-169-n900
 OpenBabel09051907383D

 17 16  0  0  0  0  0  0  0  0999 V2000
   -1.6338    0.6866    0.1114 C   0  0  0  0  0  0  0  0  0  0  0  0
   -0.4230    1.3823   -0.1286 C   0  0  0  0  0  0  0  0  0  0  0  0
   -0.6844    2.6855    0.0402 C   0  0  0  0  0  0  0  0  0  0  0  0
   -1.5170    3.5135    0.6925 C   0  0  0  0  0  0  0  0  0  0  0  0
   -2.6877    2.7615    0.9219 C   0  0  0  0  0  0  0  0  0  0  0  0
   -2.7502    1.3651    0.6568 C   0  0  0  0  0  0  0  0  0  0  0  0
   -1.6614   -0.3663   -0.1458 H   0  0  0  0  0  0  0  0  0  0  0  0
    0.4923    0.9090   -0.4666 H   0  0  0  0  0  0  0  0  0  0  0  0
   -1.4356    4.5800    0.8671 H   0  0  0  0  0  0  0  0  0  0  0  0
   -3.5813    3.2852    1.2512 H   0  0  0  0  0  0  0  0  0  0  0  0
    2.2241   -2.5841   -1.3077 N   0  0  0  0  0  0  0  0  0  0  0  0
    2.8535   -3.4525   -1.5745 N   0  0  0  0  0  0  0  0  0  0  0  0
   -3.9117    0.7947    0.9474 O   0  0  0  0  0  0  0  0  0  0  0  0
   -4.0806   -0.6294    0.7946 C   0  0  0  0  0  0  0  0  0  0  0  0
   -5.1055   -0.8300    1.0996 H   0  0  0  0  0  0  0  0  0  0  0  0
   -3.3851   -1.1695    1.4427 H   0  0  0  0  0  0  0  0  0  0  0  0
   -3.9422   -0.9183   -0.2525 H   0  0  0  0  0  0  0  0  0  0  0  0
  1  6  2  0  0  0  0
  2  3  2  0  0  0  0
  2  1  1  0  0  0  0
  3  4  1  0  0  0  0
  4  9  1  0  0  0  0
  4  5  2  0  0  0  0
  5 10  1  0  0  0  0
  6  5  1  0  0  0  0
  6 13  1  0  0  0  0
  7  1  1  0  0  0  0
  8  2  1  0  0  0  0
 12 11  3  0  0  0  0
 14 13  1  0  0  0  0
 14 15  1  0  0  0  0
 14 16  1  0  0  0  0
 17 14  1  0  0  0  0
M  RAD  1   3   2
M  END
