Coordinates from ORCA-job 4-MeO-Ph-N2+-B3LYPG-6-31G_dp-MTMO-d009-169-n900
 OpenBabel09051907383D

 17 16  0  0  0  0  0  0  0  0999 V2000
   -0.6719    2.5084    0.0217 C   0  0  0  0  0  0  0  0  0  0  0  0
   -0.2847    3.8703    0.0120 C   0  0  0  0  0  0  0  0  0  0  0  0
   -1.3708    4.5907    0.3251 C   0  0  0  0  0  0  0  0  0  0  0  0
   -2.5324    4.4991    0.9926 C   0  0  0  0  0  0  0  0  0  0  0  0
   -2.8536    3.1256    0.9887 C   0  0  0  0  0  0  0  0  0  0  0  0
   -1.9393    2.1356    0.5308 C   0  0  0  0  0  0  0  0  0  0  0  0
    0.0329    1.7846   -0.3712 H   0  0  0  0  0  0  0  0  0  0  0  0
    0.6987    4.2229   -0.2780 H   0  0  0  0  0  0  0  0  0  0  0  0
   -3.2117    5.2808    1.3119 H   0  0  0  0  0  0  0  0  0  0  0  0
   -3.8581    2.8310    1.2808 H   0  0  0  0  0  0  0  0  0  0  0  0
   -3.4968  -10.4803   -0.5404 N   0  0  0  0  0  0  0  0  0  0  0  0
   -3.7922  -11.5424   -0.6200 N   0  0  0  0  0  0  0  0  0  0  0  0
   -2.3829    0.8888    0.6140 O   0  0  0  0  0  0  0  0  0  0  0  0
   -1.5324   -0.2138    0.2364 C   0  0  0  0  0  0  0  0  0  0  0  0
   -2.1344   -1.1060    0.3973 H   0  0  0  0  0  0  0  0  0  0  0  0
   -0.6411   -0.2448    0.8689 H   0  0  0  0  0  0  0  0  0  0  0  0
   -1.2588   -0.1373   -0.8209 H   0  0  0  0  0  0  0  0  0  0  0  0
  1  6  1  0  0  0  0
  2  1  2  0  0  0  0
  2  3  1  0  0  0  0
  3  4  2  0  0  0  0
  4  9  1  0  0  0  0
  5  4  1  0  0  0  0
  5 10  1  0  0  0  0
  6 13  1  0  0  0  0
  6  5  2  0  0  0  0
  7  1  1  0  0  0  0
  8  2  1  0  0  0  0
 12 11  3  0  0  0  0
 14 15  1  0  0  0  0
 14 13  1  0  0  0  0
 14 16  1  0  0  0  0
 17 14  1  0  0  0  0
M  RAD  1   3   2
M  END
