Coordinates from ORCA-job 4-MeO-Ph-N2+-B3LYPG-6-31G_dp-MTMO-d009-169-n900
 OpenBabel09051907383D

 17 16  0  0  0  0  0  0  0  0999 V2000
   -0.7627    1.7829   -0.0246 C   0  0  0  0  0  0  0  0  0  0  0  0
   -0.4255    3.1558    0.0518 C   0  0  0  0  0  0  0  0  0  0  0  0
   -1.5439    3.8210    0.3759 C   0  0  0  0  0  0  0  0  0  0  0  0
   -2.7146    3.6474    1.0120 C   0  0  0  0  0  0  0  0  0  0  0  0
   -2.9858    2.2664    0.9237 C   0  0  0  0  0  0  0  0  0  0  0  0
   -2.0263    1.3359    0.4330 C   0  0  0  0  0  0  0  0  0  0  0  0
   -0.0240    1.1085   -0.4426 H   0  0  0  0  0  0  0  0  0  0  0  0
    0.5506    3.5575   -0.1958 H   0  0  0  0  0  0  0  0  0  0  0  0
   -3.4291    4.3848    1.3588 H   0  0  0  0  0  0  0  0  0  0  0  0
   -3.9850    1.9207    1.1751 H   0  0  0  0  0  0  0  0  0  0  0  0
   -2.8174   -4.6296    0.0331 N   0  0  0  0  0  0  0  0  0  0  0  0
   -3.1418   -5.6858    0.0214 N   0  0  0  0  0  0  0  0  0  0  0  0
   -2.4249    0.0719    0.4374 O   0  0  0  0  0  0  0  0  0  0  0  0
   -1.5256   -0.9791    0.0216 C   0  0  0  0  0  0  0  0  0  0  0  0
   -2.0923   -1.9030    0.1231 H   0  0  0  0  0  0  0  0  0  0  0  0
   -0.6455   -1.0065    0.6699 H   0  0  0  0  0  0  0  0  0  0  0  0
   -1.2355   -0.8352   -1.0243 H   0  0  0  0  0  0  0  0  0  0  0  0
  1  2  2  0  0  0  0
  1  6  1  0  0  0  0
  2  3  1  0  0  0  0
  3  4  2  0  0  0  0
  4  9  1  0  0  0  0
  5  4  1  0  0  0  0
  5 10  1  0  0  0  0
  6 13  1  0  0  0  0
  6  5  2  0  0  0  0
  7  1  1  0  0  0  0
  8  2  1  0  0  0  0
 12 11  3  0  0  0  0
 14 15  1  0  0  0  0
 14 13  1  0  0  0  0
 14 16  1  0  0  0  0
 17 14  1  0  0  0  0
M  RAD  1   3   2
M  END
