Coordinates from ORCA-job 4-MeO-Ph-N2+-B3LYPG-6-31G_dp-MTMO-d009-169-n900
 OpenBabel09051907383D

 17 16  0  0  0  0  0  0  0  0999 V2000
   -0.6537    2.6267    0.0298 C   0  0  0  0  0  0  0  0  0  0  0  0
   -0.2720    3.9902    0.0175 C   0  0  0  0  0  0  0  0  0  0  0  0
   -1.3609    4.7068    0.3297 C   0  0  0  0  0  0  0  0  0  0  0  0
   -2.5219    4.6117    0.9979 C   0  0  0  0  0  0  0  0  0  0  0  0
   -2.8375    3.2369    0.9966 C   0  0  0  0  0  0  0  0  0  0  0  0
   -1.9194    2.2498    0.5401 C   0  0  0  0  0  0  0  0  0  0  0  0
    0.0538    1.9051   -0.3622 H   0  0  0  0  0  0  0  0  0  0  0  0
    0.7099    4.3462   -0.2735 H   0  0  0  0  0  0  0  0  0  0  0  0
   -3.2042    5.3912    1.3160 H   0  0  0  0  0  0  0  0  0  0  0  0
   -3.8407    2.9388    1.2896 H   0  0  0  0  0  0  0  0  0  0  0  0
   -3.6328  -11.3478   -0.6060 N   0  0  0  0  0  0  0  0  0  0  0  0
   -3.9464  -12.4044   -0.6882 N   0  0  0  0  0  0  0  0  0  0  0  0
   -2.3579    1.0013    0.6257 O   0  0  0  0  0  0  0  0  0  0  0  0
   -1.5031   -0.0985    0.2499 C   0  0  0  0  0  0  0  0  0  0  0  0
   -2.1014   -0.9928    0.4127 H   0  0  0  0  0  0  0  0  0  0  0  0
   -0.6114   -0.1248    0.8820 H   0  0  0  0  0  0  0  0  0  0  0  0
   -1.2302   -0.0228   -0.8078 H   0  0  0  0  0  0  0  0  0  0  0  0
  1  6  1  0  0  0  0
  2  1  2  0  0  0  0
  2  3  1  0  0  0  0
  3  4  2  0  0  0  0
  4  9  1  0  0  0  0
  5  4  1  0  0  0  0
  5 10  1  0  0  0  0
  6 13  1  0  0  0  0
  6  5  2  0  0  0  0
  7  1  1  0  0  0  0
  8  2  1  0  0  0  0
 12 11  3  0  0  0  0
 14 15  1  0  0  0  0
 14 13  1  0  0  0  0
 14 16  1  0  0  0  0
 17 14  1  0  0  0  0
M  RAD  1   3   2
M  END
