Coordinates from ORCA-job 4-MeO-Ph-N2+-B3LYPG-6-31G_dp-MTMO-d009-169-n900
 OpenBabel09051907383D

 17 16  0  0  0  0  0  0  0  0999 V2000
   -0.7316    2.1099   -0.0032 C   0  0  0  0  0  0  0  0  0  0  0  0
   -0.3263    3.4665    0.0085 C   0  0  0  0  0  0  0  0  0  0  0  0
   -1.4044    4.1971    0.3256 C   0  0  0  0  0  0  0  0  0  0  0  0
   -2.5707    4.1115    0.9860 C   0  0  0  0  0  0  0  0  0  0  0  0
   -2.9102    2.7427    0.9609 C   0  0  0  0  0  0  0  0  0  0  0  0
   -2.0067    1.7470    0.4939 C   0  0  0  0  0  0  0  0  0  0  0  0
   -0.0345    1.3823   -0.4027 H   0  0  0  0  0  0  0  0  0  0  0  0
    0.6633    3.8098   -0.2715 H   0  0  0  0  0  0  0  0  0  0  0  0
   -3.2411    4.8977    1.3129 H   0  0  0  0  0  0  0  0  0  0  0  0
   -3.9201    2.4575    1.2436 H   0  0  0  0  0  0  0  0  0  0  0  0
   -3.0328   -7.5373   -0.2983 N   0  0  0  0  0  0  0  0  0  0  0  0
   -3.2818   -8.6120   -0.3664 N   0  0  0  0  0  0  0  0  0  0  0  0
   -2.4674    0.5052    0.5571 O   0  0  0  0  0  0  0  0  0  0  0  0
   -1.6296   -0.6036    0.1690 C   0  0  0  0  0  0  0  0  0  0  0  0
   -2.2440   -1.4898    0.3150 H   0  0  0  0  0  0  0  0  0  0  0  0
   -0.7420   -0.6546    0.8053 H   0  0  0  0  0  0  0  0  0  0  0  0
   -1.3498   -0.5166   -0.8859 H   0  0  0  0  0  0  0  0  0  0  0  0
  1  2  2  0  0  0  0
  1  6  1  0  0  0  0
  2  3  1  0  0  0  0
  3  4  2  0  0  0  0
  4  9  1  0  0  0  0
  5  4  1  0  0  0  0
  5 10  1  0  0  0  0
  6 13  1  0  0  0  0
  6  5  2  0  0  0  0
  7  1  1  0  0  0  0
  8  2  1  0  0  0  0
 12 11  3  0  0  0  0
 14 15  1  0  0  0  0
 14 13  1  0  0  0  0
 14 16  1  0  0  0  0
 17 14  1  0  0  0  0
M  RAD  1   3   2
M  END
