Coordinates from ORCA-job 4-MeO-Ph-N2+-B3LYPG-6-31G_dp-MTMO-d009-169-n900
 OpenBabel09051907383D

 17 16  0  0  0  0  0  0  0  0999 V2000
   -0.7566    1.8835   -0.0158 C   0  0  0  0  0  0  0  0  0  0  0  0
   -0.3764    3.2462    0.0386 C   0  0  0  0  0  0  0  0  0  0  0  0
   -1.4714    3.9499    0.3601 C   0  0  0  0  0  0  0  0  0  0  0  0
   -2.6436    3.8241    1.0039 C   0  0  0  0  0  0  0  0  0  0  0  0
   -2.9581    2.4509    0.9369 C   0  0  0  0  0  0  0  0  0  0  0  0
   -2.0311    1.4840    0.4547 C   0  0  0  0  0  0  0  0  0  0  0  0
   -0.0414    1.1797   -0.4260 H   0  0  0  0  0  0  0  0  0  0  0  0
    0.6105    3.6143   -0.2185 H   0  0  0  0  0  0  0  0  0  0  0  0
   -3.3325    4.5887    1.3435 H   0  0  0  0  0  0  0  0  0  0  0  0
   -3.9662    2.1402    1.1983 H   0  0  0  0  0  0  0  0  0  0  0  0
   -2.8392   -5.6349   -0.0825 N   0  0  0  0  0  0  0  0  0  0  0  0
   -3.0923   -6.7098   -0.1242 N   0  0  0  0  0  0  0  0  0  0  0  0
   -2.4700    0.2333    0.4790 O   0  0  0  0  0  0  0  0  0  0  0  0
   -1.6083   -0.8509    0.0724 C   0  0  0  0  0  0  0  0  0  0  0  0
   -2.2070   -1.7523    0.1893 H   0  0  0  0  0  0  0  0  0  0  0  0
   -0.7266   -0.9016    0.7169 H   0  0  0  0  0  0  0  0  0  0  0  0
   -1.3192   -0.7319   -0.9768 H   0  0  0  0  0  0  0  0  0  0  0  0
  1  2  2  0  0  0  0
  1  6  1  0  0  0  0
  2  3  1  0  0  0  0
  3  4  2  0  0  0  0
  4  9  1  0  0  0  0
  5  4  1  0  0  0  0
  5 10  1  0  0  0  0
  6 13  1  0  0  0  0
  6  5  2  0  0  0  0
  7  1  1  0  0  0  0
  8  2  1  0  0  0  0
 12 11  3  0  0  0  0
 14 15  1  0  0  0  0
 14 13  1  0  0  0  0
 14 16  1  0  0  0  0
 17 14  1  0  0  0  0
M  RAD  1   3   2
M  END
