Coordinates from ORCA-job 4-MeO-Ph-N2+-B3LYPG-6-31G_dp-MTMO-d009-169-n900
 OpenBabel09051907383D

 17 16  0  0  0  0  0  0  0  0999 V2000
   -0.9952    1.3819   -0.0082 C   0  0  0  0  0  0  0  0  0  0  0  0
   -0.2767    2.6001   -0.0676 C   0  0  0  0  0  0  0  0  0  0  0  0
   -1.1400    3.5820    0.2305 C   0  0  0  0  0  0  0  0  0  0  0  0
   -2.2729    3.8039    0.9181 C   0  0  0  0  0  0  0  0  0  0  0  0
   -2.9315    2.5582    0.9638 C   0  0  0  0  0  0  0  0  0  0  0  0
   -2.3056    1.3561    0.5284 C   0  0  0  0  0  0  0  0  0  0  0  0
   -0.5066    0.4924   -0.3895 H   0  0  0  0  0  0  0  0  0  0  0  0
    0.7570    2.6834   -0.3838 H   0  0  0  0  0  0  0  0  0  0  0  0
   -2.7241    4.7410    1.2222 H   0  0  0  0  0  0  0  0  0  0  0  0
   -3.9714    2.5353    1.2785 H   0  0  0  0  0  0  0  0  0  0  0  0
   -1.2247   -3.9276   -0.4232 N   0  0  0  0  0  0  0  0  0  0  0  0
   -0.9162   -4.9728   -0.6060 N   0  0  0  0  0  0  0  0  0  0  0  0
   -3.0457    0.2648    0.6586 O   0  0  0  0  0  0  0  0  0  0  0  0
   -2.5021   -1.0287    0.3161 C   0  0  0  0  0  0  0  0  0  0  0  0
   -3.3040   -1.7374    0.5112 H   0  0  0  0  0  0  0  0  0  0  0  0
   -1.6384   -1.2605    0.9441 H   0  0  0  0  0  0  0  0  0  0  0  0
   -2.2313   -1.0588   -0.7435 H   0  0  0  0  0  0  0  0  0  0  0  0
  1  6  1  0  0  0  0
  2  1  2  0  0  0  0
  2  3  1  0  0  0  0
  3  4  2  0  0  0  0
  4  5  1  0  0  0  0
  4  9  1  0  0  0  0
  5 10  1  0  0  0  0
  6 13  1  0  0  0  0
  6  5  2  0  0  0  0
  7  1  1  0  0  0  0
  8  2  1  0  0  0  0
 12 11  3  0  0  0  0
 14 15  1  0  0  0  0
 14 13  1  0  0  0  0
 14 16  1  0  0  0  0
 17 14  1  0  0  0  0
M  RAD  1   3   2
M  END
