Coordinates from ORCA-job 4-MeO-Ph-N2+-B3LYPG-6-31G_dp-MTMO-d009-169-n900
 OpenBabel09051907383D

 17 16  0  0  0  0  0  0  0  0999 V2000
   -2.1529   -0.1965    0.1317 C   0  0  0  0  0  0  0  0  0  0  0  0
   -0.8022   -0.2607   -0.2972 C   0  0  0  0  0  0  0  0  0  0  0  0
   -0.3532    0.9979   -0.3354 C   0  0  0  0  0  0  0  0  0  0  0  0
   -0.5819    2.2216    0.1642 C   0  0  0  0  0  0  0  0  0  0  0  0
   -1.9267    2.2103    0.5899 C   0  0  0  0  0  0  0  0  0  0  0  0
   -2.7047    1.0214    0.5930 C   0  0  0  0  0  0  0  0  0  0  0  0
   -2.7313   -1.1123    0.0767 H   0  0  0  0  0  0  0  0  0  0  0  0
   -0.2997   -1.1721   -0.5979 H   0  0  0  0  0  0  0  0  0  0  0  0
    0.0413    3.1071    0.1345 H   0  0  0  0  0  0  0  0  0  0  0  0
   -2.3855    3.1539    0.8721 H   0  0  0  0  0  0  0  0  0  0  0  0
    2.7446    0.8123   -0.9328 N   0  0  0  0  0  0  0  0  0  0  0  0
    3.8192    0.7664   -1.1851 N   0  0  0  0  0  0  0  0  0  0  0  0
   -3.9479    1.1677    1.0374 O   0  0  0  0  0  0  0  0  0  0  0  0
   -4.8153    0.0227    1.1490 C   0  0  0  0  0  0  0  0  0  0  0  0
   -5.7553    0.4116    1.5349 H   0  0  0  0  0  0  0  0  0  0  0  0
   -4.3993   -0.7083    1.8488 H   0  0  0  0  0  0  0  0  0  0  0  0
   -4.9788   -0.4298    0.1656 H   0  0  0  0  0  0  0  0  0  0  0  0
  1  6  2  0  0  0  0
  2  1  1  0  0  0  0
  3  2  2  0  0  0  0
  3  4  1  0  0  0  0
  4  5  2  0  0  0  0
  5  6  1  0  0  0  0
  5 10  1  0  0  0  0
  6 13  1  0  0  0  0
  7  1  1  0  0  0  0
  8  2  1  0  0  0  0
  9  4  1  0  0  0  0
 12 11  3  0  0  0  0
 13 14  1  0  0  0  0
 14 15  1  0  0  0  0
 14 16  1  0  0  0  0
 17 14  1  0  0  0  0
M  RAD  1   3   2
M  END
