Coordinates from ORCA-job 4-MeO-Ph-N2+-B3LYPG-6-31G_dp-MTMO-d009-169-n900
 OpenBabel09051907383D

 17 16  0  0  0  0  0  0  0  0999 V2000
   -1.1130    1.1744    0.0084 C   0  0  0  0  0  0  0  0  0  0  0  0
   -0.2522    2.2932   -0.0945 C   0  0  0  0  0  0  0  0  0  0  0  0
   -0.9838    3.3840    0.1782 C   0  0  0  0  0  0  0  0  0  0  0  0
   -2.0722    3.7657    0.8674 C   0  0  0  0  0  0  0  0  0  0  0  0
   -2.8778    2.6118    0.9566 C   0  0  0  0  0  0  0  0  0  0  0  0
   -2.4104    1.3286    0.5547 C   0  0  0  0  0  0  0  0  0  0  0  0
   -0.7406    0.2186   -0.3434 H   0  0  0  0  0  0  0  0  0  0  0  0
    0.7815    2.2393   -0.4169 H   0  0  0  0  0  0  0  0  0  0  0  0
   -2.4036    4.7599    1.1426 H   0  0  0  0  0  0  0  0  0  0  0  0
   -3.9101    2.7274    1.2763 H   0  0  0  0  0  0  0  0  0  0  0  0
   -0.5062   -3.3849   -0.5676 N   0  0  0  0  0  0  0  0  0  0  0  0
   -0.0555   -4.3714   -0.7794 N   0  0  0  0  0  0  0  0  0  0  0  0
   -3.2792    0.3423    0.7241 O   0  0  0  0  0  0  0  0  0  0  0  0
   -2.9039   -1.0167    0.4140 C   0  0  0  0  0  0  0  0  0  0  0  0
   -3.7857   -1.6138    0.6381 H   0  0  0  0  0  0  0  0  0  0  0  0
   -2.0654   -1.3359    1.0378 H   0  0  0  0  0  0  0  0  0  0  0  0
   -2.6513   -1.1093   -0.6466 H   0  0  0  0  0  0  0  0  0  0  0  0
  1  6  1  0  0  0  0
  2  1  2  0  0  0  0
  2  3  1  0  0  0  0
  3  4  2  0  0  0  0
  4  5  1  0  0  0  0
  4  9  1  0  0  0  0
  5 10  1  0  0  0  0
  6 13  1  0  0  0  0
  6  5  2  0  0  0  0
  7  1  1  0  0  0  0
  8  2  1  0  0  0  0
 12 11  3  0  0  0  0
 14 15  1  0  0  0  0
 14 13  1  0  0  0  0
 14 16  1  0  0  0  0
 17 14  1  0  0  0  0
M  RAD  1   3   2
M  END
