Coordinates from ORCA-job 4-MeO-Ph-N2+-B3LYPG-6-31G_dp-MTMO-d009-169-n900
 OpenBabel09051907383D

 17 16  0  0  0  0  0  0  0  0999 V2000
   -0.6663    2.5444    0.0241 C   0  0  0  0  0  0  0  0  0  0  0  0
   -0.2810    3.9069    0.0136 C   0  0  0  0  0  0  0  0  0  0  0  0
   -1.3681    4.6260    0.3264 C   0  0  0  0  0  0  0  0  0  0  0  0
   -2.5295    4.5332    0.9942 C   0  0  0  0  0  0  0  0  0  0  0  0
   -2.8487    3.1592    0.9911 C   0  0  0  0  0  0  0  0  0  0  0  0
   -1.9332    2.1702    0.5336 C   0  0  0  0  0  0  0  0  0  0  0  0
    0.0394    1.8213   -0.3685 H   0  0  0  0  0  0  0  0  0  0  0  0
    0.7019    4.2606   -0.2766 H   0  0  0  0  0  0  0  0  0  0  0  0
   -3.2098    5.3141    1.3131 H   0  0  0  0  0  0  0  0  0  0  0  0
   -3.8528    2.8634    1.2835 H   0  0  0  0  0  0  0  0  0  0  0  0
   -3.5376  -10.7437   -0.5598 N   0  0  0  0  0  0  0  0  0  0  0  0
   -3.8403  -11.8037   -0.6411 N   0  0  0  0  0  0  0  0  0  0  0  0
   -2.3751    0.9228    0.6176 O   0  0  0  0  0  0  0  0  0  0  0  0
   -1.5231   -0.1788    0.2405 C   0  0  0  0  0  0  0  0  0  0  0  0
   -2.1239   -1.0717    0.4020 H   0  0  0  0  0  0  0  0  0  0  0  0
   -0.6317   -0.2083    0.8729 H   0  0  0  0  0  0  0  0  0  0  0  0
   -1.2497   -0.1025   -0.8169 H   0  0  0  0  0  0  0  0  0  0  0  0
  1  6  1  0  0  0  0
  2  1  2  0  0  0  0
  2  3  1  0  0  0  0
  3  4  2  0  0  0  0
  4  9  1  0  0  0  0
  5  4  1  0  0  0  0
  5 10  1  0  0  0  0
  6 13  1  0  0  0  0
  6  5  2  0  0  0  0
  7  1  1  0  0  0  0
  8  2  1  0  0  0  0
 12 11  3  0  0  0  0
 14 15  1  0  0  0  0
 14 13  1  0  0  0  0
 14 16  1  0  0  0  0
 17 14  1  0  0  0  0
M  RAD  1   3   2
M  END
