Coordinates from ORCA-job 4-MeO-Ph-N2+-B3LYPG-6-31G_dp-MTMO-d009-169-n900
 OpenBabel09051907383D

 17 16  0  0  0  0  0  0  0  0999 V2000
   -1.8422    0.1995    0.1425 C   0  0  0  0  0  0  0  0  0  0  0  0
   -0.5022    0.5485   -0.1638 C   0  0  0  0  0  0  0  0  0  0  0  0
   -0.4265    1.8816   -0.1021 C   0  0  0  0  0  0  0  0  0  0  0  0
   -1.0072    2.9487    0.4694 C   0  0  0  0  0  0  0  0  0  0  0  0
   -2.3211    2.5322    0.7712 C   0  0  0  0  0  0  0  0  0  0  0  0
   -2.7379    1.1792    0.6312 C   0  0  0  0  0  0  0  0  0  0  0  0
   -2.1349   -0.8330   -0.0108 H   0  0  0  0  0  0  0  0  0  0  0  0
    0.2750   -0.1522   -0.4557 H   0  0  0  0  0  0  0  0  0  0  0  0
   -0.6629    3.9736    0.5388 H   0  0  0  0  0  0  0  0  0  0  0  0
   -3.0483    3.2895    1.0520 H   0  0  0  0  0  0  0  0  0  0  0  0
    2.3757   -0.7982   -1.1427 N   0  0  0  0  0  0  0  0  0  0  0  0
    3.3548   -1.1766   -1.4863 N   0  0  0  0  0  0  0  0  0  0  0  0
   -3.9982    0.9472    0.9778 O   0  0  0  0  0  0  0  0  0  0  0  0
   -4.5263   -0.3934    0.9354 C   0  0  0  0  0  0  0  0  0  0  0  0
   -5.5605   -0.3041    1.2615 H   0  0  0  0  0  0  0  0  0  0  0  0
   -3.9743   -1.0453    1.6184 H   0  0  0  0  0  0  0  0  0  0  0  0
   -4.4925   -0.7838   -0.0871 H   0  0  0  0  0  0  0  0  0  0  0  0
  1  6  2  0  0  0  0
  2  3  2  0  0  0  0
  2  1  1  0  0  0  0
  3  4  1  0  0  0  0
  4  9  1  0  0  0  0
  4  5  2  0  0  0  0
  5 10  1  0  0  0  0
  6  5  1  0  0  0  0
  6 13  1  0  0  0  0
  7  1  1  0  0  0  0
  8  2  1  0  0  0  0
 12 11  3  0  0  0  0
 14 13  1  0  0  0  0
 14 15  1  0  0  0  0
 14 16  1  0  0  0  0
 17 14  1  0  0  0  0
M  RAD  1   3   2
M  END
