Coordinates from ORCA-job 4-MeO-Ph-N2+-B3LYPG-6-31G_dp-MTMO-d009-169-n900
 OpenBabel09051907383D

 17 16  0  0  0  0  0  0  0  0999 V2000
   -1.0128    1.3501   -0.0047 C   0  0  0  0  0  0  0  0  0  0  0  0
   -0.2712    2.5540   -0.0723 C   0  0  0  0  0  0  0  0  0  0  0  0
   -1.1156    3.5534    0.2209 C   0  0  0  0  0  0  0  0  0  0  0  0
   -2.2434    3.8010    0.9082 C   0  0  0  0  0  0  0  0  0  0  0  0
   -2.9256    2.5684    0.9623 C   0  0  0  0  0  0  0  0  0  0  0  0
   -2.3230    1.3523    0.5333 C   0  0  0  0  0  0  0  0  0  0  0  0
   -0.5418    0.4494   -0.3818 H   0  0  0  0  0  0  0  0  0  0  0  0
    0.7633    2.6158   -0.3908 H   0  0  0  0  0  0  0  0  0  0  0  0
   -2.6760    4.7483    1.2076 H   0  0  0  0  0  0  0  0  0  0  0  0
   -3.9652    2.5670    1.2788 H   0  0  0  0  0  0  0  0  0  0  0  0
   -1.1210   -3.8481   -0.4484 N   0  0  0  0  0  0  0  0  0  0  0  0
   -0.7809   -4.8814   -0.6419 N   0  0  0  0  0  0  0  0  0  0  0  0
   -3.0831    0.2757    0.6704 O   0  0  0  0  0  0  0  0  0  0  0  0
   -2.5623   -1.0288    0.3349 C   0  0  0  0  0  0  0  0  0  0  0  0
   -3.3765   -1.7223    0.5342 H   0  0  0  0  0  0  0  0  0  0  0  0
   -1.7023   -1.2720    0.9636 H   0  0  0  0  0  0  0  0  0  0  0  0
   -2.2922   -1.0694   -0.7244 H   0  0  0  0  0  0  0  0  0  0  0  0
  1  6  1  0  0  0  0
  2  1  2  0  0  0  0
  2  3  1  0  0  0  0
  3  4  2  0  0  0  0
  4  5  1  0  0  0  0
  4  9  1  0  0  0  0
  5 10  1  0  0  0  0
  6 13  1  0  0  0  0
  6  5  2  0  0  0  0
  7  1  1  0  0  0  0
  8  2  1  0  0  0  0
 12 11  3  0  0  0  0
 14 15  1  0  0  0  0
 14 13  1  0  0  0  0
 14 16  1  0  0  0  0
 17 14  1  0  0  0  0
M  RAD  1   3   2
M  END
