Coordinates from ORCA-job 4-MeO-Ph-N2+-B3LYPG-6-31G_dp-MTMO-d009-169-n900
 OpenBabel09051907383D

 17 16  0  0  0  0  0  0  0  0999 V2000
   -0.7322    2.1059   -0.0034 C   0  0  0  0  0  0  0  0  0  0  0  0
   -0.3268    3.4624    0.0086 C   0  0  0  0  0  0  0  0  0  0  0  0
   -1.4050    4.1930    0.3258 C   0  0  0  0  0  0  0  0  0  0  0  0
   -2.5713    4.1072    0.9860 C   0  0  0  0  0  0  0  0  0  0  0  0
   -2.9109    2.7384    0.9606 C   0  0  0  0  0  0  0  0  0  0  0  0
   -2.0073    1.7428    0.4934 C   0  0  0  0  0  0  0  0  0  0  0  0
   -0.0351    1.3783   -0.4030 H   0  0  0  0  0  0  0  0  0  0  0  0
    0.6628    3.8058   -0.2711 H   0  0  0  0  0  0  0  0  0  0  0  0
   -3.2417    4.8933    1.3131 H   0  0  0  0  0  0  0  0  0  0  0  0
   -3.9208    2.4532    1.2431 H   0  0  0  0  0  0  0  0  0  0  0  0
   -3.0283   -7.5063   -0.2953 N   0  0  0  0  0  0  0  0  0  0  0  0
   -3.2771   -8.5810   -0.3634 N   0  0  0  0  0  0  0  0  0  0  0  0
   -2.4680    0.5011    0.5563 O   0  0  0  0  0  0  0  0  0  0  0  0
   -1.6302   -0.6076    0.1680 C   0  0  0  0  0  0  0  0  0  0  0  0
   -2.2447   -1.4940    0.3137 H   0  0  0  0  0  0  0  0  0  0  0  0
   -0.7427   -0.6588    0.8043 H   0  0  0  0  0  0  0  0  0  0  0  0
   -1.3503   -0.5205   -0.8869 H   0  0  0  0  0  0  0  0  0  0  0  0
  1  2  2  0  0  0  0
  1  6  1  0  0  0  0
  2  3  1  0  0  0  0
  3  4  2  0  0  0  0
  4  9  1  0  0  0  0
  5  4  1  0  0  0  0
  5 10  1  0  0  0  0
  6 13  1  0  0  0  0
  6  5  2  0  0  0  0
  7  1  1  0  0  0  0
  8  2  1  0  0  0  0
 12 11  3  0  0  0  0
 14 15  1  0  0  0  0
 14 13  1  0  0  0  0
 14 16  1  0  0  0  0
 17 14  1  0  0  0  0
M  RAD  1   3   2
M  END
