Coordinates from ORCA-job 4-MeO-Ph-N2+-B3LYPG-6-31G_dp-MTMO-d009-169-n900
 OpenBabel09051907383D

 17 16  0  0  0  0  0  0  0  0999 V2000
   -1.6309    0.6996    0.1108 C   0  0  0  0  0  0  0  0  0  0  0  0
   -0.4247    1.4036   -0.1275 C   0  0  0  0  0  0  0  0  0  0  0  0
   -0.6940    2.7049    0.0441 C   0  0  0  0  0  0  0  0  0  0  0  0
   -1.5315    3.5261    0.6986 C   0  0  0  0  0  0  0  0  0  0  0  0
   -2.6974    2.7662    0.9261 C   0  0  0  0  0  0  0  0  0  0  0  0
   -2.7514    1.3699    0.6579 C   0  0  0  0  0  0  0  0  0  0  0  0
   -1.6519   -0.3530   -0.1484 H   0  0  0  0  0  0  0  0  0  0  0  0
    0.4940    0.9372   -0.4661 H   0  0  0  0  0  0  0  0  0  0  0  0
   -1.4571    4.5928    0.8754 H   0  0  0  0  0  0  0  0  0  0  0  0
   -3.5945    3.2835    1.2563 H   0  0  0  0  0  0  0  0  0  0  0  0
    2.2273   -2.6383   -1.3144 N   0  0  0  0  0  0  0  0  0  0  0  0
    2.8546   -3.5086   -1.5798 N   0  0  0  0  0  0  0  0  0  0  0  0
   -3.9093    0.7919    0.9473 O   0  0  0  0  0  0  0  0  0  0  0  0
   -4.0695   -0.6329    0.7914 C   0  0  0  0  0  0  0  0  0  0  0  0
   -5.0931   -0.8404    1.0962 H   0  0  0  0  0  0  0  0  0  0  0  0
   -3.3706   -1.1701    1.4383 H   0  0  0  0  0  0  0  0  0  0  0  0
   -3.9296   -0.9188   -0.2562 H   0  0  0  0  0  0  0  0  0  0  0  0
  1  6  2  0  0  0  0
  2  3  2  0  0  0  0
  2  1  1  0  0  0  0
  3  4  1  0  0  0  0
  4  9  1  0  0  0  0
  4  5  2  0  0  0  0
  5 10  1  0  0  0  0
  6  5  1  0  0  0  0
  6 13  1  0  0  0  0
  7  1  1  0  0  0  0
  8  2  1  0  0  0  0
 12 11  3  0  0  0  0
 14 13  1  0  0  0  0
 14 15  1  0  0  0  0
 14 16  1  0  0  0  0
 17 14  1  0  0  0  0
M  RAD  1   3   2
M  END
