Coordinates from ORCA-job 4-MeO-Ph-N2+-B3LYPG-6-31G_dp-MTMO-d009-169-n900
 OpenBabel09051907383D

 17 16  0  0  0  0  0  0  0  0999 V2000
   -0.6484    2.6607    0.0322 C   0  0  0  0  0  0  0  0  0  0  0  0
   -0.2683    4.0246    0.0195 C   0  0  0  0  0  0  0  0  0  0  0  0
   -1.3581    4.7399    0.3315 C   0  0  0  0  0  0  0  0  0  0  0  0
   -2.5190    4.6436    0.9997 C   0  0  0  0  0  0  0  0  0  0  0  0
   -2.8329    3.2685    0.9988 C   0  0  0  0  0  0  0  0  0  0  0  0
   -1.9136    2.2823    0.5426 C   0  0  0  0  0  0  0  0  0  0  0  0
    0.0600    1.9398   -0.3595 H   0  0  0  0  0  0  0  0  0  0  0  0
    0.7131    4.3817   -0.2716 H   0  0  0  0  0  0  0  0  0  0  0  0
   -3.2023    5.4224    1.3176 H   0  0  0  0  0  0  0  0  0  0  0  0
   -3.8358    2.9692    1.2919 H   0  0  0  0  0  0  0  0  0  0  0  0
   -3.6723  -11.5955   -0.6244 N   0  0  0  0  0  0  0  0  0  0  0  0
   -3.9904  -12.6508   -0.7070 N   0  0  0  0  0  0  0  0  0  0  0  0
   -2.3507    1.0334    0.6286 O   0  0  0  0  0  0  0  0  0  0  0  0
   -1.4945   -0.0655    0.2531 C   0  0  0  0  0  0  0  0  0  0  0  0
   -2.0917   -0.9605    0.4162 H   0  0  0  0  0  0  0  0  0  0  0  0
   -0.6028   -0.0905    0.8852 H   0  0  0  0  0  0  0  0  0  0  0  0
   -1.2217    0.0102   -0.8046 H   0  0  0  0  0  0  0  0  0  0  0  0
  1  6  1  0  0  0  0
  2  1  2  0  0  0  0
  2  3  1  0  0  0  0
  3  4  2  0  0  0  0
  4  9  1  0  0  0  0
  5  4  1  0  0  0  0
  5 10  1  0  0  0  0
  6 13  1  0  0  0  0
  6  5  2  0  0  0  0
  7  1  1  0  0  0  0
  8  2  1  0  0  0  0
 12 11  3  0  0  0  0
 14 15  1  0  0  0  0
 14 13  1  0  0  0  0
 14 16  1  0  0  0  0
 17 14  1  0  0  0  0
M  RAD  1   3   2
M  END
