Coordinates from ORCA-job 4-MeO-Ph-N2+-B3LYPG-6-31G_dp-MTMO-d009-169-n900
 OpenBabel09051907383D

 17 16  0  0  0  0  0  0  0  0999 V2000
   -0.7544    1.7836   -0.0270 C   0  0  0  0  0  0  0  0  0  0  0  0
   -0.4464    3.1623    0.0615 C   0  0  0  0  0  0  0  0  0  0  0  0
   -1.5799    3.8015    0.3864 C   0  0  0  0  0  0  0  0  0  0  0  0
   -2.7480    3.5986    1.0188 C   0  0  0  0  0  0  0  0  0  0  0  0
   -2.9901    2.2131    0.9187 C   0  0  0  0  0  0  0  0  0  0  0  0
   -2.0098    1.3069    0.4233 C   0  0  0  0  0  0  0  0  0  0  0  0
   -0.0008    1.1278   -0.4482 H   0  0  0  0  0  0  0  0  0  0  0  0
    0.5218    3.5869   -0.1789 H   0  0  0  0  0  0  0  0  0  0  0  0
   -3.4785    4.3184    1.3691 H   0  0  0  0  0  0  0  0  0  0  0  0
   -3.9825    1.8442    1.1637 H   0  0  0  0  0  0  0  0  0  0  0  0
   -2.8954   -4.4819    0.0811 N   0  0  0  0  0  0  0  0  0  0  0  0
   -3.2688   -5.5218    0.0900 N   0  0  0  0  0  0  0  0  0  0  0  0
   -2.3817    0.0352    0.4161 O   0  0  0  0  0  0  0  0  0  0  0  0
   -1.4590   -0.9928   -0.0060 C   0  0  0  0  0  0  0  0  0  0  0  0
   -2.0072   -1.9287    0.0853 H   0  0  0  0  0  0  0  0  0  0  0  0
   -0.5806   -1.0072    0.6450 H   0  0  0  0  0  0  0  0  0  0  0  0
   -1.1684   -0.8328   -1.0494 H   0  0  0  0  0  0  0  0  0  0  0  0
  1  2  2  0  0  0  0
  1  6  1  0  0  0  0
  2  3  1  0  0  0  0
  3  4  2  0  0  0  0
  4  9  1  0  0  0  0
  5  4  1  0  0  0  0
  5 10  1  0  0  0  0
  6  5  2  0  0  0  0
  7  1  1  0  0  0  0
  8  2  1  0  0  0  0
 11 12  3  0  0  0  0
 13  6  1  0  0  0  0
 14 15  1  0  0  0  0
 14 13  1  0  0  0  0
 14 16  1  0  0  0  0
 17 14  1  0  0  0  0
M  RAD  1   3   2
M  END
