Coordinates from ORCA-job 4-MeO-Ph-N2+-B3LYPG-6-31G_dp-MTMO-d009-169-n900
 OpenBabel09051907383D

 17 16  0  0  0  0  0  0  0  0999 V2000
   -0.7096    2.2610    0.0057 C   0  0  0  0  0  0  0  0  0  0  0  0
   -0.3092    3.6191    0.0056 C   0  0  0  0  0  0  0  0  0  0  0  0
   -1.3890    4.3481    0.3209 C   0  0  0  0  0  0  0  0  0  0  0  0
   -2.5528    4.2634    0.9855 C   0  0  0  0  0  0  0  0  0  0  0  0
   -2.8873    2.8931    0.9721 C   0  0  0  0  0  0  0  0  0  0  0  0
   -1.9817    1.8972    0.5097 C   0  0  0  0  0  0  0  0  0  0  0  0
   -0.0111    1.5329   -0.3905 H   0  0  0  0  0  0  0  0  0  0  0  0
    0.6782    3.9640   -0.2801 H   0  0  0  0  0  0  0  0  0  0  0  0
   -3.2251    5.0495    1.3086 H   0  0  0  0  0  0  0  0  0  0  0  0
   -3.8952    2.6064    1.2602 H   0  0  0  0  0  0  0  0  0  0  0  0
   -3.2087   -8.6682   -0.3992 N   0  0  0  0  0  0  0  0  0  0  0  0
   -3.4681   -9.7402   -0.4696 N   0  0  0  0  0  0  0  0  0  0  0  0
   -2.4375    0.6543    0.5839 O   0  0  0  0  0  0  0  0  0  0  0  0
   -1.5969   -0.4542    0.2012 C   0  0  0  0  0  0  0  0  0  0  0  0
   -2.2078   -1.3415    0.3554 H   0  0  0  0  0  0  0  0  0  0  0  0
   -0.7073   -0.4976    0.8353 H   0  0  0  0  0  0  0  0  0  0  0  0
   -1.3204   -0.3738   -0.8551 H   0  0  0  0  0  0  0  0  0  0  0  0
  1  6  1  0  0  0  0
  2  1  2  0  0  0  0
  2  3  1  0  0  0  0
  3  4  2  0  0  0  0
  4  9  1  0  0  0  0
  5  4  1  0  0  0  0
  5 10  1  0  0  0  0
  6 13  1  0  0  0  0
  6  5  2  0  0  0  0
  7  1  1  0  0  0  0
  8  2  1  0  0  0  0
 12 11  3  0  0  0  0
 14 15  1  0  0  0  0
 14 13  1  0  0  0  0
 14 16  1  0  0  0  0
 17 14  1  0  0  0  0
M  RAD  1   3   2
M  END
