Coordinates from ORCA-job 4-MeO-Ph-N2+-B3LYPG-6-31G_dp-MTMO-d009-169-n900
 OpenBabel09051907383D

 17 16  0  0  0  0  0  0  0  0999 V2000
   -1.7003    0.3940    0.1283 C   0  0  0  0  0  0  0  0  0  0  0  0
   -0.4010    0.8983   -0.1460 C   0  0  0  0  0  0  0  0  0  0  0  0
   -0.4871    2.2271   -0.0362 C   0  0  0  0  0  0  0  0  0  0  0  0
   -1.2006    3.2013    0.5506 C   0  0  0  0  0  0  0  0  0  0  0  0
   -2.4626    2.6310    0.8180 C   0  0  0  0  0  0  0  0  0  0  0  0
   -2.7136    1.2442    0.6296 C   0  0  0  0  0  0  0  0  0  0  0  0
   -1.8713   -0.6574   -0.0739 H   0  0  0  0  0  0  0  0  0  0  0  0
    0.4347    0.2778   -0.4601 H   0  0  0  0  0  0  0  0  0  0  0  0
   -0.9699    4.2536    0.6672 H   0  0  0  0  0  0  0  0  0  0  0  0
   -3.2731    3.2884    1.1213 H   0  0  0  0  0  0  0  0  0  0  0  0
    2.0604   -1.3577   -1.1256 N   0  0  0  0  0  0  0  0  0  0  0  0
    2.8349   -2.0721   -1.4568 N   0  0  0  0  0  0  0  0  0  0  0  0
   -3.9423    0.8514    0.9445 O   0  0  0  0  0  0  0  0  0  0  0  0
   -4.3020   -0.5416    0.8586 C   0  0  0  0  0  0  0  0  0  0  0  0
   -5.3439   -0.5880    1.1692 H   0  0  0  0  0  0  0  0  0  0  0  0
   -3.6844   -1.1404    1.5339 H   0  0  0  0  0  0  0  0  0  0  0  0
   -4.2073   -0.8964   -0.1730 H   0  0  0  0  0  0  0  0  0  0  0  0
  1  6  2  0  0  0  0
  2  3  2  0  0  0  0
  2  1  1  0  0  0  0
  3  4  1  0  0  0  0
  4  9  1  0  0  0  0
  4  5  2  0  0  0  0
  5 10  1  0  0  0  0
  6  5  1  0  0  0  0
  6 13  1  0  0  0  0
  7  1  1  0  0  0  0
  8  2  1  0  0  0  0
 12 11  3  0  0  0  0
 14 13  1  0  0  0  0
 14 15  1  0  0  0  0
 14 16  1  0  0  0  0
 17 14  1  0  0  0  0
M  RAD  1   3   2
M  END
