Coordinates from ORCA-job 4-MeO-Ph-N2+-B3LYPG-6-31G_dp-MTMO-d009-169-n900
 OpenBabel09051907383D

 17 16  0  0  0  0  0  0  0  0999 V2000
   -0.6840    2.4298    0.0163 C   0  0  0  0  0  0  0  0  0  0  0  0
   -0.2925    3.7904    0.0085 C   0  0  0  0  0  0  0  0  0  0  0  0
   -1.3764    4.5140    0.3220 C   0  0  0  0  0  0  0  0  0  0  0  0
   -2.5384    4.4252    0.9893 C   0  0  0  0  0  0  0  0  0  0  0  0
   -2.8639    3.0528    0.9837 C   0  0  0  0  0  0  0  0  0  0  0  0
   -1.9527    2.0604    0.5247 C   0  0  0  0  0  0  0  0  0  0  0  0
    0.0185    1.7042   -0.3773 H   0  0  0  0  0  0  0  0  0  0  0  0
    0.6921    4.1402   -0.2808 H   0  0  0  0  0  0  0  0  0  0  0  0
   -3.2154    5.2086    1.3093 H   0  0  0  0  0  0  0  0  0  0  0  0
   -3.8695    2.7610    1.2751 H   0  0  0  0  0  0  0  0  0  0  0  0
   -3.4073   -9.9069   -0.4983 N   0  0  0  0  0  0  0  0  0  0  0  0
   -3.6870  -10.9735   -0.5740 N   0  0  0  0  0  0  0  0  0  0  0  0
   -2.4003    0.8149    0.6062 O   0  0  0  0  0  0  0  0  0  0  0  0
   -1.5533   -0.2899    0.2275 C   0  0  0  0  0  0  0  0  0  0  0  0
   -2.1581   -1.1804    0.3870 H   0  0  0  0  0  0  0  0  0  0  0  0
   -0.6623   -0.3246    0.8602 H   0  0  0  0  0  0  0  0  0  0  0  0
   -1.2790   -0.2128   -0.8297 H   0  0  0  0  0  0  0  0  0  0  0  0
  1  6  1  0  0  0  0
  2  1  2  0  0  0  0
  2  3  1  0  0  0  0
  3  4  2  0  0  0  0
  4  9  1  0  0  0  0
  5  4  1  0  0  0  0
  5 10  1  0  0  0  0
  6 13  1  0  0  0  0
  6  5  2  0  0  0  0
  7  1  1  0  0  0  0
  8  2  1  0  0  0  0
 12 11  3  0  0  0  0
 14 15  1  0  0  0  0
 14 13  1  0  0  0  0
 14 16  1  0  0  0  0
 17 14  1  0  0  0  0
M  RAD  1   3   2
M  END
