Coordinates from ORCA-job 4-MeO-Ph-N2+-B3LYPG-6-31G_dp-MTMO-d009-169-n900
 OpenBabel09051907383D

 17 16  0  0  0  0  0  0  0  0999 V2000
   -2.0740   -0.2047    0.1880 C   0  0  0  0  0  0  0  0  0  0  0  0
   -0.7191   -0.2912   -0.2380 C   0  0  0  0  0  0  0  0  0  0  0  0
   -0.2229    0.9441   -0.1693 C   0  0  0  0  0  0  0  0  0  0  0  0
   -0.5093    2.2079    0.1704 C   0  0  0  0  0  0  0  0  0  0  0  0
   -1.8605    2.2054    0.5804 C   0  0  0  0  0  0  0  0  0  0  0  0
   -2.6396    1.0228    0.5943 C   0  0  0  0  0  0  0  0  0  0  0  0
   -2.6393   -1.1300    0.1778 H   0  0  0  0  0  0  0  0  0  0  0  0
   -0.2403   -1.2086   -0.5535 H   0  0  0  0  0  0  0  0  0  0  0  0
    0.1186    3.0887    0.1441 H   0  0  0  0  0  0  0  0  0  0  0  0
   -2.3028    3.1487    0.8873 H   0  0  0  0  0  0  0  0  0  0  0  0
    2.2551    0.8571   -0.9201 N   0  0  0  0  0  0  0  0  0  0  0  0
    3.3086    0.8224   -1.2496 N   0  0  0  0  0  0  0  0  0  0  0  0
   -3.8977    1.1792    1.0056 O   0  0  0  0  0  0  0  0  0  0  0  0
   -4.7760    0.0420    1.0660 C   0  0  0  0  0  0  0  0  0  0  0  0
   -5.7276    0.4314    1.4224 H   0  0  0  0  0  0  0  0  0  0  0  0
   -4.3955   -0.7037    1.7719 H   0  0  0  0  0  0  0  0  0  0  0  0
   -4.9073   -0.3980    0.0722 H   0  0  0  0  0  0  0  0  0  0  0  0
  1  6  2  0  0  0  0
  2  3  2  0  0  0  0
  2  1  1  0  0  0  0
  3  4  1  0  0  0  0
  4  5  2  0  0  0  0
  5  6  1  0  0  0  0
  5 10  1  0  0  0  0
  6 13  1  0  0  0  0
  7  1  1  0  0  0  0
  8  2  1  0  0  0  0
  9  4  1  0  0  0  0
 12 11  3  0  0  0  0
 13 14  1  0  0  0  0
 14 15  1  0  0  0  0
 14 16  1  0  0  0  0
 17 14  1  0  0  0  0
M  RAD  1   3   2
M  END
