Coordinates from ORCA-job 4-MeO-Ph-N2+-B3LYPG-6-31G_dp-MTMO-d009-169-n900
 OpenBabel09051907383D

 17 16  0  0  0  0  0  0  0  0999 V2000
   -0.7626    1.8049   -0.0228 C   0  0  0  0  0  0  0  0  0  0  0  0
   -0.4101    3.1741    0.0473 C   0  0  0  0  0  0  0  0  0  0  0  0
   -1.5201    3.8543    0.3700 C   0  0  0  0  0  0  0  0  0  0  0  0
   -2.6911    3.6970    1.0098 C   0  0  0  0  0  0  0  0  0  0  0  0
   -2.9782    2.3187    0.9275 C   0  0  0  0  0  0  0  0  0  0  0  0
   -2.0305    1.3748    0.4391 C   0  0  0  0  0  0  0  0  0  0  0  0
   -0.0322    1.1197   -0.4377 H   0  0  0  0  0  0  0  0  0  0  0  0
    0.5704    3.5640   -0.2019 H   0  0  0  0  0  0  0  0  0  0  0  0
   -3.3967    4.4439    1.3543 H   0  0  0  0  0  0  0  0  0  0  0  0
   -3.9810    1.9855    1.1814 H   0  0  0  0  0  0  0  0  0  0  0  0
   -2.8077   -4.8813   -0.0004 N   0  0  0  0  0  0  0  0  0  0  0  0
   -3.1006   -5.9465   -0.0241 N   0  0  0  0  0  0  0  0  0  0  0  0
   -2.4442    0.1155    0.4501 O   0  0  0  0  0  0  0  0  0  0  0  0
   -1.5592   -0.9484    0.0375 C   0  0  0  0  0  0  0  0  0  0  0  0
   -2.1377   -1.8644    0.1451 H   0  0  0  0  0  0  0  0  0  0  0  0
   -0.6781   -0.9844    0.6839 H   0  0  0  0  0  0  0  0  0  0  0  0
   -1.2698   -0.8140   -1.0097 H   0  0  0  0  0  0  0  0  0  0  0  0
  1  2  2  0  0  0  0
  1  6  1  0  0  0  0
  2  3  1  0  0  0  0
  3  4  2  0  0  0  0
  4  9  1  0  0  0  0
  5  4  1  0  0  0  0
  5 10  1  0  0  0  0
  6 13  1  0  0  0  0
  6  5  2  0  0  0  0
  7  1  1  0  0  0  0
  8  2  1  0  0  0  0
 12 11  3  0  0  0  0
 14 15  1  0  0  0  0
 14 13  1  0  0  0  0
 14 16  1  0  0  0  0
 17 14  1  0  0  0  0
M  RAD  1   3   2
M  END
