Coordinates from ORCA-job 4-MeO-Ph-N2+-B3LYPG-6-31G_dp-MTMO-d009-169-n900
 OpenBabel09051907383D

 17 16  0  0  0  0  0  0  0  0999 V2000
   -1.6401    0.6471    0.1127 C   0  0  0  0  0  0  0  0  0  0  0  0
   -0.4162    1.3183   -0.1320 C   0  0  0  0  0  0  0  0  0  0  0  0
   -0.6546    2.6268    0.0285 C   0  0  0  0  0  0  0  0  0  0  0  0
   -1.4727    3.4744    0.6738 C   0  0  0  0  0  0  0  0  0  0  0  0
   -2.6570    2.7459    0.9083 C   0  0  0  0  0  0  0  0  0  0  0  0
   -2.7444    1.3490    0.6528 C   0  0  0  0  0  0  0  0  0  0  0  0
   -1.6869   -0.4067   -0.1383 H   0  0  0  0  0  0  0  0  0  0  0  0
    0.4893    0.8243   -0.4676 H   0  0  0  0  0  0  0  0  0  0  0  0
   -1.3711    4.5403    0.8418 H   0  0  0  0  0  0  0  0  0  0  0  0
   -3.5408    3.2878    1.2348 H   0  0  0  0  0  0  0  0  0  0  0  0
    2.1984   -2.4117   -1.2822 N   0  0  0  0  0  0  0  0  0  0  0  0
    2.8329   -3.2750   -1.5531 N   0  0  0  0  0  0  0  0  0  0  0  0
   -3.9161    0.8013    0.9466 O   0  0  0  0  0  0  0  0  0  0  0  0
   -4.1102   -0.6205    0.8028 C   0  0  0  0  0  0  0  0  0  0  0  0
   -5.1387   -0.8009    1.1083 H   0  0  0  0  0  0  0  0  0  0  0  0
   -3.4249   -1.1687    1.4549 H   0  0  0  0  0  0  0  0  0  0  0  0
   -3.9763   -0.9185   -0.2423 H   0  0  0  0  0  0  0  0  0  0  0  0
  1  6  2  0  0  0  0
  2  3  2  0  0  0  0
  2  1  1  0  0  0  0
  3  4  1  0  0  0  0
  4  9  1  0  0  0  0
  4  5  2  0  0  0  0
  5 10  1  0  0  0  0
  6  5  1  0  0  0  0
  6 13  1  0  0  0  0
  7  1  1  0  0  0  0
  8  2  1  0  0  0  0
 12 11  3  0  0  0  0
 14 13  1  0  0  0  0
 14 15  1  0  0  0  0
 14 16  1  0  0  0  0
 17 14  1  0  0  0  0
M  RAD  1   3   2
M  END
