Coordinates from ORCA-job 4-MeO-Ph-N2+-B3LYPG-6-31G_dp-MTMO-d009-169-n900
 OpenBabel09051907383D

 17 16  0  0  0  0  0  0  0  0999 V2000
   -0.9230    1.5254   -0.0152 C   0  0  0  0  0  0  0  0  0  0  0  0
   -0.3106    2.8014   -0.0454 C   0  0  0  0  0  0  0  0  0  0  0  0
   -1.2550    3.7014    0.2657 C   0  0  0  0  0  0  0  0  0  0  0  0
   -2.4063    3.8133    0.9490 C   0  0  0  0  0  0  0  0  0  0  0  0
   -2.9566    2.5150    0.9654 C   0  0  0  0  0  0  0  0  0  0  0  0
   -2.2292    1.3785    0.5114 C   0  0  0  0  0  0  0  0  0  0  0  0
   -0.3578    0.6881   -0.4082 H   0  0  0  0  0  0  0  0  0  0  0  0
    0.7147    2.9784   -0.3503 H   0  0  0  0  0  0  0  0  0  0  0  0
   -2.9387    4.7022    1.2661 H   0  0  0  0  0  0  0  0  0  0  0  0
   -3.9932    2.3984    1.2701 H   0  0  0  0  0  0  0  0  0  0  0  0
   -1.6490   -4.3210   -0.3368 N   0  0  0  0  0  0  0  0  0  0  0  0
   -1.5405   -5.4098   -0.4908 N   0  0  0  0  0  0  0  0  0  0  0  0
   -2.8761    0.2268    0.6159 O   0  0  0  0  0  0  0  0  0  0  0  0
   -2.2296   -1.0123    0.2515 C   0  0  0  0  0  0  0  0  0  0  0  0
   -2.9706   -1.7875    0.4313 H   0  0  0  0  0  0  0  0  0  0  0  0
   -1.3510   -1.1843    0.8785 H   0  0  0  0  0  0  0  0  0  0  0  0
   -1.9570   -1.0006   -0.8084 H   0  0  0  0  0  0  0  0  0  0  0  0
  1  6  1  0  0  0  0
  2  1  2  0  0  0  0
  2  3  1  0  0  0  0
  3  4  2  0  0  0  0
  4  5  1  0  0  0  0
  4  9  1  0  0  0  0
  5 10  1  0  0  0  0
  6 13  1  0  0  0  0
  6  5  2  0  0  0  0
  7  1  1  0  0  0  0
  8  2  1  0  0  0  0
 12 11  3  0  0  0  0
 14 15  1  0  0  0  0
 14 13  1  0  0  0  0
 14 16  1  0  0  0  0
 17 14  1  0  0  0  0
M  RAD  1   3   2
M  END
