Coordinates from ORCA-job 4-MeO-Ph-N2+-B3LYPG-6-31G_dp-MTMO-d009-169-n900
 OpenBabel09051907383D

 17 16  0  0  0  0  0  0  0  0999 V2000
   -1.1151    1.1695    0.0097 C   0  0  0  0  0  0  0  0  0  0  0  0
   -0.2517    2.2862   -0.0943 C   0  0  0  0  0  0  0  0  0  0  0  0
   -0.9807    3.3792    0.1767 C   0  0  0  0  0  0  0  0  0  0  0  0
   -2.0683    3.7644    0.8650 C   0  0  0  0  0  0  0  0  0  0  0  0
   -2.8767    2.6125    0.9554 C   0  0  0  0  0  0  0  0  0  0  0  0
   -2.4123    1.3276    0.5553 C   0  0  0  0  0  0  0  0  0  0  0  0
   -0.7447    0.2123   -0.3404 H   0  0  0  0  0  0  0  0  0  0  0  0
    0.7821    2.2295   -0.4160 H   0  0  0  0  0  0  0  0  0  0  0  0
   -2.3976    4.7598    1.1387 H   0  0  0  0  0  0  0  0  0  0  0  0
   -3.9088    2.7310    1.2743 H   0  0  0  0  0  0  0  0  0  0  0  0
   -0.4925   -3.3706   -0.5730 N   0  0  0  0  0  0  0  0  0  0  0  0
   -0.0397   -4.3559   -0.7858 N   0  0  0  0  0  0  0  0  0  0  0  0
   -3.2835    0.3437    0.7258 O   0  0  0  0  0  0  0  0  0  0  0  0
   -2.9117   -1.0166    0.4174 C   0  0  0  0  0  0  0  0  0  0  0  0
   -3.7951   -1.6111    0.6419 H   0  0  0  0  0  0  0  0  0  0  0  0
   -2.0742   -1.3372    1.0420 H   0  0  0  0  0  0  0  0  0  0  0  0
   -2.6589   -1.1112   -0.6429 H   0  0  0  0  0  0  0  0  0  0  0  0
  1  6  1  0  0  0  0
  2  1  2  0  0  0  0
  2  3  1  0  0  0  0
  3  4  2  0  0  0  0
  4  5  1  0  0  0  0
  4  9  1  0  0  0  0
  5 10  1  0  0  0  0
  6 13  1  0  0  0  0
  6  5  2  0  0  0  0
  7  1  1  0  0  0  0
  8  2  1  0  0  0  0
 12 11  3  0  0  0  0
 14 15  1  0  0  0  0
 14 13  1  0  0  0  0
 14 16  1  0  0  0  0
 17 14  1  0  0  0  0
M  RAD  1   3   2
M  END
