Coordinates from ORCA-job 4-MeO-Ph-N2+-B3LYPG-6-31G_dp-MTMO-d009-169-n900
 OpenBabel09051907383D

 17 16  0  0  0  0  0  0  0  0999 V2000
   -0.6898    2.3919    0.0139 C   0  0  0  0  0  0  0  0  0  0  0  0
   -0.2964    3.7521    0.0075 C   0  0  0  0  0  0  0  0  0  0  0  0
   -1.3795    4.4767    0.3215 C   0  0  0  0  0  0  0  0  0  0  0  0
   -2.5419    4.3888    0.9882 C   0  0  0  0  0  0  0  0  0  0  0  0
   -2.8693    3.0167    0.9810 C   0  0  0  0  0  0  0  0  0  0  0  0
   -1.9592    2.0237    0.5214 C   0  0  0  0  0  0  0  0  0  0  0  0
    0.0120    1.6658   -0.3802 H   0  0  0  0  0  0  0  0  0  0  0  0
    0.6887    4.1009   -0.2811 H   0  0  0  0  0  0  0  0  0  0  0  0
   -3.2179    5.1728    1.3089 H   0  0  0  0  0  0  0  0  0  0  0  0
   -3.8753    2.7260    1.2718 H   0  0  0  0  0  0  0  0  0  0  0  0
   -3.3635   -9.6281   -0.4766 N   0  0  0  0  0  0  0  0  0  0  0  0
   -3.6378  -10.6962   -0.5506 N   0  0  0  0  0  0  0  0  0  0  0  0
   -2.4084    0.7787    0.6015 O   0  0  0  0  0  0  0  0  0  0  0  0
   -1.5626   -0.3269    0.2220 C   0  0  0  0  0  0  0  0  0  0  0  0
   -2.1688   -1.2168    0.3806 H   0  0  0  0  0  0  0  0  0  0  0  0
   -0.6719   -0.3633    0.8550 H   0  0  0  0  0  0  0  0  0  0  0  0
   -1.2880   -0.2493   -0.8350 H   0  0  0  0  0  0  0  0  0  0  0  0
  1  6  1  0  0  0  0
  2  1  2  0  0  0  0
  2  3  1  0  0  0  0
  3  4  2  0  0  0  0
  4  9  1  0  0  0  0
  5  4  1  0  0  0  0
  5 10  1  0  0  0  0
  6 13  1  0  0  0  0
  6  5  2  0  0  0  0
  7  1  1  0  0  0  0
  8  2  1  0  0  0  0
 12 11  3  0  0  0  0
 14 15  1  0  0  0  0
 14 13  1  0  0  0  0
 14 16  1  0  0  0  0
 17 14  1  0  0  0  0
M  RAD  1   3   2
M  END
