Coordinates from ORCA-job 4-MeO-Ph-N2+-B3LYPG-6-31G_dp-MTMO-d009-169-n900
 OpenBabel09051907383D

 17 16  0  0  0  0  0  0  0  0999 V2000
   -0.9589    1.4560   -0.0168 C   0  0  0  0  0  0  0  0  0  0  0  0
   -0.2921    2.7039   -0.0566 C   0  0  0  0  0  0  0  0  0  0  0  0
   -1.1950    3.6459    0.2540 C   0  0  0  0  0  0  0  0  0  0  0  0
   -2.3364    3.8106    0.9435 C   0  0  0  0  0  0  0  0  0  0  0  0
   -2.9425    2.5377    0.9692 C   0  0  0  0  0  0  0  0  0  0  0  0
   -2.2676    1.3685    0.5173 C   0  0  0  0  0  0  0  0  0  0  0  0
   -0.4329    0.5928   -0.4085 H   0  0  0  0  0  0  0  0  0  0  0  0
    0.7383    2.8348   -0.3676 H   0  0  0  0  0  0  0  0  0  0  0  0
   -2.8277    4.7233    1.2592 H   0  0  0  0  0  0  0  0  0  0  0  0
   -3.9816    2.4677    1.2799 H   0  0  0  0  0  0  0  0  0  0  0  0
   -1.4307   -4.1313   -0.3668 N   0  0  0  0  0  0  0  0  0  0  0  0
   -1.2184   -5.2048   -0.5200 N   0  0  0  0  0  0  0  0  0  0  0  0
   -2.9632    0.2466    0.6311 O   0  0  0  0  0  0  0  0  0  0  0  0
   -2.3721   -1.0211    0.2703 C   0  0  0  0  0  0  0  0  0  0  0  0
   -3.1464   -1.7618    0.4561 H   0  0  0  0  0  0  0  0  0  0  0  0
   -1.5001   -1.2293    0.8954 H   0  0  0  0  0  0  0  0  0  0  0  0
   -2.1022   -1.0263   -0.7900 H   0  0  0  0  0  0  0  0  0  0  0  0
  1  6  1  0  0  0  0
  2  1  2  0  0  0  0
  2  3  1  0  0  0  0
  3  4  2  0  0  0  0
  4  5  1  0  0  0  0
  4  9  1  0  0  0  0
  5 10  1  0  0  0  0
  6 13  1  0  0  0  0
  6  5  2  0  0  0  0
  7  1  1  0  0  0  0
  8  2  1  0  0  0  0
 12 11  3  0  0  0  0
 14 15  1  0  0  0  0
 14 13  1  0  0  0  0
 14 16  1  0  0  0  0
 17 14  1  0  0  0  0
M  RAD  1   3   2
M  END
