Coordinates from ORCA-job 4-MeO-Ph-N2+-B3LYPG-6-31G_dp-MTMO-d009-169-n900
 OpenBabel09051907383D

 17 16  0  0  0  0  0  0  0  0999 V2000
   -0.7437    2.0190   -0.0085 C   0  0  0  0  0  0  0  0  0  0  0  0
   -0.3410    3.3762    0.0133 C   0  0  0  0  0  0  0  0  0  0  0  0
   -1.4216    4.1029    0.3317 C   0  0  0  0  0  0  0  0  0  0  0  0
   -2.5896    4.0105    0.9882 C   0  0  0  0  0  0  0  0  0  0  0  0
   -2.9264    2.6413    0.9531 C   0  0  0  0  0  0  0  0  0  0  0  0
   -2.0196    1.6503    0.4823 C   0  0  0  0  0  0  0  0  0  0  0  0
   -0.0440    1.2953   -0.4107 H   0  0  0  0  0  0  0  0  0  0  0  0
    0.6487    3.7232   -0.2614 H   0  0  0  0  0  0  0  0  0  0  0  0
   -3.2624    4.7932    1.3183 H   0  0  0  0  0  0  0  0  0  0  0  0
   -3.9366    2.3523    1.2309 H   0  0  0  0  0  0  0  0  0  0  0  0
   -2.9383   -6.8228   -0.2273 N   0  0  0  0  0  0  0  0  0  0  0  0
   -3.1839   -7.8983   -0.2942 N   0  0  0  0  0  0  0  0  0  0  0  0
   -2.4781    0.4074    0.5362 O   0  0  0  0  0  0  0  0  0  0  0  0
   -1.6371   -0.6975    0.1435 C   0  0  0  0  0  0  0  0  0  0  0  0
   -2.2500   -1.5859    0.2826 H   0  0  0  0  0  0  0  0  0  0  0  0
   -0.7510   -0.7505    0.7818 H   0  0  0  0  0  0  0  0  0  0  0  0
   -1.3549   -0.6036   -0.9102 H   0  0  0  0  0  0  0  0  0  0  0  0
  1  2  2  0  0  0  0
  1  6  1  0  0  0  0
  2  3  1  0  0  0  0
  3  4  2  0  0  0  0
  4  9  1  0  0  0  0
  5  4  1  0  0  0  0
  5 10  1  0  0  0  0
  6 13  1  0  0  0  0
  6  5  2  0  0  0  0
  7  1  1  0  0  0  0
  8  2  1  0  0  0  0
 12 11  3  0  0  0  0
 14 15  1  0  0  0  0
 14 13  1  0  0  0  0
 14 16  1  0  0  0  0
 17 14  1  0  0  0  0
M  RAD  1   3   2
M  END
