Coordinates from ORCA-job 4-MeO-Ph-N2+-B3LYPG-6-31G_dp-MTMO-d009-169-n900
 OpenBabel09051907383D

 17 16  0  0  0  0  0  0  0  0999 V2000
   -2.0351   -0.2071    0.1800 C   0  0  0  0  0  0  0  0  0  0  0  0
   -0.6877   -0.2895   -0.2456 C   0  0  0  0  0  0  0  0  0  0  0  0
   -0.1453    0.9375   -0.1822 C   0  0  0  0  0  0  0  0  0  0  0  0
   -0.4761    2.2013    0.1572 C   0  0  0  0  0  0  0  0  0  0  0  0
   -1.8201    2.2045    0.5675 C   0  0  0  0  0  0  0  0  0  0  0  0
   -2.5992    1.0222    0.5829 C   0  0  0  0  0  0  0  0  0  0  0  0
   -2.6054   -1.1288    0.1789 H   0  0  0  0  0  0  0  0  0  0  0  0
   -0.2164   -1.2101   -0.5621 H   0  0  0  0  0  0  0  0  0  0  0  0
    0.1477    3.0847    0.1324 H   0  0  0  0  0  0  0  0  0  0  0  0
   -2.2667    3.1434    0.8796 H   0  0  0  0  0  0  0  0  0  0  0  0
    1.9706    0.8610   -0.8397 N   0  0  0  0  0  0  0  0  0  0  0  0
    3.0240    0.8252   -1.1679 N   0  0  0  0  0  0  0  0  0  0  0  0
   -3.8573    1.1800    0.9945 O   0  0  0  0  0  0  0  0  0  0  0  0
   -4.7392    0.0461    1.0519 C   0  0  0  0  0  0  0  0  0  0  0  0
   -5.6899    0.4380    1.4082 H   0  0  0  0  0  0  0  0  0  0  0  0
   -4.3624   -0.7026    1.7567 H   0  0  0  0  0  0  0  0  0  0  0  0
   -4.8711   -0.3925    0.0576 H   0  0  0  0  0  0  0  0  0  0  0  0
  1  6  2  0  0  0  0
  2  3  2  0  0  0  0
  2  1  1  0  0  0  0
  3  4  1  0  0  0  0
  4  5  2  0  0  0  0
  5  6  1  0  0  0  0
  5 10  1  0  0  0  0
  6 13  1  0  0  0  0
  7  1  1  0  0  0  0
  8  2  1  0  0  0  0
  9  4  1  0  0  0  0
 12 11  3  0  0  0  0
 13 14  1  0  0  0  0
 14 15  1  0  0  0  0
 14 16  1  0  0  0  0
 17 14  1  0  0  0  0
M  RAD  1   3   2
M  END
