Coordinates from ORCA-job 4-MeO-Ph-N2+-B3LYPG-6-31G_dp-MTMO-d009-169-n900
 OpenBabel09051907383D

 17 16  0  0  0  0  0  0  0  0999 V2000
   -1.6443    0.5781    0.1140 C   0  0  0  0  0  0  0  0  0  0  0  0
   -0.3993    1.2080   -0.1382 C   0  0  0  0  0  0  0  0  0  0  0  0
   -0.6006    2.5238    0.0093 C   0  0  0  0  0  0  0  0  0  0  0  0
   -1.3952    3.4039    0.6399 C   0  0  0  0  0  0  0  0  0  0  0  0
   -2.6010    2.7142    0.8824 C   0  0  0  0  0  0  0  0  0  0  0  0
   -2.7285    1.3178    0.6438 C   0  0  0  0  0  0  0  0  0  0  0  0
   -1.7220   -0.4763   -0.1267 H   0  0  0  0  0  0  0  0  0  0  0  0
    0.4887    0.6798   -0.4696 H   0  0  0  0  0  0  0  0  0  0  0  0
   -1.2605    4.4679    0.7962 H   0  0  0  0  0  0  0  0  0  0  0  0
   -3.4679    3.2856    1.2037 H   0  0  0  0  0  0  0  0  0  0  0  0
    2.1043   -2.0942   -1.2222 N   0  0  0  0  0  0  0  0  0  0  0  0
    2.7547   -2.9428   -1.5016 N   0  0  0  0  0  0  0  0  0  0  0  0
   -3.9162    0.8074    0.9420 O   0  0  0  0  0  0  0  0  0  0  0  0
   -4.1508   -0.6096    0.8133 C   0  0  0  0  0  0  0  0  0  0  0  0
   -5.1844   -0.7573    1.1194 H   0  0  0  0  0  0  0  0  0  0  0  0
   -3.4822   -1.1704    1.4722 H   0  0  0  0  0  0  0  0  0  0  0  0
   -4.0245   -0.9226   -0.2283 H   0  0  0  0  0  0  0  0  0  0  0  0
  1  6  2  0  0  0  0
  2  3  2  0  0  0  0
  2  1  1  0  0  0  0
  3  4  1  0  0  0  0
  4  9  1  0  0  0  0
  4  5  2  0  0  0  0
  5 10  1  0  0  0  0
  6  5  1  0  0  0  0
  6 13  1  0  0  0  0
  7  1  1  0  0  0  0
  8  2  1  0  0  0  0
 12 11  3  0  0  0  0
 14 13  1  0  0  0  0
 14 15  1  0  0  0  0
 14 16  1  0  0  0  0
 17 14  1  0  0  0  0
M  RAD  1   3   2
M  END
