Coordinates from ORCA-job 4-MeO-Ph-N2+-B3LYPG-6-31G_dp-MTMO-d009-169-n900
 OpenBabel09051907383D

 17 16  0  0  0  0  0  0  0  0999 V2000
   -0.6494    2.6543    0.0317 C   0  0  0  0  0  0  0  0  0  0  0  0
   -0.2690    4.0182    0.0191 C   0  0  0  0  0  0  0  0  0  0  0  0
   -1.3586    4.7337    0.3312 C   0  0  0  0  0  0  0  0  0  0  0  0
   -2.5196    4.6376    0.9993 C   0  0  0  0  0  0  0  0  0  0  0  0
   -2.8338    3.2625    0.9984 C   0  0  0  0  0  0  0  0  0  0  0  0
   -1.9147    2.2762    0.5421 C   0  0  0  0  0  0  0  0  0  0  0  0
    0.0588    1.9333   -0.3600 H   0  0  0  0  0  0  0  0  0  0  0  0
    0.7125    4.3750   -0.2720 H   0  0  0  0  0  0  0  0  0  0  0  0
   -3.2027    5.4165    1.3173 H   0  0  0  0  0  0  0  0  0  0  0  0
   -3.8367    2.9635    1.2915 H   0  0  0  0  0  0  0  0  0  0  0  0
   -3.6649  -11.5491   -0.6210 N   0  0  0  0  0  0  0  0  0  0  0  0
   -3.9822  -12.6046   -0.7035 N   0  0  0  0  0  0  0  0  0  0  0  0
   -2.3520    1.0273    0.6280 O   0  0  0  0  0  0  0  0  0  0  0  0
   -1.4961   -0.0717    0.2525 C   0  0  0  0  0  0  0  0  0  0  0  0
   -2.0935   -0.9666    0.4155 H   0  0  0  0  0  0  0  0  0  0  0  0
   -0.6044   -0.0969    0.8846 H   0  0  0  0  0  0  0  0  0  0  0  0
   -1.2233    0.0040   -0.8052 H   0  0  0  0  0  0  0  0  0  0  0  0
  1  6  1  0  0  0  0
  2  1  2  0  0  0  0
  2  3  1  0  0  0  0
  3  4  2  0  0  0  0
  4  9  1  0  0  0  0
  5  4  1  0  0  0  0
  5 10  1  0  0  0  0
  6 13  1  0  0  0  0
  6  5  2  0  0  0  0
  7  1  1  0  0  0  0
  8  2  1  0  0  0  0
 12 11  3  0  0  0  0
 14 15  1  0  0  0  0
 14 13  1  0  0  0  0
 14 16  1  0  0  0  0
 17 14  1  0  0  0  0
M  RAD  1   3   2
M  END
