Coordinates from ORCA-job 4-MeO-Ph-N2+-B3LYPG-6-31G_dp-MTMO-d009-169-n900
 OpenBabel09051907383D

 17 16  0  0  0  0  0  0  0  0999 V2000
   -0.6570    2.6054    0.0283 C   0  0  0  0  0  0  0  0  0  0  0  0
   -0.2741    3.9686    0.0162 C   0  0  0  0  0  0  0  0  0  0  0  0
   -1.3624    4.6860    0.3286 C   0  0  0  0  0  0  0  0  0  0  0  0
   -2.5235    4.5918    0.9967 C   0  0  0  0  0  0  0  0  0  0  0  0
   -2.8402    3.2173    0.9952 C   0  0  0  0  0  0  0  0  0  0  0  0
   -1.9230    2.2294    0.5385 C   0  0  0  0  0  0  0  0  0  0  0  0
    0.0499    1.8832   -0.3638 H   0  0  0  0  0  0  0  0  0  0  0  0
    0.7081    4.3238   -0.2747 H   0  0  0  0  0  0  0  0  0  0  0  0
   -3.2051    5.3718    1.3150 H   0  0  0  0  0  0  0  0  0  0  0  0
   -3.8437    2.9199    1.2882 H   0  0  0  0  0  0  0  0  0  0  0  0
   -3.6081  -11.1929   -0.5945 N   0  0  0  0  0  0  0  0  0  0  0  0
   -3.9185  -12.2505   -0.6765 N   0  0  0  0  0  0  0  0  0  0  0  0
   -2.3626    0.9814    0.6239 O   0  0  0  0  0  0  0  0  0  0  0  0
   -1.5087   -0.1191    0.2478 C   0  0  0  0  0  0  0  0  0  0  0  0
   -2.1078   -1.0130    0.4104 H   0  0  0  0  0  0  0  0  0  0  0  0
   -0.6171   -0.1463    0.8800 H   0  0  0  0  0  0  0  0  0  0  0  0
   -1.2357   -0.0434   -0.8098 H   0  0  0  0  0  0  0  0  0  0  0  0
  1  6  1  0  0  0  0
  2  1  2  0  0  0  0
  2  3  1  0  0  0  0
  3  4  2  0  0  0  0
  4  9  1  0  0  0  0
  5  4  1  0  0  0  0
  5 10  1  0  0  0  0
  6 13  1  0  0  0  0
  6  5  2  0  0  0  0
  7  1  1  0  0  0  0
  8  2  1  0  0  0  0
 12 11  3  0  0  0  0
 14 15  1  0  0  0  0
 14 13  1  0  0  0  0
 14 16  1  0  0  0  0
 17 14  1  0  0  0  0
M  RAD  1   3   2
M  END
