Coordinates from ORCA-job 4-MeO-Ph-N2+-B3LYPG-6-31G_dp-MTMO-d009-169-n900
 OpenBabel09051907383D

 17 16  0  0  0  0  0  0  0  0999 V2000
   -1.0800    1.2440   -0.0059 C   0  0  0  0  0  0  0  0  0  0  0  0
   -0.2602    2.3946   -0.0927 C   0  0  0  0  0  0  0  0  0  0  0  0
   -1.0313    3.4524    0.1989 C   0  0  0  0  0  0  0  0  0  0  0  0
   -2.1316    3.7826    0.8959 C   0  0  0  0  0  0  0  0  0  0  0  0
   -2.8946    2.5991    0.9687 C   0  0  0  0  0  0  0  0  0  0  0  0
   -2.3809    1.3408    0.5453 C   0  0  0  0  0  0  0  0  0  0  0  0
   -0.6745    0.3091   -0.3764 H   0  0  0  0  0  0  0  0  0  0  0  0
    0.7734    2.3837   -0.4199 H   0  0  0  0  0  0  0  0  0  0  0  0
   -2.4971    4.7595    1.1891 H   0  0  0  0  0  0  0  0  0  0  0  0
   -3.9290    2.6712    1.2940 H   0  0  0  0  0  0  0  0  0  0  0  0
   -0.7165   -3.5816   -0.5008 N   0  0  0  0  0  0  0  0  0  0  0  0
   -0.3063   -4.5884   -0.6986 N   0  0  0  0  0  0  0  0  0  0  0  0
   -3.2114    0.3200    0.7003 O   0  0  0  0  0  0  0  0  0  0  0  0
   -2.7842   -1.0190    0.3699 C   0  0  0  0  0  0  0  0  0  0  0  0
   -3.6415   -1.6535    0.5860 H   0  0  0  0  0  0  0  0  0  0  0  0
   -1.9333   -1.3148    0.9881 H   0  0  0  0  0  0  0  0  0  0  0  0
   -2.5306   -1.0861   -0.6923 H   0  0  0  0  0  0  0  0  0  0  0  0
  1  6  1  0  0  0  0
  2  1  2  0  0  0  0
  2  3  1  0  0  0  0
  3  4  2  0  0  0  0
  4  5  1  0  0  0  0
  4  9  1  0  0  0  0
  5 10  1  0  0  0  0
  6 13  1  0  0  0  0
  6  5  2  0  0  0  0
  7  1  1  0  0  0  0
  8  2  1  0  0  0  0
 12 11  3  0  0  0  0
 14 15  1  0  0  0  0
 14 13  1  0  0  0  0
 14 16  1  0  0  0  0
 17 14  1  0  0  0  0
M  RAD  1   3   2
M  END
