Coordinates from ORCA-job 4-MeO-Ph-N2+-B3LYPG-6-31G_dp-MTMO-d009-169-n900
 OpenBabel09051907383D

 17 16  0  0  0  0  0  0  0  0999 V2000
   -0.6464    2.6734    0.0331 C   0  0  0  0  0  0  0  0  0  0  0  0
   -0.2669    4.0374    0.0203 C   0  0  0  0  0  0  0  0  0  0  0  0
   -1.3570    4.7524    0.3323 C   0  0  0  0  0  0  0  0  0  0  0  0
   -2.5179    4.6557    1.0004 C   0  0  0  0  0  0  0  0  0  0  0  0
   -2.8312    3.2804    0.9997 C   0  0  0  0  0  0  0  0  0  0  0  0
   -1.9115    2.2945    0.5435 C   0  0  0  0  0  0  0  0  0  0  0  0
    0.0623    1.9527   -0.3586 H   0  0  0  0  0  0  0  0  0  0  0  0
    0.7144    4.3949   -0.2708 H   0  0  0  0  0  0  0  0  0  0  0  0
   -3.2015    5.4342    1.3182 H   0  0  0  0  0  0  0  0  0  0  0  0
   -3.8339    2.9807    1.2928 H   0  0  0  0  0  0  0  0  0  0  0  0
   -3.6871  -11.6884   -0.6313 N   0  0  0  0  0  0  0  0  0  0  0  0
   -4.0067  -12.7432   -0.7141 N   0  0  0  0  0  0  0  0  0  0  0  0
   -2.3480    1.0454    0.6296 O   0  0  0  0  0  0  0  0  0  0  0  0
   -1.4914   -0.0531    0.2542 C   0  0  0  0  0  0  0  0  0  0  0  0
   -2.0882   -0.9484    0.4174 H   0  0  0  0  0  0  0  0  0  0  0  0
   -0.5997   -0.0777    0.8864 H   0  0  0  0  0  0  0  0  0  0  0  0
   -1.2186    0.0226   -0.8034 H   0  0  0  0  0  0  0  0  0  0  0  0
  1  6  1  0  0  0  0
  2  1  2  0  0  0  0
  2  3  1  0  0  0  0
  3  4  2  0  0  0  0
  4  9  1  0  0  0  0
  5  4  1  0  0  0  0
  5 10  1  0  0  0  0
  6 13  1  0  0  0  0
  6  5  2  0  0  0  0
  7  1  1  0  0  0  0
  8  2  1  0  0  0  0
 12 11  3  0  0  0  0
 14 15  1  0  0  0  0
 14 13  1  0  0  0  0
 14 16  1  0  0  0  0
 17 14  1  0  0  0  0
M  RAD  1   3   2
M  END
