Coordinates from ORCA-job 4-MeO-Ph-N2+-B3LYPG-6-31G_dp-MTMO-d009-169-n900
 OpenBabel09051907383D

 17 16  0  0  0  0  0  0  0  0999 V2000
   -0.7273    2.1405   -0.0014 C   0  0  0  0  0  0  0  0  0  0  0  0
   -0.3224    3.4972    0.0074 C   0  0  0  0  0  0  0  0  0  0  0  0
   -1.4005    4.2281    0.3242 C   0  0  0  0  0  0  0  0  0  0  0  0
   -2.5662    4.1433    0.9856 C   0  0  0  0  0  0  0  0  0  0  0  0
   -2.9053    2.7743    0.9633 C   0  0  0  0  0  0  0  0  0  0  0  0
   -2.0018    1.7780    0.4973 C   0  0  0  0  0  0  0  0  0  0  0  0
   -0.0303    1.4124   -0.4002 H   0  0  0  0  0  0  0  0  0  0  0  0
    0.6669    3.8404   -0.2740 H   0  0  0  0  0  0  0  0  0  0  0  0
   -3.2366    4.9298    1.3116 H   0  0  0  0  0  0  0  0  0  0  0  0
   -3.9148    2.4893    1.2473 H   0  0  0  0  0  0  0  0  0  0  0  0
   -3.0673   -7.7698   -0.3200 N   0  0  0  0  0  0  0  0  0  0  0  0
   -3.3181   -8.8441   -0.3885 N   0  0  0  0  0  0  0  0  0  0  0  0
   -2.4620    0.5363    0.5632 O   0  0  0  0  0  0  0  0  0  0  0  0
   -1.6242   -0.5729    0.1763 C   0  0  0  0  0  0  0  0  0  0  0  0
   -2.2383   -1.4591    0.3243 H   0  0  0  0  0  0  0  0  0  0  0  0
   -0.7361   -0.6226    0.8121 H   0  0  0  0  0  0  0  0  0  0  0  0
   -1.3452   -0.4877   -0.8789 H   0  0  0  0  0  0  0  0  0  0  0  0
  1  2  2  0  0  0  0
  1  6  1  0  0  0  0
  2  3  1  0  0  0  0
  3  4  2  0  0  0  0
  4  9  1  0  0  0  0
  5  4  1  0  0  0  0
  5 10  1  0  0  0  0
  6 13  1  0  0  0  0
  6  5  2  0  0  0  0
  7  1  1  0  0  0  0
  8  2  1  0  0  0  0
 12 11  3  0  0  0  0
 14 15  1  0  0  0  0
 14 13  1  0  0  0  0
 14 16  1  0  0  0  0
 17 14  1  0  0  0  0
M  RAD  1   3   2
M  END
