Coordinates from ORCA-job 4-MeO-Ph-N2+-B3LYPG-6-31G_dp-MTMO-d009-169-n900
 OpenBabel09051907383D

 17 16  0  0  0  0  0  0  0  0999 V2000
   -0.6553    2.6161    0.0290 C   0  0  0  0  0  0  0  0  0  0  0  0
   -0.2731    3.9794    0.0169 C   0  0  0  0  0  0  0  0  0  0  0  0
   -1.3616    4.6964    0.3292 C   0  0  0  0  0  0  0  0  0  0  0  0
   -2.5227    4.6017    0.9973 C   0  0  0  0  0  0  0  0  0  0  0  0
   -2.8389    3.2271    0.9959 C   0  0  0  0  0  0  0  0  0  0  0  0
   -1.9212    2.2396    0.5393 C   0  0  0  0  0  0  0  0  0  0  0  0
    0.0519    1.8942   -0.3630 H   0  0  0  0  0  0  0  0  0  0  0  0
    0.7090    4.3350   -0.2741 H   0  0  0  0  0  0  0  0  0  0  0  0
   -3.2047    5.3815    1.3155 H   0  0  0  0  0  0  0  0  0  0  0  0
   -3.8422    2.9293    1.2889 H   0  0  0  0  0  0  0  0  0  0  0  0
   -3.6205  -11.2704   -0.6003 N   0  0  0  0  0  0  0  0  0  0  0  0
   -3.9325  -12.3275   -0.6823 N   0  0  0  0  0  0  0  0  0  0  0  0
   -2.3602    0.9913    0.6248 O   0  0  0  0  0  0  0  0  0  0  0  0
   -1.5059   -0.1088    0.2489 C   0  0  0  0  0  0  0  0  0  0  0  0
   -2.1046   -1.0029    0.4116 H   0  0  0  0  0  0  0  0  0  0  0  0
   -0.6142   -0.1355    0.8810 H   0  0  0  0  0  0  0  0  0  0  0  0
   -1.2329   -0.0331   -0.8088 H   0  0  0  0  0  0  0  0  0  0  0  0
  1  6  1  0  0  0  0
  2  1  2  0  0  0  0
  2  3  1  0  0  0  0
  3  4  2  0  0  0  0
  4  9  1  0  0  0  0
  5  4  1  0  0  0  0
  5 10  1  0  0  0  0
  6 13  1  0  0  0  0
  6  5  2  0  0  0  0
  7  1  1  0  0  0  0
  8  2  1  0  0  0  0
 12 11  3  0  0  0  0
 14 15  1  0  0  0  0
 14 13  1  0  0  0  0
 14 16  1  0  0  0  0
 17 14  1  0  0  0  0
M  RAD  1   3   2
M  END
