Coordinates from ORCA-job 4-MeO-Ph-N2+-B3LYPG-6-31G_dp-MTMO-d009-169-n900
 OpenBabel09051907383D

 17 16  0  0  0  0  0  0  0  0999 V2000
   -2.0584   -0.2056    0.1862 C   0  0  0  0  0  0  0  0  0  0  0  0
   -0.7059   -0.2909   -0.2404 C   0  0  0  0  0  0  0  0  0  0  0  0
   -0.1953    0.9414   -0.1700 C   0  0  0  0  0  0  0  0  0  0  0  0
   -0.4958    2.2061    0.1650 C   0  0  0  0  0  0  0  0  0  0  0  0
   -1.8449    2.2051    0.5754 C   0  0  0  0  0  0  0  0  0  0  0  0
   -2.6239    1.0227    0.5902 C   0  0  0  0  0  0  0  0  0  0  0  0
   -2.6246   -1.1303    0.1810 H   0  0  0  0  0  0  0  0  0  0  0  0
   -0.2298   -1.2092   -0.5569 H   0  0  0  0  0  0  0  0  0  0  0  0
    0.1306    3.0878    0.1392 H   0  0  0  0  0  0  0  0  0  0  0  0
   -2.2879    3.1469    0.8853 H   0  0  0  0  0  0  0  0  0  0  0  0
    2.1433    0.8583   -0.8903 N   0  0  0  0  0  0  0  0  0  0  0  0
    3.1964    0.8230   -1.2206 N   0  0  0  0  0  0  0  0  0  0  0  0
   -3.8821    1.1796    1.0015 O   0  0  0  0  0  0  0  0  0  0  0  0
   -4.7618    0.0436    1.0593 C   0  0  0  0  0  0  0  0  0  0  0  0
   -5.7134    0.4337    1.4154 H   0  0  0  0  0  0  0  0  0  0  0  0
   -4.3833   -0.7037    1.7645 H   0  0  0  0  0  0  0  0  0  0  0  0
   -4.8928   -0.3951    0.0649 H   0  0  0  0  0  0  0  0  0  0  0  0
  1  6  2  0  0  0  0
  2  3  2  0  0  0  0
  2  1  1  0  0  0  0
  3  4  1  0  0  0  0
  4  5  2  0  0  0  0
  5  6  1  0  0  0  0
  5 10  1  0  0  0  0
  6 13  1  0  0  0  0
  7  1  1  0  0  0  0
  8  2  1  0  0  0  0
  9  4  1  0  0  0  0
 12 11  3  0  0  0  0
 13 14  1  0  0  0  0
 14 15  1  0  0  0  0
 14 16  1  0  0  0  0
 17 14  1  0  0  0  0
M  RAD  1   3   2
M  END
