Coordinates from ORCA-job 4-MeO-Ph-N2+-B3LYPG-6-31G_dp-MTMO-d009-169-n900
 OpenBabel09051907383D

 17 16  0  0  0  0  0  0  0  0999 V2000
   -2.1784   -0.1943    0.1327 C   0  0  0  0  0  0  0  0  0  0  0  0
   -0.8286   -0.2527   -0.2984 C   0  0  0  0  0  0  0  0  0  0  0  0
   -0.3853    1.0084   -0.3408 C   0  0  0  0  0  0  0  0  0  0  0  0
   -0.6109    2.2287    0.1690 C   0  0  0  0  0  0  0  0  0  0  0  0
   -1.9551    2.2124    0.5974 C   0  0  0  0  0  0  0  0  0  0  0  0
   -2.7309    1.0215    0.5993 C   0  0  0  0  0  0  0  0  0  0  0  0
   -2.7550   -1.1112    0.0773 H   0  0  0  0  0  0  0  0  0  0  0  0
   -0.3211   -1.1621   -0.5976 H   0  0  0  0  0  0  0  0  0  0  0  0
    0.0088    3.1168    0.1378 H   0  0  0  0  0  0  0  0  0  0  0  0
   -2.4172    3.1550    0.8779 H   0  0  0  0  0  0  0  0  0  0  0  0
    2.9400    0.7977   -0.9744 N   0  0  0  0  0  0  0  0  0  0  0  0
    4.0155    0.7506   -1.2231 N   0  0  0  0  0  0  0  0  0  0  0  0
   -3.9725    1.1647    1.0478 O   0  0  0  0  0  0  0  0  0  0  0  0
   -4.8383    0.0183    1.1605 C   0  0  0  0  0  0  0  0  0  0  0  0
   -5.7777    0.4057    1.5492 H   0  0  0  0  0  0  0  0  0  0  0  0
   -4.4193   -0.7128    1.8585 H   0  0  0  0  0  0  0  0  0  0  0  0
   -5.0034   -0.4332    0.1769 H   0  0  0  0  0  0  0  0  0  0  0  0
  1  6  2  0  0  0  0
  2  1  1  0  0  0  0
  3  2  2  0  0  0  0
  3  4  1  0  0  0  0
  4  5  2  0  0  0  0
  5  6  1  0  0  0  0
  5 10  1  0  0  0  0
  6 13  1  0  0  0  0
  7  1  1  0  0  0  0
  8  2  1  0  0  0  0
  9  4  1  0  0  0  0
 12 11  3  0  0  0  0
 13 14  1  0  0  0  0
 14 15  1  0  0  0  0
 14 16  1  0  0  0  0
 17 14  1  0  0  0  0
M  RAD  1   3   2
M  END
