Coordinates from ORCA-job 4-MeO-Ph-N2+-B3LYPG-6-31G_dp-MTMO-d009-169-n900
 OpenBabel09051907383D

 17 16  0  0  0  0  0  0  0  0999 V2000
   -1.1066    1.1889    0.0050 C   0  0  0  0  0  0  0  0  0  0  0  0
   -0.2539    2.3141   -0.0946 C   0  0  0  0  0  0  0  0  0  0  0  0
   -0.9933    3.3984    0.1826 C   0  0  0  0  0  0  0  0  0  0  0  0
   -2.0840    3.7697    0.8738 C   0  0  0  0  0  0  0  0  0  0  0  0
   -2.8812    2.6097    0.9597 C   0  0  0  0  0  0  0  0  0  0  0  0
   -2.4047    1.3315    0.5529 C   0  0  0  0  0  0  0  0  0  0  0  0
   -0.7277    0.2372   -0.3510 H   0  0  0  0  0  0  0  0  0  0  0  0
    0.7799    2.2689   -0.4184 H   0  0  0  0  0  0  0  0  0  0  0  0
   -2.4221    4.7605    1.1531 H   0  0  0  0  0  0  0  0  0  0  0  0
   -3.9139    2.7166    1.2810 H   0  0  0  0  0  0  0  0  0  0  0  0
   -0.5477   -3.4277   -0.5529 N   0  0  0  0  0  0  0  0  0  0  0  0
   -0.1039   -4.4178   -0.7621 N   0  0  0  0  0  0  0  0  0  0  0  0
   -3.2659    0.3381    0.7194 O   0  0  0  0  0  0  0  0  0  0  0  0
   -2.8804   -1.0170    0.4044 C   0  0  0  0  0  0  0  0  0  0  0  0
   -3.7574   -1.6217    0.6269 H   0  0  0  0  0  0  0  0  0  0  0  0
   -2.0391   -1.3319    1.0265 H   0  0  0  0  0  0  0  0  0  0  0  0
   -2.6278   -1.1040   -0.6567 H   0  0  0  0  0  0  0  0  0  0  0  0
  1  6  1  0  0  0  0
  2  1  2  0  0  0  0
  2  3  1  0  0  0  0
  3  4  2  0  0  0  0
  4  5  1  0  0  0  0
  4  9  1  0  0  0  0
  5 10  1  0  0  0  0
  6 13  1  0  0  0  0
  6  5  2  0  0  0  0
  7  1  1  0  0  0  0
  8  2  1  0  0  0  0
 12 11  3  0  0  0  0
 14 15  1  0  0  0  0
 14 13  1  0  0  0  0
 14 16  1  0  0  0  0
 17 14  1  0  0  0  0
M  RAD  1   3   2
M  END
