Coordinates from ORCA-job 4-MeO-Ph-N2+-B3LYPG-6-31G_dp-MTMO-d009-169-n900
 OpenBabel09051907383D

 17 16  0  0  0  0  0  0  0  0999 V2000
   -0.6657    2.5486    0.0244 C   0  0  0  0  0  0  0  0  0  0  0  0
   -0.2805    3.9111    0.0138 C   0  0  0  0  0  0  0  0  0  0  0  0
   -1.3677    4.6301    0.3265 C   0  0  0  0  0  0  0  0  0  0  0  0
   -2.5290    4.5372    0.9943 C   0  0  0  0  0  0  0  0  0  0  0  0
   -2.8481    3.1632    0.9914 C   0  0  0  0  0  0  0  0  0  0  0  0
   -1.9325    2.1743    0.5340 C   0  0  0  0  0  0  0  0  0  0  0  0
    0.0401    1.8256   -0.3682 H   0  0  0  0  0  0  0  0  0  0  0  0
    0.7023    4.2649   -0.2765 H   0  0  0  0  0  0  0  0  0  0  0  0
   -3.2095    5.3181    1.3132 H   0  0  0  0  0  0  0  0  0  0  0  0
   -3.8522    2.8673    1.2838 H   0  0  0  0  0  0  0  0  0  0  0  0
   -3.5425  -10.7747   -0.5623 N   0  0  0  0  0  0  0  0  0  0  0  0
   -3.8456  -11.8345   -0.6435 N   0  0  0  0  0  0  0  0  0  0  0  0
   -2.3742    0.9269    0.6180 O   0  0  0  0  0  0  0  0  0  0  0  0
   -1.5222   -0.1747    0.2411 C   0  0  0  0  0  0  0  0  0  0  0  0
   -2.1228   -1.0677    0.4027 H   0  0  0  0  0  0  0  0  0  0  0  0
   -0.6307   -0.2040    0.8734 H   0  0  0  0  0  0  0  0  0  0  0  0
   -1.2488   -0.0985   -0.8164 H   0  0  0  0  0  0  0  0  0  0  0  0
  1  6  1  0  0  0  0
  2  1  2  0  0  0  0
  2  3  1  0  0  0  0
  3  4  2  0  0  0  0
  4  9  1  0  0  0  0
  5  4  1  0  0  0  0
  5 10  1  0  0  0  0
  6 13  1  0  0  0  0
  6  5  2  0  0  0  0
  7  1  1  0  0  0  0
  8  2  1  0  0  0  0
 12 11  3  0  0  0  0
 14 15  1  0  0  0  0
 14 13  1  0  0  0  0
 14 16  1  0  0  0  0
 17 14  1  0  0  0  0
M  RAD  1   3   2
M  END
