Coordinates from ORCA-job 4-MeO-Ph-N2+-B3LYPG-6-31G_dp-MTMO-d009-169-n900
 OpenBabel09051907383D

 17 16  0  0  0  0  0  0  0  0999 V2000
   -0.6654    2.5506    0.0245 C   0  0  0  0  0  0  0  0  0  0  0  0
   -0.2802    3.9130    0.0137 C   0  0  0  0  0  0  0  0  0  0  0  0
   -1.3673    4.6322    0.3264 C   0  0  0  0  0  0  0  0  0  0  0  0
   -2.5286    4.5394    0.9943 C   0  0  0  0  0  0  0  0  0  0  0  0
   -2.8478    3.1654    0.9916 C   0  0  0  0  0  0  0  0  0  0  0  0
   -1.9322    2.1764    0.5342 C   0  0  0  0  0  0  0  0  0  0  0  0
    0.0403    1.8275   -0.3680 H   0  0  0  0  0  0  0  0  0  0  0  0
    0.7027    4.2667   -0.2767 H   0  0  0  0  0  0  0  0  0  0  0  0
   -3.2090    5.3203    1.3131 H   0  0  0  0  0  0  0  0  0  0  0  0
   -3.8518    2.8696    1.2841 H   0  0  0  0  0  0  0  0  0  0  0  0
   -3.5447  -10.7902   -0.5637 N   0  0  0  0  0  0  0  0  0  0  0  0
   -3.8479  -11.8499   -0.6450 N   0  0  0  0  0  0  0  0  0  0  0  0
   -2.3740    0.9290    0.6185 O   0  0  0  0  0  0  0  0  0  0  0  0
   -1.5219   -0.1726    0.2415 C   0  0  0  0  0  0  0  0  0  0  0  0
   -2.1226   -1.0656    0.4031 H   0  0  0  0  0  0  0  0  0  0  0  0
   -0.6305   -0.2019    0.8739 H   0  0  0  0  0  0  0  0  0  0  0  0
   -1.2486   -0.0964   -0.8159 H   0  0  0  0  0  0  0  0  0  0  0  0
  1  6  1  0  0  0  0
  2  1  2  0  0  0  0
  2  3  1  0  0  0  0
  3  4  2  0  0  0  0
  4  9  1  0  0  0  0
  5  4  1  0  0  0  0
  5 10  1  0  0  0  0
  6 13  1  0  0  0  0
  6  5  2  0  0  0  0
  7  1  1  0  0  0  0
  8  2  1  0  0  0  0
 12 11  3  0  0  0  0
 14 15  1  0  0  0  0
 14 13  1  0  0  0  0
 14 16  1  0  0  0  0
 17 14  1  0  0  0  0
M  RAD  1   3   2
M  END
