Coordinates from ORCA-job 4-MeO-Ph-N2+-B3LYPG-6-31G_dp-MTMO-d009-169-n900
 OpenBabel09051907383D

 17 16  0  0  0  0  0  0  0  0999 V2000
   -1.0713    1.2599   -0.0077 C   0  0  0  0  0  0  0  0  0  0  0  0
   -0.2617    2.4180   -0.0911 C   0  0  0  0  0  0  0  0  0  0  0  0
   -1.0429    3.4675    0.2035 C   0  0  0  0  0  0  0  0  0  0  0  0
   -2.1466    3.7856    0.9005 C   0  0  0  0  0  0  0  0  0  0  0  0
   -2.8990    2.5951    0.9699 C   0  0  0  0  0  0  0  0  0  0  0  0
   -2.3733    1.3429    0.5433 C   0  0  0  0  0  0  0  0  0  0  0  0
   -0.6573    0.3300   -0.3814 H   0  0  0  0  0  0  0  0  0  0  0  0
    0.7718    2.4173   -0.4187 H   0  0  0  0  0  0  0  0  0  0  0  0
   -2.5208    4.7584    1.1965 H   0  0  0  0  0  0  0  0  0  0  0  0
   -3.9339    2.6567    1.2956 H   0  0  0  0  0  0  0  0  0  0  0  0
   -0.7711   -3.6228   -0.4882 N   0  0  0  0  0  0  0  0  0  0  0  0
   -0.3709   -4.6342   -0.6829 N   0  0  0  0  0  0  0  0  0  0  0  0
   -3.1942    0.3138    0.6950 O   0  0  0  0  0  0  0  0  0  0  0  0
   -2.7538   -1.0201    0.3614 C   0  0  0  0  0  0  0  0  0  0  0  0
   -3.6049   -1.6636    0.5754 H   0  0  0  0  0  0  0  0  0  0  0  0
   -1.9005   -1.3092    0.9794 H   0  0  0  0  0  0  0  0  0  0  0  0
   -2.4991   -1.0820   -0.7008 H   0  0  0  0  0  0  0  0  0  0  0  0
  1  6  1  0  0  0  0
  2  1  2  0  0  0  0
  2  3  1  0  0  0  0
  3  4  2  0  0  0  0
  4  5  1  0  0  0  0
  4  9  1  0  0  0  0
  5 10  1  0  0  0  0
  6 13  1  0  0  0  0
  6  5  2  0  0  0  0
  7  1  1  0  0  0  0
  8  2  1  0  0  0  0
 12 11  3  0  0  0  0
 14 15  1  0  0  0  0
 14 13  1  0  0  0  0
 14 16  1  0  0  0  0
 17 14  1  0  0  0  0
M  RAD  1   3   2
M  END
