Coordinates from ORCA-job 4-MeO-Ph-N2+-B3LYPG-6-31G_dp-MTMO-d009-169-n900
 OpenBabel09051907383D

 17 16  0  0  0  0  0  0  0  0999 V2000
   -1.8796    0.1459    0.1521 C   0  0  0  0  0  0  0  0  0  0  0  0
   -0.5299    0.4490   -0.1571 C   0  0  0  0  0  0  0  0  0  0  0  0
   -0.4103    1.7805   -0.1132 C   0  0  0  0  0  0  0  0  0  0  0  0
   -0.9561    2.8714    0.4476 C   0  0  0  0  0  0  0  0  0  0  0  0
   -2.2828    2.5006    0.7529 C   0  0  0  0  0  0  0  0  0  0  0  0
   -2.7432    1.1602    0.6285 C   0  0  0  0  0  0  0  0  0  0  0  0
   -2.2059   -0.8782    0.0113 H   0  0  0  0  0  0  0  0  0  0  0  0
    0.2261   -0.2771   -0.4394 H   0  0  0  0  0  0  0  0  0  0  0  0
   -0.5801    3.8858    0.5051 H   0  0  0  0  0  0  0  0  0  0  0  0
   -2.9859    3.2842    1.0228 H   0  0  0  0  0  0  0  0  0  0  0  0
    2.4628   -0.6303   -1.1455 N   0  0  0  0  0  0  0  0  0  0  0  0
    3.4684   -0.9128   -1.5048 N   0  0  0  0  0  0  0  0  0  0  0  0
   -4.0103    0.9733    0.9767 O   0  0  0  0  0  0  0  0  0  0  0  0
   -4.5811   -0.3503    0.9531 C   0  0  0  0  0  0  0  0  0  0  0  0
   -5.6110   -0.2237    1.2807 H   0  0  0  0  0  0  0  0  0  0  0  0
   -4.0482   -1.0104    1.6433 H   0  0  0  0  0  0  0  0  0  0  0  0
   -4.5625   -0.7547   -0.0643 H   0  0  0  0  0  0  0  0  0  0  0  0
  1  6  2  0  0  0  0
  2  3  2  0  0  0  0
  2  1  1  0  0  0  0
  3  4  1  0  0  0  0
  4  9  1  0  0  0  0
  4  5  2  0  0  0  0
  5 10  1  0  0  0  0
  6  5  1  0  0  0  0
  6 13  1  0  0  0  0
  7  1  1  0  0  0  0
  8  2  1  0  0  0  0
 12 11  3  0  0  0  0
 14 13  1  0  0  0  0
 14 15  1  0  0  0  0
 14 16  1  0  0  0  0
 17 14  1  0  0  0  0
M  RAD  1   3   2
M  END
