Coordinates from ORCA-job 4-MeO-Ph-N2+-B3LYPG-6-31G_dp-MTMO-d009-169-n900
 OpenBabel09051907383D

 17 16  0  0  0  0  0  0  0  0999 V2000
   -1.6412    0.6356    0.1130 C   0  0  0  0  0  0  0  0  0  0  0  0
   -0.4137    1.2999   -0.1330 C   0  0  0  0  0  0  0  0  0  0  0  0
   -0.6457    2.6098    0.0251 C   0  0  0  0  0  0  0  0  0  0  0  0
   -1.4598    3.4629    0.6683 C   0  0  0  0  0  0  0  0  0  0  0  0
   -2.6479    2.7409    0.9041 C   0  0  0  0  0  0  0  0  0  0  0  0
   -2.7422    1.3440    0.6515 C   0  0  0  0  0  0  0  0  0  0  0  0
   -1.6933   -0.4184   -0.1362 H   0  0  0  0  0  0  0  0  0  0  0  0
    0.4889    0.8003   -0.4679 H   0  0  0  0  0  0  0  0  0  0  0  0
   -1.3526    4.5286    0.8343 H   0  0  0  0  0  0  0  0  0  0  0  0
   -3.5288    3.2879    1.2298 H   0  0  0  0  0  0  0  0  0  0  0  0
    2.1864   -2.3598   -1.2733 N   0  0  0  0  0  0  0  0  0  0  0  0
    2.8224   -3.2216   -1.5455 N   0  0  0  0  0  0  0  0  0  0  0  0
   -3.9166    0.8027    0.9460 O   0  0  0  0  0  0  0  0  0  0  0  0
   -4.1178   -0.6184    0.8048 C   0  0  0  0  0  0  0  0  0  0  0  0
   -5.1472   -0.7931    1.1104 H   0  0  0  0  0  0  0  0  0  0  0  0
   -3.4353   -1.1689    1.4581 H   0  0  0  0  0  0  0  0  0  0  0  0
   -3.9851   -0.9190   -0.2397 H   0  0  0  0  0  0  0  0  0  0  0  0
  1  6  2  0  0  0  0
  2  3  2  0  0  0  0
  2  1  1  0  0  0  0
  3  4  1  0  0  0  0
  4  9  1  0  0  0  0
  4  5  2  0  0  0  0
  5 10  1  0  0  0  0
  6  5  1  0  0  0  0
  6 13  1  0  0  0  0
  7  1  1  0  0  0  0
  8  2  1  0  0  0  0
 12 11  3  0  0  0  0
 14 13  1  0  0  0  0
 14 15  1  0  0  0  0
 14 16  1  0  0  0  0
 17 14  1  0  0  0  0
M  RAD  1   3   2
M  END
