Coordinates from ORCA-job 4-MeO-Ph-N2+-B3LYPG-6-31G_dp-MTMO-d009-169-n900
 OpenBabel09051907383D

 17 16  0  0  0  0  0  0  0  0999 V2000
   -0.6962    2.3495    0.0112 C   0  0  0  0  0  0  0  0  0  0  0  0
   -0.3005    3.7090    0.0065 C   0  0  0  0  0  0  0  0  0  0  0  0
   -1.3824    4.4352    0.3209 C   0  0  0  0  0  0  0  0  0  0  0  0
   -2.5452    4.3485    0.9870 C   0  0  0  0  0  0  0  0  0  0  0  0
   -2.8750    2.9771    0.9782 C   0  0  0  0  0  0  0  0  0  0  0  0
   -1.9665    1.9829    0.5178 C   0  0  0  0  0  0  0  0  0  0  0  0
    0.0044    1.6226   -0.3835 H   0  0  0  0  0  0  0  0  0  0  0  0
    0.6854    4.0564   -0.2814 H   0  0  0  0  0  0  0  0  0  0  0  0
   -3.2199    5.1334    1.3084 H   0  0  0  0  0  0  0  0  0  0  0  0
   -3.8816    2.6878    1.2683 H   0  0  0  0  0  0  0  0  0  0  0  0
   -3.3137   -9.3184   -0.4524 N   0  0  0  0  0  0  0  0  0  0  0  0
   -3.5822  -10.3881   -0.5249 N   0  0  0  0  0  0  0  0  0  0  0  0
   -2.4180    0.7387    0.5963 O   0  0  0  0  0  0  0  0  0  0  0  0
   -1.5740   -0.3680    0.2159 C   0  0  0  0  0  0  0  0  0  0  0  0
   -2.1817   -1.2570    0.3733 H   0  0  0  0  0  0  0  0  0  0  0  0
   -0.6835   -0.4066    0.8492 H   0  0  0  0  0  0  0  0  0  0  0  0
   -1.2989   -0.2897   -0.8409 H   0  0  0  0  0  0  0  0  0  0  0  0
  1  6  1  0  0  0  0
  2  1  2  0  0  0  0
  2  3  1  0  0  0  0
  3  4  2  0  0  0  0
  4  9  1  0  0  0  0
  5  4  1  0  0  0  0
  5 10  1  0  0  0  0
  6 13  1  0  0  0  0
  6  5  2  0  0  0  0
  7  1  1  0  0  0  0
  8  2  1  0  0  0  0
 12 11  3  0  0  0  0
 14 15  1  0  0  0  0
 14 13  1  0  0  0  0
 14 16  1  0  0  0  0
 17 14  1  0  0  0  0
M  RAD  1   3   2
M  END
