Coordinates from ORCA-job 4-MeO-Ph-N2+-B3LYPG-6-31G_dp-MTMO-d009-169-n900
 OpenBabel09051907383D

 17 16  0  0  0  0  0  0  0  0999 V2000
   -2.1912   -0.1925    0.1347 C   0  0  0  0  0  0  0  0  0  0  0  0
   -0.8414   -0.2471   -0.2962 C   0  0  0  0  0  0  0  0  0  0  0  0
   -0.4012    1.0153   -0.3404 C   0  0  0  0  0  0  0  0  0  0  0  0
   -0.6272    2.2338    0.1736 C   0  0  0  0  0  0  0  0  0  0  0  0
   -1.9713    2.2144    0.6021 C   0  0  0  0  0  0  0  0  0  0  0  0
   -2.7453    1.0221    0.6030 C   0  0  0  0  0  0  0  0  0  0  0  0
   -2.7661   -1.1104    0.0789 H   0  0  0  0  0  0  0  0  0  0  0  0
   -0.3310   -1.1554   -0.5944 H   0  0  0  0  0  0  0  0  0  0  0  0
   -0.0099    3.1235    0.1421 H   0  0  0  0  0  0  0  0  0  0  0  0
   -2.4358    3.1562    0.8814 H   0  0  0  0  0  0  0  0  0  0  0  0
    3.0450    0.7867   -1.0004 N   0  0  0  0  0  0  0  0  0  0  0  0
    4.1204    0.7385   -1.2495 N   0  0  0  0  0  0  0  0  0  0  0  0
   -3.9866    1.1629    1.0524 O   0  0  0  0  0  0  0  0  0  0  0  0
   -4.8509    0.0152    1.1649 C   0  0  0  0  0  0  0  0  0  0  0  0
   -5.7908    0.4014    1.5539 H   0  0  0  0  0  0  0  0  0  0  0  0
   -4.4307   -0.7154    1.8625 H   0  0  0  0  0  0  0  0  0  0  0  0
   -5.0156   -0.4360    0.1811 H   0  0  0  0  0  0  0  0  0  0  0  0
  1  6  2  0  0  0  0
  2  1  1  0  0  0  0
  3  2  2  0  0  0  0
  3  4  1  0  0  0  0
  4  5  2  0  0  0  0
  5  6  1  0  0  0  0
  5 10  1  0  0  0  0
  6 13  1  0  0  0  0
  7  1  1  0  0  0  0
  8  2  1  0  0  0  0
  9  4  1  0  0  0  0
 12 11  3  0  0  0  0
 13 14  1  0  0  0  0
 14 15  1  0  0  0  0
 14 16  1  0  0  0  0
 17 14  1  0  0  0  0
M  RAD  1   3   2
M  END
