Coordinates from ORCA-job 4-MeO-Ph-N2+-B3LYPG-6-31G_dp-MTMO-d009-169-n900
 OpenBabel09051907383D

 17 16  0  0  0  0  0  0  0  0999 V2000
   -0.7364    2.0757   -0.0052 C   0  0  0  0  0  0  0  0  0  0  0  0
   -0.3311    3.4323    0.0099 C   0  0  0  0  0  0  0  0  0  0  0  0
   -1.4097    4.1622    0.3276 C   0  0  0  0  0  0  0  0  0  0  0  0
   -2.5766    4.0749    0.9866 C   0  0  0  0  0  0  0  0  0  0  0  0
   -2.9160    2.7061    0.9581 C   0  0  0  0  0  0  0  0  0  0  0  0
   -2.0119    1.7115    0.4898 C   0  0  0  0  0  0  0  0  0  0  0  0
   -0.0388    1.3491   -0.4056 H   0  0  0  0  0  0  0  0  0  0  0  0
    0.6587    3.7764   -0.2682 H   0  0  0  0  0  0  0  0  0  0  0  0
   -3.2474    4.8603    1.3147 H   0  0  0  0  0  0  0  0  0  0  0  0
   -3.9261    2.4202    1.2392 H   0  0  0  0  0  0  0  0  0  0  0  0
   -2.9954   -7.2735   -0.2729 N   0  0  0  0  0  0  0  0  0  0  0  0
   -3.2428   -8.3486   -0.3406 N   0  0  0  0  0  0  0  0  0  0  0  0
   -2.4725    0.4696    0.5498 O   0  0  0  0  0  0  0  0  0  0  0  0
   -1.6342   -0.6383    0.1601 C   0  0  0  0  0  0  0  0  0  0  0  0
   -2.2486   -1.5250    0.3038 H   0  0  0  0  0  0  0  0  0  0  0  0
   -0.7471   -0.6905    0.7971 H   0  0  0  0  0  0  0  0  0  0  0  0
   -1.3536   -0.5491   -0.8944 H   0  0  0  0  0  0  0  0  0  0  0  0
  1  2  2  0  0  0  0
  1  6  1  0  0  0  0
  2  3  1  0  0  0  0
  3  4  2  0  0  0  0
  4  9  1  0  0  0  0
  5  4  1  0  0  0  0
  5 10  1  0  0  0  0
  6 13  1  0  0  0  0
  6  5  2  0  0  0  0
  7  1  1  0  0  0  0
  8  2  1  0  0  0  0
 12 11  3  0  0  0  0
 14 15  1  0  0  0  0
 14 13  1  0  0  0  0
 14 16  1  0  0  0  0
 17 14  1  0  0  0  0
M  RAD  1   3   2
M  END
