Coordinates from ORCA-job 4-MeO-Ph-N2+-B3LYPG-6-31G_dp-MTMO-d009-169-n900
 OpenBabel09051907383D

 17 16  0  0  0  0  0  0  0  0999 V2000
   -1.6436    0.5733    0.1139 C   0  0  0  0  0  0  0  0  0  0  0  0
   -0.3974    1.2008   -0.1386 C   0  0  0  0  0  0  0  0  0  0  0  0
   -0.5965    2.5170    0.0080 C   0  0  0  0  0  0  0  0  0  0  0  0
   -1.3898    3.3991    0.6375 C   0  0  0  0  0  0  0  0  0  0  0  0
   -2.5969    2.7116    0.8804 C   0  0  0  0  0  0  0  0  0  0  0  0
   -2.7267    1.3153    0.6429 C   0  0  0  0  0  0  0  0  0  0  0  0
   -1.7231   -0.4811   -0.1261 H   0  0  0  0  0  0  0  0  0  0  0  0
    0.4896    0.6705   -0.4696 H   0  0  0  0  0  0  0  0  0  0  0  0
   -1.2532    4.4629    0.7930 H   0  0  0  0  0  0  0  0  0  0  0  0
   -3.4628    3.2848    1.2013 H   0  0  0  0  0  0  0  0  0  0  0  0
    2.0927   -2.0699   -1.2164 N   0  0  0  0  0  0  0  0  0  0  0  0
    2.7427   -2.9185   -1.4962 N   0  0  0  0  0  0  0  0  0  0  0  0
   -3.9153    0.8071    0.9413 O   0  0  0  0  0  0  0  0  0  0  0  0
   -4.1522   -0.6096    0.8136 C   0  0  0  0  0  0  0  0  0  0  0  0
   -5.1861   -0.7554    1.1196 H   0  0  0  0  0  0  0  0  0  0  0  0
   -3.4846   -1.1711    1.4729 H   0  0  0  0  0  0  0  0  0  0  0  0
   -4.0263   -0.9235   -0.2278 H   0  0  0  0  0  0  0  0  0  0  0  0
  1  6  2  0  0  0  0
  2  3  2  0  0  0  0
  2  1  1  0  0  0  0
  3  4  1  0  0  0  0
  4  9  1  0  0  0  0
  4  5  2  0  0  0  0
  5 10  1  0  0  0  0
  6  5  1  0  0  0  0
  6 13  1  0  0  0  0
  7  1  1  0  0  0  0
  8  2  1  0  0  0  0
 12 11  3  0  0  0  0
 14 13  1  0  0  0  0
 14 15  1  0  0  0  0
 14 16  1  0  0  0  0
 17 14  1  0  0  0  0
M  RAD  1   3   2
M  END
