Coordinates from ORCA-job 4-MeO-Ph-N2+-B3LYPG-6-31G_dp-MTMO-d009-169-n900
 OpenBabel09051907383D

 17 16  0  0  0  0  0  0  0  0999 V2000
   -0.7542    1.7825   -0.0271 C   0  0  0  0  0  0  0  0  0  0  0  0
   -0.4477    3.1616    0.0620 C   0  0  0  0  0  0  0  0  0  0  0  0
   -1.5819    3.7991    0.3872 C   0  0  0  0  0  0  0  0  0  0  0  0
   -2.7500    3.5949    1.0190 C   0  0  0  0  0  0  0  0  0  0  0  0
   -2.9905    2.2091    0.9184 C   0  0  0  0  0  0  0  0  0  0  0  0
   -2.0092    1.3043    0.4228 C   0  0  0  0  0  0  0  0  0  0  0  0
    0.0001    1.1278   -0.4485 H   0  0  0  0  0  0  0  0  0  0  0  0
    0.5200    3.5873   -0.1784 H   0  0  0  0  0  0  0  0  0  0  0  0
   -3.4814    4.3138    1.3694 H   0  0  0  0  0  0  0  0  0  0  0  0
   -3.9826    1.8391    1.1632 H   0  0  0  0  0  0  0  0  0  0  0  0
   -2.8975   -4.4663    0.0838 N   0  0  0  0  0  0  0  0  0  0  0  0
   -3.2744   -5.5048    0.0941 N   0  0  0  0  0  0  0  0  0  0  0  0
   -2.3796    0.0321    0.4150 O   0  0  0  0  0  0  0  0  0  0  0  0
   -1.4556   -0.9944   -0.0074 C   0  0  0  0  0  0  0  0  0  0  0  0
   -2.0026   -1.9310    0.0831 H   0  0  0  0  0  0  0  0  0  0  0  0
   -0.5773   -1.0082    0.6438 H   0  0  0  0  0  0  0  0  0  0  0  0
   -1.1648   -0.8334   -1.0507 H   0  0  0  0  0  0  0  0  0  0  0  0
  1  2  2  0  0  0  0
  1  6  1  0  0  0  0
  2  3  1  0  0  0  0
  3  4  2  0  0  0  0
  4  9  1  0  0  0  0
  5  4  1  0  0  0  0
  5 10  1  0  0  0  0
  6  5  2  0  0  0  0
  7  1  1  0  0  0  0
  8  2  1  0  0  0  0
 11 12  3  0  0  0  0
 13  6  1  0  0  0  0
 14 15  1  0  0  0  0
 14 13  1  0  0  0  0
 14 16  1  0  0  0  0
 17 14  1  0  0  0  0
M  RAD  1   3   2
M  END
