Coordinates from ORCA-job 4-MeO-Ph-N2+-B3LYPG-6-31G_dp-MTMO-d009-169-n900
 OpenBabel09051907383D

 17 16  0  0  0  0  0  0  0  0999 V2000
   -1.0999    1.2033    0.0024 C   0  0  0  0  0  0  0  0  0  0  0  0
   -0.2554    2.3351   -0.0941 C   0  0  0  0  0  0  0  0  0  0  0  0
   -1.0030    3.4127    0.1869 C   0  0  0  0  0  0  0  0  0  0  0  0
   -2.0962    3.7736    0.8795 C   0  0  0  0  0  0  0  0  0  0  0  0
   -2.8849    2.6076    0.9622 C   0  0  0  0  0  0  0  0  0  0  0  0
   -2.3988    1.3343    0.5512 C   0  0  0  0  0  0  0  0  0  0  0  0
   -0.7142    0.2558   -0.3574 H   0  0  0  0  0  0  0  0  0  0  0  0
    0.7783    2.2985   -0.4190 H   0  0  0  0  0  0  0  0  0  0  0  0
   -2.4413    4.7610    1.1623 H   0  0  0  0  0  0  0  0  0  0  0  0
   -3.9180    2.7056    1.2846 H   0  0  0  0  0  0  0  0  0  0  0  0
   -0.5899   -3.4701   -0.5399 N   0  0  0  0  0  0  0  0  0  0  0  0
   -0.1540   -4.4643   -0.7466 N   0  0  0  0  0  0  0  0  0  0  0  0
   -3.2522    0.3338    0.7148 O   0  0  0  0  0  0  0  0  0  0  0  0
   -2.8561   -1.0173    0.3956 C   0  0  0  0  0  0  0  0  0  0  0  0
   -3.7282   -1.6296    0.6164 H   0  0  0  0  0  0  0  0  0  0  0  0
   -2.0123   -1.3276    1.0167 H   0  0  0  0  0  0  0  0  0  0  0  0
   -2.6033   -1.0991   -0.6658 H   0  0  0  0  0  0  0  0  0  0  0  0
  1  6  1  0  0  0  0
  2  1  2  0  0  0  0
  2  3  1  0  0  0  0
  3  4  2  0  0  0  0
  4  5  1  0  0  0  0
  4  9  1  0  0  0  0
  5 10  1  0  0  0  0
  6 13  1  0  0  0  0
  6  5  2  0  0  0  0
  7  1  1  0  0  0  0
  8  2  1  0  0  0  0
 12 11  3  0  0  0  0
 14 15  1  0  0  0  0
 14 13  1  0  0  0  0
 14 16  1  0  0  0  0
 17 14  1  0  0  0  0
M  RAD  1   3   2
M  END
