Coordinates from ORCA-job 4-MeO-Ph-N2+-B3LYPG-6-31G_dp-MTMO-d009-169-n900
 OpenBabel09051907383D

 17 16  0  0  0  0  0  0  0  0999 V2000
   -2.0494   -0.2062    0.1838 C   0  0  0  0  0  0  0  0  0  0  0  0
   -0.6987   -0.2906   -0.2429 C   0  0  0  0  0  0  0  0  0  0  0  0
   -0.1773    0.9398   -0.1742 C   0  0  0  0  0  0  0  0  0  0  0  0
   -0.4879    2.2044    0.1615 C   0  0  0  0  0  0  0  0  0  0  0  0
   -1.8352    2.2049    0.5722 C   0  0  0  0  0  0  0  0  0  0  0  0
   -2.6142    1.0225    0.5874 C   0  0  0  0  0  0  0  0  0  0  0  0
   -2.6168   -1.1299    0.1806 H   0  0  0  0  0  0  0  0  0  0  0  0
   -0.2243   -1.2096   -0.5597 H   0  0  0  0  0  0  0  0  0  0  0  0
    0.1378    3.0865    0.1358 H   0  0  0  0  0  0  0  0  0  0  0  0
   -2.2792    3.1457    0.8833 H   0  0  0  0  0  0  0  0  0  0  0  0
    2.0754    0.8597   -0.8711 N   0  0  0  0  0  0  0  0  0  0  0  0
    3.1293    0.8238   -1.1985 N   0  0  0  0  0  0  0  0  0  0  0  0
   -3.8724    1.1797    0.9991 O   0  0  0  0  0  0  0  0  0  0  0  0
   -4.7530    0.0446    1.0564 C   0  0  0  0  0  0  0  0  0  0  0  0
   -5.7042    0.4353    1.4127 H   0  0  0  0  0  0  0  0  0  0  0  0
   -4.3751   -0.7034    1.7613 H   0  0  0  0  0  0  0  0  0  0  0  0
   -4.8843   -0.3938    0.0619 H   0  0  0  0  0  0  0  0  0  0  0  0
  1  6  2  0  0  0  0
  2  3  2  0  0  0  0
  2  1  1  0  0  0  0
  3  4  1  0  0  0  0
  4  5  2  0  0  0  0
  5  6  1  0  0  0  0
  5 10  1  0  0  0  0
  6 13  1  0  0  0  0
  7  1  1  0  0  0  0
  8  2  1  0  0  0  0
  9  4  1  0  0  0  0
 12 11  3  0  0  0  0
 13 14  1  0  0  0  0
 14 15  1  0  0  0  0
 14 16  1  0  0  0  0
 17 14  1  0  0  0  0
M  RAD  1   3   2
M  END
