Coordinates from ORCA-job 4-MeO-Ph-N2+-B3LYPG-6-31G_dp-MTMO-d009-169-n900
 OpenBabel09051907383D

 17 16  0  0  0  0  0  0  0  0999 V2000
   -0.7055    2.2883    0.0074 C   0  0  0  0  0  0  0  0  0  0  0  0
   -0.3065    3.6468    0.0057 C   0  0  0  0  0  0  0  0  0  0  0  0
   -1.3868    4.3750    0.3207 C   0  0  0  0  0  0  0  0  0  0  0  0
   -2.5504    4.2898    0.9858 C   0  0  0  0  0  0  0  0  0  0  0  0
   -2.8834    2.9192    0.9740 C   0  0  0  0  0  0  0  0  0  0  0  0
   -1.9770    1.9238    0.5123 C   0  0  0  0  0  0  0  0  0  0  0  0
   -0.0064    1.5605   -0.3883 H   0  0  0  0  0  0  0  0  0  0  0  0
    0.6805    3.9924   -0.2808 H   0  0  0  0  0  0  0  0  0  0  0  0
   -3.2233    5.0757    1.3083 H   0  0  0  0  0  0  0  0  0  0  0  0
   -3.8910    2.6318    1.2628 H   0  0  0  0  0  0  0  0  0  0  0  0
   -3.2411   -8.8694   -0.4160 N   0  0  0  0  0  0  0  0  0  0  0  0
   -3.5030   -9.9408   -0.4870 N   0  0  0  0  0  0  0  0  0  0  0  0
   -2.4316    0.6805    0.5880 O   0  0  0  0  0  0  0  0  0  0  0  0
   -1.5900   -0.4275    0.2061 C   0  0  0  0  0  0  0  0  0  0  0  0
   -2.1999   -1.3153    0.3613 H   0  0  0  0  0  0  0  0  0  0  0  0
   -0.7001   -0.4694    0.8398 H   0  0  0  0  0  0  0  0  0  0  0  0
   -1.3140   -0.3479   -0.8504 H   0  0  0  0  0  0  0  0  0  0  0  0
  1  6  1  0  0  0  0
  2  1  2  0  0  0  0
  2  3  1  0  0  0  0
  3  4  2  0  0  0  0
  4  9  1  0  0  0  0
  5  4  1  0  0  0  0
  5 10  1  0  0  0  0
  6 13  1  0  0  0  0
  6  5  2  0  0  0  0
  7  1  1  0  0  0  0
  8  2  1  0  0  0  0
 12 11  3  0  0  0  0
 14 15  1  0  0  0  0
 14 13  1  0  0  0  0
 14 16  1  0  0  0  0
 17 14  1  0  0  0  0
M  RAD  1   3   2
M  END
