Coordinates from ORCA-job 4-MeO-Ph-N2+-B3LYPG-6-31G_dp-MTMO-d009-169-n900
 OpenBabel09051907383D

 17 16  0  0  0  0  0  0  0  0999 V2000
   -1.0976    1.2082    0.0015 C   0  0  0  0  0  0  0  0  0  0  0  0
   -0.2559    2.3422   -0.0939 C   0  0  0  0  0  0  0  0  0  0  0  0
   -1.0063    3.4175    0.1884 C   0  0  0  0  0  0  0  0  0  0  0  0
   -2.1004    3.7749    0.8814 C   0  0  0  0  0  0  0  0  0  0  0  0
   -2.8861    2.6068    0.9630 C   0  0  0  0  0  0  0  0  0  0  0  0
   -2.3968    1.3352    0.5506 C   0  0  0  0  0  0  0  0  0  0  0  0
   -0.7096    0.2622   -0.3595 H   0  0  0  0  0  0  0  0  0  0  0  0
    0.7778    2.3086   -0.4191 H   0  0  0  0  0  0  0  0  0  0  0  0
   -2.4479    4.7611    1.1654 H   0  0  0  0  0  0  0  0  0  0  0  0
   -3.9194    2.7018    1.2858 H   0  0  0  0  0  0  0  0  0  0  0  0
   -0.6043   -3.4842   -0.5356 N   0  0  0  0  0  0  0  0  0  0  0  0
   -0.1714   -4.4799   -0.7414 N   0  0  0  0  0  0  0  0  0  0  0  0
   -3.2476    0.3323    0.7132 O   0  0  0  0  0  0  0  0  0  0  0  0
   -2.8478   -1.0174    0.3926 C   0  0  0  0  0  0  0  0  0  0  0  0
   -3.7182   -1.6323    0.6129 H   0  0  0  0  0  0  0  0  0  0  0  0
   -2.0032   -1.3260    1.0134 H   0  0  0  0  0  0  0  0  0  0  0  0
   -2.5948   -1.0975   -0.6689 H   0  0  0  0  0  0  0  0  0  0  0  0
  1  6  1  0  0  0  0
  2  1  2  0  0  0  0
  2  3  1  0  0  0  0
  3  4  2  0  0  0  0
  4  5  1  0  0  0  0
  4  9  1  0  0  0  0
  5 10  1  0  0  0  0
  6 13  1  0  0  0  0
  6  5  2  0  0  0  0
  7  1  1  0  0  0  0
  8  2  1  0  0  0  0
 12 11  3  0  0  0  0
 14 15  1  0  0  0  0
 14 13  1  0  0  0  0
 14 16  1  0  0  0  0
 17 14  1  0  0  0  0
M  RAD  1   3   2
M  END
