Coordinates from ORCA-job 4-MeO-Ph-N2+-B3LYPG-6-31G_dp-MTMO-d009-169-n900
 OpenBabel09051907383D

 17 16  0  0  0  0  0  0  0  0999 V2000
   -0.6445    2.6861    0.0340 C   0  0  0  0  0  0  0  0  0  0  0  0
   -0.2655    4.0503    0.0211 C   0  0  0  0  0  0  0  0  0  0  0  0
   -1.3558    4.7648    0.3330 C   0  0  0  0  0  0  0  0  0  0  0  0
   -2.5167    4.6677    1.0011 C   0  0  0  0  0  0  0  0  0  0  0  0
   -2.8295    3.2923    1.0005 C   0  0  0  0  0  0  0  0  0  0  0  0
   -1.9094    2.3068    0.5445 C   0  0  0  0  0  0  0  0  0  0  0  0
    0.0645    1.9656   -0.3576 H   0  0  0  0  0  0  0  0  0  0  0  0
    0.7157    4.4081   -0.2701 H   0  0  0  0  0  0  0  0  0  0  0  0
   -3.2006    5.4460    1.3188 H   0  0  0  0  0  0  0  0  0  0  0  0
   -3.8321    2.9922    1.2936 H   0  0  0  0  0  0  0  0  0  0  0  0
   -3.7019  -11.7813   -0.6381 N   0  0  0  0  0  0  0  0  0  0  0  0
   -4.0229  -12.8357   -0.7211 N   0  0  0  0  0  0  0  0  0  0  0  0
   -2.3454    1.0575    0.6307 O   0  0  0  0  0  0  0  0  0  0  0  0
   -1.4883   -0.0408    0.2554 C   0  0  0  0  0  0  0  0  0  0  0  0
   -2.0848   -0.9362    0.4187 H   0  0  0  0  0  0  0  0  0  0  0  0
   -0.5966   -0.0649    0.8876 H   0  0  0  0  0  0  0  0  0  0  0  0
   -1.2156    0.0349   -0.8023 H   0  0  0  0  0  0  0  0  0  0  0  0
  1  6  1  0  0  0  0
  2  1  2  0  0  0  0
  2  3  1  0  0  0  0
  3  4  2  0  0  0  0
  4  9  1  0  0  0  0
  5  4  1  0  0  0  0
  5 10  1  0  0  0  0
  6 13  1  0  0  0  0
  6  5  2  0  0  0  0
  7  1  1  0  0  0  0
  8  2  1  0  0  0  0
 12 11  3  0  0  0  0
 14 15  1  0  0  0  0
 14 13  1  0  0  0  0
 14 16  1  0  0  0  0
 17 14  1  0  0  0  0
M  RAD  1   3   2
M  END
