Coordinates from ORCA-job 4-MeO-Ph-N2+-B3LYPG-6-31G_dp-MTMO-d009-169-n900
 OpenBabel09051907383D

 17 16  0  0  0  0  0  0  0  0999 V2000
   -0.7355    2.0817   -0.0048 C   0  0  0  0  0  0  0  0  0  0  0  0
   -0.3302    3.4383    0.0097 C   0  0  0  0  0  0  0  0  0  0  0  0
   -1.4087    4.1684    0.3272 C   0  0  0  0  0  0  0  0  0  0  0  0
   -2.5755    4.0814    0.9865 C   0  0  0  0  0  0  0  0  0  0  0  0
   -2.9149    2.7126    0.9586 C   0  0  0  0  0  0  0  0  0  0  0  0
   -2.0110    1.7178    0.4905 C   0  0  0  0  0  0  0  0  0  0  0  0
   -0.0381    1.3549   -0.4051 H   0  0  0  0  0  0  0  0  0  0  0  0
    0.6595    3.7822   -0.2689 H   0  0  0  0  0  0  0  0  0  0  0  0
   -3.2462    4.8669    1.3143 H   0  0  0  0  0  0  0  0  0  0  0  0
   -3.9250    2.4269    1.2400 H   0  0  0  0  0  0  0  0  0  0  0  0
   -3.0019   -7.3201   -0.2774 N   0  0  0  0  0  0  0  0  0  0  0  0
   -3.2495   -8.3951   -0.3452 N   0  0  0  0  0  0  0  0  0  0  0  0
   -2.4717    0.4759    0.5512 O   0  0  0  0  0  0  0  0  0  0  0  0
   -1.6336   -0.6322    0.1617 C   0  0  0  0  0  0  0  0  0  0  0  0
   -2.2480   -1.5187    0.3058 H   0  0  0  0  0  0  0  0  0  0  0  0
   -0.7464   -0.6842    0.7986 H   0  0  0  0  0  0  0  0  0  0  0  0
   -1.3530   -0.5434   -0.8929 H   0  0  0  0  0  0  0  0  0  0  0  0
  1  2  2  0  0  0  0
  1  6  1  0  0  0  0
  2  3  1  0  0  0  0
  3  4  2  0  0  0  0
  4  9  1  0  0  0  0
  5  4  1  0  0  0  0
  5 10  1  0  0  0  0
  6 13  1  0  0  0  0
  6  5  2  0  0  0  0
  7  1  1  0  0  0  0
  8  2  1  0  0  0  0
 12 11  3  0  0  0  0
 14 15  1  0  0  0  0
 14 13  1  0  0  0  0
 14 16  1  0  0  0  0
 17 14  1  0  0  0  0
M  RAD  1   3   2
M  END
