Coordinates from ORCA-job 4-MeO-Ph-N2+-B3LYPG-6-31G_dp-MTMO-d009-169-n900
 OpenBabel09051907383D

 17 16  0  0  0  0  0  0  0  0999 V2000
   -0.7400    2.0481   -0.0068 C   0  0  0  0  0  0  0  0  0  0  0  0
   -0.3356    3.4048    0.0114 C   0  0  0  0  0  0  0  0  0  0  0  0
   -1.4149    4.1335    0.3294 C   0  0  0  0  0  0  0  0  0  0  0  0
   -2.5823    4.0442    0.9873 C   0  0  0  0  0  0  0  0  0  0  0  0
   -2.9209    2.6753    0.9558 C   0  0  0  0  0  0  0  0  0  0  0  0
   -2.0158    1.6821    0.4863 C   0  0  0  0  0  0  0  0  0  0  0  0
   -0.0417    1.3226   -0.4080 H   0  0  0  0  0  0  0  0  0  0  0  0
    0.6542    3.7500   -0.2652 H   0  0  0  0  0  0  0  0  0  0  0  0
   -3.2539    4.8285    1.3163 H   0  0  0  0  0  0  0  0  0  0  0  0
   -3.9311    2.3882    1.2353 H   0  0  0  0  0  0  0  0  0  0  0  0
   -2.9667   -7.0561   -0.2513 N   0  0  0  0  0  0  0  0  0  0  0  0
   -3.2130   -8.1314   -0.3186 N   0  0  0  0  0  0  0  0  0  0  0  0
   -2.4757    0.4398    0.5435 O   0  0  0  0  0  0  0  0  0  0  0  0
   -1.6365   -0.6669    0.1523 C   0  0  0  0  0  0  0  0  0  0  0  0
   -2.2505   -1.5542    0.2939 H   0  0  0  0  0  0  0  0  0  0  0  0
   -0.7499   -0.7196    0.7899 H   0  0  0  0  0  0  0  0  0  0  0  0
   -1.3551   -0.5756   -0.9018 H   0  0  0  0  0  0  0  0  0  0  0  0
  1  2  2  0  0  0  0
  1  6  1  0  0  0  0
  2  3  1  0  0  0  0
  3  4  2  0  0  0  0
  4  9  1  0  0  0  0
  5  4  1  0  0  0  0
  5 10  1  0  0  0  0
  6 13  1  0  0  0  0
  6  5  2  0  0  0  0
  7  1  1  0  0  0  0
  8  2  1  0  0  0  0
 12 11  3  0  0  0  0
 14 15  1  0  0  0  0
 14 13  1  0  0  0  0
 14 16  1  0  0  0  0
 17 14  1  0  0  0  0
M  RAD  1   3   2
M  END
