Coordinates from ORCA-job 4-MeO-Ph-N2+-B3LYPG-6-31G_dp-MTMO-d009-169-n900
 OpenBabel09051907383D

 17 16  0  0  0  0  0  0  0  0999 V2000
   -0.7606    1.8391   -0.0191 C   0  0  0  0  0  0  0  0  0  0  0  0
   -0.3918    3.2044    0.0457 C   0  0  0  0  0  0  0  0  0  0  0  0
   -1.4933    3.8983    0.3679 C   0  0  0  0  0  0  0  0  0  0  0  0
   -2.6656    3.7576    1.0089 C   0  0  0  0  0  0  0  0  0  0  0  0
   -2.9689    2.3824    0.9316 C   0  0  0  0  0  0  0  0  0  0  0  0
   -2.0330    1.4259    0.4454 C   0  0  0  0  0  0  0  0  0  0  0  0
   -0.0386    1.1438   -0.4320 H   0  0  0  0  0  0  0  0  0  0  0  0
    0.5929    3.5819   -0.2057 H   0  0  0  0  0  0  0  0  0  0  0  0
   -3.3619    4.5141    1.3516 H   0  0  0  0  0  0  0  0  0  0  0  0
   -3.9753    2.0621    1.1878 H   0  0  0  0  0  0  0  0  0  0  0  0
   -2.8112   -5.2275   -0.0356 N   0  0  0  0  0  0  0  0  0  0  0  0
   -3.0795   -6.2991   -0.0663 N   0  0  0  0  0  0  0  0  0  0  0  0
   -2.4618    0.1716    0.4608 O   0  0  0  0  0  0  0  0  0  0  0  0
   -1.5904   -0.9037    0.0501 C   0  0  0  0  0  0  0  0  0  0  0  0
   -2.1811   -1.8114    0.1601 H   0  0  0  0  0  0  0  0  0  0  0  0
   -0.7097   -0.9502    0.6963 H   0  0  0  0  0  0  0  0  0  0  0  0
   -1.2997   -0.7758   -0.9976 H   0  0  0  0  0  0  0  0  0  0  0  0
  1  2  2  0  0  0  0
  1  6  1  0  0  0  0
  2  3  1  0  0  0  0
  3  4  2  0  0  0  0
  4  9  1  0  0  0  0
  5  4  1  0  0  0  0
  5 10  1  0  0  0  0
  6 13  1  0  0  0  0
  6  5  2  0  0  0  0
  7  1  1  0  0  0  0
  8  2  1  0  0  0  0
 12 11  3  0  0  0  0
 14 15  1  0  0  0  0
 14 13  1  0  0  0  0
 14 16  1  0  0  0  0
 17 14  1  0  0  0  0
M  RAD  1   3   2
M  END
