Coordinates from ORCA-job 4-MeO-Ph-N2+-B3LYPG-6-31G_dp-MTMO-d009-169-n900
 OpenBabel09051907383D

 17 16  0  0  0  0  0  0  0  0999 V2000
   -1.6392    0.5267    0.1149 C   0  0  0  0  0  0  0  0  0  0  0  0
   -0.3802    1.1285   -0.1407 C   0  0  0  0  0  0  0  0  0  0  0  0
   -0.5576    2.4482   -0.0036 C   0  0  0  0  0  0  0  0  0  0  0  0
   -1.3377    3.3506    0.6134 C   0  0  0  0  0  0  0  0  0  0  0  0
   -2.5573    2.6872    0.8601 C   0  0  0  0  0  0  0  0  0  0  0  0
   -2.7106    1.2915    0.6346 C   0  0  0  0  0  0  0  0  0  0  0  0
   -1.7365   -0.5280   -0.1170 H   0  0  0  0  0  0  0  0  0  0  0  0
    0.4958    0.5760   -0.4667 H   0  0  0  0  0  0  0  0  0  0  0  0
   -1.1814    4.4130    0.7605 H   0  0  0  0  0  0  0  0  0  0  0  0
   -3.4130    3.2782    1.1760 H   0  0  0  0  0  0  0  0  0  0  0  0
    1.9910   -1.8359   -1.1634 N   0  0  0  0  0  0  0  0  0  0  0  0
    2.6402   -2.6820   -1.4523 N   0  0  0  0  0  0  0  0  0  0  0  0
   -3.9087    0.8061    0.9343 O   0  0  0  0  0  0  0  0  0  0  0  0
   -4.1692   -0.6071    0.8171 C   0  0  0  0  0  0  0  0  0  0  0  0
   -5.2060   -0.7332    1.1220 H   0  0  0  0  0  0  0  0  0  0  0  0
   -3.5126   -1.1748    1.4822 H   0  0  0  0  0  0  0  0  0  0  0  0
   -4.0465   -0.9314   -0.2216 H   0  0  0  0  0  0  0  0  0  0  0  0
  1  6  2  0  0  0  0
  2  3  2  0  0  0  0
  2  1  1  0  0  0  0
  3  4  1  0  0  0  0
  4  9  1  0  0  0  0
  4  5  2  0  0  0  0
  5 10  1  0  0  0  0
  6  5  1  0  0  0  0
  6 13  1  0  0  0  0
  7  1  1  0  0  0  0
  8  2  1  0  0  0  0
 12 11  3  0  0  0  0
 14 13  1  0  0  0  0
 14 15  1  0  0  0  0
 14 16  1  0  0  0  0
 17 14  1  0  0  0  0
M  RAD  1   3   2
M  END
