Coordinates from ORCA-job 4-MeO-Ph-N2+-B3LYPG-6-31G_dp-MTMO-d009-169-n900
 OpenBabel09051907383D

 17 16  0  0  0  0  0  0  0  0999 V2000
   -0.7385    2.0599   -0.0061 C   0  0  0  0  0  0  0  0  0  0  0  0
   -0.3337    3.4165    0.0108 C   0  0  0  0  0  0  0  0  0  0  0  0
   -1.4126    4.1458    0.3286 C   0  0  0  0  0  0  0  0  0  0  0  0
   -2.5798    4.0574    0.9870 C   0  0  0  0  0  0  0  0  0  0  0  0
   -2.9188    2.6886    0.9568 C   0  0  0  0  0  0  0  0  0  0  0  0
   -2.0142    1.6947    0.4878 C   0  0  0  0  0  0  0  0  0  0  0  0
   -0.0405    1.3339   -0.4070 H   0  0  0  0  0  0  0  0  0  0  0  0
    0.6562    3.7612   -0.2665 H   0  0  0  0  0  0  0  0  0  0  0  0
   -3.2510    4.8422    1.3156 H   0  0  0  0  0  0  0  0  0  0  0  0
   -3.9290    2.4021    1.2370 H   0  0  0  0  0  0  0  0  0  0  0  0
   -2.9787   -7.1493   -0.2606 N   0  0  0  0  0  0  0  0  0  0  0  0
   -3.2255   -8.2245   -0.3281 N   0  0  0  0  0  0  0  0  0  0  0  0
   -2.4745    0.4527    0.5462 O   0  0  0  0  0  0  0  0  0  0  0  0
   -1.6357   -0.6546    0.1557 C   0  0  0  0  0  0  0  0  0  0  0  0
   -2.2499   -1.5416    0.2982 H   0  0  0  0  0  0  0  0  0  0  0  0
   -0.7489   -0.7072    0.7930 H   0  0  0  0  0  0  0  0  0  0  0  0
   -1.3546   -0.5643   -0.8986 H   0  0  0  0  0  0  0  0  0  0  0  0
  1  2  2  0  0  0  0
  1  6  1  0  0  0  0
  2  3  1  0  0  0  0
  3  4  2  0  0  0  0
  4  9  1  0  0  0  0
  5  4  1  0  0  0  0
  5 10  1  0  0  0  0
  6 13  1  0  0  0  0
  6  5  2  0  0  0  0
  7  1  1  0  0  0  0
  8  2  1  0  0  0  0
 12 11  3  0  0  0  0
 14 15  1  0  0  0  0
 14 13  1  0  0  0  0
 14 16  1  0  0  0  0
 17 14  1  0  0  0  0
M  RAD  1   3   2
M  END
