Coordinates from ORCA-job 4-MeO-Ph-N2+-B3LYPG-6-31G_dp-MTMO-d009-169-n900
 OpenBabel09051907383D

 17 16  0  0  0  0  0  0  0  0999 V2000
   -0.6471    2.6692    0.0328 C   0  0  0  0  0  0  0  0  0  0  0  0
   -0.2674    4.0332    0.0200 C   0  0  0  0  0  0  0  0  0  0  0  0
   -1.3574    4.7482    0.3320 C   0  0  0  0  0  0  0  0  0  0  0  0
   -2.5183    4.6516    1.0002 C   0  0  0  0  0  0  0  0  0  0  0  0
   -2.8318    3.2764    0.9994 C   0  0  0  0  0  0  0  0  0  0  0  0
   -1.9122    2.2905    0.5432 C   0  0  0  0  0  0  0  0  0  0  0  0
    0.0615    1.9484   -0.3589 H   0  0  0  0  0  0  0  0  0  0  0  0
    0.7139    4.3905   -0.2711 H   0  0  0  0  0  0  0  0  0  0  0  0
   -3.2018    5.4302    1.3180 H   0  0  0  0  0  0  0  0  0  0  0  0
   -3.8346    2.9769    1.2925 H   0  0  0  0  0  0  0  0  0  0  0  0
   -3.6822  -11.6575   -0.6290 N   0  0  0  0  0  0  0  0  0  0  0  0
   -4.0013  -12.7124   -0.7117 N   0  0  0  0  0  0  0  0  0  0  0  0
   -2.3489    1.0414    0.6293 O   0  0  0  0  0  0  0  0  0  0  0  0
   -1.4924   -0.0573    0.2538 C   0  0  0  0  0  0  0  0  0  0  0  0
   -2.0894   -0.9524    0.4170 H   0  0  0  0  0  0  0  0  0  0  0  0
   -0.6007   -0.0819    0.8860 H   0  0  0  0  0  0  0  0  0  0  0  0
   -1.2196    0.0184   -0.8038 H   0  0  0  0  0  0  0  0  0  0  0  0
  1  6  1  0  0  0  0
  2  1  2  0  0  0  0
  2  3  1  0  0  0  0
  3  4  2  0  0  0  0
  4  9  1  0  0  0  0
  5  4  1  0  0  0  0
  5 10  1  0  0  0  0
  6 13  1  0  0  0  0
  6  5  2  0  0  0  0
  7  1  1  0  0  0  0
  8  2  1  0  0  0  0
 12 11  3  0  0  0  0
 14 15  1  0  0  0  0
 14 13  1  0  0  0  0
 14 16  1  0  0  0  0
 17 14  1  0  0  0  0
M  RAD  1   3   2
M  END
