Coordinates from ORCA-job 4-MeO-Ph-N2+-B3LYPG-6-31G_dp-MTMO-d009-169-n900
 OpenBabel09051907383D

 17 16  0  0  0  0  0  0  0  0999 V2000
   -0.6885    2.4004    0.0145 C   0  0  0  0  0  0  0  0  0  0  0  0
   -0.2956    3.7607    0.0078 C   0  0  0  0  0  0  0  0  0  0  0  0
   -1.3789    4.4850    0.3217 C   0  0  0  0  0  0  0  0  0  0  0  0
   -2.5413    4.3968    0.9885 C   0  0  0  0  0  0  0  0  0  0  0  0
   -2.8681    3.0246    0.9816 C   0  0  0  0  0  0  0  0  0  0  0  0
   -1.9577    2.0318    0.5221 C   0  0  0  0  0  0  0  0  0  0  0  0
    0.0135    1.6745   -0.3796 H   0  0  0  0  0  0  0  0  0  0  0  0
    0.6894    4.1098   -0.2810 H   0  0  0  0  0  0  0  0  0  0  0  0
   -3.2175    5.1806    1.3090 H   0  0  0  0  0  0  0  0  0  0  0  0
   -3.8740    2.7336    1.2725 H   0  0  0  0  0  0  0  0  0  0  0  0
   -3.3734   -9.6900   -0.4814 N   0  0  0  0  0  0  0  0  0  0  0  0
   -3.6491  -10.7578   -0.5557 N   0  0  0  0  0  0  0  0  0  0  0  0
   -2.4065    0.7867    0.6025 O   0  0  0  0  0  0  0  0  0  0  0  0
   -1.5604   -0.3187    0.2232 C   0  0  0  0  0  0  0  0  0  0  0  0
   -2.1661   -1.2087    0.3819 H   0  0  0  0  0  0  0  0  0  0  0  0
   -0.6696   -0.3546    0.8561 H   0  0  0  0  0  0  0  0  0  0  0  0
   -1.2858   -0.2412   -0.8339 H   0  0  0  0  0  0  0  0  0  0  0  0
  1  6  1  0  0  0  0
  2  1  2  0  0  0  0
  2  3  1  0  0  0  0
  3  4  2  0  0  0  0
  4  9  1  0  0  0  0
  5  4  1  0  0  0  0
  5 10  1  0  0  0  0
  6 13  1  0  0  0  0
  6  5  2  0  0  0  0
  7  1  1  0  0  0  0
  8  2  1  0  0  0  0
 12 11  3  0  0  0  0
 14 15  1  0  0  0  0
 14 13  1  0  0  0  0
 14 16  1  0  0  0  0
 17 14  1  0  0  0  0
M  RAD  1   3   2
M  END
