Coordinates from ORCA-job 4-MeO-Ph-N2+-B3LYPG-6-31G_dp-MTMO-d009-169-n900
 OpenBabel09051907383D

 17 16  0  0  0  0  0  0  0  0999 V2000
   -0.6786    2.4655    0.0187 C   0  0  0  0  0  0  0  0  0  0  0  0
   -0.2885    3.8266    0.0097 C   0  0  0  0  0  0  0  0  0  0  0  0
   -1.3731    4.5492    0.3230 C   0  0  0  0  0  0  0  0  0  0  0  0
   -2.5349    4.4597    0.9906 C   0  0  0  0  0  0  0  0  0  0  0  0
   -2.8589    3.0869    0.9861 C   0  0  0  0  0  0  0  0  0  0  0  0
   -1.9467    2.0951    0.5276 C   0  0  0  0  0  0  0  0  0  0  0  0
    0.0247    1.7404   -0.3745 H   0  0  0  0  0  0  0  0  0  0  0  0
    0.6957    4.1772   -0.2801 H   0  0  0  0  0  0  0  0  0  0  0  0
   -3.2126    5.2426    1.3102 H   0  0  0  0  0  0  0  0  0  0  0  0
   -3.8641    2.7942    1.2780 H   0  0  0  0  0  0  0  0  0  0  0  0
   -3.4482  -10.1703   -0.5183 N   0  0  0  0  0  0  0  0  0  0  0  0
   -3.7332  -11.2354   -0.5956 N   0  0  0  0  0  0  0  0  0  0  0  0
   -2.3930    0.8492    0.6102 O   0  0  0  0  0  0  0  0  0  0  0  0
   -1.5448   -0.2550    0.2321 C   0  0  0  0  0  0  0  0  0  0  0  0
   -2.1486   -1.1460    0.3925 H   0  0  0  0  0  0  0  0  0  0  0  0
   -0.6536   -0.2881    0.8647 H   0  0  0  0  0  0  0  0  0  0  0  0
   -1.2709   -0.1784   -0.8252 H   0  0  0  0  0  0  0  0  0  0  0  0
  1  6  1  0  0  0  0
  2  1  2  0  0  0  0
  2  3  1  0  0  0  0
  3  4  2  0  0  0  0
  4  9  1  0  0  0  0
  5  4  1  0  0  0  0
  5 10  1  0  0  0  0
  6 13  1  0  0  0  0
  6  5  2  0  0  0  0
  7  1  1  0  0  0  0
  8  2  1  0  0  0  0
 12 11  3  0  0  0  0
 14 15  1  0  0  0  0
 14 13  1  0  0  0  0
 14 16  1  0  0  0  0
 17 14  1  0  0  0  0
M  RAD  1   3   2
M  END
