Coordinates from ORCA-job 4-MeO-Ph-N2+-B3LYPG-6-31G_dp-MTMO-d009-169-n900
 OpenBabel09051907383D

 17 16  0  0  0  0  0  0  0  0999 V2000
   -1.8585    0.1766    0.1463 C   0  0  0  0  0  0  0  0  0  0  0  0
   -0.5143    0.5061   -0.1618 C   0  0  0  0  0  0  0  0  0  0  0  0
   -0.4198    1.8388   -0.1074 C   0  0  0  0  0  0  0  0  0  0  0  0
   -0.9854    2.9161    0.4600 C   0  0  0  0  0  0  0  0  0  0  0  0
   -2.3048    2.5189    0.7638 C   0  0  0  0  0  0  0  0  0  0  0  0
   -2.7403    1.1711    0.6304 C   0  0  0  0  0  0  0  0  0  0  0  0
   -2.1656   -0.8525   -0.0018 H   0  0  0  0  0  0  0  0  0  0  0  0
    0.2542   -0.2050   -0.4501 H   0  0  0  0  0  0  0  0  0  0  0  0
   -0.6275    3.9366    0.5243 H   0  0  0  0  0  0  0  0  0  0  0  0
   -3.0217    3.2875    1.0403 H   0  0  0  0  0  0  0  0  0  0  0  0
    2.4134   -0.7272   -1.1463 N   0  0  0  0  0  0  0  0  0  0  0  0
    3.4068   -1.0648   -1.4918 N   0  0  0  0  0  0  0  0  0  0  0  0
   -4.0036    0.9583    0.9783 O   0  0  0  0  0  0  0  0  0  0  0  0
   -4.5502   -0.3751    0.9434 C   0  0  0  0  0  0  0  0  0  0  0  0
   -5.5828   -0.2698    1.2699 H   0  0  0  0  0  0  0  0  0  0  0  0
   -4.0066   -1.0309    1.6293 H   0  0  0  0  0  0  0  0  0  0  0  0
   -4.5227   -0.7712   -0.0771 H   0  0  0  0  0  0  0  0  0  0  0  0
  1  6  2  0  0  0  0
  2  3  2  0  0  0  0
  2  1  1  0  0  0  0
  3  4  1  0  0  0  0
  4  9  1  0  0  0  0
  4  5  2  0  0  0  0
  5 10  1  0  0  0  0
  6  5  1  0  0  0  0
  6 13  1  0  0  0  0
  7  1  1  0  0  0  0
  8  2  1  0  0  0  0
 12 11  3  0  0  0  0
 14 13  1  0  0  0  0
 14 15  1  0  0  0  0
 14 16  1  0  0  0  0
 17 14  1  0  0  0  0
M  RAD  1   3   2
M  END
