Coordinates from ORCA-job 4-MeO-Ph-N2+-B3LYPG-6-31G_dp-MTMO-d009-169-n900
 OpenBabel09051907383D

 17 16  0  0  0  0  0  0  0  0999 V2000
   -0.9767    1.4175   -0.0121 C   0  0  0  0  0  0  0  0  0  0  0  0
   -0.2837    2.6507   -0.0623 C   0  0  0  0  0  0  0  0  0  0  0  0
   -1.1669    3.6133    0.2411 C   0  0  0  0  0  0  0  0  0  0  0  0
   -2.3045    3.8072    0.9294 C   0  0  0  0  0  0  0  0  0  0  0  0
   -2.9373    2.5477    0.9658 C   0  0  0  0  0  0  0  0  0  0  0  0
   -2.2867    1.3614    0.5230 C   0  0  0  0  0  0  0  0  0  0  0  0
   -0.4694    0.5406   -0.3980 H   0  0  0  0  0  0  0  0  0  0  0  0
    0.7487    2.7575   -0.3759 H   0  0  0  0  0  0  0  0  0  0  0  0
   -2.7758    4.7326    1.2388 H   0  0  0  0  0  0  0  0  0  0  0  0
   -3.9770    2.5016    1.2784 H   0  0  0  0  0  0  0  0  0  0  0  0
   -1.3302   -4.0214   -0.3973 N   0  0  0  0  0  0  0  0  0  0  0  0
   -1.0645   -5.0806   -0.5662 N   0  0  0  0  0  0  0  0  0  0  0  0
   -3.0049    0.2547    0.6456 O   0  0  0  0  0  0  0  0  0  0  0  0
   -2.4376   -1.0266    0.2953 C   0  0  0  0  0  0  0  0  0  0  0  0
   -3.2262   -1.7510    0.4860 H   0  0  0  0  0  0  0  0  0  0  0  0
   -1.5701   -1.2464    0.9225 H   0  0  0  0  0  0  0  0  0  0  0  0
   -2.1666   -1.0453   -0.7645 H   0  0  0  0  0  0  0  0  0  0  0  0
  1  6  1  0  0  0  0
  2  1  2  0  0  0  0
  2  3  1  0  0  0  0
  3  4  2  0  0  0  0
  4  5  1  0  0  0  0
  4  9  1  0  0  0  0
  5 10  1  0  0  0  0
  6 13  1  0  0  0  0
  6  5  2  0  0  0  0
  7  1  1  0  0  0  0
  8  2  1  0  0  0  0
 12 11  3  0  0  0  0
 14 15  1  0  0  0  0
 14 13  1  0  0  0  0
 14 16  1  0  0  0  0
 17 14  1  0  0  0  0
M  RAD  1   3   2
M  END
