Coordinates from ORCA-job 4-MeO-Ph-N2+-B3LYPG-6-31G_dp-MTMO-d009-169-n900
 OpenBabel09051907383D

 17 17  0  0  0  0  0  0  0  0999 V2000
   -1.9219   -0.2255    0.1430 C   0  0  0  0  0  0  0  0  0  0  0  0
   -0.6252   -0.2791   -0.2632 C   0  0  0  0  0  0  0  0  0  0  0  0
    0.2595    0.9165   -0.3090 C   0  0  0  0  0  0  0  0  0  0  0  0
   -0.4129    2.1754    0.1330 C   0  0  0  0  0  0  0  0  0  0  0  0
   -1.7066    2.2045    0.5338 C   0  0  0  0  0  0  0  0  0  0  0  0
   -2.4966    1.0145    0.5512 C   0  0  0  0  0  0  0  0  0  0  0  0
   -2.5086   -1.1368    0.1504 H   0  0  0  0  0  0  0  0  0  0  0  0
   -0.1641   -1.2104   -0.5797 H   0  0  0  0  0  0  0  0  0  0  0  0
    0.2067    3.0672    0.1112 H   0  0  0  0  0  0  0  0  0  0  0  0
   -2.1710    3.1326    0.8504 H   0  0  0  0  0  0  0  0  0  0  0  0
    1.1351    0.8847   -0.5824 N   0  0  0  0  0  0  0  0  0  0  0  0
    2.2442    0.8468   -0.9278 N   0  0  0  0  0  0  0  0  0  0  0  0
   -3.7301    1.1649    0.9545 O   0  0  0  0  0  0  0  0  0  0  0  0
   -4.6580    0.0499    1.0272 C   0  0  0  0  0  0  0  0  0  0  0  0
   -5.5892    0.4866    1.3804 H   0  0  0  0  0  0  0  0  0  0  0  0
   -4.2940   -0.6926    1.7412 H   0  0  0  0  0  0  0  0  0  0  0  0
   -4.7968   -0.3859    0.0354 H   0  0  0  0  0  0  0  0  0  0  0  0
  1  7  1  0  0  0  0
  1  6  2  0  0  0  0
  2  1  1  0  0  0  0
  3  2  2  0  0  0  0
  3  4  1  0  0  0  0
  4  5  2  0  0  0  0
  5  6  1  0  0  0  0
  5 10  1  0  0  0  0
  6 13  1  0  0  0  0
  8  2  1  0  0  0  0
  9  4  1  0  0  0  0
 11  3  1  0  0  0  0
 12 11  1  0  0  0  0
 13 14  1  0  0  0  0
 14 15  1  0  0  0  0
 14 16  1  0  0  0  0
 17 14  1  0  0  0  0
M  RAD  2  11   2  12   3
M  END
