Coordinates from ORCA-job 4-MeO-Ph-N2+-B3LYPG-6-31G_dp-MTMO-d009-169-n900
 OpenBabel09051907383D

 17 16  0  0  0  0  0  0  0  0999 V2000
   -1.6825    0.4205    0.1267 C   0  0  0  0  0  0  0  0  0  0  0  0
   -0.3905    0.9453   -0.1426 C   0  0  0  0  0  0  0  0  0  0  0  0
   -0.4972    2.2726   -0.0281 C   0  0  0  0  0  0  0  0  0  0  0  0
   -1.2270    3.2326    0.5622 C   0  0  0  0  0  0  0  0  0  0  0  0
   -2.4809    2.6425    0.8242 C   0  0  0  0  0  0  0  0  0  0  0  0
   -2.7101    1.2529    0.6292 C   0  0  0  0  0  0  0  0  0  0  0  0
   -1.8372   -0.6323   -0.0815 H   0  0  0  0  0  0  0  0  0  0  0  0
    0.4531    0.3367   -0.4581 H   0  0  0  0  0  0  0  0  0  0  0  0
   -1.0120    4.2876    0.6850 H   0  0  0  0  0  0  0  0  0  0  0  0
   -3.3018    3.2861    1.1291 H   0  0  0  0  0  0  0  0  0  0  0  0
    2.0194   -1.4429   -1.1251 N   0  0  0  0  0  0  0  0  0  0  0  0
    2.7657   -2.1881   -1.4535 N   0  0  0  0  0  0  0  0  0  0  0  0
   -3.9332    0.8396    0.9393 O   0  0  0  0  0  0  0  0  0  0  0  0
   -4.2705   -0.5588    0.8482 C   0  0  0  0  0  0  0  0  0  0  0  0
   -5.3122   -0.6226    1.1560 H   0  0  0  0  0  0  0  0  0  0  0  0
   -3.6451   -1.1497    1.5231 H   0  0  0  0  0  0  0  0  0  0  0  0
   -4.1676   -0.9086   -0.1844 H   0  0  0  0  0  0  0  0  0  0  0  0
  1  6  2  0  0  0  0
  2  3  2  0  0  0  0
  2  1  1  0  0  0  0
  3  4  1  0  0  0  0
  4  9  1  0  0  0  0
  4  5  2  0  0  0  0
  5 10  1  0  0  0  0
  6  5  1  0  0  0  0
  6 13  1  0  0  0  0
  7  1  1  0  0  0  0
  8  2  1  0  0  0  0
 12 11  3  0  0  0  0
 14 13  1  0  0  0  0
 14 15  1  0  0  0  0
 14 16  1  0  0  0  0
 17 14  1  0  0  0  0
M  RAD  1   3   2
M  END
