Coordinates from ORCA-job 4-MeO-Ph-N2+-B3LYPG-6-31G_dp-MTMO-d009-169-n900
 OpenBabel09051907383D

 17 16  0  0  0  0  0  0  0  0999 V2000
   -0.7620    1.8214   -0.0211 C   0  0  0  0  0  0  0  0  0  0  0  0
   -0.4006    3.1886    0.0454 C   0  0  0  0  0  0  0  0  0  0  0  0
   -1.5058    3.8765    0.3679 C   0  0  0  0  0  0  0  0  0  0  0  0
   -2.6775    3.7284    1.0085 C   0  0  0  0  0  0  0  0  0  0  0  0
   -2.9734    2.3517    0.9297 C   0  0  0  0  0  0  0  0  0  0  0  0
   -2.0322    1.4007    0.4428 C   0  0  0  0  0  0  0  0  0  0  0  0
   -0.0363    1.1306   -0.4349 H   0  0  0  0  0  0  0  0  0  0  0  0
    0.5822    3.5716   -0.2055 H   0  0  0  0  0  0  0  0  0  0  0  0
   -3.3780    4.4806    1.3520 H   0  0  0  0  0  0  0  0  0  0  0  0
   -3.9781    2.0257    1.1853 H   0  0  0  0  0  0  0  0  0  0  0  0
   -2.8075   -5.0543   -0.0205 N   0  0  0  0  0  0  0  0  0  0  0  0
   -3.0853   -6.1235   -0.0499 N   0  0  0  0  0  0  0  0  0  0  0  0
   -2.4542    0.1441    0.4570 O   0  0  0  0  0  0  0  0  0  0  0  0
   -1.5767   -0.9265    0.0462 C   0  0  0  0  0  0  0  0  0  0  0  0
   -2.1615   -1.8381    0.1566 H   0  0  0  0  0  0  0  0  0  0  0  0
   -0.6953   -0.9673    0.6919 H   0  0  0  0  0  0  0  0  0  0  0  0
   -1.2873   -0.7970   -1.0017 H   0  0  0  0  0  0  0  0  0  0  0  0
  1  2  2  0  0  0  0
  1  6  1  0  0  0  0
  2  3  1  0  0  0  0
  3  4  2  0  0  0  0
  4  9  1  0  0  0  0
  5  4  1  0  0  0  0
  5 10  1  0  0  0  0
  6 13  1  0  0  0  0
  6  5  2  0  0  0  0
  7  1  1  0  0  0  0
  8  2  1  0  0  0  0
 12 11  3  0  0  0  0
 14 15  1  0  0  0  0
 14 13  1  0  0  0  0
 14 16  1  0  0  0  0
 17 14  1  0  0  0  0
M  RAD  1   3   2
M  END
