Coordinates from ORCA-job 4-MeO-Ph-N2+-B3LYPG-6-31G_dp-MTMO-d009-169-n900
 OpenBabel09051907383D

 17 16  0  0  0  0  0  0  0  0999 V2000
   -0.9313    1.5117   -0.0158 C   0  0  0  0  0  0  0  0  0  0  0  0
   -0.3064    2.7814   -0.0482 C   0  0  0  0  0  0  0  0  0  0  0  0
   -1.2410    3.6918    0.2627 C   0  0  0  0  0  0  0  0  0  0  0  0
   -2.3896    3.8159    0.9486 C   0  0  0  0  0  0  0  0  0  0  0  0
   -2.9531    2.5233    0.9670 C   0  0  0  0  0  0  0  0  0  0  0  0
   -2.2381    1.3788    0.5131 C   0  0  0  0  0  0  0  0  0  0  0  0
   -0.3751    0.6680   -0.4082 H   0  0  0  0  0  0  0  0  0  0  0  0
    0.7205    2.9478   -0.3539 H   0  0  0  0  0  0  0  0  0  0  0  0
   -2.9127    4.7104    1.2654 H   0  0  0  0  0  0  0  0  0  0  0  0
   -3.9905    2.4177    1.2730 H   0  0  0  0  0  0  0  0  0  0  0  0
   -1.5955   -4.2963   -0.3445 N   0  0  0  0  0  0  0  0  0  0  0  0
   -1.4623   -5.3821   -0.5008 N   0  0  0  0  0  0  0  0  0  0  0  0
   -2.8968    0.2341    0.6202 O   0  0  0  0  0  0  0  0  0  0  0  0
   -2.2642   -1.0123    0.2559 C   0  0  0  0  0  0  0  0  0  0  0  0
   -3.0138   -1.7789    0.4371 H   0  0  0  0  0  0  0  0  0  0  0  0
   -1.3870   -1.1938    0.8823 H   0  0  0  0  0  0  0  0  0  0  0  0
   -1.9924   -1.0043   -0.8042 H   0  0  0  0  0  0  0  0  0  0  0  0
  1  6  1  0  0  0  0
  2  1  2  0  0  0  0
  2  3  1  0  0  0  0
  3  4  2  0  0  0  0
  4  5  1  0  0  0  0
  4  9  1  0  0  0  0
  5 10  1  0  0  0  0
  6 13  1  0  0  0  0
  6  5  2  0  0  0  0
  7  1  1  0  0  0  0
  8  2  1  0  0  0  0
 12 11  3  0  0  0  0
 14 15  1  0  0  0  0
 14 13  1  0  0  0  0
 14 16  1  0  0  0  0
 17 14  1  0  0  0  0
M  RAD  1   3   2
M  END
