Coordinates from ORCA-job 4-MeO-Ph-N2+-B3LYPG-6-31G_dp-MTMO-d009-169-n900
 OpenBabel09051907383D

 17 17  0  0  0  0  0  0  0  0999 V2000
   -1.9258   -0.2246    0.1451 C   0  0  0  0  0  0  0  0  0  0  0  0
   -0.6261   -0.2766   -0.2618 C   0  0  0  0  0  0  0  0  0  0  0  0
    0.2319    0.9179   -0.3002 C   0  0  0  0  0  0  0  0  0  0  0  0
   -0.4141    2.1734    0.1332 C   0  0  0  0  0  0  0  0  0  0  0  0
   -1.7103    2.2046    0.5354 C   0  0  0  0  0  0  0  0  0  0  0  0
   -2.4992    1.0150    0.5525 C   0  0  0  0  0  0  0  0  0  0  0  0
   -2.5124   -1.1355    0.1527 H   0  0  0  0  0  0  0  0  0  0  0  0
   -0.1696   -1.2101   -0.5772 H   0  0  0  0  0  0  0  0  0  0  0  0
    0.2012    3.0679    0.1131 H   0  0  0  0  0  0  0  0  0  0  0  0
   -2.1746    3.1324    0.8519 H   0  0  0  0  0  0  0  0  0  0  0  0
    1.1751    0.8830   -0.5956 N   0  0  0  0  0  0  0  0  0  0  0  0
    2.2736    0.8451   -0.9389 N   0  0  0  0  0  0  0  0  0  0  0  0
   -3.7345    1.1661    0.9561 O   0  0  0  0  0  0  0  0  0  0  0  0
   -4.6595    0.0501    1.0272 C   0  0  0  0  0  0  0  0  0  0  0  0
   -5.5923    0.4840    1.3800 H   0  0  0  0  0  0  0  0  0  0  0  0
   -4.2955   -0.6931    1.7408 H   0  0  0  0  0  0  0  0  0  0  0  0
   -4.7974   -0.3861    0.0353 H   0  0  0  0  0  0  0  0  0  0  0  0
  1  7  1  0  0  0  0
  1  6  2  0  0  0  0
  2  1  1  0  0  0  0
  3  2  2  0  0  0  0
  3  4  1  0  0  0  0
  4  5  2  0  0  0  0
  5  6  1  0  0  0  0
  5 10  1  0  0  0  0
  6 13  1  0  0  0  0
  8  2  1  0  0  0  0
  9  4  1  0  0  0  0
 11  3  1  0  0  0  0
 12 11  1  0  0  0  0
 13 14  1  0  0  0  0
 14 15  1  0  0  0  0
 14 16  1  0  0  0  0
 17 14  1  0  0  0  0
M  RAD  2  11   2  12   3
M  END
