Coordinates from ORCA-job 4-MeO-Ph-N2+-B3LYPG-6-31G_dp-MTMO-d009-169-n900
 OpenBabel09051907383D

 17 16  0  0  0  0  0  0  0  0999 V2000
   -2.0179   -0.2086    0.1746 C   0  0  0  0  0  0  0  0  0  0  0  0
   -0.6759   -0.2870   -0.2487 C   0  0  0  0  0  0  0  0  0  0  0  0
   -0.0998    0.9349   -0.1957 C   0  0  0  0  0  0  0  0  0  0  0  0
   -0.4634    2.1966    0.1523 C   0  0  0  0  0  0  0  0  0  0  0  0
   -1.8020    2.2044    0.5618 C   0  0  0  0  0  0  0  0  0  0  0  0
   -2.5810    1.0217    0.5773 C   0  0  0  0  0  0  0  0  0  0  0  0
   -2.5929   -1.1268    0.1760 H   0  0  0  0  0  0  0  0  0  0  0  0
   -0.2087   -1.2101   -0.5646 H   0  0  0  0  0  0  0  0  0  0  0  0
    0.1575    3.0821    0.1289 H   0  0  0  0  0  0  0  0  0  0  0  0
   -2.2532    3.1401    0.8751 H   0  0  0  0  0  0  0  0  0  0  0  0
    1.8458    0.8626   -0.8016 N   0  0  0  0  0  0  0  0  0  0  0  0
    2.8992    0.8266   -1.1300 N   0  0  0  0  0  0  0  0  0  0  0  0
   -3.8388    1.1798    0.9889 O   0  0  0  0  0  0  0  0  0  0  0  0
   -4.7227    0.0477    1.0470 C   0  0  0  0  0  0  0  0  0  0  0  0
   -5.6725    0.4419    1.4033 H   0  0  0  0  0  0  0  0  0  0  0  0
   -4.3474   -0.7014    1.7519 H   0  0  0  0  0  0  0  0  0  0  0  0
   -4.8558   -0.3914    0.0532 H   0  0  0  0  0  0  0  0  0  0  0  0
  1  7  1  0  0  0  0
  1  6  2  0  0  0  0
  2  3  2  0  0  0  0
  2  1  1  0  0  0  0
  3  4  1  0  0  0  0
  4  5  2  0  0  0  0
  5  6  1  0  0  0  0
  5 10  1  0  0  0  0
  6 13  1  0  0  0  0
  8  2  1  0  0  0  0
  9  4  1  0  0  0  0
 12 11  3  0  0  0  0
 13 14  1  0  0  0  0
 14 15  1  0  0  0  0
 14 16  1  0  0  0  0
 17 14  1  0  0  0  0
M  RAD  1   3   2
M  END
