Coordinates from ORCA-job 4-MeO-Ph-N2+-B3LYPG-6-31G_dp-MTMO-d009-169-n900
 OpenBabel09051907383D

 17 16  0  0  0  0  0  0  0  0999 V2000
   -1.0583    1.2810   -0.0082 C   0  0  0  0  0  0  0  0  0  0  0  0
   -0.2637    2.4499   -0.0876 C   0  0  0  0  0  0  0  0  0  0  0  0
   -1.0593    3.4880    0.2082 C   0  0  0  0  0  0  0  0  0  0  0  0
   -2.1686    3.7897    0.9038 C   0  0  0  0  0  0  0  0  0  0  0  0
   -2.9053    2.5894    0.9693 C   0  0  0  0  0  0  0  0  0  0  0  0
   -2.3623    1.3453    0.5408 C   0  0  0  0  0  0  0  0  0  0  0  0
   -0.6316    0.3578   -0.3840 H   0  0  0  0  0  0  0  0  0  0  0  0
    0.7700    2.4635   -0.4141 H   0  0  0  0  0  0  0  0  0  0  0  0
   -2.5556    4.7569    1.2019 H   0  0  0  0  0  0  0  0  0  0  0  0
   -3.9413    2.6365    1.2939 H   0  0  0  0  0  0  0  0  0  0  0  0
   -0.8514   -3.6767   -0.4764 N   0  0  0  0  0  0  0  0  0  0  0  0
   -0.4635   -4.6933   -0.6694 N   0  0  0  0  0  0  0  0  0  0  0  0
   -3.1694    0.3049    0.6887 O   0  0  0  0  0  0  0  0  0  0  0  0
   -2.7100   -1.0222    0.3535 C   0  0  0  0  0  0  0  0  0  0  0  0
   -3.5526   -1.6779    0.5637 H   0  0  0  0  0  0  0  0  0  0  0  0
   -1.8548   -1.3010    0.9736 H   0  0  0  0  0  0  0  0  0  0  0  0
   -2.4517   -1.0784   -0.7081 H   0  0  0  0  0  0  0  0  0  0  0  0
  1  6  1  0  0  0  0
  2  1  2  0  0  0  0
  2  3  1  0  0  0  0
  3  4  2  0  0  0  0
  4  5  1  0  0  0  0
  4  9  1  0  0  0  0
  5 10  1  0  0  0  0
  6 13  1  0  0  0  0
  6  5  2  0  0  0  0
  7  1  1  0  0  0  0
  8  2  1  0  0  0  0
 12 11  3  0  0  0  0
 14 15  1  0  0  0  0
 14 13  1  0  0  0  0
 14 16  1  0  0  0  0
 17 14  1  0  0  0  0
M  RAD  1   3   2
M  END
