Coordinates from ORCA-job 4-MeO-Ph-N2+-B3LYPG-6-31G_dp-MTMO-d009-169-n900
 OpenBabel09051907383D

 17 16  0  0  0  0  0  0  0  0999 V2000
   -0.7267    2.1446   -0.0012 C   0  0  0  0  0  0  0  0  0  0  0  0
   -0.3219    3.5014    0.0073 C   0  0  0  0  0  0  0  0  0  0  0  0
   -1.4000    4.2322    0.3240 C   0  0  0  0  0  0  0  0  0  0  0  0
   -2.5656    4.1475    0.9855 C   0  0  0  0  0  0  0  0  0  0  0  0
   -2.9046    2.7785    0.9636 C   0  0  0  0  0  0  0  0  0  0  0  0
   -2.0012    1.7822    0.4978 C   0  0  0  0  0  0  0  0  0  0  0  0
   -0.0297    1.4164   -0.3998 H   0  0  0  0  0  0  0  0  0  0  0  0
    0.6673    3.8445   -0.2743 H   0  0  0  0  0  0  0  0  0  0  0  0
   -3.2361    4.9341    1.3115 H   0  0  0  0  0  0  0  0  0  0  0  0
   -3.9141    2.4935    1.2478 H   0  0  0  0  0  0  0  0  0  0  0  0
   -3.0720   -7.8008   -0.3228 N   0  0  0  0  0  0  0  0  0  0  0  0
   -3.3230   -8.8750   -0.3914 N   0  0  0  0  0  0  0  0  0  0  0  0
   -2.4613    0.5404    0.5640 O   0  0  0  0  0  0  0  0  0  0  0  0
   -1.6234   -0.5688    0.1773 C   0  0  0  0  0  0  0  0  0  0  0  0
   -2.2374   -1.4550    0.3255 H   0  0  0  0  0  0  0  0  0  0  0  0
   -0.7353   -0.6183    0.8130 H   0  0  0  0  0  0  0  0  0  0  0  0
   -1.3445   -0.4838   -0.8780 H   0  0  0  0  0  0  0  0  0  0  0  0
  1  2  2  0  0  0  0
  1  6  1  0  0  0  0
  2  3  1  0  0  0  0
  3  4  2  0  0  0  0
  4  9  1  0  0  0  0
  5  4  1  0  0  0  0
  5 10  1  0  0  0  0
  6 13  1  0  0  0  0
  6  5  2  0  0  0  0
  7  1  1  0  0  0  0
  8  2  1  0  0  0  0
 12 11  3  0  0  0  0
 14 15  1  0  0  0  0
 14 13  1  0  0  0  0
 14 16  1  0  0  0  0
 17 14  1  0  0  0  0
M  RAD  1   3   2
M  END
