Coordinates from ORCA-job 4-MeO-Ph-N2+-B3LYPG-6-31G_dp-MTMO-d009-169-n900
 OpenBabel09051907383D

 17 16  0  0  0  0  0  0  0  0999 V2000
   -0.7231    2.1693    0.0002 C   0  0  0  0  0  0  0  0  0  0  0  0
   -0.3190    3.5263    0.0067 C   0  0  0  0  0  0  0  0  0  0  0  0
   -1.3973    4.2570    0.3231 C   0  0  0  0  0  0  0  0  0  0  0  0
   -2.5625    4.1726    0.9853 C   0  0  0  0  0  0  0  0  0  0  0  0
   -2.9008    2.8034    0.9655 C   0  0  0  0  0  0  0  0  0  0  0  0
   -1.9971    1.8069    0.5004 C   0  0  0  0  0  0  0  0  0  0  0  0
   -0.0260    1.4410   -0.3978 H   0  0  0  0  0  0  0  0  0  0  0  0
    0.6699    3.8696   -0.2759 H   0  0  0  0  0  0  0  0  0  0  0  0
   -3.2331    4.9593    1.3106 H   0  0  0  0  0  0  0  0  0  0  0  0
   -3.9100    2.5183    1.2507 H   0  0  0  0  0  0  0  0  0  0  0  0
   -3.1006   -7.9868   -0.3398 N   0  0  0  0  0  0  0  0  0  0  0  0
   -3.3531   -9.0606   -0.4087 N   0  0  0  0  0  0  0  0  0  0  0  0
   -2.4566    0.5650    0.5686 O   0  0  0  0  0  0  0  0  0  0  0  0
   -1.6184   -0.5443    0.1828 C   0  0  0  0  0  0  0  0  0  0  0  0
   -2.2319   -1.4306    0.3325 H   0  0  0  0  0  0  0  0  0  0  0  0
   -0.7299   -0.5926    0.8181 H   0  0  0  0  0  0  0  0  0  0  0  0
   -1.3400   -0.4604   -0.8727 H   0  0  0  0  0  0  0  0  0  0  0  0
  1  2  2  0  0  0  0
  1  6  1  0  0  0  0
  2  3  1  0  0  0  0
  3  4  2  0  0  0  0
  4  9  1  0  0  0  0
  5  4  1  0  0  0  0
  5 10  1  0  0  0  0
  6 13  1  0  0  0  0
  6  5  2  0  0  0  0
  7  1  1  0  0  0  0
  8  2  1  0  0  0  0
 12 11  3  0  0  0  0
 14 15  1  0  0  0  0
 14 13  1  0  0  0  0
 14 16  1  0  0  0  0
 17 14  1  0  0  0  0
M  RAD  1   3   2
M  END
