Coordinates from ORCA-job 4-MeO-Ph-N2+-B3LYPG-6-31G_dp-MTMO-d009-169-n900
 OpenBabel09051907383D

 17 16  0  0  0  0  0  0  0  0999 V2000
   -1.6465    0.4921    0.1193 C   0  0  0  0  0  0  0  0  0  0  0  0
   -0.3765    1.0707   -0.1393 C   0  0  0  0  0  0  0  0  0  0  0  0
   -0.5339    2.3931   -0.0103 C   0  0  0  0  0  0  0  0  0  0  0  0
   -1.3010    3.3137    0.5958 C   0  0  0  0  0  0  0  0  0  0  0  0
   -2.5315    2.6721    0.8461 C   0  0  0  0  0  0  0  0  0  0  0  0
   -2.7065    1.2774    0.6312 C   0  0  0  0  0  0  0  0  0  0  0  0
   -1.7603   -0.5626   -0.1053 H   0  0  0  0  0  0  0  0  0  0  0  0
    0.4899    0.5000   -0.4611 H   0  0  0  0  0  0  0  0  0  0  0  0
   -1.1270    4.3743    0.7352 H   0  0  0  0  0  0  0  0  0  0  0  0
   -3.3776    3.2791    1.1574 H   0  0  0  0  0  0  0  0  0  0  0  0
    1.9734   -1.6888   -1.1419 N   0  0  0  0  0  0  0  0  0  0  0  0
    2.6347   -2.5201   -1.4454 N   0  0  0  0  0  0  0  0  0  0  0  0
   -3.9128    0.8131    0.9325 O   0  0  0  0  0  0  0  0  0  0  0  0
   -4.1951   -0.5965    0.8244 C   0  0  0  0  0  0  0  0  0  0  0  0
   -5.2342   -0.7044    1.1288 H   0  0  0  0  0  0  0  0  0  0  0  0
   -3.5483   -1.1701    1.4941 H   0  0  0  0  0  0  0  0  0  0  0  0
   -4.0764   -0.9298   -0.2119 H   0  0  0  0  0  0  0  0  0  0  0  0
  1  6  2  0  0  0  0
  2  3  2  0  0  0  0
  2  1  1  0  0  0  0
  3  4  1  0  0  0  0
  4  9  1  0  0  0  0
  4  5  2  0  0  0  0
  5 10  1  0  0  0  0
  6  5  1  0  0  0  0
  6 13  1  0  0  0  0
  7  1  1  0  0  0  0
  8  2  1  0  0  0  0
 12 11  3  0  0  0  0
 14 13  1  0  0  0  0
 14 15  1  0  0  0  0
 14 16  1  0  0  0  0
 17 14  1  0  0  0  0
M  RAD  1   3   2
M  END
