Coordinates from ORCA-job 4-MeO-Ph-N2+-B3LYPG-6-31G_dp-MTMO-d009-169-n900
 OpenBabel09051907383D

 17 16  0  0  0  0  0  0  0  0999 V2000
   -1.1109    1.1792    0.0072 C   0  0  0  0  0  0  0  0  0  0  0  0
   -0.2528    2.3002   -0.0946 C   0  0  0  0  0  0  0  0  0  0  0  0
   -0.9870    3.3888    0.1797 C   0  0  0  0  0  0  0  0  0  0  0  0
   -2.0760    3.7670    0.8696 C   0  0  0  0  0  0  0  0  0  0  0  0
   -2.8789    2.6111    0.9577 C   0  0  0  0  0  0  0  0  0  0  0  0
   -2.4085    1.3296    0.5541 C   0  0  0  0  0  0  0  0  0  0  0  0
   -0.7363    0.2248   -0.3461 H   0  0  0  0  0  0  0  0  0  0  0  0
    0.7809    2.2492   -0.4175 H   0  0  0  0  0  0  0  0  0  0  0  0
   -2.4097    4.7601    1.1463 H   0  0  0  0  0  0  0  0  0  0  0  0
   -3.9113    2.7238    1.2780 H   0  0  0  0  0  0  0  0  0  0  0  0
   -0.5200   -3.3992   -0.5624 N   0  0  0  0  0  0  0  0  0  0  0  0
   -0.0715   -4.3869   -0.7733 N   0  0  0  0  0  0  0  0  0  0  0  0
   -3.2747    0.3409    0.7225 O   0  0  0  0  0  0  0  0  0  0  0  0
   -2.8961   -1.0168    0.4107 C   0  0  0  0  0  0  0  0  0  0  0  0
   -3.7763   -1.6164    0.6342 H   0  0  0  0  0  0  0  0  0  0  0  0
   -2.0567   -1.3346    1.0338 H   0  0  0  0  0  0  0  0  0  0  0  0
   -2.6436   -1.1075   -0.6501 H   0  0  0  0  0  0  0  0  0  0  0  0
  1  6  1  0  0  0  0
  2  1  2  0  0  0  0
  2  3  1  0  0  0  0
  3  4  2  0  0  0  0
  4  5  1  0  0  0  0
  4  9  1  0  0  0  0
  5 10  1  0  0  0  0
  6 13  1  0  0  0  0
  6  5  2  0  0  0  0
  7  1  1  0  0  0  0
  8  2  1  0  0  0  0
 12 11  3  0  0  0  0
 14 15  1  0  0  0  0
 14 13  1  0  0  0  0
 14 16  1  0  0  0  0
 17 14  1  0  0  0  0
M  RAD  1   3   2
M  END
