Coordinates from ORCA-job 4-MeO-Ph-N2+-B3LYPG-6-31G_dp-MTMO-d009-169-n900
 OpenBabel09051907383D

 17 16  0  0  0  0  0  0  0  0999 V2000
   -2.0566   -0.2058    0.1858 C   0  0  0  0  0  0  0  0  0  0  0  0
   -0.7045   -0.2910   -0.2408 C   0  0  0  0  0  0  0  0  0  0  0  0
   -0.1917    0.9408   -0.1706 C   0  0  0  0  0  0  0  0  0  0  0  0
   -0.4941    2.2056    0.1643 C   0  0  0  0  0  0  0  0  0  0  0  0
   -1.8429    2.2050    0.5747 C   0  0  0  0  0  0  0  0  0  0  0  0
   -2.6219    1.0226    0.5896 C   0  0  0  0  0  0  0  0  0  0  0  0
   -2.6230   -1.1302    0.1810 H   0  0  0  0  0  0  0  0  0  0  0  0
   -0.2289   -1.2096   -0.5573 H   0  0  0  0  0  0  0  0  0  0  0  0
    0.1322    3.0874    0.1386 H   0  0  0  0  0  0  0  0  0  0  0  0
   -2.2860    3.1466    0.8849 H   0  0  0  0  0  0  0  0  0  0  0  0
    2.1297    0.8589   -0.8863 N   0  0  0  0  0  0  0  0  0  0  0  0
    3.1828    0.8237   -1.2165 N   0  0  0  0  0  0  0  0  0  0  0  0
   -3.8802    1.1796    1.0010 O   0  0  0  0  0  0  0  0  0  0  0  0
   -4.7601    0.0439    1.0586 C   0  0  0  0  0  0  0  0  0  0  0  0
   -5.7116    0.4341    1.4147 H   0  0  0  0  0  0  0  0  0  0  0  0
   -4.3817   -0.7036    1.7638 H   0  0  0  0  0  0  0  0  0  0  0  0
   -4.8911   -0.3947    0.0642 H   0  0  0  0  0  0  0  0  0  0  0  0
  1  6  2  0  0  0  0
  2  3  2  0  0  0  0
  2  1  1  0  0  0  0
  3  4  1  0  0  0  0
  4  5  2  0  0  0  0
  5  6  1  0  0  0  0
  5 10  1  0  0  0  0
  6 13  1  0  0  0  0
  7  1  1  0  0  0  0
  8  2  1  0  0  0  0
  9  4  1  0  0  0  0
 12 11  3  0  0  0  0
 13 14  1  0  0  0  0
 14 15  1  0  0  0  0
 14 16  1  0  0  0  0
 17 14  1  0  0  0  0
M  RAD  1   3   2
M  END
