Coordinates from ORCA-job 4-MeO-Ph-N2+-B3LYPG-6-31G_dp-MTMO-d009-169-n900
 OpenBabel09051907383D

 17 16  0  0  0  0  0  0  0  0999 V2000
   -2.0802   -0.2042    0.1873 C   0  0  0  0  0  0  0  0  0  0  0  0
   -0.7246   -0.2909   -0.2376 C   0  0  0  0  0  0  0  0  0  0  0  0
   -0.2334    0.9458   -0.1729 C   0  0  0  0  0  0  0  0  0  0  0  0
   -0.5146    2.2083    0.1730 C   0  0  0  0  0  0  0  0  0  0  0  0
   -1.8664    2.2054    0.5824 C   0  0  0  0  0  0  0  0  0  0  0  0
   -2.6456    1.0229    0.5955 C   0  0  0  0  0  0  0  0  0  0  0  0
   -2.6460   -1.1292    0.1732 H   0  0  0  0  0  0  0  0  0  0  0  0
   -0.2447   -1.2082   -0.5521 H   0  0  0  0  0  0  0  0  0  0  0  0
    0.1137    3.0890    0.1467 H   0  0  0  0  0  0  0  0  0  0  0  0
   -2.3090    3.1495    0.8868 H   0  0  0  0  0  0  0  0  0  0  0  0
    2.2985    0.8562   -0.9298 N   0  0  0  0  0  0  0  0  0  0  0  0
    3.3523    0.8217   -1.2586 N   0  0  0  0  0  0  0  0  0  0  0  0
   -3.9037    1.1790    1.0068 O   0  0  0  0  0  0  0  0  0  0  0  0
   -4.7810    0.0412    1.0697 C   0  0  0  0  0  0  0  0  0  0  0  0
   -5.7327    0.4304    1.4263 H   0  0  0  0  0  0  0  0  0  0  0  0
   -4.3993   -0.7032    1.7764 H   0  0  0  0  0  0  0  0  0  0  0  0
   -4.9128   -0.4003    0.0766 H   0  0  0  0  0  0  0  0  0  0  0  0
  1  6  2  0  0  0  0
  2  3  2  0  0  0  0
  2  1  1  0  0  0  0
  3  4  1  0  0  0  0
  4  5  2  0  0  0  0
  5  6  1  0  0  0  0
  5 10  1  0  0  0  0
  6 13  1  0  0  0  0
  7  1  1  0  0  0  0
  8  2  1  0  0  0  0
  9  4  1  0  0  0  0
 12 11  3  0  0  0  0
 13 14  1  0  0  0  0
 14 15  1  0  0  0  0
 14 16  1  0  0  0  0
 17 14  1  0  0  0  0
M  RAD  1   3   2
M  END
