Coordinates from ORCA-job 4-MeO-Ph-N2+-B3LYPG-6-31G_dp-MTMO-d009-169-n900
 OpenBabel09051907383D

 17 16  0  0  0  0  0  0  0  0999 V2000
   -2.1242   -0.1984    0.1351 C   0  0  0  0  0  0  0  0  0  0  0  0
   -0.7726   -0.2705   -0.2922 C   0  0  0  0  0  0  0  0  0  0  0  0
   -0.3142    0.9844   -0.3194 C   0  0  0  0  0  0  0  0  0  0  0  0
   -0.5512    2.2148    0.1598 C   0  0  0  0  0  0  0  0  0  0  0  0
   -1.8970    2.2082    0.5823 C   0  0  0  0  0  0  0  0  0  0  0  0
   -2.6766    1.0218    0.5874 C   0  0  0  0  0  0  0  0  0  0  0  0
   -2.7037   -1.1136    0.0829 H   0  0  0  0  0  0  0  0  0  0  0  0
   -0.2771   -1.1844   -0.5954 H   0  0  0  0  0  0  0  0  0  0  0  0
    0.0756    3.0974    0.1328 H   0  0  0  0  0  0  0  0  0  0  0  0
   -2.3516    3.1525    0.8685 H   0  0  0  0  0  0  0  0  0  0  0  0
    2.5354    0.8284   -0.8940 N   0  0  0  0  0  0  0  0  0  0  0  0
    3.6079    0.7843   -1.1549 N   0  0  0  0  0  0  0  0  0  0  0  0
   -3.9229    1.1715    1.0254 O   0  0  0  0  0  0  0  0  0  0  0  0
   -4.7917    0.0281    1.1329 C   0  0  0  0  0  0  0  0  0  0  0  0
   -5.7334    0.4179    1.5141 H   0  0  0  0  0  0  0  0  0  0  0  0
   -4.3808   -0.7036    1.8353 H   0  0  0  0  0  0  0  0  0  0  0  0
   -4.9515   -0.4252    0.1492 H   0  0  0  0  0  0  0  0  0  0  0  0
  1  6  2  0  0  0  0
  2  1  1  0  0  0  0
  3  2  2  0  0  0  0
  3  4  1  0  0  0  0
  4  5  2  0  0  0  0
  5  6  1  0  0  0  0
  5 10  1  0  0  0  0
  6 13  1  0  0  0  0
  7  1  1  0  0  0  0
  8  2  1  0  0  0  0
  9  4  1  0  0  0  0
 12 11  3  0  0  0  0
 13 14  1  0  0  0  0
 14 15  1  0  0  0  0
 14 16  1  0  0  0  0
 17 14  1  0  0  0  0
M  RAD  1   3   2
M  END
