Coordinates from ORCA-job 4-MeO-Ph-N2+-B3LYPG-6-31G_dp-MTMO-d009-169-n900
 OpenBabel09051907383D

 17 16  0  0  0  0  0  0  0  0999 V2000
   -0.7080    2.2715    0.0063 C   0  0  0  0  0  0  0  0  0  0  0  0
   -0.3081    3.6298    0.0056 C   0  0  0  0  0  0  0  0  0  0  0  0
   -1.3881    4.3584    0.3208 C   0  0  0  0  0  0  0  0  0  0  0  0
   -2.5519    4.2736    0.9856 C   0  0  0  0  0  0  0  0  0  0  0  0
   -2.8858    2.9032    0.9728 C   0  0  0  0  0  0  0  0  0  0  0  0
   -1.9799    1.9074    0.5107 C   0  0  0  0  0  0  0  0  0  0  0  0
   -0.0093    1.5435   -0.3896 H   0  0  0  0  0  0  0  0  0  0  0  0
    0.6791    3.9749   -0.2804 H   0  0  0  0  0  0  0  0  0  0  0  0
   -3.2244    5.0596    1.3084 H   0  0  0  0  0  0  0  0  0  0  0  0
   -3.8936    2.6162    1.2612 H   0  0  0  0  0  0  0  0  0  0  0  0
   -3.2211   -8.7456   -0.4057 N   0  0  0  0  0  0  0  0  0  0  0  0
   -3.4815   -9.8174   -0.4763 N   0  0  0  0  0  0  0  0  0  0  0  0
   -2.4352    0.6644    0.5855 O   0  0  0  0  0  0  0  0  0  0  0  0
   -1.5943   -0.4439    0.2031 C   0  0  0  0  0  0  0  0  0  0  0  0
   -2.2048   -1.3314    0.3577 H   0  0  0  0  0  0  0  0  0  0  0  0
   -0.7045   -0.4868    0.8371 H   0  0  0  0  0  0  0  0  0  0  0  0
   -1.3180   -0.3638   -0.8533 H   0  0  0  0  0  0  0  0  0  0  0  0
  1  6  1  0  0  0  0
  2  1  2  0  0  0  0
  2  3  1  0  0  0  0
  3  4  2  0  0  0  0
  4  9  1  0  0  0  0
  5  4  1  0  0  0  0
  5 10  1  0  0  0  0
  6 13  1  0  0  0  0
  6  5  2  0  0  0  0
  7  1  1  0  0  0  0
  8  2  1  0  0  0  0
 12 11  3  0  0  0  0
 14 15  1  0  0  0  0
 14 13  1  0  0  0  0
 14 16  1  0  0  0  0
 17 14  1  0  0  0  0
M  RAD  1   3   2
M  END
