Coordinates from ORCA-job 4-MeO-Ph-N2+-B3LYPG-6-31G_dp-MTMO-d009-169-n900
 OpenBabel09051907383D

 17 16  0  0  0  0  0  0  0  0999 V2000
   -0.6855    2.4195    0.0157 C   0  0  0  0  0  0  0  0  0  0  0  0
   -0.2938    3.7802    0.0084 C   0  0  0  0  0  0  0  0  0  0  0  0
   -1.3777    4.5037    0.3222 C   0  0  0  0  0  0  0  0  0  0  0  0
   -2.5399    4.4148    0.9891 C   0  0  0  0  0  0  0  0  0  0  0  0
   -2.8656    3.0424    0.9828 C   0  0  0  0  0  0  0  0  0  0  0  0
   -1.9544    2.0501    0.5237 C   0  0  0  0  0  0  0  0  0  0  0  0
    0.0170    1.6940   -0.3781 H   0  0  0  0  0  0  0  0  0  0  0  0
    0.6909    4.1299   -0.2806 H   0  0  0  0  0  0  0  0  0  0  0  0
   -3.2167    5.1982    1.3094 H   0  0  0  0  0  0  0  0  0  0  0  0
   -3.8712    2.7506    1.2740 H   0  0  0  0  0  0  0  0  0  0  0  0
   -3.3956   -9.8294   -0.4920 N   0  0  0  0  0  0  0  0  0  0  0  0
   -3.6745  -10.8963   -0.5671 N   0  0  0  0  0  0  0  0  0  0  0  0
   -2.4022    0.8046    0.6046 O   0  0  0  0  0  0  0  0  0  0  0  0
   -1.5552   -0.3002    0.2257 C   0  0  0  0  0  0  0  0  0  0  0  0
   -2.1602   -1.1906    0.3848 H   0  0  0  0  0  0  0  0  0  0  0  0
   -0.6643   -0.3352    0.8585 H   0  0  0  0  0  0  0  0  0  0  0  0
   -1.2808   -0.2229   -0.8315 H   0  0  0  0  0  0  0  0  0  0  0  0
  1  6  1  0  0  0  0
  2  1  2  0  0  0  0
  2  3  1  0  0  0  0
  3  4  2  0  0  0  0
  4  9  1  0  0  0  0
  5  4  1  0  0  0  0
  5 10  1  0  0  0  0
  6 13  1  0  0  0  0
  6  5  2  0  0  0  0
  7  1  1  0  0  0  0
  8  2  1  0  0  0  0
 12 11  3  0  0  0  0
 14 15  1  0  0  0  0
 14 13  1  0  0  0  0
 14 16  1  0  0  0  0
 17 14  1  0  0  0  0
M  RAD  1   3   2
M  END
