Coordinates from ORCA-job 4-MeO-Ph-N2+-B3LYPG-6-31G_dp-MTMO-d009-169-n900
 OpenBabel09051907383D

 17 16  0  0  0  0  0  0  0  0999 V2000
   -1.6688    0.4437    0.1254 C   0  0  0  0  0  0  0  0  0  0  0  0
   -0.3833    0.9860   -0.1396 C   0  0  0  0  0  0  0  0  0  0  0  0
   -0.5074    2.3119   -0.0210 C   0  0  0  0  0  0  0  0  0  0  0  0
   -1.2508    3.2595    0.5726 C   0  0  0  0  0  0  0  0  0  0  0  0
   -2.4974    2.6524    0.8300 C   0  0  0  0  0  0  0  0  0  0  0  0
   -2.7080    1.2607    0.6293 C   0  0  0  0  0  0  0  0  0  0  0  0
   -1.8097   -0.6100   -0.0883 H   0  0  0  0  0  0  0  0  0  0  0  0
    0.4676    0.3890   -0.4568 H   0  0  0  0  0  0  0  0  0  0  0  0
   -1.0492    4.3165    0.7007 H   0  0  0  0  0  0  0  0  0  0  0  0
   -3.3271    3.2840    1.1363 H   0  0  0  0  0  0  0  0  0  0  0  0
    1.9927   -1.5218   -1.1272 N   0  0  0  0  0  0  0  0  0  0  0  0
    2.7154   -2.2911   -1.4529 N   0  0  0  0  0  0  0  0  0  0  0  0
   -3.9260    0.8302    0.9355 O   0  0  0  0  0  0  0  0  0  0  0  0
   -4.2445   -0.5723    0.8397 C   0  0  0  0  0  0  0  0  0  0  0  0
   -5.2857   -0.6511    1.1457 H   0  0  0  0  0  0  0  0  0  0  0  0
   -3.6121   -1.1568    1.5139 H   0  0  0  0  0  0  0  0  0  0  0  0
   -4.1352   -0.9176   -0.1937 H   0  0  0  0  0  0  0  0  0  0  0  0
  1  6  2  0  0  0  0
  2  3  2  0  0  0  0
  2  1  1  0  0  0  0
  3  4  1  0  0  0  0
  4  9  1  0  0  0  0
  4  5  2  0  0  0  0
  5 10  1  0  0  0  0
  6  5  1  0  0  0  0
  6 13  1  0  0  0  0
  7  1  1  0  0  0  0
  8  2  1  0  0  0  0
 12 11  3  0  0  0  0
 14 13  1  0  0  0  0
 14 15  1  0  0  0  0
 14 16  1  0  0  0  0
 17 14  1  0  0  0  0
M  RAD  1   3   2
M  END
