Coordinates from ORCA-job 4-MeO-Ph-N2+-B3LYPG-6-31G_dp-MTMO-d009-169-n900
 OpenBabel09051907383D

 17 16  0  0  0  0  0  0  0  0999 V2000
   -0.6458    2.6776    0.0334 C   0  0  0  0  0  0  0  0  0  0  0  0
   -0.2665    4.0417    0.0206 C   0  0  0  0  0  0  0  0  0  0  0  0
   -1.3566    4.7565    0.3325 C   0  0  0  0  0  0  0  0  0  0  0  0
   -2.5175    4.6597    1.0006 C   0  0  0  0  0  0  0  0  0  0  0  0
   -2.8307    3.2843    1.0000 C   0  0  0  0  0  0  0  0  0  0  0  0
   -1.9108    2.2986    0.5438 C   0  0  0  0  0  0  0  0  0  0  0  0
    0.0630    1.9570   -0.3582 H   0  0  0  0  0  0  0  0  0  0  0  0
    0.7148    4.3993   -0.2706 H   0  0  0  0  0  0  0  0  0  0  0  0
   -3.2012    5.4381    1.3184 H   0  0  0  0  0  0  0  0  0  0  0  0
   -3.8333    2.9845    1.2931 H   0  0  0  0  0  0  0  0  0  0  0  0
   -3.6920  -11.7194   -0.6336 N   0  0  0  0  0  0  0  0  0  0  0  0
   -4.0121  -12.7740   -0.7164 N   0  0  0  0  0  0  0  0  0  0  0  0
   -2.3472    1.0494    0.6300 O   0  0  0  0  0  0  0  0  0  0  0  0
   -1.4904   -0.0490    0.2546 C   0  0  0  0  0  0  0  0  0  0  0  0
   -2.0871   -0.9443    0.4179 H   0  0  0  0  0  0  0  0  0  0  0  0
   -0.5986   -0.0734    0.8868 H   0  0  0  0  0  0  0  0  0  0  0  0
   -1.2176    0.0267   -0.8030 H   0  0  0  0  0  0  0  0  0  0  0  0
  1  6  1  0  0  0  0
  2  1  2  0  0  0  0
  2  3  1  0  0  0  0
  3  4  2  0  0  0  0
  4  9  1  0  0  0  0
  5  4  1  0  0  0  0
  5 10  1  0  0  0  0
  6 13  1  0  0  0  0
  6  5  2  0  0  0  0
  7  1  1  0  0  0  0
  8  2  1  0  0  0  0
 12 11  3  0  0  0  0
 14 15  1  0  0  0  0
 14 13  1  0  0  0  0
 14 16  1  0  0  0  0
 17 14  1  0  0  0  0
M  RAD  1   3   2
M  END
