Coordinates from ORCA-job 4-MeO-Ph-N2+-B3LYPG-6-31G_dp-MTMO-d009-169-n900
 OpenBabel09051907383D

 17 16  0  0  0  0  0  0  0  0999 V2000
   -0.7626    1.7993   -0.0234 C   0  0  0  0  0  0  0  0  0  0  0  0
   -0.4139    3.1694    0.0484 C   0  0  0  0  0  0  0  0  0  0  0  0
   -1.5260    3.8462    0.3712 C   0  0  0  0  0  0  0  0  0  0  0  0
   -2.6967    3.6849    1.0105 C   0  0  0  0  0  0  0  0  0  0  0  0
   -2.9800    2.3059    0.9266 C   0  0  0  0  0  0  0  0  0  0  0  0
   -2.0295    1.3652    0.4375 C   0  0  0  0  0  0  0  0  0  0  0  0
   -0.0301    1.1166   -0.4389 H   0  0  0  0  0  0  0  0  0  0  0  0
    0.5656    3.5623   -0.1999 H   0  0  0  0  0  0  0  0  0  0  0  0
   -3.4045    4.4294    1.3556 H   0  0  0  0  0  0  0  0  0  0  0  0
   -3.9820    1.9697    1.1797 H   0  0  0  0  0  0  0  0  0  0  0  0
   -2.8096   -4.8182    0.0080 N   0  0  0  0  0  0  0  0  0  0  0  0
   -3.1096   -5.8815   -0.0130 N   0  0  0  0  0  0  0  0  0  0  0  0
   -2.4397    0.1048    0.4470 O   0  0  0  0  0  0  0  0  0  0  0  0
   -1.5515   -0.9563    0.0336 C   0  0  0  0  0  0  0  0  0  0  0  0
   -2.1271   -1.8741    0.1400 H   0  0  0  0  0  0  0  0  0  0  0  0
   -0.6705   -0.9902    0.6803 H   0  0  0  0  0  0  0  0  0  0  0  0
   -1.2620   -0.8198   -1.0134 H   0  0  0  0  0  0  0  0  0  0  0  0
  1  2  2  0  0  0  0
  1  6  1  0  0  0  0
  2  3  1  0  0  0  0
  3  4  2  0  0  0  0
  4  9  1  0  0  0  0
  5  4  1  0  0  0  0
  5 10  1  0  0  0  0
  6 13  1  0  0  0  0
  6  5  2  0  0  0  0
  7  1  1  0  0  0  0
  8  2  1  0  0  0  0
 12 11  3  0  0  0  0
 14 15  1  0  0  0  0
 14 13  1  0  0  0  0
 14 16  1  0  0  0  0
 17 14  1  0  0  0  0
M  RAD  1   3   2
M  END
