Coordinates from ORCA-job 4-MeO-Ph-N2+-B3LYPG-6-31G_dp-MTMO-d009-169-n900
 OpenBabel09051907383D

 17 16  0  0  0  0  0  0  0  0999 V2000
   -0.7305    2.1181   -0.0027 C   0  0  0  0  0  0  0  0  0  0  0  0
   -0.3252    3.4746    0.0082 C   0  0  0  0  0  0  0  0  0  0  0  0
   -1.4033    4.2054    0.3252 C   0  0  0  0  0  0  0  0  0  0  0  0
   -2.5694    4.1200    0.9858 C   0  0  0  0  0  0  0  0  0  0  0  0
   -2.9089    2.7512    0.9616 C   0  0  0  0  0  0  0  0  0  0  0  0
   -2.0054    1.7553    0.4948 C   0  0  0  0  0  0  0  0  0  0  0  0
   -0.0334    1.3903   -0.4020 H   0  0  0  0  0  0  0  0  0  0  0  0
    0.6643    3.8179   -0.2722 H   0  0  0  0  0  0  0  0  0  0  0  0
   -3.2398    4.9063    1.3126 H   0  0  0  0  0  0  0  0  0  0  0  0
   -3.9187    2.4660    1.2446 H   0  0  0  0  0  0  0  0  0  0  0  0
   -3.0419   -7.5993   -0.3041 N   0  0  0  0  0  0  0  0  0  0  0  0
   -3.2913   -8.6739   -0.3724 N   0  0  0  0  0  0  0  0  0  0  0  0
   -2.4660    0.5135    0.5588 O   0  0  0  0  0  0  0  0  0  0  0  0
   -1.6283   -0.5954    0.1710 C   0  0  0  0  0  0  0  0  0  0  0  0
   -2.2426   -1.4816    0.3175 H   0  0  0  0  0  0  0  0  0  0  0  0
   -0.7405   -0.6461    0.8071 H   0  0  0  0  0  0  0  0  0  0  0  0
   -1.3487   -0.5089   -0.8840 H   0  0  0  0  0  0  0  0  0  0  0  0
  1  2  2  0  0  0  0
  1  6  1  0  0  0  0
  2  3  1  0  0  0  0
  3  4  2  0  0  0  0
  4  9  1  0  0  0  0
  5  4  1  0  0  0  0
  5 10  1  0  0  0  0
  6 13  1  0  0  0  0
  6  5  2  0  0  0  0
  7  1  1  0  0  0  0
  8  2  1  0  0  0  0
 12 11  3  0  0  0  0
 14 15  1  0  0  0  0
 14 13  1  0  0  0  0
 14 16  1  0  0  0  0
 17 14  1  0  0  0  0
M  RAD  1   3   2
M  END
