Coordinates from ORCA-job 4-MeO-Ph-N2+-B3LYPG-6-31G_dp-MTMO-d009-169-n900
 OpenBabel09051907383D

 17 16  0  0  0  0  0  0  0  0999 V2000
   -0.7049    2.2925    0.0076 C   0  0  0  0  0  0  0  0  0  0  0  0
   -0.3060    3.6511    0.0057 C   0  0  0  0  0  0  0  0  0  0  0  0
   -1.3865    4.3792    0.3207 C   0  0  0  0  0  0  0  0  0  0  0  0
   -2.5500    4.2939    0.9859 C   0  0  0  0  0  0  0  0  0  0  0  0
   -2.8829    2.9232    0.9743 C   0  0  0  0  0  0  0  0  0  0  0  0
   -1.9763    1.9279    0.5127 C   0  0  0  0  0  0  0  0  0  0  0  0
   -0.0057    1.5648   -0.3880 H   0  0  0  0  0  0  0  0  0  0  0  0
    0.6808    3.9968   -0.2809 H   0  0  0  0  0  0  0  0  0  0  0  0
   -3.2231    5.0797    1.3083 H   0  0  0  0  0  0  0  0  0  0  0  0
   -3.8903    2.6357    1.2632 H   0  0  0  0  0  0  0  0  0  0  0  0
   -3.2461   -8.9004   -0.4186 N   0  0  0  0  0  0  0  0  0  0  0  0
   -3.5084   -9.9717   -0.4896 N   0  0  0  0  0  0  0  0  0  0  0  0
   -2.4306    0.6845    0.5886 O   0  0  0  0  0  0  0  0  0  0  0  0
   -1.5889   -0.4234    0.2068 C   0  0  0  0  0  0  0  0  0  0  0  0
   -2.1987   -1.3113    0.3622 H   0  0  0  0  0  0  0  0  0  0  0  0
   -0.6989   -0.4651    0.8405 H   0  0  0  0  0  0  0  0  0  0  0  0
   -1.3130   -0.3439   -0.8497 H   0  0  0  0  0  0  0  0  0  0  0  0
  1  6  1  0  0  0  0
  2  1  2  0  0  0  0
  2  3  1  0  0  0  0
  3  4  2  0  0  0  0
  4  9  1  0  0  0  0
  5  4  1  0  0  0  0
  5 10  1  0  0  0  0
  6 13  1  0  0  0  0
  6  5  2  0  0  0  0
  7  1  1  0  0  0  0
  8  2  1  0  0  0  0
 12 11  3  0  0  0  0
 14 15  1  0  0  0  0
 14 13  1  0  0  0  0
 14 16  1  0  0  0  0
 17 14  1  0  0  0  0
M  RAD  1   3   2
M  END
