Coordinates from ORCA-job 4-MeO-Ph-N2+-B3LYPG-6-31G_dp-MTMO-d009-169-n900
 OpenBabel09051907383D

 17 16  0  0  0  0  0  0  0  0999 V2000
   -0.6435    2.6924    0.0344 C   0  0  0  0  0  0  0  0  0  0  0  0
   -0.2648    4.0567    0.0215 C   0  0  0  0  0  0  0  0  0  0  0  0
   -1.3553    4.7710    0.3333 C   0  0  0  0  0  0  0  0  0  0  0  0
   -2.5161    4.6737    1.0015 C   0  0  0  0  0  0  0  0  0  0  0  0
   -2.8286    3.2982    1.0009 C   0  0  0  0  0  0  0  0  0  0  0  0
   -1.9083    2.3129    0.5449 C   0  0  0  0  0  0  0  0  0  0  0  0
    0.0656    1.9721   -0.3571 H   0  0  0  0  0  0  0  0  0  0  0  0
    0.7163    4.4147   -0.2697 H   0  0  0  0  0  0  0  0  0  0  0  0
   -3.2001    5.4519    1.3192 H   0  0  0  0  0  0  0  0  0  0  0  0
   -3.8312    2.9980    1.2941 H   0  0  0  0  0  0  0  0  0  0  0  0
   -3.7092  -11.8278   -0.6416 N   0  0  0  0  0  0  0  0  0  0  0  0
   -4.0310  -12.8819   -0.7246 N   0  0  0  0  0  0  0  0  0  0  0  0
   -2.3441    1.0635    0.6312 O   0  0  0  0  0  0  0  0  0  0  0  0
   -1.4868   -0.0346    0.2560 C   0  0  0  0  0  0  0  0  0  0  0  0
   -2.0831   -0.9301    0.4193 H   0  0  0  0  0  0  0  0  0  0  0  0
   -0.5951   -0.0585    0.8881 H   0  0  0  0  0  0  0  0  0  0  0  0
   -1.2141    0.0411   -0.8017 H   0  0  0  0  0  0  0  0  0  0  0  0
  1  6  1  0  0  0  0
  2  1  2  0  0  0  0
  2  3  1  0  0  0  0
  3  4  2  0  0  0  0
  4  9  1  0  0  0  0
  5  4  1  0  0  0  0
  5 10  1  0  0  0  0
  6 13  1  0  0  0  0
  6  5  2  0  0  0  0
  7  1  1  0  0  0  0
  8  2  1  0  0  0  0
 12 11  3  0  0  0  0
 14 15  1  0  0  0  0
 14 13  1  0  0  0  0
 14 16  1  0  0  0  0
 17 14  1  0  0  0  0
M  RAD  1   3   2
M  END
