Coordinates from ORCA-job 4-MeO-Ph-N2+-B3LYPG-6-31G_dp-MTMO-d009-169-n900
 OpenBabel09051907383D

 17 16  0  0  0  0  0  0  0  0999 V2000
   -2.2171   -0.1841    0.1433 C   0  0  0  0  0  0  0  0  0  0  0  0
   -0.8659   -0.2248   -0.2821 C   0  0  0  0  0  0  0  0  0  0  0  0
   -0.4375    1.0426   -0.3324 C   0  0  0  0  0  0  0  0  0  0  0  0
   -0.6709    2.2557    0.1925 C   0  0  0  0  0  0  0  0  0  0  0  0
   -2.0160    2.2248    0.6163 C   0  0  0  0  0  0  0  0  0  0  0  0
   -2.7811    1.0258    0.6129 C   0  0  0  0  0  0  0  0  0  0  0  0
   -2.7848   -1.1063    0.0859 H   0  0  0  0  0  0  0  0  0  0  0  0
   -0.3439   -1.1283   -0.5755 H   0  0  0  0  0  0  0  0  0  0  0  0
   -0.0620    3.1515    0.1623 H   0  0  0  0  0  0  0  0  0  0  0  0
   -2.4910    3.1627    0.8915 H   0  0  0  0  0  0  0  0  0  0  0  0
    3.2962    0.7395   -1.0745 N   0  0  0  0  0  0  0  0  0  0  0  0
    4.3697    0.6847   -1.3308 N   0  0  0  0  0  0  0  0  0  0  0  0
   -4.0236    1.1568    1.0600 O   0  0  0  0  0  0  0  0  0  0  0  0
   -4.8809    0.0030    1.1700 C   0  0  0  0  0  0  0  0  0  0  0  0
   -5.8241    0.3831    1.5566 H   0  0  0  0  0  0  0  0  0  0  0  0
   -4.4572   -0.7247    1.8683 H   0  0  0  0  0  0  0  0  0  0  0  0
   -5.0395   -0.4486    0.1854 H   0  0  0  0  0  0  0  0  0  0  0  0
  1  6  2  0  0  0  0
  2  1  1  0  0  0  0
  3  2  2  0  0  0  0
  3  4  1  0  0  0  0
  4  5  2  0  0  0  0
  5 10  1  0  0  0  0
  6  5  1  0  0  0  0
  6 13  1  0  0  0  0
  7  1  1  0  0  0  0
  8  2  1  0  0  0  0
  9  4  1  0  0  0  0
 12 11  3  0  0  0  0
 13 14  1  0  0  0  0
 14 15  1  0  0  0  0
 14 16  1  0  0  0  0
 17 14  1  0  0  0  0
M  RAD  1   3   2
M  END
