Coordinates from ORCA-job 4-MeO-Ph-N2+-B3LYPG-6-31G_dp-MTMO-d009-169-n900
 OpenBabel09051907383D

 17 16  0  0  0  0  0  0  0  0999 V2000
   -0.7133    2.2359    0.0042 C   0  0  0  0  0  0  0  0  0  0  0  0
   -0.3118    3.5936    0.0057 C   0  0  0  0  0  0  0  0  0  0  0  0
   -1.3910    4.3232    0.3213 C   0  0  0  0  0  0  0  0  0  0  0  0
   -2.5552    4.2388    0.9853 C   0  0  0  0  0  0  0  0  0  0  0  0
   -2.8909    2.8688    0.9703 C   0  0  0  0  0  0  0  0  0  0  0  0
   -1.9860    1.8727    0.5073 C   0  0  0  0  0  0  0  0  0  0  0  0
   -0.0153    1.5076   -0.3925 H   0  0  0  0  0  0  0  0  0  0  0  0
    0.6760    3.9379   -0.2793 H   0  0  0  0  0  0  0  0  0  0  0  0
   -3.2270    5.0252    1.3089 H   0  0  0  0  0  0  0  0  0  0  0  0
   -3.8992    2.5827    1.2577 H   0  0  0  0  0  0  0  0  0  0  0  0
   -3.1788   -8.4824   -0.3833 N   0  0  0  0  0  0  0  0  0  0  0  0
   -3.4362   -9.5550   -0.4533 N   0  0  0  0  0  0  0  0  0  0  0  0
   -2.4429    0.6300    0.5800 O   0  0  0  0  0  0  0  0  0  0  0  0
   -1.6031   -0.4788    0.1965 C   0  0  0  0  0  0  0  0  0  0  0  0
   -2.2148   -1.3657    0.3496 H   0  0  0  0  0  0  0  0  0  0  0  0
   -0.7138   -0.5236    0.8309 H   0  0  0  0  0  0  0  0  0  0  0  0
   -1.3262   -0.3976   -0.8596 H   0  0  0  0  0  0  0  0  0  0  0  0
  1  2  2  0  0  0  0
  1  6  1  0  0  0  0
  2  3  1  0  0  0  0
  3  4  2  0  0  0  0
  4  9  1  0  0  0  0
  5  4  1  0  0  0  0
  5 10  1  0  0  0  0
  6 13  1  0  0  0  0
  6  5  2  0  0  0  0
  7  1  1  0  0  0  0
  8  2  1  0  0  0  0
 12 11  3  0  0  0  0
 14 15  1  0  0  0  0
 14 13  1  0  0  0  0
 14 16  1  0  0  0  0
 17 14  1  0  0  0  0
M  RAD  1   3   2
M  END
