Coordinates from ORCA-job 4-MeO-Ph-N2+-B3LYPG-6-31G_dp-MTMO-d009-169-n900
 OpenBabel09051907383D

 17 16  0  0  0  0  0  0  0  0999 V2000
   -0.7308    2.1160   -0.0029 C   0  0  0  0  0  0  0  0  0  0  0  0
   -0.3255    3.4726    0.0082 C   0  0  0  0  0  0  0  0  0  0  0  0
   -1.4036    4.2033    0.3253 C   0  0  0  0  0  0  0  0  0  0  0  0
   -2.5697    4.1179    0.9859 C   0  0  0  0  0  0  0  0  0  0  0  0
   -2.9092    2.7490    0.9614 C   0  0  0  0  0  0  0  0  0  0  0  0
   -2.0058    1.7532    0.4946 C   0  0  0  0  0  0  0  0  0  0  0  0
   -0.0337    1.3883   -0.4022 H   0  0  0  0  0  0  0  0  0  0  0  0
    0.6640    3.8159   -0.2720 H   0  0  0  0  0  0  0  0  0  0  0  0
   -3.2401    4.9041    1.3127 H   0  0  0  0  0  0  0  0  0  0  0  0
   -3.9190    2.4639    1.2444 H   0  0  0  0  0  0  0  0  0  0  0  0
   -3.0396   -7.5838   -0.3027 N   0  0  0  0  0  0  0  0  0  0  0  0
   -3.2889   -8.6584   -0.3709 N   0  0  0  0  0  0  0  0  0  0  0  0
   -2.4663    0.5115    0.5584 O   0  0  0  0  0  0  0  0  0  0  0  0
   -1.6286   -0.5974    0.1705 C   0  0  0  0  0  0  0  0  0  0  0  0
   -2.2430   -1.4837    0.3169 H   0  0  0  0  0  0  0  0  0  0  0  0
   -0.7409   -0.6482    0.8067 H   0  0  0  0  0  0  0  0  0  0  0  0
   -1.3490   -0.5108   -0.8845 H   0  0  0  0  0  0  0  0  0  0  0  0
  1  2  2  0  0  0  0
  1  6  1  0  0  0  0
  2  3  1  0  0  0  0
  3  4  2  0  0  0  0
  4  9  1  0  0  0  0
  5  4  1  0  0  0  0
  5 10  1  0  0  0  0
  6 13  1  0  0  0  0
  6  5  2  0  0  0  0
  7  1  1  0  0  0  0
  8  2  1  0  0  0  0
 12 11  3  0  0  0  0
 14 15  1  0  0  0  0
 14 13  1  0  0  0  0
 14 16  1  0  0  0  0
 17 14  1  0  0  0  0
M  RAD  1   3   2
M  END
