Coordinates from ORCA-job 4-MeO-Ph-N2+-B3LYPG-6-31G_dp-MTMO-d009-169-n900
 OpenBabel09051907383D

 17 16  0  0  0  0  0  0  0  0999 V2000
   -1.6670    0.4476    0.1253 C   0  0  0  0  0  0  0  0  0  0  0  0
   -0.3827    0.9927   -0.1391 C   0  0  0  0  0  0  0  0  0  0  0  0
   -0.5095    2.3183   -0.0199 C   0  0  0  0  0  0  0  0  0  0  0  0
   -1.2550    3.2639    0.5744 C   0  0  0  0  0  0  0  0  0  0  0  0
   -2.5004    2.6542    0.8311 C   0  0  0  0  0  0  0  0  0  0  0  0
   -2.7081    1.2621    0.6295 C   0  0  0  0  0  0  0  0  0  0  0  0
   -1.8058   -0.6062   -0.0893 H   0  0  0  0  0  0  0  0  0  0  0  0
    0.4694    0.3976   -0.4566 H   0  0  0  0  0  0  0  0  0  0  0  0
   -1.0554    4.3212    0.7034 H   0  0  0  0  0  0  0  0  0  0  0  0
   -3.3313    3.2839    1.1377 H   0  0  0  0  0  0  0  0  0  0  0  0
    1.9913   -1.5361   -1.1285 N   0  0  0  0  0  0  0  0  0  0  0  0
    2.7105   -2.3090   -1.4535 N   0  0  0  0  0  0  0  0  0  0  0  0
   -3.9252    0.8290    0.9352 O   0  0  0  0  0  0  0  0  0  0  0  0
   -4.2407   -0.5742    0.8385 C   0  0  0  0  0  0  0  0  0  0  0  0
   -5.2818   -0.6553    1.1445 H   0  0  0  0  0  0  0  0  0  0  0  0
   -3.6072   -1.1578    1.5123 H   0  0  0  0  0  0  0  0  0  0  0  0
   -4.1308   -0.9186   -0.1951 H   0  0  0  0  0  0  0  0  0  0  0  0
  1  6  2  0  0  0  0
  2  3  2  0  0  0  0
  2  1  1  0  0  0  0
  3  4  1  0  0  0  0
  4  9  1  0  0  0  0
  4  5  2  0  0  0  0
  5 10  1  0  0  0  0
  6  5  1  0  0  0  0
  6 13  1  0  0  0  0
  7  1  1  0  0  0  0
  8  2  1  0  0  0  0
 12 11  3  0  0  0  0
 14 13  1  0  0  0  0
 14 15  1  0  0  0  0
 14 16  1  0  0  0  0
 17 14  1  0  0  0  0
M  RAD  1   3   2
M  END
