Coordinates from ORCA-job 4-MeO-Ph-N2+-B3LYPG-6-31G_dp-MTMO-d009-169-n900
 OpenBabel09051907383D

 17 16  0  0  0  0  0  0  0  0999 V2000
   -0.6943    2.3622    0.0120 C   0  0  0  0  0  0  0  0  0  0  0  0
   -0.2993    3.7219    0.0068 C   0  0  0  0  0  0  0  0  0  0  0  0
   -1.3815    4.4476    0.3210 C   0  0  0  0  0  0  0  0  0  0  0  0
   -2.5442    4.3606    0.9873 C   0  0  0  0  0  0  0  0  0  0  0  0
   -2.8733    2.9890    0.9790 C   0  0  0  0  0  0  0  0  0  0  0  0
   -1.9643    1.9952    0.5189 C   0  0  0  0  0  0  0  0  0  0  0  0
    0.0066    1.6355   -0.3825 H   0  0  0  0  0  0  0  0  0  0  0  0
    0.6864    4.0697   -0.2814 H   0  0  0  0  0  0  0  0  0  0  0  0
   -3.2193    5.1452    1.3085 H   0  0  0  0  0  0  0  0  0  0  0  0
   -3.8797    2.6993    1.2694 H   0  0  0  0  0  0  0  0  0  0  0  0
   -3.3287   -9.4113   -0.4598 N   0  0  0  0  0  0  0  0  0  0  0  0
   -3.5988  -10.4805   -0.5327 N   0  0  0  0  0  0  0  0  0  0  0  0
   -2.4151    0.7507    0.5979 O   0  0  0  0  0  0  0  0  0  0  0  0
   -1.5706   -0.3557    0.2178 C   0  0  0  0  0  0  0  0  0  0  0  0
   -2.1779   -1.2449    0.3756 H   0  0  0  0  0  0  0  0  0  0  0  0
   -0.6801   -0.3936    0.8510 H   0  0  0  0  0  0  0  0  0  0  0  0
   -1.2957   -0.2776   -0.8391 H   0  0  0  0  0  0  0  0  0  0  0  0
  1  6  1  0  0  0  0
  2  1  2  0  0  0  0
  2  3  1  0  0  0  0
  3  4  2  0  0  0  0
  4  9  1  0  0  0  0
  5  4  1  0  0  0  0
  5 10  1  0  0  0  0
  6 13  1  0  0  0  0
  6  5  2  0  0  0  0
  7  1  1  0  0  0  0
  8  2  1  0  0  0  0
 12 11  3  0  0  0  0
 14 15  1  0  0  0  0
 14 13  1  0  0  0  0
 14 16  1  0  0  0  0
 17 14  1  0  0  0  0
M  RAD  1   3   2
M  END
