Coordinates from ORCA-job 4-MeO-Ph-N2+-B3LYPG-6-31G_dp-MTMO-d009-169-n900
 OpenBabel09051907383D

 17 16  0  0  0  0  0  0  0  0999 V2000
   -2.1094   -0.1986    0.1373 C   0  0  0  0  0  0  0  0  0  0  0  0
   -0.7578   -0.2736   -0.2901 C   0  0  0  0  0  0  0  0  0  0  0  0
   -0.2929    0.9789   -0.3096 C   0  0  0  0  0  0  0  0  0  0  0  0
   -0.5372    2.2130    0.1569 C   0  0  0  0  0  0  0  0  0  0  0  0
   -1.8831    2.2079    0.5783 C   0  0  0  0  0  0  0  0  0  0  0  0
   -2.6629    1.0224    0.5848 C   0  0  0  0  0  0  0  0  0  0  0  0
   -2.6885   -1.1142    0.0879 H   0  0  0  0  0  0  0  0  0  0  0  0
   -0.2663   -1.1886   -0.5957 H   0  0  0  0  0  0  0  0  0  0  0  0
    0.0904    3.0948    0.1311 H   0  0  0  0  0  0  0  0  0  0  0  0
   -2.3357    3.1522    0.8676 H   0  0  0  0  0  0  0  0  0  0  0  0
    2.4319    0.8333   -0.8747 N   0  0  0  0  0  0  0  0  0  0  0  0
    3.5032    0.7887   -1.1400 N   0  0  0  0  0  0  0  0  0  0  0  0
   -3.9107    1.1731    1.0200 O   0  0  0  0  0  0  0  0  0  0  0  0
   -4.7797    0.0301    1.1245 C   0  0  0  0  0  0  0  0  0  0  0  0
   -5.7223    0.4195    1.5038 H   0  0  0  0  0  0  0  0  0  0  0  0
   -4.3710   -0.7024    1.8274 H   0  0  0  0  0  0  0  0  0  0  0  0
   -4.9376   -0.4229    0.1403 H   0  0  0  0  0  0  0  0  0  0  0  0
  1  6  2  0  0  0  0
  2  1  1  0  0  0  0
  3  2  2  0  0  0  0
  3  4  1  0  0  0  0
  4  5  2  0  0  0  0
  5  6  1  0  0  0  0
  5 10  1  0  0  0  0
  6 13  1  0  0  0  0
  7  1  1  0  0  0  0
  8  2  1  0  0  0  0
  9  4  1  0  0  0  0
 12 11  3  0  0  0  0
 13 14  1  0  0  0  0
 14 15  1  0  0  0  0
 14 16  1  0  0  0  0
 17 14  1  0  0  0  0
M  RAD  1   3   2
M  END
