Coordinates from ORCA-job 4-MeO-Ph-N2+-B3LYPG-6-31G_dp-MTMO-d009-169-n900
 OpenBabel09051907383D

 17 16  0  0  0  0  0  0  0  0999 V2000
   -0.7442    2.0152   -0.0087 C   0  0  0  0  0  0  0  0  0  0  0  0
   -0.3418    3.3725    0.0136 C   0  0  0  0  0  0  0  0  0  0  0  0
   -1.4225    4.0988    0.3321 C   0  0  0  0  0  0  0  0  0  0  0  0
   -2.5906    4.0060    0.9883 C   0  0  0  0  0  0  0  0  0  0  0  0
   -2.9272    2.6367    0.9528 C   0  0  0  0  0  0  0  0  0  0  0  0
   -2.0201    1.6461    0.4818 C   0  0  0  0  0  0  0  0  0  0  0  0
   -0.0443    1.2918   -0.4110 H   0  0  0  0  0  0  0  0  0  0  0  0
    0.6479    3.7198   -0.2608 H   0  0  0  0  0  0  0  0  0  0  0  0
   -3.2637    4.7884    1.3186 H   0  0  0  0  0  0  0  0  0  0  0  0
   -3.9373    2.3474    1.2303 H   0  0  0  0  0  0  0  0  0  0  0  0
   -2.9347   -6.7916   -0.2241 N   0  0  0  0  0  0  0  0  0  0  0  0
   -3.1803   -7.8672   -0.2908 N   0  0  0  0  0  0  0  0  0  0  0  0
   -2.4783    0.4030    0.5352 O   0  0  0  0  0  0  0  0  0  0  0  0
   -1.6370   -0.7016    0.1423 C   0  0  0  0  0  0  0  0  0  0  0  0
   -2.2497   -1.5902    0.2810 H   0  0  0  0  0  0  0  0  0  0  0  0
   -0.7509   -0.7545    0.7806 H   0  0  0  0  0  0  0  0  0  0  0  0
   -1.3546   -0.6073   -0.9113 H   0  0  0  0  0  0  0  0  0  0  0  0
  1  2  2  0  0  0  0
  1  6  1  0  0  0  0
  2  3  1  0  0  0  0
  3  4  2  0  0  0  0
  4  9  1  0  0  0  0
  5  4  1  0  0  0  0
  5 10  1  0  0  0  0
  6 13  1  0  0  0  0
  6  5  2  0  0  0  0
  7  1  1  0  0  0  0
  8  2  1  0  0  0  0
 12 11  3  0  0  0  0
 14 15  1  0  0  0  0
 14 13  1  0  0  0  0
 14 16  1  0  0  0  0
 17 14  1  0  0  0  0
M  RAD  1   3   2
M  END
