Coordinates from ORCA-job 4-MeO-Ph-N2+-B3LYPG-6-31G_dp-MTMO-d009-169-n900
 OpenBabel09051907383D

 17 16  0  0  0  0  0  0  0  0999 V2000
   -0.7183    2.2025    0.0022 C   0  0  0  0  0  0  0  0  0  0  0  0
   -0.3153    3.5598    0.0061 C   0  0  0  0  0  0  0  0  0  0  0  0
   -1.3940    4.2901    0.3220 C   0  0  0  0  0  0  0  0  0  0  0  0
   -2.5587    4.2058    0.9853 C   0  0  0  0  0  0  0  0  0  0  0  0
   -2.8958    2.8363    0.9679 C   0  0  0  0  0  0  0  0  0  0  0  0
   -1.9916    1.8398    0.5039 C   0  0  0  0  0  0  0  0  0  0  0  0
   -0.0207    1.4741   -0.3951 H   0  0  0  0  0  0  0  0  0  0  0  0
    0.6731    3.9035   -0.2778 H   0  0  0  0  0  0  0  0  0  0  0  0
   -3.2298    4.9925    1.3097 H   0  0  0  0  0  0  0  0  0  0  0  0
   -3.9046    2.5507    1.2543 H   0  0  0  0  0  0  0  0  0  0  0  0
   -3.1394   -8.2346   -0.3618 N   0  0  0  0  0  0  0  0  0  0  0  0
   -3.3943   -9.3078   -0.4312 N   0  0  0  0  0  0  0  0  0  0  0  0
   -2.4499    0.5976    0.5744 O   0  0  0  0  0  0  0  0  0  0  0  0
   -1.6110   -0.5115    0.1899 C   0  0  0  0  0  0  0  0  0  0  0  0
   -2.2237   -1.3981    0.3413 H   0  0  0  0  0  0  0  0  0  0  0  0
   -0.7221   -0.5581    0.8247 H   0  0  0  0  0  0  0  0  0  0  0  0
   -1.3334   -0.4291   -0.8660 H   0  0  0  0  0  0  0  0  0  0  0  0
  1  2  2  0  0  0  0
  1  6  1  0  0  0  0
  2  3  1  0  0  0  0
  3  4  2  0  0  0  0
  4  9  1  0  0  0  0
  5  4  1  0  0  0  0
  5 10  1  0  0  0  0
  6 13  1  0  0  0  0
  6  5  2  0  0  0  0
  7  1  1  0  0  0  0
  8  2  1  0  0  0  0
 12 11  3  0  0  0  0
 14 15  1  0  0  0  0
 14 13  1  0  0  0  0
 14 16  1  0  0  0  0
 17 14  1  0  0  0  0
M  RAD  1   3   2
M  END
