Coordinates from ORCA-job 4-MeO-Ph-N2+-B3LYPG-6-31G_dp-MTMO-d009-169-n900
 OpenBabel09051907383D

 17 16  0  0  0  0  0  0  0  0999 V2000
   -0.8833    1.5939   -0.0143 C   0  0  0  0  0  0  0  0  0  0  0  0
   -0.3353    2.8988   -0.0321 C   0  0  0  0  0  0  0  0  0  0  0  0
   -1.3255    3.7486    0.2777 C   0  0  0  0  0  0  0  0  0  0  0  0
   -2.4854    3.7987    0.9539 C   0  0  0  0  0  0  0  0  0  0  0  0
   -2.9703    2.4744    0.9582 C   0  0  0  0  0  0  0  0  0  0  0  0
   -2.1841    1.3786    0.5022 C   0  0  0  0  0  0  0  0  0  0  0  0
   -0.2742    0.7883   -0.4080 H   0  0  0  0  0  0  0  0  0  0  0  0
    0.6820    3.1290   -0.3282 H   0  0  0  0  0  0  0  0  0  0  0  0
   -3.0638    4.6579    1.2725 H   0  0  0  0  0  0  0  0  0  0  0  0
   -4.0019    2.3043    1.2548 H   0  0  0  0  0  0  0  0  0  0  0  0
   -1.9119   -4.4611   -0.2931 N   0  0  0  0  0  0  0  0  0  0  0  0
   -1.9160   -5.5563   -0.4402 N   0  0  0  0  0  0  0  0  0  0  0  0
   -2.7733    0.1953    0.5948 O   0  0  0  0  0  0  0  0  0  0  0  0
   -2.0620   -1.0065    0.2271 C   0  0  0  0  0  0  0  0  0  0  0  0
   -2.7616   -1.8212    0.3970 H   0  0  0  0  0  0  0  0  0  0  0  0
   -1.1789   -1.1358    0.8585 H   0  0  0  0  0  0  0  0  0  0  0  0
   -1.7843   -0.9737   -0.8312 H   0  0  0  0  0  0  0  0  0  0  0  0
  1  6  1  0  0  0  0
  2  1  2  0  0  0  0
  2  3  1  0  0  0  0
  3  4  2  0  0  0  0
  4  5  1  0  0  0  0
  4  9  1  0  0  0  0
  5 10  1  0  0  0  0
  6 13  1  0  0  0  0
  6  5  2  0  0  0  0
  7  1  1  0  0  0  0
  8  2  1  0  0  0  0
 12 11  3  0  0  0  0
 14 15  1  0  0  0  0
 14 13  1  0  0  0  0
 14 16  1  0  0  0  0
 17 14  1  0  0  0  0
M  RAD  1   3   2
M  END
