Coordinates from ORCA-job 4-MeO-Ph-N2+-B3LYPG-6-31G_dp-MTMO-d009-169-n900
 OpenBabel09051907383D

 17 16  0  0  0  0  0  0  0  0999 V2000
   -2.1408   -0.1975    0.1328 C   0  0  0  0  0  0  0  0  0  0  0  0
   -0.7897   -0.2654   -0.2956 C   0  0  0  0  0  0  0  0  0  0  0  0
   -0.3371    0.9918   -0.3295 C   0  0  0  0  0  0  0  0  0  0  0  0
   -0.5684    2.2184    0.1621 C   0  0  0  0  0  0  0  0  0  0  0  0
   -1.9137    2.2091    0.5866 C   0  0  0  0  0  0  0  0  0  0  0  0
   -2.6925    1.0214    0.5905 C   0  0  0  0  0  0  0  0  0  0  0  0
   -2.7199   -1.1129    0.0788 H   0  0  0  0  0  0  0  0  0  0  0  0
   -0.2900   -1.1779   -0.5970 H   0  0  0  0  0  0  0  0  0  0  0  0
    0.0566    3.1024    0.1337 H   0  0  0  0  0  0  0  0  0  0  0  0
   -2.3706    3.1531    0.8704 H   0  0  0  0  0  0  0  0  0  0  0  0
    2.6547    0.8201   -0.9155 N   0  0  0  0  0  0  0  0  0  0  0  0
    3.7285    0.7752   -1.1711 N   0  0  0  0  0  0  0  0  0  0  0  0
   -3.9370    1.1694    1.0322 O   0  0  0  0  0  0  0  0  0  0  0  0
   -4.8051    0.0253    1.1425 C   0  0  0  0  0  0  0  0  0  0  0  0
   -5.7458    0.4147    1.5264 H   0  0  0  0  0  0  0  0  0  0  0  0
   -4.3914   -0.7060    1.8435 H   0  0  0  0  0  0  0  0  0  0  0  0
   -4.9673   -0.4278    0.1590 H   0  0  0  0  0  0  0  0  0  0  0  0
  1  6  2  0  0  0  0
  2  1  1  0  0  0  0
  3  2  2  0  0  0  0
  3  4  1  0  0  0  0
  4  5  2  0  0  0  0
  5  6  1  0  0  0  0
  5 10  1  0  0  0  0
  6 13  1  0  0  0  0
  7  1  1  0  0  0  0
  8  2  1  0  0  0  0
  9  4  1  0  0  0  0
 12 11  3  0  0  0  0
 13 14  1  0  0  0  0
 14 15  1  0  0  0  0
 14 16  1  0  0  0  0
 17 14  1  0  0  0  0
M  RAD  1   3   2
M  END
