Coordinates from ORCA-job p-CH3O-Ph-N2-OOCCF3-B3LYPG-aug-cc-pVDZ-scan-d09-49-n400
 OpenBabel11081710393D

 24 22  0  0  0  0  0  0  0  0999 V2000
   11.8638    8.3380   -1.3391 C   0  0  0  0  0  0  0  0  0  0  0  0
   10.6282    7.8270   -1.7751 C   0  0  0  0  0  0  0  0  0  0  0  0
   10.5767    6.5057   -1.3963 C   0  0  0  0  0  0  0  0  0  0  0  0
   11.3373    5.7117   -0.7894 C   0  0  0  0  0  0  0  0  0  0  0  0
   12.5848    6.1798   -0.3345 C   0  0  0  0  0  0  0  0  0  0  0  0
   12.8161    7.5441   -0.6403 C   0  0  0  0  0  0  0  0  0  0  0  0
   12.1152    9.3799   -1.5367 H   0  0  0  0  0  0  0  0  0  0  0  0
    9.8852    8.4117   -2.3097 H   0  0  0  0  0  0  0  0  0  0  0  0
   10.6663    3.8128   -0.5318 H   0  0  0  0  0  0  0  0  0  0  0  0
   13.3068    5.5677    0.1983 H   0  0  0  0  0  0  0  0  0  0  0  0
    6.7522    6.0398   -3.0892 N   0  0  0  0  0  0  0  0  0  0  0  0
    5.8564    5.4439   -3.3372 N   0  0  0  0  0  0  0  0  0  0  0  0
   13.9566    8.2109   -0.2974 O   0  0  0  0  0  0  0  0  0  0  0  0
   14.9708    7.4972    0.4060 C   0  0  0  0  0  0  0  0  0  0  0  0
   15.7773    8.2172    0.5724 H   0  0  0  0  0  0  0  0  0  0  0  0
   15.3483    6.6529   -0.1907 H   0  0  0  0  0  0  0  0  0  0  0  0
   14.5987    7.1308    1.3749 H   0  0  0  0  0  0  0  0  0  0  0  0
    8.5297    3.0427   -1.3224 O   0  0  0  0  0  0  0  0  0  0  0  0
    9.3719    2.4207   -0.7283 C   0  0  0  0  0  0  0  0  0  0  0  0
   10.5511    2.8585   -0.2958 O   0  0  0  0  0  0  0  0  0  0  0  0
    9.1981    0.9242   -0.3548 C   0  0  0  0  0  0  0  0  0  0  0  0
    9.2600    0.7559    0.9854 F   0  0  0  0  0  0  0  0  0  0  0  0
    8.0170    0.4604   -0.7817 F   0  0  0  0  0  0  0  0  0  0  0  0
   10.1747    0.1752   -0.9148 F   0  0  0  0  0  0  0  0  0  0  0  0
  1  6  2  0  0  0  0
  2  3  2  0  0  0  0
  2  1  1  0  0  0  0
  3  4  1  0  0  0  0
  4  5  2  0  0  0  0
  5 10  1  0  0  0  0
  6  5  1  0  0  0  0
  6 13  1  0  0  0  0
  7  1  1  0  0  0  0
  8  2  1  0  0  0  0
  9 20  1  0  0  0  0
 12 11  3  0  0  0  0
 13 14  1  0  0  0  0
 14 15  1  0  0  0  0
 14 17  1  0  0  0  0
 16 14  1  0  0  0  0
 18 19  2  0  0  0  0
 19 21  1  0  0  0  0
 19 20  1  0  0  0  0
 21 22  1  0  0  0  0
 23 21  1  0  0  0  0
 24 21  1  0  0  0  0
M  RAD  2   3   2   4   2
M  END
