Coordinates from ORCA-job p-CH3O-Ph-N2-OOCCF3-B3LYPG-aug-cc-pVDZ-scan-d09-49-n400
 OpenBabel11081710393D

 24 22  0  0  0  0  0  0  0  0999 V2000
   11.8761    8.3028   -1.3227 C   0  0  0  0  0  0  0  0  0  0  0  0
   10.6511    7.7547   -1.7427 C   0  0  0  0  0  0  0  0  0  0  0  0
   10.6355    6.4364   -1.3478 C   0  0  0  0  0  0  0  0  0  0  0  0
   11.4242    5.6742   -0.7371 C   0  0  0  0  0  0  0  0  0  0  0  0
   12.6624    6.1771   -0.2970 C   0  0  0  0  0  0  0  0  0  0  0  0
   12.8547    7.5432   -0.6217 C   0  0  0  0  0  0  0  0  0  0  0  0
   12.0989    9.3484   -1.5350 H   0  0  0  0  0  0  0  0  0  0  0  0
    9.8894    8.3138   -2.2784 H   0  0  0  0  0  0  0  0  0  0  0  0
   10.7203    3.7661   -0.4921 H   0  0  0  0  0  0  0  0  0  0  0  0
   13.4041    5.5907    0.2375 H   0  0  0  0  0  0  0  0  0  0  0  0
    6.4685    6.0818   -3.2375 N   0  0  0  0  0  0  0  0  0  0  0  0
    5.5986    5.4386   -3.4583 N   0  0  0  0  0  0  0  0  0  0  0  0
   13.9797    8.2443   -0.2964 O   0  0  0  0  0  0  0  0  0  0  0  0
   15.0177    7.5668    0.4079 C   0  0  0  0  0  0  0  0  0  0  0  0
   15.8060    8.3100    0.5590 H   0  0  0  0  0  0  0  0  0  0  0  0
   15.4131    6.7253   -0.1811 H   0  0  0  0  0  0  0  0  0  0  0  0
   14.6629    7.2029    1.3841 H   0  0  0  0  0  0  0  0  0  0  0  0
    8.5708    3.0792   -1.3136 O   0  0  0  0  0  0  0  0  0  0  0  0
    9.3858    2.4204   -0.7215 C   0  0  0  0  0  0  0  0  0  0  0  0
   10.5745    2.8133   -0.2712 O   0  0  0  0  0  0  0  0  0  0  0  0
    9.1599    0.9249   -0.3732 C   0  0  0  0  0  0  0  0  0  0  0  0
    9.2035    0.7341    0.9647 F   0  0  0  0  0  0  0  0  0  0  0  0
    7.9684    0.5068   -0.8180 F   0  0  0  0  0  0  0  0  0  0  0  0
   10.1169    0.1533   -0.9361 F   0  0  0  0  0  0  0  0  0  0  0  0
  1  6  2  0  0  0  0
  2  3  2  0  0  0  0
  2  1  1  0  0  0  0
  3  4  1  0  0  0  0
  4  5  2  0  0  0  0
  5 10  1  0  0  0  0
  6  5  1  0  0  0  0
  6 13  1  0  0  0  0
  7  1  1  0  0  0  0
  8  2  1  0  0  0  0
  9 20  1  0  0  0  0
 12 11  3  0  0  0  0
 13 14  1  0  0  0  0
 14 15  1  0  0  0  0
 14 17  1  0  0  0  0
 16 14  1  0  0  0  0
 18 19  2  0  0  0  0
 19 21  1  0  0  0  0
 19 20  1  0  0  0  0
 21 22  1  0  0  0  0
 23 21  1  0  0  0  0
 24 21  1  0  0  0  0
M  RAD  2   3   2   4   2
M  END
