Coordinates from ORCA-job p-CH3O-Ph-N2-OOCCF3-B3LYPG-aug-cc-pVDZ-scan-d09-49-n400
 OpenBabel11081710393D

 24 22  0  0  0  0  0  0  0  0999 V2000
   11.8704    8.3158   -1.3292 C   0  0  0  0  0  0  0  0  0  0  0  0
   10.6416    7.7804   -1.7546 C   0  0  0  0  0  0  0  0  0  0  0  0
   10.6128    6.4605   -1.3655 C   0  0  0  0  0  0  0  0  0  0  0  0
   11.3923    5.6868   -0.7558 C   0  0  0  0  0  0  0  0  0  0  0  0
   12.6337    6.1791   -0.3111 C   0  0  0  0  0  0  0  0  0  0  0  0
   12.8398    7.5445   -0.6292 C   0  0  0  0  0  0  0  0  0  0  0  0
   12.1030    9.3603   -1.5365 H   0  0  0  0  0  0  0  0  0  0  0  0
    9.8862    8.3482   -2.2899 H   0  0  0  0  0  0  0  0  0  0  0  0
   10.7002    3.7834   -0.5068 H   0  0  0  0  0  0  0  0  0  0  0  0
   13.3690    5.5840    0.2229 H   0  0  0  0  0  0  0  0  0  0  0  0
    6.5983    6.0469   -3.1651 N   0  0  0  0  0  0  0  0  0  0  0  0
    5.7172    5.4235   -3.3975 N   0  0  0  0  0  0  0  0  0  0  0  0
   13.9703    8.2338   -0.2978 O   0  0  0  0  0  0  0  0  0  0  0  0
   15.0003    7.5437    0.4062 C   0  0  0  0  0  0  0  0  0  0  0  0
   15.7950    8.2789    0.5625 H   0  0  0  0  0  0  0  0  0  0  0  0
   15.3894    6.7011   -0.1855 H   0  0  0  0  0  0  0  0  0  0  0  0
   14.6395    7.1788    1.3799 H   0  0  0  0  0  0  0  0  0  0  0  0
    8.5556    3.0731   -1.3192 O   0  0  0  0  0  0  0  0  0  0  0  0
    9.3778    2.4242   -0.7265 C   0  0  0  0  0  0  0  0  0  0  0  0
   10.5636    2.8299   -0.2813 O   0  0  0  0  0  0  0  0  0  0  0  0
    9.1662    0.9282   -0.3712 C   0  0  0  0  0  0  0  0  0  0  0  0
    9.2147    0.7435    0.9674 F   0  0  0  0  0  0  0  0  0  0  0  0
    7.9775    0.4974   -0.8114 F   0  0  0  0  0  0  0  0  0  0  0  0
   10.1289    0.1627   -0.9330 F   0  0  0  0  0  0  0  0  0  0  0  0
  1  6  2  0  0  0  0
  2  3  2  0  0  0  0
  2  1  1  0  0  0  0
  3  4  1  0  0  0  0
  4  5  2  0  0  0  0
  5 10  1  0  0  0  0
  6  5  1  0  0  0  0
  6 13  1  0  0  0  0
  7  1  1  0  0  0  0
  8  2  1  0  0  0  0
  9 20  1  0  0  0  0
 12 11  3  0  0  0  0
 13 14  1  0  0  0  0
 14 15  1  0  0  0  0
 14 17  1  0  0  0  0
 16 14  1  0  0  0  0
 18 19  2  0  0  0  0
 19 21  1  0  0  0  0
 19 20  1  0  0  0  0
 21 22  1  0  0  0  0
 23 21  1  0  0  0  0
 24 21  1  0  0  0  0
M  RAD  2   3   2   4   2
M  END
