Coordinates from ORCA-job p-CH3O-Ph-N2-OOCCF3-B3LYPG-aug-cc-pVDZ-scan-d09-49-n400
 OpenBabel11081710393D

 24 22  0  0  0  0  0  0  0  0999 V2000
   11.7539    8.3623   -1.3991 C   0  0  0  0  0  0  0  0  0  0  0  0
   10.5059    7.8998   -1.8563 C   0  0  0  0  0  0  0  0  0  0  0  0
   10.4148    6.5802   -1.4976 C   0  0  0  0  0  0  0  0  0  0  0  0
   11.1192    5.7243   -0.8989 C   0  0  0  0  0  0  0  0  0  0  0  0
   12.3783    6.1624   -0.4290 C   0  0  0  0  0  0  0  0  0  0  0  0
   12.6669    7.5212   -0.7050 C   0  0  0  0  0  0  0  0  0  0  0  0
   12.0430    9.3981   -1.5764 H   0  0  0  0  0  0  0  0  0  0  0  0
    9.7871    8.5152   -2.3885 H   0  0  0  0  0  0  0  0  0  0  0  0
   10.5928    3.8785   -0.5880 H   0  0  0  0  0  0  0  0  0  0  0  0
   13.0735    5.5171    0.1011 H   0  0  0  0  0  0  0  0  0  0  0  0
    7.8062    6.0686   -2.5923 N   0  0  0  0  0  0  0  0  0  0  0  0
    6.8162    5.7650   -2.9743 N   0  0  0  0  0  0  0  0  0  0  0  0
   13.8274    8.1383   -0.3369 O   0  0  0  0  0  0  0  0  0  0  0  0
   14.8054    7.3741    0.3649 C   0  0  0  0  0  0  0  0  0  0  0  0
   15.6363    8.0601    0.5539 H   0  0  0  0  0  0  0  0  0  0  0  0
   15.1582    6.5271   -0.2429 H   0  0  0  0  0  0  0  0  0  0  0  0
   14.4081    7.0044    1.3223 H   0  0  0  0  0  0  0  0  0  0  0  0
    8.4771    2.9766   -1.3280 O   0  0  0  0  0  0  0  0  0  0  0  0
    9.3606    2.4147   -0.7321 C   0  0  0  0  0  0  0  0  0  0  0  0
   10.5206    2.9192   -0.3295 O   0  0  0  0  0  0  0  0  0  0  0  0
    9.2654    0.9204   -0.3210 C   0  0  0  0  0  0  0  0  0  0  0  0
    9.3557    0.7868    1.0217 F   0  0  0  0  0  0  0  0  0  0  0  0
    8.1019    0.3890   -0.7172 F   0  0  0  0  0  0  0  0  0  0  0  0
   10.2686    0.2056   -0.8793 F   0  0  0  0  0  0  0  0  0  0  0  0
  1  6  2  0  0  0  0
  2  3  2  0  0  0  0
  2  1  1  0  0  0  0
  3  4  1  0  0  0  0
  4  5  2  0  0  0  0
  5 10  1  0  0  0  0
  6  5  1  0  0  0  0
  6 13  1  0  0  0  0
  7  1  1  0  0  0  0
  8  2  1  0  0  0  0
  9 20  1  0  0  0  0
 12 11  3  0  0  0  0
 13 14  1  0  0  0  0
 14 15  1  0  0  0  0
 14 17  1  0  0  0  0
 16 14  1  0  0  0  0
 18 19  2  0  0  0  0
 19 20  1  0  0  0  0
 19 21  1  0  0  0  0
 21 22  1  0  0  0  0
 23 21  1  0  0  0  0
 24 21  1  0  0  0  0
M  RAD  2   3   2   4   2
M  END
