Coordinates from ORCA-job p-CH3O-Ph-N2-OOCCF3-B3LYPG-aug-cc-pVDZ-scan-d09-49-n400
 OpenBabel11081710393D

 24 23  0  0  0  0  0  0  0  0999 V2000
   11.7134    8.1333   -1.5220 C   0  0  0  0  0  0  0  0  0  0  0  0
   10.4660    8.0109   -2.0509 C   0  0  0  0  0  0  0  0  0  0  0  0
    9.7176    6.7555   -1.9350 C   0  0  0  0  0  0  0  0  0  0  0  0
   10.3710    5.6504   -1.2289 C   0  0  0  0  0  0  0  0  0  0  0  0
   11.6321    5.8090   -0.7072 C   0  0  0  0  0  0  0  0  0  0  0  0
   12.3198    7.0334   -0.8399 C   0  0  0  0  0  0  0  0  0  0  0  0
   12.2704    9.0649   -1.6074 H   0  0  0  0  0  0  0  0  0  0  0  0
    9.9833    8.8358   -2.5756 H   0  0  0  0  0  0  0  0  0  0  0  0
    9.8003    4.6827   -1.1378 H   0  0  0  0  0  0  0  0  0  0  0  0
   12.0713    4.9579   -0.1934 H   0  0  0  0  0  0  0  0  0  0  0  0
    8.7631    6.6500   -2.3353 N   0  0  0  0  0  0  0  0  0  0  0  0
    7.7133    6.5386   -2.7780 N   0  0  0  0  0  0  0  0  0  0  0  0
   13.5347    7.2676   -0.3670 O   0  0  0  0  0  0  0  0  0  0  0  0
   14.2419    6.2212    0.3415 C   0  0  0  0  0  0  0  0  0  0  0  0
   15.1991    6.6677    0.6181 H   0  0  0  0  0  0  0  0  0  0  0  0
   14.3981    5.3582   -0.3169 H   0  0  0  0  0  0  0  0  0  0  0  0
   13.6830    5.9279    1.2383 H   0  0  0  0  0  0  0  0  0  0  0  0
    8.4966    1.1635   -0.4685 O   0  0  0  0  0  0  0  0  0  0  0  0
    9.1419    2.2041   -0.5500 C   0  0  0  0  0  0  0  0  0  0  0  0
    8.8667    3.3228   -1.0797 O   0  0  0  0  0  0  0  0  0  0  0  0
   10.5754    2.1877    0.1098 C   0  0  0  0  0  0  0  0  0  0  0  0
   10.7008    3.1606    1.0792 F   0  0  0  0  0  0  0  0  0  0  0  0
   10.9212    1.0278    0.6872 F   0  0  0  0  0  0  0  0  0  0  0  0
   11.5621    2.4776   -0.8087 F   0  0  0  0  0  0  0  0  0  0  0  0
  1  6  2  0  0  0  0
  2  3  2  0  0  0  0
  2  1  1  0  0  0  0
  3  4  1  0  0  0  0
  4  9  1  0  0  0  0
  4  5  2  0  0  0  0
  5 10  1  0  0  0  0
  6  5  1  0  0  0  0
  6 13  1  0  0  0  0
  7  1  1  0  0  0  0
  8  2  1  0  0  0  0
 11  3  1  0  0  0  0
 12 11  1  0  0  0  0
 13 14  1  0  0  0  0
 14 15  1  0  0  0  0
 14 17  1  0  0  0  0
 16 14  1  0  0  0  0
 19 18  1  0  0  0  0
 19 21  1  0  0  0  0
 20 19  2  0  0  0  0
 21 23  1  0  0  0  0
 21 22  1  0  0  0  0
 24 21  1  0  0  0  0
M  RAD  3  11   2  12   3  18   2
M  END
