Coordinates from ORCA-job p-CH3O-Ph-N2-OOCCF3-B3LYPG-aug-cc-pVDZ-scan-d09-49-n400
 OpenBabel11081710393D

 24 22  0  0  0  0  0  0  0  0999 V2000
   11.8282    8.3620   -1.3636 C   0  0  0  0  0  0  0  0  0  0  0  0
   10.5845    7.8834   -1.8136 C   0  0  0  0  0  0  0  0  0  0  0  0
   10.5037    6.5607   -1.4485 C   0  0  0  0  0  0  0  0  0  0  0  0
   11.2363    5.7367   -0.8457 C   0  0  0  0  0  0  0  0  0  0  0  0
   12.4914    6.1769   -0.3786 C   0  0  0  0  0  0  0  0  0  0  0  0
   12.7567    7.5385   -0.6671 C   0  0  0  0  0  0  0  0  0  0  0  0
   12.1046    9.4000   -1.5481 H   0  0  0  0  0  0  0  0  0  0  0  0
    9.8570    8.4879   -2.3469 H   0  0  0  0  0  0  0  0  0  0  0  0
   10.6190    3.8470   -0.5652 H   0  0  0  0  0  0  0  0  0  0  0  0
   13.1959    5.5433    0.1526 H   0  0  0  0  0  0  0  0  0  0  0  0
    7.1714    6.0459   -2.8896 N   0  0  0  0  0  0  0  0  0  0  0  0
    6.2335    5.5446   -3.1865 N   0  0  0  0  0  0  0  0  0  0  0  0
   13.9097    8.1750   -0.3089 O   0  0  0  0  0  0  0  0  0  0  0  0
   14.9020    7.4304    0.3937 C   0  0  0  0  0  0  0  0  0  0  0  0
   15.7237    8.1297    0.5738 H   0  0  0  0  0  0  0  0  0  0  0  0
   15.2643    6.5842   -0.2096 H   0  0  0  0  0  0  0  0  0  0  0  0
   14.5145    7.0620    1.3558 H   0  0  0  0  0  0  0  0  0  0  0  0
    8.4988    3.0021   -1.3251 O   0  0  0  0  0  0  0  0  0  0  0  0
    9.3643    2.4137   -0.7300 C   0  0  0  0  0  0  0  0  0  0  0  0
   10.5334    2.8919   -0.3147 O   0  0  0  0  0  0  0  0  0  0  0  0
    9.2373    0.9181   -0.3341 C   0  0  0  0  0  0  0  0  0  0  0  0
    9.3163    0.7706    1.0077 F   0  0  0  0  0  0  0  0  0  0  0  0
    8.0665    0.4142   -0.7432 F   0  0  0  0  0  0  0  0  0  0  0  0
   10.2303    0.1899   -0.8928 F   0  0  0  0  0  0  0  0  0  0  0  0
  1  6  2  0  0  0  0
  2  3  2  0  0  0  0
  2  1  1  0  0  0  0
  3  4  1  0  0  0  0
  4  5  2  0  0  0  0
  5 10  1  0  0  0  0
  6  5  1  0  0  0  0
  6 13  1  0  0  0  0
  7  1  1  0  0  0  0
  8  2  1  0  0  0  0
  9 20  1  0  0  0  0
 12 11  3  0  0  0  0
 13 14  1  0  0  0  0
 14 15  1  0  0  0  0
 14 17  1  0  0  0  0
 16 14  1  0  0  0  0
 18 19  2  0  0  0  0
 19 21  1  0  0  0  0
 19 20  1  0  0  0  0
 21 22  1  0  0  0  0
 23 21  1  0  0  0  0
 24 21  1  0  0  0  0
M  RAD  2   3   2   4   2
M  END
