Coordinates from ORCA-job p-CH3O-Ph-N2-OOCCF3-B3LYPG-aug-cc-pVDZ-scan-d09-49-n400
 OpenBabel11081710393D

 24 22  0  0  0  0  0  0  0  0999 V2000
   11.7768    8.3690   -1.3902 C   0  0  0  0  0  0  0  0  0  0  0  0
   10.5286    7.9104   -1.8487 C   0  0  0  0  0  0  0  0  0  0  0  0
   10.4285    6.5879   -1.4932 C   0  0  0  0  0  0  0  0  0  0  0  0
   11.1398    5.7398   -0.8936 C   0  0  0  0  0  0  0  0  0  0  0  0
   12.3993    6.1675   -0.4203 C   0  0  0  0  0  0  0  0  0  0  0  0
   12.6887    7.5262   -0.6961 C   0  0  0  0  0  0  0  0  0  0  0  0
   12.0683    9.4043   -1.5663 H   0  0  0  0  0  0  0  0  0  0  0  0
    9.8117    8.5283   -2.3808 H   0  0  0  0  0  0  0  0  0  0  0  0
   10.5919    3.8733   -0.5867 H   0  0  0  0  0  0  0  0  0  0  0  0
   13.0925    5.5201    0.1095 H   0  0  0  0  0  0  0  0  0  0  0  0
    7.6364    6.0702   -2.6742 N   0  0  0  0  0  0  0  0  0  0  0  0
    6.6577    5.7071   -3.0327 N   0  0  0  0  0  0  0  0  0  0  0  0
   13.8498    8.1417   -0.3273 O   0  0  0  0  0  0  0  0  0  0  0  0
   14.8267    7.3761    0.3745 C   0  0  0  0  0  0  0  0  0  0  0  0
   15.6583    8.0610    0.5641 H   0  0  0  0  0  0  0  0  0  0  0  0
   15.1787    6.5289   -0.2336 H   0  0  0  0  0  0  0  0  0  0  0  0
   14.4286    7.0064    1.3316 H   0  0  0  0  0  0  0  0  0  0  0  0
    8.4828    2.9748   -1.3246 O   0  0  0  0  0  0  0  0  0  0  0  0
    9.3645    2.4110   -0.7290 C   0  0  0  0  0  0  0  0  0  0  0  0
   10.5252    2.9165   -0.3264 O   0  0  0  0  0  0  0  0  0  0  0  0
    9.2695    0.9169   -0.3180 C   0  0  0  0  0  0  0  0  0  0  0  0
    9.3602    0.7835    1.0246 F   0  0  0  0  0  0  0  0  0  0  0  0
    8.1060    0.3858   -0.7142 F   0  0  0  0  0  0  0  0  0  0  0  0
   10.2727    0.2025   -0.8765 F   0  0  0  0  0  0  0  0  0  0  0  0
  1  6  2  0  0  0  0
  2  3  2  0  0  0  0
  2  1  1  0  0  0  0
  3  4  1  0  0  0  0
  4  5  2  0  0  0  0
  5 10  1  0  0  0  0
  6  5  1  0  0  0  0
  6 13  1  0  0  0  0
  7  1  1  0  0  0  0
  8  2  1  0  0  0  0
  9 20  1  0  0  0  0
 12 11  3  0  0  0  0
 13 14  1  0  0  0  0
 14 15  1  0  0  0  0
 14 17  1  0  0  0  0
 16 14  1  0  0  0  0
 18 19  2  0  0  0  0
 19 20  1  0  0  0  0
 19 21  1  0  0  0  0
 21 22  1  0  0  0  0
 23 21  1  0  0  0  0
 24 21  1  0  0  0  0
M  RAD  2   3   2   4   2
M  END
