Coordinates from ORCA-job p-CH3O-Ph-N2-OOCCF3-B3LYPG-aug-cc-pVDZ-scan-d09-49-n400
 OpenBabel11081710393D

 24 22  0  0  0  0  0  0  0  0999 V2000
   11.8842    8.2816   -1.3127 C   0  0  0  0  0  0  0  0  0  0  0  0
   10.6647    7.7165   -1.7253 C   0  0  0  0  0  0  0  0  0  0  0  0
   10.6639    6.3995   -1.3238 C   0  0  0  0  0  0  0  0  0  0  0  0
   11.4658    5.6524   -0.7111 C   0  0  0  0  0  0  0  0  0  0  0  0
   12.6993    6.1717   -0.2779 C   0  0  0  0  0  0  0  0  0  0  0  0
   12.8741    7.5380   -0.6110 C   0  0  0  0  0  0  0  0  0  0  0  0
   12.0938    9.3285   -1.5317 H   0  0  0  0  0  0  0  0  0  0  0  0
    9.8948    8.2638   -2.2615 H   0  0  0  0  0  0  0  0  0  0  0  0
   10.7546    3.7378   -0.4674 H   0  0  0  0  0  0  0  0  0  0  0  0
   13.4498    5.5972    0.2574 H   0  0  0  0  0  0  0  0  0  0  0  0
    6.2250    6.1998   -3.3894 N   0  0  0  0  0  0  0  0  0  0  0  0
    5.3698    5.5323   -3.5953 N   0  0  0  0  0  0  0  0  0  0  0  0
   13.9917    8.2544   -0.2935 O   0  0  0  0  0  0  0  0  0  0  0  0
   15.0402    7.5935    0.4111 C   0  0  0  0  0  0  0  0  0  0  0  0
   15.8199    8.3470    0.5553 H   0  0  0  0  0  0  0  0  0  0  0  0
   15.4437    6.7534   -0.1744 H   0  0  0  0  0  0  0  0  0  0  0  0
   14.6929    7.2310    1.3906 H   0  0  0  0  0  0  0  0  0  0  0  0
    8.6043    3.0706   -1.2946 O   0  0  0  0  0  0  0  0  0  0  0  0
    9.4123    2.4029   -0.7034 C   0  0  0  0  0  0  0  0  0  0  0  0
   10.6029    2.7856   -0.2495 O   0  0  0  0  0  0  0  0  0  0  0  0
    9.1743    0.9080   -0.3611 C   0  0  0  0  0  0  0  0  0  0  0  0
    9.2139    0.7119    0.9761 F   0  0  0  0  0  0  0  0  0  0  0  0
    7.9806    0.5007   -0.8097 F   0  0  0  0  0  0  0  0  0  0  0  0
   10.1265    0.1311   -0.9251 F   0  0  0  0  0  0  0  0  0  0  0  0
  1  6  2  0  0  0  0
  2  3  2  0  0  0  0
  2  1  1  0  0  0  0
  3  4  1  0  0  0  0
  4  5  2  0  0  0  0
  5 10  1  0  0  0  0
  6 13  1  0  0  0  0
  6  5  1  0  0  0  0
  7  1  1  0  0  0  0
  8  2  1  0  0  0  0
  9 20  1  0  0  0  0
 12 11  3  0  0  0  0
 13 14  1  0  0  0  0
 14 15  1  0  0  0  0
 14 17  1  0  0  0  0
 16 14  1  0  0  0  0
 18 19  2  0  0  0  0
 19 21  1  0  0  0  0
 19 20  1  0  0  0  0
 21 22  1  0  0  0  0
 23 21  1  0  0  0  0
 24 21  1  0  0  0  0
M  RAD  2   3   2   4   2
M  END
