Coordinates from ORCA-job p-CH3O-Ph-N2-OOCCF3-B3LYPG-aug-cc-pVDZ-scan-d09-49-n400
 OpenBabel11081710393D

 24 22  0  0  0  0  0  0  0  0999 V2000
   11.7982    8.3649   -1.3788 C   0  0  0  0  0  0  0  0  0  0  0  0
   10.5522    7.8963   -1.8331 C   0  0  0  0  0  0  0  0  0  0  0  0
   10.4613    6.5735   -1.4730 C   0  0  0  0  0  0  0  0  0  0  0  0
   11.1843    5.7383   -0.8715 C   0  0  0  0  0  0  0  0  0  0  0  0
   12.4415    6.1717   -0.4012 C   0  0  0  0  0  0  0  0  0  0  0  0
   12.7185    7.5320   -0.6835 C   0  0  0  0  0  0  0  0  0  0  0  0
   12.0820    9.4016   -1.5591 H   0  0  0  0  0  0  0  0  0  0  0  0
    9.8301    8.5077   -2.3658 H   0  0  0  0  0  0  0  0  0  0  0  0
   10.6036    3.8587   -0.5765 H   0  0  0  0  0  0  0  0  0  0  0  0
   13.1405    5.5312    0.1293 H   0  0  0  0  0  0  0  0  0  0  0  0
    7.4398    6.0620   -2.7659 N   0  0  0  0  0  0  0  0  0  0  0  0
    6.4758    5.6406   -3.0996 N   0  0  0  0  0  0  0  0  0  0  0  0
   13.8756    8.1582   -0.3200 O   0  0  0  0  0  0  0  0  0  0  0  0
   14.8604    7.4033    0.3822 C   0  0  0  0  0  0  0  0  0  0  0  0
   15.6869    8.0955    0.5670 H   0  0  0  0  0  0  0  0  0  0  0  0
   15.2176    6.5566   -0.2234 H   0  0  0  0  0  0  0  0  0  0  0  0
   14.4677    7.0342    1.3419 H   0  0  0  0  0  0  0  0  0  0  0  0
    8.4891    2.9862   -1.3249 O   0  0  0  0  0  0  0  0  0  0  0  0
    9.3630    2.4105   -0.7296 C   0  0  0  0  0  0  0  0  0  0  0  0
   10.5280    2.9029   -0.3208 O   0  0  0  0  0  0  0  0  0  0  0  0
    9.2527    0.9156   -0.3258 C   0  0  0  0  0  0  0  0  0  0  0  0
    9.3379    0.7753    1.0164 F   0  0  0  0  0  0  0  0  0  0  0  0
    8.0855    0.3976   -0.7281 F   0  0  0  0  0  0  0  0  0  0  0  0
   10.2509    0.1945   -0.8845 F   0  0  0  0  0  0  0  0  0  0  0  0
  1  6  2  0  0  0  0
  2  3  2  0  0  0  0
  2  1  1  0  0  0  0
  3  4  1  0  0  0  0
  4  5  2  0  0  0  0
  5 10  1  0  0  0  0
  6  5  1  0  0  0  0
  6 13  1  0  0  0  0
  7  1  1  0  0  0  0
  8  2  1  0  0  0  0
  9 20  1  0  0  0  0
 12 11  3  0  0  0  0
 13 14  1  0  0  0  0
 14 15  1  0  0  0  0
 14 17  1  0  0  0  0
 16 14  1  0  0  0  0
 18 19  2  0  0  0  0
 19 21  1  0  0  0  0
 19 20  1  0  0  0  0
 21 22  1  0  0  0  0
 23 21  1  0  0  0  0
 24 21  1  0  0  0  0
M  RAD  2   3   2   4   2
M  END
