Coordinates from ORCA-job p-CH3O-Ph-N2-OOCCF3-B3LYPG-aug-cc-pVDZ-scan-d09-49-n400
 OpenBabel11081710393D

 24 23  0  0  0  0  0  0  0  0999 V2000
   11.7132    8.2762   -1.5463 C   0  0  0  0  0  0  0  0  0  0  0  0
   10.4991    7.7132   -1.9209 C   0  0  0  0  0  0  0  0  0  0  0  0
   10.2880    6.3917   -1.5566 C   0  0  0  0  0  0  0  0  0  0  0  0
   11.1685    5.5840   -0.8607 C   0  0  0  0  0  0  0  0  0  0  0  0
   12.3844    6.1727   -0.4947 C   0  0  0  0  0  0  0  0  0  0  0  0
   12.6591    7.5108   -0.8333 C   0  0  0  0  0  0  0  0  0  0  0  0
   11.9509    9.3088   -1.7956 H   0  0  0  0  0  0  0  0  0  0  0  0
    9.7501    8.2774   -2.4712 H   0  0  0  0  0  0  0  0  0  0  0  0
   10.9192    4.5556   -0.6178 H   0  0  0  0  0  0  0  0  0  0  0  0
   13.1033    5.5703    0.0540 H   0  0  0  0  0  0  0  0  0  0  0  0
    8.8017    5.7724   -2.0428 N   0  0  0  0  0  0  0  0  0  0  0  0
    8.1886    4.8089   -1.9825 N   0  0  0  0  0  0  0  0  0  0  0  0
   13.8067    8.1556   -0.5190 O   0  0  0  0  0  0  0  0  0  0  0  0
   14.8188    7.4488    0.2046 C   0  0  0  0  0  0  0  0  0  0  0  0
   15.6348    8.1640    0.3385 H   0  0  0  0  0  0  0  0  0  0  0  0
   15.1778    6.5812   -0.3676 H   0  0  0  0  0  0  0  0  0  0  0  0
   14.4461    7.1248    1.1870 H   0  0  0  0  0  0  0  0  0  0  0  0
    7.2783    2.1506   -1.1597 O   0  0  0  0  0  0  0  0  0  0  0  0
    8.4405    2.3525   -0.8699 C   0  0  0  0  0  0  0  0  0  0  0  0
    9.1756    3.4082   -1.0242 O   0  0  0  0  0  0  0  0  0  0  0  0
    9.2773    1.2096   -0.1963 C   0  0  0  0  0  0  0  0  0  0  0  0
    9.7944    1.6150    0.9947 F   0  0  0  0  0  0  0  0  0  0  0  0
    8.5425    0.1114    0.0352 F   0  0  0  0  0  0  0  0  0  0  0  0
   10.3242    0.8454   -0.9831 F   0  0  0  0  0  0  0  0  0  0  0  0
  1  6  2  0  0  0  0
  2  3  2  0  0  0  0
  2  1  1  0  0  0  0
  3  4  1  0  0  0  0
  4  9  1  0  0  0  0
  4  5  2  0  0  0  0
  5 10  1  0  0  0  0
  6 13  1  0  0  0  0
  6  5  1  0  0  0  0
  7  1  1  0  0  0  0
  8  2  1  0  0  0  0
 11 12  2  0  0  0  0
 11  3  1  0  0  0  0
 13 14  1  0  0  0  0
 14 15  1  0  0  0  0
 14 17  1  0  0  0  0
 16 14  1  0  0  0  0
 18 19  2  0  0  0  0
 19 21  1  0  0  0  0
 20 19  1  0  0  0  0
 21 23  1  0  0  0  0
 21 22  1  0  0  0  0
 24 21  1  0  0  0  0
M  RAD  2  12   2  20   2
M  END
