Coordinates from ORCA-job p-CH3O-Ph-N2-OOCCF3-B3LYPG-aug-cc-pVDZ-scan-d09-49-n400
 OpenBabel11081710393D

 24 22  0  0  0  0  0  0  0  0999 V2000
   11.7635    8.3674   -1.3961 C   0  0  0  0  0  0  0  0  0  0  0  0
   10.5151    7.9102   -1.8551 C   0  0  0  0  0  0  0  0  0  0  0  0
   10.4140    6.5882   -1.5004 C   0  0  0  0  0  0  0  0  0  0  0  0
   11.1208    5.7347   -0.9012 C   0  0  0  0  0  0  0  0  0  0  0  0
   12.3808    6.1645   -0.4283 C   0  0  0  0  0  0  0  0  0  0  0  0
   12.6734    7.5225   -0.7023 C   0  0  0  0  0  0  0  0  0  0  0  0
   12.0562    9.4025   -1.5714 H   0  0  0  0  0  0  0  0  0  0  0  0
    9.7987    8.5288   -2.3871 H   0  0  0  0  0  0  0  0  0  0  0  0
   10.5906    3.8794   -0.5892 H   0  0  0  0  0  0  0  0  0  0  0  0
   13.0731    5.5157    0.1013 H   0  0  0  0  0  0  0  0  0  0  0  0
    7.7413    6.0706   -2.6240 N   0  0  0  0  0  0  0  0  0  0  0  0
    6.7554    5.7432   -2.9969 N   0  0  0  0  0  0  0  0  0  0  0  0
   13.8354    8.1354   -0.3322 O   0  0  0  0  0  0  0  0  0  0  0  0
   14.8105    7.3673    0.3694 C   0  0  0  0  0  0  0  0  0  0  0  0
   15.6433    8.0505    0.5601 H   0  0  0  0  0  0  0  0  0  0  0  0
   15.1613    6.5201   -0.2392 H   0  0  0  0  0  0  0  0  0  0  0  0
   14.4112    6.9975    1.3260 H   0  0  0  0  0  0  0  0  0  0  0  0
    8.4822    2.9752   -1.3251 O   0  0  0  0  0  0  0  0  0  0  0  0
    9.3657    2.4137   -0.7293 C   0  0  0  0  0  0  0  0  0  0  0  0
   10.5252    2.9215   -0.3280 O   0  0  0  0  0  0  0  0  0  0  0  0
    9.2732    0.9198   -0.3171 C   0  0  0  0  0  0  0  0  0  0  0  0
    9.3647    0.7875    1.0256 F   0  0  0  0  0  0  0  0  0  0  0  0
    8.1103    0.3864   -0.7123 F   0  0  0  0  0  0  0  0  0  0  0  0
   10.2773    0.2064   -0.8754 F   0  0  0  0  0  0  0  0  0  0  0  0
  1  6  2  0  0  0  0
  2  3  2  0  0  0  0
  2  1  1  0  0  0  0
  3  4  1  0  0  0  0
  4  5  2  0  0  0  0
  5 10  1  0  0  0  0
  6  5  1  0  0  0  0
  6 13  1  0  0  0  0
  7  1  1  0  0  0  0
  8  2  1  0  0  0  0
  9 20  1  0  0  0  0
 12 11  3  0  0  0  0
 13 14  1  0  0  0  0
 14 15  1  0  0  0  0
 14 17  1  0  0  0  0
 16 14  1  0  0  0  0
 18 19  2  0  0  0  0
 19 20  1  0  0  0  0
 19 21  1  0  0  0  0
 21 22  1  0  0  0  0
 23 21  1  0  0  0  0
 24 21  1  0  0  0  0
M  RAD  2   3   2   4   2
M  END
