Coordinates from ORCA-job p-CH3O-Ph-N2-OOCCF3-B3LYPG-aug-cc-pVDZ-scan-d09-49-n400
 OpenBabel11081710393D

 24 22  0  0  0  0  0  0  0  0999 V2000
   11.8593    8.3505   -1.3452 C   0  0  0  0  0  0  0  0  0  0  0  0
   10.6200    7.8545   -1.7877 C   0  0  0  0  0  0  0  0  0  0  0  0
   10.5526    6.5316   -1.4159 C   0  0  0  0  0  0  0  0  0  0  0  0
   11.3024    5.7254   -0.8103 C   0  0  0  0  0  0  0  0  0  0  0  0
   12.5533    6.1803   -0.3497 C   0  0  0  0  0  0  0  0  0  0  0  0
   12.8005    7.5433   -0.6476 C   0  0  0  0  0  0  0  0  0  0  0  0
   12.1222    9.3907   -1.5369 H   0  0  0  0  0  0  0  0  0  0  0  0
    9.8849    8.4496   -2.3218 H   0  0  0  0  0  0  0  0  0  0  0  0
   10.6505    3.8292   -0.5445 H   0  0  0  0  0  0  0  0  0  0  0  0
   13.2673    5.5582    0.1825 H   0  0  0  0  0  0  0  0  0  0  0  0
    6.8462    6.0350   -3.0423 N   0  0  0  0  0  0  0  0  0  0  0  0
    5.9422    5.4555   -3.2990 N   0  0  0  0  0  0  0  0  0  0  0  0
   13.9470    8.1960   -0.2975 O   0  0  0  0  0  0  0  0  0  0  0  0
   14.9511    7.4680    0.4057 C   0  0  0  0  0  0  0  0  0  0  0  0
   15.7647    8.1785    0.5784 H   0  0  0  0  0  0  0  0  0  0  0  0
   15.3216    6.6227   -0.1940 H   0  0  0  0  0  0  0  0  0  0  0  0
   14.5719    7.1007    1.3714 H   0  0  0  0  0  0  0  0  0  0  0  0
    8.5211    3.0291   -1.3224 O   0  0  0  0  0  0  0  0  0  0  0  0
    9.3723    2.4204   -0.7281 C   0  0  0  0  0  0  0  0  0  0  0  0
   10.5474    2.8746   -0.3026 O   0  0  0  0  0  0  0  0  0  0  0  0
    9.2174    0.9240   -0.3456 C   0  0  0  0  0  0  0  0  0  0  0  0
    9.2861    0.7639    0.9954 F   0  0  0  0  0  0  0  0  0  0  0  0
    8.0402    0.4440   -0.7654 F   0  0  0  0  0  0  0  0  0  0  0  0
   10.2007    0.1833   -0.9049 F   0  0  0  0  0  0  0  0  0  0  0  0
  1  6  2  0  0  0  0
  2  3  2  0  0  0  0
  2  1  1  0  0  0  0
  3  4  1  0  0  0  0
  4  5  2  0  0  0  0
  5 10  1  0  0  0  0
  6  5  1  0  0  0  0
  6 13  1  0  0  0  0
  7  1  1  0  0  0  0
  8  2  1  0  0  0  0
  9 20  1  0  0  0  0
 12 11  3  0  0  0  0
 13 14  1  0  0  0  0
 14 15  1  0  0  0  0
 14 17  1  0  0  0  0
 16 14  1  0  0  0  0
 18 19  2  0  0  0  0
 19 21  1  0  0  0  0
 19 20  1  0  0  0  0
 21 22  1  0  0  0  0
 23 21  1  0  0  0  0
 24 21  1  0  0  0  0
M  RAD  2   3   2   4   2
M  END
