Coordinates from ORCA-job p-CH3O-Ph-N2-OOCCF3-B3LYPG-aug-cc-pVDZ-scan-d09-49-n400
 OpenBabel11081710393D

 24 23  0  0  0  0  0  0  0  0999 V2000
   11.7093    8.1307   -1.5211 C   0  0  0  0  0  0  0  0  0  0  0  0
   10.4693    8.0450   -2.0592 C   0  0  0  0  0  0  0  0  0  0  0  0
    9.6426    6.7989   -1.9843 C   0  0  0  0  0  0  0  0  0  0  0  0
   10.3133    5.6643   -1.2628 C   0  0  0  0  0  0  0  0  0  0  0  0
   11.5688    5.7988   -0.7357 C   0  0  0  0  0  0  0  0  0  0  0  0
   12.2870    7.0087   -0.8467 C   0  0  0  0  0  0  0  0  0  0  0  0
   12.2874    9.0511   -1.5914 H   0  0  0  0  0  0  0  0  0  0  0  0
    9.9971    8.8788   -2.5805 H   0  0  0  0  0  0  0  0  0  0  0  0
    9.7318    4.6992   -1.1798 H   0  0  0  0  0  0  0  0  0  0  0  0
   11.9868    4.9322   -0.2289 H   0  0  0  0  0  0  0  0  0  0  0  0
    8.8180    6.7375   -2.3396 N   0  0  0  0  0  0  0  0  0  0  0  0
    7.7521    6.6685   -2.8073 N   0  0  0  0  0  0  0  0  0  0  0  0
   13.4988    7.2078   -0.3618 O   0  0  0  0  0  0  0  0  0  0  0  0
   14.1799    6.1369    0.3408 C   0  0  0  0  0  0  0  0  0  0  0  0
   15.1432    6.5615    0.6296 H   0  0  0  0  0  0  0  0  0  0  0  0
   14.3218    5.2798   -0.3280 H   0  0  0  0  0  0  0  0  0  0  0  0
   13.6062    5.8460    1.2288 H   0  0  0  0  0  0  0  0  0  0  0  0
    8.6066    1.1341   -0.4081 O   0  0  0  0  0  0  0  0  0  0  0  0
    9.2216    2.1909   -0.5116 C   0  0  0  0  0  0  0  0  0  0  0  0
    8.9091    3.2916   -1.0581 O   0  0  0  0  0  0  0  0  0  0  0  0
   10.6583    2.2235    0.1398 C   0  0  0  0  0  0  0  0  0  0  0  0
   10.7617    3.2116    1.0965 F   0  0  0  0  0  0  0  0  0  0  0  0
   11.0397    1.0816    0.7287 F   0  0  0  0  0  0  0  0  0  0  0  0
   11.6330    2.5300   -0.7875 F   0  0  0  0  0  0  0  0  0  0  0  0
  1  6  2  0  0  0  0
  2  3  2  0  0  0  0
  2  1  1  0  0  0  0
  3  4  1  0  0  0  0
  4  9  1  0  0  0  0
  4  5  2  0  0  0  0
  5 10  1  0  0  0  0
  6  5  1  0  0  0  0
  6 13  1  0  0  0  0
  7  1  1  0  0  0  0
  8  2  1  0  0  0  0
 11  3  1  0  0  0  0
 12 11  1  0  0  0  0
 13 14  1  0  0  0  0
 14 15  1  0  0  0  0
 14 17  1  0  0  0  0
 16 14  1  0  0  0  0
 19 18  1  0  0  0  0
 19 21  1  0  0  0  0
 20 19  2  0  0  0  0
 21 23  1  0  0  0  0
 21 22  1  0  0  0  0
 24 21  1  0  0  0  0
M  RAD  3  11   2  12   3  18   2
M  END
