Coordinates from ORCA-job p-CH3O-Ph-N2-OOCCF3-B3LYPG-aug-cc-pVDZ-scan-d09-49-n400
 OpenBabel11081710393D

 24 22  0  0  0  0  0  0  0  0999 V2000
   11.7331    8.3618   -1.4088 C   0  0  0  0  0  0  0  0  0  0  0  0
   10.4845    7.9023   -1.8672 C   0  0  0  0  0  0  0  0  0  0  0  0
   10.3906    6.5839   -1.5103 C   0  0  0  0  0  0  0  0  0  0  0  0
   11.0822    5.7121   -0.9131 C   0  0  0  0  0  0  0  0  0  0  0  0
   12.3425    6.1580   -0.4450 C   0  0  0  0  0  0  0  0  0  0  0  0
   12.6404    7.5149   -0.7158 C   0  0  0  0  0  0  0  0  0  0  0  0
   12.0249    9.3970   -1.5845 H   0  0  0  0  0  0  0  0  0  0  0  0
    9.7674    8.5199   -2.3992 H   0  0  0  0  0  0  0  0  0  0  0  0
   10.6019    3.8972   -0.5894 H   0  0  0  0  0  0  0  0  0  0  0  0
   13.0352    5.5092    0.0848 H   0  0  0  0  0  0  0  0  0  0  0  0
    7.9780    6.0377   -2.5003 N   0  0  0  0  0  0  0  0  0  0  0  0
    6.9808    5.7915   -2.9039 N   0  0  0  0  0  0  0  0  0  0  0  0
   13.8034    8.1248   -0.3443 O   0  0  0  0  0  0  0  0  0  0  0  0
   14.7763    7.3535    0.3572 C   0  0  0  0  0  0  0  0  0  0  0  0
   15.6105    8.0345    0.5494 H   0  0  0  0  0  0  0  0  0  0  0  0
   15.1256    6.5062   -0.2521 H   0  0  0  0  0  0  0  0  0  0  0  0
   14.3754    6.9834    1.3130 H   0  0  0  0  0  0  0  0  0  0  0  0
    8.4845    2.9928   -1.3294 O   0  0  0  0  0  0  0  0  0  0  0  0
    9.3687    2.4309   -0.7332 C   0  0  0  0  0  0  0  0  0  0  0  0
   10.5274    2.9339   -0.3308 O   0  0  0  0  0  0  0  0  0  0  0  0
    9.2706    0.9362   -0.3233 C   0  0  0  0  0  0  0  0  0  0  0  0
    9.3599    0.8011    1.0196 F   0  0  0  0  0  0  0  0  0  0  0  0
    8.1065    0.4062   -0.7203 F   0  0  0  0  0  0  0  0  0  0  0  0
   10.2729    0.2197   -0.8813 F   0  0  0  0  0  0  0  0  0  0  0  0
  1  6  2  0  0  0  0
  2  3  2  0  0  0  0
  2  1  1  0  0  0  0
  3  4  1  0  0  0  0
  4  5  2  0  0  0  0
  5 10  1  0  0  0  0
  6  5  1  0  0  0  0
  6 13  1  0  0  0  0
  7  1  1  0  0  0  0
  8  2  1  0  0  0  0
  9 20  1  0  0  0  0
 12 11  3  0  0  0  0
 13 14  1  0  0  0  0
 14 15  1  0  0  0  0
 14 17  1  0  0  0  0
 16 14  1  0  0  0  0
 18 19  2  0  0  0  0
 19 20  1  0  0  0  0
 19 21  1  0  0  0  0
 21 22  1  0  0  0  0
 23 21  1  0  0  0  0
 24 21  1  0  0  0  0
M  RAD  2   3   2   4   2
M  END
