Coordinates from ORCA-job p-CH3O-Ph-N2-OOCCF3-B3LYPG-aug-cc-pVDZ-scan-d09-49-n400
 OpenBabel11081710393D

 24 22  0  0  0  0  0  0  0  0999 V2000
   11.7700    8.3689   -1.3934 C   0  0  0  0  0  0  0  0  0  0  0  0
   10.5216    7.9117   -1.8524 C   0  0  0  0  0  0  0  0  0  0  0  0
   10.4203    6.5895   -1.4977 C   0  0  0  0  0  0  0  0  0  0  0  0
   11.1288    5.7382   -0.8985 C   0  0  0  0  0  0  0  0  0  0  0  0
   12.3887    6.1661   -0.4250 C   0  0  0  0  0  0  0  0  0  0  0  0
   12.6804    7.5244   -0.6995 C   0  0  0  0  0  0  0  0  0  0  0  0
   12.0627    9.4040   -1.5688 H   0  0  0  0  0  0  0  0  0  0  0  0
    9.8054    8.5305   -2.3845 H   0  0  0  0  0  0  0  0  0  0  0  0
   10.5906    3.8766   -0.5884 H   0  0  0  0  0  0  0  0  0  0  0  0
   13.0810    5.5176    0.1046 H   0  0  0  0  0  0  0  0  0  0  0  0
    7.6925    6.0707   -2.6475 N   0  0  0  0  0  0  0  0  0  0  0  0
    6.7099    5.7261   -3.0135 N   0  0  0  0  0  0  0  0  0  0  0  0
   13.8422    8.1379   -0.3298 O   0  0  0  0  0  0  0  0  0  0  0  0
   14.8177    7.3704    0.3719 C   0  0  0  0  0  0  0  0  0  0  0  0
   15.6502    8.0540    0.5624 H   0  0  0  0  0  0  0  0  0  0  0  0
   15.1688    6.5232   -0.2366 H   0  0  0  0  0  0  0  0  0  0  0  0
   14.4186    7.0006    1.3286 H   0  0  0  0  0  0  0  0  0  0  0  0
    8.4822    2.9740   -1.3247 O   0  0  0  0  0  0  0  0  0  0  0  0
    9.3652    2.4120   -0.7290 C   0  0  0  0  0  0  0  0  0  0  0  0
   10.5251    2.9193   -0.3273 O   0  0  0  0  0  0  0  0  0  0  0  0
    9.2722    0.9180   -0.3170 C   0  0  0  0  0  0  0  0  0  0  0  0
    9.3636    0.7856    1.0257 F   0  0  0  0  0  0  0  0  0  0  0  0
    8.1093    0.3851   -0.7124 F   0  0  0  0  0  0  0  0  0  0  0  0
   10.2762    0.2045   -0.8755 F   0  0  0  0  0  0  0  0  0  0  0  0
  1  6  2  0  0  0  0
  2  3  2  0  0  0  0
  2  1  1  0  0  0  0
  3  4  1  0  0  0  0
  4  5  2  0  0  0  0
  5 10  1  0  0  0  0
  6  5  1  0  0  0  0
  6 13  1  0  0  0  0
  7  1  1  0  0  0  0
  8  2  1  0  0  0  0
  9 20  1  0  0  0  0
 12 11  3  0  0  0  0
 13 14  1  0  0  0  0
 14 15  1  0  0  0  0
 14 17  1  0  0  0  0
 16 14  1  0  0  0  0
 18 19  2  0  0  0  0
 19 20  1  0  0  0  0
 19 21  1  0  0  0  0
 21 22  1  0  0  0  0
 23 21  1  0  0  0  0
 24 21  1  0  0  0  0
M  RAD  2   3   2   4   2
M  END
