Coordinates from ORCA-job p-CH3O-Ph-N2-OOCCF3-B3LYPG-aug-cc-pVDZ-scan-d09-49-n400
 OpenBabel11081710393D

 24 22  0  0  0  0  0  0  0  0999 V2000
   11.8474    8.3623   -1.3546 C   0  0  0  0  0  0  0  0  0  0  0  0
   10.6042    7.8823   -1.8039 C   0  0  0  0  0  0  0  0  0  0  0  0
   10.5227    6.5590   -1.4388 C   0  0  0  0  0  0  0  0  0  0  0  0
   11.2592    5.7387   -0.8353 C   0  0  0  0  0  0  0  0  0  0  0  0
   12.5137    6.1788   -0.3684 C   0  0  0  0  0  0  0  0  0  0  0  0
   12.7772    7.5405   -0.6580 C   0  0  0  0  0  0  0  0  0  0  0  0
   12.1225    9.4006   -1.5397 H   0  0  0  0  0  0  0  0  0  0  0  0
    9.8765    8.4868   -2.3373 H   0  0  0  0  0  0  0  0  0  0  0  0
   10.6336    3.8458   -0.5578 H   0  0  0  0  0  0  0  0  0  0  0  0
   13.2190    5.5461    0.1629 H   0  0  0  0  0  0  0  0  0  0  0  0
    6.9987    6.0349   -2.9690 N   0  0  0  0  0  0  0  0  0  0  0  0
    6.0809    5.4854   -3.2415 N   0  0  0  0  0  0  0  0  0  0  0  0
   13.9296    8.1786   -0.3005 O   0  0  0  0  0  0  0  0  0  0  0  0
   14.9231    7.4357    0.4022 C   0  0  0  0  0  0  0  0  0  0  0  0
   15.7439    8.1361    0.5815 H   0  0  0  0  0  0  0  0  0  0  0  0
   15.2862    6.5896   -0.2007 H   0  0  0  0  0  0  0  0  0  0  0  0
   14.5364    7.0675    1.3646 H   0  0  0  0  0  0  0  0  0  0  0  0
    8.5110    3.0142   -1.3228 O   0  0  0  0  0  0  0  0  0  0  0  0
    9.3722    2.4197   -0.7279 C   0  0  0  0  0  0  0  0  0  0  0  0
   10.5433    2.8909   -0.3096 O   0  0  0  0  0  0  0  0  0  0  0  0
    9.2371    0.9238   -0.3360 C   0  0  0  0  0  0  0  0  0  0  0  0
    9.3131    0.7726    1.0056 F   0  0  0  0  0  0  0  0  0  0  0  0
    8.0644    0.4269   -0.7483 F   0  0  0  0  0  0  0  0  0  0  0  0
   10.2274    0.1920   -0.8948 F   0  0  0  0  0  0  0  0  0  0  0  0
  1  6  2  0  0  0  0
  2  3  2  0  0  0  0
  2  1  1  0  0  0  0
  3  4  1  0  0  0  0
  4  5  2  0  0  0  0
  5 10  1  0  0  0  0
  6  5  1  0  0  0  0
  6 13  1  0  0  0  0
  7  1  1  0  0  0  0
  8  2  1  0  0  0  0
  9 20  1  0  0  0  0
 12 11  3  0  0  0  0
 13 14  1  0  0  0  0
 14 15  1  0  0  0  0
 14 17  1  0  0  0  0
 16 14  1  0  0  0  0
 18 19  2  0  0  0  0
 19 21  1  0  0  0  0
 19 20  1  0  0  0  0
 21 22  1  0  0  0  0
 23 21  1  0  0  0  0
 24 21  1  0  0  0  0
M  RAD  2   3   2   4   2
M  END
