Coordinates from ORCA-job p-CH3O-Ph-N2-OOCCF3-B3LYPG-aug-cc-pVDZ-scan-d09-49-n400
 OpenBabel11081710393D

 24 22  0  0  0  0  0  0  0  0999 V2000
   11.8580    8.3532   -1.3467 C   0  0  0  0  0  0  0  0  0  0  0  0
   10.6177    7.8604   -1.7907 C   0  0  0  0  0  0  0  0  0  0  0  0
   10.5487    6.5380   -1.4198 C   0  0  0  0  0  0  0  0  0  0  0  0
   11.2950    5.7287   -0.8149 C   0  0  0  0  0  0  0  0  0  0  0  0
   12.5467    6.1800   -0.3529 C   0  0  0  0  0  0  0  0  0  0  0  0
   12.7971    7.5429   -0.6491 C   0  0  0  0  0  0  0  0  0  0  0  0
   12.1233    9.3931   -1.5372 H   0  0  0  0  0  0  0  0  0  0  0  0
    9.8842    8.4574   -2.3246 H   0  0  0  0  0  0  0  0  0  0  0  0
   10.6473    3.8333   -0.5473 H   0  0  0  0  0  0  0  0  0  0  0  0
   13.2588    5.5556    0.1792 H   0  0  0  0  0  0  0  0  0  0  0  0
    6.8696    6.0318   -3.0300 N   0  0  0  0  0  0  0  0  0  0  0  0
    5.9637    5.4561   -3.2888 N   0  0  0  0  0  0  0  0  0  0  0  0
   13.9447    8.1927   -0.2976 O   0  0  0  0  0  0  0  0  0  0  0  0
   14.9466    7.4616    0.4055 C   0  0  0  0  0  0  0  0  0  0  0  0
   15.7617    8.1700    0.5796 H   0  0  0  0  0  0  0  0  0  0  0  0
   15.3156    6.6161   -0.1948 H   0  0  0  0  0  0  0  0  0  0  0  0
   14.5659    7.0941    1.3706 H   0  0  0  0  0  0  0  0  0  0  0  0
    8.5177    3.0263   -1.3232 O   0  0  0  0  0  0  0  0  0  0  0  0
    9.3716    2.4210   -0.7286 C   0  0  0  0  0  0  0  0  0  0  0  0
   10.5461    2.8786   -0.3045 O   0  0  0  0  0  0  0  0  0  0  0  0
    9.2211    0.9246   -0.3440 C   0  0  0  0  0  0  0  0  0  0  0  0
    9.2915    0.7666    0.9971 F   0  0  0  0  0  0  0  0  0  0  0  0
    8.0449    0.4408   -0.7622 F   0  0  0  0  0  0  0  0  0  0  0  0
   10.2060    0.1860   -0.9032 F   0  0  0  0  0  0  0  0  0  0  0  0
  1  6  2  0  0  0  0
  2  3  2  0  0  0  0
  2  1  1  0  0  0  0
  3  4  1  0  0  0  0
  4  5  2  0  0  0  0
  5 10  1  0  0  0  0
  6  5  1  0  0  0  0
  6 13  1  0  0  0  0
  7  1  1  0  0  0  0
  8  2  1  0  0  0  0
  9 20  1  0  0  0  0
 12 11  3  0  0  0  0
 13 14  1  0  0  0  0
 14 15  1  0  0  0  0
 14 17  1  0  0  0  0
 16 14  1  0  0  0  0
 18 19  2  0  0  0  0
 19 21  1  0  0  0  0
 19 20  1  0  0  0  0
 21 22  1  0  0  0  0
 23 21  1  0  0  0  0
 24 21  1  0  0  0  0
M  RAD  2   3   2   4   2
M  END
