Coordinates from ORCA-job p-CH3O-Ph-N2-OOCCF3-B3LYPG-aug-cc-pVDZ-scan-d09-49-n400
 OpenBabel11081710393D

 24 22  0  0  0  0  0  0  0  0999 V2000
   11.8625    8.3407   -1.3405 C   0  0  0  0  0  0  0  0  0  0  0  0
   10.6260    7.8328   -1.7780 C   0  0  0  0  0  0  0  0  0  0  0  0
   10.5725    6.5116   -1.4002 C   0  0  0  0  0  0  0  0  0  0  0  0
   11.3301    5.7146   -0.7937 C   0  0  0  0  0  0  0  0  0  0  0  0
   12.5784    6.1797   -0.3376 C   0  0  0  0  0  0  0  0  0  0  0  0
   12.8127    7.5440   -0.6419 C   0  0  0  0  0  0  0  0  0  0  0  0
   12.1164    9.3823   -1.5369 H   0  0  0  0  0  0  0  0  0  0  0  0
    9.8847    8.4196   -2.3125 H   0  0  0  0  0  0  0  0  0  0  0  0
   10.6621    3.8162   -0.5349 H   0  0  0  0  0  0  0  0  0  0  0  0
   13.2987    5.5656    0.1952 H   0  0  0  0  0  0  0  0  0  0  0  0
    6.7752    6.0394   -3.0780 N   0  0  0  0  0  0  0  0  0  0  0  0
    5.8771    5.4481   -3.3285 N   0  0  0  0  0  0  0  0  0  0  0  0
   13.9544    8.2081   -0.2976 O   0  0  0  0  0  0  0  0  0  0  0  0
   14.9666    7.4915    0.4058 C   0  0  0  0  0  0  0  0  0  0  0  0
   15.7745    8.2097    0.5734 H   0  0  0  0  0  0  0  0  0  0  0  0
   15.3427    6.6471   -0.1915 H   0  0  0  0  0  0  0  0  0  0  0  0
   14.5931    7.1249    1.3740 H   0  0  0  0  0  0  0  0  0  0  0  0
    8.5258    3.0381   -1.3229 O   0  0  0  0  0  0  0  0  0  0  0  0
    9.3707    2.4200   -0.7287 C   0  0  0  0  0  0  0  0  0  0  0  0
   10.5491    2.8618   -0.2979 O   0  0  0  0  0  0  0  0  0  0  0  0
    9.2019    0.9235   -0.3528 C   0  0  0  0  0  0  0  0  0  0  0  0
    9.2657    0.7574    0.9877 F   0  0  0  0  0  0  0  0  0  0  0  0
    8.0219    0.4553   -0.7777 F   0  0  0  0  0  0  0  0  0  0  0  0
   10.1804    0.1767   -0.9125 F   0  0  0  0  0  0  0  0  0  0  0  0
  1  6  2  0  0  0  0
  2  3  2  0  0  0  0
  2  1  1  0  0  0  0
  3  4  1  0  0  0  0
  4  5  2  0  0  0  0
  5 10  1  0  0  0  0
  6  5  1  0  0  0  0
  6 13  1  0  0  0  0
  7  1  1  0  0  0  0
  8  2  1  0  0  0  0
  9 20  1  0  0  0  0
 12 11  3  0  0  0  0
 13 14  1  0  0  0  0
 14 15  1  0  0  0  0
 14 17  1  0  0  0  0
 16 14  1  0  0  0  0
 18 19  2  0  0  0  0
 19 21  1  0  0  0  0
 19 20  1  0  0  0  0
 21 22  1  0  0  0  0
 23 21  1  0  0  0  0
 24 21  1  0  0  0  0
M  RAD  2   3   2   4   2
M  END
