Coordinates from ORCA-job p-CH3O-Ph-N2-OOCCF3-B3LYPG-aug-cc-pVDZ-scan-d09-49-n400
 OpenBabel11081710393D

 24 22  0  0  0  0  0  0  0  0999 V2000
   11.7427    8.3617   -1.4042 C   0  0  0  0  0  0  0  0  0  0  0  0
   10.4945    7.9000   -1.8618 C   0  0  0  0  0  0  0  0  0  0  0  0
   10.4037    6.5813   -1.5033 C   0  0  0  0  0  0  0  0  0  0  0  0
   11.1010    5.7167   -0.9055 C   0  0  0  0  0  0  0  0  0  0  0  0
   12.3606    6.1604   -0.4370 C   0  0  0  0  0  0  0  0  0  0  0  0
   12.6533    7.5182   -0.7106 C   0  0  0  0  0  0  0  0  0  0  0  0
   12.0326    9.3973   -1.5810 H   0  0  0  0  0  0  0  0  0  0  0  0
    9.7761    8.5159   -2.3940 H   0  0  0  0  0  0  0  0  0  0  0  0
   10.5987    3.8872   -0.5878 H   0  0  0  0  0  0  0  0  0  0  0  0
   13.0550    5.5138    0.0930 H   0  0  0  0  0  0  0  0  0  0  0  0
    7.8977    6.0487   -2.5423 N   0  0  0  0  0  0  0  0  0  0  0  0
    6.9031    5.7773   -2.9363 N   0  0  0  0  0  0  0  0  0  0  0  0
   13.8149    8.1323   -0.3411 O   0  0  0  0  0  0  0  0  0  0  0  0
   14.7907    7.3650    0.3606 C   0  0  0  0  0  0  0  0  0  0  0  0
   15.6230    8.0489    0.5510 H   0  0  0  0  0  0  0  0  0  0  0  0
   15.1420    6.5179   -0.2478 H   0  0  0  0  0  0  0  0  0  0  0  0
   14.3918    6.9951    1.3173 H   0  0  0  0  0  0  0  0  0  0  0  0
    8.4817    2.9869   -1.3289 O   0  0  0  0  0  0  0  0  0  0  0  0
    9.3647    2.4236   -0.7329 C   0  0  0  0  0  0  0  0  0  0  0  0
   10.5244    2.9258   -0.3297 O   0  0  0  0  0  0  0  0  0  0  0  0
    9.2660    0.9290   -0.3233 C   0  0  0  0  0  0  0  0  0  0  0  0
    9.3551    0.7937    1.0195 F   0  0  0  0  0  0  0  0  0  0  0  0
    8.1017    0.3998   -0.7207 F   0  0  0  0  0  0  0  0  0  0  0  0
   10.2681    0.2124   -0.8814 F   0  0  0  0  0  0  0  0  0  0  0  0
  1  6  2  0  0  0  0
  2  3  2  0  0  0  0
  2  1  1  0  0  0  0
  3  4  1  0  0  0  0
  4  5  2  0  0  0  0
  5 10  1  0  0  0  0
  6  5  1  0  0  0  0
  6 13  1  0  0  0  0
  7  1  1  0  0  0  0
  8  2  1  0  0  0  0
  9 20  1  0  0  0  0
 12 11  3  0  0  0  0
 13 14  1  0  0  0  0
 14 15  1  0  0  0  0
 14 17  1  0  0  0  0
 16 14  1  0  0  0  0
 18 19  2  0  0  0  0
 19 20  1  0  0  0  0
 19 21  1  0  0  0  0
 21 22  1  0  0  0  0
 23 21  1  0  0  0  0
 24 21  1  0  0  0  0
M  RAD  2   3   2   4   2
M  END
