Coordinates from ORCA-job p-CH3O-Ph-N2-OOCCF3-B3LYPG-aug-cc-pVDZ-scan-d09-49-n400
 OpenBabel11081710393D

 24 22  0  0  0  0  0  0  0  0999 V2000
   11.7210    8.3594   -1.4139 C   0  0  0  0  0  0  0  0  0  0  0  0
   10.4726    7.9011   -1.8724 C   0  0  0  0  0  0  0  0  0  0  0  0
   10.3750    6.5828   -1.5174 C   0  0  0  0  0  0  0  0  0  0  0  0
   11.0619    5.7042   -0.9203 C   0  0  0  0  0  0  0  0  0  0  0  0
   12.3223    6.1538   -0.4533 C   0  0  0  0  0  0  0  0  0  0  0  0
   12.6254    7.5096   -0.7214 C   0  0  0  0  0  0  0  0  0  0  0  0
   12.0142    9.3942   -1.5888 H   0  0  0  0  0  0  0  0  0  0  0  0
    9.7564    8.5199   -2.4044 H   0  0  0  0  0  0  0  0  0  0  0  0
   10.6098    3.9100   -0.5894 H   0  0  0  0  0  0  0  0  0  0  0  0
   13.0137    5.5033    0.0763 H   0  0  0  0  0  0  0  0  0  0  0  0
    8.0651    6.0263   -2.4547 N   0  0  0  0  0  0  0  0  0  0  0  0
    7.0657    5.8078   -2.8686 N   0  0  0  0  0  0  0  0  0  0  0  0
   13.7897    8.1156   -0.3481 O   0  0  0  0  0  0  0  0  0  0  0  0
   14.7598    7.3405    0.3532 C   0  0  0  0  0  0  0  0  0  0  0  0
   15.5958    8.0190    0.5470 H   0  0  0  0  0  0  0  0  0  0  0  0
   15.1071    6.4931   -0.2570 H   0  0  0  0  0  0  0  0  0  0  0  0
   14.3570    6.9703    1.3081 H   0  0  0  0  0  0  0  0  0  0  0  0
    8.4920    3.0049   -1.3296 O   0  0  0  0  0  0  0  0  0  0  0  0
    9.3762    2.4422   -0.7331 C   0  0  0  0  0  0  0  0  0  0  0  0
   10.5341    2.9439   -0.3306 O   0  0  0  0  0  0  0  0  0  0  0  0
    9.2758    0.9474   -0.3242 C   0  0  0  0  0  0  0  0  0  0  0  0
    9.3641    0.8111    1.0186 F   0  0  0  0  0  0  0  0  0  0  0  0
    8.1112    0.4187   -0.7221 F   0  0  0  0  0  0  0  0  0  0  0  0
   10.2774    0.2298   -0.8821 F   0  0  0  0  0  0  0  0  0  0  0  0
  1  6  2  0  0  0  0
  2  3  2  0  0  0  0
  2  1  1  0  0  0  0
  3  4  1  0  0  0  0
  4  5  2  0  0  0  0
  5 10  1  0  0  0  0
  6  5  1  0  0  0  0
  6 13  1  0  0  0  0
  7  1  1  0  0  0  0
  8  2  1  0  0  0  0
  9 20  1  0  0  0  0
 12 11  3  0  0  0  0
 13 14  1  0  0  0  0
 14 15  1  0  0  0  0
 14 17  1  0  0  0  0
 16 14  1  0  0  0  0
 18 19  2  0  0  0  0
 19 20  1  0  0  0  0
 19 21  1  0  0  0  0
 21 22  1  0  0  0  0
 23 21  1  0  0  0  0
 24 21  1  0  0  0  0
M  RAD  2   3   2   4   2
M  END
