Coordinates from ORCA-job p-CH3O-Ph-N2-OOCCF3-B3LYPG-aug-cc-pVDZ-scan-d09-49-n400
 OpenBabel11081710393D

 24 22  0  0  0  0  0  0  0  0999 V2000
   11.8392    8.3621   -1.3584 C   0  0  0  0  0  0  0  0  0  0  0  0
   10.5958    7.8827   -1.8080 C   0  0  0  0  0  0  0  0  0  0  0  0
   10.5139    6.5594   -1.4432 C   0  0  0  0  0  0  0  0  0  0  0  0
   11.2495    5.7381   -0.8398 C   0  0  0  0  0  0  0  0  0  0  0  0
   12.5042    6.1780   -0.3727 C   0  0  0  0  0  0  0  0  0  0  0  0
   12.7685    7.5397   -0.6619 C   0  0  0  0  0  0  0  0  0  0  0  0
   12.1148    9.4003   -1.5433 H   0  0  0  0  0  0  0  0  0  0  0  0
    9.8684    8.4874   -2.3413 H   0  0  0  0  0  0  0  0  0  0  0  0
   10.6269    3.8461   -0.5611 H   0  0  0  0  0  0  0  0  0  0  0  0
   13.2092    5.5449    0.1585 H   0  0  0  0  0  0  0  0  0  0  0  0
    7.0721    6.0415   -2.9359 N   0  0  0  0  0  0  0  0  0  0  0  0
    6.1454    5.5126   -3.2189 N   0  0  0  0  0  0  0  0  0  0  0  0
   13.9211    8.1771   -0.3041 O   0  0  0  0  0  0  0  0  0  0  0  0
   14.9141    7.4335    0.3986 C   0  0  0  0  0  0  0  0  0  0  0  0
   15.7353    8.1334    0.5782 H   0  0  0  0  0  0  0  0  0  0  0  0
   15.2769    6.5873   -0.2045 H   0  0  0  0  0  0  0  0  0  0  0  0
   14.5271    7.0652    1.3608 H   0  0  0  0  0  0  0  0  0  0  0  0
    8.5056    3.0082   -1.3236 O   0  0  0  0  0  0  0  0  0  0  0  0
    9.3688    2.4166   -0.7287 C   0  0  0  0  0  0  0  0  0  0  0  0
   10.5390    2.8912   -0.3118 O   0  0  0  0  0  0  0  0  0  0  0  0
    9.2376    0.9209   -0.3348 C   0  0  0  0  0  0  0  0  0  0  0  0
    9.3150    0.7714    1.0069 F   0  0  0  0  0  0  0  0  0  0  0  0
    8.0657    0.4206   -0.7456 F   0  0  0  0  0  0  0  0  0  0  0  0
   10.2291    0.1907   -0.8936 F   0  0  0  0  0  0  0  0  0  0  0  0
  1  6  2  0  0  0  0
  2  3  2  0  0  0  0
  2  1  1  0  0  0  0
  3  4  1  0  0  0  0
  4  5  2  0  0  0  0
  5 10  1  0  0  0  0
  6  5  1  0  0  0  0
  6 13  1  0  0  0  0
  7  1  1  0  0  0  0
  8  2  1  0  0  0  0
  9 20  1  0  0  0  0
 12 11  3  0  0  0  0
 13 14  1  0  0  0  0
 14 15  1  0  0  0  0
 14 17  1  0  0  0  0
 16 14  1  0  0  0  0
 18 19  2  0  0  0  0
 19 21  1  0  0  0  0
 19 20  1  0  0  0  0
 21 22  1  0  0  0  0
 23 21  1  0  0  0  0
 24 21  1  0  0  0  0
M  RAD  2   3   2   4   2
M  END
