Coordinates from ORCA-job p-CH3O-Ph-N2-OOCCF3-B3LYPG-aug-cc-pVDZ-scan-d09-49-n400
 OpenBabel11081710393D

 24 22  0  0  0  0  0  0  0  0999 V2000
   11.8682    8.3227   -1.3323 C   0  0  0  0  0  0  0  0  0  0  0  0
   10.6374    7.7944   -1.7608 C   0  0  0  0  0  0  0  0  0  0  0  0
   10.6017    6.4740   -1.3748 C   0  0  0  0  0  0  0  0  0  0  0  0
   11.3755    5.6937   -0.7658 C   0  0  0  0  0  0  0  0  0  0  0  0
   12.6188    6.1797   -0.3184 C   0  0  0  0  0  0  0  0  0  0  0  0
   12.8324    7.5447   -0.6327 C   0  0  0  0  0  0  0  0  0  0  0  0
   12.1063    9.3664   -1.5368 H   0  0  0  0  0  0  0  0  0  0  0  0
    9.8856    8.3672   -2.2959 H   0  0  0  0  0  0  0  0  0  0  0  0
   10.6897    3.7923   -0.5144 H   0  0  0  0  0  0  0  0  0  0  0  0
   13.3502    5.5797    0.2153 H   0  0  0  0  0  0  0  0  0  0  0  0
    6.6504    6.0410   -3.1384 N   0  0  0  0  0  0  0  0  0  0  0  0
    5.7643    5.4266   -3.3760 N   0  0  0  0  0  0  0  0  0  0  0  0
   13.9660    8.2273   -0.2979 O   0  0  0  0  0  0  0  0  0  0  0  0
   14.9913    7.5301    0.4059 C   0  0  0  0  0  0  0  0  0  0  0  0
   15.7896    8.2609    0.5652 H   0  0  0  0  0  0  0  0  0  0  0  0
   15.3770    6.6871   -0.1873 H   0  0  0  0  0  0  0  0  0  0  0  0
   14.6272    7.1648    1.3782 H   0  0  0  0  0  0  0  0  0  0  0  0
    8.5478    3.0653   -1.3206 O   0  0  0  0  0  0  0  0  0  0  0  0
    9.3754    2.4237   -0.7275 C   0  0  0  0  0  0  0  0  0  0  0  0
   10.5593    2.8385   -0.2859 O   0  0  0  0  0  0  0  0  0  0  0  0
    9.1743    0.9275   -0.3672 C   0  0  0  0  0  0  0  0  0  0  0  0
    9.2264    0.7473    0.9719 F   0  0  0  0  0  0  0  0  0  0  0  0
    7.9876    0.4875   -0.8037 F   0  0  0  0  0  0  0  0  0  0  0  0
   10.1409    0.1665   -0.9283 F   0  0  0  0  0  0  0  0  0  0  0  0
  1  6  2  0  0  0  0
  2  3  2  0  0  0  0
  2  1  1  0  0  0  0
  3  4  1  0  0  0  0
  4  5  2  0  0  0  0
  5 10  1  0  0  0  0
  6  5  1  0  0  0  0
  6 13  1  0  0  0  0
  7  1  1  0  0  0  0
  8  2  1  0  0  0  0
  9 20  1  0  0  0  0
 12 11  3  0  0  0  0
 13 14  1  0  0  0  0
 14 15  1  0  0  0  0
 14 17  1  0  0  0  0
 16 14  1  0  0  0  0
 18 19  2  0  0  0  0
 19 21  1  0  0  0  0
 19 20  1  0  0  0  0
 21 22  1  0  0  0  0
 23 21  1  0  0  0  0
 24 21  1  0  0  0  0
M  RAD  2   3   2   4   2
M  END
