Coordinates from ORCA-job p-CH3O-Ph-N2-OOCCF3-B3LYPG-aug-cc-pVDZ-scan-d09-49-n400
 OpenBabel11081710393D

 24 23  0  0  0  0  0  0  0  0999 V2000
   11.7315    8.3007   -1.5421 C   0  0  0  0  0  0  0  0  0  0  0  0
   10.5077    7.7609   -1.9335 C   0  0  0  0  0  0  0  0  0  0  0  0
   10.3112    6.4462   -1.5702 C   0  0  0  0  0  0  0  0  0  0  0  0
   11.1466    5.6003   -0.8848 C   0  0  0  0  0  0  0  0  0  0  0  0
   12.3701    6.1768   -0.5066 C   0  0  0  0  0  0  0  0  0  0  0  0
   12.6621    7.5145   -0.8310 C   0  0  0  0  0  0  0  0  0  0  0  0
   11.9832    9.3328   -1.7799 H   0  0  0  0  0  0  0  0  0  0  0  0
    9.7664    8.3350   -2.4825 H   0  0  0  0  0  0  0  0  0  0  0  0
   10.8743    4.5731   -0.6575 H   0  0  0  0  0  0  0  0  0  0  0  0
   13.0768    5.5586    0.0405 H   0  0  0  0  0  0  0  0  0  0  0  0
    8.7003    5.7842   -2.1063 N   0  0  0  0  0  0  0  0  0  0  0  0
    8.1149    4.8144   -2.0322 N   0  0  0  0  0  0  0  0  0  0  0  0
   13.8163    8.1424   -0.5032 O   0  0  0  0  0  0  0  0  0  0  0  0
   14.8141    7.4150    0.2194 C   0  0  0  0  0  0  0  0  0  0  0  0
   15.6387    8.1176    0.3660 H   0  0  0  0  0  0  0  0  0  0  0  0
   15.1654    6.5484   -0.3593 H   0  0  0  0  0  0  0  0  0  0  0  0
   14.4309    7.0860    1.1962 H   0  0  0  0  0  0  0  0  0  0  0  0
    7.2917    2.1118   -1.1185 O   0  0  0  0  0  0  0  0  0  0  0  0
    8.4578    2.3339   -0.8507 C   0  0  0  0  0  0  0  0  0  0  0  0
    9.1772    3.3896   -1.0293 O   0  0  0  0  0  0  0  0  0  0  0  0
    9.3136    1.2033   -0.1752 C   0  0  0  0  0  0  0  0  0  0  0  0
    9.8546    1.6292    0.9989 F   0  0  0  0  0  0  0  0  0  0  0  0
    8.5912    0.1040    0.0907 F   0  0  0  0  0  0  0  0  0  0  0  0
   10.3466    0.8303   -0.9771 F   0  0  0  0  0  0  0  0  0  0  0  0
  1  6  2  0  0  0  0
  2  3  2  0  0  0  0
  2  1  1  0  0  0  0
  3  4  1  0  0  0  0
  4  9  1  0  0  0  0
  4  5  2  0  0  0  0
  5 10  1  0  0  0  0
  6  5  1  0  0  0  0
  6 13  1  0  0  0  0
  7  1  1  0  0  0  0
  8  2  1  0  0  0  0
 11 12  2  0  0  0  0
 11  3  1  0  0  0  0
 13 14  1  0  0  0  0
 14 15  1  0  0  0  0
 14 17  1  0  0  0  0
 16 14  1  0  0  0  0
 18 19  2  0  0  0  0
 19 21  1  0  0  0  0
 20 19  1  0  0  0  0
 21 23  1  0  0  0  0
 21 22  1  0  0  0  0
 24 21  1  0  0  0  0
M  RAD  2  12   2  20   2
M  END
