Coordinates from ORCA-job p-CH3O-Ph-N2-OOCCF3-B3LYPG-aug-cc-pVDZ-scan-d09-49-n400
 OpenBabel11081710393D

 24 22  0  0  0  0  0  0  0  0999 V2000
   11.8712    8.3130   -1.3280 C   0  0  0  0  0  0  0  0  0  0  0  0
   10.6432    7.7746   -1.7521 C   0  0  0  0  0  0  0  0  0  0  0  0
   10.6185    6.4555   -1.3613 C   0  0  0  0  0  0  0  0  0  0  0  0
   11.3996    5.6844   -0.7516 C   0  0  0  0  0  0  0  0  0  0  0  0
   12.6404    6.1786   -0.3078 C   0  0  0  0  0  0  0  0  0  0  0  0
   12.8430    7.5443   -0.6276 C   0  0  0  0  0  0  0  0  0  0  0  0
   12.1014    9.3578   -1.5365 H   0  0  0  0  0  0  0  0  0  0  0  0
    9.8862    8.3402   -2.2875 H   0  0  0  0  0  0  0  0  0  0  0  0
   10.7043    3.7800   -0.5038 H   0  0  0  0  0  0  0  0  0  0  0  0
   13.3770    5.5854    0.2263 H   0  0  0  0  0  0  0  0  0  0  0  0
    6.5770    6.0492   -3.1760 N   0  0  0  0  0  0  0  0  0  0  0  0
    5.6980    5.4219   -3.4062 N   0  0  0  0  0  0  0  0  0  0  0  0
   13.9721    8.2365   -0.2977 O   0  0  0  0  0  0  0  0  0  0  0  0
   15.0041    7.5494    0.4063 C   0  0  0  0  0  0  0  0  0  0  0  0
   15.7972    8.2865    0.5613 H   0  0  0  0  0  0  0  0  0  0  0  0
   15.3947    6.7071   -0.1847 H   0  0  0  0  0  0  0  0  0  0  0  0
   14.6448    7.1848    1.3807 H   0  0  0  0  0  0  0  0  0  0  0  0
    8.5573    3.0756   -1.3191 O   0  0  0  0  0  0  0  0  0  0  0  0
    9.3780    2.4244   -0.7264 C   0  0  0  0  0  0  0  0  0  0  0  0
   10.5648    2.8267   -0.2797 O   0  0  0  0  0  0  0  0  0  0  0  0
    9.1628    0.9285   -0.3729 C   0  0  0  0  0  0  0  0  0  0  0  0
    9.2101    0.7423    0.9655 F   0  0  0  0  0  0  0  0  0  0  0  0
    7.9735    0.5008   -0.8142 F   0  0  0  0  0  0  0  0  0  0  0  0
   10.1241    0.1615   -0.9350 F   0  0  0  0  0  0  0  0  0  0  0  0
  1  6  2  0  0  0  0
  2  3  2  0  0  0  0
  2  1  1  0  0  0  0
  3  4  1  0  0  0  0
  4  5  2  0  0  0  0
  5 10  1  0  0  0  0
  6  5  1  0  0  0  0
  6 13  1  0  0  0  0
  7  1  1  0  0  0  0
  8  2  1  0  0  0  0
  9 20  1  0  0  0  0
 12 11  3  0  0  0  0
 13 14  1  0  0  0  0
 14 15  1  0  0  0  0
 14 17  1  0  0  0  0
 16 14  1  0  0  0  0
 18 19  2  0  0  0  0
 19 21  1  0  0  0  0
 19 20  1  0  0  0  0
 21 22  1  0  0  0  0
 23 21  1  0  0  0  0
 24 21  1  0  0  0  0
M  RAD  2   3   2   4   2
M  END
