Coordinates from ORCA-job p-CH3O-Ph-N2-OOCCF3-B3LYPG-aug-cc-pVDZ-scan-d09-49-n400
 OpenBabel11081710393D

 24 22  0  0  0  0  0  0  0  0999 V2000
   11.7485    8.3631   -1.4019 C   0  0  0  0  0  0  0  0  0  0  0  0
   10.5003    7.9038   -1.8602 C   0  0  0  0  0  0  0  0  0  0  0  0
   10.4037    6.5836   -1.5039 C   0  0  0  0  0  0  0  0  0  0  0  0
   11.1061    5.7252   -0.9055 C   0  0  0  0  0  0  0  0  0  0  0  0
   12.3658    6.1608   -0.4345 C   0  0  0  0  0  0  0  0  0  0  0  0
   12.6587    7.5188   -0.7082 C   0  0  0  0  0  0  0  0  0  0  0  0
   12.0399    9.3984   -1.5780 H   0  0  0  0  0  0  0  0  0  0  0  0
    9.7831    8.5213   -2.3923 H   0  0  0  0  0  0  0  0  0  0  0  0
   10.5953    3.8847   -0.5887 H   0  0  0  0  0  0  0  0  0  0  0  0
   13.0588    5.5128    0.0953 H   0  0  0  0  0  0  0  0  0  0  0  0
    7.8508    6.0639   -2.5695 N   0  0  0  0  0  0  0  0  0  0  0  0
    6.8595    5.7686   -2.9546 N   0  0  0  0  0  0  0  0  0  0  0  0
   13.8205    8.1321   -0.3383 O   0  0  0  0  0  0  0  0  0  0  0  0
   14.7958    7.3641    0.3634 C   0  0  0  0  0  0  0  0  0  0  0  0
   15.6285    8.0475    0.5540 H   0  0  0  0  0  0  0  0  0  0  0  0
   15.1467    6.5169   -0.2452 H   0  0  0  0  0  0  0  0  0  0  0  0
   14.3966    6.9942    1.3199 H   0  0  0  0  0  0  0  0  0  0  0  0
    8.4826    2.9822   -1.3271 O   0  0  0  0  0  0  0  0  0  0  0  0
    9.3659    2.4198   -0.7311 C   0  0  0  0  0  0  0  0  0  0  0  0
   10.5255    2.9248   -0.3288 O   0  0  0  0  0  0  0  0  0  0  0  0
    9.2702    0.9256   -0.3203 C   0  0  0  0  0  0  0  0  0  0  0  0
    9.3604    0.7918    1.0225 F   0  0  0  0  0  0  0  0  0  0  0  0
    8.1066    0.3944   -0.7166 F   0  0  0  0  0  0  0  0  0  0  0  0
   10.2733    0.2106   -0.8785 F   0  0  0  0  0  0  0  0  0  0  0  0
  1  6  2  0  0  0  0
  2  3  2  0  0  0  0
  2  1  1  0  0  0  0
  3  4  1  0  0  0  0
  4  5  2  0  0  0  0
  5 10  1  0  0  0  0
  6  5  1  0  0  0  0
  6 13  1  0  0  0  0
  7  1  1  0  0  0  0
  8  2  1  0  0  0  0
  9 20  1  0  0  0  0
 12 11  3  0  0  0  0
 13 14  1  0  0  0  0
 14 15  1  0  0  0  0
 14 17  1  0  0  0  0
 16 14  1  0  0  0  0
 18 19  2  0  0  0  0
 19 20  1  0  0  0  0
 19 21  1  0  0  0  0
 21 22  1  0  0  0  0
 23 21  1  0  0  0  0
 24 21  1  0  0  0  0
M  RAD  2   3   2   4   2
M  END
