Coordinates from ORCA-job p-CH3O-Ph-N2-OOCCF3-B3LYPG-aug-cc-pVDZ-scan-d09-49-n400
 OpenBabel11081710393D

 24 22  0  0  0  0  0  0  0  0999 V2000
   11.7908    8.3669   -1.3829 C   0  0  0  0  0  0  0  0  0  0  0  0
   10.5439    7.9023   -1.8389 C   0  0  0  0  0  0  0  0  0  0  0  0
   10.4493    6.5796   -1.4807 C   0  0  0  0  0  0  0  0  0  0  0  0
   11.1680    5.7397   -0.8799 C   0  0  0  0  0  0  0  0  0  0  0  0
   12.4261    6.1704   -0.4082 C   0  0  0  0  0  0  0  0  0  0  0  0
   12.7079    7.5301   -0.6880 C   0  0  0  0  0  0  0  0  0  0  0  0
   12.0778    9.4031   -1.5616 H   0  0  0  0  0  0  0  0  0  0  0  0
    9.8239    8.5164   -2.3714 H   0  0  0  0  0  0  0  0  0  0  0  0
   10.5984    3.8640   -0.5807 H   0  0  0  0  0  0  0  0  0  0  0  0
   13.1228    5.5271    0.1220 H   0  0  0  0  0  0  0  0  0  0  0  0
    7.5103    6.0658   -2.7333 N   0  0  0  0  0  0  0  0  0  0  0  0
    6.5408    5.6642   -3.0756 N   0  0  0  0  0  0  0  0  0  0  0  0
   13.8665    8.1521   -0.3225 O   0  0  0  0  0  0  0  0  0  0  0  0
   14.8483    7.3930    0.3796 C   0  0  0  0  0  0  0  0  0  0  0  0
   15.6768    8.0824    0.5663 H   0  0  0  0  0  0  0  0  0  0  0  0
   15.2035    6.5462   -0.2270 H   0  0  0  0  0  0  0  0  0  0  0  0
   14.4534    7.0237    1.3383 H   0  0  0  0  0  0  0  0  0  0  0  0
    8.4861    2.9810   -1.3248 O   0  0  0  0  0  0  0  0  0  0  0  0
    9.3632    2.4101   -0.7294 C   0  0  0  0  0  0  0  0  0  0  0  0
   10.5265    2.9079   -0.3231 O   0  0  0  0  0  0  0  0  0  0  0  0
    9.2592    0.9155   -0.3226 C   0  0  0  0  0  0  0  0  0  0  0  0
    9.3468    0.7781    1.0198 F   0  0  0  0  0  0  0  0  0  0  0  0
    8.0935    0.3921   -0.7224 F   0  0  0  0  0  0  0  0  0  0  0  0
   10.2595    0.1972   -0.8812 F   0  0  0  0  0  0  0  0  0  0  0  0
  1  6  2  0  0  0  0
  2  3  2  0  0  0  0
  2  1  1  0  0  0  0
  3  4  1  0  0  0  0
  4  5  2  0  0  0  0
  5 10  1  0  0  0  0
  6  5  1  0  0  0  0
  6 13  1  0  0  0  0
  7  1  1  0  0  0  0
  8  2  1  0  0  0  0
  9 20  1  0  0  0  0
 12 11  3  0  0  0  0
 13 14  1  0  0  0  0
 14 15  1  0  0  0  0
 14 17  1  0  0  0  0
 16 14  1  0  0  0  0
 18 19  2  0  0  0  0
 19 20  1  0  0  0  0
 19 21  1  0  0  0  0
 21 22  1  0  0  0  0
 23 21  1  0  0  0  0
 24 21  1  0  0  0  0
M  RAD  2   3   2   4   2
M  END
