Coordinates from ORCA-job p-CH3O-Ph-N2-OOCCF3-B3LYPG-aug-cc-pVDZ-scan-d09-49-n400
 OpenBabel11081710393D

 24 23  0  0  0  0  0  0  0  0999 V2000
   11.7087    8.2719   -1.5474 C   0  0  0  0  0  0  0  0  0  0  0  0
   10.4967    7.7046   -1.9186 C   0  0  0  0  0  0  0  0  0  0  0  0
   10.2809    6.3810   -1.5549 C   0  0  0  0  0  0  0  0  0  0  0  0
   11.1718    5.5816   -0.8567 C   0  0  0  0  0  0  0  0  0  0  0  0
   12.3860    6.1720   -0.4931 C   0  0  0  0  0  0  0  0  0  0  0  0
   12.6576    7.5102   -0.8343 C   0  0  0  0  0  0  0  0  0  0  0  0
   11.9439    9.3045   -1.7988 H   0  0  0  0  0  0  0  0  0  0  0  0
    9.7465    8.2674   -2.4691 H   0  0  0  0  0  0  0  0  0  0  0  0
   10.9266    4.5529   -0.6110 H   0  0  0  0  0  0  0  0  0  0  0  0
   13.1071    5.5725    0.0558 H   0  0  0  0  0  0  0  0  0  0  0  0
    8.8308    5.7722   -2.0263 N   0  0  0  0  0  0  0  0  0  0  0  0
    8.2077    4.8127   -1.9722 N   0  0  0  0  0  0  0  0  0  0  0  0
   13.8037    8.1579   -0.5225 O   0  0  0  0  0  0  0  0  0  0  0  0
   14.8188    7.4552    0.2011 C   0  0  0  0  0  0  0  0  0  0  0  0
   15.6330    8.1729    0.3325 H   0  0  0  0  0  0  0  0  0  0  0  0
   15.1792    6.5874   -0.3700 H   0  0  0  0  0  0  0  0  0  0  0  0
   14.4482    7.1321    1.1846 H   0  0  0  0  0  0  0  0  0  0  0  0
    7.2779    2.1601   -1.1689 O   0  0  0  0  0  0  0  0  0  0  0  0
    8.4395    2.3562   -0.8734 C   0  0  0  0  0  0  0  0  0  0  0  0
    9.1791    3.4104   -1.0216 O   0  0  0  0  0  0  0  0  0  0  0  0
    9.2693    1.2087   -0.1998 C   0  0  0  0  0  0  0  0  0  0  0  0
    9.7808    1.6082    0.9955 F   0  0  0  0  0  0  0  0  0  0  0  0
    8.5299    0.1119    0.0234 F   0  0  0  0  0  0  0  0  0  0  0  0
   10.3194    0.8445   -0.9823 F   0  0  0  0  0  0  0  0  0  0  0  0
  1  6  2  0  0  0  0
  2  3  2  0  0  0  0
  2  1  1  0  0  0  0
  3  4  1  0  0  0  0
  4  9  1  0  0  0  0
  4  5  2  0  0  0  0
  5 10  1  0  0  0  0
  6 13  1  0  0  0  0
  6  5  1  0  0  0  0
  7  1  1  0  0  0  0
  8  2  1  0  0  0  0
 11 12  2  0  0  0  0
 11  3  1  0  0  0  0
 13 14  1  0  0  0  0
 14 15  1  0  0  0  0
 14 17  1  0  0  0  0
 16 14  1  0  0  0  0
 18 19  2  0  0  0  0
 19 21  1  0  0  0  0
 20 19  1  0  0  0  0
 21 23  1  0  0  0  0
 21 22  1  0  0  0  0
 24 21  1  0  0  0  0
M  RAD  2  12   2  20   2
M  END
