Coordinates from ORCA-job p-CH3O-Ph-N2-OOCCF3-B3LYPG-aug-cc-pVDZ-scan-d09-49-n400
 OpenBabel11081710393D

 24 22  0  0  0  0  0  0  0  0999 V2000
   11.7462    8.3655   -1.4037 C   0  0  0  0  0  0  0  0  0  0  0  0
   10.4987    7.9084   -1.8624 C   0  0  0  0  0  0  0  0  0  0  0  0
   10.3928    6.5858   -1.5099 C   0  0  0  0  0  0  0  0  0  0  0  0
   11.0952    5.7261   -0.9111 C   0  0  0  0  0  0  0  0  0  0  0  0
   12.3555    6.1618   -0.4398 C   0  0  0  0  0  0  0  0  0  0  0  0
   12.6533    7.5183   -0.7106 C   0  0  0  0  0  0  0  0  0  0  0  0
   12.0391    9.4005   -1.5789 H   0  0  0  0  0  0  0  0  0  0  0  0
    9.7829    8.5278   -2.3944 H   0  0  0  0  0  0  0  0  0  0  0  0
   10.5952    3.8888   -0.5900 H   0  0  0  0  0  0  0  0  0  0  0  0
   13.0467    5.5115    0.0898 H   0  0  0  0  0  0  0  0  0  0  0  0
    7.8771    6.0603   -2.5558 N   0  0  0  0  0  0  0  0  0  0  0  0
    6.8845    5.7739   -2.9442 N   0  0  0  0  0  0  0  0  0  0  0  0
   13.8167    8.1271   -0.3386 O   0  0  0  0  0  0  0  0  0  0  0  0
   14.7890    7.3551    0.3628 C   0  0  0  0  0  0  0  0  0  0  0  0
   15.6235    8.0356    0.5553 H   0  0  0  0  0  0  0  0  0  0  0  0
   15.1379    6.5078   -0.2466 H   0  0  0  0  0  0  0  0  0  0  0  0
   14.3878    6.9850    1.3185 H   0  0  0  0  0  0  0  0  0  0  0  0
    8.4888    2.9858   -1.3252 O   0  0  0  0  0  0  0  0  0  0  0  0
    9.3713    2.4224   -0.7294 C   0  0  0  0  0  0  0  0  0  0  0  0
   10.5298    2.9288   -0.3280 O   0  0  0  0  0  0  0  0  0  0  0  0
    9.2754    0.9282   -0.3186 C   0  0  0  0  0  0  0  0  0  0  0  0
    9.3656    0.7944    1.0242 F   0  0  0  0  0  0  0  0  0  0  0  0
    8.1118    0.3970   -0.7150 F   0  0  0  0  0  0  0  0  0  0  0  0
   10.2785    0.2131   -0.8767 F   0  0  0  0  0  0  0  0  0  0  0  0
  1  6  2  0  0  0  0
  2  3  2  0  0  0  0
  2  1  1  0  0  0  0
  3  4  1  0  0  0  0
  4  5  2  0  0  0  0
  5 10  1  0  0  0  0
  6  5  1  0  0  0  0
  6 13  1  0  0  0  0
  7  1  1  0  0  0  0
  8  2  1  0  0  0  0
  9 20  1  0  0  0  0
 12 11  3  0  0  0  0
 13 14  1  0  0  0  0
 14 15  1  0  0  0  0
 14 17  1  0  0  0  0
 16 14  1  0  0  0  0
 18 19  2  0  0  0  0
 19 20  1  0  0  0  0
 19 21  1  0  0  0  0
 21 22  1  0  0  0  0
 23 21  1  0  0  0  0
 24 21  1  0  0  0  0
M  RAD  2   3   2   4   2
M  END
