Coordinates from ORCA-job p-CH3O-Ph-N2-OOCCF3-B3LYPG-aug-cc-pVDZ-scan-d09-49-n400
 OpenBabel11081710393D

 24 22  0  0  0  0  0  0  0  0999 V2000
   11.6805    8.3465   -1.4277 C   0  0  0  0  0  0  0  0  0  0  0  0
   10.4393    7.8766   -1.8793 C   0  0  0  0  0  0  0  0  0  0  0  0
   10.3265    6.5544   -1.5320 C   0  0  0  0  0  0  0  0  0  0  0  0
   11.0140    5.6582   -0.9308 C   0  0  0  0  0  0  0  0  0  0  0  0
   12.2698    6.1440   -0.4769 C   0  0  0  0  0  0  0  0  0  0  0  0
   12.5826    7.4955   -0.7375 C   0  0  0  0  0  0  0  0  0  0  0  0
   11.9677    9.3822   -1.6046 H   0  0  0  0  0  0  0  0  0  0  0  0
    9.7187    8.4916   -2.4111 H   0  0  0  0  0  0  0  0  0  0  0  0
   10.6394    3.9597   -0.5930 H   0  0  0  0  0  0  0  0  0  0  0  0
   12.9637    5.4946    0.0524 H   0  0  0  0  0  0  0  0  0  0  0  0
    8.3541    5.9836   -2.3029 N   0  0  0  0  0  0  0  0  0  0  0  0
    7.3519    5.7930   -2.7229 N   0  0  0  0  0  0  0  0  0  0  0  0
   13.7475    8.0969   -0.3624 O   0  0  0  0  0  0  0  0  0  0  0  0
   14.7158    7.3176    0.3379 C   0  0  0  0  0  0  0  0  0  0  0  0
   15.5531    7.9938    0.5334 H   0  0  0  0  0  0  0  0  0  0  0  0
   15.0610    6.4708   -0.2741 H   0  0  0  0  0  0  0  0  0  0  0  0
   14.3114    6.9461    1.2915 H   0  0  0  0  0  0  0  0  0  0  0  0
    8.5141    3.0609   -1.3374 O   0  0  0  0  0  0  0  0  0  0  0  0
    9.3952    2.4877   -0.7403 C   0  0  0  0  0  0  0  0  0  0  0  0
   10.5509    2.9750   -0.3353 O   0  0  0  0  0  0  0  0  0  0  0  0
    9.2708    0.9920   -0.3396 C   0  0  0  0  0  0  0  0  0  0  0  0
    9.3383    0.8493    1.0044 F   0  0  0  0  0  0  0  0  0  0  0  0
    8.1055    0.4761   -0.7547 F   0  0  0  0  0  0  0  0  0  0  0  0
   10.2711    0.2628   -0.8853 F   0  0  0  0  0  0  0  0  0  0  0  0
  1  6  2  0  0  0  0
  2  3  2  0  0  0  0
  2  1  1  0  0  0  0
  3  4  1  0  0  0  0
  4  5  2  0  0  0  0
  5 10  1  0  0  0  0
  6  5  1  0  0  0  0
  6 13  1  0  0  0  0
  7  1  1  0  0  0  0
  8  2  1  0  0  0  0
  9 20  1  0  0  0  0
 12 11  3  0  0  0  0
 13 14  1  0  0  0  0
 14 15  1  0  0  0  0
 14 17  1  0  0  0  0
 16 14  1  0  0  0  0
 18 19  2  0  0  0  0
 19 21  1  0  0  0  0
 19 20  1  0  0  0  0
 21 22  1  0  0  0  0
 23 21  1  0  0  0  0
 24 21  1  0  0  0  0
M  RAD  2   3   2   4   2
M  END
