Coordinates from ORCA-job p-CH3O-Ph-N2-OOCCF3-B3LYPG-aug-cc-pVDZ-scan-d09-49-n400
 OpenBabel11081710393D

 24 22  0  0  0  0  0  0  0  0999 V2000
   11.8428    8.3621   -1.3567 C   0  0  0  0  0  0  0  0  0  0  0  0
   10.5995    7.8824   -1.8062 C   0  0  0  0  0  0  0  0  0  0  0  0
   10.5178    6.5591   -1.4412 C   0  0  0  0  0  0  0  0  0  0  0  0
   11.2538    5.7383   -0.8378 C   0  0  0  0  0  0  0  0  0  0  0  0
   12.5084    6.1783   -0.3708 C   0  0  0  0  0  0  0  0  0  0  0  0
   12.7723    7.5400   -0.6601 C   0  0  0  0  0  0  0  0  0  0  0  0
   12.1181    9.4003   -1.5417 H   0  0  0  0  0  0  0  0  0  0  0  0
    9.8719    8.4871   -2.3395 H   0  0  0  0  0  0  0  0  0  0  0  0
   10.6301    3.8459   -0.5595 H   0  0  0  0  0  0  0  0  0  0  0  0
   13.2135    5.5454    0.1604 H   0  0  0  0  0  0  0  0  0  0  0  0
    7.0394    6.0390   -2.9508 N   0  0  0  0  0  0  0  0  0  0  0  0
    6.1166    5.5008   -3.2291 N   0  0  0  0  0  0  0  0  0  0  0  0
   13.9248    8.1778   -0.3025 O   0  0  0  0  0  0  0  0  0  0  0  0
   14.9181    7.4345    0.4002 C   0  0  0  0  0  0  0  0  0  0  0  0
   15.7391    8.1347    0.5797 H   0  0  0  0  0  0  0  0  0  0  0  0
   15.2810    6.5883   -0.2029 H   0  0  0  0  0  0  0  0  0  0  0  0
   14.5312    7.0662    1.3625 H   0  0  0  0  0  0  0  0  0  0  0  0
    8.5082    3.0109   -1.3232 O   0  0  0  0  0  0  0  0  0  0  0  0
    9.3704    2.4180   -0.7283 C   0  0  0  0  0  0  0  0  0  0  0  0
   10.5411    2.8910   -0.3107 O   0  0  0  0  0  0  0  0  0  0  0  0
    9.2374    0.9222   -0.3353 C   0  0  0  0  0  0  0  0  0  0  0  0
    9.3142    0.7719    1.0063 F   0  0  0  0  0  0  0  0  0  0  0  0
    8.0652    0.4234   -0.7468 F   0  0  0  0  0  0  0  0  0  0  0  0
   10.2284    0.1912   -0.8941 F   0  0  0  0  0  0  0  0  0  0  0  0
  1  6  2  0  0  0  0
  2  3  2  0  0  0  0
  2  1  1  0  0  0  0
  3  4  1  0  0  0  0
  4  5  2  0  0  0  0
  5 10  1  0  0  0  0
  6  5  1  0  0  0  0
  6 13  1  0  0  0  0
  7  1  1  0  0  0  0
  8  2  1  0  0  0  0
  9 20  1  0  0  0  0
 12 11  3  0  0  0  0
 13 14  1  0  0  0  0
 14 15  1  0  0  0  0
 14 17  1  0  0  0  0
 16 14  1  0  0  0  0
 18 19  2  0  0  0  0
 19 21  1  0  0  0  0
 19 20  1  0  0  0  0
 21 22  1  0  0  0  0
 23 21  1  0  0  0  0
 24 21  1  0  0  0  0
M  RAD  2   3   2   4   2
M  END
