Coordinates from ORCA-job p-CH3O-Ph-N2-OOCCF3-B3LYPG-aug-cc-pVDZ-scan-d09-49-n400
 OpenBabel11081710393D

 24 22  0  0  0  0  0  0  0  0999 V2000
   11.6310    8.2646   -1.4273 C   0  0  0  0  0  0  0  0  0  0  0  0
   10.4031    7.7422   -1.8564 C   0  0  0  0  0  0  0  0  0  0  0  0
   10.3215    6.4276   -1.4953 C   0  0  0  0  0  0  0  0  0  0  0  0
   11.0472    5.5253   -0.8729 C   0  0  0  0  0  0  0  0  0  0  0  0
   12.2801    6.1032   -0.4583 C   0  0  0  0  0  0  0  0  0  0  0  0
   12.5618    7.4538   -0.7346 C   0  0  0  0  0  0  0  0  0  0  0  0
   11.8742    9.3070   -1.6282 H   0  0  0  0  0  0  0  0  0  0  0  0
    9.6570    8.3221   -2.3903 H   0  0  0  0  0  0  0  0  0  0  0  0
   10.8147    4.3654   -0.6309 H   0  0  0  0  0  0  0  0  0  0  0  0
   12.9816    5.4636    0.0725 H   0  0  0  0  0  0  0  0  0  0  0  0
    8.4240    5.7093   -2.1858 N   0  0  0  0  0  0  0  0  0  0  0  0
    7.4301    5.7185   -2.6653 N   0  0  0  0  0  0  0  0  0  0  0  0
   13.7090    8.0829   -0.3767 O   0  0  0  0  0  0  0  0  0  0  0  0
   14.7044    7.3345    0.3277 C   0  0  0  0  0  0  0  0  0  0  0  0
   15.5243    8.0352    0.5070 H   0  0  0  0  0  0  0  0  0  0  0  0
   15.0641    6.4906   -0.2788 H   0  0  0  0  0  0  0  0  0  0  0  0
   14.3139    6.9677    1.2881 H   0  0  0  0  0  0  0  0  0  0  0  0
    8.6481    3.2465   -1.3278 O   0  0  0  0  0  0  0  0  0  0  0  0
    9.5067    2.6018   -0.7202 C   0  0  0  0  0  0  0  0  0  0  0  0
   10.6446    2.9782   -0.2903 O   0  0  0  0  0  0  0  0  0  0  0  0
    9.2123    1.1000   -0.4015 C   0  0  0  0  0  0  0  0  0  0  0  0
    9.2254    0.8778    0.9374 F   0  0  0  0  0  0  0  0  0  0  0  0
    8.0131    0.6984   -0.8636 F   0  0  0  0  0  0  0  0  0  0  0  0
   10.1511    0.2927   -0.9567 F   0  0  0  0  0  0  0  0  0  0  0  0
  1  6  2  0  0  0  0
  2  3  2  0  0  0  0
  2  1  1  0  0  0  0
  3  4  1  0  0  0  0
  4  9  1  0  0  0  0
  4  5  2  0  0  0  0
  5 10  1  0  0  0  0
  6  5  1  0  0  0  0
  6 13  1  0  0  0  0
  7  1  1  0  0  0  0
  8  2  1  0  0  0  0
 12 11  3  0  0  0  0
 13 14  1  0  0  0  0
 14 15  1  0  0  0  0
 14 17  1  0  0  0  0
 16 14  1  0  0  0  0
 18 19  2  0  0  0  0
 19 21  1  0  0  0  0
 19 20  1  0  0  0  0
 21 22  1  0  0  0  0
 23 21  1  0  0  0  0
 24 21  1  0  0  0  0
M  RAD  2   3   2  20   2
M  END
