Coordinates from ORCA-job p-CH3O-Ph-N2-OOCCF3-B3LYPG-aug-cc-pVDZ-scan-d09-49-n400
 OpenBabel11081710393D

 24 22  0  0  0  0  0  0  0  0999 V2000
   11.6762    8.3432   -1.4284 C   0  0  0  0  0  0  0  0  0  0  0  0
   10.4362    7.8703   -1.8785 C   0  0  0  0  0  0  0  0  0  0  0  0
   10.3238    6.5474   -1.5310 C   0  0  0  0  0  0  0  0  0  0  0  0
   11.0150    5.6527   -0.9288 C   0  0  0  0  0  0  0  0  0  0  0  0
   12.2699    6.1425   -0.4768 C   0  0  0  0  0  0  0  0  0  0  0  0
   12.5802    7.4942   -0.7383 C   0  0  0  0  0  0  0  0  0  0  0  0
   11.9614    9.3793   -1.6062 H   0  0  0  0  0  0  0  0  0  0  0  0
    9.7144    8.4841   -2.4102 H   0  0  0  0  0  0  0  0  0  0  0  0
   10.6417    3.9610   -0.5924 H   0  0  0  0  0  0  0  0  0  0  0  0
   12.9654    5.4948    0.0526 H   0  0  0  0  0  0  0  0  0  0  0  0
    8.3789    5.9811   -2.2900 N   0  0  0  0  0  0  0  0  0  0  0  0
    7.3764    5.7952   -2.7113 N   0  0  0  0  0  0  0  0  0  0  0  0
   13.7441    8.0981   -0.3644 O   0  0  0  0  0  0  0  0  0  0  0  0
   14.7146    7.3213    0.3357 C   0  0  0  0  0  0  0  0  0  0  0  0
   15.5506    7.9995    0.5301 H   0  0  0  0  0  0  0  0  0  0  0  0
   15.0610    6.4748   -0.2759 H   0  0  0  0  0  0  0  0  0  0  0  0
   14.3116    6.9498    1.2898 H   0  0  0  0  0  0  0  0  0  0  0  0
    8.5139    3.0654   -1.3393 O   0  0  0  0  0  0  0  0  0  0  0  0
    9.3936    2.4903   -0.7417 C   0  0  0  0  0  0  0  0  0  0  0  0
   10.5499    2.9746   -0.3359 O   0  0  0  0  0  0  0  0  0  0  0  0
    9.2662    0.9945   -0.3424 C   0  0  0  0  0  0  0  0  0  0  0  0
    9.3294    0.8508    1.0018 F   0  0  0  0  0  0  0  0  0  0  0  0
    8.1015    0.4799   -0.7613 F   0  0  0  0  0  0  0  0  0  0  0  0
   10.2673    0.2641   -0.8853 F   0  0  0  0  0  0  0  0  0  0  0  0
  1  6  2  0  0  0  0
  2  3  2  0  0  0  0
  2  1  1  0  0  0  0
  3  4  1  0  0  0  0
  4  5  2  0  0  0  0
  5 10  1  0  0  0  0
  6  5  1  0  0  0  0
  6 13  1  0  0  0  0
  7  1  1  0  0  0  0
  8  2  1  0  0  0  0
  9 20  1  0  0  0  0
 12 11  3  0  0  0  0
 13 14  1  0  0  0  0
 14 15  1  0  0  0  0
 14 17  1  0  0  0  0
 16 14  1  0  0  0  0
 18 19  2  0  0  0  0
 19 21  1  0  0  0  0
 19 20  1  0  0  0  0
 21 22  1  0  0  0  0
 23 21  1  0  0  0  0
 24 21  1  0  0  0  0
M  RAD  2   3   2   4   2
M  END
