Coordinates from ORCA-job p-CH3O-Ph-N2-OOCCF3-B3LYPG-aug-cc-pVDZ-scan-d09-49-n400
 OpenBabel11081710393D

 24 23  0  0  0  0  0  0  0  0999 V2000
   11.7216    8.2855   -1.5443 C   0  0  0  0  0  0  0  0  0  0  0  0
   10.5034    7.7317   -1.9257 C   0  0  0  0  0  0  0  0  0  0  0  0
   10.2997    6.4137   -1.5610 C   0  0  0  0  0  0  0  0  0  0  0  0
   11.1606    5.5899   -0.8694 C   0  0  0  0  0  0  0  0  0  0  0  0
   12.3798    6.1741   -0.4987 C   0  0  0  0  0  0  0  0  0  0  0  0
   12.6614    7.5119   -0.8319 C   0  0  0  0  0  0  0  0  0  0  0  0
   11.9650    9.3179   -1.7893 H   0  0  0  0  0  0  0  0  0  0  0  0
    9.7572    8.2994   -2.4757 H   0  0  0  0  0  0  0  0  0  0  0  0
   10.9024    4.5620   -0.6324 H   0  0  0  0  0  0  0  0  0  0  0  0
   13.0937    5.5654    0.0495 H   0  0  0  0  0  0  0  0  0  0  0  0
    8.7503    5.7753   -2.0727 N   0  0  0  0  0  0  0  0  0  0  0  0
    8.1526    4.8068   -2.0036 N   0  0  0  0  0  0  0  0  0  0  0  0
   13.8118    8.1502   -0.5122 O   0  0  0  0  0  0  0  0  0  0  0  0
   14.8179    7.4351    0.2111 C   0  0  0  0  0  0  0  0  0  0  0  0
   15.6376    8.1451    0.3502 H   0  0  0  0  0  0  0  0  0  0  0  0
   15.1739    6.5677   -0.3635 H   0  0  0  0  0  0  0  0  0  0  0  0
   14.4409    7.1092    1.1913 H   0  0  0  0  0  0  0  0  0  0  0  0
    7.2815    2.1319   -1.1423 O   0  0  0  0  0  0  0  0  0  0  0  0
    8.4450    2.3446   -0.8626 C   0  0  0  0  0  0  0  0  0  0  0  0
    9.1714    3.4023   -1.0282 O   0  0  0  0  0  0  0  0  0  0  0  0
    9.2935    1.2097   -0.1884 C   0  0  0  0  0  0  0  0  0  0  0  0
    9.8200    1.6257    0.9951 F   0  0  0  0  0  0  0  0  0  0  0  0
    8.5669    0.1092    0.0583 F   0  0  0  0  0  0  0  0  0  0  0  0
   10.3350    0.8447   -0.9821 F   0  0  0  0  0  0  0  0  0  0  0  0
  1  6  2  0  0  0  0
  2  3  2  0  0  0  0
  2  1  1  0  0  0  0
  3  4  1  0  0  0  0
  4  9  1  0  0  0  0
  4  5  2  0  0  0  0
  5 10  1  0  0  0  0
  6 13  1  0  0  0  0
  6  5  1  0  0  0  0
  7  1  1  0  0  0  0
  8  2  1  0  0  0  0
 11 12  2  0  0  0  0
 11  3  1  0  0  0  0
 13 14  1  0  0  0  0
 14 15  1  0  0  0  0
 14 17  1  0  0  0  0
 16 14  1  0  0  0  0
 18 19  2  0  0  0  0
 19 21  1  0  0  0  0
 20 19  1  0  0  0  0
 21 23  1  0  0  0  0
 21 22  1  0  0  0  0
 24 21  1  0  0  0  0
M  RAD  2  12   2  20   2
M  END
