Coordinates from ORCA-job p-CH3O-Ph-N2-OOCCF3-B3LYPG-aug-cc-pVDZ-scan-d09-49-n400
 OpenBabel11081710393D

 24 22  0  0  0  0  0  0  0  0999 V2000
   11.8522    8.3626   -1.3524 C   0  0  0  0  0  0  0  0  0  0  0  0
   10.6090    7.8823   -1.8016 C   0  0  0  0  0  0  0  0  0  0  0  0
   10.5277    6.5590   -1.4364 C   0  0  0  0  0  0  0  0  0  0  0  0
   11.2646    5.7392   -0.8328 C   0  0  0  0  0  0  0  0  0  0  0  0
   12.5191    6.1794   -0.3660 C   0  0  0  0  0  0  0  0  0  0  0  0
   12.7822    7.5411   -0.6558 C   0  0  0  0  0  0  0  0  0  0  0  0
   12.1271    9.4009   -1.5377 H   0  0  0  0  0  0  0  0  0  0  0  0
    9.8813    8.4868   -2.3350 H   0  0  0  0  0  0  0  0  0  0  0  0
   10.6368    3.8460   -0.5563 H   0  0  0  0  0  0  0  0  0  0  0  0
   13.2245    5.5469    0.1653 H   0  0  0  0  0  0  0  0  0  0  0  0
    6.9581    6.0296   -2.9868 N   0  0  0  0  0  0  0  0  0  0  0  0
    6.0454    5.4687   -3.2534 N   0  0  0  0  0  0  0  0  0  0  0  0
   13.9344    8.1795   -0.2985 O   0  0  0  0  0  0  0  0  0  0  0  0
   14.9282    7.4369    0.4043 C   0  0  0  0  0  0  0  0  0  0  0  0
   15.7489    8.1376    0.5835 H   0  0  0  0  0  0  0  0  0  0  0  0
   15.2914    6.5908   -0.1986 H   0  0  0  0  0  0  0  0  0  0  0  0
   14.5416    7.0687    1.3668 H   0  0  0  0  0  0  0  0  0  0  0  0
    8.5136    3.0176   -1.3226 O   0  0  0  0  0  0  0  0  0  0  0  0
    9.3738    2.4216   -0.7278 C   0  0  0  0  0  0  0  0  0  0  0  0
   10.5453    2.8911   -0.3087 O   0  0  0  0  0  0  0  0  0  0  0  0
    9.2366    0.9257   -0.3368 C   0  0  0  0  0  0  0  0  0  0  0  0
    9.3119    0.7736    1.0047 F   0  0  0  0  0  0  0  0  0  0  0  0
    8.0635    0.4304   -0.7499 F   0  0  0  0  0  0  0  0  0  0  0  0
   10.2262    0.1929   -0.8957 F   0  0  0  0  0  0  0  0  0  0  0  0
  1  6  2  0  0  0  0
  2  3  2  0  0  0  0
  2  1  1  0  0  0  0
  3  4  1  0  0  0  0
  4  5  2  0  0  0  0
  5 10  1  0  0  0  0
  6  5  1  0  0  0  0
  6 13  1  0  0  0  0
  7  1  1  0  0  0  0
  8  2  1  0  0  0  0
  9 20  1  0  0  0  0
 12 11  3  0  0  0  0
 13 14  1  0  0  0  0
 14 15  1  0  0  0  0
 14 17  1  0  0  0  0
 16 14  1  0  0  0  0
 18 19  2  0  0  0  0
 19 21  1  0  0  0  0
 19 20  1  0  0  0  0
 21 22  1  0  0  0  0
 23 21  1  0  0  0  0
 24 21  1  0  0  0  0
M  RAD  2   3   2   4   2
M  END
