Coordinates from ORCA-job p-CH3O-Ph-N2-OOCCF3-B3LYPG-aug-cc-pVDZ-scan-d09-49-n400
 OpenBabel11081710393D

 24 22  0  0  0  0  0  0  0  0999 V2000
   11.8720    8.3128   -1.3275 C   0  0  0  0  0  0  0  0  0  0  0  0
   10.6442    7.7743   -1.7516 C   0  0  0  0  0  0  0  0  0  0  0  0
   10.6179    6.4546   -1.3614 C   0  0  0  0  0  0  0  0  0  0  0  0
   11.4002    5.6843   -0.7513 C   0  0  0  0  0  0  0  0  0  0  0  0
   12.6409    6.1788   -0.3077 C   0  0  0  0  0  0  0  0  0  0  0  0
   12.8436    7.5443   -0.6273 C   0  0  0  0  0  0  0  0  0  0  0  0
   12.1022    9.3576   -1.5361 H   0  0  0  0  0  0  0  0  0  0  0  0
    9.8872    8.3401   -2.2870 H   0  0  0  0  0  0  0  0  0  0  0  0
   10.7055    3.7792   -0.5030 H   0  0  0  0  0  0  0  0  0  0  0  0
   13.3777    5.5857    0.2265 H   0  0  0  0  0  0  0  0  0  0  0  0
    6.5674    6.0519   -3.1813 N   0  0  0  0  0  0  0  0  0  0  0  0
    5.6895    5.4226   -3.4105 N   0  0  0  0  0  0  0  0  0  0  0  0
   13.9728    8.2365   -0.2974 O   0  0  0  0  0  0  0  0  0  0  0  0
   15.0048    7.5494    0.4067 C   0  0  0  0  0  0  0  0  0  0  0  0
   15.7979    8.2866    0.5617 H   0  0  0  0  0  0  0  0  0  0  0  0
   15.3954    6.7071   -0.1844 H   0  0  0  0  0  0  0  0  0  0  0  0
   14.6454    7.1848    1.3810 H   0  0  0  0  0  0  0  0  0  0  0  0
    8.5600    3.0763   -1.3180 O   0  0  0  0  0  0  0  0  0  0  0  0
    9.3797    2.4241   -0.7255 C   0  0  0  0  0  0  0  0  0  0  0  0
   10.5664    2.8259   -0.2787 O   0  0  0  0  0  0  0  0  0  0  0  0
    9.1636    0.9283   -0.3725 C   0  0  0  0  0  0  0  0  0  0  0  0
    9.2105    0.7416    0.9659 F   0  0  0  0  0  0  0  0  0  0  0  0
    7.9740    0.5015   -0.8141 F   0  0  0  0  0  0  0  0  0  0  0  0
   10.1245    0.1608   -0.9346 F   0  0  0  0  0  0  0  0  0  0  0  0
  1  6  2  0  0  0  0
  2  3  2  0  0  0  0
  2  1  1  0  0  0  0
  3  4  1  0  0  0  0
  4  5  2  0  0  0  0
  5 10  1  0  0  0  0
  6  5  1  0  0  0  0
  6 13  1  0  0  0  0
  7  1  1  0  0  0  0
  8  2  1  0  0  0  0
  9 20  1  0  0  0  0
 12 11  3  0  0  0  0
 13 14  1  0  0  0  0
 14 15  1  0  0  0  0
 14 17  1  0  0  0  0
 16 14  1  0  0  0  0
 18 19  2  0  0  0  0
 19 21  1  0  0  0  0
 19 20  1  0  0  0  0
 21 22  1  0  0  0  0
 23 21  1  0  0  0  0
 24 21  1  0  0  0  0
M  RAD  2   3   2   4   2
M  END
