Coordinates from ORCA-job p-CH3O-Ph-N2-OOCCF3-B3LYPG-aug-cc-pVDZ-scan-d09-49-n400
 OpenBabel11081710393D

 24 22  0  0  0  0  0  0  0  0999 V2000
   11.7289    8.3614   -1.4107 C   0  0  0  0  0  0  0  0  0  0  0  0
   10.4803    7.9026   -1.8692 C   0  0  0  0  0  0  0  0  0  0  0  0
   10.3850    6.5843   -1.5131 C   0  0  0  0  0  0  0  0  0  0  0  0
   11.0745    5.7096   -0.9160 C   0  0  0  0  0  0  0  0  0  0  0  0
   12.3350    6.1567   -0.4482 C   0  0  0  0  0  0  0  0  0  0  0  0
   12.6350    7.5131   -0.7178 C   0  0  0  0  0  0  0  0  0  0  0  0
   12.0215    9.3964   -1.5859 H   0  0  0  0  0  0  0  0  0  0  0  0
    9.7636    8.5208   -2.4012 H   0  0  0  0  0  0  0  0  0  0  0  0
   10.6041    3.9018   -0.5897 H   0  0  0  0  0  0  0  0  0  0  0  0
   13.0270    5.5071    0.0815 H   0  0  0  0  0  0  0  0  0  0  0  0
    8.0098    6.0339   -2.4838 N   0  0  0  0  0  0  0  0  0  0  0  0
    7.0117    5.7979   -2.8913 N   0  0  0  0  0  0  0  0  0  0  0  0
   13.7986    8.1214   -0.3456 O   0  0  0  0  0  0  0  0  0  0  0  0
   14.7703    7.3486    0.3558 C   0  0  0  0  0  0  0  0  0  0  0  0
   15.6052    8.0285    0.5487 H   0  0  0  0  0  0  0  0  0  0  0  0
   15.1188    6.5012   -0.2539 H   0  0  0  0  0  0  0  0  0  0  0  0
   14.3686    6.9784    1.3112 H   0  0  0  0  0  0  0  0  0  0  0  0
    8.4866    2.9961   -1.3294 O   0  0  0  0  0  0  0  0  0  0  0  0
    9.3711    2.4344   -0.7331 C   0  0  0  0  0  0  0  0  0  0  0  0
   10.5293    2.9375   -0.3310 O   0  0  0  0  0  0  0  0  0  0  0  0
    9.2728    0.9397   -0.3233 C   0  0  0  0  0  0  0  0  0  0  0  0
    9.3619    0.8044    1.0196 F   0  0  0  0  0  0  0  0  0  0  0  0
    8.1086    0.4097   -0.7204 F   0  0  0  0  0  0  0  0  0  0  0  0
   10.2750    0.2231   -0.8813 F   0  0  0  0  0  0  0  0  0  0  0  0
  1  6  2  0  0  0  0
  2  3  2  0  0  0  0
  2  1  1  0  0  0  0
  3  4  1  0  0  0  0
  4  5  2  0  0  0  0
  5 10  1  0  0  0  0
  6  5  1  0  0  0  0
  6 13  1  0  0  0  0
  7  1  1  0  0  0  0
  8  2  1  0  0  0  0
  9 20  1  0  0  0  0
 12 11  3  0  0  0  0
 13 14  1  0  0  0  0
 14 15  1  0  0  0  0
 14 17  1  0  0  0  0
 16 14  1  0  0  0  0
 18 19  2  0  0  0  0
 19 20  1  0  0  0  0
 19 21  1  0  0  0  0
 21 22  1  0  0  0  0
 23 21  1  0  0  0  0
 24 21  1  0  0  0  0
M  RAD  2   3   2   4   2
M  END
