Coordinates from ORCA-job p-CH3O-Ph-N2-OOCCF3-B3LYPG-aug-cc-pVDZ-scan-d09-49-n400
 OpenBabel11081710393D

 24 22  0  0  0  0  0  0  0  0999 V2000
   11.8551    8.3593   -1.3500 C   0  0  0  0  0  0  0  0  0  0  0  0
   10.6124    7.8749   -1.7977 C   0  0  0  0  0  0  0  0  0  0  0  0
   10.5380    6.5527   -1.4296 C   0  0  0  0  0  0  0  0  0  0  0  0
   11.2766    5.7355   -0.8259 C   0  0  0  0  0  0  0  0  0  0  0  0
   12.5301    6.1793   -0.3606 C   0  0  0  0  0  0  0  0  0  0  0  0
   12.7884    7.5419   -0.6530 C   0  0  0  0  0  0  0  0  0  0  0  0
   12.1268    9.3982   -1.5370 H   0  0  0  0  0  0  0  0  0  0  0  0
    9.8826    8.4767   -2.3313 H   0  0  0  0  0  0  0  0  0  0  0  0
   10.6402    3.8423   -0.5535 H   0  0  0  0  0  0  0  0  0  0  0  0
   13.2380    5.5498    0.1709 H   0  0  0  0  0  0  0  0  0  0  0  0
    6.9227    6.0273   -3.0031 N   0  0  0  0  0  0  0  0  0  0  0  0
    6.0126    5.4607   -3.2666 N   0  0  0  0  0  0  0  0  0  0  0  0
   13.9389    8.1847   -0.2979 O   0  0  0  0  0  0  0  0  0  0  0  0
   14.9357    7.4463    0.4050 C   0  0  0  0  0  0  0  0  0  0  0  0
   15.7543    8.1499    0.5823 H   0  0  0  0  0  0  0  0  0  0  0  0
   15.3011    6.6004   -0.1969 H   0  0  0  0  0  0  0  0  0  0  0  0
   14.5513    7.0784    1.3684 H   0  0  0  0  0  0  0  0  0  0  0  0
    8.5124    3.0197   -1.3237 O   0  0  0  0  0  0  0  0  0  0  0  0
    9.3714    2.4217   -0.7289 C   0  0  0  0  0  0  0  0  0  0  0  0
   10.5440    2.8873   -0.3082 O   0  0  0  0  0  0  0  0  0  0  0  0
    9.2306    0.9256   -0.3397 C   0  0  0  0  0  0  0  0  0  0  0  0
    9.3046    0.7718    1.0017 F   0  0  0  0  0  0  0  0  0  0  0  0
    8.0567    0.4334   -0.7541 F   0  0  0  0  0  0  0  0  0  0  0  0
   10.2189    0.1912   -0.8987 F   0  0  0  0  0  0  0  0  0  0  0  0
  1  6  2  0  0  0  0
  2  3  2  0  0  0  0
  2  1  1  0  0  0  0
  3  4  1  0  0  0  0
  4  5  2  0  0  0  0
  5 10  1  0  0  0  0
  6  5  1  0  0  0  0
  6 13  1  0  0  0  0
  7  1  1  0  0  0  0
  8  2  1  0  0  0  0
  9 20  1  0  0  0  0
 12 11  3  0  0  0  0
 13 14  1  0  0  0  0
 14 15  1  0  0  0  0
 14 17  1  0  0  0  0
 16 14  1  0  0  0  0
 18 19  2  0  0  0  0
 19 21  1  0  0  0  0
 19 20  1  0  0  0  0
 21 22  1  0  0  0  0
 23 21  1  0  0  0  0
 24 21  1  0  0  0  0
M  RAD  2   3   2   4   2
M  END
