Coordinates from ORCA-job p-CH3O-Ph-N2-OOCCF3-B3LYPG-aug-cc-pVDZ-scan-d09-49-n400
 OpenBabel11081710393D

 24 23  0  0  0  0  0  0  0  0999 V2000
   11.6843    8.2610   -1.5518 C   0  0  0  0  0  0  0  0  0  0  0  0
   10.4831    7.6841   -1.9105 C   0  0  0  0  0  0  0  0  0  0  0  0
   10.2227    6.3396   -1.5611 C   0  0  0  0  0  0  0  0  0  0  0  0
   11.1777    5.5784   -0.8495 C   0  0  0  0  0  0  0  0  0  0  0  0
   12.3831    6.1661   -0.4928 C   0  0  0  0  0  0  0  0  0  0  0  0
   12.6452    7.5077   -0.8399 C   0  0  0  0  0  0  0  0  0  0  0  0
   11.9130    9.2940   -1.8066 H   0  0  0  0  0  0  0  0  0  0  0  0
    9.7320    8.2505   -2.4592 H   0  0  0  0  0  0  0  0  0  0  0  0
   10.9386    4.5463   -0.5998 H   0  0  0  0  0  0  0  0  0  0  0  0
   13.1123    5.5747    0.0540 H   0  0  0  0  0  0  0  0  0  0  0  0
    9.0497    5.7963   -1.9181 N   0  0  0  0  0  0  0  0  0  0  0  0
    8.2963    4.9331   -1.9620 N   0  0  0  0  0  0  0  0  0  0  0  0
   13.7818    8.1607   -0.5383 O   0  0  0  0  0  0  0  0  0  0  0  0
   14.8137    7.4737    0.1838 C   0  0  0  0  0  0  0  0  0  0  0  0
   15.6178    8.2043    0.3035 H   0  0  0  0  0  0  0  0  0  0  0  0
   15.1787    6.6087   -0.3869 H   0  0  0  0  0  0  0  0  0  0  0  0
   14.4517    7.1536    1.1706 H   0  0  0  0  0  0  0  0  0  0  0  0
    7.2852    2.1683   -1.2143 O   0  0  0  0  0  0  0  0  0  0  0  0
    8.4445    2.3525   -0.8887 C   0  0  0  0  0  0  0  0  0  0  0  0
    9.1921    3.3957   -1.0151 O   0  0  0  0  0  0  0  0  0  0  0  0
    9.2353    1.1866   -0.2009 C   0  0  0  0  0  0  0  0  0  0  0  0
    9.7172    1.5666    1.0151 F   0  0  0  0  0  0  0  0  0  0  0  0
    8.4797    0.0934   -0.0079 F   0  0  0  0  0  0  0  0  0  0  0  0
   10.3074    0.8131   -0.9520 F   0  0  0  0  0  0  0  0  0  0  0  0
  1  6  2  0  0  0  0
  2  3  2  0  0  0  0
  2  1  1  0  0  0  0
  3  4  1  0  0  0  0
  4  9  1  0  0  0  0
  4  5  2  0  0  0  0
  5 10  1  0  0  0  0
  6 13  1  0  0  0  0
  6  5  1  0  0  0  0
  7  1  1  0  0  0  0
  8  2  1  0  0  0  0
 11  3  1  0  0  0  0
 12 11  2  0  0  0  0
 13 14  1  0  0  0  0
 14 15  1  0  0  0  0
 14 17  1  0  0  0  0
 16 14  1  0  0  0  0
 18 19  2  0  0  0  0
 19 21  1  0  0  0  0
 20 19  1  0  0  0  0
 21 23  1  0  0  0  0
 21 22  1  0  0  0  0
 24 21  1  0  0  0  0
M  RAD  2  12   2  20   2
M  END
