Coordinates from ORCA-job p-CH3O-Ph-N2-OOCCF3-B3LYPG-aug-cc-pVDZ-scan-d09-49-n400
 OpenBabel11081710393D

 24 22  0  0  0  0  0  0  0  0999 V2000
   11.7813    8.3685   -1.3880 C   0  0  0  0  0  0  0  0  0  0  0  0
   10.5335    7.9083   -1.8457 C   0  0  0  0  0  0  0  0  0  0  0  0
   10.4348    6.5857   -1.4896 C   0  0  0  0  0  0  0  0  0  0  0  0
   11.1483    5.7402   -0.8896 C   0  0  0  0  0  0  0  0  0  0  0  0
   12.4075    6.1685   -0.4167 C   0  0  0  0  0  0  0  0  0  0  0  0
   12.6946    7.5274   -0.6936 C   0  0  0  0  0  0  0  0  0  0  0  0
   12.0716    9.4041   -1.5647 H   0  0  0  0  0  0  0  0  0  0  0  0
    9.8157    8.5252   -2.3780 H   0  0  0  0  0  0  0  0  0  0  0  0
   10.5934    3.8705   -0.5851 H   0  0  0  0  0  0  0  0  0  0  0  0
   13.1016    5.5221    0.1132 H   0  0  0  0  0  0  0  0  0  0  0  0
    7.5967    6.0695   -2.6930 N   0  0  0  0  0  0  0  0  0  0  0  0
    6.6208    5.6939   -3.0463 N   0  0  0  0  0  0  0  0  0  0  0  0
   13.8551    8.1448   -0.3257 O   0  0  0  0  0  0  0  0  0  0  0  0
   14.8334    7.3810    0.3762 C   0  0  0  0  0  0  0  0  0  0  0  0
   15.6641    8.0672    0.5650 H   0  0  0  0  0  0  0  0  0  0  0  0
   15.1863    6.5339   -0.2315 H   0  0  0  0  0  0  0  0  0  0  0  0
   14.4362    7.0114    1.3337 H   0  0  0  0  0  0  0  0  0  0  0  0
    8.4835    2.9762   -1.3246 O   0  0  0  0  0  0  0  0  0  0  0  0
    9.3641    2.4104   -0.7291 C   0  0  0  0  0  0  0  0  0  0  0  0
   10.5255    2.9139   -0.3255 O   0  0  0  0  0  0  0  0  0  0  0  0
    9.2667    0.9162   -0.3192 C   0  0  0  0  0  0  0  0  0  0  0  0
    9.3567    0.7818    1.0234 F   0  0  0  0  0  0  0  0  0  0  0  0
    8.1027    0.3872   -0.7162 F   0  0  0  0  0  0  0  0  0  0  0  0
   10.2692    0.2008   -0.8777 F   0  0  0  0  0  0  0  0  0  0  0  0
  1  6  2  0  0  0  0
  2  3  2  0  0  0  0
  2  1  1  0  0  0  0
  3  4  1  0  0  0  0
  4  5  2  0  0  0  0
  5 10  1  0  0  0  0
  6  5  1  0  0  0  0
  6 13  1  0  0  0  0
  7  1  1  0  0  0  0
  8  2  1  0  0  0  0
  9 20  1  0  0  0  0
 12 11  3  0  0  0  0
 13 14  1  0  0  0  0
 14 15  1  0  0  0  0
 14 17  1  0  0  0  0
 16 14  1  0  0  0  0
 18 19  2  0  0  0  0
 19 20  1  0  0  0  0
 19 21  1  0  0  0  0
 21 22  1  0  0  0  0
 23 21  1  0  0  0  0
 24 21  1  0  0  0  0
M  RAD  2   3   2   4   2
M  END
