Coordinates from ORCA-job p-CH3O-Ph-N2-OOCCF3-B3LYPG-aug-cc-pVDZ-scan-d09-49-n400
 OpenBabel11081710393D

 24 22  0  0  0  0  0  0  0  0999 V2000
   11.7152    8.3581   -1.4163 C   0  0  0  0  0  0  0  0  0  0  0  0
   10.4674    7.8998   -1.8746 C   0  0  0  0  0  0  0  0  0  0  0  0
   10.3666    6.5811   -1.5209 C   0  0  0  0  0  0  0  0  0  0  0  0
   11.0530    5.7009   -0.9235 C   0  0  0  0  0  0  0  0  0  0  0  0
   12.3134    6.1521   -0.4571 C   0  0  0  0  0  0  0  0  0  0  0  0
   12.6186    7.5073   -0.7239 C   0  0  0  0  0  0  0  0  0  0  0  0
   12.0086    9.3928   -1.5911 H   0  0  0  0  0  0  0  0  0  0  0  0
    9.7516    8.5194   -2.4065 H   0  0  0  0  0  0  0  0  0  0  0  0
   10.6150    3.9142   -0.5882 H   0  0  0  0  0  0  0  0  0  0  0  0
   13.0042    5.5007    0.0726 H   0  0  0  0  0  0  0  0  0  0  0  0
    8.1034    6.0223   -2.4352 N   0  0  0  0  0  0  0  0  0  0  0  0
    7.1030    5.8166   -2.8531 N   0  0  0  0  0  0  0  0  0  0  0  0
   13.7834    8.1118   -0.3500 O   0  0  0  0  0  0  0  0  0  0  0  0
   14.7525    7.3353    0.3513 C   0  0  0  0  0  0  0  0  0  0  0  0
   15.5891    8.0127    0.5457 H   0  0  0  0  0  0  0  0  0  0  0  0
   15.0990    6.4877   -0.2592 H   0  0  0  0  0  0  0  0  0  0  0  0
   14.3489    6.9649    1.3058 H   0  0  0  0  0  0  0  0  0  0  0  0
    8.4982    3.0120   -1.3289 O   0  0  0  0  0  0  0  0  0  0  0  0
    9.3811    2.4470   -0.7323 C   0  0  0  0  0  0  0  0  0  0  0  0
   10.5392    2.9468   -0.3291 O   0  0  0  0  0  0  0  0  0  0  0  0
    9.2774    0.9522   -0.3249 C   0  0  0  0  0  0  0  0  0  0  0  0
    9.3645    0.8144    1.0179 F   0  0  0  0  0  0  0  0  0  0  0  0
    8.1120    0.4260   -0.7240 F   0  0  0  0  0  0  0  0  0  0  0  0
   10.2779    0.2330   -0.8828 F   0  0  0  0  0  0  0  0  0  0  0  0
  1  6  2  0  0  0  0
  2  3  2  0  0  0  0
  2  1  1  0  0  0  0
  3  4  1  0  0  0  0
  4  5  2  0  0  0  0
  5 10  1  0  0  0  0
  6  5  1  0  0  0  0
  6 13  1  0  0  0  0
  7  1  1  0  0  0  0
  8  2  1  0  0  0  0
  9 20  1  0  0  0  0
 12 11  3  0  0  0  0
 13 14  1  0  0  0  0
 14 15  1  0  0  0  0
 14 17  1  0  0  0  0
 16 14  1  0  0  0  0
 18 19  2  0  0  0  0
 19 20  1  0  0  0  0
 19 21  1  0  0  0  0
 21 22  1  0  0  0  0
 23 21  1  0  0  0  0
 24 21  1  0  0  0  0
M  RAD  2   3   2   4   2
M  END
