Coordinates from ORCA-job p-CH3O-Ph-N2-OOCCF3-B3LYPG-aug-cc-pVDZ-scan-d09-49-n400
 OpenBabel11081710393D

 24 22  0  0  0  0  0  0  0  0999 V2000
   11.6775    8.3442   -1.4282 C   0  0  0  0  0  0  0  0  0  0  0  0
   10.4372    7.8720   -1.8787 C   0  0  0  0  0  0  0  0  0  0  0  0
   10.3247    6.5494   -1.5312 C   0  0  0  0  0  0  0  0  0  0  0  0
   11.0147    5.6542   -0.9293 C   0  0  0  0  0  0  0  0  0  0  0  0
   12.2698    6.1430   -0.4768 C   0  0  0  0  0  0  0  0  0  0  0  0
   12.5810    7.4947   -0.7380 C   0  0  0  0  0  0  0  0  0  0  0  0
   11.9633    9.3801   -1.6058 H   0  0  0  0  0  0  0  0  0  0  0  0
    9.7157    8.4862   -2.4104 H   0  0  0  0  0  0  0  0  0  0  0  0
   10.6413    3.9608   -0.5924 H   0  0  0  0  0  0  0  0  0  0  0  0
   12.9649    5.4949    0.0526 H   0  0  0  0  0  0  0  0  0  0  0  0
    8.3708    5.9809   -2.2939 N   0  0  0  0  0  0  0  0  0  0  0  0
    7.3683    5.7931   -2.7147 N   0  0  0  0  0  0  0  0  0  0  0  0
   13.7453    8.0978   -0.3638 O   0  0  0  0  0  0  0  0  0  0  0  0
   14.7150    7.3201    0.3364 C   0  0  0  0  0  0  0  0  0  0  0  0
   15.5514    7.9976    0.5312 H   0  0  0  0  0  0  0  0  0  0  0  0
   15.0610    6.4735   -0.2753 H   0  0  0  0  0  0  0  0  0  0  0  0
   14.3115    6.9486    1.2904 H   0  0  0  0  0  0  0  0  0  0  0  0
    8.5146    3.0648   -1.3388 O   0  0  0  0  0  0  0  0  0  0  0  0
    9.3946    2.4899   -0.7413 C   0  0  0  0  0  0  0  0  0  0  0  0
   10.5506    2.9749   -0.3355 O   0  0  0  0  0  0  0  0  0  0  0  0
    9.2675    0.9942   -0.3417 C   0  0  0  0  0  0  0  0  0  0  0  0
    9.3319    0.8506    1.0024 F   0  0  0  0  0  0  0  0  0  0  0  0
    8.1025    0.4796   -0.7596 F   0  0  0  0  0  0  0  0  0  0  0  0
   10.2681    0.2638   -0.8856 F   0  0  0  0  0  0  0  0  0  0  0  0
  1  6  2  0  0  0  0
  2  3  2  0  0  0  0
  2  1  1  0  0  0  0
  3  4  1  0  0  0  0
  4  5  2  0  0  0  0
  5 10  1  0  0  0  0
  6  5  1  0  0  0  0
  6 13  1  0  0  0  0
  7  1  1  0  0  0  0
  8  2  1  0  0  0  0
  9 20  1  0  0  0  0
 12 11  3  0  0  0  0
 13 14  1  0  0  0  0
 14 15  1  0  0  0  0
 14 17  1  0  0  0  0
 16 14  1  0  0  0  0
 18 19  2  0  0  0  0
 19 21  1  0  0  0  0
 19 20  1  0  0  0  0
 21 22  1  0  0  0  0
 23 21  1  0  0  0  0
 24 21  1  0  0  0  0
M  RAD  2   3   2   4   2
M  END
