Coordinates from ORCA-job p-CH3O-Ph-N2-OOCCF3-B3LYPG-aug-cc-pVDZ-scan-d09-49-n400
 OpenBabel11081710393D

 24 23  0  0  0  0  0  0  0  0999 V2000
   11.6911    8.2645   -1.5497 C   0  0  0  0  0  0  0  0  0  0  0  0
   10.4864    7.6894   -1.9108 C   0  0  0  0  0  0  0  0  0  0  0  0
   10.2412    6.3522   -1.5570 C   0  0  0  0  0  0  0  0  0  0  0  0
   11.1771    5.5804   -0.8510 C   0  0  0  0  0  0  0  0  0  0  0  0
   12.3855    6.1690   -0.4930 C   0  0  0  0  0  0  0  0  0  0  0  0
   12.6494    7.5095   -0.8386 C   0  0  0  0  0  0  0  0  0  0  0  0
   11.9210    9.2975   -1.8037 H   0  0  0  0  0  0  0  0  0  0  0  0
    9.7348    8.2544   -2.4592 H   0  0  0  0  0  0  0  0  0  0  0  0
   10.9366    4.5496   -0.6026 H   0  0  0  0  0  0  0  0  0  0  0  0
   13.1133    5.5757    0.0537 H   0  0  0  0  0  0  0  0  0  0  0  0
    8.9851    5.7867   -1.9457 N   0  0  0  0  0  0  0  0  0  0  0  0
    8.2751    4.8865   -1.9563 N   0  0  0  0  0  0  0  0  0  0  0  0
   13.7892    8.1618   -0.5350 O   0  0  0  0  0  0  0  0  0  0  0  0
   14.8167    7.4702    0.1865 C   0  0  0  0  0  0  0  0  0  0  0  0
   15.6239    8.1969    0.3092 H   0  0  0  0  0  0  0  0  0  0  0  0
   15.1801    6.6044   -0.3846 H   0  0  0  0  0  0  0  0  0  0  0  0
   14.4532    7.1489    1.1727 H   0  0  0  0  0  0  0  0  0  0  0  0
    7.2850    2.1668   -1.2120 O   0  0  0  0  0  0  0  0  0  0  0  0
    8.4431    2.3529   -0.8887 C   0  0  0  0  0  0  0  0  0  0  0  0
    9.1904    3.3995   -1.0175 O   0  0  0  0  0  0  0  0  0  0  0  0
    9.2413    1.1926   -0.2002 C   0  0  0  0  0  0  0  0  0  0  0  0
    9.7211    1.5775    1.0141 F   0  0  0  0  0  0  0  0  0  0  0  0
    8.4893    0.0978   -0.0065 F   0  0  0  0  0  0  0  0  0  0  0  0
   10.3134    0.8243   -0.9524 F   0  0  0  0  0  0  0  0  0  0  0  0
  1  6  2  0  0  0  0
  2  3  2  0  0  0  0
  2  1  1  0  0  0  0
  3  4  1  0  0  0  0
  4  9  1  0  0  0  0
  4  5  2  0  0  0  0
  5 10  1  0  0  0  0
  6 13  1  0  0  0  0
  6  5  1  0  0  0  0
  7  1  1  0  0  0  0
  8  2  1  0  0  0  0
 11  3  1  0  0  0  0
 12 11  2  0  0  0  0
 13 14  1  0  0  0  0
 14 15  1  0  0  0  0
 14 17  1  0  0  0  0
 16 14  1  0  0  0  0
 18 19  2  0  0  0  0
 19 21  1  0  0  0  0
 20 19  1  0  0  0  0
 21 23  1  0  0  0  0
 21 22  1  0  0  0  0
 24 21  1  0  0  0  0
M  RAD  2  12   2  20   2
M  END
