Coordinates from ORCA-job p-CH3O-Ph-N2-OOCCF3-B3LYPG-aug-cc-pVDZ-scan-d09-49-n400
 OpenBabel11081710393D

 24 23  0  0  0  0  0  0  0  0999 V2000
   11.7255    8.2902   -1.5435 C   0  0  0  0  0  0  0  0  0  0  0  0
   10.5053    7.7409   -1.9280 C   0  0  0  0  0  0  0  0  0  0  0  0
   10.3045    6.4244   -1.5634 C   0  0  0  0  0  0  0  0  0  0  0  0
   11.1564    5.5930   -0.8738 C   0  0  0  0  0  0  0  0  0  0  0  0
   12.3771    6.1749   -0.5008 C   0  0  0  0  0  0  0  0  0  0  0  0
   12.6622    7.5125   -0.8314 C   0  0  0  0  0  0  0  0  0  0  0  0
   11.9716    9.3224   -1.7864 H   0  0  0  0  0  0  0  0  0  0  0  0
    9.7607    8.3105   -2.4778 H   0  0  0  0  0  0  0  0  0  0  0  0
   10.8937    4.5654   -0.6396 H   0  0  0  0  0  0  0  0  0  0  0  0
   13.0886    5.5631    0.0472 H   0  0  0  0  0  0  0  0  0  0  0  0
    8.7281    5.7775   -2.0858 N   0  0  0  0  0  0  0  0  0  0  0  0
    8.1363    4.8076   -2.0136 N   0  0  0  0  0  0  0  0  0  0  0  0
   13.8140    8.1474   -0.5091 O   0  0  0  0  0  0  0  0  0  0  0  0
   14.8173    7.4283    0.2140 C   0  0  0  0  0  0  0  0  0  0  0  0
   15.6387    8.1358    0.3555 H   0  0  0  0  0  0  0  0  0  0  0  0
   15.1716    6.5610   -0.3617 H   0  0  0  0  0  0  0  0  0  0  0  0
   14.4382    7.1015    1.1932 H   0  0  0  0  0  0  0  0  0  0  0  0
    7.2840    2.1231   -1.1346 O   0  0  0  0  0  0  0  0  0  0  0  0
    8.4479    2.3407   -0.8591 C   0  0  0  0  0  0  0  0  0  0  0  0
    9.1705    3.3990   -1.0294 O   0  0  0  0  0  0  0  0  0  0  0  0
    9.3010    1.2091   -0.1843 C   0  0  0  0  0  0  0  0  0  0  0  0
    9.8315    1.6295    0.9961 F   0  0  0  0  0  0  0  0  0  0  0  0
    8.5779    0.1076    0.0688 F   0  0  0  0  0  0  0  0  0  0  0  0
   10.3405    0.8433   -0.9807 F   0  0  0  0  0  0  0  0  0  0  0  0
  1  6  2  0  0  0  0
  2  3  2  0  0  0  0
  2  1  1  0  0  0  0
  3  4  1  0  0  0  0
  4  9  1  0  0  0  0
  4  5  2  0  0  0  0
  5 10  1  0  0  0  0
  6 13  1  0  0  0  0
  6  5  1  0  0  0  0
  7  1  1  0  0  0  0
  8  2  1  0  0  0  0
 11 12  2  0  0  0  0
 11  3  1  0  0  0  0
 13 14  1  0  0  0  0
 14 15  1  0  0  0  0
 14 17  1  0  0  0  0
 16 14  1  0  0  0  0
 18 19  2  0  0  0  0
 19 21  1  0  0  0  0
 20 19  1  0  0  0  0
 21 23  1  0  0  0  0
 21 22  1  0  0  0  0
 24 21  1  0  0  0  0
M  RAD  2  12   2  20   2
M  END
