Coordinates from ORCA-job p-CH3O-Ph-N2-OOCCF3-B3LYPG-aug-cc-pVDZ-scan-d09-49-n400
 OpenBabel11081710393D

 24 23  0  0  0  0  0  0  0  0999 V2000
   11.7452    8.3206   -1.5402 C   0  0  0  0  0  0  0  0  0  0  0  0
   10.5135    7.8030   -1.9458 C   0  0  0  0  0  0  0  0  0  0  0  0
   10.3206    6.4927   -1.5856 C   0  0  0  0  0  0  0  0  0  0  0  0
   11.1206    5.6173   -0.9081 C   0  0  0  0  0  0  0  0  0  0  0  0
   12.3510    6.1785   -0.5184 C   0  0  0  0  0  0  0  0  0  0  0  0
   12.6609    7.5153   -0.8303 C   0  0  0  0  0  0  0  0  0  0  0  0
   12.0107    9.3516   -1.7682 H   0  0  0  0  0  0  0  0  0  0  0  0
    9.7809    8.3884   -2.4940 H   0  0  0  0  0  0  0  0  0  0  0  0
   10.8255    4.5916   -0.6949 H   0  0  0  0  0  0  0  0  0  0  0  0
   13.0455    5.5454    0.0274 H   0  0  0  0  0  0  0  0  0  0  0  0
    8.6306    5.7994   -2.1522 N   0  0  0  0  0  0  0  0  0  0  0  0
    8.0614    4.8275   -2.0710 N   0  0  0  0  0  0  0  0  0  0  0  0
   13.8209    8.1260   -0.4909 O   0  0  0  0  0  0  0  0  0  0  0  0
   14.8052    7.3795    0.2314 C   0  0  0  0  0  0  0  0  0  0  0  0
   15.6378    8.0702    0.3887 H   0  0  0  0  0  0  0  0  0  0  0  0
   15.1486    6.5135   -0.3529 H   0  0  0  0  0  0  0  0  0  0  0  0
   14.4117    7.0474    1.2031 H   0  0  0  0  0  0  0  0  0  0  0  0
    7.3136    2.0885   -1.0831 O   0  0  0  0  0  0  0  0  0  0  0  0
    8.4828    2.3230   -0.8320 C   0  0  0  0  0  0  0  0  0  0  0  0
    9.1927    3.3765   -1.0278 O   0  0  0  0  0  0  0  0  0  0  0  0
    9.3493    1.1987   -0.1558 C   0  0  0  0  0  0  0  0  0  0  0  0
    9.9055    1.6363    1.0077 F   0  0  0  0  0  0  0  0  0  0  0  0
    8.6349    0.0988    0.1316 F   0  0  0  0  0  0  0  0  0  0  0  0
   10.3735    0.8192   -0.9668 F   0  0  0  0  0  0  0  0  0  0  0  0
  1  6  2  0  0  0  0
  2  3  2  0  0  0  0
  2  1  1  0  0  0  0
  3  4  1  0  0  0  0
  4  9  1  0  0  0  0
  4  5  2  0  0  0  0
  5 10  1  0  0  0  0
  6  5  1  0  0  0  0
  6 13  1  0  0  0  0
  7  1  1  0  0  0  0
  8  2  1  0  0  0  0
 11 12  2  0  0  0  0
 11  3  1  0  0  0  0
 13 14  1  0  0  0  0
 14 15  1  0  0  0  0
 14 17  1  0  0  0  0
 16 14  1  0  0  0  0
 18 19  2  0  0  0  0
 19 21  1  0  0  0  0
 20 19  1  0  0  0  0
 21 23  1  0  0  0  0
 21 22  1  0  0  0  0
 24 21  1  0  0  0  0
M  RAD  2  12   2  20   2
M  END
