Coordinates from ORCA-job p-CH3O-Ph-N2-OOCCF3-B3LYPG-aug-cc-pVDZ-scan-d09-49-n400
 OpenBabel11081710393D

 24 22  0  0  0  0  0  0  0  0999 V2000
   11.7566    8.3648   -1.3986 C   0  0  0  0  0  0  0  0  0  0  0  0
   10.5090    7.9048   -1.8563 C   0  0  0  0  0  0  0  0  0  0  0  0
   10.4090    6.5828   -1.5011 C   0  0  0  0  0  0  0  0  0  0  0  0
   11.1165    5.7285   -0.9015 C   0  0  0  0  0  0  0  0  0  0  0  0
   12.3758    6.1638   -0.4306 C   0  0  0  0  0  0  0  0  0  0  0  0
   12.6674    7.5216   -0.7048 C   0  0  0  0  0  0  0  0  0  0  0  0
   12.0472    9.4002   -1.5750 H   0  0  0  0  0  0  0  0  0  0  0  0
    9.7916    8.5220   -2.3885 H   0  0  0  0  0  0  0  0  0  0  0  0
   10.5914    3.8794   -0.5889 H   0  0  0  0  0  0  0  0  0  0  0  0
   13.0694    5.5166    0.0993 H   0  0  0  0  0  0  0  0  0  0  0  0
    7.7912    6.0701   -2.5999 N   0  0  0  0  0  0  0  0  0  0  0  0
    6.8023    5.7601   -2.9795 N   0  0  0  0  0  0  0  0  0  0  0  0
   13.8290    8.1357   -0.3353 O   0  0  0  0  0  0  0  0  0  0  0  0
   14.8052    7.3689    0.3663 C   0  0  0  0  0  0  0  0  0  0  0  0
   15.6373    8.0530    0.5565 H   0  0  0  0  0  0  0  0  0  0  0  0
   15.1566    6.5217   -0.2420 H   0  0  0  0  0  0  0  0  0  0  0  0
   14.4065    6.9991    1.3232 H   0  0  0  0  0  0  0  0  0  0  0  0
    8.4819    2.9775   -1.3259 O   0  0  0  0  0  0  0  0  0  0  0  0
    9.3647    2.4147   -0.7302 C   0  0  0  0  0  0  0  0  0  0  0  0
   10.5242    2.9208   -0.3282 O   0  0  0  0  0  0  0  0  0  0  0  0
    9.2699    0.9206   -0.3189 C   0  0  0  0  0  0  0  0  0  0  0  0
    9.3605    0.7873    1.0238 F   0  0  0  0  0  0  0  0  0  0  0  0
    8.1065    0.3889   -0.7149 F   0  0  0  0  0  0  0  0  0  0  0  0
   10.2733    0.2061   -0.8772 F   0  0  0  0  0  0  0  0  0  0  0  0
  1  6  2  0  0  0  0
  2  3  2  0  0  0  0
  2  1  1  0  0  0  0
  3  4  1  0  0  0  0
  4  5  2  0  0  0  0
  5 10  1  0  0  0  0
  6  5  1  0  0  0  0
  6 13  1  0  0  0  0
  7  1  1  0  0  0  0
  8  2  1  0  0  0  0
  9 20  1  0  0  0  0
 12 11  3  0  0  0  0
 13 14  1  0  0  0  0
 14 15  1  0  0  0  0
 14 17  1  0  0  0  0
 16 14  1  0  0  0  0
 18 19  2  0  0  0  0
 19 20  1  0  0  0  0
 19 21  1  0  0  0  0
 21 22  1  0  0  0  0
 23 21  1  0  0  0  0
 24 21  1  0  0  0  0
M  RAD  2   3   2   4   2
M  END
