Coordinates from ORCA-job p-CH3O-Ph-N2-OOCCF3-B3LYPG-aug-cc-pVDZ-scan-d09-49-n400
 OpenBabel11081710393D

 24 23  0  0  0  0  0  0  0  0999 V2000
   11.7044    8.2683   -1.5485 C   0  0  0  0  0  0  0  0  0  0  0  0
   10.4945    7.6971   -1.9166 C   0  0  0  0  0  0  0  0  0  0  0  0
   10.2738    6.3713   -1.5536 C   0  0  0  0  0  0  0  0  0  0  0  0
   11.1746    5.5796   -0.8533 C   0  0  0  0  0  0  0  0  0  0  0  0
   12.3873    6.1715   -0.4917 C   0  0  0  0  0  0  0  0  0  0  0  0
   12.6561    7.5099   -0.8352 C   0  0  0  0  0  0  0  0  0  0  0  0
   11.9373    9.3009   -1.8017 H   0  0  0  0  0  0  0  0  0  0  0  0
    9.7433    8.2589   -2.4671 H   0  0  0  0  0  0  0  0  0  0  0  0
   10.9331    4.5506   -0.6052 H   0  0  0  0  0  0  0  0  0  0  0  0
   13.1105    5.5746    0.0571 H   0  0  0  0  0  0  0  0  0  0  0  0
    8.8601    5.7725   -2.0101 N   0  0  0  0  0  0  0  0  0  0  0  0
    8.2260    4.8182   -1.9632 N   0  0  0  0  0  0  0  0  0  0  0  0
   13.8008    8.1601   -0.5259 O   0  0  0  0  0  0  0  0  0  0  0  0
   14.8187    7.4611    0.1977 C   0  0  0  0  0  0  0  0  0  0  0  0
   15.6311    8.1811    0.3267 H   0  0  0  0  0  0  0  0  0  0  0  0
   15.1804    6.5933   -0.3724 H   0  0  0  0  0  0  0  0  0  0  0  0
   14.4500    7.1389    1.1821 H   0  0  0  0  0  0  0  0  0  0  0  0
    7.2781    2.1687   -1.1778 O   0  0  0  0  0  0  0  0  0  0  0  0
    8.4390    2.3592   -0.8765 C   0  0  0  0  0  0  0  0  0  0  0  0
    9.1832    3.4116   -1.0187 O   0  0  0  0  0  0  0  0  0  0  0  0
    9.2614    1.2069   -0.2028 C   0  0  0  0  0  0  0  0  0  0  0  0
    9.7677    1.6006    0.9967 F   0  0  0  0  0  0  0  0  0  0  0  0
    8.5173    0.1118    0.0125 F   0  0  0  0  0  0  0  0  0  0  0  0
   10.3146    0.8421   -0.9808 F   0  0  0  0  0  0  0  0  0  0  0  0
  1  6  2  0  0  0  0
  2  3  2  0  0  0  0
  2  1  1  0  0  0  0
  3  4  1  0  0  0  0
  4  9  1  0  0  0  0
  4  5  2  0  0  0  0
  5 10  1  0  0  0  0
  6 13  1  0  0  0  0
  6  5  1  0  0  0  0
  7  1  1  0  0  0  0
  8  2  1  0  0  0  0
 11 12  2  0  0  0  0
 11  3  1  0  0  0  0
 13 14  1  0  0  0  0
 14 15  1  0  0  0  0
 14 17  1  0  0  0  0
 16 14  1  0  0  0  0
 18 19  2  0  0  0  0
 19 21  1  0  0  0  0
 20 19  1  0  0  0  0
 21 23  1  0  0  0  0
 21 22  1  0  0  0  0
 24 21  1  0  0  0  0
M  RAD  2  12   2  20   2
M  END
