Coordinates from ORCA-job p-CH3O-Ph-N2-OOCCF3-B3LYPG-aug-cc-pVDZ-scan-d09-49-n400
 OpenBabel11081710393D

 24 22  0  0  0  0  0  0  0  0999 V2000
   11.8023    8.3640   -1.3765 C   0  0  0  0  0  0  0  0  0  0  0  0
   10.5570    7.8929   -1.8298 C   0  0  0  0  0  0  0  0  0  0  0  0
   10.4683    6.5701   -1.4686 C   0  0  0  0  0  0  0  0  0  0  0  0
   11.1936    5.7375   -0.8668 C   0  0  0  0  0  0  0  0  0  0  0  0
   12.4503    6.1727   -0.3972 C   0  0  0  0  0  0  0  0  0  0  0  0
   12.7246    7.5333   -0.6809 C   0  0  0  0  0  0  0  0  0  0  0  0
   12.0844    9.4010   -1.5578 H   0  0  0  0  0  0  0  0  0  0  0  0
    9.8336    8.5027   -2.3627 H   0  0  0  0  0  0  0  0  0  0  0  0
   10.6068    3.8553   -0.5739 H   0  0  0  0  0  0  0  0  0  0  0  0
   13.1506    5.5339    0.1335 H   0  0  0  0  0  0  0  0  0  0  0  0
    7.4010    6.0589   -2.7836 N   0  0  0  0  0  0  0  0  0  0  0  0
    6.4400    5.6269   -3.1126 N   0  0  0  0  0  0  0  0  0  0  0  0
   13.8807    8.1619   -0.3187 O   0  0  0  0  0  0  0  0  0  0  0  0
   14.8673    7.4094    0.3837 C   0  0  0  0  0  0  0  0  0  0  0  0
   15.6927    8.1033    0.5673 H   0  0  0  0  0  0  0  0  0  0  0  0
   15.2257    6.5628   -0.2215 H   0  0  0  0  0  0  0  0  0  0  0  0
   14.4758    7.0405    1.3438 H   0  0  0  0  0  0  0  0  0  0  0  0
    8.4908    2.9892   -1.3250 O   0  0  0  0  0  0  0  0  0  0  0  0
    9.3628    2.4105   -0.7297 C   0  0  0  0  0  0  0  0  0  0  0  0
   10.5287    2.8996   -0.3194 O   0  0  0  0  0  0  0  0  0  0  0  0
    9.2484    0.9154   -0.3278 C   0  0  0  0  0  0  0  0  0  0  0  0
    9.3321    0.7734    1.0143 F   0  0  0  0  0  0  0  0  0  0  0  0
    8.0803    0.4009   -0.7318 F   0  0  0  0  0  0  0  0  0  0  0  0
   10.2454    0.1926   -0.8865 F   0  0  0  0  0  0  0  0  0  0  0  0
  1  6  2  0  0  0  0
  2  3  2  0  0  0  0
  2  1  1  0  0  0  0
  3  4  1  0  0  0  0
  4  5  2  0  0  0  0
  5 10  1  0  0  0  0
  6  5  1  0  0  0  0
  6 13  1  0  0  0  0
  7  1  1  0  0  0  0
  8  2  1  0  0  0  0
  9 20  1  0  0  0  0
 12 11  3  0  0  0  0
 13 14  1  0  0  0  0
 14 15  1  0  0  0  0
 14 17  1  0  0  0  0
 16 14  1  0  0  0  0
 18 19  2  0  0  0  0
 19 21  1  0  0  0  0
 19 20  1  0  0  0  0
 21 22  1  0  0  0  0
 23 21  1  0  0  0  0
 24 21  1  0  0  0  0
M  RAD  2   3   2   4   2
M  END
