Coordinates from ORCA-job p-CH3O-Ph-N2-OOCCF3-B3LYPG-aug-cc-pVDZ-scan-d09-49-n400
 OpenBabel11081710393D

 24 22  0  0  0  0  0  0  0  0999 V2000
   11.8596    8.3481   -1.3443 C   0  0  0  0  0  0  0  0  0  0  0  0
   10.6207    7.8491   -1.7857 C   0  0  0  0  0  0  0  0  0  0  0  0
   10.5587    6.5274   -1.4117 C   0  0  0  0  0  0  0  0  0  0  0  0
   11.3093    5.7229   -0.8062 C   0  0  0  0  0  0  0  0  0  0  0  0
   12.5596    6.1798   -0.3465 C   0  0  0  0  0  0  0  0  0  0  0  0
   12.8033    7.5434   -0.6463 C   0  0  0  0  0  0  0  0  0  0  0  0
   12.1202    9.3887   -1.5372 H   0  0  0  0  0  0  0  0  0  0  0  0
    9.8840    8.4419   -2.3198 H   0  0  0  0  0  0  0  0  0  0  0  0
   10.6527    3.8263   -0.5425 H   0  0  0  0  0  0  0  0  0  0  0  0
   13.2752    5.5597    0.1858 H   0  0  0  0  0  0  0  0  0  0  0  0
    6.8341    6.0348   -3.0481 N   0  0  0  0  0  0  0  0  0  0  0  0
    5.9310    5.4536   -3.3039 N   0  0  0  0  0  0  0  0  0  0  0  0
   13.9484    8.1992   -0.2978 O   0  0  0  0  0  0  0  0  0  0  0  0
   14.9547    7.4742    0.4055 C   0  0  0  0  0  0  0  0  0  0  0  0
   15.7668    8.1868    0.5768 H   0  0  0  0  0  0  0  0  0  0  0  0
   15.3267    6.6291   -0.1936 H   0  0  0  0  0  0  0  0  0  0  0  0
   14.5770    7.1071    1.3719 H   0  0  0  0  0  0  0  0  0  0  0  0
    8.5198    3.0303   -1.3234 O   0  0  0  0  0  0  0  0  0  0  0  0
    9.3704    2.4203   -0.7289 C   0  0  0  0  0  0  0  0  0  0  0  0
   10.5465    2.8717   -0.3022 O   0  0  0  0  0  0  0  0  0  0  0  0
    9.2129    0.9238   -0.3477 C   0  0  0  0  0  0  0  0  0  0  0  0
    9.2808    0.7627    0.9932 F   0  0  0  0  0  0  0  0  0  0  0  0
    8.0353    0.4460   -0.7684 F   0  0  0  0  0  0  0  0  0  0  0  0
   10.1954    0.1821   -0.9071 F   0  0  0  0  0  0  0  0  0  0  0  0
  1  6  2  0  0  0  0
  2  3  2  0  0  0  0
  2  1  1  0  0  0  0
  3  4  1  0  0  0  0
  4  5  2  0  0  0  0
  5 10  1  0  0  0  0
  6  5  1  0  0  0  0
  6 13  1  0  0  0  0
  7  1  1  0  0  0  0
  8  2  1  0  0  0  0
  9 20  1  0  0  0  0
 12 11  3  0  0  0  0
 13 14  1  0  0  0  0
 14 15  1  0  0  0  0
 14 17  1  0  0  0  0
 16 14  1  0  0  0  0
 18 19  2  0  0  0  0
 19 21  1  0  0  0  0
 19 20  1  0  0  0  0
 21 22  1  0  0  0  0
 23 21  1  0  0  0  0
 24 21  1  0  0  0  0
M  RAD  2   3   2   4   2
M  END
