Coordinates from ORCA-job p-CH3O-Ph-N2-OOCCF3-B3LYPG-aug-cc-pVDZ-scan-d09-49-n400
 OpenBabel11081710393D

 24 22  0  0  0  0  0  0  0  0999 V2000
   11.6976    8.3527   -1.4225 C   0  0  0  0  0  0  0  0  0  0  0  0
   10.4522    7.8893   -1.8786 C   0  0  0  0  0  0  0  0  0  0  0  0
   10.3490    6.5698   -1.5264 C   0  0  0  0  0  0  0  0  0  0  0  0
   11.0324    5.6805   -0.9282 C   0  0  0  0  0  0  0  0  0  0  0  0
   12.2913    6.1480   -0.4670 C   0  0  0  0  0  0  0  0  0  0  0  0
   12.6000    7.5017   -0.7310 C   0  0  0  0  0  0  0  0  0  0  0  0
   11.9883    9.3879   -1.5983 H   0  0  0  0  0  0  0  0  0  0  0  0
    9.7351    8.5076   -2.4105 H   0  0  0  0  0  0  0  0  0  0  0  0
   10.6294    3.9303   -0.5882 H   0  0  0  0  0  0  0  0  0  0  0  0
   12.9833    5.4975    0.0627 H   0  0  0  0  0  0  0  0  0  0  0  0
    8.2262    6.0062   -2.3724 N   0  0  0  0  0  0  0  0  0  0  0  0
    7.2239    5.8216   -2.7953 N   0  0  0  0  0  0  0  0  0  0  0  0
   13.7650    8.1047   -0.3561 O   0  0  0  0  0  0  0  0  0  0  0  0
   14.7333    7.3266    0.3450 C   0  0  0  0  0  0  0  0  0  0  0  0
   15.5703    8.0033    0.5403 H   0  0  0  0  0  0  0  0  0  0  0  0
   15.0793    6.4794   -0.2661 H   0  0  0  0  0  0  0  0  0  0  0  0
   14.3290    6.9558    1.2990 H   0  0  0  0  0  0  0  0  0  0  0  0
    8.5082    3.0352   -1.3294 O   0  0  0  0  0  0  0  0  0  0  0  0
    9.3900    2.4641   -0.7348 C   0  0  0  0  0  0  0  0  0  0  0  0
   10.5481    2.9564   -0.3305 O   0  0  0  0  0  0  0  0  0  0  0  0
    9.2748    0.9689   -0.3309 C   0  0  0  0  0  0  0  0  0  0  0  0
    9.3572    0.8275    1.0120 F   0  0  0  0  0  0  0  0  0  0  0  0
    8.1070    0.4503   -0.7340 F   0  0  0  0  0  0  0  0  0  0  0  0
   10.2720    0.2435   -0.8872 F   0  0  0  0  0  0  0  0  0  0  0  0
  1  6  2  0  0  0  0
  2  3  2  0  0  0  0
  2  1  1  0  0  0  0
  3  4  1  0  0  0  0
  4  5  2  0  0  0  0
  5 10  1  0  0  0  0
  6  5  1  0  0  0  0
  6 13  1  0  0  0  0
  7  1  1  0  0  0  0
  8  2  1  0  0  0  0
  9 20  1  0  0  0  0
 12 11  3  0  0  0  0
 13 14  1  0  0  0  0
 14 15  1  0  0  0  0
 14 17  1  0  0  0  0
 16 14  1  0  0  0  0
 18 19  2  0  0  0  0
 19 21  1  0  0  0  0
 19 20  1  0  0  0  0
 21 22  1  0  0  0  0
 23 21  1  0  0  0  0
 24 21  1  0  0  0  0
M  RAD  2   3   2   4   2
M  END
