Coordinates from ORCA-job p-CH3O-Ph-N2-OOCCF3-B3LYPG-aug-cc-pVDZ-scan-d09-49-n400
 OpenBabel11081710393D

 24 23  0  0  0  0  0  0  0  0999 V2000
   11.7229    8.2870   -1.5440 C   0  0  0  0  0  0  0  0  0  0  0  0
   10.5040    7.7346   -1.9264 C   0  0  0  0  0  0  0  0  0  0  0  0
   10.3014    6.4171   -1.5617 C   0  0  0  0  0  0  0  0  0  0  0  0
   11.1594    5.5909   -0.8708 C   0  0  0  0  0  0  0  0  0  0  0  0
   12.3790    6.1744   -0.4993 C   0  0  0  0  0  0  0  0  0  0  0  0
   12.6617    7.5122   -0.8317 C   0  0  0  0  0  0  0  0  0  0  0  0
   11.9671    9.3194   -1.7884 H   0  0  0  0  0  0  0  0  0  0  0  0
    9.7583    8.3029   -2.4763 H   0  0  0  0  0  0  0  0  0  0  0  0
   10.8998    4.5631   -0.6347 H   0  0  0  0  0  0  0  0  0  0  0  0
   13.0922    5.5648    0.0488 H   0  0  0  0  0  0  0  0  0  0  0  0
    8.7430    5.7759   -2.0769 N   0  0  0  0  0  0  0  0  0  0  0  0
    8.1473    4.8069   -2.0068 N   0  0  0  0  0  0  0  0  0  0  0  0
   13.8126    8.1494   -0.5112 O   0  0  0  0  0  0  0  0  0  0  0  0
   14.8178    7.4331    0.2120 C   0  0  0  0  0  0  0  0  0  0  0  0
   15.6380    8.1423    0.3519 H   0  0  0  0  0  0  0  0  0  0  0  0
   15.1733    6.5657   -0.3629 H   0  0  0  0  0  0  0  0  0  0  0  0
   14.4402    7.1068    1.1919 H   0  0  0  0  0  0  0  0  0  0  0  0
    7.2822    2.1290   -1.1398 O   0  0  0  0  0  0  0  0  0  0  0  0
    8.4458    2.3433   -0.8615 C   0  0  0  0  0  0  0  0  0  0  0  0
    9.1710    3.4012   -1.0286 O   0  0  0  0  0  0  0  0  0  0  0  0
    9.2958    1.2094   -0.1871 C   0  0  0  0  0  0  0  0  0  0  0  0
    9.8236    1.6268    0.9954 F   0  0  0  0  0  0  0  0  0  0  0  0
    8.5702    0.1086    0.0616 F   0  0  0  0  0  0  0  0  0  0  0  0
   10.3366    0.8441   -0.9817 F   0  0  0  0  0  0  0  0  0  0  0  0
  1  6  2  0  0  0  0
  2  3  2  0  0  0  0
  2  1  1  0  0  0  0
  3  4  1  0  0  0  0
  4  9  1  0  0  0  0
  4  5  2  0  0  0  0
  5 10  1  0  0  0  0
  6 13  1  0  0  0  0
  6  5  1  0  0  0  0
  7  1  1  0  0  0  0
  8  2  1  0  0  0  0
 11 12  2  0  0  0  0
 11  3  1  0  0  0  0
 13 14  1  0  0  0  0
 14 15  1  0  0  0  0
 14 17  1  0  0  0  0
 16 14  1  0  0  0  0
 18 19  2  0  0  0  0
 19 21  1  0  0  0  0
 20 19  1  0  0  0  0
 21 23  1  0  0  0  0
 21 22  1  0  0  0  0
 24 21  1  0  0  0  0
M  RAD  2  12   2  20   2
M  END
