Coordinates from ORCA-job p-CH3O-Ph-N2-OOCCF3-B3LYPG-aug-cc-pVDZ-scan-d09-49-n400
 OpenBabel11081710393D

 24 22  0  0  0  0  0  0  0  0999 V2000
   11.7848    8.3680   -1.3861 C   0  0  0  0  0  0  0  0  0  0  0  0
   10.5373    7.9064   -1.8433 C   0  0  0  0  0  0  0  0  0  0  0  0
   10.4399    6.5837   -1.4865 C   0  0  0  0  0  0  0  0  0  0  0  0
   11.1553    5.7402   -0.8862 C   0  0  0  0  0  0  0  0  0  0  0  0
   12.4141    6.1691   -0.4137 C   0  0  0  0  0  0  0  0  0  0  0  0
   12.6994    7.5284   -0.6916 C   0  0  0  0  0  0  0  0  0  0  0  0
   12.0740    9.4038   -1.5635 H   0  0  0  0  0  0  0  0  0  0  0  0
    9.8188    8.5223   -2.3756 H   0  0  0  0  0  0  0  0  0  0  0  0
   10.5950    3.8683   -0.5836 H   0  0  0  0  0  0  0  0  0  0  0  0
   13.1091    5.5238    0.1163 H   0  0  0  0  0  0  0  0  0  0  0  0
    7.5651    6.0685   -2.7078 N   0  0  0  0  0  0  0  0  0  0  0  0
    6.5915    5.6832   -3.0571 N   0  0  0  0  0  0  0  0  0  0  0  0
   13.8592    8.1473   -0.3245 O   0  0  0  0  0  0  0  0  0  0  0  0
   14.8387    7.3851    0.3775 C   0  0  0  0  0  0  0  0  0  0  0  0
   15.6687    8.0723    0.5656 H   0  0  0  0  0  0  0  0  0  0  0  0
   15.1924    6.5381   -0.2298 H   0  0  0  0  0  0  0  0  0  0  0  0
   14.4423    7.0156    1.3354 H   0  0  0  0  0  0  0  0  0  0  0  0
    8.4844    2.9777   -1.3247 O   0  0  0  0  0  0  0  0  0  0  0  0
    9.3638    2.4103   -0.7292 C   0  0  0  0  0  0  0  0  0  0  0  0
   10.5258    2.9119   -0.3247 O   0  0  0  0  0  0  0  0  0  0  0  0
    9.2643    0.9159   -0.3203 C   0  0  0  0  0  0  0  0  0  0  0  0
    9.3535    0.7806    1.0223 F   0  0  0  0  0  0  0  0  0  0  0  0
    8.0997    0.3887   -0.7182 F   0  0  0  0  0  0  0  0  0  0  0  0
   10.2661    0.1996   -0.8789 F   0  0  0  0  0  0  0  0  0  0  0  0
  1  6  2  0  0  0  0
  2  3  2  0  0  0  0
  2  1  1  0  0  0  0
  3  4  1  0  0  0  0
  4  5  2  0  0  0  0
  5 10  1  0  0  0  0
  6  5  1  0  0  0  0
  6 13  1  0  0  0  0
  7  1  1  0  0  0  0
  8  2  1  0  0  0  0
  9 20  1  0  0  0  0
 12 11  3  0  0  0  0
 13 14  1  0  0  0  0
 14 15  1  0  0  0  0
 14 17  1  0  0  0  0
 16 14  1  0  0  0  0
 18 19  2  0  0  0  0
 19 20  1  0  0  0  0
 19 21  1  0  0  0  0
 21 22  1  0  0  0  0
 23 21  1  0  0  0  0
 24 21  1  0  0  0  0
M  RAD  2   3   2   4   2
M  END
