Coordinates from ORCA-job p-CH3O-Ph-N2-OOCCF3-B3LYPG-aug-cc-pVDZ-scan-d09-49-n400
 OpenBabel11081710393D

 24 22  0  0  0  0  0  0  0  0999 V2000
   11.6988    8.3528   -1.4207 C   0  0  0  0  0  0  0  0  0  0  0  0
   10.4532    7.8898   -1.8777 C   0  0  0  0  0  0  0  0  0  0  0  0
   10.3521    6.5707   -1.5262 C   0  0  0  0  0  0  0  0  0  0  0  0
   11.0358    5.6819   -0.9287 C   0  0  0  0  0  0  0  0  0  0  0  0
   12.2945    6.1477   -0.4663 C   0  0  0  0  0  0  0  0  0  0  0  0
   12.6019    7.5020   -0.7295 C   0  0  0  0  0  0  0  0  0  0  0  0
   11.9891    9.3883   -1.5954 H   0  0  0  0  0  0  0  0  0  0  0  0
    9.7363    8.5088   -2.4093 H   0  0  0  0  0  0  0  0  0  0  0  0
   10.6302    3.9269   -0.5907 H   0  0  0  0  0  0  0  0  0  0  0  0
   12.9867    5.4972    0.0630 H   0  0  0  0  0  0  0  0  0  0  0  0
    8.2109    6.0087   -2.3827 N   0  0  0  0  0  0  0  0  0  0  0  0
    7.2088    5.8249   -2.8065 N   0  0  0  0  0  0  0  0  0  0  0  0
   13.7663    8.1058   -0.3541 O   0  0  0  0  0  0  0  0  0  0  0  0
   14.7352    7.3281    0.3465 C   0  0  0  0  0  0  0  0  0  0  0  0
   15.5716    8.0054    0.5422 H   0  0  0  0  0  0  0  0  0  0  0  0
   15.0820    6.4816   -0.2652 H   0  0  0  0  0  0  0  0  0  0  0  0
   14.3312    6.9563    1.3002 H   0  0  0  0  0  0  0  0  0  0  0  0
    8.5069    3.0335   -1.3265 O   0  0  0  0  0  0  0  0  0  0  0  0
    9.3912    2.4609   -0.7373 C   0  0  0  0  0  0  0  0  0  0  0  0
   10.5499    2.9535   -0.3339 O   0  0  0  0  0  0  0  0  0  0  0  0
    9.2750    0.9670   -0.3291 C   0  0  0  0  0  0  0  0  0  0  0  0
    9.3631    0.8288    1.0138 F   0  0  0  0  0  0  0  0  0  0  0  0
    8.1043    0.4499   -0.7258 F   0  0  0  0  0  0  0  0  0  0  0  0
   10.2682    0.2384   -0.8881 F   0  0  0  0  0  0  0  0  0  0  0  0
  1  6  2  0  0  0  0
  2  3  2  0  0  0  0
  2  1  1  0  0  0  0
  3  4  1  0  0  0  0
  4  5  2  0  0  0  0
  5 10  1  0  0  0  0
  6  5  1  0  0  0  0
  6 13  1  0  0  0  0
  7  1  1  0  0  0  0
  8  2  1  0  0  0  0
  9 20  1  0  0  0  0
 12 11  3  0  0  0  0
 13 14  1  0  0  0  0
 14 15  1  0  0  0  0
 14 17  1  0  0  0  0
 16 14  1  0  0  0  0
 18 19  2  0  0  0  0
 19 20  1  0  0  0  0
 19 21  1  0  0  0  0
 21 22  1  0  0  0  0
 23 21  1  0  0  0  0
 24 21  1  0  0  0  0
M  RAD  2   3   2   4   2
M  END
