Coordinates from ORCA-job p-CH3O-Ph-N2-OOCCF3-B3LYPG-aug-cc-pVDZ-scan-d09-49-n400
 OpenBabel11081710393D

 24 22  0  0  0  0  0  0  0  0999 V2000
   11.8608    8.3467   -1.3433 C   0  0  0  0  0  0  0  0  0  0  0  0
   10.6226    7.8462   -1.7838 C   0  0  0  0  0  0  0  0  0  0  0  0
   10.5595    6.5235   -1.4101 C   0  0  0  0  0  0  0  0  0  0  0  0
   11.3130    5.7212   -0.8039 C   0  0  0  0  0  0  0  0  0  0  0  0
   12.5628    6.1803   -0.3451 C   0  0  0  0  0  0  0  0  0  0  0  0
   12.8053    7.5436   -0.6454 C   0  0  0  0  0  0  0  0  0  0  0  0
   12.1202    9.3875   -1.5368 H   0  0  0  0  0  0  0  0  0  0  0  0
    9.8852    8.4382   -2.3180 H   0  0  0  0  0  0  0  0  0  0  0  0
   10.6551    3.8241   -0.5407 H   0  0  0  0  0  0  0  0  0  0  0  0
   13.2793    5.5613    0.1873 H   0  0  0  0  0  0  0  0  0  0  0  0
    6.8167    6.0374   -3.0573 N   0  0  0  0  0  0  0  0  0  0  0  0
    5.9152    5.4529   -3.3114 N   0  0  0  0  0  0  0  0  0  0  0  0
   13.9500    8.2006   -0.2975 O   0  0  0  0  0  0  0  0  0  0  0  0
   14.9572    7.4768    0.4058 C   0  0  0  0  0  0  0  0  0  0  0  0
   15.7687    8.1902    0.5766 H   0  0  0  0  0  0  0  0  0  0  0  0
   15.3297    6.6319   -0.1930 H   0  0  0  0  0  0  0  0  0  0  0  0
   14.5802    7.1098    1.3725 H   0  0  0  0  0  0  0  0  0  0  0  0
    8.5240    3.0330   -1.3222 O   0  0  0  0  0  0  0  0  0  0  0  0
    9.3724    2.4202   -0.7280 C   0  0  0  0  0  0  0  0  0  0  0  0
   10.5486    2.8696   -0.3005 O   0  0  0  0  0  0  0  0  0  0  0  0
    9.2118    0.9237   -0.3482 C   0  0  0  0  0  0  0  0  0  0  0  0
    9.2785    0.7612    0.9926 F   0  0  0  0  0  0  0  0  0  0  0  0
    8.0334    0.4486   -0.7701 F   0  0  0  0  0  0  0  0  0  0  0  0
   10.1931    0.1805   -0.9077 F   0  0  0  0  0  0  0  0  0  0  0  0
  1  6  2  0  0  0  0
  2  3  2  0  0  0  0
  2  1  1  0  0  0  0
  3  4  1  0  0  0  0
  4  5  2  0  0  0  0
  5 10  1  0  0  0  0
  6  5  1  0  0  0  0
  6 13  1  0  0  0  0
  7  1  1  0  0  0  0
  8  2  1  0  0  0  0
  9 20  1  0  0  0  0
 12 11  3  0  0  0  0
 13 14  1  0  0  0  0
 14 15  1  0  0  0  0
 14 17  1  0  0  0  0
 16 14  1  0  0  0  0
 18 19  2  0  0  0  0
 19 21  1  0  0  0  0
 19 20  1  0  0  0  0
 21 22  1  0  0  0  0
 23 21  1  0  0  0  0
 24 21  1  0  0  0  0
M  RAD  2   3   2   4   2
M  END
