Coordinates from ORCA-job p-CH3O-Ph-N2-OOCCF3-B3LYPG-aug-cc-pVDZ-scan-d09-49-n400
 OpenBabel11081710393D

 24 22  0  0  0  0  0  0  0  0999 V2000
   11.7522    8.3626   -1.4000 C   0  0  0  0  0  0  0  0  0  0  0  0
   10.5040    7.9011   -1.8576 C   0  0  0  0  0  0  0  0  0  0  0  0
   10.4114    6.5814   -1.4996 C   0  0  0  0  0  0  0  0  0  0  0  0
   11.1150    5.7245   -0.9010 C   0  0  0  0  0  0  0  0  0  0  0  0
   12.3743    6.1619   -0.4308 C   0  0  0  0  0  0  0  0  0  0  0  0
   12.6642    7.5205   -0.7060 C   0  0  0  0  0  0  0  0  0  0  0  0
   12.0420    9.3982   -1.5769 H   0  0  0  0  0  0  0  0  0  0  0  0
    9.7857    8.5172   -2.3898 H   0  0  0  0  0  0  0  0  0  0  0  0
   10.5935    3.8804   -0.5882 H   0  0  0  0  0  0  0  0  0  0  0  0
   13.0688    5.5157    0.0992 H   0  0  0  0  0  0  0  0  0  0  0  0
    7.8213    6.0670   -2.5845 N   0  0  0  0  0  0  0  0  0  0  0  0
    6.8309    5.7663   -2.9676 N   0  0  0  0  0  0  0  0  0  0  0  0
   13.8251    8.1364   -0.3374 O   0  0  0  0  0  0  0  0  0  0  0  0
   14.8024    7.3711    0.3643 C   0  0  0  0  0  0  0  0  0  0  0  0
   15.6338    8.0562    0.5539 H   0  0  0  0  0  0  0  0  0  0  0  0
   15.1545    6.5240   -0.2437 H   0  0  0  0  0  0  0  0  0  0  0  0
   14.4044    7.0013    1.3215 H   0  0  0  0  0  0  0  0  0  0  0  0
    8.4785    2.9781   -1.3278 O   0  0  0  0  0  0  0  0  0  0  0  0
    9.3621    2.4163   -0.7319 C   0  0  0  0  0  0  0  0  0  0  0  0
   10.5219    2.9209   -0.3294 O   0  0  0  0  0  0  0  0  0  0  0  0
    9.2668    0.9220   -0.3208 C   0  0  0  0  0  0  0  0  0  0  0  0
    9.3571    0.7883    1.0219 F   0  0  0  0  0  0  0  0  0  0  0  0
    8.1033    0.3904   -0.7170 F   0  0  0  0  0  0  0  0  0  0  0  0
   10.2700    0.2071   -0.8790 F   0  0  0  0  0  0  0  0  0  0  0  0
  1  6  2  0  0  0  0
  2  3  2  0  0  0  0
  2  1  1  0  0  0  0
  3  4  1  0  0  0  0
  4  5  2  0  0  0  0
  5 10  1  0  0  0  0
  6  5  1  0  0  0  0
  6 13  1  0  0  0  0
  7  1  1  0  0  0  0
  8  2  1  0  0  0  0
  9 20  1  0  0  0  0
 12 11  3  0  0  0  0
 13 14  1  0  0  0  0
 14 15  1  0  0  0  0
 14 17  1  0  0  0  0
 16 14  1  0  0  0  0
 18 19  2  0  0  0  0
 19 20  1  0  0  0  0
 19 21  1  0  0  0  0
 21 22  1  0  0  0  0
 23 21  1  0  0  0  0
 24 21  1  0  0  0  0
M  RAD  2   3   2   4   2
M  END
