Coordinates from ORCA-job p-CH3O-Ph-N2-OOCCF3-B3LYPG-aug-cc-pVDZ-scan-d09-49-n400
 OpenBabel11081710393D

 24 22  0  0  0  0  0  0  0  0999 V2000
   11.8465    8.3623   -1.3550 C   0  0  0  0  0  0  0  0  0  0  0  0
   10.6032    7.8823   -1.8043 C   0  0  0  0  0  0  0  0  0  0  0  0
   10.5217    6.5590   -1.4393 C   0  0  0  0  0  0  0  0  0  0  0  0
   11.2581    5.7386   -0.8358 C   0  0  0  0  0  0  0  0  0  0  0  0
   12.5127    6.1787   -0.3689 C   0  0  0  0  0  0  0  0  0  0  0  0
   12.7762    7.5404   -0.6584 C   0  0  0  0  0  0  0  0  0  0  0  0
   12.1216    9.4005   -1.5401 H   0  0  0  0  0  0  0  0  0  0  0  0
    9.8756    8.4868   -2.3377 H   0  0  0  0  0  0  0  0  0  0  0  0
   10.6329    3.8458   -0.5581 H   0  0  0  0  0  0  0  0  0  0  0  0
   13.2179    5.5460    0.1624 H   0  0  0  0  0  0  0  0  0  0  0  0
    7.0069    6.0358   -2.9654 N   0  0  0  0  0  0  0  0  0  0  0  0
    6.0880    5.4885   -3.2390 N   0  0  0  0  0  0  0  0  0  0  0  0
   13.9286    8.1785   -0.3009 O   0  0  0  0  0  0  0  0  0  0  0  0
   14.9221    7.4354    0.4018 C   0  0  0  0  0  0  0  0  0  0  0  0
   15.7429    8.1358    0.5812 H   0  0  0  0  0  0  0  0  0  0  0  0
   15.2851    6.5893   -0.2012 H   0  0  0  0  0  0  0  0  0  0  0  0
   14.5353    7.0672    1.3642 H   0  0  0  0  0  0  0  0  0  0  0  0
    8.5105    3.0136   -1.3229 O   0  0  0  0  0  0  0  0  0  0  0  0
    9.3719    2.4194   -0.7280 C   0  0  0  0  0  0  0  0  0  0  0  0
   10.5429    2.8909   -0.3098 O   0  0  0  0  0  0  0  0  0  0  0  0
    9.2372    0.9235   -0.3359 C   0  0  0  0  0  0  0  0  0  0  0  0
    9.3133    0.7725    1.0057 F   0  0  0  0  0  0  0  0  0  0  0  0
    8.0646    0.4262   -0.7480 F   0  0  0  0  0  0  0  0  0  0  0  0
   10.2276    0.1918   -0.8947 F   0  0  0  0  0  0  0  0  0  0  0  0
  1  6  2  0  0  0  0
  2  3  2  0  0  0  0
  2  1  1  0  0  0  0
  3  4  1  0  0  0  0
  4  5  2  0  0  0  0
  5 10  1  0  0  0  0
  6  5  1  0  0  0  0
  6 13  1  0  0  0  0
  7  1  1  0  0  0  0
  8  2  1  0  0  0  0
  9 20  1  0  0  0  0
 12 11  3  0  0  0  0
 13 14  1  0  0  0  0
 14 15  1  0  0  0  0
 14 17  1  0  0  0  0
 16 14  1  0  0  0  0
 18 19  2  0  0  0  0
 19 21  1  0  0  0  0
 19 20  1  0  0  0  0
 21 22  1  0  0  0  0
 23 21  1  0  0  0  0
 24 21  1  0  0  0  0
M  RAD  2   3   2   4   2
M  END
