Coordinates from ORCA-job p-CH3O-Ph-N2-OOCCF3-B3LYPG-aug-cc-pVDZ-scan-d09-49-n400
 OpenBabel11081710393D

 24 22  0  0  0  0  0  0  0  0999 V2000
   11.6163    8.2589   -1.4278 C   0  0  0  0  0  0  0  0  0  0  0  0
   10.3962    7.7138   -1.8462 C   0  0  0  0  0  0  0  0  0  0  0  0
   10.3215    6.3967   -1.4863 C   0  0  0  0  0  0  0  0  0  0  0  0
   11.0813    5.5121   -0.8563 C   0  0  0  0  0  0  0  0  0  0  0  0
   12.3032    6.1135   -0.4545 C   0  0  0  0  0  0  0  0  0  0  0  0
   12.5634    7.4665   -0.7373 C   0  0  0  0  0  0  0  0  0  0  0  0
   11.8416    9.3039   -1.6352 H   0  0  0  0  0  0  0  0  0  0  0  0
    9.6396    8.2810   -2.3794 H   0  0  0  0  0  0  0  0  0  0  0  0
   10.8632    4.3910   -0.6204 H   0  0  0  0  0  0  0  0  0  0  0  0
   13.0165    5.4864    0.0751 H   0  0  0  0  0  0  0  0  0  0  0  0
    8.5080    5.6514   -2.1278 N   0  0  0  0  0  0  0  0  0  0  0  0
    7.5172    5.6850   -2.6149 N   0  0  0  0  0  0  0  0  0  0  0  0
   13.7019    8.1138   -0.3885 O   0  0  0  0  0  0  0  0  0  0  0  0
   14.7128    7.3844    0.3147 C   0  0  0  0  0  0  0  0  0  0  0  0
   15.5220    8.0990    0.4868 H   0  0  0  0  0  0  0  0  0  0  0  0
   15.0830    6.5439   -0.2901 H   0  0  0  0  0  0  0  0  0  0  0  0
   14.3324    7.0160    1.2784 H   0  0  0  0  0  0  0  0  0  0  0  0
    8.6894    3.2755   -1.3161 O   0  0  0  0  0  0  0  0  0  0  0  0
    9.5220    2.5831   -0.7103 C   0  0  0  0  0  0  0  0  0  0  0  0
   10.6622    2.8980   -0.2655 O   0  0  0  0  0  0  0  0  0  0  0  0
    9.1438    1.0906   -0.4296 C   0  0  0  0  0  0  0  0  0  0  0  0
    9.1067    0.8468    0.9056 F   0  0  0  0  0  0  0  0  0  0  0  0
    7.9404    0.7506   -0.9317 F   0  0  0  0  0  0  0  0  0  0  0  0
   10.0587    0.2471   -0.9708 F   0  0  0  0  0  0  0  0  0  0  0  0
  1  6  2  0  0  0  0
  2  3  2  0  0  0  0
  2  1  1  0  0  0  0
  3  4  1  0  0  0  0
  4  9  1  0  0  0  0
  4  5  2  0  0  0  0
  5 10  1  0  0  0  0
  6  5  1  0  0  0  0
  6 13  1  0  0  0  0
  7  1  1  0  0  0  0
  8  2  1  0  0  0  0
 12 11  3  0  0  0  0
 13 14  1  0  0  0  0
 14 15  1  0  0  0  0
 14 17  1  0  0  0  0
 16 14  1  0  0  0  0
 18 19  2  0  0  0  0
 19 21  1  0  0  0  0
 19 20  1  0  0  0  0
 21 22  1  0  0  0  0
 23 21  1  0  0  0  0
 24 21  1  0  0  0  0
M  RAD  2   3   2  20   2
M  END
