Coordinates from ORCA-job p-CH3O-Ph-N2-OOCCF3-B3LYPG-aug-cc-pVDZ-scan-d09-49-n400
 OpenBabel11081710393D

 24 22  0  0  0  0  0  0  0  0999 V2000
   11.8735    8.3099   -1.3260 C   0  0  0  0  0  0  0  0  0  0  0  0
   10.6466    7.7685   -1.7488 C   0  0  0  0  0  0  0  0  0  0  0  0
   10.6230    6.4490   -1.3573 C   0  0  0  0  0  0  0  0  0  0  0  0
   11.4076    5.6814   -0.7470 C   0  0  0  0  0  0  0  0  0  0  0  0
   12.6476    6.1784   -0.3044 C   0  0  0  0  0  0  0  0  0  0  0  0
   12.8472    7.5441   -0.6256 C   0  0  0  0  0  0  0  0  0  0  0  0
   12.1015    9.3549   -1.5356 H   0  0  0  0  0  0  0  0  0  0  0  0
    9.8882    8.3323   -2.2843 H   0  0  0  0  0  0  0  0  0  0  0  0
   10.7102    3.7751   -0.4995 H   0  0  0  0  0  0  0  0  0  0  0  0
   13.3858    5.5874    0.2298 H   0  0  0  0  0  0  0  0  0  0  0  0
    6.5365    6.0594   -3.1984 N   0  0  0  0  0  0  0  0  0  0  0  0
    5.6615    5.4251   -3.4245 N   0  0  0  0  0  0  0  0  0  0  0  0
   13.9751    8.2389   -0.2970 O   0  0  0  0  0  0  0  0  0  0  0  0
   15.0089    7.5547    0.4071 C   0  0  0  0  0  0  0  0  0  0  0  0
   15.8006    8.2937    0.5610 H   0  0  0  0  0  0  0  0  0  0  0  0
   15.4010    6.7127   -0.1833 H   0  0  0  0  0  0  0  0  0  0  0  0
   14.6509    7.1903    1.3820 H   0  0  0  0  0  0  0  0  0  0  0  0
    8.5638    3.0781   -1.3166 O   0  0  0  0  0  0  0  0  0  0  0  0
    9.3817    2.4233   -0.7243 C   0  0  0  0  0  0  0  0  0  0  0  0
   10.5690    2.8220   -0.2764 O   0  0  0  0  0  0  0  0  0  0  0  0
    9.1620    0.9276   -0.3730 C   0  0  0  0  0  0  0  0  0  0  0  0
    9.2077    0.7394    0.9652 F   0  0  0  0  0  0  0  0  0  0  0  0
    7.9717    0.5040   -0.8158 F   0  0  0  0  0  0  0  0  0  0  0  0
   10.1215    0.1587   -0.9354 F   0  0  0  0  0  0  0  0  0  0  0  0
  1  6  2  0  0  0  0
  2  3  2  0  0  0  0
  2  1  1  0  0  0  0
  3  4  1  0  0  0  0
  4  5  2  0  0  0  0
  5 10  1  0  0  0  0
  6  5  1  0  0  0  0
  6 13  1  0  0  0  0
  7  1  1  0  0  0  0
  8  2  1  0  0  0  0
  9 20  1  0  0  0  0
 12 11  3  0  0  0  0
 13 14  1  0  0  0  0
 14 15  1  0  0  0  0
 14 17  1  0  0  0  0
 16 14  1  0  0  0  0
 18 19  2  0  0  0  0
 19 21  1  0  0  0  0
 19 20  1  0  0  0  0
 21 22  1  0  0  0  0
 23 21  1  0  0  0  0
 24 21  1  0  0  0  0
M  RAD  2   3   2   4   2
M  END
