Coordinates from ORCA-job p-CH3O-Ph-N2-OOCCF3-B3LYPG-aug-cc-pVDZ-scan-d09-49-n400
 OpenBabel11081710393D

 24 22  0  0  0  0  0  0  0  0999 V2000
   11.8226    8.3616   -1.3662 C   0  0  0  0  0  0  0  0  0  0  0  0
   10.5788    7.8840   -1.8166 C   0  0  0  0  0  0  0  0  0  0  0  0
   10.4958    6.5610   -1.4524 C   0  0  0  0  0  0  0  0  0  0  0  0
   11.2284    5.7363   -0.8494 C   0  0  0  0  0  0  0  0  0  0  0  0
   12.4836    6.1759   -0.3820 C   0  0  0  0  0  0  0  0  0  0  0  0
   12.7502    7.5373   -0.6699 C   0  0  0  0  0  0  0  0  0  0  0  0
   12.0996    9.3995   -1.5503 H   0  0  0  0  0  0  0  0  0  0  0  0
    9.8520    8.4896   -2.3498 H   0  0  0  0  0  0  0  0  0  0  0  0
   10.6196    3.8481   -0.5653 H   0  0  0  0  0  0  0  0  0  0  0  0
   13.1876    5.5415    0.1491 H   0  0  0  0  0  0  0  0  0  0  0  0
    7.2183    6.0453   -2.8669 N   0  0  0  0  0  0  0  0  0  0  0  0
    6.2759    5.5567   -3.1698 N   0  0  0  0  0  0  0  0  0  0  0  0
   13.9037    8.1727   -0.3111 O   0  0  0  0  0  0  0  0  0  0  0  0
   14.8952    7.4270    0.3915 C   0  0  0  0  0  0  0  0  0  0  0  0
   15.7174    8.1256    0.5721 H   0  0  0  0  0  0  0  0  0  0  0  0
   15.2570    6.5807   -0.2120 H   0  0  0  0  0  0  0  0  0  0  0  0
   14.5072    7.0586    1.3533 H   0  0  0  0  0  0  0  0  0  0  0  0
    8.4995    3.0032   -1.3251 O   0  0  0  0  0  0  0  0  0  0  0  0
    9.3649    2.4148   -0.7300 C   0  0  0  0  0  0  0  0  0  0  0  0
   10.5340    2.8929   -0.3147 O   0  0  0  0  0  0  0  0  0  0  0  0
    9.2378    0.9191   -0.3342 C   0  0  0  0  0  0  0  0  0  0  0  0
    9.3167    0.7715    1.0076 F   0  0  0  0  0  0  0  0  0  0  0  0
    8.0668    0.4153   -0.7433 F   0  0  0  0  0  0  0  0  0  0  0  0
   10.2307    0.1908   -0.8929 F   0  0  0  0  0  0  0  0  0  0  0  0
  1  6  2  0  0  0  0
  2  3  2  0  0  0  0
  2  1  1  0  0  0  0
  3  4  1  0  0  0  0
  4  5  2  0  0  0  0
  5 10  1  0  0  0  0
  6  5  1  0  0  0  0
  6 13  1  0  0  0  0
  7  1  1  0  0  0  0
  8  2  1  0  0  0  0
  9 20  1  0  0  0  0
 12 11  3  0  0  0  0
 13 14  1  0  0  0  0
 14 15  1  0  0  0  0
 14 17  1  0  0  0  0
 16 14  1  0  0  0  0
 18 19  2  0  0  0  0
 19 21  1  0  0  0  0
 19 20  1  0  0  0  0
 21 22  1  0  0  0  0
 23 21  1  0  0  0  0
 24 21  1  0  0  0  0
M  RAD  2   3   2   4   2
M  END
