Coordinates from ORCA-job p-CH3O-Ph-N2-OOCCF3-B3LYPG-aug-cc-pVDZ-scan-d09-49-n400
 OpenBabel11081710393D

 24 23  0  0  0  0  0  0  0  0999 V2000
   11.7377    8.3107   -1.5411 C   0  0  0  0  0  0  0  0  0  0  0  0
   10.5100    7.7814   -1.9396 C   0  0  0  0  0  0  0  0  0  0  0  0
   10.3164    6.4688   -1.5777 C   0  0  0  0  0  0  0  0  0  0  0  0
   11.1345    5.6082   -0.8963 C   0  0  0  0  0  0  0  0  0  0  0  0
   12.3612    6.1780   -0.5126 C   0  0  0  0  0  0  0  0  0  0  0  0
   12.6613    7.5153   -0.8307 C   0  0  0  0  0  0  0  0  0  0  0  0
   11.9958    9.3424   -1.7740 H   0  0  0  0  0  0  0  0  0  0  0  0
    9.7727    8.3608   -2.4881 H   0  0  0  0  0  0  0  0  0  0  0  0
   10.8512    4.5816   -0.6762 H   0  0  0  0  0  0  0  0  0  0  0  0
   13.0622    5.5526    0.0338 H   0  0  0  0  0  0  0  0  0  0  0  0
    8.6706    5.7924   -2.1276 N   0  0  0  0  0  0  0  0  0  0  0  0
    8.0923    4.8221   -2.0508 N   0  0  0  0  0  0  0  0  0  0  0  0
   13.8182    8.1353   -0.4972 O   0  0  0  0  0  0  0  0  0  0  0  0
   14.8097    7.3989    0.2251 C   0  0  0  0  0  0  0  0  0  0  0  0
   15.6380    8.0960    0.3770 H   0  0  0  0  0  0  0  0  0  0  0  0
   15.1575    6.5328   -0.3564 H   0  0  0  0  0  0  0  0  0  0  0  0
   14.4217    7.0681    1.1994 H   0  0  0  0  0  0  0  0  0  0  0  0
    7.3018    2.1014   -1.1010 O   0  0  0  0  0  0  0  0  0  0  0  0
    8.4698    2.3283   -0.8414 C   0  0  0  0  0  0  0  0  0  0  0  0
    9.1857    3.3819   -1.0283 O   0  0  0  0  0  0  0  0  0  0  0  0
    9.3293    1.1995   -0.1658 C   0  0  0  0  0  0  0  0  0  0  0  0
    9.8800    1.6304    1.0024 F   0  0  0  0  0  0  0  0  0  0  0  0
    8.6091    0.1012    0.1120 F   0  0  0  0  0  0  0  0  0  0  0  0
   10.3565    0.8209   -0.9731 F   0  0  0  0  0  0  0  0  0  0  0  0
  1  6  2  0  0  0  0
  2  3  2  0  0  0  0
  2  1  1  0  0  0  0
  3  4  1  0  0  0  0
  4  9  1  0  0  0  0
  4  5  2  0  0  0  0
  5 10  1  0  0  0  0
  6  5  1  0  0  0  0
  6 13  1  0  0  0  0
  7  1  1  0  0  0  0
  8  2  1  0  0  0  0
 11 12  2  0  0  0  0
 11  3  1  0  0  0  0
 13 14  1  0  0  0  0
 14 15  1  0  0  0  0
 14 17  1  0  0  0  0
 16 14  1  0  0  0  0
 18 19  2  0  0  0  0
 19 21  1  0  0  0  0
 20 19  1  0  0  0  0
 21 23  1  0  0  0  0
 21 22  1  0  0  0  0
 24 21  1  0  0  0  0
M  RAD  2  12   2  20   2
M  END
