Coordinates from ORCA-job p-CH3O-Ph-N2-OOCCF3-B3LYPG-aug-cc-pVDZ-scan-d09-49-n400
 OpenBabel11081710393D

 24 22  0  0  0  0  0  0  0  0999 V2000
   11.8455    8.3622   -1.3554 C   0  0  0  0  0  0  0  0  0  0  0  0
   10.6023    7.8823   -1.8048 C   0  0  0  0  0  0  0  0  0  0  0  0
   10.5207    6.5590   -1.4398 C   0  0  0  0  0  0  0  0  0  0  0  0
   11.2570    5.7385   -0.8363 C   0  0  0  0  0  0  0  0  0  0  0  0
   12.5116    6.1786   -0.3693 C   0  0  0  0  0  0  0  0  0  0  0  0
   12.7752    7.5403   -0.6588 C   0  0  0  0  0  0  0  0  0  0  0  0
   12.1207    9.4005   -1.5405 H   0  0  0  0  0  0  0  0  0  0  0  0
    9.8747    8.4869   -2.3382 H   0  0  0  0  0  0  0  0  0  0  0  0
   10.6322    3.8458   -0.5585 H   0  0  0  0  0  0  0  0  0  0  0  0
   13.2168    5.5458    0.1619 H   0  0  0  0  0  0  0  0  0  0  0  0
    7.0150    6.0367   -2.9618 N   0  0  0  0  0  0  0  0  0  0  0  0
    6.0951    5.4917   -3.2366 N   0  0  0  0  0  0  0  0  0  0  0  0
   13.9276    8.1783   -0.3013 O   0  0  0  0  0  0  0  0  0  0  0  0
   14.9211    7.4352    0.4014 C   0  0  0  0  0  0  0  0  0  0  0  0
   15.7420    8.1355    0.5808 H   0  0  0  0  0  0  0  0  0  0  0  0
   15.2841    6.5891   -0.2016 H   0  0  0  0  0  0  0  0  0  0  0  0
   14.5343    7.0670    1.3638 H   0  0  0  0  0  0  0  0  0  0  0  0
    8.5099    3.0129   -1.3229 O   0  0  0  0  0  0  0  0  0  0  0  0
    9.3715    2.4190   -0.7281 C   0  0  0  0  0  0  0  0  0  0  0  0
   10.5425    2.8909   -0.3100 O   0  0  0  0  0  0  0  0  0  0  0  0
    9.2373    0.9232   -0.3357 C   0  0  0  0  0  0  0  0  0  0  0  0
    9.3136    0.7723    1.0059 F   0  0  0  0  0  0  0  0  0  0  0  0
    8.0647    0.4255   -0.7477 F   0  0  0  0  0  0  0  0  0  0  0  0
   10.2278    0.1917   -0.8945 F   0  0  0  0  0  0  0  0  0  0  0  0
  1  6  2  0  0  0  0
  2  3  2  0  0  0  0
  2  1  1  0  0  0  0
  3  4  1  0  0  0  0
  4  5  2  0  0  0  0
  5 10  1  0  0  0  0
  6  5  1  0  0  0  0
  6 13  1  0  0  0  0
  7  1  1  0  0  0  0
  8  2  1  0  0  0  0
  9 20  1  0  0  0  0
 12 11  3  0  0  0  0
 13 14  1  0  0  0  0
 14 15  1  0  0  0  0
 14 17  1  0  0  0  0
 16 14  1  0  0  0  0
 18 19  2  0  0  0  0
 19 21  1  0  0  0  0
 19 20  1  0  0  0  0
 21 22  1  0  0  0  0
 23 21  1  0  0  0  0
 24 21  1  0  0  0  0
M  RAD  2   3   2   4   2
M  END
