Coordinates from ORCA-job p-CH3O-Ph-N2-OOCCF3-B3LYPG-aug-cc-pVDZ-scan-d09-49-n400
 OpenBabel11081710393D

 24 22  0  0  0  0  0  0  0  0999 V2000
   11.8640    8.3367   -1.3386 C   0  0  0  0  0  0  0  0  0  0  0  0
   10.6286    7.8241   -1.7740 C   0  0  0  0  0  0  0  0  0  0  0  0
   10.5797    6.5033   -1.3942 C   0  0  0  0  0  0  0  0  0  0  0  0
   11.3408    5.7102   -0.7872 C   0  0  0  0  0  0  0  0  0  0  0  0
   12.5880    6.1796   -0.3329 C   0  0  0  0  0  0  0  0  0  0  0  0
   12.8175    7.5442   -0.6397 C   0  0  0  0  0  0  0  0  0  0  0  0
   12.1143    9.3788   -1.5368 H   0  0  0  0  0  0  0  0  0  0  0  0
    9.8849    8.4078   -2.3087 H   0  0  0  0  0  0  0  0  0  0  0  0
   10.6678    3.8111   -0.5306 H   0  0  0  0  0  0  0  0  0  0  0  0
   13.3109    5.5687    0.2000 H   0  0  0  0  0  0  0  0  0  0  0  0
    6.7461    6.0388   -3.0918 N   0  0  0  0  0  0  0  0  0  0  0  0
    5.8509    5.4417   -3.3392 N   0  0  0  0  0  0  0  0  0  0  0  0
   13.9573    8.2126   -0.2976 O   0  0  0  0  0  0  0  0  0  0  0  0
   14.9726    7.5005    0.4059 C   0  0  0  0  0  0  0  0  0  0  0  0
   15.7783    8.2216    0.5715 H   0  0  0  0  0  0  0  0  0  0  0  0
   15.3509    6.6563   -0.1904 H   0  0  0  0  0  0  0  0  0  0  0  0
   14.6013    7.1342    1.3751 H   0  0  0  0  0  0  0  0  0  0  0  0
    8.5299    3.0442   -1.3227 O   0  0  0  0  0  0  0  0  0  0  0  0
    9.3712    2.4210   -0.7287 C   0  0  0  0  0  0  0  0  0  0  0  0
   10.5509    2.8568   -0.2954 O   0  0  0  0  0  0  0  0  0  0  0  0
    9.1954    0.9244   -0.3562 C   0  0  0  0  0  0  0  0  0  0  0  0
    9.2566    0.7553    0.9840 F   0  0  0  0  0  0  0  0  0  0  0  0
    8.0139    0.4623   -0.7837 F   0  0  0  0  0  0  0  0  0  0  0  0
   10.1713    0.1746   -0.9162 F   0  0  0  0  0  0  0  0  0  0  0  0
  1  6  2  0  0  0  0
  2  3  2  0  0  0  0
  2  1  1  0  0  0  0
  3  4  1  0  0  0  0
  4  5  2  0  0  0  0
  5 10  1  0  0  0  0
  6  5  1  0  0  0  0
  6 13  1  0  0  0  0
  7  1  1  0  0  0  0
  8  2  1  0  0  0  0
  9 20  1  0  0  0  0
 12 11  3  0  0  0  0
 13 14  1  0  0  0  0
 14 15  1  0  0  0  0
 14 17  1  0  0  0  0
 16 14  1  0  0  0  0
 18 19  2  0  0  0  0
 19 21  1  0  0  0  0
 19 20  1  0  0  0  0
 21 22  1  0  0  0  0
 23 21  1  0  0  0  0
 24 21  1  0  0  0  0
M  RAD  2   3   2   4   2
M  END
