Coordinates from ORCA-job p-CH3O-Ph-N2-OOCCF3-B3LYPG-aug-cc-pVDZ-scan-d09-49-n400
 OpenBabel11081710393D

 24 23  0  0  0  0  0  0  0  0999 V2000
   11.6699    8.2499   -1.5567 C   0  0  0  0  0  0  0  0  0  0  0  0
   10.4731    7.6845   -1.9194 C   0  0  0  0  0  0  0  0  0  0  0  0
   10.1620    6.3190   -1.5857 C   0  0  0  0  0  0  0  0  0  0  0  0
   11.1563    5.5677   -0.8565 C   0  0  0  0  0  0  0  0  0  0  0  0
   12.3567    6.1455   -0.4970 C   0  0  0  0  0  0  0  0  0  0  0  0
   12.6274    7.4884   -0.8412 C   0  0  0  0  0  0  0  0  0  0  0  0
   11.9067    9.2823   -1.8078 H   0  0  0  0  0  0  0  0  0  0  0  0
    9.7296    8.2613   -2.4698 H   0  0  0  0  0  0  0  0  0  0  0  0
   10.9042    4.5342   -0.6115 H   0  0  0  0  0  0  0  0  0  0  0  0
   13.0818    5.5498    0.0511 H   0  0  0  0  0  0  0  0  0  0  0  0
    9.1694    5.8416   -1.8822 N   0  0  0  0  0  0  0  0  0  0  0  0
    8.3122    5.0882   -2.0138 N   0  0  0  0  0  0  0  0  0  0  0  0
   13.7595    8.1323   -0.5370 O   0  0  0  0  0  0  0  0  0  0  0  0
   14.7938    7.4451    0.1891 C   0  0  0  0  0  0  0  0  0  0  0  0
   15.5954    8.1780    0.3078 H   0  0  0  0  0  0  0  0  0  0  0  0
   15.1578    6.5811   -0.3825 H   0  0  0  0  0  0  0  0  0  0  0  0
   14.4279    7.1274    1.1744 H   0  0  0  0  0  0  0  0  0  0  0  0
    7.2993    2.1573   -1.1830 O   0  0  0  0  0  0  0  0  0  0  0  0
    8.4642    2.3605   -0.8755 C   0  0  0  0  0  0  0  0  0  0  0  0
    9.1930    3.4058   -1.0182 O   0  0  0  0  0  0  0  0  0  0  0  0
    9.2692    1.1995   -0.1932 C   0  0  0  0  0  0  0  0  0  0  0  0
    9.7733    1.5870    1.0143 F   0  0  0  0  0  0  0  0  0  0  0  0
    8.5272    0.0994    0.0235 F   0  0  0  0  0  0  0  0  0  0  0  0
   10.3335    0.8230   -0.9574 F   0  0  0  0  0  0  0  0  0  0  0  0
  1  6  2  0  0  0  0
  2  3  2  0  0  0  0
  2  1  1  0  0  0  0
  3  4  1  0  0  0  0
  4  9  1  0  0  0  0
  4  5  2  0  0  0  0
  5 10  1  0  0  0  0
  6 13  1  0  0  0  0
  6  5  1  0  0  0  0
  7  1  1  0  0  0  0
  8  2  1  0  0  0  0
 11  3  1  0  0  0  0
 12 11  1  0  0  0  0
 13 14  1  0  0  0  0
 14 15  1  0  0  0  0
 14 17  1  0  0  0  0
 16 14  1  0  0  0  0
 18 19  2  0  0  0  0
 19 21  1  0  0  0  0
 20 19  1  0  0  0  0
 21 23  1  0  0  0  0
 21 22  1  0  0  0  0
 24 21  1  0  0  0  0
M  RAD  3  11   2  12   3  20   2
M  END
