Coordinates from ORCA-job p-CH3O-Ph-N2-OOCCF3-B3LYPG-aug-cc-pVDZ-scan-d09-49-n400
 OpenBabel11081710393D

 24 22  0  0  0  0  0  0  0  0999 V2000
   11.7531    8.3624   -1.3995 C   0  0  0  0  0  0  0  0  0  0  0  0
   10.5049    7.9005   -1.8570 C   0  0  0  0  0  0  0  0  0  0  0  0
   10.4132    6.5808   -1.4986 C   0  0  0  0  0  0  0  0  0  0  0  0
   11.1171    5.7244   -0.8999 C   0  0  0  0  0  0  0  0  0  0  0  0
   12.3763    6.1622   -0.4299 C   0  0  0  0  0  0  0  0  0  0  0  0
   12.6656    7.5208   -0.7055 C   0  0  0  0  0  0  0  0  0  0  0  0
   12.0425    9.3982   -1.5766 H   0  0  0  0  0  0  0  0  0  0  0  0
    9.7864    8.5162   -2.3892 H   0  0  0  0  0  0  0  0  0  0  0  0
   10.5931    3.8794   -0.5881 H   0  0  0  0  0  0  0  0  0  0  0  0
   13.0712    5.5164    0.1001 H   0  0  0  0  0  0  0  0  0  0  0  0
    7.8138    6.0678   -2.5884 N   0  0  0  0  0  0  0  0  0  0  0  0
    6.8236    5.7656   -2.9710 N   0  0  0  0  0  0  0  0  0  0  0  0
   13.8262    8.1374   -0.3372 O   0  0  0  0  0  0  0  0  0  0  0  0
   14.8039    7.3726    0.3646 C   0  0  0  0  0  0  0  0  0  0  0  0
   15.6351    8.0582    0.5539 H   0  0  0  0  0  0  0  0  0  0  0  0
   15.1564    6.5256   -0.2433 H   0  0  0  0  0  0  0  0  0  0  0  0
   14.4062    7.0029    1.3219 H   0  0  0  0  0  0  0  0  0  0  0  0
    8.4778    2.9773   -1.3279 O   0  0  0  0  0  0  0  0  0  0  0  0
    9.3613    2.4155   -0.7320 C   0  0  0  0  0  0  0  0  0  0  0  0
   10.5212    2.9200   -0.3295 O   0  0  0  0  0  0  0  0  0  0  0  0
    9.2661    0.9212   -0.3209 C   0  0  0  0  0  0  0  0  0  0  0  0
    9.3564    0.7876    1.0218 F   0  0  0  0  0  0  0  0  0  0  0  0
    8.1026    0.3897   -0.7171 F   0  0  0  0  0  0  0  0  0  0  0  0
   10.2693    0.2064   -0.8792 F   0  0  0  0  0  0  0  0  0  0  0  0
  1  6  2  0  0  0  0
  2  3  2  0  0  0  0
  2  1  1  0  0  0  0
  3  4  1  0  0  0  0
  4  5  2  0  0  0  0
  5 10  1  0  0  0  0
  6  5  1  0  0  0  0
  6 13  1  0  0  0  0
  7  1  1  0  0  0  0
  8  2  1  0  0  0  0
  9 20  1  0  0  0  0
 12 11  3  0  0  0  0
 13 14  1  0  0  0  0
 14 15  1  0  0  0  0
 14 17  1  0  0  0  0
 16 14  1  0  0  0  0
 18 19  2  0  0  0  0
 19 20  1  0  0  0  0
 19 21  1  0  0  0  0
 21 22  1  0  0  0  0
 23 21  1  0  0  0  0
 24 21  1  0  0  0  0
M  RAD  2   3   2   4   2
M  END
