Coordinates from ORCA-job p-CH3O-Ph-N2-OOCCF3-B3LYPG-aug-cc-pVDZ-scan-d09-49-n400
 OpenBabel11081710393D

 24 22  0  0  0  0  0  0  0  0999 V2000
   11.8291    8.3621   -1.3632 C   0  0  0  0  0  0  0  0  0  0  0  0
   10.5855    7.8833   -1.8131 C   0  0  0  0  0  0  0  0  0  0  0  0
   10.5048    6.5607   -1.4480 C   0  0  0  0  0  0  0  0  0  0  0  0
   11.2374    5.7368   -0.8452 C   0  0  0  0  0  0  0  0  0  0  0  0
   12.4925    6.1770   -0.3781 C   0  0  0  0  0  0  0  0  0  0  0  0
   12.7577    7.5386   -0.6667 C   0  0  0  0  0  0  0  0  0  0  0  0
   12.1054    9.4001   -1.5477 H   0  0  0  0  0  0  0  0  0  0  0  0
    9.8579    8.4878   -2.3465 H   0  0  0  0  0  0  0  0  0  0  0  0
   10.6191    3.8469   -0.5652 H   0  0  0  0  0  0  0  0  0  0  0  0
   13.1971    5.5435    0.1531 H   0  0  0  0  0  0  0  0  0  0  0  0
    7.1633    6.0463   -2.8936 N   0  0  0  0  0  0  0  0  0  0  0  0
    6.2262    5.5430   -3.1895 N   0  0  0  0  0  0  0  0  0  0  0  0
   13.9107    8.1753   -0.3085 O   0  0  0  0  0  0  0  0  0  0  0  0
   14.9031    7.4307    0.3941 C   0  0  0  0  0  0  0  0  0  0  0  0
   15.7247    8.1301    0.5742 H   0  0  0  0  0  0  0  0  0  0  0  0
   15.2654    6.5845   -0.2092 H   0  0  0  0  0  0  0  0  0  0  0  0
   14.5156    7.0624    1.3562 H   0  0  0  0  0  0  0  0  0  0  0  0
    8.4989    3.0019   -1.3250 O   0  0  0  0  0  0  0  0  0  0  0  0
    9.3643    2.4136   -0.7299 C   0  0  0  0  0  0  0  0  0  0  0  0
   10.5335    2.8919   -0.3147 O   0  0  0  0  0  0  0  0  0  0  0  0
    9.2375    0.9180   -0.3340 C   0  0  0  0  0  0  0  0  0  0  0  0
    9.3165    0.7705    1.0078 F   0  0  0  0  0  0  0  0  0  0  0  0
    8.0667    0.4140   -0.7431 F   0  0  0  0  0  0  0  0  0  0  0  0
   10.2305    0.1898   -0.8927 F   0  0  0  0  0  0  0  0  0  0  0  0
  1  6  2  0  0  0  0
  2  3  2  0  0  0  0
  2  1  1  0  0  0  0
  3  4  1  0  0  0  0
  4  5  2  0  0  0  0
  5 10  1  0  0  0  0
  6  5  1  0  0  0  0
  6 13  1  0  0  0  0
  7  1  1  0  0  0  0
  8  2  1  0  0  0  0
  9 20  1  0  0  0  0
 12 11  3  0  0  0  0
 13 14  1  0  0  0  0
 14 15  1  0  0  0  0
 14 17  1  0  0  0  0
 16 14  1  0  0  0  0
 18 19  2  0  0  0  0
 19 21  1  0  0  0  0
 19 20  1  0  0  0  0
 21 22  1  0  0  0  0
 23 21  1  0  0  0  0
 24 21  1  0  0  0  0
M  RAD  2   3   2   4   2
M  END
