Coordinates from ORCA-job p-CH3O-Ph-N2-OOCCF3-B3LYPG-aug-cc-pVDZ-scan-d09-49-n400
 OpenBabel11081710393D

 24 22  0  0  0  0  0  0  0  0999 V2000
   11.6946    8.3513   -1.4244 C   0  0  0  0  0  0  0  0  0  0  0  0
   10.4495    7.8869   -1.8794 C   0  0  0  0  0  0  0  0  0  0  0  0
   10.3452    6.5675   -1.5268 C   0  0  0  0  0  0  0  0  0  0  0  0
   11.0281    5.6765   -0.9278 C   0  0  0  0  0  0  0  0  0  0  0  0
   12.2868    6.1473   -0.4683 C   0  0  0  0  0  0  0  0  0  0  0  0
   12.5967    7.5005   -0.7326 C   0  0  0  0  0  0  0  0  0  0  0  0
   11.9849    9.3864   -1.6010 H   0  0  0  0  0  0  0  0  0  0  0  0
    9.7321    8.5047   -2.4116 H   0  0  0  0  0  0  0  0  0  0  0  0
   10.6308    3.9353   -0.5865 H   0  0  0  0  0  0  0  0  0  0  0  0
   12.9791    5.4972    0.0617 H   0  0  0  0  0  0  0  0  0  0  0  0
    8.2501    6.0034   -2.3584 N   0  0  0  0  0  0  0  0  0  0  0  0
    7.2476    5.8197   -2.7811 N   0  0  0  0  0  0  0  0  0  0  0  0
   13.7619    8.1030   -0.3581 O   0  0  0  0  0  0  0  0  0  0  0  0
   14.7300    7.3248    0.3431 C   0  0  0  0  0  0  0  0  0  0  0  0
   15.5673    8.0013    0.5379 H   0  0  0  0  0  0  0  0  0  0  0  0
   15.0755    6.4772   -0.2676 H   0  0  0  0  0  0  0  0  0  0  0  0
   14.3257    6.9546    1.2973 H   0  0  0  0  0  0  0  0  0  0  0  0
    8.5106    3.0392   -1.3322 O   0  0  0  0  0  0  0  0  0  0  0  0
    9.3904    2.4686   -0.7336 C   0  0  0  0  0  0  0  0  0  0  0  0
   10.5478    2.9600   -0.3282 O   0  0  0  0  0  0  0  0  0  0  0  0
    9.2744    0.9725   -0.3329 C   0  0  0  0  0  0  0  0  0  0  0  0
    9.3514    0.8288    1.0101 F   0  0  0  0  0  0  0  0  0  0  0  0
    8.1085    0.4537   -0.7415 F   0  0  0  0  0  0  0  0  0  0  0  0
   10.2742    0.2484   -0.8864 F   0  0  0  0  0  0  0  0  0  0  0  0
  1  6  2  0  0  0  0
  2  3  2  0  0  0  0
  2  1  1  0  0  0  0
  3  4  1  0  0  0  0
  4  5  2  0  0  0  0
  5 10  1  0  0  0  0
  6  5  1  0  0  0  0
  6 13  1  0  0  0  0
  7  1  1  0  0  0  0
  8  2  1  0  0  0  0
  9 20  1  0  0  0  0
 12 11  3  0  0  0  0
 13 14  1  0  0  0  0
 14 15  1  0  0  0  0
 14 17  1  0  0  0  0
 16 14  1  0  0  0  0
 18 19  2  0  0  0  0
 19 21  1  0  0  0  0
 19 20  1  0  0  0  0
 21 22  1  0  0  0  0
 23 21  1  0  0  0  0
 24 21  1  0  0  0  0
M  RAD  2   3   2   4   2
M  END
