Coordinates from ORCA-job p-CH3O-Ph-N2-OOCCF3-B3LYPG-aug-cc-pVDZ-scan-d09-49-n400
 OpenBabel11081710393D

 24 22  0  0  0  0  0  0  0  0999 V2000
   11.8582    8.3521   -1.3463 C   0  0  0  0  0  0  0  0  0  0  0  0
   10.6182    7.8578   -1.7897 C   0  0  0  0  0  0  0  0  0  0  0  0
   10.5515    6.5358   -1.4178 C   0  0  0  0  0  0  0  0  0  0  0  0
   11.2984    5.7273   -0.8129 C   0  0  0  0  0  0  0  0  0  0  0  0
   12.5497    6.1798   -0.3513 C   0  0  0  0  0  0  0  0  0  0  0  0
   12.7984    7.5430   -0.6485 C   0  0  0  0  0  0  0  0  0  0  0  0
   12.1225    9.3921   -1.5372 H   0  0  0  0  0  0  0  0  0  0  0  0
    9.8839    8.4538   -2.3236 H   0  0  0  0  0  0  0  0  0  0  0  0
   10.6482    3.8317   -0.5464 H   0  0  0  0  0  0  0  0  0  0  0  0
   13.2627    5.5565    0.1808 H   0  0  0  0  0  0  0  0  0  0  0  0
    6.8632    6.0323   -3.0332 N   0  0  0  0  0  0  0  0  0  0  0  0
    5.9578    5.4558   -3.2916 N   0  0  0  0  0  0  0  0  0  0  0  0
   13.9454    8.1943   -0.2977 O   0  0  0  0  0  0  0  0  0  0  0  0
   14.9485    7.4648    0.4054 C   0  0  0  0  0  0  0  0  0  0  0  0
   15.7628    8.1742    0.5788 H   0  0  0  0  0  0  0  0  0  0  0  0
   15.3181    6.6194   -0.1946 H   0  0  0  0  0  0  0  0  0  0  0  0
   14.5685    7.0974    1.3708 H   0  0  0  0  0  0  0  0  0  0  0  0
    8.5172    3.0266   -1.3235 O   0  0  0  0  0  0  0  0  0  0  0  0
    9.3707    2.4206   -0.7289 C   0  0  0  0  0  0  0  0  0  0  0  0
   10.5456    2.8770   -0.3043 O   0  0  0  0  0  0  0  0  0  0  0  0
    9.2189    0.9243   -0.3449 C   0  0  0  0  0  0  0  0  0  0  0  0
    9.2889    0.7657    0.9961 F   0  0  0  0  0  0  0  0  0  0  0  0
    8.0425    0.4415   -0.7635 F   0  0  0  0  0  0  0  0  0  0  0  0
   10.2034    0.1851   -0.9042 F   0  0  0  0  0  0  0  0  0  0  0  0
  1  6  2  0  0  0  0
  2  3  2  0  0  0  0
  2  1  1  0  0  0  0
  3  4  1  0  0  0  0
  4  5  2  0  0  0  0
  5 10  1  0  0  0  0
  6  5  1  0  0  0  0
  6 13  1  0  0  0  0
  7  1  1  0  0  0  0
  8  2  1  0  0  0  0
  9 20  1  0  0  0  0
 12 11  3  0  0  0  0
 13 14  1  0  0  0  0
 14 15  1  0  0  0  0
 14 17  1  0  0  0  0
 16 14  1  0  0  0  0
 18 19  2  0  0  0  0
 19 21  1  0  0  0  0
 19 20  1  0  0  0  0
 21 22  1  0  0  0  0
 23 21  1  0  0  0  0
 24 21  1  0  0  0  0
M  RAD  2   3   2   4   2
M  END
