Coordinates from ORCA-job p-CH3O-Ph-N2-OOCCF3-B3LYPG-aug-cc-pVDZ-scan-d09-49-n400
 OpenBabel11081710393D

 24 22  0  0  0  0  0  0  0  0999 V2000
   11.7883    8.3675   -1.3843 C   0  0  0  0  0  0  0  0  0  0  0  0
   10.5411    7.9042   -1.8408 C   0  0  0  0  0  0  0  0  0  0  0  0
   10.4453    6.5815   -1.4832 C   0  0  0  0  0  0  0  0  0  0  0  0
   11.1626    5.7401   -0.8827 C   0  0  0  0  0  0  0  0  0  0  0  0
   12.4210    6.1700   -0.4106 C   0  0  0  0  0  0  0  0  0  0  0  0
   12.7043    7.5295   -0.6896 C   0  0  0  0  0  0  0  0  0  0  0  0
   12.0762    9.4035   -1.5624 H   0  0  0  0  0  0  0  0  0  0  0  0
    9.8218    8.5191   -2.3732 H   0  0  0  0  0  0  0  0  0  0  0  0
   10.5968    3.8657   -0.5820 H   0  0  0  0  0  0  0  0  0  0  0  0
   13.1169    5.5258    0.1195 H   0  0  0  0  0  0  0  0  0  0  0  0
    7.5338    6.0669   -2.7223 N   0  0  0  0  0  0  0  0  0  0  0  0
    6.5626    5.6722   -3.0676 N   0  0  0  0  0  0  0  0  0  0  0  0
   13.8635    8.1501   -0.3233 O   0  0  0  0  0  0  0  0  0  0  0  0
   14.8442    7.3897    0.3787 C   0  0  0  0  0  0  0  0  0  0  0  0
   15.6734    8.0781    0.5660 H   0  0  0  0  0  0  0  0  0  0  0  0
   15.1987    6.5427   -0.2282 H   0  0  0  0  0  0  0  0  0  0  0  0
   14.4487    7.0203    1.3370 H   0  0  0  0  0  0  0  0  0  0  0  0
    8.4853    2.9794   -1.3247 O   0  0  0  0  0  0  0  0  0  0  0  0
    9.3634    2.4100   -0.7293 C   0  0  0  0  0  0  0  0  0  0  0  0
   10.5261    2.9095   -0.3238 O   0  0  0  0  0  0  0  0  0  0  0  0
    9.2613    0.9155   -0.3216 C   0  0  0  0  0  0  0  0  0  0  0  0
    9.3496    0.7790    1.0209 F   0  0  0  0  0  0  0  0  0  0  0  0
    8.0961    0.3905   -0.7206 F   0  0  0  0  0  0  0  0  0  0  0  0
   10.2623    0.1981   -0.8802 F   0  0  0  0  0  0  0  0  0  0  0  0
  1  6  2  0  0  0  0
  2  3  2  0  0  0  0
  2  1  1  0  0  0  0
  3  4  1  0  0  0  0
  4  5  2  0  0  0  0
  5 10  1  0  0  0  0
  6  5  1  0  0  0  0
  6 13  1  0  0  0  0
  7  1  1  0  0  0  0
  8  2  1  0  0  0  0
  9 20  1  0  0  0  0
 12 11  3  0  0  0  0
 13 14  1  0  0  0  0
 14 15  1  0  0  0  0
 14 17  1  0  0  0  0
 16 14  1  0  0  0  0
 18 19  2  0  0  0  0
 19 20  1  0  0  0  0
 19 21  1  0  0  0  0
 21 22  1  0  0  0  0
 23 21  1  0  0  0  0
 24 21  1  0  0  0  0
M  RAD  2   3   2   4   2
M  END
