Coordinates from ORCA-job p-CH3O-Ph-N2-OOCCF3-B3LYPG-aug-cc-pVDZ-scan-d09-49-n400
 OpenBabel11081710393D

 24 23  0  0  0  0  0  0  0  0999 V2000
   11.7103    8.1310   -1.5218 C   0  0  0  0  0  0  0  0  0  0  0  0
   10.4703    8.0443   -2.0599 C   0  0  0  0  0  0  0  0  0  0  0  0
    9.6458    6.7988   -1.9825 C   0  0  0  0  0  0  0  0  0  0  0  0
   10.3144    5.6654   -1.2608 C   0  0  0  0  0  0  0  0  0  0  0  0
   11.5700    5.8002   -0.7336 C   0  0  0  0  0  0  0  0  0  0  0  0
   12.2881    7.0099   -0.8459 C   0  0  0  0  0  0  0  0  0  0  0  0
   12.2883    9.0513   -1.5934 H   0  0  0  0  0  0  0  0  0  0  0  0
    9.9983    8.8776   -2.5822 H   0  0  0  0  0  0  0  0  0  0  0  0
    9.7324    4.7002   -1.1768 H   0  0  0  0  0  0  0  0  0  0  0  0
   11.9875    4.9342   -0.2257 H   0  0  0  0  0  0  0  0  0  0  0  0
    8.8124    6.7360   -2.3426 N   0  0  0  0  0  0  0  0  0  0  0  0
    7.7481    6.6659   -2.8105 N   0  0  0  0  0  0  0  0  0  0  0  0
   13.5001    7.2094   -0.3616 O   0  0  0  0  0  0  0  0  0  0  0  0
   14.1811    6.1393    0.3421 C   0  0  0  0  0  0  0  0  0  0  0  0
   15.1447    6.5640    0.6299 H   0  0  0  0  0  0  0  0  0  0  0  0
   14.3227    5.2813   -0.3256 H   0  0  0  0  0  0  0  0  0  0  0  0
   13.6077    5.8497    1.2307 H   0  0  0  0  0  0  0  0  0  0  0  0
    8.6030    1.1351   -0.4070 O   0  0  0  0  0  0  0  0  0  0  0  0
    9.2190    2.1913   -0.5102 C   0  0  0  0  0  0  0  0  0  0  0  0
    8.9068    3.2930   -1.0549 O   0  0  0  0  0  0  0  0  0  0  0  0
   10.6576    2.2204    0.1373 C   0  0  0  0  0  0  0  0  0  0  0  0
   10.7657    3.2072    1.0952 F   0  0  0  0  0  0  0  0  0  0  0  0
   11.0387    1.0772    0.7239 F   0  0  0  0  0  0  0  0  0  0  0  0
   11.6302    2.5263   -0.7923 F   0  0  0  0  0  0  0  0  0  0  0  0
  1  6  2  0  0  0  0
  2  3  2  0  0  0  0
  2  1  1  0  0  0  0
  3  4  1  0  0  0  0
  4  9  1  0  0  0  0
  4  5  2  0  0  0  0
  5 10  1  0  0  0  0
  6  5  1  0  0  0  0
  6 13  1  0  0  0  0
  7  1  1  0  0  0  0
  8  2  1  0  0  0  0
 11  3  1  0  0  0  0
 12 11  1  0  0  0  0
 13 14  1  0  0  0  0
 14 15  1  0  0  0  0
 14 17  1  0  0  0  0
 16 14  1  0  0  0  0
 19 18  1  0  0  0  0
 19 21  1  0  0  0  0
 20 19  2  0  0  0  0
 21 23  1  0  0  0  0
 21 22  1  0  0  0  0
 24 21  1  0  0  0  0
M  RAD  3  11   2  12   3  18   2
M  END
