Coordinates from ORCA-job p-CH3O-Ph-N2-OOCCF3-B3LYPG-aug-cc-pVDZ-scan-d09-49-n400
 OpenBabel11081710393D

 24 23  0  0  0  0  0  0  0  0999 V2000
   11.6851    8.2615   -1.5516 C   0  0  0  0  0  0  0  0  0  0  0  0
   10.4835    7.6847   -1.9106 C   0  0  0  0  0  0  0  0  0  0  0  0
   10.2249    6.3411   -1.5606 C   0  0  0  0  0  0  0  0  0  0  0  0
   11.1777    5.5788   -0.8497 C   0  0  0  0  0  0  0  0  0  0  0  0
   12.3835    6.1666   -0.4928 C   0  0  0  0  0  0  0  0  0  0  0  0
   12.6457    7.5080   -0.8398 C   0  0  0  0  0  0  0  0  0  0  0  0
   11.9140    9.2945   -1.8063 H   0  0  0  0  0  0  0  0  0  0  0  0
    9.7324    8.2510   -2.4591 H   0  0  0  0  0  0  0  0  0  0  0  0
   10.9384    4.5468   -0.6001 H   0  0  0  0  0  0  0  0  0  0  0  0
   13.1125    5.5749    0.0540 H   0  0  0  0  0  0  0  0  0  0  0  0
    9.0427    5.7951   -1.9209 N   0  0  0  0  0  0  0  0  0  0  0  0
    8.2940    4.9278   -1.9613 N   0  0  0  0  0  0  0  0  0  0  0  0
   13.7827    8.1610   -0.5380 O   0  0  0  0  0  0  0  0  0  0  0  0
   14.8141    7.4735    0.1841 C   0  0  0  0  0  0  0  0  0  0  0  0
   15.6185    8.2036    0.3041 H   0  0  0  0  0  0  0  0  0  0  0  0
   15.1790    6.6083   -0.3867 H   0  0  0  0  0  0  0  0  0  0  0  0
   14.4520    7.1533    1.1708 H   0  0  0  0  0  0  0  0  0  0  0  0
    7.2851    2.1680   -1.2143 O   0  0  0  0  0  0  0  0  0  0  0  0
    8.4442    2.3523   -0.8887 C   0  0  0  0  0  0  0  0  0  0  0  0
    9.1918    3.3959   -1.0153 O   0  0  0  0  0  0  0  0  0  0  0  0
    9.2358    1.1870   -0.2008 C   0  0  0  0  0  0  0  0  0  0  0  0
    9.7171    1.5674    1.0151 F   0  0  0  0  0  0  0  0  0  0  0  0
    8.4805    0.0936   -0.0079 F   0  0  0  0  0  0  0  0  0  0  0  0
   10.3080    0.8141   -0.9519 F   0  0  0  0  0  0  0  0  0  0  0  0
  1  6  2  0  0  0  0
  2  3  2  0  0  0  0
  2  1  1  0  0  0  0
  3  4  1  0  0  0  0
  4  9  1  0  0  0  0
  4  5  2  0  0  0  0
  5 10  1  0  0  0  0
  6 13  1  0  0  0  0
  6  5  1  0  0  0  0
  7  1  1  0  0  0  0
  8  2  1  0  0  0  0
 11  3  1  0  0  0  0
 12 11  2  0  0  0  0
 13 14  1  0  0  0  0
 14 15  1  0  0  0  0
 14 17  1  0  0  0  0
 16 14  1  0  0  0  0
 18 19  2  0  0  0  0
 19 21  1  0  0  0  0
 20 19  1  0  0  0  0
 21 23  1  0  0  0  0
 21 22  1  0  0  0  0
 24 21  1  0  0  0  0
M  RAD  2  12   2  20   2
M  END
