Coordinates from ORCA-job p-CH3O-Ph-N2-OOCCF3-B3LYPG-aug-cc-pVDZ-scan-d09-49-n400
 OpenBabel11081710393D

 24 22  0  0  0  0  0  0  0  0999 V2000
   11.7463    8.3643   -1.4033 C   0  0  0  0  0  0  0  0  0  0  0  0
   10.4986    7.9064   -1.8618 C   0  0  0  0  0  0  0  0  0  0  0  0
   10.3964    6.5851   -1.5079 C   0  0  0  0  0  0  0  0  0  0  0  0
   11.0986    5.7260   -0.9094 C   0  0  0  0  0  0  0  0  0  0  0  0
   12.3586    6.1610   -0.4380 C   0  0  0  0  0  0  0  0  0  0  0  0
   12.6547    7.5180   -0.7099 C   0  0  0  0  0  0  0  0  0  0  0  0
   12.0386    9.3995   -1.5789 H   0  0  0  0  0  0  0  0  0  0  0  0
    9.7821    8.5250   -2.3939 H   0  0  0  0  0  0  0  0  0  0  0  0
   10.5958    3.8880   -0.5895 H   0  0  0  0  0  0  0  0  0  0  0  0
   13.0502    5.5113    0.0916 H   0  0  0  0  0  0  0  0  0  0  0  0
    7.8714    6.0602   -2.5584 N   0  0  0  0  0  0  0  0  0  0  0  0
    6.8792    5.7715   -2.9461 N   0  0  0  0  0  0  0  0  0  0  0  0
   13.8175    8.1284   -0.3386 O   0  0  0  0  0  0  0  0  0  0  0  0
   14.7909    7.3579    0.3629 C   0  0  0  0  0  0  0  0  0  0  0  0
   15.6247    8.0394    0.5547 H   0  0  0  0  0  0  0  0  0  0  0  0
   15.1405    6.5106   -0.2463 H   0  0  0  0  0  0  0  0  0  0  0  0
   14.3903    6.9879    1.3189 H   0  0  0  0  0  0  0  0  0  0  0  0
    8.4867    2.9855   -1.3261 O   0  0  0  0  0  0  0  0  0  0  0  0
    9.3696    2.4223   -0.7301 C   0  0  0  0  0  0  0  0  0  0  0  0
   10.5288    2.9280   -0.3283 O   0  0  0  0  0  0  0  0  0  0  0  0
    9.2735    0.9281   -0.3195 C   0  0  0  0  0  0  0  0  0  0  0  0
    9.3636    0.7942    1.0233 F   0  0  0  0  0  0  0  0  0  0  0  0
    8.1099    0.3972   -0.7160 F   0  0  0  0  0  0  0  0  0  0  0  0
   10.2765    0.2130   -0.8776 F   0  0  0  0  0  0  0  0  0  0  0  0
  1  6  2  0  0  0  0
  2  3  2  0  0  0  0
  2  1  1  0  0  0  0
  3  4  1  0  0  0  0
  4  5  2  0  0  0  0
  5 10  1  0  0  0  0
  6  5  1  0  0  0  0
  6 13  1  0  0  0  0
  7  1  1  0  0  0  0
  8  2  1  0  0  0  0
  9 20  1  0  0  0  0
 12 11  3  0  0  0  0
 13 14  1  0  0  0  0
 14 15  1  0  0  0  0
 14 17  1  0  0  0  0
 16 14  1  0  0  0  0
 18 19  2  0  0  0  0
 19 20  1  0  0  0  0
 19 21  1  0  0  0  0
 21 22  1  0  0  0  0
 23 21  1  0  0  0  0
 24 21  1  0  0  0  0
M  RAD  2   3   2   4   2
M  END
