Coordinates from ORCA-job p-CH3O-Ph-N2-OOCCF3-B3LYPG-aug-cc-pVDZ-scan-d09-49-n400
 OpenBabel11081710393D

 24 22  0  0  0  0  0  0  0  0999 V2000
   11.7949    8.3658   -1.3807 C   0  0  0  0  0  0  0  0  0  0  0  0
   10.5486    7.8990   -1.8357 C   0  0  0  0  0  0  0  0  0  0  0  0
   10.4560    6.5762   -1.4764 C   0  0  0  0  0  0  0  0  0  0  0  0
   11.1771    5.7390   -0.8753 C   0  0  0  0  0  0  0  0  0  0  0  0
   12.4347    6.1712   -0.4043 C   0  0  0  0  0  0  0  0  0  0  0  0
   12.7138    7.5312   -0.6855 C   0  0  0  0  0  0  0  0  0  0  0  0
   12.0802    9.4023   -1.5602 H   0  0  0  0  0  0  0  0  0  0  0  0
    9.8274    8.5116   -2.3683 H   0  0  0  0  0  0  0  0  0  0  0  0
   10.6012    3.8611   -0.5784 H   0  0  0  0  0  0  0  0  0  0  0  0
   13.1326    5.5294    0.1261 H   0  0  0  0  0  0  0  0  0  0  0  0
    7.4711    6.0638   -2.7514 N   0  0  0  0  0  0  0  0  0  0  0  0
    6.5047    5.6510   -3.0889 N   0  0  0  0  0  0  0  0  0  0  0  0
   13.8716    8.1555   -0.3211 O   0  0  0  0  0  0  0  0  0  0  0  0
   14.8550    7.3987    0.3811 C   0  0  0  0  0  0  0  0  0  0  0  0
   15.6824    8.0897    0.5667 H   0  0  0  0  0  0  0  0  0  0  0  0
   15.2113    6.5519   -0.2250 H   0  0  0  0  0  0  0  0  0  0  0  0
   14.4613    7.0296    1.3403 H   0  0  0  0  0  0  0  0  0  0  0  0
    8.4877    2.9838   -1.3249 O   0  0  0  0  0  0  0  0  0  0  0  0
    9.3631    2.4103   -0.7295 C   0  0  0  0  0  0  0  0  0  0  0  0
   10.5273    2.9051   -0.3219 O   0  0  0  0  0  0  0  0  0  0  0  0
    9.2556    0.9155   -0.3244 C   0  0  0  0  0  0  0  0  0  0  0  0
    9.3419    0.7766    1.0180 F   0  0  0  0  0  0  0  0  0  0  0  0
    8.0891    0.3951   -0.7255 F   0  0  0  0  0  0  0  0  0  0  0  0
   10.2548    0.1957   -0.8830 F   0  0  0  0  0  0  0  0  0  0  0  0
  1  6  2  0  0  0  0
  2  3  2  0  0  0  0
  2  1  1  0  0  0  0
  3  4  1  0  0  0  0
  4  5  2  0  0  0  0
  5 10  1  0  0  0  0
  6  5  1  0  0  0  0
  6 13  1  0  0  0  0
  7  1  1  0  0  0  0
  8  2  1  0  0  0  0
  9 20  1  0  0  0  0
 12 11  3  0  0  0  0
 13 14  1  0  0  0  0
 14 15  1  0  0  0  0
 14 17  1  0  0  0  0
 16 14  1  0  0  0  0
 18 19  2  0  0  0  0
 19 21  1  0  0  0  0
 19 20  1  0  0  0  0
 21 22  1  0  0  0  0
 23 21  1  0  0  0  0
 24 21  1  0  0  0  0
M  RAD  2   3   2   4   2
M  END
