Coordinates from ORCA-job p-CH3O-Ph-N2-OOCCF3-B3LYPG-aug-cc-pVDZ-scan-d09-49-n400
 OpenBabel11081710393D

 24 23  0  0  0  0  0  0  0  0999 V2000
   11.7129    8.1330   -1.5218 C   0  0  0  0  0  0  0  0  0  0  0  0
   10.4668    8.0178   -2.0531 C   0  0  0  0  0  0  0  0  0  0  0  0
    9.7070    6.7640   -1.9463 C   0  0  0  0  0  0  0  0  0  0  0  0
   10.3591    5.6541   -1.2372 C   0  0  0  0  0  0  0  0  0  0  0  0
   11.6193    5.8069   -0.7135 C   0  0  0  0  0  0  0  0  0  0  0  0
   12.3134    7.0282   -0.8416 C   0  0  0  0  0  0  0  0  0  0  0  0
   12.2739    9.0625   -1.6032 H   0  0  0  0  0  0  0  0  0  0  0  0
    9.9872    8.8457   -2.5760 H   0  0  0  0  0  0  0  0  0  0  0  0
    9.7866    4.6868   -1.1470 H   0  0  0  0  0  0  0  0  0  0  0  0
   12.0534    4.9525   -0.2006 H   0  0  0  0  0  0  0  0  0  0  0  0
    8.7702    6.6683   -2.3389 N   0  0  0  0  0  0  0  0  0  0  0  0
    7.7172    6.5665   -2.7830 N   0  0  0  0  0  0  0  0  0  0  0  0
   13.5278    7.2552   -0.3656 O   0  0  0  0  0  0  0  0  0  0  0  0
   14.2290    6.2035    0.3417 C   0  0  0  0  0  0  0  0  0  0  0  0
   15.1875    6.6452    0.6214 H   0  0  0  0  0  0  0  0  0  0  0  0
   14.3825    5.3417   -0.3188 H   0  0  0  0  0  0  0  0  0  0  0  0
   13.6666    5.9106    1.2365 H   0  0  0  0  0  0  0  0  0  0  0  0
    8.5198    1.1560   -0.4551 O   0  0  0  0  0  0  0  0  0  0  0  0
    9.1582    2.2005   -0.5415 C   0  0  0  0  0  0  0  0  0  0  0  0
    8.8747    3.3153   -1.0749 O   0  0  0  0  0  0  0  0  0  0  0  0
   10.5928    2.1951    0.1160 C   0  0  0  0  0  0  0  0  0  0  0  0
   10.7139    3.1718    1.0824 F   0  0  0  0  0  0  0  0  0  0  0  0
   10.9468    1.0393    0.6965 F   0  0  0  0  0  0  0  0  0  0  0  0
   11.5766    2.4883   -0.8048 F   0  0  0  0  0  0  0  0  0  0  0  0
  1  6  2  0  0  0  0
  2  3  2  0  0  0  0
  2  1  1  0  0  0  0
  3  4  1  0  0  0  0
  4  9  1  0  0  0  0
  4  5  2  0  0  0  0
  5 10  1  0  0  0  0
  6  5  1  0  0  0  0
  6 13  1  0  0  0  0
  7  1  1  0  0  0  0
  8  2  1  0  0  0  0
 11  3  1  0  0  0  0
 12 11  1  0  0  0  0
 13 14  1  0  0  0  0
 14 15  1  0  0  0  0
 14 17  1  0  0  0  0
 16 14  1  0  0  0  0
 19 18  1  0  0  0  0
 19 21  1  0  0  0  0
 20 19  2  0  0  0  0
 21 23  1  0  0  0  0
 21 22  1  0  0  0  0
 24 21  1  0  0  0  0
M  RAD  3  11   2  12   3  18   2
M  END
