Coordinates from ORCA-job p-CH3O-Ph-N2-OOCCF3-B3LYPG-aug-cc-pVDZ-scan-d09-49-n400
 OpenBabel11081710393D

 24 23  0  0  0  0  0  0  0  0999 V2000
   11.6770    8.2554   -1.5534 C   0  0  0  0  0  0  0  0  0  0  0  0
   10.4790    7.6772   -1.9104 C   0  0  0  0  0  0  0  0  0  0  0  0
   10.2031    6.3249   -1.5654 C   0  0  0  0  0  0  0  0  0  0  0  0
   11.1768    5.5732   -0.8481 C   0  0  0  0  0  0  0  0  0  0  0  0
   12.3792    6.1611   -0.4927 C   0  0  0  0  0  0  0  0  0  0  0  0
   12.6400    7.5035   -0.8407 C   0  0  0  0  0  0  0  0  0  0  0  0
   11.9046    9.2886   -1.8088 H   0  0  0  0  0  0  0  0  0  0  0  0
    9.7284    8.2447   -2.4594 H   0  0  0  0  0  0  0  0  0  0  0  0
   10.9407    4.5399   -0.5965 H   0  0  0  0  0  0  0  0  0  0  0  0
   13.1096    5.5711    0.0543 H   0  0  0  0  0  0  0  0  0  0  0  0
    9.1025    5.8071   -1.8975 N   0  0  0  0  0  0  0  0  0  0  0  0
    8.3169    4.9720   -1.9664 N   0  0  0  0  0  0  0  0  0  0  0  0
   13.7736    8.1570   -0.5405 O   0  0  0  0  0  0  0  0  0  0  0  0
   14.8093    7.4740    0.1823 C   0  0  0  0  0  0  0  0  0  0  0  0
   15.6106    8.2077    0.2997 H   0  0  0  0  0  0  0  0  0  0  0  0
   15.1758    6.6096   -0.3880 H   0  0  0  0  0  0  0  0  0  0  0  0
   14.4484    7.1548    1.1696 H   0  0  0  0  0  0  0  0  0  0  0  0
    7.2875    2.1746   -1.2143 O   0  0  0  0  0  0  0  0  0  0  0  0
    8.4478    2.3572   -0.8885 C   0  0  0  0  0  0  0  0  0  0  0  0
    9.1963    3.3979   -1.0140 O   0  0  0  0  0  0  0  0  0  0  0  0
    9.2346    1.1875   -0.2020 C   0  0  0  0  0  0  0  0  0  0  0  0
    9.7211    1.5647    1.0137 F   0  0  0  0  0  0  0  0  0  0  0  0
    8.4760    0.0962   -0.0067 F   0  0  0  0  0  0  0  0  0  0  0  0
   10.3045    0.8089   -0.9545 F   0  0  0  0  0  0  0  0  0  0  0  0
  1  6  2  0  0  0  0
  2  3  2  0  0  0  0
  2  1  1  0  0  0  0
  3  4  1  0  0  0  0
  4  9  1  0  0  0  0
  4  5  2  0  0  0  0
  5 10  1  0  0  0  0
  6 13  1  0  0  0  0
  6  5  1  0  0  0  0
  7  1  1  0  0  0  0
  8  2  1  0  0  0  0
 11  3  1  0  0  0  0
 12 11  1  0  0  0  0
 13 14  1  0  0  0  0
 14 15  1  0  0  0  0
 14 17  1  0  0  0  0
 16 14  1  0  0  0  0
 18 19  2  0  0  0  0
 19 21  1  0  0  0  0
 20 19  1  0  0  0  0
 21 23  1  0  0  0  0
 21 22  1  0  0  0  0
 24 21  1  0  0  0  0
M  RAD  3  11   2  12   3  20   2
M  END
