Coordinates from ORCA-job p-CH3O-Ph-N2-OOCCF3-B3LYPG-aug-cc-pVDZ-scan-d09-49-n400
 OpenBabel11081710393D

 24 22  0  0  0  0  0  0  0  0999 V2000
   11.8216    8.3616   -1.3666 C   0  0  0  0  0  0  0  0  0  0  0  0
   10.5777    7.8842   -1.8171 C   0  0  0  0  0  0  0  0  0  0  0  0
   10.4945    6.5613   -1.4531 C   0  0  0  0  0  0  0  0  0  0  0  0
   11.2268    5.7363   -0.8502 C   0  0  0  0  0  0  0  0  0  0  0  0
   12.4821    6.1757   -0.3827 C   0  0  0  0  0  0  0  0  0  0  0  0
   12.7490    7.5370   -0.6704 C   0  0  0  0  0  0  0  0  0  0  0  0
   12.0988    9.3995   -1.5507 H   0  0  0  0  0  0  0  0  0  0  0  0
    9.8511    8.4900   -2.3504 H   0  0  0  0  0  0  0  0  0  0  0  0
   10.6195    3.8484   -0.5655 H   0  0  0  0  0  0  0  0  0  0  0  0
   13.1859    5.5411    0.1484 H   0  0  0  0  0  0  0  0  0  0  0  0
    7.2261    6.0463   -2.8635 N   0  0  0  0  0  0  0  0  0  0  0  0
    6.2828    5.5602   -3.1675 N   0  0  0  0  0  0  0  0  0  0  0  0
   13.9026    8.1721   -0.3114 O   0  0  0  0  0  0  0  0  0  0  0  0
   14.8939    7.4261    0.3912 C   0  0  0  0  0  0  0  0  0  0  0  0
   15.7162    8.1245    0.5719 H   0  0  0  0  0  0  0  0  0  0  0  0
   15.2555    6.5799   -0.2125 H   0  0  0  0  0  0  0  0  0  0  0  0
   14.5058    7.0577    1.3529 H   0  0  0  0  0  0  0  0  0  0  0  0
    8.4995    3.0028   -1.3250 O   0  0  0  0  0  0  0  0  0  0  0  0
    9.3651    2.4147   -0.7299 C   0  0  0  0  0  0  0  0  0  0  0  0
   10.5341    2.8931   -0.3147 O   0  0  0  0  0  0  0  0  0  0  0  0
    9.2383    0.9191   -0.3339 C   0  0  0  0  0  0  0  0  0  0  0  0
    9.3174    0.7716    1.0079 F   0  0  0  0  0  0  0  0  0  0  0  0
    8.0675    0.4149   -0.7429 F   0  0  0  0  0  0  0  0  0  0  0  0
   10.2313    0.1909   -0.8926 F   0  0  0  0  0  0  0  0  0  0  0  0
  1  6  2  0  0  0  0
  2  3  2  0  0  0  0
  2  1  1  0  0  0  0
  3  4  1  0  0  0  0
  4  5  2  0  0  0  0
  5 10  1  0  0  0  0
  6  5  1  0  0  0  0
  6 13  1  0  0  0  0
  7  1  1  0  0  0  0
  8  2  1  0  0  0  0
  9 20  1  0  0  0  0
 12 11  3  0  0  0  0
 13 14  1  0  0  0  0
 14 15  1  0  0  0  0
 14 17  1  0  0  0  0
 16 14  1  0  0  0  0
 18 19  2  0  0  0  0
 19 21  1  0  0  0  0
 19 20  1  0  0  0  0
 21 22  1  0  0  0  0
 23 21  1  0  0  0  0
 24 21  1  0  0  0  0
M  RAD  2   3   2   4   2
M  END
