Coordinates from ORCA-job p-CH3O-Ph-N2-OOCCF3-B3LYPG-aug-cc-pVDZ-scan-d09-49-n400
 OpenBabel11081710393D

 24 22  0  0  0  0  0  0  0  0999 V2000
   11.8047    8.3631   -1.3751 C   0  0  0  0  0  0  0  0  0  0  0  0
   10.5596    7.8910   -1.8279 C   0  0  0  0  0  0  0  0  0  0  0  0
   10.4719    6.5681   -1.4662 C   0  0  0  0  0  0  0  0  0  0  0  0
   11.1985    5.7368   -0.8642 C   0  0  0  0  0  0  0  0  0  0  0  0
   12.4549    6.1728   -0.3950 C   0  0  0  0  0  0  0  0  0  0  0  0
   12.7279    7.5335   -0.6794 C   0  0  0  0  0  0  0  0  0  0  0  0
   12.0859    9.4004   -1.5569 H   0  0  0  0  0  0  0  0  0  0  0  0
    9.8357    8.5000   -2.3608 H   0  0  0  0  0  0  0  0  0  0  0  0
   10.6086    3.8546   -0.5727 H   0  0  0  0  0  0  0  0  0  0  0  0
   13.1558    5.5347    0.1358 H   0  0  0  0  0  0  0  0  0  0  0  0
    7.3772    6.0569   -2.7944 N   0  0  0  0  0  0  0  0  0  0  0  0
    6.4181    5.6185   -3.1205 N   0  0  0  0  0  0  0  0  0  0  0  0
   13.8836    8.1633   -0.3177 O   0  0  0  0  0  0  0  0  0  0  0  0
   14.8710    7.4119    0.3846 C   0  0  0  0  0  0  0  0  0  0  0  0
   15.6959    8.1066    0.5678 H   0  0  0  0  0  0  0  0  0  0  0  0
   15.2300    6.5654   -0.2202 H   0  0  0  0  0  0  0  0  0  0  0  0
   14.4801    7.0431    1.3451 H   0  0  0  0  0  0  0  0  0  0  0  0
    8.4920    2.9916   -1.3252 O   0  0  0  0  0  0  0  0  0  0  0  0
    9.3631    2.4115   -0.7299 C   0  0  0  0  0  0  0  0  0  0  0  0
   10.5295    2.8989   -0.3189 O   0  0  0  0  0  0  0  0  0  0  0  0
    9.2470    0.9164   -0.3288 C   0  0  0  0  0  0  0  0  0  0  0  0
    9.3302    0.7737    1.0133 F   0  0  0  0  0  0  0  0  0  0  0  0
    8.0785    0.4032   -0.7334 F   0  0  0  0  0  0  0  0  0  0  0  0
   10.2434    0.1928   -0.8876 F   0  0  0  0  0  0  0  0  0  0  0  0
  1  6  2  0  0  0  0
  2  3  2  0  0  0  0
  2  1  1  0  0  0  0
  3  4  1  0  0  0  0
  4  5  2  0  0  0  0
  5 10  1  0  0  0  0
  6  5  1  0  0  0  0
  6 13  1  0  0  0  0
  7  1  1  0  0  0  0
  8  2  1  0  0  0  0
  9 20  1  0  0  0  0
 12 11  3  0  0  0  0
 13 14  1  0  0  0  0
 14 15  1  0  0  0  0
 14 17  1  0  0  0  0
 16 14  1  0  0  0  0
 18 19  2  0  0  0  0
 19 21  1  0  0  0  0
 19 20  1  0  0  0  0
 21 22  1  0  0  0  0
 23 21  1  0  0  0  0
 24 21  1  0  0  0  0
M  RAD  2   3   2   4   2
M  END
