Coordinates from ORCA-job p-CH3O-Ph-N2-OOCCF3-B3LYPG-aug-cc-pVDZ-scan-d09-49-n400
 OpenBabel11081710393D

 24 22  0  0  0  0  0  0  0  0999 V2000
   11.7974    8.3651   -1.3793 C   0  0  0  0  0  0  0  0  0  0  0  0
   10.5513    7.8970   -1.8337 C   0  0  0  0  0  0  0  0  0  0  0  0
   10.4600    6.5742   -1.4738 C   0  0  0  0  0  0  0  0  0  0  0  0
   11.1825    5.7384   -0.8725 C   0  0  0  0  0  0  0  0  0  0  0  0
   12.4398    6.1716   -0.4019 C   0  0  0  0  0  0  0  0  0  0  0  0
   12.7174    7.5318   -0.6840 C   0  0  0  0  0  0  0  0  0  0  0  0
   12.0816    9.4018   -1.5594 H   0  0  0  0  0  0  0  0  0  0  0  0
    9.8294    8.5086   -2.3665 H   0  0  0  0  0  0  0  0  0  0  0  0
   10.6030    3.8593   -0.5769 H   0  0  0  0  0  0  0  0  0  0  0  0
   13.1385    5.5308    0.1285 H   0  0  0  0  0  0  0  0  0  0  0  0
    7.4477    6.0625   -2.7623 N   0  0  0  0  0  0  0  0  0  0  0  0
    6.4830    5.6432   -3.0969 N   0  0  0  0  0  0  0  0  0  0  0  0
   13.8746    8.1575   -0.3203 O   0  0  0  0  0  0  0  0  0  0  0  0
   14.8591    7.4021    0.3820 C   0  0  0  0  0  0  0  0  0  0  0  0
   15.6858    8.0941    0.5670 H   0  0  0  0  0  0  0  0  0  0  0  0
   15.2161    6.5554   -0.2238 H   0  0  0  0  0  0  0  0  0  0  0  0
   14.4661    7.0331    1.3415 H   0  0  0  0  0  0  0  0  0  0  0  0
    8.4887    2.9856   -1.3249 O   0  0  0  0  0  0  0  0  0  0  0  0
    9.3630    2.4104   -0.7296 C   0  0  0  0  0  0  0  0  0  0  0  0
   10.5278    2.9034   -0.3211 O   0  0  0  0  0  0  0  0  0  0  0  0
    9.2534    0.9155   -0.3255 C   0  0  0  0  0  0  0  0  0  0  0  0
    9.3389    0.7756    1.0168 F   0  0  0  0  0  0  0  0  0  0  0  0
    8.0864    0.3970   -0.7275 F   0  0  0  0  0  0  0  0  0  0  0  0
   10.2519    0.1947   -0.8841 F   0  0  0  0  0  0  0  0  0  0  0  0
  1  6  2  0  0  0  0
  2  3  2  0  0  0  0
  2  1  1  0  0  0  0
  3  4  1  0  0  0  0
  4  5  2  0  0  0  0
  5 10  1  0  0  0  0
  6  5  1  0  0  0  0
  6 13  1  0  0  0  0
  7  1  1  0  0  0  0
  8  2  1  0  0  0  0
  9 20  1  0  0  0  0
 12 11  3  0  0  0  0
 13 14  1  0  0  0  0
 14 15  1  0  0  0  0
 14 17  1  0  0  0  0
 16 14  1  0  0  0  0
 18 19  2  0  0  0  0
 19 21  1  0  0  0  0
 19 20  1  0  0  0  0
 21 22  1  0  0  0  0
 23 21  1  0  0  0  0
 24 21  1  0  0  0  0
M  RAD  2   3   2   4   2
M  END
