Coordinates from ORCA-job p-CH3O-Ph-N2-OOCCF3-B3LYPG-aug-cc-pVDZ-scan-d09-49-n400
 OpenBabel11081710393D

 24 22  0  0  0  0  0  0  0  0999 V2000
   11.6253    8.2629   -1.4283 C   0  0  0  0  0  0  0  0  0  0  0  0
   10.4011    7.7282   -1.8515 C   0  0  0  0  0  0  0  0  0  0  0  0
   10.3238    6.4135   -1.4892 C   0  0  0  0  0  0  0  0  0  0  0  0
   11.0678    5.5201   -0.8620 C   0  0  0  0  0  0  0  0  0  0  0  0
   12.2944    6.1111   -0.4546 C   0  0  0  0  0  0  0  0  0  0  0  0
   12.5646    7.4628   -0.7359 C   0  0  0  0  0  0  0  0  0  0  0  0
   11.8585    9.3067   -1.6337 H   0  0  0  0  0  0  0  0  0  0  0  0
    9.6490    8.3008   -2.3851 H   0  0  0  0  0  0  0  0  0  0  0  0
   10.8417    4.3891   -0.6269 H   0  0  0  0  0  0  0  0  0  0  0  0
   13.0019    5.4783    0.0760 H   0  0  0  0  0  0  0  0  0  0  0  0
    8.4617    5.6679   -2.1537 N   0  0  0  0  0  0  0  0  0  0  0  0
    7.4698    5.6975   -2.6374 N   0  0  0  0  0  0  0  0  0  0  0  0
   13.7072    8.1017   -0.3833 O   0  0  0  0  0  0  0  0  0  0  0  0
   14.7111    7.3638    0.3208 C   0  0  0  0  0  0  0  0  0  0  0  0
   15.5256    8.0720    0.4951 H   0  0  0  0  0  0  0  0  0  0  0  0
   15.0759    6.5211   -0.2842 H   0  0  0  0  0  0  0  0  0  0  0  0
   14.3264    6.9972    1.2835 H   0  0  0  0  0  0  0  0  0  0  0  0
    8.6719    3.2612   -1.3202 O   0  0  0  0  0  0  0  0  0  0  0  0
    9.5164    2.5888   -0.7135 C   0  0  0  0  0  0  0  0  0  0  0  0
   10.6552    2.9287   -0.2745 O   0  0  0  0  0  0  0  0  0  0  0  0
    9.1719    1.0914   -0.4182 C   0  0  0  0  0  0  0  0  0  0  0  0
    9.1540    0.8553    0.9186 F   0  0  0  0  0  0  0  0  0  0  0  0
    7.9704    0.7258   -0.9054 F   0  0  0  0  0  0  0  0  0  0  0  0
   10.0975    0.2629   -0.9645 F   0  0  0  0  0  0  0  0  0  0  0  0
  1  6  2  0  0  0  0
  2  3  2  0  0  0  0
  2  1  1  0  0  0  0
  3  4  1  0  0  0  0
  4  9  1  0  0  0  0
  4  5  2  0  0  0  0
  5 10  1  0  0  0  0
  6  5  1  0  0  0  0
  6 13  1  0  0  0  0
  7  1  1  0  0  0  0
  8  2  1  0  0  0  0
 12 11  3  0  0  0  0
 13 14  1  0  0  0  0
 14 15  1  0  0  0  0
 14 17  1  0  0  0  0
 16 14  1  0  0  0  0
 18 19  2  0  0  0  0
 19 21  1  0  0  0  0
 19 20  1  0  0  0  0
 21 22  1  0  0  0  0
 23 21  1  0  0  0  0
 24 21  1  0  0  0  0
M  RAD  2   3   2  20   2
M  END
