Coordinates from ORCA-job p-CH3O-Ph-N2-OOCCF3-B3LYPG-aug-cc-pVDZ-scan-d09-49-n400
 OpenBabel11081710393D

 24 22  0  0  0  0  0  0  0  0999 V2000
   11.8824    8.2866   -1.3151 C   0  0  0  0  0  0  0  0  0  0  0  0
   10.6616    7.7253   -1.7293 C   0  0  0  0  0  0  0  0  0  0  0  0
   10.6573    6.4078   -1.3293 C   0  0  0  0  0  0  0  0  0  0  0  0
   11.4565    5.6575   -0.7170 C   0  0  0  0  0  0  0  0  0  0  0  0
   12.6910    6.1733   -0.2823 C   0  0  0  0  0  0  0  0  0  0  0  0
   12.8697    7.5395   -0.6136 C   0  0  0  0  0  0  0  0  0  0  0  0
   12.0948    9.3333   -1.5326 H   0  0  0  0  0  0  0  0  0  0  0  0
    9.8936    8.2752   -2.2654 H   0  0  0  0  0  0  0  0  0  0  0  0
   10.7461    3.7446   -0.4735 H   0  0  0  0  0  0  0  0  0  0  0  0
   13.4396    5.5962    0.2528 H   0  0  0  0  0  0  0  0  0  0  0  0
    6.2878    6.1656   -3.3490 N   0  0  0  0  0  0  0  0  0  0  0  0
    5.4294    5.5032   -3.5581 N   0  0  0  0  0  0  0  0  0  0  0  0
   13.9890    8.2526   -0.2943 O   0  0  0  0  0  0  0  0  0  0  0  0
   15.0351    7.5880    0.4103 C   0  0  0  0  0  0  0  0  0  0  0  0
   15.8168    8.3392    0.5560 H   0  0  0  0  0  0  0  0  0  0  0  0
   15.4368    6.7476   -0.1760 H   0  0  0  0  0  0  0  0  0  0  0  0
   14.6861    7.2252    1.3890 H   0  0  0  0  0  0  0  0  0  0  0  0
    8.5960    3.0749   -1.2999 O   0  0  0  0  0  0  0  0  0  0  0  0
    9.4049    2.4083   -0.7086 C   0  0  0  0  0  0  0  0  0  0  0  0
   10.5952    2.7923   -0.2552 O   0  0  0  0  0  0  0  0  0  0  0  0
    9.1685    0.9133   -0.3656 C   0  0  0  0  0  0  0  0  0  0  0  0
    9.2085    0.7178    0.9718 F   0  0  0  0  0  0  0  0  0  0  0  0
    7.9750    0.5047   -0.8137 F   0  0  0  0  0  0  0  0  0  0  0  0
   10.1213    0.1371   -0.9294 F   0  0  0  0  0  0  0  0  0  0  0  0
  1  6  2  0  0  0  0
  2  3  2  0  0  0  0
  2  1  1  0  0  0  0
  3  4  1  0  0  0  0
  4  5  2  0  0  0  0
  5 10  1  0  0  0  0
  6 13  1  0  0  0  0
  6  5  1  0  0  0  0
  7  1  1  0  0  0  0
  8  2  1  0  0  0  0
  9 20  1  0  0  0  0
 12 11  3  0  0  0  0
 13 14  1  0  0  0  0
 14 15  1  0  0  0  0
 14 17  1  0  0  0  0
 16 14  1  0  0  0  0
 18 19  2  0  0  0  0
 19 21  1  0  0  0  0
 19 20  1  0  0  0  0
 21 22  1  0  0  0  0
 23 21  1  0  0  0  0
 24 21  1  0  0  0  0
M  RAD  2   3   2   4   2
M  END
