Coordinates from ORCA-job p-CH3O-Ph-N2-OOCCF3-B3LYPG-aug-cc-pVDZ-scan-d09-49-n400
 OpenBabel11081710393D

 24 22  0  0  0  0  0  0  0  0999 V2000
   11.8580    8.3545   -1.3471 C   0  0  0  0  0  0  0  0  0  0  0  0
   10.6174    7.8634   -1.7918 C   0  0  0  0  0  0  0  0  0  0  0  0
   10.5452    6.5401   -1.4222 C   0  0  0  0  0  0  0  0  0  0  0  0
   11.2912    5.7298   -0.8171 C   0  0  0  0  0  0  0  0  0  0  0  0
   12.5432    6.1803   -0.3546 C   0  0  0  0  0  0  0  0  0  0  0  0
   12.7956    7.5429   -0.6498 C   0  0  0  0  0  0  0  0  0  0  0  0
   12.1246    9.3941   -1.5368 H   0  0  0  0  0  0  0  0  0  0  0  0
    9.8849    8.4617   -2.3256 H   0  0  0  0  0  0  0  0  0  0  0  0
   10.6461    3.8347   -0.5483 H   0  0  0  0  0  0  0  0  0  0  0  0
   13.2545    5.5550    0.1773 H   0  0  0  0  0  0  0  0  0  0  0  0
    6.8752    6.0328   -3.0276 N   0  0  0  0  0  0  0  0  0  0  0  0
    5.9689    5.4580   -3.2869 N   0  0  0  0  0  0  0  0  0  0  0  0
   13.9439    8.1910   -0.2974 O   0  0  0  0  0  0  0  0  0  0  0  0
   14.9447    7.4582    0.4056 C   0  0  0  0  0  0  0  0  0  0  0  0
   15.7606    8.1655    0.5804 H   0  0  0  0  0  0  0  0  0  0  0  0
   15.3128    6.6126   -0.1951 H   0  0  0  0  0  0  0  0  0  0  0  0
   14.5631    7.0906    1.3703 H   0  0  0  0  0  0  0  0  0  0  0  0
    8.5188    3.0255   -1.3224 O   0  0  0  0  0  0  0  0  0  0  0  0
    9.3728    2.4208   -0.7279 C   0  0  0  0  0  0  0  0  0  0  0  0
   10.5467    2.8800   -0.3047 O   0  0  0  0  0  0  0  0  0  0  0  0
    9.2237    0.9245   -0.3427 C   0  0  0  0  0  0  0  0  0  0  0  0
    9.2946    0.7670    0.9985 F   0  0  0  0  0  0  0  0  0  0  0  0
    8.0479    0.4395   -0.7603 F   0  0  0  0  0  0  0  0  0  0  0  0
   10.2091    0.1864   -0.9019 F   0  0  0  0  0  0  0  0  0  0  0  0
  1  6  2  0  0  0  0
  2  3  2  0  0  0  0
  2  1  1  0  0  0  0
  3  4  1  0  0  0  0
  4  5  2  0  0  0  0
  5 10  1  0  0  0  0
  6  5  1  0  0  0  0
  6 13  1  0  0  0  0
  7  1  1  0  0  0  0
  8  2  1  0  0  0  0
  9 20  1  0  0  0  0
 12 11  3  0  0  0  0
 13 14  1  0  0  0  0
 14 15  1  0  0  0  0
 14 17  1  0  0  0  0
 16 14  1  0  0  0  0
 18 19  2  0  0  0  0
 19 21  1  0  0  0  0
 19 20  1  0  0  0  0
 21 22  1  0  0  0  0
 23 21  1  0  0  0  0
 24 21  1  0  0  0  0
M  RAD  2   3   2   4   2
M  END
