Coordinates from ORCA-job p-CH3O-Ph-N2-OOCCF3-B3LYPG-aug-cc-pVDZ-scan-d09-49-n400
 OpenBabel11081710393D

 24 22  0  0  0  0  0  0  0  0999 V2000
   11.7957    8.3656   -1.3802 C   0  0  0  0  0  0  0  0  0  0  0  0
   10.5495    7.8983   -1.8350 C   0  0  0  0  0  0  0  0  0  0  0  0
   10.4573    6.5755   -1.4756 C   0  0  0  0  0  0  0  0  0  0  0  0
   11.1789    5.7388   -0.8743 C   0  0  0  0  0  0  0  0  0  0  0  0
   12.4364    6.1713   -0.4035 C   0  0  0  0  0  0  0  0  0  0  0  0
   12.7150    7.5314   -0.6850 C   0  0  0  0  0  0  0  0  0  0  0  0
   12.0806    9.4021   -1.5599 H   0  0  0  0  0  0  0  0  0  0  0  0
    9.8281    8.5106   -2.3677 H   0  0  0  0  0  0  0  0  0  0  0  0
   10.6018    3.8604   -0.5779 H   0  0  0  0  0  0  0  0  0  0  0  0
   13.1346    5.5299    0.1269 H   0  0  0  0  0  0  0  0  0  0  0  0
    7.4633    6.0634   -2.7550 N   0  0  0  0  0  0  0  0  0  0  0  0
    6.4974    5.6485   -3.0916 N   0  0  0  0  0  0  0  0  0  0  0  0
   13.8726    8.1562   -0.3208 O   0  0  0  0  0  0  0  0  0  0  0  0
   14.8564    7.3999    0.3814 C   0  0  0  0  0  0  0  0  0  0  0  0
   15.6836    8.0912    0.5668 H   0  0  0  0  0  0  0  0  0  0  0  0
   15.2129    6.5531   -0.2246 H   0  0  0  0  0  0  0  0  0  0  0  0
   14.4629    7.0308    1.3407 H   0  0  0  0  0  0  0  0  0  0  0  0
    8.4880    2.9843   -1.3249 O   0  0  0  0  0  0  0  0  0  0  0  0
    9.3630    2.4103   -0.7295 C   0  0  0  0  0  0  0  0  0  0  0  0
   10.5274    2.9045   -0.3216 O   0  0  0  0  0  0  0  0  0  0  0  0
    9.2548    0.9155   -0.3247 C   0  0  0  0  0  0  0  0  0  0  0  0
    9.3409    0.7762    1.0176 F   0  0  0  0  0  0  0  0  0  0  0  0
    8.0882    0.3957   -0.7262 F   0  0  0  0  0  0  0  0  0  0  0  0
   10.2538    0.1953   -0.8834 F   0  0  0  0  0  0  0  0  0  0  0  0
  1  6  2  0  0  0  0
  2  3  2  0  0  0  0
  2  1  1  0  0  0  0
  3  4  1  0  0  0  0
  4  5  2  0  0  0  0
  5 10  1  0  0  0  0
  6  5  1  0  0  0  0
  6 13  1  0  0  0  0
  7  1  1  0  0  0  0
  8  2  1  0  0  0  0
  9 20  1  0  0  0  0
 12 11  3  0  0  0  0
 13 14  1  0  0  0  0
 14 15  1  0  0  0  0
 14 17  1  0  0  0  0
 16 14  1  0  0  0  0
 18 19  2  0  0  0  0
 19 21  1  0  0  0  0
 19 20  1  0  0  0  0
 21 22  1  0  0  0  0
 23 21  1  0  0  0  0
 24 21  1  0  0  0  0
M  RAD  2   3   2   4   2
M  END
