Coordinates from ORCA-job p-CH3O-Ph-N2-OOCCF3-B3LYPG-aug-cc-pVDZ-scan-d09-49-n400
 OpenBabel11081710393D

 24 22  0  0  0  0  0  0  0  0999 V2000
   11.6899    8.3485   -1.4267 C   0  0  0  0  0  0  0  0  0  0  0  0
   10.4453    7.8825   -1.8801 C   0  0  0  0  0  0  0  0  0  0  0  0
   10.3402    6.5636   -1.5271 C   0  0  0  0  0  0  0  0  0  0  0  0
   11.0227    5.6699   -0.9271 C   0  0  0  0  0  0  0  0  0  0  0  0
   12.2809    6.1458   -0.4701 C   0  0  0  0  0  0  0  0  0  0  0  0
   12.5919    7.4982   -0.7347 C   0  0  0  0  0  0  0  0  0  0  0  0
   11.9796    9.3836   -1.6045 H   0  0  0  0  0  0  0  0  0  0  0  0
    9.7275    8.4998   -2.4126 H   0  0  0  0  0  0  0  0  0  0  0  0
   10.6334    3.9429   -0.5847 H   0  0  0  0  0  0  0  0  0  0  0  0
   12.9736    5.4963    0.0602 H   0  0  0  0  0  0  0  0  0  0  0  0
    8.2821    6.0000   -2.3401 N   0  0  0  0  0  0  0  0  0  0  0  0
    7.2792    5.8184   -2.7628 N   0  0  0  0  0  0  0  0  0  0  0  0
   13.7574    8.1005   -0.3609 O   0  0  0  0  0  0  0  0  0  0  0  0
   14.7254    7.3224    0.3406 C   0  0  0  0  0  0  0  0  0  0  0  0
   15.5630    7.9987    0.5348 H   0  0  0  0  0  0  0  0  0  0  0  0
   15.0705    6.4742   -0.2697 H   0  0  0  0  0  0  0  0  0  0  0  0
   14.3212    6.9528    1.2951 H   0  0  0  0  0  0  0  0  0  0  0  0
    8.5140    3.0457   -1.3353 O   0  0  0  0  0  0  0  0  0  0  0  0
    9.3914    2.4753   -0.7321 C   0  0  0  0  0  0  0  0  0  0  0  0
   10.5481    2.9652   -0.3257 O   0  0  0  0  0  0  0  0  0  0  0  0
    9.2741    0.9782   -0.3357 C   0  0  0  0  0  0  0  0  0  0  0  0
    9.3438    0.8316    1.0075 F   0  0  0  0  0  0  0  0  0  0  0  0
    8.1107    0.4593   -0.7516 F   0  0  0  0  0  0  0  0  0  0  0  0
   10.2773    0.2556   -0.8851 F   0  0  0  0  0  0  0  0  0  0  0  0
  1  6  2  0  0  0  0
  2  3  2  0  0  0  0
  2  1  1  0  0  0  0
  3  4  1  0  0  0  0
  4  5  2  0  0  0  0
  5 10  1  0  0  0  0
  6  5  1  0  0  0  0
  6 13  1  0  0  0  0
  7  1  1  0  0  0  0
  8  2  1  0  0  0  0
  9 20  1  0  0  0  0
 12 11  3  0  0  0  0
 13 14  1  0  0  0  0
 14 15  1  0  0  0  0
 14 17  1  0  0  0  0
 16 14  1  0  0  0  0
 18 19  2  0  0  0  0
 19 21  1  0  0  0  0
 19 20  1  0  0  0  0
 21 22  1  0  0  0  0
 23 21  1  0  0  0  0
 24 21  1  0  0  0  0
M  RAD  2   3   2   4   2
M  END
