Coordinates from ORCA-job p-CH3O-Ph-N2-OOCCF3-B3LYPG-aug-cc-pVDZ-scan-d09-49-n400
 OpenBabel11081710393D

 24 22  0  0  0  0  0  0  0  0999 V2000
   11.7198    8.3591   -1.4144 C   0  0  0  0  0  0  0  0  0  0  0  0
   10.4715    7.9008   -1.8729 C   0  0  0  0  0  0  0  0  0  0  0  0
   10.3734    6.5824   -1.5180 C   0  0  0  0  0  0  0  0  0  0  0  0
   11.0602    5.7035   -0.9209 C   0  0  0  0  0  0  0  0  0  0  0  0
   12.3206    6.1535   -0.4540 C   0  0  0  0  0  0  0  0  0  0  0  0
   12.6241    7.5091   -0.7219 C   0  0  0  0  0  0  0  0  0  0  0  0
   12.0131    9.3939   -1.5893 H   0  0  0  0  0  0  0  0  0  0  0  0
    9.7553    8.5197   -2.4048 H   0  0  0  0  0  0  0  0  0  0  0  0
   10.6108    3.9109   -0.5892 H   0  0  0  0  0  0  0  0  0  0  0  0
   13.0119    5.5028    0.0756 H   0  0  0  0  0  0  0  0  0  0  0  0
    8.0730    6.0253   -2.4507 N   0  0  0  0  0  0  0  0  0  0  0  0
    7.0733    5.8095   -2.8654 N   0  0  0  0  0  0  0  0  0  0  0  0
   13.7885    8.1149   -0.3485 O   0  0  0  0  0  0  0  0  0  0  0  0
   14.7584    7.3396    0.3528 C   0  0  0  0  0  0  0  0  0  0  0  0
   15.5944    8.0178    0.5467 H   0  0  0  0  0  0  0  0  0  0  0  0
   15.1056    6.4921   -0.2574 H   0  0  0  0  0  0  0  0  0  0  0  0
   14.3554    6.9693    1.3076 H   0  0  0  0  0  0  0  0  0  0  0  0
    8.4930    3.0062   -1.3295 O   0  0  0  0  0  0  0  0  0  0  0  0
    9.3770    2.4432   -0.7330 C   0  0  0  0  0  0  0  0  0  0  0  0
   10.5350    2.9445   -0.3303 O   0  0  0  0  0  0  0  0  0  0  0  0
    9.2760    0.9484   -0.3244 C   0  0  0  0  0  0  0  0  0  0  0  0
    9.3641    0.8118    1.0184 F   0  0  0  0  0  0  0  0  0  0  0  0
    8.1113    0.4201   -0.7225 F   0  0  0  0  0  0  0  0  0  0  0  0
   10.2775    0.2304   -0.8823 F   0  0  0  0  0  0  0  0  0  0  0  0
  1  6  2  0  0  0  0
  2  3  2  0  0  0  0
  2  1  1  0  0  0  0
  3  4  1  0  0  0  0
  4  5  2  0  0  0  0
  5 10  1  0  0  0  0
  6  5  1  0  0  0  0
  6 13  1  0  0  0  0
  7  1  1  0  0  0  0
  8  2  1  0  0  0  0
  9 20  1  0  0  0  0
 12 11  3  0  0  0  0
 13 14  1  0  0  0  0
 14 15  1  0  0  0  0
 14 17  1  0  0  0  0
 16 14  1  0  0  0  0
 18 19  2  0  0  0  0
 19 20  1  0  0  0  0
 19 21  1  0  0  0  0
 21 22  1  0  0  0  0
 23 21  1  0  0  0  0
 24 21  1  0  0  0  0
M  RAD  2   3   2   4   2
M  END
