Coordinates from ORCA-job p-CH3O-Ph-N2-OOCCF3-B3LYPG-aug-cc-pVDZ-scan-d09-49-n400
 OpenBabel11081710393D

 24 23  0  0  0  0  0  0  0  0999 V2000
   11.7028    8.1282   -1.5233 C   0  0  0  0  0  0  0  0  0  0  0  0
   10.4529    7.9467   -2.0322 C   0  0  0  0  0  0  0  0  0  0  0  0
    9.7624    6.6656   -1.8817 C   0  0  0  0  0  0  0  0  0  0  0  0
   10.4681    5.6020   -1.1686 C   0  0  0  0  0  0  0  0  0  0  0  0
   11.7294    5.8178   -0.6672 C   0  0  0  0  0  0  0  0  0  0  0  0
   12.3634    7.0669   -0.8318 C   0  0  0  0  0  0  0  0  0  0  0  0
   12.2213    9.0792   -1.6323 H   0  0  0  0  0  0  0  0  0  0  0  0
    9.9336    8.7450   -2.5629 H   0  0  0  0  0  0  0  0  0  0  0  0
    9.9131    4.6290   -1.0694 H   0  0  0  0  0  0  0  0  0  0  0  0
   12.2114    4.9950   -0.1451 H   0  0  0  0  0  0  0  0  0  0  0  0
    8.7985    6.5080   -2.2682 N   0  0  0  0  0  0  0  0  0  0  0  0
    7.7496    6.3372   -2.6888 N   0  0  0  0  0  0  0  0  0  0  0  0
   13.5759    7.3613   -0.3817 O   0  0  0  0  0  0  0  0  0  0  0  0
   14.3361    6.3601    0.3334 C   0  0  0  0  0  0  0  0  0  0  0  0
   15.2783    6.8502    0.5876 H   0  0  0  0  0  0  0  0  0  0  0  0
   14.5202    5.4918   -0.3111 H   0  0  0  0  0  0  0  0  0  0  0  0
   13.8049    6.0598    1.2448 H   0  0  0  0  0  0  0  0  0  0  0  0
    8.3184    1.2369   -0.5816 O   0  0  0  0  0  0  0  0  0  0  0  0
    9.0165    2.2448   -0.6243 C   0  0  0  0  0  0  0  0  0  0  0  0
    8.8082    3.3893   -1.1324 O   0  0  0  0  0  0  0  0  0  0  0  0
   10.4336    2.1441    0.0630 C   0  0  0  0  0  0  0  0  0  0  0  0
   10.5853    3.0896    1.0544 F   0  0  0  0  0  0  0  0  0  0  0  0
   10.7091    0.9566    0.6217 F   0  0  0  0  0  0  0  0  0  0  0  0
   11.4502    2.4035   -0.8306 F   0  0  0  0  0  0  0  0  0  0  0  0
  1  6  2  0  0  0  0
  2  3  2  0  0  0  0
  2  1  1  0  0  0  0
  3  4  1  0  0  0  0
  4  9  1  0  0  0  0
  4  5  2  0  0  0  0
  5 10  1  0  0  0  0
  6  5  1  0  0  0  0
  6 13  1  0  0  0  0
  7  1  1  0  0  0  0
  8  2  1  0  0  0  0
 11  3  1  0  0  0  0
 12 11  1  0  0  0  0
 13 14  1  0  0  0  0
 14 15  1  0  0  0  0
 14 17  1  0  0  0  0
 16 14  1  0  0  0  0
 19 18  1  0  0  0  0
 19 21  1  0  0  0  0
 20 19  2  0  0  0  0
 21 23  1  0  0  0  0
 21 22  1  0  0  0  0
 24 21  1  0  0  0  0
M  RAD  3  11   2  12   3  18   2
M  END
