Coordinates from ORCA-job p-CH3O-Ph-N2-OOCCF3-B3LYPG-aug-cc-pVDZ-scan-d09-49-n400
 OpenBabel11081710393D

 24 22  0  0  0  0  0  0  0  0999 V2000
   11.8748    8.3056   -1.3241 C   0  0  0  0  0  0  0  0  0  0  0  0
   10.6490    7.7601   -1.7452 C   0  0  0  0  0  0  0  0  0  0  0  0
   10.6310    6.4415   -1.3514 C   0  0  0  0  0  0  0  0  0  0  0  0
   11.4178    5.6771   -0.7410 C   0  0  0  0  0  0  0  0  0  0  0  0
   12.6567    6.1776   -0.2999 C   0  0  0  0  0  0  0  0  0  0  0  0
   12.8516    7.5436   -0.6233 C   0  0  0  0  0  0  0  0  0  0  0  0
   12.0996    9.3510   -1.5354 H   0  0  0  0  0  0  0  0  0  0  0  0
    9.8886    8.3209   -2.2808 H   0  0  0  0  0  0  0  0  0  0  0  0
   10.7159    3.7699   -0.4953 H   0  0  0  0  0  0  0  0  0  0  0  0
   13.3971    5.5894    0.2345 H   0  0  0  0  0  0  0  0  0  0  0  0
    6.4996    6.0702   -3.2192 N   0  0  0  0  0  0  0  0  0  0  0  0
    5.6275    5.4309   -3.4424 N   0  0  0  0  0  0  0  0  0  0  0  0
   13.9777    8.2424   -0.2968 O   0  0  0  0  0  0  0  0  0  0  0  0
   15.0142    7.5624    0.4074 C   0  0  0  0  0  0  0  0  0  0  0  0
   15.8038    8.3041    0.5595 H   0  0  0  0  0  0  0  0  0  0  0  0
   15.4083    6.7207   -0.1821 H   0  0  0  0  0  0  0  0  0  0  0  0
   14.6582    7.1983    1.3832 H   0  0  0  0  0  0  0  0  0  0  0  0
    8.5669    3.0791   -1.3154 O   0  0  0  0  0  0  0  0  0  0  0  0
    9.3832    2.4220   -0.7232 C   0  0  0  0  0  0  0  0  0  0  0  0
   10.5715    2.8170   -0.2737 O   0  0  0  0  0  0  0  0  0  0  0  0
    9.1597    0.9264   -0.3738 C   0  0  0  0  0  0  0  0  0  0  0  0
    9.2041    0.7366    0.9642 F   0  0  0  0  0  0  0  0  0  0  0  0
    7.9687    0.5062   -0.8178 F   0  0  0  0  0  0  0  0  0  0  0  0
   10.1177    0.1558   -0.9365 F   0  0  0  0  0  0  0  0  0  0  0  0
  1  6  2  0  0  0  0
  2  3  2  0  0  0  0
  2  1  1  0  0  0  0
  3  4  1  0  0  0  0
  4  5  2  0  0  0  0
  5 10  1  0  0  0  0
  6  5  1  0  0  0  0
  6 13  1  0  0  0  0
  7  1  1  0  0  0  0
  8  2  1  0  0  0  0
  9 20  1  0  0  0  0
 12 11  3  0  0  0  0
 13 14  1  0  0  0  0
 14 15  1  0  0  0  0
 14 17  1  0  0  0  0
 16 14  1  0  0  0  0
 18 19  2  0  0  0  0
 19 21  1  0  0  0  0
 19 20  1  0  0  0  0
 21 22  1  0  0  0  0
 23 21  1  0  0  0  0
 24 21  1  0  0  0  0
M  RAD  2   3   2   4   2
M  END
