Coordinates from ORCA-job p-CH3O-Ph-N2-OOCCF3-B3LYPG-aug-cc-pVDZ-scan-d09-49-n400
 OpenBabel11081710393D

 24 23  0  0  0  0  0  0  0  0999 V2000
   11.6919    8.2593   -1.5511 C   0  0  0  0  0  0  0  0  0  0  0  0
   10.4878    7.6782   -1.9107 C   0  0  0  0  0  0  0  0  0  0  0  0
   10.2523    6.3447   -1.5509 C   0  0  0  0  0  0  0  0  0  0  0  0
   11.1824    5.5746   -0.8450 C   0  0  0  0  0  0  0  0  0  0  0  0
   12.3905    6.1702   -0.4891 C   0  0  0  0  0  0  0  0  0  0  0  0
   12.6513    7.5097   -0.8381 C   0  0  0  0  0  0  0  0  0  0  0  0
   11.9182    9.2923   -1.8087 H   0  0  0  0  0  0  0  0  0  0  0  0
    9.7337    8.2377   -2.4610 H   0  0  0  0  0  0  0  0  0  0  0  0
   10.9514    4.5443   -0.5903 H   0  0  0  0  0  0  0  0  0  0  0  0
   13.1194    5.5801    0.0595 H   0  0  0  0  0  0  0  0  0  0  0  0
    8.9478    5.7763   -1.9633 N   0  0  0  0  0  0  0  0  0  0  0  0
    8.2786    4.8408   -1.9403 N   0  0  0  0  0  0  0  0  0  0  0  0
   13.7915    8.1662   -0.5354 O   0  0  0  0  0  0  0  0  0  0  0  0
   14.8181    7.4775    0.1877 C   0  0  0  0  0  0  0  0  0  0  0  0
   15.6252    8.2046    0.3100 H   0  0  0  0  0  0  0  0  0  0  0  0
   15.1834    6.6103   -0.3805 H   0  0  0  0  0  0  0  0  0  0  0  0
   14.4550    7.1574    1.1747 H   0  0  0  0  0  0  0  0  0  0  0  0
    7.2809    2.1936   -1.2035 O   0  0  0  0  0  0  0  0  0  0  0  0
    8.4401    2.3666   -0.8853 C   0  0  0  0  0  0  0  0  0  0  0  0
    9.1989    3.4112   -1.0097 O   0  0  0  0  0  0  0  0  0  0  0  0
    9.2379    1.1989   -0.2095 C   0  0  0  0  0  0  0  0  0  0  0  0
    9.7272    1.5749    1.0028 F   0  0  0  0  0  0  0  0  0  0  0  0
    8.4786    0.1095   -0.0182 F   0  0  0  0  0  0  0  0  0  0  0  0
   10.3010    0.8300   -0.9723 F   0  0  0  0  0  0  0  0  0  0  0  0
  1  6  1  0  0  0  0
  2  1  2  0  0  0  0
  2  3  1  0  0  0  0
  3  4  2  0  0  0  0
  4  9  1  0  0  0  0
  4  5  1  0  0  0  0
  5 10  1  0  0  0  0
  6 13  1  0  0  0  0
  6  5  2  0  0  0  0
  7  1  1  0  0  0  0
  8  2  1  0  0  0  0
 11 12  2  0  0  0  0
 11  3  1  0  0  0  0
 13 14  1  0  0  0  0
 14 15  1  0  0  0  0
 14 17  1  0  0  0  0
 16 14  1  0  0  0  0
 18 19  2  0  0  0  0
 19 21  1  0  0  0  0
 20 19  1  0  0  0  0
 21 23  1  0  0  0  0
 21 22  1  0  0  0  0
 24 21  1  0  0  0  0
M  RAD  2  12   2  20   2
M  END
