Coordinates from ORCA-job p-CH3O-Ph-N2-OOCCF3-B3LYPG-aug-cc-pVDZ-scan-d09-49-n400
 OpenBabel11081710393D

 24 22  0  0  0  0  0  0  0  0999 V2000
   11.7589    8.3458   -1.5396 C   0  0  0  0  0  0  0  0  0  0  0  0
   10.5170    7.8612   -1.9643 C   0  0  0  0  0  0  0  0  0  0  0  0
   10.3213    6.5551   -1.6107 C   0  0  0  0  0  0  0  0  0  0  0  0
   11.0746    5.6421   -0.9443 C   0  0  0  0  0  0  0  0  0  0  0  0
   12.3148    6.1782   -0.5382 C   0  0  0  0  0  0  0  0  0  0  0  0
   12.6523    7.5126   -0.8320 C   0  0  0  0  0  0  0  0  0  0  0  0
   12.0453    9.3744   -1.7533 H   0  0  0  0  0  0  0  0  0  0  0  0
    9.7985    8.4646   -2.5109 H   0  0  0  0  0  0  0  0  0  0  0  0
   10.7467    4.6186   -0.7505 H   0  0  0  0  0  0  0  0  0  0  0  0
   12.9909    5.5233    0.0053 H   0  0  0  0  0  0  0  0  0  0  0  0
    8.5628    5.8282   -2.2027 N   0  0  0  0  0  0  0  0  0  0  0  0
    8.0097    4.8549   -2.1161 N   0  0  0  0  0  0  0  0  0  0  0  0
   13.8208    8.0966   -0.4763 O   0  0  0  0  0  0  0  0  0  0  0  0
   14.7844    7.3221    0.2452 C   0  0  0  0  0  0  0  0  0  0  0  0
   15.6288    7.9945    0.4176 H   0  0  0  0  0  0  0  0  0  0  0  0
   15.1155    6.4567   -0.3469 H   0  0  0  0  0  0  0  0  0  0  0  0
   14.3759    6.9865    1.2094 H   0  0  0  0  0  0  0  0  0  0  0  0
    7.3613    2.0806   -1.0363 O   0  0  0  0  0  0  0  0  0  0  0  0
    8.5359    2.3196   -0.8031 C   0  0  0  0  0  0  0  0  0  0  0  0
    9.2427    3.3649   -1.0153 O   0  0  0  0  0  0  0  0  0  0  0  0
    9.4032    1.1933   -0.1269 C   0  0  0  0  0  0  0  0  0  0  0  0
    9.9683    1.6342    1.0319 F   0  0  0  0  0  0  0  0  0  0  0  0
    8.6910    0.0939    0.1714 F   0  0  0  0  0  0  0  0  0  0  0  0
   10.4227    0.8070   -0.9417 F   0  0  0  0  0  0  0  0  0  0  0  0
  1  6  2  0  0  0  0
  2  3  2  0  0  0  0
  2  1  1  0  0  0  0
  3  4  1  0  0  0  0
  4  9  1  0  0  0  0
  4  5  2  0  0  0  0
  5 10  1  0  0  0  0
  6  5  1  0  0  0  0
  6 13  1  0  0  0  0
  7  1  1  0  0  0  0
  8  2  1  0  0  0  0
 11 12  3  0  0  0  0
 13 14  1  0  0  0  0
 14 15  1  0  0  0  0
 14 17  1  0  0  0  0
 16 14  1  0  0  0  0
 18 19  2  0  0  0  0
 19 21  1  0  0  0  0
 20 19  1  0  0  0  0
 21 23  1  0  0  0  0
 21 22  1  0  0  0  0
 24 21  1  0  0  0  0
M  RAD  2   3   2  20   2
M  END
