Coordinates from ORCA-job p-CH3O-Ph-N2-OOCCF3-B3LYPG-aug-cc-pVDZ-scan-d09-49-n400
 OpenBabel11081710393D

 24 22  0  0  0  0  0  0  0  0999 V2000
   11.8611    8.3444   -1.3424 C   0  0  0  0  0  0  0  0  0  0  0  0
   10.6234    7.8408   -1.7818 C   0  0  0  0  0  0  0  0  0  0  0  0
   10.5657    6.5194   -1.4059 C   0  0  0  0  0  0  0  0  0  0  0  0
   11.3199    5.7187   -0.7999 C   0  0  0  0  0  0  0  0  0  0  0  0
   12.5691    6.1798   -0.3420 C   0  0  0  0  0  0  0  0  0  0  0  0
   12.8081    7.5437   -0.6440 C   0  0  0  0  0  0  0  0  0  0  0  0
   12.1183    9.3855   -1.5371 H   0  0  0  0  0  0  0  0  0  0  0  0
    9.8843    8.4306   -2.3161 H   0  0  0  0  0  0  0  0  0  0  0  0
   10.6573    3.8212   -0.5387 H   0  0  0  0  0  0  0  0  0  0  0  0
   13.2872    5.5627    0.1906 H   0  0  0  0  0  0  0  0  0  0  0  0
    6.8047    6.0369   -3.0629 N   0  0  0  0  0  0  0  0  0  0  0  0
    5.9041    5.4506   -3.3161 N   0  0  0  0  0  0  0  0  0  0  0  0
   13.9515    8.2037   -0.2977 O   0  0  0  0  0  0  0  0  0  0  0  0
   14.9608    7.4830    0.4056 C   0  0  0  0  0  0  0  0  0  0  0  0
   15.7708    8.1985    0.5750 H   0  0  0  0  0  0  0  0  0  0  0  0
   15.3348    6.6383   -0.1925 H   0  0  0  0  0  0  0  0  0  0  0  0
   14.5852    7.1162    1.3729 H   0  0  0  0  0  0  0  0  0  0  0  0
    8.5227    3.0343   -1.3232 O   0  0  0  0  0  0  0  0  0  0  0  0
    9.3704    2.4202   -0.7289 C   0  0  0  0  0  0  0  0  0  0  0  0
   10.5477    2.8667   -0.3001 O   0  0  0  0  0  0  0  0  0  0  0  0
    9.2072    0.9237   -0.3503 C   0  0  0  0  0  0  0  0  0  0  0  0
    9.2730    0.7600    0.9904 F   0  0  0  0  0  0  0  0  0  0  0  0
    8.0284    0.4507   -0.7732 F   0  0  0  0  0  0  0  0  0  0  0  0
   10.1877    0.1794   -0.9099 F   0  0  0  0  0  0  0  0  0  0  0  0
  1  6  2  0  0  0  0
  2  3  2  0  0  0  0
  2  1  1  0  0  0  0
  3  4  1  0  0  0  0
  4  5  2  0  0  0  0
  5 10  1  0  0  0  0
  6  5  1  0  0  0  0
  6 13  1  0  0  0  0
  7  1  1  0  0  0  0
  8  2  1  0  0  0  0
  9 20  1  0  0  0  0
 12 11  3  0  0  0  0
 13 14  1  0  0  0  0
 14 15  1  0  0  0  0
 14 17  1  0  0  0  0
 16 14  1  0  0  0  0
 18 19  2  0  0  0  0
 19 21  1  0  0  0  0
 19 20  1  0  0  0  0
 21 22  1  0  0  0  0
 23 21  1  0  0  0  0
 24 21  1  0  0  0  0
M  RAD  2   3   2   4   2
M  END
