Coordinates from ORCA-job p-CH3O-Ph-N2-OOCCF3-B3LYPG-aug-cc-pVDZ-scan-d09-49-n400
 OpenBabel11081710393D

 24 22  0  0  0  0  0  0  0  0999 V2000
   11.8818    8.2878   -1.3157 C   0  0  0  0  0  0  0  0  0  0  0  0
   10.6607    7.7275   -1.7304 C   0  0  0  0  0  0  0  0  0  0  0  0
   10.6555    6.4099   -1.3308 C   0  0  0  0  0  0  0  0  0  0  0  0
   11.4540    5.6588   -0.7186 C   0  0  0  0  0  0  0  0  0  0  0  0
   12.6888    6.1736   -0.2835 C   0  0  0  0  0  0  0  0  0  0  0  0
   12.8685    7.5398   -0.6142 C   0  0  0  0  0  0  0  0  0  0  0  0
   12.0950    9.3344   -1.5329 H   0  0  0  0  0  0  0  0  0  0  0  0
    9.8932    8.2782   -2.2665 H   0  0  0  0  0  0  0  0  0  0  0  0
   10.7440    3.7462   -0.4750 H   0  0  0  0  0  0  0  0  0  0  0  0
   13.4369    5.5959    0.2516 H   0  0  0  0  0  0  0  0  0  0  0  0
    6.3034    6.1584   -3.3394 N   0  0  0  0  0  0  0  0  0  0  0  0
    5.4441    5.4975   -3.5494 N   0  0  0  0  0  0  0  0  0  0  0  0
   13.9881    8.2520   -0.2945 O   0  0  0  0  0  0  0  0  0  0  0  0
   15.0337    7.5865    0.4100 C   0  0  0  0  0  0  0  0  0  0  0  0
   15.8159    8.3372    0.5561 H   0  0  0  0  0  0  0  0  0  0  0  0
   15.4350    6.7461   -0.1765 H   0  0  0  0  0  0  0  0  0  0  0  0
   14.6844    7.2236    1.3886 H   0  0  0  0  0  0  0  0  0  0  0  0
    8.5940    3.0754   -1.3011 O   0  0  0  0  0  0  0  0  0  0  0  0
    9.4032    2.4093   -0.7098 C   0  0  0  0  0  0  0  0  0  0  0  0
   10.5934    2.7939   -0.2565 O   0  0  0  0  0  0  0  0  0  0  0  0
    9.1674    0.9143   -0.3664 C   0  0  0  0  0  0  0  0  0  0  0  0
    9.2077    0.7191    0.9710 F   0  0  0  0  0  0  0  0  0  0  0  0
    7.9740    0.5051   -0.8143 F   0  0  0  0  0  0  0  0  0  0  0  0
   10.1205    0.1384   -0.9301 F   0  0  0  0  0  0  0  0  0  0  0  0
  1  6  2  0  0  0  0
  2  3  2  0  0  0  0
  2  1  1  0  0  0  0
  3  4  1  0  0  0  0
  4  5  2  0  0  0  0
  5 10  1  0  0  0  0
  6 13  1  0  0  0  0
  6  5  1  0  0  0  0
  7  1  1  0  0  0  0
  8  2  1  0  0  0  0
  9 20  1  0  0  0  0
 12 11  3  0  0  0  0
 13 14  1  0  0  0  0
 14 15  1  0  0  0  0
 14 17  1  0  0  0  0
 16 14  1  0  0  0  0
 18 19  2  0  0  0  0
 19 21  1  0  0  0  0
 19 20  1  0  0  0  0
 21 22  1  0  0  0  0
 23 21  1  0  0  0  0
 24 21  1  0  0  0  0
M  RAD  2   3   2   4   2
M  END
