Coordinates from ORCA-job p-CH3O-Ph-N2-OOCCF3-B3LYPG-aug-cc-pVDZ-scan-d09-49-n400
 OpenBabel11081710393D

 24 22  0  0  0  0  0  0  0  0999 V2000
   11.8787    8.2955   -1.3194 C   0  0  0  0  0  0  0  0  0  0  0  0
   10.6556    7.7413   -1.7367 C   0  0  0  0  0  0  0  0  0  0  0  0
   10.6460    6.4236   -1.3392 C   0  0  0  0  0  0  0  0  0  0  0  0
   11.4391    5.6667   -0.7279 C   0  0  0  0  0  0  0  0  0  0  0  0
   12.6757    6.1753   -0.2902 C   0  0  0  0  0  0  0  0  0  0  0  0
   12.8615    7.5416   -0.6181 C   0  0  0  0  0  0  0  0  0  0  0  0
   12.0967    9.3416   -1.5341 H   0  0  0  0  0  0  0  0  0  0  0  0
    9.8910    8.2962   -2.2727 H   0  0  0  0  0  0  0  0  0  0  0  0
   10.7315    3.7565   -0.4840 H   0  0  0  0  0  0  0  0  0  0  0  0
   13.4206    5.5933    0.2446 H   0  0  0  0  0  0  0  0  0  0  0  0
    6.3904    6.1174   -3.2855 N   0  0  0  0  0  0  0  0  0  0  0  0
    5.5256    5.4657   -3.5012 N   0  0  0  0  0  0  0  0  0  0  0  0
   13.9838    8.2484   -0.2956 O   0  0  0  0  0  0  0  0  0  0  0  0
   15.0257    7.5769    0.4089 C   0  0  0  0  0  0  0  0  0  0  0  0
   15.8108    8.3239    0.5574 H   0  0  0  0  0  0  0  0  0  0  0  0
   15.4241    6.7359   -0.1789 H   0  0  0  0  0  0  0  0  0  0  0  0
   14.6736    7.2135    1.3863 H   0  0  0  0  0  0  0  0  0  0  0  0
    8.5810    3.0774   -1.3080 O   0  0  0  0  0  0  0  0  0  0  0  0
    9.3934    2.4152   -0.7162 C   0  0  0  0  0  0  0  0  0  0  0  0
   10.5830    2.8039   -0.2644 O   0  0  0  0  0  0  0  0  0  0  0  0
    9.1627    0.9199   -0.3703 C   0  0  0  0  0  0  0  0  0  0  0  0
    9.2047    0.7270    0.9673 F   0  0  0  0  0  0  0  0  0  0  0  0
    7.9703    0.5061   -0.8167 F   0  0  0  0  0  0  0  0  0  0  0  0
   10.1178    0.1462   -0.9336 F   0  0  0  0  0  0  0  0  0  0  0  0
  1  6  2  0  0  0  0
  2  3  2  0  0  0  0
  2  1  1  0  0  0  0
  3  4  1  0  0  0  0
  4  5  2  0  0  0  0
  5 10  1  0  0  0  0
  6 13  1  0  0  0  0
  6  5  1  0  0  0  0
  7  1  1  0  0  0  0
  8  2  1  0  0  0  0
  9 20  1  0  0  0  0
 12 11  3  0  0  0  0
 13 14  1  0  0  0  0
 14 15  1  0  0  0  0
 14 17  1  0  0  0  0
 16 14  1  0  0  0  0
 18 19  2  0  0  0  0
 19 21  1  0  0  0  0
 19 20  1  0  0  0  0
 21 22  1  0  0  0  0
 23 21  1  0  0  0  0
 24 21  1  0  0  0  0
M  RAD  2   3   2   4   2
M  END
