Coordinates from ORCA-job p-CH3O-Ph-N2-OOCCF3-B3LYPG-aug-cc-pVDZ-scan-d09-49-n400
 OpenBabel11081710393D

 24 22  0  0  0  0  0  0  0  0999 V2000
   11.8823    8.2853   -1.3147 C   0  0  0  0  0  0  0  0  0  0  0  0
   10.6617    7.7228   -1.7285 C   0  0  0  0  0  0  0  0  0  0  0  0
   10.6603    6.4060   -1.3274 C   0  0  0  0  0  0  0  0  0  0  0  0
   11.4595    5.6563   -0.7152 C   0  0  0  0  0  0  0  0  0  0  0  0
   12.6937    6.1728   -0.2809 C   0  0  0  0  0  0  0  0  0  0  0  0
   12.8708    7.5392   -0.6130 C   0  0  0  0  0  0  0  0  0  0  0  0
   12.0939    9.3320   -1.5327 H   0  0  0  0  0  0  0  0  0  0  0  0
    9.8929    8.2716   -2.2647 H   0  0  0  0  0  0  0  0  0  0  0  0
   10.7473    3.7434   -0.4726 H   0  0  0  0  0  0  0  0  0  0  0  0
   13.4429    5.5966    0.2543 H   0  0  0  0  0  0  0  0  0  0  0  0
    6.2820    6.1669   -3.3522 N   0  0  0  0  0  0  0  0  0  0  0  0
    5.4239    5.5040   -3.5610 N   0  0  0  0  0  0  0  0  0  0  0  0
   13.9894    8.2537   -0.2944 O   0  0  0  0  0  0  0  0  0  0  0  0
   15.0364    7.5905    0.4101 C   0  0  0  0  0  0  0  0  0  0  0  0
   15.8174    8.3426    0.5552 H   0  0  0  0  0  0  0  0  0  0  0  0
   15.4389    6.7502   -0.1759 H   0  0  0  0  0  0  0  0  0  0  0  0
   14.6881    7.2278    1.3892 H   0  0  0  0  0  0  0  0  0  0  0  0
    8.5954    3.0751   -1.3003 O   0  0  0  0  0  0  0  0  0  0  0  0
    9.4043    2.4082   -0.7089 C   0  0  0  0  0  0  0  0  0  0  0  0
   10.5950    2.7912   -0.2549 O   0  0  0  0  0  0  0  0  0  0  0  0
    9.1671    0.9132   -0.3662 C   0  0  0  0  0  0  0  0  0  0  0  0
    9.2069    0.7175    0.9711 F   0  0  0  0  0  0  0  0  0  0  0  0
    7.9735    0.5052   -0.8146 F   0  0  0  0  0  0  0  0  0  0  0  0
   10.1196    0.1367   -0.9300 F   0  0  0  0  0  0  0  0  0  0  0  0
  1  6  2  0  0  0  0
  2  3  2  0  0  0  0
  2  1  1  0  0  0  0
  3  4  1  0  0  0  0
  4  5  2  0  0  0  0
  5 10  1  0  0  0  0
  6 13  1  0  0  0  0
  6  5  1  0  0  0  0
  7  1  1  0  0  0  0
  8  2  1  0  0  0  0
  9 20  1  0  0  0  0
 12 11  3  0  0  0  0
 13 14  1  0  0  0  0
 14 15  1  0  0  0  0
 14 17  1  0  0  0  0
 16 14  1  0  0  0  0
 18 19  2  0  0  0  0
 19 21  1  0  0  0  0
 19 20  1  0  0  0  0
 21 22  1  0  0  0  0
 23 21  1  0  0  0  0
 24 21  1  0  0  0  0
M  RAD  2   3   2   4   2
M  END
