Coordinates from ORCA-job p-CH3O-Ph-N2-OOCCF3-B3LYPG-aug-cc-pVDZ-scan-d09-49-n400
 OpenBabel11081710393D

 24 22  0  0  0  0  0  0  0  0999 V2000
   11.8039    8.3633   -1.3756 C   0  0  0  0  0  0  0  0  0  0  0  0
   10.5587    7.8915   -1.8285 C   0  0  0  0  0  0  0  0  0  0  0  0
   10.4707    6.5687   -1.4670 C   0  0  0  0  0  0  0  0  0  0  0  0
   11.1968    5.7369   -0.8651 C   0  0  0  0  0  0  0  0  0  0  0  0
   12.4533    6.1727   -0.3957 C   0  0  0  0  0  0  0  0  0  0  0  0
   12.7268    7.5333   -0.6799 C   0  0  0  0  0  0  0  0  0  0  0  0
   12.0854    9.4005   -1.5572 H   0  0  0  0  0  0  0  0  0  0  0  0
    9.8349    8.5008   -2.3614 H   0  0  0  0  0  0  0  0  0  0  0  0
   10.6080    3.8550   -0.5732 H   0  0  0  0  0  0  0  0  0  0  0  0
   13.1540    5.5343    0.1350 H   0  0  0  0  0  0  0  0  0  0  0  0
    7.3851    6.0574   -2.7908 N   0  0  0  0  0  0  0  0  0  0  0  0
    6.4254    5.6211   -3.1179 N   0  0  0  0  0  0  0  0  0  0  0  0
   13.8826    8.1627   -0.3180 O   0  0  0  0  0  0  0  0  0  0  0  0
   14.8697    7.4110    0.3843 C   0  0  0  0  0  0  0  0  0  0  0  0
   15.6948    8.1054    0.5677 H   0  0  0  0  0  0  0  0  0  0  0  0
   15.2286    6.5645   -0.2206 H   0  0  0  0  0  0  0  0  0  0  0  0
   14.4787    7.0421    1.3447 H   0  0  0  0  0  0  0  0  0  0  0  0
    8.4916    2.9910   -1.3252 O   0  0  0  0  0  0  0  0  0  0  0  0
    9.3630    2.4114   -0.7299 C   0  0  0  0  0  0  0  0  0  0  0  0
   10.5292    2.8994   -0.3192 O   0  0  0  0  0  0  0  0  0  0  0  0
    9.2476    0.9163   -0.3285 C   0  0  0  0  0  0  0  0  0  0  0  0
    9.3311    0.7739    1.0136 F   0  0  0  0  0  0  0  0  0  0  0  0
    8.0792    0.4026   -0.7327 F   0  0  0  0  0  0  0  0  0  0  0  0
   10.2441    0.1930   -0.8873 F   0  0  0  0  0  0  0  0  0  0  0  0
  1  6  2  0  0  0  0
  2  3  2  0  0  0  0
  2  1  1  0  0  0  0
  3  4  1  0  0  0  0
  4  5  2  0  0  0  0
  5 10  1  0  0  0  0
  6  5  1  0  0  0  0
  6 13  1  0  0  0  0
  7  1  1  0  0  0  0
  8  2  1  0  0  0  0
  9 20  1  0  0  0  0
 12 11  3  0  0  0  0
 13 14  1  0  0  0  0
 14 15  1  0  0  0  0
 14 17  1  0  0  0  0
 16 14  1  0  0  0  0
 18 19  2  0  0  0  0
 19 21  1  0  0  0  0
 19 20  1  0  0  0  0
 21 22  1  0  0  0  0
 23 21  1  0  0  0  0
 24 21  1  0  0  0  0
M  RAD  2   3   2   4   2
M  END
