Coordinates from ORCA-job p-CH3O-Ph-N2-OOCCF3-B3LYPG-aug-cc-pVDZ-scan-d09-49-n400
 OpenBabel11081710393D

 24 23  0  0  0  0  0  0  0  0999 V2000
   11.6941    8.2608   -1.5508 C   0  0  0  0  0  0  0  0  0  0  0  0
   10.4891    7.6813   -1.9117 C   0  0  0  0  0  0  0  0  0  0  0  0
   10.2558    6.3492   -1.5514 C   0  0  0  0  0  0  0  0  0  0  0  0
   11.1810    5.5757   -0.8462 C   0  0  0  0  0  0  0  0  0  0  0  0
   12.3899    6.1705   -0.4894 C   0  0  0  0  0  0  0  0  0  0  0  0
   12.6523    7.5097   -0.8376 C   0  0  0  0  0  0  0  0  0  0  0  0
   11.9215    9.2936   -1.8078 H   0  0  0  0  0  0  0  0  0  0  0  0
    9.7356    8.2411   -2.4622 H   0  0  0  0  0  0  0  0  0  0  0  0
   10.9483    4.5456   -0.5925 H   0  0  0  0  0  0  0  0  0  0  0  0
   13.1179    5.5792    0.0593 H   0  0  0  0  0  0  0  0  0  0  0  0
    8.9332    5.7754   -1.9709 N   0  0  0  0  0  0  0  0  0  0  0  0
    8.2694    4.8370   -1.9441 N   0  0  0  0  0  0  0  0  0  0  0  0
   13.7932    8.1652   -0.5339 O   0  0  0  0  0  0  0  0  0  0  0  0
   14.8183    7.4747    0.1894 C   0  0  0  0  0  0  0  0  0  0  0  0
   15.6263    8.2006    0.3128 H   0  0  0  0  0  0  0  0  0  0  0  0
   15.1830    6.6074   -0.3790 H   0  0  0  0  0  0  0  0  0  0  0  0
   14.4542    7.1544    1.1760 H   0  0  0  0  0  0  0  0  0  0  0  0
    7.2800    2.1890   -1.1990 O   0  0  0  0  0  0  0  0  0  0  0  0
    8.4396    2.3652   -0.8837 C   0  0  0  0  0  0  0  0  0  0  0  0
    9.1955    3.4115   -1.0112 O   0  0  0  0  0  0  0  0  0  0  0  0
    9.2420    1.2003   -0.2085 C   0  0  0  0  0  0  0  0  0  0  0  0
    9.7341    1.5793    1.0016 F   0  0  0  0  0  0  0  0  0  0  0  0
    8.4856    0.1096   -0.0133 F   0  0  0  0  0  0  0  0  0  0  0  0
   10.3035    0.8326   -0.9740 F   0  0  0  0  0  0  0  0  0  0  0  0
  1  6  2  0  0  0  0
  2  3  2  0  0  0  0
  2  1  1  0  0  0  0
  3  4  1  0  0  0  0
  4  9  1  0  0  0  0
  4  5  2  0  0  0  0
  5 10  1  0  0  0  0
  6 13  1  0  0  0  0
  6  5  1  0  0  0  0
  7  1  1  0  0  0  0
  8  2  1  0  0  0  0
 11 12  2  0  0  0  0
 11  3  1  0  0  0  0
 13 14  1  0  0  0  0
 14 15  1  0  0  0  0
 14 17  1  0  0  0  0
 16 14  1  0  0  0  0
 18 19  2  0  0  0  0
 19 21  1  0  0  0  0
 20 19  1  0  0  0  0
 21 23  1  0  0  0  0
 21 22  1  0  0  0  0
 24 21  1  0  0  0  0
M  RAD  2  12   2  20   2
M  END
