Coordinates from ORCA-job p-CH3O-Ph-N2-OOCCF3-B3LYPG-aug-cc-pVDZ-scan-d09-49-n400
 OpenBabel11081710393D

 24 23  0  0  0  0  0  0  0  0999 V2000
   11.7031    8.1298   -1.5230 C   0  0  0  0  0  0  0  0  0  0  0  0
   10.4527    7.9448   -2.0307 C   0  0  0  0  0  0  0  0  0  0  0  0
    9.7685    6.6633   -1.8775 C   0  0  0  0  0  0  0  0  0  0  0  0
   10.4737    5.6021   -1.1665 C   0  0  0  0  0  0  0  0  0  0  0  0
   11.7352    5.8200   -0.6659 C   0  0  0  0  0  0  0  0  0  0  0  0
   12.3667    7.0705   -0.8315 C   0  0  0  0  0  0  0  0  0  0  0  0
   12.2188    9.0822   -1.6334 H   0  0  0  0  0  0  0  0  0  0  0  0
    9.9302    8.7408   -2.5617 H   0  0  0  0  0  0  0  0  0  0  0  0
    9.9194    4.6296   -1.0678 H   0  0  0  0  0  0  0  0  0  0  0  0
   12.2190    4.9981   -0.1439 H   0  0  0  0  0  0  0  0  0  0  0  0
    8.7956    6.5014   -2.2671 N   0  0  0  0  0  0  0  0  0  0  0  0
    7.7484    6.3282   -2.6866 N   0  0  0  0  0  0  0  0  0  0  0  0
   13.5790    7.3674   -0.3825 O   0  0  0  0  0  0  0  0  0  0  0  0
   14.3416    6.3678    0.3323 C   0  0  0  0  0  0  0  0  0  0  0  0
   15.2830    6.8597    0.5855 H   0  0  0  0  0  0  0  0  0  0  0  0
   14.5265    5.4996   -0.3121 H   0  0  0  0  0  0  0  0  0  0  0  0
   13.8115    6.0669    1.2442 H   0  0  0  0  0  0  0  0  0  0  0  0
    8.3081    1.2396   -0.5887 O   0  0  0  0  0  0  0  0  0  0  0  0
    9.0107    2.2447   -0.6284 C   0  0  0  0  0  0  0  0  0  0  0  0
    8.8085    3.3908   -1.1347 O   0  0  0  0  0  0  0  0  0  0  0  0
   10.4253    2.1376    0.0628 C   0  0  0  0  0  0  0  0  0  0  0  0
   10.5775    3.0810    1.0560 F   0  0  0  0  0  0  0  0  0  0  0  0
   10.6948    0.9482    0.6204 F   0  0  0  0  0  0  0  0  0  0  0  0
   11.4454    2.3947   -0.8274 F   0  0  0  0  0  0  0  0  0  0  0  0
  1  6  2  0  0  0  0
  2  3  2  0  0  0  0
  2  1  1  0  0  0  0
  3  4  1  0  0  0  0
  4  9  1  0  0  0  0
  4  5  2  0  0  0  0
  5 10  1  0  0  0  0
  6  5  1  0  0  0  0
  6 13  1  0  0  0  0
  7  1  1  0  0  0  0
  8  2  1  0  0  0  0
 11  3  1  0  0  0  0
 12 11  1  0  0  0  0
 13 14  1  0  0  0  0
 14 15  1  0  0  0  0
 14 17  1  0  0  0  0
 16 14  1  0  0  0  0
 19 18  1  0  0  0  0
 19 21  1  0  0  0  0
 20 19  2  0  0  0  0
 21 23  1  0  0  0  0
 21 22  1  0  0  0  0
 24 21  1  0  0  0  0
M  RAD  3  11   2  12   3  18   2
M  END
