Coordinates from ORCA-job p-CH3O-Ph-N2-OOCCF3-B3LYPG-aug-cc-pVDZ-scan-d09-49-n400
 OpenBabel11081710393D

 24 22  0  0  0  0  0  0  0  0999 V2000
   11.8778    8.2985   -1.3207 C   0  0  0  0  0  0  0  0  0  0  0  0
   10.6539    7.7468   -1.7391 C   0  0  0  0  0  0  0  0  0  0  0  0
   10.6418    6.4288   -1.3427 C   0  0  0  0  0  0  0  0  0  0  0  0
   11.4332    5.6698   -0.7316 C   0  0  0  0  0  0  0  0  0  0  0  0
   12.6704    6.1761   -0.2930 C   0  0  0  0  0  0  0  0  0  0  0  0
   12.8589    7.5423   -0.6195 C   0  0  0  0  0  0  0  0  0  0  0  0
   12.0977    9.3444   -1.5344 H   0  0  0  0  0  0  0  0  0  0  0  0
    9.8905    8.3034   -2.2750 H   0  0  0  0  0  0  0  0  0  0  0  0
   10.7269    3.7604   -0.4873 H   0  0  0  0  0  0  0  0  0  0  0  0
   13.4140    5.5922    0.2418 H   0  0  0  0  0  0  0  0  0  0  0  0
    6.4215    6.1025   -3.2661 N   0  0  0  0  0  0  0  0  0  0  0  0
    5.5548    5.4541   -3.4838 N   0  0  0  0  0  0  0  0  0  0  0  0
   13.9822    8.2467   -0.2959 O   0  0  0  0  0  0  0  0  0  0  0  0
   15.0226    7.5728    0.4085 C   0  0  0  0  0  0  0  0  0  0  0  0
   15.8090    8.3183    0.5581 H   0  0  0  0  0  0  0  0  0  0  0  0
   15.4197    6.7317   -0.1797 H   0  0  0  0  0  0  0  0  0  0  0  0
   14.6693    7.2092    1.3855 H   0  0  0  0  0  0  0  0  0  0  0  0
    8.5768    3.0783   -1.3103 O   0  0  0  0  0  0  0  0  0  0  0  0
    9.3903    2.4173   -0.7184 C   0  0  0  0  0  0  0  0  0  0  0  0
   10.5795    2.8077   -0.2672 O   0  0  0  0  0  0  0  0  0  0  0  0
    9.1615    0.9220   -0.3716 C   0  0  0  0  0  0  0  0  0  0  0  0
    9.2041    0.7299    0.9662 F   0  0  0  0  0  0  0  0  0  0  0  0
    7.9694    0.5065   -0.8173 F   0  0  0  0  0  0  0  0  0  0  0  0
   10.1174    0.1491   -0.9347 F   0  0  0  0  0  0  0  0  0  0  0  0
  1  6  2  0  0  0  0
  2  3  2  0  0  0  0
  2  1  1  0  0  0  0
  3  4  1  0  0  0  0
  4  5  2  0  0  0  0
  5 10  1  0  0  0  0
  6 13  1  0  0  0  0
  6  5  1  0  0  0  0
  7  1  1  0  0  0  0
  8  2  1  0  0  0  0
  9 20  1  0  0  0  0
 12 11  3  0  0  0  0
 13 14  1  0  0  0  0
 14 15  1  0  0  0  0
 14 17  1  0  0  0  0
 16 14  1  0  0  0  0
 18 19  2  0  0  0  0
 19 21  1  0  0  0  0
 19 20  1  0  0  0  0
 21 22  1  0  0  0  0
 23 21  1  0  0  0  0
 24 21  1  0  0  0  0
M  RAD  2   3   2   4   2
M  END
