Coordinates from ORCA-job p-CH3O-Ph-N2-OOCCF3-B3LYPG-aug-cc-pVDZ-scan-d09-49-n400
 OpenBabel11081710393D

 24 23  0  0  0  0  0  0  0  0999 V2000
   11.6675    8.2483   -1.5571 C   0  0  0  0  0  0  0  0  0  0  0  0
   10.4712    7.6823   -1.9194 C   0  0  0  0  0  0  0  0  0  0  0  0
   10.1572    6.3144   -1.5865 C   0  0  0  0  0  0  0  0  0  0  0  0
   11.1563    5.5651   -0.8558 C   0  0  0  0  0  0  0  0  0  0  0  0
   12.3558    6.1442   -0.4971 C   0  0  0  0  0  0  0  0  0  0  0  0
   12.6256    7.4874   -0.8416 C   0  0  0  0  0  0  0  0  0  0  0  0
   11.9038    9.2808   -1.8082 H   0  0  0  0  0  0  0  0  0  0  0  0
    9.7278    8.2594   -2.4697 H   0  0  0  0  0  0  0  0  0  0  0  0
   10.9058    4.5313   -0.6099 H   0  0  0  0  0  0  0  0  0  0  0  0
   13.0817    5.5494    0.0511 H   0  0  0  0  0  0  0  0  0  0  0  0
    9.1821    5.8454   -1.8777 N   0  0  0  0  0  0  0  0  0  0  0  0
    8.3206    5.0950   -2.0125 N   0  0  0  0  0  0  0  0  0  0  0  0
   13.7571    8.1318   -0.5377 O   0  0  0  0  0  0  0  0  0  0  0  0
   14.7923    7.4457    0.1883 C   0  0  0  0  0  0  0  0  0  0  0  0
   15.5933    8.1793    0.3066 H   0  0  0  0  0  0  0  0  0  0  0  0
   15.1569    6.5819   -0.3832 H   0  0  0  0  0  0  0  0  0  0  0  0
   14.4269    7.1280    1.1738 H   0  0  0  0  0  0  0  0  0  0  0  0
    7.3012    2.1627   -1.1835 O   0  0  0  0  0  0  0  0  0  0  0  0
    8.4664    2.3632   -0.8757 C   0  0  0  0  0  0  0  0  0  0  0  0
    9.1975    3.4071   -1.0169 O   0  0  0  0  0  0  0  0  0  0  0  0
    9.2683    1.1996   -0.1939 C   0  0  0  0  0  0  0  0  0  0  0  0
    9.7728    1.5852    1.0141 F   0  0  0  0  0  0  0  0  0  0  0  0
    8.5232    0.1012    0.0221 F   0  0  0  0  0  0  0  0  0  0  0  0
   10.3319    0.8203   -0.9575 F   0  0  0  0  0  0  0  0  0  0  0  0
  1  6  2  0  0  0  0
  2  3  2  0  0  0  0
  2  1  1  0  0  0  0
  3  4  1  0  0  0  0
  4  9  1  0  0  0  0
  4  5  2  0  0  0  0
  5 10  1  0  0  0  0
  6 13  1  0  0  0  0
  6  5  1  0  0  0  0
  7  1  1  0  0  0  0
  8  2  1  0  0  0  0
 11  3  1  0  0  0  0
 12 11  1  0  0  0  0
 13 14  1  0  0  0  0
 14 15  1  0  0  0  0
 14 17  1  0  0  0  0
 16 14  1  0  0  0  0
 18 19  2  0  0  0  0
 19 21  1  0  0  0  0
 20 19  1  0  0  0  0
 21 23  1  0  0  0  0
 21 22  1  0  0  0  0
 24 21  1  0  0  0  0
M  RAD  3  11   2  12   3  20   2
M  END
