Coordinates from ORCA-job p-CH3O-Ph-N2-OOCCF3-B3LYPG-aug-cc-pVDZ-scan-d09-49-n400
 OpenBabel11081710393D

 24 22  0  0  0  0  0  0  0  0999 V2000
   11.8542    8.3629   -1.3515 C   0  0  0  0  0  0  0  0  0  0  0  0
   10.6110    7.8825   -1.8007 C   0  0  0  0  0  0  0  0  0  0  0  0
   10.5298    6.5591   -1.4354 C   0  0  0  0  0  0  0  0  0  0  0  0
   11.2668    5.7394   -0.8318 C   0  0  0  0  0  0  0  0  0  0  0  0
   12.5213    6.1797   -0.3650 C   0  0  0  0  0  0  0  0  0  0  0  0
   12.7843    7.5415   -0.6549 C   0  0  0  0  0  0  0  0  0  0  0  0
   12.1290    9.4011   -1.5369 H   0  0  0  0  0  0  0  0  0  0  0  0
    9.8832    8.4869   -2.3341 H   0  0  0  0  0  0  0  0  0  0  0  0
   10.6378    3.8459   -0.5558 H   0  0  0  0  0  0  0  0  0  0  0  0
   13.2268    5.5473    0.1663 H   0  0  0  0  0  0  0  0  0  0  0  0
    6.9420    6.0268   -2.9937 N   0  0  0  0  0  0  0  0  0  0  0  0
    6.0309    5.4624   -3.2584 N   0  0  0  0  0  0  0  0  0  0  0  0
   13.9365    8.1800   -0.2976 O   0  0  0  0  0  0  0  0  0  0  0  0
   14.9303    7.4375    0.4051 C   0  0  0  0  0  0  0  0  0  0  0  0
   15.7509    8.1382    0.5842 H   0  0  0  0  0  0  0  0  0  0  0  0
   15.2936    6.5914   -0.1977 H   0  0  0  0  0  0  0  0  0  0  0  0
   14.5438    7.0693    1.3676 H   0  0  0  0  0  0  0  0  0  0  0  0
    8.5143    3.0188   -1.3225 O   0  0  0  0  0  0  0  0  0  0  0  0
    9.3742    2.4222   -0.7278 C   0  0  0  0  0  0  0  0  0  0  0  0
   10.5459    2.8911   -0.3084 O   0  0  0  0  0  0  0  0  0  0  0  0
    9.2364    0.9263   -0.3371 C   0  0  0  0  0  0  0  0  0  0  0  0
    9.3114    0.7738    1.0044 F   0  0  0  0  0  0  0  0  0  0  0  0
    8.0630    0.4316   -0.7505 F   0  0  0  0  0  0  0  0  0  0  0  0
   10.2257    0.1932   -0.8960 F   0  0  0  0  0  0  0  0  0  0  0  0
  1  6  2  0  0  0  0
  2  3  2  0  0  0  0
  2  1  1  0  0  0  0
  3  4  1  0  0  0  0
  4  5  2  0  0  0  0
  5 10  1  0  0  0  0
  6  5  1  0  0  0  0
  6 13  1  0  0  0  0
  7  1  1  0  0  0  0
  8  2  1  0  0  0  0
  9 20  1  0  0  0  0
 12 11  3  0  0  0  0
 13 14  1  0  0  0  0
 14 15  1  0  0  0  0
 14 17  1  0  0  0  0
 16 14  1  0  0  0  0
 18 19  2  0  0  0  0
 19 21  1  0  0  0  0
 19 20  1  0  0  0  0
 21 22  1  0  0  0  0
 23 21  1  0  0  0  0
 24 21  1  0  0  0  0
M  RAD  2   3   2   4   2
M  END
