Coordinates from ORCA-job p-CH3O-Ph-N2-OOCCF3-B3LYPG-aug-cc-pVDZ-scan-d09-49-n400
 OpenBabel11081710393D

 24 23  0  0  0  0  0  0  0  0999 V2000
   11.7301    8.2991   -1.5424 C   0  0  0  0  0  0  0  0  0  0  0  0
   10.5067    7.7579   -1.9329 C   0  0  0  0  0  0  0  0  0  0  0  0
   10.3103    6.4429   -1.5692 C   0  0  0  0  0  0  0  0  0  0  0  0
   11.1477    5.5987   -0.8833 C   0  0  0  0  0  0  0  0  0  0  0  0
   12.3708    6.1765   -0.5060 C   0  0  0  0  0  0  0  0  0  0  0  0
   12.6616    7.5142   -0.8312 C   0  0  0  0  0  0  0  0  0  0  0  0
   11.9809    9.3313   -1.7809 H   0  0  0  0  0  0  0  0  0  0  0  0
    9.7649    8.3313   -2.4820 H   0  0  0  0  0  0  0  0  0  0  0  0
   10.8770    4.5714   -0.6550 H   0  0  0  0  0  0  0  0  0  0  0  0
   13.0782    5.5592    0.0412 H   0  0  0  0  0  0  0  0  0  0  0  0
    8.7081    5.7847   -2.1022 N   0  0  0  0  0  0  0  0  0  0  0  0
    8.1207    4.8155   -2.0291 N   0  0  0  0  0  0  0  0  0  0  0  0
   13.8154    8.1432   -0.5042 O   0  0  0  0  0  0  0  0  0  0  0  0
   14.8141    7.4170    0.2184 C   0  0  0  0  0  0  0  0  0  0  0  0
   15.6382    8.1205    0.3643 H   0  0  0  0  0  0  0  0  0  0  0  0
   15.1660    6.5504   -0.3599 H   0  0  0  0  0  0  0  0  0  0  0  0
   14.4315    7.0882    1.1955 H   0  0  0  0  0  0  0  0  0  0  0  0
    7.2910    2.1145   -1.1208 O   0  0  0  0  0  0  0  0  0  0  0  0
    8.4569    2.3352   -0.8517 C   0  0  0  0  0  0  0  0  0  0  0  0
    9.1775    3.3906   -1.0288 O   0  0  0  0  0  0  0  0  0  0  0  0
    9.3113    1.2036   -0.1765 C   0  0  0  0  0  0  0  0  0  0  0  0
    9.8511    1.6279    0.9987 F   0  0  0  0  0  0  0  0  0  0  0  0
    8.5880    0.1044    0.0874 F   0  0  0  0  0  0  0  0  0  0  0  0
   10.3451    0.8307   -0.9775 F   0  0  0  0  0  0  0  0  0  0  0  0
  1  6  2  0  0  0  0
  2  3  2  0  0  0  0
  2  1  1  0  0  0  0
  3  4  1  0  0  0  0
  4  9  1  0  0  0  0
  4  5  2  0  0  0  0
  5 10  1  0  0  0  0
  6  5  1  0  0  0  0
  6 13  1  0  0  0  0
  7  1  1  0  0  0  0
  8  2  1  0  0  0  0
 11 12  2  0  0  0  0
 11  3  1  0  0  0  0
 13 14  1  0  0  0  0
 14 15  1  0  0  0  0
 14 17  1  0  0  0  0
 16 14  1  0  0  0  0
 18 19  2  0  0  0  0
 19 21  1  0  0  0  0
 20 19  1  0  0  0  0
 21 23  1  0  0  0  0
 21 22  1  0  0  0  0
 24 21  1  0  0  0  0
M  RAD  2  12   2  20   2
M  END
