Coordinates from ORCA-job p-CH3O-Ph-N2-OOCCF3-B3LYPG-aug-cc-pVDZ-scan-d09-49-n400
 OpenBabel11081710393D

 24 22  0  0  0  0  0  0  0  0999 V2000
   11.8179    8.3616   -1.3684 C   0  0  0  0  0  0  0  0  0  0  0  0
   10.5737    7.8852   -1.8193 C   0  0  0  0  0  0  0  0  0  0  0  0
   10.4897    6.5623   -1.4557 C   0  0  0  0  0  0  0  0  0  0  0  0
   11.2210    5.7361   -0.8530 C   0  0  0  0  0  0  0  0  0  0  0  0
   12.4765    6.1750   -0.3851 C   0  0  0  0  0  0  0  0  0  0  0  0
   12.7445    7.5362   -0.6723 C   0  0  0  0  0  0  0  0  0  0  0  0
   12.0957    9.3994   -1.5521 H   0  0  0  0  0  0  0  0  0  0  0  0
    9.8476    8.4916   -2.3525 H   0  0  0  0  0  0  0  0  0  0  0  0
   10.6177    3.8493   -0.5666 H   0  0  0  0  0  0  0  0  0  0  0  0
   13.1798    5.5398    0.1459 H   0  0  0  0  0  0  0  0  0  0  0  0
    7.2579    6.0496   -2.8493 N   0  0  0  0  0  0  0  0  0  0  0  0
    6.3110    5.5737   -3.1582 N   0  0  0  0  0  0  0  0  0  0  0  0
   13.8985    8.1704   -0.3128 O   0  0  0  0  0  0  0  0  0  0  0  0
   14.8891    7.4235    0.3897 C   0  0  0  0  0  0  0  0  0  0  0  0
   15.7119    8.1212    0.5708 H   0  0  0  0  0  0  0  0  0  0  0  0
   15.2503    6.5772   -0.2142 H   0  0  0  0  0  0  0  0  0  0  0  0
   14.5005    7.0550    1.3512 H   0  0  0  0  0  0  0  0  0  0  0  0
    8.4984    3.0006   -1.3248 O   0  0  0  0  0  0  0  0  0  0  0  0
    9.3649    2.4139   -0.7297 C   0  0  0  0  0  0  0  0  0  0  0  0
   10.5335    2.8939   -0.3153 O   0  0  0  0  0  0  0  0  0  0  0  0
    9.2400    0.9183   -0.3329 C   0  0  0  0  0  0  0  0  0  0  0  0
    9.3198    0.7717    1.0090 F   0  0  0  0  0  0  0  0  0  0  0  0
    8.0696    0.4126   -0.7411 F   0  0  0  0  0  0  0  0  0  0  0  0
   10.2336    0.1909   -0.8916 F   0  0  0  0  0  0  0  0  0  0  0  0
  1  6  2  0  0  0  0
  2  3  2  0  0  0  0
  2  1  1  0  0  0  0
  3  4  1  0  0  0  0
  4  5  2  0  0  0  0
  5 10  1  0  0  0  0
  6  5  1  0  0  0  0
  6 13  1  0  0  0  0
  7  1  1  0  0  0  0
  8  2  1  0  0  0  0
  9 20  1  0  0  0  0
 12 11  3  0  0  0  0
 13 14  1  0  0  0  0
 14 15  1  0  0  0  0
 14 17  1  0  0  0  0
 16 14  1  0  0  0  0
 18 19  2  0  0  0  0
 19 21  1  0  0  0  0
 19 20  1  0  0  0  0
 21 22  1  0  0  0  0
 23 21  1  0  0  0  0
 24 21  1  0  0  0  0
M  RAD  2   3   2   4   2
M  END
