Coordinates from ORCA-job p-CH3O-Ph-N2-OOCCF3-B3LYPG-aug-cc-pVDZ-scan-d09-49-n400
 OpenBabel11081710393D

 24 22  0  0  0  0  0  0  0  0999 V2000
   11.6220    8.2607   -1.4292 C   0  0  0  0  0  0  0  0  0  0  0  0
   10.3984    7.7239   -1.8515 C   0  0  0  0  0  0  0  0  0  0  0  0
   10.3221    6.4092   -1.4886 C   0  0  0  0  0  0  0  0  0  0  0  0
   11.0686    5.5174   -0.8606 C   0  0  0  0  0  0  0  0  0  0  0  0
   12.2944    6.1105   -0.4543 C   0  0  0  0  0  0  0  0  0  0  0  0
   12.5627    7.4624   -0.7367 C   0  0  0  0  0  0  0  0  0  0  0  0
   11.8537    9.3046   -1.6354 H   0  0  0  0  0  0  0  0  0  0  0  0
    9.6454    8.2953   -2.3850 H   0  0  0  0  0  0  0  0  0  0  0  0
   10.8447    4.3883   -0.6253 H   0  0  0  0  0  0  0  0  0  0  0  0
   13.0031    5.4791    0.0765 H   0  0  0  0  0  0  0  0  0  0  0  0
    8.4780    5.6691   -2.1460 N   0  0  0  0  0  0  0  0  0  0  0  0
    7.4864    5.7021   -2.6304 N   0  0  0  0  0  0  0  0  0  0  0  0
   13.7045    8.1030   -0.3851 O   0  0  0  0  0  0  0  0  0  0  0  0
   14.7099    7.3671    0.3190 C   0  0  0  0  0  0  0  0  0  0  0  0
   15.5234    8.0765    0.4924 H   0  0  0  0  0  0  0  0  0  0  0  0
   15.0755    6.5244   -0.2855 H   0  0  0  0  0  0  0  0  0  0  0  0
   14.3262    7.0007    1.2822 H   0  0  0  0  0  0  0  0  0  0  0  0
    8.6784    3.2660   -1.3185 O   0  0  0  0  0  0  0  0  0  0  0  0
    9.5193    2.5882   -0.7122 C   0  0  0  0  0  0  0  0  0  0  0  0
   10.6582    2.9229   -0.2716 O   0  0  0  0  0  0  0  0  0  0  0  0
    9.1673    1.0918   -0.4206 C   0  0  0  0  0  0  0  0  0  0  0  0
    9.1453    0.8532    0.9157 F   0  0  0  0  0  0  0  0  0  0  0  0
    7.9652    0.7323   -0.9112 F   0  0  0  0  0  0  0  0  0  0  0  0
   10.0905    0.2602   -0.9663 F   0  0  0  0  0  0  0  0  0  0  0  0
  1  6  2  0  0  0  0
  2  3  2  0  0  0  0
  2  1  1  0  0  0  0
  3  4  1  0  0  0  0
  4  9  1  0  0  0  0
  4  5  2  0  0  0  0
  5 10  1  0  0  0  0
  6  5  1  0  0  0  0
  6 13  1  0  0  0  0
  7  1  1  0  0  0  0
  8  2  1  0  0  0  0
 12 11  3  0  0  0  0
 13 14  1  0  0  0  0
 14 15  1  0  0  0  0
 14 17  1  0  0  0  0
 16 14  1  0  0  0  0
 18 19  2  0  0  0  0
 19 21  1  0  0  0  0
 19 20  1  0  0  0  0
 21 22  1  0  0  0  0
 23 21  1  0  0  0  0
 24 21  1  0  0  0  0
M  RAD  2   3   2  20   2
M  END
