Coordinates from ORCA-job p-CH3O-Ph-N2-OOCCF3-B3LYPG-aug-cc-pVDZ-scan-d09-49-n400
 OpenBabel11081710393D

 24 22  0  0  0  0  0  0  0  0999 V2000
   11.8829    8.2854   -1.3145 C   0  0  0  0  0  0  0  0  0  0  0  0
   10.6625    7.7231   -1.7282 C   0  0  0  0  0  0  0  0  0  0  0  0
   10.6590    6.4058   -1.3279 C   0  0  0  0  0  0  0  0  0  0  0  0
   11.4589    5.6563   -0.7155 C   0  0  0  0  0  0  0  0  0  0  0  0
   12.6932    6.1729   -0.2812 C   0  0  0  0  0  0  0  0  0  0  0  0
   12.8709    7.5392   -0.6129 C   0  0  0  0  0  0  0  0  0  0  0  0
   12.0947    9.3321   -1.5324 H   0  0  0  0  0  0  0  0  0  0  0  0
    9.8940    8.2724   -2.2644 H   0  0  0  0  0  0  0  0  0  0  0  0
   10.7482    3.7430   -0.4720 H   0  0  0  0  0  0  0  0  0  0  0  0
   13.4422    5.5965    0.2540 H   0  0  0  0  0  0  0  0  0  0  0  0
    6.2720    6.1733   -3.3589 N   0  0  0  0  0  0  0  0  0  0  0  0
    5.4146    5.5094   -3.5671 N   0  0  0  0  0  0  0  0  0  0  0  0
   13.9898    8.2531   -0.2941 O   0  0  0  0  0  0  0  0  0  0  0  0
   15.0365    7.5894    0.4105 C   0  0  0  0  0  0  0  0  0  0  0  0
   15.8177    8.3411    0.5559 H   0  0  0  0  0  0  0  0  0  0  0  0
   15.4386    6.7491   -0.1756 H   0  0  0  0  0  0  0  0  0  0  0  0
   14.6879    7.2266    1.3895 H   0  0  0  0  0  0  0  0  0  0  0  0
    8.5981    3.0741   -1.2987 O   0  0  0  0  0  0  0  0  0  0  0  0
    9.4067    2.4071   -0.7074 C   0  0  0  0  0  0  0  0  0  0  0  0
   10.5971    2.7907   -0.2538 O   0  0  0  0  0  0  0  0  0  0  0  0
    9.1697    0.9122   -0.3646 C   0  0  0  0  0  0  0  0  0  0  0  0
    9.2097    0.7165    0.9727 F   0  0  0  0  0  0  0  0  0  0  0  0
    7.9761    0.5039   -0.8129 F   0  0  0  0  0  0  0  0  0  0  0  0
   10.1224    0.1358   -0.9285 F   0  0  0  0  0  0  0  0  0  0  0  0
  1  6  2  0  0  0  0
  2  3  2  0  0  0  0
  2  1  1  0  0  0  0
  3  4  1  0  0  0  0
  4  5  2  0  0  0  0
  5 10  1  0  0  0  0
  6 13  1  0  0  0  0
  6  5  1  0  0  0  0
  7  1  1  0  0  0  0
  8  2  1  0  0  0  0
  9 20  1  0  0  0  0
 12 11  3  0  0  0  0
 13 14  1  0  0  0  0
 14 15  1  0  0  0  0
 14 17  1  0  0  0  0
 16 14  1  0  0  0  0
 18 19  2  0  0  0  0
 19 21  1  0  0  0  0
 19 20  1  0  0  0  0
 21 22  1  0  0  0  0
 23 21  1  0  0  0  0
 24 21  1  0  0  0  0
M  RAD  2   3   2   4   2
M  END
