Coordinates from ORCA-job p-CH3O-Ph-N2-OOCCF3-B3LYPG-aug-cc-pVDZ-scan-d09-49-n400
 OpenBabel11081710393D

 24 22  0  0  0  0  0  0  0  0999 V2000
   11.7574    8.3441   -1.5399 C   0  0  0  0  0  0  0  0  0  0  0  0
   10.5158    7.8583   -1.9639 C   0  0  0  0  0  0  0  0  0  0  0  0
   10.3209    6.5522   -1.6098 C   0  0  0  0  0  0  0  0  0  0  0  0
   11.0756    5.6402   -0.9429 C   0  0  0  0  0  0  0  0  0  0  0  0
   12.3154    6.1776   -0.5376 C   0  0  0  0  0  0  0  0  0  0  0  0
   12.6517    7.5121   -0.8322 C   0  0  0  0  0  0  0  0  0  0  0  0
   12.0429    9.3729   -1.7543 H   0  0  0  0  0  0  0  0  0  0  0  0
    9.7967    8.4609   -2.5107 H   0  0  0  0  0  0  0  0  0  0  0  0
   10.7493    4.6167   -0.7482 H   0  0  0  0  0  0  0  0  0  0  0  0
   12.9922    5.5236    0.0060 H   0  0  0  0  0  0  0  0  0  0  0  0
    8.5706    5.8313   -2.1997 N   0  0  0  0  0  0  0  0  0  0  0  0
    8.0152    4.8589   -2.1144 N   0  0  0  0  0  0  0  0  0  0  0  0
   13.8198    8.0973   -0.4772 O   0  0  0  0  0  0  0  0  0  0  0  0
   14.7843    7.3240    0.2445 C   0  0  0  0  0  0  0  0  0  0  0  0
   15.6283    7.9972    0.4162 H   0  0  0  0  0  0  0  0  0  0  0  0
   15.1160    6.4586   -0.3473 H   0  0  0  0  0  0  0  0  0  0  0  0
   14.3764    6.9886    1.2090 H   0  0  0  0  0  0  0  0  0  0  0  0
    7.3604    2.0820   -1.0379 O   0  0  0  0  0  0  0  0  0  0  0  0
    8.5348    2.3202   -0.8038 C   0  0  0  0  0  0  0  0  0  0  0  0
    9.2424    3.3653   -1.0148 O   0  0  0  0  0  0  0  0  0  0  0  0
    9.4014    1.1931   -0.1279 C   0  0  0  0  0  0  0  0  0  0  0  0
    9.9663    1.6331    1.0314 F   0  0  0  0  0  0  0  0  0  0  0  0
    8.6884    0.0940    0.1697 F   0  0  0  0  0  0  0  0  0  0  0  0
   10.4210    0.8067   -0.9424 F   0  0  0  0  0  0  0  0  0  0  0  0
  1  6  2  0  0  0  0
  2  3  2  0  0  0  0
  2  1  1  0  0  0  0
  3  4  1  0  0  0  0
  4  9  1  0  0  0  0
  4  5  2  0  0  0  0
  5 10  1  0  0  0  0
  6  5  1  0  0  0  0
  6 13  1  0  0  0  0
  7  1  1  0  0  0  0
  8  2  1  0  0  0  0
 11 12  3  0  0  0  0
 13 14  1  0  0  0  0
 14 15  1  0  0  0  0
 14 17  1  0  0  0  0
 16 14  1  0  0  0  0
 18 19  2  0  0  0  0
 19 21  1  0  0  0  0
 20 19  1  0  0  0  0
 21 23  1  0  0  0  0
 21 22  1  0  0  0  0
 24 21  1  0  0  0  0
M  RAD  2   3   2  20   2
M  END
