Coordinates from ORCA-job p-CH3O-Ph-N2-OOCCF3-B3LYPG-aug-cc-pVDZ-scan-d09-49-n400
 OpenBabel11081710393D

 24 22  0  0  0  0  0  0  0  0999 V2000
   11.6813    8.3462   -1.4279 C   0  0  0  0  0  0  0  0  0  0  0  0
   10.4395    7.8768   -1.8797 C   0  0  0  0  0  0  0  0  0  0  0  0
   10.3283    6.5556   -1.5312 C   0  0  0  0  0  0  0  0  0  0  0  0
   11.0145    5.6591   -0.9300 C   0  0  0  0  0  0  0  0  0  0  0  0
   12.2707    6.1438   -0.4760 C   0  0  0  0  0  0  0  0  0  0  0  0
   12.5834    7.4954   -0.7373 C   0  0  0  0  0  0  0  0  0  0  0  0
   11.9690    9.3818   -1.6051 H   0  0  0  0  0  0  0  0  0  0  0  0
    9.7194    8.4923   -2.4116 H   0  0  0  0  0  0  0  0  0  0  0  0
   10.6387    3.9582   -0.5913 H   0  0  0  0  0  0  0  0  0  0  0  0
   12.9644    5.4944    0.0536 H   0  0  0  0  0  0  0  0  0  0  0  0
    8.3461    5.9872   -2.3071 N   0  0  0  0  0  0  0  0  0  0  0  0
    7.3437    5.7981   -2.7274 N   0  0  0  0  0  0  0  0  0  0  0  0
   13.7485    8.0969   -0.3625 O   0  0  0  0  0  0  0  0  0  0  0  0
   14.7167    7.3178    0.3380 C   0  0  0  0  0  0  0  0  0  0  0  0
   15.5541    7.9940    0.5332 H   0  0  0  0  0  0  0  0  0  0  0  0
   15.0618    6.4707   -0.2736 H   0  0  0  0  0  0  0  0  0  0  0  0
   14.3123    6.9468    1.2918 H   0  0  0  0  0  0  0  0  0  0  0  0
    8.5147    3.0591   -1.3374 O   0  0  0  0  0  0  0  0  0  0  0  0
    9.3950    2.4866   -0.7385 C   0  0  0  0  0  0  0  0  0  0  0  0
   10.5506    2.9743   -0.3332 O   0  0  0  0  0  0  0  0  0  0  0  0
    9.2718    0.9905   -0.3391 C   0  0  0  0  0  0  0  0  0  0  0  0
    9.3385    0.8467    1.0047 F   0  0  0  0  0  0  0  0  0  0  0  0
    8.1072    0.4738   -0.7555 F   0  0  0  0  0  0  0  0  0  0  0  0
   10.2732    0.2627   -0.8848 F   0  0  0  0  0  0  0  0  0  0  0  0
  1  6  2  0  0  0  0
  2  3  2  0  0  0  0
  2  1  1  0  0  0  0
  3  4  1  0  0  0  0
  4  5  2  0  0  0  0
  5 10  1  0  0  0  0
  6  5  1  0  0  0  0
  6 13  1  0  0  0  0
  7  1  1  0  0  0  0
  8  2  1  0  0  0  0
  9 20  1  0  0  0  0
 12 11  3  0  0  0  0
 13 14  1  0  0  0  0
 14 15  1  0  0  0  0
 14 17  1  0  0  0  0
 16 14  1  0  0  0  0
 18 19  2  0  0  0  0
 19 21  1  0  0  0  0
 19 20  1  0  0  0  0
 21 22  1  0  0  0  0
 23 21  1  0  0  0  0
 24 21  1  0  0  0  0
M  RAD  2   3   2   4   2
M  END
