Coordinates from ORCA-job p-CH3O-Ph-N2-OOCCF3-B3LYPG-aug-cc-pVDZ-scan-d09-49-n400
 OpenBabel11081710393D

 24 23  0  0  0  0  0  0  0  0999 V2000
   11.7034    8.2675   -1.5487 C   0  0  0  0  0  0  0  0  0  0  0  0
   10.4940    7.6955   -1.9160 C   0  0  0  0  0  0  0  0  0  0  0  0
   10.2720    6.3690   -1.5533 C   0  0  0  0  0  0  0  0  0  0  0  0
   11.1753    5.5792   -0.8526 C   0  0  0  0  0  0  0  0  0  0  0  0
   12.3876    6.1714   -0.4915 C   0  0  0  0  0  0  0  0  0  0  0  0
   12.6557    7.5099   -0.8354 C   0  0  0  0  0  0  0  0  0  0  0  0
   11.9357    9.3001   -1.8022 H   0  0  0  0  0  0  0  0  0  0  0  0
    9.7425    8.2570   -2.4666 H   0  0  0  0  0  0  0  0  0  0  0  0
   10.9347    4.5501   -0.6039 H   0  0  0  0  0  0  0  0  0  0  0  0
   13.1113    5.5751    0.0574 H   0  0  0  0  0  0  0  0  0  0  0  0
    8.8674    5.7727   -2.0062 N   0  0  0  0  0  0  0  0  0  0  0  0
    8.2305    4.8198   -1.9612 N   0  0  0  0  0  0  0  0  0  0  0  0
   13.8000    8.1606   -0.5267 O   0  0  0  0  0  0  0  0  0  0  0  0
   14.8187    7.4625    0.1969 C   0  0  0  0  0  0  0  0  0  0  0  0
   15.6307    8.1832    0.3253 H   0  0  0  0  0  0  0  0  0  0  0  0
   15.1807    6.5948   -0.3731 H   0  0  0  0  0  0  0  0  0  0  0  0
   14.4505    7.1405    1.1815 H   0  0  0  0  0  0  0  0  0  0  0  0
    7.2782    2.1708   -1.1800 O   0  0  0  0  0  0  0  0  0  0  0  0
    8.4390    2.3598   -0.8774 C   0  0  0  0  0  0  0  0  0  0  0  0
    9.1843    3.4117   -1.0180 O   0  0  0  0  0  0  0  0  0  0  0  0
    9.2594    1.2063   -0.2034 C   0  0  0  0  0  0  0  0  0  0  0  0
    9.7644    1.5987    0.9970 F   0  0  0  0  0  0  0  0  0  0  0  0
    8.5140    0.1117    0.0101 F   0  0  0  0  0  0  0  0  0  0  0  0
   10.3133    0.8410   -0.9803 F   0  0  0  0  0  0  0  0  0  0  0  0
  1  6  2  0  0  0  0
  2  3  2  0  0  0  0
  2  1  1  0  0  0  0
  3  4  1  0  0  0  0
  4  9  1  0  0  0  0
  4  5  2  0  0  0  0
  5 10  1  0  0  0  0
  6 13  1  0  0  0  0
  6  5  1  0  0  0  0
  7  1  1  0  0  0  0
  8  2  1  0  0  0  0
 11 12  2  0  0  0  0
 11  3  1  0  0  0  0
 13 14  1  0  0  0  0
 14 15  1  0  0  0  0
 14 17  1  0  0  0  0
 16 14  1  0  0  0  0
 18 19  2  0  0  0  0
 19 21  1  0  0  0  0
 20 19  1  0  0  0  0
 21 23  1  0  0  0  0
 21 22  1  0  0  0  0
 24 21  1  0  0  0  0
M  RAD  2  12   2  20   2
M  END
