Coordinates from ORCA-job p-CH3O-Ph-N2-OOCCF3-B3LYPG-aug-cc-pVDZ-scan-d09-49-n400
 OpenBabel11081710393D

 24 23  0  0  0  0  0  0  0  0999 V2000
   11.7128    8.1319   -1.5234 C   0  0  0  0  0  0  0  0  0  0  0  0
   10.4666    8.0185   -2.0546 C   0  0  0  0  0  0  0  0  0  0  0  0
    9.7020    6.7675   -1.9438 C   0  0  0  0  0  0  0  0  0  0  0  0
   10.3543    5.6558   -1.2365 C   0  0  0  0  0  0  0  0  0  0  0  0
   11.6145    5.8068   -0.7129 C   0  0  0  0  0  0  0  0  0  0  0  0
   12.3108    7.0269   -0.8414 C   0  0  0  0  0  0  0  0  0  0  0  0
   12.2759    9.0599   -1.6068 H   0  0  0  0  0  0  0  0  0  0  0  0
    9.9888    8.8461   -2.5798 H   0  0  0  0  0  0  0  0  0  0  0  0
    9.7812    4.6890   -1.1462 H   0  0  0  0  0  0  0  0  0  0  0  0
   12.0472    4.9517   -0.2000 H   0  0  0  0  0  0  0  0  0  0  0  0
    8.7762    6.6728   -2.3370 N   0  0  0  0  0  0  0  0  0  0  0  0
    7.7253    6.5713   -2.7865 N   0  0  0  0  0  0  0  0  0  0  0  0
   13.5255    7.2518   -0.3656 O   0  0  0  0  0  0  0  0  0  0  0  0
   14.2246    6.1995    0.3430 C   0  0  0  0  0  0  0  0  0  0  0  0
   15.1840    6.6396    0.6221 H   0  0  0  0  0  0  0  0  0  0  0  0
   14.3763    5.3367   -0.3166 H   0  0  0  0  0  0  0  0  0  0  0  0
   13.6616    5.9088    1.2381 H   0  0  0  0  0  0  0  0  0  0  0  0
    8.5247    1.1553   -0.4496 O   0  0  0  0  0  0  0  0  0  0  0  0
    9.1615    2.2006   -0.5381 C   0  0  0  0  0  0  0  0  0  0  0  0
    8.8745    3.3153   -1.0698 O   0  0  0  0  0  0  0  0  0  0  0  0
   10.5985    2.1968    0.1142 C   0  0  0  0  0  0  0  0  0  0  0  0
   10.7219    3.1733    1.0805 F   0  0  0  0  0  0  0  0  0  0  0  0
   10.9561    1.0413    0.6929 F   0  0  0  0  0  0  0  0  0  0  0  0
   11.5785    2.4917   -0.8101 F   0  0  0  0  0  0  0  0  0  0  0  0
  1  6  2  0  0  0  0
  2  3  2  0  0  0  0
  2  1  1  0  0  0  0
  3  4  1  0  0  0  0
  4  9  1  0  0  0  0
  4  5  2  0  0  0  0
  5 10  1  0  0  0  0
  6  5  1  0  0  0  0
  6 13  1  0  0  0  0
  7  1  1  0  0  0  0
  8  2  1  0  0  0  0
 11  3  1  0  0  0  0
 12 11  1  0  0  0  0
 13 14  1  0  0  0  0
 14 15  1  0  0  0  0
 14 17  1  0  0  0  0
 16 14  1  0  0  0  0
 19 18  1  0  0  0  0
 19 21  1  0  0  0  0
 20 19  2  0  0  0  0
 21 23  1  0  0  0  0
 21 22  1  0  0  0  0
 24 21  1  0  0  0  0
M  RAD  3  11   2  12   3  18   2
M  END
