Coordinates from ORCA-job p-CH3O-Ph-N2-OOCCF3-B3LYPG-aug-cc-pVDZ-scan-d09-49-n400
 OpenBabel11081710393D

 24 23  0  0  0  0  0  0  0  0999 V2000
   11.7110    8.1321   -1.5213 C   0  0  0  0  0  0  0  0  0  0  0  0
   10.4694    8.0397   -2.0583 C   0  0  0  0  0  0  0  0  0  0  0  0
    9.6614    6.7928   -1.9743 C   0  0  0  0  0  0  0  0  0  0  0  0
   10.3228    5.6644   -1.2573 C   0  0  0  0  0  0  0  0  0  0  0  0
   11.5796    5.8019   -0.7302 C   0  0  0  0  0  0  0  0  0  0  0  0
   12.2931    7.0138   -0.8452 C   0  0  0  0  0  0  0  0  0  0  0  0
   12.2855    9.0543   -1.5944 H   0  0  0  0  0  0  0  0  0  0  0  0
    9.9969    8.8729   -2.5800 H   0  0  0  0  0  0  0  0  0  0  0  0
    9.7435    4.6984   -1.1720 H   0  0  0  0  0  0  0  0  0  0  0  0
   11.9998    4.9378   -0.2216 H   0  0  0  0  0  0  0  0  0  0  0  0
    8.8000    6.7237   -2.3443 N   0  0  0  0  0  0  0  0  0  0  0  0
    7.7391    6.6479   -2.8060 N   0  0  0  0  0  0  0  0  0  0  0  0
   13.5059    7.2183   -0.3625 O   0  0  0  0  0  0  0  0  0  0  0  0
   14.1905    6.1514    0.3415 C   0  0  0  0  0  0  0  0  0  0  0  0
   15.1534    6.5790    0.6277 H   0  0  0  0  0  0  0  0  0  0  0  0
   14.3342    5.2927   -0.3251 H   0  0  0  0  0  0  0  0  0  0  0  0
   13.6193    5.8610    1.2312 H   0  0  0  0  0  0  0  0  0  0  0  0
    8.5878    1.1376   -0.4170 O   0  0  0  0  0  0  0  0  0  0  0  0
    9.2081    2.1915   -0.5172 C   0  0  0  0  0  0  0  0  0  0  0  0
    8.9014    3.2960   -1.0593 O   0  0  0  0  0  0  0  0  0  0  0  0
   10.6451    2.2146    0.1344 C   0  0  0  0  0  0  0  0  0  0  0  0
   10.7545    3.2005    1.0934 F   0  0  0  0  0  0  0  0  0  0  0  0
   11.0200    1.0695    0.7219 F   0  0  0  0  0  0  0  0  0  0  0  0
   11.6211    2.5170   -0.7922 F   0  0  0  0  0  0  0  0  0  0  0  0
  1  6  2  0  0  0  0
  2  3  2  0  0  0  0
  2  1  1  0  0  0  0
  3  4  1  0  0  0  0
  4  9  1  0  0  0  0
  4  5  2  0  0  0  0
  5 10  1  0  0  0  0
  6  5  1  0  0  0  0
  6 13  1  0  0  0  0
  7  1  1  0  0  0  0
  8  2  1  0  0  0  0
 11  3  1  0  0  0  0
 12 11  1  0  0  0  0
 13 14  1  0  0  0  0
 14 15  1  0  0  0  0
 14 17  1  0  0  0  0
 16 14  1  0  0  0  0
 19 18  1  0  0  0  0
 19 21  1  0  0  0  0
 20 19  2  0  0  0  0
 21 23  1  0  0  0  0
 21 22  1  0  0  0  0
 24 21  1  0  0  0  0
M  RAD  3  11   2  12   3  18   2
M  END
