Coordinates from ORCA-job p-CH3O-Ph-N2-OOCCF3-B3LYPG-aug-cc-pVDZ-scan-d09-49-n400
 OpenBabel11081710393D

 24 22  0  0  0  0  0  0  0  0999 V2000
   11.6854    8.3479   -1.4255 C   0  0  0  0  0  0  0  0  0  0  0  0
   10.4423    7.8800   -1.8794 C   0  0  0  0  0  0  0  0  0  0  0  0
   10.3370    6.5600   -1.5295 C   0  0  0  0  0  0  0  0  0  0  0  0
   11.0208    5.6644   -0.9303 C   0  0  0  0  0  0  0  0  0  0  0  0
   12.2776    6.1445   -0.4735 C   0  0  0  0  0  0  0  0  0  0  0  0
   12.5881    7.4973   -0.7349 C   0  0  0  0  0  0  0  0  0  0  0  0
   11.9735    9.3836   -1.6015 H   0  0  0  0  0  0  0  0  0  0  0  0
    9.7235    8.4970   -2.4110 H   0  0  0  0  0  0  0  0  0  0  0  0
   10.6385    3.9464   -0.5916 H   0  0  0  0  0  0  0  0  0  0  0  0
   12.9712    5.4949    0.0559 H   0  0  0  0  0  0  0  0  0  0  0  0
    8.3079    5.9956   -2.3308 N   0  0  0  0  0  0  0  0  0  0  0  0
    7.3055    5.8121   -2.7535 N   0  0  0  0  0  0  0  0  0  0  0  0
   13.7527    8.0999   -0.3596 O   0  0  0  0  0  0  0  0  0  0  0  0
   14.7214    7.3213    0.3408 C   0  0  0  0  0  0  0  0  0  0  0  0
   15.5581    7.9981    0.5365 H   0  0  0  0  0  0  0  0  0  0  0  0
   15.0674    6.4747   -0.2711 H   0  0  0  0  0  0  0  0  0  0  0  0
   14.3172    6.9495    1.2944 H   0  0  0  0  0  0  0  0  0  0  0  0
    8.5132    3.0521   -1.3321 O   0  0  0  0  0  0  0  0  0  0  0  0
    9.3957    2.4777   -0.7396 C   0  0  0  0  0  0  0  0  0  0  0  0
   10.5529    2.9658   -0.3348 O   0  0  0  0  0  0  0  0  0  0  0  0
    9.2724    0.9831   -0.3355 C   0  0  0  0  0  0  0  0  0  0  0  0
    9.3496    0.8420    1.0080 F   0  0  0  0  0  0  0  0  0  0  0  0
    8.1035    0.4686   -0.7417 F   0  0  0  0  0  0  0  0  0  0  0  0
   10.2678    0.2522   -0.8878 F   0  0  0  0  0  0  0  0  0  0  0  0
  1  6  2  0  0  0  0
  2  3  2  0  0  0  0
  2  1  1  0  0  0  0
  3  4  1  0  0  0  0
  4  5  2  0  0  0  0
  5 10  1  0  0  0  0
  6  5  1  0  0  0  0
  6 13  1  0  0  0  0
  7  1  1  0  0  0  0
  8  2  1  0  0  0  0
  9 20  1  0  0  0  0
 12 11  3  0  0  0  0
 13 14  1  0  0  0  0
 14 15  1  0  0  0  0
 14 17  1  0  0  0  0
 16 14  1  0  0  0  0
 18 19  2  0  0  0  0
 19 21  1  0  0  0  0
 19 20  1  0  0  0  0
 21 22  1  0  0  0  0
 23 21  1  0  0  0  0
 24 21  1  0  0  0  0
M  RAD  2   3   2   4   2
M  END
