Coordinates from ORCA-job p-CH3O-Ph-N2-OOCCF3-B3LYPG-aug-cc-pVDZ-scan-d09-49-n400
 OpenBabel11081710393D

 24 23  0  0  0  0  0  0  0  0999 V2000
   11.6826    8.2599   -1.5522 C   0  0  0  0  0  0  0  0  0  0  0  0
   10.4822    7.6827   -1.9105 C   0  0  0  0  0  0  0  0  0  0  0  0
   10.2181    6.3363   -1.5622 C   0  0  0  0  0  0  0  0  0  0  0  0
   11.1777    5.5775   -0.8492 C   0  0  0  0  0  0  0  0  0  0  0  0
   12.3823    6.1651   -0.4928 C   0  0  0  0  0  0  0  0  0  0  0  0
   12.6441    7.5069   -0.8401 C   0  0  0  0  0  0  0  0  0  0  0  0
   11.9111    9.2929   -1.8072 H   0  0  0  0  0  0  0  0  0  0  0  0
    9.7313    8.2493   -2.4592 H   0  0  0  0  0  0  0  0  0  0  0  0
   10.9390    4.5451   -0.5991 H   0  0  0  0  0  0  0  0  0  0  0  0
   13.1118    5.5740    0.0541 H   0  0  0  0  0  0  0  0  0  0  0  0
    9.0634    5.7988   -1.9126 N   0  0  0  0  0  0  0  0  0  0  0  0
    8.3011    4.9436   -1.9636 N   0  0  0  0  0  0  0  0  0  0  0  0
   13.7799    8.1601   -0.5389 O   0  0  0  0  0  0  0  0  0  0  0  0
   14.8128    7.4741    0.1834 C   0  0  0  0  0  0  0  0  0  0  0  0
   15.6162    8.2054    0.3025 H   0  0  0  0  0  0  0  0  0  0  0  0
   15.1782    6.6092   -0.3872 H   0  0  0  0  0  0  0  0  0  0  0  0
   14.4511    7.1542    1.1703 H   0  0  0  0  0  0  0  0  0  0  0  0
    7.2856    2.1692   -1.2144 O   0  0  0  0  0  0  0  0  0  0  0  0
    8.4451    2.3530   -0.8886 C   0  0  0  0  0  0  0  0  0  0  0  0
    9.1928    3.3956   -1.0147 O   0  0  0  0  0  0  0  0  0  0  0  0
    9.2347    1.1861   -0.2011 C   0  0  0  0  0  0  0  0  0  0  0  0
    9.7176    1.5652    1.0150 F   0  0  0  0  0  0  0  0  0  0  0  0
    8.4784    0.0934   -0.0076 F   0  0  0  0  0  0  0  0  0  0  0  0
   10.3064    0.8113   -0.9523 F   0  0  0  0  0  0  0  0  0  0  0  0
  1  6  2  0  0  0  0
  2  3  2  0  0  0  0
  2  1  1  0  0  0  0
  3  4  1  0  0  0  0
  4  9  1  0  0  0  0
  4  5  2  0  0  0  0
  5 10  1  0  0  0  0
  6 13  1  0  0  0  0
  6  5  1  0  0  0  0
  7  1  1  0  0  0  0
  8  2  1  0  0  0  0
 11  3  1  0  0  0  0
 12 11  2  0  0  0  0
 13 14  1  0  0  0  0
 14 15  1  0  0  0  0
 14 17  1  0  0  0  0
 16 14  1  0  0  0  0
 18 19  2  0  0  0  0
 19 21  1  0  0  0  0
 20 19  1  0  0  0  0
 21 23  1  0  0  0  0
 21 22  1  0  0  0  0
 24 21  1  0  0  0  0
M  RAD  2  12   2  20   2
M  END
