Coordinates from ORCA-job p-CH3O-Ph-N2-OOCCF3-B3LYPG-aug-cc-pVDZ-scan-d09-49-n400
 OpenBabel11081710393D

 24 22  0  0  0  0  0  0  0  0999 V2000
   11.8244    8.3617   -1.3653 C   0  0  0  0  0  0  0  0  0  0  0  0
   10.5807    7.8836   -1.8155 C   0  0  0  0  0  0  0  0  0  0  0  0
   10.4989    6.5608   -1.4508 C   0  0  0  0  0  0  0  0  0  0  0  0
   11.2313    5.7367   -0.8481 C   0  0  0  0  0  0  0  0  0  0  0  0
   12.4865    6.1763   -0.3807 C   0  0  0  0  0  0  0  0  0  0  0  0
   12.7525    7.5378   -0.6689 C   0  0  0  0  0  0  0  0  0  0  0  0
   12.1011    9.3997   -1.5497 H   0  0  0  0  0  0  0  0  0  0  0  0
    9.8535    8.4886   -2.3488 H   0  0  0  0  0  0  0  0  0  0  0  0
   10.6194    3.8477   -0.5652 H   0  0  0  0  0  0  0  0  0  0  0  0
   13.1907    5.5422    0.1504 H   0  0  0  0  0  0  0  0  0  0  0  0
    7.2032    6.0445   -2.8739 N   0  0  0  0  0  0  0  0  0  0  0  0
    6.2622    5.5514   -3.1747 N   0  0  0  0  0  0  0  0  0  0  0  0
   13.9058    8.1737   -0.3104 O   0  0  0  0  0  0  0  0  0  0  0  0
   14.8976    7.4284    0.3922 C   0  0  0  0  0  0  0  0  0  0  0  0
   15.7196    8.1273    0.5726 H   0  0  0  0  0  0  0  0  0  0  0  0
   15.2596    6.5822   -0.2112 H   0  0  0  0  0  0  0  0  0  0  0  0
   14.5098    7.0601    1.3541 H   0  0  0  0  0  0  0  0  0  0  0  0
    8.4992    3.0032   -1.3252 O   0  0  0  0  0  0  0  0  0  0  0  0
    9.3645    2.4145   -0.7301 C   0  0  0  0  0  0  0  0  0  0  0  0
   10.5337    2.8924   -0.3148 O   0  0  0  0  0  0  0  0  0  0  0  0
    9.2371    0.9189   -0.3345 C   0  0  0  0  0  0  0  0  0  0  0  0
    9.3159    0.7712    1.0073 F   0  0  0  0  0  0  0  0  0  0  0  0
    8.0661    0.4154   -0.7437 F   0  0  0  0  0  0  0  0  0  0  0  0
   10.2299    0.1905   -0.8932 F   0  0  0  0  0  0  0  0  0  0  0  0
  1  6  2  0  0  0  0
  2  3  2  0  0  0  0
  2  1  1  0  0  0  0
  3  4  1  0  0  0  0
  4  5  2  0  0  0  0
  5 10  1  0  0  0  0
  6  5  1  0  0  0  0
  6 13  1  0  0  0  0
  7  1  1  0  0  0  0
  8  2  1  0  0  0  0
  9 20  1  0  0  0  0
 12 11  3  0  0  0  0
 13 14  1  0  0  0  0
 14 15  1  0  0  0  0
 14 17  1  0  0  0  0
 16 14  1  0  0  0  0
 18 19  2  0  0  0  0
 19 21  1  0  0  0  0
 19 20  1  0  0  0  0
 21 22  1  0  0  0  0
 23 21  1  0  0  0  0
 24 21  1  0  0  0  0
M  RAD  2   3   2   4   2
M  END
