Coordinates from ORCA-job p-CH3O-Ph-N2-OOCCF3-B3LYPG-aug-cc-pVDZ-scan-d09-49-n400
 OpenBabel11081710393D

 24 22  0  0  0  0  0  0  0  0999 V2000
   11.7163    8.3582   -1.4158 C   0  0  0  0  0  0  0  0  0  0  0  0
   10.4683    7.8999   -1.8742 C   0  0  0  0  0  0  0  0  0  0  0  0
   10.3684    6.5813   -1.5201 C   0  0  0  0  0  0  0  0  0  0  0  0
   11.0549    5.7014   -0.9228 C   0  0  0  0  0  0  0  0  0  0  0  0
   12.3152    6.1523   -0.4562 C   0  0  0  0  0  0  0  0  0  0  0  0
   12.6200    7.5076   -0.7234 C   0  0  0  0  0  0  0  0  0  0  0  0
   12.0097    9.3930   -1.5907 H   0  0  0  0  0  0  0  0  0  0  0  0
    9.7524    8.5193   -2.4061 H   0  0  0  0  0  0  0  0  0  0  0  0
   10.6140    3.9136   -0.5885 H   0  0  0  0  0  0  0  0  0  0  0  0
   13.0062    5.5012    0.0734 H   0  0  0  0  0  0  0  0  0  0  0  0
    8.0959    6.0228   -2.4389 N   0  0  0  0  0  0  0  0  0  0  0  0
    7.0957    5.8146   -2.8560 N   0  0  0  0  0  0  0  0  0  0  0  0
   13.7846    8.1125   -0.3496 O   0  0  0  0  0  0  0  0  0  0  0  0
   14.7539    7.3363    0.3517 C   0  0  0  0  0  0  0  0  0  0  0  0
   15.5904    8.0140    0.5459 H   0  0  0  0  0  0  0  0  0  0  0  0
   15.1007    6.4888   -0.2588 H   0  0  0  0  0  0  0  0  0  0  0  0
   14.3505    6.9660    1.3063 H   0  0  0  0  0  0  0  0  0  0  0  0
    8.4967    3.0106   -1.3292 O   0  0  0  0  0  0  0  0  0  0  0  0
    9.3800    2.4463   -0.7325 C   0  0  0  0  0  0  0  0  0  0  0  0
   10.5380    2.9465   -0.3295 O   0  0  0  0  0  0  0  0  0  0  0  0
    9.2771    0.9514   -0.3248 C   0  0  0  0  0  0  0  0  0  0  0  0
    9.3645    0.8140    1.0180 F   0  0  0  0  0  0  0  0  0  0  0  0
    8.1119    0.4246   -0.7236 F   0  0  0  0  0  0  0  0  0  0  0  0
   10.2779    0.2326   -0.8827 F   0  0  0  0  0  0  0  0  0  0  0  0
  1  6  2  0  0  0  0
  2  3  2  0  0  0  0
  2  1  1  0  0  0  0
  3  4  1  0  0  0  0
  4  5  2  0  0  0  0
  5 10  1  0  0  0  0
  6  5  1  0  0  0  0
  6 13  1  0  0  0  0
  7  1  1  0  0  0  0
  8  2  1  0  0  0  0
  9 20  1  0  0  0  0
 12 11  3  0  0  0  0
 13 14  1  0  0  0  0
 14 15  1  0  0  0  0
 14 17  1  0  0  0  0
 16 14  1  0  0  0  0
 18 19  2  0  0  0  0
 19 20  1  0  0  0  0
 19 21  1  0  0  0  0
 21 22  1  0  0  0  0
 23 21  1  0  0  0  0
 24 21  1  0  0  0  0
M  RAD  2   3   2   4   2
M  END
