Coordinates from ORCA-job p-CH3O-Ph-N2-OOCCF3-B3LYPG-aug-cc-pVDZ-scan-d09-49-n400
 OpenBabel11081710393D

 24 22  0  0  0  0  0  0  0  0999 V2000
   11.8015    8.3642   -1.3770 C   0  0  0  0  0  0  0  0  0  0  0  0
   10.5560    7.8936   -1.8304 C   0  0  0  0  0  0  0  0  0  0  0  0
   10.4669    6.5708   -1.4695 C   0  0  0  0  0  0  0  0  0  0  0  0
   11.1918    5.7377   -0.8677 C   0  0  0  0  0  0  0  0  0  0  0  0
   12.4486    6.1726   -0.3980 C   0  0  0  0  0  0  0  0  0  0  0  0
   12.7234    7.5331   -0.6814 C   0  0  0  0  0  0  0  0  0  0  0  0
   12.0839    9.4012   -1.5581 H   0  0  0  0  0  0  0  0  0  0  0  0
    9.8329    8.5037   -2.3633 H   0  0  0  0  0  0  0  0  0  0  0  0
   10.6061    3.8558   -0.5743 H   0  0  0  0  0  0  0  0  0  0  0  0
   13.1486    5.5334    0.1326 H   0  0  0  0  0  0  0  0  0  0  0  0
    7.4088    6.0596   -2.7800 N   0  0  0  0  0  0  0  0  0  0  0  0
    6.4472    5.6297   -3.1100 N   0  0  0  0  0  0  0  0  0  0  0  0
   13.8797    8.1613   -0.3189 O   0  0  0  0  0  0  0  0  0  0  0  0
   14.8660    7.4083    0.3834 C   0  0  0  0  0  0  0  0  0  0  0  0
   15.6916    8.1019    0.5673 H   0  0  0  0  0  0  0  0  0  0  0  0
   15.2242    6.5617   -0.2219 H   0  0  0  0  0  0  0  0  0  0  0  0
   14.4742    7.0393    1.3434 H   0  0  0  0  0  0  0  0  0  0  0  0
    8.4905    2.9885   -1.3250 O   0  0  0  0  0  0  0  0  0  0  0  0
    9.3628    2.4104   -0.7297 C   0  0  0  0  0  0  0  0  0  0  0  0
   10.5285    2.9001   -0.3197 O   0  0  0  0  0  0  0  0  0  0  0  0
    9.2492    0.9153   -0.3275 C   0  0  0  0  0  0  0  0  0  0  0  0
    9.3332    0.7737    1.0147 F   0  0  0  0  0  0  0  0  0  0  0  0
    8.0812    0.4001   -0.7311 F   0  0  0  0  0  0  0  0  0  0  0  0
   10.2464    0.1928   -0.8861 F   0  0  0  0  0  0  0  0  0  0  0  0
  1  6  2  0  0  0  0
  2  3  2  0  0  0  0
  2  1  1  0  0  0  0
  3  4  1  0  0  0  0
  4  5  2  0  0  0  0
  5 10  1  0  0  0  0
  6  5  1  0  0  0  0
  6 13  1  0  0  0  0
  7  1  1  0  0  0  0
  8  2  1  0  0  0  0
  9 20  1  0  0  0  0
 12 11  3  0  0  0  0
 13 14  1  0  0  0  0
 14 15  1  0  0  0  0
 14 17  1  0  0  0  0
 16 14  1  0  0  0  0
 18 19  2  0  0  0  0
 19 21  1  0  0  0  0
 19 20  1  0  0  0  0
 21 22  1  0  0  0  0
 23 21  1  0  0  0  0
 24 21  1  0  0  0  0
M  RAD  2   3   2   4   2
M  END
