Coordinates from ORCA-job p-CH3O-Ph-N2-OOCCF3-B3LYPG-aug-cc-pVDZ-scan-d09-49-n400
 OpenBabel11081710393D

 24 22  0  0  0  0  0  0  0  0999 V2000
   11.7786    8.3688   -1.3893 C   0  0  0  0  0  0  0  0  0  0  0  0
   10.5305    7.9096   -1.8475 C   0  0  0  0  0  0  0  0  0  0  0  0
   10.4310    6.5871   -1.4918 C   0  0  0  0  0  0  0  0  0  0  0  0
   11.1432    5.7401   -0.8921 C   0  0  0  0  0  0  0  0  0  0  0  0
   12.4025    6.1679   -0.4189 C   0  0  0  0  0  0  0  0  0  0  0  0
   12.6910    7.5267   -0.6951 C   0  0  0  0  0  0  0  0  0  0  0  0
   12.0697    9.4042   -1.5657 H   0  0  0  0  0  0  0  0  0  0  0  0
    9.8133    8.5272   -2.3797 H   0  0  0  0  0  0  0  0  0  0  0  0
   10.5924    3.8722   -0.5861 H   0  0  0  0  0  0  0  0  0  0  0  0
   13.0961    5.5209    0.1109 H   0  0  0  0  0  0  0  0  0  0  0  0
    7.6205    6.0699   -2.6817 N   0  0  0  0  0  0  0  0  0  0  0  0
    6.6429    5.7018   -3.0382 N   0  0  0  0  0  0  0  0  0  0  0  0
   13.8519    8.1429   -0.3266 O   0  0  0  0  0  0  0  0  0  0  0  0
   14.8293    7.3779    0.3752 C   0  0  0  0  0  0  0  0  0  0  0  0
   15.6606    8.0633    0.5645 H   0  0  0  0  0  0  0  0  0  0  0  0
   15.1817    6.5308   -0.2327 H   0  0  0  0  0  0  0  0  0  0  0  0
   14.4316    7.0083    1.3325 H   0  0  0  0  0  0  0  0  0  0  0  0
    8.4831    2.9753   -1.3246 O   0  0  0  0  0  0  0  0  0  0  0  0
    9.3644    2.4108   -0.7291 C   0  0  0  0  0  0  0  0  0  0  0  0
   10.5253    2.9155   -0.3260 O   0  0  0  0  0  0  0  0  0  0  0  0
    9.2685    0.9166   -0.3185 C   0  0  0  0  0  0  0  0  0  0  0  0
    9.3589    0.7829    1.0242 F   0  0  0  0  0  0  0  0  0  0  0  0
    8.1048    0.3863   -0.7149 F   0  0  0  0  0  0  0  0  0  0  0  0
   10.2714    0.2019   -0.8770 F   0  0  0  0  0  0  0  0  0  0  0  0
  1  6  2  0  0  0  0
  2  3  2  0  0  0  0
  2  1  1  0  0  0  0
  3  4  1  0  0  0  0
  4  5  2  0  0  0  0
  5 10  1  0  0  0  0
  6  5  1  0  0  0  0
  6 13  1  0  0  0  0
  7  1  1  0  0  0  0
  8  2  1  0  0  0  0
  9 20  1  0  0  0  0
 12 11  3  0  0  0  0
 13 14  1  0  0  0  0
 14 15  1  0  0  0  0
 14 17  1  0  0  0  0
 16 14  1  0  0  0  0
 18 19  2  0  0  0  0
 19 20  1  0  0  0  0
 19 21  1  0  0  0  0
 21 22  1  0  0  0  0
 23 21  1  0  0  0  0
 24 21  1  0  0  0  0
M  RAD  2   3   2   4   2
M  END
