Coordinates from ORCA-job p-CH3O-Ph-N2-OOCCF3-B3LYPG-aug-cc-pVDZ-scan-d09-49-n400
 OpenBabel11081710393D

 24 23  0  0  0  0  0  0  0  0999 V2000
   11.6817    8.2593   -1.5525 C   0  0  0  0  0  0  0  0  0  0  0  0
   10.4818    7.6819   -1.9105 C   0  0  0  0  0  0  0  0  0  0  0  0
   10.2158    6.3346   -1.5627 C   0  0  0  0  0  0  0  0  0  0  0  0
   11.1776    5.5769   -0.8490 C   0  0  0  0  0  0  0  0  0  0  0  0
   12.3819    6.1646   -0.4928 C   0  0  0  0  0  0  0  0  0  0  0  0
   12.6435    7.5065   -0.8402 C   0  0  0  0  0  0  0  0  0  0  0  0
   11.9101    9.2923   -1.8075 H   0  0  0  0  0  0  0  0  0  0  0  0
    9.7309    8.2487   -2.4593 H   0  0  0  0  0  0  0  0  0  0  0  0
   10.9392    4.5444   -0.5987 H   0  0  0  0  0  0  0  0  0  0  0  0
   13.1115    5.5737    0.0541 H   0  0  0  0  0  0  0  0  0  0  0  0
    9.0701    5.8001   -1.9099 N   0  0  0  0  0  0  0  0  0  0  0  0
    8.3035    4.9488   -1.9643 N   0  0  0  0  0  0  0  0  0  0  0  0
   13.7789    8.1597   -0.5392 O   0  0  0  0  0  0  0  0  0  0  0  0
   14.8123    7.4742    0.1832 C   0  0  0  0  0  0  0  0  0  0  0  0
   15.6153    8.2059    0.3020 H   0  0  0  0  0  0  0  0  0  0  0  0
   15.1779    6.6093   -0.3874 H   0  0  0  0  0  0  0  0  0  0  0  0
   14.4507    7.1544    1.1702 H   0  0  0  0  0  0  0  0  0  0  0  0
    7.2858    2.1698   -1.2144 O   0  0  0  0  0  0  0  0  0  0  0  0
    8.4455    2.3535   -0.8885 C   0  0  0  0  0  0  0  0  0  0  0  0
    9.1932    3.3956   -1.0145 O   0  0  0  0  0  0  0  0  0  0  0  0
    9.2345    1.1860   -0.2012 C   0  0  0  0  0  0  0  0  0  0  0  0
    9.7180    1.5647    1.0149 F   0  0  0  0  0  0  0  0  0  0  0  0
    8.4778    0.0935   -0.0075 F   0  0  0  0  0  0  0  0  0  0  0  0
   10.3059    0.8105   -0.9526 F   0  0  0  0  0  0  0  0  0  0  0  0
  1  6  2  0  0  0  0
  2  3  2  0  0  0  0
  2  1  1  0  0  0  0
  3  4  1  0  0  0  0
  4  9  1  0  0  0  0
  4  5  2  0  0  0  0
  5 10  1  0  0  0  0
  6 13  1  0  0  0  0
  6  5  1  0  0  0  0
  7  1  1  0  0  0  0
  8  2  1  0  0  0  0
 11  3  1  0  0  0  0
 12 11  2  0  0  0  0
 13 14  1  0  0  0  0
 14 15  1  0  0  0  0
 14 17  1  0  0  0  0
 16 14  1  0  0  0  0
 18 19  2  0  0  0  0
 19 21  1  0  0  0  0
 20 19  1  0  0  0  0
 21 23  1  0  0  0  0
 21 22  1  0  0  0  0
 24 21  1  0  0  0  0
M  RAD  2  12   2  20   2
M  END
