Coordinates from ORCA-job p-CH3O-Ph-N2-OOCCF3-B3LYPG-aug-cc-pVDZ-scan-d09-49-n400
 OpenBabel11081710393D

 24 22  0  0  0  0  0  0  0  0999 V2000
   11.8273    8.3619   -1.3640 C   0  0  0  0  0  0  0  0  0  0  0  0
   10.5836    7.8834   -1.8141 C   0  0  0  0  0  0  0  0  0  0  0  0
   10.5026    6.5608   -1.4490 C   0  0  0  0  0  0  0  0  0  0  0  0
   11.2351    5.7367   -0.8463 C   0  0  0  0  0  0  0  0  0  0  0  0
   12.4902    6.1768   -0.3791 C   0  0  0  0  0  0  0  0  0  0  0  0
   12.7557    7.5383   -0.6676 C   0  0  0  0  0  0  0  0  0  0  0  0
   12.1037    9.4000   -1.5485 H   0  0  0  0  0  0  0  0  0  0  0  0
    9.8561    8.4880   -2.3474 H   0  0  0  0  0  0  0  0  0  0  0  0
   10.6190    3.8472   -0.5653 H   0  0  0  0  0  0  0  0  0  0  0  0
   13.1947    5.5430    0.1521 H   0  0  0  0  0  0  0  0  0  0  0  0
    7.1794    6.0455   -2.8856 N   0  0  0  0  0  0  0  0  0  0  0  0
    6.2407    5.5463   -3.1835 N   0  0  0  0  0  0  0  0  0  0  0  0
   13.9087    8.1747   -0.3093 O   0  0  0  0  0  0  0  0  0  0  0  0
   14.9010    7.4300    0.3934 C   0  0  0  0  0  0  0  0  0  0  0  0
   15.7227    8.1292    0.5735 H   0  0  0  0  0  0  0  0  0  0  0  0
   15.2632    6.5838   -0.2100 H   0  0  0  0  0  0  0  0  0  0  0  0
   14.5134    7.0617    1.3553 H   0  0  0  0  0  0  0  0  0  0  0  0
    8.4988    3.0023   -1.3251 O   0  0  0  0  0  0  0  0  0  0  0  0
    9.3642    2.4139   -0.7300 C   0  0  0  0  0  0  0  0  0  0  0  0
   10.5334    2.8920   -0.3148 O   0  0  0  0  0  0  0  0  0  0  0  0
    9.2372    0.9183   -0.3342 C   0  0  0  0  0  0  0  0  0  0  0  0
    9.3161    0.7707    1.0076 F   0  0  0  0  0  0  0  0  0  0  0  0
    8.0663    0.4144   -0.7434 F   0  0  0  0  0  0  0  0  0  0  0  0
   10.2301    0.1900   -0.8929 F   0  0  0  0  0  0  0  0  0  0  0  0
  1  6  2  0  0  0  0
  2  3  2  0  0  0  0
  2  1  1  0  0  0  0
  3  4  1  0  0  0  0
  4  5  2  0  0  0  0
  5 10  1  0  0  0  0
  6  5  1  0  0  0  0
  6 13  1  0  0  0  0
  7  1  1  0  0  0  0
  8  2  1  0  0  0  0
  9 20  1  0  0  0  0
 12 11  3  0  0  0  0
 13 14  1  0  0  0  0
 14 15  1  0  0  0  0
 14 17  1  0  0  0  0
 16 14  1  0  0  0  0
 18 19  2  0  0  0  0
 19 21  1  0  0  0  0
 19 20  1  0  0  0  0
 21 22  1  0  0  0  0
 23 21  1  0  0  0  0
 24 21  1  0  0  0  0
M  RAD  2   3   2   4   2
M  END
