Coordinates from ORCA-job p-CH3O-Ph-N2-OOCCF3-B3LYPG-aug-cc-pVDZ-scan-d09-49-n400
 OpenBabel11081710393D

 24 22  0  0  0  0  0  0  0  0999 V2000
   11.8108    8.3622   -1.3720 C   0  0  0  0  0  0  0  0  0  0  0  0
   10.5661    7.8880   -1.8239 C   0  0  0  0  0  0  0  0  0  0  0  0
   10.4802    6.5651   -1.4613 C   0  0  0  0  0  0  0  0  0  0  0  0
   11.2091    5.7364   -0.8589 C   0  0  0  0  0  0  0  0  0  0  0  0
   12.4650    6.1737   -0.3903 C   0  0  0  0  0  0  0  0  0  0  0  0
   12.7356    7.5346   -0.6760 C   0  0  0  0  0  0  0  0  0  0  0  0
   12.0903    9.3997   -1.5546 H   0  0  0  0  0  0  0  0  0  0  0  0
    9.8411    8.4958   -2.3569 H   0  0  0  0  0  0  0  0  0  0  0  0
   10.6129    3.8522   -0.5699 H   0  0  0  0  0  0  0  0  0  0  0  0
   13.1671    5.5369    0.1406 H   0  0  0  0  0  0  0  0  0  0  0  0
    7.3214    6.0535   -2.8201 N   0  0  0  0  0  0  0  0  0  0  0  0
    6.3675    5.5987   -3.1387 N   0  0  0  0  0  0  0  0  0  0  0  0
   13.8904    8.1665   -0.3154 O   0  0  0  0  0  0  0  0  0  0  0  0
   14.8795    7.4173    0.3870 C   0  0  0  0  0  0  0  0  0  0  0  0
   15.7033    8.1135    0.5692 H   0  0  0  0  0  0  0  0  0  0  0  0
   15.2395    6.5709   -0.2174 H   0  0  0  0  0  0  0  0  0  0  0  0
   14.4897    7.0486    1.3479 H   0  0  0  0  0  0  0  0  0  0  0  0
    8.4951    2.9959   -1.3250 O   0  0  0  0  0  0  0  0  0  0  0  0
    9.3640    2.4127   -0.7298 C   0  0  0  0  0  0  0  0  0  0  0  0
   10.5314    2.8967   -0.3172 O   0  0  0  0  0  0  0  0  0  0  0  0
    9.2439    0.9174   -0.3306 C   0  0  0  0  0  0  0  0  0  0  0  0
    9.3255    0.7729    1.0114 F   0  0  0  0  0  0  0  0  0  0  0  0
    8.0745    0.4076   -0.7369 F   0  0  0  0  0  0  0  0  0  0  0  0
   10.2390    0.1920   -0.8893 F   0  0  0  0  0  0  0  0  0  0  0  0
  1  6  2  0  0  0  0
  2  3  2  0  0  0  0
  2  1  1  0  0  0  0
  3  4  1  0  0  0  0
  4  5  2  0  0  0  0
  5 10  1  0  0  0  0
  6  5  1  0  0  0  0
  6 13  1  0  0  0  0
  7  1  1  0  0  0  0
  8  2  1  0  0  0  0
  9 20  1  0  0  0  0
 12 11  3  0  0  0  0
 13 14  1  0  0  0  0
 14 15  1  0  0  0  0
 14 17  1  0  0  0  0
 16 14  1  0  0  0  0
 18 19  2  0  0  0  0
 19 21  1  0  0  0  0
 19 20  1  0  0  0  0
 21 22  1  0  0  0  0
 23 21  1  0  0  0  0
 24 21  1  0  0  0  0
M  RAD  2   3   2   4   2
M  END
