Coordinates from ORCA-job p-CH3O-Ph-N2-OOCCF3-B3LYPG-aug-cc-pVDZ-scan-d09-49-n400
 OpenBabel11081710393D

 24 22  0  0  0  0  0  0  0  0999 V2000
   11.8065    8.3628   -1.3742 C   0  0  0  0  0  0  0  0  0  0  0  0
   10.5615    7.8901   -1.8267 C   0  0  0  0  0  0  0  0  0  0  0  0
   10.4743    6.5672   -1.4648 C   0  0  0  0  0  0  0  0  0  0  0  0
   11.2016    5.7367   -0.8626 C   0  0  0  0  0  0  0  0  0  0  0  0
   12.4579    6.1731   -0.3936 C   0  0  0  0  0  0  0  0  0  0  0  0
   12.7302    7.5338   -0.6784 C   0  0  0  0  0  0  0  0  0  0  0  0
   12.0872    9.4002   -1.5562 H   0  0  0  0  0  0  0  0  0  0  0  0
    9.8372    8.4987   -2.3597 H   0  0  0  0  0  0  0  0  0  0  0  0
   10.6098    3.8538   -0.5719 H   0  0  0  0  0  0  0  0  0  0  0  0
   13.1591    5.5354    0.1372 H   0  0  0  0  0  0  0  0  0  0  0  0
    7.3613    6.0558   -2.8017 N   0  0  0  0  0  0  0  0  0  0  0  0
    6.4035    5.6134   -3.1260 N   0  0  0  0  0  0  0  0  0  0  0  0
   13.8855    8.1643   -0.3171 O   0  0  0  0  0  0  0  0  0  0  0  0
   14.8735    7.4136    0.3853 C   0  0  0  0  0  0  0  0  0  0  0  0
   15.6980    8.1088    0.5682 H   0  0  0  0  0  0  0  0  0  0  0  0
   15.2328    6.5671   -0.2194 H   0  0  0  0  0  0  0  0  0  0  0  0
   14.4829    7.0448    1.3459 H   0  0  0  0  0  0  0  0  0  0  0  0
    8.4928    2.9927   -1.3251 O   0  0  0  0  0  0  0  0  0  0  0  0
    9.3633    2.4118   -0.7298 C   0  0  0  0  0  0  0  0  0  0  0  0
   10.5299    2.8982   -0.3184 O   0  0  0  0  0  0  0  0  0  0  0  0
    9.2461    0.9166   -0.3293 C   0  0  0  0  0  0  0  0  0  0  0  0
    9.3288    0.7733    1.0128 F   0  0  0  0  0  0  0  0  0  0  0  0
    8.0773    0.4043   -0.7344 F   0  0  0  0  0  0  0  0  0  0  0  0
   10.2421    0.1925   -0.8880 F   0  0  0  0  0  0  0  0  0  0  0  0
  1  6  2  0  0  0  0
  2  3  2  0  0  0  0
  2  1  1  0  0  0  0
  3  4  1  0  0  0  0
  4  5  2  0  0  0  0
  5 10  1  0  0  0  0
  6  5  1  0  0  0  0
  6 13  1  0  0  0  0
  7  1  1  0  0  0  0
  8  2  1  0  0  0  0
  9 20  1  0  0  0  0
 12 11  3  0  0  0  0
 13 14  1  0  0  0  0
 14 15  1  0  0  0  0
 14 17  1  0  0  0  0
 16 14  1  0  0  0  0
 18 19  2  0  0  0  0
 19 21  1  0  0  0  0
 19 20  1  0  0  0  0
 21 22  1  0  0  0  0
 23 21  1  0  0  0  0
 24 21  1  0  0  0  0
M  RAD  2   3   2   4   2
M  END
