Coordinates from ORCA-job p-CH3O-Ph-N2-OOCCF3-B3LYPG-aug-cc-pVDZ-scan-d09-49-n400
 OpenBabel11081710393D

 24 23  0  0  0  0  0  0  0  0999 V2000
   11.6903    8.2642   -1.5500 C   0  0  0  0  0  0  0  0  0  0  0  0
   10.4861    7.6888   -1.9108 C   0  0  0  0  0  0  0  0  0  0  0  0
   10.2393    6.3508   -1.5574 C   0  0  0  0  0  0  0  0  0  0  0  0
   11.1772    5.5803   -0.8508 C   0  0  0  0  0  0  0  0  0  0  0  0
   12.3853    6.1687   -0.4930 C   0  0  0  0  0  0  0  0  0  0  0  0
   12.6490    7.5094   -0.8388 C   0  0  0  0  0  0  0  0  0  0  0  0
   11.9202    9.2972   -1.8040 H   0  0  0  0  0  0  0  0  0  0  0  0
    9.7345    8.2540   -2.4591 H   0  0  0  0  0  0  0  0  0  0  0  0
   10.9369    4.5494   -0.6022 H   0  0  0  0  0  0  0  0  0  0  0  0
   13.1133    5.5757    0.0537 H   0  0  0  0  0  0  0  0  0  0  0  0
    8.9924    5.7876   -1.9424 N   0  0  0  0  0  0  0  0  0  0  0  0
    8.2776    4.8914   -1.9567 N   0  0  0  0  0  0  0  0  0  0  0  0
   13.7885    8.1618   -0.5354 O   0  0  0  0  0  0  0  0  0  0  0  0
   14.8164    7.4708    0.1861 C   0  0  0  0  0  0  0  0  0  0  0  0
   15.6233    8.1979    0.3085 H   0  0  0  0  0  0  0  0  0  0  0  0
   15.1801    6.6050   -0.3849 H   0  0  0  0  0  0  0  0  0  0  0  0
   14.4531    7.1496    1.1724 H   0  0  0  0  0  0  0  0  0  0  0  0
    7.2850    2.1669   -1.2125 O   0  0  0  0  0  0  0  0  0  0  0  0
    8.4432    2.3527   -0.8887 C   0  0  0  0  0  0  0  0  0  0  0  0
    9.1905    3.3989   -1.0172 O   0  0  0  0  0  0  0  0  0  0  0  0
    9.2404    1.1917   -0.2003 C   0  0  0  0  0  0  0  0  0  0  0  0
    9.7202    1.5760    1.0143 F   0  0  0  0  0  0  0  0  0  0  0  0
    8.4879    0.0971   -0.0069 F   0  0  0  0  0  0  0  0  0  0  0  0
   10.3126    0.8229   -0.9522 F   0  0  0  0  0  0  0  0  0  0  0  0
  1  6  2  0  0  0  0
  2  3  2  0  0  0  0
  2  1  1  0  0  0  0
  3  4  1  0  0  0  0
  4  9  1  0  0  0  0
  4  5  2  0  0  0  0
  5 10  1  0  0  0  0
  6 13  1  0  0  0  0
  6  5  1  0  0  0  0
  7  1  1  0  0  0  0
  8  2  1  0  0  0  0
 11  3  1  0  0  0  0
 12 11  2  0  0  0  0
 13 14  1  0  0  0  0
 14 15  1  0  0  0  0
 14 17  1  0  0  0  0
 16 14  1  0  0  0  0
 18 19  2  0  0  0  0
 19 21  1  0  0  0  0
 20 19  1  0  0  0  0
 21 23  1  0  0  0  0
 21 22  1  0  0  0  0
 24 21  1  0  0  0  0
M  RAD  2  12   2  20   2
M  END
