Coordinates from ORCA-job p-CH3O-Ph-N2-OOCCF3-B3LYPG-aug-cc-pVDZ-scan-d09-49-n400
 OpenBabel11081710393D

 24 22  0  0  0  0  0  0  0  0999 V2000
   11.7587    8.3657   -1.3979 C   0  0  0  0  0  0  0  0  0  0  0  0
   10.5106    7.9066   -1.8561 C   0  0  0  0  0  0  0  0  0  0  0  0
   10.4122    6.5852   -1.5003 C   0  0  0  0  0  0  0  0  0  0  0  0
   11.1180    5.7303   -0.9013 C   0  0  0  0  0  0  0  0  0  0  0  0
   12.3778    6.1637   -0.4296 C   0  0  0  0  0  0  0  0  0  0  0  0
   12.6694    7.5218   -0.7040 C   0  0  0  0  0  0  0  0  0  0  0  0
   12.0502    9.4010   -1.5738 H   0  0  0  0  0  0  0  0  0  0  0  0
    9.7931    8.5237   -2.3883 H   0  0  0  0  0  0  0  0  0  0  0  0
   10.5908    3.8791   -0.5891 H   0  0  0  0  0  0  0  0  0  0  0  0
   13.0711    5.5161    0.1002 H   0  0  0  0  0  0  0  0  0  0  0  0
    7.7761    6.0702   -2.6072 N   0  0  0  0  0  0  0  0  0  0  0  0
    6.7880    5.7557   -2.9850 N   0  0  0  0  0  0  0  0  0  0  0  0
   13.8309    8.1359   -0.3345 O   0  0  0  0  0  0  0  0  0  0  0  0
   14.8070    7.3689    0.3672 C   0  0  0  0  0  0  0  0  0  0  0  0
   15.6392    8.0529    0.5574 H   0  0  0  0  0  0  0  0  0  0  0  0
   15.1583    6.5218   -0.2412 H   0  0  0  0  0  0  0  0  0  0  0  0
   14.4082    6.9991    1.3240 H   0  0  0  0  0  0  0  0  0  0  0  0
    8.4811    2.9760   -1.3259 O   0  0  0  0  0  0  0  0  0  0  0  0
    9.3644    2.4140   -0.7301 C   0  0  0  0  0  0  0  0  0  0  0  0
   10.5239    2.9207   -0.3284 O   0  0  0  0  0  0  0  0  0  0  0  0
    9.2706    0.9200   -0.3184 C   0  0  0  0  0  0  0  0  0  0  0  0
    9.3616    0.7871    1.0244 F   0  0  0  0  0  0  0  0  0  0  0  0
    8.1075    0.3874   -0.7140 F   0  0  0  0  0  0  0  0  0  0  0  0
   10.2743    0.2059   -0.8767 F   0  0  0  0  0  0  0  0  0  0  0  0
  1  6  2  0  0  0  0
  2  3  2  0  0  0  0
  2  1  1  0  0  0  0
  3  4  1  0  0  0  0
  4  5  2  0  0  0  0
  5 10  1  0  0  0  0
  6  5  1  0  0  0  0
  6 13  1  0  0  0  0
  7  1  1  0  0  0  0
  8  2  1  0  0  0  0
  9 20  1  0  0  0  0
 12 11  3  0  0  0  0
 13 14  1  0  0  0  0
 14 15  1  0  0  0  0
 14 17  1  0  0  0  0
 16 14  1  0  0  0  0
 18 19  2  0  0  0  0
 19 20  1  0  0  0  0
 19 21  1  0  0  0  0
 21 22  1  0  0  0  0
 23 21  1  0  0  0  0
 24 21  1  0  0  0  0
M  RAD  2   3   2   4   2
M  END
