Coordinates from ORCA-job p-CH3O-Ph-N2-OOCCF3-B3LYPG-aug-cc-pVDZ-scan-d09-49-n400
 OpenBabel11081710393D

 24 22  0  0  0  0  0  0  0  0999 V2000
   11.8792    8.2941   -1.3187 C   0  0  0  0  0  0  0  0  0  0  0  0
   10.6565    7.7387   -1.7355 C   0  0  0  0  0  0  0  0  0  0  0  0
   10.6479    6.4211   -1.3376 C   0  0  0  0  0  0  0  0  0  0  0  0
   11.4420    5.6652   -0.7261 C   0  0  0  0  0  0  0  0  0  0  0  0
   12.6782    6.1750   -0.2889 C   0  0  0  0  0  0  0  0  0  0  0  0
   12.8628    7.5413   -0.6173 C   0  0  0  0  0  0  0  0  0  0  0  0
   12.0963    9.3403   -1.5339 H   0  0  0  0  0  0  0  0  0  0  0  0
    9.8913    8.2927   -2.2715 H   0  0  0  0  0  0  0  0  0  0  0  0
   10.7337    3.7546   -0.4824 H   0  0  0  0  0  0  0  0  0  0  0  0
   13.4237    5.5937    0.2460 H   0  0  0  0  0  0  0  0  0  0  0  0
    6.3748    6.1247   -3.2951 N   0  0  0  0  0  0  0  0  0  0  0  0
    5.5109    5.4714   -3.5099 N   0  0  0  0  0  0  0  0  0  0  0  0
   13.9846    8.2491   -0.2954 O   0  0  0  0  0  0  0  0  0  0  0  0
   15.0272    7.5788    0.4091 C   0  0  0  0  0  0  0  0  0  0  0  0
   15.8118    8.3265    0.5571 H   0  0  0  0  0  0  0  0  0  0  0  0
   15.4261    6.7379   -0.1785 H   0  0  0  0  0  0  0  0  0  0  0  0
   14.6756    7.2155    1.3867 H   0  0  0  0  0  0  0  0  0  0  0  0
    8.5830    3.0770   -1.3069 O   0  0  0  0  0  0  0  0  0  0  0  0
    9.3950    2.4141   -0.7152 C   0  0  0  0  0  0  0  0  0  0  0  0
   10.5847    2.8021   -0.2631 O   0  0  0  0  0  0  0  0  0  0  0  0
    9.1634    0.9189   -0.3697 C   0  0  0  0  0  0  0  0  0  0  0  0
    9.2052    0.7256    0.9679 F   0  0  0  0  0  0  0  0  0  0  0  0
    7.9709    0.5058   -0.8163 F   0  0  0  0  0  0  0  0  0  0  0  0
   10.1182    0.1449   -0.9330 F   0  0  0  0  0  0  0  0  0  0  0  0
  1  6  2  0  0  0  0
  2  3  2  0  0  0  0
  2  1  1  0  0  0  0
  3  4  1  0  0  0  0
  4  5  2  0  0  0  0
  5 10  1  0  0  0  0
  6 13  1  0  0  0  0
  6  5  1  0  0  0  0
  7  1  1  0  0  0  0
  8  2  1  0  0  0  0
  9 20  1  0  0  0  0
 12 11  3  0  0  0  0
 13 14  1  0  0  0  0
 14 15  1  0  0  0  0
 14 17  1  0  0  0  0
 16 14  1  0  0  0  0
 18 19  2  0  0  0  0
 19 21  1  0  0  0  0
 19 20  1  0  0  0  0
 21 22  1  0  0  0  0
 23 21  1  0  0  0  0
 24 21  1  0  0  0  0
M  RAD  2   3   2   4   2
M  END
