Coordinates from ORCA-job p-CH3O-Ph-N2-OOCCF3-B3LYPG-aug-cc-pVDZ-scan-d09-49-n400
 OpenBabel11081710393D

 24 23  0  0  0  0  0  0  0  0999 V2000
   11.6835    8.2604   -1.5520 C   0  0  0  0  0  0  0  0  0  0  0  0
   10.4827    7.6834   -1.9105 C   0  0  0  0  0  0  0  0  0  0  0  0
   10.2204    6.3380   -1.5616 C   0  0  0  0  0  0  0  0  0  0  0  0
   11.1777    5.5779   -0.8493 C   0  0  0  0  0  0  0  0  0  0  0  0
   12.3827    6.1657   -0.4928 C   0  0  0  0  0  0  0  0  0  0  0  0
   12.6447    7.5073   -0.8400 C   0  0  0  0  0  0  0  0  0  0  0  0
   11.9120    9.2935   -1.8069 H   0  0  0  0  0  0  0  0  0  0  0  0
    9.7317    8.2499   -2.4592 H   0  0  0  0  0  0  0  0  0  0  0  0
   10.9388    4.5457   -0.5995 H   0  0  0  0  0  0  0  0  0  0  0  0
   13.1121    5.5744    0.0541 H   0  0  0  0  0  0  0  0  0  0  0  0
    9.0566    5.7975   -1.9153 N   0  0  0  0  0  0  0  0  0  0  0  0
    8.2987    4.9384   -1.9628 N   0  0  0  0  0  0  0  0  0  0  0  0
   13.7808    8.1604   -0.5386 O   0  0  0  0  0  0  0  0  0  0  0  0
   14.8133    7.4739    0.1836 C   0  0  0  0  0  0  0  0  0  0  0  0
   15.6170    8.2049    0.3030 H   0  0  0  0  0  0  0  0  0  0  0  0
   15.1785    6.6089   -0.3871 H   0  0  0  0  0  0  0  0  0  0  0  0
   14.4514    7.1539    1.1705 H   0  0  0  0  0  0  0  0  0  0  0  0
    7.2854    2.1687   -1.2144 O   0  0  0  0  0  0  0  0  0  0  0  0
    8.4448    2.3527   -0.8886 C   0  0  0  0  0  0  0  0  0  0  0  0
    9.1924    3.3956   -1.0148 O   0  0  0  0  0  0  0  0  0  0  0  0
    9.2350    1.1863   -0.2010 C   0  0  0  0  0  0  0  0  0  0  0  0
    9.7173    1.5658    1.0151 F   0  0  0  0  0  0  0  0  0  0  0  0
    8.4790    0.0933   -0.0078 F   0  0  0  0  0  0  0  0  0  0  0  0
   10.3069    0.8122   -0.9521 F   0  0  0  0  0  0  0  0  0  0  0  0
  1  6  2  0  0  0  0
  2  3  2  0  0  0  0
  2  1  1  0  0  0  0
  3  4  1  0  0  0  0
  4  9  1  0  0  0  0
  4  5  2  0  0  0  0
  5 10  1  0  0  0  0
  6 13  1  0  0  0  0
  6  5  1  0  0  0  0
  7  1  1  0  0  0  0
  8  2  1  0  0  0  0
 11  3  1  0  0  0  0
 12 11  2  0  0  0  0
 13 14  1  0  0  0  0
 14 15  1  0  0  0  0
 14 17  1  0  0  0  0
 16 14  1  0  0  0  0
 18 19  2  0  0  0  0
 19 21  1  0  0  0  0
 20 19  1  0  0  0  0
 21 23  1  0  0  0  0
 21 22  1  0  0  0  0
 24 21  1  0  0  0  0
M  RAD  2  12   2  20   2
M  END
