Coordinates from ORCA-job p-CH3O-Ph-N2-OOCCF3-B3LYPG-aug-cc-pVDZ-scan-d09-49-n400
 OpenBabel11081710393D

 24 22  0  0  0  0  0  0  0  0999 V2000
   11.7409    8.3619   -1.4052 C   0  0  0  0  0  0  0  0  0  0  0  0
   10.4925    7.9007   -1.8630 C   0  0  0  0  0  0  0  0  0  0  0  0
   10.4011    6.5821   -1.5048 C   0  0  0  0  0  0  0  0  0  0  0  0
   11.0971    5.7160   -0.9071 C   0  0  0  0  0  0  0  0  0  0  0  0
   12.3569    6.1600   -0.4386 C   0  0  0  0  0  0  0  0  0  0  0  0
   12.6508    7.5176   -0.7117 C   0  0  0  0  0  0  0  0  0  0  0  0
   12.0313    9.3974   -1.5817 H   0  0  0  0  0  0  0  0  0  0  0  0
    9.7744    8.5170   -2.3951 H   0  0  0  0  0  0  0  0  0  0  0  0
   10.5991    3.8892   -0.5883 H   0  0  0  0  0  0  0  0  0  0  0  0
   13.0509    5.5129    0.0913 H   0  0  0  0  0  0  0  0  0  0  0  0
    7.9137    6.0464   -2.5339 N   0  0  0  0  0  0  0  0  0  0  0  0
    6.9186    5.7800   -2.9298 N   0  0  0  0  0  0  0  0  0  0  0  0
   13.8126    8.1308   -0.3417 O   0  0  0  0  0  0  0  0  0  0  0  0
   14.7878    7.3626    0.3600 C   0  0  0  0  0  0  0  0  0  0  0  0
   15.6205    8.0459    0.5508 H   0  0  0  0  0  0  0  0  0  0  0  0
   15.1387    6.5154   -0.2486 H   0  0  0  0  0  0  0  0  0  0  0  0
   14.3885    6.9927    1.3165 H   0  0  0  0  0  0  0  0  0  0  0  0
    8.4821    2.9879   -1.3290 O   0  0  0  0  0  0  0  0  0  0  0  0
    9.3654    2.4249   -0.7329 C   0  0  0  0  0  0  0  0  0  0  0  0
   10.5248    2.9275   -0.3300 O   0  0  0  0  0  0  0  0  0  0  0  0
    9.2670    0.9303   -0.3232 C   0  0  0  0  0  0  0  0  0  0  0  0
    9.3562    0.7951    1.0196 F   0  0  0  0  0  0  0  0  0  0  0  0
    8.1028    0.4009   -0.7205 F   0  0  0  0  0  0  0  0  0  0  0  0
   10.2693    0.2139   -0.8813 F   0  0  0  0  0  0  0  0  0  0  0  0
  1  6  2  0  0  0  0
  2  3  2  0  0  0  0
  2  1  1  0  0  0  0
  3  4  1  0  0  0  0
  4  5  2  0  0  0  0
  5 10  1  0  0  0  0
  6  5  1  0  0  0  0
  6 13  1  0  0  0  0
  7  1  1  0  0  0  0
  8  2  1  0  0  0  0
  9 20  1  0  0  0  0
 12 11  3  0  0  0  0
 13 14  1  0  0  0  0
 14 15  1  0  0  0  0
 14 17  1  0  0  0  0
 16 14  1  0  0  0  0
 18 19  2  0  0  0  0
 19 20  1  0  0  0  0
 19 21  1  0  0  0  0
 21 22  1  0  0  0  0
 23 21  1  0  0  0  0
 24 21  1  0  0  0  0
M  RAD  2   3   2   4   2
M  END
