Coordinates from ORCA-job p-CH3O-Ph-N2-OOCCF3-B3LYPG-aug-cc-pVDZ-scan-d09-49-n400
 OpenBabel11081710393D

 24 22  0  0  0  0  0  0  0  0999 V2000
   11.8742    8.3084   -1.3252 C   0  0  0  0  0  0  0  0  0  0  0  0
   10.6477    7.7656   -1.7474 C   0  0  0  0  0  0  0  0  0  0  0  0
   10.6254    6.4462   -1.3554 C   0  0  0  0  0  0  0  0  0  0  0  0
   11.4111    5.6799   -0.7449 C   0  0  0  0  0  0  0  0  0  0  0  0
   12.6507    6.1782   -0.3029 C   0  0  0  0  0  0  0  0  0  0  0  0
   12.8489    7.5439   -0.6247 C   0  0  0  0  0  0  0  0  0  0  0  0
   12.1011    9.3535   -1.5354 H   0  0  0  0  0  0  0  0  0  0  0  0
    9.8887    8.3285   -2.2830 H   0  0  0  0  0  0  0  0  0  0  0  0
   10.7125    3.7732   -0.4979 H   0  0  0  0  0  0  0  0  0  0  0  0
   13.3897    5.5881    0.2314 H   0  0  0  0  0  0  0  0  0  0  0  0
    6.5210    6.0642   -3.2072 N   0  0  0  0  0  0  0  0  0  0  0  0
    5.6472    5.4276   -3.4320 N   0  0  0  0  0  0  0  0  0  0  0  0
   13.9762    8.2400   -0.2968 O   0  0  0  0  0  0  0  0  0  0  0  0
   15.0109    7.5572    0.4074 C   0  0  0  0  0  0  0  0  0  0  0  0
   15.8019    8.2971    0.5606 H   0  0  0  0  0  0  0  0  0  0  0  0
   15.4036    6.7153   -0.1828 H   0  0  0  0  0  0  0  0  0  0  0  0
   14.6536    7.1929    1.3825 H   0  0  0  0  0  0  0  0  0  0  0  0
    8.5657    3.0785   -1.3158 O   0  0  0  0  0  0  0  0  0  0  0  0
    9.3828    2.4227   -0.7236 C   0  0  0  0  0  0  0  0  0  0  0  0
   10.5704    2.8201   -0.2751 O   0  0  0  0  0  0  0  0  0  0  0  0
    9.1616    0.9271   -0.3730 C   0  0  0  0  0  0  0  0  0  0  0  0
    9.2068    0.7382    0.9651 F   0  0  0  0  0  0  0  0  0  0  0  0
    7.9710    0.5048   -0.8163 F   0  0  0  0  0  0  0  0  0  0  0  0
   10.1205    0.1575   -0.9356 F   0  0  0  0  0  0  0  0  0  0  0  0
  1  6  2  0  0  0  0
  2  3  2  0  0  0  0
  2  1  1  0  0  0  0
  3  4  1  0  0  0  0
  4  5  2  0  0  0  0
  5 10  1  0  0  0  0
  6  5  1  0  0  0  0
  6 13  1  0  0  0  0
  7  1  1  0  0  0  0
  8  2  1  0  0  0  0
  9 20  1  0  0  0  0
 12 11  3  0  0  0  0
 13 14  1  0  0  0  0
 14 15  1  0  0  0  0
 14 17  1  0  0  0  0
 16 14  1  0  0  0  0
 18 19  2  0  0  0  0
 19 21  1  0  0  0  0
 19 20  1  0  0  0  0
 21 22  1  0  0  0  0
 23 21  1  0  0  0  0
 24 21  1  0  0  0  0
M  RAD  2   3   2   4   2
M  END
