Coordinates from ORCA-job p-CH3O-Ph-N2-OOCCF3-B3LYPG-aug-cc-pVDZ-scan-d09-49-n400
 OpenBabel11081710393D

 24 22  0  0  0  0  0  0  0  0999 V2000
   11.7503    8.3298   -1.5399 C   0  0  0  0  0  0  0  0  0  0  0  0
   10.5151    7.8234   -1.9521 C   0  0  0  0  0  0  0  0  0  0  0  0
   10.3218    6.5146   -1.5941 C   0  0  0  0  0  0  0  0  0  0  0  0
   11.1058    5.6260   -0.9203 C   0  0  0  0  0  0  0  0  0  0  0  0
   12.3395    6.1789   -0.5250 C   0  0  0  0  0  0  0  0  0  0  0  0
   12.6586    7.5149   -0.8308 C   0  0  0  0  0  0  0  0  0  0  0  0
   12.0230    9.3601   -1.7629 H   0  0  0  0  0  0  0  0  0  0  0  0
    9.7871    8.4148   -2.4998 H   0  0  0  0  0  0  0  0  0  0  0  0
   10.7993    4.6011   -0.7140 H   0  0  0  0  0  0  0  0  0  0  0  0
   13.0279    5.5384    0.0201 H   0  0  0  0  0  0  0  0  0  0  0  0
    8.6062    5.8083   -2.1699 N   0  0  0  0  0  0  0  0  0  0  0  0
    8.0427    4.8359   -2.0868 N   0  0  0  0  0  0  0  0  0  0  0  0
   13.8215    8.1167   -0.4857 O   0  0  0  0  0  0  0  0  0  0  0  0
   14.7989    7.3608    0.2363 C   0  0  0  0  0  0  0  0  0  0  0  0
   15.6355    8.0454    0.3988 H   0  0  0  0  0  0  0  0  0  0  0  0
   15.1383    6.4950   -0.3506 H   0  0  0  0  0  0  0  0  0  0  0  0
   14.4003    7.0274    1.2055 H   0  0  0  0  0  0  0  0  0  0  0  0
    7.3282    2.0832   -1.0669 O   0  0  0  0  0  0  0  0  0  0  0  0
    8.4991    2.3203   -0.8224 C   0  0  0  0  0  0  0  0  0  0  0  0
    9.2071    3.3714   -1.0246 O   0  0  0  0  0  0  0  0  0  0  0  0
    9.3669    1.1962   -0.1460 C   0  0  0  0  0  0  0  0  0  0  0  0
    9.9274    1.6361    1.0149 F   0  0  0  0  0  0  0  0  0  0  0  0
    8.6538    0.0966    0.1469 F   0  0  0  0  0  0  0  0  0  0  0  0
   10.3887    0.8138   -0.9591 F   0  0  0  0  0  0  0  0  0  0  0  0
  1  6  2  0  0  0  0
  2  3  2  0  0  0  0
  2  1  1  0  0  0  0
  3  4  1  0  0  0  0
  4  9  1  0  0  0  0
  4  5  2  0  0  0  0
  5 10  1  0  0  0  0
  6  5  1  0  0  0  0
  6 13  1  0  0  0  0
  7  1  1  0  0  0  0
  8  2  1  0  0  0  0
 11 12  3  0  0  0  0
 13 14  1  0  0  0  0
 14 15  1  0  0  0  0
 14 17  1  0  0  0  0
 16 14  1  0  0  0  0
 18 19  2  0  0  0  0
 19 21  1  0  0  0  0
 20 19  1  0  0  0  0
 21 23  1  0  0  0  0
 21 22  1  0  0  0  0
 24 21  1  0  0  0  0
M  RAD  2   3   2  20   2
M  END
