Coordinates from ORCA-job p-CH3O-Ph-N2-OOCCF3-B3LYPG-aug-cc-pVDZ-scan-d09-49-n400
 OpenBabel11081710393D

 24 22  0  0  0  0  0  0  0  0999 V2000
   11.8812    8.2879   -1.3160 C   0  0  0  0  0  0  0  0  0  0  0  0
   10.6600    7.7274   -1.7306 C   0  0  0  0  0  0  0  0  0  0  0  0
   10.6565    6.4104   -1.3304 C   0  0  0  0  0  0  0  0  0  0  0  0
   11.4542    5.6589   -0.7185 C   0  0  0  0  0  0  0  0  0  0  0  0
   12.6890    6.1736   -0.2834 C   0  0  0  0  0  0  0  0  0  0  0  0
   12.8683    7.5400   -0.6144 C   0  0  0  0  0  0  0  0  0  0  0  0
   12.0943    9.3345   -1.5332 H   0  0  0  0  0  0  0  0  0  0  0  0
    9.8923    8.2778   -2.2668 H   0  0  0  0  0  0  0  0  0  0  0  0
   10.7430    3.7468   -0.4756 H   0  0  0  0  0  0  0  0  0  0  0  0
   13.4372    5.5959    0.2517 H   0  0  0  0  0  0  0  0  0  0  0  0
    6.3132    6.1524   -3.3329 N   0  0  0  0  0  0  0  0  0  0  0  0
    5.4532    5.4926   -3.5436 N   0  0  0  0  0  0  0  0  0  0  0  0
   13.9878    8.2525   -0.2949 O   0  0  0  0  0  0  0  0  0  0  0  0
   15.0336    7.5872    0.4097 C   0  0  0  0  0  0  0  0  0  0  0  0
   15.8155    8.3381    0.5556 H   0  0  0  0  0  0  0  0  0  0  0  0
   15.4350    6.7468   -0.1768 H   0  0  0  0  0  0  0  0  0  0  0  0
   14.6843    7.2244    1.3883 H   0  0  0  0  0  0  0  0  0  0  0  0
    8.5913    3.0762   -1.3026 O   0  0  0  0  0  0  0  0  0  0  0  0
    9.4010    2.4103   -0.7111 C   0  0  0  0  0  0  0  0  0  0  0  0
   10.5915    2.7945   -0.2576 O   0  0  0  0  0  0  0  0  0  0  0  0
    9.1652    0.9153   -0.3677 C   0  0  0  0  0  0  0  0  0  0  0  0
    9.2055    0.7201    0.9696 F   0  0  0  0  0  0  0  0  0  0  0  0
    7.9718    0.5060   -0.8157 F   0  0  0  0  0  0  0  0  0  0  0  0
   10.1183    0.1394   -0.9314 F   0  0  0  0  0  0  0  0  0  0  0  0
  1  6  2  0  0  0  0
  2  3  2  0  0  0  0
  2  1  1  0  0  0  0
  3  4  1  0  0  0  0
  4  5  2  0  0  0  0
  5 10  1  0  0  0  0
  6 13  1  0  0  0  0
  6  5  1  0  0  0  0
  7  1  1  0  0  0  0
  8  2  1  0  0  0  0
  9 20  1  0  0  0  0
 12 11  3  0  0  0  0
 13 14  1  0  0  0  0
 14 15  1  0  0  0  0
 14 17  1  0  0  0  0
 16 14  1  0  0  0  0
 18 19  2  0  0  0  0
 19 21  1  0  0  0  0
 19 20  1  0  0  0  0
 21 22  1  0  0  0  0
 23 21  1  0  0  0  0
 24 21  1  0  0  0  0
M  RAD  2   3   2   4   2
M  END
