Coordinates from ORCA-job p-CH3O-Ph-N2-OOCCF3-B3LYPG-aug-cc-pVDZ-scan-d09-49-n400
 OpenBabel11081710393D

 24 22  0  0  0  0  0  0  0  0999 V2000
   11.8693    8.3172   -1.3301 C   0  0  0  0  0  0  0  0  0  0  0  0
   10.6401    7.7830   -1.7561 C   0  0  0  0  0  0  0  0  0  0  0  0
   10.6117    6.4638   -1.3670 C   0  0  0  0  0  0  0  0  0  0  0  0
   11.3889    5.6883   -0.7578 C   0  0  0  0  0  0  0  0  0  0  0  0
   12.6308    6.1790   -0.3125 C   0  0  0  0  0  0  0  0  0  0  0  0
   12.8380    7.5445   -0.6300 C   0  0  0  0  0  0  0  0  0  0  0  0
   12.1029    9.3616   -1.5370 H   0  0  0  0  0  0  0  0  0  0  0  0
    9.8852    8.3517   -2.2914 H   0  0  0  0  0  0  0  0  0  0  0  0
   10.6973    3.7859   -0.5089 H   0  0  0  0  0  0  0  0  0  0  0  0
   13.3653    5.5829    0.2215 H   0  0  0  0  0  0  0  0  0  0  0  0
    6.6152    6.0432   -3.1559 N   0  0  0  0  0  0  0  0  0  0  0  0
    5.7325    5.4227   -3.3900 N   0  0  0  0  0  0  0  0  0  0  0  0
   13.9691    8.2326   -0.2980 O   0  0  0  0  0  0  0  0  0  0  0  0
   14.9982    7.5412    0.4059 C   0  0  0  0  0  0  0  0  0  0  0  0
   15.7935    8.2757    0.5627 H   0  0  0  0  0  0  0  0  0  0  0  0
   15.3867    6.6986   -0.1860 H   0  0  0  0  0  0  0  0  0  0  0  0
   14.6369    7.1763    1.3794 H   0  0  0  0  0  0  0  0  0  0  0  0
    8.5516    3.0712   -1.3205 O   0  0  0  0  0  0  0  0  0  0  0  0
    9.3757    2.4245   -0.7276 C   0  0  0  0  0  0  0  0  0  0  0  0
   10.5613    2.8323   -0.2831 O   0  0  0  0  0  0  0  0  0  0  0  0
    9.1670    0.9285   -0.3709 C   0  0  0  0  0  0  0  0  0  0  0  0
    9.2164    0.7450    0.9678 F   0  0  0  0  0  0  0  0  0  0  0  0
    7.9788    0.4951   -0.8101 F   0  0  0  0  0  0  0  0  0  0  0  0
   10.1307    0.1642   -0.9326 F   0  0  0  0  0  0  0  0  0  0  0  0
  1  6  2  0  0  0  0
  2  3  2  0  0  0  0
  2  1  1  0  0  0  0
  3  4  1  0  0  0  0
  4  5  2  0  0  0  0
  5 10  1  0  0  0  0
  6  5  1  0  0  0  0
  6 13  1  0  0  0  0
  7  1  1  0  0  0  0
  8  2  1  0  0  0  0
  9 20  1  0  0  0  0
 12 11  3  0  0  0  0
 13 14  1  0  0  0  0
 14 15  1  0  0  0  0
 14 17  1  0  0  0  0
 16 14  1  0  0  0  0
 18 19  2  0  0  0  0
 19 21  1  0  0  0  0
 19 20  1  0  0  0  0
 21 22  1  0  0  0  0
 23 21  1  0  0  0  0
 24 21  1  0  0  0  0
M  RAD  2   3   2   4   2
M  END
