Coordinates from ORCA-job p-CH3O-Ph-N2-OOCCF3-B3LYPG-aug-cc-pVDZ-scan-d09-49-n400
 OpenBabel11081710393D

 24 22  0  0  0  0  0  0  0  0999 V2000
   11.7470    8.3637   -1.4029 C   0  0  0  0  0  0  0  0  0  0  0  0
   10.4989    7.9053   -1.8613 C   0  0  0  0  0  0  0  0  0  0  0  0
   10.3993    6.5846   -1.5064 C   0  0  0  0  0  0  0  0  0  0  0  0
   11.1014    5.7257   -0.9080 C   0  0  0  0  0  0  0  0  0  0  0  0
   12.3613    6.1607   -0.4366 C   0  0  0  0  0  0  0  0  0  0  0  0
   12.6561    7.5182   -0.7093 C   0  0  0  0  0  0  0  0  0  0  0  0
   12.0388    9.3990   -1.5786 H   0  0  0  0  0  0  0  0  0  0  0  0
    9.7821    8.5234   -2.3934 H   0  0  0  0  0  0  0  0  0  0  0  0
   10.5958    3.8869   -0.5891 H   0  0  0  0  0  0  0  0  0  0  0  0
   13.0534    5.5116    0.0930 H   0  0  0  0  0  0  0  0  0  0  0  0
    7.8650    6.0611   -2.5618 N   0  0  0  0  0  0  0  0  0  0  0  0
    6.8730    5.7703   -2.9486 N   0  0  0  0  0  0  0  0  0  0  0  0
   13.8185    8.1298   -0.3386 O   0  0  0  0  0  0  0  0  0  0  0  0
   14.7926    7.3603    0.3630 C   0  0  0  0  0  0  0  0  0  0  0  0
   15.6260    8.0426    0.5543 H   0  0  0  0  0  0  0  0  0  0  0  0
   15.1428    6.5130   -0.2459 H   0  0  0  0  0  0  0  0  0  0  0  0
   14.3926    6.9903    1.3192 H   0  0  0  0  0  0  0  0  0  0  0  0
    8.4851    2.9844   -1.3265 O   0  0  0  0  0  0  0  0  0  0  0  0
    9.3682    2.4216   -0.7306 C   0  0  0  0  0  0  0  0  0  0  0  0
   10.5276    2.9268   -0.3285 O   0  0  0  0  0  0  0  0  0  0  0  0
    9.2721    0.9274   -0.3199 C   0  0  0  0  0  0  0  0  0  0  0  0
    9.3622    0.7935    1.0228 F   0  0  0  0  0  0  0  0  0  0  0  0
    8.1084    0.3964   -0.7164 F   0  0  0  0  0  0  0  0  0  0  0  0
   10.2751    0.2122   -0.8781 F   0  0  0  0  0  0  0  0  0  0  0  0
  1  6  2  0  0  0  0
  2  3  2  0  0  0  0
  2  1  1  0  0  0  0
  3  4  1  0  0  0  0
  4  5  2  0  0  0  0
  5 10  1  0  0  0  0
  6  5  1  0  0  0  0
  6 13  1  0  0  0  0
  7  1  1  0  0  0  0
  8  2  1  0  0  0  0
  9 20  1  0  0  0  0
 12 11  3  0  0  0  0
 13 14  1  0  0  0  0
 14 15  1  0  0  0  0
 14 17  1  0  0  0  0
 16 14  1  0  0  0  0
 18 19  2  0  0  0  0
 19 20  1  0  0  0  0
 19 21  1  0  0  0  0
 21 22  1  0  0  0  0
 23 21  1  0  0  0  0
 24 21  1  0  0  0  0
M  RAD  2   3   2   4   2
M  END
