Coordinates from ORCA-job p-CH3O-Ph-N2-OOCCF3-B3LYPG-aug-cc-pVDZ-scan-d09-49-n400
 OpenBabel11081710393D

 24 22  0  0  0  0  0  0  0  0999 V2000
   11.6817    8.3464   -1.4269 C   0  0  0  0  0  0  0  0  0  0  0  0
   10.4396    7.8772   -1.8795 C   0  0  0  0  0  0  0  0  0  0  0  0
   10.3305    6.5562   -1.5310 C   0  0  0  0  0  0  0  0  0  0  0  0
   11.0160    5.6595   -0.9306 C   0  0  0  0  0  0  0  0  0  0  0  0
   12.2721    6.1436   -0.4758 C   0  0  0  0  0  0  0  0  0  0  0  0
   12.5840    7.4957   -0.7366 C   0  0  0  0  0  0  0  0  0  0  0  0
   11.9692    9.3822   -1.6035 H   0  0  0  0  0  0  0  0  0  0  0  0
    9.7198    8.4932   -2.4112 H   0  0  0  0  0  0  0  0  0  0  0  0
   10.6396    3.9555   -0.5926 H   0  0  0  0  0  0  0  0  0  0  0  0
   12.9660    5.4941    0.0535 H   0  0  0  0  0  0  0  0  0  0  0  0
    8.3390    5.9896   -2.3128 N   0  0  0  0  0  0  0  0  0  0  0  0
    7.3366    5.8021   -2.7341 N   0  0  0  0  0  0  0  0  0  0  0  0
   13.7488    8.0976   -0.3614 O   0  0  0  0  0  0  0  0  0  0  0  0
   14.7173    7.3186    0.3388 C   0  0  0  0  0  0  0  0  0  0  0  0
   15.5544    7.9951    0.5345 H   0  0  0  0  0  0  0  0  0  0  0  0
   15.0629    6.4719   -0.2731 H   0  0  0  0  0  0  0  0  0  0  0  0
   14.3130    6.9469    1.2924 H   0  0  0  0  0  0  0  0  0  0  0  0
    8.5142    3.0581   -1.3351 O   0  0  0  0  0  0  0  0  0  0  0  0
    9.3961    2.4844   -0.7400 C   0  0  0  0  0  0  0  0  0  0  0  0
   10.5522    2.9720   -0.3353 O   0  0  0  0  0  0  0  0  0  0  0  0
    9.2719    0.9892   -0.3379 C   0  0  0  0  0  0  0  0  0  0  0  0
    9.3430    0.8471    1.0059 F   0  0  0  0  0  0  0  0  0  0  0  0
    8.1051    0.4738   -0.7496 F   0  0  0  0  0  0  0  0  0  0  0  0
   10.2702    0.2591   -0.8861 F   0  0  0  0  0  0  0  0  0  0  0  0
  1  6  2  0  0  0  0
  2  3  2  0  0  0  0
  2  1  1  0  0  0  0
  3  4  1  0  0  0  0
  4  5  2  0  0  0  0
  5 10  1  0  0  0  0
  6  5  1  0  0  0  0
  6 13  1  0  0  0  0
  7  1  1  0  0  0  0
  8  2  1  0  0  0  0
  9 20  1  0  0  0  0
 12 11  3  0  0  0  0
 13 14  1  0  0  0  0
 14 15  1  0  0  0  0
 14 17  1  0  0  0  0
 16 14  1  0  0  0  0
 18 19  2  0  0  0  0
 19 21  1  0  0  0  0
 19 20  1  0  0  0  0
 21 22  1  0  0  0  0
 23 21  1  0  0  0  0
 24 21  1  0  0  0  0
M  RAD  2   3   2   4   2
M  END
