Coordinates from ORCA-job p-CH3O-Ph-N2-OOCCF3-B3LYPG-aug-cc-pVDZ-scan-d09-49-n400
 OpenBabel11081710393D

 24 22  0  0  0  0  0  0  0  0999 V2000
   11.7999    8.3647   -1.3779 C   0  0  0  0  0  0  0  0  0  0  0  0
   10.5542    7.8950   -1.8318 C   0  0  0  0  0  0  0  0  0  0  0  0
   10.4642    6.5722   -1.4712 C   0  0  0  0  0  0  0  0  0  0  0  0
   11.1881    5.7380   -0.8696 C   0  0  0  0  0  0  0  0  0  0  0  0
   12.4451    6.1723   -0.3996 C   0  0  0  0  0  0  0  0  0  0  0  0
   12.7210    7.5327   -0.6825 C   0  0  0  0  0  0  0  0  0  0  0  0
   12.0830    9.4015   -1.5586 H   0  0  0  0  0  0  0  0  0  0  0  0
    9.8315    8.5057   -2.3646 H   0  0  0  0  0  0  0  0  0  0  0  0
   10.6049    3.8569   -0.5753 H   0  0  0  0  0  0  0  0  0  0  0  0
   13.1447    5.5325    0.1310 H   0  0  0  0  0  0  0  0  0  0  0  0
    7.4244    6.0610   -2.7730 N   0  0  0  0  0  0  0  0  0  0  0  0
    6.4615    5.6353   -3.1048 N   0  0  0  0  0  0  0  0  0  0  0  0
   13.8777    8.1599   -0.3195 O   0  0  0  0  0  0  0  0  0  0  0  0
   14.8633    7.4060    0.3828 C   0  0  0  0  0  0  0  0  0  0  0  0
   15.6893    8.0989    0.5671 H   0  0  0  0  0  0  0  0  0  0  0  0
   15.2210    6.5593   -0.2227 H   0  0  0  0  0  0  0  0  0  0  0  0
   14.4711    7.0370    1.3426 H   0  0  0  0  0  0  0  0  0  0  0  0
    8.4897    2.9872   -1.3249 O   0  0  0  0  0  0  0  0  0  0  0  0
    9.3628    2.4102   -0.7296 C   0  0  0  0  0  0  0  0  0  0  0  0
   10.5282    2.9012   -0.3202 O   0  0  0  0  0  0  0  0  0  0  0  0
    9.2507    0.9152   -0.3267 C   0  0  0  0  0  0  0  0  0  0  0  0
    9.3353    0.7742    1.0156 F   0  0  0  0  0  0  0  0  0  0  0  0
    8.0831    0.3987   -0.7297 F   0  0  0  0  0  0  0  0  0  0  0  0
   10.2484    0.1933   -0.8853 F   0  0  0  0  0  0  0  0  0  0  0  0
  1  6  2  0  0  0  0
  2  3  2  0  0  0  0
  2  1  1  0  0  0  0
  3  4  1  0  0  0  0
  4  5  2  0  0  0  0
  5 10  1  0  0  0  0
  6  5  1  0  0  0  0
  6 13  1  0  0  0  0
  7  1  1  0  0  0  0
  8  2  1  0  0  0  0
  9 20  1  0  0  0  0
 12 11  3  0  0  0  0
 13 14  1  0  0  0  0
 14 15  1  0  0  0  0
 14 17  1  0  0  0  0
 16 14  1  0  0  0  0
 18 19  2  0  0  0  0
 19 21  1  0  0  0  0
 19 20  1  0  0  0  0
 21 22  1  0  0  0  0
 23 21  1  0  0  0  0
 24 21  1  0  0  0  0
M  RAD  2   3   2   4   2
M  END
