Coordinates from ORCA-job p-CH3O-Ph-N2-OOCCF3-B3LYPG-aug-cc-pVDZ-scan-d09-49-n400
 OpenBabel11081710393D

 24 22  0  0  0  0  0  0  0  0999 V2000
   11.8161    8.3618   -1.3693 C   0  0  0  0  0  0  0  0  0  0  0  0
   10.5718    7.8859   -1.8205 C   0  0  0  0  0  0  0  0  0  0  0  0
   10.4874    6.5630   -1.4571 C   0  0  0  0  0  0  0  0  0  0  0  0
   11.2181    5.7362   -0.8544 C   0  0  0  0  0  0  0  0  0  0  0  0
   12.4737    6.1747   -0.3864 C   0  0  0  0  0  0  0  0  0  0  0  0
   12.7423    7.5358   -0.6732 C   0  0  0  0  0  0  0  0  0  0  0  0
   12.0944    9.3995   -1.5527 H   0  0  0  0  0  0  0  0  0  0  0  0
    9.8460    8.4926   -2.3536 H   0  0  0  0  0  0  0  0  0  0  0  0
   10.6166    3.8499   -0.5673 H   0  0  0  0  0  0  0  0  0  0  0  0
   13.1767    5.5391    0.1446 H   0  0  0  0  0  0  0  0  0  0  0  0
    7.2738    6.0507   -2.8420 N   0  0  0  0  0  0  0  0  0  0  0  0
    6.3251    5.5800   -3.1533 N   0  0  0  0  0  0  0  0  0  0  0  0
   13.8965    8.1695   -0.3135 O   0  0  0  0  0  0  0  0  0  0  0  0
   14.8868    7.4220    0.3890 C   0  0  0  0  0  0  0  0  0  0  0  0
   15.7098    8.1194    0.5704 H   0  0  0  0  0  0  0  0  0  0  0  0
   15.2476    6.5757   -0.2150 H   0  0  0  0  0  0  0  0  0  0  0  0
   14.4978    7.0535    1.3504 H   0  0  0  0  0  0  0  0  0  0  0  0
    8.4976    2.9994   -1.3249 O   0  0  0  0  0  0  0  0  0  0  0  0
    9.3647    2.4135   -0.7297 C   0  0  0  0  0  0  0  0  0  0  0  0
   10.5330    2.8944   -0.3157 O   0  0  0  0  0  0  0  0  0  0  0  0
    9.2409    0.9180   -0.3323 C   0  0  0  0  0  0  0  0  0  0  0  0
    9.3211    0.7719    1.0096 F   0  0  0  0  0  0  0  0  0  0  0  0
    8.0707    0.4113   -0.7401 F   0  0  0  0  0  0  0  0  0  0  0  0
   10.2349    0.1911   -0.8910 F   0  0  0  0  0  0  0  0  0  0  0  0
  1  6  2  0  0  0  0
  2  3  2  0  0  0  0
  2  1  1  0  0  0  0
  3  4  1  0  0  0  0
  4  5  2  0  0  0  0
  5 10  1  0  0  0  0
  6  5  1  0  0  0  0
  6 13  1  0  0  0  0
  7  1  1  0  0  0  0
  8  2  1  0  0  0  0
  9 20  1  0  0  0  0
 12 11  3  0  0  0  0
 13 14  1  0  0  0  0
 14 15  1  0  0  0  0
 14 17  1  0  0  0  0
 16 14  1  0  0  0  0
 18 19  2  0  0  0  0
 19 21  1  0  0  0  0
 19 20  1  0  0  0  0
 21 22  1  0  0  0  0
 23 21  1  0  0  0  0
 24 21  1  0  0  0  0
M  RAD  2   3   2   4   2
M  END
