Coordinates from ORCA-job p-CH3O-Ph-N2-OOCCF3-B3LYPG-aug-cc-pVDZ-scan-d09-49-n400
 OpenBabel11081710393D

 24 23  0  0  0  0  0  0  0  0999 V2000
   11.6790    8.2571   -1.5530 C   0  0  0  0  0  0  0  0  0  0  0  0
   10.4802    7.6793   -1.9104 C   0  0  0  0  0  0  0  0  0  0  0  0
   10.2084    6.3290   -1.5643 C   0  0  0  0  0  0  0  0  0  0  0  0
   11.1772    5.5749   -0.8485 C   0  0  0  0  0  0  0  0  0  0  0  0
   12.3804    6.1627   -0.4927 C   0  0  0  0  0  0  0  0  0  0  0  0
   12.6415    7.5049   -0.8405 C   0  0  0  0  0  0  0  0  0  0  0  0
   11.9068    9.2903   -1.8083 H   0  0  0  0  0  0  0  0  0  0  0  0
    9.7295    8.2465   -2.4593 H   0  0  0  0  0  0  0  0  0  0  0  0
   10.9400    4.5419   -0.5975 H   0  0  0  0  0  0  0  0  0  0  0  0
   13.1104    5.5723    0.0542 H   0  0  0  0  0  0  0  0  0  0  0  0
    9.0898    5.8042   -1.9023 N   0  0  0  0  0  0  0  0  0  0  0  0
    8.3112    4.9633   -1.9659 N   0  0  0  0  0  0  0  0  0  0  0  0
   13.7758    8.1583   -0.5400 O   0  0  0  0  0  0  0  0  0  0  0  0
   14.8106    7.4742    0.1827 C   0  0  0  0  0  0  0  0  0  0  0  0
   15.6126    8.2072    0.3006 H   0  0  0  0  0  0  0  0  0  0  0  0
   15.1768    6.6097   -0.3878 H   0  0  0  0  0  0  0  0  0  0  0  0
   14.4494    7.1548    1.1698 H   0  0  0  0  0  0  0  0  0  0  0  0
    7.2867    2.1723   -1.2144 O   0  0  0  0  0  0  0  0  0  0  0  0
    8.4468    2.3553   -0.8885 C   0  0  0  0  0  0  0  0  0  0  0  0
    9.1949    3.3966   -1.0141 O   0  0  0  0  0  0  0  0  0  0  0  0
    9.2343    1.1864   -0.2016 C   0  0  0  0  0  0  0  0  0  0  0  0
    9.7197    1.5642    1.0142 F   0  0  0  0  0  0  0  0  0  0  0  0
    8.4763    0.0947   -0.0068 F   0  0  0  0  0  0  0  0  0  0  0  0
   10.3047    0.8088   -0.9537 F   0  0  0  0  0  0  0  0  0  0  0  0
  1  6  2  0  0  0  0
  2  3  2  0  0  0  0
  2  1  1  0  0  0  0
  3  4  1  0  0  0  0
  4  9  1  0  0  0  0
  4  5  2  0  0  0  0
  5 10  1  0  0  0  0
  6 13  1  0  0  0  0
  6  5  1  0  0  0  0
  7  1  1  0  0  0  0
  8  2  1  0  0  0  0
 11  3  1  0  0  0  0
 12 11  1  0  0  0  0
 13 14  1  0  0  0  0
 14 15  1  0  0  0  0
 14 17  1  0  0  0  0
 16 14  1  0  0  0  0
 18 19  2  0  0  0  0
 19 21  1  0  0  0  0
 20 19  1  0  0  0  0
 21 23  1  0  0  0  0
 21 22  1  0  0  0  0
 24 21  1  0  0  0  0
M  RAD  3  11   2  12   3  20   2
M  END
