Coordinates from ORCA-job p-CH3O-Ph-N2-OOCCF3-B3LYPG-aug-cc-pVDZ-scan-d09-49-n400
 OpenBabel11081710393D

 24 22  0  0  0  0  0  0  0  0999 V2000
   11.8073    8.3627   -1.3738 C   0  0  0  0  0  0  0  0  0  0  0  0
   10.5624    7.8896   -1.8261 C   0  0  0  0  0  0  0  0  0  0  0  0
   10.4755    6.5668   -1.4640 C   0  0  0  0  0  0  0  0  0  0  0  0
   11.2031    5.7366   -0.8619 C   0  0  0  0  0  0  0  0  0  0  0  0
   12.4594    6.1732   -0.3929 C   0  0  0  0  0  0  0  0  0  0  0  0
   12.7313    7.5340   -0.6779 C   0  0  0  0  0  0  0  0  0  0  0  0
   12.0878    9.4001   -1.5559 H   0  0  0  0  0  0  0  0  0  0  0  0
    9.8380    8.4981   -2.3591 H   0  0  0  0  0  0  0  0  0  0  0  0
   10.6104    3.8535   -0.5715 H   0  0  0  0  0  0  0  0  0  0  0  0
   13.1608    5.5357    0.1379 H   0  0  0  0  0  0  0  0  0  0  0  0
    7.3534    6.0552   -2.8053 N   0  0  0  0  0  0  0  0  0  0  0  0
    6.3962    5.6107   -3.1287 N   0  0  0  0  0  0  0  0  0  0  0  0
   13.8865    8.1648   -0.3167 O   0  0  0  0  0  0  0  0  0  0  0  0
   14.8747    7.4144    0.3856 C   0  0  0  0  0  0  0  0  0  0  0  0
   15.6991    8.1098    0.5683 H   0  0  0  0  0  0  0  0  0  0  0  0
   15.2342    6.5679   -0.2190 H   0  0  0  0  0  0  0  0  0  0  0  0
   14.4843    7.0456    1.3463 H   0  0  0  0  0  0  0  0  0  0  0  0
    8.4932    2.9933   -1.3251 O   0  0  0  0  0  0  0  0  0  0  0  0
    9.3634    2.4119   -0.7298 C   0  0  0  0  0  0  0  0  0  0  0  0
   10.5302    2.8979   -0.3182 O   0  0  0  0  0  0  0  0  0  0  0  0
    9.2456    0.9167   -0.3296 C   0  0  0  0  0  0  0  0  0  0  0  0
    9.3281    0.7732    1.0125 F   0  0  0  0  0  0  0  0  0  0  0  0
    8.0767    0.4049   -0.7349 F   0  0  0  0  0  0  0  0  0  0  0  0
   10.2415    0.1924   -0.8883 F   0  0  0  0  0  0  0  0  0  0  0  0
  1  6  2  0  0  0  0
  2  3  2  0  0  0  0
  2  1  1  0  0  0  0
  3  4  1  0  0  0  0
  4  5  2  0  0  0  0
  5 10  1  0  0  0  0
  6  5  1  0  0  0  0
  6 13  1  0  0  0  0
  7  1  1  0  0  0  0
  8  2  1  0  0  0  0
  9 20  1  0  0  0  0
 12 11  3  0  0  0  0
 13 14  1  0  0  0  0
 14 15  1  0  0  0  0
 14 17  1  0  0  0  0
 16 14  1  0  0  0  0
 18 19  2  0  0  0  0
 19 21  1  0  0  0  0
 19 20  1  0  0  0  0
 21 22  1  0  0  0  0
 23 21  1  0  0  0  0
 24 21  1  0  0  0  0
M  RAD  2   3   2   4   2
M  END
