Coordinates from ORCA-job p-CH3O-Ph-N2-OOCCF3-B3LYPG-aug-cc-pVDZ-scan-d09-49-n400
 OpenBabel11081710393D

 24 23  0  0  0  0  0  0  0  0999 V2000
   11.7098    8.2729   -1.5471 C   0  0  0  0  0  0  0  0  0  0  0  0
   10.4973    7.7067   -1.9192 C   0  0  0  0  0  0  0  0  0  0  0  0
   10.2827    6.3836   -1.5553 C   0  0  0  0  0  0  0  0  0  0  0  0
   11.1709    5.5821   -0.8577 C   0  0  0  0  0  0  0  0  0  0  0  0
   12.3856    6.1721   -0.4935 C   0  0  0  0  0  0  0  0  0  0  0  0
   12.6580    7.5103   -0.8340 C   0  0  0  0  0  0  0  0  0  0  0  0
   11.9456    9.3055   -1.7980 H   0  0  0  0  0  0  0  0  0  0  0  0
    9.7474    8.2698   -2.4697 H   0  0  0  0  0  0  0  0  0  0  0  0
   10.9247    4.5535   -0.6127 H   0  0  0  0  0  0  0  0  0  0  0  0
   13.1062    5.5719    0.0553 H   0  0  0  0  0  0  0  0  0  0  0  0
    8.8235    5.7722   -2.0304 N   0  0  0  0  0  0  0  0  0  0  0  0
    8.2030    4.8116   -1.9747 N   0  0  0  0  0  0  0  0  0  0  0  0
   13.8045    8.1573   -0.5216 O   0  0  0  0  0  0  0  0  0  0  0  0
   14.8188    7.4536    0.2020 C   0  0  0  0  0  0  0  0  0  0  0  0
   15.6334    8.1706    0.3340 H   0  0  0  0  0  0  0  0  0  0  0  0
   15.1789    6.5858   -0.3693 H   0  0  0  0  0  0  0  0  0  0  0  0
   14.4476    7.1303    1.1852 H   0  0  0  0  0  0  0  0  0  0  0  0
    7.2780    2.1578   -1.1666 O   0  0  0  0  0  0  0  0  0  0  0  0
    8.4397    2.3553   -0.8725 C   0  0  0  0  0  0  0  0  0  0  0  0
    9.1782    3.4100   -1.0223 O   0  0  0  0  0  0  0  0  0  0  0  0
    9.2713    1.2090   -0.1990 C   0  0  0  0  0  0  0  0  0  0  0  0
    9.7843    1.6101    0.9952 F   0  0  0  0  0  0  0  0  0  0  0  0
    8.5332    0.1119    0.0263 F   0  0  0  0  0  0  0  0  0  0  0  0
   10.3206    0.8449   -0.9826 F   0  0  0  0  0  0  0  0  0  0  0  0
  1  6  2  0  0  0  0
  2  3  2  0  0  0  0
  2  1  1  0  0  0  0
  3  4  1  0  0  0  0
  4  9  1  0  0  0  0
  4  5  2  0  0  0  0
  5 10  1  0  0  0  0
  6 13  1  0  0  0  0
  6  5  1  0  0  0  0
  7  1  1  0  0  0  0
  8  2  1  0  0  0  0
 11 12  2  0  0  0  0
 11  3  1  0  0  0  0
 13 14  1  0  0  0  0
 14 15  1  0  0  0  0
 14 17  1  0  0  0  0
 16 14  1  0  0  0  0
 18 19  2  0  0  0  0
 19 21  1  0  0  0  0
 20 19  1  0  0  0  0
 21 23  1  0  0  0  0
 21 22  1  0  0  0  0
 24 21  1  0  0  0  0
M  RAD  2  12   2  20   2
M  END
