Coordinates from ORCA-job p-CH3O-Ph-N2-OOCCF3-B3LYPG-aug-cc-pVDZ-scan-d09-49-n400
 OpenBabel11081710393D

 24 22  0  0  0  0  0  0  0  0999 V2000
   11.7740    8.3691   -1.3916 C   0  0  0  0  0  0  0  0  0  0  0  0
   10.5256    7.9112   -1.8503 C   0  0  0  0  0  0  0  0  0  0  0  0
   10.4249    6.5888   -1.4953 C   0  0  0  0  0  0  0  0  0  0  0  0
   11.1349    5.7393   -0.8958 C   0  0  0  0  0  0  0  0  0  0  0  0
   12.3946    6.1670   -0.4224 C   0  0  0  0  0  0  0  0  0  0  0  0
   12.6851    7.5255   -0.6976 C   0  0  0  0  0  0  0  0  0  0  0  0
   12.0661    9.4043   -1.5673 H   0  0  0  0  0  0  0  0  0  0  0  0
    9.8091    8.5296   -2.3824 H   0  0  0  0  0  0  0  0  0  0  0  0
   10.5912    3.8748   -0.5875 H   0  0  0  0  0  0  0  0  0  0  0  0
   13.0874    5.5189    0.1073 H   0  0  0  0  0  0  0  0  0  0  0  0
    7.6604    6.0704   -2.6628 N   0  0  0  0  0  0  0  0  0  0  0  0
    6.6800    5.7150   -3.0245 N   0  0  0  0  0  0  0  0  0  0  0  0
   13.8465    8.1400   -0.3283 O   0  0  0  0  0  0  0  0  0  0  0  0
   14.8228    7.3734    0.3734 C   0  0  0  0  0  0  0  0  0  0  0  0
   15.6548    8.0576    0.5635 H   0  0  0  0  0  0  0  0  0  0  0  0
   15.1743    6.5262   -0.2348 H   0  0  0  0  0  0  0  0  0  0  0  0
   14.4242    7.0037    1.3304 H   0  0  0  0  0  0  0  0  0  0  0  0
    8.4825    2.9743   -1.3246 O   0  0  0  0  0  0  0  0  0  0  0  0
    9.3648    2.4114   -0.7290 C   0  0  0  0  0  0  0  0  0  0  0  0
   10.5252    2.9178   -0.3268 O   0  0  0  0  0  0  0  0  0  0  0  0
    9.2709    0.9173   -0.3175 C   0  0  0  0  0  0  0  0  0  0  0  0
    9.3620    0.7845    1.0252 F   0  0  0  0  0  0  0  0  0  0  0  0
    8.1076    0.3853   -0.7132 F   0  0  0  0  0  0  0  0  0  0  0  0
   10.2745    0.2034   -0.8760 F   0  0  0  0  0  0  0  0  0  0  0  0
  1  6  2  0  0  0  0
  2  3  2  0  0  0  0
  2  1  1  0  0  0  0
  3  4  1  0  0  0  0
  4  5  2  0  0  0  0
  5 10  1  0  0  0  0
  6  5  1  0  0  0  0
  6 13  1  0  0  0  0
  7  1  1  0  0  0  0
  8  2  1  0  0  0  0
  9 20  1  0  0  0  0
 12 11  3  0  0  0  0
 13 14  1  0  0  0  0
 14 15  1  0  0  0  0
 14 17  1  0  0  0  0
 16 14  1  0  0  0  0
 18 19  2  0  0  0  0
 19 20  1  0  0  0  0
 19 21  1  0  0  0  0
 21 22  1  0  0  0  0
 23 21  1  0  0  0  0
 24 21  1  0  0  0  0
M  RAD  2   3   2   4   2
M  END
