Coordinates from ORCA-job p-CH3O-Ph-N2-OOCCF3-B3LYPG-aug-cc-pVDZ-scan-d09-49-n400
 OpenBabel11081710393D

 24 22  0  0  0  0  0  0  0  0999 V2000
   11.8383    8.3621   -1.3588 C   0  0  0  0  0  0  0  0  0  0  0  0
   10.5949    7.8827   -1.8084 C   0  0  0  0  0  0  0  0  0  0  0  0
   10.5130    6.5595   -1.4436 C   0  0  0  0  0  0  0  0  0  0  0  0
   11.2485    5.7380   -0.8403 C   0  0  0  0  0  0  0  0  0  0  0  0
   12.5032    6.1780   -0.3732 C   0  0  0  0  0  0  0  0  0  0  0  0
   12.7675    7.5396   -0.6623 C   0  0  0  0  0  0  0  0  0  0  0  0
   12.1139    9.4003   -1.5437 H   0  0  0  0  0  0  0  0  0  0  0  0
    9.8675    8.4875   -2.3418 H   0  0  0  0  0  0  0  0  0  0  0  0
   10.6261    3.8462   -0.5615 H   0  0  0  0  0  0  0  0  0  0  0  0
   13.2081    5.5448    0.1580 H   0  0  0  0  0  0  0  0  0  0  0  0
    7.0803    6.0421   -2.9321 N   0  0  0  0  0  0  0  0  0  0  0  0
    6.1526    5.5155   -3.2164 N   0  0  0  0  0  0  0  0  0  0  0  0
   13.9202    8.1770   -0.3045 O   0  0  0  0  0  0  0  0  0  0  0  0
   14.9132    7.4332    0.3982 C   0  0  0  0  0  0  0  0  0  0  0  0
   15.7344    8.1331    0.5779 H   0  0  0  0  0  0  0  0  0  0  0  0
   15.2759    6.5871   -0.2050 H   0  0  0  0  0  0  0  0  0  0  0  0
   14.5261    7.0649    1.3604 H   0  0  0  0  0  0  0  0  0  0  0  0
    8.5049    3.0075   -1.3237 O   0  0  0  0  0  0  0  0  0  0  0  0
    9.3683    2.4163   -0.7288 C   0  0  0  0  0  0  0  0  0  0  0  0
   10.5384    2.8913   -0.3121 O   0  0  0  0  0  0  0  0  0  0  0  0
    9.2376    0.9205   -0.3347 C   0  0  0  0  0  0  0  0  0  0  0  0
    9.3153    0.7713    1.0070 F   0  0  0  0  0  0  0  0  0  0  0  0
    8.0659    0.4198   -0.7453 F   0  0  0  0  0  0  0  0  0  0  0  0
   10.2293    0.1906   -0.8935 F   0  0  0  0  0  0  0  0  0  0  0  0
  1  6  2  0  0  0  0
  2  3  2  0  0  0  0
  2  1  1  0  0  0  0
  3  4  1  0  0  0  0
  4  5  2  0  0  0  0
  5 10  1  0  0  0  0
  6  5  1  0  0  0  0
  6 13  1  0  0  0  0
  7  1  1  0  0  0  0
  8  2  1  0  0  0  0
  9 20  1  0  0  0  0
 12 11  3  0  0  0  0
 13 14  1  0  0  0  0
 14 15  1  0  0  0  0
 14 17  1  0  0  0  0
 16 14  1  0  0  0  0
 18 19  2  0  0  0  0
 19 21  1  0  0  0  0
 19 20  1  0  0  0  0
 21 22  1  0  0  0  0
 23 21  1  0  0  0  0
 24 21  1  0  0  0  0
M  RAD  2   3   2   4   2
M  END
