Coordinates from ORCA-job p-CH3O-Ph-N2-OOCCF3-B3LYPG-aug-cc-pVDZ-scan-d09-49-n400
 OpenBabel11081710393D

 24 22  0  0  0  0  0  0  0  0999 V2000
   11.6989    8.3521   -1.4232 C   0  0  0  0  0  0  0  0  0  0  0  0
   10.4529    7.8893   -1.8788 C   0  0  0  0  0  0  0  0  0  0  0  0
   10.3501    6.5706   -1.5252 C   0  0  0  0  0  0  0  0  0  0  0  0
   11.0331    5.6818   -0.9264 C   0  0  0  0  0  0  0  0  0  0  0  0
   12.2923    6.1481   -0.4655 C   0  0  0  0  0  0  0  0  0  0  0  0
   12.6013    7.5016   -0.7310 C   0  0  0  0  0  0  0  0  0  0  0  0
   11.9901    9.3871   -1.5999 H   0  0  0  0  0  0  0  0  0  0  0  0
    9.7362    8.5079   -2.4112 H   0  0  0  0  0  0  0  0  0  0  0  0
   10.6277    3.9301   -0.5850 H   0  0  0  0  0  0  0  0  0  0  0  0
   12.9842    5.4978    0.0646 H   0  0  0  0  0  0  0  0  0  0  0  0
    8.2174    6.0083   -2.3752 N   0  0  0  0  0  0  0  0  0  0  0  0
    7.2150    5.8243   -2.7980 N   0  0  0  0  0  0  0  0  0  0  0  0
   13.7665    8.1046   -0.3569 O   0  0  0  0  0  0  0  0  0  0  0  0
   14.7348    7.3270    0.3447 C   0  0  0  0  0  0  0  0  0  0  0  0
   15.5720    8.0037    0.5391 H   0  0  0  0  0  0  0  0  0  0  0  0
   15.0804    6.4791   -0.2657 H   0  0  0  0  0  0  0  0  0  0  0  0
   14.3306    6.9572    1.2991 H   0  0  0  0  0  0  0  0  0  0  0  0
    8.5090    3.0334   -1.3310 O   0  0  0  0  0  0  0  0  0  0  0  0
    9.3883    2.4640   -0.7312 C   0  0  0  0  0  0  0  0  0  0  0  0
   10.5462    2.9568   -0.3262 O   0  0  0  0  0  0  0  0  0  0  0  0
    9.2756    0.9676   -0.3313 C   0  0  0  0  0  0  0  0  0  0  0  0
    9.3535    0.8234    1.0116 F   0  0  0  0  0  0  0  0  0  0  0  0
    8.1105    0.4471   -0.7398 F   0  0  0  0  0  0  0  0  0  0  0  0
   10.2766    0.2460   -0.8857 F   0  0  0  0  0  0  0  0  0  0  0  0
  1  6  2  0  0  0  0
  2  3  2  0  0  0  0
  2  1  1  0  0  0  0
  3  4  1  0  0  0  0
  4  5  2  0  0  0  0
  5 10  1  0  0  0  0
  6  5  1  0  0  0  0
  6 13  1  0  0  0  0
  7  1  1  0  0  0  0
  8  2  1  0  0  0  0
  9 20  1  0  0  0  0
 12 11  3  0  0  0  0
 13 14  1  0  0  0  0
 14 15  1  0  0  0  0
 14 17  1  0  0  0  0
 16 14  1  0  0  0  0
 18 19  2  0  0  0  0
 19 21  1  0  0  0  0
 19 20  1  0  0  0  0
 21 22  1  0  0  0  0
 23 21  1  0  0  0  0
 24 21  1  0  0  0  0
M  RAD  2   3   2   4   2
M  END
