Coordinates from ORCA-job p-CH3O-Ph-N2-OOCCF3-B3LYPG-aug-cc-pVDZ-scan-d09-49-n400
 OpenBabel11081710393D

 24 22  0  0  0  0  0  0  0  0999 V2000
   11.8446    8.3622   -1.3558 C   0  0  0  0  0  0  0  0  0  0  0  0
   10.6013    7.8823   -1.8052 C   0  0  0  0  0  0  0  0  0  0  0  0
   10.5198    6.5591   -1.4403 C   0  0  0  0  0  0  0  0  0  0  0  0
   11.2559    5.7384   -0.8368 C   0  0  0  0  0  0  0  0  0  0  0  0
   12.5105    6.1785   -0.3698 C   0  0  0  0  0  0  0  0  0  0  0  0
   12.7742    7.5402   -0.6593 C   0  0  0  0  0  0  0  0  0  0  0  0
   12.1199    9.4004   -1.5409 H   0  0  0  0  0  0  0  0  0  0  0  0
    9.8737    8.4869   -2.3386 H   0  0  0  0  0  0  0  0  0  0  0  0
   10.6315    3.8458   -0.5588 H   0  0  0  0  0  0  0  0  0  0  0  0
   13.2157    5.5457    0.1614 H   0  0  0  0  0  0  0  0  0  0  0  0
    7.0231    6.0375   -2.9581 N   0  0  0  0  0  0  0  0  0  0  0  0
    6.1023    5.4947   -3.2341 N   0  0  0  0  0  0  0  0  0  0  0  0
   13.9267    8.1781   -0.3017 O   0  0  0  0  0  0  0  0  0  0  0  0
   14.9201    7.4349    0.4010 C   0  0  0  0  0  0  0  0  0  0  0  0
   15.7410    8.1353    0.5804 H   0  0  0  0  0  0  0  0  0  0  0  0
   15.2830    6.5888   -0.2020 H   0  0  0  0  0  0  0  0  0  0  0  0
   14.5333    7.0667    1.3633 H   0  0  0  0  0  0  0  0  0  0  0  0
    8.5093    3.0123   -1.3230 O   0  0  0  0  0  0  0  0  0  0  0  0
    9.3712    2.4187   -0.7281 C   0  0  0  0  0  0  0  0  0  0  0  0
   10.5420    2.8909   -0.3103 O   0  0  0  0  0  0  0  0  0  0  0  0
    9.2373    0.9228   -0.3356 C   0  0  0  0  0  0  0  0  0  0  0  0
    9.3138    0.7722    1.0060 F   0  0  0  0  0  0  0  0  0  0  0  0
    8.0649    0.4248   -0.7474 F   0  0  0  0  0  0  0  0  0  0  0  0
   10.2280    0.1915   -0.8944 F   0  0  0  0  0  0  0  0  0  0  0  0
  1  6  2  0  0  0  0
  2  3  2  0  0  0  0
  2  1  1  0  0  0  0
  3  4  1  0  0  0  0
  4  5  2  0  0  0  0
  5 10  1  0  0  0  0
  6  5  1  0  0  0  0
  6 13  1  0  0  0  0
  7  1  1  0  0  0  0
  8  2  1  0  0  0  0
  9 20  1  0  0  0  0
 12 11  3  0  0  0  0
 13 14  1  0  0  0  0
 14 15  1  0  0  0  0
 14 17  1  0  0  0  0
 16 14  1  0  0  0  0
 18 19  2  0  0  0  0
 19 21  1  0  0  0  0
 19 20  1  0  0  0  0
 21 22  1  0  0  0  0
 23 21  1  0  0  0  0
 24 21  1  0  0  0  0
M  RAD  2   3   2   4   2
M  END
