Coordinates from ORCA-job p-CH3O-Ph-N2-OOCCF3-B3LYPG-aug-cc-pVDZ-scan-d09-49-n400
 OpenBabel11081710393D

 24 23  0  0  0  0  0  0  0  0999 V2000
   11.7104    8.1322   -1.5208 C   0  0  0  0  0  0  0  0  0  0  0  0
   10.4679    8.0362   -2.0573 C   0  0  0  0  0  0  0  0  0  0  0  0
    9.6702    6.7877   -1.9716 C   0  0  0  0  0  0  0  0  0  0  0  0
   10.3277    5.6627   -1.2563 C   0  0  0  0  0  0  0  0  0  0  0  0
   11.5851    5.8019   -0.7291 C   0  0  0  0  0  0  0  0  0  0  0  0
   12.2956    7.0154   -0.8452 C   0  0  0  0  0  0  0  0  0  0  0  0
   12.2823    9.0559   -1.5938 H   0  0  0  0  0  0  0  0  0  0  0  0
    9.9944    8.8694   -2.5779 H   0  0  0  0  0  0  0  0  0  0  0  0
    9.7500    4.6966   -1.1704 H   0  0  0  0  0  0  0  0  0  0  0  0
   12.0072    4.9390   -0.2200 H   0  0  0  0  0  0  0  0  0  0  0  0
    8.7984    6.7157   -2.3424 N   0  0  0  0  0  0  0  0  0  0  0  0
    7.7383    6.6369   -2.7986 N   0  0  0  0  0  0  0  0  0  0  0  0
   13.5085    7.2233   -0.3630 O   0  0  0  0  0  0  0  0  0  0  0  0
   14.1957    6.1582    0.3408 C   0  0  0  0  0  0  0  0  0  0  0  0
   15.1578    6.5879    0.6266 H   0  0  0  0  0  0  0  0  0  0  0  0
   14.3412    5.2996   -0.3256 H   0  0  0  0  0  0  0  0  0  0  0  0
   13.6257    5.8665    1.2309 H   0  0  0  0  0  0  0  0  0  0  0  0
    8.5788    1.1398   -0.4228 O   0  0  0  0  0  0  0  0  0  0  0  0
    9.2017    2.1923   -0.5222 C   0  0  0  0  0  0  0  0  0  0  0  0
    8.8982    3.2980   -1.0634 O   0  0  0  0  0  0  0  0  0  0  0  0
   10.6373    2.2131    0.1328 C   0  0  0  0  0  0  0  0  0  0  0  0
   10.7461    3.1994    1.0914 F   0  0  0  0  0  0  0  0  0  0  0  0
   11.0090    1.0677    0.7217 F   0  0  0  0  0  0  0  0  0  0  0  0
   11.6157    2.5135   -0.7918 F   0  0  0  0  0  0  0  0  0  0  0  0
  1  6  2  0  0  0  0
  2  3  2  0  0  0  0
  2  1  1  0  0  0  0
  3  4  1  0  0  0  0
  4  9  1  0  0  0  0
  4  5  2  0  0  0  0
  5 10  1  0  0  0  0
  6  5  1  0  0  0  0
  6 13  1  0  0  0  0
  7  1  1  0  0  0  0
  8  2  1  0  0  0  0
 11  3  1  0  0  0  0
 12 11  1  0  0  0  0
 13 14  1  0  0  0  0
 14 15  1  0  0  0  0
 14 17  1  0  0  0  0
 16 14  1  0  0  0  0
 19 18  1  0  0  0  0
 19 21  1  0  0  0  0
 20 19  2  0  0  0  0
 21 23  1  0  0  0  0
 21 22  1  0  0  0  0
 24 21  1  0  0  0  0
M  RAD  3  11   2  12   3  18   2
M  END
