Coordinates from ORCA-job p-CH3O-Ph-N2-OOCCF3-B3LYPG-aug-cc-pVDZ-scan-d09-49-n400
 OpenBabel11081710393D

 24 23  0  0  0  0  0  0  0  0999 V2000
   11.6808    8.2586   -1.5527 C   0  0  0  0  0  0  0  0  0  0  0  0
   10.4813    7.6811   -1.9105 C   0  0  0  0  0  0  0  0  0  0  0  0
   10.2134    6.3328   -1.5632 C   0  0  0  0  0  0  0  0  0  0  0  0
   11.1775    5.5763   -0.8489 C   0  0  0  0  0  0  0  0  0  0  0  0
   12.3814    6.1640   -0.4928 C   0  0  0  0  0  0  0  0  0  0  0  0
   12.6429    7.5060   -0.8403 C   0  0  0  0  0  0  0  0  0  0  0  0
   11.9090    9.2917   -1.8077 H   0  0  0  0  0  0  0  0  0  0  0  0
    9.7304    8.2480   -2.4593 H   0  0  0  0  0  0  0  0  0  0  0  0
   10.9395    4.5437   -0.5984 H   0  0  0  0  0  0  0  0  0  0  0  0
   13.1112    5.5732    0.0542 H   0  0  0  0  0  0  0  0  0  0  0  0
    9.0768    5.8014   -1.9073 N   0  0  0  0  0  0  0  0  0  0  0  0
    8.3060    4.9538   -1.9649 N   0  0  0  0  0  0  0  0  0  0  0  0
   13.7779    8.1593   -0.5395 O   0  0  0  0  0  0  0  0  0  0  0  0
   14.8118    7.4742    0.1830 C   0  0  0  0  0  0  0  0  0  0  0  0
   15.6144    8.2064    0.3015 H   0  0  0  0  0  0  0  0  0  0  0  0
   15.1775    6.6095   -0.3875 H   0  0  0  0  0  0  0  0  0  0  0  0
   14.4503    7.1546    1.1700 H   0  0  0  0  0  0  0  0  0  0  0  0
    7.2861    2.1705   -1.2144 O   0  0  0  0  0  0  0  0  0  0  0  0
    8.4459    2.3540   -0.8885 C   0  0  0  0  0  0  0  0  0  0  0  0
    9.1938    3.3958   -1.0143 O   0  0  0  0  0  0  0  0  0  0  0  0
    9.2343    1.1860   -0.2013 C   0  0  0  0  0  0  0  0  0  0  0  0
    9.7185    1.5644    1.0147 F   0  0  0  0  0  0  0  0  0  0  0  0
    8.4772    0.0938   -0.0072 F   0  0  0  0  0  0  0  0  0  0  0  0
   10.3054    0.8098   -0.9530 F   0  0  0  0  0  0  0  0  0  0  0  0
  1  6  2  0  0  0  0
  2  3  2  0  0  0  0
  2  1  1  0  0  0  0
  3  4  1  0  0  0  0
  4  9  1  0  0  0  0
  4  5  2  0  0  0  0
  5 10  1  0  0  0  0
  6 13  1  0  0  0  0
  6  5  1  0  0  0  0
  7  1  1  0  0  0  0
  8  2  1  0  0  0  0
 11  3  1  0  0  0  0
 12 11  2  0  0  0  0
 13 14  1  0  0  0  0
 14 15  1  0  0  0  0
 14 17  1  0  0  0  0
 16 14  1  0  0  0  0
 18 19  2  0  0  0  0
 19 21  1  0  0  0  0
 20 19  1  0  0  0  0
 21 23  1  0  0  0  0
 21 22  1  0  0  0  0
 24 21  1  0  0  0  0
M  RAD  2  12   2  20   2
M  END
