Coordinates from ORCA-job p-CH3O-Ph-N2-OOCCF3-B3LYPG-aug-cc-pVDZ-scan-d09-49-n400
 OpenBabel11081710393D

 24 22  0  0  0  0  0  0  0  0999 V2000
   11.8668    8.3254   -1.3338 C   0  0  0  0  0  0  0  0  0  0  0  0
   10.6351    7.7998   -1.7635 C   0  0  0  0  0  0  0  0  0  0  0  0
   10.5985    6.4799   -1.3781 C   0  0  0  0  0  0  0  0  0  0  0  0
   11.3688    5.6965   -0.7698 C   0  0  0  0  0  0  0  0  0  0  0  0
   12.6128    6.1796   -0.3211 C   0  0  0  0  0  0  0  0  0  0  0  0
   12.8293    7.5446   -0.6342 C   0  0  0  0  0  0  0  0  0  0  0  0
   12.1070    9.3689   -1.5373 H   0  0  0  0  0  0  0  0  0  0  0  0
    9.8846    8.3744   -2.2986 H   0  0  0  0  0  0  0  0  0  0  0  0
   10.6846    3.7965   -0.5181 H   0  0  0  0  0  0  0  0  0  0  0  0
   13.3427    5.5775    0.2124 H   0  0  0  0  0  0  0  0  0  0  0  0
    6.6743    6.0394   -3.1264 N   0  0  0  0  0  0  0  0  0  0  0  0
    5.7857    5.4297   -3.3668 N   0  0  0  0  0  0  0  0  0  0  0  0
   13.9640    8.2246   -0.2981 O   0  0  0  0  0  0  0  0  0  0  0  0
   14.9875    7.5247    0.4057 C   0  0  0  0  0  0  0  0  0  0  0  0
   15.7871    8.2538    0.5661 H   0  0  0  0  0  0  0  0  0  0  0  0
   15.3718    6.6815   -0.1881 H   0  0  0  0  0  0  0  0  0  0  0  0
   14.6222    7.1593    1.3774 H   0  0  0  0  0  0  0  0  0  0  0  0
    8.5423    3.0606   -1.3218 O   0  0  0  0  0  0  0  0  0  0  0  0
    9.3733    2.4233   -0.7284 C   0  0  0  0  0  0  0  0  0  0  0  0
   10.5565    2.8425   -0.2884 O   0  0  0  0  0  0  0  0  0  0  0  0
    9.1778    0.9269   -0.3653 C   0  0  0  0  0  0  0  0  0  0  0  0
    9.2319    0.7492    0.9740 F   0  0  0  0  0  0  0  0  0  0  0  0
    7.9923    0.4820   -0.8000 F   0  0  0  0  0  0  0  0  0  0  0  0
   10.1465    0.1684   -0.9262 F   0  0  0  0  0  0  0  0  0  0  0  0
  1  6  2  0  0  0  0
  2  3  2  0  0  0  0
  2  1  1  0  0  0  0
  3  4  1  0  0  0  0
  4  5  2  0  0  0  0
  5 10  1  0  0  0  0
  6  5  1  0  0  0  0
  6 13  1  0  0  0  0
  7  1  1  0  0  0  0
  8  2  1  0  0  0  0
  9 20  1  0  0  0  0
 12 11  3  0  0  0  0
 13 14  1  0  0  0  0
 14 15  1  0  0  0  0
 14 17  1  0  0  0  0
 16 14  1  0  0  0  0
 18 19  2  0  0  0  0
 19 21  1  0  0  0  0
 19 20  1  0  0  0  0
 21 22  1  0  0  0  0
 23 21  1  0  0  0  0
 24 21  1  0  0  0  0
M  RAD  2   3   2   4   2
M  END
