Coordinates from ORCA-job p-CH3O-Ph-N2-OOCCF3-B3LYPG-aug-cc-pVDZ-scan-d09-49-n400
 OpenBabel11081710393D

 24 23  0  0  0  0  0  0  0  0999 V2000
   11.7287    8.2974   -1.5427 C   0  0  0  0  0  0  0  0  0  0  0  0
   10.5055    7.7549   -1.9325 C   0  0  0  0  0  0  0  0  0  0  0  0
   10.3097    6.4398   -1.5681 C   0  0  0  0  0  0  0  0  0  0  0  0
   11.1486    5.5968   -0.8818 C   0  0  0  0  0  0  0  0  0  0  0  0
   12.3713    6.1760   -0.5054 C   0  0  0  0  0  0  0  0  0  0  0  0
   12.6610    7.5137   -0.8315 C   0  0  0  0  0  0  0  0  0  0  0  0
   11.9786    9.3296   -1.7820 H   0  0  0  0  0  0  0  0  0  0  0  0
    9.7633    8.3275   -2.4816 H   0  0  0  0  0  0  0  0  0  0  0  0
   10.8794    4.5695   -0.6525 H   0  0  0  0  0  0  0  0  0  0  0  0
   13.0794    5.5596    0.0419 H   0  0  0  0  0  0  0  0  0  0  0  0
    8.7159    5.7866   -2.0985 N   0  0  0  0  0  0  0  0  0  0  0  0
    8.1265    4.8181   -2.0265 N   0  0  0  0  0  0  0  0  0  0  0  0
   13.8144    8.1438   -0.5053 O   0  0  0  0  0  0  0  0  0  0  0  0
   14.8139    7.4188    0.2174 C   0  0  0  0  0  0  0  0  0  0  0  0
   15.6375    8.1229    0.3626 H   0  0  0  0  0  0  0  0  0  0  0  0
   15.1662    6.5521   -0.3605 H   0  0  0  0  0  0  0  0  0  0  0  0
   14.4319    7.0903    1.1949 H   0  0  0  0  0  0  0  0  0  0  0  0
    7.2905    2.1169   -1.1229 O   0  0  0  0  0  0  0  0  0  0  0  0
    8.4563    2.3365   -0.8527 C   0  0  0  0  0  0  0  0  0  0  0  0
    9.1779    3.3916   -1.0281 O   0  0  0  0  0  0  0  0  0  0  0  0
    9.3095    1.2038   -0.1776 C   0  0  0  0  0  0  0  0  0  0  0  0
    9.8481    1.6267    0.9987 F   0  0  0  0  0  0  0  0  0  0  0  0
    8.5853    0.1047    0.0843 F   0  0  0  0  0  0  0  0  0  0  0  0
   10.3440    0.8314   -0.9778 F   0  0  0  0  0  0  0  0  0  0  0  0
  1  6  2  0  0  0  0
  2  3  2  0  0  0  0
  2  1  1  0  0  0  0
  3  4  1  0  0  0  0
  4  9  1  0  0  0  0
  4  5  2  0  0  0  0
  5 10  1  0  0  0  0
  6  5  1  0  0  0  0
  6 13  1  0  0  0  0
  7  1  1  0  0  0  0
  8  2  1  0  0  0  0
 11 12  2  0  0  0  0
 11  3  1  0  0  0  0
 13 14  1  0  0  0  0
 14 15  1  0  0  0  0
 14 17  1  0  0  0  0
 16 14  1  0  0  0  0
 18 19  2  0  0  0  0
 19 21  1  0  0  0  0
 20 19  1  0  0  0  0
 21 23  1  0  0  0  0
 21 22  1  0  0  0  0
 24 21  1  0  0  0  0
M  RAD  2  12   2  20   2
M  END
