Coordinates from ORCA-job p-CH3O-Ph-N2-OOCCF3-B3LYPG-aug-cc-pVDZ-scan-d09-49-n400
 OpenBabel11081710393D

 24 22  0  0  0  0  0  0  0  0999 V2000
   11.8808    8.2908   -1.3170 C   0  0  0  0  0  0  0  0  0  0  0  0
   10.6589    7.7329   -1.7327 C   0  0  0  0  0  0  0  0  0  0  0  0
   10.6514    6.4150   -1.3342 C   0  0  0  0  0  0  0  0  0  0  0  0
   11.4482    5.6618   -0.7222 C   0  0  0  0  0  0  0  0  0  0  0  0
   12.6837    6.1743   -0.2862 C   0  0  0  0  0  0  0  0  0  0  0  0
   12.8659    7.5405   -0.6157 C   0  0  0  0  0  0  0  0  0  0  0  0
   12.0959    9.3372   -1.5332 H   0  0  0  0  0  0  0  0  0  0  0  0
    9.8926    8.2852   -2.2688 H   0  0  0  0  0  0  0  0  0  0  0  0
   10.7395    3.7500   -0.4783 H   0  0  0  0  0  0  0  0  0  0  0  0
   13.4305    5.5949    0.2488 H   0  0  0  0  0  0  0  0  0  0  0  0
    6.3344    6.1439   -3.3202 N   0  0  0  0  0  0  0  0  0  0  0  0
    5.4732    5.4862   -3.5322 N   0  0  0  0  0  0  0  0  0  0  0  0
   13.9866    8.2505   -0.2948 O   0  0  0  0  0  0  0  0  0  0  0  0
   15.0307    7.5826    0.4097 C   0  0  0  0  0  0  0  0  0  0  0  0
   15.8140    8.3318    0.5568 H   0  0  0  0  0  0  0  0  0  0  0  0
   15.4308    6.7419   -0.1773 H   0  0  0  0  0  0  0  0  0  0  0  0
   14.6802    7.2195    1.3878 H   0  0  0  0  0  0  0  0  0  0  0  0
    8.5898    3.0762   -1.3034 O   0  0  0  0  0  0  0  0  0  0  0  0
    9.4001    2.4114   -0.7119 C   0  0  0  0  0  0  0  0  0  0  0  0
   10.5899    2.7976   -0.2593 O   0  0  0  0  0  0  0  0  0  0  0  0
    9.1661    0.9163   -0.3676 C   0  0  0  0  0  0  0  0  0  0  0  0
    9.2070    0.7219    0.9699 F   0  0  0  0  0  0  0  0  0  0  0  0
    7.9731    0.5054   -0.8150 F   0  0  0  0  0  0  0  0  0  0  0  0
   10.1199    0.1412   -0.9312 F   0  0  0  0  0  0  0  0  0  0  0  0
  1  6  2  0  0  0  0
  2  3  2  0  0  0  0
  2  1  1  0  0  0  0
  3  4  1  0  0  0  0
  4  5  2  0  0  0  0
  5 10  1  0  0  0  0
  6 13  1  0  0  0  0
  6  5  1  0  0  0  0
  7  1  1  0  0  0  0
  8  2  1  0  0  0  0
  9 20  1  0  0  0  0
 12 11  3  0  0  0  0
 13 14  1  0  0  0  0
 14 15  1  0  0  0  0
 14 17  1  0  0  0  0
 16 14  1  0  0  0  0
 18 19  2  0  0  0  0
 19 21  1  0  0  0  0
 19 20  1  0  0  0  0
 21 22  1  0  0  0  0
 23 21  1  0  0  0  0
 24 21  1  0  0  0  0
M  RAD  2   3   2   4   2
M  END
