Coordinates from ORCA-job p-CH3O-Ph-N2-OOCCF3-B3LYPG-aug-cc-pVDZ-scan-d09-49-n400
 OpenBabel11081710393D

 24 22  0  0  0  0  0  0  0  0999 V2000
   11.7617    8.3486   -1.5391 C   0  0  0  0  0  0  0  0  0  0  0  0
   10.5188    7.8680   -1.9658 C   0  0  0  0  0  0  0  0  0  0  0  0
   10.3217    6.5623   -1.6133 C   0  0  0  0  0  0  0  0  0  0  0  0
   11.0701    5.6456   -0.9480 C   0  0  0  0  0  0  0  0  0  0  0  0
   12.3114    6.1782   -0.5400 C   0  0  0  0  0  0  0  0  0  0  0  0
   12.6524    7.5122   -0.8317 C   0  0  0  0  0  0  0  0  0  0  0  0
   12.0508    9.3769   -1.7512 H   0  0  0  0  0  0  0  0  0  0  0  0
    9.8020    8.4735   -2.5123 H   0  0  0  0  0  0  0  0  0  0  0  0
   10.7387    4.6224   -0.7560 H   0  0  0  0  0  0  0  0  0  0  0  0
   12.9853    5.5207    0.0033 H   0  0  0  0  0  0  0  0  0  0  0  0
    8.5456    5.8286   -2.2118 N   0  0  0  0  0  0  0  0  0  0  0  0
    7.9961    4.8541   -2.1231 N   0  0  0  0  0  0  0  0  0  0  0  0
   13.8219    8.0928   -0.4742 O   0  0  0  0  0  0  0  0  0  0  0  0
   14.7829    7.3150    0.2473 C   0  0  0  0  0  0  0  0  0  0  0  0
   15.6289    7.9851    0.4214 H   0  0  0  0  0  0  0  0  0  0  0  0
   15.1125    6.4496   -0.3457 H   0  0  0  0  0  0  0  0  0  0  0  0
   14.3726    6.9792    1.2107 H   0  0  0  0  0  0  0  0  0  0  0  0
    7.3660    2.0765   -1.0312 O   0  0  0  0  0  0  0  0  0  0  0  0
    8.5404    2.3185   -0.8004 C   0  0  0  0  0  0  0  0  0  0  0  0
    9.2448    3.3646   -1.0153 O   0  0  0  0  0  0  0  0  0  0  0  0
    9.4108    1.1947   -0.1237 C   0  0  0  0  0  0  0  0  0  0  0  0
    9.9761    1.6383    1.0341 F   0  0  0  0  0  0  0  0  0  0  0  0
    8.7013    0.0941    0.1769 F   0  0  0  0  0  0  0  0  0  0  0  0
   10.4304    0.8096   -0.9389 F   0  0  0  0  0  0  0  0  0  0  0  0
  1  6  2  0  0  0  0
  2  3  2  0  0  0  0
  2  1  1  0  0  0  0
  3  4  1  0  0  0  0
  4  9  1  0  0  0  0
  4  5  2  0  0  0  0
  5 10  1  0  0  0  0
  6  5  1  0  0  0  0
  6 13  1  0  0  0  0
  7  1  1  0  0  0  0
  8  2  1  0  0  0  0
 11 12  3  0  0  0  0
 13 14  1  0  0  0  0
 14 15  1  0  0  0  0
 14 17  1  0  0  0  0
 16 14  1  0  0  0  0
 18 19  2  0  0  0  0
 19 21  1  0  0  0  0
 20 19  1  0  0  0  0
 21 23  1  0  0  0  0
 21 22  1  0  0  0  0
 24 21  1  0  0  0  0
M  RAD  2   3   2  20   2
M  END
