Coordinates from ORCA-job p-CH3O-Ph-N2-OOCCF3-B3LYPG-aug-cc-pVDZ-scan-d09-49-n400
 OpenBabel11081710393D

 24 22  0  0  0  0  0  0  0  0999 V2000
   11.7495    8.3630   -1.4014 C   0  0  0  0  0  0  0  0  0  0  0  0
   10.5012    7.9031   -1.8596 C   0  0  0  0  0  0  0  0  0  0  0  0
   10.4059    6.5831   -1.5028 C   0  0  0  0  0  0  0  0  0  0  0  0
   11.1085    5.7250   -0.9043 C   0  0  0  0  0  0  0  0  0  0  0  0
   12.3681    6.1611   -0.4335 C   0  0  0  0  0  0  0  0  0  0  0  0
   12.6602    7.5193   -0.7076 C   0  0  0  0  0  0  0  0  0  0  0  0
   12.0404    9.3984   -1.5777 H   0  0  0  0  0  0  0  0  0  0  0  0
    9.7837    8.5202   -2.3917 H   0  0  0  0  0  0  0  0  0  0  0  0
   10.5948    3.8834   -0.5885 H   0  0  0  0  0  0  0  0  0  0  0  0
   13.0615    5.5136    0.0963 H   0  0  0  0  0  0  0  0  0  0  0  0
    7.8436    6.0647   -2.5731 N   0  0  0  0  0  0  0  0  0  0  0  0
    6.8526    5.7681   -2.9578 N   0  0  0  0  0  0  0  0  0  0  0  0
   13.8217    8.1333   -0.3381 O   0  0  0  0  0  0  0  0  0  0  0  0
   14.7975    7.3660    0.3636 C   0  0  0  0  0  0  0  0  0  0  0  0
   15.6298    8.0498    0.5540 H   0  0  0  0  0  0  0  0  0  0  0  0
   15.1487    6.5189   -0.2449 H   0  0  0  0  0  0  0  0  0  0  0  0
   14.3986    6.9962    1.3203 H   0  0  0  0  0  0  0  0  0  0  0  0
    8.4813    2.9810   -1.3273 O   0  0  0  0  0  0  0  0  0  0  0  0
    9.3648    2.4188   -0.7314 C   0  0  0  0  0  0  0  0  0  0  0  0
   10.5245    2.9236   -0.3290 O   0  0  0  0  0  0  0  0  0  0  0  0
    9.2692    0.9245   -0.3205 C   0  0  0  0  0  0  0  0  0  0  0  0
    9.3594    0.7908    1.0223 F   0  0  0  0  0  0  0  0  0  0  0  0
    8.1056    0.3932   -0.7167 F   0  0  0  0  0  0  0  0  0  0  0  0
   10.2723    0.2096   -0.8787 F   0  0  0  0  0  0  0  0  0  0  0  0
  1  6  2  0  0  0  0
  2  3  2  0  0  0  0
  2  1  1  0  0  0  0
  3  4  1  0  0  0  0
  4  5  2  0  0  0  0
  5 10  1  0  0  0  0
  6  5  1  0  0  0  0
  6 13  1  0  0  0  0
  7  1  1  0  0  0  0
  8  2  1  0  0  0  0
  9 20  1  0  0  0  0
 12 11  3  0  0  0  0
 13 14  1  0  0  0  0
 14 15  1  0  0  0  0
 14 17  1  0  0  0  0
 16 14  1  0  0  0  0
 18 19  2  0  0  0  0
 19 20  1  0  0  0  0
 19 21  1  0  0  0  0
 21 22  1  0  0  0  0
 23 21  1  0  0  0  0
 24 21  1  0  0  0  0
M  RAD  2   3   2   4   2
M  END
