Coordinates from ORCA-job p-CH3O-Ph-N2-OOCCF3-B3LYPG-aug-cc-pVDZ-scan-d09-49-n400
 OpenBabel11081710393D

 24 22  0  0  0  0  0  0  0  0999 V2000
   11.8554    8.3583   -1.3495 C   0  0  0  0  0  0  0  0  0  0  0  0
   10.6130    7.8726   -1.7968 C   0  0  0  0  0  0  0  0  0  0  0  0
   10.5402    6.5506   -1.4279 C   0  0  0  0  0  0  0  0  0  0  0  0
   11.2795    5.7341   -0.8241 C   0  0  0  0  0  0  0  0  0  0  0  0
   12.5327    6.1793   -0.3594 C   0  0  0  0  0  0  0  0  0  0  0  0
   12.7897    7.5420   -0.6524 C   0  0  0  0  0  0  0  0  0  0  0  0
   12.1262    9.3973   -1.5370 H   0  0  0  0  0  0  0  0  0  0  0  0
    9.8826    8.4736   -2.3304 H   0  0  0  0  0  0  0  0  0  0  0  0
   10.6409    3.8409   -0.5528 H   0  0  0  0  0  0  0  0  0  0  0  0
   13.2413    5.5507    0.1723 H   0  0  0  0  0  0  0  0  0  0  0  0
    6.9158    6.0283   -3.0067 N   0  0  0  0  0  0  0  0  0  0  0  0
    6.0060    5.4609   -3.2698 N   0  0  0  0  0  0  0  0  0  0  0  0
   13.9397    8.1861   -0.2979 O   0  0  0  0  0  0  0  0  0  0  0  0
   14.9374    7.4489    0.4050 C   0  0  0  0  0  0  0  0  0  0  0  0
   15.7554    8.1533    0.5818 H   0  0  0  0  0  0  0  0  0  0  0  0
   15.3033    6.6031   -0.1966 H   0  0  0  0  0  0  0  0  0  0  0  0
   14.5536    7.0811    1.3687 H   0  0  0  0  0  0  0  0  0  0  0  0
    8.5123    3.0199   -1.3238 O   0  0  0  0  0  0  0  0  0  0  0  0
    9.3708    2.4213   -0.7291 C   0  0  0  0  0  0  0  0  0  0  0  0
   10.5437    2.8860   -0.3080 O   0  0  0  0  0  0  0  0  0  0  0  0
    9.2291    0.9252   -0.3403 C   0  0  0  0  0  0  0  0  0  0  0  0
    9.3027    0.7710    1.0011 F   0  0  0  0  0  0  0  0  0  0  0  0
    8.0549    0.4338   -0.7551 F   0  0  0  0  0  0  0  0  0  0  0  0
   10.2170    0.1903   -0.8993 F   0  0  0  0  0  0  0  0  0  0  0  0
  1  6  2  0  0  0  0
  2  3  2  0  0  0  0
  2  1  1  0  0  0  0
  3  4  1  0  0  0  0
  4  5  2  0  0  0  0
  5 10  1  0  0  0  0
  6  5  1  0  0  0  0
  6 13  1  0  0  0  0
  7  1  1  0  0  0  0
  8  2  1  0  0  0  0
  9 20  1  0  0  0  0
 12 11  3  0  0  0  0
 13 14  1  0  0  0  0
 14 15  1  0  0  0  0
 14 17  1  0  0  0  0
 16 14  1  0  0  0  0
 18 19  2  0  0  0  0
 19 21  1  0  0  0  0
 19 20  1  0  0  0  0
 21 22  1  0  0  0  0
 23 21  1  0  0  0  0
 24 21  1  0  0  0  0
M  RAD  2   3   2   4   2
M  END
