Coordinates from ORCA-job p-CH3O-Ph-N2-OOCCF3-B3LYPG-aug-cc-pVDZ-scan-d09-49-n400
 OpenBabel11081710393D

 24 22  0  0  0  0  0  0  0  0999 V2000
   11.7572    8.3651   -1.3984 C   0  0  0  0  0  0  0  0  0  0  0  0
   10.5095    7.9048   -1.8561 C   0  0  0  0  0  0  0  0  0  0  0  0
   10.4126    6.5838   -1.4997 C   0  0  0  0  0  0  0  0  0  0  0  0
   11.1176    5.7293   -0.9012 C   0  0  0  0  0  0  0  0  0  0  0  0
   12.3773    6.1638   -0.4298 C   0  0  0  0  0  0  0  0  0  0  0  0
   12.6684    7.5218   -0.7044 C   0  0  0  0  0  0  0  0  0  0  0  0
   12.0477    9.4006   -1.5749 H   0  0  0  0  0  0  0  0  0  0  0  0
    9.7913    8.5211   -2.3883 H   0  0  0  0  0  0  0  0  0  0  0  0
   10.5910    3.8793   -0.5891 H   0  0  0  0  0  0  0  0  0  0  0  0
   13.0708    5.5164    0.1000 H   0  0  0  0  0  0  0  0  0  0  0  0
    7.7857    6.0697   -2.6024 N   0  0  0  0  0  0  0  0  0  0  0  0
    6.7970    5.7583   -2.9815 N   0  0  0  0  0  0  0  0  0  0  0  0
   13.8299    8.1362   -0.3351 O   0  0  0  0  0  0  0  0  0  0  0  0
   14.8061    7.3695    0.3666 C   0  0  0  0  0  0  0  0  0  0  0  0
   15.6382    8.0537    0.5567 H   0  0  0  0  0  0  0  0  0  0  0  0
   15.1576    6.5223   -0.2417 H   0  0  0  0  0  0  0  0  0  0  0  0
   14.4075    6.9997    1.3235 H   0  0  0  0  0  0  0  0  0  0  0  0
    8.4808    2.9767   -1.3262 O   0  0  0  0  0  0  0  0  0  0  0  0
    9.3639    2.4144   -0.7304 C   0  0  0  0  0  0  0  0  0  0  0  0
   10.5236    2.9207   -0.3285 O   0  0  0  0  0  0  0  0  0  0  0  0
    9.2696    0.9203   -0.3190 C   0  0  0  0  0  0  0  0  0  0  0  0
    9.3604    0.7872    1.0238 F   0  0  0  0  0  0  0  0  0  0  0  0
    8.1063    0.3882   -0.7148 F   0  0  0  0  0  0  0  0  0  0  0  0
   10.2731    0.2060   -0.8773 F   0  0  0  0  0  0  0  0  0  0  0  0
  1  6  2  0  0  0  0
  2  3  2  0  0  0  0
  2  1  1  0  0  0  0
  3  4  1  0  0  0  0
  4  5  2  0  0  0  0
  5 10  1  0  0  0  0
  6  5  1  0  0  0  0
  6 13  1  0  0  0  0
  7  1  1  0  0  0  0
  8  2  1  0  0  0  0
  9 20  1  0  0  0  0
 12 11  3  0  0  0  0
 13 14  1  0  0  0  0
 14 15  1  0  0  0  0
 14 17  1  0  0  0  0
 16 14  1  0  0  0  0
 18 19  2  0  0  0  0
 19 20  1  0  0  0  0
 19 21  1  0  0  0  0
 21 22  1  0  0  0  0
 23 21  1  0  0  0  0
 24 21  1  0  0  0  0
M  RAD  2   3   2   4   2
M  END
