Coordinates from ORCA-job p-CH3O-Ph-N2-OOCCF3-B3LYPG-aug-cc-pVDZ-scan-d09-49-n400
 OpenBabel11081710393D

 24 23  0  0  0  0  0  0  0  0999 V2000
   11.7013    8.2659   -1.5492 C   0  0  0  0  0  0  0  0  0  0  0  0
   10.4929    7.6922   -1.9151 C   0  0  0  0  0  0  0  0  0  0  0  0
   10.2684    6.3646   -1.5529 C   0  0  0  0  0  0  0  0  0  0  0  0
   11.1765    5.5785   -0.8511 C   0  0  0  0  0  0  0  0  0  0  0  0
   12.3881    6.1711   -0.4909 C   0  0  0  0  0  0  0  0  0  0  0  0
   12.6550    7.5098   -0.8359 C   0  0  0  0  0  0  0  0  0  0  0  0
   11.9326    9.2985   -1.8036 H   0  0  0  0  0  0  0  0  0  0  0  0
    9.7410    8.2533   -2.4657 H   0  0  0  0  0  0  0  0  0  0  0  0
   10.9377    4.5492   -0.6012 H   0  0  0  0  0  0  0  0  0  0  0  0
   13.1128    5.5760    0.0579 H   0  0  0  0  0  0  0  0  0  0  0  0
    8.8820    5.7731   -1.9982 N   0  0  0  0  0  0  0  0  0  0  0  0
    8.2391    4.8233   -1.9572 N   0  0  0  0  0  0  0  0  0  0  0  0
   13.7985    8.1616   -0.5283 O   0  0  0  0  0  0  0  0  0  0  0  0
   14.8186    7.4652    0.1952 C   0  0  0  0  0  0  0  0  0  0  0  0
   15.6297    8.1870    0.3225 H   0  0  0  0  0  0  0  0  0  0  0  0
   15.1812    6.5975   -0.3743 H   0  0  0  0  0  0  0  0  0  0  0  0
   14.4513    7.1437    1.1803 H   0  0  0  0  0  0  0  0  0  0  0  0
    7.2784    2.1748   -1.1842 O   0  0  0  0  0  0  0  0  0  0  0  0
    8.4390    2.3611   -0.8788 C   0  0  0  0  0  0  0  0  0  0  0  0
    9.1865    3.4119   -1.0165 O   0  0  0  0  0  0  0  0  0  0  0  0
    9.2556    1.2052   -0.2046 C   0  0  0  0  0  0  0  0  0  0  0  0
    9.7578    1.5946    0.9980 F   0  0  0  0  0  0  0  0  0  0  0  0
    8.5080    0.1113    0.0047 F   0  0  0  0  0  0  0  0  0  0  0  0
   10.3113    0.8397   -0.9791 F   0  0  0  0  0  0  0  0  0  0  0  0
  1  6  2  0  0  0  0
  2  3  2  0  0  0  0
  2  1  1  0  0  0  0
  3  4  1  0  0  0  0
  4  9  1  0  0  0  0
  4  5  2  0  0  0  0
  5 10  1  0  0  0  0
  6 13  1  0  0  0  0
  6  5  1  0  0  0  0
  7  1  1  0  0  0  0
  8  2  1  0  0  0  0
 11 12  2  0  0  0  0
 11  3  1  0  0  0  0
 13 14  1  0  0  0  0
 14 15  1  0  0  0  0
 14 17  1  0  0  0  0
 16 14  1  0  0  0  0
 18 19  2  0  0  0  0
 19 21  1  0  0  0  0
 20 19  1  0  0  0  0
 21 23  1  0  0  0  0
 21 22  1  0  0  0  0
 24 21  1  0  0  0  0
M  RAD  2  12   2  20   2
M  END
