Coordinates from ORCA-job p-CH3O-Ph-N2-OOCCF3-B3LYPG-aug-cc-pVDZ-scan-d09-49-n400
 OpenBabel11081710393D

 24 22  0  0  0  0  0  0  0  0999 V2000
   11.8206    8.3616   -1.3671 C   0  0  0  0  0  0  0  0  0  0  0  0
   10.5767    7.8844   -1.8177 C   0  0  0  0  0  0  0  0  0  0  0  0
   10.4932    6.5615   -1.4538 C   0  0  0  0  0  0  0  0  0  0  0  0
   11.2252    5.7362   -0.8509 C   0  0  0  0  0  0  0  0  0  0  0  0
   12.4806    6.1754   -0.3833 C   0  0  0  0  0  0  0  0  0  0  0  0
   12.7478    7.5368   -0.6709 C   0  0  0  0  0  0  0  0  0  0  0  0
   12.0980    9.3994   -1.5510 H   0  0  0  0  0  0  0  0  0  0  0  0
    9.8502    8.4904   -2.3509 H   0  0  0  0  0  0  0  0  0  0  0  0
   10.6194    3.8486   -0.5656 H   0  0  0  0  0  0  0  0  0  0  0  0
   13.1842    5.5407    0.1478 H   0  0  0  0  0  0  0  0  0  0  0  0
    7.2339    6.0475   -2.8601 N   0  0  0  0  0  0  0  0  0  0  0  0
    6.2898    5.5638   -3.1653 N   0  0  0  0  0  0  0  0  0  0  0  0
   13.9015    8.1716   -0.3118 O   0  0  0  0  0  0  0  0  0  0  0  0
   14.8927    7.4254    0.3908 C   0  0  0  0  0  0  0  0  0  0  0  0
   15.7151    8.1236    0.5716 H   0  0  0  0  0  0  0  0  0  0  0  0
   15.2541    6.5791   -0.2129 H   0  0  0  0  0  0  0  0  0  0  0  0
   14.5043    7.0569    1.3525 H   0  0  0  0  0  0  0  0  0  0  0  0
    8.4995    3.0024   -1.3248 O   0  0  0  0  0  0  0  0  0  0  0  0
    9.3653    2.4145   -0.7297 C   0  0  0  0  0  0  0  0  0  0  0  0
   10.5342    2.8932   -0.3147 O   0  0  0  0  0  0  0  0  0  0  0  0
    9.2389    0.9189   -0.3336 C   0  0  0  0  0  0  0  0  0  0  0  0
    9.3181    0.7716    1.0082 F   0  0  0  0  0  0  0  0  0  0  0  0
    8.0681    0.4145   -0.7425 F   0  0  0  0  0  0  0  0  0  0  0  0
   10.2320    0.1908   -0.8923 F   0  0  0  0  0  0  0  0  0  0  0  0
  1  6  2  0  0  0  0
  2  3  2  0  0  0  0
  2  1  1  0  0  0  0
  3  4  1  0  0  0  0
  4  5  2  0  0  0  0
  5 10  1  0  0  0  0
  6  5  1  0  0  0  0
  6 13  1  0  0  0  0
  7  1  1  0  0  0  0
  8  2  1  0  0  0  0
  9 20  1  0  0  0  0
 12 11  3  0  0  0  0
 13 14  1  0  0  0  0
 14 15  1  0  0  0  0
 14 17  1  0  0  0  0
 16 14  1  0  0  0  0
 18 19  2  0  0  0  0
 19 21  1  0  0  0  0
 19 20  1  0  0  0  0
 21 22  1  0  0  0  0
 23 21  1  0  0  0  0
 24 21  1  0  0  0  0
M  RAD  2   3   2   4   2
M  END
