Coordinates from ORCA-job p-CH3O-Ph-N2-OOCCF3-B3LYPG-aug-cc-pVDZ-scan-d09-49-n400
 OpenBabel11081710393D

 24 22  0  0  0  0  0  0  0  0999 V2000
   11.7866    8.3678   -1.3852 C   0  0  0  0  0  0  0  0  0  0  0  0
   10.5392    7.9054   -1.8421 C   0  0  0  0  0  0  0  0  0  0  0  0
   10.4426    6.5827   -1.4849 C   0  0  0  0  0  0  0  0  0  0  0  0
   11.1589    5.7402   -0.8845 C   0  0  0  0  0  0  0  0  0  0  0  0
   12.4176    6.1696   -0.4121 C   0  0  0  0  0  0  0  0  0  0  0  0
   12.7019    7.5290   -0.6906 C   0  0  0  0  0  0  0  0  0  0  0  0
   12.0751    9.4037   -1.5630 H   0  0  0  0  0  0  0  0  0  0  0  0
    9.8203    8.5208   -2.3745 H   0  0  0  0  0  0  0  0  0  0  0  0
   10.5959    3.8668   -0.5828 H   0  0  0  0  0  0  0  0  0  0  0  0
   13.1130    5.5249    0.1179 H   0  0  0  0  0  0  0  0  0  0  0  0
    7.5495    6.0678   -2.7151 N   0  0  0  0  0  0  0  0  0  0  0  0
    6.5771    5.6778   -3.0624 N   0  0  0  0  0  0  0  0  0  0  0  0
   13.8614    8.1488   -0.3239 O   0  0  0  0  0  0  0  0  0  0  0  0
   14.8415    7.3874    0.3781 C   0  0  0  0  0  0  0  0  0  0  0  0
   15.6710    8.0753    0.5658 H   0  0  0  0  0  0  0  0  0  0  0  0
   15.1956    6.5405   -0.2290 H   0  0  0  0  0  0  0  0  0  0  0  0
   14.4455    7.0180    1.3362 H   0  0  0  0  0  0  0  0  0  0  0  0
    8.4848    2.9784   -1.3247 O   0  0  0  0  0  0  0  0  0  0  0  0
    9.3635    2.4100   -0.7292 C   0  0  0  0  0  0  0  0  0  0  0  0
   10.5259    2.9106   -0.3242 O   0  0  0  0  0  0  0  0  0  0  0  0
    9.2628    0.9156   -0.3209 C   0  0  0  0  0  0  0  0  0  0  0  0
    9.3515    0.7797    1.0216 F   0  0  0  0  0  0  0  0  0  0  0  0
    8.0979    0.3895   -0.7194 F   0  0  0  0  0  0  0  0  0  0  0  0
   10.2641    0.1987   -0.8795 F   0  0  0  0  0  0  0  0  0  0  0  0
  1  6  2  0  0  0  0
  2  3  2  0  0  0  0
  2  1  1  0  0  0  0
  3  4  1  0  0  0  0
  4  5  2  0  0  0  0
  5 10  1  0  0  0  0
  6  5  1  0  0  0  0
  6 13  1  0  0  0  0
  7  1  1  0  0  0  0
  8  2  1  0  0  0  0
  9 20  1  0  0  0  0
 12 11  3  0  0  0  0
 13 14  1  0  0  0  0
 14 15  1  0  0  0  0
 14 17  1  0  0  0  0
 16 14  1  0  0  0  0
 18 19  2  0  0  0  0
 19 20  1  0  0  0  0
 19 21  1  0  0  0  0
 21 22  1  0  0  0  0
 23 21  1  0  0  0  0
 24 21  1  0  0  0  0
M  RAD  2   3   2   4   2
M  END
