Coordinates from ORCA-job p-CH3O-Ph-N2-OOCCF3-B3LYPG-aug-cc-pVDZ-scan-d09-49-n400
 OpenBabel11081710393D

 24 23  0  0  0  0  0  0  0  0999 V2000
   11.7055    8.2691   -1.5482 C   0  0  0  0  0  0  0  0  0  0  0  0
   10.4951    7.6989   -1.9171 C   0  0  0  0  0  0  0  0  0  0  0  0
   10.2756    6.3736   -1.5539 C   0  0  0  0  0  0  0  0  0  0  0  0
   11.1739    5.5801   -0.8541 C   0  0  0  0  0  0  0  0  0  0  0  0
   12.3870    6.1716   -0.4920 C   0  0  0  0  0  0  0  0  0  0  0  0
   12.6565    7.5100   -0.8350 C   0  0  0  0  0  0  0  0  0  0  0  0
   11.9389    9.3017   -1.8010 H   0  0  0  0  0  0  0  0  0  0  0  0
    9.7441    8.2609   -2.4676 H   0  0  0  0  0  0  0  0  0  0  0  0
   10.9315    4.5512   -0.6066 H   0  0  0  0  0  0  0  0  0  0  0  0
   13.1097    5.5741    0.0568 H   0  0  0  0  0  0  0  0  0  0  0  0
    8.8527    5.7724   -2.0141 N   0  0  0  0  0  0  0  0  0  0  0  0
    8.2215    4.8167   -1.9654 N   0  0  0  0  0  0  0  0  0  0  0  0
   13.8015    8.1595   -0.5251 O   0  0  0  0  0  0  0  0  0  0  0  0
   14.8187    7.4596    0.1985 C   0  0  0  0  0  0  0  0  0  0  0  0
   15.6316    8.1791    0.3281 H   0  0  0  0  0  0  0  0  0  0  0  0
   15.1801    6.5919   -0.3718 H   0  0  0  0  0  0  0  0  0  0  0  0
   14.4496    7.1373    1.1828 H   0  0  0  0  0  0  0  0  0  0  0  0
    7.2780    2.1666   -1.1756 O   0  0  0  0  0  0  0  0  0  0  0  0
    8.4391    2.3585   -0.8758 C   0  0  0  0  0  0  0  0  0  0  0  0
    9.1821    3.4114   -1.0194 O   0  0  0  0  0  0  0  0  0  0  0  0
    9.2634    1.2074   -0.2021 C   0  0  0  0  0  0  0  0  0  0  0  0
    9.7709    1.6026    0.9963 F   0  0  0  0  0  0  0  0  0  0  0  0
    8.5205    0.1119    0.0152 F   0  0  0  0  0  0  0  0  0  0  0  0
   10.3158    0.8429   -0.9812 F   0  0  0  0  0  0  0  0  0  0  0  0
  1  6  2  0  0  0  0
  2  3  2  0  0  0  0
  2  1  1  0  0  0  0
  3  4  1  0  0  0  0
  4  9  1  0  0  0  0
  4  5  2  0  0  0  0
  5 10  1  0  0  0  0
  6 13  1  0  0  0  0
  6  5  1  0  0  0  0
  7  1  1  0  0  0  0
  8  2  1  0  0  0  0
 11 12  2  0  0  0  0
 11  3  1  0  0  0  0
 13 14  1  0  0  0  0
 14 15  1  0  0  0  0
 14 17  1  0  0  0  0
 16 14  1  0  0  0  0
 18 19  2  0  0  0  0
 19 21  1  0  0  0  0
 20 19  1  0  0  0  0
 21 23  1  0  0  0  0
 21 22  1  0  0  0  0
 24 21  1  0  0  0  0
M  RAD  2  12   2  20   2
M  END
