Coordinates from ORCA-job p-CH3O-Ph-N2-OOCCF3-B3LYPG-aug-cc-pVDZ-scan-d09-49-n400
 OpenBabel11081710393D

 24 22  0  0  0  0  0  0  0  0999 V2000
   11.8197    8.3616   -1.3675 C   0  0  0  0  0  0  0  0  0  0  0  0
   10.5757    7.8847   -1.8183 C   0  0  0  0  0  0  0  0  0  0  0  0
   10.4920    6.5617   -1.4544 C   0  0  0  0  0  0  0  0  0  0  0  0
   11.2238    5.7362   -0.8516 C   0  0  0  0  0  0  0  0  0  0  0  0
   12.4792    6.1753   -0.3839 C   0  0  0  0  0  0  0  0  0  0  0  0
   12.7467    7.5365   -0.6713 C   0  0  0  0  0  0  0  0  0  0  0  0
   12.0972    9.3994   -1.5514 H   0  0  0  0  0  0  0  0  0  0  0  0
    9.8493    8.4908   -2.3515 H   0  0  0  0  0  0  0  0  0  0  0  0
   10.6188    3.8489   -0.5659 H   0  0  0  0  0  0  0  0  0  0  0  0
   13.1827    5.5404    0.1471 H   0  0  0  0  0  0  0  0  0  0  0  0
    7.2419    6.0482   -2.8565 N   0  0  0  0  0  0  0  0  0  0  0  0
    6.2968    5.5671   -3.1630 N   0  0  0  0  0  0  0  0  0  0  0  0
   13.9005    8.1712   -0.3121 O   0  0  0  0  0  0  0  0  0  0  0  0
   14.8915    7.4247    0.3904 C   0  0  0  0  0  0  0  0  0  0  0  0
   15.7140    8.1227    0.5713 H   0  0  0  0  0  0  0  0  0  0  0  0
   15.2528    6.5784   -0.2133 H   0  0  0  0  0  0  0  0  0  0  0  0
   14.5030    7.0562    1.3520 H   0  0  0  0  0  0  0  0  0  0  0  0
    8.4992    3.0018   -1.3248 O   0  0  0  0  0  0  0  0  0  0  0  0
    9.3652    2.4144   -0.7297 C   0  0  0  0  0  0  0  0  0  0  0  0
   10.5340    2.8935   -0.3149 O   0  0  0  0  0  0  0  0  0  0  0  0
    9.2393    0.9188   -0.3334 C   0  0  0  0  0  0  0  0  0  0  0  0
    9.3187    0.7717    1.0085 F   0  0  0  0  0  0  0  0  0  0  0  0
    8.0686    0.4139   -0.7420 F   0  0  0  0  0  0  0  0  0  0  0  0
   10.2326    0.1910   -0.8921 F   0  0  0  0  0  0  0  0  0  0  0  0
  1  6  2  0  0  0  0
  2  3  2  0  0  0  0
  2  1  1  0  0  0  0
  3  4  1  0  0  0  0
  4  5  2  0  0  0  0
  5 10  1  0  0  0  0
  6  5  1  0  0  0  0
  6 13  1  0  0  0  0
  7  1  1  0  0  0  0
  8  2  1  0  0  0  0
  9 20  1  0  0  0  0
 12 11  3  0  0  0  0
 13 14  1  0  0  0  0
 14 15  1  0  0  0  0
 14 17  1  0  0  0  0
 16 14  1  0  0  0  0
 18 19  2  0  0  0  0
 19 21  1  0  0  0  0
 19 20  1  0  0  0  0
 21 22  1  0  0  0  0
 23 21  1  0  0  0  0
 24 21  1  0  0  0  0
M  RAD  2   3   2   4   2
M  END
