Coordinates from ORCA-job p-CH3O-Ph-N2-OOCCF3-B3LYPG-aug-cc-pVDZ-scan-d09-49-n400
 OpenBabel11081710393D

 24 22  0  0  0  0  0  0  0  0999 V2000
   11.7941    8.3660   -1.3811 C   0  0  0  0  0  0  0  0  0  0  0  0
   10.5476    7.8997   -1.8363 C   0  0  0  0  0  0  0  0  0  0  0  0
   10.4546    6.5769   -1.4773 C   0  0  0  0  0  0  0  0  0  0  0  0
   11.1752    5.7392   -0.8762 C   0  0  0  0  0  0  0  0  0  0  0  0
   12.4330    6.1710   -0.4051 C   0  0  0  0  0  0  0  0  0  0  0  0
   12.7127    7.5310   -0.6860 C   0  0  0  0  0  0  0  0  0  0  0  0
   12.0797    9.4025   -1.5605 H   0  0  0  0  0  0  0  0  0  0  0  0
    9.8267    8.5126   -2.3689 H   0  0  0  0  0  0  0  0  0  0  0  0
   10.6006    3.8617   -0.5789 H   0  0  0  0  0  0  0  0  0  0  0  0
   13.1306    5.5290    0.1253 H   0  0  0  0  0  0  0  0  0  0  0  0
    7.4789    6.0642   -2.7478 N   0  0  0  0  0  0  0  0  0  0  0  0
    6.5119    5.6536   -3.0862 N   0  0  0  0  0  0  0  0  0  0  0  0
   13.8706    8.1548   -0.3214 O   0  0  0  0  0  0  0  0  0  0  0  0
   14.8537    7.3976    0.3808 C   0  0  0  0  0  0  0  0  0  0  0  0
   15.6813    8.0882    0.5667 H   0  0  0  0  0  0  0  0  0  0  0  0
   15.2098    6.5508   -0.2254 H   0  0  0  0  0  0  0  0  0  0  0  0
   14.4597    7.0284    1.3399 H   0  0  0  0  0  0  0  0  0  0  0  0
    8.4873    2.9832   -1.3249 O   0  0  0  0  0  0  0  0  0  0  0  0
    9.3631    2.4102   -0.7295 C   0  0  0  0  0  0  0  0  0  0  0  0
   10.5271    2.9057   -0.3221 O   0  0  0  0  0  0  0  0  0  0  0  0
    9.2563    0.9155   -0.3240 C   0  0  0  0  0  0  0  0  0  0  0  0
    9.3429    0.7769    1.0183 F   0  0  0  0  0  0  0  0  0  0  0  0
    8.0900    0.3945   -0.7249 F   0  0  0  0  0  0  0  0  0  0  0  0
   10.2557    0.1960   -0.8827 F   0  0  0  0  0  0  0  0  0  0  0  0
  1  6  2  0  0  0  0
  2  3  2  0  0  0  0
  2  1  1  0  0  0  0
  3  4  1  0  0  0  0
  4  5  2  0  0  0  0
  5 10  1  0  0  0  0
  6  5  1  0  0  0  0
  6 13  1  0  0  0  0
  7  1  1  0  0  0  0
  8  2  1  0  0  0  0
  9 20  1  0  0  0  0
 12 11  3  0  0  0  0
 13 14  1  0  0  0  0
 14 15  1  0  0  0  0
 14 17  1  0  0  0  0
 16 14  1  0  0  0  0
 18 19  2  0  0  0  0
 19 21  1  0  0  0  0
 19 20  1  0  0  0  0
 21 22  1  0  0  0  0
 23 21  1  0  0  0  0
 24 21  1  0  0  0  0
M  RAD  2   3   2   4   2
M  END
