Coordinates from ORCA-job p-CH3O-Ph-N2-OOCCF3-B3LYPG-aug-cc-pVDZ-scan-d09-49-n400
 OpenBabel11081710393D

 24 22  0  0  0  0  0  0  0  0999 V2000
   11.7680    8.3687   -1.3943 C   0  0  0  0  0  0  0  0  0  0  0  0
   10.5195    7.9117   -1.8534 C   0  0  0  0  0  0  0  0  0  0  0  0
   10.4180    6.5895   -1.4988 C   0  0  0  0  0  0  0  0  0  0  0  0
   11.1259    5.7374   -0.8996 C   0  0  0  0  0  0  0  0  0  0  0  0
   12.3858    6.1657   -0.4263 C   0  0  0  0  0  0  0  0  0  0  0  0
   12.6780    7.5239   -0.7005 C   0  0  0  0  0  0  0  0  0  0  0  0
   12.0608    9.4038   -1.5697 H   0  0  0  0  0  0  0  0  0  0  0  0
    9.8034    8.5305   -2.3855 H   0  0  0  0  0  0  0  0  0  0  0  0
   10.5905    3.8774   -0.5887 H   0  0  0  0  0  0  0  0  0  0  0  0
   13.0781    5.5170    0.1034 H   0  0  0  0  0  0  0  0  0  0  0  0
    7.7087    6.0709   -2.6398 N   0  0  0  0  0  0  0  0  0  0  0  0
    6.7250    5.7318   -3.0080 N   0  0  0  0  0  0  0  0  0  0  0  0
   13.8400    8.1371   -0.3305 O   0  0  0  0  0  0  0  0  0  0  0  0
   14.8153    7.3692    0.3711 C   0  0  0  0  0  0  0  0  0  0  0  0
   15.6479    8.0525    0.5618 H   0  0  0  0  0  0  0  0  0  0  0  0
   15.1661    6.5219   -0.2375 H   0  0  0  0  0  0  0  0  0  0  0  0
   14.4160    6.9994    1.3277 H   0  0  0  0  0  0  0  0  0  0  0  0
    8.4822    2.9740   -1.3247 O   0  0  0  0  0  0  0  0  0  0  0  0
    9.3654    2.4123   -0.7290 C   0  0  0  0  0  0  0  0  0  0  0  0
   10.5252    2.9199   -0.3275 O   0  0  0  0  0  0  0  0  0  0  0  0
    9.2727    0.9183   -0.3169 C   0  0  0  0  0  0  0  0  0  0  0  0
    9.3642    0.7860    1.0258 F   0  0  0  0  0  0  0  0  0  0  0  0
    8.1098    0.3851   -0.7121 F   0  0  0  0  0  0  0  0  0  0  0  0
   10.2767    0.2049   -0.8753 F   0  0  0  0  0  0  0  0  0  0  0  0
  1  6  2  0  0  0  0
  2  3  2  0  0  0  0
  2  1  1  0  0  0  0
  3  4  1  0  0  0  0
  4  5  2  0  0  0  0
  5 10  1  0  0  0  0
  6  5  1  0  0  0  0
  6 13  1  0  0  0  0
  7  1  1  0  0  0  0
  8  2  1  0  0  0  0
  9 20  1  0  0  0  0
 12 11  3  0  0  0  0
 13 14  1  0  0  0  0
 14 15  1  0  0  0  0
 14 17  1  0  0  0  0
 16 14  1  0  0  0  0
 18 19  2  0  0  0  0
 19 20  1  0  0  0  0
 19 21  1  0  0  0  0
 21 22  1  0  0  0  0
 23 21  1  0  0  0  0
 24 21  1  0  0  0  0
M  RAD  2   3   2   4   2
M  END
