Coordinates from ORCA-job p-CH3O-Ph-N2-OOCCF3-B3LYPG-aug-cc-pVDZ-scan-d09-49-n400
 OpenBabel11081710393D

 24 22  0  0  0  0  0  0  0  0999 V2000
   11.8357    8.3621   -1.3601 C   0  0  0  0  0  0  0  0  0  0  0  0
   10.5923    7.8830   -1.8098 C   0  0  0  0  0  0  0  0  0  0  0  0
   10.5103    6.5598   -1.4450 C   0  0  0  0  0  0  0  0  0  0  0  0
   11.2453    5.7378   -0.8417 C   0  0  0  0  0  0  0  0  0  0  0  0
   12.5001    6.1778   -0.3746 C   0  0  0  0  0  0  0  0  0  0  0  0
   12.7647    7.5394   -0.6636 C   0  0  0  0  0  0  0  0  0  0  0  0
   12.1115    9.4003   -1.5448 H   0  0  0  0  0  0  0  0  0  0  0  0
    9.8649    8.4878   -2.3431 H   0  0  0  0  0  0  0  0  0  0  0  0
   10.6232    3.8465   -0.5630 H   0  0  0  0  0  0  0  0  0  0  0  0
   13.2049    5.5445    0.1565 H   0  0  0  0  0  0  0  0  0  0  0  0
    7.1049    6.0436   -2.9208 N   0  0  0  0  0  0  0  0  0  0  0  0
    6.1744    5.5241   -3.2086 N   0  0  0  0  0  0  0  0  0  0  0  0
   13.9175    8.1765   -0.3056 O   0  0  0  0  0  0  0  0  0  0  0  0
   14.9103    7.4326    0.3970 C   0  0  0  0  0  0  0  0  0  0  0  0
   15.7316    8.1323    0.5768 H   0  0  0  0  0  0  0  0  0  0  0  0
   15.2729    6.5864   -0.2062 H   0  0  0  0  0  0  0  0  0  0  0  0
   14.5231    7.0643    1.3592 H   0  0  0  0  0  0  0  0  0  0  0  0
    8.5025    3.0052   -1.3242 O   0  0  0  0  0  0  0  0  0  0  0  0
    9.3668    2.4152   -0.7292 C   0  0  0  0  0  0  0  0  0  0  0  0
   10.5365    2.8915   -0.3131 O   0  0  0  0  0  0  0  0  0  0  0  0
    9.2377    0.9195   -0.3344 C   0  0  0  0  0  0  0  0  0  0  0  0
    9.3159    0.7710    1.0074 F   0  0  0  0  0  0  0  0  0  0  0  0
    8.0663    0.4174   -0.7443 F   0  0  0  0  0  0  0  0  0  0  0  0
   10.2299    0.1903   -0.8931 F   0  0  0  0  0  0  0  0  0  0  0  0
  1  6  2  0  0  0  0
  2  3  2  0  0  0  0
  2  1  1  0  0  0  0
  3  4  1  0  0  0  0
  4  5  2  0  0  0  0
  5 10  1  0  0  0  0
  6  5  1  0  0  0  0
  6 13  1  0  0  0  0
  7  1  1  0  0  0  0
  8  2  1  0  0  0  0
  9 20  1  0  0  0  0
 12 11  3  0  0  0  0
 13 14  1  0  0  0  0
 14 15  1  0  0  0  0
 14 17  1  0  0  0  0
 16 14  1  0  0  0  0
 18 19  2  0  0  0  0
 19 21  1  0  0  0  0
 19 20  1  0  0  0  0
 21 22  1  0  0  0  0
 23 21  1  0  0  0  0
 24 21  1  0  0  0  0
M  RAD  2   3   2   4   2
M  END
