Coordinates from ORCA-job p-CH3O-Ph-N2-OOCCF3-B3LYPG-aug-cc-pVDZ-scan-d09-49-n400
 OpenBabel11081710393D

 24 23  0  0  0  0  0  0  0  0999 V2000
   11.7242    8.2886   -1.5437 C   0  0  0  0  0  0  0  0  0  0  0  0
   10.5047    7.7378   -1.9272 C   0  0  0  0  0  0  0  0  0  0  0  0
   10.3029    6.4208   -1.5626 C   0  0  0  0  0  0  0  0  0  0  0  0
   11.1578    5.5919   -0.8723 C   0  0  0  0  0  0  0  0  0  0  0  0
   12.3780    6.1746   -0.5001 C   0  0  0  0  0  0  0  0  0  0  0  0
   12.6619    7.5123   -0.8315 C   0  0  0  0  0  0  0  0  0  0  0  0
   11.9693    9.3209   -1.7873 H   0  0  0  0  0  0  0  0  0  0  0  0
    9.7595    8.3067   -2.4771 H   0  0  0  0  0  0  0  0  0  0  0  0
   10.8967    4.5642   -0.6372 H   0  0  0  0  0  0  0  0  0  0  0  0
   13.0903    5.5638    0.0480 H   0  0  0  0  0  0  0  0  0  0  0  0
    8.7355    5.7767   -2.0814 N   0  0  0  0  0  0  0  0  0  0  0  0
    8.1418    4.8072   -2.0103 N   0  0  0  0  0  0  0  0  0  0  0  0
   13.8133    8.1483   -0.5102 O   0  0  0  0  0  0  0  0  0  0  0  0
   14.8175    7.4306    0.2131 C   0  0  0  0  0  0  0  0  0  0  0  0
   15.6383    8.1389    0.3538 H   0  0  0  0  0  0  0  0  0  0  0  0
   15.1724    6.5632   -0.3623 H   0  0  0  0  0  0  0  0  0  0  0  0
   14.4391    7.1041    1.1926 H   0  0  0  0  0  0  0  0  0  0  0  0
    7.2831    2.1261   -1.1372 O   0  0  0  0  0  0  0  0  0  0  0  0
    8.4469    2.3421   -0.8603 C   0  0  0  0  0  0  0  0  0  0  0  0
    9.1708    3.4002   -1.0291 O   0  0  0  0  0  0  0  0  0  0  0  0
    9.2985    1.2094   -0.1857 C   0  0  0  0  0  0  0  0  0  0  0  0
    9.8277    1.6284    0.9957 F   0  0  0  0  0  0  0  0  0  0  0  0
    8.5742    0.1082    0.0653 F   0  0  0  0  0  0  0  0  0  0  0  0
   10.3387    0.8439   -0.9812 F   0  0  0  0  0  0  0  0  0  0  0  0
  1  6  2  0  0  0  0
  2  3  2  0  0  0  0
  2  1  1  0  0  0  0
  3  4  1  0  0  0  0
  4  9  1  0  0  0  0
  4  5  2  0  0  0  0
  5 10  1  0  0  0  0
  6 13  1  0  0  0  0
  6  5  1  0  0  0  0
  7  1  1  0  0  0  0
  8  2  1  0  0  0  0
 11 12  2  0  0  0  0
 11  3  1  0  0  0  0
 13 14  1  0  0  0  0
 14 15  1  0  0  0  0
 14 17  1  0  0  0  0
 16 14  1  0  0  0  0
 18 19  2  0  0  0  0
 19 21  1  0  0  0  0
 20 19  1  0  0  0  0
 21 23  1  0  0  0  0
 21 22  1  0  0  0  0
 24 21  1  0  0  0  0
M  RAD  2  12   2  20   2
M  END
