Coordinates from ORCA-job p-CH3O-Ph-N2-OOCCF3-B3LYPG-aug-cc-pVDZ-scan-d09-49-n400
 OpenBabel11081710393D

 24 22  0  0  0  0  0  0  0  0999 V2000
   11.7072    8.3545   -1.4208 C   0  0  0  0  0  0  0  0  0  0  0  0
   10.4598    7.8949   -1.8777 C   0  0  0  0  0  0  0  0  0  0  0  0
   10.3572    6.5765   -1.5232 C   0  0  0  0  0  0  0  0  0  0  0  0
   11.0415    5.6922   -0.9247 C   0  0  0  0  0  0  0  0  0  0  0  0
   12.3016    6.1498   -0.4610 C   0  0  0  0  0  0  0  0  0  0  0  0
   12.6095    7.5038   -0.7280 C   0  0  0  0  0  0  0  0  0  0  0  0
   12.0002    9.3891   -1.5971 H   0  0  0  0  0  0  0  0  0  0  0  0
    9.7446    8.5148   -2.4102 H   0  0  0  0  0  0  0  0  0  0  0  0
   10.6209    3.9223   -0.5838 H   0  0  0  0  0  0  0  0  0  0  0  0
   12.9924    5.4988    0.0692 H   0  0  0  0  0  0  0  0  0  0  0  0
    8.1588    6.0174   -2.4052 N   0  0  0  0  0  0  0  0  0  0  0  0
    7.1570    5.8264   -2.8266 N   0  0  0  0  0  0  0  0  0  0  0  0
   13.7750    8.1070   -0.3543 O   0  0  0  0  0  0  0  0  0  0  0  0
   14.7431    7.3297    0.3476 C   0  0  0  0  0  0  0  0  0  0  0  0
   15.5804    8.0063    0.5416 H   0  0  0  0  0  0  0  0  0  0  0  0
   15.0886    6.4814   -0.2623 H   0  0  0  0  0  0  0  0  0  0  0  0
   14.3389    6.9605    1.3023 H   0  0  0  0  0  0  0  0  0  0  0  0
    8.5057    3.0228   -1.3293 O   0  0  0  0  0  0  0  0  0  0  0  0
    9.3847    2.4563   -0.7275 C   0  0  0  0  0  0  0  0  0  0  0  0
   10.5429    2.9526   -0.3237 O   0  0  0  0  0  0  0  0  0  0  0  0
    9.2783    0.9594   -0.3281 C   0  0  0  0  0  0  0  0  0  0  0  0
    9.3577    0.8151    1.0145 F   0  0  0  0  0  0  0  0  0  0  0  0
    8.1151    0.4350   -0.7362 F   0  0  0  0  0  0  0  0  0  0  0  0
   10.2819    0.2423   -0.8836 F   0  0  0  0  0  0  0  0  0  0  0  0
  1  6  2  0  0  0  0
  2  3  2  0  0  0  0
  2  1  1  0  0  0  0
  3  4  1  0  0  0  0
  4  5  2  0  0  0  0
  5 10  1  0  0  0  0
  6  5  1  0  0  0  0
  6 13  1  0  0  0  0
  7  1  1  0  0  0  0
  8  2  1  0  0  0  0
  9 20  1  0  0  0  0
 12 11  3  0  0  0  0
 13 14  1  0  0  0  0
 14 15  1  0  0  0  0
 14 17  1  0  0  0  0
 16 14  1  0  0  0  0
 18 19  2  0  0  0  0
 19 21  1  0  0  0  0
 19 20  1  0  0  0  0
 21 22  1  0  0  0  0
 23 21  1  0  0  0  0
 24 21  1  0  0  0  0
M  RAD  2   3   2   4   2
M  END
