Coordinates from ORCA-job p-CH3O-Ph-N2-OOCCF3-B3LYPG-aug-cc-pVDZ-scan-d09-49-n400
 OpenBabel11081710393D

 24 22  0  0  0  0  0  0  0  0999 V2000
   11.8712    8.3144   -1.3284 C   0  0  0  0  0  0  0  0  0  0  0  0
   10.6429    7.7774   -1.7531 C   0  0  0  0  0  0  0  0  0  0  0  0
   10.6152    6.4576   -1.3635 C   0  0  0  0  0  0  0  0  0  0  0  0
   11.3962    5.6857   -0.7536 C   0  0  0  0  0  0  0  0  0  0  0  0
   12.6373    6.1790   -0.3094 C   0  0  0  0  0  0  0  0  0  0  0  0
   12.8417    7.5444   -0.6282 C   0  0  0  0  0  0  0  0  0  0  0  0
   12.1026    9.3590   -1.5363 H   0  0  0  0  0  0  0  0  0  0  0  0
    9.8867    8.3442   -2.2885 H   0  0  0  0  0  0  0  0  0  0  0  0
   10.7030    3.7813   -0.5048 H   0  0  0  0  0  0  0  0  0  0  0  0
   13.3732    5.5848    0.2246 H   0  0  0  0  0  0  0  0  0  0  0  0
    6.5827    6.0492   -3.1732 N   0  0  0  0  0  0  0  0  0  0  0  0
    5.7033    5.4227   -3.4040 N   0  0  0  0  0  0  0  0  0  0  0  0
   13.9716    8.2351   -0.2976 O   0  0  0  0  0  0  0  0  0  0  0  0
   15.0025    7.5464    0.4065 C   0  0  0  0  0  0  0  0  0  0  0  0
   15.7964    8.2826    0.5622 H   0  0  0  0  0  0  0  0  0  0  0  0
   15.3923    6.7040   -0.1849 H   0  0  0  0  0  0  0  0  0  0  0  0
   14.6424    7.1817    1.3805 H   0  0  0  0  0  0  0  0  0  0  0  0
    8.5580    3.0749   -1.3185 O   0  0  0  0  0  0  0  0  0  0  0  0
    9.3789    2.4242   -0.7260 C   0  0  0  0  0  0  0  0  0  0  0  0
   10.5651    2.8279   -0.2799 O   0  0  0  0  0  0  0  0  0  0  0  0
    9.1649    0.9283   -0.3719 C   0  0  0  0  0  0  0  0  0  0  0  0
    9.2125    0.7426    0.9666 F   0  0  0  0  0  0  0  0  0  0  0  0
    7.9757    0.4996   -0.8128 F   0  0  0  0  0  0  0  0  0  0  0  0
   10.1266    0.1618   -0.9339 F   0  0  0  0  0  0  0  0  0  0  0  0
  1  6  2  0  0  0  0
  2  3  2  0  0  0  0
  2  1  1  0  0  0  0
  3  4  1  0  0  0  0
  4  5  2  0  0  0  0
  5 10  1  0  0  0  0
  6  5  1  0  0  0  0
  6 13  1  0  0  0  0
  7  1  1  0  0  0  0
  8  2  1  0  0  0  0
  9 20  1  0  0  0  0
 12 11  3  0  0  0  0
 13 14  1  0  0  0  0
 14 15  1  0  0  0  0
 14 17  1  0  0  0  0
 16 14  1  0  0  0  0
 18 19  2  0  0  0  0
 19 21  1  0  0  0  0
 19 20  1  0  0  0  0
 21 22  1  0  0  0  0
 23 21  1  0  0  0  0
 24 21  1  0  0  0  0
M  RAD  2   3   2   4   2
M  END
