Coordinates from ORCA-job p-CH3O-Ph-N2-OOCCF3-B3LYPG-aug-cc-pVDZ-scan-d09-49-n400
 OpenBabel11081710393D

 24 22  0  0  0  0  0  0  0  0999 V2000
   11.6882    8.3491   -1.4252 C   0  0  0  0  0  0  0  0  0  0  0  0
   10.4444    7.8824   -1.8795 C   0  0  0  0  0  0  0  0  0  0  0  0
   10.3393    6.5625   -1.5289 C   0  0  0  0  0  0  0  0  0  0  0  0
   11.0226    5.6683   -0.9298 C   0  0  0  0  0  0  0  0  0  0  0  0
   12.2801    6.1454   -0.4721 C   0  0  0  0  0  0  0  0  0  0  0  0
   12.5905    7.4983   -0.7343 C   0  0  0  0  0  0  0  0  0  0  0  0
   11.9770    9.3846   -1.6014 H   0  0  0  0  0  0  0  0  0  0  0  0
    9.7260    8.4996   -2.4114 H   0  0  0  0  0  0  0  0  0  0  0  0
   10.6361    3.9429   -0.5901 H   0  0  0  0  0  0  0  0  0  0  0  0
   12.9732    5.4957    0.0575 H   0  0  0  0  0  0  0  0  0  0  0  0
    8.2914    5.9977   -2.3386 N   0  0  0  0  0  0  0  0  0  0  0  0
    7.2889    5.8147   -2.7615 N   0  0  0  0  0  0  0  0  0  0  0  0
   13.7554    8.1007   -0.3591 O   0  0  0  0  0  0  0  0  0  0  0  0
   14.7238    7.3222    0.3415 C   0  0  0  0  0  0  0  0  0  0  0  0
   15.5608    7.9988    0.5370 H   0  0  0  0  0  0  0  0  0  0  0  0
   15.0696    6.4752   -0.2701 H   0  0  0  0  0  0  0  0  0  0  0  0
   14.3195    6.9509    1.2952 H   0  0  0  0  0  0  0  0  0  0  0  0
    8.5124    3.0481   -1.3320 O   0  0  0  0  0  0  0  0  0  0  0  0
    9.3941    2.4749   -0.7378 C   0  0  0  0  0  0  0  0  0  0  0  0
   10.5514    2.9641   -0.3328 O   0  0  0  0  0  0  0  0  0  0  0  0
    9.2731    0.9798   -0.3347 C   0  0  0  0  0  0  0  0  0  0  0  0
    9.3507    0.8380    1.0087 F   0  0  0  0  0  0  0  0  0  0  0  0
    8.1050    0.4641   -0.7412 F   0  0  0  0  0  0  0  0  0  0  0  0
   10.2697    0.2510   -0.8876 F   0  0  0  0  0  0  0  0  0  0  0  0
  1  6  2  0  0  0  0
  2  3  2  0  0  0  0
  2  1  1  0  0  0  0
  3  4  1  0  0  0  0
  4  5  2  0  0  0  0
  5 10  1  0  0  0  0
  6  5  1  0  0  0  0
  6 13  1  0  0  0  0
  7  1  1  0  0  0  0
  8  2  1  0  0  0  0
  9 20  1  0  0  0  0
 12 11  3  0  0  0  0
 13 14  1  0  0  0  0
 14 15  1  0  0  0  0
 14 17  1  0  0  0  0
 16 14  1  0  0  0  0
 18 19  2  0  0  0  0
 19 21  1  0  0  0  0
 19 20  1  0  0  0  0
 21 22  1  0  0  0  0
 23 21  1  0  0  0  0
 24 21  1  0  0  0  0
M  RAD  2   3   2   4   2
M  END
