Coordinates from ORCA-job p-CH3O-Ph-N2-OOCCF3-B3LYPG-aug-cc-pVDZ-scan-d09-49-n400
 OpenBabel11081710393D

 24 22  0  0  0  0  0  0  0  0999 V2000
   11.8349    8.3622   -1.3605 C   0  0  0  0  0  0  0  0  0  0  0  0
   10.5914    7.8831   -1.8102 C   0  0  0  0  0  0  0  0  0  0  0  0
   10.5095    6.5599   -1.4455 C   0  0  0  0  0  0  0  0  0  0  0  0
   11.2443    5.7376   -0.8422 C   0  0  0  0  0  0  0  0  0  0  0  0
   12.4991    6.1778   -0.3751 C   0  0  0  0  0  0  0  0  0  0  0  0
   12.7638    7.5394   -0.6640 C   0  0  0  0  0  0  0  0  0  0  0  0
   12.1107    9.4003   -1.5452 H   0  0  0  0  0  0  0  0  0  0  0  0
    9.8640    8.4879   -2.3436 H   0  0  0  0  0  0  0  0  0  0  0  0
   10.6222    3.8466   -0.5636 H   0  0  0  0  0  0  0  0  0  0  0  0
   13.2039    5.5445    0.1561 H   0  0  0  0  0  0  0  0  0  0  0  0
    7.1132    6.0440   -2.9169 N   0  0  0  0  0  0  0  0  0  0  0  0
    6.1817    5.5270   -3.2059 N   0  0  0  0  0  0  0  0  0  0  0  0
   13.9166    8.1764   -0.3060 O   0  0  0  0  0  0  0  0  0  0  0  0
   14.9093    7.4324    0.3966 C   0  0  0  0  0  0  0  0  0  0  0  0
   15.7307    8.1321    0.5764 H   0  0  0  0  0  0  0  0  0  0  0  0
   15.2719    6.5862   -0.2066 H   0  0  0  0  0  0  0  0  0  0  0  0
   14.5221    7.0641    1.3588 H   0  0  0  0  0  0  0  0  0  0  0  0
    8.5016    3.0044   -1.3244 O   0  0  0  0  0  0  0  0  0  0  0  0
    9.3662    2.4148   -0.7294 C   0  0  0  0  0  0  0  0  0  0  0  0
   10.5358    2.8917   -0.3135 O   0  0  0  0  0  0  0  0  0  0  0  0
    9.2377    0.9192   -0.3342 C   0  0  0  0  0  0  0  0  0  0  0  0
    9.3162    0.7709    1.0075 F   0  0  0  0  0  0  0  0  0  0  0  0
    8.0665    0.4165   -0.7439 F   0  0  0  0  0  0  0  0  0  0  0  0
   10.2302    0.1902   -0.8930 F   0  0  0  0  0  0  0  0  0  0  0  0
  1  6  2  0  0  0  0
  2  3  2  0  0  0  0
  2  1  1  0  0  0  0
  3  4  1  0  0  0  0
  4  5  2  0  0  0  0
  5 10  1  0  0  0  0
  6  5  1  0  0  0  0
  6 13  1  0  0  0  0
  7  1  1  0  0  0  0
  8  2  1  0  0  0  0
  9 20  1  0  0  0  0
 12 11  3  0  0  0  0
 13 14  1  0  0  0  0
 14 15  1  0  0  0  0
 14 17  1  0  0  0  0
 16 14  1  0  0  0  0
 18 19  2  0  0  0  0
 19 21  1  0  0  0  0
 19 20  1  0  0  0  0
 21 22  1  0  0  0  0
 23 21  1  0  0  0  0
 24 21  1  0  0  0  0
M  RAD  2   3   2   4   2
M  END
