Coordinates from ORCA-job p-CH3O-Ph-N2-OOCCF3-B3LYPG-aug-cc-pVDZ-scan-d09-49-n400
 OpenBabel11081710393D

 24 22  0  0  0  0  0  0  0  0999 V2000
   11.8683    8.3200   -1.3314 C   0  0  0  0  0  0  0  0  0  0  0  0
   10.6381    7.7887   -1.7588 C   0  0  0  0  0  0  0  0  0  0  0  0
   10.6078    6.4696   -1.3705 C   0  0  0  0  0  0  0  0  0  0  0  0
   11.3823    5.6911   -0.7617 C   0  0  0  0  0  0  0  0  0  0  0  0
   12.6249    6.1790   -0.3152 C   0  0  0  0  0  0  0  0  0  0  0  0
   12.8350    7.5445   -0.6314 C   0  0  0  0  0  0  0  0  0  0  0  0
   12.1042    9.3641   -1.5371 H   0  0  0  0  0  0  0  0  0  0  0  0
    9.8846    8.3593   -2.2940 H   0  0  0  0  0  0  0  0  0  0  0  0
   10.6925    3.7896   -0.5122 H   0  0  0  0  0  0  0  0  0  0  0  0
   13.3579    5.5810    0.2186 H   0  0  0  0  0  0  0  0  0  0  0  0
    6.6384    6.0403   -3.1439 N   0  0  0  0  0  0  0  0  0  0  0  0
    5.7534    5.4240   -3.3805 N   0  0  0  0  0  0  0  0  0  0  0  0
   13.9672    8.2301   -0.2982 O   0  0  0  0  0  0  0  0  0  0  0  0
   14.9946    7.5361    0.4057 C   0  0  0  0  0  0  0  0  0  0  0  0
   15.7913    8.2689    0.5636 H   0  0  0  0  0  0  0  0  0  0  0  0
   15.3818    6.6933   -0.1868 H   0  0  0  0  0  0  0  0  0  0  0  0
   14.6320    7.1710    1.3786 H   0  0  0  0  0  0  0  0  0  0  0  0
    8.5471    3.0674   -1.3215 O   0  0  0  0  0  0  0  0  0  0  0  0
    9.3739    2.4242   -0.7284 C   0  0  0  0  0  0  0  0  0  0  0  0
   10.5588    2.8359   -0.2853 O   0  0  0  0  0  0  0  0  0  0  0  0
    9.1699    0.9280   -0.3694 C   0  0  0  0  0  0  0  0  0  0  0  0
    9.2210    0.7466    0.9695 F   0  0  0  0  0  0  0  0  0  0  0  0
    7.9827    0.4905   -0.8070 F   0  0  0  0  0  0  0  0  0  0  0  0
   10.1354    0.1658   -0.9308 F   0  0  0  0  0  0  0  0  0  0  0  0
  1  6  2  0  0  0  0
  2  3  2  0  0  0  0
  2  1  1  0  0  0  0
  3  4  1  0  0  0  0
  4  5  2  0  0  0  0
  5 10  1  0  0  0  0
  6  5  1  0  0  0  0
  6 13  1  0  0  0  0
  7  1  1  0  0  0  0
  8  2  1  0  0  0  0
  9 20  1  0  0  0  0
 12 11  3  0  0  0  0
 13 14  1  0  0  0  0
 14 15  1  0  0  0  0
 14 17  1  0  0  0  0
 16 14  1  0  0  0  0
 18 19  2  0  0  0  0
 19 21  1  0  0  0  0
 19 20  1  0  0  0  0
 21 22  1  0  0  0  0
 23 21  1  0  0  0  0
 24 21  1  0  0  0  0
M  RAD  2   3   2   4   2
M  END
