Coordinates from ORCA-job p-CH3O-Ph-N2-OOCCF3-B3LYPG-aug-cc-pVDZ-scan-d09-49-n400
 OpenBabel11081710393D

 24 22  0  0  0  0  0  0  0  0999 V2000
   11.7857    8.3680   -1.3857 C   0  0  0  0  0  0  0  0  0  0  0  0
   10.5383    7.9060   -1.8427 C   0  0  0  0  0  0  0  0  0  0  0  0
   10.4413    6.5833   -1.4857 C   0  0  0  0  0  0  0  0  0  0  0  0
   11.1571    5.7403   -0.8854 C   0  0  0  0  0  0  0  0  0  0  0  0
   12.4158    6.1695   -0.4129 C   0  0  0  0  0  0  0  0  0  0  0  0
   12.7007    7.5288   -0.6911 C   0  0  0  0  0  0  0  0  0  0  0  0
   12.0746    9.4038   -1.5632 H   0  0  0  0  0  0  0  0  0  0  0  0
    9.8196    8.5217   -2.3751 H   0  0  0  0  0  0  0  0  0  0  0  0
   10.5954    3.8674   -0.5832 H   0  0  0  0  0  0  0  0  0  0  0  0
   13.1110    5.5244    0.1171 H   0  0  0  0  0  0  0  0  0  0  0  0
    7.5573    6.0683   -2.7115 N   0  0  0  0  0  0  0  0  0  0  0  0
    6.5843    5.6807   -3.0598 N   0  0  0  0  0  0  0  0  0  0  0  0
   13.8603    8.1481   -0.3242 O   0  0  0  0  0  0  0  0  0  0  0  0
   14.8401    7.3863    0.3778 C   0  0  0  0  0  0  0  0  0  0  0  0
   15.6699    8.0739    0.5657 H   0  0  0  0  0  0  0  0  0  0  0  0
   15.1940    6.5394   -0.2294 H   0  0  0  0  0  0  0  0  0  0  0  0
   14.4439    7.0169    1.3358 H   0  0  0  0  0  0  0  0  0  0  0  0
    8.4846    2.9779   -1.3246 O   0  0  0  0  0  0  0  0  0  0  0  0
    9.3636    2.4100   -0.7291 C   0  0  0  0  0  0  0  0  0  0  0  0
   10.5259    2.9111   -0.3244 O   0  0  0  0  0  0  0  0  0  0  0  0
    9.2634    0.9156   -0.3206 C   0  0  0  0  0  0  0  0  0  0  0  0
    9.3524    0.7799    1.0220 F   0  0  0  0  0  0  0  0  0  0  0  0
    8.0987    0.3889   -0.7188 F   0  0  0  0  0  0  0  0  0  0  0  0
   10.2650    0.1989   -0.8792 F   0  0  0  0  0  0  0  0  0  0  0  0
  1  6  2  0  0  0  0
  2  3  2  0  0  0  0
  2  1  1  0  0  0  0
  3  4  1  0  0  0  0
  4  5  2  0  0  0  0
  5 10  1  0  0  0  0
  6  5  1  0  0  0  0
  6 13  1  0  0  0  0
  7  1  1  0  0  0  0
  8  2  1  0  0  0  0
  9 20  1  0  0  0  0
 12 11  3  0  0  0  0
 13 14  1  0  0  0  0
 14 15  1  0  0  0  0
 14 17  1  0  0  0  0
 16 14  1  0  0  0  0
 18 19  2  0  0  0  0
 19 20  1  0  0  0  0
 19 21  1  0  0  0  0
 21 22  1  0  0  0  0
 23 21  1  0  0  0  0
 24 21  1  0  0  0  0
M  RAD  2   3   2   4   2
M  END
