Coordinates from ORCA-job p-CH3O-Ph-N2-OOCCF3-B3LYPG-aug-cc-pVDZ-scan-d09-49-n400
 OpenBabel11081710393D

 24 22  0  0  0  0  0  0  0  0999 V2000
   11.8652    8.3306   -1.3361 C   0  0  0  0  0  0  0  0  0  0  0  0
   10.6314    7.8109   -1.7686 C   0  0  0  0  0  0  0  0  0  0  0  0
   10.5914    6.4913   -1.3849 C   0  0  0  0  0  0  0  0  0  0  0  0
   11.3563    5.7021   -0.7774 C   0  0  0  0  0  0  0  0  0  0  0  0
   12.6018    6.1794   -0.3263 C   0  0  0  0  0  0  0  0  0  0  0  0
   12.8238    7.5445   -0.6368 C   0  0  0  0  0  0  0  0  0  0  0  0
   12.1103    9.3734   -1.5371 H   0  0  0  0  0  0  0  0  0  0  0  0
    9.8842    8.3898   -2.3035 H   0  0  0  0  0  0  0  0  0  0  0  0
   10.6753    3.8033   -0.5246 H   0  0  0  0  0  0  0  0  0  0  0  0
   13.3288    5.5737    0.2071 H   0  0  0  0  0  0  0  0  0  0  0  0
    6.7125    6.0388   -3.1079 N   0  0  0  0  0  0  0  0  0  0  0  0
    5.8201    5.4366   -3.3524 N   0  0  0  0  0  0  0  0  0  0  0  0
   13.9606    8.2197   -0.2982 O   0  0  0  0  0  0  0  0  0  0  0  0
   14.9807    7.5147    0.4054 C   0  0  0  0  0  0  0  0  0  0  0  0
   15.7829    8.2403    0.5681 H   0  0  0  0  0  0  0  0  0  0  0  0
   15.3624    6.6710   -0.1894 H   0  0  0  0  0  0  0  0  0  0  0  0
   14.6128    7.1488    1.3761 H   0  0  0  0  0  0  0  0  0  0  0  0
    8.5333    3.0509   -1.3232 O   0  0  0  0  0  0  0  0  0  0  0  0
    9.3702    2.4215   -0.7294 C   0  0  0  0  0  0  0  0  0  0  0  0
   10.5516    2.8492   -0.2927 O   0  0  0  0  0  0  0  0  0  0  0  0
    9.1852    0.9250   -0.3612 C   0  0  0  0  0  0  0  0  0  0  0  0
    9.2430    0.7517    0.9786 F   0  0  0  0  0  0  0  0  0  0  0  0
    8.0018    0.4708   -0.7921 F   0  0  0  0  0  0  0  0  0  0  0  0
   10.1578    0.1710   -0.9216 F   0  0  0  0  0  0  0  0  0  0  0  0
  1  6  2  0  0  0  0
  2  3  2  0  0  0  0
  2  1  1  0  0  0  0
  3  4  1  0  0  0  0
  4  5  2  0  0  0  0
  5 10  1  0  0  0  0
  6  5  1  0  0  0  0
  6 13  1  0  0  0  0
  7  1  1  0  0  0  0
  8  2  1  0  0  0  0
  9 20  1  0  0  0  0
 12 11  3  0  0  0  0
 13 14  1  0  0  0  0
 14 15  1  0  0  0  0
 14 17  1  0  0  0  0
 16 14  1  0  0  0  0
 18 19  2  0  0  0  0
 19 21  1  0  0  0  0
 19 20  1  0  0  0  0
 21 22  1  0  0  0  0
 23 21  1  0  0  0  0
 24 21  1  0  0  0  0
M  RAD  2   3   2   4   2
M  END
