Coordinates from ORCA-job p-CH3O-Ph-N2-OOCCF3-B3LYPG-aug-cc-pVDZ-scan-d09-49-n400
 OpenBabel11081710393D

 24 22  0  0  0  0  0  0  0  0999 V2000
   11.8116    8.3621   -1.3715 C   0  0  0  0  0  0  0  0  0  0  0  0
   10.5670    7.8876   -1.8233 C   0  0  0  0  0  0  0  0  0  0  0  0
   10.4813    6.5647   -1.4606 C   0  0  0  0  0  0  0  0  0  0  0  0
   11.2106    5.7363   -0.8581 C   0  0  0  0  0  0  0  0  0  0  0  0
   12.4664    6.1738   -0.3897 C   0  0  0  0  0  0  0  0  0  0  0  0
   12.7367    7.5348   -0.6756 C   0  0  0  0  0  0  0  0  0  0  0  0
   12.0910    9.3996   -1.5543 H   0  0  0  0  0  0  0  0  0  0  0  0
    9.8419    8.4952   -2.3564 H   0  0  0  0  0  0  0  0  0  0  0  0
   10.6136    3.8519   -0.5695 H   0  0  0  0  0  0  0  0  0  0  0  0
   13.1687    5.5373    0.1412 H   0  0  0  0  0  0  0  0  0  0  0  0
    7.3135    6.0531   -2.8238 N   0  0  0  0  0  0  0  0  0  0  0  0
    6.3604    5.5955   -3.1412 N   0  0  0  0  0  0  0  0  0  0  0  0
   13.8914    8.1670   -0.3151 O   0  0  0  0  0  0  0  0  0  0  0  0
   14.8807    7.4180    0.3873 C   0  0  0  0  0  0  0  0  0  0  0  0
   15.7044    8.1144    0.5694 H   0  0  0  0  0  0  0  0  0  0  0  0
   15.2408    6.5717   -0.2170 H   0  0  0  0  0  0  0  0  0  0  0  0
   14.4910    7.0494    1.3484 H   0  0  0  0  0  0  0  0  0  0  0  0
    8.4956    2.9965   -1.3250 O   0  0  0  0  0  0  0  0  0  0  0  0
    9.3642    2.4129   -0.7298 C   0  0  0  0  0  0  0  0  0  0  0  0
   10.5317    2.8964   -0.3169 O   0  0  0  0  0  0  0  0  0  0  0  0
    9.2435    0.9176   -0.3309 C   0  0  0  0  0  0  0  0  0  0  0  0
    9.3248    0.7728    1.0111 F   0  0  0  0  0  0  0  0  0  0  0  0
    8.0739    0.4083   -0.7374 F   0  0  0  0  0  0  0  0  0  0  0  0
   10.2384    0.1920   -0.8896 F   0  0  0  0  0  0  0  0  0  0  0  0
  1  6  2  0  0  0  0
  2  3  2  0  0  0  0
  2  1  1  0  0  0  0
  3  4  1  0  0  0  0
  4  5  2  0  0  0  0
  5 10  1  0  0  0  0
  6  5  1  0  0  0  0
  6 13  1  0  0  0  0
  7  1  1  0  0  0  0
  8  2  1  0  0  0  0
  9 20  1  0  0  0  0
 12 11  3  0  0  0  0
 13 14  1  0  0  0  0
 14 15  1  0  0  0  0
 14 17  1  0  0  0  0
 16 14  1  0  0  0  0
 18 19  2  0  0  0  0
 19 21  1  0  0  0  0
 19 20  1  0  0  0  0
 21 22  1  0  0  0  0
 23 21  1  0  0  0  0
 24 21  1  0  0  0  0
M  RAD  2   3   2   4   2
M  END
