Coordinates from ORCA-job p-CH3O-Ph-N2-OOCCF3-B3LYPG-aug-cc-pVDZ-scan-d09-49-n400
 OpenBabel11081710393D

 24 22  0  0  0  0  0  0  0  0999 V2000
   11.7489    8.3283   -1.5402 C   0  0  0  0  0  0  0  0  0  0  0  0
   10.5141    7.8202   -1.9515 C   0  0  0  0  0  0  0  0  0  0  0  0
   10.3214    6.5111   -1.5929 C   0  0  0  0  0  0  0  0  0  0  0  0
   11.1076    5.6243   -0.9186 C   0  0  0  0  0  0  0  0  0  0  0  0
   12.3408    6.1787   -0.5243 C   0  0  0  0  0  0  0  0  0  0  0  0
   12.6584    7.5149   -0.8309 C   0  0  0  0  0  0  0  0  0  0  0  0
   12.0204    9.3587   -1.7640 H   0  0  0  0  0  0  0  0  0  0  0  0
    9.7855    8.4107   -2.4992 H   0  0  0  0  0  0  0  0  0  0  0  0
   10.8028    4.5992   -0.7113 H   0  0  0  0  0  0  0  0  0  0  0  0
   13.0301    5.5393    0.0209 H   0  0  0  0  0  0  0  0  0  0  0  0
    8.6145    5.8086   -2.1656 N   0  0  0  0  0  0  0  0  0  0  0  0
    8.0490    4.8370   -2.0836 N   0  0  0  0  0  0  0  0  0  0  0  0
   13.8208    8.1181   -0.4868 O   0  0  0  0  0  0  0  0  0  0  0  0
   14.7993    7.3637    0.2353 C   0  0  0  0  0  0  0  0  0  0  0  0
   15.6352    8.0493    0.3970 H   0  0  0  0  0  0  0  0  0  0  0  0
   15.1393    6.4979   -0.3512 H   0  0  0  0  0  0  0  0  0  0  0  0
   14.4015    7.0305    1.2049 H   0  0  0  0  0  0  0  0  0  0  0  0
    7.3266    2.0854   -1.0693 O   0  0  0  0  0  0  0  0  0  0  0  0
    8.4975    2.3212   -0.8236 C   0  0  0  0  0  0  0  0  0  0  0  0
    9.2066    3.3719   -1.0243 O   0  0  0  0  0  0  0  0  0  0  0  0
    9.3637    1.1958   -0.1474 C   0  0  0  0  0  0  0  0  0  0  0  0
    9.9239    1.6343    1.0142 F   0  0  0  0  0  0  0  0  0  0  0  0
    8.6494    0.0967    0.1442 F   0  0  0  0  0  0  0  0  0  0  0  0
   10.3858    0.8131   -0.9601 F   0  0  0  0  0  0  0  0  0  0  0  0
  1  6  2  0  0  0  0
  2  3  2  0  0  0  0
  2  1  1  0  0  0  0
  3  4  1  0  0  0  0
  4  9  1  0  0  0  0
  4  5  2  0  0  0  0
  5 10  1  0  0  0  0
  6  5  1  0  0  0  0
  6 13  1  0  0  0  0
  7  1  1  0  0  0  0
  8  2  1  0  0  0  0
 11 12  3  0  0  0  0
 13 14  1  0  0  0  0
 14 15  1  0  0  0  0
 14 17  1  0  0  0  0
 16 14  1  0  0  0  0
 18 19  2  0  0  0  0
 19 21  1  0  0  0  0
 20 19  1  0  0  0  0
 21 23  1  0  0  0  0
 21 22  1  0  0  0  0
 24 21  1  0  0  0  0
M  RAD  2   3   2  20   2
M  END
