Coordinates from ORCA-job p-CH3O-Ph-N2-OOCCF3-B3LYPG-aug-cc-pVDZ-scan-d09-49-n400
 OpenBabel11081710393D

 24 22  0  0  0  0  0  0  0  0999 V2000
   11.6747    8.3416   -1.4284 C   0  0  0  0  0  0  0  0  0  0  0  0
   10.4348    7.8685   -1.8784 C   0  0  0  0  0  0  0  0  0  0  0  0
   10.3224    6.5451   -1.5311 C   0  0  0  0  0  0  0  0  0  0  0  0
   11.0145    5.6509   -0.9288 C   0  0  0  0  0  0  0  0  0  0  0  0
   12.2694    6.1410   -0.4768 C   0  0  0  0  0  0  0  0  0  0  0  0
   12.5790    7.4927   -0.7383 C   0  0  0  0  0  0  0  0  0  0  0  0
   11.9595    9.3778   -1.6062 H   0  0  0  0  0  0  0  0  0  0  0  0
    9.7129    8.4823   -2.4100 H   0  0  0  0  0  0  0  0  0  0  0  0
   10.6413    3.9625   -0.5934 H   0  0  0  0  0  0  0  0  0  0  0  0
   12.9652    5.4935    0.0524 H   0  0  0  0  0  0  0  0  0  0  0  0
    8.3863    5.9831   -2.2870 N   0  0  0  0  0  0  0  0  0  0  0  0
    7.3836    5.8001   -2.7093 N   0  0  0  0  0  0  0  0  0  0  0  0
   13.7426    8.0972   -0.3648 O   0  0  0  0  0  0  0  0  0  0  0  0
   14.7137    7.3212    0.3353 C   0  0  0  0  0  0  0  0  0  0  0  0
   15.5493    8.0000    0.5294 H   0  0  0  0  0  0  0  0  0  0  0  0
   15.0606    6.4747   -0.2763 H   0  0  0  0  0  0  0  0  0  0  0  0
   14.3112    6.9495    1.2895 H   0  0  0  0  0  0  0  0  0  0  0  0
    8.5120    3.0652   -1.3404 O   0  0  0  0  0  0  0  0  0  0  0  0
    9.3927    2.4913   -0.7429 C   0  0  0  0  0  0  0  0  0  0  0  0
   10.5489    2.9763   -0.3373 O   0  0  0  0  0  0  0  0  0  0  0  0
    9.2668    0.9958   -0.3424 C   0  0  0  0  0  0  0  0  0  0  0  0
    9.3297    0.8533    1.0021 F   0  0  0  0  0  0  0  0  0  0  0  0
    8.1030    0.4795   -0.7612 F   0  0  0  0  0  0  0  0  0  0  0  0
   10.2691    0.2659   -0.8840 F   0  0  0  0  0  0  0  0  0  0  0  0
  1  6  2  0  0  0  0
  2  3  2  0  0  0  0
  2  1  1  0  0  0  0
  3  4  1  0  0  0  0
  4  5  2  0  0  0  0
  5 10  1  0  0  0  0
  6  5  1  0  0  0  0
  6 13  1  0  0  0  0
  7  1  1  0  0  0  0
  8  2  1  0  0  0  0
  9 20  1  0  0  0  0
 12 11  3  0  0  0  0
 13 14  1  0  0  0  0
 14 15  1  0  0  0  0
 14 17  1  0  0  0  0
 16 14  1  0  0  0  0
 18 19  2  0  0  0  0
 19 21  1  0  0  0  0
 19 20  1  0  0  0  0
 21 22  1  0  0  0  0
 23 21  1  0  0  0  0
 24 21  1  0  0  0  0
M  RAD  2   3   2   4   2
M  END
