Coordinates from ORCA-job p-CH3O-Ph-N2-OOCCF3-B3LYPG-aug-cc-pVDZ-scan-d09-49-n400
 OpenBabel11081710393D

 24 22  0  0  0  0  0  0  0  0999 V2000
   11.8623    8.3418   -1.3410 C   0  0  0  0  0  0  0  0  0  0  0  0
   10.6255    7.8352   -1.7790 C   0  0  0  0  0  0  0  0  0  0  0  0
   10.5698    6.5136   -1.4021 C   0  0  0  0  0  0  0  0  0  0  0  0
   11.3269    5.7160   -0.7957 C   0  0  0  0  0  0  0  0  0  0  0  0
   12.5754    6.1799   -0.3390 C   0  0  0  0  0  0  0  0  0  0  0  0
   12.8114    7.5439   -0.6425 C   0  0  0  0  0  0  0  0  0  0  0  0
   12.1172    9.3832   -1.5369 H   0  0  0  0  0  0  0  0  0  0  0  0
    9.8849    8.4230   -2.3134 H   0  0  0  0  0  0  0  0  0  0  0  0
   10.6610    3.8178   -0.5359 H   0  0  0  0  0  0  0  0  0  0  0  0
   13.2950    5.5648    0.1937 H   0  0  0  0  0  0  0  0  0  0  0  0
    6.7816    6.0389   -3.0747 N   0  0  0  0  0  0  0  0  0  0  0  0
    5.8830    5.4484   -3.3257 N   0  0  0  0  0  0  0  0  0  0  0  0
   13.9537    8.2066   -0.2975 O   0  0  0  0  0  0  0  0  0  0  0  0
   14.9649    7.4886    0.4059 C   0  0  0  0  0  0  0  0  0  0  0  0
   15.7736    8.2058    0.5741 H   0  0  0  0  0  0  0  0  0  0  0  0
   15.3403    6.6440   -0.1917 H   0  0  0  0  0  0  0  0  0  0  0  0
   14.5908    7.1219    1.3738 H   0  0  0  0  0  0  0  0  0  0  0  0
    8.5261    3.0377   -1.3226 O   0  0  0  0  0  0  0  0  0  0  0  0
    9.3714    2.4203   -0.7284 C   0  0  0  0  0  0  0  0  0  0  0  0
   10.5494    2.8633   -0.2982 O   0  0  0  0  0  0  0  0  0  0  0  0
    9.2039    0.9237   -0.3519 C   0  0  0  0  0  0  0  0  0  0  0  0
    9.2681    0.7582    0.9886 F   0  0  0  0  0  0  0  0  0  0  0  0
    8.0241    0.4545   -0.7764 F   0  0  0  0  0  0  0  0  0  0  0  0
   10.1828    0.1775   -0.9116 F   0  0  0  0  0  0  0  0  0  0  0  0
  1  6  2  0  0  0  0
  2  3  2  0  0  0  0
  2  1  1  0  0  0  0
  3  4  1  0  0  0  0
  4  5  2  0  0  0  0
  5 10  1  0  0  0  0
  6  5  1  0  0  0  0
  6 13  1  0  0  0  0
  7  1  1  0  0  0  0
  8  2  1  0  0  0  0
  9 20  1  0  0  0  0
 12 11  3  0  0  0  0
 13 14  1  0  0  0  0
 14 15  1  0  0  0  0
 14 17  1  0  0  0  0
 16 14  1  0  0  0  0
 18 19  2  0  0  0  0
 19 21  1  0  0  0  0
 19 20  1  0  0  0  0
 21 22  1  0  0  0  0
 23 21  1  0  0  0  0
 24 21  1  0  0  0  0
M  RAD  2   3   2   4   2
M  END
