Coordinates from ORCA-job p-CH3O-Ph-N2-OOCCF3-B3LYPG-aug-cc-pVDZ-scan-d09-49-n400
 OpenBabel11081710393D

 24 22  0  0  0  0  0  0  0  0999 V2000
   11.7320    8.3617   -1.4093 C   0  0  0  0  0  0  0  0  0  0  0  0
   10.4835    7.9024   -1.8677 C   0  0  0  0  0  0  0  0  0  0  0  0
   10.3893    6.5841   -1.5110 C   0  0  0  0  0  0  0  0  0  0  0  0
   11.0803    5.7115   -0.9138 C   0  0  0  0  0  0  0  0  0  0  0  0
   12.3406    6.1577   -0.4458 C   0  0  0  0  0  0  0  0  0  0  0  0
   12.6391    7.5145   -0.7163 C   0  0  0  0  0  0  0  0  0  0  0  0
   12.0241    9.3969   -1.5849 H   0  0  0  0  0  0  0  0  0  0  0  0
    9.7665    8.5202   -2.3997 H   0  0  0  0  0  0  0  0  0  0  0  0
   10.6024    3.8983   -0.5895 H   0  0  0  0  0  0  0  0  0  0  0  0
   13.0331    5.5087    0.0840 H   0  0  0  0  0  0  0  0  0  0  0  0
    7.9860    6.0367   -2.4961 N   0  0  0  0  0  0  0  0  0  0  0  0
    6.9885    5.7930   -2.9008 N   0  0  0  0  0  0  0  0  0  0  0  0
   13.8022    8.1240   -0.3446 O   0  0  0  0  0  0  0  0  0  0  0  0
   14.7749    7.3523    0.3569 C   0  0  0  0  0  0  0  0  0  0  0  0
   15.6092    8.0331    0.5492 H   0  0  0  0  0  0  0  0  0  0  0  0
   15.1239    6.5050   -0.2526 H   0  0  0  0  0  0  0  0  0  0  0  0
   14.3737    6.9821    1.3125 H   0  0  0  0  0  0  0  0  0  0  0  0
    8.4850    2.9936   -1.3294 O   0  0  0  0  0  0  0  0  0  0  0  0
    9.3692    2.4317   -0.7332 C   0  0  0  0  0  0  0  0  0  0  0  0
   10.5278    2.9348   -0.3309 O   0  0  0  0  0  0  0  0  0  0  0  0
    9.2711    0.9371   -0.3233 C   0  0  0  0  0  0  0  0  0  0  0  0
    9.3604    0.8019    1.0196 F   0  0  0  0  0  0  0  0  0  0  0  0
    8.1070    0.4070   -0.7203 F   0  0  0  0  0  0  0  0  0  0  0  0
   10.2734    0.2206   -0.8813 F   0  0  0  0  0  0  0  0  0  0  0  0
  1  6  2  0  0  0  0
  2  3  2  0  0  0  0
  2  1  1  0  0  0  0
  3  4  1  0  0  0  0
  4  5  2  0  0  0  0
  5 10  1  0  0  0  0
  6  5  1  0  0  0  0
  6 13  1  0  0  0  0
  7  1  1  0  0  0  0
  8  2  1  0  0  0  0
  9 20  1  0  0  0  0
 12 11  3  0  0  0  0
 13 14  1  0  0  0  0
 14 15  1  0  0  0  0
 14 17  1  0  0  0  0
 16 14  1  0  0  0  0
 18 19  2  0  0  0  0
 19 20  1  0  0  0  0
 19 21  1  0  0  0  0
 21 22  1  0  0  0  0
 23 21  1  0  0  0  0
 24 21  1  0  0  0  0
M  RAD  2   3   2   4   2
M  END
