Coordinates from ORCA-job p-CH3O-Ph-N2-OOCCF3-B3LYPG-aug-cc-pVDZ-scan-d09-49-n400
 OpenBabel11081710393D

 24 22  0  0  0  0  0  0  0  0999 V2000
   11.8301    8.3621   -1.3628 C   0  0  0  0  0  0  0  0  0  0  0  0
   10.5864    7.8833   -1.8127 C   0  0  0  0  0  0  0  0  0  0  0  0
   10.5058    6.5607   -1.4475 C   0  0  0  0  0  0  0  0  0  0  0  0
   11.2385    5.7369   -0.8447 C   0  0  0  0  0  0  0  0  0  0  0  0
   12.4936    6.1772   -0.3776 C   0  0  0  0  0  0  0  0  0  0  0  0
   12.7587    7.5388   -0.6663 C   0  0  0  0  0  0  0  0  0  0  0  0
   12.1063    9.4002   -1.5473 H   0  0  0  0  0  0  0  0  0  0  0  0
    9.8588    8.4878   -2.3460 H   0  0  0  0  0  0  0  0  0  0  0  0
   10.6192    3.8469   -0.5651 H   0  0  0  0  0  0  0  0  0  0  0  0
   13.1982    5.5437    0.1536 H   0  0  0  0  0  0  0  0  0  0  0  0
    7.1552    6.0468   -2.8977 N   0  0  0  0  0  0  0  0  0  0  0  0
    6.2188    5.5414   -3.1925 N   0  0  0  0  0  0  0  0  0  0  0  0
   13.9116    8.1755   -0.3081 O   0  0  0  0  0  0  0  0  0  0  0  0
   14.9041    7.4310    0.3945 C   0  0  0  0  0  0  0  0  0  0  0  0
   15.7256    8.1304    0.5745 H   0  0  0  0  0  0  0  0  0  0  0  0
   15.2664    6.5848   -0.2088 H   0  0  0  0  0  0  0  0  0  0  0  0
   14.5167    7.0627    1.3566 H   0  0  0  0  0  0  0  0  0  0  0  0
    8.4990    3.0018   -1.3249 O   0  0  0  0  0  0  0  0  0  0  0  0
    9.3645    2.4135   -0.7298 C   0  0  0  0  0  0  0  0  0  0  0  0
   10.5336    2.8918   -0.3146 O   0  0  0  0  0  0  0  0  0  0  0  0
    9.2377    0.9179   -0.3339 C   0  0  0  0  0  0  0  0  0  0  0  0
    9.3168    0.7704    1.0080 F   0  0  0  0  0  0  0  0  0  0  0  0
    8.0669    0.4138   -0.7429 F   0  0  0  0  0  0  0  0  0  0  0  0
   10.2308    0.1897   -0.8925 F   0  0  0  0  0  0  0  0  0  0  0  0
  1  6  2  0  0  0  0
  2  3  2  0  0  0  0
  2  1  1  0  0  0  0
  3  4  1  0  0  0  0
  4  5  2  0  0  0  0
  5 10  1  0  0  0  0
  6  5  1  0  0  0  0
  6 13  1  0  0  0  0
  7  1  1  0  0  0  0
  8  2  1  0  0  0  0
  9 20  1  0  0  0  0
 12 11  3  0  0  0  0
 13 14  1  0  0  0  0
 14 15  1  0  0  0  0
 14 17  1  0  0  0  0
 16 14  1  0  0  0  0
 18 19  2  0  0  0  0
 19 21  1  0  0  0  0
 19 20  1  0  0  0  0
 21 22  1  0  0  0  0
 23 21  1  0  0  0  0
 24 21  1  0  0  0  0
M  RAD  2   3   2   4   2
M  END
