Coordinates from ORCA-job p-CH3O-Ph-N2-OOCCF3-B3LYPG-aug-cc-pVDZ-scan-d09-49-n400
 OpenBabel11081710393D

 24 22  0  0  0  0  0  0  0  0999 V2000
   11.7730    8.3690   -1.3921 C   0  0  0  0  0  0  0  0  0  0  0  0
   10.5246    7.9114   -1.8509 C   0  0  0  0  0  0  0  0  0  0  0  0
   10.4237    6.5890   -1.4959 C   0  0  0  0  0  0  0  0  0  0  0  0
   11.1333    5.7391   -0.8965 C   0  0  0  0  0  0  0  0  0  0  0  0
   12.3931    6.1668   -0.4231 C   0  0  0  0  0  0  0  0  0  0  0  0
   12.6839    7.5252   -0.6980 C   0  0  0  0  0  0  0  0  0  0  0  0
   12.0653    9.4042   -1.5677 H   0  0  0  0  0  0  0  0  0  0  0  0
    9.8082    8.5299   -2.3830 H   0  0  0  0  0  0  0  0  0  0  0  0
   10.5910    3.8753   -0.5878 H   0  0  0  0  0  0  0  0  0  0  0  0
   13.0857    5.5186    0.1066 H   0  0  0  0  0  0  0  0  0  0  0  0
    7.6684    6.0705   -2.6590 N   0  0  0  0  0  0  0  0  0  0  0  0
    6.6875    5.7177   -3.0217 N   0  0  0  0  0  0  0  0  0  0  0  0
   13.8455    8.1394   -0.3286 O   0  0  0  0  0  0  0  0  0  0  0  0
   14.8215    7.3726    0.3731 C   0  0  0  0  0  0  0  0  0  0  0  0
   15.6537    8.0567    0.5632 H   0  0  0  0  0  0  0  0  0  0  0  0
   15.1729    6.5254   -0.2353 H   0  0  0  0  0  0  0  0  0  0  0  0
   14.4228    7.0029    1.3299 H   0  0  0  0  0  0  0  0  0  0  0  0
    8.4824    2.9742   -1.3247 O   0  0  0  0  0  0  0  0  0  0  0  0
    9.3649    2.4115   -0.7290 C   0  0  0  0  0  0  0  0  0  0  0  0
   10.5251    2.9182   -0.3270 O   0  0  0  0  0  0  0  0  0  0  0  0
    9.2712    0.9175   -0.3174 C   0  0  0  0  0  0  0  0  0  0  0  0
    9.3624    0.7848    1.0253 F   0  0  0  0  0  0  0  0  0  0  0  0
    8.1081    0.3852   -0.7130 F   0  0  0  0  0  0  0  0  0  0  0  0
   10.2749    0.2037   -0.8758 F   0  0  0  0  0  0  0  0  0  0  0  0
  1  6  2  0  0  0  0
  2  3  2  0  0  0  0
  2  1  1  0  0  0  0
  3  4  1  0  0  0  0
  4  5  2  0  0  0  0
  5 10  1  0  0  0  0
  6  5  1  0  0  0  0
  6 13  1  0  0  0  0
  7  1  1  0  0  0  0
  8  2  1  0  0  0  0
  9 20  1  0  0  0  0
 12 11  3  0  0  0  0
 13 14  1  0  0  0  0
 14 15  1  0  0  0  0
 14 17  1  0  0  0  0
 16 14  1  0  0  0  0
 18 19  2  0  0  0  0
 19 20  1  0  0  0  0
 19 21  1  0  0  0  0
 21 22  1  0  0  0  0
 23 21  1  0  0  0  0
 24 21  1  0  0  0  0
M  RAD  2   3   2   4   2
M  END
