Coordinates from ORCA-job p-CH3O-Ph-N2-OOCCF3-B3LYPG-aug-cc-pVDZ-scan-d09-49-n400
 OpenBabel11081710393D

 24 23  0  0  0  0  0  0  0  0999 V2000
   11.7342    8.3038   -1.5415 C   0  0  0  0  0  0  0  0  0  0  0  0
   10.5092    7.7673   -1.9350 C   0  0  0  0  0  0  0  0  0  0  0  0
   10.3135    6.4535   -1.5721 C   0  0  0  0  0  0  0  0  0  0  0  0
   11.1434    5.6031   -0.8879 C   0  0  0  0  0  0  0  0  0  0  0  0
   12.3680    6.1772   -0.5080 C   0  0  0  0  0  0  0  0  0  0  0  0
   12.6627    7.5147   -0.8306 C   0  0  0  0  0  0  0  0  0  0  0  0
   11.9880    9.3357   -1.7780 H   0  0  0  0  0  0  0  0  0  0  0  0
    9.7691    8.3430   -2.4840 H   0  0  0  0  0  0  0  0  0  0  0  0
   10.8677    4.5761   -0.6628 H   0  0  0  0  0  0  0  0  0  0  0  0
   13.0728    5.5567    0.0389 H   0  0  0  0  0  0  0  0  0  0  0  0
    8.6847    5.7852   -2.1151 N   0  0  0  0  0  0  0  0  0  0  0  0
    8.1032    4.8143   -2.0390 N   0  0  0  0  0  0  0  0  0  0  0  0
   13.8178    8.1401   -0.5011 O   0  0  0  0  0  0  0  0  0  0  0  0
   14.8135    7.4099    0.2214 C   0  0  0  0  0  0  0  0  0  0  0  0
   15.6394    8.1107    0.3696 H   0  0  0  0  0  0  0  0  0  0  0  0
   15.1637    6.5434   -0.3581 H   0  0  0  0  0  0  0  0  0  0  0  0
   14.4288    7.0804    1.1975 H   0  0  0  0  0  0  0  0  0  0  0  0
    7.2940    2.1062   -1.1133 O   0  0  0  0  0  0  0  0  0  0  0  0
    8.4602    2.3314   -0.8482 C   0  0  0  0  0  0  0  0  0  0  0  0
    9.1771    3.3877   -1.0300 O   0  0  0  0  0  0  0  0  0  0  0  0
    9.3192    1.2033   -0.1724 C   0  0  0  0  0  0  0  0  0  0  0  0
    9.8626    1.6322    0.9996 F   0  0  0  0  0  0  0  0  0  0  0  0
    8.5993    0.1033    0.0978 F   0  0  0  0  0  0  0  0  0  0  0  0
   10.3509    0.8299   -0.9760 F   0  0  0  0  0  0  0  0  0  0  0  0
  1  6  2  0  0  0  0
  2  3  2  0  0  0  0
  2  1  1  0  0  0  0
  3  4  1  0  0  0  0
  4  9  1  0  0  0  0
  4  5  2  0  0  0  0
  5 10  1  0  0  0  0
  6  5  1  0  0  0  0
  6 13  1  0  0  0  0
  7  1  1  0  0  0  0
  8  2  1  0  0  0  0
 11 12  2  0  0  0  0
 11  3  1  0  0  0  0
 13 14  1  0  0  0  0
 14 15  1  0  0  0  0
 14 17  1  0  0  0  0
 16 14  1  0  0  0  0
 18 19  2  0  0  0  0
 19 21  1  0  0  0  0
 20 19  1  0  0  0  0
 21 23  1  0  0  0  0
 21 22  1  0  0  0  0
 24 21  1  0  0  0  0
M  RAD  2  12   2  20   2
M  END
