Coordinates from ORCA-job p-CH3O-Ph-N2-OOCCF3-B3LYPG-aug-cc-pVDZ-scan-d09-49-n400
 OpenBabel11081710393D

 24 22  0  0  0  0  0  0  0  0999 V2000
   11.6236    8.2618   -1.4287 C   0  0  0  0  0  0  0  0  0  0  0  0
   10.3998    7.7258   -1.8514 C   0  0  0  0  0  0  0  0  0  0  0  0
   10.3230    6.4110   -1.4887 C   0  0  0  0  0  0  0  0  0  0  0  0
   11.0687    5.5186   -0.8610 C   0  0  0  0  0  0  0  0  0  0  0  0
   12.2948    6.1110   -0.4544 C   0  0  0  0  0  0  0  0  0  0  0  0
   12.5638    7.4628   -0.7363 C   0  0  0  0  0  0  0  0  0  0  0  0
   11.8559    9.3057   -1.6346 H   0  0  0  0  0  0  0  0  0  0  0  0
    9.6472    8.2977   -2.3850 H   0  0  0  0  0  0  0  0  0  0  0  0
   10.8438    4.3885   -0.6258 H   0  0  0  0  0  0  0  0  0  0  0  0
   13.0030    5.4790    0.0764 H   0  0  0  0  0  0  0  0  0  0  0  0
    8.4701    5.6674   -2.1494 N   0  0  0  0  0  0  0  0  0  0  0  0
    7.4783    5.6986   -2.6334 N   0  0  0  0  0  0  0  0  0  0  0  0
   13.7059    8.1027   -0.3843 O   0  0  0  0  0  0  0  0  0  0  0  0
   14.7107    7.3660    0.3198 C   0  0  0  0  0  0  0  0  0  0  0  0
   15.5246    8.0750    0.4935 H   0  0  0  0  0  0  0  0  0  0  0  0
   15.0760    6.5234   -0.2849 H   0  0  0  0  0  0  0  0  0  0  0  0
   14.3266    6.9996    1.2828 H   0  0  0  0  0  0  0  0  0  0  0  0
    8.6752    3.2639   -1.3194 O   0  0  0  0  0  0  0  0  0  0  0  0
    9.5177    2.5885   -0.7129 C   0  0  0  0  0  0  0  0  0  0  0  0
   10.6567    2.9252   -0.2728 O   0  0  0  0  0  0  0  0  0  0  0  0
    9.1689    1.0916   -0.4198 C   0  0  0  0  0  0  0  0  0  0  0  0
    9.1487    0.8541    0.9167 F   0  0  0  0  0  0  0  0  0  0  0  0
    7.9670    0.7297   -0.9089 F   0  0  0  0  0  0  0  0  0  0  0  0
   10.0930    0.2613   -0.9658 F   0  0  0  0  0  0  0  0  0  0  0  0
  1  6  2  0  0  0  0
  2  3  2  0  0  0  0
  2  1  1  0  0  0  0
  3  4  1  0  0  0  0
  4  9  1  0  0  0  0
  4  5  2  0  0  0  0
  5 10  1  0  0  0  0
  6  5  1  0  0  0  0
  6 13  1  0  0  0  0
  7  1  1  0  0  0  0
  8  2  1  0  0  0  0
 12 11  3  0  0  0  0
 13 14  1  0  0  0  0
 14 15  1  0  0  0  0
 14 17  1  0  0  0  0
 16 14  1  0  0  0  0
 18 19  2  0  0  0  0
 19 21  1  0  0  0  0
 19 20  1  0  0  0  0
 21 22  1  0  0  0  0
 23 21  1  0  0  0  0
 24 21  1  0  0  0  0
M  RAD  2   3   2  20   2
M  END
