Coordinates from ORCA-job p-CH3O-Ph-N2-OOCCF3-B3LYPG-aug-cc-pVDZ-scan-d09-49-n400
 OpenBabel11081710393D

 24 23  0  0  0  0  0  0  0  0999 V2000
   11.6907    8.2586   -1.5512 C   0  0  0  0  0  0  0  0  0  0  0  0
   10.4870    7.6767   -1.9102 C   0  0  0  0  0  0  0  0  0  0  0  0
   10.2507    6.3424   -1.5506 C   0  0  0  0  0  0  0  0  0  0  0  0
   11.1831    5.5739   -0.8443 C   0  0  0  0  0  0  0  0  0  0  0  0
   12.3907    6.1701   -0.4890 C   0  0  0  0  0  0  0  0  0  0  0  0
   12.6508    7.5096   -0.8383 C   0  0  0  0  0  0  0  0  0  0  0  0
   11.9164    9.2916   -1.8090 H   0  0  0  0  0  0  0  0  0  0  0  0
    9.7327    8.2359   -2.4604 H   0  0  0  0  0  0  0  0  0  0  0  0
   10.9530    4.5434   -0.5892 H   0  0  0  0  0  0  0  0  0  0  0  0
   13.1203    5.5806    0.0595 H   0  0  0  0  0  0  0  0  0  0  0  0
    8.9553    5.7770   -1.9596 N   0  0  0  0  0  0  0  0  0  0  0  0
    8.2837    4.8426   -1.9382 N   0  0  0  0  0  0  0  0  0  0  0  0
   13.7906    8.1668   -0.5362 O   0  0  0  0  0  0  0  0  0  0  0  0
   14.8179    7.4789    0.1868 C   0  0  0  0  0  0  0  0  0  0  0  0
   15.6246    8.2066    0.3085 H   0  0  0  0  0  0  0  0  0  0  0  0
   15.1837    6.6118   -0.3813 H   0  0  0  0  0  0  0  0  0  0  0  0
   14.4554    7.1589    1.1739 H   0  0  0  0  0  0  0  0  0  0  0  0
    7.2815    2.1961   -1.2059 O   0  0  0  0  0  0  0  0  0  0  0  0
    8.4405    2.3673   -0.8861 C   0  0  0  0  0  0  0  0  0  0  0  0
    9.2008    3.4110   -1.0089 O   0  0  0  0  0  0  0  0  0  0  0  0
    9.2358    1.1982   -0.2099 C   0  0  0  0  0  0  0  0  0  0  0  0
    9.7236    1.5727    1.0034 F   0  0  0  0  0  0  0  0  0  0  0  0
    8.4748    0.1096   -0.0207 F   0  0  0  0  0  0  0  0  0  0  0  0
   10.2996    0.8285   -0.9713 F   0  0  0  0  0  0  0  0  0  0  0  0
  1  6  1  0  0  0  0
  2  1  2  0  0  0  0
  2  3  1  0  0  0  0
  3  4  2  0  0  0  0
  4  9  1  0  0  0  0
  4  5  1  0  0  0  0
  5 10  1  0  0  0  0
  6 13  1  0  0  0  0
  6  5  2  0  0  0  0
  7  1  1  0  0  0  0
  8  2  1  0  0  0  0
 11 12  2  0  0  0  0
 11  3  1  0  0  0  0
 13 14  1  0  0  0  0
 14 15  1  0  0  0  0
 14 17  1  0  0  0  0
 16 14  1  0  0  0  0
 18 19  2  0  0  0  0
 19 21  1  0  0  0  0
 20 19  1  0  0  0  0
 21 23  1  0  0  0  0
 21 22  1  0  0  0  0
 24 21  1  0  0  0  0
M  RAD  2  12   2  20   2
M  END
