Coordinates from ORCA-job p-CH3O-Ph-N2-OOCCF3-B3LYPG-aug-cc-pVDZ-scan-d09-49-n400
 OpenBabel11081710393D

 24 23  0  0  0  0  0  0  0  0999 V2000
   11.7128    8.1329   -1.5227 C   0  0  0  0  0  0  0  0  0  0  0  0
   10.4657    8.0122   -2.0521 C   0  0  0  0  0  0  0  0  0  0  0  0
    9.7142    6.7578   -1.9371 C   0  0  0  0  0  0  0  0  0  0  0  0
   10.3670    5.6515   -1.2306 C   0  0  0  0  0  0  0  0  0  0  0  0
   11.6278    5.8085   -0.7084 C   0  0  0  0  0  0  0  0  0  0  0  0
   12.3175    7.0320   -0.8404 C   0  0  0  0  0  0  0  0  0  0  0  0
   12.2711    9.0636   -1.6077 H   0  0  0  0  0  0  0  0  0  0  0  0
    9.9841    8.8377   -2.5769 H   0  0  0  0  0  0  0  0  0  0  0  0
    9.7957    4.6842   -1.1394 H   0  0  0  0  0  0  0  0  0  0  0  0
   12.0655    4.9566   -0.1946 H   0  0  0  0  0  0  0  0  0  0  0  0
    8.7691    6.6550   -2.3345 N   0  0  0  0  0  0  0  0  0  0  0  0
    7.7192    6.5457   -2.7785 N   0  0  0  0  0  0  0  0  0  0  0  0
   13.5323    7.2642   -0.3668 O   0  0  0  0  0  0  0  0  0  0  0  0
   14.2377    6.2166    0.3418 C   0  0  0  0  0  0  0  0  0  0  0  0
   15.1954    6.6618    0.6190 H   0  0  0  0  0  0  0  0  0  0  0  0
   14.3930    5.3535   -0.3167 H   0  0  0  0  0  0  0  0  0  0  0  0
   13.6779    5.9240    1.2383 H   0  0  0  0  0  0  0  0  0  0  0  0
    8.5024    1.1619   -0.4638 O   0  0  0  0  0  0  0  0  0  0  0  0
    9.1459    2.2035   -0.5471 C   0  0  0  0  0  0  0  0  0  0  0  0
    8.8679    3.3214   -1.0770 O   0  0  0  0  0  0  0  0  0  0  0  0
   10.5805    2.1897    0.1103 C   0  0  0  0  0  0  0  0  0  0  0  0
   10.7061    3.1633    1.0790 F   0  0  0  0  0  0  0  0  0  0  0  0
   10.9291    1.0307    0.6876 F   0  0  0  0  0  0  0  0  0  0  0  0
   11.5653    2.4807   -0.8101 F   0  0  0  0  0  0  0  0  0  0  0  0
  1  6  2  0  0  0  0
  2  3  2  0  0  0  0
  2  1  1  0  0  0  0
  3  4  1  0  0  0  0
  4  9  1  0  0  0  0
  4  5  2  0  0  0  0
  5 10  1  0  0  0  0
  6  5  1  0  0  0  0
  6 13  1  0  0  0  0
  7  1  1  0  0  0  0
  8  2  1  0  0  0  0
 11  3  1  0  0  0  0
 12 11  1  0  0  0  0
 13 14  1  0  0  0  0
 14 15  1  0  0  0  0
 14 17  1  0  0  0  0
 16 14  1  0  0  0  0
 19 18  1  0  0  0  0
 19 21  1  0  0  0  0
 20 19  2  0  0  0  0
 21 23  1  0  0  0  0
 21 22  1  0  0  0  0
 24 21  1  0  0  0  0
M  RAD  3  11   2  12   3  18   2
M  END
