22
Coordinates from ORCA-job 4-MeO-Ph-N2-BF4-B3LYPG-6-31G_dp-MTMO-d009-169-n800
  C   -0.89255298284046      0.74857862622978      0.28060202738345
  C   -0.41693363461722      0.64002314489320     -1.08320525226157
  C   -1.36835291278097      1.22289250564435     -1.75399967617274
  C   -2.55387533190892      1.86204081200812     -1.72514313397416
  C   -2.93683843273522      1.92558786371048     -0.37127884392129
  C   -2.10054991590992      1.36915259221033      0.62621831597496
  H   -0.18370206285447      0.29913920762521      0.98095457874917
  H   0.58517381738252      0.14102294740069     -1.25272302335337
  H   -3.12612992734262      2.25888191806435     -2.55158579376897
  H   -3.87358741131826      2.40282149093607     -0.10370989445377
  N   5.15228787496724      0.76770958788220      3.11233909351773
  N   5.75145568346574      0.76410586562238      2.18390799402409
  B   2.36016201791370     -0.05772136951245      0.32937188171552
  F   1.45340480548445     -0.62533903320255      1.26288994787791
  F   2.17688600502778      1.32213050031323      0.30795595507648
  F   3.64954163934672     -0.44348338861921      0.57322553806719
  F   1.95272346145866     -0.55341280243582     -0.99167648170649
  O   -2.54439688807325      1.48307564278230      1.89226732088327
  C   -1.71186612150190      0.97289342346472      2.94420967843317
  H   -2.24510022930313      1.19177159650061      3.86875500819825
  H   -0.73688868663523      1.47030250407374      2.94843238725941
  H   -1.57096076722525     -0.10867363559184      2.84349237245178
