22
Coordinates from ORCA-job 4-MeO-Ph-N2-BF4-B3LYPG-6-31G_dp-MTMO-d009-169-n800
  C   -1.05941927314415      0.82498773381825      0.28509529729987
  C   -0.47093701391393      0.77677602350607     -1.03791556270848
  C   -1.43932644464338      1.22602971340044     -1.78349165688812
  C   -2.69931499896887      1.69817682581707     -1.85067135047253
  C   -3.18748951684471      1.71671310852643     -0.52968750920945
  C   -2.36064888703398      1.28111366797547      0.53349557812054
  H   -0.34721897875949      0.48687339366414      1.04305976846188
  H   0.60365324230878      0.43483929473365     -1.12318823745124
  H   -3.25715098254871      2.00761840680709     -2.72307263275394
  H   -4.19643490296466      2.06616272196028     -0.33830571033005
  N   7.54787697444458     -0.05716795016473      2.66918192973206
  N   7.35439318748990     -1.00004393044485      2.12598231812270
  B   2.24248373337434      0.55838546210786      0.61516232216197
  F   1.37555186686755     -0.16586365317502      1.47731364027028
  F   1.80640815836292      1.88044342186465      0.55051329406971
  F   3.55181386465028      0.42238364449774      0.97916025147082
  F   2.05235583291112     -0.00962991018245     -0.72510048560366
  O   -2.90590240039317      1.34326301552582      1.76310152541474
  C   -2.08937105584340      0.95963348573363      2.87957939261502
  H   -2.70589062801661      1.12829595989290      3.76194208938021
  H   -1.18374141284815      1.57229030196732      2.93232291654648
  H   -1.81179036448630     -0.09778073783186      2.81682282175125
