Coordinates from ORCA-job Ph-N2-OOCCF3-B3LYPG-aug-cc-pVDZ-scan-d09-49-n400
 OpenBabel11081710403D

 20 18  0  0  0  0  0  0  0  0999 V2000
   13.3272    6.0683    2.3338 C   0  0  0  0  0  0  0  0  0  0  0  0
   12.3249    5.7556    1.3785 C   0  0  0  0  0  0  0  0  0  0  0  0
   11.7708    4.5666    1.7663 C   0  0  0  0  0  0  0  0  0  0  0  0
   11.9189    3.7317    2.7006 C   0  0  0  0  0  0  0  0  0  0  0  0
   12.9129    4.0277    3.6612 C   0  0  0  0  0  0  0  0  0  0  0  0
   13.6064    5.2324    3.4318 C   0  0  0  0  0  0  0  0  0  0  0  0
   13.8927    6.9922    2.1995 H   0  0  0  0  0  0  0  0  0  0  0  0
   12.0834    6.3765    0.5211 H   0  0  0  0  0  0  0  0  0  0  0  0
    9.7220    4.3673   -0.5590 N   0  0  0  0  0  0  0  0  0  0  0  0
    8.8966    3.8365   -1.0643 N   0  0  0  0  0  0  0  0  0  0  0  0
   14.3900    5.5299    4.1307 H   0  0  0  0  0  0  0  0  0  0  0  0
   13.1405    3.3910    4.5156 H   0  0  0  0  0  0  0  0  0  0  0  0
   10.8943    2.0584    2.9314 H   0  0  0  0  0  0  0  0  0  0  0  0
    9.2006    1.3266    1.3881 O   0  0  0  0  0  0  0  0  0  0  0  0
    9.5783    0.7796    2.3921 C   0  0  0  0  0  0  0  0  0  0  0  0
   10.5157    1.1935    3.2384 O   0  0  0  0  0  0  0  0  0  0  0  0
    8.9906   -0.5728    2.8771 C   0  0  0  0  0  0  0  0  0  0  0  0
    8.0438   -1.0099    2.0374 F   0  0  0  0  0  0  0  0  0  0  0  0
    9.9578   -1.5147    2.9522 F   0  0  0  0  0  0  0  0  0  0  0  0
    8.4399   -0.4414    4.1050 F   0  0  0  0  0  0  0  0  0  0  0  0
  1  6  2  0  0  0  0
  2  3  2  0  0  0  0
  2  1  1  0  0  0  0
  3  4  1  0  0  0  0
  4  5  2  0  0  0  0
  5 12  1  0  0  0  0
  6  5  1  0  0  0  0
  6 11  1  0  0  0  0
  7  1  1  0  0  0  0
  8  2  1  0  0  0  0
 10  9  3  0  0  0  0
 13 16  1  0  0  0  0
 14 15  2  0  0  0  0
 15 17  1  0  0  0  0
 15 16  1  0  0  0  0
 17 19  1  0  0  0  0
 17 20  1  0  0  0  0
 18 17  1  0  0  0  0
M  RAD  2   3   2   4   2
M  END
