Coordinates from ORCA-job Ph-N2-OOCCF3-B3LYPG-aug-cc-pVDZ-scan-d09-49-n400
 OpenBabel11081710403D

 20 18  0  0  0  0  0  0  0  0999 V2000
   13.3262    6.0682    2.3322 C   0  0  0  0  0  0  0  0  0  0  0  0
   12.3246    5.7588    1.3751 C   0  0  0  0  0  0  0  0  0  0  0  0
   11.7680    4.5701    1.7602 C   0  0  0  0  0  0  0  0  0  0  0  0
   11.9131    3.7329    2.6930 C   0  0  0  0  0  0  0  0  0  0  0  0
   12.9065    4.0261    3.6553 C   0  0  0  0  0  0  0  0  0  0  0  0
   13.6026    5.2299    3.4290 C   0  0  0  0  0  0  0  0  0  0  0  0
   13.8934    6.9914    2.2001 H   0  0  0  0  0  0  0  0  0  0  0  0
   12.0852    6.3814    0.5185 H   0  0  0  0  0  0  0  0  0  0  0  0
    9.7376    4.3701   -0.5409 N   0  0  0  0  0  0  0  0  0  0  0  0
    8.9122    3.8384   -1.0454 N   0  0  0  0  0  0  0  0  0  0  0  0
   14.3857    5.5248    4.1295 H   0  0  0  0  0  0  0  0  0  0  0  0
   13.1320    3.3875    4.5088 H   0  0  0  0  0  0  0  0  0  0  0  0
   10.8915    2.0606    2.9270 H   0  0  0  0  0  0  0  0  0  0  0  0
    9.1981    1.3230    1.3861 O   0  0  0  0  0  0  0  0  0  0  0  0
    9.5772    0.7787    2.3911 C   0  0  0  0  0  0  0  0  0  0  0  0
   10.5143    1.1957    3.2359 O   0  0  0  0  0  0  0  0  0  0  0  0
    8.9917   -0.5737    2.8790 C   0  0  0  0  0  0  0  0  0  0  0  0
    8.0452   -1.0140    2.0407 F   0  0  0  0  0  0  0  0  0  0  0  0
    9.9604   -1.5140    2.9555 F   0  0  0  0  0  0  0  0  0  0  0  0
    8.4415   -0.4408    4.1069 F   0  0  0  0  0  0  0  0  0  0  0  0
  1  6  2  0  0  0  0
  2  3  2  0  0  0  0
  2  1  1  0  0  0  0
  3  4  1  0  0  0  0
  4  5  2  0  0  0  0
  5 12  1  0  0  0  0
  6  5  1  0  0  0  0
  6 11  1  0  0  0  0
  7  1  1  0  0  0  0
  8  2  1  0  0  0  0
 10  9  3  0  0  0  0
 13 16  1  0  0  0  0
 14 15  2  0  0  0  0
 15 17  1  0  0  0  0
 15 16  1  0  0  0  0
 17 19  1  0  0  0  0
 17 20  1  0  0  0  0
 18 17  1  0  0  0  0
M  RAD  2   3   2   4   2
M  END
