Coordinates from ORCA-job Ph-N2-OOCCF3-B3LYPG-aug-cc-pVDZ-scan-d09-49-n400
 OpenBabel11081710403D

 20 20  0  0  1  0  0  0  0  0999 V2000
   11.8339    5.5210    2.0137 C   0  0  0  0  0  0  0  0  0  0  0  0
   12.0778    4.6364    1.0145 C   0  0  0  0  0  0  0  0  0  0  0  0
   12.3666    3.2556    1.3370 C   0  0  0  0  0  0  0  0  0  0  0  0
   12.2049    2.7055    2.7267 C   0  0  1  0  0  0  0  0  0  0  0  0
   12.0754    3.7918    3.7411 C   0  0  0  0  0  0  0  0  0  0  0  0
   11.8817    5.0850    3.3941 C   0  0  0  0  0  0  0  0  0  0  0  0
   11.6163    6.5623    1.7841 H   0  0  0  0  0  0  0  0  0  0  0  0
   12.0722    4.9326   -0.0338 H   0  0  0  0  0  0  0  0  0  0  0  0
   12.7730    2.4536    0.4246 N   0  0  0  0  0  0  0  0  0  0  0  0
   13.1346    1.7272   -0.3788 N   0  0  0  0  0  0  0  0  0  0  0  0
   11.7742    5.8344    4.1796 H   0  0  0  0  0  0  0  0  0  0  0  0
   12.1327    3.4896    4.7862 H   0  0  0  0  0  0  0  0  0  0  0  0
   13.0089    2.0040    2.9751 H   0  0  0  0  0  0  0  0  0  0  0  0
    9.4410    3.1737    2.1004 O   0  0  0  0  0  0  0  0  0  0  0  0
    9.8076    2.1127    2.5341 C   0  0  0  0  0  0  0  0  0  0  0  0
   11.0400    1.7191    2.8396 O   0  0  0  0  0  0  0  0  0  0  0  0
    8.8176    0.9444    2.8089 C   0  0  0  0  0  0  0  0  0  0  0  0
    9.1522   -0.1528    2.0924 F   0  0  0  0  0  0  0  0  0  0  0  0
    8.8294    0.6062    4.1188 F   0  0  0  0  0  0  0  0  0  0  0  0
    7.5670    1.2928    2.4791 F   0  0  0  0  0  0  0  0  0  0  0  0
  1  6  1  0  0  0  0
  2  3  2  0  0  0  0
  2  1  1  0  0  0  0
  3  4  1  0  0  0  0
  4 16  1  0  0  0  0
  4 13  1  1  0  0  0
  4  5  1  0  0  0  0
  5 12  1  0  0  0  0
  6  5  2  0  0  0  0
  6 11  1  0  0  0  0
  7  1  1  0  0  0  0
  8  2  1  0  0  0  0
  9  3  1  0  0  0  0
 10  9  1  0  0  0  0
 14 15  2  0  0  0  0
 15 17  1  0  0  0  0
 15 16  1  0  0  0  0
 17 19  1  0  0  0  0
 18 17  1  0  0  0  0
 20 17  1  0  0  0  0
M  RAD  3   1   2   9   2  10   3
M  END
