Coordinates from ORCA-job Ph-N2-OOCCF3-B3LYPG-aug-cc-pVDZ-scan-d09-49-n400
 OpenBabel11081710403D

 20 19  0  0  0  0  0  0  0  0999 V2000
   12.6540    5.9616    2.0800 C   0  0  0  0  0  0  0  0  0  0  0  0
   12.3368    4.9552    1.1502 C   0  0  0  0  0  0  0  0  0  0  0  0
   12.0676    3.7512    1.7460 C   0  0  0  0  0  0  0  0  0  0  0  0
   12.0485    3.3629    3.0519 C   0  0  0  0  0  0  0  0  0  0  0  0
   12.3785    4.4045    3.9372 C   0  0  0  0  0  0  0  0  0  0  0  0
   12.6747    5.6838    3.4518 C   0  0  0  0  0  0  0  0  0  0  0  0
   12.8796    6.9621    1.7115 H   0  0  0  0  0  0  0  0  0  0  0  0
   12.3026    5.1259    0.0780 H   0  0  0  0  0  0  0  0  0  0  0  0
   11.6629    2.3990    0.5620 N   0  0  0  0  0  0  0  0  0  0  0  0
   11.7376    2.0770   -0.5007 N   0  0  0  0  0  0  0  0  0  0  0  0
   12.9208    6.4800    4.1538 H   0  0  0  0  0  0  0  0  0  0  0  0
   12.3925    4.1992    5.0072 H   0  0  0  0  0  0  0  0  0  0  0  0
   11.7850    2.3463    3.3399 H   0  0  0  0  0  0  0  0  0  0  0  0
    9.0963    2.2146    1.5127 O   0  0  0  0  0  0  0  0  0  0  0  0
    9.6369    1.2146    1.9868 C   0  0  0  0  0  0  0  0  0  0  0  0
   10.8706    0.8918    1.9910 O   0  0  0  0  0  0  0  0  0  0  0  0
    8.7437    0.1664    2.7325 C   0  0  0  0  0  0  0  0  0  0  0  0
    8.9219   -1.0832    2.2415 F   0  0  0  0  0  0  0  0  0  0  0  0
    9.0652    0.1321    4.0561 F   0  0  0  0  0  0  0  0  0  0  0  0
    7.4313    0.4502    2.6483 F   0  0  0  0  0  0  0  0  0  0  0  0
  1  6  2  0  0  0  0
  2  3  2  0  0  0  0
  2  1  1  0  0  0  0
  3  4  1  0  0  0  0
  4 13  1  0  0  0  0
  4  5  2  0  0  0  0
  5 12  1  0  0  0  0
  6  5  1  0  0  0  0
  6 11  1  0  0  0  0
  7  1  1  0  0  0  0
  8  2  1  0  0  0  0
  9  3  1  0  0  0  0
 10  9  2  0  0  0  0
 14 15  2  0  0  0  0
 15 16  1  0  0  0  0
 15 17  1  0  0  0  0
 17 19  1  0  0  0  0
 18 17  1  0  0  0  0
 20 17  1  0  0  0  0
M  RAD  2  10   2  16   2
M  END
