Coordinates from ORCA-job Ph-N2-OOCCF3-B3LYPG-aug-cc-pVDZ-scan-d09-49-n400
 OpenBabel11081710403D

 20 18  0  0  0  0  0  0  0  0999 V2000
   13.3409    6.0673    2.3582 C   0  0  0  0  0  0  0  0  0  0  0  0
   12.3322    5.7193    1.4217 C   0  0  0  0  0  0  0  0  0  0  0  0
   11.8063    4.5270    1.8393 C   0  0  0  0  0  0  0  0  0  0  0  0
   11.9853    3.7163    2.7874 C   0  0  0  0  0  0  0  0  0  0  0  0
   12.9842    4.0438    3.7307 C   0  0  0  0  0  0  0  0  0  0  0  0
   13.6508    5.2575    3.4678 C   0  0  0  0  0  0  0  0  0  0  0  0
   13.8874    6.9988    2.1998 H   0  0  0  0  0  0  0  0  0  0  0  0
   12.0683    6.3199    0.5565 H   0  0  0  0  0  0  0  0  0  0  0  0
    9.5238    4.3609   -0.8174 N   0  0  0  0  0  0  0  0  0  0  0  0
    8.6956    3.8217   -1.3097 N   0  0  0  0  0  0  0  0  0  0  0  0
   14.4378    5.5834    4.1500 H   0  0  0  0  0  0  0  0  0  0  0  0
   13.2350    3.4278    4.5935 H   0  0  0  0  0  0  0  0  0  0  0  0
   10.9272    2.0323    2.9838 H   0  0  0  0  0  0  0  0  0  0  0  0
    9.2306    1.3647    1.4163 O   0  0  0  0  0  0  0  0  0  0  0  0
    9.5937    0.7891    2.4094 C   0  0  0  0  0  0  0  0  0  0  0  0
   10.5341    1.1684    3.2695 O   0  0  0  0  0  0  0  0  0  0  0  0
    8.9816   -0.5637    2.8619 C   0  0  0  0  0  0  0  0  0  0  0  0
    8.0316   -0.9662    2.0088 F   0  0  0  0  0  0  0  0  0  0  0  0
    9.9329   -1.5228    2.9200 F   0  0  0  0  0  0  0  0  0  0  0  0
    8.4278   -0.4503    4.0901 F   0  0  0  0  0  0  0  0  0  0  0  0
  1  6  2  0  0  0  0
  2  3  2  0  0  0  0
  2  1  1  0  0  0  0
  3  4  1  0  0  0  0
  4  5  2  0  0  0  0
  5 12  1  0  0  0  0
  6  5  1  0  0  0  0
  6 11  1  0  0  0  0
  7  1  1  0  0  0  0
  8  2  1  0  0  0  0
 10  9  3  0  0  0  0
 13 16  1  0  0  0  0
 14 15  2  0  0  0  0
 15 17  1  0  0  0  0
 15 16  1  0  0  0  0
 17 19  1  0  0  0  0
 17 20  1  0  0  0  0
 18 17  1  0  0  0  0
M  RAD  2   3   2   4   2
M  END
