Coordinates from ORCA-job Ph-N2-OOCCF3-B3LYPG-aug-cc-pVDZ-scan-d09-49-n400
 OpenBabel11081710403D

 20 18  0  0  0  0  0  0  0  0999 V2000
   13.3535    6.0482    2.3965 C   0  0  0  0  0  0  0  0  0  0  0  0
   12.3302    5.6091    1.5159 C   0  0  0  0  0  0  0  0  0  0  0  0
   11.8703    4.4167    2.0093 C   0  0  0  0  0  0  0  0  0  0  0  0
   12.1276    3.6743    2.9930 C   0  0  0  0  0  0  0  0  0  0  0  0
   13.1393    4.0854    3.8841 C   0  0  0  0  0  0  0  0  0  0  0  0
   13.7391    5.3124    3.5337 C   0  0  0  0  0  0  0  0  0  0  0  0
   13.8516    6.9931    2.1716 H   0  0  0  0  0  0  0  0  0  0  0  0
   12.0124    6.1551    0.6324 H   0  0  0  0  0  0  0  0  0  0  0  0
    9.1186    4.3876   -1.3708 N   0  0  0  0  0  0  0  0  0  0  0  0
    8.2868    3.8048   -1.8038 N   0  0  0  0  0  0  0  0  0  0  0  0
   14.5338    5.7086    4.1683 H   0  0  0  0  0  0  0  0  0  0  0  0
   13.4473    3.5264    4.7668 H   0  0  0  0  0  0  0  0  0  0  0  0
   11.0056    1.9698    3.1218 H   0  0  0  0  0  0  0  0  0  0  0  0
    9.3236    1.4591    1.4866 O   0  0  0  0  0  0  0  0  0  0  0  0
    9.6401    0.8157    2.4536 C   0  0  0  0  0  0  0  0  0  0  0  0
   10.5750    1.1102    3.3532 O   0  0  0  0  0  0  0  0  0  0  0  0
    8.9657   -0.5337    2.8184 C   0  0  0  0  0  0  0  0  0  0  0  0
    8.0198   -0.8501    1.9253 F   0  0  0  0  0  0  0  0  0  0  0  0
    9.8772   -1.5320    2.8421 F   0  0  0  0  0  0  0  0  0  0  0  0
    8.3897   -0.4651    4.0396 F   0  0  0  0  0  0  0  0  0  0  0  0
  1  6  2  0  0  0  0
  2  3  2  0  0  0  0
  2  1  1  0  0  0  0
  3  4  1  0  0  0  0
  4  5  2  0  0  0  0
  5 12  1  0  0  0  0
  6  5  1  0  0  0  0
  6 11  1  0  0  0  0
  7  1  1  0  0  0  0
  8  2  1  0  0  0  0
 10  9  3  0  0  0  0
 13 16  1  0  0  0  0
 14 15  2  0  0  0  0
 15 17  1  0  0  0  0
 15 16  1  0  0  0  0
 17 19  1  0  0  0  0
 17 20  1  0  0  0  0
 18 17  1  0  0  0  0
M  RAD  2   3   2   4   2
M  END
