Coordinates from ORCA-job Ph-N2-OOCCF3-B3LYPG-aug-cc-pVDZ-scan-d09-49-n400
 OpenBabel11081710403D

 20 18  0  0  0  0  0  0  0  0999 V2000
   13.3517    6.0663    2.3751 C   0  0  0  0  0  0  0  0  0  0  0  0
   12.3409    5.7041    1.4463 C   0  0  0  0  0  0  0  0  0  0  0  0
   11.8255    4.5107    1.8748 C   0  0  0  0  0  0  0  0  0  0  0  0
   12.0173    3.7102    2.8287 C   0  0  0  0  0  0  0  0  0  0  0  0
   13.0179    4.0503    3.7649 C   0  0  0  0  0  0  0  0  0  0  0  0
   13.6736    5.2672    3.4891 C   0  0  0  0  0  0  0  0  0  0  0  0
   13.8905    7.0007    2.2072 H   0  0  0  0  0  0  0  0  0  0  0  0
   12.0685    6.2970    0.5782 H   0  0  0  0  0  0  0  0  0  0  0  0
    9.4071    4.3584   -0.9702 N   0  0  0  0  0  0  0  0  0  0  0  0
    8.5778    3.7979   -1.4363 N   0  0  0  0  0  0  0  0  0  0  0  0
   14.4617    5.6043    4.1646 H   0  0  0  0  0  0  0  0  0  0  0  0
   13.2778    3.4426    4.6309 H   0  0  0  0  0  0  0  0  0  0  0  0
   10.9453    2.0215    3.0102 H   0  0  0  0  0  0  0  0  0  0  0  0
    9.2473    1.3860    1.4320 O   0  0  0  0  0  0  0  0  0  0  0  0
    9.6036    0.7960    2.4191 C   0  0  0  0  0  0  0  0  0  0  0  0
   10.5453    1.1580    3.2855 O   0  0  0  0  0  0  0  0  0  0  0  0
    8.9797   -0.5569    2.8549 C   0  0  0  0  0  0  0  0  0  0  0  0
    8.0289   -0.9422    1.9948 F   0  0  0  0  0  0  0  0  0  0  0  0
    9.9232   -1.5240    2.9048 F   0  0  0  0  0  0  0  0  0  0  0  0
    8.4235   -0.4527    4.0828 F   0  0  0  0  0  0  0  0  0  0  0  0
  1  6  2  0  0  0  0
  2  3  2  0  0  0  0
  2  1  1  0  0  0  0
  3  4  1  0  0  0  0
  4  5  2  0  0  0  0
  5 12  1  0  0  0  0
  6  5  1  0  0  0  0
  6 11  1  0  0  0  0
  7  1  1  0  0  0  0
  8  2  1  0  0  0  0
 10  9  3  0  0  0  0
 13 16  1  0  0  0  0
 14 15  2  0  0  0  0
 15 17  1  0  0  0  0
 15 16  1  0  0  0  0
 17 19  1  0  0  0  0
 17 20  1  0  0  0  0
 18 17  1  0  0  0  0
M  RAD  2   3   2   4   2
M  END
