Coordinates from ORCA-job Ph-N2-OOCCF3-B3LYPG-aug-cc-pVDZ-scan-d09-49-n400
 OpenBabel11081710403D

 20 18  0  0  0  0  0  0  0  0999 V2000
   13.3560    6.0554    2.3940 C   0  0  0  0  0  0  0  0  0  0  0  0
   12.3365    5.6387    1.4984 C   0  0  0  0  0  0  0  0  0  0  0  0
   11.8587    4.4444    1.9705 C   0  0  0  0  0  0  0  0  0  0  0  0
   12.0994    3.6860    2.9469 C   0  0  0  0  0  0  0  0  0  0  0  0
   13.1074    4.0755    3.8522 C   0  0  0  0  0  0  0  0  0  0  0  0
   13.7233    5.3006    3.5243 C   0  0  0  0  0  0  0  0  0  0  0  0
   13.8659    6.9979    2.1863 H   0  0  0  0  0  0  0  0  0  0  0  0
   12.0325    6.1997    0.6195 H   0  0  0  0  0  0  0  0  0  0  0  0
    9.1898    4.3740   -1.2695 N   0  0  0  0  0  0  0  0  0  0  0  0
    8.3587    3.7993   -1.7142 N   0  0  0  0  0  0  0  0  0  0  0  0
   14.5161    5.6797    4.1715 H   0  0  0  0  0  0  0  0  0  0  0  0
   13.4015    3.5016    4.7301 H   0  0  0  0  0  0  0  0  0  0  0  0
   10.9877    1.9848    3.0863 H   0  0  0  0  0  0  0  0  0  0  0  0
    9.2973    1.4385    1.4724 O   0  0  0  0  0  0  0  0  0  0  0  0
    9.6278    0.8096    2.4439 C   0  0  0  0  0  0  0  0  0  0  0  0
   10.5673    1.1237    3.3316 O   0  0  0  0  0  0  0  0  0  0  0  0
    8.9693   -0.5417    2.8304 C   0  0  0  0  0  0  0  0  0  0  0  0
    8.0194   -0.8779    1.9489 F   0  0  0  0  0  0  0  0  0  0  0  0
    9.8904   -1.5310    2.8589 F   0  0  0  0  0  0  0  0  0  0  0  0
    8.4023   -0.4636    4.0553 F   0  0  0  0  0  0  0  0  0  0  0  0
  1  6  2  0  0  0  0
  2  3  2  0  0  0  0
  2  1  1  0  0  0  0
  3  4  1  0  0  0  0
  4  5  2  0  0  0  0
  5 12  1  0  0  0  0
  6  5  1  0  0  0  0
  6 11  1  0  0  0  0
  7  1  1  0  0  0  0
  8  2  1  0  0  0  0
 10  9  3  0  0  0  0
 13 16  1  0  0  0  0
 14 15  2  0  0  0  0
 15 17  1  0  0  0  0
 15 16  1  0  0  0  0
 17 19  1  0  0  0  0
 17 20  1  0  0  0  0
 18 17  1  0  0  0  0
M  RAD  2   3   2   4   2
M  END
