Coordinates from ORCA-job Ph-N2-OOCCF3-B3LYPG-aug-cc-pVDZ-scan-d09-49-n400
 OpenBabel11081710403D

 20 18  0  0  0  0  0  0  0  0999 V2000
   13.3400    6.0675    2.3568 C   0  0  0  0  0  0  0  0  0  0  0  0
   12.3316    5.7207    1.4196 C   0  0  0  0  0  0  0  0  0  0  0  0
   11.8048    4.5285    1.8363 C   0  0  0  0  0  0  0  0  0  0  0  0
   11.9825    3.7170    2.7839 C   0  0  0  0  0  0  0  0  0  0  0  0
   12.9813    4.0434    3.7278 C   0  0  0  0  0  0  0  0  0  0  0  0
   13.6489    5.2568    3.4660 C   0  0  0  0  0  0  0  0  0  0  0  0
   13.8873    6.9987    2.1992 H   0  0  0  0  0  0  0  0  0  0  0  0
   12.0684    6.3220    0.5546 H   0  0  0  0  0  0  0  0  0  0  0  0
    9.5338    4.3603   -0.8038 N   0  0  0  0  0  0  0  0  0  0  0  0
    8.7057    3.8227   -1.2980 N   0  0  0  0  0  0  0  0  0  0  0  0
   14.4358    5.5817    4.1488 H   0  0  0  0  0  0  0  0  0  0  0  0
   13.2313    3.4267    4.5903 H   0  0  0  0  0  0  0  0  0  0  0  0
   10.9256    2.0333    2.9815 H   0  0  0  0  0  0  0  0  0  0  0  0
    9.2291    1.3630    1.4148 O   0  0  0  0  0  0  0  0  0  0  0  0
    9.5928    0.7886    2.4084 C   0  0  0  0  0  0  0  0  0  0  0  0
   10.5330    1.1694    3.2680 O   0  0  0  0  0  0  0  0  0  0  0  0
    8.9817   -0.5642    2.8622 C   0  0  0  0  0  0  0  0  0  0  0  0
    8.0317   -0.9680    2.0098 F   0  0  0  0  0  0  0  0  0  0  0  0
    9.9336   -1.5226    2.9208 F   0  0  0  0  0  0  0  0  0  0  0  0
    8.4282   -0.4501    4.0906 F   0  0  0  0  0  0  0  0  0  0  0  0
  1  6  2  0  0  0  0
  2  3  2  0  0  0  0
  2  1  1  0  0  0  0
  3  4  1  0  0  0  0
  4  5  2  0  0  0  0
  5 12  1  0  0  0  0
  6  5  1  0  0  0  0
  6 11  1  0  0  0  0
  7  1  1  0  0  0  0
  8  2  1  0  0  0  0
 10  9  3  0  0  0  0
 13 16  1  0  0  0  0
 14 15  2  0  0  0  0
 15 17  1  0  0  0  0
 15 16  1  0  0  0  0
 17 19  1  0  0  0  0
 17 20  1  0  0  0  0
 18 17  1  0  0  0  0
M  RAD  2   3   2   4   2
M  END
