Coordinates from ORCA-job Ph-N2-OOCCF3-B3LYPG-aug-cc-pVDZ-scan-d09-49-n400
 OpenBabel11081710403D

 20 20  0  0  1  0  0  0  0  0999 V2000
   11.8363    5.5199    2.0129 C   0  0  0  0  0  0  0  0  0  0  0  0
   12.0783    4.6361    1.0134 C   0  0  0  0  0  0  0  0  0  0  0  0
   12.3672    3.2520    1.3320 C   0  0  0  0  0  0  0  0  0  0  0  0
   12.2038    2.7041    2.7253 C   0  0  1  0  0  0  0  0  0  0  0  0
   12.0734    3.7901    3.7400 C   0  0  0  0  0  0  0  0  0  0  0  0
   11.8825    5.0835    3.3936 C   0  0  0  0  0  0  0  0  0  0  0  0
   11.6201    6.5617    1.7838 H   0  0  0  0  0  0  0  0  0  0  0  0
   12.0722    4.9331   -0.0347 H   0  0  0  0  0  0  0  0  0  0  0  0
   12.7671    2.4622    0.4341 N   0  0  0  0  0  0  0  0  0  0  0  0
   13.1293    1.7347   -0.3700 N   0  0  0  0  0  0  0  0  0  0  0  0
   11.7752    5.8329    4.1792 H   0  0  0  0  0  0  0  0  0  0  0  0
   12.1286    3.4871    4.7850 H   0  0  0  0  0  0  0  0  0  0  0  0
   13.0096    2.0045    2.9737 H   0  0  0  0  0  0  0  0  0  0  0  0
    9.4426    3.1722    2.0965 O   0  0  0  0  0  0  0  0  0  0  0  0
    9.8090    2.1111    2.5300 C   0  0  0  0  0  0  0  0  0  0  0  0
   11.0415    1.7182    2.8372 O   0  0  0  0  0  0  0  0  0  0  0  0
    8.8187    0.9442    2.8094 C   0  0  0  0  0  0  0  0  0  0  0  0
    9.1523   -0.1555    2.0966 F   0  0  0  0  0  0  0  0  0  0  0  0
    8.8314    0.6108    4.1205 F   0  0  0  0  0  0  0  0  0  0  0  0
    7.5682    1.2923    2.4792 F   0  0  0  0  0  0  0  0  0  0  0  0
  1  6  1  0  0  0  0
  2  3  2  0  0  0  0
  2  1  1  0  0  0  0
  3  4  1  0  0  0  0
  4 16  1  0  0  0  0
  4 13  1  1  0  0  0
  4  5  1  0  0  0  0
  5 12  1  0  0  0  0
  6  5  2  0  0  0  0
  6 11  1  0  0  0  0
  7  1  1  0  0  0  0
  8  2  1  0  0  0  0
  9  3  1  0  0  0  0
 10  9  1  0  0  0  0
 14 15  2  0  0  0  0
 15 17  1  0  0  0  0
 15 16  1  0  0  0  0
 17 19  1  0  0  0  0
 18 17  1  0  0  0  0
 20 17  1  0  0  0  0
M  RAD  3   1   2   9   2  10   3
M  END
