Coordinates from ORCA-job Ph-N2-OOCCF3-B3LYPG-aug-cc-pVDZ-scan-d09-49-n400
 OpenBabel11081710403D

 20 18  0  0  0  0  0  0  0  0999 V2000
   13.2008    6.0398    2.2203 C   0  0  0  0  0  0  0  0  0  0  0  0
   12.1906    5.6631    1.3044 C   0  0  0  0  0  0  0  0  0  0  0  0
   11.6722    4.4713    1.7282 C   0  0  0  0  0  0  0  0  0  0  0  0
   11.8270    3.6258    2.6755 C   0  0  0  0  0  0  0  0  0  0  0  0
   12.8479    4.0273    3.5831 C   0  0  0  0  0  0  0  0  0  0  0  0
   13.5168    5.2366    3.3308 C   0  0  0  0  0  0  0  0  0  0  0  0
   13.7347    6.9749    2.0459 H   0  0  0  0  0  0  0  0  0  0  0  0
   11.9142    6.2521    0.4348 H   0  0  0  0  0  0  0  0  0  0  0  0
   10.1225    4.0478    0.1912 N   0  0  0  0  0  0  0  0  0  0  0  0
    9.4430    4.1181   -0.6754 N   0  0  0  0  0  0  0  0  0  0  0  0
   14.3032    5.5647    4.0122 H   0  0  0  0  0  0  0  0  0  0  0  0
   13.1092    3.4196    4.4507 H   0  0  0  0  0  0  0  0  0  0  0  0
   10.9647    2.0853    2.9785 H   0  0  0  0  0  0  0  0  0  0  0  0
    9.2428    1.4409    1.4033 O   0  0  0  0  0  0  0  0  0  0  0  0
    9.6100    0.8454    2.3889 C   0  0  0  0  0  0  0  0  0  0  0  0
   10.5483    1.1967    3.2468 O   0  0  0  0  0  0  0  0  0  0  0  0
    8.9822   -0.5133    2.8043 C   0  0  0  0  0  0  0  0  0  0  0  0
    8.0247   -0.8849    1.9433 F   0  0  0  0  0  0  0  0  0  0  0  0
    9.9217   -1.4861    2.8340 F   0  0  0  0  0  0  0  0  0  0  0  0
    8.4304   -0.4300    4.0365 F   0  0  0  0  0  0  0  0  0  0  0  0
  1  6  2  0  0  0  0
  2  3  2  0  0  0  0
  2  1  1  0  0  0  0
  3  4  1  0  0  0  0
  4  5  2  0  0  0  0
  5 12  1  0  0  0  0
  6  5  1  0  0  0  0
  6 11  1  0  0  0  0
  7  1  1  0  0  0  0
  8  2  1  0  0  0  0
 10  9  3  0  0  0  0
 13 16  1  0  0  0  0
 14 15  2  0  0  0  0
 15 17  1  0  0  0  0
 15 16  1  0  0  0  0
 17 19  1  0  0  0  0
 17 20  1  0  0  0  0
 18 17  1  0  0  0  0
M  RAD  2   3   2   4   2
M  END
