Coordinates from ORCA-job Ph-N2-OOCCF3-B3LYPG-aug-cc-pVDZ-scan-d09-49-n400
 OpenBabel11081710403D

 20 18  0  0  0  0  0  0  0  0999 V2000
   13.2309    6.0511    2.2464 C   0  0  0  0  0  0  0  0  0  0  0  0
   12.2239    5.6844    1.3174 C   0  0  0  0  0  0  0  0  0  0  0  0
   11.7099    4.4951    1.7449 C   0  0  0  0  0  0  0  0  0  0  0  0
   11.8629    3.6581    2.6877 C   0  0  0  0  0  0  0  0  0  0  0  0
   12.8734    4.0347    3.6130 C   0  0  0  0  0  0  0  0  0  0  0  0
   13.5412    5.2463    3.3581 C   0  0  0  0  0  0  0  0  0  0  0  0
   13.7693    6.9854    2.0793 H   0  0  0  0  0  0  0  0  0  0  0  0
   11.9547    6.2768    0.4482 H   0  0  0  0  0  0  0  0  0  0  0  0
   10.0192    4.0800    0.0156 N   0  0  0  0  0  0  0  0  0  0  0  0
    9.3272    4.1761   -0.8387 N   0  0  0  0  0  0  0  0  0  0  0  0
   14.3253    5.5751    4.0420 H   0  0  0  0  0  0  0  0  0  0  0  0
   13.1284    3.4246    4.4801 H   0  0  0  0  0  0  0  0  0  0  0  0
   10.9391    2.0588    2.9650 H   0  0  0  0  0  0  0  0  0  0  0  0
    9.2056    1.3995    1.4086 O   0  0  0  0  0  0  0  0  0  0  0  0
    9.5888    0.8138    2.3913 C   0  0  0  0  0  0  0  0  0  0  0  0
   10.5371    1.1796    3.2391 O   0  0  0  0  0  0  0  0  0  0  0  0
    8.9804   -0.5462    2.8296 C   0  0  0  0  0  0  0  0  0  0  0  0
    8.0173   -0.9355    1.9837 F   0  0  0  0  0  0  0  0  0  0  0  0
    9.9301   -1.5086    2.8591 F   0  0  0  0  0  0  0  0  0  0  0  0
    8.4425   -0.4537    4.0671 F   0  0  0  0  0  0  0  0  0  0  0  0
  1  6  2  0  0  0  0
  2  3  2  0  0  0  0
  2  1  1  0  0  0  0
  3  4  1  0  0  0  0
  4  5  2  0  0  0  0
  5 12  1  0  0  0  0
  6  5  1  0  0  0  0
  6 11  1  0  0  0  0
  7  1  1  0  0  0  0
  8  2  1  0  0  0  0
 10  9  3  0  0  0  0
 13 16  1  0  0  0  0
 14 15  2  0  0  0  0
 15 17  1  0  0  0  0
 15 16  1  0  0  0  0
 17 19  1  0  0  0  0
 17 20  1  0  0  0  0
 18 17  1  0  0  0  0
M  RAD  2   3   2   4   2
M  END
