Coordinates from ORCA-job Ph-N2-OOCCF3-B3LYPG-aug-cc-pVDZ-scan-d09-49-n400
 OpenBabel11081710403D

 20 19  0  0  0  0  0  0  0  0999 V2000
   12.6591    5.9799    2.0974 C   0  0  0  0  0  0  0  0  0  0  0  0
   12.3487    4.9903    1.1436 C   0  0  0  0  0  0  0  0  0  0  0  0
   12.0780    3.7885    1.7328 C   0  0  0  0  0  0  0  0  0  0  0  0
   12.0421    3.3625    3.0207 C   0  0  0  0  0  0  0  0  0  0  0  0
   12.3658    4.3911    3.9268 C   0  0  0  0  0  0  0  0  0  0  0  0
   12.6674    5.6779    3.4643 C   0  0  0  0  0  0  0  0  0  0  0  0
   12.8889    6.9859    1.7467 H   0  0  0  0  0  0  0  0  0  0  0  0
   12.3230    5.1771    0.0740 H   0  0  0  0  0  0  0  0  0  0  0  0
   11.6607    2.3865    0.5007 N   0  0  0  0  0  0  0  0  0  0  0  0
   11.7259    2.0368   -0.5514 N   0  0  0  0  0  0  0  0  0  0  0  0
   12.9080    6.4620    4.1814 H   0  0  0  0  0  0  0  0  0  0  0  0
   12.3692    4.1667    4.9930 H   0  0  0  0  0  0  0  0  0  0  0  0
   11.7709    2.3371    3.2772 H   0  0  0  0  0  0  0  0  0  0  0  0
    9.1337    2.1948    1.5122 O   0  0  0  0  0  0  0  0  0  0  0  0
    9.6592    1.1943    2.0069 C   0  0  0  0  0  0  0  0  0  0  0  0
   10.8863    0.8586    2.0306 O   0  0  0  0  0  0  0  0  0  0  0  0
    8.7398    0.1707    2.7560 C   0  0  0  0  0  0  0  0  0  0  0  0
    8.9198   -1.0926    2.3016 F   0  0  0  0  0  0  0  0  0  0  0  0
    9.0299    0.1675    4.0879 F   0  0  0  0  0  0  0  0  0  0  0  0
    7.4308    0.4596    2.6350 F   0  0  0  0  0  0  0  0  0  0  0  0
  1  6  2  0  0  0  0
  2  3  2  0  0  0  0
  2  1  1  0  0  0  0
  3  4  1  0  0  0  0
  4 13  1  0  0  0  0
  4  5  2  0  0  0  0
  5 12  1  0  0  0  0
  6  5  1  0  0  0  0
  6 11  1  0  0  0  0
  7  1  1  0  0  0  0
  8  2  1  0  0  0  0
  9  3  1  0  0  0  0
 10  9  2  0  0  0  0
 14 15  2  0  0  0  0
 15 16  1  0  0  0  0
 15 17  1  0  0  0  0
 17 19  1  0  0  0  0
 18 17  1  0  0  0  0
 20 17  1  0  0  0  0
M  RAD  2  10   2  16   2
M  END
