Coordinates from ORCA-job Ph-N2-OOCCF3-B3LYPG-aug-cc-pVDZ-scan-d09-49-n400
 OpenBabel11081710403D

 20 18  0  0  0  0  0  0  0  0999 V2000
   13.3127    6.0641    2.3136 C   0  0  0  0  0  0  0  0  0  0  0  0
   12.3150    5.7755    1.3458 C   0  0  0  0  0  0  0  0  0  0  0  0
   11.7447    4.5912    1.7165 C   0  0  0  0  0  0  0  0  0  0  0  0
   11.8642    3.7356    2.6375 C   0  0  0  0  0  0  0  0  0  0  0  0
   12.8560    4.0135    3.6085 C   0  0  0  0  0  0  0  0  0  0  0  0
   13.5695    5.2106    3.4033 C   0  0  0  0  0  0  0  0  0  0  0  0
   13.8915    6.9820    2.1956 H   0  0  0  0  0  0  0  0  0  0  0  0
   12.0891    6.4090    0.4937 H   0  0  0  0  0  0  0  0  0  0  0  0
    9.8737    4.3885   -0.3767 N   0  0  0  0  0  0  0  0  0  0  0  0
    9.0493    3.8512   -0.8767 N   0  0  0  0  0  0  0  0  0  0  0  0
   14.3501    5.4880    4.1137 H   0  0  0  0  0  0  0  0  0  0  0  0
   13.0669    3.3631    4.4571 H   0  0  0  0  0  0  0  0  0  0  0  0
   10.8767    2.0798    2.9001 H   0  0  0  0  0  0  0  0  0  0  0  0
    9.1839    1.3027    1.3698 O   0  0  0  0  0  0  0  0  0  0  0  0
    9.5716    0.7765    2.3816 C   0  0  0  0  0  0  0  0  0  0  0  0
   10.5053    1.2132    3.2188 O   0  0  0  0  0  0  0  0  0  0  0  0
    9.0005   -0.5754    2.8879 C   0  0  0  0  0  0  0  0  0  0  0  0
    8.0569   -1.0363    2.0574 F   0  0  0  0  0  0  0  0  0  0  0  0
    9.9786   -1.5051    2.9748 F   0  0  0  0  0  0  0  0  0  0  0  0
    8.4509   -0.4323    4.1152 F   0  0  0  0  0  0  0  0  0  0  0  0
  1  6  2  0  0  0  0
  2  3  2  0  0  0  0
  2  1  1  0  0  0  0
  3  4  1  0  0  0  0
  4  5  2  0  0  0  0
  5 12  1  0  0  0  0
  6  5  1  0  0  0  0
  6 11  1  0  0  0  0
  7  1  1  0  0  0  0
  8  2  1  0  0  0  0
 10  9  3  0  0  0  0
 13 16  1  0  0  0  0
 14 15  2  0  0  0  0
 15 17  1  0  0  0  0
 15 16  1  0  0  0  0
 17 19  1  0  0  0  0
 17 20  1  0  0  0  0
 18 17  1  0  0  0  0
M  RAD  2   3   2   4   2
M  END
