Coordinates from ORCA-job Ph-N2-OOCCF3-B3LYPG-aug-cc-pVDZ-scan-d09-49-n400
 OpenBabel11081710403D

 20 18  0  0  0  0  0  0  0  0999 V2000
   13.3480    6.0234    2.4102 C   0  0  0  0  0  0  0  0  0  0  0  0
   12.3202    5.5432    1.5574 C   0  0  0  0  0  0  0  0  0  0  0  0
   11.8889    4.3538    2.0852 C   0  0  0  0  0  0  0  0  0  0  0  0
   12.1800    3.6448    3.0840 C   0  0  0  0  0  0  0  0  0  0  0  0
   13.1964    4.0950    3.9493 C   0  0  0  0  0  0  0  0  0  0  0  0
   13.7661    5.3242    3.5588 C   0  0  0  0  0  0  0  0  0  0  0  0
   13.8240    6.9718    2.1542 H   0  0  0  0  0  0  0  0  0  0  0  0
   11.9785    6.0615    0.6662 H   0  0  0  0  0  0  0  0  0  0  0  0
    8.9283    4.5774   -1.7750 N   0  0  0  0  0  0  0  0  0  0  0  0
    8.0921    3.9920   -2.1961 N   0  0  0  0  0  0  0  0  0  0  0  0
   14.5628    5.7516    4.1702 H   0  0  0  0  0  0  0  0  0  0  0  0
   13.5291    3.5642    4.8403 H   0  0  0  0  0  0  0  0  0  0  0  0
   11.0430    1.9253    3.2056 H   0  0  0  0  0  0  0  0  0  0  0  0
    9.3735    1.4552    1.5516 O   0  0  0  0  0  0  0  0  0  0  0  0
    9.6734    0.7949    2.5122 C   0  0  0  0  0  0  0  0  0  0  0  0
   10.6034    1.0680    3.4238 O   0  0  0  0  0  0  0  0  0  0  0  0
    8.9816   -0.5518    2.8526 C   0  0  0  0  0  0  0  0  0  0  0  0
    8.0406   -0.8459    1.9467 F   0  0  0  0  0  0  0  0  0  0  0  0
    9.8821   -1.5600    2.8711 F   0  0  0  0  0  0  0  0  0  0  0  0
    8.3951   -0.4933    4.0693 F   0  0  0  0  0  0  0  0  0  0  0  0
  1  6  2  0  0  0  0
  2  3  2  0  0  0  0
  2  1  1  0  0  0  0
  3  4  1  0  0  0  0
  4  5  2  0  0  0  0
  5 12  1  0  0  0  0
  6  5  1  0  0  0  0
  6 11  1  0  0  0  0
  7  1  1  0  0  0  0
  8  2  1  0  0  0  0
 10  9  3  0  0  0  0
 13 16  1  0  0  0  0
 14 15  2  0  0  0  0
 15 17  1  0  0  0  0
 15 16  1  0  0  0  0
 17 19  1  0  0  0  0
 17 20  1  0  0  0  0
 18 17  1  0  0  0  0
M  RAD  2   3   2   4   2
M  END
