Coordinates from ORCA-job Ph-N2-OOCCF3-B3LYPG-aug-cc-pVDZ-scan-d09-49-n400
 OpenBabel11081710403D

 20 18  0  0  0  0  0  0  0  0999 V2000
   13.3505    6.0357    2.4030 C   0  0  0  0  0  0  0  0  0  0  0  0
   12.3239    5.5718    1.5393 C   0  0  0  0  0  0  0  0  0  0  0  0
   11.8820    4.3813    2.0546 C   0  0  0  0  0  0  0  0  0  0  0  0
   12.1600    3.6590    3.0472 C   0  0  0  0  0  0  0  0  0  0  0  0
   13.1748    4.0933    3.9226 C   0  0  0  0  0  0  0  0  0  0  0  0
   13.7563    5.3219    3.5473 C   0  0  0  0  0  0  0  0  0  0  0  0
   13.8353    6.9828    2.1591 H   0  0  0  0  0  0  0  0  0  0  0  0
   11.9911    6.1009    0.6510 H   0  0  0  0  0  0  0  0  0  0  0  0
    9.0158    4.4646   -1.5670 N   0  0  0  0  0  0  0  0  0  0  0  0
    8.1821    3.8776   -1.9908 N   0  0  0  0  0  0  0  0  0  0  0  0
   14.5526    5.7372    4.1675 H   0  0  0  0  0  0  0  0  0  0  0  0
   13.4981    3.5514    4.8103 H   0  0  0  0  0  0  0  0  0  0  0  0
   11.0269    1.9462    3.1684 H   0  0  0  0  0  0  0  0  0  0  0  0
    9.3538    1.4663    1.5174 O   0  0  0  0  0  0  0  0  0  0  0  0
    9.6578    0.8103    2.4798 C   0  0  0  0  0  0  0  0  0  0  0  0
   10.5888    1.0882    3.3890 O   0  0  0  0  0  0  0  0  0  0  0  0
    8.9701   -0.5372    2.8260 C   0  0  0  0  0  0  0  0  0  0  0  0
    8.0280   -0.8367    1.9231 F   0  0  0  0  0  0  0  0  0  0  0  0
    9.8732   -1.5430    2.8459 F   0  0  0  0  0  0  0  0  0  0  0  0
    8.3860   -0.4762    4.0438 F   0  0  0  0  0  0  0  0  0  0  0  0
  1  6  2  0  0  0  0
  2  3  2  0  0  0  0
  2  1  1  0  0  0  0
  3  4  1  0  0  0  0
  4  5  2  0  0  0  0
  5 12  1  0  0  0  0
  6  5  1  0  0  0  0
  6 11  1  0  0  0  0
  7  1  1  0  0  0  0
  8  2  1  0  0  0  0
 10  9  3  0  0  0  0
 13 16  1  0  0  0  0
 14 15  2  0  0  0  0
 15 17  1  0  0  0  0
 15 16  1  0  0  0  0
 17 19  1  0  0  0  0
 17 20  1  0  0  0  0
 18 17  1  0  0  0  0
M  RAD  2   3   2   4   2
M  END
