Coordinates from ORCA-job Ph-N2-OOCCF3-B3LYPG-aug-cc-pVDZ-scan-d09-49-n400
 OpenBabel11081710403D

 20 18  0  0  0  0  0  0  0  0999 V2000
   13.3516    6.0383    2.4021 C   0  0  0  0  0  0  0  0  0  0  0  0
   12.3256    5.5790    1.5355 C   0  0  0  0  0  0  0  0  0  0  0  0
   11.8788    4.3877    2.0453 C   0  0  0  0  0  0  0  0  0  0  0  0
   12.1538    3.6621    3.0370 C   0  0  0  0  0  0  0  0  0  0  0  0
   13.1682    4.0923    3.9151 C   0  0  0  0  0  0  0  0  0  0  0  0
   13.7535    5.3204    3.5449 C   0  0  0  0  0  0  0  0  0  0  0  0
   13.8390    6.9850    2.1617 H   0  0  0  0  0  0  0  0  0  0  0  0
   11.9958    6.1115    0.6482 H   0  0  0  0  0  0  0  0  0  0  0  0
    9.0337    4.4474   -1.5295 N   0  0  0  0  0  0  0  0  0  0  0  0
    8.2005    3.8604   -1.9543 N   0  0  0  0  0  0  0  0  0  0  0  0
   14.5496    5.7319    4.1678 H   0  0  0  0  0  0  0  0  0  0  0  0
   13.4887    3.5471    4.8019 H   0  0  0  0  0  0  0  0  0  0  0  0
   11.0229    1.9504    3.1602 H   0  0  0  0  0  0  0  0  0  0  0  0
    9.3499    1.4665    1.5125 O   0  0  0  0  0  0  0  0  0  0  0  0
    9.6550    0.8118    2.4752 C   0  0  0  0  0  0  0  0  0  0  0  0
   10.5864    1.0921    3.3828 O   0  0  0  0  0  0  0  0  0  0  0  0
    8.9689   -0.5360    2.8236 C   0  0  0  0  0  0  0  0  0  0  0  0
    8.0264   -0.8375    1.9218 F   0  0  0  0  0  0  0  0  0  0  0  0
    9.8731   -1.5409    2.8440 F   0  0  0  0  0  0  0  0  0  0  0  0
    8.3857   -0.4742    4.0417 F   0  0  0  0  0  0  0  0  0  0  0  0
  1  6  2  0  0  0  0
  2  3  2  0  0  0  0
  2  1  1  0  0  0  0
  3  4  1  0  0  0  0
  4  5  2  0  0  0  0
  5 12  1  0  0  0  0
  6  5  1  0  0  0  0
  6 11  1  0  0  0  0
  7  1  1  0  0  0  0
  8  2  1  0  0  0  0
 10  9  3  0  0  0  0
 13 16  1  0  0  0  0
 14 15  2  0  0  0  0
 15 17  1  0  0  0  0
 15 16  1  0  0  0  0
 17 19  1  0  0  0  0
 17 20  1  0  0  0  0
 18 17  1  0  0  0  0
M  RAD  2   3   2   4   2
M  END
