Coordinates from ORCA-job Ph-N2-OOCCF3-B3LYPG-aug-cc-pVDZ-scan-d09-49-n400
 OpenBabel11081710403D

 20 18  0  0  0  0  0  0  0  0999 V2000
   13.3534    6.0442    2.3994 C   0  0  0  0  0  0  0  0  0  0  0  0
   12.3289    5.5962    1.5251 C   0  0  0  0  0  0  0  0  0  0  0  0
   11.8741    4.4040    2.0252 C   0  0  0  0  0  0  0  0  0  0  0  0
   12.1399    3.6696    3.0130 C   0  0  0  0  0  0  0  0  0  0  0  0
   13.1529    4.0891    3.8983 C   0  0  0  0  0  0  0  0  0  0  0  0
   13.7463    5.3165    3.5391 C   0  0  0  0  0  0  0  0  0  0  0  0
   13.8468    6.9899    2.1676 H   0  0  0  0  0  0  0  0  0  0  0  0
   12.0058    6.1362    0.6398 H   0  0  0  0  0  0  0  0  0  0  0  0
    9.0789    4.4053   -1.4359 N   0  0  0  0  0  0  0  0  0  0  0  0
    8.2467    3.8190   -1.8635 N   0  0  0  0  0  0  0  0  0  0  0  0
   14.5416    5.7194    4.1685 H   0  0  0  0  0  0  0  0  0  0  0  0
   13.4664    3.5362    4.7829 H   0  0  0  0  0  0  0  0  0  0  0  0
   11.0136    1.9615    3.1390 H   0  0  0  0  0  0  0  0  0  0  0  0
    9.3369    1.4656    1.4974 O   0  0  0  0  0  0  0  0  0  0  0  0
    9.6470    0.8158    2.4619 C   0  0  0  0  0  0  0  0  0  0  0  0
   10.5799    1.1026    3.3659 O   0  0  0  0  0  0  0  0  0  0  0  0
    8.9661   -0.5327    2.8176 C   0  0  0  0  0  0  0  0  0  0  0  0
    8.0222   -0.8409    1.9196 F   0  0  0  0  0  0  0  0  0  0  0  0
    9.8736   -1.5346    2.8395 F   0  0  0  0  0  0  0  0  0  0  0  0
    8.3861   -0.4679    4.0371 F   0  0  0  0  0  0  0  0  0  0  0  0
  1  6  2  0  0  0  0
  2  3  2  0  0  0  0
  2  1  1  0  0  0  0
  3  4  1  0  0  0  0
  4  5  2  0  0  0  0
  5 12  1  0  0  0  0
  6  5  1  0  0  0  0
  6 11  1  0  0  0  0
  7  1  1  0  0  0  0
  8  2  1  0  0  0  0
 10  9  3  0  0  0  0
 13 16  1  0  0  0  0
 14 15  2  0  0  0  0
 15 17  1  0  0  0  0
 15 16  1  0  0  0  0
 17 19  1  0  0  0  0
 17 20  1  0  0  0  0
 18 17  1  0  0  0  0
M  RAD  2   3   2   4   2
M  END
