Coordinates from ORCA-job Ph-N2-OOCCF3-B3LYPG-aug-cc-pVDZ-scan-d09-49-n400
 OpenBabel11081710403D

 20 18  0  0  0  0  0  0  0  0999 V2000
   13.3555    6.0539    2.3944 C   0  0  0  0  0  0  0  0  0  0  0  0
   12.3352    5.6328    1.5018 C   0  0  0  0  0  0  0  0  0  0  0  0
   11.8606    4.4388    1.9778 C   0  0  0  0  0  0  0  0  0  0  0  0
   12.1046    3.6835    2.9558 C   0  0  0  0  0  0  0  0  0  0  0  0
   13.1134    4.0774    3.8583 C   0  0  0  0  0  0  0  0  0  0  0  0
   13.7263    5.3028    3.5261 C   0  0  0  0  0  0  0  0  0  0  0  0
   13.8631    6.9969    2.1834 H   0  0  0  0  0  0  0  0  0  0  0  0
   12.0285    6.1909    0.6219 H   0  0  0  0  0  0  0  0  0  0  0  0
    9.1761    4.3760   -1.2884 N   0  0  0  0  0  0  0  0  0  0  0  0
    8.3448    3.7996   -1.7308 N   0  0  0  0  0  0  0  0  0  0  0  0
   14.5195    5.6852    4.1709 H   0  0  0  0  0  0  0  0  0  0  0  0
   13.4102    3.5065    4.7371 H   0  0  0  0  0  0  0  0  0  0  0  0
   10.9913    1.9820    3.0935 H   0  0  0  0  0  0  0  0  0  0  0  0
    9.3030    1.4432    1.4754 O   0  0  0  0  0  0  0  0  0  0  0  0
    9.6305    0.8111    2.4459 C   0  0  0  0  0  0  0  0  0  0  0  0
   10.5689    1.1212    3.3360 O   0  0  0  0  0  0  0  0  0  0  0  0
    8.9686   -0.5398    2.8277 C   0  0  0  0  0  0  0  0  0  0  0  0
    8.0195   -0.8718    1.9438 F   0  0  0  0  0  0  0  0  0  0  0  0
    9.8877   -1.5310    2.8551 F   0  0  0  0  0  0  0  0  0  0  0  0
    8.3998   -0.4639    4.0519 F   0  0  0  0  0  0  0  0  0  0  0  0
  1  6  2  0  0  0  0
  2  3  2  0  0  0  0
  2  1  1  0  0  0  0
  3  4  1  0  0  0  0
  4  5  2  0  0  0  0
  5 12  1  0  0  0  0
  6  5  1  0  0  0  0
  6 11  1  0  0  0  0
  7  1  1  0  0  0  0
  8  2  1  0  0  0  0
 10  9  3  0  0  0  0
 13 16  1  0  0  0  0
 14 15  2  0  0  0  0
 15 17  1  0  0  0  0
 15 16  1  0  0  0  0
 17 19  1  0  0  0  0
 17 20  1  0  0  0  0
 18 17  1  0  0  0  0
M  RAD  2   3   2   4   2
M  END
