Coordinates from ORCA-job Ph-N2-OOCCF3-B3LYPG-aug-cc-pVDZ-scan-d09-49-n400
 OpenBabel11081710403D

 20 18  0  0  0  0  0  0  0  0999 V2000
   13.3173    6.0663    2.3191 C   0  0  0  0  0  0  0  0  0  0  0  0
   12.3188    5.7714    1.3550 C   0  0  0  0  0  0  0  0  0  0  0  0
   11.7495    4.5849    1.7270 C   0  0  0  0  0  0  0  0  0  0  0  0
   11.8783    3.7350    2.6531 C   0  0  0  0  0  0  0  0  0  0  0  0
   12.8710    4.0185    3.6211 C   0  0  0  0  0  0  0  0  0  0  0  0
   13.5795    5.2171    3.4105 C   0  0  0  0  0  0  0  0  0  0  0  0
   13.8925    6.9858    2.1967 H   0  0  0  0  0  0  0  0  0  0  0  0
   12.0888    6.4019    0.5016 H   0  0  0  0  0  0  0  0  0  0  0  0
    9.8380    4.3886   -0.4248 N   0  0  0  0  0  0  0  0  0  0  0  0
    9.0132    3.8518   -0.9248 N   0  0  0  0  0  0  0  0  0  0  0  0
   14.3607    5.4989    4.1184 H   0  0  0  0  0  0  0  0  0  0  0  0
   13.0861    3.3714    4.4711 H   0  0  0  0  0  0  0  0  0  0  0  0
   10.8774    2.0735    2.9042 H   0  0  0  0  0  0  0  0  0  0  0  0
    9.1861    1.3051    1.3743 O   0  0  0  0  0  0  0  0  0  0  0  0
    9.5716    0.7745    2.3844 C   0  0  0  0  0  0  0  0  0  0  0  0
   10.5063    1.2076    3.2225 O   0  0  0  0  0  0  0  0  0  0  0  0
    8.9974   -0.5774    2.8870 C   0  0  0  0  0  0  0  0  0  0  0  0
    8.0527   -1.0336    2.0552 F   0  0  0  0  0  0  0  0  0  0  0  0
    9.9734   -1.5096    2.9712 F   0  0  0  0  0  0  0  0  0  0  0  0
    8.4484   -0.4364    4.1147 F   0  0  0  0  0  0  0  0  0  0  0  0
  1  6  2  0  0  0  0
  2  3  2  0  0  0  0
  2  1  1  0  0  0  0
  3  4  1  0  0  0  0
  4  5  2  0  0  0  0
  5 12  1  0  0  0  0
  6  5  1  0  0  0  0
  6 11  1  0  0  0  0
  7  1  1  0  0  0  0
  8  2  1  0  0  0  0
 10  9  3  0  0  0  0
 13 16  1  0  0  0  0
 14 15  2  0  0  0  0
 15 17  1  0  0  0  0
 15 16  1  0  0  0  0
 17 19  1  0  0  0  0
 17 20  1  0  0  0  0
 18 17  1  0  0  0  0
M  RAD  2   3   2   4   2
M  END
