Coordinates from ORCA-job Ph-N2-OOCCF3-B3LYPG-aug-cc-pVDZ-scan-d09-49-n400
 OpenBabel11081710403D

 20 18  0  0  0  0  0  0  0  0999 V2000
   13.3248    6.0680    2.3299 C   0  0  0  0  0  0  0  0  0  0  0  0
   12.3241    5.7627    1.3707 C   0  0  0  0  0  0  0  0  0  0  0  0
   11.7644    4.5746    1.7523 C   0  0  0  0  0  0  0  0  0  0  0  0
   11.9053    3.7342    2.6832 C   0  0  0  0  0  0  0  0  0  0  0  0
   12.8982    4.0240    3.6474 C   0  0  0  0  0  0  0  0  0  0  0  0
   13.5974    5.2267    3.4252 C   0  0  0  0  0  0  0  0  0  0  0  0
   13.8943    6.9902    2.2007 H   0  0  0  0  0  0  0  0  0  0  0  0
   12.0873    6.3876    0.5150 H   0  0  0  0  0  0  0  0  0  0  0  0
    9.7583    4.3738   -0.5168 N   0  0  0  0  0  0  0  0  0  0  0  0
    8.9331    3.8408   -1.0201 N   0  0  0  0  0  0  0  0  0  0  0  0
   14.3801    5.5181    4.1277 H   0  0  0  0  0  0  0  0  0  0  0  0
   13.1208    3.3831    4.4999 H   0  0  0  0  0  0  0  0  0  0  0  0
   10.8881    2.0636    2.9214 H   0  0  0  0  0  0  0  0  0  0  0  0
    9.1950    1.3184    1.3835 O   0  0  0  0  0  0  0  0  0  0  0  0
    9.5758    0.7775    2.3896 C   0  0  0  0  0  0  0  0  0  0  0  0
   10.5125    1.1986    3.2328 O   0  0  0  0  0  0  0  0  0  0  0  0
    8.9933   -0.5748    2.8814 C   0  0  0  0  0  0  0  0  0  0  0  0
    8.0470   -1.0190    2.0449 F   0  0  0  0  0  0  0  0  0  0  0  0
    9.9638   -1.5130    2.9596 F   0  0  0  0  0  0  0  0  0  0  0  0
    8.4436   -0.4398    4.1094 F   0  0  0  0  0  0  0  0  0  0  0  0
  1  6  2  0  0  0  0
  2  3  2  0  0  0  0
  2  1  1  0  0  0  0
  3  4  1  0  0  0  0
  4  5  2  0  0  0  0
  5 12  1  0  0  0  0
  6  5  1  0  0  0  0
  6 11  1  0  0  0  0
  7  1  1  0  0  0  0
  8  2  1  0  0  0  0
 10  9  3  0  0  0  0
 13 16  1  0  0  0  0
 14 15  2  0  0  0  0
 15 17  1  0  0  0  0
 15 16  1  0  0  0  0
 17 19  1  0  0  0  0
 17 20  1  0  0  0  0
 18 17  1  0  0  0  0
M  RAD  2   3   2   4   2
M  END
