Coordinates from ORCA-job Ph-N2-OOCCF3-B3LYPG-aug-cc-pVDZ-scan-d09-49-n400
 OpenBabel11081710403D

 20 18  0  0  0  0  0  0  0  0999 V2000
   13.3592    6.0622    2.3911 C   0  0  0  0  0  0  0  0  0  0  0  0
   12.3438    5.6694    1.4802 C   0  0  0  0  0  0  0  0  0  0  0  0
   11.8480    4.4746    1.9315 C   0  0  0  0  0  0  0  0  0  0  0  0
   12.0691    3.6988    2.8991 C   0  0  0  0  0  0  0  0  0  0  0  0
   13.0731    4.0657    3.8189 C   0  0  0  0  0  0  0  0  0  0  0  0
   13.7065    5.2877    3.5143 C   0  0  0  0  0  0  0  0  0  0  0  0
   13.8818    7.0015    2.2011 H   0  0  0  0  0  0  0  0  0  0  0  0
   12.0545    6.2454    0.6061 H   0  0  0  0  0  0  0  0  0  0  0  0
    9.2611    4.3481   -1.1531 N   0  0  0  0  0  0  0  0  0  0  0  0
    8.4308    3.7777   -1.6050 N   0  0  0  0  0  0  0  0  0  0  0  0
   14.4972    5.6484    4.1745 H   0  0  0  0  0  0  0  0  0  0  0  0
   13.3519    3.4765    4.6917 H   0  0  0  0  0  0  0  0  0  0  0  0
   10.9705    2.0022    3.0516 H   0  0  0  0  0  0  0  0  0  0  0  0
    9.2750    1.4204    1.4536 O   0  0  0  0  0  0  0  0  0  0  0  0
    9.6171    0.8067    2.4308 C   0  0  0  0  0  0  0  0  0  0  0  0
   10.5588    1.1398    3.3088 O   0  0  0  0  0  0  0  0  0  0  0  0
    8.9728   -0.5455    2.8378 C   0  0  0  0  0  0  0  0  0  0  0  0
    8.0210   -0.9011    1.9661 F   0  0  0  0  0  0  0  0  0  0  0  0
    9.9027   -1.5262    2.8734 F   0  0  0  0  0  0  0  0  0  0  0  0
    8.4121   -0.4571    4.0649 F   0  0  0  0  0  0  0  0  0  0  0  0
  1  6  2  0  0  0  0
  2  3  2  0  0  0  0
  2  1  1  0  0  0  0
  3  4  1  0  0  0  0
  4  5  2  0  0  0  0
  5 12  1  0  0  0  0
  6  5  1  0  0  0  0
  6 11  1  0  0  0  0
  7  1  1  0  0  0  0
  8  2  1  0  0  0  0
 10  9  3  0  0  0  0
 13 16  1  0  0  0  0
 14 15  2  0  0  0  0
 15 17  1  0  0  0  0
 15 16  1  0  0  0  0
 17 19  1  0  0  0  0
 17 20  1  0  0  0  0
 18 17  1  0  0  0  0
M  RAD  2   3   2   4   2
M  END
