Coordinates from ORCA-job Ph-N2-OOCCF3-B3LYPG-aug-cc-pVDZ-scan-d09-49-n400
 OpenBabel11081710403D

 20 18  0  0  0  0  0  0  0  0999 V2000
   13.3245    6.0679    2.3293 C   0  0  0  0  0  0  0  0  0  0  0  0
   12.3239    5.7637    1.3695 C   0  0  0  0  0  0  0  0  0  0  0  0
   11.7635    4.5756    1.7504 C   0  0  0  0  0  0  0  0  0  0  0  0
   11.9034    3.7345    2.6808 C   0  0  0  0  0  0  0  0  0  0  0  0
   12.8962    4.0235    3.6455 C   0  0  0  0  0  0  0  0  0  0  0  0
   13.5962    5.2258    3.4243 C   0  0  0  0  0  0  0  0  0  0  0  0
   13.8944    6.9899    2.2007 H   0  0  0  0  0  0  0  0  0  0  0  0
   12.0877    6.3891    0.5141 H   0  0  0  0  0  0  0  0  0  0  0  0
    9.7635    4.3748   -0.5107 N   0  0  0  0  0  0  0  0  0  0  0  0
    8.9384    3.8414   -1.0138 N   0  0  0  0  0  0  0  0  0  0  0  0
   14.3786    5.5164    4.1273 H   0  0  0  0  0  0  0  0  0  0  0  0
   13.1181    3.3820    4.4978 H   0  0  0  0  0  0  0  0  0  0  0  0
   10.8872    2.0644    2.9200 H   0  0  0  0  0  0  0  0  0  0  0  0
    9.1942    1.3173    1.3828 O   0  0  0  0  0  0  0  0  0  0  0  0
    9.5754    0.7772    2.3893 C   0  0  0  0  0  0  0  0  0  0  0  0
   10.5121    1.1993    3.2320 O   0  0  0  0  0  0  0  0  0  0  0  0
    8.9936   -0.5750    2.8819 C   0  0  0  0  0  0  0  0  0  0  0  0
    8.0475   -1.0202    2.0459 F   0  0  0  0  0  0  0  0  0  0  0  0
    9.9646   -1.5127    2.9606 F   0  0  0  0  0  0  0  0  0  0  0  0
    8.4441   -0.4396    4.1099 F   0  0  0  0  0  0  0  0  0  0  0  0
  1  6  2  0  0  0  0
  2  3  2  0  0  0  0
  2  1  1  0  0  0  0
  3  4  1  0  0  0  0
  4  5  2  0  0  0  0
  5 12  1  0  0  0  0
  6  5  1  0  0  0  0
  6 11  1  0  0  0  0
  7  1  1  0  0  0  0
  8  2  1  0  0  0  0
 10  9  3  0  0  0  0
 13 16  1  0  0  0  0
 14 15  2  0  0  0  0
 15 17  1  0  0  0  0
 15 16  1  0  0  0  0
 17 19  1  0  0  0  0
 17 20  1  0  0  0  0
 18 17  1  0  0  0  0
M  RAD  2   3   2   4   2
M  END
