Coordinates from ORCA-job Ph-N2-OOCCF3-B3LYPG-aug-cc-pVDZ-scan-d09-49-n400
 OpenBabel11081710403D

 20 18  0  0  0  0  0  0  0  0999 V2000
   13.3137    6.0646    2.3148 C   0  0  0  0  0  0  0  0  0  0  0  0
   12.3153    5.7739    1.3479 C   0  0  0  0  0  0  0  0  0  0  0  0
   11.7472    4.5893    1.7211 C   0  0  0  0  0  0  0  0  0  0  0  0
   11.8684    3.7349    2.6428 C   0  0  0  0  0  0  0  0  0  0  0  0
   12.8607    4.0149    3.6127 C   0  0  0  0  0  0  0  0  0  0  0  0
   13.5725    5.2128    3.4051 C   0  0  0  0  0  0  0  0  0  0  0  0
   13.8913    6.9830    2.1952 H   0  0  0  0  0  0  0  0  0  0  0  0
   12.0880    6.4062    0.4954 H   0  0  0  0  0  0  0  0  0  0  0  0
    9.8649    4.3892   -0.3891 N   0  0  0  0  0  0  0  0  0  0  0  0
    9.0403    3.8520   -0.8891 N   0  0  0  0  0  0  0  0  0  0  0  0
   14.3534    5.4920    4.1144 H   0  0  0  0  0  0  0  0  0  0  0  0
   13.0733    3.3659    4.4618 H   0  0  0  0  0  0  0  0  0  0  0  0
   10.8769    2.0783    2.9011 H   0  0  0  0  0  0  0  0  0  0  0  0
    9.1831    1.3023    1.3698 O   0  0  0  0  0  0  0  0  0  0  0  0
    9.5709    0.7759    2.3814 C   0  0  0  0  0  0  0  0  0  0  0  0
   10.5048    1.2119    3.2188 O   0  0  0  0  0  0  0  0  0  0  0  0
    8.9995   -0.5760    2.8875 C   0  0  0  0  0  0  0  0  0  0  0  0
    8.0556   -1.0364    2.0570 F   0  0  0  0  0  0  0  0  0  0  0  0
    9.9773   -1.5060    2.9740 F   0  0  0  0  0  0  0  0  0  0  0  0
    8.4501   -0.4331    4.1149 F   0  0  0  0  0  0  0  0  0  0  0  0
  1  6  2  0  0  0  0
  2  3  2  0  0  0  0
  2  1  1  0  0  0  0
  3  4  1  0  0  0  0
  4  5  2  0  0  0  0
  5 12  1  0  0  0  0
  6  5  1  0  0  0  0
  6 11  1  0  0  0  0
  7  1  1  0  0  0  0
  8  2  1  0  0  0  0
 10  9  3  0  0  0  0
 13 16  1  0  0  0  0
 14 15  2  0  0  0  0
 15 17  1  0  0  0  0
 15 16  1  0  0  0  0
 17 19  1  0  0  0  0
 17 20  1  0  0  0  0
 18 17  1  0  0  0  0
M  RAD  2   3   2   4   2
M  END
