Coordinates from ORCA-job Ph-N2-OOCCF3-B3LYPG-aug-cc-pVDZ-scan-d09-49-n400
 OpenBabel11081710403D

 20 20  0  0  1  0  0  0  0  0999 V2000
   11.8747    5.5181    2.0123 C   0  0  0  0  0  0  0  0  0  0  0  0
   12.0849    4.6405    1.0089 C   0  0  0  0  0  0  0  0  0  0  0  0
   12.3588    3.2166    1.2827 C   0  0  0  0  0  0  0  0  0  0  0  0
   12.1867    2.6986    2.7217 C   0  0  1  0  0  0  0  0  0  0  0  0
   12.0513    3.7849    3.7366 C   0  0  0  0  0  0  0  0  0  0  0  0
   11.9014    5.0812    3.3970 C   0  0  0  0  0  0  0  0  0  0  0  0
   11.6826    6.5659    1.7862 H   0  0  0  0  0  0  0  0  0  0  0  0
   12.0707    4.9400   -0.0389 H   0  0  0  0  0  0  0  0  0  0  0  0
   12.6791    2.5286    0.5137 N   0  0  0  0  0  0  0  0  0  0  0  0
   13.0234    1.7786   -0.3014 N   0  0  0  0  0  0  0  0  0  0  0  0
   11.8028    5.8319    4.1820 H   0  0  0  0  0  0  0  0  0  0  0  0
   12.0809    3.4719    4.7803 H   0  0  0  0  0  0  0  0  0  0  0  0
   13.0197    2.0261    2.9601 H   0  0  0  0  0  0  0  0  0  0  0  0
    9.4616    3.1478    2.0482 O   0  0  0  0  0  0  0  0  0  0  0  0
    9.8222    2.0954    2.5037 C   0  0  0  0  0  0  0  0  0  0  0  0
   11.0586    1.7146    2.8284 O   0  0  0  0  0  0  0  0  0  0  0  0
    8.8364    0.9318    2.8051 C   0  0  0  0  0  0  0  0  0  0  0  0
    9.1933   -0.1914    2.1459 F   0  0  0  0  0  0  0  0  0  0  0  0
    8.8256    0.6548    4.1295 F   0  0  0  0  0  0  0  0  0  0  0  0
    7.5923    1.2595    2.4354 F   0  0  0  0  0  0  0  0  0  0  0  0
  1  6  1  0  0  0  0
  2  3  2  0  0  0  0
  2  1  1  0  0  0  0
  3  4  1  0  0  0  0
  4 16  1  0  0  0  0
  4 13  1  1  0  0  0
  4  5  1  0  0  0  0
  5 12  1  0  0  0  0
  6  5  2  0  0  0  0
  6 11  1  0  0  0  0
  7  1  1  0  0  0  0
  8  2  1  0  0  0  0
  9  3  1  0  0  0  0
 10  9  1  0  0  0  0
 14 15  2  0  0  0  0
 15 17  1  0  0  0  0
 15 16  1  0  0  0  0
 17 19  1  0  0  0  0
 18 17  1  0  0  0  0
 20 17  1  0  0  0  0
M  RAD  3   1   2   9   2  10   3
M  END
