Coordinates from ORCA-job Ph-N2-OOCCF3-B3LYPG-aug-cc-pVDZ-scan-d09-49-n400
 OpenBabel11081710403D

 20 18  0  0  0  0  0  0  0  0999 V2000
   13.3090    6.0619    2.3075 C   0  0  0  0  0  0  0  0  0  0  0  0
   12.3141    5.7846    1.3338 C   0  0  0  0  0  0  0  0  0  0  0  0
   11.7344    4.6026    1.6949 C   0  0  0  0  0  0  0  0  0  0  0  0
   11.8392    3.7367    2.6099 C   0  0  0  0  0  0  0  0  0  0  0  0
   12.8303    4.0074    3.5855 C   0  0  0  0  0  0  0  0  0  0  0  0
   13.5540    5.2001    3.3930 C   0  0  0  0  0  0  0  0  0  0  0  0
   13.8942    6.9767    2.1973 H   0  0  0  0  0  0  0  0  0  0  0  0
   12.0965    6.4245    0.4843 H   0  0  0  0  0  0  0  0  0  0  0  0
    9.9248    4.3843   -0.3031 N   0  0  0  0  0  0  0  0  0  0  0  0
    9.1004    3.8448   -0.8010 N   0  0  0  0  0  0  0  0  0  0  0  0
   14.3325    5.4671    4.1095 H   0  0  0  0  0  0  0  0  0  0  0  0
   13.0325    3.3506    4.4314 H   0  0  0  0  0  0  0  0  0  0  0  0
   10.8720    2.0912    2.8876 H   0  0  0  0  0  0  0  0  0  0  0  0
    9.1818    1.2992    1.3643 O   0  0  0  0  0  0  0  0  0  0  0  0
    9.5724    0.7790    2.3783 C   0  0  0  0  0  0  0  0  0  0  0  0
   10.5047    1.2233    3.2120 O   0  0  0  0  0  0  0  0  0  0  0  0
    9.0062   -0.5727    2.8907 C   0  0  0  0  0  0  0  0  0  0  0  0
    8.0639   -1.0409    2.0626 F   0  0  0  0  0  0  0  0  0  0  0  0
    9.9876   -1.4987    2.9814 F   0  0  0  0  0  0  0  0  0  0  0  0
    8.4565   -0.4264    4.1175 F   0  0  0  0  0  0  0  0  0  0  0  0
  1  6  2  0  0  0  0
  2  3  2  0  0  0  0
  2  1  1  0  0  0  0
  3  4  1  0  0  0  0
  4  5  2  0  0  0  0
  5 12  1  0  0  0  0
  6  5  1  0  0  0  0
  6 11  1  0  0  0  0
  7  1  1  0  0  0  0
  8  2  1  0  0  0  0
 10  9  3  0  0  0  0
 13 16  1  0  0  0  0
 14 15  2  0  0  0  0
 15 17  1  0  0  0  0
 15 16  1  0  0  0  0
 17 19  1  0  0  0  0
 17 20  1  0  0  0  0
 18 17  1  0  0  0  0
M  RAD  2   3   2   4   2
M  END
