Coordinates from ORCA-job Ph-N2-OOCCF3-B3LYPG-aug-cc-pVDZ-scan-d09-49-n400
 OpenBabel11081710403D

 20 18  0  0  0  0  0  0  0  0999 V2000
   13.3572    6.0590    2.3923 C   0  0  0  0  0  0  0  0  0  0  0  0
   12.3394    5.6529    1.4898 C   0  0  0  0  0  0  0  0  0  0  0  0
   11.8549    4.4586    1.9535 C   0  0  0  0  0  0  0  0  0  0  0  0
   12.0865    3.6923    2.9253 C   0  0  0  0  0  0  0  0  0  0  0  0
   13.0925    4.0711    3.8375 C   0  0  0  0  0  0  0  0  0  0  0  0
   13.7159    5.2953    3.5198 C   0  0  0  0  0  0  0  0  0  0  0  0
   13.8726    7.0003    2.1926 H   0  0  0  0  0  0  0  0  0  0  0  0
   12.0419    6.2206    0.6130 H   0  0  0  0  0  0  0  0  0  0  0  0
    9.2245    4.3613   -1.2135 N   0  0  0  0  0  0  0  0  0  0  0  0
    8.3937    3.7892   -1.6623 N   0  0  0  0  0  0  0  0  0  0  0  0
   14.5077    5.6664    4.1728 H   0  0  0  0  0  0  0  0  0  0  0  0
   13.3798    3.4903    4.7131 H   0  0  0  0  0  0  0  0  0  0  0  0
   10.9795    1.9928    3.0690 H   0  0  0  0  0  0  0  0  0  0  0  0
    9.2844    1.4290    1.4621 O   0  0  0  0  0  0  0  0  0  0  0  0
    9.6217    0.8079    2.4366 C   0  0  0  0  0  0  0  0  0  0  0  0
   10.5630    1.1310    3.3193 O   0  0  0  0  0  0  0  0  0  0  0  0
    8.9703   -0.5437    2.8337 C   0  0  0  0  0  0  0  0  0  0  0  0
    8.0189   -0.8896    1.9576 F   0  0  0  0  0  0  0  0  0  0  0  0
    9.8957   -1.5289    2.8654 F   0  0  0  0  0  0  0  0  0  0  0  0
    8.4071   -0.4604    4.0600 F   0  0  0  0  0  0  0  0  0  0  0  0
  1  6  2  0  0  0  0
  2  3  2  0  0  0  0
  2  1  1  0  0  0  0
  3  4  1  0  0  0  0
  4  5  2  0  0  0  0
  5 12  1  0  0  0  0
  6  5  1  0  0  0  0
  6 11  1  0  0  0  0
  7  1  1  0  0  0  0
  8  2  1  0  0  0  0
 10  9  3  0  0  0  0
 13 16  1  0  0  0  0
 14 15  2  0  0  0  0
 15 17  1  0  0  0  0
 15 16  1  0  0  0  0
 17 19  1  0  0  0  0
 17 20  1  0  0  0  0
 18 17  1  0  0  0  0
M  RAD  2   3   2   4   2
M  END
