Coordinates from ORCA-job Ph-N2-OOCCF3-B3LYPG-aug-cc-pVDZ-scan-d09-49-n400
 OpenBabel11081710403D

 20 18  0  0  0  0  0  0  0  0999 V2000
   13.1943    6.0370    2.2143 C   0  0  0  0  0  0  0  0  0  0  0  0
   12.1841    5.6567    1.3030 C   0  0  0  0  0  0  0  0  0  0  0  0
   11.6618    4.4637    1.7236 C   0  0  0  0  0  0  0  0  0  0  0  0
   11.8190    3.6170    2.6748 C   0  0  0  0  0  0  0  0  0  0  0  0
   12.8424    4.0266    3.5765 C   0  0  0  0  0  0  0  0  0  0  0  0
   13.5116    5.2345    3.3250 C   0  0  0  0  0  0  0  0  0  0  0  0
   13.7268    6.9722    2.0374 H   0  0  0  0  0  0  0  0  0  0  0  0
   11.9043    6.2430    0.4323 H   0  0  0  0  0  0  0  0  0  0  0  0
   10.1482    4.0342    0.2390 N   0  0  0  0  0  0  0  0  0  0  0  0
    9.4664    4.0914   -0.6267 N   0  0  0  0  0  0  0  0  0  0  0  0
   14.2984    5.5625    4.0059 H   0  0  0  0  0  0  0  0  0  0  0  0
   13.1055    3.4200    4.4446 H   0  0  0  0  0  0  0  0  0  0  0  0
   10.9705    2.0979    2.9770 H   0  0  0  0  0  0  0  0  0  0  0  0
    9.2502    1.4521    1.3986 O   0  0  0  0  0  0  0  0  0  0  0  0
    9.6143    0.8558    2.3859 C   0  0  0  0  0  0  0  0  0  0  0  0
   10.5498    1.2050    3.2449 O   0  0  0  0  0  0  0  0  0  0  0  0
    8.9832   -0.5030    2.7962 C   0  0  0  0  0  0  0  0  0  0  0  0
    8.0269   -0.8715    1.9322 F   0  0  0  0  0  0  0  0  0  0  0  0
    9.9210   -1.4775    2.8256 F   0  0  0  0  0  0  0  0  0  0  0  0
    8.4285   -0.4222    4.0273 F   0  0  0  0  0  0  0  0  0  0  0  0
  1  6  2  0  0  0  0
  2  3  2  0  0  0  0
  2  1  1  0  0  0  0
  3  4  1  0  0  0  0
  4  5  2  0  0  0  0
  5 12  1  0  0  0  0
  6  5  1  0  0  0  0
  6 11  1  0  0  0  0
  7  1  1  0  0  0  0
  8  2  1  0  0  0  0
 10  9  3  0  0  0  0
 13 16  1  0  0  0  0
 14 15  2  0  0  0  0
 15 17  1  0  0  0  0
 15 16  1  0  0  0  0
 17 19  1  0  0  0  0
 17 20  1  0  0  0  0
 18 17  1  0  0  0  0
M  RAD  2   3   2   4   2
M  END
