Coordinates from ORCA-job Ph-N2-OOCCF3-B3LYPG-aug-cc-pVDZ-scan-d09-49-n400
 OpenBabel11081710403D

 20 18  0  0  0  0  0  0  0  0999 V2000
   13.3483    6.0244    2.4097 C   0  0  0  0  0  0  0  0  0  0  0  0
   12.3206    5.5455    1.5561 C   0  0  0  0  0  0  0  0  0  0  0  0
   11.8884    4.3560    2.0828 C   0  0  0  0  0  0  0  0  0  0  0  0
   12.1785    3.6460    3.0812 C   0  0  0  0  0  0  0  0  0  0  0  0
   13.1947    4.0949    3.9472 C   0  0  0  0  0  0  0  0  0  0  0  0
   13.7654    5.3241    3.5579 C   0  0  0  0  0  0  0  0  0  0  0  0
   13.8250    6.9728    2.1547 H   0  0  0  0  0  0  0  0  0  0  0  0
   11.9796    6.0647    0.6651 H   0  0  0  0  0  0  0  0  0  0  0  0
    8.9349    4.5677   -1.7583 N   0  0  0  0  0  0  0  0  0  0  0  0
    8.0989    3.9821   -2.1794 N   0  0  0  0  0  0  0  0  0  0  0  0
   14.5620    5.7505    4.1701 H   0  0  0  0  0  0  0  0  0  0  0  0
   13.5267    3.5632    4.8380 H   0  0  0  0  0  0  0  0  0  0  0  0
   11.0418    1.9270    3.2027 H   0  0  0  0  0  0  0  0  0  0  0  0
    9.3721    1.4563    1.5488 O   0  0  0  0  0  0  0  0  0  0  0  0
    9.6722    0.7963    2.5095 C   0  0  0  0  0  0  0  0  0  0  0  0
   10.6023    1.0696    3.4209 O   0  0  0  0  0  0  0  0  0  0  0  0
    8.9806   -0.5505    2.8502 C   0  0  0  0  0  0  0  0  0  0  0  0
    8.0396   -0.8448    1.9446 F   0  0  0  0  0  0  0  0  0  0  0  0
    9.8812   -1.5586    2.8688 F   0  0  0  0  0  0  0  0  0  0  0  0
    8.3943   -0.4918    4.0670 F   0  0  0  0  0  0  0  0  0  0  0  0
  1  6  2  0  0  0  0
  2  3  2  0  0  0  0
  2  1  1  0  0  0  0
  3  4  1  0  0  0  0
  4  5  2  0  0  0  0
  5 12  1  0  0  0  0
  6  5  1  0  0  0  0
  6 11  1  0  0  0  0
  7  1  1  0  0  0  0
  8  2  1  0  0  0  0
 10  9  3  0  0  0  0
 13 16  1  0  0  0  0
 14 15  2  0  0  0  0
 15 17  1  0  0  0  0
 15 16  1  0  0  0  0
 17 19  1  0  0  0  0
 17 20  1  0  0  0  0
 18 17  1  0  0  0  0
M  RAD  2   3   2   4   2
M  END
