Coordinates from ORCA-job Ph-N2-OOCCF3-B3LYPG-aug-cc-pVDZ-scan-d09-49-n400
 OpenBabel11081710403D

 20 18  0  0  0  0  0  0  0  0999 V2000
   13.3307    6.0688    2.3398 C   0  0  0  0  0  0  0  0  0  0  0  0
   12.3256    5.7421    1.3921 C   0  0  0  0  0  0  0  0  0  0  0  0
   11.7819    4.5518    1.7916 C   0  0  0  0  0  0  0  0  0  0  0  0
   11.9431    3.7269    2.7320 C   0  0  0  0  0  0  0  0  0  0  0  0
   12.9392    4.0352    3.6857 C   0  0  0  0  0  0  0  0  0  0  0  0
   13.6222    5.2434    3.4426 C   0  0  0  0  0  0  0  0  0  0  0  0
   13.8888    6.9957    2.1956 H   0  0  0  0  0  0  0  0  0  0  0  0
   12.0753    6.3551    0.5316 H   0  0  0  0  0  0  0  0  0  0  0  0
    9.6607    4.3568   -0.6309 N   0  0  0  0  0  0  0  0  0  0  0  0
    8.8348    3.8294   -1.1389 N   0  0  0  0  0  0  0  0  0  0  0  0
   14.4075    5.5522    4.1347 H   0  0  0  0  0  0  0  0  0  0  0  0
   13.1760    3.4067    4.5435 H   0  0  0  0  0  0  0  0  0  0  0  0
   10.9052    2.0484    2.9501 H   0  0  0  0  0  0  0  0  0  0  0  0
    9.2112    1.3414    1.3965 O   0  0  0  0  0  0  0  0  0  0  0  0
    9.5827    0.7832    2.3966 C   0  0  0  0  0  0  0  0  0  0  0  0
   10.5208    1.1839    3.2488 O   0  0  0  0  0  0  0  0  0  0  0  0
    8.9852   -0.5695    2.8687 C   0  0  0  0  0  0  0  0  0  0  0  0
    8.0378   -0.9933    2.0230 F   0  0  0  0  0  0  0  0  0  0  0  0
    9.9462   -1.5181    2.9382 F   0  0  0  0  0  0  0  0  0  0  0  0
    8.4323   -0.4449    4.0963 F   0  0  0  0  0  0  0  0  0  0  0  0
  1  6  2  0  0  0  0
  2  3  2  0  0  0  0
  2  1  1  0  0  0  0
  3  4  1  0  0  0  0
  4  5  2  0  0  0  0
  5 12  1  0  0  0  0
  6  5  1  0  0  0  0
  6 11  1  0  0  0  0
  7  1  1  0  0  0  0
  8  2  1  0  0  0  0
 10  9  3  0  0  0  0
 13 16  1  0  0  0  0
 14 15  2  0  0  0  0
 15 17  1  0  0  0  0
 15 16  1  0  0  0  0
 17 19  1  0  0  0  0
 17 20  1  0  0  0  0
 18 17  1  0  0  0  0
M  RAD  2   3   2   4   2
M  END
