Coordinates from ORCA-job Ph-N2-OOCCF3-B3LYPG-aug-cc-pVDZ-scan-d09-49-n400
 OpenBabel11081710403D

 20 20  0  0  1  0  0  0  0  0999 V2000
   11.8871    5.5206    2.0131 C   0  0  0  0  0  0  0  0  0  0  0  0
   12.0900    4.6440    1.0089 C   0  0  0  0  0  0  0  0  0  0  0  0
   12.3546    3.2109    1.2732 C   0  0  0  0  0  0  0  0  0  0  0  0
   12.1823    2.6996    2.7234 C   0  0  1  0  0  0  0  0  0  0  0  0
   12.0438    3.7865    3.7372 C   0  0  0  0  0  0  0  0  0  0  0  0
   11.9056    5.0836    3.3985 C   0  0  0  0  0  0  0  0  0  0  0  0
   11.7040    6.5702    1.7873 H   0  0  0  0  0  0  0  0  0  0  0  0
   12.0770    4.9432   -0.0391 H   0  0  0  0  0  0  0  0  0  0  0  0
   12.6542    2.5371    0.5252 N   0  0  0  0  0  0  0  0  0  0  0  0
   12.9864    1.7790   -0.2931 N   0  0  0  0  0  0  0  0  0  0  0  0
   11.8075    5.8346    4.1831 H   0  0  0  0  0  0  0  0  0  0  0  0
   12.0643    3.4715    4.7806 H   0  0  0  0  0  0  0  0  0  0  0  0
   13.0229    2.0348    2.9584 H   0  0  0  0  0  0  0  0  0  0  0  0
    9.4656    3.1417    2.0414 O   0  0  0  0  0  0  0  0  0  0  0  0
    9.8255    2.0911    2.5007 C   0  0  0  0  0  0  0  0  0  0  0  0
   11.0632    1.7140    2.8287 O   0  0  0  0  0  0  0  0  0  0  0  0
    8.8421    0.9261    2.8030 C   0  0  0  0  0  0  0  0  0  0  0  0
    9.2072   -0.2002    2.1547 F   0  0  0  0  0  0  0  0  0  0  0  0
    8.8241    0.6595    4.1294 F   0  0  0  0  0  0  0  0  0  0  0  0
    7.5997    1.2476    2.4229 F   0  0  0  0  0  0  0  0  0  0  0  0
  1  6  1  0  0  0  0
  2  3  2  0  0  0  0
  2  1  1  0  0  0  0
  3  4  1  0  0  0  0
  4 16  1  0  0  0  0
  4 13  1  1  0  0  0
  4  5  1  0  0  0  0
  5 12  1  0  0  0  0
  6  5  2  0  0  0  0
  6 11  1  0  0  0  0
  7  1  1  0  0  0  0
  8  2  1  0  0  0  0
  9  3  1  0  0  0  0
 10  9  1  0  0  0  0
 14 15  2  0  0  0  0
 15 17  1  0  0  0  0
 15 16  1  0  0  0  0
 17 19  1  0  0  0  0
 18 17  1  0  0  0  0
 20 17  1  0  0  0  0
M  RAD  3   1   2   9   2  10   3
M  END
