Coordinates from ORCA-job Ph-N2-OOCCF3-B3LYPG-aug-cc-pVDZ-scan-d09-49-n400
 OpenBabel11081710403D

 20 20  0  0  1  0  0  0  0  0999 V2000
   11.8971    5.5220    2.0124 C   0  0  0  0  0  0  0  0  0  0  0  0
   12.0958    4.6464    1.0075 C   0  0  0  0  0  0  0  0  0  0  0  0
   12.3510    3.2068    1.2652 C   0  0  0  0  0  0  0  0  0  0  0  0
   12.1788    2.6995    2.7228 C   0  0  1  0  0  0  0  0  0  0  0  0
   12.0377    3.7866    3.7359 C   0  0  0  0  0  0  0  0  0  0  0  0
   11.9076    5.0842    3.3980 C   0  0  0  0  0  0  0  0  0  0  0  0
   11.7215    6.5731    1.7872 H   0  0  0  0  0  0  0  0  0  0  0  0
   12.0859    4.9461   -0.0405 H   0  0  0  0  0  0  0  0  0  0  0  0
   12.6365    2.5496    0.5388 N   0  0  0  0  0  0  0  0  0  0  0  0
   12.9629    1.7867   -0.2813 N   0  0  0  0  0  0  0  0  0  0  0  0
   11.8095    5.8353    4.1825 H   0  0  0  0  0  0  0  0  0  0  0  0
   12.0515    3.4703    4.7791 H   0  0  0  0  0  0  0  0  0  0  0  0
   13.0242    2.0398    2.9555 H   0  0  0  0  0  0  0  0  0  0  0  0
    9.4667    3.1361    2.0365 O   0  0  0  0  0  0  0  0  0  0  0  0
    9.8273    2.0858    2.4957 C   0  0  0  0  0  0  0  0  0  0  0  0
   11.0658    1.7120    2.8268 O   0  0  0  0  0  0  0  0  0  0  0  0
    8.8453    0.9212    2.8030 C   0  0  0  0  0  0  0  0  0  0  0  0
    9.2123   -0.2079    2.1614 F   0  0  0  0  0  0  0  0  0  0  0  0
    8.8266    0.6623    4.1310 F   0  0  0  0  0  0  0  0  0  0  0  0
    7.6030    1.2395    2.4200 F   0  0  0  0  0  0  0  0  0  0  0  0
  1  6  1  0  0  0  0
  2  3  2  0  0  0  0
  2  1  1  0  0  0  0
  3  4  1  0  0  0  0
  4 16  1  0  0  0  0
  4 13  1  1  0  0  0
  4  5  1  0  0  0  0
  5 12  1  0  0  0  0
  6  5  2  0  0  0  0
  6 11  1  0  0  0  0
  7  1  1  0  0  0  0
  8  2  1  0  0  0  0
  9  3  1  0  0  0  0
 10  9  1  0  0  0  0
 14 15  2  0  0  0  0
 15 17  1  0  0  0  0
 15 16  1  0  0  0  0
 17 19  1  0  0  0  0
 18 17  1  0  0  0  0
 20 17  1  0  0  0  0
M  RAD  3   1   2   9   2  10   3
M  END
