Coordinates from ORCA-job Ph-N2-OOCCF3-B3LYPG-aug-cc-pVDZ-scan-d09-49-n400
 OpenBabel11081710403D

 20 18  0  0  0  0  0  0  0  0999 V2000
   13.3532    6.0456    2.3981 C   0  0  0  0  0  0  0  0  0  0  0  0
   12.3289    5.5998    1.5221 C   0  0  0  0  0  0  0  0  0  0  0  0
   11.8736    4.4079    2.0213 C   0  0  0  0  0  0  0  0  0  0  0  0
   12.1368    3.6711    3.0075 C   0  0  0  0  0  0  0  0  0  0  0  0
   13.1493    4.0882    3.8945 C   0  0  0  0  0  0  0  0  0  0  0  0
   13.7443    5.3157    3.5373 C   0  0  0  0  0  0  0  0  0  0  0  0
   13.8478    6.9911    2.1681 H   0  0  0  0  0  0  0  0  0  0  0  0
   12.0071    6.1414    0.6373 H   0  0  0  0  0  0  0  0  0  0  0  0
    9.0920    4.3969   -1.4122 N   0  0  0  0  0  0  0  0  0  0  0  0
    8.2601    3.8115   -1.8413 N   0  0  0  0  0  0  0  0  0  0  0  0
   14.5395    5.7169    4.1680 H   0  0  0  0  0  0  0  0  0  0  0  0
   13.4614    3.5337    4.7785 H   0  0  0  0  0  0  0  0  0  0  0  0
   11.0113    1.9642    3.1337 H   0  0  0  0  0  0  0  0  0  0  0  0
    9.3324    1.4643    1.4929 O   0  0  0  0  0  0  0  0  0  0  0  0
    9.6445    0.8165    2.4583 C   0  0  0  0  0  0  0  0  0  0  0  0
   10.5781    1.1052    3.3613 O   0  0  0  0  0  0  0  0  0  0  0  0
    8.9654   -0.5323    2.8165 C   0  0  0  0  0  0  0  0  0  0  0  0
    8.0209   -0.8428    1.9200 F   0  0  0  0  0  0  0  0  0  0  0  0
    9.8740   -1.5332    2.8389 F   0  0  0  0  0  0  0  0  0  0  0  0
    8.3866   -0.4664    4.0365 F   0  0  0  0  0  0  0  0  0  0  0  0
  1  6  2  0  0  0  0
  2  3  2  0  0  0  0
  2  1  1  0  0  0  0
  3  4  1  0  0  0  0
  4  5  2  0  0  0  0
  5 12  1  0  0  0  0
  6  5  1  0  0  0  0
  6 11  1  0  0  0  0
  7  1  1  0  0  0  0
  8  2  1  0  0  0  0
 10  9  3  0  0  0  0
 13 16  1  0  0  0  0
 14 15  2  0  0  0  0
 15 17  1  0  0  0  0
 15 16  1  0  0  0  0
 17 19  1  0  0  0  0
 17 20  1  0  0  0  0
 18 17  1  0  0  0  0
M  RAD  2   3   2   4   2
M  END
