Coordinates from ORCA-job Ph-N2-OOCCF3-B3LYPG-aug-cc-pVDZ-scan-d09-49-n400
 OpenBabel11081710403D

 20 18  0  0  0  0  0  0  0  0999 V2000
   13.1007    5.9993    2.1293 C   0  0  0  0  0  0  0  0  0  0  0  0
   12.0103    5.5561    1.3569 C   0  0  0  0  0  0  0  0  0  0  0  0
   11.5587    4.3404    1.7942 C   0  0  0  0  0  0  0  0  0  0  0  0
   11.9044    3.4861    2.7692 C   0  0  0  0  0  0  0  0  0  0  0  0
   13.0042    3.9890    3.5072 C   0  0  0  0  0  0  0  0  0  0  0  0
   13.5853    5.2203    3.1889 C   0  0  0  0  0  0  0  0  0  0  0  0
   13.5561    6.9587    1.8838 H   0  0  0  0  0  0  0  0  0  0  0  0
   11.5971    6.1207    0.5265 H   0  0  0  0  0  0  0  0  0  0  0  0
   10.0563    3.7586    0.7090 N   0  0  0  0  0  0  0  0  0  0  0  0
    9.3598    3.9511   -0.1300 N   0  0  0  0  0  0  0  0  0  0  0  0
   14.4305    5.5830    3.7736 H   0  0  0  0  0  0  0  0  0  0  0  0
   13.3837    3.3856    4.3321 H   0  0  0  0  0  0  0  0  0  0  0  0
   11.4139    2.4930    3.0045 H   0  0  0  0  0  0  0  0  0  0  0  0
    9.4305    1.6849    1.6152 O   0  0  0  0  0  0  0  0  0  0  0  0
    9.7803    0.9080    2.5353 C   0  0  0  0  0  0  0  0  0  0  0  0
   10.6989    1.0147    3.3749 O   0  0  0  0  0  0  0  0  0  0  0  0
    8.9015   -0.3864    2.6270 C   0  0  0  0  0  0  0  0  0  0  0  0
    8.8866   -1.0482    1.4440 F   0  0  0  0  0  0  0  0  0  0  0  0
    9.3309   -1.2532    3.5652 F   0  0  0  0  0  0  0  0  0  0  0  0
    7.6175   -0.0663    2.9308 F   0  0  0  0  0  0  0  0  0  0  0  0
  1  6  2  0  0  0  0
  2  3  2  0  0  0  0
  2  1  1  0  0  0  0
  3  4  1  0  0  0  0
  4 13  1  0  0  0  0
  4  5  2  0  0  0  0
  5 12  1  0  0  0  0
  6  5  1  0  0  0  0
  6 11  1  0  0  0  0
  7  1  1  0  0  0  0
  8  2  1  0  0  0  0
 10  9  3  0  0  0  0
 14 15  2  0  0  0  0
 15 17  1  0  0  0  0
 15 16  1  0  0  0  0
 17 20  1  0  0  0  0
 17 19  1  0  0  0  0
 18 17  1  0  0  0  0
M  RAD  2   3   2  16   2
M  END
