Coordinates from ORCA-job Ph-N2-OOCCF3-B3LYPG-aug-cc-pVDZ-scan-d09-49-n400
 OpenBabel11081710403D

 20 18  0  0  0  0  0  0  0  0999 V2000
   13.3072    6.0609    2.3036 C   0  0  0  0  0  0  0  0  0  0  0  0
   12.3141    5.7899    1.3271 C   0  0  0  0  0  0  0  0  0  0  0  0
   11.7272    4.6092    1.6814 C   0  0  0  0  0  0  0  0  0  0  0  0
   11.8260    3.7396    2.5944 C   0  0  0  0  0  0  0  0  0  0  0  0
   12.8159    4.0047    3.5729 C   0  0  0  0  0  0  0  0  0  0  0  0
   13.5455    5.1946    3.3870 C   0  0  0  0  0  0  0  0  0  0  0  0
   13.8962    6.9736    2.1976 H   0  0  0  0  0  0  0  0  0  0  0  0
   12.1009    6.4329    0.4787 H   0  0  0  0  0  0  0  0  0  0  0  0
    9.9552    4.3772   -0.2540 N   0  0  0  0  0  0  0  0  0  0  0  0
    9.1308    3.8399   -0.7543 N   0  0  0  0  0  0  0  0  0  0  0  0
   14.3230    5.4560    4.1067 H   0  0  0  0  0  0  0  0  0  0  0  0
   13.0131    3.3444    4.4173 H   0  0  0  0  0  0  0  0  0  0  0  0
   10.8681    2.0983    2.8789 H   0  0  0  0  0  0  0  0  0  0  0  0
    9.1794    1.2967    1.3596 O   0  0  0  0  0  0  0  0  0  0  0  0
    9.5719    0.7804    2.3751 C   0  0  0  0  0  0  0  0  0  0  0  0
   10.5033    1.2296    3.2067 O   0  0  0  0  0  0  0  0  0  0  0  0
    9.0092   -0.5712    2.8914 C   0  0  0  0  0  0  0  0  0  0  0  0
    8.0680   -1.0443    2.0648 F   0  0  0  0  0  0  0  0  0  0  0  0
    9.9929   -1.4945    2.9848 F   0  0  0  0  0  0  0  0  0  0  0  0
    8.4591   -0.4226    4.1178 F   0  0  0  0  0  0  0  0  0  0  0  0
  1  6  2  0  0  0  0
  2  3  2  0  0  0  0
  2  1  1  0  0  0  0
  3  4  1  0  0  0  0
  4  5  2  0  0  0  0
  5 12  1  0  0  0  0
  6  5  1  0  0  0  0
  6 11  1  0  0  0  0
  7  1  1  0  0  0  0
  8  2  1  0  0  0  0
 10  9  3  0  0  0  0
 13 16  1  0  0  0  0
 14 15  2  0  0  0  0
 15 17  1  0  0  0  0
 15 16  1  0  0  0  0
 17 19  1  0  0  0  0
 17 20  1  0  0  0  0
 18 17  1  0  0  0  0
M  RAD  2   3   2   4   2
M  END
