Coordinates from ORCA-job Ph-N2-OOCCF3-B3LYPG-aug-cc-pVDZ-scan-d09-49-n400
 OpenBabel11081710403D

 20 20  0  0  1  0  0  0  0  0999 V2000
   11.8095    5.5307    2.0185 C   0  0  0  0  0  0  0  0  0  0  0  0
   12.0789    4.6409    1.0206 C   0  0  0  0  0  0  0  0  0  0  0  0
   12.3724    3.2937    1.3859 C   0  0  1  0  0  0  0  0  0  0  0  0
   12.2248    2.7164    2.7377 C   0  0  1  0  0  0  0  0  0  0  0  0
   12.0976    3.8041    3.7464 C   0  0  0  0  0  0  0  0  0  0  0  0
   11.8702    5.0953    3.3932 C   0  0  0  0  0  0  0  0  0  0  0  0
   11.5736    6.5667    1.7846 H   0  0  0  0  0  0  0  0  0  0  0  0
   12.0812    4.9287   -0.0294 H   0  0  0  0  0  0  0  0  0  0  0  0
   12.8291    2.3950    0.3556 N   0  0  0  0  0  0  0  0  0  0  0  0
   13.1827    1.6767   -0.4430 N   0  0  0  0  0  0  0  0  0  0  0  0
   11.7539    5.8428    4.1794 H   0  0  0  0  0  0  0  0  0  0  0  0
   12.1765    3.5123    4.7929 H   0  0  0  0  0  0  0  0  0  0  0  0
   13.0043    1.9904    2.9879 H   0  0  0  0  0  0  0  0  0  0  0  0
    9.4304    3.1810    2.1287 O   0  0  0  0  0  0  0  0  0  0  0  0
    9.7991    2.1155    2.5543 C   0  0  0  0  0  0  0  0  0  0  0  0
   11.0256    1.7155    2.8549 O   0  0  0  0  0  0  0  0  0  0  0  0
    8.8024    0.9464    2.8077 C   0  0  0  0  0  0  0  0  0  0  0  0
    9.1239   -0.1335    2.0566 F   0  0  0  0  0  0  0  0  0  0  0  0
    8.8215    0.5685    4.1067 F   0  0  0  0  0  0  0  0  0  0  0  0
    7.5496    1.3082    2.4984 F   0  0  0  0  0  0  0  0  0  0  0  0
  1  6  1  0  0  0  0
  2  3  1  0  0  0  0
  2  1  2  0  0  0  0
  3  9  1  6  0  0  0
  3  4  1  0  0  0  0
  4 16  1  0  0  0  0
  4 13  1  1  0  0  0
  4  5  1  0  0  0  0
  5 12  1  0  0  0  0
  6  5  2  0  0  0  0
  6 11  1  0  0  0  0
  7  1  1  0  0  0  0
  8  2  1  0  0  0  0
 10  9  1  0  0  0  0
 14 15  2  0  0  0  0
 15 17  1  0  0  0  0
 15 16  1  0  0  0  0
 17 19  1  0  0  0  0
 18 17  1  0  0  0  0
 20 17  1  0  0  0  0
M  RAD  3   3   2   9   2  10   3
M  END
