Coordinates from ORCA-job Ph-N2-OOCCF3-B3LYPG-aug-cc-pVDZ-scan-d09-49-n400
 OpenBabel11081710403D

 20 18  0  0  0  0  0  0  0  0999 V2000
   13.3575    6.0662    2.3833 C   0  0  0  0  0  0  0  0  0  0  0  0
   12.3459    5.6974    1.4581 C   0  0  0  0  0  0  0  0  0  0  0  0
   11.8339    4.5034    1.8908 C   0  0  0  0  0  0  0  0  0  0  0  0
   12.0328    3.7087    2.8484 C   0  0  0  0  0  0  0  0  0  0  0  0
   13.0339    4.0542    3.7813 C   0  0  0  0  0  0  0  0  0  0  0  0
   13.6847    5.2723    3.4993 C   0  0  0  0  0  0  0  0  0  0  0  0
   13.8928    7.0016    2.2107 H   0  0  0  0  0  0  0  0  0  0  0  0
   12.0703    6.2869    0.5887 H   0  0  0  0  0  0  0  0  0  0  0  0
    9.3509    4.3434   -1.0305 N   0  0  0  0  0  0  0  0  0  0  0  0
    8.5216    3.7778   -1.4899 N   0  0  0  0  0  0  0  0  0  0  0  0
   14.4734    5.6145    4.1717 H   0  0  0  0  0  0  0  0  0  0  0  0
   13.2978    3.4504    4.6487 H   0  0  0  0  0  0  0  0  0  0  0  0
   10.9538    2.0177    3.0219 H   0  0  0  0  0  0  0  0  0  0  0  0
    9.2560    1.3990    1.4379 O   0  0  0  0  0  0  0  0  0  0  0  0
    9.6082    0.8014    2.4218 C   0  0  0  0  0  0  0  0  0  0  0  0
   10.5503    1.1544    3.2916 O   0  0  0  0  0  0  0  0  0  0  0  0
    8.9782   -0.5514    2.8486 C   0  0  0  0  0  0  0  0  0  0  0  0
    8.0265   -0.9273    1.9852 F   0  0  0  0  0  0  0  0  0  0  0  0
    9.9175   -1.5229    2.8933 F   0  0  0  0  0  0  0  0  0  0  0  0
    8.4212   -0.4525    4.0766 F   0  0  0  0  0  0  0  0  0  0  0  0
  1  6  2  0  0  0  0
  2  3  2  0  0  0  0
  2  1  1  0  0  0  0
  3  4  1  0  0  0  0
  4  5  2  0  0  0  0
  5 12  1  0  0  0  0
  6  5  1  0  0  0  0
  6 11  1  0  0  0  0
  7  1  1  0  0  0  0
  8  2  1  0  0  0  0
 10  9  3  0  0  0  0
 13 16  1  0  0  0  0
 14 15  2  0  0  0  0
 15 17  1  0  0  0  0
 15 16  1  0  0  0  0
 17 19  1  0  0  0  0
 17 20  1  0  0  0  0
 18 17  1  0  0  0  0
M  RAD  2   3   2   4   2
M  END
