Coordinates from ORCA-job Ph-N2-OOCCF3-B3LYPG-aug-cc-pVDZ-scan-d09-49-n400
 OpenBabel11081710403D

 20 18  0  0  0  0  0  0  0  0999 V2000
   13.1124    5.9973    2.1493 C   0  0  0  0  0  0  0  0  0  0  0  0
   12.0233    5.5747    1.3600 C   0  0  0  0  0  0  0  0  0  0  0  0
   11.5713    4.3600    1.7897 C   0  0  0  0  0  0  0  0  0  0  0  0
   11.8871    3.4845    2.7456 C   0  0  0  0  0  0  0  0  0  0  0  0
   12.9879    3.9698    3.5004 C   0  0  0  0  0  0  0  0  0  0  0  0
   13.5816    5.2001    3.2024 C   0  0  0  0  0  0  0  0  0  0  0  0
   13.5770    6.9563    1.9192 H   0  0  0  0  0  0  0  0  0  0  0  0
   11.6203    6.1521    0.5337 H   0  0  0  0  0  0  0  0  0  0  0  0
   10.0274    3.7933    0.6468 N   0  0  0  0  0  0  0  0  0  0  0  0
    9.3366    3.9772   -0.1973 N   0  0  0  0  0  0  0  0  0  0  0  0
   14.4250    5.5477    3.7987 H   0  0  0  0  0  0  0  0  0  0  0  0
   13.3542    3.3507    4.3199 H   0  0  0  0  0  0  0  0  0  0  0  0
   11.3856    2.4795    2.9724 H   0  0  0  0  0  0  0  0  0  0  0  0
    9.3882    1.6786    1.6078 O   0  0  0  0  0  0  0  0  0  0  0  0
    9.7699    0.9185    2.5220 C   0  0  0  0  0  0  0  0  0  0  0  0
   10.7127    1.0493    3.3389 O   0  0  0  0  0  0  0  0  0  0  0  0
    8.9220   -0.3921    2.6580 C   0  0  0  0  0  0  0  0  0  0  0  0
    8.9080   -1.0800    1.4898 F   0  0  0  0  0  0  0  0  0  0  0  0
    9.3812   -1.2290    3.6098 F   0  0  0  0  0  0  0  0  0  0  0  0
    7.6355   -0.0933    2.9704 F   0  0  0  0  0  0  0  0  0  0  0  0
  1  6  2  0  0  0  0
  2  3  2  0  0  0  0
  2  1  1  0  0  0  0
  3  4  1  0  0  0  0
  4 13  1  0  0  0  0
  4  5  2  0  0  0  0
  5 12  1  0  0  0  0
  6  5  1  0  0  0  0
  6 11  1  0  0  0  0
  7  1  1  0  0  0  0
  8  2  1  0  0  0  0
 10  9  3  0  0  0  0
 14 15  2  0  0  0  0
 15 17  1  0  0  0  0
 15 16  1  0  0  0  0
 17 20  1  0  0  0  0
 17 19  1  0  0  0  0
 18 17  1  0  0  0  0
M  RAD  2   3   2  16   2
M  END
