Coordinates from ORCA-job Ph-N2-OOCCF3-B3LYPG-aug-cc-pVDZ-scan-d09-49-n400
 OpenBabel11081710403D

 20 18  0  0  0  0  0  0  0  0999 V2000
   13.3310    6.0688    2.3403 C   0  0  0  0  0  0  0  0  0  0  0  0
   12.3256    5.7410    1.3932 C   0  0  0  0  0  0  0  0  0  0  0  0
   11.7828    4.5506    1.7937 C   0  0  0  0  0  0  0  0  0  0  0  0
   11.9450    3.7265    2.7345 C   0  0  0  0  0  0  0  0  0  0  0  0
   12.9412    4.0357    3.6876 C   0  0  0  0  0  0  0  0  0  0  0  0
   13.6235    5.2443    3.4435 C   0  0  0  0  0  0  0  0  0  0  0  0
   13.8885    6.9960    2.1953 H   0  0  0  0  0  0  0  0  0  0  0  0
   12.0747    6.3534    0.5325 H   0  0  0  0  0  0  0  0  0  0  0  0
    9.6557    4.3561   -0.6370 N   0  0  0  0  0  0  0  0  0  0  0  0
    8.8296    3.8289   -1.1452 N   0  0  0  0  0  0  0  0  0  0  0  0
   14.4089    5.5540    4.1351 H   0  0  0  0  0  0  0  0  0  0  0  0
   13.1789    3.4079    4.5457 H   0  0  0  0  0  0  0  0  0  0  0  0
   10.9061    2.0476    2.9516 H   0  0  0  0  0  0  0  0  0  0  0  0
    9.2121    1.3426    1.3972 O   0  0  0  0  0  0  0  0  0  0  0  0
    9.5831    0.7835    2.3970 C   0  0  0  0  0  0  0  0  0  0  0  0
   10.5213    1.1831    3.2497 O   0  0  0  0  0  0  0  0  0  0  0  0
    8.9848   -0.5692    2.8681 C   0  0  0  0  0  0  0  0  0  0  0  0
    8.0373   -0.9919    2.0219 F   0  0  0  0  0  0  0  0  0  0  0  0
    9.9453   -1.5183    2.9371 F   0  0  0  0  0  0  0  0  0  0  0  0
    8.4318   -0.4452    4.0957 F   0  0  0  0  0  0  0  0  0  0  0  0
  1  6  2  0  0  0  0
  2  3  2  0  0  0  0
  2  1  1  0  0  0  0
  3  4  1  0  0  0  0
  4  5  2  0  0  0  0
  5 12  1  0  0  0  0
  6  5  1  0  0  0  0
  6 11  1  0  0  0  0
  7  1  1  0  0  0  0
  8  2  1  0  0  0  0
 10  9  3  0  0  0  0
 13 16  1  0  0  0  0
 14 15  2  0  0  0  0
 15 17  1  0  0  0  0
 15 16  1  0  0  0  0
 17 19  1  0  0  0  0
 17 20  1  0  0  0  0
 18 17  1  0  0  0  0
M  RAD  2   3   2   4   2
M  END
