Coordinates from ORCA-job Ph-N2-OOCCF3-B3LYPG-aug-cc-pVDZ-scan-d09-49-n400
 OpenBabel11081710403D

 20 18  0  0  0  0  0  0  0  0999 V2000
   13.3606    6.0649    2.3892 C   0  0  0  0  0  0  0  0  0  0  0  0
   12.3473    5.6859    1.4698 C   0  0  0  0  0  0  0  0  0  0  0  0
   11.8430    4.4920    1.9111 C   0  0  0  0  0  0  0  0  0  0  0  0
   12.0505    3.7049    2.8723 C   0  0  0  0  0  0  0  0  0  0  0  0
   13.0526    4.0592    3.7999 C   0  0  0  0  0  0  0  0  0  0  0  0
   13.6962    5.2792    3.5085 C   0  0  0  0  0  0  0  0  0  0  0  0
   13.8905    7.0021    2.2092 H   0  0  0  0  0  0  0  0  0  0  0  0
   12.0665    6.2702    0.5984 H   0  0  0  0  0  0  0  0  0  0  0  0
    9.2999    4.3368   -1.0911 N   0  0  0  0  0  0  0  0  0  0  0  0
    8.4703    3.7679   -1.5459 N   0  0  0  0  0  0  0  0  0  0  0  0
   14.4857    5.6292    4.1758 H   0  0  0  0  0  0  0  0  0  0  0  0
   13.3226    3.4614    4.6696 H   0  0  0  0  0  0  0  0  0  0  0  0
   10.9621    2.0126    3.0343 H   0  0  0  0  0  0  0  0  0  0  0  0
    9.2635    1.4101    1.4431 O   0  0  0  0  0  0  0  0  0  0  0  0
    9.6121    0.8057    2.4241 C   0  0  0  0  0  0  0  0  0  0  0  0
   10.5543    1.1496    3.2976 O   0  0  0  0  0  0  0  0  0  0  0  0
    8.9760   -0.5470    2.8425 C   0  0  0  0  0  0  0  0  0  0  0  0
    8.0239   -0.9140    1.9759 F   0  0  0  0  0  0  0  0  0  0  0  0
    9.9113   -1.5225    2.8828 F   0  0  0  0  0  0  0  0  0  0  0  0
    8.4180   -0.4528    4.0704 F   0  0  0  0  0  0  0  0  0  0  0  0
  1  6  2  0  0  0  0
  2  3  2  0  0  0  0
  2  1  1  0  0  0  0
  3  4  1  0  0  0  0
  4  5  2  0  0  0  0
  5 12  1  0  0  0  0
  6  5  1  0  0  0  0
  6 11  1  0  0  0  0
  7  1  1  0  0  0  0
  8  2  1  0  0  0  0
 10  9  3  0  0  0  0
 13 16  1  0  0  0  0
 14 15  2  0  0  0  0
 15 17  1  0  0  0  0
 15 16  1  0  0  0  0
 17 19  1  0  0  0  0
 17 20  1  0  0  0  0
 18 17  1  0  0  0  0
M  RAD  2   3   2   4   2
M  END
