Coordinates from ORCA-job Ph-N2-OOCCF3-B3LYPG-aug-cc-pVDZ-scan-d09-49-n400
 OpenBabel11081710403D

 20 18  0  0  0  0  0  0  0  0999 V2000
   13.3559    6.0561    2.3934 C   0  0  0  0  0  0  0  0  0  0  0  0
   12.3364    5.6405    1.4969 C   0  0  0  0  0  0  0  0  0  0  0  0
   11.8597    4.4467    1.9695 C   0  0  0  0  0  0  0  0  0  0  0  0
   12.0985    3.6870    2.9446 C   0  0  0  0  0  0  0  0  0  0  0  0
   13.1061    4.0749    3.8510 C   0  0  0  0  0  0  0  0  0  0  0  0
   13.7225    5.3002    3.5238 C   0  0  0  0  0  0  0  0  0  0  0  0
   13.8662    6.9986    2.1867 H   0  0  0  0  0  0  0  0  0  0  0  0
   12.0329    6.2022    0.6182 H   0  0  0  0  0  0  0  0  0  0  0  0
    9.1957    4.3731   -1.2614 N   0  0  0  0  0  0  0  0  0  0  0  0
    8.3646    3.7992   -1.7073 N   0  0  0  0  0  0  0  0  0  0  0  0
   14.5152    5.6787    4.1714 H   0  0  0  0  0  0  0  0  0  0  0  0
   13.3995    3.5003    4.7286 H   0  0  0  0  0  0  0  0  0  0  0  0
   10.9863    1.9859    3.0831 H   0  0  0  0  0  0  0  0  0  0  0  0
    9.2930    1.4357    1.4695 O   0  0  0  0  0  0  0  0  0  0  0  0
    9.6259    0.8089    2.4419 C   0  0  0  0  0  0  0  0  0  0  0  0
   10.5662    1.1247    3.3286 O   0  0  0  0  0  0  0  0  0  0  0  0
    8.9692   -0.5424    2.8311 C   0  0  0  0  0  0  0  0  0  0  0  0
    8.0187   -0.8810    1.9512 F   0  0  0  0  0  0  0  0  0  0  0  0
    9.8912   -1.5308    2.8602 F   0  0  0  0  0  0  0  0  0  0  0  0
    8.4034   -0.4630    4.0565 F   0  0  0  0  0  0  0  0  0  0  0  0
  1  6  2  0  0  0  0
  2  3  2  0  0  0  0
  2  1  1  0  0  0  0
  3  4  1  0  0  0  0
  4  5  2  0  0  0  0
  5 12  1  0  0  0  0
  6  5  1  0  0  0  0
  6 11  1  0  0  0  0
  7  1  1  0  0  0  0
  8  2  1  0  0  0  0
 10  9  3  0  0  0  0
 13 16  1  0  0  0  0
 14 15  2  0  0  0  0
 15 17  1  0  0  0  0
 15 16  1  0  0  0  0
 17 19  1  0  0  0  0
 17 20  1  0  0  0  0
 18 17  1  0  0  0  0
M  RAD  2   3   2   4   2
M  END
