Coordinates from ORCA-job Ph-N2-OOCCF3-B3LYPG-aug-cc-pVDZ-scan-d09-49-n400
 OpenBabel11081710403D

 20 19  0  0  0  0  0  0  0  0999 V2000
   12.6538    5.9591    2.0780 C   0  0  0  0  0  0  0  0  0  0  0  0
   12.3360    4.9515    1.1498 C   0  0  0  0  0  0  0  0  0  0  0  0
   12.0662    3.7479    1.7464 C   0  0  0  0  0  0  0  0  0  0  0  0
   12.0476    3.3619    3.0535 C   0  0  0  0  0  0  0  0  0  0  0  0
   12.3784    4.4046    3.9372 C   0  0  0  0  0  0  0  0  0  0  0  0
   12.6749    5.6831    3.4501 C   0  0  0  0  0  0  0  0  0  0  0  0
   12.8798    6.9590    1.7081 H   0  0  0  0  0  0  0  0  0  0  0  0
   12.3017    5.1210    0.0774 H   0  0  0  0  0  0  0  0  0  0  0  0
   11.6632    2.4043    0.5675 N   0  0  0  0  0  0  0  0  0  0  0  0
   11.7382    2.0848   -0.4960 N   0  0  0  0  0  0  0  0  0  0  0  0
   12.9216    6.4802    4.1509 H   0  0  0  0  0  0  0  0  0  0  0  0
   12.3928    4.2008    5.0074 H   0  0  0  0  0  0  0  0  0  0  0  0
   11.7842    2.3463    3.3443 H   0  0  0  0  0  0  0  0  0  0  0  0
    9.0949    2.2171    1.5151 O   0  0  0  0  0  0  0  0  0  0  0  0
    9.6364    1.2168    1.9872 C   0  0  0  0  0  0  0  0  0  0  0  0
   10.8705    0.8952    1.9907 O   0  0  0  0  0  0  0  0  0  0  0  0
    8.7446    0.1660    2.7309 C   0  0  0  0  0  0  0  0  0  0  0  0
    8.9238   -1.0822    2.2370 F   0  0  0  0  0  0  0  0  0  0  0  0
    9.0665    0.1291    4.0543 F   0  0  0  0  0  0  0  0  0  0  0  0
    7.4318    0.4488    2.6478 F   0  0  0  0  0  0  0  0  0  0  0  0
  1  6  2  0  0  0  0
  2  3  2  0  0  0  0
  2  1  1  0  0  0  0
  3  4  1  0  0  0  0
  4 13  1  0  0  0  0
  4  5  2  0  0  0  0
  5 12  1  0  0  0  0
  6  5  1  0  0  0  0
  6 11  1  0  0  0  0
  7  1  1  0  0  0  0
  8  2  1  0  0  0  0
  9  3  1  0  0  0  0
 10  9  2  0  0  0  0
 14 15  2  0  0  0  0
 15 16  1  0  0  0  0
 15 17  1  0  0  0  0
 17 19  1  0  0  0  0
 18 17  1  0  0  0  0
 20 17  1  0  0  0  0
M  RAD  2  10   2  16   2
M  END
