Coordinates from ORCA-job Ph-N2-OOCCF3-B3LYPG-aug-cc-pVDZ-scan-d09-49-n400
 OpenBabel11081710403D

 20 18  0  0  0  0  0  0  0  0999 V2000
   13.3109    6.0627    2.3117 C   0  0  0  0  0  0  0  0  0  0  0  0
   12.3148    5.7787    1.3420 C   0  0  0  0  0  0  0  0  0  0  0  0
   11.7384    4.5946    1.7062 C   0  0  0  0  0  0  0  0  0  0  0  0
   11.8550    3.7369    2.6260 C   0  0  0  0  0  0  0  0  0  0  0  0
   12.8458    4.0104    3.5995 C   0  0  0  0  0  0  0  0  0  0  0  0
   13.5632    5.2057    3.3997 C   0  0  0  0  0  0  0  0  0  0  0  0
   13.8920    6.9795    2.1967 H   0  0  0  0  0  0  0  0  0  0  0  0
   12.0920    6.4148    0.4909 H   0  0  0  0  0  0  0  0  0  0  0  0
    9.8907    4.3878   -0.3534 N   0  0  0  0  0  0  0  0  0  0  0  0
    9.0664    3.8502   -0.8535 N   0  0  0  0  0  0  0  0  0  0  0  0
   14.3428    5.4785    4.1128 H   0  0  0  0  0  0  0  0  0  0  0  0
   13.0529    3.3569    4.4466 H   0  0  0  0  0  0  0  0  0  0  0  0
   10.8762    2.0829    2.8979 H   0  0  0  0  0  0  0  0  0  0  0  0
    9.1870    1.3046    1.3711 O   0  0  0  0  0  0  0  0  0  0  0  0
    9.5740    0.7780    2.3830 C   0  0  0  0  0  0  0  0  0  0  0  0
   10.5073    1.2160    3.2199 O   0  0  0  0  0  0  0  0  0  0  0  0
    9.0031   -0.5739    2.8892 C   0  0  0  0  0  0  0  0  0  0  0  0
    8.0600   -1.0352    2.0582 F   0  0  0  0  0  0  0  0  0  0  0  0
    9.9815   -1.5032    2.9768 F   0  0  0  0  0  0  0  0  0  0  0  0
    8.4529   -0.4308    4.1161 F   0  0  0  0  0  0  0  0  0  0  0  0
  1  6  2  0  0  0  0
  2  3  2  0  0  0  0
  2  1  1  0  0  0  0
  3  4  1  0  0  0  0
  4  5  2  0  0  0  0
  5 12  1  0  0  0  0
  6  5  1  0  0  0  0
  6 11  1  0  0  0  0
  7  1  1  0  0  0  0
  8  2  1  0  0  0  0
 10  9  3  0  0  0  0
 13 16  1  0  0  0  0
 14 15  2  0  0  0  0
 15 17  1  0  0  0  0
 15 16  1  0  0  0  0
 17 19  1  0  0  0  0
 17 20  1  0  0  0  0
 18 17  1  0  0  0  0
M  RAD  2   3   2   4   2
M  END
