Coordinates from ORCA-job Ph-N2-OOCCF3-B3LYPG-aug-cc-pVDZ-scan-d09-49-n400
 OpenBabel11081710403D

 20 18  0  0  0  0  0  0  0  0999 V2000
   13.3520    6.0394    2.4017 C   0  0  0  0  0  0  0  0  0  0  0  0
   12.3262    5.5821    1.5338 C   0  0  0  0  0  0  0  0  0  0  0  0
   11.8780    4.3907    2.0419 C   0  0  0  0  0  0  0  0  0  0  0  0
   12.1515    3.6635    3.0330 C   0  0  0  0  0  0  0  0  0  0  0  0
   13.1657    4.0918    3.9123 C   0  0  0  0  0  0  0  0  0  0  0  0
   13.7524    5.3198    3.5439 C   0  0  0  0  0  0  0  0  0  0  0  0
   13.8405    6.9859    2.1628 H   0  0  0  0  0  0  0  0  0  0  0  0
   11.9976    6.1160    0.6469 H   0  0  0  0  0  0  0  0  0  0  0  0
    9.0412    4.4403   -1.5140 N   0  0  0  0  0  0  0  0  0  0  0  0
    8.2082    3.8534   -1.9392 N   0  0  0  0  0  0  0  0  0  0  0  0
   14.5484    5.7298    4.1680 H   0  0  0  0  0  0  0  0  0  0  0  0
   13.4850    3.5453    4.7987 H   0  0  0  0  0  0  0  0  0  0  0  0
   11.0212    1.9522    3.1565 H   0  0  0  0  0  0  0  0  0  0  0  0
    9.3475    1.4661    1.5099 O   0  0  0  0  0  0  0  0  0  0  0  0
    9.6535    0.8123    2.4729 C   0  0  0  0  0  0  0  0  0  0  0  0
   10.5852    1.0939    3.3799 O   0  0  0  0  0  0  0  0  0  0  0  0
    8.9684   -0.5356    2.8226 C   0  0  0  0  0  0  0  0  0  0  0  0
    8.0257   -0.8383    1.9215 F   0  0  0  0  0  0  0  0  0  0  0  0
    9.8732   -1.5399    2.8433 F   0  0  0  0  0  0  0  0  0  0  0  0
    8.3857   -0.4732    4.0410 F   0  0  0  0  0  0  0  0  0  0  0  0
  1  6  2  0  0  0  0
  2  3  2  0  0  0  0
  2  1  1  0  0  0  0
  3  4  1  0  0  0  0
  4  5  2  0  0  0  0
  5 12  1  0  0  0  0
  6  5  1  0  0  0  0
  6 11  1  0  0  0  0
  7  1  1  0  0  0  0
  8  2  1  0  0  0  0
 10  9  3  0  0  0  0
 13 16  1  0  0  0  0
 14 15  2  0  0  0  0
 15 17  1  0  0  0  0
 15 16  1  0  0  0  0
 17 19  1  0  0  0  0
 17 20  1  0  0  0  0
 18 17  1  0  0  0  0
M  RAD  2   3   2   4   2
M  END
