Coordinates from ORCA-job Ph-N2-OOCCF3-B3LYPG-aug-cc-pVDZ-scan-d09-49-n400
 OpenBabel11081710403D

 20 20  0  0  1  0  0  0  0  0999 V2000
   11.8778    5.5183    2.0119 C   0  0  0  0  0  0  0  0  0  0  0  0
   12.0900    4.6422    1.0080 C   0  0  0  0  0  0  0  0  0  0  0  0
   12.3612    3.2153    1.2781 C   0  0  0  0  0  0  0  0  0  0  0  0
   12.1850    2.6977    2.7196 C   0  0  1  0  0  0  0  0  0  0  0  0
   12.0443    3.7830    3.7348 C   0  0  0  0  0  0  0  0  0  0  0  0
   11.8978    5.0798    3.3964 C   0  0  0  0  0  0  0  0  0  0  0  0
   11.6883    6.5667    1.7864 H   0  0  0  0  0  0  0  0  0  0  0  0
   12.0792    4.9428   -0.0396 H   0  0  0  0  0  0  0  0  0  0  0  0
   12.6786    2.5333    0.5165 N   0  0  0  0  0  0  0  0  0  0  0  0
   13.0232    1.7821   -0.2992 N   0  0  0  0  0  0  0  0  0  0  0  0
   11.7961    5.8296    4.1818 H   0  0  0  0  0  0  0  0  0  0  0  0
   12.0681    3.4683    4.7782 H   0  0  0  0  0  0  0  0  0  0  0  0
   13.0204    2.0284    2.9589 H   0  0  0  0  0  0  0  0  0  0  0  0
    9.4614    3.1479    2.0515 O   0  0  0  0  0  0  0  0  0  0  0  0
    9.8237    2.0913    2.4953 C   0  0  0  0  0  0  0  0  0  0  0  0
   11.0605    1.7120    2.8216 O   0  0  0  0  0  0  0  0  0  0  0  0
    8.8374    0.9312    2.8079 C   0  0  0  0  0  0  0  0  0  0  0  0
    9.1853   -0.1942    2.1484 F   0  0  0  0  0  0  0  0  0  0  0  0
    8.8374    0.6576    4.1330 F   0  0  0  0  0  0  0  0  0  0  0  0
    7.5911    1.2619    2.4481 F   0  0  0  0  0  0  0  0  0  0  0  0
  1  6  1  0  0  0  0
  2  3  2  0  0  0  0
  2  1  1  0  0  0  0
  3  4  1  0  0  0  0
  4 16  1  0  0  0  0
  4 13  1  1  0  0  0
  4  5  1  0  0  0  0
  5 12  1  0  0  0  0
  6  5  2  0  0  0  0
  6 11  1  0  0  0  0
  7  1  1  0  0  0  0
  8  2  1  0  0  0  0
  9  3  1  0  0  0  0
 10  9  1  0  0  0  0
 14 15  2  0  0  0  0
 15 17  1  0  0  0  0
 15 16  1  0  0  0  0
 17 19  1  0  0  0  0
 18 17  1  0  0  0  0
 20 17  1  0  0  0  0
M  RAD  3   1   2   9   2  10   3
M  END
