Coordinates from ORCA-job Ph-N2-OOCCF3-B3LYPG-aug-cc-pVDZ-scan-d09-49-n400
 OpenBabel11081710403D

 20 18  0  0  0  0  0  0  0  0999 V2000
   13.3591    6.0625    2.3905 C   0  0  0  0  0  0  0  0  0  0  0  0
   12.3437    5.6707    1.4789 C   0  0  0  0  0  0  0  0  0  0  0  0
   11.8485    4.4765    1.9306 C   0  0  0  0  0  0  0  0  0  0  0  0
   12.0676    3.6994    2.8970 C   0  0  0  0  0  0  0  0  0  0  0  0
   13.0715    4.0651    3.8175 C   0  0  0  0  0  0  0  0  0  0  0  0
   13.7056    5.2871    3.5137 C   0  0  0  0  0  0  0  0  0  0  0  0
   13.8822    7.0017    2.2012 H   0  0  0  0  0  0  0  0  0  0  0  0
   12.0550    6.2473    0.6050 H   0  0  0  0  0  0  0  0  0  0  0  0
    9.2659    4.3458   -1.1445 N   0  0  0  0  0  0  0  0  0  0  0  0
    8.4358    3.7754   -1.5966 N   0  0  0  0  0  0  0  0  0  0  0  0
   14.4962    5.6470    4.1743 H   0  0  0  0  0  0  0  0  0  0  0  0
   13.3495    3.4752    4.6900 H   0  0  0  0  0  0  0  0  0  0  0  0
   10.9697    2.0036    3.0496 H   0  0  0  0  0  0  0  0  0  0  0  0
    9.2727    1.4191    1.4510 O   0  0  0  0  0  0  0  0  0  0  0  0
    9.6160    0.8069    2.4291 C   0  0  0  0  0  0  0  0  0  0  0  0
   10.5579    1.1412    3.3069 O   0  0  0  0  0  0  0  0  0  0  0  0
    8.9729   -0.5453    2.8377 C   0  0  0  0  0  0  0  0  0  0  0  0
    8.0210   -0.9026    1.9667 F   0  0  0  0  0  0  0  0  0  0  0  0
    9.9036   -1.5253    2.8740 F   0  0  0  0  0  0  0  0  0  0  0  0
    8.4125   -0.4561    4.0649 F   0  0  0  0  0  0  0  0  0  0  0  0
  1  6  2  0  0  0  0
  2  3  2  0  0  0  0
  2  1  1  0  0  0  0
  3  4  1  0  0  0  0
  4  5  2  0  0  0  0
  5 12  1  0  0  0  0
  6  5  1  0  0  0  0
  6 11  1  0  0  0  0
  7  1  1  0  0  0  0
  8  2  1  0  0  0  0
 10  9  3  0  0  0  0
 13 16  1  0  0  0  0
 14 15  2  0  0  0  0
 15 17  1  0  0  0  0
 15 16  1  0  0  0  0
 17 19  1  0  0  0  0
 17 20  1  0  0  0  0
 18 17  1  0  0  0  0
M  RAD  2   3   2   4   2
M  END
