Coordinates from ORCA-job Ph-N2-OOCCF3-B3LYPG-aug-cc-pVDZ-scan-d09-49-n400
 OpenBabel11081710403D

 20 18  0  0  0  0  0  0  0  0999 V2000
   13.3381    6.0682    2.3531 C   0  0  0  0  0  0  0  0  0  0  0  0
   12.3300    5.7243    1.4144 C   0  0  0  0  0  0  0  0  0  0  0  0
   11.8009    4.5325    1.8287 C   0  0  0  0  0  0  0  0  0  0  0  0
   11.9759    3.7188    2.7751 C   0  0  0  0  0  0  0  0  0  0  0  0
   12.9743    4.0426    3.7204 C   0  0  0  0  0  0  0  0  0  0  0  0
   13.6443    5.2553    3.4615 C   0  0  0  0  0  0  0  0  0  0  0  0
   13.8870    6.9988    2.1975 H   0  0  0  0  0  0  0  0  0  0  0  0
   12.0687    6.3273    0.5500 H   0  0  0  0  0  0  0  0  0  0  0  0
    9.5586    4.3587   -0.7694 N   0  0  0  0  0  0  0  0  0  0  0  0
    8.7310    3.8248   -1.2684 N   0  0  0  0  0  0  0  0  0  0  0  0
   14.4310    5.5778    4.1456 H   0  0  0  0  0  0  0  0  0  0  0  0
   13.2223    3.4241    4.5823 H   0  0  0  0  0  0  0  0  0  0  0  0
   10.9217    2.0353    2.9758 H   0  0  0  0  0  0  0  0  0  0  0  0
    9.2257    1.3587    1.4112 O   0  0  0  0  0  0  0  0  0  0  0  0
    9.5906    0.7871    2.4060 C   0  0  0  0  0  0  0  0  0  0  0  0
   10.5306    1.1713    3.2643 O   0  0  0  0  0  0  0  0  0  0  0  0
    8.9816   -0.5656    2.8630 C   0  0  0  0  0  0  0  0  0  0  0  0
    8.0313   -0.9722    2.0121 F   0  0  0  0  0  0  0  0  0  0  0  0
    9.9346   -1.5228    2.9228 F   0  0  0  0  0  0  0  0  0  0  0  0
    8.4289   -0.4497    4.0915 F   0  0  0  0  0  0  0  0  0  0  0  0
  1  6  2  0  0  0  0
  2  3  2  0  0  0  0
  2  1  1  0  0  0  0
  3  4  1  0  0  0  0
  4  5  2  0  0  0  0
  5 12  1  0  0  0  0
  6  5  1  0  0  0  0
  6 11  1  0  0  0  0
  7  1  1  0  0  0  0
  8  2  1  0  0  0  0
 10  9  3  0  0  0  0
 13 16  1  0  0  0  0
 14 15  2  0  0  0  0
 15 17  1  0  0  0  0
 15 16  1  0  0  0  0
 17 19  1  0  0  0  0
 17 20  1  0  0  0  0
 18 17  1  0  0  0  0
M  RAD  2   3   2   4   2
M  END
