Coordinates from ORCA-job Ph-N2-OOCCF3-B3LYPG-aug-cc-pVDZ-scan-d09-49-n400
 OpenBabel11081710403D

 20 18  0  0  0  0  0  0  0  0999 V2000
   13.1917    6.0374    2.2138 C   0  0  0  0  0  0  0  0  0  0  0  0
   12.1825    5.6551    1.3024 C   0  0  0  0  0  0  0  0  0  0  0  0
   11.6614    4.4613    1.7227 C   0  0  0  0  0  0  0  0  0  0  0  0
   11.8193    3.6147    2.6746 C   0  0  0  0  0  0  0  0  0  0  0  0
   12.8419    4.0269    3.5762 C   0  0  0  0  0  0  0  0  0  0  0  0
   13.5096    5.2357    3.3249 C   0  0  0  0  0  0  0  0  0  0  0  0
   13.7229    6.9734    2.0368 H   0  0  0  0  0  0  0  0  0  0  0  0
   11.9024    6.2406    0.4313 H   0  0  0  0  0  0  0  0  0  0  0  0
   10.1562    4.0305    0.2445 N   0  0  0  0  0  0  0  0  0  0  0  0
    9.4752    4.0859   -0.6219 N   0  0  0  0  0  0  0  0  0  0  0  0
   14.2955    5.5650    4.0062 H   0  0  0  0  0  0  0  0  0  0  0  0
   13.1055    3.4211    4.4447 H   0  0  0  0  0  0  0  0  0  0  0  0
   10.9737    2.0972    2.9752 H   0  0  0  0  0  0  0  0  0  0  0  0
    9.2459    1.4577    1.4023 O   0  0  0  0  0  0  0  0  0  0  0  0
    9.6152    0.8567    2.3850 C   0  0  0  0  0  0  0  0  0  0  0  0
   10.5534    1.2030    3.2419 O   0  0  0  0  0  0  0  0  0  0  0  0
    8.9823   -0.5013    2.7951 C   0  0  0  0  0  0  0  0  0  0  0  0
    8.0203   -0.8649    1.9353 F   0  0  0  0  0  0  0  0  0  0  0  0
    9.9175   -1.4786    2.8169 F   0  0  0  0  0  0  0  0  0  0  0  0
    8.4344   -0.4223    4.0294 F   0  0  0  0  0  0  0  0  0  0  0  0
  1  6  2  0  0  0  0
  2  3  2  0  0  0  0
  2  1  1  0  0  0  0
  3  4  1  0  0  0  0
  4  5  2  0  0  0  0
  5 12  1  0  0  0  0
  6  5  1  0  0  0  0
  6 11  1  0  0  0  0
  7  1  1  0  0  0  0
  8  2  1  0  0  0  0
 10  9  3  0  0  0  0
 13 16  1  0  0  0  0
 14 15  2  0  0  0  0
 15 17  1  0  0  0  0
 15 16  1  0  0  0  0
 17 19  1  0  0  0  0
 17 20  1  0  0  0  0
 18 17  1  0  0  0  0
M  RAD  2   3   2   4   2
M  END
