Coordinates from ORCA-job Ph-N2-OOCCF3-B3LYPG-aug-cc-pVDZ-scan-d09-49-n400
 OpenBabel11081710403D

 20 20  0  0  1  0  0  0  0  0999 V2000
   11.8041    5.5335    2.0188 C   0  0  0  0  0  0  0  0  0  0  0  0
   12.0828    4.6428    1.0213 C   0  0  0  0  0  0  0  0  0  0  0  0
   12.3777    3.3053    1.3991 C   0  0  1  0  0  0  0  0  0  0  0  0
   12.2311    2.7192    2.7394 C   0  0  1  0  0  0  0  0  0  0  0  0
   12.1015    3.8070    3.7460 C   0  0  0  0  0  0  0  0  0  0  0  0
   11.8651    5.0979    3.3916 C   0  0  0  0  0  0  0  0  0  0  0  0
   11.5622    6.5675    1.7830 H   0  0  0  0  0  0  0  0  0  0  0  0
   12.0880    4.9274   -0.0293 H   0  0  0  0  0  0  0  0  0  0  0  0
   12.8468    2.3823    0.3395 N   0  0  0  0  0  0  0  0  0  0  0  0
   13.1978    1.6655   -0.4574 N   0  0  0  0  0  0  0  0  0  0  0  0
   11.7439    5.8442    4.1782 H   0  0  0  0  0  0  0  0  0  0  0  0
   12.1842    3.5172    4.7927 H   0  0  0  0  0  0  0  0  0  0  0  0
   13.0039    1.9871    2.9908 H   0  0  0  0  0  0  0  0  0  0  0  0
    9.4264    3.1842    2.1433 O   0  0  0  0  0  0  0  0  0  0  0  0
    9.7968    2.1138    2.5567 C   0  0  0  0  0  0  0  0  0  0  0  0
   11.0218    1.7116    2.8544 O   0  0  0  0  0  0  0  0  0  0  0  0
    8.7971    0.9464    2.8085 C   0  0  0  0  0  0  0  0  0  0  0  0
    9.1079   -0.1280    2.0444 F   0  0  0  0  0  0  0  0  0  0  0  0
    8.8253    0.5555    4.1036 F   0  0  0  0  0  0  0  0  0  0  0  0
    7.5426    1.3149    2.5132 F   0  0  0  0  0  0  0  0  0  0  0  0
  1  6  1  0  0  0  0
  2  3  1  0  0  0  0
  2  1  2  0  0  0  0
  3  9  1  6  0  0  0
  3  4  1  0  0  0  0
  4 16  1  0  0  0  0
  4 13  1  1  0  0  0
  4  5  1  0  0  0  0
  5 12  1  0  0  0  0
  6  5  2  0  0  0  0
  6 11  1  0  0  0  0
  7  1  1  0  0  0  0
  8  2  1  0  0  0  0
 10  9  1  0  0  0  0
 14 15  2  0  0  0  0
 15 17  1  0  0  0  0
 15 16  1  0  0  0  0
 17 19  1  0  0  0  0
 18 17  1  0  0  0  0
 20 17  1  0  0  0  0
M  RAD  3   3   2   9   2  10   3
M  END
