Coordinates from ORCA-job Ph-N2-OOCCF3-B3LYPG-aug-cc-pVDZ-scan-d09-49-n400
 OpenBabel11081710403D

 20 18  0  0  0  0  0  0  0  0999 V2000
   13.3286    6.0690    2.3357 C   0  0  0  0  0  0  0  0  0  0  0  0
   12.3253    5.7514    1.3830 C   0  0  0  0  0  0  0  0  0  0  0  0
   11.7748    4.5619    1.7749 C   0  0  0  0  0  0  0  0  0  0  0  0
   11.9275    3.7305    2.7113 C   0  0  0  0  0  0  0  0  0  0  0  0
   12.9221    4.0307    3.6695 C   0  0  0  0  0  0  0  0  0  0  0  0
   13.6121    5.2367    3.4353 C   0  0  0  0  0  0  0  0  0  0  0  0
   13.8915    6.9939    2.1979 H   0  0  0  0  0  0  0  0  0  0  0  0
   12.0808    6.3696    0.5246 H   0  0  0  0  0  0  0  0  0  0  0  0
    9.7016    4.3635   -0.5826 N   0  0  0  0  0  0  0  0  0  0  0  0
    8.8760    3.8338   -1.0889 N   0  0  0  0  0  0  0  0  0  0  0  0
   14.3962    5.5381    4.1319 H   0  0  0  0  0  0  0  0  0  0  0  0
   13.1530    3.3969    4.5251 H   0  0  0  0  0  0  0  0  0  0  0  0
   10.8976    2.0544    2.9378 H   0  0  0  0  0  0  0  0  0  0  0  0
    9.2039    1.3312    1.3909 O   0  0  0  0  0  0  0  0  0  0  0  0
    9.5794    0.7804    2.3936 C   0  0  0  0  0  0  0  0  0  0  0  0
   10.5171    1.1897    3.2419 O   0  0  0  0  0  0  0  0  0  0  0  0
    8.9882   -0.5722    2.8741 C   0  0  0  0  0  0  0  0  0  0  0  0
    8.0413   -1.0047    2.0322 F   0  0  0  0  0  0  0  0  0  0  0  0
    9.9533   -1.5164    2.9473 F   0  0  0  0  0  0  0  0  0  0  0  0
    8.4367   -0.4432    4.1018 F   0  0  0  0  0  0  0  0  0  0  0  0
  1  6  2  0  0  0  0
  2  3  2  0  0  0  0
  2  1  1  0  0  0  0
  3  4  1  0  0  0  0
  4  5  2  0  0  0  0
  5 12  1  0  0  0  0
  6  5  1  0  0  0  0
  6 11  1  0  0  0  0
  7  1  1  0  0  0  0
  8  2  1  0  0  0  0
 10  9  3  0  0  0  0
 13 16  1  0  0  0  0
 14 15  2  0  0  0  0
 15 17  1  0  0  0  0
 15 16  1  0  0  0  0
 17 19  1  0  0  0  0
 17 20  1  0  0  0  0
 18 17  1  0  0  0  0
M  RAD  2   3   2   4   2
M  END
