Coordinates from ORCA-job Ph-N2-OOCCF3-B3LYPG-aug-cc-pVDZ-scan-d09-49-n400
 OpenBabel11081710403D

 20 20  0  0  1  0  0  0  0  0999 V2000
   11.9219    5.5293    2.0148 C   0  0  0  0  0  0  0  0  0  0  0  0
   12.1064    4.6550    1.0082 C   0  0  0  0  0  0  0  0  0  0  0  0
   12.3372    3.1994    1.2511 C   0  0  0  0  0  0  0  0  0  0  0  0
   12.1710    2.7038    2.7283 C   0  0  1  0  0  0  0  0  0  0  0  0
   12.0265    3.7926    3.7387 C   0  0  0  0  0  0  0  0  0  0  0  0
   11.9167    5.0912    3.4011 C   0  0  0  0  0  0  0  0  0  0  0  0
   11.7656    6.5840    1.7907 H   0  0  0  0  0  0  0  0  0  0  0  0
   12.1017    4.9548   -0.0400 H   0  0  0  0  0  0  0  0  0  0  0  0
   12.5889    2.5597    0.5524 N   0  0  0  0  0  0  0  0  0  0  0  0
   12.8898    1.7821   -0.2739 N   0  0  0  0  0  0  0  0  0  0  0  0
   11.8208    5.8433    4.1849 H   0  0  0  0  0  0  0  0  0  0  0  0
   12.0261    3.4750    4.7818 H   0  0  0  0  0  0  0  0  0  0  0  0
   13.0278    2.0557    2.9532 H   0  0  0  0  0  0  0  0  0  0  0  0
    9.4717    3.1208    2.0203 O   0  0  0  0  0  0  0  0  0  0  0  0
    9.8314    2.0775    2.4954 C   0  0  0  0  0  0  0  0  0  0  0  0
   11.0717    1.7121    2.8341 O   0  0  0  0  0  0  0  0  0  0  0  0
    8.8551    0.9076    2.7985 C   0  0  0  0  0  0  0  0  0  0  0  0
    9.2432   -0.2255    2.1781 F   0  0  0  0  0  0  0  0  0  0  0  0
    8.8163    0.6661    4.1294 F   0  0  0  0  0  0  0  0  0  0  0  0
    7.6172    1.2109    2.3905 F   0  0  0  0  0  0  0  0  0  0  0  0
  1  6  2  0  0  0  0
  2  3  2  0  0  0  0
  2  1  1  0  0  0  0
  3  4  1  0  0  0  0
  4 16  1  0  0  0  0
  4 13  1  1  0  0  0
  4  5  1  0  0  0  0
  5 12  1  0  0  0  0
  6  5  1  0  0  0  0
  6 11  1  0  0  0  0
  7  1  1  0  0  0  0
  8  2  1  0  0  0  0
  9  3  1  0  0  0  0
 10  9  1  0  0  0  0
 14 15  2  0  0  0  0
 15 17  1  0  0  0  0
 15 16  1  0  0  0  0
 17 19  1  0  0  0  0
 18 17  1  0  0  0  0
 20 17  1  0  0  0  0
M  RAD  3   5   2   9   2  10   3
M  END
