Coordinates from ORCA-job Ph-N2-OOCCF3-B3LYPG-aug-cc-pVDZ-scan-d09-49-n400
 OpenBabel11081710403D

 20 18  0  0  0  0  0  0  0  0999 V2000
   13.3613    6.0662    2.3884 C   0  0  0  0  0  0  0  0  0  0  0  0
   12.3493    5.6941    1.4650 C   0  0  0  0  0  0  0  0  0  0  0  0
   11.8397    4.5000    1.9002 C   0  0  0  0  0  0  0  0  0  0  0  0
   12.0414    3.7078    2.8592 C   0  0  0  0  0  0  0  0  0  0  0  0
   13.0427    4.0562    3.7905 C   0  0  0  0  0  0  0  0  0  0  0  0
   13.6911    5.2749    3.5056 C   0  0  0  0  0  0  0  0  0  0  0  0
   13.8949    7.0022    2.2136 H   0  0  0  0  0  0  0  0  0  0  0  0
   12.0720    6.2818    0.5948 H   0  0  0  0  0  0  0  0  0  0  0  0
    9.3171    4.3344   -1.0662 N   0  0  0  0  0  0  0  0  0  0  0  0
    8.4877    3.7662   -1.5223 N   0  0  0  0  0  0  0  0  0  0  0  0
   14.4799    5.6196    4.1764 H   0  0  0  0  0  0  0  0  0  0  0  0
   13.3085    3.4544    4.6587 H   0  0  0  0  0  0  0  0  0  0  0  0
   10.9584    2.0160    3.0278 H   0  0  0  0  0  0  0  0  0  0  0  0
    9.2604    1.4060    1.4410 O   0  0  0  0  0  0  0  0  0  0  0  0
    9.6108    0.8045    2.4232 C   0  0  0  0  0  0  0  0  0  0  0  0
   10.5532    1.1528    3.2947 O   0  0  0  0  0  0  0  0  0  0  0  0
    8.9777   -0.5483    2.8454 C   0  0  0  0  0  0  0  0  0  0  0  0
    8.0256   -0.9193    1.9805 F   0  0  0  0  0  0  0  0  0  0  0  0
    9.9149   -1.5219    2.8873 F   0  0  0  0  0  0  0  0  0  0  0  0
    8.4205   -0.4522    4.0736 F   0  0  0  0  0  0  0  0  0  0  0  0
  1  6  2  0  0  0  0
  2  3  2  0  0  0  0
  2  1  1  0  0  0  0
  3  4  1  0  0  0  0
  4  5  2  0  0  0  0
  5 12  1  0  0  0  0
  6  5  1  0  0  0  0
  6 11  1  0  0  0  0
  7  1  1  0  0  0  0
  8  2  1  0  0  0  0
 10  9  3  0  0  0  0
 13 16  1  0  0  0  0
 14 15  2  0  0  0  0
 15 17  1  0  0  0  0
 15 16  1  0  0  0  0
 17 19  1  0  0  0  0
 17 20  1  0  0  0  0
 18 17  1  0  0  0  0
M  RAD  2   3   2   4   2
M  END
