Coordinates from ORCA-job Ph-N2-OOCCF3-B3LYPG-aug-cc-pVDZ-scan-d09-49-n400
 OpenBabel11081710403D

 20 18  0  0  0  0  0  0  0  0999 V2000
   13.2170    6.0453    2.2342 C   0  0  0  0  0  0  0  0  0  0  0  0
   12.2082    5.6766    1.3102 C   0  0  0  0  0  0  0  0  0  0  0  0
   11.6904    4.4861    1.7343 C   0  0  0  0  0  0  0  0  0  0  0  0
   11.8436    3.6450    2.6780 C   0  0  0  0  0  0  0  0  0  0  0  0
   12.8589    4.0295    3.5967 C   0  0  0  0  0  0  0  0  0  0  0  0
   13.5287    5.2396    3.3445 C   0  0  0  0  0  0  0  0  0  0  0  0
   13.7544    6.9795    2.0650 H   0  0  0  0  0  0  0  0  0  0  0  0
   11.9374    6.2696    0.4418 H   0  0  0  0  0  0  0  0  0  0  0  0
   10.0669    4.0700    0.0962 N   0  0  0  0  0  0  0  0  0  0  0  0
    9.3860    4.1610   -0.7676 N   0  0  0  0  0  0  0  0  0  0  0  0
   14.3140    5.5663    4.0278 H   0  0  0  0  0  0  0  0  0  0  0  0
   13.1156    3.4189    4.4633 H   0  0  0  0  0  0  0  0  0  0  0  0
   10.9493    2.0692    2.9729 H   0  0  0  0  0  0  0  0  0  0  0  0
    9.2257    1.4162    1.4074 O   0  0  0  0  0  0  0  0  0  0  0  0
    9.5991    0.8267    2.3926 C   0  0  0  0  0  0  0  0  0  0  0  0
   10.5422    1.1869    3.2461 O   0  0  0  0  0  0  0  0  0  0  0  0
    8.9822   -0.5328    2.8206 C   0  0  0  0  0  0  0  0  0  0  0  0
    8.0234   -0.9153    1.9664 F   0  0  0  0  0  0  0  0  0  0  0  0
    9.9280   -1.4991    2.8525 F   0  0  0  0  0  0  0  0  0  0  0  0
    8.4360   -0.4438    4.0547 F   0  0  0  0  0  0  0  0  0  0  0  0
  1  6  2  0  0  0  0
  2  3  2  0  0  0  0
  2  1  1  0  0  0  0
  3  4  1  0  0  0  0
  4  5  2  0  0  0  0
  5 12  1  0  0  0  0
  6  5  1  0  0  0  0
  6 11  1  0  0  0  0
  7  1  1  0  0  0  0
  8  2  1  0  0  0  0
 10  9  3  0  0  0  0
 13 16  1  0  0  0  0
 14 15  2  0  0  0  0
 15 17  1  0  0  0  0
 15 16  1  0  0  0  0
 17 19  1  0  0  0  0
 17 20  1  0  0  0  0
 18 17  1  0  0  0  0
M  RAD  2   3   2   4   2
M  END
