Coordinates from ORCA-job Ph-N2-OOCCF3-B3LYPG-aug-cc-pVDZ-scan-d09-49-n400
 OpenBabel11081710403D

 20 18  0  0  0  0  0  0  0  0999 V2000
   13.2090    6.0427    2.2271 C   0  0  0  0  0  0  0  0  0  0  0  0
   12.1993    5.6702    1.3072 C   0  0  0  0  0  0  0  0  0  0  0  0
   11.6816    4.4792    1.7314 C   0  0  0  0  0  0  0  0  0  0  0  0
   11.8354    3.6358    2.6766 C   0  0  0  0  0  0  0  0  0  0  0  0
   12.8536    4.0286    3.5898 C   0  0  0  0  0  0  0  0  0  0  0  0
   13.5229    5.2382    3.3374 C   0  0  0  0  0  0  0  0  0  0  0  0
   13.7446    6.9774    2.0553 H   0  0  0  0  0  0  0  0  0  0  0  0
   11.9255    6.2613    0.4382 H   0  0  0  0  0  0  0  0  0  0  0  0
   10.0946    4.0593    0.1442 N   0  0  0  0  0  0  0  0  0  0  0  0
    9.4155    4.1407   -0.7218 N   0  0  0  0  0  0  0  0  0  0  0  0
   14.3089    5.5656    4.0197 H   0  0  0  0  0  0  0  0  0  0  0  0
   13.1127    3.4193    4.4568 H   0  0  0  0  0  0  0  0  0  0  0  0
   10.9566    2.0764    2.9762 H   0  0  0  0  0  0  0  0  0  0  0  0
    9.2344    1.4279    1.4052 O   0  0  0  0  0  0  0  0  0  0  0  0
    9.6043    0.8356    2.3908 C   0  0  0  0  0  0  0  0  0  0  0  0
   10.5448    1.1913    3.2468 O   0  0  0  0  0  0  0  0  0  0  0  0
    8.9820   -0.5235    2.8125 C   0  0  0  0  0  0  0  0  0  0  0  0
    8.0242   -0.9008    1.9546 F   0  0  0  0  0  0  0  0  0  0  0  0
    9.9247   -1.4930    2.8440 F   0  0  0  0  0  0  0  0  0  0  0  0
    8.4324   -0.4371    4.0454 F   0  0  0  0  0  0  0  0  0  0  0  0
  1  6  2  0  0  0  0
  2  3  2  0  0  0  0
  2  1  1  0  0  0  0
  3  4  1  0  0  0  0
  4  5  2  0  0  0  0
  5 12  1  0  0  0  0
  6  5  1  0  0  0  0
  6 11  1  0  0  0  0
  7  1  1  0  0  0  0
  8  2  1  0  0  0  0
 10  9  3  0  0  0  0
 13 16  1  0  0  0  0
 14 15  2  0  0  0  0
 15 17  1  0  0  0  0
 15 16  1  0  0  0  0
 17 19  1  0  0  0  0
 17 20  1  0  0  0  0
 18 17  1  0  0  0  0
M  RAD  2   3   2   4   2
M  END
