Coordinates from ORCA-job Ph-N2-OOCCF3-B3LYPG-aug-cc-pVDZ-scan-d09-49-n400
 OpenBabel11081710403D

 20 18  0  0  0  0  0  0  0  0999 V2000
   13.3568    6.0583    2.3928 C   0  0  0  0  0  0  0  0  0  0  0  0
   12.3387    5.6495    1.4919 C   0  0  0  0  0  0  0  0  0  0  0  0
   11.8561    4.4552    1.9577 C   0  0  0  0  0  0  0  0  0  0  0  0
   12.0899    3.6908    2.9305 C   0  0  0  0  0  0  0  0  0  0  0  0
   13.0963    4.0722    3.8412 C   0  0  0  0  0  0  0  0  0  0  0  0
   13.7177    5.2966    3.5210 C   0  0  0  0  0  0  0  0  0  0  0  0
   13.8708    7.0000    2.1911 H   0  0  0  0  0  0  0  0  0  0  0  0
   12.0395    6.2156    0.6146 H   0  0  0  0  0  0  0  0  0  0  0  0
    9.2164    4.3653   -1.2278 N   0  0  0  0  0  0  0  0  0  0  0  0
    8.3855    3.7928   -1.6760 N   0  0  0  0  0  0  0  0  0  0  0  0
   14.5097    5.6698    4.1725 H   0  0  0  0  0  0  0  0  0  0  0  0
   13.3852    3.4930    4.7173 H   0  0  0  0  0  0  0  0  0  0  0  0
   10.9814    1.9906    3.0729 H   0  0  0  0  0  0  0  0  0  0  0  0
    9.2868    1.4307    1.4645 O   0  0  0  0  0  0  0  0  0  0  0  0
    9.6229    0.8079    2.4383 C   0  0  0  0  0  0  0  0  0  0  0  0
   10.5641    1.1289    3.3219 O   0  0  0  0  0  0  0  0  0  0  0  0
    8.9700   -0.5436    2.8334 C   0  0  0  0  0  0  0  0  0  0  0  0
    8.0186   -0.8873    1.9564 F   0  0  0  0  0  0  0  0  0  0  0  0
    9.8944   -1.5297    2.8641 F   0  0  0  0  0  0  0  0  0  0  0  0
    8.4064   -0.4613    4.0595 F   0  0  0  0  0  0  0  0  0  0  0  0
  1  6  2  0  0  0  0
  2  3  2  0  0  0  0
  2  1  1  0  0  0  0
  3  4  1  0  0  0  0
  4  5  2  0  0  0  0
  5 12  1  0  0  0  0
  6  5  1  0  0  0  0
  6 11  1  0  0  0  0
  7  1  1  0  0  0  0
  8  2  1  0  0  0  0
 10  9  3  0  0  0  0
 13 16  1  0  0  0  0
 14 15  2  0  0  0  0
 15 17  1  0  0  0  0
 15 16  1  0  0  0  0
 17 19  1  0  0  0  0
 17 20  1  0  0  0  0
 18 17  1  0  0  0  0
M  RAD  2   3   2   4   2
M  END
