Coordinates from ORCA-job Ph-N2-OOCCF3-B3LYPG-aug-cc-pVDZ-scan-d09-49-n400
 OpenBabel11081710403D

 20 18  0  0  0  0  0  0  0  0999 V2000
   13.3100    6.0623    2.3097 C   0  0  0  0  0  0  0  0  0  0  0  0
   12.3142    5.7812    1.3378 C   0  0  0  0  0  0  0  0  0  0  0  0
   11.7380    4.5984    1.7023 C   0  0  0  0  0  0  0  0  0  0  0  0
   11.8470    3.7353    2.6189 C   0  0  0  0  0  0  0  0  0  0  0  0
   12.8385    4.0089    3.5930 C   0  0  0  0  0  0  0  0  0  0  0  0
   13.5588    5.2031    3.3965 C   0  0  0  0  0  0  0  0  0  0  0  0
   13.8929    6.9781    2.1970 H   0  0  0  0  0  0  0  0  0  0  0  0
   12.0940    6.4192    0.4876 H   0  0  0  0  0  0  0  0  0  0  0  0
    9.9070    4.3886   -0.3315 N   0  0  0  0  0  0  0  0  0  0  0  0
    9.0826    3.8485   -0.8286 N   0  0  0  0  0  0  0  0  0  0  0  0
   14.3379    5.4735    4.1111 H   0  0  0  0  0  0  0  0  0  0  0  0
   13.0435    3.3542    4.4397 H   0  0  0  0  0  0  0  0  0  0  0  0
   10.8744    2.0870    2.8929 H   0  0  0  0  0  0  0  0  0  0  0  0
    9.1837    1.3011    1.3674 O   0  0  0  0  0  0  0  0  0  0  0  0
    9.5730    0.7783    2.3805 C   0  0  0  0  0  0  0  0  0  0  0  0
   10.5058    1.2194    3.2156 O   0  0  0  0  0  0  0  0  0  0  0  0
    9.0047   -0.5735    2.8902 C   0  0  0  0  0  0  0  0  0  0  0  0
    8.0619   -1.0386    2.0609 F   0  0  0  0  0  0  0  0  0  0  0  0
    9.9846   -1.5011    2.9794 F   0  0  0  0  0  0  0  0  0  0  0  0
    8.4548   -0.4287    4.1171 F   0  0  0  0  0  0  0  0  0  0  0  0
  1  6  2  0  0  0  0
  2  3  2  0  0  0  0
  2  1  1  0  0  0  0
  3  4  1  0  0  0  0
  4  5  2  0  0  0  0
  5 12  1  0  0  0  0
  6  5  1  0  0  0  0
  6 11  1  0  0  0  0
  7  1  1  0  0  0  0
  8  2  1  0  0  0  0
 10  9  3  0  0  0  0
 13 16  1  0  0  0  0
 14 15  2  0  0  0  0
 15 17  1  0  0  0  0
 15 16  1  0  0  0  0
 17 19  1  0  0  0  0
 17 20  1  0  0  0  0
 18 17  1  0  0  0  0
M  RAD  2   3   2   4   2
M  END
