Coordinates from ORCA-job Ph-N2-OOCCF3-B3LYPG-aug-cc-pVDZ-scan-d09-49-n400
 OpenBabel11081710403D

 20 18  0  0  0  0  0  0  0  0999 V2000
   13.3467    6.0668    2.3676 C   0  0  0  0  0  0  0  0  0  0  0  0
   12.3367    5.7104    1.4356 C   0  0  0  0  0  0  0  0  0  0  0  0
   11.8172    4.5173    1.8596 C   0  0  0  0  0  0  0  0  0  0  0  0
   12.0037    3.7126    2.8111 C   0  0  0  0  0  0  0  0  0  0  0  0
   13.0036    4.0476    3.7502 C   0  0  0  0  0  0  0  0  0  0  0  0
   13.6637    5.2632    3.4798 C   0  0  0  0  0  0  0  0  0  0  0  0
   13.8886    7.0000    2.2036 H   0  0  0  0  0  0  0  0  0  0  0  0
   12.0678    6.3064    0.5686 H   0  0  0  0  0  0  0  0  0  0  0  0
    9.4585    4.3607   -0.9042 N   0  0  0  0  0  0  0  0  0  0  0  0
    8.6295    3.8099   -1.3824 N   0  0  0  0  0  0  0  0  0  0  0  0
   14.4514    5.5957    4.1580 H   0  0  0  0  0  0  0  0  0  0  0  0
   13.2598    3.4365    4.6149 H   0  0  0  0  0  0  0  0  0  0  0  0
   10.9376    2.0257    2.9991 H   0  0  0  0  0  0  0  0  0  0  0  0
    9.2401    1.3766    1.4254 O   0  0  0  0  0  0  0  0  0  0  0  0
    9.5993    0.7927    2.4151 C   0  0  0  0  0  0  0  0  0  0  0  0
   10.5406    1.1620    3.2788 O   0  0  0  0  0  0  0  0  0  0  0  0
    8.9804   -0.5601    2.8581 C   0  0  0  0  0  0  0  0  0  0  0  0
    8.0298   -0.9528    2.0010 F   0  0  0  0  0  0  0  0  0  0  0  0
    9.9271   -1.5239    2.9115 F   0  0  0  0  0  0  0  0  0  0  0  0
    8.4252   -0.4519    4.0862 F   0  0  0  0  0  0  0  0  0  0  0  0
  1  6  2  0  0  0  0
  2  3  2  0  0  0  0
  2  1  1  0  0  0  0
  3  4  1  0  0  0  0
  4  5  2  0  0  0  0
  5 12  1  0  0  0  0
  6  5  1  0  0  0  0
  6 11  1  0  0  0  0
  7  1  1  0  0  0  0
  8  2  1  0  0  0  0
 10  9  3  0  0  0  0
 13 16  1  0  0  0  0
 14 15  2  0  0  0  0
 15 17  1  0  0  0  0
 15 16  1  0  0  0  0
 17 19  1  0  0  0  0
 17 20  1  0  0  0  0
 18 17  1  0  0  0  0
M  RAD  2   3   2   4   2
M  END
