Coordinates from ORCA-job Ph-N2-OOCCF3-B3LYPG-aug-cc-pVDZ-scan-d09-49-n400
 OpenBabel11081710403D

 20 18  0  0  0  0  0  0  0  0999 V2000
   13.3369    6.0684    2.3510 C   0  0  0  0  0  0  0  0  0  0  0  0
   12.3291    5.7265    1.4112 C   0  0  0  0  0  0  0  0  0  0  0  0
   11.7985    4.5349    1.8242 C   0  0  0  0  0  0  0  0  0  0  0  0
   11.9717    3.7198    2.7697 C   0  0  0  0  0  0  0  0  0  0  0  0
   12.9700    4.0419    3.7160 C   0  0  0  0  0  0  0  0  0  0  0  0
   13.6414    5.2541    3.4587 C   0  0  0  0  0  0  0  0  0  0  0  0
   13.8868    6.9986    2.1966 H   0  0  0  0  0  0  0  0  0  0  0  0
   12.0689    6.3305    0.5473 H   0  0  0  0  0  0  0  0  0  0  0  0
    9.5733    4.3576   -0.7487 N   0  0  0  0  0  0  0  0  0  0  0  0
    8.7459    3.8258   -1.2503 N   0  0  0  0  0  0  0  0  0  0  0  0
   14.4280    5.5750    4.1437 H   0  0  0  0  0  0  0  0  0  0  0  0
   13.2168    3.4223    4.5774 H   0  0  0  0  0  0  0  0  0  0  0  0
   10.9194    2.0368    2.9724 H   0  0  0  0  0  0  0  0  0  0  0  0
    9.2237    1.3565    1.4090 O   0  0  0  0  0  0  0  0  0  0  0  0
    9.5894    0.7865    2.4045 C   0  0  0  0  0  0  0  0  0  0  0  0
   10.5291    1.1727    3.2621 O   0  0  0  0  0  0  0  0  0  0  0  0
    8.9817   -0.5661    2.8634 C   0  0  0  0  0  0  0  0  0  0  0  0
    8.0320   -0.9750    2.0130 F   0  0  0  0  0  0  0  0  0  0  0  0
    9.9357   -1.5223    2.9247 F   0  0  0  0  0  0  0  0  0  0  0  0
    8.4288   -0.4490    4.0917 F   0  0  0  0  0  0  0  0  0  0  0  0
  1  6  2  0  0  0  0
  2  3  2  0  0  0  0
  2  1  1  0  0  0  0
  3  4  1  0  0  0  0
  4  5  2  0  0  0  0
  5 12  1  0  0  0  0
  6  5  1  0  0  0  0
  6 11  1  0  0  0  0
  7  1  1  0  0  0  0
  8  2  1  0  0  0  0
 10  9  3  0  0  0  0
 13 16  1  0  0  0  0
 14 15  2  0  0  0  0
 15 17  1  0  0  0  0
 15 16  1  0  0  0  0
 17 19  1  0  0  0  0
 17 20  1  0  0  0  0
 18 17  1  0  0  0  0
M  RAD  2   3   2   4   2
M  END
