Coordinates from ORCA-job Ph-N2-OOCCF3-B3LYPG-aug-cc-pVDZ-scan-d09-49-n400
 OpenBabel11081710403D

 20 18  0  0  0  0  0  0  0  0999 V2000
   13.3062    6.0599    2.3015 C   0  0  0  0  0  0  0  0  0  0  0  0
   12.3145    5.7928    1.3236 C   0  0  0  0  0  0  0  0  0  0  0  0
   11.7220    4.6126    1.6725 C   0  0  0  0  0  0  0  0  0  0  0  0
   11.8185    3.7419    2.5851 C   0  0  0  0  0  0  0  0  0  0  0  0
   12.8073    4.0029    3.5657 C   0  0  0  0  0  0  0  0  0  0  0  0
   13.5403    5.1910    3.3838 C   0  0  0  0  0  0  0  0  0  0  0  0
   13.8975    6.9714    2.1981 H   0  0  0  0  0  0  0  0  0  0  0  0
   12.1038    6.4374    0.4757 H   0  0  0  0  0  0  0  0  0  0  0  0
    9.9715    4.3733   -0.2271 N   0  0  0  0  0  0  0  0  0  0  0  0
    9.1470    3.8379   -0.7293 N   0  0  0  0  0  0  0  0  0  0  0  0
   14.3171    5.4487    4.1056 H   0  0  0  0  0  0  0  0  0  0  0  0
   13.0011    3.3402    4.4091 H   0  0  0  0  0  0  0  0  0  0  0  0
   10.8661    2.1024    2.8740 H   0  0  0  0  0  0  0  0  0  0  0  0
    9.1791    1.2962    1.3578 O   0  0  0  0  0  0  0  0  0  0  0  0
    9.5723    0.7814    2.3738 C   0  0  0  0  0  0  0  0  0  0  0  0
   10.5034    1.2333    3.2043 O   0  0  0  0  0  0  0  0  0  0  0  0
    9.0114   -0.5701    2.8921 C   0  0  0  0  0  0  0  0  0  0  0  0
    8.0708   -1.0456    2.0661 F   0  0  0  0  0  0  0  0  0  0  0  0
    9.9962   -1.4919    2.9870 F   0  0  0  0  0  0  0  0  0  0  0  0
    8.4610   -0.4203    4.1182 F   0  0  0  0  0  0  0  0  0  0  0  0
  1  6  2  0  0  0  0
  2  3  2  0  0  0  0
  2  1  1  0  0  0  0
  3  4  1  0  0  0  0
  4  5  2  0  0  0  0
  5 12  1  0  0  0  0
  6  5  1  0  0  0  0
  6 11  1  0  0  0  0
  7  1  1  0  0  0  0
  8  2  1  0  0  0  0
 10  9  3  0  0  0  0
 13 16  1  0  0  0  0
 14 15  2  0  0  0  0
 15 17  1  0  0  0  0
 15 16  1  0  0  0  0
 17 19  1  0  0  0  0
 17 20  1  0  0  0  0
 18 17  1  0  0  0  0
M  RAD  2   3   2   4   2
M  END
