Coordinates from ORCA-job Ph-N2-OOCCF3-B3LYPG-aug-cc-pVDZ-scan-d09-49-n400
 OpenBabel11081710403D

 20 18  0  0  0  0  0  0  0  0999 V2000
   13.3519    6.0399    2.4011 C   0  0  0  0  0  0  0  0  0  0  0  0
   12.3260    5.5830    1.5329 C   0  0  0  0  0  0  0  0  0  0  0  0
   11.8788    4.3919    2.0419 C   0  0  0  0  0  0  0  0  0  0  0  0
   12.1513    3.6641    3.0322 C   0  0  0  0  0  0  0  0  0  0  0  0
   13.1654    4.0917    3.9119 C   0  0  0  0  0  0  0  0  0  0  0  0
   13.7522    5.3199    3.5435 C   0  0  0  0  0  0  0  0  0  0  0  0
   13.8405    6.9864    2.1624 H   0  0  0  0  0  0  0  0  0  0  0  0
   11.9975    6.1171    0.6460 H   0  0  0  0  0  0  0  0  0  0  0  0
    9.0452    4.4345   -1.5038 N   0  0  0  0  0  0  0  0  0  0  0  0
    8.2124    3.8474   -1.9292 N   0  0  0  0  0  0  0  0  0  0  0  0
   14.5482    5.7296    4.1677 H   0  0  0  0  0  0  0  0  0  0  0  0
   13.4845    3.5449    4.7982 H   0  0  0  0  0  0  0  0  0  0  0  0
   11.0205    1.9534    3.1547 H   0  0  0  0  0  0  0  0  0  0  0  0
    9.3455    1.4665    1.5071 O   0  0  0  0  0  0  0  0  0  0  0  0
    9.6523    0.8133    2.4706 C   0  0  0  0  0  0  0  0  0  0  0  0
   10.5842    1.0951    3.3777 O   0  0  0  0  0  0  0  0  0  0  0  0
    8.9677   -0.5347    2.8210 C   0  0  0  0  0  0  0  0  0  0  0  0
    8.0248   -0.8381    1.9202 F   0  0  0  0  0  0  0  0  0  0  0  0
    9.8728   -1.5387    2.8419 F   0  0  0  0  0  0  0  0  0  0  0  0
    8.3853   -0.4720    4.0395 F   0  0  0  0  0  0  0  0  0  0  0  0
  1  6  2  0  0  0  0
  2  3  2  0  0  0  0
  2  1  1  0  0  0  0
  3  4  1  0  0  0  0
  4  5  2  0  0  0  0
  5 12  1  0  0  0  0
  6  5  1  0  0  0  0
  6 11  1  0  0  0  0
  7  1  1  0  0  0  0
  8  2  1  0  0  0  0
 10  9  3  0  0  0  0
 13 16  1  0  0  0  0
 14 15  2  0  0  0  0
 15 17  1  0  0  0  0
 15 16  1  0  0  0  0
 17 19  1  0  0  0  0
 17 20  1  0  0  0  0
 18 17  1  0  0  0  0
M  RAD  2   3   2   4   2
M  END
