Coordinates from ORCA-job Ph-N2-OOCCF3-B3LYPG-aug-cc-pVDZ-scan-d09-49-n400
 OpenBabel11081710403D

 20 18  0  0  0  0  0  0  0  0999 V2000
   13.3299    6.0689    2.3383 C   0  0  0  0  0  0  0  0  0  0  0  0
   12.3254    5.7456    1.3887 C   0  0  0  0  0  0  0  0  0  0  0  0
   11.7793    4.5555    1.7854 C   0  0  0  0  0  0  0  0  0  0  0  0
   11.9374    3.7283    2.7244 C   0  0  0  0  0  0  0  0  0  0  0  0
   12.9329    4.0336    3.6797 C   0  0  0  0  0  0  0  0  0  0  0  0
   13.6185    5.2410    3.4399 C   0  0  0  0  0  0  0  0  0  0  0  0
   13.8898    6.9951    2.1964 H   0  0  0  0  0  0  0  0  0  0  0  0
   12.0773    6.3605    0.5289 H   0  0  0  0  0  0  0  0  0  0  0  0
    9.6760    4.3590   -0.6126 N   0  0  0  0  0  0  0  0  0  0  0  0
    8.8502    3.8308   -1.1200 N   0  0  0  0  0  0  0  0  0  0  0  0
   14.4034    5.5471    4.1336 H   0  0  0  0  0  0  0  0  0  0  0  0
   13.1676    3.4031    4.5367 H   0  0  0  0  0  0  0  0  0  0  0  0
   10.9023    2.0506    2.9455 H   0  0  0  0  0  0  0  0  0  0  0  0
    9.2085    1.3377    1.3944 O   0  0  0  0  0  0  0  0  0  0  0  0
    9.5814    0.7822    2.3954 C   0  0  0  0  0  0  0  0  0  0  0  0
   10.5194    1.1860    3.2462 O   0  0  0  0  0  0  0  0  0  0  0  0
    8.9862   -0.5705    2.8706 C   0  0  0  0  0  0  0  0  0  0  0  0
    8.0390   -0.9975    2.0263 F   0  0  0  0  0  0  0  0  0  0  0  0
    9.9487   -1.5175    2.9415 F   0  0  0  0  0  0  0  0  0  0  0  0
    8.4338   -0.4443    4.0983 F   0  0  0  0  0  0  0  0  0  0  0  0
  1  6  2  0  0  0  0
  2  3  2  0  0  0  0
  2  1  1  0  0  0  0
  3  4  1  0  0  0  0
  4  5  2  0  0  0  0
  5 12  1  0  0  0  0
  6  5  1  0  0  0  0
  6 11  1  0  0  0  0
  7  1  1  0  0  0  0
  8  2  1  0  0  0  0
 10  9  3  0  0  0  0
 13 16  1  0  0  0  0
 14 15  2  0  0  0  0
 15 17  1  0  0  0  0
 15 16  1  0  0  0  0
 17 19  1  0  0  0  0
 17 20  1  0  0  0  0
 18 17  1  0  0  0  0
M  RAD  2   3   2   4   2
M  END
