Coordinates from ORCA-job Ph-N2-OOCCF3-B3LYPG-aug-cc-pVDZ-scan-d09-49-n400
 OpenBabel11081710403D

 20 18  0  0  0  0  0  0  0  0999 V2000
   13.3233    6.0677    2.3274 C   0  0  0  0  0  0  0  0  0  0  0  0
   12.3234    5.7663    1.3662 C   0  0  0  0  0  0  0  0  0  0  0  0
   11.7607    4.5787    1.7447 C   0  0  0  0  0  0  0  0  0  0  0  0
   11.8976    3.7354    2.6738 C   0  0  0  0  0  0  0  0  0  0  0  0
   12.8901    4.0220    3.6398 C   0  0  0  0  0  0  0  0  0  0  0  0
   13.5924    5.2235    3.4214 C   0  0  0  0  0  0  0  0  0  0  0  0
   13.8948    6.9891    2.2008 H   0  0  0  0  0  0  0  0  0  0  0  0
   12.0889    6.3932    0.5113 H   0  0  0  0  0  0  0  0  0  0  0  0
    9.7793    4.3776   -0.4925 N   0  0  0  0  0  0  0  0  0  0  0  0
    8.9542    3.8434   -0.9947 N   0  0  0  0  0  0  0  0  0  0  0  0
   14.3745    5.5118    4.1258 H   0  0  0  0  0  0  0  0  0  0  0  0
   13.1101    3.3789    4.4914 H   0  0  0  0  0  0  0  0  0  0  0  0
   10.8848    2.0665    2.9160 H   0  0  0  0  0  0  0  0  0  0  0  0
    9.1921    1.3141    1.3809 O   0  0  0  0  0  0  0  0  0  0  0  0
    9.5745    0.7764    2.3883 C   0  0  0  0  0  0  0  0  0  0  0  0
   10.5108    1.2013    3.2298 O   0  0  0  0  0  0  0  0  0  0  0  0
    8.9947   -0.5758    2.8835 C   0  0  0  0  0  0  0  0  0  0  0  0
    8.0487   -1.0237    2.0487 F   0  0  0  0  0  0  0  0  0  0  0  0
    9.9670   -1.5121    2.9633 F   0  0  0  0  0  0  0  0  0  0  0  0
    8.4455   -0.4390    4.1116 F   0  0  0  0  0  0  0  0  0  0  0  0
  1  6  2  0  0  0  0
  2  3  2  0  0  0  0
  2  1  1  0  0  0  0
  3  4  1  0  0  0  0
  4  5  2  0  0  0  0
  5 12  1  0  0  0  0
  6  5  1  0  0  0  0
  6 11  1  0  0  0  0
  7  1  1  0  0  0  0
  8  2  1  0  0  0  0
 10  9  3  0  0  0  0
 13 16  1  0  0  0  0
 14 15  2  0  0  0  0
 15 17  1  0  0  0  0
 15 16  1  0  0  0  0
 17 19  1  0  0  0  0
 17 20  1  0  0  0  0
 18 17  1  0  0  0  0
M  RAD  2   3   2   4   2
M  END
