Coordinates from ORCA-job Ph-N2-OOCCF3-B3LYPG-aug-cc-pVDZ-scan-d09-49-n400
 OpenBabel11081710403D

 20 19  0  0  0  0  0  0  0  0999 V2000
   12.6562    5.9640    2.0820 C   0  0  0  0  0  0  0  0  0  0  0  0
   12.3396    4.9592    1.1500 C   0  0  0  0  0  0  0  0  0  0  0  0
   12.0688    3.7556    1.7450 C   0  0  0  0  0  0  0  0  0  0  0  0
   12.0469    3.3643    3.0493 C   0  0  0  0  0  0  0  0  0  0  0  0
   12.3763    4.4044    3.9368 C   0  0  0  0  0  0  0  0  0  0  0  0
   12.6744    5.6841    3.4536 C   0  0  0  0  0  0  0  0  0  0  0  0
   12.8834    6.9647    1.7152 H   0  0  0  0  0  0  0  0  0  0  0  0
   12.3073    5.1311    0.0779 H   0  0  0  0  0  0  0  0  0  0  0  0
   11.6618    2.3956    0.5551 N   0  0  0  0  0  0  0  0  0  0  0  0
   11.7355    2.0717   -0.5069 N   0  0  0  0  0  0  0  0  0  0  0  0
   12.9201    6.4791    4.1570 H   0  0  0  0  0  0  0  0  0  0  0  0
   12.3882    4.1975    5.0065 H   0  0  0  0  0  0  0  0  0  0  0  0
   11.7815    2.3471    3.3343 H   0  0  0  0  0  0  0  0  0  0  0  0
    9.0967    2.2116    1.5117 O   0  0  0  0  0  0  0  0  0  0  0  0
    9.6372    1.2121    1.9870 C   0  0  0  0  0  0  0  0  0  0  0  0
   10.8707    0.8886    1.9911 O   0  0  0  0  0  0  0  0  0  0  0  0
    8.7438    0.1657    2.7352 C   0  0  0  0  0  0  0  0  0  0  0  0
    8.9212   -1.0850    2.2467 F   0  0  0  0  0  0  0  0  0  0  0  0
    9.0659    0.1340    4.0588 F   0  0  0  0  0  0  0  0  0  0  0  0
    7.4315    0.4499    2.6510 F   0  0  0  0  0  0  0  0  0  0  0  0
  1  6  2  0  0  0  0
  2  3  2  0  0  0  0
  2  1  1  0  0  0  0
  3  4  1  0  0  0  0
  4 13  1  0  0  0  0
  4  5  2  0  0  0  0
  5 12  1  0  0  0  0
  6  5  1  0  0  0  0
  6 11  1  0  0  0  0
  7  1  1  0  0  0  0
  8  2  1  0  0  0  0
  9  3  1  0  0  0  0
 10  9  2  0  0  0  0
 14 15  2  0  0  0  0
 15 16  1  0  0  0  0
 15 17  1  0  0  0  0
 17 19  1  0  0  0  0
 18 17  1  0  0  0  0
 20 17  1  0  0  0  0
M  RAD  2  10   2  16   2
M  END
