Coordinates from ORCA-job Ph-N2-OOCCF3-B3LYPG-aug-cc-pVDZ-scan-d09-49-n400
 OpenBabel11081710403D

 20 18  0  0  0  0  0  0  0  0999 V2000
   13.3543    6.0518    2.3947 C   0  0  0  0  0  0  0  0  0  0  0  0
   12.3325    5.6230    1.5069 C   0  0  0  0  0  0  0  0  0  0  0  0
   11.8656    4.4302    1.9917 C   0  0  0  0  0  0  0  0  0  0  0  0
   12.1144    3.6798    2.9714 C   0  0  0  0  0  0  0  0  0  0  0  0
   13.1244    4.0807    3.8693 C   0  0  0  0  0  0  0  0  0  0  0  0
   13.7316    5.3071    3.5290 C   0  0  0  0  0  0  0  0  0  0  0  0
   13.8579    6.9957    2.1777 H   0  0  0  0  0  0  0  0  0  0  0  0
   12.0211    6.1759    0.6255 H   0  0  0  0  0  0  0  0  0  0  0  0
    9.1548    4.3791   -1.3180 N   0  0  0  0  0  0  0  0  0  0  0  0
    8.3233    3.8003   -1.7569 N   0  0  0  0  0  0  0  0  0  0  0  0
   14.5255    5.6955    4.1693 H   0  0  0  0  0  0  0  0  0  0  0  0
   13.4260    3.5149    4.7498 H   0  0  0  0  0  0  0  0  0  0  0  0
   10.9970    1.9773    3.1045 H   0  0  0  0  0  0  0  0  0  0  0  0
    9.3098    1.4493    1.4784 O   0  0  0  0  0  0  0  0  0  0  0  0
    9.6335    0.8132    2.4478 C   0  0  0  0  0  0  0  0  0  0  0  0
   10.5708    1.1170    3.3419 O   0  0  0  0  0  0  0  0  0  0  0  0
    8.9670   -0.5372    2.8232 C   0  0  0  0  0  0  0  0  0  0  0  0
    8.0190   -0.8633    1.9359 F   0  0  0  0  0  0  0  0  0  0  0  0
    9.8831   -1.5311    2.8491 F   0  0  0  0  0  0  0  0  0  0  0  0
    8.3955   -0.4640    4.0463 F   0  0  0  0  0  0  0  0  0  0  0  0
  1  6  2  0  0  0  0
  2  3  2  0  0  0  0
  2  1  1  0  0  0  0
  3  4  1  0  0  0  0
  4  5  2  0  0  0  0
  5 12  1  0  0  0  0
  6  5  1  0  0  0  0
  6 11  1  0  0  0  0
  7  1  1  0  0  0  0
  8  2  1  0  0  0  0
 10  9  3  0  0  0  0
 13 16  1  0  0  0  0
 14 15  2  0  0  0  0
 15 17  1  0  0  0  0
 15 16  1  0  0  0  0
 17 19  1  0  0  0  0
 17 20  1  0  0  0  0
 18 17  1  0  0  0  0
M  RAD  2   3   2   4   2
M  END
