Coordinates from ORCA-job Ph-N2-OOCCF3-B3LYPG-aug-cc-pVDZ-scan-d09-49-n400
 OpenBabel11081710403D

 20 18  0  0  0  0  0  0  0  0999 V2000
   13.3604    6.0647    2.3892 C   0  0  0  0  0  0  0  0  0  0  0  0
   12.3466    5.6839    1.4707 C   0  0  0  0  0  0  0  0  0  0  0  0
   11.8444    4.4902    1.9142 C   0  0  0  0  0  0  0  0  0  0  0  0
   12.0529    3.7041    2.8759 C   0  0  0  0  0  0  0  0  0  0  0  0
   13.0553    4.0601    3.8025 C   0  0  0  0  0  0  0  0  0  0  0  0
   13.6976    5.2804    3.5091 C   0  0  0  0  0  0  0  0  0  0  0  0
   13.8894    7.0022    2.2079 H   0  0  0  0  0  0  0  0  0  0  0  0
   12.0647    6.2671    0.5990 H   0  0  0  0  0  0  0  0  0  0  0  0
    9.2961    4.3376   -1.0968 N   0  0  0  0  0  0  0  0  0  0  0  0
    8.4664    3.7685   -1.5513 N   0  0  0  0  0  0  0  0  0  0  0  0
   14.4873    5.6319    4.1754 H   0  0  0  0  0  0  0  0  0  0  0  0
   13.3265    3.4635    4.6726 H   0  0  0  0  0  0  0  0  0  0  0  0
   10.9629    2.0116    3.0361 H   0  0  0  0  0  0  0  0  0  0  0  0
    9.2638    1.4107    1.4432 O   0  0  0  0  0  0  0  0  0  0  0  0
    9.6121    0.8058    2.4241 C   0  0  0  0  0  0  0  0  0  0  0  0
   10.5543    1.1487    3.2981 O   0  0  0  0  0  0  0  0  0  0  0  0
    8.9754   -0.5468    2.8417 C   0  0  0  0  0  0  0  0  0  0  0  0
    8.0233   -0.9131    1.9747 F   0  0  0  0  0  0  0  0  0  0  0  0
    9.9103   -1.5227    2.8816 F   0  0  0  0  0  0  0  0  0  0  0  0
    8.4172   -0.4531    4.0695 F   0  0  0  0  0  0  0  0  0  0  0  0
  1  6  2  0  0  0  0
  2  3  2  0  0  0  0
  2  1  1  0  0  0  0
  3  4  1  0  0  0  0
  4  5  2  0  0  0  0
  5 12  1  0  0  0  0
  6  5  1  0  0  0  0
  6 11  1  0  0  0  0
  7  1  1  0  0  0  0
  8  2  1  0  0  0  0
 10  9  3  0  0  0  0
 13 16  1  0  0  0  0
 14 15  2  0  0  0  0
 15 17  1  0  0  0  0
 15 16  1  0  0  0  0
 17 19  1  0  0  0  0
 17 20  1  0  0  0  0
 18 17  1  0  0  0  0
M  RAD  2   3   2   4   2
M  END
