Coordinates from ORCA-job Ph-N2-OOCCF3-B3LYPG-aug-cc-pVDZ-scan-d09-49-n400
 OpenBabel11081710403D

 20 20  0  0  1  0  0  0  0  0999 V2000
   11.8125    5.5285    2.0165 C   0  0  0  0  0  0  0  0  0  0  0  0
   12.0814    4.6403    1.0188 C   0  0  0  0  0  0  0  0  0  0  0  0
   12.3737    3.2877    1.3769 C   0  0  1  0  0  0  0  0  0  0  0  0
   12.2205    2.7140    2.7342 C   0  0  1  0  0  0  0  0  0  0  0  0
   12.0897    3.8007    3.7444 C   0  0  0  0  0  0  0  0  0  0  0  0
   11.8676    5.0922    3.3922 C   0  0  0  0  0  0  0  0  0  0  0  0
   11.5797    6.5654    1.7834 H   0  0  0  0  0  0  0  0  0  0  0  0
   12.0855    4.9304   -0.0306 H   0  0  0  0  0  0  0  0  0  0  0  0
   12.8286    2.4022    0.3625 N   0  0  0  0  0  0  0  0  0  0  0  0
   13.1872    1.6840   -0.4361 N   0  0  0  0  0  0  0  0  0  0  0  0
   11.7501    5.8396    4.1783 H   0  0  0  0  0  0  0  0  0  0  0  0
   12.1624    3.5067    4.7907 H   0  0  0  0  0  0  0  0  0  0  0  0
   13.0043    1.9928    2.9858 H   0  0  0  0  0  0  0  0  0  0  0  0
    9.4293    3.1846    2.1361 O   0  0  0  0  0  0  0  0  0  0  0  0
    9.7999    2.1156    2.5502 C   0  0  0  0  0  0  0  0  0  0  0  0
   11.0281    1.7156    2.8475 O   0  0  0  0  0  0  0  0  0  0  0  0
    8.8043    0.9473    2.8104 C   0  0  0  0  0  0  0  0  0  0  0  0
    9.1198   -0.1327    2.0574 F   0  0  0  0  0  0  0  0  0  0  0  0
    8.8325    0.5700    4.1094 F   0  0  0  0  0  0  0  0  0  0  0  0
    7.5500    1.3105    2.5097 F   0  0  0  0  0  0  0  0  0  0  0  0
  1  6  1  0  0  0  0
  2  3  1  0  0  0  0
  2  1  2  0  0  0  0
  3  9  1  6  0  0  0
  3  4  1  0  0  0  0
  4 16  1  0  0  0  0
  4 13  1  1  0  0  0
  4  5  1  0  0  0  0
  5 12  1  0  0  0  0
  6  5  2  0  0  0  0
  6 11  1  0  0  0  0
  7  1  1  0  0  0  0
  8  2  1  0  0  0  0
 10  9  1  0  0  0  0
 14 15  2  0  0  0  0
 15 17  1  0  0  0  0
 15 16  1  0  0  0  0
 17 19  1  0  0  0  0
 18 17  1  0  0  0  0
 20 17  1  0  0  0  0
M  RAD  3   3   2   9   2  10   3
M  END
