Coordinates from ORCA-job Ph-N2-OOCCF3-B3LYPG-aug-cc-pVDZ-scan-d09-49-n400
 OpenBabel11081710403D

 20 19  0  0  0  0  0  0  0  0999 V2000
   12.6288    5.9470    2.0676 C   0  0  0  0  0  0  0  0  0  0  0  0
   12.3087    4.9274    1.1579 C   0  0  0  0  0  0  0  0  0  0  0  0
   12.0604    3.7128    1.7530 C   0  0  0  0  0  0  0  0  0  0  0  0
   12.0750    3.3544    3.0731 C   0  0  0  0  0  0  0  0  0  0  0  0
   12.4071    4.4051    3.9429 C   0  0  0  0  0  0  0  0  0  0  0  0
   12.6782    5.6837    3.4418 C   0  0  0  0  0  0  0  0  0  0  0  0
   12.8346    6.9470    1.6867 H   0  0  0  0  0  0  0  0  0  0  0  0
   12.2538    5.0899    0.0849 H   0  0  0  0  0  0  0  0  0  0  0  0
   11.6750    2.4081    0.6174 N   0  0  0  0  0  0  0  0  0  0  0  0
   11.7543    2.0917   -0.4487 N   0  0  0  0  0  0  0  0  0  0  0  0
   12.9266    6.4896    4.1319 H   0  0  0  0  0  0  0  0  0  0  0  0
   12.4434    4.2112    5.0143 H   0  0  0  0  0  0  0  0  0  0  0  0
   11.8294    2.3412    3.3839 H   0  0  0  0  0  0  0  0  0  0  0  0
    9.0865    2.2337    1.5010 O   0  0  0  0  0  0  0  0  0  0  0  0
    9.6283    1.2364    1.9761 C   0  0  0  0  0  0  0  0  0  0  0  0
   10.8665    0.9220    1.9869 O   0  0  0  0  0  0  0  0  0  0  0  0
    8.7398    0.1761    2.7086 C   0  0  0  0  0  0  0  0  0  0  0  0
    8.9296   -1.0673    2.2066 F   0  0  0  0  0  0  0  0  0  0  0  0
    9.0546    0.1324    4.0329 F   0  0  0  0  0  0  0  0  0  0  0  0
    7.4267    0.4529    2.6187 F   0  0  0  0  0  0  0  0  0  0  0  0
  1  6  2  0  0  0  0
  2  3  2  0  0  0  0
  2  1  1  0  0  0  0
  3  4  1  0  0  0  0
  4 13  1  0  0  0  0
  4  5  2  0  0  0  0
  5 12  1  0  0  0  0
  6  5  1  0  0  0  0
  6 11  1  0  0  0  0
  7  1  1  0  0  0  0
  8  2  1  0  0  0  0
  9  3  1  0  0  0  0
 10  9  2  0  0  0  0
 14 15  2  0  0  0  0
 15 16  1  0  0  0  0
 15 17  1  0  0  0  0
 17 19  1  0  0  0  0
 18 17  1  0  0  0  0
 20 17  1  0  0  0  0
M  RAD  2  10   2  16   2
M  END
