Coordinates from ORCA-job Ph-N2-OOCCF3-B3LYPG-aug-cc-pVDZ-scan-d09-49-n400
 OpenBabel11081710403D

 20 18  0  0  0  0  0  0  0  0999 V2000
   13.1919    6.0362    2.2115 C   0  0  0  0  0  0  0  0  0  0  0  0
   12.1805    5.6546    1.3024 C   0  0  0  0  0  0  0  0  0  0  0  0
   11.6586    4.4614    1.7238 C   0  0  0  0  0  0  0  0  0  0  0  0
   11.8173    3.6146    2.6758 C   0  0  0  0  0  0  0  0  0  0  0  0
   12.8422    4.0267    3.5750 C   0  0  0  0  0  0  0  0  0  0  0  0
   13.5109    5.2346    3.3222 C   0  0  0  0  0  0  0  0  0  0  0  0
   13.7236    6.9716    2.0331 H   0  0  0  0  0  0  0  0  0  0  0  0
   11.8993    6.2401    0.4317 H   0  0  0  0  0  0  0  0  0  0  0  0
   10.1568    4.0340    0.2558 N   0  0  0  0  0  0  0  0  0  0  0  0
    9.4745    4.0894   -0.6096 N   0  0  0  0  0  0  0  0  0  0  0  0
   14.2985    5.5630    4.0020 H   0  0  0  0  0  0  0  0  0  0  0  0
   13.1069    3.4208    4.4431 H   0  0  0  0  0  0  0  0  0  0  0  0
   10.9706    2.1003    2.9770 H   0  0  0  0  0  0  0  0  0  0  0  0
    9.2570    1.4504    1.3927 O   0  0  0  0  0  0  0  0  0  0  0  0
    9.6173    0.8556    2.3826 C   0  0  0  0  0  0  0  0  0  0  0  0
   10.5483    1.2069    3.2450 O   0  0  0  0  0  0  0  0  0  0  0  0
    8.9824   -0.5010    2.7940 C   0  0  0  0  0  0  0  0  0  0  0  0
    8.0286   -0.8703    1.9274 F   0  0  0  0  0  0  0  0  0  0  0  0
    9.9186   -1.4771    2.8290 F   0  0  0  0  0  0  0  0  0  0  0  0
    8.4234   -0.4166    4.0229 F   0  0  0  0  0  0  0  0  0  0  0  0
  1  6  2  0  0  0  0
  2  3  2  0  0  0  0
  2  1  1  0  0  0  0
  3  4  1  0  0  0  0
  4  5  2  0  0  0  0
  5 12  1  0  0  0  0
  6  5  1  0  0  0  0
  6 11  1  0  0  0  0
  7  1  1  0  0  0  0
  8  2  1  0  0  0  0
 10  9  3  0  0  0  0
 13 16  1  0  0  0  0
 14 15  2  0  0  0  0
 15 17  1  0  0  0  0
 15 16  1  0  0  0  0
 17 19  1  0  0  0  0
 17 20  1  0  0  0  0
 18 17  1  0  0  0  0
M  RAD  2   3   2   4   2
M  END
