Coordinates from ORCA-job Ph-N2-OOCCF3-B3LYPG-aug-cc-pVDZ-scan-d09-49-n400
 OpenBabel11081710403D

 20 20  0  0  1  0  0  0  0  0999 V2000
   11.8408    5.5192    2.0130 C   0  0  0  0  0  0  0  0  0  0  0  0
   12.0802    4.6368    1.0130 C   0  0  0  0  0  0  0  0  0  0  0  0
   12.3675    3.2477    1.3249 C   0  0  0  0  0  0  0  0  0  0  0  0
   12.2004    2.7028    2.7234 C   0  0  1  0  0  0  0  0  0  0  0  0
   12.0675    3.7882    3.7390 C   0  0  0  0  0  0  0  0  0  0  0  0
   11.8826    5.0822    3.3943 C   0  0  0  0  0  0  0  0  0  0  0  0
   11.6276    6.5618    1.7844 H   0  0  0  0  0  0  0  0  0  0  0  0
   12.0740    4.9348   -0.0349 H   0  0  0  0  0  0  0  0  0  0  0  0
   12.7606    2.4697    0.4417 N   0  0  0  0  0  0  0  0  0  0  0  0
   13.1231    1.7406   -0.3632 N   0  0  0  0  0  0  0  0  0  0  0  0
   11.7752    5.8313    4.1800 H   0  0  0  0  0  0  0  0  0  0  0  0
   12.1174    3.4826    4.7836 H   0  0  0  0  0  0  0  0  0  0  0  0
   13.0108    2.0081    2.9716 H   0  0  0  0  0  0  0  0  0  0  0  0
    9.4443    3.1706    2.0926 O   0  0  0  0  0  0  0  0  0  0  0  0
    9.8109    2.1084    2.5222 C   0  0  0  0  0  0  0  0  0  0  0  0
   11.0442    1.7173    2.8320 O   0  0  0  0  0  0  0  0  0  0  0  0
    8.8209    0.9437    2.8107 C   0  0  0  0  0  0  0  0  0  0  0  0
    9.1520   -0.1602    2.1038 F   0  0  0  0  0  0  0  0  0  0  0  0
    8.8372    0.6185    4.1239 F   0  0  0  0  0  0  0  0  0  0  0  0
    7.5700    1.2911    2.4817 F   0  0  0  0  0  0  0  0  0  0  0  0
  1  6  1  0  0  0  0
  2  3  2  0  0  0  0
  2  1  1  0  0  0  0
  3  4  1  0  0  0  0
  4 16  1  0  0  0  0
  4 13  1  1  0  0  0
  4  5  1  0  0  0  0
  5 12  1  0  0  0  0
  6  5  2  0  0  0  0
  6 11  1  0  0  0  0
  7  1  1  0  0  0  0
  8  2  1  0  0  0  0
  9  3  1  0  0  0  0
 10  9  1  0  0  0  0
 14 15  2  0  0  0  0
 15 17  1  0  0  0  0
 15 16  1  0  0  0  0
 17 19  1  0  0  0  0
 18 17  1  0  0  0  0
 20 17  1  0  0  0  0
M  RAD  3   1   2   9   2  10   3
M  END
