Coordinates from ORCA-job Ph-N2-OOCCF3-B3LYPG-aug-cc-pVDZ-scan-d09-49-n400
 OpenBabel11081710403D

 20 18  0  0  0  0  0  0  0  0999 V2000
   13.3334    6.0688    2.3445 C   0  0  0  0  0  0  0  0  0  0  0  0
   12.3264    5.7326    1.4020 C   0  0  0  0  0  0  0  0  0  0  0  0
   11.7906    4.5417    1.8101 C   0  0  0  0  0  0  0  0  0  0  0  0
   11.9596    3.7234    2.7537 C   0  0  0  0  0  0  0  0  0  0  0  0
   12.9571    4.0399    3.7027 C   0  0  0  0  0  0  0  0  0  0  0  0
   13.6331    5.2505    3.4504 C   0  0  0  0  0  0  0  0  0  0  0  0
   13.8865    6.9977    2.1936 H   0  0  0  0  0  0  0  0  0  0  0  0
   12.0699    6.3399    0.5393 H   0  0  0  0  0  0  0  0  0  0  0  0
    9.6161    4.3525   -0.6863 N   0  0  0  0  0  0  0  0  0  0  0  0
    8.7895    3.8263   -1.1949 N   0  0  0  0  0  0  0  0  0  0  0  0
   14.4194    5.5668    4.1380 H   0  0  0  0  0  0  0  0  0  0  0  0
   13.2002    3.4170    4.5628 H   0  0  0  0  0  0  0  0  0  0  0  0
   10.9129    2.0415    2.9633 H   0  0  0  0  0  0  0  0  0  0  0  0
    9.2186    1.3511    1.4030 O   0  0  0  0  0  0  0  0  0  0  0  0
    9.5860    0.7855    2.4004 C   0  0  0  0  0  0  0  0  0  0  0  0
   10.5247    1.1773    3.2565 O   0  0  0  0  0  0  0  0  0  0  0  0
    8.9821   -0.5673    2.8638 C   0  0  0  0  0  0  0  0  0  0  0  0
    8.0343   -0.9822    2.0141 F   0  0  0  0  0  0  0  0  0  0  0  0
    9.9390   -1.5203    2.9292 F   0  0  0  0  0  0  0  0  0  0  0  0
    8.4278   -0.4475    4.0912 F   0  0  0  0  0  0  0  0  0  0  0  0
  1  6  2  0  0  0  0
  2  3  2  0  0  0  0
  2  1  1  0  0  0  0
  3  4  1  0  0  0  0
  4  5  2  0  0  0  0
  5 12  1  0  0  0  0
  6  5  1  0  0  0  0
  6 11  1  0  0  0  0
  7  1  1  0  0  0  0
  8  2  1  0  0  0  0
 10  9  3  0  0  0  0
 13 16  1  0  0  0  0
 14 15  2  0  0  0  0
 15 17  1  0  0  0  0
 15 16  1  0  0  0  0
 17 19  1  0  0  0  0
 17 20  1  0  0  0  0
 18 17  1  0  0  0  0
M  RAD  2   3   2   4   2
M  END
