Coordinates from ORCA-job Ph-N2-OOCCF3-B3LYPG-aug-cc-pVDZ-scan-d09-49-n400
 OpenBabel11081710403D

 20 18  0  0  0  0  0  0  0  0999 V2000
   13.3498    6.0318    2.4053 C   0  0  0  0  0  0  0  0  0  0  0  0
   12.3227    5.5625    1.5451 C   0  0  0  0  0  0  0  0  0  0  0  0
   11.8848    4.3725    2.0650 C   0  0  0  0  0  0  0  0  0  0  0  0
   12.1669    3.6545    3.0595 C   0  0  0  0  0  0  0  0  0  0  0  0
   13.1822    4.0940    3.9316 C   0  0  0  0  0  0  0  0  0  0  0  0
   13.7597    5.3229    3.5512 C   0  0  0  0  0  0  0  0  0  0  0  0
   13.8317    6.9794    2.1575 H   0  0  0  0  0  0  0  0  0  0  0  0
   11.9869    6.0880    0.6558 H   0  0  0  0  0  0  0  0  0  0  0  0
    8.9872    4.4989   -1.6327 N   0  0  0  0  0  0  0  0  0  0  0  0
    8.1527    3.9123   -2.0555 N   0  0  0  0  0  0  0  0  0  0  0  0
   14.5562    5.7422    4.1685 H   0  0  0  0  0  0  0  0  0  0  0  0
   13.5086    3.5557    4.8205 H   0  0  0  0  0  0  0  0  0  0  0  0
   11.0321    1.9397    3.1802 H   0  0  0  0  0  0  0  0  0  0  0  0
    9.3598    1.4632    1.5277 O   0  0  0  0  0  0  0  0  0  0  0  0
    9.6626    0.8058    2.4896 C   0  0  0  0  0  0  0  0  0  0  0  0
   10.5933    1.0820    3.3997 O   0  0  0  0  0  0  0  0  0  0  0  0
    8.9735   -0.5414    2.8339 C   0  0  0  0  0  0  0  0  0  0  0  0
    8.0318   -0.8392    1.9300 F   0  0  0  0  0  0  0  0  0  0  0  0
    9.8758   -1.5481    2.8533 F   0  0  0  0  0  0  0  0  0  0  0  0
    8.3887   -0.4813    4.0513 F   0  0  0  0  0  0  0  0  0  0  0  0
  1  6  2  0  0  0  0
  2  3  2  0  0  0  0
  2  1  1  0  0  0  0
  3  4  1  0  0  0  0
  4  5  2  0  0  0  0
  5 12  1  0  0  0  0
  6  5  1  0  0  0  0
  6 11  1  0  0  0  0
  7  1  1  0  0  0  0
  8  2  1  0  0  0  0
 10  9  3  0  0  0  0
 13 16  1  0  0  0  0
 14 15  2  0  0  0  0
 15 17  1  0  0  0  0
 15 16  1  0  0  0  0
 17 19  1  0  0  0  0
 17 20  1  0  0  0  0
 18 17  1  0  0  0  0
M  RAD  2   3   2   4   2
M  END
