Coordinates from ORCA-job Ph-N2-OOCCF3-B3LYPG-aug-cc-pVDZ-scan-d09-49-n400
 OpenBabel11081710403D

 20 18  0  0  0  0  0  0  0  0999 V2000
   13.2131    6.0454    2.2341 C   0  0  0  0  0  0  0  0  0  0  0  0
   12.2052    5.6750    1.3100 C   0  0  0  0  0  0  0  0  0  0  0  0
   11.6898    4.4840    1.7338 C   0  0  0  0  0  0  0  0  0  0  0  0
   11.8434    3.6417    2.6772 C   0  0  0  0  0  0  0  0  0  0  0  0
   12.8581    4.0289    3.5956 C   0  0  0  0  0  0  0  0  0  0  0  0
   13.5260    5.2400    3.3442 C   0  0  0  0  0  0  0  0  0  0  0  0
   13.7489    6.9806    2.0651 H   0  0  0  0  0  0  0  0  0  0  0  0
   11.9337    6.2680    0.4416 H   0  0  0  0  0  0  0  0  0  0  0  0
   10.0744    4.0671    0.1022 N   0  0  0  0  0  0  0  0  0  0  0  0
    9.3953    4.1568   -0.7631 N   0  0  0  0  0  0  0  0  0  0  0  0
   14.3106    5.5678    4.0279 H   0  0  0  0  0  0  0  0  0  0  0  0
   13.1157    3.4186    4.4621 H   0  0  0  0  0  0  0  0  0  0  0  0
   10.9546    2.0682    2.9715 H   0  0  0  0  0  0  0  0  0  0  0  0
    9.2257    1.4203    1.4091 O   0  0  0  0  0  0  0  0  0  0  0  0
    9.6044    0.8258    2.3895 C   0  0  0  0  0  0  0  0  0  0  0  0
   10.5476    1.1844    3.2430 O   0  0  0  0  0  0  0  0  0  0  0  0
    8.9814   -0.5301    2.8199 C   0  0  0  0  0  0  0  0  0  0  0  0
    8.0162   -0.9066    1.9702 F   0  0  0  0  0  0  0  0  0  0  0  0
    9.9216   -1.5020    2.8467 F   0  0  0  0  0  0  0  0  0  0  0  0
    8.4416   -0.4386    4.0568 F   0  0  0  0  0  0  0  0  0  0  0  0
  1  6  2  0  0  0  0
  2  3  2  0  0  0  0
  2  1  1  0  0  0  0
  3  4  1  0  0  0  0
  4  5  2  0  0  0  0
  5 12  1  0  0  0  0
  6  5  1  0  0  0  0
  6 11  1  0  0  0  0
  7  1  1  0  0  0  0
  8  2  1  0  0  0  0
 10  9  3  0  0  0  0
 13 16  1  0  0  0  0
 14 15  2  0  0  0  0
 15 17  1  0  0  0  0
 15 16  1  0  0  0  0
 17 19  1  0  0  0  0
 17 20  1  0  0  0  0
 18 17  1  0  0  0  0
M  RAD  2   3   2   4   2
M  END
