Coordinates from ORCA-job Ph-N2-OOCCF3-B3LYPG-aug-cc-pVDZ-scan-d09-49-n400
 OpenBabel11081710403D

 20 19  0  0  0  0  0  0  0  0999 V2000
   12.5680    5.9135    2.0453 C   0  0  0  0  0  0  0  0  0  0  0  0
   12.2504    4.8741    1.1663 C   0  0  0  0  0  0  0  0  0  0  0  0
   12.0456    3.6316    1.7493 C   0  0  0  0  0  0  0  0  0  0  0  0
   12.1239    3.3255    3.0924 C   0  0  0  0  0  0  0  0  0  0  0  0
   12.4542    4.3890    3.9401 C   0  0  0  0  0  0  0  0  0  0  0  0
   12.6708    5.6700    3.4206 C   0  0  0  0  0  0  0  0  0  0  0  0
   12.7310    6.9148    1.6481 H   0  0  0  0  0  0  0  0  0  0  0  0
   12.1574    5.0295    0.0943 H   0  0  0  0  0  0  0  0  0  0  0  0
   11.7131    2.4509    0.7193 N   0  0  0  0  0  0  0  0  0  0  0  0
   11.7979    2.1281   -0.3487 N   0  0  0  0  0  0  0  0  0  0  0  0
   12.9173    6.4907    4.0939 H   0  0  0  0  0  0  0  0  0  0  0  0
   12.5324    4.2090    5.0115 H   0  0  0  0  0  0  0  0  0  0  0  0
   11.9223    2.3155    3.4388 H   0  0  0  0  0  0  0  0  0  0  0  0
    9.1040    2.2856    1.5027 O   0  0  0  0  0  0  0  0  0  0  0  0
    9.6338    1.2831    1.9781 C   0  0  0  0  0  0  0  0  0  0  0  0
   10.8749    0.9739    2.0129 O   0  0  0  0  0  0  0  0  0  0  0  0
    8.7328    0.2085    2.6703 C   0  0  0  0  0  0  0  0  0  0  0  0
    8.9442   -1.0258    2.1547 F   0  0  0  0  0  0  0  0  0  0  0  0
    9.0113    0.1473    4.0011 F   0  0  0  0  0  0  0  0  0  0  0  0
    7.4218    0.4805    2.5466 F   0  0  0  0  0  0  0  0  0  0  0  0
  1  6  2  0  0  0  0
  2  3  2  0  0  0  0
  2  1  1  0  0  0  0
  3  4  1  0  0  0  0
  4 13  1  0  0  0  0
  4  5  2  0  0  0  0
  5 12  1  0  0  0  0
  6  5  1  0  0  0  0
  6 11  1  0  0  0  0
  7  1  1  0  0  0  0
  8  2  1  0  0  0  0
  9  3  1  0  0  0  0
 10  9  2  0  0  0  0
 14 15  2  0  0  0  0
 15 16  1  0  0  0  0
 15 17  1  0  0  0  0
 17 19  1  0  0  0  0
 18 17  1  0  0  0  0
 20 17  1  0  0  0  0
M  RAD  2  10   2  16   2
M  END
