Coordinates from ORCA-job Ph-N2-OOCCF3-B3LYPG-aug-cc-pVDZ-scan-d09-49-n400
 OpenBabel11081710403D

 20 20  0  0  1  0  0  0  0  0999 V2000
   11.8100    5.5295    2.0174 C   0  0  0  0  0  0  0  0  0  0  0  0
   12.0813    4.6405    1.0195 C   0  0  0  0  0  0  0  0  0  0  0  0
   12.3743    3.2929    1.3837 C   0  0  1  0  0  0  0  0  0  0  0  0
   12.2241    2.7147    2.7353 C   0  0  1  0  0  0  0  0  0  0  0  0
   12.0946    3.8018    3.7446 C   0  0  0  0  0  0  0  0  0  0  0  0
   11.8679    5.0932    3.3921 C   0  0  0  0  0  0  0  0  0  0  0  0
   11.5744    6.5656    1.7838 H   0  0  0  0  0  0  0  0  0  0  0  0
   12.0855    4.9291   -0.0303 H   0  0  0  0  0  0  0  0  0  0  0  0
   12.8305    2.4015    0.3610 N   0  0  0  0  0  0  0  0  0  0  0  0
   13.1864    1.6840   -0.4373 N   0  0  0  0  0  0  0  0  0  0  0  0
   11.7500    5.8401    4.1786 H   0  0  0  0  0  0  0  0  0  0  0  0
   12.1712    3.5089    4.7910 H   0  0  0  0  0  0  0  0  0  0  0  0
   13.0045    1.9899    2.9863 H   0  0  0  0  0  0  0  0  0  0  0  0
    9.4302    3.1813    2.1292 O   0  0  0  0  0  0  0  0  0  0  0  0
    9.8000    2.1131    2.5467 C   0  0  0  0  0  0  0  0  0  0  0  0
   11.0265    1.7138    2.8491 O   0  0  0  0  0  0  0  0  0  0  0  0
    8.8022    0.9471    2.8099 C   0  0  0  0  0  0  0  0  0  0  0  0
    9.1155   -0.1350    2.0585 F   0  0  0  0  0  0  0  0  0  0  0  0
    8.8299    0.5716    4.1095 F   0  0  0  0  0  0  0  0  0  0  0  0
    7.5482    1.3115    2.5089 F   0  0  0  0  0  0  0  0  0  0  0  0
  1  6  1  0  0  0  0
  2  3  1  0  0  0  0
  2  1  2  0  0  0  0
  3  9  1  6  0  0  0
  3  4  1  0  0  0  0
  4 16  1  0  0  0  0
  4 13  1  1  0  0  0
  4  5  1  0  0  0  0
  5 12  1  0  0  0  0
  6  5  2  0  0  0  0
  6 11  1  0  0  0  0
  7  1  1  0  0  0  0
  8  2  1  0  0  0  0
 10  9  1  0  0  0  0
 14 15  2  0  0  0  0
 15 17  1  0  0  0  0
 15 16  1  0  0  0  0
 17 19  1  0  0  0  0
 18 17  1  0  0  0  0
 20 17  1  0  0  0  0
M  RAD  3   3   2   9   2  10   3
M  END
