Coordinates from ORCA-job Ph-N2-OOCCF3-B3LYPG-aug-cc-pVDZ-scan-d09-49-n400
 OpenBabel11081710403D

 20 19  0  0  0  0  0  0  0  0999 V2000
   12.5682    5.9155    2.0468 C   0  0  0  0  0  0  0  0  0  0  0  0
   12.2510    4.8767    1.1665 C   0  0  0  0  0  0  0  0  0  0  0  0
   12.0474    3.6353    1.7504 C   0  0  0  0  0  0  0  0  0  0  0  0
   12.1252    3.3262    3.0922 C   0  0  0  0  0  0  0  0  0  0  0  0
   12.4550    4.3895    3.9407 C   0  0  0  0  0  0  0  0  0  0  0  0
   12.6711    5.6710    3.4219 C   0  0  0  0  0  0  0  0  0  0  0  0
   12.7309    6.9172    1.6504 H   0  0  0  0  0  0  0  0  0  0  0  0
   12.1578    5.0325    0.0946 H   0  0  0  0  0  0  0  0  0  0  0  0
   11.7128    2.4464    0.7149 N   0  0  0  0  0  0  0  0  0  0  0  0
   11.7983    2.1227   -0.3525 N   0  0  0  0  0  0  0  0  0  0  0  0
   12.9173    6.4913    4.0958 H   0  0  0  0  0  0  0  0  0  0  0  0
   12.5331    4.2088    5.0120 H   0  0  0  0  0  0  0  0  0  0  0  0
   11.9232    2.3157    3.4366 H   0  0  0  0  0  0  0  0  0  0  0  0
    9.1034    2.2827    1.4992 O   0  0  0  0  0  0  0  0  0  0  0  0
    9.6331    1.2812    1.9768 C   0  0  0  0  0  0  0  0  0  0  0  0
   10.8740    0.9717    2.0125 O   0  0  0  0  0  0  0  0  0  0  0  0
    8.7317    0.2082    2.6712 C   0  0  0  0  0  0  0  0  0  0  0  0
    8.9426   -1.0272    2.1581 F   0  0  0  0  0  0  0  0  0  0  0  0
    9.0103    0.1495    4.0022 F   0  0  0  0  0  0  0  0  0  0  0  0
    7.4208    0.4804    2.5472 F   0  0  0  0  0  0  0  0  0  0  0  0
  1  6  2  0  0  0  0
  2  3  2  0  0  0  0
  2  1  1  0  0  0  0
  3  4  1  0  0  0  0
  4 13  1  0  0  0  0
  4  5  2  0  0  0  0
  5 12  1  0  0  0  0
  6  5  1  0  0  0  0
  6 11  1  0  0  0  0
  7  1  1  0  0  0  0
  8  2  1  0  0  0  0
  9  3  1  0  0  0  0
 10  9  2  0  0  0  0
 14 15  2  0  0  0  0
 15 16  1  0  0  0  0
 15 17  1  0  0  0  0
 17 19  1  0  0  0  0
 18 17  1  0  0  0  0
 20 17  1  0  0  0  0
M  RAD  2  10   2  16   2
M  END
