Coordinates from ORCA-job Ph-N2-OOCCF3-B3LYPG-aug-cc-pVDZ-scan-d09-49-n400
 OpenBabel11081710403D

 20 18  0  0  0  0  0  0  0  0999 V2000
   13.1335    5.9896    2.1708 C   0  0  0  0  0  0  0  0  0  0  0  0
   12.0439    5.5954    1.3649 C   0  0  0  0  0  0  0  0  0  0  0  0
   11.5818    4.3844    1.7862 C   0  0  0  0  0  0  0  0  0  0  0  0
   11.8609    3.4882    2.7214 C   0  0  0  0  0  0  0  0  0  0  0  0
   12.9650    3.9465    3.4947 C   0  0  0  0  0  0  0  0  0  0  0  0
   13.5805    5.1710    3.2177 C   0  0  0  0  0  0  0  0  0  0  0  0
   13.6149    6.9441    1.9566 H   0  0  0  0  0  0  0  0  0  0  0  0
   11.6562    6.1884    0.5424 H   0  0  0  0  0  0  0  0  0  0  0  0
    9.9797    3.8509    0.5666 N   0  0  0  0  0  0  0  0  0  0  0  0
    9.2716    4.0103   -0.2662 N   0  0  0  0  0  0  0  0  0  0  0  0
   14.4239    5.4973    3.8260 H   0  0  0  0  0  0  0  0  0  0  0  0
   13.3129    3.3100    4.3091 H   0  0  0  0  0  0  0  0  0  0  0  0
   11.3396    2.4658    2.9454 H   0  0  0  0  0  0  0  0  0  0  0  0
    9.3542    1.6574    1.5786 O   0  0  0  0  0  0  0  0  0  0  0  0
    9.7582    0.9311    2.5017 C   0  0  0  0  0  0  0  0  0  0  0  0
   10.7124    1.1078    3.3089 O   0  0  0  0  0  0  0  0  0  0  0  0
    8.9551   -0.3990    2.6924 C   0  0  0  0  0  0  0  0  0  0  0  0
    8.9518   -1.1242    1.5470 F   0  0  0  0  0  0  0  0  0  0  0  0
    9.4478   -1.1908    3.6663 F   0  0  0  0  0  0  0  0  0  0  0  0
    7.6632   -0.1289    3.0073 F   0  0  0  0  0  0  0  0  0  0  0  0
  1  6  2  0  0  0  0
  2  3  2  0  0  0  0
  2  1  1  0  0  0  0
  3  4  1  0  0  0  0
  4 13  1  0  0  0  0
  4  5  2  0  0  0  0
  5 12  1  0  0  0  0
  6  5  1  0  0  0  0
  6 11  1  0  0  0  0
  7  1  1  0  0  0  0
  8  2  1  0  0  0  0
 10  9  3  0  0  0  0
 14 15  2  0  0  0  0
 15 17  1  0  0  0  0
 15 16  1  0  0  0  0
 17 20  1  0  0  0  0
 17 19  1  0  0  0  0
 18 17  1  0  0  0  0
M  RAD  2   3   2  16   2
M  END
