Coordinates from ORCA-job Ph-N2-OOCCF3-B3LYPG-aug-cc-pVDZ-scan-d09-49-n400
 OpenBabel11081710403D

 20 18  0  0  0  0  0  0  0  0999 V2000
   13.3152    6.0659    2.3162 C   0  0  0  0  0  0  0  0  0  0  0  0
   12.3160    5.7716    1.3512 C   0  0  0  0  0  0  0  0  0  0  0  0
   11.7511    4.5866    1.7279 C   0  0  0  0  0  0  0  0  0  0  0  0
   11.8752    3.7342    2.6509 C   0  0  0  0  0  0  0  0  0  0  0  0
   12.8682    4.0176    3.6189 C   0  0  0  0  0  0  0  0  0  0  0  0
   13.5773    5.2165    3.4078 C   0  0  0  0  0  0  0  0  0  0  0  0
   13.8910    6.9851    2.1942 H   0  0  0  0  0  0  0  0  0  0  0  0
   12.0863    6.4020    0.4979 H   0  0  0  0  0  0  0  0  0  0  0  0
    9.8516    4.3903   -0.4078 N   0  0  0  0  0  0  0  0  0  0  0  0
    9.0269    3.8533   -0.9077 N   0  0  0  0  0  0  0  0  0  0  0  0
   14.3587    5.4987    4.1154 H   0  0  0  0  0  0  0  0  0  0  0  0
   13.0833    3.3707    4.4690 H   0  0  0  0  0  0  0  0  0  0  0  0
   10.8771    2.0752    2.9033 H   0  0  0  0  0  0  0  0  0  0  0  0
    9.1823    1.3018    1.3703 O   0  0  0  0  0  0  0  0  0  0  0  0
    9.5697    0.7744    2.3816 C   0  0  0  0  0  0  0  0  0  0  0  0
   10.5040    1.2090    3.2195 O   0  0  0  0  0  0  0  0  0  0  0  0
    8.9974   -0.5775    2.8867 C   0  0  0  0  0  0  0  0  0  0  0  0
    8.0532   -1.0366    2.0557 F   0  0  0  0  0  0  0  0  0  0  0  0
    9.9745   -1.5083    2.9724 F   0  0  0  0  0  0  0  0  0  0  0  0
    8.4481   -0.4353    4.1141 F   0  0  0  0  0  0  0  0  0  0  0  0
  1  6  2  0  0  0  0
  2  3  2  0  0  0  0
  2  1  1  0  0  0  0
  3  4  1  0  0  0  0
  4  5  2  0  0  0  0
  5 12  1  0  0  0  0
  6  5  1  0  0  0  0
  6 11  1  0  0  0  0
  7  1  1  0  0  0  0
  8  2  1  0  0  0  0
 10  9  3  0  0  0  0
 13 16  1  0  0  0  0
 14 15  2  0  0  0  0
 15 17  1  0  0  0  0
 15 16  1  0  0  0  0
 17 19  1  0  0  0  0
 17 20  1  0  0  0  0
 18 17  1  0  0  0  0
M  RAD  2   3   2   4   2
M  END
