Coordinates from ORCA-job Ph-N2-OOCCF3-B3LYPG-aug-cc-pVDZ-scan-d09-49-n400
 OpenBabel11081710403D

 20 20  0  0  1  0  0  0  0  0999 V2000
   11.9828    5.5466    2.0182 C   0  0  0  0  0  0  0  0  0  0  0  0
   12.1461    4.6749    1.0087 C   0  0  0  0  0  0  0  0  0  0  0  0
   12.3097    3.1922    1.2259 C   0  0  0  0  0  0  0  0  0  0  0  0
   12.1545    2.7149    2.7380 C   0  0  1  0  0  0  0  0  0  0  0  0
   11.9906    3.8065    3.7414 C   0  0  0  0  0  0  0  0  0  0  0  0
   11.9271    5.1068    3.4044 C   0  0  0  0  0  0  0  0  0  0  0  0
   11.8744    6.6082    1.7967 H   0  0  0  0  0  0  0  0  0  0  0  0
   12.1669    4.9759   -0.0391 H   0  0  0  0  0  0  0  0  0  0  0  0
   12.4885    2.5815    0.5753 N   0  0  0  0  0  0  0  0  0  0  0  0
   12.7192    1.7739   -0.2624 N   0  0  0  0  0  0  0  0  0  0  0  0
   11.8253    5.8604    4.1857 H   0  0  0  0  0  0  0  0  0  0  0  0
   11.9459    3.4868    4.7833 H   0  0  0  0  0  0  0  0  0  0  0  0
   13.0349    2.0942    2.9515 H   0  0  0  0  0  0  0  0  0  0  0  0
    9.4771    3.0892    2.0014 O   0  0  0  0  0  0  0  0  0  0  0  0
    9.8424    2.0512    2.4825 C   0  0  0  0  0  0  0  0  0  0  0  0
   11.0860    1.7077    2.8404 O   0  0  0  0  0  0  0  0  0  0  0  0
    8.8781    0.8742    2.7929 C   0  0  0  0  0  0  0  0  0  0  0  0
    9.2904   -0.2652    2.2030 F   0  0  0  0  0  0  0  0  0  0  0  0
    8.8237    0.6614    4.1285 F   0  0  0  0  0  0  0  0  0  0  0  0
    7.6433    1.1540    2.3611 F   0  0  0  0  0  0  0  0  0  0  0  0
  1  6  2  0  0  0  0
  2  3  2  0  0  0  0
  2  1  1  0  0  0  0
  3  4  1  0  0  0  0
  4 16  1  0  0  0  0
  4 13  1  1  0  0  0
  4  5  1  0  0  0  0
  5 12  1  0  0  0  0
  6  5  1  0  0  0  0
  6 11  1  0  0  0  0
  7  1  1  0  0  0  0
  8  2  1  0  0  0  0
  9  3  1  0  0  0  0
 10  9  1  0  0  0  0
 14 15  2  0  0  0  0
 15 17  1  0  0  0  0
 15 16  1  0  0  0  0
 17 19  1  0  0  0  0
 18 17  1  0  0  0  0
 20 17  1  0  0  0  0
M  RAD  3   5   2   9   2  10   3
M  END
