Coordinates from ORCA-job Ph-N2-OOCCF3-B3LYPG-aug-cc-pVDZ-scan-d09-49-n400
 OpenBabel11081710403D

 20 18  0  0  0  0  0  0  0  0999 V2000
   13.1980    6.0377    2.2179 C   0  0  0  0  0  0  0  0  0  0  0  0
   12.1875    5.6599    1.3035 C   0  0  0  0  0  0  0  0  0  0  0  0
   11.6687    4.4684    1.7271 C   0  0  0  0  0  0  0  0  0  0  0  0
   11.8237    3.6221    2.6756 C   0  0  0  0  0  0  0  0  0  0  0  0
   12.8455    4.0263    3.5810 C   0  0  0  0  0  0  0  0  0  0  0  0
   13.5145    5.2350    3.3286 C   0  0  0  0  0  0  0  0  0  0  0  0
   13.7315    6.9728    2.0425 H   0  0  0  0  0  0  0  0  0  0  0  0
   11.9102    6.2482    0.4335 H   0  0  0  0  0  0  0  0  0  0  0  0
   10.1312    4.0441    0.2070 N   0  0  0  0  0  0  0  0  0  0  0  0
    9.4512    4.1104   -0.6595 N   0  0  0  0  0  0  0  0  0  0  0  0
   14.3012    5.5633    4.0096 H   0  0  0  0  0  0  0  0  0  0  0  0
   13.1074    3.4190    4.4488 H   0  0  0  0  0  0  0  0  0  0  0  0
   10.9673    2.0904    2.9791 H   0  0  0  0  0  0  0  0  0  0  0  0
    9.2463    1.4459    1.4024 O   0  0  0  0  0  0  0  0  0  0  0  0
    9.6117    0.8502    2.3890 C   0  0  0  0  0  0  0  0  0  0  0  0
   10.5491    1.2001    3.2472 O   0  0  0  0  0  0  0  0  0  0  0  0
    8.9832   -0.5091    2.8014 C   0  0  0  0  0  0  0  0  0  0  0  0
    8.0268   -0.8797    1.9386 F   0  0  0  0  0  0  0  0  0  0  0  0
    9.9226   -1.4821    2.8311 F   0  0  0  0  0  0  0  0  0  0  0  0
    8.4296   -0.4276    4.0330 F   0  0  0  0  0  0  0  0  0  0  0  0
  1  6  2  0  0  0  0
  2  3  2  0  0  0  0
  2  1  1  0  0  0  0
  3  4  1  0  0  0  0
  4  5  2  0  0  0  0
  5 12  1  0  0  0  0
  6  5  1  0  0  0  0
  6 11  1  0  0  0  0
  7  1  1  0  0  0  0
  8  2  1  0  0  0  0
 10  9  3  0  0  0  0
 13 16  1  0  0  0  0
 14 15  2  0  0  0  0
 15 17  1  0  0  0  0
 15 16  1  0  0  0  0
 17 19  1  0  0  0  0
 17 20  1  0  0  0  0
 18 17  1  0  0  0  0
M  RAD  2   3   2   4   2
M  END
