Coordinates from ORCA-job Ph-N2-OOCCF3-B3LYPG-aug-cc-pVDZ-scan-d09-49-n400
 OpenBabel11081710403D

 20 18  0  0  0  0  0  0  0  0999 V2000
   13.3500    6.0328    2.4048 C   0  0  0  0  0  0  0  0  0  0  0  0
   12.3230    5.5649    1.5437 C   0  0  0  0  0  0  0  0  0  0  0  0
   11.8841    4.3747    2.0624 C   0  0  0  0  0  0  0  0  0  0  0  0
   12.1652    3.6556    3.0565 C   0  0  0  0  0  0  0  0  0  0  0  0
   13.1803    4.0938    3.9294 C   0  0  0  0  0  0  0  0  0  0  0  0
   13.7589    5.3226    3.5502 C   0  0  0  0  0  0  0  0  0  0  0  0
   13.8326    6.9802    2.1579 H   0  0  0  0  0  0  0  0  0  0  0  0
   11.9880    6.0912    0.6546 H   0  0  0  0  0  0  0  0  0  0  0  0
    8.9943    4.4903   -1.6163 N   0  0  0  0  0  0  0  0  0  0  0  0
    8.1600    3.9036   -2.0393 N   0  0  0  0  0  0  0  0  0  0  0  0
   14.5553    5.7410    4.1683 H   0  0  0  0  0  0  0  0  0  0  0  0
   13.5060    3.5546    4.8180 H   0  0  0  0  0  0  0  0  0  0  0  0
   11.0308    1.9414    3.1772 H   0  0  0  0  0  0  0  0  0  0  0  0
    9.3583    1.4639    1.5251 O   0  0  0  0  0  0  0  0  0  0  0  0
    9.6614    0.8069    2.4871 C   0  0  0  0  0  0  0  0  0  0  0  0
   10.5922    1.0836    3.3970 O   0  0  0  0  0  0  0  0  0  0  0  0
    8.9726   -0.5404    2.8319 C   0  0  0  0  0  0  0  0  0  0  0  0
    8.0309   -0.8386    1.9283 F   0  0  0  0  0  0  0  0  0  0  0  0
    9.8752   -1.5468    2.8515 F   0  0  0  0  0  0  0  0  0  0  0  0
    8.3880   -0.4800    4.0494 F   0  0  0  0  0  0  0  0  0  0  0  0
  1  6  2  0  0  0  0
  2  3  2  0  0  0  0
  2  1  1  0  0  0  0
  3  4  1  0  0  0  0
  4  5  2  0  0  0  0
  5 12  1  0  0  0  0
  6  5  1  0  0  0  0
  6 11  1  0  0  0  0
  7  1  1  0  0  0  0
  8  2  1  0  0  0  0
 10  9  3  0  0  0  0
 13 16  1  0  0  0  0
 14 15  2  0  0  0  0
 15 17  1  0  0  0  0
 15 16  1  0  0  0  0
 17 19  1  0  0  0  0
 17 20  1  0  0  0  0
 18 17  1  0  0  0  0
M  RAD  2   3   2   4   2
M  END
