Coordinates from ORCA-job Ph-N2-OOCCF3-B3LYPG-aug-cc-pVDZ-scan-d09-49-n400
 OpenBabel11081710403D

 20 20  0  0  1  0  0  0  0  0999 V2000
   11.8472    5.5180    2.0126 C   0  0  0  0  0  0  0  0  0  0  0  0
   12.0786    4.6363    1.0120 C   0  0  0  0  0  0  0  0  0  0  0  0
   12.3653    3.2393    1.3152 C   0  0  0  0  0  0  0  0  0  0  0  0
   12.1979    2.7017    2.7232 C   0  0  1  0  0  0  0  0  0  0  0  0
   12.0664    3.7874    3.7387 C   0  0  0  0  0  0  0  0  0  0  0  0
   11.8885    5.0817    3.3949 C   0  0  0  0  0  0  0  0  0  0  0  0
   11.6375    6.5615    1.7845 H   0  0  0  0  0  0  0  0  0  0  0  0
   12.0683    4.9345   -0.0359 H   0  0  0  0  0  0  0  0  0  0  0  0
   12.7414    2.4843    0.4606 N   0  0  0  0  0  0  0  0  0  0  0  0
   13.1012    1.7511   -0.3464 N   0  0  0  0  0  0  0  0  0  0  0  0
   11.7846    5.8315    4.1804 H   0  0  0  0  0  0  0  0  0  0  0  0
   12.1138    3.4806    4.7832 H   0  0  0  0  0  0  0  0  0  0  0  0
   13.0126    2.0108    2.9690 H   0  0  0  0  0  0  0  0  0  0  0  0
    9.4489    3.1654    2.0798 O   0  0  0  0  0  0  0  0  0  0  0  0
    9.8132    2.1069    2.5201 C   0  0  0  0  0  0  0  0  0  0  0  0
   11.0470    1.7177    2.8332 O   0  0  0  0  0  0  0  0  0  0  0  0
    8.8242    0.9417    2.8085 C   0  0  0  0  0  0  0  0  0  0  0  0
    9.1639   -0.1662    2.1128 F   0  0  0  0  0  0  0  0  0  0  0  0
    8.8309    0.6270    4.1243 F   0  0  0  0  0  0  0  0  0  0  0  0
    7.5754    1.2840    2.4668 F   0  0  0  0  0  0  0  0  0  0  0  0
  1  6  1  0  0  0  0
  2  3  2  0  0  0  0
  2  1  1  0  0  0  0
  3  4  1  0  0  0  0
  4 16  1  0  0  0  0
  4 13  1  1  0  0  0
  4  5  1  0  0  0  0
  5 12  1  0  0  0  0
  6  5  2  0  0  0  0
  6 11  1  0  0  0  0
  7  1  1  0  0  0  0
  8  2  1  0  0  0  0
  9  3  1  0  0  0  0
 10  9  1  0  0  0  0
 14 15  2  0  0  0  0
 15 17  1  0  0  0  0
 15 16  1  0  0  0  0
 17 19  1  0  0  0  0
 18 17  1  0  0  0  0
 20 17  1  0  0  0  0
M  RAD  3   1   2   9   2  10   3
M  END
