Coordinates from ORCA-job Ph-N2-OOCCF3-B3LYPG-aug-cc-pVDZ-scan-d09-49-n400
 OpenBabel11081710403D

 20 18  0  0  0  0  0  0  0  0999 V2000
   13.2324    6.0517    2.2475 C   0  0  0  0  0  0  0  0  0  0  0  0
   12.2254    5.6851    1.3182 C   0  0  0  0  0  0  0  0  0  0  0  0
   11.7116    4.4959    1.7460 C   0  0  0  0  0  0  0  0  0  0  0  0
   11.8647    3.6593    2.6887 C   0  0  0  0  0  0  0  0  0  0  0  0
   12.8748    4.0352    3.6145 C   0  0  0  0  0  0  0  0  0  0  0  0
   13.5425    5.2469    3.3594 C   0  0  0  0  0  0  0  0  0  0  0  0
   13.7709    6.9859    2.0806 H   0  0  0  0  0  0  0  0  0  0  0  0
   11.9564    6.2775    0.4489 H   0  0  0  0  0  0  0  0  0  0  0  0
   10.0146    4.0808    0.0085 N   0  0  0  0  0  0  0  0  0  0  0  0
    9.3209    4.1766   -0.8445 N   0  0  0  0  0  0  0  0  0  0  0  0
   14.3266    5.5758    4.0432 H   0  0  0  0  0  0  0  0  0  0  0  0
   13.1296    3.4252    4.4817 H   0  0  0  0  0  0  0  0  0  0  0  0
   10.9379    2.0581    2.9642 H   0  0  0  0  0  0  0  0  0  0  0  0
    9.2043    1.3977    1.4081 O   0  0  0  0  0  0  0  0  0  0  0  0
    9.5879    0.8127    2.3910 C   0  0  0  0  0  0  0  0  0  0  0  0
   10.5363    1.1793    3.2385 O   0  0  0  0  0  0  0  0  0  0  0  0
    8.9802   -0.5473    2.8303 C   0  0  0  0  0  0  0  0  0  0  0  0
    8.0171   -0.9375    1.9848 F   0  0  0  0  0  0  0  0  0  0  0  0
    9.9304   -1.5093    2.8600 F   0  0  0  0  0  0  0  0  0  0  0  0
    8.4427   -0.4543    4.0679 F   0  0  0  0  0  0  0  0  0  0  0  0
  1  6  2  0  0  0  0
  2  3  2  0  0  0  0
  2  1  1  0  0  0  0
  3  4  1  0  0  0  0
  4  5  2  0  0  0  0
  5 12  1  0  0  0  0
  6  5  1  0  0  0  0
  6 11  1  0  0  0  0
  7  1  1  0  0  0  0
  8  2  1  0  0  0  0
 10  9  3  0  0  0  0
 13 16  1  0  0  0  0
 14 15  2  0  0  0  0
 15 17  1  0  0  0  0
 15 16  1  0  0  0  0
 17 19  1  0  0  0  0
 17 20  1  0  0  0  0
 18 17  1  0  0  0  0
M  RAD  2   3   2   4   2
M  END
