Coordinates from ORCA-job Ph-N2-OOCCF3-B3LYPG-aug-cc-pVDZ-scan-d09-49-n400
 OpenBabel11081710403D

 20 18  0  0  0  0  0  0  0  0999 V2000
   13.2407    6.0544    2.2541 C   0  0  0  0  0  0  0  0  0  0  0  0
   12.2345    5.6888    1.3229 C   0  0  0  0  0  0  0  0  0  0  0  0
   11.7210    4.5000    1.7516 C   0  0  0  0  0  0  0  0  0  0  0  0
   11.8747    3.6660    2.6947 C   0  0  0  0  0  0  0  0  0  0  0  0
   12.8826    4.0382    3.6233 C   0  0  0  0  0  0  0  0  0  0  0  0
   13.5500    5.2502    3.3668 C   0  0  0  0  0  0  0  0  0  0  0  0
   13.7799    6.9884    2.0879 H   0  0  0  0  0  0  0  0  0  0  0  0
   11.9666    6.2812    0.4533 H   0  0  0  0  0  0  0  0  0  0  0  0
    9.9872    4.0871   -0.0357 N   0  0  0  0  0  0  0  0  0  0  0  0
    9.2826    4.1807   -0.8800 N   0  0  0  0  0  0  0  0  0  0  0  0
   14.3336    5.5798    4.0508 H   0  0  0  0  0  0  0  0  0  0  0  0
   13.1365    3.4284    4.4908 H   0  0  0  0  0  0  0  0  0  0  0  0
   10.9315    2.0543    2.9600 H   0  0  0  0  0  0  0  0  0  0  0  0
    9.1981    1.3879    1.4063 O   0  0  0  0  0  0  0  0  0  0  0  0
    9.5835    0.8063    2.3901 C   0  0  0  0  0  0  0  0  0  0  0  0
   10.5326    1.1771    3.2362 O   0  0  0  0  0  0  0  0  0  0  0  0
    8.9796   -0.5537    2.8345 C   0  0  0  0  0  0  0  0  0  0  0  0
    8.0163   -0.9484    1.9915 F   0  0  0  0  0  0  0  0  0  0  0  0
    9.9320   -1.5134    2.8659 F   0  0  0  0  0  0  0  0  0  0  0  0
    8.4436   -0.4580    4.0725 F   0  0  0  0  0  0  0  0  0  0  0  0
  1  6  2  0  0  0  0
  2  3  2  0  0  0  0
  2  1  1  0  0  0  0
  3  4  1  0  0  0  0
  4  5  2  0  0  0  0
  5 12  1  0  0  0  0
  6  5  1  0  0  0  0
  6 11  1  0  0  0  0
  7  1  1  0  0  0  0
  8  2  1  0  0  0  0
 10  9  3  0  0  0  0
 13 16  1  0  0  0  0
 14 15  2  0  0  0  0
 15 17  1  0  0  0  0
 15 16  1  0  0  0  0
 17 19  1  0  0  0  0
 17 20  1  0  0  0  0
 18 17  1  0  0  0  0
M  RAD  2   3   2   4   2
M  END
