Coordinates from ORCA-job Ph-N2-OOCCF3-B3LYPG-aug-cc-pVDZ-scan-d09-49-n400
 OpenBabel11081710403D

 20 18  0  0  0  0  0  0  0  0999 V2000
   13.3237    6.0678    2.3280 C   0  0  0  0  0  0  0  0  0  0  0  0
   12.3236    5.7654    1.3673 C   0  0  0  0  0  0  0  0  0  0  0  0
   11.7616    4.5777    1.7466 C   0  0  0  0  0  0  0  0  0  0  0  0
   11.8995    3.7351    2.6761 C   0  0  0  0  0  0  0  0  0  0  0  0
   12.8921    4.0225    3.6417 C   0  0  0  0  0  0  0  0  0  0  0  0
   13.5936    5.2243    3.4224 C   0  0  0  0  0  0  0  0  0  0  0  0
   13.8947    6.9893    2.2008 H   0  0  0  0  0  0  0  0  0  0  0  0
   12.0885    6.3918    0.5123 H   0  0  0  0  0  0  0  0  0  0  0  0
    9.7740    4.3767   -0.4986 N   0  0  0  0  0  0  0  0  0  0  0  0
    8.9489    3.8427   -1.0011 N   0  0  0  0  0  0  0  0  0  0  0  0
   14.3759    5.5133    4.1263 H   0  0  0  0  0  0  0  0  0  0  0  0
   13.1127    3.3799    4.4935 H   0  0  0  0  0  0  0  0  0  0  0  0
   10.8856    2.0658    2.9173 H   0  0  0  0  0  0  0  0  0  0  0  0
    9.1928    1.3152    1.3815 O   0  0  0  0  0  0  0  0  0  0  0  0
    9.5748    0.7767    2.3886 C   0  0  0  0  0  0  0  0  0  0  0  0
   10.5112    1.2006    3.2305 O   0  0  0  0  0  0  0  0  0  0  0  0
    8.9944   -0.5755    2.8830 C   0  0  0  0  0  0  0  0  0  0  0  0
    8.0483   -1.0226    2.0478 F   0  0  0  0  0  0  0  0  0  0  0  0
    9.9662   -1.5123    2.9624 F   0  0  0  0  0  0  0  0  0  0  0  0
    8.4450   -0.4391    4.1110 F   0  0  0  0  0  0  0  0  0  0  0  0
  1  6  2  0  0  0  0
  2  3  2  0  0  0  0
  2  1  1  0  0  0  0
  3  4  1  0  0  0  0
  4  5  2  0  0  0  0
  5 12  1  0  0  0  0
  6  5  1  0  0  0  0
  6 11  1  0  0  0  0
  7  1  1  0  0  0  0
  8  2  1  0  0  0  0
 10  9  3  0  0  0  0
 13 16  1  0  0  0  0
 14 15  2  0  0  0  0
 15 17  1  0  0  0  0
 15 16  1  0  0  0  0
 17 19  1  0  0  0  0
 17 20  1  0  0  0  0
 18 17  1  0  0  0  0
M  RAD  2   3   2   4   2
M  END
