Coordinates from ORCA-job Ph-N2-OOCCF3-B3LYPG-aug-cc-pVDZ-scan-d09-49-n400
 OpenBabel11081710403D

 20 18  0  0  0  0  0  0  0  0999 V2000
   13.3501    6.0315    2.4060 C   0  0  0  0  0  0  0  0  0  0  0  0
   12.3232    5.5620    1.5460 C   0  0  0  0  0  0  0  0  0  0  0  0
   11.8839    4.3717    2.0645 C   0  0  0  0  0  0  0  0  0  0  0  0
   12.1667    3.6540    3.0597 C   0  0  0  0  0  0  0  0  0  0  0  0
   13.1820    4.0938    3.9317 C   0  0  0  0  0  0  0  0  0  0  0  0
   13.7598    5.3226    3.5516 C   0  0  0  0  0  0  0  0  0  0  0  0
   13.8320    6.9790    2.1581 H   0  0  0  0  0  0  0  0  0  0  0  0
   11.9876    6.0877    0.6567 H   0  0  0  0  0  0  0  0  0  0  0  0
    8.9835    4.5058   -1.6434 N   0  0  0  0  0  0  0  0  0  0  0  0
    8.1488    3.9194   -2.0662 N   0  0  0  0  0  0  0  0  0  0  0  0
   14.5562    5.7418    4.1691 H   0  0  0  0  0  0  0  0  0  0  0  0
   13.5084    3.5555    4.8206 H   0  0  0  0  0  0  0  0  0  0  0  0
   11.0325    1.9387    3.1815 H   0  0  0  0  0  0  0  0  0  0  0  0
    9.3612    1.4620    1.5304 O   0  0  0  0  0  0  0  0  0  0  0  0
    9.6636    0.8044    2.4920 C   0  0  0  0  0  0  0  0  0  0  0  0
   10.5942    1.0809    3.4017 O   0  0  0  0  0  0  0  0  0  0  0  0
    8.9744   -0.5428    2.8362 C   0  0  0  0  0  0  0  0  0  0  0  0
    8.0328   -0.8404    1.9323 F   0  0  0  0  0  0  0  0  0  0  0  0
    9.8767   -1.5495    2.8556 F   0  0  0  0  0  0  0  0  0  0  0  0
    8.3895   -0.4827    4.0536 F   0  0  0  0  0  0  0  0  0  0  0  0
  1  6  2  0  0  0  0
  2  3  2  0  0  0  0
  2  1  1  0  0  0  0
  3  4  1  0  0  0  0
  4  5  2  0  0  0  0
  5 12  1  0  0  0  0
  6  5  1  0  0  0  0
  6 11  1  0  0  0  0
  7  1  1  0  0  0  0
  8  2  1  0  0  0  0
 10  9  3  0  0  0  0
 13 16  1  0  0  0  0
 14 15  2  0  0  0  0
 15 17  1  0  0  0  0
 15 16  1  0  0  0  0
 17 19  1  0  0  0  0
 17 20  1  0  0  0  0
 18 17  1  0  0  0  0
M  RAD  2   3   2   4   2
M  END
