Coordinates from ORCA-job Ph-N2-OOCCF3-B3LYPG-aug-cc-pVDZ-scan-d09-49-n400
 OpenBabel11081710403D

 20 18  0  0  0  0  0  0  0  0999 V2000
   13.1030    5.9993    2.1327 C   0  0  0  0  0  0  0  0  0  0  0  0
   12.0123    5.5603    1.3577 C   0  0  0  0  0  0  0  0  0  0  0  0
   11.5607    4.3449    1.7938 C   0  0  0  0  0  0  0  0  0  0  0  0
   11.9014    3.4862    2.7650 C   0  0  0  0  0  0  0  0  0  0  0  0
   13.0019    3.9857    3.5057 C   0  0  0  0  0  0  0  0  0  0  0  0
   13.5854    5.2167    3.1907 C   0  0  0  0  0  0  0  0  0  0  0  0
   13.5602    6.9586    1.8899 H   0  0  0  0  0  0  0  0  0  0  0  0
   11.6006    6.1276    0.5285 H   0  0  0  0  0  0  0  0  0  0  0  0
   10.0505    3.7655    0.7000 N   0  0  0  0  0  0  0  0  0  0  0  0
    9.3570    3.9578   -0.1413 N   0  0  0  0  0  0  0  0  0  0  0  0
   14.4307    5.5763    3.7771 H   0  0  0  0  0  0  0  0  0  0  0  0
   13.3793    3.3793    4.3293 H   0  0  0  0  0  0  0  0  0  0  0  0
   11.4086    2.4914    2.9986 H   0  0  0  0  0  0  0  0  0  0  0  0
    9.4228    1.6818    1.6124 O   0  0  0  0  0  0  0  0  0  0  0  0
    9.7782    0.9089    2.5325 C   0  0  0  0  0  0  0  0  0  0  0  0
   10.7003    1.0209    3.3688 O   0  0  0  0  0  0  0  0  0  0  0  0
    8.9047   -0.3885    2.6327 C   0  0  0  0  0  0  0  0  0  0  0  0
    8.8928   -1.0571    1.4533 F   0  0  0  0  0  0  0  0  0  0  0  0
    9.3374   -1.2483    3.5759 F   0  0  0  0  0  0  0  0  0  0  0  0
    7.6194   -0.0720    2.9344 F   0  0  0  0  0  0  0  0  0  0  0  0
  1  6  2  0  0  0  0
  2  3  2  0  0  0  0
  2  1  1  0  0  0  0
  3  4  1  0  0  0  0
  4 13  1  0  0  0  0
  4  5  2  0  0  0  0
  5 12  1  0  0  0  0
  6  5  1  0  0  0  0
  6 11  1  0  0  0  0
  7  1  1  0  0  0  0
  8  2  1  0  0  0  0
 10  9  3  0  0  0  0
 14 15  2  0  0  0  0
 15 17  1  0  0  0  0
 15 16  1  0  0  0  0
 17 20  1  0  0  0  0
 17 19  1  0  0  0  0
 18 17  1  0  0  0  0
M  RAD  2   3   2  16   2
M  END
