Coordinates from ORCA-job Ph-N2-OOCCF3-B3LYPG-aug-cc-pVDZ-scan-d09-49-n400
 OpenBabel11081710403D

 20 18  0  0  0  0  0  0  0  0999 V2000
   13.3289    6.0690    2.3362 C   0  0  0  0  0  0  0  0  0  0  0  0
   12.3253    5.7503    1.3841 C   0  0  0  0  0  0  0  0  0  0  0  0
   11.7757    4.5607    1.7770 C   0  0  0  0  0  0  0  0  0  0  0  0
   11.9295    3.7301    2.7139 C   0  0  0  0  0  0  0  0  0  0  0  0
   12.9243    4.0313    3.6716 C   0  0  0  0  0  0  0  0  0  0  0  0
   13.6134    5.2376    3.4362 C   0  0  0  0  0  0  0  0  0  0  0  0
   13.8912    6.9942    2.1976 H   0  0  0  0  0  0  0  0  0  0  0  0
   12.0801    6.3678    0.5254 H   0  0  0  0  0  0  0  0  0  0  0  0
    9.6965    4.3625   -0.5886 N   0  0  0  0  0  0  0  0  0  0  0  0
    8.8709    3.8331   -1.0950 N   0  0  0  0  0  0  0  0  0  0  0  0
   14.3977    5.5400    4.1323 H   0  0  0  0  0  0  0  0  0  0  0  0
   13.1559    3.3982    4.5275 H   0  0  0  0  0  0  0  0  0  0  0  0
   10.8986    2.0536    2.9394 H   0  0  0  0  0  0  0  0  0  0  0  0
    9.2048    1.3325    1.3916 O   0  0  0  0  0  0  0  0  0  0  0  0
    9.5798    0.7807    2.3940 C   0  0  0  0  0  0  0  0  0  0  0  0
   10.5175    1.1890    3.2428 O   0  0  0  0  0  0  0  0  0  0  0  0
    8.9878   -0.5719    2.8733 C   0  0  0  0  0  0  0  0  0  0  0  0
    8.0408   -1.0033    2.0310 F   0  0  0  0  0  0  0  0  0  0  0  0
    9.9523   -1.5166    2.9461 F   0  0  0  0  0  0  0  0  0  0  0  0
    8.4361   -0.4434    4.1011 F   0  0  0  0  0  0  0  0  0  0  0  0
  1  6  2  0  0  0  0
  2  3  2  0  0  0  0
  2  1  1  0  0  0  0
  3  4  1  0  0  0  0
  4  5  2  0  0  0  0
  5 12  1  0  0  0  0
  6  5  1  0  0  0  0
  6 11  1  0  0  0  0
  7  1  1  0  0  0  0
  8  2  1  0  0  0  0
 10  9  3  0  0  0  0
 13 16  1  0  0  0  0
 14 15  2  0  0  0  0
 15 17  1  0  0  0  0
 15 16  1  0  0  0  0
 17 19  1  0  0  0  0
 17 20  1  0  0  0  0
 18 17  1  0  0  0  0
M  RAD  2   3   2   4   2
M  END
