Coordinates from ORCA-job Ph-N2-OOCCF3-B3LYPG-aug-cc-pVDZ-scan-d09-49-n400
 OpenBabel11081710403D

 20 18  0  0  0  0  0  0  0  0999 V2000
   13.3507    6.0366    2.4024 C   0  0  0  0  0  0  0  0  0  0  0  0
   12.3242    5.5741    1.5378 C   0  0  0  0  0  0  0  0  0  0  0  0
   11.8813    4.3835    2.0518 C   0  0  0  0  0  0  0  0  0  0  0  0
   12.1582    3.6601    3.0440 C   0  0  0  0  0  0  0  0  0  0  0  0
   13.1728    4.0932    3.9202 C   0  0  0  0  0  0  0  0  0  0  0  0
   13.7554    5.3217    3.5463 C   0  0  0  0  0  0  0  0  0  0  0  0
   13.8362    6.9836    2.1595 H   0  0  0  0  0  0  0  0  0  0  0  0
   11.9922    6.1042    0.6498 H   0  0  0  0  0  0  0  0  0  0  0  0
    9.0230    4.4561   -1.5507 N   0  0  0  0  0  0  0  0  0  0  0  0
    8.1895    3.8690   -1.9747 N   0  0  0  0  0  0  0  0  0  0  0  0
   14.5516    5.7359    4.1673 H   0  0  0  0  0  0  0  0  0  0  0  0
   13.4953    3.5502    4.8077 H   0  0  0  0  0  0  0  0  0  0  0  0
   11.0256    1.9478    3.1655 H   0  0  0  0  0  0  0  0  0  0  0  0
    9.3523    1.4671    1.5149 O   0  0  0  0  0  0  0  0  0  0  0  0
    9.6566    0.8114    2.4775 C   0  0  0  0  0  0  0  0  0  0  0  0
   10.5877    1.0898    3.3863 O   0  0  0  0  0  0  0  0  0  0  0  0
    8.9692   -0.5361    2.8241 C   0  0  0  0  0  0  0  0  0  0  0  0
    8.0271   -0.8361    1.9215 F   0  0  0  0  0  0  0  0  0  0  0  0
    9.8726   -1.5418    2.8442 F   0  0  0  0  0  0  0  0  0  0  0  0
    8.3854   -0.4750    4.0420 F   0  0  0  0  0  0  0  0  0  0  0  0
  1  6  2  0  0  0  0
  2  3  2  0  0  0  0
  2  1  1  0  0  0  0
  3  4  1  0  0  0  0
  4  5  2  0  0  0  0
  5 12  1  0  0  0  0
  6  5  1  0  0  0  0
  6 11  1  0  0  0  0
  7  1  1  0  0  0  0
  8  2  1  0  0  0  0
 10  9  3  0  0  0  0
 13 16  1  0  0  0  0
 14 15  2  0  0  0  0
 15 17  1  0  0  0  0
 15 16  1  0  0  0  0
 17 19  1  0  0  0  0
 17 20  1  0  0  0  0
 18 17  1  0  0  0  0
M  RAD  2   3   2   4   2
M  END
