Coordinates from ORCA-job Ph-N2-OOCCF3-B3LYPG-aug-cc-pVDZ-scan-d09-49-n400
 OpenBabel11081710403D

 20 20  0  0  1  0  0  0  0  0999 V2000
   11.8709    5.5182    2.0124 C   0  0  0  0  0  0  0  0  0  0  0  0
   12.0842    4.6400    1.0096 C   0  0  0  0  0  0  0  0  0  0  0  0
   12.3599    3.2199    1.2871 C   0  0  0  0  0  0  0  0  0  0  0  0
   12.1877    2.6992    2.7218 C   0  0  1  0  0  0  0  0  0  0  0  0
   12.0523    3.7853    3.7369 C   0  0  0  0  0  0  0  0  0  0  0  0
   11.8992    5.0814    3.3969 C   0  0  0  0  0  0  0  0  0  0  0  0
   11.6765    6.5654    1.7859 H   0  0  0  0  0  0  0  0  0  0  0  0
   12.0706    4.9393   -0.0383 H   0  0  0  0  0  0  0  0  0  0  0  0
   12.6894    2.5203    0.5040 N   0  0  0  0  0  0  0  0  0  0  0  0
   13.0364    1.7729   -0.3096 N   0  0  0  0  0  0  0  0  0  0  0  0
   11.7995    5.8319    4.1820 H   0  0  0  0  0  0  0  0  0  0  0  0
   12.0837    3.4727    4.7806 H   0  0  0  0  0  0  0  0  0  0  0  0
   13.0188    2.0248    2.9614 H   0  0  0  0  0  0  0  0  0  0  0  0
    9.4591    3.1517    2.0557 O   0  0  0  0  0  0  0  0  0  0  0  0
    9.8206    2.0977    2.5068 C   0  0  0  0  0  0  0  0  0  0  0  0
   11.0571    1.7154    2.8284 O   0  0  0  0  0  0  0  0  0  0  0  0
    8.8349    0.9333    2.8058 C   0  0  0  0  0  0  0  0  0  0  0  0
    9.1892   -0.1870    2.1402 F   0  0  0  0  0  0  0  0  0  0  0  0
    8.8275    0.6498    4.1288 F   0  0  0  0  0  0  0  0  0  0  0  0
    7.5898    1.2632    2.4411 F   0  0  0  0  0  0  0  0  0  0  0  0
  1  6  1  0  0  0  0
  2  3  2  0  0  0  0
  2  1  1  0  0  0  0
  3  4  1  0  0  0  0
  4 16  1  0  0  0  0
  4 13  1  1  0  0  0
  4  5  1  0  0  0  0
  5 12  1  0  0  0  0
  6  5  2  0  0  0  0
  6 11  1  0  0  0  0
  7  1  1  0  0  0  0
  8  2  1  0  0  0  0
  9  3  1  0  0  0  0
 10  9  1  0  0  0  0
 14 15  2  0  0  0  0
 15 17  1  0  0  0  0
 15 16  1  0  0  0  0
 17 19  1  0  0  0  0
 18 17  1  0  0  0  0
 20 17  1  0  0  0  0
M  RAD  3   1   2   9   2  10   3
M  END
