Coordinates from ORCA-job Ph-N2-OOCCF3-B3LYPG-aug-cc-pVDZ-scan-d09-49-n400
 OpenBabel11081710403D

 20 18  0  0  0  0  0  0  0  0999 V2000
   13.3417    6.0672    2.3597 C   0  0  0  0  0  0  0  0  0  0  0  0
   12.3328    5.7179    1.4238 C   0  0  0  0  0  0  0  0  0  0  0  0
   11.8079    4.5255    1.8423 C   0  0  0  0  0  0  0  0  0  0  0  0
   11.9880    3.7157    2.7909 C   0  0  0  0  0  0  0  0  0  0  0  0
   12.9871    4.0443    3.7336 C   0  0  0  0  0  0  0  0  0  0  0  0
   13.6527    5.2583    3.4697 C   0  0  0  0  0  0  0  0  0  0  0  0
   13.8876    6.9989    2.2005 H   0  0  0  0  0  0  0  0  0  0  0  0
   12.0682    6.3179    0.5584 H   0  0  0  0  0  0  0  0  0  0  0  0
    9.5138    4.3613   -0.8310 N   0  0  0  0  0  0  0  0  0  0  0  0
    8.6855    3.8205   -1.3213 N   0  0  0  0  0  0  0  0  0  0  0  0
   14.4398    5.5852    4.1513 H   0  0  0  0  0  0  0  0  0  0  0  0
   13.2386    3.4289    4.5967 H   0  0  0  0  0  0  0  0  0  0  0  0
   10.9289    2.0313    2.9861 H   0  0  0  0  0  0  0  0  0  0  0  0
    9.2320    1.3664    1.4177 O   0  0  0  0  0  0  0  0  0  0  0  0
    9.5946    0.7896    2.4103 C   0  0  0  0  0  0  0  0  0  0  0  0
   10.5351    1.1675    3.2709 O   0  0  0  0  0  0  0  0  0  0  0  0
    8.9816   -0.5632    2.8615 C   0  0  0  0  0  0  0  0  0  0  0  0
    8.0315   -0.9643    2.0078 F   0  0  0  0  0  0  0  0  0  0  0  0
    9.9322   -1.5230    2.9190 F   0  0  0  0  0  0  0  0  0  0  0  0
    8.4275   -0.4505    4.0897 F   0  0  0  0  0  0  0  0  0  0  0  0
  1  6  2  0  0  0  0
  2  3  2  0  0  0  0
  2  1  1  0  0  0  0
  3  4  1  0  0  0  0
  4  5  2  0  0  0  0
  5 12  1  0  0  0  0
  6  5  1  0  0  0  0
  6 11  1  0  0  0  0
  7  1  1  0  0  0  0
  8  2  1  0  0  0  0
 10  9  3  0  0  0  0
 13 16  1  0  0  0  0
 14 15  2  0  0  0  0
 15 17  1  0  0  0  0
 15 16  1  0  0  0  0
 17 19  1  0  0  0  0
 17 20  1  0  0  0  0
 18 17  1  0  0  0  0
M  RAD  2   3   2   4   2
M  END
