Coordinates from ORCA-job Ph-N2-OOCCF3-B3LYPG-aug-cc-pVDZ-scan-d09-49-n400
 OpenBabel11081710403D

 20 18  0  0  0  0  0  0  0  0999 V2000
   13.3462    6.0668    2.3669 C   0  0  0  0  0  0  0  0  0  0  0  0
   12.3364    5.7110    1.4345 C   0  0  0  0  0  0  0  0  0  0  0  0
   11.8163    4.5181    1.8580 C   0  0  0  0  0  0  0  0  0  0  0  0
   12.0023    3.7129    2.8093 C   0  0  0  0  0  0  0  0  0  0  0  0
   13.0021    4.0473    3.7487 C   0  0  0  0  0  0  0  0  0  0  0  0
   13.6627    5.2628    3.4788 C   0  0  0  0  0  0  0  0  0  0  0  0
   13.8885    6.9999    2.2033 H   0  0  0  0  0  0  0  0  0  0  0  0
   12.0678    6.3074    0.5677 H   0  0  0  0  0  0  0  0  0  0  0  0
    9.4635    4.3609   -0.8976 N   0  0  0  0  0  0  0  0  0  0  0  0
    8.6346    3.8111   -1.3769 N   0  0  0  0  0  0  0  0  0  0  0  0
   14.4504    5.5948    4.1574 H   0  0  0  0  0  0  0  0  0  0  0  0
   13.2579    3.4358    4.6133 H   0  0  0  0  0  0  0  0  0  0  0  0
   10.9368    2.0261    2.9980 H   0  0  0  0  0  0  0  0  0  0  0  0
    9.2394    1.3756    1.4247 O   0  0  0  0  0  0  0  0  0  0  0  0
    9.5989    0.7923    2.4147 C   0  0  0  0  0  0  0  0  0  0  0  0
   10.5401    1.1625    3.2781 O   0  0  0  0  0  0  0  0  0  0  0  0
    8.9805   -0.5605    2.8584 C   0  0  0  0  0  0  0  0  0  0  0  0
    8.0299   -0.9539    2.0017 F   0  0  0  0  0  0  0  0  0  0  0  0
    9.9275   -1.5239    2.9122 F   0  0  0  0  0  0  0  0  0  0  0  0
    8.4254   -0.4518    4.0865 F   0  0  0  0  0  0  0  0  0  0  0  0
  1  6  2  0  0  0  0
  2  3  2  0  0  0  0
  2  1  1  0  0  0  0
  3  4  1  0  0  0  0
  4  5  2  0  0  0  0
  5 12  1  0  0  0  0
  6  5  1  0  0  0  0
  6 11  1  0  0  0  0
  7  1  1  0  0  0  0
  8  2  1  0  0  0  0
 10  9  3  0  0  0  0
 13 16  1  0  0  0  0
 14 15  2  0  0  0  0
 15 17  1  0  0  0  0
 15 16  1  0  0  0  0
 17 19  1  0  0  0  0
 17 20  1  0  0  0  0
 18 17  1  0  0  0  0
M  RAD  2   3   2   4   2
M  END
