Coordinates from ORCA-job Ph-N2-OOCCF3-B3LYPG-aug-cc-pVDZ-scan-d09-49-n400
 OpenBabel11081710403D

 20 18  0  0  0  0  0  0  0  0999 V2000
   13.3114    6.0629    2.3117 C   0  0  0  0  0  0  0  0  0  0  0  0
   12.3164    5.7816    1.3410 C   0  0  0  0  0  0  0  0  0  0  0  0
   11.7348    4.5968    1.6999 C   0  0  0  0  0  0  0  0  0  0  0  0
   11.8496    3.7375    2.6193 C   0  0  0  0  0  0  0  0  0  0  0  0
   12.8404    4.0095    3.5939 C   0  0  0  0  0  0  0  0  0  0  0  0
   13.5603    5.2034    3.3981 C   0  0  0  0  0  0  0  0  0  0  0  0
   13.8938    6.9789    2.1988 H   0  0  0  0  0  0  0  0  0  0  0  0
   12.0956    6.4194    0.4907 H   0  0  0  0  0  0  0  0  0  0  0  0
    9.8987    4.3884   -0.3431 N   0  0  0  0  0  0  0  0  0  0  0  0
    9.0744    3.8503   -0.8427 N   0  0  0  0  0  0  0  0  0  0  0  0
   14.3393    5.4730    4.1132 H   0  0  0  0  0  0  0  0  0  0  0  0
   13.0454    3.3542    4.4402 H   0  0  0  0  0  0  0  0  0  0  0  0
   10.8743    2.0850    2.8942 H   0  0  0  0  0  0  0  0  0  0  0  0
    9.1868    1.3031    1.3710 O   0  0  0  0  0  0  0  0  0  0  0  0
    9.5740    0.7776    2.3832 C   0  0  0  0  0  0  0  0  0  0  0  0
   10.5071    1.2180    3.2185 O   0  0  0  0  0  0  0  0  0  0  0  0
    9.0046   -0.5742    2.8911 C   0  0  0  0  0  0  0  0  0  0  0  0
    8.0617   -1.0374    2.0609 F   0  0  0  0  0  0  0  0  0  0  0  0
    9.9839   -1.5025    2.9794 F   0  0  0  0  0  0  0  0  0  0  0  0
    8.4546   -0.4302    4.1181 F   0  0  0  0  0  0  0  0  0  0  0  0
  1  6  2  0  0  0  0
  2  3  2  0  0  0  0
  2  1  1  0  0  0  0
  3  4  1  0  0  0  0
  4  5  2  0  0  0  0
  5 12  1  0  0  0  0
  6  5  1  0  0  0  0
  6 11  1  0  0  0  0
  7  1  1  0  0  0  0
  8  2  1  0  0  0  0
 10  9  3  0  0  0  0
 13 16  1  0  0  0  0
 14 15  2  0  0  0  0
 15 17  1  0  0  0  0
 15 16  1  0  0  0  0
 17 19  1  0  0  0  0
 17 20  1  0  0  0  0
 18 17  1  0  0  0  0
M  RAD  2   3   2   4   2
M  END
