Coordinates from ORCA-job Ph-N2-OOCCF3-B3LYPG-aug-cc-pVDZ-scan-d09-49-n400
 OpenBabel11081710403D

 20 18  0  0  0  0  0  0  0  0999 V2000
   13.3064    6.0602    2.3020 C   0  0  0  0  0  0  0  0  0  0  0  0
   12.3143    5.7920    1.3244 C   0  0  0  0  0  0  0  0  0  0  0  0
   11.7234    4.6118    1.6749 C   0  0  0  0  0  0  0  0  0  0  0  0
   11.8204    3.7413    2.5875 C   0  0  0  0  0  0  0  0  0  0  0  0
   12.8096    4.0034    3.5676 C   0  0  0  0  0  0  0  0  0  0  0  0
   13.5417    5.1920    3.3846 C   0  0  0  0  0  0  0  0  0  0  0  0
   13.8972    6.9720    2.1980 H   0  0  0  0  0  0  0  0  0  0  0  0
   12.1030    6.4363    0.4763 H   0  0  0  0  0  0  0  0  0  0  0  0
    9.9675    4.3743   -0.2337 N   0  0  0  0  0  0  0  0  0  0  0  0
    9.1431    3.8383   -0.7353 N   0  0  0  0  0  0  0  0  0  0  0  0
   14.3186    5.4507    4.1058 H   0  0  0  0  0  0  0  0  0  0  0  0
   13.0043    3.3413    4.4112 H   0  0  0  0  0  0  0  0  0  0  0  0
   10.8666    2.1013    2.8752 H   0  0  0  0  0  0  0  0  0  0  0  0
    9.1791    1.2962    1.3581 O   0  0  0  0  0  0  0  0  0  0  0  0
    9.5722    0.7812    2.3741 C   0  0  0  0  0  0  0  0  0  0  0  0
   10.5033    1.2323    3.2048 O   0  0  0  0  0  0  0  0  0  0  0  0
    9.0108   -0.5704    2.8918 C   0  0  0  0  0  0  0  0  0  0  0  0
    8.0700   -1.0453    2.0657 F   0  0  0  0  0  0  0  0  0  0  0  0
    9.9953   -1.4926    2.9864 F   0  0  0  0  0  0  0  0  0  0  0  0
    8.4605   -0.4209    4.1181 F   0  0  0  0  0  0  0  0  0  0  0  0
  1  6  2  0  0  0  0
  2  3  2  0  0  0  0
  2  1  1  0  0  0  0
  3  4  1  0  0  0  0
  4  5  2  0  0  0  0
  5 12  1  0  0  0  0
  6  5  1  0  0  0  0
  6 11  1  0  0  0  0
  7  1  1  0  0  0  0
  8  2  1  0  0  0  0
 10  9  3  0  0  0  0
 13 16  1  0  0  0  0
 14 15  2  0  0  0  0
 15 17  1  0  0  0  0
 15 16  1  0  0  0  0
 17 19  1  0  0  0  0
 17 20  1  0  0  0  0
 18 17  1  0  0  0  0
M  RAD  2   3   2   4   2
M  END
