Coordinates from ORCA-job Ph-N2-OOCCF3-B3LYPG-aug-cc-pVDZ-scan-d09-49-n400
 OpenBabel11081710403D

 20 18  0  0  0  0  0  0  0  0999 V2000
   13.3487    6.0269    2.4081 C   0  0  0  0  0  0  0  0  0  0  0  0
   12.3210    5.5508    1.5524 C   0  0  0  0  0  0  0  0  0  0  0  0
   11.8881    4.3613    2.0780 C   0  0  0  0  0  0  0  0  0  0  0  0
   12.1754    3.6488    3.0749 C   0  0  0  0  0  0  0  0  0  0  0  0
   13.1913    4.0947    3.9428 C   0  0  0  0  0  0  0  0  0  0  0  0
   13.7638    5.3239    3.5558 C   0  0  0  0  0  0  0  0  0  0  0  0
   13.8269    6.9750    2.1552 H   0  0  0  0  0  0  0  0  0  0  0  0
   11.9814    6.0717    0.6618 H   0  0  0  0  0  0  0  0  0  0  0  0
    8.9521    4.5425   -1.7147 N   0  0  0  0  0  0  0  0  0  0  0  0
    8.1166    3.9563   -2.1361 N   0  0  0  0  0  0  0  0  0  0  0  0
   14.5604    5.7484    4.1694 H   0  0  0  0  0  0  0  0  0  0  0  0
   13.5217    3.5611    4.8330 H   0  0  0  0  0  0  0  0  0  0  0  0
   11.0387    1.9315    3.1952 H   0  0  0  0  0  0  0  0  0  0  0  0
    9.3677    1.4593    1.5408 O   0  0  0  0  0  0  0  0  0  0  0  0
    9.6688    0.8001    2.5020 C   0  0  0  0  0  0  0  0  0  0  0  0
   10.5990    1.0740    3.4133 O   0  0  0  0  0  0  0  0  0  0  0  0
    8.9778   -0.5468    2.8437 C   0  0  0  0  0  0  0  0  0  0  0  0
    8.0367   -0.8422    1.9386 F   0  0  0  0  0  0  0  0  0  0  0  0
    9.8790   -1.5544    2.8626 F   0  0  0  0  0  0  0  0  0  0  0  0
    8.3920   -0.4877    4.0607 F   0  0  0  0  0  0  0  0  0  0  0  0
  1  6  2  0  0  0  0
  2  3  2  0  0  0  0
  2  1  1  0  0  0  0
  3  4  1  0  0  0  0
  4  5  2  0  0  0  0
  5 12  1  0  0  0  0
  6  5  1  0  0  0  0
  6 11  1  0  0  0  0
  7  1  1  0  0  0  0
  8  2  1  0  0  0  0
 10  9  3  0  0  0  0
 13 16  1  0  0  0  0
 14 15  2  0  0  0  0
 15 17  1  0  0  0  0
 15 16  1  0  0  0  0
 17 19  1  0  0  0  0
 17 20  1  0  0  0  0
 18 17  1  0  0  0  0
M  RAD  2   3   2   4   2
M  END
