Coordinates from ORCA-job Ph-N2-OOCCF3-B3LYPG-aug-cc-pVDZ-scan-d09-49-n400
 OpenBabel11081710403D

 20 18  0  0  0  0  0  0  0  0999 V2000
   13.3088    6.0618    2.3070 C   0  0  0  0  0  0  0  0  0  0  0  0
   12.3141    5.7854    1.3329 C   0  0  0  0  0  0  0  0  0  0  0  0
   11.7335    4.6036    1.6930 C   0  0  0  0  0  0  0  0  0  0  0  0
   11.8373    3.7370    2.6077 C   0  0  0  0  0  0  0  0  0  0  0  0
   12.8282    4.0071    3.5837 C   0  0  0  0  0  0  0  0  0  0  0  0
   13.5527    5.1993    3.3921 C   0  0  0  0  0  0  0  0  0  0  0  0
   13.8945    6.9762    2.1974 H   0  0  0  0  0  0  0  0  0  0  0  0
   12.0972    6.4258    0.4835 H   0  0  0  0  0  0  0  0  0  0  0  0
    9.9292    4.3833   -0.2960 N   0  0  0  0  0  0  0  0  0  0  0  0
    9.1049    3.8440   -0.7942 N   0  0  0  0  0  0  0  0  0  0  0  0
   14.3311    5.4655    4.1091 H   0  0  0  0  0  0  0  0  0  0  0  0
   13.0297    3.3497    4.4293 H   0  0  0  0  0  0  0  0  0  0  0  0
   10.8714    2.0922    2.8863 H   0  0  0  0  0  0  0  0  0  0  0  0
    9.1814    1.2988    1.3635 O   0  0  0  0  0  0  0  0  0  0  0  0
    9.5723    0.7792    2.3778 C   0  0  0  0  0  0  0  0  0  0  0  0
   10.5044    1.2242    3.2112 O   0  0  0  0  0  0  0  0  0  0  0  0
    9.0067   -0.5725    2.8908 C   0  0  0  0  0  0  0  0  0  0  0  0
    8.0645   -1.0414    2.0629 F   0  0  0  0  0  0  0  0  0  0  0  0
    9.9884   -1.4981    2.9819 F   0  0  0  0  0  0  0  0  0  0  0  0
    8.4569   -0.4258    4.1176 F   0  0  0  0  0  0  0  0  0  0  0  0
  1  6  2  0  0  0  0
  2  3  2  0  0  0  0
  2  1  1  0  0  0  0
  3  4  1  0  0  0  0
  4  5  2  0  0  0  0
  5 12  1  0  0  0  0
  6  5  1  0  0  0  0
  6 11  1  0  0  0  0
  7  1  1  0  0  0  0
  8  2  1  0  0  0  0
 10  9  3  0  0  0  0
 13 16  1  0  0  0  0
 14 15  2  0  0  0  0
 15 17  1  0  0  0  0
 15 16  1  0  0  0  0
 17 19  1  0  0  0  0
 17 20  1  0  0  0  0
 18 17  1  0  0  0  0
M  RAD  2   3   2   4   2
M  END
