Coordinates from ORCA-job Ph-N2-OOCCF3-B3LYPG-aug-cc-pVDZ-scan-d09-49-n400
 OpenBabel11081710403D

 20 20  0  0  1  0  0  0  0  0999 V2000
   11.8593    5.5171    2.0119 C   0  0  0  0  0  0  0  0  0  0  0  0
   12.0809    4.6374    1.0101 C   0  0  0  0  0  0  0  0  0  0  0  0
   12.3634    3.2276    1.2989 C   0  0  0  0  0  0  0  0  0  0  0  0
   12.1926    2.6995    2.7216 C   0  0  1  0  0  0  0  0  0  0  0  0
   12.0593    3.7854    3.7371 C   0  0  0  0  0  0  0  0  0  0  0  0
   11.8944    5.0806    3.3955 C   0  0  0  0  0  0  0  0  0  0  0  0
   11.6570    6.5625    1.7847 H   0  0  0  0  0  0  0  0  0  0  0  0
   12.0679    4.9365   -0.0377 H   0  0  0  0  0  0  0  0  0  0  0  0
   12.7138    2.5067    0.4874 N   0  0  0  0  0  0  0  0  0  0  0  0
   13.0685    1.7663   -0.3231 N   0  0  0  0  0  0  0  0  0  0  0  0
   11.7930    5.8308    4.1807 H   0  0  0  0  0  0  0  0  0  0  0  0
   12.0986    3.4754    4.7812 H   0  0  0  0  0  0  0  0  0  0  0  0
   13.0158    2.0173    2.9646 H   0  0  0  0  0  0  0  0  0  0  0  0
    9.4546    3.1585    2.0666 O   0  0  0  0  0  0  0  0  0  0  0  0
    9.8172    2.1023    2.5125 C   0  0  0  0  0  0  0  0  0  0  0  0
   11.0524    1.7164    2.8299 O   0  0  0  0  0  0  0  0  0  0  0  0
    8.8297    0.9379    2.8072 C   0  0  0  0  0  0  0  0  0  0  0  0
    9.1765   -0.1769    2.1274 F   0  0  0  0  0  0  0  0  0  0  0  0
    8.8295    0.6400    4.1270 F   0  0  0  0  0  0  0  0  0  0  0  0
    7.5828    1.2741    2.4538 F   0  0  0  0  0  0  0  0  0  0  0  0
  1  6  1  0  0  0  0
  2  3  2  0  0  0  0
  2  1  1  0  0  0  0
  3  4  1  0  0  0  0
  4 16  1  0  0  0  0
  4 13  1  1  0  0  0
  4  5  1  0  0  0  0
  5 12  1  0  0  0  0
  6  5  2  0  0  0  0
  6 11  1  0  0  0  0
  7  1  1  0  0  0  0
  8  2  1  0  0  0  0
  9  3  1  0  0  0  0
 10  9  1  0  0  0  0
 14 15  2  0  0  0  0
 15 17  1  0  0  0  0
 15 16  1  0  0  0  0
 17 19  1  0  0  0  0
 18 17  1  0  0  0  0
 20 17  1  0  0  0  0
M  RAD  3   1   2   9   2  10   3
M  END
