Coordinates from ORCA-job Ph-N2-OOCCF3-B3LYPG-aug-cc-pVDZ-scan-d09-49-n400
 OpenBabel11081710403D

 20 18  0  0  0  0  0  0  0  0999 V2000
   13.3365    6.0685    2.3503 C   0  0  0  0  0  0  0  0  0  0  0  0
   12.3288    5.7272    1.4102 C   0  0  0  0  0  0  0  0  0  0  0  0
   11.7977    4.5356    1.8226 C   0  0  0  0  0  0  0  0  0  0  0  0
   11.9703    3.7201    2.7680 C   0  0  0  0  0  0  0  0  0  0  0  0
   12.9686    4.0417    3.7145 C   0  0  0  0  0  0  0  0  0  0  0  0
   13.6405    5.2537    3.4578 C   0  0  0  0  0  0  0  0  0  0  0  0
   13.8868    6.9985    2.1963 H   0  0  0  0  0  0  0  0  0  0  0  0
   12.0690    6.3315    0.5464 H   0  0  0  0  0  0  0  0  0  0  0  0
    9.5781    4.3571   -0.7417 N   0  0  0  0  0  0  0  0  0  0  0  0
    8.7508    3.8260   -1.2441 N   0  0  0  0  0  0  0  0  0  0  0  0
   14.4271    5.5741    4.1431 H   0  0  0  0  0  0  0  0  0  0  0  0
   13.2150    3.4218    4.5758 H   0  0  0  0  0  0  0  0  0  0  0  0
   10.9187    2.0374    2.9713 H   0  0  0  0  0  0  0  0  0  0  0  0
    9.2230    1.3558    1.4082 O   0  0  0  0  0  0  0  0  0  0  0  0
    9.5890    0.7864    2.4040 C   0  0  0  0  0  0  0  0  0  0  0  0
   10.5286    1.1732    3.2613 O   0  0  0  0  0  0  0  0  0  0  0  0
    8.9818   -0.5663    2.8635 C   0  0  0  0  0  0  0  0  0  0  0  0
    8.0322   -0.9759    2.0132 F   0  0  0  0  0  0  0  0  0  0  0  0
    9.9361   -1.5221    2.9253 F   0  0  0  0  0  0  0  0  0  0  0  0
    8.4287   -0.4488    4.0917 F   0  0  0  0  0  0  0  0  0  0  0  0
  1  6  2  0  0  0  0
  2  3  2  0  0  0  0
  2  1  1  0  0  0  0
  3  4  1  0  0  0  0
  4  5  2  0  0  0  0
  5 12  1  0  0  0  0
  6  5  1  0  0  0  0
  6 11  1  0  0  0  0
  7  1  1  0  0  0  0
  8  2  1  0  0  0  0
 10  9  3  0  0  0  0
 13 16  1  0  0  0  0
 14 15  2  0  0  0  0
 15 17  1  0  0  0  0
 15 16  1  0  0  0  0
 17 19  1  0  0  0  0
 17 20  1  0  0  0  0
 18 17  1  0  0  0  0
M  RAD  2   3   2   4   2
M  END
