Coordinates from ORCA-job Ph-N2-OOCCF3-B3LYPG-aug-cc-pVDZ-scan-d09-49-n400
 OpenBabel11081710403D

 20 18  0  0  0  0  0  0  0  0999 V2000
   13.3501    6.0664    2.3729 C   0  0  0  0  0  0  0  0  0  0  0  0
   12.3396    5.7059    1.4431 C   0  0  0  0  0  0  0  0  0  0  0  0
   11.8230    4.5125    1.8703 C   0  0  0  0  0  0  0  0  0  0  0  0
   12.0132    3.7109    2.8235 C   0  0  0  0  0  0  0  0  0  0  0  0
   13.0136    4.0494    3.7606 C   0  0  0  0  0  0  0  0  0  0  0  0
   13.6705    5.2660    3.4864 C   0  0  0  0  0  0  0  0  0  0  0  0
   13.8898    7.0004    2.2061 H   0  0  0  0  0  0  0  0  0  0  0  0
   12.0682    6.2997    0.5753 H   0  0  0  0  0  0  0  0  0  0  0  0
    9.4225    4.3589   -0.9504 N   0  0  0  0  0  0  0  0  0  0  0  0
    8.5933    3.8013   -1.4201 N   0  0  0  0  0  0  0  0  0  0  0  0
   14.4585    5.6017    4.1627 H   0  0  0  0  0  0  0  0  0  0  0  0
   13.2723    3.4407    4.6262 H   0  0  0  0  0  0  0  0  0  0  0  0
   10.9431    2.0228    3.0068 H   0  0  0  0  0  0  0  0  0  0  0  0
    9.2453    1.3833    1.4299 O   0  0  0  0  0  0  0  0  0  0  0  0
    9.6024    0.7951    2.4178 C   0  0  0  0  0  0  0  0  0  0  0  0
   10.5441    1.1593    3.2833 O   0  0  0  0  0  0  0  0  0  0  0  0
    8.9799   -0.5577    2.8558 C   0  0  0  0  0  0  0  0  0  0  0  0
    8.0289   -0.9451    1.9969 F   0  0  0  0  0  0  0  0  0  0  0  0
    9.9243   -1.5239    2.9065 F   0  0  0  0  0  0  0  0  0  0  0  0
    8.4243   -0.4523    4.0839 F   0  0  0  0  0  0  0  0  0  0  0  0
  1  6  2  0  0  0  0
  2  3  2  0  0  0  0
  2  1  1  0  0  0  0
  3  4  1  0  0  0  0
  4  5  2  0  0  0  0
  5 12  1  0  0  0  0
  6  5  1  0  0  0  0
  6 11  1  0  0  0  0
  7  1  1  0  0  0  0
  8  2  1  0  0  0  0
 10  9  3  0  0  0  0
 13 16  1  0  0  0  0
 14 15  2  0  0  0  0
 15 17  1  0  0  0  0
 15 16  1  0  0  0  0
 17 19  1  0  0  0  0
 17 20  1  0  0  0  0
 18 17  1  0  0  0  0
M  RAD  2   3   2   4   2
M  END
