Coordinates from ORCA-job Ph-N2-OOCCF3-B3LYPG-aug-cc-pVDZ-scan-d09-49-n400
 OpenBabel11081710403D

 20 18  0  0  0  0  0  0  0  0999 V2000
   13.3296    6.0689    2.3377 C   0  0  0  0  0  0  0  0  0  0  0  0
   12.3254    5.7467    1.3876 C   0  0  0  0  0  0  0  0  0  0  0  0
   11.7784    4.5568    1.7833 C   0  0  0  0  0  0  0  0  0  0  0  0
   11.9354    3.7287    2.7218 C   0  0  0  0  0  0  0  0  0  0  0  0
   12.9308    4.0330    3.6777 C   0  0  0  0  0  0  0  0  0  0  0  0
   13.6173    5.2402    3.4390 C   0  0  0  0  0  0  0  0  0  0  0  0
   13.8901    6.9949    2.1967 H   0  0  0  0  0  0  0  0  0  0  0  0
   12.0780    6.3623    0.5281 H   0  0  0  0  0  0  0  0  0  0  0  0
    9.6811    4.3598   -0.6065 N   0  0  0  0  0  0  0  0  0  0  0  0
    8.8553    3.8313   -1.1137 N   0  0  0  0  0  0  0  0  0  0  0  0
   14.4020    5.5453    4.1333 H   0  0  0  0  0  0  0  0  0  0  0  0
   13.1647    3.4019    4.5344 H   0  0  0  0  0  0  0  0  0  0  0  0
   10.9014    2.0514    2.9440 H   0  0  0  0  0  0  0  0  0  0  0  0
    9.2075    1.3364    1.3937 O   0  0  0  0  0  0  0  0  0  0  0  0
    9.5810    0.7818    2.3950 C   0  0  0  0  0  0  0  0  0  0  0  0
   10.5189    1.1868    3.2453 O   0  0  0  0  0  0  0  0  0  0  0  0
    8.9866   -0.5708    2.8712 C   0  0  0  0  0  0  0  0  0  0  0  0
    8.0394   -0.9989    2.0274 F   0  0  0  0  0  0  0  0  0  0  0  0
    9.9496   -1.5172    2.9426 F   0  0  0  0  0  0  0  0  0  0  0  0
    8.4344   -0.4440    4.0989 F   0  0  0  0  0  0  0  0  0  0  0  0
  1  6  2  0  0  0  0
  2  3  2  0  0  0  0
  2  1  1  0  0  0  0
  3  4  1  0  0  0  0
  4  5  2  0  0  0  0
  5 12  1  0  0  0  0
  6  5  1  0  0  0  0
  6 11  1  0  0  0  0
  7  1  1  0  0  0  0
  8  2  1  0  0  0  0
 10  9  3  0  0  0  0
 13 16  1  0  0  0  0
 14 15  2  0  0  0  0
 15 17  1  0  0  0  0
 15 16  1  0  0  0  0
 17 19  1  0  0  0  0
 17 20  1  0  0  0  0
 18 17  1  0  0  0  0
M  RAD  2   3   2   4   2
M  END
