Coordinates from ORCA-job Ph-N2-OOCCF3-B3LYPG-aug-cc-pVDZ-scan-d09-49-n400
 OpenBabel11081710403D

 20 18  0  0  0  0  0  0  0  0999 V2000
   13.3522    6.0409    2.4006 C   0  0  0  0  0  0  0  0  0  0  0  0
   12.3265    5.5855    1.5313 C   0  0  0  0  0  0  0  0  0  0  0  0
   11.8782    4.3944    2.0390 C   0  0  0  0  0  0  0  0  0  0  0  0
   12.1494    3.6653    3.0287 C   0  0  0  0  0  0  0  0  0  0  0  0
   13.1633    4.0915    3.9094 C   0  0  0  0  0  0  0  0  0  0  0  0
   13.7512    5.3195    3.5426 C   0  0  0  0  0  0  0  0  0  0  0  0
   13.8416    6.9873    2.1632 H   0  0  0  0  0  0  0  0  0  0  0  0
   11.9989    6.1207    0.6447 H   0  0  0  0  0  0  0  0  0  0  0  0
    9.0524    4.4259   -1.4874 N   0  0  0  0  0  0  0  0  0  0  0  0
    8.2197    3.8387   -1.9128 N   0  0  0  0  0  0  0  0  0  0  0  0
   14.5471    5.7281    4.1677 H   0  0  0  0  0  0  0  0  0  0  0  0
   13.4814    3.5436    4.7954 H   0  0  0  0  0  0  0  0  0  0  0  0
   11.0192    1.9552    3.1515 H   0  0  0  0  0  0  0  0  0  0  0  0
    9.3438    1.4671    1.5045 O   0  0  0  0  0  0  0  0  0  0  0  0
    9.6511    0.8144    2.4682 C   0  0  0  0  0  0  0  0  0  0  0  0
   10.5831    1.0968    3.3748 O   0  0  0  0  0  0  0  0  0  0  0  0
    8.9669   -0.5336    2.8192 C   0  0  0  0  0  0  0  0  0  0  0  0
    8.0240   -0.8377    1.9188 F   0  0  0  0  0  0  0  0  0  0  0  0
    9.8723   -1.5374    2.8403 F   0  0  0  0  0  0  0  0  0  0  0  0
    8.3849   -0.4707    4.0379 F   0  0  0  0  0  0  0  0  0  0  0  0
  1  6  2  0  0  0  0
  2  3  2  0  0  0  0
  2  1  1  0  0  0  0
  3  4  1  0  0  0  0
  4  5  2  0  0  0  0
  5 12  1  0  0  0  0
  6  5  1  0  0  0  0
  6 11  1  0  0  0  0
  7  1  1  0  0  0  0
  8  2  1  0  0  0  0
 10  9  3  0  0  0  0
 13 16  1  0  0  0  0
 14 15  2  0  0  0  0
 15 17  1  0  0  0  0
 15 16  1  0  0  0  0
 17 19  1  0  0  0  0
 17 20  1  0  0  0  0
 18 17  1  0  0  0  0
M  RAD  2   3   2   4   2
M  END
