Coordinates from ORCA-job Ph-N2-OOCCF3-B3LYPG-aug-cc-pVDZ-scan-d09-49-n400
 OpenBabel11081710403D

 20 18  0  0  0  0  0  0  0  0999 V2000
   13.3581    6.0662    2.3842 C   0  0  0  0  0  0  0  0  0  0  0  0
   12.3464    5.6968    1.4593 C   0  0  0  0  0  0  0  0  0  0  0  0
   11.8349    4.5028    1.8925 C   0  0  0  0  0  0  0  0  0  0  0  0
   12.0343    3.7085    2.8502 C   0  0  0  0  0  0  0  0  0  0  0  0
   13.0354    4.0546    3.7829 C   0  0  0  0  0  0  0  0  0  0  0  0
   13.6858    5.2728    3.5004 C   0  0  0  0  0  0  0  0  0  0  0  0
   13.8931    7.0017    2.2111 H   0  0  0  0  0  0  0  0  0  0  0  0
   12.0705    6.2860    0.5897 H   0  0  0  0  0  0  0  0  0  0  0  0
    9.3452    4.3417   -1.0364 N   0  0  0  0  0  0  0  0  0  0  0  0
    8.5159    3.7757   -1.4952 N   0  0  0  0  0  0  0  0  0  0  0  0
   14.4745    5.6154    4.1725 H   0  0  0  0  0  0  0  0  0  0  0  0
   13.2997    3.4512    4.6505 H   0  0  0  0  0  0  0  0  0  0  0  0
   10.9546    2.0174    3.0229 H   0  0  0  0  0  0  0  0  0  0  0  0
    9.2568    1.4003    1.4384 O   0  0  0  0  0  0  0  0  0  0  0  0
    9.6087    0.8020    2.4220 C   0  0  0  0  0  0  0  0  0  0  0  0
   10.5508    1.1541    3.2921 O   0  0  0  0  0  0  0  0  0  0  0  0
    8.9781   -0.5509    2.8480 C   0  0  0  0  0  0  0  0  0  0  0  0
    8.0263   -0.9258    1.9843 F   0  0  0  0  0  0  0  0  0  0  0  0
    9.9170   -1.5227    2.8922 F   0  0  0  0  0  0  0  0  0  0  0  0
    8.4210   -0.4525    4.0760 F   0  0  0  0  0  0  0  0  0  0  0  0
  1  6  2  0  0  0  0
  2  3  2  0  0  0  0
  2  1  1  0  0  0  0
  3  4  1  0  0  0  0
  4  5  2  0  0  0  0
  5 12  1  0  0  0  0
  6  5  1  0  0  0  0
  6 11  1  0  0  0  0
  7  1  1  0  0  0  0
  8  2  1  0  0  0  0
 10  9  3  0  0  0  0
 13 16  1  0  0  0  0
 14 15  2  0  0  0  0
 15 17  1  0  0  0  0
 15 16  1  0  0  0  0
 17 19  1  0  0  0  0
 17 20  1  0  0  0  0
 18 17  1  0  0  0  0
M  RAD  2   3   2   4   2
M  END
