Coordinates from ORCA-job Ph-N2-OOCCF3-B3LYPG-aug-cc-pVDZ-scan-d09-49-n400
 OpenBabel11081710403D

 20 18  0  0  0  0  0  0  0  0999 V2000
   13.3580    6.0601    2.3921 C   0  0  0  0  0  0  0  0  0  0  0  0
   12.3411    5.6585    1.4867 C   0  0  0  0  0  0  0  0  0  0  0  0
   11.8520    4.4637    1.9455 C   0  0  0  0  0  0  0  0  0  0  0  0
   12.0805    3.6945    2.9164 C   0  0  0  0  0  0  0  0  0  0  0  0
   13.0859    4.0694    3.8311 C   0  0  0  0  0  0  0  0  0  0  0  0
   13.7127    5.2927    3.5180 C   0  0  0  0  0  0  0  0  0  0  0  0
   13.8758    7.0007    2.1957 H   0  0  0  0  0  0  0  0  0  0  0  0
   12.0464    6.2291    0.6109 H   0  0  0  0  0  0  0  0  0  0  0  0
    9.2362    4.3571   -1.1942 N   0  0  0  0  0  0  0  0  0  0  0  0
    8.4056    3.7856   -1.6442 N   0  0  0  0  0  0  0  0  0  0  0  0
   14.5042    5.6603    4.1735 H   0  0  0  0  0  0  0  0  0  0  0  0
   13.3703    3.4858    4.7057 H   0  0  0  0  0  0  0  0  0  0  0  0
   10.9765    1.9957    3.0634 H   0  0  0  0  0  0  0  0  0  0  0  0
    9.2820    1.4265    1.4601 O   0  0  0  0  0  0  0  0  0  0  0  0
    9.6205    0.8074    2.4352 C   0  0  0  0  0  0  0  0  0  0  0  0
   10.5619    1.1337    3.3163 O   0  0  0  0  0  0  0  0  0  0  0  0
    8.9711   -0.5444    2.8352 C   0  0  0  0  0  0  0  0  0  0  0  0
    8.0196   -0.8931    1.9604 F   0  0  0  0  0  0  0  0  0  0  0  0
    9.8979   -1.5283    2.8680 F   0  0  0  0  0  0  0  0  0  0  0  0
    8.4087   -0.4596    4.0618 F   0  0  0  0  0  0  0  0  0  0  0  0
  1  6  2  0  0  0  0
  2  3  2  0  0  0  0
  2  1  1  0  0  0  0
  3  4  1  0  0  0  0
  4  5  2  0  0  0  0
  5 12  1  0  0  0  0
  6  5  1  0  0  0  0
  6 11  1  0  0  0  0
  7  1  1  0  0  0  0
  8  2  1  0  0  0  0
 10  9  3  0  0  0  0
 13 16  1  0  0  0  0
 14 15  2  0  0  0  0
 15 17  1  0  0  0  0
 15 16  1  0  0  0  0
 17 19  1  0  0  0  0
 17 20  1  0  0  0  0
 18 17  1  0  0  0  0
M  RAD  2   3   2   4   2
M  END
