Coordinates from ORCA-job Ph-N2-OOCCF3-B3LYPG-aug-cc-pVDZ-scan-d09-49-n400
 OpenBabel11081710403D

 20 18  0  0  0  0  0  0  0  0999 V2000
   13.3302    6.0689    2.3388 C   0  0  0  0  0  0  0  0  0  0  0  0
   12.3255    5.7444    1.3898 C   0  0  0  0  0  0  0  0  0  0  0  0
   11.7802    4.5543    1.7875 C   0  0  0  0  0  0  0  0  0  0  0  0
   11.9393    3.7278    2.7269 C   0  0  0  0  0  0  0  0  0  0  0  0
   12.9350    4.0341    3.6817 C   0  0  0  0  0  0  0  0  0  0  0  0
   13.6198    5.2418    3.4408 C   0  0  0  0  0  0  0  0  0  0  0  0
   13.8895    6.9953    2.1961 H   0  0  0  0  0  0  0  0  0  0  0  0
   12.0767    6.3587    0.5298 H   0  0  0  0  0  0  0  0  0  0  0  0
    9.6709    4.3582   -0.6187 N   0  0  0  0  0  0  0  0  0  0  0  0
    8.8450    3.8303   -1.1263 N   0  0  0  0  0  0  0  0  0  0  0  0
   14.4047    5.5488    4.1340 H   0  0  0  0  0  0  0  0  0  0  0  0
   13.1704    3.4043    4.5390 H   0  0  0  0  0  0  0  0  0  0  0  0
   10.9033    2.0499    2.9470 H   0  0  0  0  0  0  0  0  0  0  0  0
    9.2094    1.3389    1.3951 O   0  0  0  0  0  0  0  0  0  0  0  0
    9.5818    0.7826    2.3958 C   0  0  0  0  0  0  0  0  0  0  0  0
   10.5199    1.1854    3.2470 O   0  0  0  0  0  0  0  0  0  0  0  0
    8.9859   -0.5701    2.8699 C   0  0  0  0  0  0  0  0  0  0  0  0
    8.0386   -0.9961    2.0252 F   0  0  0  0  0  0  0  0  0  0  0  0
    9.9479   -1.5176    2.9403 F   0  0  0  0  0  0  0  0  0  0  0  0
    8.4333   -0.4445    4.0976 F   0  0  0  0  0  0  0  0  0  0  0  0
  1  6  2  0  0  0  0
  2  3  2  0  0  0  0
  2  1  1  0  0  0  0
  3  4  1  0  0  0  0
  4  5  2  0  0  0  0
  5 12  1  0  0  0  0
  6  5  1  0  0  0  0
  6 11  1  0  0  0  0
  7  1  1  0  0  0  0
  8  2  1  0  0  0  0
 10  9  3  0  0  0  0
 13 16  1  0  0  0  0
 14 15  2  0  0  0  0
 15 17  1  0  0  0  0
 15 16  1  0  0  0  0
 17 19  1  0  0  0  0
 17 20  1  0  0  0  0
 18 17  1  0  0  0  0
M  RAD  2   3   2   4   2
M  END
