Coordinates from ORCA-job Ph-N2-OOCCF3-B3LYPG-aug-cc-pVDZ-scan-d09-49-n400
 OpenBabel11081710403D

 20 18  0  0  0  0  0  0  0  0999 V2000
   13.3502    6.0337    2.4042 C   0  0  0  0  0  0  0  0  0  0  0  0
   12.3234    5.5672    1.5422 C   0  0  0  0  0  0  0  0  0  0  0  0
   11.8834    4.3769    2.0597 C   0  0  0  0  0  0  0  0  0  0  0  0
   12.1634    3.6567    3.0533 C   0  0  0  0  0  0  0  0  0  0  0  0
   13.1785    4.0936    3.9271 C   0  0  0  0  0  0  0  0  0  0  0  0
   13.7580    5.3224    3.5493 C   0  0  0  0  0  0  0  0  0  0  0  0
   13.8336    6.9811    2.1583 H   0  0  0  0  0  0  0  0  0  0  0  0
   11.9891    6.0945    0.6534 H   0  0  0  0  0  0  0  0  0  0  0  0
    9.0015    4.4818   -1.5999 N   0  0  0  0  0  0  0  0  0  0  0  0
    8.1674    3.8951   -2.0233 N   0  0  0  0  0  0  0  0  0  0  0  0
   14.5544    5.7397    4.1681 H   0  0  0  0  0  0  0  0  0  0  0  0
   13.5033    3.5535    4.8154 H   0  0  0  0  0  0  0  0  0  0  0  0
   11.0294    1.9430    3.1742 H   0  0  0  0  0  0  0  0  0  0  0  0
    9.3567    1.4647    1.5225 O   0  0  0  0  0  0  0  0  0  0  0  0
    9.6602    0.8080    2.4847 C   0  0  0  0  0  0  0  0  0  0  0  0
   10.5911    1.0851    3.3943 O   0  0  0  0  0  0  0  0  0  0  0  0
    8.9718   -0.5394    2.8300 C   0  0  0  0  0  0  0  0  0  0  0  0
    8.0299   -0.8380    1.9267 F   0  0  0  0  0  0  0  0  0  0  0  0
    9.8746   -1.5455    2.8497 F   0  0  0  0  0  0  0  0  0  0  0  0
    8.3874   -0.4788    4.0476 F   0  0  0  0  0  0  0  0  0  0  0  0
  1  6  2  0  0  0  0
  2  3  2  0  0  0  0
  2  1  1  0  0  0  0
  3  4  1  0  0  0  0
  4  5  2  0  0  0  0
  5 12  1  0  0  0  0
  6  5  1  0  0  0  0
  6 11  1  0  0  0  0
  7  1  1  0  0  0  0
  8  2  1  0  0  0  0
 10  9  3  0  0  0  0
 13 16  1  0  0  0  0
 14 15  2  0  0  0  0
 15 17  1  0  0  0  0
 15 16  1  0  0  0  0
 17 19  1  0  0  0  0
 17 20  1  0  0  0  0
 18 17  1  0  0  0  0
M  RAD  2   3   2   4   2
M  END
