Coordinates from ORCA-job Ph-N2-OOCCF3-B3LYPG-aug-cc-pVDZ-scan-d09-49-n400
 OpenBabel11081710403D

 20 20  0  0  1  0  0  0  0  0999 V2000
   11.8146    5.5274    2.0162 C   0  0  0  0  0  0  0  0  0  0  0  0
   12.0803    4.6394    1.0181 C   0  0  0  0  0  0  0  0  0  0  0  0
   12.3725    3.2840    1.3727 C   0  0  1  0  0  0  0  0  0  0  0  0
   12.2193    2.7126    2.7333 C   0  0  1  0  0  0  0  0  0  0  0  0
   12.0895    3.7994    3.7440 C   0  0  0  0  0  0  0  0  0  0  0  0
   11.8700    5.0911    3.3922 C   0  0  0  0  0  0  0  0  0  0  0  0
   11.5834    6.5649    1.7837 H   0  0  0  0  0  0  0  0  0  0  0  0
   12.0830    4.9305   -0.0311 H   0  0  0  0  0  0  0  0  0  0  0  0
   12.8201    2.4106    0.3724 N   0  0  0  0  0  0  0  0  0  0  0  0
   13.1786    1.6915   -0.4270 N   0  0  0  0  0  0  0  0  0  0  0  0
   11.7543    5.8387    4.1784 H   0  0  0  0  0  0  0  0  0  0  0  0
   12.1615    3.5049    4.7902 H   0  0  0  0  0  0  0  0  0  0  0  0
   13.0048    1.9929    2.9845 H   0  0  0  0  0  0  0  0  0  0  0  0
    9.4316    3.1818    2.1275 O   0  0  0  0  0  0  0  0  0  0  0  0
    9.8012    2.1147    2.5471 C   0  0  0  0  0  0  0  0  0  0  0  0
   11.0294    1.7159    2.8474 O   0  0  0  0  0  0  0  0  0  0  0  0
    8.8058    0.9470    2.8099 C   0  0  0  0  0  0  0  0  0  0  0  0
    9.1243   -0.1365    2.0634 F   0  0  0  0  0  0  0  0  0  0  0  0
    8.8305    0.5764    4.1109 F   0  0  0  0  0  0  0  0  0  0  0  0
    7.5523    1.3081    2.5037 F   0  0  0  0  0  0  0  0  0  0  0  0
  1  6  1  0  0  0  0
  2  3  1  0  0  0  0
  2  1  2  0  0  0  0
  3  9  1  6  0  0  0
  3  4  1  0  0  0  0
  4 16  1  0  0  0  0
  4 13  1  1  0  0  0
  4  5  1  0  0  0  0
  5 12  1  0  0  0  0
  6  5  2  0  0  0  0
  6 11  1  0  0  0  0
  7  1  1  0  0  0  0
  8  2  1  0  0  0  0
 10  9  1  0  0  0  0
 14 15  2  0  0  0  0
 15 17  1  0  0  0  0
 15 16  1  0  0  0  0
 17 19  1  0  0  0  0
 18 17  1  0  0  0  0
 20 17  1  0  0  0  0
M  RAD  3   3   2   9   2  10   3
M  END
