Coordinates from ORCA-job Ph-N2-OOCCF3-B3LYPG-aug-cc-pVDZ-scan-d09-49-n400
 OpenBabel11081710403D

 20 18  0  0  0  0  0  0  0  0999 V2000
   13.3563    6.0661    2.3817 C   0  0  0  0  0  0  0  0  0  0  0  0
   12.3447    5.6987    1.4558 C   0  0  0  0  0  0  0  0  0  0  0  0
   11.8319    4.5048    1.8875 C   0  0  0  0  0  0  0  0  0  0  0  0
   12.0297    3.7090    2.8445 C   0  0  0  0  0  0  0  0  0  0  0  0
   13.0307    4.0534    3.7780 C   0  0  0  0  0  0  0  0  0  0  0  0
   13.6825    5.2712    3.4973 C   0  0  0  0  0  0  0  0  0  0  0  0
   13.8923    7.0014    2.2099 H   0  0  0  0  0  0  0  0  0  0  0  0
   12.0698    6.2890    0.5867 H   0  0  0  0  0  0  0  0  0  0  0  0
    9.3622    4.3468   -1.0189 N   0  0  0  0  0  0  0  0  0  0  0  0
    8.5329    3.7820   -1.4794 N   0  0  0  0  0  0  0  0  0  0  0  0
   14.4711    5.6124    4.1702 H   0  0  0  0  0  0  0  0  0  0  0  0
   13.2938    3.4488    4.6451 H   0  0  0  0  0  0  0  0  0  0  0  0
   10.9521    2.0184    3.0197 H   0  0  0  0  0  0  0  0  0  0  0  0
    9.2544    1.3964    1.4368 O   0  0  0  0  0  0  0  0  0  0  0  0
    9.6074    0.8003    2.4214 C   0  0  0  0  0  0  0  0  0  0  0  0
   10.5494    1.1550    3.2906 O   0  0  0  0  0  0  0  0  0  0  0  0
    8.9785   -0.5525    2.8499 C   0  0  0  0  0  0  0  0  0  0  0  0
    8.0270   -0.9302    1.9872 F   0  0  0  0  0  0  0  0  0  0  0  0
    9.9186   -1.5232    2.8957 F   0  0  0  0  0  0  0  0  0  0  0  0
    8.4217   -0.4526    4.0779 F   0  0  0  0  0  0  0  0  0  0  0  0
  1  6  2  0  0  0  0
  2  3  2  0  0  0  0
  2  1  1  0  0  0  0
  3  4  1  0  0  0  0
  4  5  2  0  0  0  0
  5 12  1  0  0  0  0
  6  5  1  0  0  0  0
  6 11  1  0  0  0  0
  7  1  1  0  0  0  0
  8  2  1  0  0  0  0
 10  9  3  0  0  0  0
 13 16  1  0  0  0  0
 14 15  2  0  0  0  0
 15 17  1  0  0  0  0
 15 16  1  0  0  0  0
 17 19  1  0  0  0  0
 17 20  1  0  0  0  0
 18 17  1  0  0  0  0
M  RAD  2   3   2   4   2
M  END
