Coordinates from ORCA-job Ph-N2-OOCCF3-B3LYPG-aug-cc-pVDZ-scan-d09-49-n400
 OpenBabel11081710403D

 20 18  0  0  0  0  0  0  0  0999 V2000
   13.3471    6.0667    2.3683 C   0  0  0  0  0  0  0  0  0  0  0  0
   12.3371    5.7097    1.4366 C   0  0  0  0  0  0  0  0  0  0  0  0
   11.8180    4.5166    1.8611 C   0  0  0  0  0  0  0  0  0  0  0  0
   12.0051    3.7124    2.8129 C   0  0  0  0  0  0  0  0  0  0  0  0
   13.0050    4.0479    3.7517 C   0  0  0  0  0  0  0  0  0  0  0  0
   13.6647    5.2636    3.4807 C   0  0  0  0  0  0  0  0  0  0  0  0
   13.8888    7.0000    2.2039 H   0  0  0  0  0  0  0  0  0  0  0  0
   12.0678    6.3054    0.5696 H   0  0  0  0  0  0  0  0  0  0  0  0
    9.4533    4.3604   -0.9108 N   0  0  0  0  0  0  0  0  0  0  0  0
    8.6243    3.8087   -1.3878 N   0  0  0  0  0  0  0  0  0  0  0  0
   14.4524    5.5966    4.1586 H   0  0  0  0  0  0  0  0  0  0  0  0
   13.2616    3.4371    4.6165 H   0  0  0  0  0  0  0  0  0  0  0  0
   10.9384    2.0253    3.0002 H   0  0  0  0  0  0  0  0  0  0  0  0
    9.2409    1.3775    1.4260 O   0  0  0  0  0  0  0  0  0  0  0  0
    9.5998    0.7930    2.4155 C   0  0  0  0  0  0  0  0  0  0  0  0
   10.5411    1.1616    3.2794 O   0  0  0  0  0  0  0  0  0  0  0  0
    8.9803   -0.5598    2.8577 C   0  0  0  0  0  0  0  0  0  0  0  0
    8.0296   -0.9517    2.0004 F   0  0  0  0  0  0  0  0  0  0  0  0
    9.9267   -1.5240    2.9108 F   0  0  0  0  0  0  0  0  0  0  0  0
    8.4251   -0.4520    4.0858 F   0  0  0  0  0  0  0  0  0  0  0  0
  1  6  2  0  0  0  0
  2  3  2  0  0  0  0
  2  1  1  0  0  0  0
  3  4  1  0  0  0  0
  4  5  2  0  0  0  0
  5 12  1  0  0  0  0
  6  5  1  0  0  0  0
  6 11  1  0  0  0  0
  7  1  1  0  0  0  0
  8  2  1  0  0  0  0
 10  9  3  0  0  0  0
 13 16  1  0  0  0  0
 14 15  2  0  0  0  0
 15 17  1  0  0  0  0
 15 16  1  0  0  0  0
 17 19  1  0  0  0  0
 17 20  1  0  0  0  0
 18 17  1  0  0  0  0
M  RAD  2   3   2   4   2
M  END
