Coordinates from ORCA-job Ph-N2-OOCCF3-B3LYPG-aug-cc-pVDZ-scan-d09-49-n400
 OpenBabel11081710403D

 20 18  0  0  0  0  0  0  0  0999 V2000
   13.1065    5.9982    2.1337 C   0  0  0  0  0  0  0  0  0  0  0  0
   12.0137    5.5630    1.3590 C   0  0  0  0  0  0  0  0  0  0  0  0
   11.5607    4.3489    1.7956 C   0  0  0  0  0  0  0  0  0  0  0  0
   11.8981    3.4878    2.7646 C   0  0  0  0  0  0  0  0  0  0  0  0
   13.0009    3.9836    3.5049 C   0  0  0  0  0  0  0  0  0  0  0  0
   13.5876    5.2133    3.1906 C   0  0  0  0  0  0  0  0  0  0  0  0
   13.5660    6.9565    1.8912 H   0  0  0  0  0  0  0  0  0  0  0  0
   11.6027    6.1320    0.5306 H   0  0  0  0  0  0  0  0  0  0  0  0
   10.0401    3.7716    0.6972 N   0  0  0  0  0  0  0  0  0  0  0  0
    9.3453    3.9639   -0.1427 N   0  0  0  0  0  0  0  0  0  0  0  0
   14.4343    5.5700    3.7766 H   0  0  0  0  0  0  0  0  0  0  0  0
   13.3771    3.3751    4.3276 H   0  0  0  0  0  0  0  0  0  0  0  0
   11.4026    2.4930    2.9982 H   0  0  0  0  0  0  0  0  0  0  0  0
    9.4255    1.6747    1.6027 O   0  0  0  0  0  0  0  0  0  0  0  0
    9.7780    0.9093    2.5294 C   0  0  0  0  0  0  0  0  0  0  0  0
   10.6963    1.0290    3.3696 O   0  0  0  0  0  0  0  0  0  0  0  0
    8.9081   -0.3901    2.6347 C   0  0  0  0  0  0  0  0  0  0  0  0
    8.9066   -1.0684    1.4609 F   0  0  0  0  0  0  0  0  0  0  0  0
    9.3370   -1.2408    3.5880 F   0  0  0  0  0  0  0  0  0  0  0  0
    7.6199   -0.0754    2.9250 F   0  0  0  0  0  0  0  0  0  0  0  0
  1  6  2  0  0  0  0
  2  3  2  0  0  0  0
  2  1  1  0  0  0  0
  3  4  1  0  0  0  0
  4 13  1  0  0  0  0
  4  5  2  0  0  0  0
  5 12  1  0  0  0  0
  6  5  1  0  0  0  0
  6 11  1  0  0  0  0
  7  1  1  0  0  0  0
  8  2  1  0  0  0  0
 10  9  3  0  0  0  0
 14 15  2  0  0  0  0
 15 17  1  0  0  0  0
 15 16  1  0  0  0  0
 17 20  1  0  0  0  0
 17 19  1  0  0  0  0
 18 17  1  0  0  0  0
M  RAD  2   3   2  16   2
M  END
