Coordinates from ORCA-job Ph-N2-OOCCF3-B3LYPG-aug-cc-pVDZ-scan-d09-49-n400
 OpenBabel11081710403D

 20 18  0  0  0  0  0  0  0  0999 V2000
   13.3539    6.0661    2.3785 C   0  0  0  0  0  0  0  0  0  0  0  0
   12.3428    5.7014    1.4510 C   0  0  0  0  0  0  0  0  0  0  0  0
   11.8283    4.5077    1.8806 C   0  0  0  0  0  0  0  0  0  0  0  0
   12.0232    3.7094    2.8363 C   0  0  0  0  0  0  0  0  0  0  0  0
   13.0240    4.0517    3.7712 C   0  0  0  0  0  0  0  0  0  0  0  0
   13.6779    5.2690    3.4931 C   0  0  0  0  0  0  0  0  0  0  0  0
   13.8914    7.0009    2.2087 H   0  0  0  0  0  0  0  0  0  0  0  0
   12.0693    6.2932    0.5825 H   0  0  0  0  0  0  0  0  0  0  0  0
    9.3850    4.3544   -0.9958 N   0  0  0  0  0  0  0  0  0  0  0  0
    8.5557    3.7912   -1.4583 N   0  0  0  0  0  0  0  0  0  0  0  0
   14.4662    5.6080    4.1674 H   0  0  0  0  0  0  0  0  0  0  0  0
   13.2854    3.4455    4.6377 H   0  0  0  0  0  0  0  0  0  0  0  0
   10.9488    2.0199    3.0150 H   0  0  0  0  0  0  0  0  0  0  0  0
    9.2509    1.3908    1.4347 O   0  0  0  0  0  0  0  0  0  0  0  0
    9.6056    0.7979    2.4205 C   0  0  0  0  0  0  0  0  0  0  0  0
   10.5475    1.1565    3.2882 O   0  0  0  0  0  0  0  0  0  0  0  0
    8.9793   -0.5550    2.8529 C   0  0  0  0  0  0  0  0  0  0  0  0
    8.0282   -0.9367    1.9916 F   0  0  0  0  0  0  0  0  0  0  0  0
    9.9212   -1.5238    2.9009 F   0  0  0  0  0  0  0  0  0  0  0  0
    8.4228   -0.4528    4.0809 F   0  0  0  0  0  0  0  0  0  0  0  0
  1  6  2  0  0  0  0
  2  3  2  0  0  0  0
  2  1  1  0  0  0  0
  3  4  1  0  0  0  0
  4  5  2  0  0  0  0
  5 12  1  0  0  0  0
  6  5  1  0  0  0  0
  6 11  1  0  0  0  0
  7  1  1  0  0  0  0
  8  2  1  0  0  0  0
 10  9  3  0  0  0  0
 13 16  1  0  0  0  0
 14 15  2  0  0  0  0
 15 17  1  0  0  0  0
 15 16  1  0  0  0  0
 17 19  1  0  0  0  0
 17 20  1  0  0  0  0
 18 17  1  0  0  0  0
M  RAD  2   3   2   4   2
M  END
