Coordinates from ORCA-job Ph-N2-OOCCF3-B3LYPG-aug-cc-pVDZ-scan-d09-49-n400
 OpenBabel11081710403D

 20 18  0  0  0  0  0  0  0  0999 V2000
   13.3507    6.0343    2.4043 C   0  0  0  0  0  0  0  0  0  0  0  0
   12.3241    5.5690    1.5416 C   0  0  0  0  0  0  0  0  0  0  0  0
   11.8819    4.3783    2.0566 C   0  0  0  0  0  0  0  0  0  0  0  0
   12.1615    3.6574    3.0504 C   0  0  0  0  0  0  0  0  0  0  0  0
   13.1764    4.0933    3.9249 C   0  0  0  0  0  0  0  0  0  0  0  0
   13.7572    5.3218    3.5487 C   0  0  0  0  0  0  0  0  0  0  0  0
   13.8348    6.9816    2.1594 H   0  0  0  0  0  0  0  0  0  0  0  0
   11.9909    6.0975    0.6531 H   0  0  0  0  0  0  0  0  0  0  0  0
    9.0048    4.4801   -1.5942 N   0  0  0  0  0  0  0  0  0  0  0  0
    8.1708    3.8935   -2.0179 N   0  0  0  0  0  0  0  0  0  0  0  0
   14.5535    5.7379    4.1684 H   0  0  0  0  0  0  0  0  0  0  0  0
   13.5004    3.5522    4.8129 H   0  0  0  0  0  0  0  0  0  0  0  0
   11.0285    1.9436    3.1725 H   0  0  0  0  0  0  0  0  0  0  0  0
    9.3565    1.4643    1.5226 O   0  0  0  0  0  0  0  0  0  0  0  0
    9.6599    0.8077    2.4846 C   0  0  0  0  0  0  0  0  0  0  0  0
   10.5909    1.0857    3.3936 O   0  0  0  0  0  0  0  0  0  0  0  0
    8.9719   -0.5397    2.8304 C   0  0  0  0  0  0  0  0  0  0  0  0
    8.0300   -0.8387    1.9273 F   0  0  0  0  0  0  0  0  0  0  0  0
    9.8749   -1.5457    2.8502 F   0  0  0  0  0  0  0  0  0  0  0  0
    8.3877   -0.4789    4.0481 F   0  0  0  0  0  0  0  0  0  0  0  0
  1  6  2  0  0  0  0
  2  3  2  0  0  0  0
  2  1  1  0  0  0  0
  3  4  1  0  0  0  0
  4  5  2  0  0  0  0
  5 12  1  0  0  0  0
  6  5  1  0  0  0  0
  6 11  1  0  0  0  0
  7  1  1  0  0  0  0
  8  2  1  0  0  0  0
 10  9  3  0  0  0  0
 13 16  1  0  0  0  0
 14 15  2  0  0  0  0
 15 17  1  0  0  0  0
 15 16  1  0  0  0  0
 17 19  1  0  0  0  0
 17 20  1  0  0  0  0
 18 17  1  0  0  0  0
M  RAD  2   3   2   4   2
M  END
