Coordinates from ORCA-job Ph-N2-OOCCF3-B3LYPG-aug-cc-pVDZ-scan-d09-49-n400
 OpenBabel11081710403D

 20 18  0  0  0  0  0  0  0  0999 V2000
   13.3477    6.0225    2.4106 C   0  0  0  0  0  0  0  0  0  0  0  0
   12.3197    5.5410    1.5587 C   0  0  0  0  0  0  0  0  0  0  0  0
   11.8894    4.3517    2.0875 C   0  0  0  0  0  0  0  0  0  0  0  0
   12.1815    3.6437    3.0868 C   0  0  0  0  0  0  0  0  0  0  0  0
   13.1980    4.0951    3.9512 C   0  0  0  0  0  0  0  0  0  0  0  0
   13.7667    5.3244    3.5595 C   0  0  0  0  0  0  0  0  0  0  0  0
   13.8230    6.9710    2.1538 H   0  0  0  0  0  0  0  0  0  0  0  0
   11.9773    6.0585    0.6672 H   0  0  0  0  0  0  0  0  0  0  0  0
    8.9220    4.5877   -1.7920 N   0  0  0  0  0  0  0  0  0  0  0  0
    8.0855    4.0027   -2.2132 N   0  0  0  0  0  0  0  0  0  0  0  0
   14.5634    5.7527    4.1702 H   0  0  0  0  0  0  0  0  0  0  0  0
   13.5314    3.5652    4.8425 H   0  0  0  0  0  0  0  0  0  0  0  0
   11.0442    1.9235    3.2086 H   0  0  0  0  0  0  0  0  0  0  0  0
    9.3748    1.4537    1.5544 O   0  0  0  0  0  0  0  0  0  0  0  0
    9.6746    0.7932    2.5149 C   0  0  0  0  0  0  0  0  0  0  0  0
   10.6046    1.0661    3.4266 O   0  0  0  0  0  0  0  0  0  0  0  0
    8.9825   -0.5534    2.8552 C   0  0  0  0  0  0  0  0  0  0  0  0
    8.0416   -0.8473    1.9493 F   0  0  0  0  0  0  0  0  0  0  0  0
    9.8829   -1.5618    2.8736 F   0  0  0  0  0  0  0  0  0  0  0  0
    8.3961   -0.4949    4.0719 F   0  0  0  0  0  0  0  0  0  0  0  0
  1  6  2  0  0  0  0
  2  3  2  0  0  0  0
  2  1  1  0  0  0  0
  3  4  1  0  0  0  0
  4  5  2  0  0  0  0
  5 12  1  0  0  0  0
  6  5  1  0  0  0  0
  6 11  1  0  0  0  0
  7  1  1  0  0  0  0
  8  2  1  0  0  0  0
 10  9  3  0  0  0  0
 13 16  1  0  0  0  0
 14 15  2  0  0  0  0
 15 17  1  0  0  0  0
 15 16  1  0  0  0  0
 17 19  1  0  0  0  0
 17 20  1  0  0  0  0
 18 17  1  0  0  0  0
M  RAD  2   3   2   4   2
M  END
