Coordinates from ORCA-job Ph-N2-OOCCF3-B3LYPG-aug-cc-pVDZ-scan-d09-49-n400
 OpenBabel11081710403D

 20 18  0  0  0  0  0  0  0  0999 V2000
   13.3421    6.0671    2.3604 C   0  0  0  0  0  0  0  0  0  0  0  0
   12.3332    5.7172    1.4249 C   0  0  0  0  0  0  0  0  0  0  0  0
   11.8087    4.5247    1.8439 C   0  0  0  0  0  0  0  0  0  0  0  0
   11.9894    3.7154    2.7927 C   0  0  0  0  0  0  0  0  0  0  0  0
   12.9885    4.0445    3.7351 C   0  0  0  0  0  0  0  0  0  0  0  0
   13.6536    5.2587    3.4706 C   0  0  0  0  0  0  0  0  0  0  0  0
   13.8877    6.9990    2.2008 H   0  0  0  0  0  0  0  0  0  0  0  0
   12.0681    6.3169    0.5593 H   0  0  0  0  0  0  0  0  0  0  0  0
    9.5088    4.3614   -0.8378 N   0  0  0  0  0  0  0  0  0  0  0  0
    8.6804    3.8198   -1.3271 N   0  0  0  0  0  0  0  0  0  0  0  0
   14.4408    5.5860    4.1519 H   0  0  0  0  0  0  0  0  0  0  0  0
   13.2405    3.4295    4.5983 H   0  0  0  0  0  0  0  0  0  0  0  0
   10.9297    2.0308    2.9873 H   0  0  0  0  0  0  0  0  0  0  0  0
    9.2327    1.3673    1.4184 O   0  0  0  0  0  0  0  0  0  0  0  0
    9.5951    0.7898    2.4108 C   0  0  0  0  0  0  0  0  0  0  0  0
   10.5357    1.1670    3.2716 O   0  0  0  0  0  0  0  0  0  0  0  0
    8.9815   -0.5629    2.8613 C   0  0  0  0  0  0  0  0  0  0  0  0
    8.0314   -0.9633    2.0073 F   0  0  0  0  0  0  0  0  0  0  0  0
    9.9318   -1.5231    2.9184 F   0  0  0  0  0  0  0  0  0  0  0  0
    8.4273   -0.4506    4.0894 F   0  0  0  0  0  0  0  0  0  0  0  0
  1  6  2  0  0  0  0
  2  3  2  0  0  0  0
  2  1  1  0  0  0  0
  3  4  1  0  0  0  0
  4  5  2  0  0  0  0
  5 12  1  0  0  0  0
  6  5  1  0  0  0  0
  6 11  1  0  0  0  0
  7  1  1  0  0  0  0
  8  2  1  0  0  0  0
 10  9  3  0  0  0  0
 13 16  1  0  0  0  0
 14 15  2  0  0  0  0
 15 17  1  0  0  0  0
 15 16  1  0  0  0  0
 17 19  1  0  0  0  0
 17 20  1  0  0  0  0
 18 17  1  0  0  0  0
M  RAD  2   3   2   4   2
M  END
