Coordinates from ORCA-job Ph-N2-OOCCF3-B3LYPG-aug-cc-pVDZ-scan-d09-49-n400
 OpenBabel11081710403D

 20 18  0  0  0  0  0  0  0  0999 V2000
   13.3478    6.0239    2.4096 C   0  0  0  0  0  0  0  0  0  0  0  0
   12.3198    5.5437    1.5567 C   0  0  0  0  0  0  0  0  0  0  0  0
   11.8899    4.3546    2.0858 C   0  0  0  0  0  0  0  0  0  0  0  0
   12.1805    3.6453    3.0841 C   0  0  0  0  0  0  0  0  0  0  0  0
   13.1967    4.0952    3.9494 C   0  0  0  0  0  0  0  0  0  0  0  0
   13.7661    5.3246    3.5584 C   0  0  0  0  0  0  0  0  0  0  0  0
   13.8237    6.9723    2.1536 H   0  0  0  0  0  0  0  0  0  0  0  0
   11.9778    6.0617    0.6653 H   0  0  0  0  0  0  0  0  0  0  0  0
    8.9318    4.5698   -1.7641 N   0  0  0  0  0  0  0  0  0  0  0  0
    8.0957    3.9840   -2.1849 N   0  0  0  0  0  0  0  0  0  0  0  0
   14.5629    5.7523    4.1696 H   0  0  0  0  0  0  0  0  0  0  0  0
   13.5296    3.5646    4.8404 H   0  0  0  0  0  0  0  0  0  0  0  0
   11.0428    1.9263    3.2044 H   0  0  0  0  0  0  0  0  0  0  0  0
    9.3724    1.4566    1.5488 O   0  0  0  0  0  0  0  0  0  0  0  0
    9.6725    0.7964    2.5096 C   0  0  0  0  0  0  0  0  0  0  0  0
   10.6025    1.0690    3.4216 O   0  0  0  0  0  0  0  0  0  0  0  0
    8.9805   -0.5503    2.8500 C   0  0  0  0  0  0  0  0  0  0  0  0
    8.0395   -0.8442    1.9441 F   0  0  0  0  0  0  0  0  0  0  0  0
    9.8808   -1.5586    2.8684 F   0  0  0  0  0  0  0  0  0  0  0  0
    8.3941   -0.4918    4.0667 F   0  0  0  0  0  0  0  0  0  0  0  0
  1  6  2  0  0  0  0
  2  3  2  0  0  0  0
  2  1  1  0  0  0  0
  3  4  1  0  0  0  0
  4  5  2  0  0  0  0
  5 12  1  0  0  0  0
  6  5  1  0  0  0  0
  6 11  1  0  0  0  0
  7  1  1  0  0  0  0
  8  2  1  0  0  0  0
 10  9  3  0  0  0  0
 13 16  1  0  0  0  0
 14 15  2  0  0  0  0
 15 17  1  0  0  0  0
 15 16  1  0  0  0  0
 17 19  1  0  0  0  0
 17 20  1  0  0  0  0
 18 17  1  0  0  0  0
M  RAD  2   3   2   4   2
M  END
