Coordinates from ORCA-job Ph-N2-OOCCF3-B3LYPG-aug-cc-pVDZ-scan-d09-49-n400
 OpenBabel11081710403D

 20 18  0  0  0  0  0  0  0  0999 V2000
   13.3503    6.0324    2.4054 C   0  0  0  0  0  0  0  0  0  0  0  0
   12.3235    5.5644    1.5446 C   0  0  0  0  0  0  0  0  0  0  0  0
   11.8832    4.3739    2.0619 C   0  0  0  0  0  0  0  0  0  0  0  0
   12.1650    3.6551    3.0566 C   0  0  0  0  0  0  0  0  0  0  0  0
   13.1802    4.0936    3.9294 C   0  0  0  0  0  0  0  0  0  0  0  0
   13.7590    5.3223    3.5507 C   0  0  0  0  0  0  0  0  0  0  0  0
   13.8329    6.9799    2.1585 H   0  0  0  0  0  0  0  0  0  0  0  0
   11.9887    6.0910    0.6555 H   0  0  0  0  0  0  0  0  0  0  0  0
    8.9905    4.4971   -1.6270 N   0  0  0  0  0  0  0  0  0  0  0  0
    8.1561    3.9107   -2.0501 N   0  0  0  0  0  0  0  0  0  0  0  0
   14.5553    5.7405    4.1689 H   0  0  0  0  0  0  0  0  0  0  0  0
   13.5057    3.5544    4.8180 H   0  0  0  0  0  0  0  0  0  0  0  0
   11.0311    1.9403    3.1785 H   0  0  0  0  0  0  0  0  0  0  0  0
    9.3596    1.4628    1.5278 O   0  0  0  0  0  0  0  0  0  0  0  0
    9.6624    0.8055    2.4895 C   0  0  0  0  0  0  0  0  0  0  0  0
   10.5931    1.0825    3.3990 O   0  0  0  0  0  0  0  0  0  0  0  0
    8.9736   -0.5417    2.8342 C   0  0  0  0  0  0  0  0  0  0  0  0
    8.0318   -0.8399    1.9306 F   0  0  0  0  0  0  0  0  0  0  0  0
    9.8761   -1.5482    2.8537 F   0  0  0  0  0  0  0  0  0  0  0  0
    8.3889   -0.4814    4.0517 F   0  0  0  0  0  0  0  0  0  0  0  0
  1  6  2  0  0  0  0
  2  3  2  0  0  0  0
  2  1  1  0  0  0  0
  3  4  1  0  0  0  0
  4  5  2  0  0  0  0
  5 12  1  0  0  0  0
  6  5  1  0  0  0  0
  6 11  1  0  0  0  0
  7  1  1  0  0  0  0
  8  2  1  0  0  0  0
 10  9  3  0  0  0  0
 13 16  1  0  0  0  0
 14 15  2  0  0  0  0
 15 17  1  0  0  0  0
 15 16  1  0  0  0  0
 17 19  1  0  0  0  0
 17 20  1  0  0  0  0
 18 17  1  0  0  0  0
M  RAD  2   3   2   4   2
M  END
