Coordinates from ORCA-job Ph-N2-OOCCF3-B3LYPG-aug-cc-pVDZ-scan-d09-49-n400
 OpenBabel11081710403D

 20 20  0  0  1  0  0  0  0  0999 V2000
   11.9028    5.5237    2.0138 C   0  0  0  0  0  0  0  0  0  0  0  0
   12.0982    4.6490    1.0083 C   0  0  0  0  0  0  0  0  0  0  0  0
   12.3496    3.2043    1.2611 C   0  0  0  0  0  0  0  0  0  0  0  0
   12.1774    2.7005    2.7249 C   0  0  1  0  0  0  0  0  0  0  0  0
   12.0341    3.7879    3.7374 C   0  0  0  0  0  0  0  0  0  0  0  0
   11.9093    5.0857    3.3997 C   0  0  0  0  0  0  0  0  0  0  0  0
   11.7312    6.5757    1.7890 H   0  0  0  0  0  0  0  0  0  0  0  0
   12.0888    4.9487   -0.0398 H   0  0  0  0  0  0  0  0  0  0  0  0
   12.6241    2.5509    0.5411 N   0  0  0  0  0  0  0  0  0  0  0  0
   12.9416    1.7831   -0.2817 N   0  0  0  0  0  0  0  0  0  0  0  0
   11.8109    5.8369    4.1840 H   0  0  0  0  0  0  0  0  0  0  0  0
   12.0434    3.4711    4.7805 H   0  0  0  0  0  0  0  0  0  0  0  0
   13.0261    2.0444    2.9559 H   0  0  0  0  0  0  0  0  0  0  0  0
    9.4703    3.1321    2.0301 O   0  0  0  0  0  0  0  0  0  0  0  0
    9.8301    2.0831    2.4927 C   0  0  0  0  0  0  0  0  0  0  0  0
   11.0686    1.7118    2.8280 O   0  0  0  0  0  0  0  0  0  0  0  0
    8.8485    0.9187    2.8016 C   0  0  0  0  0  0  0  0  0  0  0  0
    9.2194   -0.2129    2.1671 F   0  0  0  0  0  0  0  0  0  0  0  0
    8.8255    0.6666    4.1309 F   0  0  0  0  0  0  0  0  0  0  0  0
    7.6074    1.2339    2.4127 F   0  0  0  0  0  0  0  0  0  0  0  0
  1  6  1  0  0  0  0
  2  3  2  0  0  0  0
  2  1  1  0  0  0  0
  3  4  1  0  0  0  0
  4 16  1  0  0  0  0
  4 13  1  1  0  0  0
  4  5  1  0  0  0  0
  5 12  1  0  0  0  0
  6  5  2  0  0  0  0
  6 11  1  0  0  0  0
  7  1  1  0  0  0  0
  8  2  1  0  0  0  0
  9  3  1  0  0  0  0
 10  9  1  0  0  0  0
 14 15  2  0  0  0  0
 15 17  1  0  0  0  0
 15 16  1  0  0  0  0
 17 19  1  0  0  0  0
 18 17  1  0  0  0  0
 20 17  1  0  0  0  0
M  RAD  3   1   2   9   2  10   3
M  END
