Coordinates from ORCA-job Ph-N2-OOCCF3-B3LYPG-aug-cc-pVDZ-scan-d09-49-n400
 OpenBabel11081710403D

 20 19  0  0  0  0  0  0  0  0999 V2000
   12.6431    5.9529    2.0721 C   0  0  0  0  0  0  0  0  0  0  0  0
   12.3232    4.9391    1.1535 C   0  0  0  0  0  0  0  0  0  0  0  0
   12.0622    3.7308    1.7505 C   0  0  0  0  0  0  0  0  0  0  0  0
   12.0591    3.3590    3.0642 C   0  0  0  0  0  0  0  0  0  0  0  0
   12.3915    4.4061    3.9403 C   0  0  0  0  0  0  0  0  0  0  0  0
   12.6772    5.6841    3.4455 C   0  0  0  0  0  0  0  0  0  0  0  0
   12.8607    6.9524    1.6961 H   0  0  0  0  0  0  0  0  0  0  0  0
   12.2796    5.1046    0.0807 H   0  0  0  0  0  0  0  0  0  0  0  0
   11.6671    2.4070    0.5931 N   0  0  0  0  0  0  0  0  0  0  0  0
   11.7452    2.0909   -0.4722 N   0  0  0  0  0  0  0  0  0  0  0  0
   12.9254    6.4856    4.1406 H   0  0  0  0  0  0  0  0  0  0  0  0
   12.4162    4.2080    5.0114 H   0  0  0  0  0  0  0  0  0  0  0  0
   11.8040    2.3449    3.3658 H   0  0  0  0  0  0  0  0  0  0  0  0
    9.0909    2.2256    1.5106 O   0  0  0  0  0  0  0  0  0  0  0  0
    9.6327    1.2257    1.9820 C   0  0  0  0  0  0  0  0  0  0  0  0
   10.8686    0.9074    1.9874 O   0  0  0  0  0  0  0  0  0  0  0  0
    8.7426    0.1696    2.7193 C   0  0  0  0  0  0  0  0  0  0  0  0
    8.9255   -1.0755    2.2189 F   0  0  0  0  0  0  0  0  0  0  0  0
    9.0627    0.1266    4.0427 F   0  0  0  0  0  0  0  0  0  0  0  0
    7.4297    0.4504    2.6351 F   0  0  0  0  0  0  0  0  0  0  0  0
  1  6  2  0  0  0  0
  2  3  2  0  0  0  0
  2  1  1  0  0  0  0
  3  4  1  0  0  0  0
  4 13  1  0  0  0  0
  4  5  2  0  0  0  0
  5 12  1  0  0  0  0
  6  5  1  0  0  0  0
  6 11  1  0  0  0  0
  7  1  1  0  0  0  0
  8  2  1  0  0  0  0
  9  3  1  0  0  0  0
 10  9  2  0  0  0  0
 14 15  2  0  0  0  0
 15 16  1  0  0  0  0
 15 17  1  0  0  0  0
 17 19  1  0  0  0  0
 18 17  1  0  0  0  0
 20 17  1  0  0  0  0
M  RAD  2  10   2  16   2
M  END
