Coordinates from ORCA-job Ph-N2-OOCCF3-B3LYPG-aug-cc-pVDZ-scan-d09-49-n400
 OpenBabel11081710403D

 20 20  0  0  1  0  0  0  0  0999 V2000
   11.8262    5.5237    2.0161 C   0  0  0  0  0  0  0  0  0  0  0  0
   12.0770    4.6377    1.0172 C   0  0  0  0  0  0  0  0  0  0  0  0
   12.3668    3.2666    1.3512 C   0  0  0  0  0  0  0  0  0  0  0  0
   12.2095    2.7083    2.7299 C   0  0  1  0  0  0  0  0  0  0  0  0
   12.0815    3.7949    3.7434 C   0  0  0  0  0  0  0  0  0  0  0  0
   11.8784    5.0876    3.3949 C   0  0  0  0  0  0  0  0  0  0  0  0
   11.6039    6.5637    1.7857 H   0  0  0  0  0  0  0  0  0  0  0  0
   12.0738    4.9323   -0.0315 H   0  0  0  0  0  0  0  0  0  0  0  0
   12.7899    2.4349    0.4019 N   0  0  0  0  0  0  0  0  0  0  0  0
   13.1503    1.7119   -0.4000 N   0  0  0  0  0  0  0  0  0  0  0  0
   11.7689    5.8364    4.1808 H   0  0  0  0  0  0  0  0  0  0  0  0
   12.1453    3.4953    4.7888 H   0  0  0  0  0  0  0  0  0  0  0  0
   13.0073    2.0004    2.9787 H   0  0  0  0  0  0  0  0  0  0  0  0
    9.4385    3.1749    2.1035 O   0  0  0  0  0  0  0  0  0  0  0  0
    9.8056    2.1136    2.5373 C   0  0  0  0  0  0  0  0  0  0  0  0
   11.0361    1.7191    2.8440 O   0  0  0  0  0  0  0  0  0  0  0  0
    8.8137    0.9458    2.8091 C   0  0  0  0  0  0  0  0  0  0  0  0
    9.1449   -0.1487    2.0860 F   0  0  0  0  0  0  0  0  0  0  0  0
    8.8271    0.6000    4.1170 F   0  0  0  0  0  0  0  0  0  0  0  0
    7.5626    1.2970    2.4835 F   0  0  0  0  0  0  0  0  0  0  0  0
  1  6  1  0  0  0  0
  2  3  2  0  0  0  0
  2  1  1  0  0  0  0
  3  4  1  0  0  0  0
  4 16  1  0  0  0  0
  4 13  1  1  0  0  0
  4  5  1  0  0  0  0
  5 12  1  0  0  0  0
  6  5  2  0  0  0  0
  6 11  1  0  0  0  0
  7  1  1  0  0  0  0
  8  2  1  0  0  0  0
  9  3  1  0  0  0  0
 10  9  1  0  0  0  0
 14 15  2  0  0  0  0
 15 17  1  0  0  0  0
 15 16  1  0  0  0  0
 17 19  1  0  0  0  0
 18 17  1  0  0  0  0
 20 17  1  0  0  0  0
M  RAD  3   1   2   9   2  10   3
M  END
