Coordinates from ORCA-job Ph-N2-OOCCF3-B3LYPG-aug-cc-pVDZ-scan-d09-49-n400
 OpenBabel11081710403D

 20 18  0  0  0  0  0  0  0  0999 V2000
   13.3573    6.0586    2.3930 C   0  0  0  0  0  0  0  0  0  0  0  0
   12.3395    5.6517    1.4910 C   0  0  0  0  0  0  0  0  0  0  0  0
   11.8543    4.4569    1.9541 C   0  0  0  0  0  0  0  0  0  0  0  0
   12.0874    3.6916    2.9269 C   0  0  0  0  0  0  0  0  0  0  0  0
   13.0936    4.0715    3.8385 C   0  0  0  0  0  0  0  0  0  0  0  0
   13.7165    5.2956    3.5204 C   0  0  0  0  0  0  0  0  0  0  0  0
   13.8722    7.0000    2.1928 H   0  0  0  0  0  0  0  0  0  0  0  0
   12.0416    6.2191    0.6140 H   0  0  0  0  0  0  0  0  0  0  0  0
    9.2199    4.3649   -1.2228 N   0  0  0  0  0  0  0  0  0  0  0  0
    8.3891    3.7926   -1.6714 N   0  0  0  0  0  0  0  0  0  0  0  0
   14.5083    5.6671    4.1731 H   0  0  0  0  0  0  0  0  0  0  0  0
   13.3814    3.4912    4.7142 H   0  0  0  0  0  0  0  0  0  0  0  0
   10.9803    1.9914    3.0710 H   0  0  0  0  0  0  0  0  0  0  0  0
    9.2867    1.4299    1.4648 O   0  0  0  0  0  0  0  0  0  0  0  0
    9.6228    0.8075    2.4386 C   0  0  0  0  0  0  0  0  0  0  0  0
   10.5640    1.1297    3.3214 O   0  0  0  0  0  0  0  0  0  0  0  0
    8.9705   -0.5441    2.8344 C   0  0  0  0  0  0  0  0  0  0  0  0
    8.0191   -0.8886    1.9578 F   0  0  0  0  0  0  0  0  0  0  0  0
    9.8953   -1.5299    2.8654 F   0  0  0  0  0  0  0  0  0  0  0  0
    8.4071   -0.4614    4.0607 F   0  0  0  0  0  0  0  0  0  0  0  0
  1  6  2  0  0  0  0
  2  3  2  0  0  0  0
  2  1  1  0  0  0  0
  3  4  1  0  0  0  0
  4  5  2  0  0  0  0
  5 12  1  0  0  0  0
  6  5  1  0  0  0  0
  6 11  1  0  0  0  0
  7  1  1  0  0  0  0
  8  2  1  0  0  0  0
 10  9  3  0  0  0  0
 13 16  1  0  0  0  0
 14 15  2  0  0  0  0
 15 17  1  0  0  0  0
 15 16  1  0  0  0  0
 17 19  1  0  0  0  0
 17 20  1  0  0  0  0
 18 17  1  0  0  0  0
M  RAD  2   3   2   4   2
M  END
