Coordinates from ORCA-job Ph-N2-OOCCF3-B3LYPG-aug-cc-pVDZ-scan-d09-49-n400
 OpenBabel11081710403D

 20 18  0  0  0  0  0  0  0  0999 V2000
   13.3092    6.0620    2.3081 C   0  0  0  0  0  0  0  0  0  0  0  0
   12.3142    5.7838    1.3348 C   0  0  0  0  0  0  0  0  0  0  0  0
   11.7353    4.6015    1.6967 C   0  0  0  0  0  0  0  0  0  0  0  0
   11.8411    3.7363    2.6121 C   0  0  0  0  0  0  0  0  0  0  0  0
   12.8323    4.0078    3.5873 C   0  0  0  0  0  0  0  0  0  0  0  0
   13.5551    5.2008    3.3939 C   0  0  0  0  0  0  0  0  0  0  0  0
   13.8939    6.9770    2.1973 H   0  0  0  0  0  0  0  0  0  0  0  0
   12.0959    6.4232    0.4852 H   0  0  0  0  0  0  0  0  0  0  0  0
    9.9203    4.3854   -0.3102 N   0  0  0  0  0  0  0  0  0  0  0  0
    9.0960    3.8457   -0.8079 N   0  0  0  0  0  0  0  0  0  0  0  0
   14.3338    5.4686    4.1099 H   0  0  0  0  0  0  0  0  0  0  0  0
   13.0352    3.3514    4.4334 H   0  0  0  0  0  0  0  0  0  0  0  0
   10.8726    2.0902    2.8888 H   0  0  0  0  0  0  0  0  0  0  0  0
    9.1823    1.2997    1.3651 O   0  0  0  0  0  0  0  0  0  0  0  0
    9.5726    0.7788    2.3789 C   0  0  0  0  0  0  0  0  0  0  0  0
   10.5049    1.2224    3.2129 O   0  0  0  0  0  0  0  0  0  0  0  0
    9.0059   -0.5729    2.8906 C   0  0  0  0  0  0  0  0  0  0  0  0
    8.0635   -1.0403    2.0622 F   0  0  0  0  0  0  0  0  0  0  0  0
    9.9870   -1.4992    2.9810 F   0  0  0  0  0  0  0  0  0  0  0  0
    8.4561   -0.4269    4.1175 F   0  0  0  0  0  0  0  0  0  0  0  0
  1  6  2  0  0  0  0
  2  3  2  0  0  0  0
  2  1  1  0  0  0  0
  3  4  1  0  0  0  0
  4  5  2  0  0  0  0
  5 12  1  0  0  0  0
  6  5  1  0  0  0  0
  6 11  1  0  0  0  0
  7  1  1  0  0  0  0
  8  2  1  0  0  0  0
 10  9  3  0  0  0  0
 13 16  1  0  0  0  0
 14 15  2  0  0  0  0
 15 17  1  0  0  0  0
 15 16  1  0  0  0  0
 17 19  1  0  0  0  0
 17 20  1  0  0  0  0
 18 17  1  0  0  0  0
M  RAD  2   3   2   4   2
M  END
