Coordinates from ORCA-job Ph-N2-OOCCF3-B3LYPG-aug-cc-pVDZ-scan-d09-49-n400
 OpenBabel11081710403D

 20 18  0  0  0  0  0  0  0  0999 V2000
   13.3584    6.0612    2.3912 C   0  0  0  0  0  0  0  0  0  0  0  0
   12.3420    5.6635    1.4833 C   0  0  0  0  0  0  0  0  0  0  0  0
   11.8512    4.4692    1.9400 C   0  0  0  0  0  0  0  0  0  0  0  0
   12.0756    3.6967    2.9087 C   0  0  0  0  0  0  0  0  0  0  0  0
   13.0803    4.0677    3.8259 C   0  0  0  0  0  0  0  0  0  0  0  0
   13.7099    5.2906    3.5162 C   0  0  0  0  0  0  0  0  0  0  0  0
   13.8783    7.0013    2.1976 H   0  0  0  0  0  0  0  0  0  0  0  0
   12.0496    6.2364    0.6082 H   0  0  0  0  0  0  0  0  0  0  0  0
    9.2491    4.3510   -1.1716 N   0  0  0  0  0  0  0  0  0  0  0  0
    8.4187    3.7799   -1.6224 N   0  0  0  0  0  0  0  0  0  0  0  0
   14.5011    5.6552    4.1736 H   0  0  0  0  0  0  0  0  0  0  0  0
   13.3622    3.4816    4.6997 H   0  0  0  0  0  0  0  0  0  0  0  0
   10.9736    1.9992    3.0575 H   0  0  0  0  0  0  0  0  0  0  0  0
    9.2774    1.4234    1.4553 O   0  0  0  0  0  0  0  0  0  0  0  0
    9.6182    0.8075    2.4319 C   0  0  0  0  0  0  0  0  0  0  0  0
   10.5599    1.1370    3.3118 O   0  0  0  0  0  0  0  0  0  0  0  0
    8.9716   -0.5445    2.8357 C   0  0  0  0  0  0  0  0  0  0  0  0
    8.0199   -0.8970    1.9625 F   0  0  0  0  0  0  0  0  0  0  0  0
    9.9001   -1.5267    2.8700 F   0  0  0  0  0  0  0  0  0  0  0  0
    8.4101   -0.4578    4.0625 F   0  0  0  0  0  0  0  0  0  0  0  0
  1  6  2  0  0  0  0
  2  3  2  0  0  0  0
  2  1  1  0  0  0  0
  3  4  1  0  0  0  0
  4  5  2  0  0  0  0
  5 12  1  0  0  0  0
  6  5  1  0  0  0  0
  6 11  1  0  0  0  0
  7  1  1  0  0  0  0
  8  2  1  0  0  0  0
 10  9  3  0  0  0  0
 13 16  1  0  0  0  0
 14 15  2  0  0  0  0
 15 17  1  0  0  0  0
 15 16  1  0  0  0  0
 17 19  1  0  0  0  0
 17 20  1  0  0  0  0
 18 17  1  0  0  0  0
M  RAD  2   3   2   4   2
M  END
