Coordinates from ORCA-job Ph-N2-OOCCF3-B3LYPG-aug-cc-pVDZ-scan-d09-49-n400
 OpenBabel11081710403D

 20 20  0  0  1  0  0  0  0  0999 V2000
   11.8442    5.5187    2.0129 C   0  0  0  0  0  0  0  0  0  0  0  0
   12.0790    4.6364    1.0127 C   0  0  0  0  0  0  0  0  0  0  0  0
   12.3658    3.2433    1.3201 C   0  0  0  0  0  0  0  0  0  0  0  0
   12.1990    2.7024    2.7236 C   0  0  1  0  0  0  0  0  0  0  0  0
   12.0673    3.7881    3.7391 C   0  0  0  0  0  0  0  0  0  0  0  0
   11.8862    5.0823    3.3948 C   0  0  0  0  0  0  0  0  0  0  0  0
   11.6330    6.5618    1.7845 H   0  0  0  0  0  0  0  0  0  0  0  0
   12.0703    4.9344   -0.0353 H   0  0  0  0  0  0  0  0  0  0  0  0
   12.7500    2.4767    0.4512 N   0  0  0  0  0  0  0  0  0  0  0  0
   13.1108    1.7454   -0.3548 N   0  0  0  0  0  0  0  0  0  0  0  0
   11.7810    5.8319    4.1803 H   0  0  0  0  0  0  0  0  0  0  0  0
   12.1163    3.4819    4.7836 H   0  0  0  0  0  0  0  0  0  0  0  0
   13.0118    2.0097    2.9703 H   0  0  0  0  0  0  0  0  0  0  0  0
    9.4466    3.1678    2.0857 O   0  0  0  0  0  0  0  0  0  0  0  0
    9.8119    2.1081    2.5222 C   0  0  0  0  0  0  0  0  0  0  0  0
   11.0455    1.7179    2.8334 O   0  0  0  0  0  0  0  0  0  0  0  0
    8.8227    0.9425    2.8091 C   0  0  0  0  0  0  0  0  0  0  0  0
    9.1598   -0.1632    2.1083 F   0  0  0  0  0  0  0  0  0  0  0  0
    8.8326    0.6225    4.1237 F   0  0  0  0  0  0  0  0  0  0  0  0
    7.5732    1.2867    2.4721 F   0  0  0  0  0  0  0  0  0  0  0  0
  1  6  1  0  0  0  0
  2  3  2  0  0  0  0
  2  1  1  0  0  0  0
  3  4  1  0  0  0  0
  4 16  1  0  0  0  0
  4 13  1  1  0  0  0
  4  5  1  0  0  0  0
  5 12  1  0  0  0  0
  6  5  2  0  0  0  0
  6 11  1  0  0  0  0
  7  1  1  0  0  0  0
  8  2  1  0  0  0  0
  9  3  1  0  0  0  0
 10  9  1  0  0  0  0
 14 15  2  0  0  0  0
 15 17  1  0  0  0  0
 15 16  1  0  0  0  0
 17 19  1  0  0  0  0
 18 17  1  0  0  0  0
 20 17  1  0  0  0  0
M  RAD  3   1   2   9   2  10   3
M  END
