Coordinates from ORCA-job Ph-N2-OOCCF3-B3LYPG-aug-cc-pVDZ-scan-d09-49-n400
 OpenBabel11081710403D

 20 18  0  0  0  0  0  0  0  0999 V2000
   13.3269    6.0683    2.3333 C   0  0  0  0  0  0  0  0  0  0  0  0
   12.3248    5.7567    1.3774 C   0  0  0  0  0  0  0  0  0  0  0  0
   11.7699    4.5678    1.7643 C   0  0  0  0  0  0  0  0  0  0  0  0
   11.9170    3.7321    2.6980 C   0  0  0  0  0  0  0  0  0  0  0  0
   12.9108    4.0271    3.6593 C   0  0  0  0  0  0  0  0  0  0  0  0
   13.6051    5.2316    3.4308 C   0  0  0  0  0  0  0  0  0  0  0  0
   13.8929    6.9919    2.1997 H   0  0  0  0  0  0  0  0  0  0  0  0
   12.0840    6.3782    0.5203 H   0  0  0  0  0  0  0  0  0  0  0  0
    9.7272    4.3682   -0.5530 N   0  0  0  0  0  0  0  0  0  0  0  0
    8.9018    3.8372   -1.0580 N   0  0  0  0  0  0  0  0  0  0  0  0
   14.3885    5.5282    4.1303 H   0  0  0  0  0  0  0  0  0  0  0  0
   13.1376    3.3899    4.5133 H   0  0  0  0  0  0  0  0  0  0  0  0
   10.8933    2.0591    2.9299 H   0  0  0  0  0  0  0  0  0  0  0  0
    9.1998    1.3254    1.3874 O   0  0  0  0  0  0  0  0  0  0  0  0
    9.5779    0.7793    2.3918 C   0  0  0  0  0  0  0  0  0  0  0  0
   10.5152    1.1943    3.2376 O   0  0  0  0  0  0  0  0  0  0  0  0
    8.9910   -0.5731    2.8777 C   0  0  0  0  0  0  0  0  0  0  0  0
    8.0443   -1.0113    2.0385 F   0  0  0  0  0  0  0  0  0  0  0  0
    9.9587   -1.5144    2.9533 F   0  0  0  0  0  0  0  0  0  0  0  0
    8.4404   -0.4412    4.1057 F   0  0  0  0  0  0  0  0  0  0  0  0
  1  6  2  0  0  0  0
  2  3  2  0  0  0  0
  2  1  1  0  0  0  0
  3  4  1  0  0  0  0
  4  5  2  0  0  0  0
  5 12  1  0  0  0  0
  6  5  1  0  0  0  0
  6 11  1  0  0  0  0
  7  1  1  0  0  0  0
  8  2  1  0  0  0  0
 10  9  3  0  0  0  0
 13 16  1  0  0  0  0
 14 15  2  0  0  0  0
 15 17  1  0  0  0  0
 15 16  1  0  0  0  0
 17 19  1  0  0  0  0
 17 20  1  0  0  0  0
 18 17  1  0  0  0  0
M  RAD  2   3   2   4   2
M  END
