Coordinates from ORCA-job Ph-N2-OOCCF3-B3LYPG-aug-cc-pVDZ-scan-d09-49-n400
 OpenBabel11081710403D

 20 18  0  0  0  0  0  0  0  0999 V2000
   13.3444    6.0671    2.3640 C   0  0  0  0  0  0  0  0  0  0  0  0
   12.3350    5.7139    1.4302 C   0  0  0  0  0  0  0  0  0  0  0  0
   11.8130    4.5211    1.8517 C   0  0  0  0  0  0  0  0  0  0  0  0
   11.9966    3.7141    2.8019 C   0  0  0  0  0  0  0  0  0  0  0  0
   12.9961    4.0462    3.7426 C   0  0  0  0  0  0  0  0  0  0  0  0
   13.6587    5.2611    3.4751 C   0  0  0  0  0  0  0  0  0  0  0  0
   13.8882    6.9996    2.2021 H   0  0  0  0  0  0  0  0  0  0  0  0
   12.0680    6.3117    0.5639 H   0  0  0  0  0  0  0  0  0  0  0  0
    9.4838    4.3616   -0.8712 N   0  0  0  0  0  0  0  0  0  0  0  0
    8.6551    3.8156   -1.3551 N   0  0  0  0  0  0  0  0  0  0  0  0
   14.4462    5.5910    4.1549 H   0  0  0  0  0  0  0  0  0  0  0  0
   13.2502    3.4331    4.6065 H   0  0  0  0  0  0  0  0  0  0  0  0
   10.9336    2.0280    2.9933 H   0  0  0  0  0  0  0  0  0  0  0  0
    9.2364    1.3716    1.4221 O   0  0  0  0  0  0  0  0  0  0  0  0
    9.5971    0.7910    2.4131 C   0  0  0  0  0  0  0  0  0  0  0  0
   10.5381    1.1642    3.2754 O   0  0  0  0  0  0  0  0  0  0  0  0
    8.9808   -0.5618    2.8598 C   0  0  0  0  0  0  0  0  0  0  0  0
    8.0305   -0.9584    2.0042 F   0  0  0  0  0  0  0  0  0  0  0  0
    9.9293   -1.5238    2.9152 F   0  0  0  0  0  0  0  0  0  0  0  0
    8.4261   -0.4515    4.0879 F   0  0  0  0  0  0  0  0  0  0  0  0
  1  6  2  0  0  0  0
  2  3  2  0  0  0  0
  2  1  1  0  0  0  0
  3  4  1  0  0  0  0
  4  5  2  0  0  0  0
  5 12  1  0  0  0  0
  6  5  1  0  0  0  0
  6 11  1  0  0  0  0
  7  1  1  0  0  0  0
  8  2  1  0  0  0  0
 10  9  3  0  0  0  0
 13 16  1  0  0  0  0
 14 15  2  0  0  0  0
 15 17  1  0  0  0  0
 15 16  1  0  0  0  0
 17 19  1  0  0  0  0
 17 20  1  0  0  0  0
 18 17  1  0  0  0  0
M  RAD  2   3   2   4   2
M  END
