Coordinates from ORCA-job Ph-N2-OOCCF3-B3LYPG-aug-cc-pVDZ-scan-d09-49-n400
 OpenBabel11081710403D

 20 18  0  0  0  0  0  0  0  0999 V2000
   13.2447    6.0556    2.2574 C   0  0  0  0  0  0  0  0  0  0  0  0
   12.2388    5.6904    1.3252 C   0  0  0  0  0  0  0  0  0  0  0  0
   11.7254    4.5017    1.7543 C   0  0  0  0  0  0  0  0  0  0  0  0
   11.8796    3.6692    2.6977 C   0  0  0  0  0  0  0  0  0  0  0  0
   12.8864    4.0395    3.6276 C   0  0  0  0  0  0  0  0  0  0  0  0
   13.5535    5.2517    3.3704 C   0  0  0  0  0  0  0  0  0  0  0  0
   13.7842    6.9895    2.0915 H   0  0  0  0  0  0  0  0  0  0  0  0
   11.9717    6.2828    0.4555 H   0  0  0  0  0  0  0  0  0  0  0  0
    9.9735    4.0908   -0.0584 N   0  0  0  0  0  0  0  0  0  0  0  0
    9.2631    4.1829   -0.8980 N   0  0  0  0  0  0  0  0  0  0  0  0
   14.3369    5.5817    4.0546 H   0  0  0  0  0  0  0  0  0  0  0  0
   13.1398    3.4298    4.4954 H   0  0  0  0  0  0  0  0  0  0  0  0
   10.9288    2.0523    2.9584 H   0  0  0  0  0  0  0  0  0  0  0  0
    9.1958    1.3835    1.4059 O   0  0  0  0  0  0  0  0  0  0  0  0
    9.5818    0.8033    2.3901 C   0  0  0  0  0  0  0  0  0  0  0  0
   10.5312    1.1759    3.2356 O   0  0  0  0  0  0  0  0  0  0  0  0
    8.9793   -0.5567    2.8365 C   0  0  0  0  0  0  0  0  0  0  0  0
    8.0161   -0.9532    1.9944 F   0  0  0  0  0  0  0  0  0  0  0  0
    9.9327   -1.5154    2.8687 F   0  0  0  0  0  0  0  0  0  0  0  0
    8.4439   -0.4598    4.0747 F   0  0  0  0  0  0  0  0  0  0  0  0
  1  6  2  0  0  0  0
  2  3  2  0  0  0  0
  2  1  1  0  0  0  0
  3  4  1  0  0  0  0
  4  5  2  0  0  0  0
  5 12  1  0  0  0  0
  6  5  1  0  0  0  0
  6 11  1  0  0  0  0
  7  1  1  0  0  0  0
  8  2  1  0  0  0  0
 10  9  3  0  0  0  0
 13 16  1  0  0  0  0
 14 15  2  0  0  0  0
 15 17  1  0  0  0  0
 15 16  1  0  0  0  0
 17 19  1  0  0  0  0
 17 20  1  0  0  0  0
 18 17  1  0  0  0  0
M  RAD  2   3   2   4   2
M  END
