Coordinates from ORCA-job Ph-N2-OOCCF3-B3LYPG-aug-cc-pVDZ-scan-d09-49-n400
 OpenBabel11081710403D

 20 20  0  0  1  0  0  0  0  0999 V2000
   11.8808    5.5190    2.0123 C   0  0  0  0  0  0  0  0  0  0  0  0
   12.0857    4.6410    1.0087 C   0  0  0  0  0  0  0  0  0  0  0  0
   12.3552    3.2135    1.2788 C   0  0  0  0  0  0  0  0  0  0  0  0
   12.1849    2.6988    2.7228 C   0  0  1  0  0  0  0  0  0  0  0  0
   12.0505    3.7860    3.7370 C   0  0  0  0  0  0  0  0  0  0  0  0
   11.9061    5.0826    3.3975 C   0  0  0  0  0  0  0  0  0  0  0  0
   11.6929    6.5676    1.7861 H   0  0  0  0  0  0  0  0  0  0  0  0
   12.0704    4.9400   -0.0393 H   0  0  0  0  0  0  0  0  0  0  0  0
   12.6630    2.5355    0.5237 N   0  0  0  0  0  0  0  0  0  0  0  0
   13.0005    1.7815   -0.2928 N   0  0  0  0  0  0  0  0  0  0  0  0
   11.8095    5.8339    4.1822 H   0  0  0  0  0  0  0  0  0  0  0  0
   12.0776    3.4725    4.7806 H   0  0  0  0  0  0  0  0  0  0  0  0
   13.0213    2.0294    2.9589 H   0  0  0  0  0  0  0  0  0  0  0  0
    9.4642    3.1436    2.0416 O   0  0  0  0  0  0  0  0  0  0  0  0
    9.8235    2.0943    2.5049 C   0  0  0  0  0  0  0  0  0  0  0  0
   11.0604    1.7150    2.8309 O   0  0  0  0  0  0  0  0  0  0  0  0
    8.8393    0.9286    2.8027 C   0  0  0  0  0  0  0  0  0  0  0  0
    9.2050   -0.1959    2.1510 F   0  0  0  0  0  0  0  0  0  0  0  0
    8.8192    0.6573    4.1281 F   0  0  0  0  0  0  0  0  0  0  0  0
    7.5972    1.2511    2.4219 F   0  0  0  0  0  0  0  0  0  0  0  0
  1  6  1  0  0  0  0
  2  3  2  0  0  0  0
  2  1  1  0  0  0  0
  3  4  1  0  0  0  0
  4 16  1  0  0  0  0
  4 13  1  1  0  0  0
  4  5  1  0  0  0  0
  5 12  1  0  0  0  0
  6  5  2  0  0  0  0
  6 11  1  0  0  0  0
  7  1  1  0  0  0  0
  8  2  1  0  0  0  0
  9  3  1  0  0  0  0
 10  9  1  0  0  0  0
 14 15  2  0  0  0  0
 15 17  1  0  0  0  0
 15 16  1  0  0  0  0
 17 19  1  0  0  0  0
 18 17  1  0  0  0  0
 20 17  1  0  0  0  0
M  RAD  3   1   2   9   2  10   3
M  END
