Coordinates from ORCA-job Ph-N2-OOCCF3-B3LYPG-aug-cc-pVDZ-scan-d09-49-n400
 OpenBabel11081710403D

 20 18  0  0  0  0  0  0  0  0999 V2000
   13.1411    5.9849    2.1807 C   0  0  0  0  0  0  0  0  0  0  0  0
   12.0522    5.6032    1.3664 C   0  0  0  0  0  0  0  0  0  0  0  0
   11.5856    4.3934    1.7837 C   0  0  0  0  0  0  0  0  0  0  0  0
   11.8478    3.4889    2.7094 C   0  0  0  0  0  0  0  0  0  0  0  0
   12.9525    3.9349    3.4922 C   0  0  0  0  0  0  0  0  0  0  0  0
   13.5774    5.1570    3.2250 C   0  0  0  0  0  0  0  0  0  0  0  0
   13.6298    6.9373    1.9742 H   0  0  0  0  0  0  0  0  0  0  0  0
   11.6721    6.2031    0.5455 H   0  0  0  0  0  0  0  0  0  0  0  0
    9.9643    3.8821    0.5289 N   0  0  0  0  0  0  0  0  0  0  0  0
    9.2490    4.0275   -0.2997 N   0  0  0  0  0  0  0  0  0  0  0  0
   14.4201    5.4740    3.8392 H   0  0  0  0  0  0  0  0  0  0  0  0
   13.2919    3.2911    4.3045 H   0  0  0  0  0  0  0  0  0  0  0  0
   11.3161    2.4534    2.9337 H   0  0  0  0  0  0  0  0  0  0  0  0
    9.3387    1.6479    1.5649 O   0  0  0  0  0  0  0  0  0  0  0  0
    9.7530    0.9372    2.4912 C   0  0  0  0  0  0  0  0  0  0  0  0
   10.7131    1.1361    3.2929 O   0  0  0  0  0  0  0  0  0  0  0  0
    8.9716   -0.4007    2.7091 C   0  0  0  0  0  0  0  0  0  0  0  0
    8.9647   -1.1396    1.5729 F   0  0  0  0  0  0  0  0  0  0  0  0
    9.4859   -1.1737    3.6871 F   0  0  0  0  0  0  0  0  0  0  0  0
    7.6802   -0.1429    3.0356 F   0  0  0  0  0  0  0  0  0  0  0  0
  1  6  2  0  0  0  0
  2  3  2  0  0  0  0
  2  1  1  0  0  0  0
  3  4  1  0  0  0  0
  4 13  1  0  0  0  0
  4  5  2  0  0  0  0
  5 12  1  0  0  0  0
  6  5  1  0  0  0  0
  6 11  1  0  0  0  0
  7  1  1  0  0  0  0
  8  2  1  0  0  0  0
 10  9  3  0  0  0  0
 14 15  2  0  0  0  0
 15 17  1  0  0  0  0
 15 16  1  0  0  0  0
 17 20  1  0  0  0  0
 17 19  1  0  0  0  0
 18 17  1  0  0  0  0
M  RAD  2   3   2  16   2
M  END
