Coordinates from ORCA-job Ph-N2-OOCCF3-B3LYPG-aug-cc-pVDZ-scan-d09-49-n400
 OpenBabel11081710403D

 20 18  0  0  0  0  0  0  0  0999 V2000
   13.2123    6.0447    2.2313 C   0  0  0  0  0  0  0  0  0  0  0  0
   12.2036    5.6738    1.3088 C   0  0  0  0  0  0  0  0  0  0  0  0
   11.6865    4.4826    1.7325 C   0  0  0  0  0  0  0  0  0  0  0  0
   11.8401    3.6402    2.6767 C   0  0  0  0  0  0  0  0  0  0  0  0
   12.8563    4.0291    3.5932 C   0  0  0  0  0  0  0  0  0  0  0  0
   13.5252    5.2394    3.3415 C   0  0  0  0  0  0  0  0  0  0  0  0
   13.7484    6.9795    2.0612 H   0  0  0  0  0  0  0  0  0  0  0  0
   11.9313    6.2658    0.4402 H   0  0  0  0  0  0  0  0  0  0  0  0
   10.0820    4.0638    0.1193 N   0  0  0  0  0  0  0  0  0  0  0  0
    9.4026    4.1499   -0.7461 N   0  0  0  0  0  0  0  0  0  0  0  0
   14.3104    5.5668    4.0246 H   0  0  0  0  0  0  0  0  0  0  0  0
   13.1143    3.4191    4.4599 H   0  0  0  0  0  0  0  0  0  0  0  0
   10.9543    2.0715    2.9734 H   0  0  0  0  0  0  0  0  0  0  0  0
    9.2284    1.4228    1.4074 O   0  0  0  0  0  0  0  0  0  0  0  0
    9.6030    0.8300    2.3905 C   0  0  0  0  0  0  0  0  0  0  0  0
   10.5454    1.1875    3.2447 O   0  0  0  0  0  0  0  0  0  0  0  0
    8.9816   -0.5280    2.8170 C   0  0  0  0  0  0  0  0  0  0  0  0
    8.0203   -0.9059    1.9634 F   0  0  0  0  0  0  0  0  0  0  0  0
    9.9239   -1.4979    2.8461 F   0  0  0  0  0  0  0  0  0  0  0  0
    8.4372   -0.4393    4.0519 F   0  0  0  0  0  0  0  0  0  0  0  0
  1  6  2  0  0  0  0
  2  3  2  0  0  0  0
  2  1  1  0  0  0  0
  3  4  1  0  0  0  0
  4  5  2  0  0  0  0
  5 12  1  0  0  0  0
  6  5  1  0  0  0  0
  6 11  1  0  0  0  0
  7  1  1  0  0  0  0
  8  2  1  0  0  0  0
 10  9  3  0  0  0  0
 13 16  1  0  0  0  0
 14 15  2  0  0  0  0
 15 17  1  0  0  0  0
 15 16  1  0  0  0  0
 17 19  1  0  0  0  0
 17 20  1  0  0  0  0
 18 17  1  0  0  0  0
M  RAD  2   3   2   4   2
M  END
