Coordinates from ORCA-job Ph-N2-OOCCF3-B3LYPG-aug-cc-pVDZ-scan-d09-49-n400
 OpenBabel11081710403D

 20 18  0  0  0  0  0  0  0  0999 V2000
   13.3413    6.0673    2.3590 C   0  0  0  0  0  0  0  0  0  0  0  0
   12.3325    5.7186    1.4228 C   0  0  0  0  0  0  0  0  0  0  0  0
   11.8071    4.5262    1.8408 C   0  0  0  0  0  0  0  0  0  0  0  0
   11.9866    3.7160    2.7892 C   0  0  0  0  0  0  0  0  0  0  0  0
   12.9856    4.0441    3.7321 C   0  0  0  0  0  0  0  0  0  0  0  0
   13.6517    5.2579    3.4688 C   0  0  0  0  0  0  0  0  0  0  0  0
   13.8875    6.9989    2.2001 H   0  0  0  0  0  0  0  0  0  0  0  0
   12.0682    6.3189    0.5574 H   0  0  0  0  0  0  0  0  0  0  0  0
    9.5188    4.3611   -0.8242 N   0  0  0  0  0  0  0  0  0  0  0  0
    8.6905    3.8211   -1.3155 N   0  0  0  0  0  0  0  0  0  0  0  0
   14.4388    5.5843    4.1506 H   0  0  0  0  0  0  0  0  0  0  0  0
   13.2368    3.4284    4.5951 H   0  0  0  0  0  0  0  0  0  0  0  0
   10.9280    2.0318    2.9849 H   0  0  0  0  0  0  0  0  0  0  0  0
    9.2313    1.3655    1.4170 O   0  0  0  0  0  0  0  0  0  0  0  0
    9.5942    0.7893    2.4099 C   0  0  0  0  0  0  0  0  0  0  0  0
   10.5346    1.1680    3.2702 O   0  0  0  0  0  0  0  0  0  0  0  0
    8.9816   -0.5635    2.8617 C   0  0  0  0  0  0  0  0  0  0  0  0
    8.0315   -0.9653    2.0083 F   0  0  0  0  0  0  0  0  0  0  0  0
    9.9326   -1.5229    2.9195 F   0  0  0  0  0  0  0  0  0  0  0  0
    8.4277   -0.4504    4.0899 F   0  0  0  0  0  0  0  0  0  0  0  0
  1  6  2  0  0  0  0
  2  3  2  0  0  0  0
  2  1  1  0  0  0  0
  3  4  1  0  0  0  0
  4  5  2  0  0  0  0
  5 12  1  0  0  0  0
  6  5  1  0  0  0  0
  6 11  1  0  0  0  0
  7  1  1  0  0  0  0
  8  2  1  0  0  0  0
 10  9  3  0  0  0  0
 13 16  1  0  0  0  0
 14 15  2  0  0  0  0
 15 17  1  0  0  0  0
 15 16  1  0  0  0  0
 17 19  1  0  0  0  0
 17 20  1  0  0  0  0
 18 17  1  0  0  0  0
M  RAD  2   3   2   4   2
M  END
