Coordinates from ORCA-job Ph-N2-OOCCF3-B3LYPG-aug-cc-pVDZ-scan-d09-49-n400
 OpenBabel11081710403D

 20 18  0  0  0  0  0  0  0  0999 V2000
   13.3551    6.0661    2.3801 C   0  0  0  0  0  0  0  0  0  0  0  0
   12.3437    5.7000    1.4534 C   0  0  0  0  0  0  0  0  0  0  0  0
   11.8301    4.5062    1.8841 C   0  0  0  0  0  0  0  0  0  0  0  0
   12.0265    3.7092    2.8405 C   0  0  0  0  0  0  0  0  0  0  0  0
   13.0274    4.0526    3.7746 C   0  0  0  0  0  0  0  0  0  0  0  0
   13.6802    5.2702    3.4952 C   0  0  0  0  0  0  0  0  0  0  0  0
   13.8918    7.0011    2.2093 H   0  0  0  0  0  0  0  0  0  0  0  0
   12.0695    6.2910    0.5846 H   0  0  0  0  0  0  0  0  0  0  0  0
    9.3735    4.3505   -1.0073 N   0  0  0  0  0  0  0  0  0  0  0  0
    8.5443    3.7865   -1.4689 N   0  0  0  0  0  0  0  0  0  0  0  0
   14.4687    5.6103    4.1688 H   0  0  0  0  0  0  0  0  0  0  0  0
   13.2897    3.4472    4.6415 H   0  0  0  0  0  0  0  0  0  0  0  0
   10.9505    2.0191    3.0175 H   0  0  0  0  0  0  0  0  0  0  0  0
    9.2527    1.3937    1.4358 O   0  0  0  0  0  0  0  0  0  0  0  0
    9.6065    0.7991    2.4209 C   0  0  0  0  0  0  0  0  0  0  0  0
   10.5485    1.1557    3.2894 O   0  0  0  0  0  0  0  0  0  0  0  0
    8.9789   -0.5537    2.8513 C   0  0  0  0  0  0  0  0  0  0  0  0
    8.0275   -0.9333    1.9893 F   0  0  0  0  0  0  0  0  0  0  0  0
    9.9198   -1.5235    2.8981 F   0  0  0  0  0  0  0  0  0  0  0  0
    8.4222   -0.4527    4.0793 F   0  0  0  0  0  0  0  0  0  0  0  0
  1  6  2  0  0  0  0
  2  3  2  0  0  0  0
  2  1  1  0  0  0  0
  3  4  1  0  0  0  0
  4  5  2  0  0  0  0
  5 12  1  0  0  0  0
  6  5  1  0  0  0  0
  6 11  1  0  0  0  0
  7  1  1  0  0  0  0
  8  2  1  0  0  0  0
 10  9  3  0  0  0  0
 13 16  1  0  0  0  0
 14 15  2  0  0  0  0
 15 17  1  0  0  0  0
 15 16  1  0  0  0  0
 17 19  1  0  0  0  0
 17 20  1  0  0  0  0
 18 17  1  0  0  0  0
M  RAD  2   3   2   4   2
M  END
