Coordinates from ORCA-job Ph-N2-OOCCF3-B3LYPG-aug-cc-pVDZ-scan-d09-49-n400
 OpenBabel11081710403D

 20 18  0  0  0  0  0  0  0  0999 V2000
   13.3323    6.0687    2.3429 C   0  0  0  0  0  0  0  0  0  0  0  0
   12.3259    5.7353    1.3989 C   0  0  0  0  0  0  0  0  0  0  0  0
   11.7873    4.5444    1.8040 C   0  0  0  0  0  0  0  0  0  0  0  0
   11.9544    3.7242    2.7471 C   0  0  0  0  0  0  0  0  0  0  0  0
   12.9515    4.0384    3.6974 C   0  0  0  0  0  0  0  0  0  0  0  0
   13.6297    5.2483    3.4479 C   0  0  0  0  0  0  0  0  0  0  0  0
   13.8870    6.9969    2.1940 H   0  0  0  0  0  0  0  0  0  0  0  0
   12.0715    6.3445    0.5369 H   0  0  0  0  0  0  0  0  0  0  0  0
    9.6303    4.3528   -0.6676 N   0  0  0  0  0  0  0  0  0  0  0  0
    8.8041    3.8268   -1.1766 N   0  0  0  0  0  0  0  0  0  0  0  0
   14.4156    5.5624    4.1368 H   0  0  0  0  0  0  0  0  0  0  0  0
   13.1928    3.4139    4.5569 H   0  0  0  0  0  0  0  0  0  0  0  0
   10.9107    2.0438    2.9593 H   0  0  0  0  0  0  0  0  0  0  0  0
    9.2166    1.3486    1.4009 O   0  0  0  0  0  0  0  0  0  0  0  0
    9.5852    0.7852    2.3991 C   0  0  0  0  0  0  0  0  0  0  0  0
   10.5236    1.1795    3.2541 O   0  0  0  0  0  0  0  0  0  0  0  0
    8.9830   -0.5676    2.8650 C   0  0  0  0  0  0  0  0  0  0  0  0
    8.0353   -0.9851    2.0165 F   0  0  0  0  0  0  0  0  0  0  0  0
    9.9411   -1.5193    2.9316 F   0  0  0  0  0  0  0  0  0  0  0  0
    8.4291   -0.4464    4.0924 F   0  0  0  0  0  0  0  0  0  0  0  0
  1  6  2  0  0  0  0
  2  3  2  0  0  0  0
  2  1  1  0  0  0  0
  3  4  1  0  0  0  0
  4  5  2  0  0  0  0
  5 12  1  0  0  0  0
  6  5  1  0  0  0  0
  6 11  1  0  0  0  0
  7  1  1  0  0  0  0
  8  2  1  0  0  0  0
 10  9  3  0  0  0  0
 13 16  1  0  0  0  0
 14 15  2  0  0  0  0
 15 17  1  0  0  0  0
 15 16  1  0  0  0  0
 17 19  1  0  0  0  0
 17 20  1  0  0  0  0
 18 17  1  0  0  0  0
M  RAD  2   3   2   4   2
M  END
