Coordinates from ORCA-job Ph-N2-OOCCF3-B3LYPG-aug-cc-pVDZ-scan-d09-49-n400
 OpenBabel11081710403D

 20 19  0  0  0  0  0  0  0  0999 V2000
   12.6076    5.9388    2.0622 C   0  0  0  0  0  0  0  0  0  0  0  0
   12.2887    4.9128    1.1613 C   0  0  0  0  0  0  0  0  0  0  0  0
   12.0583    3.6909    1.7548 C   0  0  0  0  0  0  0  0  0  0  0  0
   12.0945    3.3452    3.0808 C   0  0  0  0  0  0  0  0  0  0  0  0
   12.4252    4.4006    3.9437 C   0  0  0  0  0  0  0  0  0  0  0  0
   12.6762    5.6808    3.4366 C   0  0  0  0  0  0  0  0  0  0  0  0
   12.7975    6.9400    1.6764 H   0  0  0  0  0  0  0  0  0  0  0  0
   12.2198    5.0731    0.0887 H   0  0  0  0  0  0  0  0  0  0  0  0
   11.6871    2.4137    0.6453 N   0  0  0  0  0  0  0  0  0  0  0  0
   11.7703    2.0955   -0.4209 N   0  0  0  0  0  0  0  0  0  0  0  0
   12.9235    6.4915    4.1216 H   0  0  0  0  0  0  0  0  0  0  0  0
   12.4764    4.2106    5.0152 H   0  0  0  0  0  0  0  0  0  0  0  0
   11.8635    2.3321    3.4016 H   0  0  0  0  0  0  0  0  0  0  0  0
    9.0916    2.2468    1.4944 O   0  0  0  0  0  0  0  0  0  0  0  0
    9.6290    1.2494    1.9735 C   0  0  0  0  0  0  0  0  0  0  0  0
   10.8681    0.9358    1.9934 O   0  0  0  0  0  0  0  0  0  0  0  0
    8.7357    0.1874    2.6965 C   0  0  0  0  0  0  0  0  0  0  0  0
    8.9314   -1.0548    2.1939 F   0  0  0  0  0  0  0  0  0  0  0  0
    9.0391    0.1418    4.0232 F   0  0  0  0  0  0  0  0  0  0  0  0
    7.4234    0.4632    2.5953 F   0  0  0  0  0  0  0  0  0  0  0  0
  1  6  2  0  0  0  0
  2  3  2  0  0  0  0
  2  1  1  0  0  0  0
  3  4  1  0  0  0  0
  4 13  1  0  0  0  0
  4  5  2  0  0  0  0
  5 12  1  0  0  0  0
  6  5  1  0  0  0  0
  6 11  1  0  0  0  0
  7  1  1  0  0  0  0
  8  2  1  0  0  0  0
  9  3  1  0  0  0  0
 10  9  2  0  0  0  0
 14 15  2  0  0  0  0
 15 16  1  0  0  0  0
 15 17  1  0  0  0  0
 17 19  1  0  0  0  0
 18 17  1  0  0  0  0
 20 17  1  0  0  0  0
M  RAD  2  10   2  16   2
M  END
