Coordinates from ORCA-job Ph-N2-OOCCF3-B3LYPG-aug-cc-pVDZ-scan-d09-49-n400
 OpenBabel11081710403D

 20 19  0  0  0  0  0  0  0  0999 V2000
   12.6451    5.9552    2.0739 C   0  0  0  0  0  0  0  0  0  0  0  0
   12.3257    4.9427    1.1534 C   0  0  0  0  0  0  0  0  0  0  0  0
   12.0636    3.7350    1.7498 C   0  0  0  0  0  0  0  0  0  0  0  0
   12.0580    3.3604    3.0623 C   0  0  0  0  0  0  0  0  0  0  0  0
   12.3898    4.4063    3.9402 C   0  0  0  0  0  0  0  0  0  0  0  0
   12.6771    5.6846    3.4471 C   0  0  0  0  0  0  0  0  0  0  0  0
   12.8638    6.9549    1.6994 H   0  0  0  0  0  0  0  0  0  0  0  0
   12.2835    5.1092    0.0807 H   0  0  0  0  0  0  0  0  0  0  0  0
   11.6661    2.4032    0.5867 N   0  0  0  0  0  0  0  0  0  0  0  0
   11.7434    2.0857   -0.4780 N   0  0  0  0  0  0  0  0  0  0  0  0
   12.9249    6.4852    4.1435 H   0  0  0  0  0  0  0  0  0  0  0  0
   12.4127    4.2068    5.0110 H   0  0  0  0  0  0  0  0  0  0  0  0
   11.8013    2.3457    3.3610 H   0  0  0  0  0  0  0  0  0  0  0  0
    9.0913    2.2228    1.5097 O   0  0  0  0  0  0  0  0  0  0  0  0
    9.6328    1.2232    1.9821 C   0  0  0  0  0  0  0  0  0  0  0  0
   10.8686    0.9040    1.9870 O   0  0  0  0  0  0  0  0  0  0  0  0
    8.7424    0.1689    2.7216 C   0  0  0  0  0  0  0  0  0  0  0  0
    8.9243   -1.0772    2.2233 F   0  0  0  0  0  0  0  0  0  0  0  0
    9.0633    0.1280    4.0450 F   0  0  0  0  0  0  0  0  0  0  0  0
    7.4297    0.4504    2.6377 F   0  0  0  0  0  0  0  0  0  0  0  0
  1  6  2  0  0  0  0
  2  3  2  0  0  0  0
  2  1  1  0  0  0  0
  3  4  1  0  0  0  0
  4 13  1  0  0  0  0
  4  5  2  0  0  0  0
  5 12  1  0  0  0  0
  6  5  1  0  0  0  0
  6 11  1  0  0  0  0
  7  1  1  0  0  0  0
  8  2  1  0  0  0  0
  9  3  1  0  0  0  0
 10  9  2  0  0  0  0
 14 15  2  0  0  0  0
 15 16  1  0  0  0  0
 15 17  1  0  0  0  0
 17 19  1  0  0  0  0
 18 17  1  0  0  0  0
 20 17  1  0  0  0  0
M  RAD  2  10   2  16   2
M  END
