Coordinates from ORCA-job Ph-N2-OOCCF3-B3LYPG-aug-cc-pVDZ-scan-d09-49-n400
 OpenBabel11081710403D

 20 20  0  0  1  0  0  0  0  0999 V2000
   11.8373    5.5195    2.0132 C   0  0  0  0  0  0  0  0  0  0  0  0
   12.0779    4.6360    1.0133 C   0  0  0  0  0  0  0  0  0  0  0  0
   12.3666    3.2508    1.3304 C   0  0  0  0  0  0  0  0  0  0  0  0
   12.2035    2.7034    2.7248 C   0  0  1  0  0  0  0  0  0  0  0  0
   12.0735    3.7894    3.7398 C   0  0  0  0  0  0  0  0  0  0  0  0
   11.8838    5.0829    3.3940 C   0  0  0  0  0  0  0  0  0  0  0  0
   11.6217    6.5616    1.7845 H   0  0  0  0  0  0  0  0  0  0  0  0
   12.0710    4.9334   -0.0347 H   0  0  0  0  0  0  0  0  0  0  0  0
   12.7626    2.4672    0.4394 N   0  0  0  0  0  0  0  0  0  0  0  0
   13.1242    1.7392   -0.3653 N   0  0  0  0  0  0  0  0  0  0  0  0
   11.7772    5.8322    4.1797 H   0  0  0  0  0  0  0  0  0  0  0  0
   12.1285    3.4858    4.7848 H   0  0  0  0  0  0  0  0  0  0  0  0
   13.0101    2.0045    2.9728 H   0  0  0  0  0  0  0  0  0  0  0  0
    9.4446    3.1693    2.0888 O   0  0  0  0  0  0  0  0  0  0  0  0
    9.8101    2.1094    2.5256 C   0  0  0  0  0  0  0  0  0  0  0  0
   11.0422    1.7177    2.8366 O   0  0  0  0  0  0  0  0  0  0  0  0
    8.8192    0.9441    2.8093 C   0  0  0  0  0  0  0  0  0  0  0  0
    9.1532   -0.1590    2.1020 F   0  0  0  0  0  0  0  0  0  0  0  0
    8.8307    0.6168    4.1220 F   0  0  0  0  0  0  0  0  0  0  0  0
    7.5692    1.2911    2.4764 F   0  0  0  0  0  0  0  0  0  0  0  0
  1  6  1  0  0  0  0
  2  3  2  0  0  0  0
  2  1  1  0  0  0  0
  3  4  1  0  0  0  0
  4 16  1  0  0  0  0
  4 13  1  1  0  0  0
  4  5  1  0  0  0  0
  5 12  1  0  0  0  0
  6  5  2  0  0  0  0
  6 11  1  0  0  0  0
  7  1  1  0  0  0  0
  8  2  1  0  0  0  0
  9  3  1  0  0  0  0
 10  9  1  0  0  0  0
 14 15  2  0  0  0  0
 15 17  1  0  0  0  0
 15 16  1  0  0  0  0
 17 19  1  0  0  0  0
 18 17  1  0  0  0  0
 20 17  1  0  0  0  0
M  RAD  3   1   2   9   2  10   3
M  END
