Coordinates from ORCA-job Ph-N2-OOCCF3-B3LYPG-aug-cc-pVDZ-scan-d09-49-n400
 OpenBabel11081710403D

 20 18  0  0  0  0  0  0  0  0999 V2000
   13.3141    6.0649    2.3153 C   0  0  0  0  0  0  0  0  0  0  0  0
   12.3155    5.7730    1.3490 C   0  0  0  0  0  0  0  0  0  0  0  0
   11.7484    4.5883    1.7233 C   0  0  0  0  0  0  0  0  0  0  0  0
   11.8705    3.7345    2.6455 C   0  0  0  0  0  0  0  0  0  0  0  0
   12.8631    4.0156    3.6147 C   0  0  0  0  0  0  0  0  0  0  0  0
   13.5740    5.2138    3.4061 C   0  0  0  0  0  0  0  0  0  0  0  0
   13.8912    6.9835    2.1950 H   0  0  0  0  0  0  0  0  0  0  0  0
   12.0874    6.4048    0.4962 H   0  0  0  0  0  0  0  0  0  0  0  0
    9.8604    4.3895   -0.3954 N   0  0  0  0  0  0  0  0  0  0  0  0
    9.0358    3.8524   -0.8954 N   0  0  0  0  0  0  0  0  0  0  0  0
   14.3550    5.4940    4.1148 H   0  0  0  0  0  0  0  0  0  0  0  0
   13.0764    3.3672    4.4642 H   0  0  0  0  0  0  0  0  0  0  0  0
   10.8770    2.0776    2.9016 H   0  0  0  0  0  0  0  0  0  0  0  0
    9.1828    1.3022    1.3698 O   0  0  0  0  0  0  0  0  0  0  0  0
    9.5706    0.7756    2.3813 C   0  0  0  0  0  0  0  0  0  0  0  0
   10.5046    1.2112    3.2189 O   0  0  0  0  0  0  0  0  0  0  0  0
    8.9990   -0.5763    2.8873 C   0  0  0  0  0  0  0  0  0  0  0  0
    8.0550   -1.0364    2.0568 F   0  0  0  0  0  0  0  0  0  0  0  0
    9.9767   -1.5065    2.9736 F   0  0  0  0  0  0  0  0  0  0  0  0
    8.4498   -0.4335    4.1147 F   0  0  0  0  0  0  0  0  0  0  0  0
  1  6  2  0  0  0  0
  2  3  2  0  0  0  0
  2  1  1  0  0  0  0
  3  4  1  0  0  0  0
  4  5  2  0  0  0  0
  5 12  1  0  0  0  0
  6  5  1  0  0  0  0
  6 11  1  0  0  0  0
  7  1  1  0  0  0  0
  8  2  1  0  0  0  0
 10  9  3  0  0  0  0
 13 16  1  0  0  0  0
 14 15  2  0  0  0  0
 15 17  1  0  0  0  0
 15 16  1  0  0  0  0
 17 19  1  0  0  0  0
 17 20  1  0  0  0  0
 18 17  1  0  0  0  0
M  RAD  2   3   2   4   2
M  END
