Coordinates from ORCA-job Ph-N2-OOCCF3-B3LYPG-aug-cc-pVDZ-scan-d09-49-n400
 OpenBabel11081710403D

 20 18  0  0  0  0  0  0  0  0999 V2000
   13.3440    6.0671    2.3633 C   0  0  0  0  0  0  0  0  0  0  0  0
   12.3346    5.7146    1.4291 C   0  0  0  0  0  0  0  0  0  0  0  0
   11.8121    4.5218    1.8501 C   0  0  0  0  0  0  0  0  0  0  0  0
   11.9951    3.7143    2.8000 C   0  0  0  0  0  0  0  0  0  0  0  0
   12.9945    4.0458    3.7411 C   0  0  0  0  0  0  0  0  0  0  0  0
   13.6577    5.2605    3.4742 C   0  0  0  0  0  0  0  0  0  0  0  0
   13.8881    6.9995    2.2019 H   0  0  0  0  0  0  0  0  0  0  0  0
   12.0680    6.3128    0.5630 H   0  0  0  0  0  0  0  0  0  0  0  0
    9.4889    4.3617   -0.8646 N   0  0  0  0  0  0  0  0  0  0  0  0
    8.6602    3.8166   -1.3496 N   0  0  0  0  0  0  0  0  0  0  0  0
   14.4451    5.5900    4.1543 H   0  0  0  0  0  0  0  0  0  0  0  0
   13.2482    3.4323    4.6049 H   0  0  0  0  0  0  0  0  0  0  0  0
   10.9328    2.0286    2.9921 H   0  0  0  0  0  0  0  0  0  0  0  0
    9.2357    1.3707    1.4214 O   0  0  0  0  0  0  0  0  0  0  0  0
    9.5967    0.7907    2.4127 C   0  0  0  0  0  0  0  0  0  0  0  0
   10.5376    1.1648    3.2746 O   0  0  0  0  0  0  0  0  0  0  0  0
    8.9810   -0.5621    2.8602 C   0  0  0  0  0  0  0  0  0  0  0  0
    8.0307   -0.9594    2.0049 F   0  0  0  0  0  0  0  0  0  0  0  0
    9.9299   -1.5237    2.9159 F   0  0  0  0  0  0  0  0  0  0  0  0
    8.4264   -0.4513    4.0883 F   0  0  0  0  0  0  0  0  0  0  0  0
  1  6  2  0  0  0  0
  2  3  2  0  0  0  0
  2  1  1  0  0  0  0
  3  4  1  0  0  0  0
  4  5  2  0  0  0  0
  5 12  1  0  0  0  0
  6  5  1  0  0  0  0
  6 11  1  0  0  0  0
  7  1  1  0  0  0  0
  8  2  1  0  0  0  0
 10  9  3  0  0  0  0
 13 16  1  0  0  0  0
 14 15  2  0  0  0  0
 15 17  1  0  0  0  0
 15 16  1  0  0  0  0
 17 19  1  0  0  0  0
 17 20  1  0  0  0  0
 18 17  1  0  0  0  0
M  RAD  2   3   2   4   2
M  END
