Coordinates from ORCA-job Ph-N2-OOCCF3-B3LYPG-aug-cc-pVDZ-scan-d09-49-n400
 OpenBabel11081710403D

 20 18  0  0  0  0  0  0  0  0999 V2000
   13.3543    6.0509    2.3953 C   0  0  0  0  0  0  0  0  0  0  0  0
   12.3323    5.6197    1.5093 C   0  0  0  0  0  0  0  0  0  0  0  0
   11.8664    4.4268    1.9955 C   0  0  0  0  0  0  0  0  0  0  0  0
   12.1175    3.6785    2.9764 C   0  0  0  0  0  0  0  0  0  0  0  0
   13.1278    4.0818    3.8727 C   0  0  0  0  0  0  0  0  0  0  0  0
   13.7334    5.3083    3.5303 C   0  0  0  0  0  0  0  0  0  0  0  0
   13.8566    6.9950    2.1765 H   0  0  0  0  0  0  0  0  0  0  0  0
   12.0193    6.1710    0.6274 H   0  0  0  0  0  0  0  0  0  0  0  0
    9.1451    4.3807   -1.3316 N   0  0  0  0  0  0  0  0  0  0  0  0
    8.3135    3.8008   -1.7688 N   0  0  0  0  0  0  0  0  0  0  0  0
   14.5275    5.6984    4.1693 H   0  0  0  0  0  0  0  0  0  0  0  0
   13.4308    3.5175    4.7537 H   0  0  0  0  0  0  0  0  0  0  0  0
   10.9993    1.9754    3.1090 H   0  0  0  0  0  0  0  0  0  0  0  0
    9.3140    1.4522    1.4809 O   0  0  0  0  0  0  0  0  0  0  0  0
    9.6355    0.8140    2.4496 C   0  0  0  0  0  0  0  0  0  0  0  0
   10.5721    1.1153    3.3451 O   0  0  0  0  0  0  0  0  0  0  0  0
    8.9667   -0.5361    2.8219 C   0  0  0  0  0  0  0  0  0  0  0  0
    8.0193   -0.8595    1.9330 F   0  0  0  0  0  0  0  0  0  0  0  0
    9.8816   -1.5313    2.8472 F   0  0  0  0  0  0  0  0  0  0  0  0
    8.3941   -0.4643    4.0445 F   0  0  0  0  0  0  0  0  0  0  0  0
  1  6  2  0  0  0  0
  2  3  2  0  0  0  0
  2  1  1  0  0  0  0
  3  4  1  0  0  0  0
  4  5  2  0  0  0  0
  5 12  1  0  0  0  0
  6  5  1  0  0  0  0
  6 11  1  0  0  0  0
  7  1  1  0  0  0  0
  8  2  1  0  0  0  0
 10  9  3  0  0  0  0
 13 16  1  0  0  0  0
 14 15  2  0  0  0  0
 15 17  1  0  0  0  0
 15 16  1  0  0  0  0
 17 19  1  0  0  0  0
 17 20  1  0  0  0  0
 18 17  1  0  0  0  0
M  RAD  2   3   2   4   2
M  END
