Coordinates from ORCA-job Ph-N2-OOCCF3-B3LYPG-aug-cc-pVDZ-scan-d09-49-n400
 OpenBabel11081710403D

 20 20  0  0  1  0  0  0  0  0999 V2000
   11.8299    5.5216    2.0136 C   0  0  0  0  0  0  0  0  0  0  0  0
   12.0789    4.6367    1.0146 C   0  0  0  0  0  0  0  0  0  0  0  0
   12.3686    3.2606    1.3429 C   0  0  0  0  0  0  0  0  0  0  0  0
   12.2074    2.7061    2.7269 C   0  0  1  0  0  0  0  0  0  0  0  0
   12.0770    3.7922    3.7409 C   0  0  0  0  0  0  0  0  0  0  0  0
   11.8782    5.0851    3.3931 C   0  0  0  0  0  0  0  0  0  0  0  0
   11.6098    6.5623    1.7837 H   0  0  0  0  0  0  0  0  0  0  0  0
   12.0759    4.9325   -0.0337 H   0  0  0  0  0  0  0  0  0  0  0  0
   12.7835    2.4474    0.4161 N   0  0  0  0  0  0  0  0  0  0  0  0
   13.1461    1.7230   -0.3864 N   0  0  0  0  0  0  0  0  0  0  0  0
   11.7685    5.8340    4.1788 H   0  0  0  0  0  0  0  0  0  0  0  0
   12.1364    3.4913    4.7863 H   0  0  0  0  0  0  0  0  0  0  0  0
   13.0079    2.0013    2.9766 H   0  0  0  0  0  0  0  0  0  0  0  0
    9.4389    3.1760    2.1067 O   0  0  0  0  0  0  0  0  0  0  0  0
    9.8066    2.1127    2.5346 C   0  0  0  0  0  0  0  0  0  0  0  0
   11.0382    1.7180    2.8391 O   0  0  0  0  0  0  0  0  0  0  0  0
    8.8152    0.9455    2.8101 C   0  0  0  0  0  0  0  0  0  0  0  0
    9.1435   -0.1494    2.0868 F   0  0  0  0  0  0  0  0  0  0  0  0
    8.8330    0.6010    4.1183 F   0  0  0  0  0  0  0  0  0  0  0  0
    7.5634    1.2976    2.4884 F   0  0  0  0  0  0  0  0  0  0  0  0
  1  6  1  0  0  0  0
  2  3  2  0  0  0  0
  2  1  1  0  0  0  0
  3  4  1  0  0  0  0
  4 16  1  0  0  0  0
  4 13  1  1  0  0  0
  4  5  1  0  0  0  0
  5 12  1  0  0  0  0
  6  5  2  0  0  0  0
  6 11  1  0  0  0  0
  7  1  1  0  0  0  0
  8  2  1  0  0  0  0
  9  3  1  0  0  0  0
 10  9  1  0  0  0  0
 14 15  2  0  0  0  0
 15 17  1  0  0  0  0
 15 16  1  0  0  0  0
 17 19  1  0  0  0  0
 18 17  1  0  0  0  0
 20 17  1  0  0  0  0
M  RAD  3   1   2   9   2  10   3
M  END
