Coordinates from ORCA-job Ph-N2-OOCCF3-B3LYPG-aug-cc-pVDZ-scan-d09-49-n400
 OpenBabel11081710403D

 20 19  0  0  0  0  0  0  0  0999 V2000
   12.6022    5.9368    2.0610 C   0  0  0  0  0  0  0  0  0  0  0  0
   12.2838    4.9093    1.1622 C   0  0  0  0  0  0  0  0  0  0  0  0
   12.0579    3.6855    1.7551 C   0  0  0  0  0  0  0  0  0  0  0  0
   12.0995    3.3428    3.0824 C   0  0  0  0  0  0  0  0  0  0  0  0
   12.4296    4.3992    3.9438 C   0  0  0  0  0  0  0  0  0  0  0  0
   12.6756    5.6799    3.4354 C   0  0  0  0  0  0  0  0  0  0  0  0
   12.7881    6.9383    1.6741 H   0  0  0  0  0  0  0  0  0  0  0  0
   12.2114    5.0691    0.0897 H   0  0  0  0  0  0  0  0  0  0  0  0
   11.6902    2.4152    0.6521 N   0  0  0  0  0  0  0  0  0  0  0  0
   11.7743    2.0963   -0.4141 N   0  0  0  0  0  0  0  0  0  0  0  0
   12.9225    6.4917    4.1192 H   0  0  0  0  0  0  0  0  0  0  0  0
   12.4845    4.2101    5.0152 H   0  0  0  0  0  0  0  0  0  0  0  0
   11.8723    2.3297    3.4055 H   0  0  0  0  0  0  0  0  0  0  0  0
    9.0931    2.2501    1.4928 O   0  0  0  0  0  0  0  0  0  0  0  0
    9.6294    1.2527    1.9729 C   0  0  0  0  0  0  0  0  0  0  0  0
   10.8685    0.9393    1.9953 O   0  0  0  0  0  0  0  0  0  0  0  0
    8.7347    0.1904    2.6937 C   0  0  0  0  0  0  0  0  0  0  0  0
    8.9320   -1.0517    2.1912 F   0  0  0  0  0  0  0  0  0  0  0  0
    9.0351    0.1447    4.0209 F   0  0  0  0  0  0  0  0  0  0  0  0
    7.4226    0.4660    2.5893 F   0  0  0  0  0  0  0  0  0  0  0  0
  1  6  2  0  0  0  0
  2  3  2  0  0  0  0
  2  1  1  0  0  0  0
  3  4  1  0  0  0  0
  4 13  1  0  0  0  0
  4  5  2  0  0  0  0
  5 12  1  0  0  0  0
  6  5  1  0  0  0  0
  6 11  1  0  0  0  0
  7  1  1  0  0  0  0
  8  2  1  0  0  0  0
  9  3  1  0  0  0  0
 10  9  2  0  0  0  0
 14 15  2  0  0  0  0
 15 16  1  0  0  0  0
 15 17  1  0  0  0  0
 17 19  1  0  0  0  0
 18 17  1  0  0  0  0
 20 17  1  0  0  0  0
M  RAD  2  10   2  16   2
M  END
