Coordinates from ORCA-job Ph-N2-OOCCF3-B3LYPG-aug-cc-pVDZ-scan-d09-49-n400
 OpenBabel11081710403D

 20 18  0  0  0  0  0  0  0  0999 V2000
   13.1047    5.9999    2.1391 C   0  0  0  0  0  0  0  0  0  0  0  0
   12.0167    5.5632    1.3580 C   0  0  0  0  0  0  0  0  0  0  0  0
   11.5672    4.3471    1.7913 C   0  0  0  0  0  0  0  0  0  0  0  0
   11.9006    3.4844    2.7587 C   0  0  0  0  0  0  0  0  0  0  0  0
   12.9987    3.9819    3.5055 C   0  0  0  0  0  0  0  0  0  0  0  0
   13.5831    5.2140    3.1965 C   0  0  0  0  0  0  0  0  0  0  0  0
   13.5624    6.9600    1.9006 H   0  0  0  0  0  0  0  0  0  0  0  0
   11.6078    6.1324    0.5286 H   0  0  0  0  0  0  0  0  0  0  0  0
   10.0463    3.7642    0.6783 N   0  0  0  0  0  0  0  0  0  0  0  0
    9.3508    3.9551   -0.1611 N   0  0  0  0  0  0  0  0  0  0  0  0
   14.4260    5.5720    3.7873 H   0  0  0  0  0  0  0  0  0  0  0  0
   13.3726    3.3726    4.3287 H   0  0  0  0  0  0  0  0  0  0  0  0
   11.4066    2.4863    2.9886 H   0  0  0  0  0  0  0  0  0  0  0  0
    9.4043    1.6886    1.6193 O   0  0  0  0  0  0  0  0  0  0  0  0
    9.7745    0.9140    2.5304 C   0  0  0  0  0  0  0  0  0  0  0  0
   10.7090    1.0259    3.3548 O   0  0  0  0  0  0  0  0  0  0  0  0
    8.9084   -0.3876    2.6398 C   0  0  0  0  0  0  0  0  0  0  0  0
    8.8873   -1.0553    1.4601 F   0  0  0  0  0  0  0  0  0  0  0  0
    9.3549   -1.2462    3.5777 F   0  0  0  0  0  0  0  0  0  0  0  0
    7.6251   -0.0773    2.9552 F   0  0  0  0  0  0  0  0  0  0  0  0
  1  6  2  0  0  0  0
  2  3  2  0  0  0  0
  2  1  1  0  0  0  0
  3  4  1  0  0  0  0
  4 13  1  0  0  0  0
  4  5  2  0  0  0  0
  5 12  1  0  0  0  0
  6  5  1  0  0  0  0
  6 11  1  0  0  0  0
  7  1  1  0  0  0  0
  8  2  1  0  0  0  0
 10  9  3  0  0  0  0
 14 15  2  0  0  0  0
 15 17  1  0  0  0  0
 15 16  1  0  0  0  0
 17 20  1  0  0  0  0
 17 19  1  0  0  0  0
 18 17  1  0  0  0  0
M  RAD  2   3   2  16   2
M  END
