Coordinates from ORCA-job Ph-N2-OOCCF3-B3LYPG-aug-cc-pVDZ-scan-d09-49-n400
 OpenBabel11081710403D

 20 18  0  0  0  0  0  0  0  0999 V2000
   13.2280    6.0499    2.2442 C   0  0  0  0  0  0  0  0  0  0  0  0
   12.2208    5.6829    1.3159 C   0  0  0  0  0  0  0  0  0  0  0  0
   11.7064    4.4935    1.7427 C   0  0  0  0  0  0  0  0  0  0  0  0
   11.8593    3.6557    2.6854 C   0  0  0  0  0  0  0  0  0  0  0  0
   12.8704    4.0334    3.6099 C   0  0  0  0  0  0  0  0  0  0  0  0
   13.5385    5.2448    3.3557 C   0  0  0  0  0  0  0  0  0  0  0  0
   13.7662    6.9842    2.0770 H   0  0  0  0  0  0  0  0  0  0  0  0
   11.9515    6.2757    0.4469 H   0  0  0  0  0  0  0  0  0  0  0  0
   10.0283    4.0786    0.0294 N   0  0  0  0  0  0  0  0  0  0  0  0
    9.3395    4.1755   -0.8275 N   0  0  0  0  0  0  0  0  0  0  0  0
   14.3227    5.5732    4.0396 H   0  0  0  0  0  0  0  0  0  0  0  0
   13.1256    3.4231    4.4768 H   0  0  0  0  0  0  0  0  0  0  0  0
   10.9415    2.0601    2.9667 H   0  0  0  0  0  0  0  0  0  0  0  0
    9.2084    1.4032    1.4097 O   0  0  0  0  0  0  0  0  0  0  0  0
    9.5907    0.8161    2.3921 C   0  0  0  0  0  0  0  0  0  0  0  0
   10.5388    1.1803    3.2405 O   0  0  0  0  0  0  0  0  0  0  0  0
    8.9808   -0.5439    2.8284 C   0  0  0  0  0  0  0  0  0  0  0  0
    8.0180   -0.9315    1.9814 F   0  0  0  0  0  0  0  0  0  0  0  0
    9.9297   -1.5072    2.8574 F   0  0  0  0  0  0  0  0  0  0  0  0
    8.4422   -0.4524    4.0656 F   0  0  0  0  0  0  0  0  0  0  0  0
  1  6  2  0  0  0  0
  2  3  2  0  0  0  0
  2  1  1  0  0  0  0
  3  4  1  0  0  0  0
  4  5  2  0  0  0  0
  5 12  1  0  0  0  0
  6  5  1  0  0  0  0
  6 11  1  0  0  0  0
  7  1  1  0  0  0  0
  8  2  1  0  0  0  0
 10  9  3  0  0  0  0
 13 16  1  0  0  0  0
 14 15  2  0  0  0  0
 15 17  1  0  0  0  0
 15 16  1  0  0  0  0
 17 19  1  0  0  0  0
 17 20  1  0  0  0  0
 18 17  1  0  0  0  0
M  RAD  2   3   2   4   2
M  END
