Coordinates from ORCA-job Ph-N2-OOCCF3-B3LYPG-aug-cc-pVDZ-scan-d09-49-n400
 OpenBabel11081710403D

 20 18  0  0  0  0  0  0  0  0999 V2000
   13.1292    5.9887    2.1673 C   0  0  0  0  0  0  0  0  0  0  0  0
   12.0392    5.5918    1.3630 C   0  0  0  0  0  0  0  0  0  0  0  0
   11.5785    4.3802    1.7858 C   0  0  0  0  0  0  0  0  0  0  0  0
   11.8608    3.4858    2.7229 C   0  0  0  0  0  0  0  0  0  0  0  0
   12.9650    3.9472    3.4941 C   0  0  0  0  0  0  0  0  0  0  0  0
   13.5784    5.1723    3.2148 C   0  0  0  0  0  0  0  0  0  0  0  0
   13.6088    6.9436    1.9513 H   0  0  0  0  0  0  0  0  0  0  0  0
   11.6502    6.1833    0.5403 H   0  0  0  0  0  0  0  0  0  0  0  0
    9.9915    3.8495    0.5793 N   0  0  0  0  0  0  0  0  0  0  0  0
    9.2850    4.0119   -0.2544 N   0  0  0  0  0  0  0  0  0  0  0  0
   14.4219    5.5007    3.8217 H   0  0  0  0  0  0  0  0  0  0  0  0
   13.3148    3.3124    4.3089 H   0  0  0  0  0  0  0  0  0  0  0  0
   11.3418    2.4638    2.9487 H   0  0  0  0  0  0  0  0  0  0  0  0
    9.3607    1.6620    1.5823 O   0  0  0  0  0  0  0  0  0  0  0  0
    9.7608    0.9313    2.5042 C   0  0  0  0  0  0  0  0  0  0  0  0
   10.7139    1.1030    3.3133 O   0  0  0  0  0  0  0  0  0  0  0  0
    8.9532   -0.3968    2.6890 C   0  0  0  0  0  0  0  0  0  0  0  0
    8.9502   -1.1187    1.5415 F   0  0  0  0  0  0  0  0  0  0  0  0
    9.4415   -1.1928    3.6616 F   0  0  0  0  0  0  0  0  0  0  0  0
    7.6614   -0.1238    3.0020 F   0  0  0  0  0  0  0  0  0  0  0  0
  1  6  2  0  0  0  0
  2  3  2  0  0  0  0
  2  1  1  0  0  0  0
  3  4  1  0  0  0  0
  4 13  1  0  0  0  0
  4  5  2  0  0  0  0
  5 12  1  0  0  0  0
  6  5  1  0  0  0  0
  6 11  1  0  0  0  0
  7  1  1  0  0  0  0
  8  2  1  0  0  0  0
 10  9  3  0  0  0  0
 14 15  2  0  0  0  0
 15 17  1  0  0  0  0
 15 16  1  0  0  0  0
 17 20  1  0  0  0  0
 17 19  1  0  0  0  0
 18 17  1  0  0  0  0
M  RAD  2   3   2  16   2
M  END
