Coordinates from ORCA-job Ph-N2-OOCCF3-B3LYPG-aug-cc-pVDZ-scan-d09-49-n400
 OpenBabel11081710403D

 20 18  0  0  0  0  0  0  0  0999 V2000
   13.2352    6.0527    2.2497 C   0  0  0  0  0  0  0  0  0  0  0  0
   12.2285    5.6864    1.3198 C   0  0  0  0  0  0  0  0  0  0  0  0
   11.7149    4.4974    1.7479 C   0  0  0  0  0  0  0  0  0  0  0  0
   11.8681    3.6616    2.6907 C   0  0  0  0  0  0  0  0  0  0  0  0
   12.8775    4.0363    3.6174 C   0  0  0  0  0  0  0  0  0  0  0  0
   13.5451    5.2481    3.3618 C   0  0  0  0  0  0  0  0  0  0  0  0
   13.7740    6.9868    2.0830 H   0  0  0  0  0  0  0  0  0  0  0  0
   11.9598    6.2788    0.4504 H   0  0  0  0  0  0  0  0  0  0  0  0
   10.0055    4.0827   -0.0060 N   0  0  0  0  0  0  0  0  0  0  0  0
    9.3083    4.1778   -0.8562 N   0  0  0  0  0  0  0  0  0  0  0  0
   14.3290    5.5773    4.0458 H   0  0  0  0  0  0  0  0  0  0  0  0
   13.1320    3.4264    4.4847 H   0  0  0  0  0  0  0  0  0  0  0  0
   10.9356    2.0569    2.9626 H   0  0  0  0  0  0  0  0  0  0  0  0
    9.2020    1.3943    1.4073 O   0  0  0  0  0  0  0  0  0  0  0  0
    9.5863    0.8105    2.3905 C   0  0  0  0  0  0  0  0  0  0  0  0
   10.5349    1.1786    3.2375 O   0  0  0  0  0  0  0  0  0  0  0  0
    8.9799   -0.5496    2.8317 C   0  0  0  0  0  0  0  0  0  0  0  0
    8.0167   -0.9414    1.9872 F   0  0  0  0  0  0  0  0  0  0  0  0
    9.9309   -1.5107    2.8620 F   0  0  0  0  0  0  0  0  0  0  0  0
    8.4430   -0.4556    4.0695 F   0  0  0  0  0  0  0  0  0  0  0  0
  1  6  2  0  0  0  0
  2  3  2  0  0  0  0
  2  1  1  0  0  0  0
  3  4  1  0  0  0  0
  4  5  2  0  0  0  0
  5 12  1  0  0  0  0
  6  5  1  0  0  0  0
  6 11  1  0  0  0  0
  7  1  1  0  0  0  0
  8  2  1  0  0  0  0
 10  9  3  0  0  0  0
 13 16  1  0  0  0  0
 14 15  2  0  0  0  0
 15 17  1  0  0  0  0
 15 16  1  0  0  0  0
 17 19  1  0  0  0  0
 17 20  1  0  0  0  0
 18 17  1  0  0  0  0
M  RAD  2   3   2   4   2
M  END
