Coordinates from ORCA-job Ph-N2-OOCCF3-B3LYPG-aug-cc-pVDZ-scan-d09-49-n400
 OpenBabel11081710403D

 20 18  0  0  0  0  0  0  0  0999 V2000
   13.2236    6.0478    2.2411 C   0  0  0  0  0  0  0  0  0  0  0  0
   12.2163    5.6809    1.3135 C   0  0  0  0  0  0  0  0  0  0  0  0
   11.7004    4.4911    1.7385 C   0  0  0  0  0  0  0  0  0  0  0  0
   11.8533    3.6521    2.6814 C   0  0  0  0  0  0  0  0  0  0  0  0
   12.8652    4.0311    3.6047 C   0  0  0  0  0  0  0  0  0  0  0  0
   13.5340    5.2421    3.3520 C   0  0  0  0  0  0  0  0  0  0  0  0
   13.7617    6.9821    2.0738 H   0  0  0  0  0  0  0  0  0  0  0  0
   11.9474    6.2746    0.4450 H   0  0  0  0  0  0  0  0  0  0  0  0
   10.0417    4.0780    0.0485 N   0  0  0  0  0  0  0  0  0  0  0  0
    9.3574    4.1760   -0.8118 N   0  0  0  0  0  0  0  0  0  0  0  0
   14.3183    5.5696    4.0362 H   0  0  0  0  0  0  0  0  0  0  0  0
   13.1203    3.4202    4.4714 H   0  0  0  0  0  0  0  0  0  0  0  0
   10.9450    2.0623    2.9694 H   0  0  0  0  0  0  0  0  0  0  0  0
    9.2136    1.4089    1.4122 O   0  0  0  0  0  0  0  0  0  0  0  0
    9.5942    0.8194    2.3941 C   0  0  0  0  0  0  0  0  0  0  0  0
   10.5416    1.1814    3.2435 O   0  0  0  0  0  0  0  0  0  0  0  0
    8.9820   -0.5407    2.8270 C   0  0  0  0  0  0  0  0  0  0  0  0
    8.0195   -0.9255    1.9782 F   0  0  0  0  0  0  0  0  0  0  0  0
    9.9295   -1.5054    2.8555 F   0  0  0  0  0  0  0  0  0  0  0  0
    8.4420   -0.4506    4.0636 F   0  0  0  0  0  0  0  0  0  0  0  0
  1  6  2  0  0  0  0
  2  3  2  0  0  0  0
  2  1  1  0  0  0  0
  3  4  1  0  0  0  0
  4  5  2  0  0  0  0
  5 12  1  0  0  0  0
  6  5  1  0  0  0  0
  6 11  1  0  0  0  0
  7  1  1  0  0  0  0
  8  2  1  0  0  0  0
 10  9  3  0  0  0  0
 13 16  1  0  0  0  0
 14 15  2  0  0  0  0
 15 17  1  0  0  0  0
 15 16  1  0  0  0  0
 17 19  1  0  0  0  0
 17 20  1  0  0  0  0
 18 17  1  0  0  0  0
M  RAD  2   3   2   4   2
M  END
