Coordinates from ORCA-job Ph-N2-OOCCF3-B3LYPG-aug-cc-pVDZ-scan-d09-49-n400
 OpenBabel11081710403D

 20 18  0  0  0  0  0  0  0  0999 V2000
   13.3537    6.0469    2.3977 C   0  0  0  0  0  0  0  0  0  0  0  0
   12.3302    5.6050    1.5192 C   0  0  0  0  0  0  0  0  0  0  0  0
   11.8708    4.4124    2.0138 C   0  0  0  0  0  0  0  0  0  0  0  0
   12.1315    3.6729    2.9993 C   0  0  0  0  0  0  0  0  0  0  0  0
   13.1436    4.0867    3.8886 C   0  0  0  0  0  0  0  0  0  0  0  0
   13.7415    5.3137    3.5356 C   0  0  0  0  0  0  0  0  0  0  0  0
   13.8504    6.9920    2.1707 H   0  0  0  0  0  0  0  0  0  0  0  0
   12.0108    6.1492    0.6351 H   0  0  0  0  0  0  0  0  0  0  0  0
    9.1044    4.3928   -1.3931 N   0  0  0  0  0  0  0  0  0  0  0  0
    8.2725    3.8085   -1.8240 N   0  0  0  0  0  0  0  0  0  0  0  0
   14.5364    5.7119    4.1686 H   0  0  0  0  0  0  0  0  0  0  0  0
   13.4533    3.5296    4.7719 H   0  0  0  0  0  0  0  0  0  0  0  0
   11.0084    1.9668    3.1280 H   0  0  0  0  0  0  0  0  0  0  0  0
    9.3292    1.4620    1.4911 O   0  0  0  0  0  0  0  0  0  0  0  0
    9.6429    0.8159    2.4569 C   0  0  0  0  0  0  0  0  0  0  0  0
   10.5770    1.1074    3.3580 O   0  0  0  0  0  0  0  0  0  0  0  0
    8.9659   -0.5332    2.8179 C   0  0  0  0  0  0  0  0  0  0  0  0
    8.0208   -0.8462    1.9228 F   0  0  0  0  0  0  0  0  0  0  0  0
    9.8757   -1.5330    2.8409 F   0  0  0  0  0  0  0  0  0  0  0  0
    8.3882   -0.4661    4.0384 F   0  0  0  0  0  0  0  0  0  0  0  0
  1  6  2  0  0  0  0
  2  3  2  0  0  0  0
  2  1  1  0  0  0  0
  3  4  1  0  0  0  0
  4  5  2  0  0  0  0
  5 12  1  0  0  0  0
  6  5  1  0  0  0  0
  6 11  1  0  0  0  0
  7  1  1  0  0  0  0
  8  2  1  0  0  0  0
 10  9  3  0  0  0  0
 13 16  1  0  0  0  0
 14 15  2  0  0  0  0
 15 17  1  0  0  0  0
 15 16  1  0  0  0  0
 17 19  1  0  0  0  0
 17 20  1  0  0  0  0
 18 17  1  0  0  0  0
M  RAD  2   3   2   4   2
M  END
