Coordinates from ORCA-job Ph-N2-OOCCF3-B3LYPG-aug-cc-pVDZ-scan-d09-49-n400
 OpenBabel11081710403D

 20 19  0  0  0  0  0  0  0  0999 V2000
   12.6338    5.9491    2.0691 C   0  0  0  0  0  0  0  0  0  0  0  0
   12.3136    4.9311    1.1570 C   0  0  0  0  0  0  0  0  0  0  0  0
   12.0611    3.7183    1.7524 C   0  0  0  0  0  0  0  0  0  0  0  0
   12.0703    3.3566    3.0709 C   0  0  0  0  0  0  0  0  0  0  0  0
   12.4026    4.4061    3.9426 C   0  0  0  0  0  0  0  0  0  0  0  0
   12.6786    5.6843    3.4432 C   0  0  0  0  0  0  0  0  0  0  0  0
   12.8434    6.9488    1.6896 H   0  0  0  0  0  0  0  0  0  0  0  0
   12.2621    5.0943    0.0840 H   0  0  0  0  0  0  0  0  0  0  0  0
   11.6722    2.4067    0.6102 N   0  0  0  0  0  0  0  0  0  0  0  0
   11.7505    2.0904   -0.4557 N   0  0  0  0  0  0  0  0  0  0  0  0
   12.9271    6.4890    4.1347 H   0  0  0  0  0  0  0  0  0  0  0  0
   12.4353    4.2110    5.0139 H   0  0  0  0  0  0  0  0  0  0  0  0
   11.8213    2.3432    3.3790 H   0  0  0  0  0  0  0  0  0  0  0  0
    9.0854    2.2304    1.5026 O   0  0  0  0  0  0  0  0  0  0  0  0
    9.6282    1.2332    1.9769 C   0  0  0  0  0  0  0  0  0  0  0  0
   10.8662    0.9186    1.9857 O   0  0  0  0  0  0  0  0  0  0  0  0
    8.7407    0.1735    2.7117 C   0  0  0  0  0  0  0  0  0  0  0  0
    8.9292   -1.0703    2.2102 F   0  0  0  0  0  0  0  0  0  0  0  0
    9.0580    0.1306    4.0354 F   0  0  0  0  0  0  0  0  0  0  0  0
    7.4274    0.4505    2.6243 F   0  0  0  0  0  0  0  0  0  0  0  0
  1  6  2  0  0  0  0
  2  3  2  0  0  0  0
  2  1  1  0  0  0  0
  3  4  1  0  0  0  0
  4 13  1  0  0  0  0
  4  5  2  0  0  0  0
  5 12  1  0  0  0  0
  6  5  1  0  0  0  0
  6 11  1  0  0  0  0
  7  1  1  0  0  0  0
  8  2  1  0  0  0  0
  9  3  1  0  0  0  0
 10  9  2  0  0  0  0
 14 15  2  0  0  0  0
 15 16  1  0  0  0  0
 15 17  1  0  0  0  0
 17 19  1  0  0  0  0
 18 17  1  0  0  0  0
 20 17  1  0  0  0  0
M  RAD  2  10   2  16   2
M  END
