Coordinates from ORCA-job Ph-N2-OOCCF3-B3LYPG-aug-cc-pVDZ-scan-d09-49-n400
 OpenBabel11081710403D

 20 18  0  0  0  0  0  0  0  0999 V2000
   13.3568    6.0662    2.3825 C   0  0  0  0  0  0  0  0  0  0  0  0
   12.3453    5.6980    1.4569 C   0  0  0  0  0  0  0  0  0  0  0  0
   11.8329    4.5041    1.8892 C   0  0  0  0  0  0  0  0  0  0  0  0
   12.0313    3.7088    2.8464 C   0  0  0  0  0  0  0  0  0  0  0  0
   13.0323    4.0538    3.7796 C   0  0  0  0  0  0  0  0  0  0  0  0
   13.6836    5.2718    3.4983 C   0  0  0  0  0  0  0  0  0  0  0  0
   13.8925    7.0015    2.2103 H   0  0  0  0  0  0  0  0  0  0  0  0
   12.0700    6.2879    0.5877 H   0  0  0  0  0  0  0  0  0  0  0  0
    9.3566    4.3451   -1.0247 N   0  0  0  0  0  0  0  0  0  0  0  0
    8.5272    3.7799   -1.4846 N   0  0  0  0  0  0  0  0  0  0  0  0
   14.4722    5.6135    4.1709 H   0  0  0  0  0  0  0  0  0  0  0  0
   13.2958    3.4496    4.6469 H   0  0  0  0  0  0  0  0  0  0  0  0
   10.9530    2.0180    3.0208 H   0  0  0  0  0  0  0  0  0  0  0  0
    9.2552    1.3977    1.4374 O   0  0  0  0  0  0  0  0  0  0  0  0
    9.6078    0.8009    2.4216 C   0  0  0  0  0  0  0  0  0  0  0  0
   10.5499    1.1547    3.2911 O   0  0  0  0  0  0  0  0  0  0  0  0
    8.9783   -0.5520    2.8492 C   0  0  0  0  0  0  0  0  0  0  0  0
    8.0268   -0.9287    1.9862 F   0  0  0  0  0  0  0  0  0  0  0  0
    9.9180   -1.5231    2.8945 F   0  0  0  0  0  0  0  0  0  0  0  0
    8.4214   -0.4526    4.0773 F   0  0  0  0  0  0  0  0  0  0  0  0
  1  6  2  0  0  0  0
  2  3  2  0  0  0  0
  2  1  1  0  0  0  0
  3  4  1  0  0  0  0
  4  5  2  0  0  0  0
  5 12  1  0  0  0  0
  6  5  1  0  0  0  0
  6 11  1  0  0  0  0
  7  1  1  0  0  0  0
  8  2  1  0  0  0  0
 10  9  3  0  0  0  0
 13 16  1  0  0  0  0
 14 15  2  0  0  0  0
 15 17  1  0  0  0  0
 15 16  1  0  0  0  0
 17 19  1  0  0  0  0
 17 20  1  0  0  0  0
 18 17  1  0  0  0  0
M  RAD  2   3   2   4   2
M  END
