Coordinates from ORCA-job Ph-N2-OOCCF3-B3LYPG-aug-cc-pVDZ-scan-d09-49-n400
 OpenBabel11081710403D

 20 18  0  0  0  0  0  0  0  0999 V2000
   13.3522    6.0663    2.3759 C   0  0  0  0  0  0  0  0  0  0  0  0
   12.3413    5.7035    1.4474 C   0  0  0  0  0  0  0  0  0  0  0  0
   11.8264    4.5100    1.8763 C   0  0  0  0  0  0  0  0  0  0  0  0
   12.0186    3.7100    2.8304 C   0  0  0  0  0  0  0  0  0  0  0  0
   13.0193    4.0506    3.7664 C   0  0  0  0  0  0  0  0  0  0  0  0
   13.6745    5.2676    3.4900 C   0  0  0  0  0  0  0  0  0  0  0  0
   13.8907    7.0007    2.2076 H   0  0  0  0  0  0  0  0  0  0  0  0
   12.0686    6.2960    0.5791 H   0  0  0  0  0  0  0  0  0  0  0  0
    9.4020    4.3583   -0.9768 N   0  0  0  0  0  0  0  0  0  0  0  0
    8.5727    3.7967   -1.4417 N   0  0  0  0  0  0  0  0  0  0  0  0
   14.4627    5.6051    4.1652 H   0  0  0  0  0  0  0  0  0  0  0  0
   13.2795    3.4432    4.6324 H   0  0  0  0  0  0  0  0  0  0  0  0
   10.9461    2.0211    3.0113 H   0  0  0  0  0  0  0  0  0  0  0  0
    9.2481    1.3870    1.4327 O   0  0  0  0  0  0  0  0  0  0  0  0
    9.6040    0.7963    2.4195 C   0  0  0  0  0  0  0  0  0  0  0  0
   10.5458    1.1576    3.2861 O   0  0  0  0  0  0  0  0  0  0  0  0
    8.9797   -0.5566    2.8546 C   0  0  0  0  0  0  0  0  0  0  0  0
    8.0288   -0.9412    1.9943 F   0  0  0  0  0  0  0  0  0  0  0  0
    9.9229   -1.5240    2.9042 F   0  0  0  0  0  0  0  0  0  0  0  0
    8.4233   -0.4528    4.0825 F   0  0  0  0  0  0  0  0  0  0  0  0
  1  6  2  0  0  0  0
  2  3  2  0  0  0  0
  2  1  1  0  0  0  0
  3  4  1  0  0  0  0
  4  5  2  0  0  0  0
  5 12  1  0  0  0  0
  6  5  1  0  0  0  0
  6 11  1  0  0  0  0
  7  1  1  0  0  0  0
  8  2  1  0  0  0  0
 10  9  3  0  0  0  0
 13 16  1  0  0  0  0
 14 15  2  0  0  0  0
 15 17  1  0  0  0  0
 15 16  1  0  0  0  0
 17 19  1  0  0  0  0
 17 20  1  0  0  0  0
 18 17  1  0  0  0  0
M  RAD  2   3   2   4   2
M  END
