Coordinates from ORCA-job Ph-N2-OOCCF3-B3LYPG-aug-cc-pVDZ-scan-d09-49-n400
 OpenBabel11081710403D

 20 19  0  0  0  0  0  0  0  0999 V2000
   12.5975    5.9348    2.0597 C   0  0  0  0  0  0  0  0  0  0  0  0
   12.2793    4.9059    1.1629 C   0  0  0  0  0  0  0  0  0  0  0  0
   12.0573    3.6803    1.7552 C   0  0  0  0  0  0  0  0  0  0  0  0
   12.1037    3.3407    3.0839 C   0  0  0  0  0  0  0  0  0  0  0  0
   12.4336    4.3981    3.9438 C   0  0  0  0  0  0  0  0  0  0  0  0
   12.6751    5.6791    3.4342 C   0  0  0  0  0  0  0  0  0  0  0  0
   12.7798    6.9365    1.6718 H   0  0  0  0  0  0  0  0  0  0  0  0
   12.2039    5.0653    0.0905 H   0  0  0  0  0  0  0  0  0  0  0  0
   11.6931    2.4170    0.6586 N   0  0  0  0  0  0  0  0  0  0  0  0
   11.7778    2.0974   -0.4075 N   0  0  0  0  0  0  0  0  0  0  0  0
   12.9217    6.4920    4.1168 H   0  0  0  0  0  0  0  0  0  0  0  0
   12.4917    4.2099    5.0151 H   0  0  0  0  0  0  0  0  0  0  0  0
   11.8799    2.3276    3.4091 H   0  0  0  0  0  0  0  0  0  0  0  0
    9.0943    2.2532    1.4917 O   0  0  0  0  0  0  0  0  0  0  0  0
    9.6296    1.2558    1.9726 C   0  0  0  0  0  0  0  0  0  0  0  0
   10.8690    0.9428    1.9973 O   0  0  0  0  0  0  0  0  0  0  0  0
    8.7339    0.1928    2.6910 C   0  0  0  0  0  0  0  0  0  0  0  0
    8.9326   -1.0488    2.1882 F   0  0  0  0  0  0  0  0  0  0  0  0
    9.0314    0.1466    4.0188 F   0  0  0  0  0  0  0  0  0  0  0  0
    7.4220    0.4681    2.5838 F   0  0  0  0  0  0  0  0  0  0  0  0
  1  6  2  0  0  0  0
  2  3  2  0  0  0  0
  2  1  1  0  0  0  0
  3  4  1  0  0  0  0
  4 13  1  0  0  0  0
  4  5  2  0  0  0  0
  5 12  1  0  0  0  0
  6  5  1  0  0  0  0
  6 11  1  0  0  0  0
  7  1  1  0  0  0  0
  8  2  1  0  0  0  0
  9  3  1  0  0  0  0
 10  9  2  0  0  0  0
 14 15  2  0  0  0  0
 15 16  1  0  0  0  0
 15 17  1  0  0  0  0
 17 19  1  0  0  0  0
 18 17  1  0  0  0  0
 20 17  1  0  0  0  0
M  RAD  2  10   2  16   2
M  END
