Coordinates from ORCA-job Ph-N2-OOCCF3-B3LYPG-aug-cc-pVDZ-scan-d09-49-n400
 OpenBabel11081710403D

 20 18  0  0  0  0  0  0  0  0999 V2000
   13.3315    6.0689    2.3413 C   0  0  0  0  0  0  0  0  0  0  0  0
   12.3258    5.7388    1.3955 C   0  0  0  0  0  0  0  0  0  0  0  0
   11.7846    4.5482    1.7978 C   0  0  0  0  0  0  0  0  0  0  0  0
   11.9489    3.7257    2.7396 C   0  0  0  0  0  0  0  0  0  0  0  0
   12.9455    4.0369    3.6916 C   0  0  0  0  0  0  0  0  0  0  0  0
   13.6260    5.2460    3.4452 C   0  0  0  0  0  0  0  0  0  0  0  0
   13.8879    6.9965    2.1947 H   0  0  0  0  0  0  0  0  0  0  0  0
   12.0734    6.3499    0.5342 H   0  0  0  0  0  0  0  0  0  0  0  0
    9.6456    4.3548   -0.6492 N   0  0  0  0  0  0  0  0  0  0  0  0
    8.8195    3.8281   -1.1578 N   0  0  0  0  0  0  0  0  0  0  0  0
   14.4117    5.5575    4.1357 H   0  0  0  0  0  0  0  0  0  0  0  0
   13.1846    3.4104    4.5502 H   0  0  0  0  0  0  0  0  0  0  0  0
   10.9079    2.0459    2.9548 H   0  0  0  0  0  0  0  0  0  0  0  0
    9.2139    1.3449    1.3987 O   0  0  0  0  0  0  0  0  0  0  0  0
    9.5839    0.7841    2.3979 C   0  0  0  0  0  0  0  0  0  0  0  0
   10.5221    1.1815    3.2515 O   0  0  0  0  0  0  0  0  0  0  0  0
    8.9840   -0.5687    2.8668 C   0  0  0  0  0  0  0  0  0  0  0  0
    8.0364   -0.9893    2.0197 F   0  0  0  0  0  0  0  0  0  0  0  0
    9.9435   -1.5189    2.9348 F   0  0  0  0  0  0  0  0  0  0  0  0
    8.4306   -0.4458    4.0943 F   0  0  0  0  0  0  0  0  0  0  0  0
  1  6  2  0  0  0  0
  2  3  2  0  0  0  0
  2  1  1  0  0  0  0
  3  4  1  0  0  0  0
  4  5  2  0  0  0  0
  5 12  1  0  0  0  0
  6  5  1  0  0  0  0
  6 11  1  0  0  0  0
  7  1  1  0  0  0  0
  8  2  1  0  0  0  0
 10  9  3  0  0  0  0
 13 16  1  0  0  0  0
 14 15  2  0  0  0  0
 15 17  1  0  0  0  0
 15 16  1  0  0  0  0
 17 19  1  0  0  0  0
 17 20  1  0  0  0  0
 18 17  1  0  0  0  0
M  RAD  2   3   2   4   2
M  END
