Coordinates from ORCA-job Ph-N2-OOCCF3-B3LYPG-aug-cc-pVDZ-scan-d09-49-n400
 OpenBabel11081710403D

 20 18  0  0  0  0  0  0  0  0999 V2000
   13.3277    6.0689    2.3342 C   0  0  0  0  0  0  0  0  0  0  0  0
   12.3252    5.7550    1.3796 C   0  0  0  0  0  0  0  0  0  0  0  0
   11.7720    4.5658    1.7684 C   0  0  0  0  0  0  0  0  0  0  0  0
   11.9213    3.7318    2.7032 C   0  0  0  0  0  0  0  0  0  0  0  0
   12.9154    4.0289    3.6633 C   0  0  0  0  0  0  0  0  0  0  0  0
   13.6081    5.2339    3.4326 C   0  0  0  0  0  0  0  0  0  0  0  0
   13.8926    6.9930    2.1990 H   0  0  0  0  0  0  0  0  0  0  0  0
   12.0830    6.3751    0.5219 H   0  0  0  0  0  0  0  0  0  0  0  0
    9.7171    4.3667   -0.5650 N   0  0  0  0  0  0  0  0  0  0  0  0
    8.8916    3.8363   -1.0706 N   0  0  0  0  0  0  0  0  0  0  0  0
   14.3918    5.5324    4.1309 H   0  0  0  0  0  0  0  0  0  0  0  0
   13.1438    3.3929    4.5179 H   0  0  0  0  0  0  0  0  0  0  0  0
   10.8949    2.0568    2.9332 H   0  0  0  0  0  0  0  0  0  0  0  0
    9.2013    1.3273    1.3890 O   0  0  0  0  0  0  0  0  0  0  0  0
    9.5783    0.7792    2.3927 C   0  0  0  0  0  0  0  0  0  0  0  0
   10.5158    1.1920    3.2395 O   0  0  0  0  0  0  0  0  0  0  0  0
    8.9896   -0.5733    2.8764 C   0  0  0  0  0  0  0  0  0  0  0  0
    8.0428   -1.0091    2.0360 F   0  0  0  0  0  0  0  0  0  0  0  0
    9.9562   -1.5158    2.9510 F   0  0  0  0  0  0  0  0  0  0  0  0
    8.4386   -0.4426    4.1042 F   0  0  0  0  0  0  0  0  0  0  0  0
  1  6  2  0  0  0  0
  2  3  2  0  0  0  0
  2  1  1  0  0  0  0
  3  4  1  0  0  0  0
  4  5  2  0  0  0  0
  5 12  1  0  0  0  0
  6  5  1  0  0  0  0
  6 11  1  0  0  0  0
  7  1  1  0  0  0  0
  8  2  1  0  0  0  0
 10  9  3  0  0  0  0
 13 16  1  0  0  0  0
 14 15  2  0  0  0  0
 15 17  1  0  0  0  0
 15 16  1  0  0  0  0
 17 19  1  0  0  0  0
 17 20  1  0  0  0  0
 18 17  1  0  0  0  0
M  RAD  2   3   2   4   2
M  END
