Coordinates from ORCA-job Ph-N2-OOCCF3-B3LYPG-aug-cc-pVDZ-scan-d09-49-n400
 OpenBabel11081710403D

 20 20  0  0  1  0  0  0  0  0999 V2000
   11.8498    5.5173    2.0122 C   0  0  0  0  0  0  0  0  0  0  0  0
   12.0786    4.6360    1.0112 C   0  0  0  0  0  0  0  0  0  0  0  0
   12.3649    3.2359    1.3109 C   0  0  0  0  0  0  0  0  0  0  0  0
   12.1971    2.7006    2.7225 C   0  0  1  0  0  0  0  0  0  0  0  0
   12.0658    3.7864    3.7381 C   0  0  0  0  0  0  0  0  0  0  0  0
   11.8906    5.0809    3.3947 C   0  0  0  0  0  0  0  0  0  0  0  0
   11.6415    6.5612    1.7845 H   0  0  0  0  0  0  0  0  0  0  0  0
   12.0670    4.9347   -0.0366 H   0  0  0  0  0  0  0  0  0  0  0  0
   12.7333    2.4928    0.4706 N   0  0  0  0  0  0  0  0  0  0  0  0
   13.0922    1.7580   -0.3375 N   0  0  0  0  0  0  0  0  0  0  0  0
   11.7877    5.8309    4.1802 H   0  0  0  0  0  0  0  0  0  0  0  0
   12.1122    3.4791    4.7825 H   0  0  0  0  0  0  0  0  0  0  0  0
   13.0134    2.0113    2.9677 H   0  0  0  0  0  0  0  0  0  0  0  0
    9.4511    3.1626    2.0735 O   0  0  0  0  0  0  0  0  0  0  0  0
    9.8145    2.1054    2.5173 C   0  0  0  0  0  0  0  0  0  0  0  0
   11.0483    1.7171    2.8326 O   0  0  0  0  0  0  0  0  0  0  0  0
    8.8253    0.9410    2.8080 C   0  0  0  0  0  0  0  0  0  0  0  0
    9.1669   -0.1695    2.1176 F   0  0  0  0  0  0  0  0  0  0  0  0
    8.8296    0.6319    4.1252 F   0  0  0  0  0  0  0  0  0  0  0  0
    7.5773    1.2818    2.4625 F   0  0  0  0  0  0  0  0  0  0  0  0
  1  6  1  0  0  0  0
  2  3  2  0  0  0  0
  2  1  1  0  0  0  0
  3  4  1  0  0  0  0
  4 16  1  0  0  0  0
  4 13  1  1  0  0  0
  4  5  1  0  0  0  0
  5 12  1  0  0  0  0
  6  5  2  0  0  0  0
  6 11  1  0  0  0  0
  7  1  1  0  0  0  0
  8  2  1  0  0  0  0
  9  3  1  0  0  0  0
 10  9  1  0  0  0  0
 14 15  2  0  0  0  0
 15 17  1  0  0  0  0
 15 16  1  0  0  0  0
 17 19  1  0  0  0  0
 18 17  1  0  0  0  0
 20 17  1  0  0  0  0
M  RAD  3   1   2   9   2  10   3
M  END
