Coordinates from ORCA-job Ph-N2-OOCCF3-B3LYPG-aug-cc-pVDZ-scan-d09-49-n400
 OpenBabel11081710403D

 20 18  0  0  0  0  0  0  0  0999 V2000
   13.3545    6.0661    2.3793 C   0  0  0  0  0  0  0  0  0  0  0  0
   12.3433    5.7007    1.4523 C   0  0  0  0  0  0  0  0  0  0  0  0
   11.8292    4.5069    1.8823 C   0  0  0  0  0  0  0  0  0  0  0  0
   12.0249    3.7093    2.8384 C   0  0  0  0  0  0  0  0  0  0  0  0
   13.0257    4.0522    3.7729 C   0  0  0  0  0  0  0  0  0  0  0  0
   13.6790    5.2696    3.4942 C   0  0  0  0  0  0  0  0  0  0  0  0
   13.8915    7.0010    2.2090 H   0  0  0  0  0  0  0  0  0  0  0  0
   12.0694    6.2921    0.5836 H   0  0  0  0  0  0  0  0  0  0  0  0
    9.3792    4.3524   -1.0016 N   0  0  0  0  0  0  0  0  0  0  0  0
    8.5500    3.7888   -1.4636 N   0  0  0  0  0  0  0  0  0  0  0  0
   14.4675    5.6092    4.1681 H   0  0  0  0  0  0  0  0  0  0  0  0
   13.2875    3.4463    4.6396 H   0  0  0  0  0  0  0  0  0  0  0  0
   10.9496    2.0194    3.0163 H   0  0  0  0  0  0  0  0  0  0  0  0
    9.2518    1.3923    1.4352 O   0  0  0  0  0  0  0  0  0  0  0  0
    9.6061    0.7985    2.4207 C   0  0  0  0  0  0  0  0  0  0  0  0
   10.5480    1.1561    3.2888 O   0  0  0  0  0  0  0  0  0  0  0  0
    8.9791   -0.5543    2.8521 C   0  0  0  0  0  0  0  0  0  0  0  0
    8.0278   -0.9350    1.9904 F   0  0  0  0  0  0  0  0  0  0  0  0
    9.9204   -1.5237    2.8995 F   0  0  0  0  0  0  0  0  0  0  0  0
    8.4225   -0.4527    4.0801 F   0  0  0  0  0  0  0  0  0  0  0  0
  1  6  2  0  0  0  0
  2  3  2  0  0  0  0
  2  1  1  0  0  0  0
  3  4  1  0  0  0  0
  4  5  2  0  0  0  0
  5 12  1  0  0  0  0
  6  5  1  0  0  0  0
  6 11  1  0  0  0  0
  7  1  1  0  0  0  0
  8  2  1  0  0  0  0
 10  9  3  0  0  0  0
 13 16  1  0  0  0  0
 14 15  2  0  0  0  0
 15 17  1  0  0  0  0
 15 16  1  0  0  0  0
 17 19  1  0  0  0  0
 17 20  1  0  0  0  0
 18 17  1  0  0  0  0
M  RAD  2   3   2   4   2
M  END
