Coordinates from ORCA-job Ph-N2-OOCCF3-B3LYPG-aug-cc-pVDZ-scan-d09-49-n400
 OpenBabel11081710403D

 20 20  0  0  1  0  0  0  0  0999 V2000
   11.9133    5.5267    2.0143 C   0  0  0  0  0  0  0  0  0  0  0  0
   12.1027    4.6524    1.0079 C   0  0  0  0  0  0  0  0  0  0  0  0
   12.3423    3.2016    1.2550 C   0  0  0  0  0  0  0  0  0  0  0  0
   12.1736    2.7017    2.7258 C   0  0  1  0  0  0  0  0  0  0  0  0
   12.0299    3.7897    3.7375 C   0  0  0  0  0  0  0  0  0  0  0  0
   11.9132    5.0881    3.4003 C   0  0  0  0  0  0  0  0  0  0  0  0
   11.7504    6.5803    1.7902 H   0  0  0  0  0  0  0  0  0  0  0  0
   12.0963    4.9526   -0.0401 H   0  0  0  0  0  0  0  0  0  0  0  0
   12.6051    2.5585    0.5494 N   0  0  0  0  0  0  0  0  0  0  0  0
   12.9157    1.7859   -0.2752 N   0  0  0  0  0  0  0  0  0  0  0  0
   11.8164    5.8395    4.1845 H   0  0  0  0  0  0  0  0  0  0  0  0
   12.0340    3.4721    4.7805 H   0  0  0  0  0  0  0  0  0  0  0  0
   13.0268    2.0500    2.9535 H   0  0  0  0  0  0  0  0  0  0  0  0
    9.4711    3.1245    2.0219 O   0  0  0  0  0  0  0  0  0  0  0  0
    9.8309    2.0787    2.4915 C   0  0  0  0  0  0  0  0  0  0  0  0
   11.0701    1.7112    2.8302 O   0  0  0  0  0  0  0  0  0  0  0  0
    8.8516    0.9126    2.8008 C   0  0  0  0  0  0  0  0  0  0  0  0
    9.2304   -0.2213    2.1758 F   0  0  0  0  0  0  0  0  0  0  0  0
    8.8214    0.6690    4.1316 F   0  0  0  0  0  0  0  0  0  0  0  0
    7.6120    1.2215    2.4023 F   0  0  0  0  0  0  0  0  0  0  0  0
  1  6  2  0  0  0  0
  2  3  2  0  0  0  0
  2  1  1  0  0  0  0
  3  4  1  0  0  0  0
  4 16  1  0  0  0  0
  4 13  1  1  0  0  0
  4  5  1  0  0  0  0
  5 12  1  0  0  0  0
  6  5  1  0  0  0  0
  6 11  1  0  0  0  0
  7  1  1  0  0  0  0
  8  2  1  0  0  0  0
  9  3  1  0  0  0  0
 10  9  1  0  0  0  0
 14 15  2  0  0  0  0
 15 17  1  0  0  0  0
 15 16  1  0  0  0  0
 17 19  1  0  0  0  0
 18 17  1  0  0  0  0
 20 17  1  0  0  0  0
M  RAD  3   5   2   9   2  10   3
M  END
