Coordinates from ORCA-job Ph-N2-OOCCF3-B3LYPG-aug-cc-pVDZ-scan-d09-49-n400
 OpenBabel11081710403D

 20 20  0  0  1  0  0  0  0  0999 V2000
   11.8071    5.5318    2.0188 C   0  0  0  0  0  0  0  0  0  0  0  0
   12.0809    4.6420    1.0211 C   0  0  0  0  0  0  0  0  0  0  0  0
   12.3751    3.2981    1.3904 C   0  0  1  0  0  0  0  0  0  0  0  0
   12.2269    2.7177    2.7382 C   0  0  1  0  0  0  0  0  0  0  0  0
   12.0975    3.8050    3.7463 C   0  0  0  0  0  0  0  0  0  0  0  0
   11.8668    5.0961    3.3927 C   0  0  0  0  0  0  0  0  0  0  0  0
   11.5689    6.5671    1.7842 H   0  0  0  0  0  0  0  0  0  0  0  0
   12.0850    4.9290   -0.0290 H   0  0  0  0  0  0  0  0  0  0  0  0
   12.8393    2.3876    0.3459 N   0  0  0  0  0  0  0  0  0  0  0  0
   13.1930    1.6702   -0.4519 N   0  0  0  0  0  0  0  0  0  0  0  0
   11.7478    5.8430    4.1792 H   0  0  0  0  0  0  0  0  0  0  0  0
   12.1768    3.5137    4.7929 H   0  0  0  0  0  0  0  0  0  0  0  0
   13.0039    1.9897    2.9893 H   0  0  0  0  0  0  0  0  0  0  0  0
    9.4282    3.1836    2.1373 O   0  0  0  0  0  0  0  0  0  0  0  0
    9.7981    2.1150    2.5549 C   0  0  0  0  0  0  0  0  0  0  0  0
   11.0243    1.7141    2.8535 O   0  0  0  0  0  0  0  0  0  0  0  0
    8.8002    0.9469    2.8088 C   0  0  0  0  0  0  0  0  0  0  0  0
    9.1153   -0.1303    2.0508 F   0  0  0  0  0  0  0  0  0  0  0  0
    8.8257    0.5626    4.1059 F   0  0  0  0  0  0  0  0  0  0  0  0
    7.5463    1.3123    2.5082 F   0  0  0  0  0  0  0  0  0  0  0  0
  1  6  1  0  0  0  0
  2  3  1  0  0  0  0
  2  1  2  0  0  0  0
  3  9  1  6  0  0  0
  3  4  1  0  0  0  0
  4 16  1  0  0  0  0
  4 13  1  1  0  0  0
  4  5  1  0  0  0  0
  5 12  1  0  0  0  0
  6  5  2  0  0  0  0
  6 11  1  0  0  0  0
  7  1  1  0  0  0  0
  8  2  1  0  0  0  0
 10  9  1  0  0  0  0
 14 15  2  0  0  0  0
 15 17  1  0  0  0  0
 15 16  1  0  0  0  0
 17 19  1  0  0  0  0
 18 17  1  0  0  0  0
 20 17  1  0  0  0  0
M  RAD  3   3   2   9   2  10   3
M  END
