Coordinates from ORCA-job Ph-N2-OOCCF3-B3LYPG-aug-cc-pVDZ-scan-d09-49-n400
 OpenBabel11081710403D

 20 18  0  0  0  0  0  0  0  0999 V2000
   13.3548    6.0532    2.3941 C   0  0  0  0  0  0  0  0  0  0  0  0
   12.3337    5.6286    1.5036 C   0  0  0  0  0  0  0  0  0  0  0  0
   11.8637    4.4354    1.9846 C   0  0  0  0  0  0  0  0  0  0  0  0
   12.1093    3.6820    2.9629 C   0  0  0  0  0  0  0  0  0  0  0  0
   13.1186    4.0790    3.8634 C   0  0  0  0  0  0  0  0  0  0  0  0
   13.7287    5.3050    3.5272 C   0  0  0  0  0  0  0  0  0  0  0  0
   13.8605    6.9967    2.1803 H   0  0  0  0  0  0  0  0  0  0  0  0
   12.0247    6.1842    0.6230 H   0  0  0  0  0  0  0  0  0  0  0  0
    9.1683    4.3765   -1.2987 N   0  0  0  0  0  0  0  0  0  0  0  0
    8.3370    3.7992   -1.7398 N   0  0  0  0  0  0  0  0  0  0  0  0
   14.5222    5.6904    4.1698 H   0  0  0  0  0  0  0  0  0  0  0  0
   13.4177    3.5104    4.7430 H   0  0  0  0  0  0  0  0  0  0  0  0
   10.9935    1.9800    3.0979 H   0  0  0  0  0  0  0  0  0  0  0  0
    9.3046    1.4453    1.4755 O   0  0  0  0  0  0  0  0  0  0  0  0
    9.6311    0.8120    2.4458 C   0  0  0  0  0  0  0  0  0  0  0  0
   10.5692    1.1195    3.3377 O   0  0  0  0  0  0  0  0  0  0  0  0
    8.9675   -0.5387    2.8254 C   0  0  0  0  0  0  0  0  0  0  0  0
    8.0188   -0.8686    1.9402 F   0  0  0  0  0  0  0  0  0  0  0  0
    9.8855   -1.5309    2.8522 F   0  0  0  0  0  0  0  0  0  0  0  0
    8.3978   -0.4638    4.0492 F   0  0  0  0  0  0  0  0  0  0  0  0
  1  6  2  0  0  0  0
  2  3  2  0  0  0  0
  2  1  1  0  0  0  0
  3  4  1  0  0  0  0
  4  5  2  0  0  0  0
  5 12  1  0  0  0  0
  6  5  1  0  0  0  0
  6 11  1  0  0  0  0
  7  1  1  0  0  0  0
  8  2  1  0  0  0  0
 10  9  3  0  0  0  0
 13 16  1  0  0  0  0
 14 15  2  0  0  0  0
 15 17  1  0  0  0  0
 15 16  1  0  0  0  0
 17 19  1  0  0  0  0
 17 20  1  0  0  0  0
 18 17  1  0  0  0  0
M  RAD  2   3   2   4   2
M  END
