Coordinates from ORCA-job Ph-N2-OOCCF3-B3LYPG-aug-cc-pVDZ-scan-d09-49-n400
 OpenBabel11081710403D

 20 18  0  0  0  0  0  0  0  0999 V2000
   13.3241    6.0679    2.3286 C   0  0  0  0  0  0  0  0  0  0  0  0
   12.3238    5.7646    1.3684 C   0  0  0  0  0  0  0  0  0  0  0  0
   11.7625    4.5767    1.7485 C   0  0  0  0  0  0  0  0  0  0  0  0
   11.9015    3.7348    2.6784 C   0  0  0  0  0  0  0  0  0  0  0  0
   12.8941    4.0230    3.6436 C   0  0  0  0  0  0  0  0  0  0  0  0
   13.5949    5.2251    3.4233 C   0  0  0  0  0  0  0  0  0  0  0  0
   13.8946    6.9897    2.2008 H   0  0  0  0  0  0  0  0  0  0  0  0
   12.0881    6.3905    0.5132 H   0  0  0  0  0  0  0  0  0  0  0  0
    9.7688    4.3757   -0.5046 N   0  0  0  0  0  0  0  0  0  0  0  0
    8.9436    3.8421   -1.0074 N   0  0  0  0  0  0  0  0  0  0  0  0
   14.3773    5.5149    4.1268 H   0  0  0  0  0  0  0  0  0  0  0  0
   13.1154    3.3809    4.4956 H   0  0  0  0  0  0  0  0  0  0  0  0
   10.8864    2.0651    2.9187 H   0  0  0  0  0  0  0  0  0  0  0  0
    9.1935    1.3163    1.3822 O   0  0  0  0  0  0  0  0  0  0  0  0
    9.5751    0.7769    2.3889 C   0  0  0  0  0  0  0  0  0  0  0  0
   10.5117    1.1999    3.2312 O   0  0  0  0  0  0  0  0  0  0  0  0
    8.9940   -0.5753    2.8825 C   0  0  0  0  0  0  0  0  0  0  0  0
    8.0479   -1.0214    2.0468 F   0  0  0  0  0  0  0  0  0  0  0  0
    9.9654   -1.5125    2.9615 F   0  0  0  0  0  0  0  0  0  0  0  0
    8.4446   -0.4394    4.1105 F   0  0  0  0  0  0  0  0  0  0  0  0
  1  6  2  0  0  0  0
  2  3  2  0  0  0  0
  2  1  1  0  0  0  0
  3  4  1  0  0  0  0
  4  5  2  0  0  0  0
  5 12  1  0  0  0  0
  6  5  1  0  0  0  0
  6 11  1  0  0  0  0
  7  1  1  0  0  0  0
  8  2  1  0  0  0  0
 10  9  3  0  0  0  0
 13 16  1  0  0  0  0
 14 15  2  0  0  0  0
 15 17  1  0  0  0  0
 15 16  1  0  0  0  0
 17 19  1  0  0  0  0
 17 20  1  0  0  0  0
 18 17  1  0  0  0  0
M  RAD  2   3   2   4   2
M  END
