Coordinates from ORCA-job Ph-N2-OOCCF3-B3LYPG-aug-cc-pVDZ-scan-d09-49-n400
 OpenBabel11081710403D

 20 18  0  0  0  0  0  0  0  0999 V2000
   13.3342    6.0689    2.3458 C   0  0  0  0  0  0  0  0  0  0  0  0
   12.3270    5.7314    1.4040 C   0  0  0  0  0  0  0  0  0  0  0  0
   11.7926    4.5403    1.8134 C   0  0  0  0  0  0  0  0  0  0  0  0
   11.9623    3.7225    2.7574 C   0  0  0  0  0  0  0  0  0  0  0  0
   12.9601    4.0404    3.7057 C   0  0  0  0  0  0  0  0  0  0  0  0
   13.6350    5.2514    3.4522 C   0  0  0  0  0  0  0  0  0  0  0  0
   13.8867    6.9980    2.1942 H   0  0  0  0  0  0  0  0  0  0  0  0
   12.0696    6.3378    0.5409 H   0  0  0  0  0  0  0  0  0  0  0  0
    9.6068    4.3539   -0.7000 N   0  0  0  0  0  0  0  0  0  0  0  0
    8.7800    3.8265   -1.2071 N   0  0  0  0  0  0  0  0  0  0  0  0
   14.4214    5.5688    4.1391 H   0  0  0  0  0  0  0  0  0  0  0  0
   13.2041    3.4183    4.5661 H   0  0  0  0  0  0  0  0  0  0  0  0
   10.9141    2.0403    2.9653 H   0  0  0  0  0  0  0  0  0  0  0  0
    9.2195    1.3520    1.4042 O   0  0  0  0  0  0  0  0  0  0  0  0
    9.5866    0.7856    2.4013 C   0  0  0  0  0  0  0  0  0  0  0  0
   10.5254    1.1762    3.2577 O   0  0  0  0  0  0  0  0  0  0  0  0
    8.9819   -0.5673    2.8637 C   0  0  0  0  0  0  0  0  0  0  0  0
    8.0339   -0.9811    2.0138 F   0  0  0  0  0  0  0  0  0  0  0  0
    9.9383   -1.5208    2.9285 F   0  0  0  0  0  0  0  0  0  0  0  0
    8.4276   -0.4480    4.0912 F   0  0  0  0  0  0  0  0  0  0  0  0
  1  6  2  0  0  0  0
  2  3  2  0  0  0  0
  2  1  1  0  0  0  0
  3  4  1  0  0  0  0
  4  5  2  0  0  0  0
  5 12  1  0  0  0  0
  6  5  1  0  0  0  0
  6 11  1  0  0  0  0
  7  1  1  0  0  0  0
  8  2  1  0  0  0  0
 10  9  3  0  0  0  0
 13 16  1  0  0  0  0
 14 15  2  0  0  0  0
 15 17  1  0  0  0  0
 15 16  1  0  0  0  0
 17 19  1  0  0  0  0
 17 20  1  0  0  0  0
 18 17  1  0  0  0  0
M  RAD  2   3   2   4   2
M  END
