Coordinates from ORCA-job Ph-N2-OOCCF3-B3LYPG-aug-cc-pVDZ-scan-d09-49-n400
 OpenBabel11081710403D

 20 18  0  0  0  0  0  0  0  0999 V2000
   13.3527    6.0414    2.4009 C   0  0  0  0  0  0  0  0  0  0  0  0
   12.3274    5.5876    1.5305 C   0  0  0  0  0  0  0  0  0  0  0  0
   11.8766    4.3959    2.0356 C   0  0  0  0  0  0  0  0  0  0  0  0
   12.1472    3.6660    3.0254 C   0  0  0  0  0  0  0  0  0  0  0  0
   13.1610    4.0909    3.9070 C   0  0  0  0  0  0  0  0  0  0  0  0
   13.7502    5.3187    3.5421 C   0  0  0  0  0  0  0  0  0  0  0  0
   13.8431    6.9876    2.1646 H   0  0  0  0  0  0  0  0  0  0  0  0
   12.0009    6.1239    0.6442 H   0  0  0  0  0  0  0  0  0  0  0  0
    9.0557    4.4245   -1.4819 N   0  0  0  0  0  0  0  0  0  0  0  0
    8.2231    3.8375   -1.9076 N   0  0  0  0  0  0  0  0  0  0  0  0
   14.5460    5.7259    4.1682 H   0  0  0  0  0  0  0  0  0  0  0  0
   13.4781    3.5420    4.7927 H   0  0  0  0  0  0  0  0  0  0  0  0
   11.0182    1.9560    3.1496 H   0  0  0  0  0  0  0  0  0  0  0  0
    9.3435    1.4666    1.5046 O   0  0  0  0  0  0  0  0  0  0  0  0
    9.6509    0.8141    2.4682 C   0  0  0  0  0  0  0  0  0  0  0  0
   10.5830    1.0975    3.3741 O   0  0  0  0  0  0  0  0  0  0  0  0
    8.9672   -0.5340    2.8199 C   0  0  0  0  0  0  0  0  0  0  0  0
    8.0241   -0.8386    1.9198 F   0  0  0  0  0  0  0  0  0  0  0  0
    9.8729   -1.5375    2.8410 F   0  0  0  0  0  0  0  0  0  0  0  0
    8.3854   -0.4708    4.0386 F   0  0  0  0  0  0  0  0  0  0  0  0
  1  6  2  0  0  0  0
  2  3  2  0  0  0  0
  2  1  1  0  0  0  0
  3  4  1  0  0  0  0
  4  5  2  0  0  0  0
  5 12  1  0  0  0  0
  6  5  1  0  0  0  0
  6 11  1  0  0  0  0
  7  1  1  0  0  0  0
  8  2  1  0  0  0  0
 10  9  3  0  0  0  0
 13 16  1  0  0  0  0
 14 15  2  0  0  0  0
 15 17  1  0  0  0  0
 15 16  1  0  0  0  0
 17 19  1  0  0  0  0
 17 20  1  0  0  0  0
 18 17  1  0  0  0  0
M  RAD  2   3   2   4   2
M  END
