20
Coordinates from ORCA-job Ph-N2-OOCCH3-B3LYPG-aug-cc-pVDZ-scan-d09-49-n400
  C   13.05182132740542      6.03305552172972      2.30892104239012
  C   12.65846620694061      5.31088746272866      1.16608506620428
  C   12.13322754377249      4.09548489212347      1.50525423854741
  C   11.93237523860427      3.43155297360380      2.65016843579184
  C   12.35014758275588      4.20168563692057      3.76369698378236
  C   12.89727777683806      5.47730368616974      3.58720244937419
  H   13.47763113126082      7.02836380428587      2.18031213109381
  H   12.75714367815970      5.68718280082972      0.15183089761861
  N   11.57226875837752      3.05290551623036     -0.06011299758771
  N   10.83162447080204      2.24279837415814     -0.27702055432725
  H   13.21345322932105      6.05052837517406      4.45882990704872
  H   12.23785433045429      3.77360591738230      4.76046262197720
  H   11.48034703496227      2.38246104020957      2.74095668858606
  O   9.29519380299335      1.79328481187557      1.36724937981354
  C   9.63690005444718      1.00499116074581      2.29436341727300
  O   10.78276310691643      0.92994029148337      2.82938840026694
  C   8.56095299613167      0.03840183463998      2.80057543338731
  H   7.57058383061438      0.50336537800856      2.74106808986436
  H   8.56296288064051     -0.84439819081412      2.14488198168960
  H   8.78440501860200     -0.28380128748525      3.82338638720552
