20
Coordinates from ORCA-job Ph-N2-OOCCH3-B3LYPG-aug-cc-pVDZ-scan-d09-49-n400
  C   13.42957848310389      6.08099420546531      2.40631397498213
  C   12.75083583996114      5.44886342251926      1.33336913346992
  C   12.09421608280710      4.35507117170141      1.84434126164158
  C   11.99078279188721      3.85211260065085      2.99061387887011
  C   12.64440707238421      4.44067071921673      4.08397081787045
  C   13.37645192222067      5.59353235612748      3.72728899633823
  H   14.01245861855080      6.97854591440975      2.19057766052255
  H   12.77564649882626      5.80562263184375      0.30739395039619
  N   10.78549936417080      3.42333882797493     -1.36247529873705
  N   10.42345353496467      2.58631340358751     -1.98493461616591
  H   13.92289305488848      6.12950233540124      4.50562755258733
  H   12.61004883218073      4.07314774639552      5.10866250040490
  H   10.66342458252726      2.03641043865554      3.03277498592274
  O   9.44127120630885      1.19906288303464      1.23182451394023
  C   9.38053261989854      0.78814480595734      2.37118890600410
  O   10.11476305400162      1.30593038622795      3.38417323463752
  C   8.50136019936498     -0.34034828175430      2.84561409217770
  H   7.92744226021416     -0.73553963863836      2.00321050760938
  H   9.11964067030539     -1.13296202018495      3.28807393403375
  H   7.82269331143368      0.02118609140843      3.62989001349412
