Coordinates from ORCA-job p-NO2-Ph-N2-OOCCF3-B3LYPG-aug-cc-pVDZ-scan-d09-49-n400
 OpenBabel10311713223D

 22 20  0  0  0  0  0  0  0  0999 V2000
   15.1678    7.4721   -3.5832 C   0  0  0  0  0  0  0  0  0  0  0  0
   14.5536    6.6621   -2.6190 C   0  0  0  0  0  0  0  0  0  0  0  0
   15.0475    6.6085   -1.4645 C   0  0  0  0  0  0  0  0  0  0  0  0
   16.1196    7.1712   -0.8174 C   0  0  0  0  0  0  0  0  0  0  0  0
   16.7781    8.0026   -1.7496 C   0  0  0  0  0  0  0  0  0  0  0  0
   16.3056    8.1335   -3.0721 C   0  0  0  0  0  0  0  0  0  0  0  0
   14.8478    7.6096   -4.6123 H   0  0  0  0  0  0  0  0  0  0  0  0
   12.8079    5.4786   -2.9428 H   0  0  0  0  0  0  0  0  0  0  0  0
   16.4432    7.0370    0.2102 H   0  0  0  0  0  0  0  0  0  0  0  0
   17.6664    8.5558   -1.4515 H   0  0  0  0  0  0  0  0  0  0  0  0
   17.0541    9.0259   -3.9879 N   0  0  0  0  0  0  0  0  0  0  0  0
   16.6364    9.1342   -5.1364 O   0  0  0  0  0  0  0  0  0  0  0  0
   18.0439    9.6025   -3.5462 O   0  0  0  0  0  0  0  0  0  0  0  0
   14.2172    4.9147    1.4795 N   0  0  0  0  0  0  0  0  0  0  0  0
   13.5736    4.2286    2.0569 N   0  0  0  0  0  0  0  0  0  0  0  0
   11.4768    4.2620   -2.3421 C   0  0  0  0  0  0  0  0  0  0  0  0
   11.8645    4.1363   -1.2101 O   0  0  0  0  0  0  0  0  0  0  0  0
   12.0161    5.0171   -3.2994 O   0  0  0  0  0  0  0  0  0  0  0  0
   10.2255    3.5275   -2.8914 C   0  0  0  0  0  0  0  0  0  0  0  0
   10.5590    2.7367   -3.9349 F   0  0  0  0  0  0  0  0  0  0  0  0
    9.3017    4.4168   -3.3170 F   0  0  0  0  0  0  0  0  0  0  0  0
    9.6708    2.7637   -1.9432 F   0  0  0  0  0  0  0  0  0  0  0  0
  1  6  2  0  0  0  0
  1  2  1  0  0  0  0
  2  3  2  0  0  0  0
  3  4  1  0  0  0  0
  4  9  1  0  0  0  0
  5 10  1  0  0  0  0
  5  4  2  0  0  0  0
  6  5  1  0  0  0  0
  7  1  1  0  0  0  0
 11 13  2  0  0  0  0
 11  6  1  0  0  0  0
 12 11  2  0  0  0  0
 14 15  3  0  0  0  0
 16 17  2  0  0  0  0
 18  8  1  0  0  0  0
 18 16  1  0  0  0  0
 19 16  1  0  0  0  0
 19 22  1  0  0  0  0
 20 19  1  0  0  0  0
 21 19  1  0  0  0  0
M  RAD  2   2   2   3   2
M  END
