Coordinates from ORCA-job p-NO2-Ph-N2-OOCCF3-B3LYPG-aug-cc-pVDZ-scan-d09-49-n400
 OpenBabel10311713223D

 22 20  0  0  0  0  0  0  0  0999 V2000
   15.1285    7.4084   -3.4830 C   0  0  0  0  0  0  0  0  0  0  0  0
   14.5543    6.6138   -2.4791 C   0  0  0  0  0  0  0  0  0  0  0  0
   15.0972    6.6031   -1.3439 C   0  0  0  0  0  0  0  0  0  0  0  0
   16.1832    7.1944   -0.7496 C   0  0  0  0  0  0  0  0  0  0  0  0
   16.7973    8.0087   -1.7261 C   0  0  0  0  0  0  0  0  0  0  0  0
   16.2750    8.0977   -3.0332 C   0  0  0  0  0  0  0  0  0  0  0  0
   14.7703    7.5146   -4.5033 H   0  0  0  0  0  0  0  0  0  0  0  0
   12.8380    5.4731   -2.8603 H   0  0  0  0  0  0  0  0  0  0  0  0
   16.5434    7.0902    0.2690 H   0  0  0  0  0  0  0  0  0  0  0  0
   17.6884    8.5805   -1.4751 H   0  0  0  0  0  0  0  0  0  0  0  0
   16.9776    8.9742   -3.9991 N   0  0  0  0  0  0  0  0  0  0  0  0
   16.5197    9.0427   -5.1353 O   0  0  0  0  0  0  0  0  0  0  0  0
   17.9777    9.5710   -3.6107 O   0  0  0  0  0  0  0  0  0  0  0  0
   14.2675    5.0321    1.2640 N   0  0  0  0  0  0  0  0  0  0  0  0
   13.6145    4.3431    1.8272 N   0  0  0  0  0  0  0  0  0  0  0  0
   11.4736    4.2566   -2.3357 C   0  0  0  0  0  0  0  0  0  0  0  0
   11.8224    4.0970   -1.1951 O   0  0  0  0  0  0  0  0  0  0  0  0
   12.0521    5.0295   -3.2544 O   0  0  0  0  0  0  0  0  0  0  0  0
   10.2327    3.5511   -2.9440 C   0  0  0  0  0  0  0  0  0  0  0  0
   10.5912    2.7842   -3.9970 F   0  0  0  0  0  0  0  0  0  0  0  0
    9.3327    4.4620   -3.3751 F   0  0  0  0  0  0  0  0  0  0  0  0
    9.6395    2.7691   -2.0348 F   0  0  0  0  0  0  0  0  0  0  0  0
  1  6  2  0  0  0  0
  1  2  1  0  0  0  0
  2  3  2  0  0  0  0
  3  4  1  0  0  0  0
  4  9  1  0  0  0  0
  5 10  1  0  0  0  0
  5  4  2  0  0  0  0
  6  5  1  0  0  0  0
  7  1  1  0  0  0  0
 11 13  2  0  0  0  0
 11  6  1  0  0  0  0
 12 11  2  0  0  0  0
 14 15  3  0  0  0  0
 16 17  2  0  0  0  0
 18  8  1  0  0  0  0
 18 16  1  0  0  0  0
 19 16  1  0  0  0  0
 19 22  1  0  0  0  0
 20 19  1  0  0  0  0
 21 19  1  0  0  0  0
M  RAD  2   2   2   3   2
M  END
