Coordinates from ORCA-job p-NO2-Ph-N2-OOCCF3-B3LYPG-aug-cc-pVDZ-scan-d09-49-n400
 OpenBabel10311713223D

 22 20  0  0  0  0  0  0  0  0999 V2000
   15.2910    7.6813   -3.8939 C   0  0  0  0  0  0  0  0  0  0  0  0
   14.5130    6.8165   -3.1189 C   0  0  0  0  0  0  0  0  0  0  0  0
   14.8105    6.5982   -1.9189 C   0  0  0  0  0  0  0  0  0  0  0  0
   15.8032    7.0272   -1.0693 C   0  0  0  0  0  0  0  0  0  0  0  0
   16.6295    7.9106   -1.7970 C   0  0  0  0  0  0  0  0  0  0  0  0
   16.3678    8.2119   -3.1503 C   0  0  0  0  0  0  0  0  0  0  0  0
   15.1343    7.9465   -4.9355 H   0  0  0  0  0  0  0  0  0  0  0  0
   12.6707    5.5076   -3.3020 H   0  0  0  0  0  0  0  0  0  0  0  0
   15.9653    6.7661   -0.0281 H   0  0  0  0  0  0  0  0  0  0  0  0
   17.4876    8.3737   -1.3141 H   0  0  0  0  0  0  0  0  0  0  0  0
   17.2849    9.1493   -3.8398 N   0  0  0  0  0  0  0  0  0  0  0  0
   17.0558    9.3971   -5.0197 O   0  0  0  0  0  0  0  0  0  0  0  0
   18.2286    9.6050   -3.2003 O   0  0  0  0  0  0  0  0  0  0  0  0
   14.2480    4.7449    1.9970 N   0  0  0  0  0  0  0  0  0  0  0  0
   13.5860    4.0586    2.5538 N   0  0  0  0  0  0  0  0  0  0  0  0
   11.5189    4.3118   -2.3917 C   0  0  0  0  0  0  0  0  0  0  0  0
   12.0746    4.3364   -1.3254 O   0  0  0  0  0  0  0  0  0  0  0  0
   11.8683    4.9775   -3.4927 O   0  0  0  0  0  0  0  0  0  0  0  0
   10.2503    3.4622   -2.6650 C   0  0  0  0  0  0  0  0  0  0  0  0
   10.4796    2.5731   -3.6557 F   0  0  0  0  0  0  0  0  0  0  0  0
    9.2216    4.2533   -3.0397 F   0  0  0  0  0  0  0  0  0  0  0  0
    9.8875    2.7883   -1.5676 F   0  0  0  0  0  0  0  0  0  0  0  0
  1  6  2  0  0  0  0
  1  2  1  0  0  0  0
  2  3  2  0  0  0  0
  3  4  1  0  0  0  0
  4  9  1  0  0  0  0
  5 10  1  0  0  0  0
  5  4  2  0  0  0  0
  6  5  1  0  0  0  0
  7  1  1  0  0  0  0
 11 13  2  0  0  0  0
 11  6  1  0  0  0  0
 12 11  2  0  0  0  0
 14 15  3  0  0  0  0
 16 17  2  0  0  0  0
 18  8  1  0  0  0  0
 18 16  1  0  0  0  0
 19 16  1  0  0  0  0
 19 22  1  0  0  0  0
 20 19  1  0  0  0  0
 21 19  1  0  0  0  0
M  RAD  2   2   2   3   2
M  END
