Coordinates from ORCA-job p-NO2-Ph-N2-OOCCF3-B3LYPG-aug-cc-pVDZ-scan-d09-49-n400
 OpenBabel10311713223D

 22 20  0  0  0  0  0  0  0  0999 V2000
   15.2933    7.6820   -3.8988 C   0  0  0  0  0  0  0  0  0  0  0  0
   14.5128    6.8173   -3.1270 C   0  0  0  0  0  0  0  0  0  0  0  0
   14.8070    6.5971   -1.9269 C   0  0  0  0  0  0  0  0  0  0  0  0
   15.7979    7.0230   -1.0729 C   0  0  0  0  0  0  0  0  0  0  0  0
   16.6270    7.9065   -1.7974 C   0  0  0  0  0  0  0  0  0  0  0  0
   16.3689    8.2100   -3.1512 C   0  0  0  0  0  0  0  0  0  0  0  0
   15.1396    7.9489   -4.9404 H   0  0  0  0  0  0  0  0  0  0  0  0
   12.6687    5.5078   -3.3090 H   0  0  0  0  0  0  0  0  0  0  0  0
   15.9569    6.7599   -0.0313 H   0  0  0  0  0  0  0  0  0  0  0  0
   17.4844    8.3677   -1.3117 H   0  0  0  0  0  0  0  0  0  0  0  0
   17.2891    9.1471   -3.8371 N   0  0  0  0  0  0  0  0  0  0  0  0
   17.0571    9.4053   -5.0141 O   0  0  0  0  0  0  0  0  0  0  0  0
   18.2256    9.6088   -3.1915 O   0  0  0  0  0  0  0  0  0  0  0  0
   14.2519    4.7470    2.0027 N   0  0  0  0  0  0  0  0  0  0  0  0
   13.5899    4.0614    2.5598 N   0  0  0  0  0  0  0  0  0  0  0  0
   11.5201    4.3132   -2.3927 C   0  0  0  0  0  0  0  0  0  0  0  0
   12.0777    4.3397   -1.3265 O   0  0  0  0  0  0  0  0  0  0  0  0
   11.8665    4.9769   -3.4966 O   0  0  0  0  0  0  0  0  0  0  0  0
   10.2513    3.4626   -2.6619 C   0  0  0  0  0  0  0  0  0  0  0  0
   10.4790    2.5717   -3.6514 F   0  0  0  0  0  0  0  0  0  0  0  0
    9.2215    4.2526   -3.0361 F   0  0  0  0  0  0  0  0  0  0  0  0
    9.8909    2.7906   -1.5625 F   0  0  0  0  0  0  0  0  0  0  0  0
  1  6  2  0  0  0  0
  1  2  1  0  0  0  0
  2  3  2  0  0  0  0
  3  4  1  0  0  0  0
  4  9  1  0  0  0  0
  5 10  1  0  0  0  0
  5  4  2  0  0  0  0
  6  5  1  0  0  0  0
  7  1  1  0  0  0  0
 11 13  2  0  0  0  0
 11  6  1  0  0  0  0
 12 11  2  0  0  0  0
 14 15  3  0  0  0  0
 16 17  2  0  0  0  0
 18  8  1  0  0  0  0
 18 16  1  0  0  0  0
 19 16  1  0  0  0  0
 19 22  1  0  0  0  0
 20 19  1  0  0  0  0
 21 19  1  0  0  0  0
M  RAD  2   2   2   3   2
M  END
