Coordinates from ORCA-job p-NO2-Ph-N2-OOCCF3-B3LYPG-aug-cc-pVDZ-scan-d09-49-n400
 OpenBabel10311713223D

 22 20  0  0  0  0  0  0  0  0999 V2000
   14.8005    7.4920   -3.1773 C   0  0  0  0  0  0  0  0  0  0  0  0
   14.0976    6.8019   -2.1667 C   0  0  0  0  0  0  0  0  0  0  0  0
   14.8591    6.6222   -1.0688 C   0  0  0  0  0  0  0  0  0  0  0  0
   16.1328    6.9738   -0.7107 C   0  0  0  0  0  0  0  0  0  0  0  0
   16.7968    7.6527   -1.7429 C   0  0  0  0  0  0  0  0  0  0  0  0
   16.1172    7.8947   -2.9424 C   0  0  0  0  0  0  0  0  0  0  0  0
   14.3193    7.7092   -4.1286 H   0  0  0  0  0  0  0  0  0  0  0  0
   13.0386    6.4377   -2.2782 H   0  0  0  0  0  0  0  0  0  0  0  0
   16.5902    6.7531    0.2493 H   0  0  0  0  0  0  0  0  0  0  0  0
   17.8231    7.9899   -1.6183 H   0  0  0  0  0  0  0  0  0  0  0  0
   16.8371    8.6236   -4.0171 N   0  0  0  0  0  0  0  0  0  0  0  0
   16.2276    8.8378   -5.0571 O   0  0  0  0  0  0  0  0  0  0  0  0
   17.9937    8.9619   -3.7893 O   0  0  0  0  0  0  0  0  0  0  0  0
   13.9217    5.6935    0.3295 N   0  0  0  0  0  0  0  0  0  0  0  0
   13.1239    4.9172    0.4427 N   0  0  0  0  0  0  0  0  0  0  0  0
   11.6779    4.4688   -2.1676 C   0  0  0  0  0  0  0  0  0  0  0  0
   12.5347    3.8630   -1.4777 O   0  0  0  0  0  0  0  0  0  0  0  0
   11.5040    5.6954   -2.3274 O   0  0  0  0  0  0  0  0  0  0  0  0
   10.7142    3.5108   -2.9490 C   0  0  0  0  0  0  0  0  0  0  0  0
   11.4141    2.7589   -3.8353 F   0  0  0  0  0  0  0  0  0  0  0  0
    9.7684    4.1724   -3.6414 F   0  0  0  0  0  0  0  0  0  0  0  0
   10.0842    2.6665   -2.1002 F   0  0  0  0  0  0  0  0  0  0  0  0
  1  6  2  0  0  0  0
  1  2  1  0  0  0  0
  2  3  2  0  0  0  0
  3  4  1  0  0  0  0
  4  9  1  0  0  0  0
  5 10  1  0  0  0  0
  5  4  2  0  0  0  0
  6  5  1  0  0  0  0
  7  1  1  0  0  0  0
  8  2  1  0  0  0  0
 11 13  2  0  0  0  0
 11  6  1  0  0  0  0
 12 11  2  0  0  0  0
 14 15  3  0  0  0  0
 16 17  1  0  0  0  0
 18 16  2  0  0  0  0
 19 16  1  0  0  0  0
 19 22  1  0  0  0  0
 20 19  1  0  0  0  0
 21 19  1  0  0  0  0
M  RAD  2   3   2  17   2
M  END
