Coordinates from ORCA-job p-NO2-Ph-N2-OOCCF3-B3LYPG-aug-cc-pVDZ-scan-d09-49-n400
 OpenBabel10311713223D

 22 20  0  0  0  0  0  0  0  0999 V2000
   15.0213    7.2340   -3.2232 C   0  0  0  0  0  0  0  0  0  0  0  0
   14.4817    6.4500   -2.1735 C   0  0  0  0  0  0  0  0  0  0  0  0
   15.1479    6.5476   -1.0859 C   0  0  0  0  0  0  0  0  0  0  0  0
   16.2574    7.1985   -0.6122 C   0  0  0  0  0  0  0  0  0  0  0  0
   16.7934    7.9764   -1.6527 C   0  0  0  0  0  0  0  0  0  0  0  0
   16.1731    7.9772   -2.9163 C   0  0  0  0  0  0  0  0  0  0  0  0
   14.5910    7.2790   -4.2213 H   0  0  0  0  0  0  0  0  0  0  0  0
   12.9622    5.5141   -2.7087 H   0  0  0  0  0  0  0  0  0  0  0  0
   16.6803    7.1476    0.3870 H   0  0  0  0  0  0  0  0  0  0  0  0
   17.6842    8.5785   -1.4901 H   0  0  0  0  0  0  0  0  0  0  0  0
   16.7762    8.8137   -3.9805 N   0  0  0  0  0  0  0  0  0  0  0  0
   16.2318    8.8110   -5.0794 O   0  0  0  0  0  0  0  0  0  0  0  0
   17.7828    9.4587   -3.6990 O   0  0  0  0  0  0  0  0  0  0  0  0
   14.4164    5.4008    0.5702 N   0  0  0  0  0  0  0  0  0  0  0  0
   13.7147    4.7033    1.0610 N   0  0  0  0  0  0  0  0  0  0  0  0
   11.5360    4.2951   -2.3163 C   0  0  0  0  0  0  0  0  0  0  0  0
   11.8154    4.0741   -1.1630 O   0  0  0  0  0  0  0  0  0  0  0  0
   12.1720    5.0898   -3.1619 O   0  0  0  0  0  0  0  0  0  0  0  0
   10.3150    3.6362   -3.0126 C   0  0  0  0  0  0  0  0  0  0  0  0
   10.7116    2.9049   -4.0779 F   0  0  0  0  0  0  0  0  0  0  0  0
    9.4505    4.5787   -3.4503 F   0  0  0  0  0  0  0  0  0  0  0  0
    9.6621    2.8276   -2.1682 F   0  0  0  0  0  0  0  0  0  0  0  0
  1  6  2  0  0  0  0
  1  2  1  0  0  0  0
  2  3  2  0  0  0  0
  3  4  1  0  0  0  0
  4  9  1  0  0  0  0
  5 10  1  0  0  0  0
  5  4  2  0  0  0  0
  6  5  1  0  0  0  0
  7  1  1  0  0  0  0
 11 13  2  0  0  0  0
 11  6  1  0  0  0  0
 12 11  2  0  0  0  0
 14 15  3  0  0  0  0
 16 17  2  0  0  0  0
 18  8  1  0  0  0  0
 18 16  1  0  0  0  0
 19 16  1  0  0  0  0
 19 22  1  0  0  0  0
 20 19  1  0  0  0  0
 21 19  1  0  0  0  0
M  RAD  2   2   2   3   2
M  END
