Coordinates from ORCA-job p-NO2-Ph-N2-OOCCF3-B3LYPG-aug-cc-pVDZ-scan-d09-49-n400
 OpenBabel10311713223D

 22 21  0  0  0  0  0  0  0  0999 V2000
   15.2298    8.4529   -3.2428 C   0  0  0  0  0  0  0  0  0  0  0  0
   14.0855    7.9737   -2.6503 C   0  0  0  0  0  0  0  0  0  0  0  0
   14.1350    6.9785   -1.5642 C   0  0  0  0  0  0  0  0  0  0  0  0
   15.4934    6.5486   -1.1864 C   0  0  0  0  0  0  0  0  0  0  0  0
   16.6099    7.0568   -1.8070 C   0  0  0  0  0  0  0  0  0  0  0  0
   16.4878    8.0047   -2.8280 C   0  0  0  0  0  0  0  0  0  0  0  0
   15.1588    9.1870   -4.0432 H   0  0  0  0  0  0  0  0  0  0  0  0
   13.0914    8.2992   -2.9507 H   0  0  0  0  0  0  0  0  0  0  0  0
   15.5528    5.8084   -0.3909 H   0  0  0  0  0  0  0  0  0  0  0  0
   17.5990    6.7185   -1.5044 H   0  0  0  0  0  0  0  0  0  0  0  0
   17.6895    8.5327   -3.4696 N   0  0  0  0  0  0  0  0  0  0  0  0
   17.5392    9.3635   -4.3645 O   0  0  0  0  0  0  0  0  0  0  0  0
   18.7768    8.1132   -3.0755 O   0  0  0  0  0  0  0  0  0  0  0  0
   13.3373    6.6320   -1.1343 N   0  0  0  0  0  0  0  0  0  0  0  0
   12.3781    6.1415   -0.6839 N   0  0  0  0  0  0  0  0  0  0  0  0
   11.0789    3.9839   -1.5828 C   0  0  0  0  0  0  0  0  0  0  0  0
   12.1668    4.6463   -1.8616 O   0  0  0  0  0  0  0  0  0  0  0  0
   10.2304    4.1918   -0.7455 O   0  0  0  0  0  0  0  0  0  0  0  0
   10.9571    2.7494   -2.5468 C   0  0  0  0  0  0  0  0  0  0  0  0
    9.8479    2.0423   -2.2940 F   0  0  0  0  0  0  0  0  0  0  0  0
   12.0205    1.9221   -2.4080 F   0  0  0  0  0  0  0  0  0  0  0  0
   10.9112    3.1500   -3.8401 F   0  0  0  0  0  0  0  0  0  0  0  0
  1  6  2  0  0  0  0
  1  2  1  0  0  0  0
  2  3  2  0  0  0  0
  3  4  1  0  0  0  0
  3 14  1  0  0  0  0
  4  9  1  0  0  0  0
  5 10  1  0  0  0  0
  5  4  2  0  0  0  0
  6  5  1  0  0  0  0
  7  1  1  0  0  0  0
  8  2  1  0  0  0  0
 11 13  2  0  0  0  0
 11  6  1  0  0  0  0
 12 11  2  0  0  0  0
 14 15  1  0  0  0  0
 16 18  1  0  0  0  0
 17 16  2  0  0  0  0
 19 21  1  0  0  0  0
 19 20  1  0  0  0  0
 19 16  1  0  0  0  0
 22 19  1  0  0  0  0
M  RAD  3  14   2  15   3  18   2
M  END
