Coordinates from ORCA-job p-NO2-Ph-N2-OOCCF3-B3LYPG-aug-cc-pVDZ-scan-d09-49-n400
 OpenBabel10311713223D

 22 20  0  0  0  0  0  0  0  0999 V2000
   15.0227    7.2369   -3.2271 C   0  0  0  0  0  0  0  0  0  0  0  0
   14.4863    6.4552   -2.1747 C   0  0  0  0  0  0  0  0  0  0  0  0
   15.1510    6.5516   -1.0883 C   0  0  0  0  0  0  0  0  0  0  0  0
   16.2606    7.2005   -0.6132 C   0  0  0  0  0  0  0  0  0  0  0  0
   16.7958    7.9777   -1.6554 C   0  0  0  0  0  0  0  0  0  0  0  0
   16.1754    7.9791   -2.9193 C   0  0  0  0  0  0  0  0  0  0  0  0
   14.5919    7.2818   -4.2249 H   0  0  0  0  0  0  0  0  0  0  0  0
   12.9556    5.5133   -2.7101 H   0  0  0  0  0  0  0  0  0  0  0  0
   16.6842    7.1500    0.3857 H   0  0  0  0  0  0  0  0  0  0  0  0
   17.6871    8.5793   -1.4936 H   0  0  0  0  0  0  0  0  0  0  0  0
   16.7793    8.8150   -3.9834 N   0  0  0  0  0  0  0  0  0  0  0  0
   16.2340    8.8136   -5.0819 O   0  0  0  0  0  0  0  0  0  0  0  0
   17.7857    9.4601   -3.7017 O   0  0  0  0  0  0  0  0  0  0  0  0
   14.4147    5.3922    0.5958 N   0  0  0  0  0  0  0  0  0  0  0  0
   13.7130    4.6954    1.0875 N   0  0  0  0  0  0  0  0  0  0  0  0
   11.5299    4.2962   -2.3173 C   0  0  0  0  0  0  0  0  0  0  0  0
   11.8126    4.0716   -1.1658 O   0  0  0  0  0  0  0  0  0  0  0  0
   12.1667    5.0912   -3.1632 O   0  0  0  0  0  0  0  0  0  0  0  0
   10.3121    3.6341   -3.0159 C   0  0  0  0  0  0  0  0  0  0  0  0
   10.7121    2.9072   -4.0829 F   0  0  0  0  0  0  0  0  0  0  0  0
    9.4441    4.5743   -3.4513 F   0  0  0  0  0  0  0  0  0  0  0  0
    9.6623    2.8208   -2.1736 F   0  0  0  0  0  0  0  0  0  0  0  0
  1  6  2  0  0  0  0
  1  2  1  0  0  0  0
  2  3  2  0  0  0  0
  3  4  1  0  0  0  0
  4  9  1  0  0  0  0
  5 10  1  0  0  0  0
  5  4  2  0  0  0  0
  6  5  1  0  0  0  0
  7  1  1  0  0  0  0
 11 13  2  0  0  0  0
 11  6  1  0  0  0  0
 12 11  2  0  0  0  0
 14 15  3  0  0  0  0
 16 17  2  0  0  0  0
 18  8  1  0  0  0  0
 18 16  1  0  0  0  0
 19 16  1  0  0  0  0
 19 22  1  0  0  0  0
 20 19  1  0  0  0  0
 21 19  1  0  0  0  0
M  RAD  2   2   2   3   2
M  END
