Coordinates from ORCA-job p-NO2-Ph-N2-OOCCF3-B3LYPG-aug-cc-pVDZ-scan-d09-49-n400
 OpenBabel10311713223D

 22 20  0  0  0  0  0  0  0  0999 V2000
   15.3176    7.7221   -3.9601 C   0  0  0  0  0  0  0  0  0  0  0  0
   14.4972    6.8474   -3.2429 C   0  0  0  0  0  0  0  0  0  0  0  0
   14.7420    6.5893   -2.0394 C   0  0  0  0  0  0  0  0  0  0  0  0
   15.7046    6.9765   -1.1364 C   0  0  0  0  0  0  0  0  0  0  0  0
   16.5723    7.8681   -1.8037 C   0  0  0  0  0  0  0  0  0  0  0  0
   16.3706    8.2134   -3.1572 C   0  0  0  0  0  0  0  0  0  0  0  0
   15.2076    8.0204   -4.9987 H   0  0  0  0  0  0  0  0  0  0  0  0
   12.6319    5.5143   -3.4060 H   0  0  0  0  0  0  0  0  0  0  0  0
   15.8224    6.6837   -0.0972 H   0  0  0  0  0  0  0  0  0  0  0  0
   17.4166    8.3035   -1.2731 H   0  0  0  0  0  0  0  0  0  0  0  0
   17.3287    9.1563   -3.7802 N   0  0  0  0  0  0  0  0  0  0  0  0
   17.1455    9.4511   -4.9573 O   0  0  0  0  0  0  0  0  0  0  0  0
   18.2457    9.5864   -3.0865 O   0  0  0  0  0  0  0  0  0  0  0  0
   14.3074    4.7570    2.0906 N   0  0  0  0  0  0  0  0  0  0  0  0
   13.6600    4.0736    2.6674 N   0  0  0  0  0  0  0  0  0  0  0  0
   11.5342    4.3319   -2.4158 C   0  0  0  0  0  0  0  0  0  0  0  0
   12.1299    4.3952   -1.3719 O   0  0  0  0  0  0  0  0  0  0  0  0
   11.8312    4.9684   -3.5494 O   0  0  0  0  0  0  0  0  0  0  0  0
   10.2680    3.4582   -2.6143 C   0  0  0  0  0  0  0  0  0  0  0  0
   10.4713    2.5432   -3.5869 F   0  0  0  0  0  0  0  0  0  0  0  0
    9.2146    4.2246   -2.9712 F   0  0  0  0  0  0  0  0  0  0  0  0
    9.9578    2.8125   -1.4843 F   0  0  0  0  0  0  0  0  0  0  0  0
  1  2  2  0  0  0  0
  1  6  1  0  0  0  0
  2  3  1  0  0  0  0
  3  4  2  0  0  0  0
  4  9  1  0  0  0  0
  5 10  1  0  0  0  0
  5  4  1  0  0  0  0
  6  5  2  0  0  0  0
  7  1  1  0  0  0  0
 11  6  1  0  0  0  0
 11 13  2  0  0  0  0
 12 11  2  0  0  0  0
 14 15  3  0  0  0  0
 16 17  2  0  0  0  0
 18  8  1  0  0  0  0
 18 16  1  0  0  0  0
 19 16  1  0  0  0  0
 19 22  1  0  0  0  0
 20 19  1  0  0  0  0
 21 19  1  0  0  0  0
M  RAD  2   2   2   3   2
M  END
