Coordinates from ORCA-job p-NO2-Ph-N2-OOCCF3-B3LYPG-aug-cc-pVDZ-scan-d09-49-n400
 OpenBabel10311713223D

 22 20  0  0  0  0  0  0  0  0999 V2000
   15.3691    7.8075   -4.0896 C   0  0  0  0  0  0  0  0  0  0  0  0
   14.4694    6.9193   -3.4955 C   0  0  0  0  0  0  0  0  0  0  0  0
   14.6049    6.5815   -2.2948 C   0  0  0  0  0  0  0  0  0  0  0  0
   15.5009    6.8841   -1.2947 C   0  0  0  0  0  0  0  0  0  0  0  0
   16.4447    7.7849   -1.8332 C   0  0  0  0  0  0  0  0  0  0  0  0
   16.3650    8.2161   -3.1752 C   0  0  0  0  0  0  0  0  0  0  0  0
   15.3538    8.1703   -5.1133 H   0  0  0  0  0  0  0  0  0  0  0  0
   12.5598    5.5385   -3.6186 H   0  0  0  0  0  0  0  0  0  0  0  0
   15.5243    6.5267   -0.2692 H   0  0  0  0  0  0  0  0  0  0  0  0
   17.2538    8.1607   -1.2104 H   0  0  0  0  0  0  0  0  0  0  0  0
   17.3969    9.1626   -3.6592 N   0  0  0  0  0  0  0  0  0  0  0  0
   17.3209    9.5318   -4.8273 O   0  0  0  0  0  0  0  0  0  0  0  0
   18.2657    9.5202   -2.8688 O   0  0  0  0  0  0  0  0  0  0  0  0
   14.2799    4.7039    2.1869 N   0  0  0  0  0  0  0  0  0  0  0  0
   13.6642    4.0220    2.7990 N   0  0  0  0  0  0  0  0  0  0  0  0
   11.6095    4.3995   -2.4466 C   0  0  0  0  0  0  0  0  0  0  0  0
   12.3003    4.5598   -1.4727 O   0  0  0  0  0  0  0  0  0  0  0  0
   11.7713    4.9590   -3.6458 O   0  0  0  0  0  0  0  0  0  0  0  0
   10.3657    3.4728   -2.4551 C   0  0  0  0  0  0  0  0  0  0  0  0
   10.5104    2.4953   -3.3753 F   0  0  0  0  0  0  0  0  0  0  0  0
    9.2539    4.1764   -2.7590 F   0  0  0  0  0  0  0  0  0  0  0  0
   10.1926    2.9042   -1.2564 F   0  0  0  0  0  0  0  0  0  0  0  0
  1  2  2  0  0  0  0
  1  6  1  0  0  0  0
  2  3  1  0  0  0  0
  3  4  2  0  0  0  0
  4  9  1  0  0  0  0
  5  4  1  0  0  0  0
  5 10  1  0  0  0  0
  6  5  2  0  0  0  0
  7  1  1  0  0  0  0
 11  6  1  0  0  0  0
 11 13  2  0  0  0  0
 12 11  2  0  0  0  0
 14 15  3  0  0  0  0
 16 17  2  0  0  0  0
 18  8  1  0  0  0  0
 18 16  1  0  0  0  0
 19 16  1  0  0  0  0
 19 22  1  0  0  0  0
 20 19  1  0  0  0  0
 21 19  1  0  0  0  0
M  RAD  2   2   2   3   2
M  END
