Coordinates from ORCA-job p-NO2-Ph-N2-OOCCF3-B3LYPG-aug-cc-pVDZ-scan-d09-49-n400
 OpenBabel10311713223D

 22 20  0  0  0  0  0  0  0  0999 V2000
   15.1120    7.3782   -3.4374 C   0  0  0  0  0  0  0  0  0  0  0  0
   14.5528    6.5902   -2.4187 C   0  0  0  0  0  0  0  0  0  0  0  0
   15.1163    6.5987   -1.2934 C   0  0  0  0  0  0  0  0  0  0  0  0
   16.2061    7.1999   -0.7192 C   0  0  0  0  0  0  0  0  0  0  0  0
   16.8029    8.0067   -1.7128 C   0  0  0  0  0  0  0  0  0  0  0  0
   16.2615    8.0785   -3.0129 C   0  0  0  0  0  0  0  0  0  0  0  0
   14.7387    7.4716   -4.4536 H   0  0  0  0  0  0  0  0  0  0  0  0
   12.8501    5.4685   -2.8221 H   0  0  0  0  0  0  0  0  0  0  0  0
   16.5810    7.1084    0.2953 H   0  0  0  0  0  0  0  0  0  0  0  0
   17.6946    8.5854   -1.4804 H   0  0  0  0  0  0  0  0  0  0  0  0
   16.9457    8.9474   -3.9985 N   0  0  0  0  0  0  0  0  0  0  0  0
   16.4681    9.0051   -5.1272 O   0  0  0  0  0  0  0  0  0  0  0  0
   17.9453    9.5575   -3.6297 O   0  0  0  0  0  0  0  0  0  0  0  0
   14.3091    5.1062    1.1504 N   0  0  0  0  0  0  0  0  0  0  0  0
   13.6473    4.4156    1.7012 N   0  0  0  0  0  0  0  0  0  0  0  0
   11.4701    4.2521   -2.3308 C   0  0  0  0  0  0  0  0  0  0  0  0
   11.7992    4.0761   -1.1867 O   0  0  0  0  0  0  0  0  0  0  0  0
   12.0666    5.0322   -3.2312 O   0  0  0  0  0  0  0  0  0  0  0  0
   10.2348    3.5608   -2.9667 C   0  0  0  0  0  0  0  0  0  0  0  0
   10.6051    2.8049   -4.0235 F   0  0  0  0  0  0  0  0  0  0  0  0
    9.3463    4.4818   -3.4001 F   0  0  0  0  0  0  0  0  0  0  0  0
    9.6234    2.7709   -2.0765 F   0  0  0  0  0  0  0  0  0  0  0  0
  1  6  2  0  0  0  0
  1  2  1  0  0  0  0
  2  3  2  0  0  0  0
  3  4  1  0  0  0  0
  4  9  1  0  0  0  0
  5 10  1  0  0  0  0
  5  4  2  0  0  0  0
  6  5  1  0  0  0  0
  7  1  1  0  0  0  0
 11 13  2  0  0  0  0
 11  6  1  0  0  0  0
 12 11  2  0  0  0  0
 14 15  3  0  0  0  0
 16 17  2  0  0  0  0
 18  8  1  0  0  0  0
 18 16  1  0  0  0  0
 19 16  1  0  0  0  0
 19 22  1  0  0  0  0
 20 19  1  0  0  0  0
 21 19  1  0  0  0  0
M  RAD  2   2   2   3   2
M  END
