Coordinates from ORCA-job p-NO2-Ph-N2-OOCCF3-B3LYPG-aug-cc-pVDZ-scan-d09-49-n400
 OpenBabel10311713223D

 22 20  0  0  0  0  0  0  0  0999 V2000
   15.1537    7.4495   -3.5494 C   0  0  0  0  0  0  0  0  0  0  0  0
   14.5540    6.6450   -2.5701 C   0  0  0  0  0  0  0  0  0  0  0  0
   15.0682    6.6092   -1.4233 C   0  0  0  0  0  0  0  0  0  0  0  0
   16.1452    7.1821   -0.7949 C   0  0  0  0  0  0  0  0  0  0  0  0
   16.7868    8.0071   -1.7448 C   0  0  0  0  0  0  0  0  0  0  0  0
   16.2952    8.1219   -3.0616 C   0  0  0  0  0  0  0  0  0  0  0  0
   14.8191    7.5751   -4.5754 H   0  0  0  0  0  0  0  0  0  0  0  0
   12.8216    5.4788   -2.9137 H   0  0  0  0  0  0  0  0  0  0  0  0
   16.4828    7.0594    0.2295 H   0  0  0  0  0  0  0  0  0  0  0  0
   17.6764    8.5677   -1.4648 H   0  0  0  0  0  0  0  0  0  0  0  0
   17.0265    9.0083   -3.9968 N   0  0  0  0  0  0  0  0  0  0  0  0
   16.5923    9.1027   -5.1404 O   0  0  0  0  0  0  0  0  0  0  0  0
   18.0195    9.5941   -3.5749 O   0  0  0  0  0  0  0  0  0  0  0  0
   14.2212    4.9392    1.4221 N   0  0  0  0  0  0  0  0  0  0  0  0
   13.5756    4.2524    1.9964 N   0  0  0  0  0  0  0  0  0  0  0  0
   11.4778    4.2617   -2.3398 C   0  0  0  0  0  0  0  0  0  0  0  0
   11.8509    4.1234   -1.2042 O   0  0  0  0  0  0  0  0  0  0  0  0
   12.0316    5.0232   -3.2832 O   0  0  0  0  0  0  0  0  0  0  0  0
   10.2300    3.5378   -2.9111 C   0  0  0  0  0  0  0  0  0  0  0  0
   10.5728    2.7556   -3.9580 F   0  0  0  0  0  0  0  0  0  0  0  0
    9.3152    4.4352   -3.3392 F   0  0  0  0  0  0  0  0  0  0  0  0
    9.6607    2.7674   -1.9771 F   0  0  0  0  0  0  0  0  0  0  0  0
  1  6  2  0  0  0  0
  1  2  1  0  0  0  0
  2  3  2  0  0  0  0
  3  4  1  0  0  0  0
  4  9  1  0  0  0  0
  5 10  1  0  0  0  0
  5  4  2  0  0  0  0
  6  5  1  0  0  0  0
  7  1  1  0  0  0  0
 11 13  2  0  0  0  0
 11  6  1  0  0  0  0
 12 11  2  0  0  0  0
 14 15  3  0  0  0  0
 16 17  2  0  0  0  0
 18  8  1  0  0  0  0
 18 16  1  0  0  0  0
 19 16  1  0  0  0  0
 19 22  1  0  0  0  0
 20 19  1  0  0  0  0
 21 19  1  0  0  0  0
M  RAD  2   2   2   3   2
M  END
