Coordinates from ORCA-job p-NO2-Ph-N2-OOCCF3-B3LYPG-aug-cc-pVDZ-scan-d09-49-n400
 OpenBabel10311713223D

 22 20  0  0  0  0  0  0  0  0999 V2000
   15.1051    7.3664   -3.4188 C   0  0  0  0  0  0  0  0  0  0  0  0
   14.5519    6.5807   -2.3943 C   0  0  0  0  0  0  0  0  0  0  0  0
   15.1224    6.5955   -1.2718 C   0  0  0  0  0  0  0  0  0  0  0  0
   16.2155    7.2032   -0.7090 C   0  0  0  0  0  0  0  0  0  0  0  0
   16.8049    8.0067   -1.7088 C   0  0  0  0  0  0  0  0  0  0  0  0
   16.2553    8.0713   -3.0055 C   0  0  0  0  0  0  0  0  0  0  0  0
   14.7256    7.4544   -4.4333 H   0  0  0  0  0  0  0  0  0  0  0  0
   12.8556    5.4690   -2.8120 H   0  0  0  0  0  0  0  0  0  0  0  0
   16.5963    7.1168    0.3037 H   0  0  0  0  0  0  0  0  0  0  0  0
   17.6967    8.5882   -1.4840 H   0  0  0  0  0  0  0  0  0  0  0  0
   16.9312    8.9370   -3.9996 N   0  0  0  0  0  0  0  0  0  0  0  0
   16.4465    8.9882   -5.1255 O   0  0  0  0  0  0  0  0  0  0  0  0
   17.9318    9.5510   -3.6400 O   0  0  0  0  0  0  0  0  0  0  0  0
   14.3180    5.1263    1.1140 N   0  0  0  0  0  0  0  0  0  0  0  0
   13.6549    4.4355    1.6628 N   0  0  0  0  0  0  0  0  0  0  0  0
   11.4718    4.2538   -2.3323 C   0  0  0  0  0  0  0  0  0  0  0  0
   11.7968    4.0744   -1.1876 O   0  0  0  0  0  0  0  0  0  0  0  0
   12.0732    5.0358   -3.2272 O   0  0  0  0  0  0  0  0  0  0  0  0
   10.2379    3.5661   -2.9748 C   0  0  0  0  0  0  0  0  0  0  0  0
   10.6112    2.8129   -4.0325 F   0  0  0  0  0  0  0  0  0  0  0  0
    9.3522    4.4895   -3.4087 F   0  0  0  0  0  0  0  0  0  0  0  0
    9.6222    2.7742   -2.0892 F   0  0  0  0  0  0  0  0  0  0  0  0
  1  6  2  0  0  0  0
  1  2  1  0  0  0  0
  2  3  2  0  0  0  0
  3  4  1  0  0  0  0
  4  9  1  0  0  0  0
  5 10  1  0  0  0  0
  5  4  2  0  0  0  0
  6  5  1  0  0  0  0
  7  1  1  0  0  0  0
 11 13  2  0  0  0  0
 11  6  1  0  0  0  0
 12 11  2  0  0  0  0
 14 15  3  0  0  0  0
 16 17  2  0  0  0  0
 18  8  1  0  0  0  0
 18 16  1  0  0  0  0
 19 16  1  0  0  0  0
 19 22  1  0  0  0  0
 20 19  1  0  0  0  0
 21 19  1  0  0  0  0
M  RAD  2   2   2   3   2
M  END
