Coordinates from ORCA-job p-NO2-Ph-N2-OOCCF3-B3LYPG-aug-cc-pVDZ-scan-d09-49-n400
 OpenBabel10311713223D

 22 20  0  0  0  0  0  0  0  0999 V2000
   15.1231    7.4068   -3.4737 C   0  0  0  0  0  0  0  0  0  0  0  0
   14.5527    6.6116   -2.4672 C   0  0  0  0  0  0  0  0  0  0  0  0
   15.0999    6.6015   -1.3286 C   0  0  0  0  0  0  0  0  0  0  0  0
   16.1888    7.1978   -0.7415 C   0  0  0  0  0  0  0  0  0  0  0  0
   16.7972    8.0118   -1.7221 C   0  0  0  0  0  0  0  0  0  0  0  0
   16.2697    8.0984   -3.0278 C   0  0  0  0  0  0  0  0  0  0  0  0
   14.7618    7.5119   -4.4930 H   0  0  0  0  0  0  0  0  0  0  0  0
   12.8369    5.4723   -2.8546 H   0  0  0  0  0  0  0  0  0  0  0  0
   16.5538    7.0963    0.2755 H   0  0  0  0  0  0  0  0  0  0  0  0
   17.6882    8.5857   -1.4754 H   0  0  0  0  0  0  0  0  0  0  0  0
   16.9673    8.9754   -3.9966 N   0  0  0  0  0  0  0  0  0  0  0  0
   16.5185    9.0245   -5.1375 O   0  0  0  0  0  0  0  0  0  0  0  0
   17.9802    9.5568   -3.6180 O   0  0  0  0  0  0  0  0  0  0  0  0
   14.2788    5.0450    1.2424 N   0  0  0  0  0  0  0  0  0  0  0  0
   13.6251    4.3547    1.8031 N   0  0  0  0  0  0  0  0  0  0  0  0
   11.4716    4.2550   -2.3367 C   0  0  0  0  0  0  0  0  0  0  0  0
   11.8186    4.0922   -1.1961 O   0  0  0  0  0  0  0  0  0  0  0  0
   12.0518    5.0304   -3.2519 O   0  0  0  0  0  0  0  0  0  0  0  0
   10.2317    3.5513   -2.9491 C   0  0  0  0  0  0  0  0  0  0  0  0
   10.5919    2.7874   -4.0037 F   0  0  0  0  0  0  0  0  0  0  0  0
    9.3325    4.4634   -3.3790 F   0  0  0  0  0  0  0  0  0  0  0  0
    9.6370    2.7667   -2.0431 F   0  0  0  0  0  0  0  0  0  0  0  0
  1  6  2  0  0  0  0
  1  2  1  0  0  0  0
  2  3  2  0  0  0  0
  3  4  1  0  0  0  0
  4  9  1  0  0  0  0
  5 10  1  0  0  0  0
  5  4  2  0  0  0  0
  6  5  1  0  0  0  0
  7  1  1  0  0  0  0
 11 13  2  0  0  0  0
 11  6  1  0  0  0  0
 12 11  2  0  0  0  0
 14 15  3  0  0  0  0
 16 17  2  0  0  0  0
 18  8  1  0  0  0  0
 18 16  1  0  0  0  0
 19 16  1  0  0  0  0
 19 22  1  0  0  0  0
 20 19  1  0  0  0  0
 21 19  1  0  0  0  0
M  RAD  2   2   2   3   2
M  END
