Coordinates from ORCA-job p-NO2-Ph-N2-OOCCF3-B3LYPG-aug-cc-pVDZ-scan-d09-49-n400
 OpenBabel10311713223D

 22 20  0  0  0  0  0  0  0  0999 V2000
   15.0681    7.3073   -3.3329 C   0  0  0  0  0  0  0  0  0  0  0  0
   14.5374    6.5301   -2.2853 C   0  0  0  0  0  0  0  0  0  0  0  0
   15.1510    6.5845   -1.1835 C   0  0  0  0  0  0  0  0  0  0  0  0
   16.2496    7.2104   -0.6590 C   0  0  0  0  0  0  0  0  0  0  0  0
   16.8067    8.0002   -1.6873 C   0  0  0  0  0  0  0  0  0  0  0  0
   16.2211    8.0322   -2.9690 C   0  0  0  0  0  0  0  0  0  0  0  0
   14.6613    7.3717   -4.3388 H   0  0  0  0  0  0  0  0  0  0  0  0
   12.8904    5.4812   -2.7731 H   0  0  0  0  0  0  0  0  0  0  0  0
   16.6555    7.1457    0.3457 H   0  0  0  0  0  0  0  0  0  0  0  0
   17.6983    8.5940   -1.4969 H   0  0  0  0  0  0  0  0  0  0  0  0
   16.8607    8.8838   -3.9985 N   0  0  0  0  0  0  0  0  0  0  0  0
   16.3453    8.9073   -5.1116 O   0  0  0  0  0  0  0  0  0  0  0  0
   17.8643    9.5149   -3.6786 O   0  0  0  0  0  0  0  0  0  0  0  0
   14.3641    5.2311    0.9227 N   0  0  0  0  0  0  0  0  0  0  0  0
   13.6875    4.5377    1.4516 N   0  0  0  0  0  0  0  0  0  0  0  0
   11.4892    4.2673   -2.3344 C   0  0  0  0  0  0  0  0  0  0  0  0
   11.7930    4.0701   -1.1860 O   0  0  0  0  0  0  0  0  0  0  0  0
   12.1096    5.0564   -3.2077 O   0  0  0  0  0  0  0  0  0  0  0  0
   10.2617    3.5948   -3.0049 C   0  0  0  0  0  0  0  0  0  0  0  0
   10.6472    2.8529   -4.0665 F   0  0  0  0  0  0  0  0  0  0  0  0
    9.3878    4.5286   -3.4409 F   0  0  0  0  0  0  0  0  0  0  0  0
    9.6273    2.7949   -2.1397 F   0  0  0  0  0  0  0  0  0  0  0  0
  1  6  2  0  0  0  0
  1  2  1  0  0  0  0
  2  3  2  0  0  0  0
  3  4  1  0  0  0  0
  4  9  1  0  0  0  0
  5 10  1  0  0  0  0
  5  4  2  0  0  0  0
  6  5  1  0  0  0  0
  7  1  1  0  0  0  0
 11 13  2  0  0  0  0
 11  6  1  0  0  0  0
 12 11  2  0  0  0  0
 14 15  3  0  0  0  0
 16 17  2  0  0  0  0
 18  8  1  0  0  0  0
 18 16  1  0  0  0  0
 19 16  1  0  0  0  0
 19 22  1  0  0  0  0
 20 19  1  0  0  0  0
 21 19  1  0  0  0  0
M  RAD  2   2   2   3   2
M  END
