Coordinates from ORCA-job p-NO2-Ph-N2-OOCCF3-B3LYPG-aug-cc-pVDZ-scan-d09-49-n400
 OpenBabel10311713223D

 22 20  0  0  0  0  0  0  0  0999 V2000
   15.1497    7.4429   -3.5391 C   0  0  0  0  0  0  0  0  0  0  0  0
   14.5545    6.6402   -2.5553 C   0  0  0  0  0  0  0  0  0  0  0  0
   15.0737    6.6088   -1.4105 C   0  0  0  0  0  0  0  0  0  0  0  0
   16.1525    7.1851   -0.7882 C   0  0  0  0  0  0  0  0  0  0  0  0
   16.7893    8.0082   -1.7427 C   0  0  0  0  0  0  0  0  0  0  0  0
   16.2921    8.1182   -3.0581 C   0  0  0  0  0  0  0  0  0  0  0  0
   14.8109    7.5650   -4.5642 H   0  0  0  0  0  0  0  0  0  0  0  0
   12.8249    5.4788   -2.9066 H   0  0  0  0  0  0  0  0  0  0  0  0
   16.4936    7.0653    0.2353 H   0  0  0  0  0  0  0  0  0  0  0  0
   17.6792    8.5707   -1.4679 H   0  0  0  0  0  0  0  0  0  0  0  0
   17.0183    9.0029   -3.9989 N   0  0  0  0  0  0  0  0  0  0  0  0
   16.5794    9.0932   -5.1411 O   0  0  0  0  0  0  0  0  0  0  0  0
   18.0122    9.5913   -3.5827 O   0  0  0  0  0  0  0  0  0  0  0  0
   14.2228    4.9476    1.4029 N   0  0  0  0  0  0  0  0  0  0  0  0
   13.5767    4.2606    1.9764 N   0  0  0  0  0  0  0  0  0  0  0  0
   11.4783    4.2622   -2.3401 C   0  0  0  0  0  0  0  0  0  0  0  0
   11.8485    4.1214   -1.2039 O   0  0  0  0  0  0  0  0  0  0  0  0
   12.0355    5.0253   -3.2803 O   0  0  0  0  0  0  0  0  0  0  0  0
   10.2314    3.5406   -2.9161 C   0  0  0  0  0  0  0  0  0  0  0  0
   10.5762    2.7602   -3.9637 F   0  0  0  0  0  0  0  0  0  0  0  0
    9.3185    4.4397   -3.3447 F   0  0  0  0  0  0  0  0  0  0  0  0
    9.6590    2.7688   -1.9851 F   0  0  0  0  0  0  0  0  0  0  0  0
  1  6  2  0  0  0  0
  1  2  1  0  0  0  0
  2  3  2  0  0  0  0
  3  4  1  0  0  0  0
  4  9  1  0  0  0  0
  5 10  1  0  0  0  0
  5  4  2  0  0  0  0
  6  5  1  0  0  0  0
  7  1  1  0  0  0  0
 11 13  2  0  0  0  0
 11  6  1  0  0  0  0
 12 11  2  0  0  0  0
 14 15  3  0  0  0  0
 16 17  2  0  0  0  0
 18  8  1  0  0  0  0
 18 16  1  0  0  0  0
 19 16  1  0  0  0  0
 19 22  1  0  0  0  0
 20 19  1  0  0  0  0
 21 19  1  0  0  0  0
M  RAD  2   2   2   3   2
M  END
