Coordinates from ORCA-job p-NO2-Ph-N2-OOCCF3-B3LYPG-aug-cc-pVDZ-scan-d09-49-n400
 OpenBabel10311713223D

 22 20  0  0  0  0  0  0  0  0999 V2000
   15.3651    7.7999   -4.0774 C   0  0  0  0  0  0  0  0  0  0  0  0
   14.4728    6.9126   -3.4706 C   0  0  0  0  0  0  0  0  0  0  0  0
   14.6196    6.5828   -2.2689 C   0  0  0  0  0  0  0  0  0  0  0  0
   15.5225    6.8940   -1.2785 C   0  0  0  0  0  0  0  0  0  0  0  0
   16.4592    7.7943   -1.8302 C   0  0  0  0  0  0  0  0  0  0  0  0
   16.3674    8.2170   -3.1739 C   0  0  0  0  0  0  0  0  0  0  0  0
   15.3403    8.1564   -5.1031 H   0  0  0  0  0  0  0  0  0  0  0  0
   12.5661    5.5353   -3.5970 H   0  0  0  0  0  0  0  0  0  0  0  0
   15.5557    6.5432   -0.2510 H   0  0  0  0  0  0  0  0  0  0  0  0
   17.2724    8.1762   -1.2164 H   0  0  0  0  0  0  0  0  0  0  0  0
   17.3924    9.1635   -3.6720 N   0  0  0  0  0  0  0  0  0  0  0  0
   17.3050    9.5262   -4.8413 O   0  0  0  0  0  0  0  0  0  0  0  0
   18.2660    9.5294   -2.8908 O   0  0  0  0  0  0  0  0  0  0  0  0
   14.2849    4.7095    2.1812 N   0  0  0  0  0  0  0  0  0  0  0  0
   13.6668    4.0274    2.7908 N   0  0  0  0  0  0  0  0  0  0  0  0
   11.5993    4.3909   -2.4435 C   0  0  0  0  0  0  0  0  0  0  0  0
   12.2805    4.5411   -1.4617 O   0  0  0  0  0  0  0  0  0  0  0  0
   11.7758    4.9590   -3.6364 O   0  0  0  0  0  0  0  0  0  0  0  0
   10.3520    3.4691   -2.4724 C   0  0  0  0  0  0  0  0  0  0  0  0
   10.5028    2.4979   -3.3985 F   0  0  0  0  0  0  0  0  0  0  0  0
    9.2461    4.1792   -2.7828 F   0  0  0  0  0  0  0  0  0  0  0  0
   10.1640    2.8920   -1.2801 F   0  0  0  0  0  0  0  0  0  0  0  0
  1  2  2  0  0  0  0
  1  6  1  0  0  0  0
  2  3  1  0  0  0  0
  3  4  2  0  0  0  0
  4  9  1  0  0  0  0
  5  4  1  0  0  0  0
  5 10  1  0  0  0  0
  6  5  2  0  0  0  0
  7  1  1  0  0  0  0
 11  6  1  0  0  0  0
 11 13  2  0  0  0  0
 12 11  2  0  0  0  0
 14 15  3  0  0  0  0
 16 17  2  0  0  0  0
 18  8  1  0  0  0  0
 18 16  1  0  0  0  0
 19 16  1  0  0  0  0
 19 22  1  0  0  0  0
 20 19  1  0  0  0  0
 21 19  1  0  0  0  0
M  RAD  2   2   2   3   2
M  END
