Coordinates from ORCA-job p-NO2-Ph-N2-OOCCF3-B3LYPG-aug-cc-pVDZ-scan-d09-49-n400
 OpenBabel10311713223D

 22 21  0  0  0  0  0  0  0  0999 V2000
   14.7356    7.5549   -3.1657 C   0  0  0  0  0  0  0  0  0  0  0  0
   14.0075    6.9101   -2.1491 C   0  0  0  0  0  0  0  0  0  0  0  0
   14.7656    6.6365   -1.0531 C   0  0  0  0  0  0  0  0  0  0  0  0
   16.0779    6.8929   -0.7464 C   0  0  0  0  0  0  0  0  0  0  0  0
   16.7721    7.5293   -1.7841 C   0  0  0  0  0  0  0  0  0  0  0  0
   16.0863    7.8449   -2.9611 C   0  0  0  0  0  0  0  0  0  0  0  0
   14.2529    7.8261   -4.1020 H   0  0  0  0  0  0  0  0  0  0  0  0
   12.9407    6.6362   -2.2358 H   0  0  0  0  0  0  0  0  0  0  0  0
   16.5430    6.6255    0.1983 H   0  0  0  0  0  0  0  0  0  0  0  0
   17.8250    7.7804   -1.6820 H   0  0  0  0  0  0  0  0  0  0  0  0
   16.8350    8.5300   -4.0445 N   0  0  0  0  0  0  0  0  0  0  0  0
   16.2174    8.8125   -5.0636 O   0  0  0  0  0  0  0  0  0  0  0  0
   18.0213    8.7674   -3.8448 O   0  0  0  0  0  0  0  0  0  0  0  0
   13.8215    5.8094    0.3228 N   0  0  0  0  0  0  0  0  0  0  0  0
   13.0243    5.0156    0.3935 N   0  0  0  0  0  0  0  0  0  0  0  0
   11.6713    4.5203   -2.0501 C   0  0  0  0  0  0  0  0  0  0  0  0
   12.6194    3.9615   -1.4210 O   0  0  0  0  0  0  0  0  0  0  0  0
   11.3203    5.7085   -2.0478 O   0  0  0  0  0  0  0  0  0  0  0  0
   10.8856    3.5229   -2.9682 C   0  0  0  0  0  0  0  0  0  0  0  0
   11.7078    3.0101   -3.9188 F   0  0  0  0  0  0  0  0  0  0  0  0
    9.8559    4.1124   -3.6009 F   0  0  0  0  0  0  0  0  0  0  0  0
   10.3907    2.4896   -2.2503 F   0  0  0  0  0  0  0  0  0  0  0  0
  1  6  2  0  0  0  0
  1  2  1  0  0  0  0
  2  3  2  0  0  0  0
  3  4  1  0  0  0  0
  3 14  1  0  0  0  0
  4  9  1  0  0  0  0
  5 10  1  0  0  0  0
  5  4  2  0  0  0  0
  6  5  1  0  0  0  0
  7  1  1  0  0  0  0
  8  2  1  0  0  0  0
 11 13  2  0  0  0  0
 11  6  1  0  0  0  0
 12 11  2  0  0  0  0
 14 15  2  0  0  0  0
 16 18  2  0  0  0  0
 16 17  1  0  0  0  0
 19 22  1  0  0  0  0
 19 16  1  0  0  0  0
 20 19  1  0  0  0  0
 21 19  1  0  0  0  0
M  RAD  2  15   2  17   2
M  END
