Coordinates from ORCA-job p-NO2-Ph-N2-OOCCF3-B3LYPG-aug-cc-pVDZ-scan-d09-49-n400
 OpenBabel10311713223D

 22 20  0  0  0  0  0  0  0  0999 V2000
   15.0258    7.2441   -3.2368 C   0  0  0  0  0  0  0  0  0  0  0  0
   14.4952    6.4658   -2.1809 C   0  0  0  0  0  0  0  0  0  0  0  0
   15.1556    6.5584   -1.0956 C   0  0  0  0  0  0  0  0  0  0  0  0
   16.2644    7.2036   -0.6160 C   0  0  0  0  0  0  0  0  0  0  0  0
   16.7990    7.9805   -1.6603 C   0  0  0  0  0  0  0  0  0  0  0  0
   16.1800    7.9843   -2.9251 C   0  0  0  0  0  0  0  0  0  0  0  0
   14.5955    7.2897   -4.2346 H   0  0  0  0  0  0  0  0  0  0  0  0
   12.9436    5.5106   -2.7148 H   0  0  0  0  0  0  0  0  0  0  0  0
   16.6890    7.1532    0.3823 H   0  0  0  0  0  0  0  0  0  0  0  0
   17.6910    8.5813   -1.4984 H   0  0  0  0  0  0  0  0  0  0  0  0
   16.7861    8.8206   -3.9874 N   0  0  0  0  0  0  0  0  0  0  0  0
   16.2425    8.8201   -5.0868 O   0  0  0  0  0  0  0  0  0  0  0  0
   17.7936    9.4634   -3.7046 O   0  0  0  0  0  0  0  0  0  0  0  0
   14.4120    5.3736    0.6454 N   0  0  0  0  0  0  0  0  0  0  0  0
   13.7112    4.6775    1.1392 N   0  0  0  0  0  0  0  0  0  0  0  0
   11.5196    4.2963   -2.3197 C   0  0  0  0  0  0  0  0  0  0  0  0
   11.8071    4.0689   -1.1706 O   0  0  0  0  0  0  0  0  0  0  0  0
   12.1568    5.0913   -3.1675 O   0  0  0  0  0  0  0  0  0  0  0  0
   10.3057    3.6294   -3.0202 C   0  0  0  0  0  0  0  0  0  0  0  0
   10.7099    2.9073   -4.0889 F   0  0  0  0  0  0  0  0  0  0  0  0
    9.4331    4.5661   -3.4535 F   0  0  0  0  0  0  0  0  0  0  0  0
    9.6604    2.8110   -2.1798 F   0  0  0  0  0  0  0  0  0  0  0  0
  1  6  2  0  0  0  0
  1  2  1  0  0  0  0
  2  3  2  0  0  0  0
  3  4  1  0  0  0  0
  4  9  1  0  0  0  0
  5 10  1  0  0  0  0
  5  4  2  0  0  0  0
  6  5  1  0  0  0  0
  7  1  1  0  0  0  0
 11 13  2  0  0  0  0
 11  6  1  0  0  0  0
 12 11  2  0  0  0  0
 14 15  3  0  0  0  0
 16 17  2  0  0  0  0
 18  8  1  0  0  0  0
 18 16  1  0  0  0  0
 19 16  1  0  0  0  0
 19 22  1  0  0  0  0
 20 19  1  0  0  0  0
 21 19  1  0  0  0  0
M  RAD  2   2   2   3   2
M  END
