Coordinates from ORCA-job p-NO2-Ph-N2-OOCCF3-B3LYPG-aug-cc-pVDZ-scan-d09-49-n400
 OpenBabel10311713223D

 22 20  0  0  0  0  0  0  0  0999 V2000
   15.3134    7.7154   -3.9498 C   0  0  0  0  0  0  0  0  0  0  0  0
   14.4994    6.8422   -3.2237 C   0  0  0  0  0  0  0  0  0  0  0  0
   14.7517    6.5897   -2.0207 C   0  0  0  0  0  0  0  0  0  0  0  0
   15.7190    6.9829   -1.1250 C   0  0  0  0  0  0  0  0  0  0  0  0
   16.5807    7.8734   -1.8014 C   0  0  0  0  0  0  0  0  0  0  0  0
   16.3701    8.2124   -3.1552 C   0  0  0  0  0  0  0  0  0  0  0  0
   15.1966    8.0089   -4.9889 H   0  0  0  0  0  0  0  0  0  0  0  0
   12.6369    5.5124   -3.3898 H   0  0  0  0  0  0  0  0  0  0  0  0
   15.8434    6.6947   -0.0853 H   0  0  0  0  0  0  0  0  0  0  0  0
   17.4272    8.3130   -1.2778 H   0  0  0  0  0  0  0  0  0  0  0  0
   17.3225    9.1546   -3.7880 N   0  0  0  0  0  0  0  0  0  0  0  0
   17.1318    9.4438   -4.9653 O   0  0  0  0  0  0  0  0  0  0  0  0
   18.2428    9.5896   -3.1017 O   0  0  0  0  0  0  0  0  0  0  0  0
   14.3084    4.7623    2.0776 N   0  0  0  0  0  0  0  0  0  0  0  0
   13.6583    4.0789    2.6511 N   0  0  0  0  0  0  0  0  0  0  0  0
   11.5297    4.3276   -2.4133 C   0  0  0  0  0  0  0  0  0  0  0  0
   12.1187    4.3842   -1.3651 O   0  0  0  0  0  0  0  0  0  0  0  0
   11.8359    4.9693   -3.5417 O   0  0  0  0  0  0  0  0  0  0  0  0
   10.2629    3.4580   -2.6248 C   0  0  0  0  0  0  0  0  0  0  0  0
   10.4705    2.5475   -3.6006 F   0  0  0  0  0  0  0  0  0  0  0  0
    9.2138    4.2288   -2.9849 F   0  0  0  0  0  0  0  0  0  0  0  0
    9.9434    2.8074   -1.5002 F   0  0  0  0  0  0  0  0  0  0  0  0
  1  2  2  0  0  0  0
  1  6  1  0  0  0  0
  2  3  1  0  0  0  0
  3  4  2  0  0  0  0
  4  9  1  0  0  0  0
  5 10  1  0  0  0  0
  5  4  1  0  0  0  0
  6  5  2  0  0  0  0
  7  1  1  0  0  0  0
 11  6  1  0  0  0  0
 11 13  2  0  0  0  0
 12 11  2  0  0  0  0
 14 15  3  0  0  0  0
 16 17  2  0  0  0  0
 18  8  1  0  0  0  0
 18 16  1  0  0  0  0
 19 16  1  0  0  0  0
 19 22  1  0  0  0  0
 20 19  1  0  0  0  0
 21 19  1  0  0  0  0
M  RAD  2   2   2   3   2
M  END
