Coordinates from ORCA-job p-NO2-Ph-N2-OOCCF3-B3LYPG-aug-cc-pVDZ-scan-d09-49-n400
 OpenBabel10311713223D

 22 20  0  0  0  0  0  0  0  0999 V2000
   15.3329    7.7502   -4.0009 C   0  0  0  0  0  0  0  0  0  0  0  0
   14.4884    6.8704   -3.3190 C   0  0  0  0  0  0  0  0  0  0  0  0
   14.7019    6.5888   -2.1153 C   0  0  0  0  0  0  0  0  0  0  0  0
   15.6454    6.9503   -1.1809 C   0  0  0  0  0  0  0  0  0  0  0  0
   16.5360    7.8458   -1.8119 C   0  0  0  0  0  0  0  0  0  0  0  0
   16.3701    8.2173   -3.1636 C   0  0  0  0  0  0  0  0  0  0  0  0
   15.2508    8.0682   -5.0362 H   0  0  0  0  0  0  0  0  0  0  0  0
   12.6094    5.5225   -3.4704 H   0  0  0  0  0  0  0  0  0  0  0  0
   15.7364    6.6386   -0.1445 H   0  0  0  0  0  0  0  0  0  0  0  0
   17.3710    8.2643   -1.2537 H   0  0  0  0  0  0  0  0  0  0  0  0
   17.3512    9.1627   -3.7458 N   0  0  0  0  0  0  0  0  0  0  0  0
   17.2028    9.4761   -4.9230 O   0  0  0  0  0  0  0  0  0  0  0  0
   18.2580    9.5676   -3.0239 O   0  0  0  0  0  0  0  0  0  0  0  0
   14.3036    4.7403    2.1322 N   0  0  0  0  0  0  0  0  0  0  0  0
   13.6673    4.0571    2.7215 N   0  0  0  0  0  0  0  0  0  0  0  0
   11.5560    4.3453   -2.4269 C   0  0  0  0  0  0  0  0  0  0  0  0
   12.1784    4.4369   -1.4002 O   0  0  0  0  0  0  0  0  0  0  0  0
   11.8120    4.9646   -3.5800 O   0  0  0  0  0  0  0  0  0  0  0  0
   10.2912    3.4590   -2.5706 C   0  0  0  0  0  0  0  0  0  0  0  0
   10.4736    2.5256   -3.5295 F   0  0  0  0  0  0  0  0  0  0  0  0
    9.2224    4.2106   -2.9128 F   0  0  0  0  0  0  0  0  0  0  0  0
   10.0184    2.8349   -1.4191 F   0  0  0  0  0  0  0  0  0  0  0  0
  1  2  2  0  0  0  0
  1  6  1  0  0  0  0
  2  3  1  0  0  0  0
  3  4  2  0  0  0  0
  4  9  1  0  0  0  0
  5 10  1  0  0  0  0
  5  4  1  0  0  0  0
  6  5  2  0  0  0  0
  7  1  1  0  0  0  0
 11  6  1  0  0  0  0
 11 13  2  0  0  0  0
 12 11  2  0  0  0  0
 14 15  3  0  0  0  0
 16 17  2  0  0  0  0
 18  8  1  0  0  0  0
 18 16  1  0  0  0  0
 19 16  1  0  0  0  0
 19 22  1  0  0  0  0
 20 19  1  0  0  0  0
 21 19  1  0  0  0  0
M  RAD  2   2   2   3   2
M  END
