Coordinates from ORCA-job p-NO2-Ph-N2-OOCCF3-B3LYPG-aug-cc-pVDZ-scan-d09-49-n400
 OpenBabel10311713223D

 22 21  0  0  0  0  0  0  0  0999 V2000
   14.6409    8.1991   -2.9855 C   0  0  0  0  0  0  0  0  0  0  0  0
   13.7989    7.6155   -2.0557 C   0  0  0  0  0  0  0  0  0  0  0  0
   14.3324    6.7136   -1.0652 C   0  0  0  0  0  0  0  0  0  0  0  0
   15.7457    6.4289   -1.0884 C   0  0  0  0  0  0  0  0  0  0  0  0
   16.5627    7.0231   -2.0283 C   0  0  0  0  0  0  0  0  0  0  0  0
   16.0045    7.9041   -2.9609 C   0  0  0  0  0  0  0  0  0  0  0  0
   14.2474    8.8768   -3.7392 H   0  0  0  0  0  0  0  0  0  0  0  0
   12.7267    7.7877   -2.0581 H   0  0  0  0  0  0  0  0  0  0  0  0
   16.1407    5.7329   -0.3502 H   0  0  0  0  0  0  0  0  0  0  0  0
   17.6292    6.8133   -2.0537 H   0  0  0  0  0  0  0  0  0  0  0  0
   16.8930    8.5417   -3.9554 N   0  0  0  0  0  0  0  0  0  0  0  0
   16.3802    9.3206   -4.7517 O   0  0  0  0  0  0  0  0  0  0  0  0
   18.0842    8.2496   -3.9143 O   0  0  0  0  0  0  0  0  0  0  0  0
   13.6706    6.2346   -0.3279 N   0  0  0  0  0  0  0  0  0  0  0  0
   12.9635    5.6451    0.3422 N   0  0  0  0  0  0  0  0  0  0  0  0
   11.9338    4.3141   -1.9429 C   0  0  0  0  0  0  0  0  0  0  0  0
   12.4558    3.8523   -0.8843 O   0  0  0  0  0  0  0  0  0  0  0  0
   11.9102    5.4787   -2.3673 O   0  0  0  0  0  0  0  0  0  0  0  0
   11.2285    3.2071   -2.8004 C   0  0  0  0  0  0  0  0  0  0  0  0
   12.0958    2.2150   -3.1212 F   0  0  0  0  0  0  0  0  0  0  0  0
   10.7299    3.6937   -3.9523 F   0  0  0  0  0  0  0  0  0  0  0  0
   10.2026    2.6495   -2.1139 F   0  0  0  0  0  0  0  0  0  0  0  0
  1  6  2  0  0  0  0
  1  2  1  0  0  0  0
  2  3  2  0  0  0  0
  3 14  1  0  0  0  0
  4  3  1  0  0  0  0
  4  9  1  0  0  0  0
  5  4  2  0  0  0  0
  6  5  1  0  0  0  0
  7  1  1  0  0  0  0
  8  2  1  0  0  0  0
 10  5  1  0  0  0  0
 11 13  2  0  0  0  0
 11  6  1  0  0  0  0
 12 11  2  0  0  0  0
 14 15  1  0  0  0  0
 16 17  1  0  0  0  0
 18 16  2  0  0  0  0
 19 22  1  0  0  0  0
 19 16  1  0  0  0  0
 20 19  1  0  0  0  0
 21 19  1  0  0  0  0
M  RAD  3  14   2  15   3  17   2
M  END
