Coordinates from ORCA-job p-NO2-Ph-N2-OOCCF3-B3LYPG-aug-cc-pVDZ-scan-d09-49-n400
 OpenBabel10311713223D

 22 20  0  0  0  0  0  0  0  0999 V2000
   15.3276    7.7385   -3.9845 C   0  0  0  0  0  0  0  0  0  0  0  0
   14.4926    6.8609   -3.2885 C   0  0  0  0  0  0  0  0  0  0  0  0
   14.7167    6.5872   -2.0846 C   0  0  0  0  0  0  0  0  0  0  0  0
   15.6685    6.9599   -1.1636 C   0  0  0  0  0  0  0  0  0  0  0  0
   16.5507    7.8539   -1.8081 C   0  0  0  0  0  0  0  0  0  0  0  0
   16.3711    8.2151   -3.1606 C   0  0  0  0  0  0  0  0  0  0  0  0
   15.2346    8.0487   -5.0213 H   0  0  0  0  0  0  0  0  0  0  0  0
   12.6178    5.5187   -3.4464 H   0  0  0  0  0  0  0  0  0  0  0  0
   15.7692    6.6551   -0.1260 H   0  0  0  0  0  0  0  0  0  0  0  0
   17.3893    8.2787   -1.2602 H   0  0  0  0  0  0  0  0  0  0  0  0
   17.3434    9.1594   -3.7589 N   0  0  0  0  0  0  0  0  0  0  0  0
   17.1796    9.4679   -4.9354 O   0  0  0  0  0  0  0  0  0  0  0  0
   18.2525    9.5767   -3.0470 O   0  0  0  0  0  0  0  0  0  0  0  0
   14.3056    4.7489    2.1112 N   0  0  0  0  0  0  0  0  0  0  0  0
   13.6653    4.0655    2.6958 N   0  0  0  0  0  0  0  0  0  0  0  0
   11.5457    4.3425   -2.4223 C   0  0  0  0  0  0  0  0  0  0  0  0
   12.1593    4.4236   -1.3899 O   0  0  0  0  0  0  0  0  0  0  0  0
   11.8185    4.9661   -3.5691 O   0  0  0  0  0  0  0  0  0  0  0  0
   10.2819    3.4584   -2.5867 C   0  0  0  0  0  0  0  0  0  0  0  0
   10.4738    2.5320   -3.5507 F   0  0  0  0  0  0  0  0  0  0  0  0
    9.2175    4.2135   -2.9348 F   0  0  0  0  0  0  0  0  0  0  0  0
    9.9960    2.8258   -1.4429 F   0  0  0  0  0  0  0  0  0  0  0  0
  1  2  2  0  0  0  0
  1  6  1  0  0  0  0
  2  3  1  0  0  0  0
  3  4  2  0  0  0  0
  4  9  1  0  0  0  0
  5 10  1  0  0  0  0
  5  4  1  0  0  0  0
  6  5  2  0  0  0  0
  7  1  1  0  0  0  0
 11  6  1  0  0  0  0
 11 13  2  0  0  0  0
 12 11  2  0  0  0  0
 14 15  3  0  0  0  0
 16 17  2  0  0  0  0
 18  8  1  0  0  0  0
 18 16  1  0  0  0  0
 19 16  1  0  0  0  0
 19 22  1  0  0  0  0
 20 19  1  0  0  0  0
 21 19  1  0  0  0  0
M  RAD  2   2   2   3   2
M  END
