Coordinates from ORCA-job p-NO2-Ph-N2-OOCCF3-B3LYPG-aug-cc-pVDZ-scan-d09-49-n400
 OpenBabel10311713223D

 22 20  0  0  0  0  0  0  0  0999 V2000
   15.1478    7.4397   -3.5339 C   0  0  0  0  0  0  0  0  0  0  0  0
   14.5546    6.6377   -2.5482 C   0  0  0  0  0  0  0  0  0  0  0  0
   15.0761    6.6084   -1.4045 C   0  0  0  0  0  0  0  0  0  0  0  0
   16.1555    7.1860   -0.7846 C   0  0  0  0  0  0  0  0  0  0  0  0
   16.7902    8.0083   -1.7412 C   0  0  0  0  0  0  0  0  0  0  0  0
   16.2906    8.1163   -3.0558 C   0  0  0  0  0  0  0  0  0  0  0  0
   14.8071    7.5602   -4.5586 H   0  0  0  0  0  0  0  0  0  0  0  0
   12.8262    5.4782   -2.9022 H   0  0  0  0  0  0  0  0  0  0  0  0
   16.4983    7.0676    0.2385 H   0  0  0  0  0  0  0  0  0  0  0  0
   17.6803    8.5717   -1.4686 H   0  0  0  0  0  0  0  0  0  0  0  0
   17.0146    9.0002   -3.9990 N   0  0  0  0  0  0  0  0  0  0  0  0
   16.5737    9.0888   -5.1406 O   0  0  0  0  0  0  0  0  0  0  0  0
   18.0088    9.5897   -3.5853 O   0  0  0  0  0  0  0  0  0  0  0  0
   14.2265    4.9553    1.3900 N   0  0  0  0  0  0  0  0  0  0  0  0
   13.5800    4.2681    1.9628 N   0  0  0  0  0  0  0  0  0  0  0  0
   11.4778    4.2616   -2.3396 C   0  0  0  0  0  0  0  0  0  0  0  0
   11.8460    4.1191   -1.2029 O   0  0  0  0  0  0  0  0  0  0  0  0
   12.0371    5.0256   -3.2778 O   0  0  0  0  0  0  0  0  0  0  0  0
   10.2315    3.5415   -2.9187 C   0  0  0  0  0  0  0  0  0  0  0  0
   10.5776    2.7624   -3.9668 F   0  0  0  0  0  0  0  0  0  0  0  0
    9.3198    4.4417   -3.3476 F   0  0  0  0  0  0  0  0  0  0  0  0
    9.6570    2.7688   -1.9897 F   0  0  0  0  0  0  0  0  0  0  0  0
  1  6  2  0  0  0  0
  1  2  1  0  0  0  0
  2  3  2  0  0  0  0
  3  4  1  0  0  0  0
  4  9  1  0  0  0  0
  5 10  1  0  0  0  0
  5  4  2  0  0  0  0
  6  5  1  0  0  0  0
  7  1  1  0  0  0  0
 11 13  2  0  0  0  0
 11  6  1  0  0  0  0
 12 11  2  0  0  0  0
 14 15  3  0  0  0  0
 16 17  2  0  0  0  0
 18  8  1  0  0  0  0
 18 16  1  0  0  0  0
 19 16  1  0  0  0  0
 19 22  1  0  0  0  0
 20 19  1  0  0  0  0
 21 19  1  0  0  0  0
M  RAD  2   2   2   3   2
M  END
