Coordinates from ORCA-job p-NO2-Ph-N2-OOCCF3-B3LYPG-aug-cc-pVDZ-scan-d09-49-n400
 OpenBabel10311713223D

 22 21  0  0  0  0  0  0  0  0999 V2000
   14.7315    7.5886   -3.1865 C   0  0  0  0  0  0  0  0  0  0  0  0
   13.9838    6.9372   -2.2013 C   0  0  0  0  0  0  0  0  0  0  0  0
   14.6714    6.5725   -1.0551 C   0  0  0  0  0  0  0  0  0  0  0  0
   16.0089    6.8217   -0.7848 C   0  0  0  0  0  0  0  0  0  0  0  0
   16.7432    7.4589   -1.7859 C   0  0  0  0  0  0  0  0  0  0  0  0
   16.0881    7.8297   -2.9621 C   0  0  0  0  0  0  0  0  0  0  0  0
   14.2713    7.9056   -4.1190 H   0  0  0  0  0  0  0  0  0  0  0  0
   12.9209    6.7235   -2.3193 H   0  0  0  0  0  0  0  0  0  0  0  0
   16.4631    6.5255    0.1579 H   0  0  0  0  0  0  0  0  0  0  0  0
   17.8007    7.6767   -1.6621 H   0  0  0  0  0  0  0  0  0  0  0  0
   16.8703    8.5222   -4.0166 N   0  0  0  0  0  0  0  0  0  0  0  0
   16.2742    8.8550   -5.0341 O   0  0  0  0  0  0  0  0  0  0  0  0
   18.0608    8.7188   -3.7972 O   0  0  0  0  0  0  0  0  0  0  0  0
   13.8418    5.8829    0.1153 N   0  0  0  0  0  0  0  0  0  0  0  0
   13.0305    5.0797    0.2157 N   0  0  0  0  0  0  0  0  0  0  0  0
   11.6121    4.5548   -1.9517 C   0  0  0  0  0  0  0  0  0  0  0  0
   12.6899    4.0946   -1.4203 O   0  0  0  0  0  0  0  0  0  0  0  0
   11.0998    5.6583   -1.8003 O   0  0  0  0  0  0  0  0  0  0  0  0
   10.9515    3.5183   -2.9174 C   0  0  0  0  0  0  0  0  0  0  0  0
   11.8223    3.1423   -3.8861 F   0  0  0  0  0  0  0  0  0  0  0  0
    9.8635    4.0228   -3.5204 F   0  0  0  0  0  0  0  0  0  0  0  0
   10.5772    2.4074   -2.2433 F   0  0  0  0  0  0  0  0  0  0  0  0
  1  6  2  0  0  0  0
  1  2  1  0  0  0  0
  2  3  2  0  0  0  0
  3  4  1  0  0  0  0
  3 14  1  0  0  0  0
  4  9  1  0  0  0  0
  5 10  1  0  0  0  0
  5  4  2  0  0  0  0
  6  5  1  0  0  0  0
  7  1  1  0  0  0  0
  8  2  1  0  0  0  0
 11 13  2  0  0  0  0
 11  6  1  0  0  0  0
 12 11  2  0  0  0  0
 14 15  2  0  0  0  0
 16 18  2  0  0  0  0
 16 17  1  0  0  0  0
 19 22  1  0  0  0  0
 19 16  1  0  0  0  0
 20 19  1  0  0  0  0
 21 19  1  0  0  0  0
M  RAD  2  15   2  17   2
M  END
