Coordinates from ORCA-job p-NO2-Ph-N2-OOCCF3-B3LYPG-aug-cc-pVDZ-scan-d09-49-n400
 OpenBabel10311713223D

 22 20  0  0  0  0  0  0  0  0999 V2000
   15.2617    7.6277   -3.8187 C   0  0  0  0  0  0  0  0  0  0  0  0
   14.5253    6.7753   -2.9890 C   0  0  0  0  0  0  0  0  0  0  0  0
   14.8833    6.6066   -1.7974 C   0  0  0  0  0  0  0  0  0  0  0  0
   15.8995    7.0722   -0.9979 C   0  0  0  0  0  0  0  0  0  0  0  0
   16.6817    7.9440   -1.7868 C   0  0  0  0  0  0  0  0  0  0  0  0
   16.3596    8.1974   -3.1372 C   0  0  0  0  0  0  0  0  0  0  0  0
   15.0592    7.8577   -4.8609 H   0  0  0  0  0  0  0  0  0  0  0  0
   12.7129    5.4995   -3.1995 H   0  0  0  0  0  0  0  0  0  0  0  0
   16.1056    6.8451    0.0437 H   0  0  0  0  0  0  0  0  0  0  0  0
   17.5514    8.4345   -1.3545 H   0  0  0  0  0  0  0  0  0  0  0  0
   17.2333    9.1253   -3.8930 N   0  0  0  0  0  0  0  0  0  0  0  0
   16.9453    9.3415   -5.0661 O   0  0  0  0  0  0  0  0  0  0  0  0
   18.1880    9.6240   -3.3040 O   0  0  0  0  0  0  0  0  0  0  0  0
   14.2034    4.7605    1.8658 N   0  0  0  0  0  0  0  0  0  0  0  0
   13.5427    4.0735    2.4228 N   0  0  0  0  0  0  0  0  0  0  0  0
   11.5070    4.2946   -2.3688 C   0  0  0  0  0  0  0  0  0  0  0  0
   12.0171    4.2774   -1.2789 O   0  0  0  0  0  0  0  0  0  0  0  0
   11.9109    4.9862   -3.4353 O   0  0  0  0  0  0  0  0  0  0  0  0
   10.2379    3.4747   -2.7199 C   0  0  0  0  0  0  0  0  0  0  0  0
   10.4942    2.6118   -3.7272 F   0  0  0  0  0  0  0  0  0  0  0  0
    9.2377    4.2935   -3.1122 F   0  0  0  0  0  0  0  0  0  0  0  0
    9.8193    2.7742   -1.6596 F   0  0  0  0  0  0  0  0  0  0  0  0
  1  6  2  0  0  0  0
  1  2  1  0  0  0  0
  2  3  2  0  0  0  0
  3  4  1  0  0  0  0
  4  9  1  0  0  0  0
  5 10  1  0  0  0  0
  5  4  2  0  0  0  0
  6  5  1  0  0  0  0
  7  1  1  0  0  0  0
 11 13  2  0  0  0  0
 11  6  1  0  0  0  0
 12 11  2  0  0  0  0
 14 15  3  0  0  0  0
 16 17  2  0  0  0  0
 18  8  1  0  0  0  0
 18 16  1  0  0  0  0
 19 16  1  0  0  0  0
 19 22  1  0  0  0  0
 20 19  1  0  0  0  0
 21 19  1  0  0  0  0
M  RAD  2   2   2   3   2
M  END
