Coordinates from ORCA-job p-NO2-Ph-N2-OOCCF3-B3LYPG-aug-cc-pVDZ-scan-d09-49-n400
 OpenBabel10311713223D

 22 21  0  0  0  0  0  0  0  0999 V2000
   14.6405    8.2037   -2.9797 C   0  0  0  0  0  0  0  0  0  0  0  0
   13.7922    7.6217   -2.0597 C   0  0  0  0  0  0  0  0  0  0  0  0
   14.3038    6.6911   -1.0607 C   0  0  0  0  0  0  0  0  0  0  0  0
   15.7330    6.4090   -1.0984 C   0  0  0  0  0  0  0  0  0  0  0  0
   16.5508    7.0078   -2.0295 C   0  0  0  0  0  0  0  0  0  0  0  0
   16.0030    7.9010   -2.9579 C   0  0  0  0  0  0  0  0  0  0  0  0
   14.2517    8.8926   -3.7261 H   0  0  0  0  0  0  0  0  0  0  0  0
   12.7213    7.8025   -2.0556 H   0  0  0  0  0  0  0  0  0  0  0  0
   16.1180    5.7055   -0.3620 H   0  0  0  0  0  0  0  0  0  0  0  0
   17.6165    6.7925   -2.0517 H   0  0  0  0  0  0  0  0  0  0  0  0
   16.8958    8.5412   -3.9416 N   0  0  0  0  0  0  0  0  0  0  0  0
   16.3898    9.3295   -4.7338 O   0  0  0  0  0  0  0  0  0  0  0  0
   18.0861    8.2427   -3.8996 O   0  0  0  0  0  0  0  0  0  0  0  0
   13.6859    6.2511   -0.3783 N   0  0  0  0  0  0  0  0  0  0  0  0
   12.9714    5.6765    0.3113 N   0  0  0  0  0  0  0  0  0  0  0  0
   11.9406    4.3283   -1.9519 C   0  0  0  0  0  0  0  0  0  0  0  0
   12.4947    3.8767   -0.9040 O   0  0  0  0  0  0  0  0  0  0  0  0
   11.8856    5.4892   -2.3789 O   0  0  0  0  0  0  0  0  0  0  0  0
   11.2372    3.2024   -2.7881 C   0  0  0  0  0  0  0  0  0  0  0  0
   12.1151    2.2243   -3.1201 F   0  0  0  0  0  0  0  0  0  0  0  0
   10.7079    3.6745   -3.9315 F   0  0  0  0  0  0  0  0  0  0  0  0
   10.2359    2.6333   -2.0765 F   0  0  0  0  0  0  0  0  0  0  0  0
  1  6  2  0  0  0  0
  1  2  1  0  0  0  0
  2  8  1  0  0  0  0
  2  3  2  0  0  0  0
  3 14  1  0  0  0  0
  4  3  1  0  0  0  0
  4  9  1  0  0  0  0
  5  4  2  0  0  0  0
  6  5  1  0  0  0  0
  7  1  1  0  0  0  0
 10  5  1  0  0  0  0
 11 13  2  0  0  0  0
 11  6  1  0  0  0  0
 12 11  2  0  0  0  0
 14 15  1  0  0  0  0
 16 17  1  0  0  0  0
 18 16  2  0  0  0  0
 19 22  1  0  0  0  0
 19 16  1  0  0  0  0
 20 19  1  0  0  0  0
 21 19  1  0  0  0  0
M  RAD  3  14   2  15   3  17   2
M  END
