Coordinates from ORCA-job p-NO2-Ph-N2-OOCCF3-B3LYPG-aug-cc-pVDZ-scan-d09-49-n400
 OpenBabel10311713223D

 22 21  0  0  0  0  0  0  0  0999 V2000
   14.6442    8.1981   -2.9900 C   0  0  0  0  0  0  0  0  0  0  0  0
   13.8035    7.6118   -2.0585 C   0  0  0  0  0  0  0  0  0  0  0  0
   14.3461    6.7196   -1.0736 C   0  0  0  0  0  0  0  0  0  0  0  0
   15.7535    6.4372   -1.0870 C   0  0  0  0  0  0  0  0  0  0  0  0
   16.5707    7.0321   -2.0283 C   0  0  0  0  0  0  0  0  0  0  0  0
   16.0087    7.9080   -2.9628 C   0  0  0  0  0  0  0  0  0  0  0  0
   14.2491    8.8722   -3.7459 H   0  0  0  0  0  0  0  0  0  0  0  0
   12.7305    7.7788   -2.0642 H   0  0  0  0  0  0  0  0  0  0  0  0
   16.1513    5.7448   -0.3470 H   0  0  0  0  0  0  0  0  0  0  0  0
   17.6379    6.8267   -2.0529 H   0  0  0  0  0  0  0  0  0  0  0  0
   16.8958    8.5471   -3.9593 N   0  0  0  0  0  0  0  0  0  0  0  0
   16.3806    9.3230   -4.7566 O   0  0  0  0  0  0  0  0  0  0  0  0
   18.0881    8.2606   -3.9159 O   0  0  0  0  0  0  0  0  0  0  0  0
   13.6617    6.2223   -0.3085 N   0  0  0  0  0  0  0  0  0  0  0  0
   12.9568    5.6259    0.3519 N   0  0  0  0  0  0  0  0  0  0  0  0
   11.9262    4.3073   -1.9381 C   0  0  0  0  0  0  0  0  0  0  0  0
   12.4370    3.8424   -0.8756 O   0  0  0  0  0  0  0  0  0  0  0  0
   11.9142    5.4728   -2.3620 O   0  0  0  0  0  0  0  0  0  0  0  0
   11.2200    3.2064   -2.8019 C   0  0  0  0  0  0  0  0  0  0  0  0
   12.0834    2.2094   -3.1187 F   0  0  0  0  0  0  0  0  0  0  0  0
   10.7315    3.6973   -3.9565 F   0  0  0  0  0  0  0  0  0  0  0  0
   10.1862    2.6532   -2.1232 F   0  0  0  0  0  0  0  0  0  0  0  0
  1  6  2  0  0  0  0
  1  2  1  0  0  0  0
  2  3  2  0  0  0  0
  3 14  1  0  0  0  0
  4  3  1  0  0  0  0
  4  9  1  0  0  0  0
  5  4  2  0  0  0  0
  6  5  1  0  0  0  0
  7  1  1  0  0  0  0
  8  2  1  0  0  0  0
 10  5  1  0  0  0  0
 11 13  2  0  0  0  0
 11  6  1  0  0  0  0
 12 11  2  0  0  0  0
 14 15  1  0  0  0  0
 16 17  1  0  0  0  0
 18 16  2  0  0  0  0
 19 22  1  0  0  0  0
 19 16  1  0  0  0  0
 20 19  1  0  0  0  0
 21 19  1  0  0  0  0
M  RAD  3  14   2  15   3  17   2
M  END
