Coordinates from ORCA-job p-NO2-Ph-N2-OOCCF3-B3LYPG-aug-cc-pVDZ-scan-d09-49-n400
 OpenBabel10311713223D

 22 20  0  0  0  0  0  0  0  0999 V2000
   15.0714    7.3146   -3.3431 C   0  0  0  0  0  0  0  0  0  0  0  0
   14.5387    6.5362   -2.2979 C   0  0  0  0  0  0  0  0  0  0  0  0
   15.1484    6.5869   -1.1944 C   0  0  0  0  0  0  0  0  0  0  0  0
   16.2458    7.2099   -0.6643 C   0  0  0  0  0  0  0  0  0  0  0  0
   16.8060    8.0015   -1.6899 C   0  0  0  0  0  0  0  0  0  0  0  0
   16.2243    8.0375   -2.9733 C   0  0  0  0  0  0  0  0  0  0  0  0
   14.6676    7.3818   -4.3499 H   0  0  0  0  0  0  0  0  0  0  0  0
   12.8860    5.4803   -2.7787 H   0  0  0  0  0  0  0  0  0  0  0  0
   16.6493    7.1428    0.3412 H   0  0  0  0  0  0  0  0  0  0  0  0
   17.6976    8.5942   -1.4959 H   0  0  0  0  0  0  0  0  0  0  0  0
   16.8678    8.8911   -3.9987 N   0  0  0  0  0  0  0  0  0  0  0  0
   16.3581    8.9146   -5.1144 O   0  0  0  0  0  0  0  0  0  0  0  0
   17.8734    9.5171   -3.6755 O   0  0  0  0  0  0  0  0  0  0  0  0
   14.3607    5.2174    0.9511 N   0  0  0  0  0  0  0  0  0  0  0  0
   13.6852    4.5240    1.4813 N   0  0  0  0  0  0  0  0  0  0  0  0
   11.4870    4.2658   -2.3350 C   0  0  0  0  0  0  0  0  0  0  0  0
   11.7932    4.0702   -1.1870 O   0  0  0  0  0  0  0  0  0  0  0  0
   12.1050    5.0543   -3.2108 O   0  0  0  0  0  0  0  0  0  0  0  0
   10.2588    3.5916   -3.0025 C   0  0  0  0  0  0  0  0  0  0  0  0
   10.6429    2.8487   -4.0638 F   0  0  0  0  0  0  0  0  0  0  0  0
    9.3834    4.5243   -3.4379 F   0  0  0  0  0  0  0  0  0  0  0  0
    9.6266    2.7923   -2.1352 F   0  0  0  0  0  0  0  0  0  0  0  0
  1  6  2  0  0  0  0
  1  2  1  0  0  0  0
  2  3  2  0  0  0  0
  3  4  1  0  0  0  0
  4  9  1  0  0  0  0
  5 10  1  0  0  0  0
  5  4  2  0  0  0  0
  6  5  1  0  0  0  0
  7  1  1  0  0  0  0
 11 13  2  0  0  0  0
 11  6  1  0  0  0  0
 12 11  2  0  0  0  0
 14 15  3  0  0  0  0
 16 17  2  0  0  0  0
 18  8  1  0  0  0  0
 18 16  1  0  0  0  0
 19 16  1  0  0  0  0
 19 22  1  0  0  0  0
 20 19  1  0  0  0  0
 21 19  1  0  0  0  0
M  RAD  2   2   2   3   2
M  END
