Coordinates from ORCA-job p-NO2-Ph-N2-OOCCF3-B3LYPG-aug-cc-pVDZ-scan-d09-49-n400
 OpenBabel10311713223D

 22 21  0  0  0  0  0  0  0  0999 V2000
   14.8175    7.6051   -3.2389 C   0  0  0  0  0  0  0  0  0  0  0  0
   14.0627    6.8868   -2.3160 C   0  0  0  0  0  0  0  0  0  0  0  0
   14.6745    6.5075   -1.1028 C   0  0  0  0  0  0  0  0  0  0  0  0
   16.0075    6.8496   -0.7961 C   0  0  0  0  0  0  0  0  0  0  0  0
   16.7552    7.5469   -1.7357 C   0  0  0  0  0  0  0  0  0  0  0  0
   16.1441    7.9147   -2.9371 C   0  0  0  0  0  0  0  0  0  0  0  0
   14.3890    7.9212   -4.1868 H   0  0  0  0  0  0  0  0  0  0  0  0
   13.0161    6.6253   -2.4872 H   0  0  0  0  0  0  0  0  0  0  0  0
   16.4396    6.5518    0.1576 H   0  0  0  0  0  0  0  0  0  0  0  0
   17.7911    7.8175   -1.5499 H   0  0  0  0  0  0  0  0  0  0  0  0
   16.9426    8.6780   -3.9304 N   0  0  0  0  0  0  0  0  0  0  0  0
   16.3831    9.0053   -4.9696 O   0  0  0  0  0  0  0  0  0  0  0  0
   18.1081    8.9269   -3.6418 O   0  0  0  0  0  0  0  0  0  0  0  0
   13.9714    5.8495   -0.2132 N   0  0  0  0  0  0  0  0  0  0  0  0
   13.1977    5.0905    0.1385 N   0  0  0  0  0  0  0  0  0  0  0  0
   11.6004    4.4400   -1.9711 C   0  0  0  0  0  0  0  0  0  0  0  0
   12.5970    3.8783   -1.4051 O   0  0  0  0  0  0  0  0  0  0  0  0
   11.2630    5.6261   -1.9389 O   0  0  0  0  0  0  0  0  0  0  0  0
   10.7484    3.4358   -2.8149 C   0  0  0  0  0  0  0  0  0  0  0  0
   11.5111    2.8382   -3.7650 F   0  0  0  0  0  0  0  0  0  0  0  0
    9.7237    4.0408   -3.4412 F   0  0  0  0  0  0  0  0  0  0  0  0
   10.2331    2.4612   -2.0291 F   0  0  0  0  0  0  0  0  0  0  0  0
  1  6  2  0  0  0  0
  1  2  1  0  0  0  0
  2  3  2  0  0  0  0
  3  4  1  0  0  0  0
  3 14  1  0  0  0  0
  4  9  1  0  0  0  0
  5 10  1  0  0  0  0
  5  4  2  0  0  0  0
  6  5  1  0  0  0  0
  7  1  1  0  0  0  0
  8  2  1  0  0  0  0
 11 13  2  0  0  0  0
 11  6  1  0  0  0  0
 12 11  2  0  0  0  0
 14 15  1  0  0  0  0
 16 18  2  0  0  0  0
 16 17  1  0  0  0  0
 19 22  1  0  0  0  0
 19 16  1  0  0  0  0
 20 19  1  0  0  0  0
 21 19  1  0  0  0  0
M  RAD  3  14   2  15   3  17   2
M  END
