Coordinates from ORCA-job p-NO2-Ph-N2-OOCCF3-B3LYPG-aug-cc-pVDZ-scan-d09-49-n400
 OpenBabel10311713223D

 22 20  0  0  0  0  0  0  0  0999 V2000
   15.0258    7.2399   -3.2335 C   0  0  0  0  0  0  0  0  0  0  0  0
   14.4948    6.4599   -2.1785 C   0  0  0  0  0  0  0  0  0  0  0  0
   15.1555    6.5550   -1.0924 C   0  0  0  0  0  0  0  0  0  0  0  0
   16.2632    7.2043   -0.6145 C   0  0  0  0  0  0  0  0  0  0  0  0
   16.7968    7.9820   -1.6581 C   0  0  0  0  0  0  0  0  0  0  0  0
   16.1778    7.9832   -2.9229 C   0  0  0  0  0  0  0  0  0  0  0  0
   14.5956    7.2841   -4.2314 H   0  0  0  0  0  0  0  0  0  0  0  0
   12.9518    5.5057   -2.7141 H   0  0  0  0  0  0  0  0  0  0  0  0
   16.6871    7.1550    0.3842 H   0  0  0  0  0  0  0  0  0  0  0  0
   17.6873    8.5850   -1.4961 H   0  0  0  0  0  0  0  0  0  0  0  0
   16.7819    8.8203   -3.9858 N   0  0  0  0  0  0  0  0  0  0  0  0
   16.2380    8.8181   -5.0851 O   0  0  0  0  0  0  0  0  0  0  0  0
   17.7875    9.4662   -3.7032 O   0  0  0  0  0  0  0  0  0  0  0  0
   14.4147    5.3770    0.6286 N   0  0  0  0  0  0  0  0  0  0  0  0
   13.7140    4.6794    1.1202 N   0  0  0  0  0  0  0  0  0  0  0  0
   11.5281    4.2889   -2.3214 C   0  0  0  0  0  0  0  0  0  0  0  0
   11.8066    4.0710   -1.1681 O   0  0  0  0  0  0  0  0  0  0  0  0
   12.1658    5.0840   -3.1681 O   0  0  0  0  0  0  0  0  0  0  0  0
   10.3063    3.6330   -3.0188 C   0  0  0  0  0  0  0  0  0  0  0  0
   10.7023    2.9008   -4.0837 F   0  0  0  0  0  0  0  0  0  0  0  0
    9.4447    4.5776   -3.4572 F   0  0  0  0  0  0  0  0  0  0  0  0
    9.6513    2.8263   -2.1746 F   0  0  0  0  0  0  0  0  0  0  0  0
  1  6  2  0  0  0  0
  1  2  1  0  0  0  0
  2  3  2  0  0  0  0
  3  4  1  0  0  0  0
  4  9  1  0  0  0  0
  5 10  1  0  0  0  0
  5  4  2  0  0  0  0
  6  5  1  0  0  0  0
  7  1  1  0  0  0  0
 11 13  2  0  0  0  0
 11  6  1  0  0  0  0
 12 11  2  0  0  0  0
 14 15  3  0  0  0  0
 16 17  2  0  0  0  0
 18  8  1  0  0  0  0
 18 16  1  0  0  0  0
 19 16  1  0  0  0  0
 19 22  1  0  0  0  0
 20 19  1  0  0  0  0
 21 19  1  0  0  0  0
M  RAD  2   2   2   3   2
M  END
