Coordinates from ORCA-job p-NO2-Ph-N2-OOCCF3-B3LYPG-aug-cc-pVDZ-scan-d09-49-n400
 OpenBabel10311713223D

 22 20  0  0  0  0  0  0  0  0999 V2000
   15.1904    7.5087   -3.6398 C   0  0  0  0  0  0  0  0  0  0  0  0
   14.5492    6.6886   -2.7032 C   0  0  0  0  0  0  0  0  0  0  0  0
   15.0128    6.6089   -1.5383 C   0  0  0  0  0  0  0  0  0  0  0  0
   16.0743    7.1514   -0.8565 C   0  0  0  0  0  0  0  0  0  0  0  0
   16.7611    7.9931   -1.7588 C   0  0  0  0  0  0  0  0  0  0  0  0
   16.3212    8.1511   -3.0899 C   0  0  0  0  0  0  0  0  0  0  0  0
   14.8958    7.6666   -4.6735 H   0  0  0  0  0  0  0  0  0  0  0  0
   12.7872    5.4800   -2.9913 H   0  0  0  0  0  0  0  0  0  0  0  0
   16.3728    6.9970    0.1758 H   0  0  0  0  0  0  0  0  0  0  0  0
   17.6467    8.5335   -1.4306 H   0  0  0  0  0  0  0  0  0  0  0  0
   17.0987    9.0528   -3.9718 N   0  0  0  0  0  0  0  0  0  0  0  0
   16.7082    9.1863   -5.1273 O   0  0  0  0  0  0  0  0  0  0  0  0
   18.0811    9.6147   -3.4961 O   0  0  0  0  0  0  0  0  0  0  0  0
   14.2146    4.8749    1.5808 N   0  0  0  0  0  0  0  0  0  0  0  0
   13.5709    4.1894    2.1589 N   0  0  0  0  0  0  0  0  0  0  0  0
   11.4775    4.2640   -2.3454 C   0  0  0  0  0  0  0  0  0  0  0  0
   11.8881    4.1585   -1.2193 O   0  0  0  0  0  0  0  0  0  0  0  0
   11.9925    5.0079   -3.3248 O   0  0  0  0  0  0  0  0  0  0  0  0
   10.2210    3.5126   -2.8589 C   0  0  0  0  0  0  0  0  0  0  0  0
   10.5399    2.7080   -3.8962 F   0  0  0  0  0  0  0  0  0  0  0  0
    9.2830    4.3891   -3.2800 F   0  0  0  0  0  0  0  0  0  0  0  0
    9.6902    2.7600   -1.8883 F   0  0  0  0  0  0  0  0  0  0  0  0
  1  6  2  0  0  0  0
  1  2  1  0  0  0  0
  2  3  2  0  0  0  0
  3  4  1  0  0  0  0
  4  9  1  0  0  0  0
  5 10  1  0  0  0  0
  5  4  2  0  0  0  0
  6  5  1  0  0  0  0
  7  1  1  0  0  0  0
 11 13  2  0  0  0  0
 11  6  1  0  0  0  0
 12 11  2  0  0  0  0
 14 15  3  0  0  0  0
 16 17  2  0  0  0  0
 18  8  1  0  0  0  0
 18 16  1  0  0  0  0
 19 16  1  0  0  0  0
 19 22  1  0  0  0  0
 20 19  1  0  0  0  0
 21 19  1  0  0  0  0
M  RAD  2   2   2   3   2
M  END
