Coordinates from ORCA-job p-NO2-Ph-N2-OOCCF3-B3LYPG-aug-cc-pVDZ-scan-d09-49-n400
 OpenBabel10311713223D

 22 20  0  0  0  0  0  0  0  0999 V2000
   15.1772    7.4879   -3.6071 C   0  0  0  0  0  0  0  0  0  0  0  0
   14.5514    6.6733   -2.6545 C   0  0  0  0  0  0  0  0  0  0  0  0
   15.0344    6.6101   -1.4962 C   0  0  0  0  0  0  0  0  0  0  0  0
   16.1013    7.1635   -0.8334 C   0  0  0  0  0  0  0  0  0  0  0  0
   16.7716    7.9994   -1.7536 C   0  0  0  0  0  0  0  0  0  0  0  0
   16.3124    8.1416   -3.0798 C   0  0  0  0  0  0  0  0  0  0  0  0
   14.8678    7.6339   -4.6383 H   0  0  0  0  0  0  0  0  0  0  0  0
   12.7993    5.4787   -2.9612 H   0  0  0  0  0  0  0  0  0  0  0  0
   16.4148    7.0210    0.1962 H   0  0  0  0  0  0  0  0  0  0  0  0
   17.6589    8.5475   -1.4431 H   0  0  0  0  0  0  0  0  0  0  0  0
   17.0729    9.0380   -3.9815 N   0  0  0  0  0  0  0  0  0  0  0  0
   16.6672    9.1557   -5.1335 O   0  0  0  0  0  0  0  0  0  0  0  0
   18.0605    9.6076   -3.5261 O   0  0  0  0  0  0  0  0  0  0  0  0
   14.2165    4.8975    1.5235 N   0  0  0  0  0  0  0  0  0  0  0  0
   13.5732    4.2117    2.1017 N   0  0  0  0  0  0  0  0  0  0  0  0
   11.4760    4.2616   -2.3425 C   0  0  0  0  0  0  0  0  0  0  0  0
   11.8717    4.1428   -1.2123 O   0  0  0  0  0  0  0  0  0  0  0  0
   12.0062    5.0126   -3.3081 O   0  0  0  0  0  0  0  0  0  0  0  0
   10.2226    3.5209   -2.8789 C   0  0  0  0  0  0  0  0  0  0  0  0
   10.5508    2.7252   -3.9203 F   0  0  0  0  0  0  0  0  0  0  0  0
    9.2937    4.4056   -3.3029 F   0  0  0  0  0  0  0  0  0  0  0  0
    9.6766    2.7610   -1.9226 F   0  0  0  0  0  0  0  0  0  0  0  0
  1  6  2  0  0  0  0
  1  2  1  0  0  0  0
  2  3  2  0  0  0  0
  3  4  1  0  0  0  0
  4  9  1  0  0  0  0
  5 10  1  0  0  0  0
  5  4  2  0  0  0  0
  6  5  1  0  0  0  0
  7  1  1  0  0  0  0
 11 13  2  0  0  0  0
 11  6  1  0  0  0  0
 12 11  2  0  0  0  0
 14 15  3  0  0  0  0
 16 17  2  0  0  0  0
 18  8  1  0  0  0  0
 18 16  1  0  0  0  0
 19 16  1  0  0  0  0
 19 22  1  0  0  0  0
 20 19  1  0  0  0  0
 21 19  1  0  0  0  0
M  RAD  2   2   2   3   2
M  END
