Coordinates from ORCA-job p-NO2-Ph-N2-OOCCF3-B3LYPG-aug-cc-pVDZ-scan-d09-49-n400
 OpenBabel10311713223D

 22 20  0  0  0  0  0  0  0  0999 V2000
   15.2792    7.6591   -3.8634 C   0  0  0  0  0  0  0  0  0  0  0  0
   14.5191    6.7996   -3.0642 C   0  0  0  0  0  0  0  0  0  0  0  0
   14.8448    6.6043   -1.8678 C   0  0  0  0  0  0  0  0  0  0  0  0
   15.8475    7.0486   -1.0386 C   0  0  0  0  0  0  0  0  0  0  0  0
   16.6545    7.9271   -1.7940 C   0  0  0  0  0  0  0  0  0  0  0  0
   16.3658    8.2072   -3.1467 C   0  0  0  0  0  0  0  0  0  0  0  0
   15.1023    7.9089   -4.9056 H   0  0  0  0  0  0  0  0  0  0  0  0
   12.6897    5.5046   -3.2577 H   0  0  0  0  0  0  0  0  0  0  0  0
   16.0285    6.8021    0.0033 H   0  0  0  0  0  0  0  0  0  0  0  0
   17.5181    8.4026   -1.3334 H   0  0  0  0  0  0  0  0  0  0  0  0
   17.2641    9.1407   -3.8659 N   0  0  0  0  0  0  0  0  0  0  0  0
   17.0083    9.3753   -5.0429 O   0  0  0  0  0  0  0  0  0  0  0  0
   18.2124    9.6163   -3.2482 O   0  0  0  0  0  0  0  0  0  0  0  0
   14.2173    4.7419    1.9439 N   0  0  0  0  0  0  0  0  0  0  0  0
   13.5536    4.0548    2.4973 N   0  0  0  0  0  0  0  0  0  0  0  0
   11.5148    4.3042   -2.3791 C   0  0  0  0  0  0  0  0  0  0  0  0
   12.0505    4.3102   -1.3013 O   0  0  0  0  0  0  0  0  0  0  0  0
   11.8874    4.9811   -3.4663 O   0  0  0  0  0  0  0  0  0  0  0  0
   10.2455    3.4672   -2.6862 C   0  0  0  0  0  0  0  0  0  0  0  0
   10.4863    2.5895   -3.6844 F   0  0  0  0  0  0  0  0  0  0  0  0
    9.2289    4.2703   -3.0688 F   0  0  0  0  0  0  0  0  0  0  0  0
    9.8583    2.7814   -1.6046 F   0  0  0  0  0  0  0  0  0  0  0  0
  1  6  2  0  0  0  0
  1  2  1  0  0  0  0
  2  3  2  0  0  0  0
  3  4  1  0  0  0  0
  4  9  1  0  0  0  0
  5 10  1  0  0  0  0
  5  4  2  0  0  0  0
  6  5  1  0  0  0  0
  7  1  1  0  0  0  0
 11 13  2  0  0  0  0
 11  6  1  0  0  0  0
 12 11  2  0  0  0  0
 14 15  3  0  0  0  0
 16 17  2  0  0  0  0
 18  8  1  0  0  0  0
 18 16  1  0  0  0  0
 19 16  1  0  0  0  0
 19 22  1  0  0  0  0
 20 19  1  0  0  0  0
 21 19  1  0  0  0  0
M  RAD  2   2   2   3   2
M  END
