Coordinates from ORCA-job p-NO2-Ph-N2-OOCCF3-B3LYPG-aug-cc-pVDZ-scan-d09-49-n400
 OpenBabel10311713223D

 22 20  0  0  0  0  0  0  0  0999 V2000
   15.3125    7.7117   -3.9464 C   0  0  0  0  0  0  0  0  0  0  0  0
   14.5007    6.8395   -3.2167 C   0  0  0  0  0  0  0  0  0  0  0  0
   14.7561    6.5896   -2.0139 C   0  0  0  0  0  0  0  0  0  0  0  0
   15.7251    6.9848   -1.1206 C   0  0  0  0  0  0  0  0  0  0  0  0
   16.5846    7.8745   -1.8009 C   0  0  0  0  0  0  0  0  0  0  0  0
   16.3708    8.2107   -3.1550 C   0  0  0  0  0  0  0  0  0  0  0  0
   15.1932    8.0032   -4.9858 H   0  0  0  0  0  0  0  0  0  0  0  0
   12.6391    5.5116   -3.3844 H   0  0  0  0  0  0  0  0  0  0  0  0
   15.8521    6.6988   -0.0805 H   0  0  0  0  0  0  0  0  0  0  0  0
   17.4321    8.3156   -1.2802 H   0  0  0  0  0  0  0  0  0  0  0  0
   17.3213    9.1522   -3.7918 N   0  0  0  0  0  0  0  0  0  0  0  0
   17.1237    9.4445   -4.9672 O   0  0  0  0  0  0  0  0  0  0  0  0
   18.2388    9.5944   -3.1064 O   0  0  0  0  0  0  0  0  0  0  0  0
   14.3084    4.7643    2.0737 N   0  0  0  0  0  0  0  0  0  0  0  0
   13.6567    4.0811    2.6459 N   0  0  0  0  0  0  0  0  0  0  0  0
   11.5280    4.3261   -2.4123 C   0  0  0  0  0  0  0  0  0  0  0  0
   12.1141    4.3801   -1.3622 O   0  0  0  0  0  0  0  0  0  0  0  0
   11.8377    4.9695   -3.5391 O   0  0  0  0  0  0  0  0  0  0  0  0
   10.2608    3.4584   -2.6287 C   0  0  0  0  0  0  0  0  0  0  0  0
   10.4700    2.5494   -3.6055 F   0  0  0  0  0  0  0  0  0  0  0  0
    9.2136    4.2310   -2.9904 F   0  0  0  0  0  0  0  0  0  0  0  0
    9.9375    2.8062   -1.5061 F   0  0  0  0  0  0  0  0  0  0  0  0
  1  2  2  0  0  0  0
  1  6  1  0  0  0  0
  2  3  1  0  0  0  0
  3  4  2  0  0  0  0
  4  9  1  0  0  0  0
  5 10  1  0  0  0  0
  5  4  1  0  0  0  0
  6  5  2  0  0  0  0
  7  1  1  0  0  0  0
 11  6  1  0  0  0  0
 11 13  2  0  0  0  0
 12 11  2  0  0  0  0
 14 15  3  0  0  0  0
 16 17  2  0  0  0  0
 18  8  1  0  0  0  0
 18 16  1  0  0  0  0
 19 16  1  0  0  0  0
 19 22  1  0  0  0  0
 20 19  1  0  0  0  0
 21 19  1  0  0  0  0
M  RAD  2   2   2   3   2
M  END
