Coordinates from ORCA-job p-NO2-Ph-N2-OOCCF3-B3LYPG-aug-cc-pVDZ-scan-d09-49-n400
 OpenBabel10311713223D

 22 20  0  0  0  0  0  0  0  0999 V2000
   15.0895    7.3407   -3.3799 C   0  0  0  0  0  0  0  0  0  0  0  0
   14.5476    6.5593   -2.3440 C   0  0  0  0  0  0  0  0  0  0  0  0
   15.1378    6.5921   -1.2310 C   0  0  0  0  0  0  0  0  0  0  0  0
   16.2334    7.2080   -0.6853 C   0  0  0  0  0  0  0  0  0  0  0  0
   16.8076    8.0052   -1.6988 C   0  0  0  0  0  0  0  0  0  0  0  0
   16.2413    8.0549   -2.9889 C   0  0  0  0  0  0  0  0  0  0  0  0
   14.6973    7.4178   -4.3905 H   0  0  0  0  0  0  0  0  0  0  0  0
   12.8684    5.4727   -2.7953 H   0  0  0  0  0  0  0  0  0  0  0  0
   16.6259    7.1316    0.3238 H   0  0  0  0  0  0  0  0  0  0  0  0
   17.6994    8.5926   -1.4900 H   0  0  0  0  0  0  0  0  0  0  0  0
   16.9006    8.9143   -3.9994 N   0  0  0  0  0  0  0  0  0  0  0  0
   16.4021    8.9523   -5.1197 O   0  0  0  0  0  0  0  0  0  0  0  0
   17.9031    9.5357   -3.6582 O   0  0  0  0  0  0  0  0  0  0  0  0
   14.3398    5.1738    1.0287 N   0  0  0  0  0  0  0  0  0  0  0  0
   13.6708    4.4818    1.5689 N   0  0  0  0  0  0  0  0  0  0  0  0
   11.4767    4.2578   -2.3336 C   0  0  0  0  0  0  0  0  0  0  0  0
   11.7918    4.0700   -1.1872 O   0  0  0  0  0  0  0  0  0  0  0  0
   12.0869    5.0433   -3.2188 O   0  0  0  0  0  0  0  0  0  0  0  0
   10.2456    3.5771   -2.9893 C   0  0  0  0  0  0  0  0  0  0  0  0
   10.6246    2.8293   -4.0490 F   0  0  0  0  0  0  0  0  0  0  0  0
    9.3653    4.5054   -3.4241 F   0  0  0  0  0  0  0  0  0  0  0  0
    9.6213    2.7814   -2.1132 F   0  0  0  0  0  0  0  0  0  0  0  0
  1  6  2  0  0  0  0
  1  2  1  0  0  0  0
  2  3  2  0  0  0  0
  3  4  1  0  0  0  0
  4  9  1  0  0  0  0
  5 10  1  0  0  0  0
  5  4  2  0  0  0  0
  6  5  1  0  0  0  0
  7  1  1  0  0  0  0
 11 13  2  0  0  0  0
 11  6  1  0  0  0  0
 12 11  2  0  0  0  0
 14 15  3  0  0  0  0
 16 17  2  0  0  0  0
 18  8  1  0  0  0  0
 18 16  1  0  0  0  0
 19 16  1  0  0  0  0
 19 22  1  0  0  0  0
 20 19  1  0  0  0  0
 21 19  1  0  0  0  0
M  RAD  2   2   2   3   2
M  END
