Coordinates from ORCA-job p-NO2-Ph-N2-OOCCF3-B3LYPG-aug-cc-pVDZ-scan-d09-49-n400
 OpenBabel10311713223D

 22 20  0  0  0  0  0  0  0  0999 V2000
   15.2088    7.5393   -3.6853 C   0  0  0  0  0  0  0  0  0  0  0  0
   14.5447    6.7108   -2.7733 C   0  0  0  0  0  0  0  0  0  0  0  0
   14.9814    6.6081   -1.6003 C   0  0  0  0  0  0  0  0  0  0  0  0
   16.0331    7.1329   -0.8894 C   0  0  0  0  0  0  0  0  0  0  0  0
   16.7440    7.9830   -1.7648 C   0  0  0  0  0  0  0  0  0  0  0  0
   16.3326    8.1647   -3.1022 C   0  0  0  0  0  0  0  0  0  0  0  0
   14.9364    7.7149   -4.7222 H   0  0  0  0  0  0  0  0  0  0  0  0
   12.7682    5.4821   -3.0370 H   0  0  0  0  0  0  0  0  0  0  0  0
   16.3098    6.9609    0.1463 H   0  0  0  0  0  0  0  0  0  0  0  0
   17.6265    8.5119   -1.4107 H   0  0  0  0  0  0  0  0  0  0  0  0
   17.1345    9.0740   -3.9540 N   0  0  0  0  0  0  0  0  0  0  0  0
   16.7696    9.2267   -5.1155 O   0  0  0  0  0  0  0  0  0  0  0  0
   18.1119    9.6199   -3.4503 O   0  0  0  0  0  0  0  0  0  0  0  0
   14.2172    4.8490    1.6537 N   0  0  0  0  0  0  0  0  0  0  0  0
   13.5727    4.1637    2.2311 N   0  0  0  0  0  0  0  0  0  0  0  0
   11.4796    4.2674   -2.3498 C   0  0  0  0  0  0  0  0  0  0  0  0
   11.9120    4.1810   -1.2302 O   0  0  0  0  0  0  0  0  0  0  0  0
   11.9713    5.0006   -3.3493 O   0  0  0  0  0  0  0  0  0  0  0  0
   10.2191    3.5004   -2.8287 C   0  0  0  0  0  0  0  0  0  0  0  0
   10.5243    2.6829   -3.8601 F   0  0  0  0  0  0  0  0  0  0  0  0
    9.2675    4.3644   -3.2450 F   0  0  0  0  0  0  0  0  0  0  0  0
    9.7117    2.7586   -1.8377 F   0  0  0  0  0  0  0  0  0  0  0  0
  1  6  2  0  0  0  0
  1  2  1  0  0  0  0
  2  3  2  0  0  0  0
  3  4  1  0  0  0  0
  4  9  1  0  0  0  0
  5 10  1  0  0  0  0
  5  4  2  0  0  0  0
  6  5  1  0  0  0  0
  7  1  1  0  0  0  0
 11 13  2  0  0  0  0
 11  6  1  0  0  0  0
 12 11  2  0  0  0  0
 14 15  3  0  0  0  0
 16 17  2  0  0  0  0
 18  8  1  0  0  0  0
 18 16  1  0  0  0  0
 19 16  1  0  0  0  0
 19 22  1  0  0  0  0
 20 19  1  0  0  0  0
 21 19  1  0  0  0  0
M  RAD  2   2   2   3   2
M  END
