Coordinates from ORCA-job p-NO2-Ph-N2-OOCCF3-B3LYPG-aug-cc-pVDZ-scan-d09-49-n400
 OpenBabel10311713223D

 22 21  0  0  0  0  0  0  0  0999 V2000
   14.7309    7.5593   -3.1627 C   0  0  0  0  0  0  0  0  0  0  0  0
   14.0019    6.9152   -2.1465 C   0  0  0  0  0  0  0  0  0  0  0  0
   14.7599    6.6371   -1.0508 C   0  0  0  0  0  0  0  0  0  0  0  0
   16.0738    6.8901   -0.7462 C   0  0  0  0  0  0  0  0  0  0  0  0
   16.7688    7.5259   -1.7837 C   0  0  0  0  0  0  0  0  0  0  0  0
   16.0827    7.8453   -2.9595 C   0  0  0  0  0  0  0  0  0  0  0  0
   14.2480    7.8334   -4.0980 H   0  0  0  0  0  0  0  0  0  0  0  0
   12.9348    6.6450   -2.2331 H   0  0  0  0  0  0  0  0  0  0  0  0
   16.5393    6.6204    0.1976 H   0  0  0  0  0  0  0  0  0  0  0  0
   17.8225    7.7740   -1.6824 H   0  0  0  0  0  0  0  0  0  0  0  0
   16.8320    8.5302   -4.0429 N   0  0  0  0  0  0  0  0  0  0  0  0
   16.2187    8.7989   -5.0683 O   0  0  0  0  0  0  0  0  0  0  0  0
   18.0239    8.7464   -3.8520 O   0  0  0  0  0  0  0  0  0  0  0  0
   13.8217    5.8145    0.3183 N   0  0  0  0  0  0  0  0  0  0  0  0
   13.0255    5.0189    0.3883 N   0  0  0  0  0  0  0  0  0  0  0  0
   11.6721    4.5228   -2.0457 C   0  0  0  0  0  0  0  0  0  0  0  0
   12.6264    3.9682   -1.4219 O   0  0  0  0  0  0  0  0  0  0  0  0
   11.3110    5.7078   -2.0341 O   0  0  0  0  0  0  0  0  0  0  0  0
   10.8944    3.5250   -2.9700 C   0  0  0  0  0  0  0  0  0  0  0  0
   11.7201    3.0264   -3.9251 F   0  0  0  0  0  0  0  0  0  0  0  0
    9.8589    4.1098   -3.5972 F   0  0  0  0  0  0  0  0  0  0  0  0
   10.4098    2.4821   -2.2589 F   0  0  0  0  0  0  0  0  0  0  0  0
  1  6  2  0  0  0  0
  1  2  1  0  0  0  0
  2  3  2  0  0  0  0
  3  4  1  0  0  0  0
  3 14  1  0  0  0  0
  4  9  1  0  0  0  0
  5 10  1  0  0  0  0
  5  4  2  0  0  0  0
  6  5  1  0  0  0  0
  7  1  1  0  0  0  0
  8  2  1  0  0  0  0
 11 13  2  0  0  0  0
 11  6  1  0  0  0  0
 12 11  2  0  0  0  0
 14 15  2  0  0  0  0
 16 18  2  0  0  0  0
 16 17  1  0  0  0  0
 19 22  1  0  0  0  0
 19 16  1  0  0  0  0
 20 19  1  0  0  0  0
 21 19  1  0  0  0  0
M  RAD  2  15   2  17   2
M  END
