Coordinates from ORCA-job p-NO2-Ph-N2-OOCCF3-B3LYPG-aug-cc-pVDZ-scan-d09-49-n400
 OpenBabel10311713223D

 22 20  0  0  0  0  0  0  0  0999 V2000
   15.0285    7.2457   -3.2427 C   0  0  0  0  0  0  0  0  0  0  0  0
   14.4993    6.4668   -2.1872 C   0  0  0  0  0  0  0  0  0  0  0  0
   15.1564    6.5589   -1.1010 C   0  0  0  0  0  0  0  0  0  0  0  0
   16.2624    7.2044   -0.6170 C   0  0  0  0  0  0  0  0  0  0  0  0
   16.7973    7.9831   -1.6607 C   0  0  0  0  0  0  0  0  0  0  0  0
   16.1811    7.9873   -2.9270 C   0  0  0  0  0  0  0  0  0  0  0  0
   14.6000    7.2916   -4.2412 H   0  0  0  0  0  0  0  0  0  0  0  0
   12.9443    5.5036   -2.7209 H   0  0  0  0  0  0  0  0  0  0  0  0
   16.6862    7.1549    0.3816 H   0  0  0  0  0  0  0  0  0  0  0  0
   17.6879    8.5854   -1.4967 H   0  0  0  0  0  0  0  0  0  0  0  0
   16.7884    8.8258   -3.9868 N   0  0  0  0  0  0  0  0  0  0  0  0
   16.2475    8.8251   -5.0877 O   0  0  0  0  0  0  0  0  0  0  0  0
   17.7945    9.4695   -3.7013 O   0  0  0  0  0  0  0  0  0  0  0  0
   14.4132    5.3646    0.6595 N   0  0  0  0  0  0  0  0  0  0  0  0
   13.7155    4.6675    1.1559 N   0  0  0  0  0  0  0  0  0  0  0  0
   11.5230    4.2881   -2.3237 C   0  0  0  0  0  0  0  0  0  0  0  0
   11.8050    4.0717   -1.1713 O   0  0  0  0  0  0  0  0  0  0  0  0
   12.1594    5.0825   -3.1733 O   0  0  0  0  0  0  0  0  0  0  0  0
   10.3017    3.6293   -3.0191 C   0  0  0  0  0  0  0  0  0  0  0  0
   10.6980    2.8972   -4.0839 F   0  0  0  0  0  0  0  0  0  0  0  0
    9.4378    4.5720   -3.4570 F   0  0  0  0  0  0  0  0  0  0  0  0
    9.6496    2.8220   -2.1733 F   0  0  0  0  0  0  0  0  0  0  0  0
  1  6  2  0  0  0  0
  1  2  1  0  0  0  0
  2  3  2  0  0  0  0
  3  4  1  0  0  0  0
  4  9  1  0  0  0  0
  5 10  1  0  0  0  0
  5  4  2  0  0  0  0
  6  5  1  0  0  0  0
  7  1  1  0  0  0  0
 11 13  2  0  0  0  0
 11  6  1  0  0  0  0
 12 11  2  0  0  0  0
 14 15  3  0  0  0  0
 16 17  2  0  0  0  0
 18  8  1  0  0  0  0
 18 16  1  0  0  0  0
 19 16  1  0  0  0  0
 19 22  1  0  0  0  0
 20 19  1  0  0  0  0
 21 19  1  0  0  0  0
M  RAD  2   2   2   3   2
M  END
