Coordinates from ORCA-job p-NO2-Ph-N2-OOCCF3-B3LYPG-aug-cc-pVDZ-scan-d09-49-n400
 OpenBabel10311713223D

 22 20  0  0  0  0  0  0  0  0999 V2000
   15.3212    7.7277   -3.9685 C   0  0  0  0  0  0  0  0  0  0  0  0
   14.4956    6.8521   -3.2592 C   0  0  0  0  0  0  0  0  0  0  0  0
   14.7319    6.5876   -2.0555 C   0  0  0  0  0  0  0  0  0  0  0  0
   15.6913    6.9703   -1.1466 C   0  0  0  0  0  0  0  0  0  0  0  0
   16.5646    7.8628   -1.8049 C   0  0  0  0  0  0  0  0  0  0  0  0
   16.3708    8.2138   -3.1580 C   0  0  0  0  0  0  0  0  0  0  0  0
   15.2173    8.0303   -5.0065 H   0  0  0  0  0  0  0  0  0  0  0  0
   12.6267    5.5159   -3.4216 H   0  0  0  0  0  0  0  0  0  0  0  0
   15.8022    6.6726   -0.1078 H   0  0  0  0  0  0  0  0  0  0  0  0
   17.4067    8.2942   -1.2677 H   0  0  0  0  0  0  0  0  0  0  0  0
   17.3340    9.1572   -3.7724 N   0  0  0  0  0  0  0  0  0  0  0  0
   17.1576    9.4570   -4.9493 O   0  0  0  0  0  0  0  0  0  0  0  0
   18.2481    9.5829   -3.0722 O   0  0  0  0  0  0  0  0  0  0  0  0
   14.3067    4.7542    2.0971 N   0  0  0  0  0  0  0  0  0  0  0  0
   13.6620    4.0707    2.6767 N   0  0  0  0  0  0  0  0  0  0  0  0
   11.5378    4.3375   -2.4185 C   0  0  0  0  0  0  0  0  0  0  0  0
   12.1412    4.4078   -1.3792 O   0  0  0  0  0  0  0  0  0  0  0  0
   11.8263    4.9680   -3.5577 O   0  0  0  0  0  0  0  0  0  0  0  0
   10.2734    3.4584   -2.6038 C   0  0  0  0  0  0  0  0  0  0  0  0
   10.4733    2.5392   -3.5731 F   0  0  0  0  0  0  0  0  0  0  0  0
    9.2150    4.2193   -2.9574 F   0  0  0  0  0  0  0  0  0  0  0  0
    9.9732    2.8175   -1.4684 F   0  0  0  0  0  0  0  0  0  0  0  0
  1  2  2  0  0  0  0
  1  6  1  0  0  0  0
  2  3  1  0  0  0  0
  3  4  2  0  0  0  0
  4  9  1  0  0  0  0
  5 10  1  0  0  0  0
  5  4  1  0  0  0  0
  6  5  2  0  0  0  0
  7  1  1  0  0  0  0
 11  6  1  0  0  0  0
 11 13  2  0  0  0  0
 12 11  2  0  0  0  0
 14 15  3  0  0  0  0
 16 17  2  0  0  0  0
 18  8  1  0  0  0  0
 18 16  1  0  0  0  0
 19 16  1  0  0  0  0
 19 22  1  0  0  0  0
 20 19  1  0  0  0  0
 21 19  1  0  0  0  0
M  RAD  2   2   2   3   2
M  END
