Coordinates from ORCA-job p-NO2-Ph-N2-OOCCF3-B3LYPG-aug-cc-pVDZ-scan-d09-49-n400
 OpenBabel10311713223D

 22 22  0  0  0  0  0  0  0  0999 V2000
   15.2900    8.4619   -3.2727 C   0  0  0  0  0  0  0  0  0  0  0  0
   14.1397    7.8779   -2.8090 C   0  0  0  0  0  0  0  0  0  0  0  0
   14.1619    6.8116   -1.7603 C   0  0  0  0  0  0  0  0  0  0  0  0
   15.5456    6.4668   -1.3087 C   0  0  0  0  0  0  0  0  0  0  0  0
   16.6518    7.0950   -1.8193 C   0  0  0  0  0  0  0  0  0  0  0  0
   16.5530    8.0912   -2.7974 C   0  0  0  0  0  0  0  0  0  0  0  0
   15.2151    9.2375   -4.0341 H   0  0  0  0  0  0  0  0  0  0  0  0
   13.1477    8.1503   -3.1618 H   0  0  0  0  0  0  0  0  0  0  0  0
   15.5972    5.6917   -0.5476 H   0  0  0  0  0  0  0  0  0  0  0  0
   17.6359    6.8077   -1.4505 H   0  0  0  0  0  0  0  0  0  0  0  0
   17.7404    8.7288   -3.3103 N   0  0  0  0  0  0  0  0  0  0  0  0
   17.6034    9.6024   -4.1731 O   0  0  0  0  0  0  0  0  0  0  0  0
   18.8332    8.3680   -2.8607 O   0  0  0  0  0  0  0  0  0  0  0  0
   13.3708    6.3932   -1.4124 N   0  0  0  0  0  0  0  0  0  0  0  0
   12.3778    5.8777   -0.9662 N   0  0  0  0  0  0  0  0  0  0  0  0
   11.0091    3.9798   -1.4719 C   0  0  0  0  0  0  0  0  0  0  0  0
   12.1134    4.6580   -1.8689 O   0  0  0  0  0  0  0  0  0  0  0  0
   10.2822    4.2233   -0.5563 O   0  0  0  0  0  0  0  0  0  0  0  0
   10.8175    2.7662   -2.4304 C   0  0  0  0  0  0  0  0  0  0  0  0
    9.7388    2.0646   -2.0748 F   0  0  0  0  0  0  0  0  0  0  0  0
   11.8949    1.9543   -2.3861 F   0  0  0  0  0  0  0  0  0  0  0  0
   10.6577    3.1891   -3.7022 F   0  0  0  0  0  0  0  0  0  0  0  0
  1  2  2  0  0  0  0
  1  6  1  0  0  0  0
  2  3  1  0  0  0  0
  3 14  1  0  0  0  0
  3  4  2  0  0  0  0
  4  9  1  0  0  0  0
  5 10  1  0  0  0  0
  5  4  1  0  0  0  0
  6  5  2  0  0  0  0
  7  1  1  0  0  0  0
  8  2  1  0  0  0  0
 11 13  2  0  0  0  0
 11  6  1  0  0  0  0
 12 11  2  0  0  0  0
 14 15  1  0  0  0  0
 16 18  2  0  0  0  0
 17 16  1  0  0  0  0
 17 15  1  0  0  0  0
 19 21  1  0  0  0  0
 19 20  1  0  0  0  0
 19 16  1  0  0  0  0
 22 19  1  0  0  0  0
M  RAD  2  14   2  15   2
M  END
