Coordinates from ORCA-job p-NO2-Ph-N2-OOCCF3-B3LYPG-aug-cc-pVDZ-scan-d09-49-n400
 OpenBabel10311713223D

 22 20  0  0  0  0  0  0  0  0999 V2000
   15.0357    7.2570   -3.2611 C   0  0  0  0  0  0  0  0  0  0  0  0
   14.5084    6.4797   -2.2054 C   0  0  0  0  0  0  0  0  0  0  0  0
   15.1571    6.5650   -1.1174 C   0  0  0  0  0  0  0  0  0  0  0  0
   16.2609    7.2058   -0.6240 C   0  0  0  0  0  0  0  0  0  0  0  0
   16.7991    7.9863   -1.6664 C   0  0  0  0  0  0  0  0  0  0  0  0
   16.1887    7.9957   -2.9357 C   0  0  0  0  0  0  0  0  0  0  0  0
   14.6110    7.3060   -4.2609 H   0  0  0  0  0  0  0  0  0  0  0  0
   12.9321    5.4987   -2.7335 H   0  0  0  0  0  0  0  0  0  0  0  0
   16.6824    7.1545    0.3753 H   0  0  0  0  0  0  0  0  0  0  0  0
   17.6899    8.5873   -1.4979 H   0  0  0  0  0  0  0  0  0  0  0  0
   16.8022    8.8365   -3.9899 N   0  0  0  0  0  0  0  0  0  0  0  0
   16.2652    8.8413   -5.0928 O   0  0  0  0  0  0  0  0  0  0  0  0
   17.8071    9.4791   -3.6977 O   0  0  0  0  0  0  0  0  0  0  0  0
   14.4043    5.3365    0.7182 N   0  0  0  0  0  0  0  0  0  0  0  0
   13.7137    4.6406    1.2259 N   0  0  0  0  0  0  0  0  0  0  0  0
   11.5154    4.2845   -2.3276 C   0  0  0  0  0  0  0  0  0  0  0  0
   11.8023    4.0724   -1.1762 O   0  0  0  0  0  0  0  0  0  0  0  0
   12.1489    5.0777   -3.1826 O   0  0  0  0  0  0  0  0  0  0  0  0
   10.2932    3.6228   -3.0182 C   0  0  0  0  0  0  0  0  0  0  0  0
   10.6876    2.8887   -4.0822 F   0  0  0  0  0  0  0  0  0  0  0  0
    9.4273    4.5636   -3.4560 F   0  0  0  0  0  0  0  0  0  0  0  0
    9.6446    2.8171   -2.1685 F   0  0  0  0  0  0  0  0  0  0  0  0
  1  6  2  0  0  0  0
  1  2  1  0  0  0  0
  2  3  2  0  0  0  0
  3  4  1  0  0  0  0
  4  9  1  0  0  0  0
  5 10  1  0  0  0  0
  5  4  2  0  0  0  0
  6  5  1  0  0  0  0
  7  1  1  0  0  0  0
 11 13  2  0  0  0  0
 11  6  1  0  0  0  0
 12 11  2  0  0  0  0
 14 15  3  0  0  0  0
 16 17  2  0  0  0  0
 18  8  1  0  0  0  0
 18 16  1  0  0  0  0
 19 16  1  0  0  0  0
 19 22  1  0  0  0  0
 20 19  1  0  0  0  0
 21 19  1  0  0  0  0
M  RAD  2   2   2   3   2
M  END
