Coordinates from ORCA-job p-NO2-Ph-N2-OOCCF3-B3LYPG-aug-cc-pVDZ-scan-d09-49-n400
 OpenBabel10311713223D

 22 20  0  0  0  0  0  0  0  0999 V2000
   15.0158    7.2278   -3.2117 C   0  0  0  0  0  0  0  0  0  0  0  0
   14.4627    6.4373   -2.1714 C   0  0  0  0  0  0  0  0  0  0  0  0
   15.1341    6.5355   -1.0784 C   0  0  0  0  0  0  0  0  0  0  0  0
   16.2467    7.1889   -0.6103 C   0  0  0  0  0  0  0  0  0  0  0  0
   16.7877    7.9681   -1.6445 C   0  0  0  0  0  0  0  0  0  0  0  0
   16.1671    7.9699   -2.9075 C   0  0  0  0  0  0  0  0  0  0  0  0
   14.5872    7.2752   -4.2107 H   0  0  0  0  0  0  0  0  0  0  0  0
   12.9775    5.5251   -2.7033 H   0  0  0  0  0  0  0  0  0  0  0  0
   16.6674    7.1350    0.3900 H   0  0  0  0  0  0  0  0  0  0  0  0
   17.6790    8.5684   -1.4797 H   0  0  0  0  0  0  0  0  0  0  0  0
   16.7711    8.8067   -3.9716 N   0  0  0  0  0  0  0  0  0  0  0  0
   16.2266    8.8058   -5.0704 O   0  0  0  0  0  0  0  0  0  0  0  0
   17.7788    9.4497   -3.6893 O   0  0  0  0  0  0  0  0  0  0  0  0
   14.4178    5.4336    0.4856 N   0  0  0  0  0  0  0  0  0  0  0  0
   13.7158    4.7355    0.9760 N   0  0  0  0  0  0  0  0  0  0  0  0
   11.5487    4.3019   -2.3092 C   0  0  0  0  0  0  0  0  0  0  0  0
   11.8289    4.0804   -1.1549 O   0  0  0  0  0  0  0  0  0  0  0  0
   12.1810    5.0953   -3.1547 O   0  0  0  0  0  0  0  0  0  0  0  0
   10.3265    3.6396   -3.0008 C   0  0  0  0  0  0  0  0  0  0  0  0
   10.7215    2.9043   -4.0642 F   0  0  0  0  0  0  0  0  0  0  0  0
    9.4603    4.5795   -3.4407 F   0  0  0  0  0  0  0  0  0  0  0  0
    9.6747    2.8333   -2.1528 F   0  0  0  0  0  0  0  0  0  0  0  0
  1  6  2  0  0  0  0
  1  2  1  0  0  0  0
  2  3  2  0  0  0  0
  3  4  1  0  0  0  0
  4  9  1  0  0  0  0
  5 10  1  0  0  0  0
  5  4  2  0  0  0  0
  6  5  1  0  0  0  0
  7  1  1  0  0  0  0
 11 13  2  0  0  0  0
 11  6  1  0  0  0  0
 12 11  2  0  0  0  0
 14 15  3  0  0  0  0
 16 17  2  0  0  0  0
 18  8  1  0  0  0  0
 18 16  1  0  0  0  0
 19 16  1  0  0  0  0
 19 22  1  0  0  0  0
 20 19  1  0  0  0  0
 21 19  1  0  0  0  0
M  RAD  2   2   2   3   2
M  END
