Coordinates from ORCA-job p-NO2-Ph-N2-OOCCF3-B3LYPG-aug-cc-pVDZ-scan-d09-49-n400
 OpenBabel10311713223D

 22 21  0  0  0  0  0  0  0  0999 V2000
   14.7272    7.5895   -3.1837 C   0  0  0  0  0  0  0  0  0  0  0  0
   13.9793    6.9409   -2.1961 C   0  0  0  0  0  0  0  0  0  0  0  0
   14.6712    6.5768   -1.0538 C   0  0  0  0  0  0  0  0  0  0  0  0
   16.0087    6.8205   -0.7838 C   0  0  0  0  0  0  0  0  0  0  0  0
   16.7421    7.4552   -1.7878 C   0  0  0  0  0  0  0  0  0  0  0  0
   16.0850    7.8271   -2.9625 C   0  0  0  0  0  0  0  0  0  0  0  0
   14.2658    7.9068   -4.1155 H   0  0  0  0  0  0  0  0  0  0  0  0
   12.9159    6.7284   -2.3120 H   0  0  0  0  0  0  0  0  0  0  0  0
   16.4637    6.5234    0.1581 H   0  0  0  0  0  0  0  0  0  0  0  0
   17.8006    7.6701   -1.6667 H   0  0  0  0  0  0  0  0  0  0  0  0
   16.8665    8.5169   -4.0192 N   0  0  0  0  0  0  0  0  0  0  0  0
   16.2692    8.8495   -5.0360 O   0  0  0  0  0  0  0  0  0  0  0  0
   18.0583    8.7093   -3.8033 O   0  0  0  0  0  0  0  0  0  0  0  0
   13.8381    5.8861    0.1271 N   0  0  0  0  0  0  0  0  0  0  0  0
   13.0282    5.0810    0.2210 N   0  0  0  0  0  0  0  0  0  0  0  0
   11.6159    4.5569   -1.9528 C   0  0  0  0  0  0  0  0  0  0  0  0
   12.6927    4.0974   -1.4196 O   0  0  0  0  0  0  0  0  0  0  0  0
   11.1015    5.6596   -1.8013 O   0  0  0  0  0  0  0  0  0  0  0  0
   10.9588    3.5209   -2.9215 C   0  0  0  0  0  0  0  0  0  0  0  0
   11.8321    3.1481   -3.8892 F   0  0  0  0  0  0  0  0  0  0  0  0
    9.8711    4.0247   -3.5259 F   0  0  0  0  0  0  0  0  0  0  0  0
   10.5850    2.4082   -2.2502 F   0  0  0  0  0  0  0  0  0  0  0  0
  1  6  2  0  0  0  0
  1  2  1  0  0  0  0
  2  3  2  0  0  0  0
  3  4  1  0  0  0  0
  3 14  1  0  0  0  0
  4  9  1  0  0  0  0
  5 10  1  0  0  0  0
  5  4  2  0  0  0  0
  6  5  1  0  0  0  0
  7  1  1  0  0  0  0
  8  2  1  0  0  0  0
 11 13  2  0  0  0  0
 11  6  1  0  0  0  0
 12 11  2  0  0  0  0
 14 15  2  0  0  0  0
 16 18  2  0  0  0  0
 16 17  1  0  0  0  0
 19 22  1  0  0  0  0
 19 16  1  0  0  0  0
 20 19  1  0  0  0  0
 21 19  1  0  0  0  0
M  RAD  2  15   2  17   2
M  END
