Coordinates from ORCA-job p-NO2-Ph-N2-OOCCF3-B3LYPG-aug-cc-pVDZ-scan-d09-49-n400
 OpenBabel10311713223D

 22 20  0  0  0  0  0  0  0  0999 V2000
   15.2436    7.5988   -3.7727 C   0  0  0  0  0  0  0  0  0  0  0  0
   14.5320    6.7538   -2.9140 C   0  0  0  0  0  0  0  0  0  0  0  0
   14.9172    6.6073   -1.7279 C   0  0  0  0  0  0  0  0  0  0  0  0
   15.9467    7.0941   -0.9587 C   0  0  0  0  0  0  0  0  0  0  0  0
   16.7046    7.9592   -1.7780 C   0  0  0  0  0  0  0  0  0  0  0  0
   16.3513    8.1883   -3.1247 C   0  0  0  0  0  0  0  0  0  0  0  0
   15.0166    7.8103   -4.8137 H   0  0  0  0  0  0  0  0  0  0  0  0
   12.7314    5.4934   -3.1428 H   0  0  0  0  0  0  0  0  0  0  0  0
   16.1773    6.8856    0.0816 H   0  0  0  0  0  0  0  0  0  0  0  0
   17.5794    8.4634   -1.3723 H   0  0  0  0  0  0  0  0  0  0  0  0
   17.2005    9.1108   -3.9143 N   0  0  0  0  0  0  0  0  0  0  0  0
   16.8886    9.3012   -5.0857 O   0  0  0  0  0  0  0  0  0  0  0  0
   18.1669    9.6221   -3.3559 O   0  0  0  0  0  0  0  0  0  0  0  0
   14.2046    4.7907    1.7842 N   0  0  0  0  0  0  0  0  0  0  0  0
   13.5501    4.1041    2.3489 N   0  0  0  0  0  0  0  0  0  0  0  0
   11.4966    4.2841   -2.3611 C   0  0  0  0  0  0  0  0  0  0  0  0
   11.9815    4.2438   -1.2603 O   0  0  0  0  0  0  0  0  0  0  0  0
   11.9306    4.9907   -3.4056 O   0  0  0  0  0  0  0  0  0  0  0  0
   10.2295    3.4810   -2.7556 C   0  0  0  0  0  0  0  0  0  0  0  0
   10.5022    2.6337   -3.7718 F   0  0  0  0  0  0  0  0  0  0  0  0
    9.2451    4.3149   -3.1565 F   0  0  0  0  0  0  0  0  0  0  0  0
    9.7807    2.7656   -1.7178 F   0  0  0  0  0  0  0  0  0  0  0  0
  1  6  2  0  0  0  0
  1  2  1  0  0  0  0
  2  3  2  0  0  0  0
  3  4  1  0  0  0  0
  4  9  1  0  0  0  0
  5 10  1  0  0  0  0
  5  4  2  0  0  0  0
  6  5  1  0  0  0  0
  7  1  1  0  0  0  0
 11 13  2  0  0  0  0
 11  6  1  0  0  0  0
 12 11  2  0  0  0  0
 14 15  3  0  0  0  0
 16 17  2  0  0  0  0
 18  8  1  0  0  0  0
 18 16  1  0  0  0  0
 19 16  1  0  0  0  0
 19 22  1  0  0  0  0
 20 19  1  0  0  0  0
 21 19  1  0  0  0  0
M  RAD  2   2   2   3   2
M  END
