Coordinates from ORCA-job p-NO2-Ph-N2-OOCCF3-B3LYPG-aug-cc-pVDZ-scan-d09-49-n400
 OpenBabel10311713223D

 22 20  0  0  0  0  0  0  0  0999 V2000
   15.3615    7.7937   -4.0676 C   0  0  0  0  0  0  0  0  0  0  0  0
   14.4754    6.9072   -3.4507 C   0  0  0  0  0  0  0  0  0  0  0  0
   14.6302    6.5831   -2.2485 C   0  0  0  0  0  0  0  0  0  0  0  0
   15.5388    6.9011   -1.2652 C   0  0  0  0  0  0  0  0  0  0  0  0
   16.4698    7.8010   -1.8272 C   0  0  0  0  0  0  0  0  0  0  0  0
   16.3684    8.2173   -3.1723 C   0  0  0  0  0  0  0  0  0  0  0  0
   15.3293    8.1453   -5.0948 H   0  0  0  0  0  0  0  0  0  0  0  0
   12.5711    5.5332   -3.5812 H   0  0  0  0  0  0  0  0  0  0  0  0
   15.5795    6.5553   -0.2363 H   0  0  0  0  0  0  0  0  0  0  0  0
   17.2859    8.1878   -1.2204 H   0  0  0  0  0  0  0  0  0  0  0  0
   17.3881    9.1638   -3.6813 N   0  0  0  0  0  0  0  0  0  0  0  0
   17.2925    9.5208   -4.8517 O   0  0  0  0  0  0  0  0  0  0  0  0
   18.2657    9.5353   -2.9073 O   0  0  0  0  0  0  0  0  0  0  0  0
   14.2873    4.7150    2.1704 N   0  0  0  0  0  0  0  0  0  0  0  0
   13.6670    4.0327    2.7774 N   0  0  0  0  0  0  0  0  0  0  0  0
   11.5927    4.3850   -2.4408 C   0  0  0  0  0  0  0  0  0  0  0  0
   12.2669    4.5278   -1.4531 O   0  0  0  0  0  0  0  0  0  0  0  0
   11.7796    4.9591   -3.6293 O   0  0  0  0  0  0  0  0  0  0  0  0
   10.3432    3.4669   -2.4843 C   0  0  0  0  0  0  0  0  0  0  0  0
   10.4983    2.5003   -3.4146 F   0  0  0  0  0  0  0  0  0  0  0  0
    9.2416    4.1817   -2.7993 F   0  0  0  0  0  0  0  0  0  0  0  0
   10.1443    2.8836   -1.2967 F   0  0  0  0  0  0  0  0  0  0  0  0
  1  2  2  0  0  0  0
  1  6  1  0  0  0  0
  2  3  1  0  0  0  0
  3  4  2  0  0  0  0
  4  9  1  0  0  0  0
  5  4  1  0  0  0  0
  5 10  1  0  0  0  0
  6  5  2  0  0  0  0
  7  1  1  0  0  0  0
 11  6  1  0  0  0  0
 11 13  2  0  0  0  0
 12 11  2  0  0  0  0
 14 15  3  0  0  0  0
 16 17  2  0  0  0  0
 18  8  1  0  0  0  0
 18 16  1  0  0  0  0
 19 16  1  0  0  0  0
 19 22  1  0  0  0  0
 20 19  1  0  0  0  0
 21 19  1  0  0  0  0
M  RAD  2   2   2   3   2
M  END
