Coordinates from ORCA-job p-NO2-Ph-N2-OOCCF3-B3LYPG-aug-cc-pVDZ-scan-d09-49-n400
 OpenBabel10311713223D

 22 21  0  0  0  0  0  0  0  0999 V2000
   14.7192    7.5910   -3.1782 C   0  0  0  0  0  0  0  0  0  0  0  0
   13.9736    6.9493   -2.1816 C   0  0  0  0  0  0  0  0  0  0  0  0
   14.6849    6.5951   -1.0558 C   0  0  0  0  0  0  0  0  0  0  0  0
   16.0195    6.8242   -0.7829 C   0  0  0  0  0  0  0  0  0  0  0  0
   16.7458    7.4544   -1.7969 C   0  0  0  0  0  0  0  0  0  0  0  0
   16.0795    7.8246   -2.9674 C   0  0  0  0  0  0  0  0  0  0  0  0
   14.2517    7.9053   -4.1081 H   0  0  0  0  0  0  0  0  0  0  0  0
   12.9083    6.7344   -2.2879 H   0  0  0  0  0  0  0  0  0  0  0  0
   16.4780    6.5263    0.1568 H   0  0  0  0  0  0  0  0  0  0  0  0
   17.8062    7.6653   -1.6854 H   0  0  0  0  0  0  0  0  0  0  0  0
   16.8552    8.5076   -4.0327 N   0  0  0  0  0  0  0  0  0  0  0  0
   16.2509    8.8394   -5.0456 O   0  0  0  0  0  0  0  0  0  0  0  0
   18.0492    8.6969   -3.8266 O   0  0  0  0  0  0  0  0  0  0  0  0
   13.8088    5.8749    0.1999 N   0  0  0  0  0  0  0  0  0  0  0  0
   13.0048    5.0664    0.2682 N   0  0  0  0  0  0  0  0  0  0  0  0
   11.6287    4.5562   -1.9594 C   0  0  0  0  0  0  0  0  0  0  0  0
   12.6867    4.0825   -1.4069 O   0  0  0  0  0  0  0  0  0  0  0  0
   11.1257    5.6675   -1.8224 O   0  0  0  0  0  0  0  0  0  0  0  0
   10.9720    3.5278   -2.9378 C   0  0  0  0  0  0  0  0  0  0  0  0
   11.8556    3.1406   -3.8907 F   0  0  0  0  0  0  0  0  0  0  0  0
    9.9016    4.0455   -3.5616 F   0  0  0  0  0  0  0  0  0  0  0  0
   10.5710    2.4217   -2.2713 F   0  0  0  0  0  0  0  0  0  0  0  0
  1  6  2  0  0  0  0
  1  2  1  0  0  0  0
  2  3  2  0  0  0  0
  3  4  1  0  0  0  0
  3 14  1  0  0  0  0
  4  9  1  0  0  0  0
  5 10  1  0  0  0  0
  5  4  2  0  0  0  0
  6  5  1  0  0  0  0
  7  1  1  0  0  0  0
  8  2  1  0  0  0  0
 11 13  2  0  0  0  0
 11  6  1  0  0  0  0
 12 11  2  0  0  0  0
 14 15  2  0  0  0  0
 16 18  2  0  0  0  0
 16 17  1  0  0  0  0
 19 22  1  0  0  0  0
 19 16  1  0  0  0  0
 20 19  1  0  0  0  0
 21 19  1  0  0  0  0
M  RAD  2  15   2  17   2
M  END
