Coordinates from ORCA-job p-NO2-Ph-N2-OOCCF3-B3LYPG-aug-cc-pVDZ-scan-d09-49-n400
 OpenBabel10311713223D

 22 20  0  0  0  0  0  0  0  0999 V2000
   15.1420    7.4278   -3.5168 C   0  0  0  0  0  0  0  0  0  0  0  0
   14.5549    6.6287   -2.5246 C   0  0  0  0  0  0  0  0  0  0  0  0
   15.0837    6.6060   -1.3832 C   0  0  0  0  0  0  0  0  0  0  0  0
   16.1656    7.1886   -0.7724 C   0  0  0  0  0  0  0  0  0  0  0  0
   16.7935    8.0076   -1.7363 C   0  0  0  0  0  0  0  0  0  0  0  0
   16.2863    8.1087   -3.0485 C   0  0  0  0  0  0  0  0  0  0  0  0
   14.7955    7.5431   -4.5401 H   0  0  0  0  0  0  0  0  0  0  0  0
   12.8305    5.4761   -2.8881 H   0  0  0  0  0  0  0  0  0  0  0  0
   16.5144    7.0755    0.2492 H   0  0  0  0  0  0  0  0  0  0  0  0
   17.6841    8.5739   -1.4713 H   0  0  0  0  0  0  0  0  0  0  0  0
   17.0034    8.9894   -3.9998 N   0  0  0  0  0  0  0  0  0  0  0  0
   16.5525    9.0765   -5.1376 O   0  0  0  0  0  0  0  0  0  0  0  0
   17.9956    9.5870   -3.5928 O   0  0  0  0  0  0  0  0  0  0  0  0
   14.2394    4.9823    1.3459 N   0  0  0  0  0  0  0  0  0  0  0  0
   13.5910    4.2949    1.9163 N   0  0  0  0  0  0  0  0  0  0  0  0
   11.4763    4.2600   -2.3382 C   0  0  0  0  0  0  0  0  0  0  0  0
   11.8377    4.1119   -1.2001 O   0  0  0  0  0  0  0  0  0  0  0  0
   12.0424    5.0266   -3.2700 O   0  0  0  0  0  0  0  0  0  0  0  0
   10.2316    3.5449   -2.9272 C   0  0  0  0  0  0  0  0  0  0  0  0
   10.5819    2.7695   -3.9767 F   0  0  0  0  0  0  0  0  0  0  0  0
    9.3242    4.4488   -3.3574 F   0  0  0  0  0  0  0  0  0  0  0  0
    9.6504    2.7694   -2.0047 F   0  0  0  0  0  0  0  0  0  0  0  0
  1  6  2  0  0  0  0
  1  2  1  0  0  0  0
  2  3  2  0  0  0  0
  3  4  1  0  0  0  0
  4  9  1  0  0  0  0
  5 10  1  0  0  0  0
  5  4  2  0  0  0  0
  6  5  1  0  0  0  0
  7  1  1  0  0  0  0
 11 13  2  0  0  0  0
 11  6  1  0  0  0  0
 12 11  2  0  0  0  0
 14 15  3  0  0  0  0
 16 17  2  0  0  0  0
 18  8  1  0  0  0  0
 18 16  1  0  0  0  0
 19 16  1  0  0  0  0
 19 22  1  0  0  0  0
 20 19  1  0  0  0  0
 21 19  1  0  0  0  0
M  RAD  2   2   2   3   2
M  END
