Coordinates from ORCA-job p-NO2-Ph-N2-OOCCF3-B3LYPG-aug-cc-pVDZ-scan-d09-49-n400
 OpenBabel10311713223D

 22 20  0  0  0  0  0  0  0  0999 V2000
   15.2242    7.5679   -3.7259 C   0  0  0  0  0  0  0  0  0  0  0  0
   14.5386    6.7313   -2.8382 C   0  0  0  0  0  0  0  0  0  0  0  0
   14.9512    6.6077   -1.6587 C   0  0  0  0  0  0  0  0  0  0  0  0
   15.9926    7.1147   -0.9197 C   0  0  0  0  0  0  0  0  0  0  0  0
   16.7252    7.9724   -1.7696 C   0  0  0  0  0  0  0  0  0  0  0  0
   16.3408    8.1767   -3.1118 C   0  0  0  0  0  0  0  0  0  0  0  0
   14.9728    7.7605   -4.7650 H   0  0  0  0  0  0  0  0  0  0  0  0
   12.7513    5.4868   -3.0825 H   0  0  0  0  0  0  0  0  0  0  0  0
   16.2483    6.9257    0.1183 H   0  0  0  0  0  0  0  0  0  0  0  0
   17.6043    8.4903   -1.3915 H   0  0  0  0  0  0  0  0  0  0  0  0
   17.1649    9.0931   -3.9344 N   0  0  0  0  0  0  0  0  0  0  0  0
   16.8283    9.2590   -5.1026 O   0  0  0  0  0  0  0  0  0  0  0  0
   18.1409    9.6183   -3.4064 O   0  0  0  0  0  0  0  0  0  0  0  0
   14.2144    4.8264    1.7056 N   0  0  0  0  0  0  0  0  0  0  0  0
   13.5673    4.1406    2.2796 N   0  0  0  0  0  0  0  0  0  0  0  0
   11.4861    4.2733   -2.3530 C   0  0  0  0  0  0  0  0  0  0  0  0
   11.9414    4.2067   -1.2411 O   0  0  0  0  0  0  0  0  0  0  0  0
   11.9524    4.9955   -3.3725 O   0  0  0  0  0  0  0  0  0  0  0  0
   10.2223    3.4901   -2.7955 C   0  0  0  0  0  0  0  0  0  0  0  0
   10.5133    2.6599   -3.8208 F   0  0  0  0  0  0  0  0  0  0  0  0
    9.2561    4.3408   -3.2052 F   0  0  0  0  0  0  0  0  0  0  0  0
    9.7403    2.7592   -1.7838 F   0  0  0  0  0  0  0  0  0  0  0  0
  1  6  2  0  0  0  0
  1  2  1  0  0  0  0
  2  3  2  0  0  0  0
  3  4  1  0  0  0  0
  4  9  1  0  0  0  0
  5 10  1  0  0  0  0
  5  4  2  0  0  0  0
  6  5  1  0  0  0  0
  7  1  1  0  0  0  0
 11 13  2  0  0  0  0
 11  6  1  0  0  0  0
 12 11  2  0  0  0  0
 14 15  3  0  0  0  0
 16 17  2  0  0  0  0
 18  8  1  0  0  0  0
 18 16  1  0  0  0  0
 19 16  1  0  0  0  0
 19 22  1  0  0  0  0
 20 19  1  0  0  0  0
 21 19  1  0  0  0  0
M  RAD  2   2   2   3   2
M  END
