Coordinates from ORCA-job p-NO2-Ph-N2-OOCCF3-B3LYPG-aug-cc-pVDZ-scan-d09-49-n400
 OpenBabel10311713223D

 22 20  0  0  0  0  0  0  0  0999 V2000
   15.0198    7.2322   -3.2201 C   0  0  0  0  0  0  0  0  0  0  0  0
   14.4768    6.4466   -2.1727 C   0  0  0  0  0  0  0  0  0  0  0  0
   15.1441    6.5445   -1.0837 C   0  0  0  0  0  0  0  0  0  0  0  0
   16.2543    7.1959   -0.6110 C   0  0  0  0  0  0  0  0  0  0  0  0
   16.7917    7.9740   -1.6500 C   0  0  0  0  0  0  0  0  0  0  0  0
   16.1715    7.9751   -2.9136 C   0  0  0  0  0  0  0  0  0  0  0  0
   14.5903    7.2777   -4.2186 H   0  0  0  0  0  0  0  0  0  0  0  0
   12.9655    5.5167   -2.7076 H   0  0  0  0  0  0  0  0  0  0  0  0
   16.6766    7.1443    0.3885 H   0  0  0  0  0  0  0  0  0  0  0  0
   17.6826    8.5756   -1.4869 H   0  0  0  0  0  0  0  0  0  0  0  0
   16.7753    8.8116   -3.9777 N   0  0  0  0  0  0  0  0  0  0  0  0
   16.2310    8.8094   -5.0767 O   0  0  0  0  0  0  0  0  0  0  0  0
   17.7819    9.4562   -3.6957 O   0  0  0  0  0  0  0  0  0  0  0  0
   14.4176    5.4116    0.5452 N   0  0  0  0  0  0  0  0  0  0  0  0
   13.7155    4.7141    1.0358 N   0  0  0  0  0  0  0  0  0  0  0  0
   11.5395    4.2962   -2.3146 C   0  0  0  0  0  0  0  0  0  0  0  0
   11.8201    4.0746   -1.1613 O   0  0  0  0  0  0  0  0  0  0  0  0
   12.1739    5.0913   -3.1601 O   0  0  0  0  0  0  0  0  0  0  0  0
   10.3177    3.6369   -3.0091 C   0  0  0  0  0  0  0  0  0  0  0  0
   10.7131    2.9054   -4.0749 F   0  0  0  0  0  0  0  0  0  0  0  0
    9.4523    4.5789   -3.4458 F   0  0  0  0  0  0  0  0  0  0  0  0
    9.6660    2.8281   -2.1638 F   0  0  0  0  0  0  0  0  0  0  0  0
  1  6  2  0  0  0  0
  1  2  1  0  0  0  0
  2  3  2  0  0  0  0
  3  4  1  0  0  0  0
  4  9  1  0  0  0  0
  5 10  1  0  0  0  0
  5  4  2  0  0  0  0
  6  5  1  0  0  0  0
  7  1  1  0  0  0  0
 11 13  2  0  0  0  0
 11  6  1  0  0  0  0
 12 11  2  0  0  0  0
 14 15  3  0  0  0  0
 16 17  2  0  0  0  0
 18  8  1  0  0  0  0
 18 16  1  0  0  0  0
 19 16  1  0  0  0  0
 19 22  1  0  0  0  0
 20 19  1  0  0  0  0
 21 19  1  0  0  0  0
M  RAD  2   2   2   3   2
M  END
