Coordinates from ORCA-job p-NO2-Ph-N2-OOCCF3-B3LYPG-aug-cc-pVDZ-scan-d09-49-n400
 OpenBabel10311713223D

 22 20  0  0  0  0  0  0  0  0999 V2000
   15.2732    7.6472   -3.8469 C   0  0  0  0  0  0  0  0  0  0  0  0
   14.5215    6.7902   -3.0366 C   0  0  0  0  0  0  0  0  0  0  0  0
   14.8584    6.6042   -1.8414 C   0  0  0  0  0  0  0  0  0  0  0  0
   15.8666    7.0572   -1.0242 C   0  0  0  0  0  0  0  0  0  0  0  0
   16.6649    7.9333   -1.7916 C   0  0  0  0  0  0  0  0  0  0  0  0
   16.3641    8.2034   -3.1434 C   0  0  0  0  0  0  0  0  0  0  0  0
   15.0869    7.8895   -4.8893 H   0  0  0  0  0  0  0  0  0  0  0  0
   12.6988    5.5031   -3.2372 H   0  0  0  0  0  0  0  0  0  0  0  0
   16.0570    6.8181    0.0177 H   0  0  0  0  0  0  0  0  0  0  0  0
   17.5308    8.4142   -1.3412 H   0  0  0  0  0  0  0  0  0  0  0  0
   17.2534    9.1347   -3.8764 N   0  0  0  0  0  0  0  0  0  0  0  0
   16.9843    9.3642   -5.0514 O   0  0  0  0  0  0  0  0  0  0  0  0
   18.2028    9.6208   -3.2686 O   0  0  0  0  0  0  0  0  0  0  0  0
   14.2077    4.7467    1.9123 N   0  0  0  0  0  0  0  0  0  0  0  0
   13.5442    4.0595    2.4657 N   0  0  0  0  0  0  0  0  0  0  0  0
   11.5132    4.3016   -2.3751 C   0  0  0  0  0  0  0  0  0  0  0  0
   12.0409    4.3005   -1.2937 O   0  0  0  0  0  0  0  0  0  0  0  0
   11.8966    4.9831   -3.4553 O   0  0  0  0  0  0  0  0  0  0  0  0
   10.2437    3.4702   -2.6965 C   0  0  0  0  0  0  0  0  0  0  0  0
   10.4893    2.5971   -3.6976 F   0  0  0  0  0  0  0  0  0  0  0  0
    9.2325    4.2786   -3.0823 F   0  0  0  0  0  0  0  0  0  0  0  0
    9.8462    2.7798   -1.6216 F   0  0  0  0  0  0  0  0  0  0  0  0
  1  6  2  0  0  0  0
  1  2  1  0  0  0  0
  2  3  2  0  0  0  0
  3  4  1  0  0  0  0
  4  9  1  0  0  0  0
  5 10  1  0  0  0  0
  5  4  2  0  0  0  0
  6  5  1  0  0  0  0
  7  1  1  0  0  0  0
 11 13  2  0  0  0  0
 11  6  1  0  0  0  0
 12 11  2  0  0  0  0
 14 15  3  0  0  0  0
 16 17  2  0  0  0  0
 18  8  1  0  0  0  0
 18 16  1  0  0  0  0
 19 16  1  0  0  0  0
 19 22  1  0  0  0  0
 20 19  1  0  0  0  0
 21 19  1  0  0  0  0
M  RAD  2   2   2   3   2
M  END
