Coordinates from ORCA-job p-NO2-Ph-N2-OOCCF3-B3LYPG-aug-cc-pVDZ-scan-d09-49-n400
 OpenBabel10311713223D

 22 20  0  0  0  0  0  0  0  0999 V2000
   15.1351    7.4181   -3.4997 C   0  0  0  0  0  0  0  0  0  0  0  0
   14.5550    6.6215   -2.5014 C   0  0  0  0  0  0  0  0  0  0  0  0
   15.0900    6.6042   -1.3634 C   0  0  0  0  0  0  0  0  0  0  0  0
   16.1739    7.1911   -0.7607 C   0  0  0  0  0  0  0  0  0  0  0  0
   16.7951    8.0079   -1.7306 C   0  0  0  0  0  0  0  0  0  0  0  0
   16.2806    8.1031   -3.0404 C   0  0  0  0  0  0  0  0  0  0  0  0
   14.7828    7.5289   -4.5215 H   0  0  0  0  0  0  0  0  0  0  0  0
   12.8340    5.4747   -2.8748 H   0  0  0  0  0  0  0  0  0  0  0  0
   16.5283    7.0823    0.2595 H   0  0  0  0  0  0  0  0  0  0  0  0
   17.6860    8.5768   -1.4723 H   0  0  0  0  0  0  0  0  0  0  0  0
   16.9905    8.9818   -3.9988 N   0  0  0  0  0  0  0  0  0  0  0  0
   16.5366    9.0593   -5.1361 O   0  0  0  0  0  0  0  0  0  0  0  0
   17.9870    9.5786   -3.6011 O   0  0  0  0  0  0  0  0  0  0  0  0
   14.2536    5.0089    1.3005 N   0  0  0  0  0  0  0  0  0  0  0  0
   13.6038    4.3208    1.8685 N   0  0  0  0  0  0  0  0  0  0  0  0
   11.4750    4.2583   -2.3369 C   0  0  0  0  0  0  0  0  0  0  0  0
   11.8306    4.1049   -1.1976 O   0  0  0  0  0  0  0  0  0  0  0  0
   12.0470    5.0280   -3.2626 O   0  0  0  0  0  0  0  0  0  0  0  0
   10.2321    3.5477   -2.9349 C   0  0  0  0  0  0  0  0  0  0  0  0
   10.5863    2.7763   -3.9861 F   0  0  0  0  0  0  0  0  0  0  0  0
    9.3282    4.4548   -3.3655 F   0  0  0  0  0  0  0  0  0  0  0  0
    9.6454    2.7691   -2.0187 F   0  0  0  0  0  0  0  0  0  0  0  0
  1  6  2  0  0  0  0
  1  2  1  0  0  0  0
  2  3  2  0  0  0  0
  3  4  1  0  0  0  0
  4  9  1  0  0  0  0
  5 10  1  0  0  0  0
  5  4  2  0  0  0  0
  6  5  1  0  0  0  0
  7  1  1  0  0  0  0
 11 13  2  0  0  0  0
 11  6  1  0  0  0  0
 12 11  2  0  0  0  0
 14 15  3  0  0  0  0
 16 17  2  0  0  0  0
 18  8  1  0  0  0  0
 18 16  1  0  0  0  0
 19 16  1  0  0  0  0
 19 22  1  0  0  0  0
 20 19  1  0  0  0  0
 21 19  1  0  0  0  0
M  RAD  2   2   2   3   2
M  END
