Coordinates from ORCA-job p-NO2-Ph-N2-OOCCF3-B3LYPG-aug-cc-pVDZ-scan-d09-49-n400
 OpenBabel10311713223D

 22 20  0  0  0  0  0  0  0  0999 V2000
   15.0174    7.2277   -3.2136 C   0  0  0  0  0  0  0  0  0  0  0  0
   14.4659    6.4385   -2.1718 C   0  0  0  0  0  0  0  0  0  0  0  0
   15.1368    6.5374   -1.0799 C   0  0  0  0  0  0  0  0  0  0  0  0
   16.2489    7.1905   -0.6112 C   0  0  0  0  0  0  0  0  0  0  0  0
   16.7894    7.9690   -1.6466 C   0  0  0  0  0  0  0  0  0  0  0  0
   16.1689    7.9700   -2.9096 C   0  0  0  0  0  0  0  0  0  0  0  0
   14.5885    7.2742   -4.2125 H   0  0  0  0  0  0  0  0  0  0  0  0
   12.9762    5.5235   -2.7040 H   0  0  0  0  0  0  0  0  0  0  0  0
   16.6697    7.1374    0.3890 H   0  0  0  0  0  0  0  0  0  0  0  0
   17.6807    8.5696   -1.4823 H   0  0  0  0  0  0  0  0  0  0  0  0
   16.7727    8.8060   -3.9744 N   0  0  0  0  0  0  0  0  0  0  0  0
   16.2246    8.8091   -5.0713 O   0  0  0  0  0  0  0  0  0  0  0  0
   17.7766    9.4543   -3.6908 O   0  0  0  0  0  0  0  0  0  0  0  0
   14.4159    5.4268    0.5020 N   0  0  0  0  0  0  0  0  0  0  0  0
   13.7140    4.7293    0.9933 N   0  0  0  0  0  0  0  0  0  0  0  0
   11.5468    4.3014   -2.3104 C   0  0  0  0  0  0  0  0  0  0  0  0
   11.8261    4.0801   -1.1560 O   0  0  0  0  0  0  0  0  0  0  0  0
   12.1805    5.0943   -3.1557 O   0  0  0  0  0  0  0  0  0  0  0  0
   10.3251    3.6397   -3.0032 C   0  0  0  0  0  0  0  0  0  0  0  0
   10.7207    2.9046   -4.0664 F   0  0  0  0  0  0  0  0  0  0  0  0
    9.4595    4.5801   -3.4435 F   0  0  0  0  0  0  0  0  0  0  0  0
    9.6724    2.8334   -2.1559 F   0  0  0  0  0  0  0  0  0  0  0  0
  1  6  2  0  0  0  0
  1  2  1  0  0  0  0
  2  3  2  0  0  0  0
  3  4  1  0  0  0  0
  4  9  1  0  0  0  0
  5 10  1  0  0  0  0
  5  4  2  0  0  0  0
  6  5  1  0  0  0  0
  7  1  1  0  0  0  0
 11 13  2  0  0  0  0
 11  6  1  0  0  0  0
 12 11  2  0  0  0  0
 14 15  3  0  0  0  0
 16 17  2  0  0  0  0
 18  8  1  0  0  0  0
 18 16  1  0  0  0  0
 19 16  1  0  0  0  0
 19 22  1  0  0  0  0
 20 19  1  0  0  0  0
 21 19  1  0  0  0  0
M  RAD  2   2   2   3   2
M  END
