Coordinates from ORCA-job p-NO2-Ph-N2-OOCCF3-B3LYPG-aug-cc-pVDZ-scan-d09-49-n400
 OpenBabel10311713223D

 22 20  0  0  0  0  0  0  0  0999 V2000
   15.0119    7.2275   -3.2057 C   0  0  0  0  0  0  0  0  0  0  0  0
   14.4523    6.4363   -2.1687 C   0  0  0  0  0  0  0  0  0  0  0  0
   15.1263    6.5326   -1.0729 C   0  0  0  0  0  0  0  0  0  0  0  0
   16.2422    7.1863   -0.6097 C   0  0  0  0  0  0  0  0  0  0  0  0
   16.7864    7.9640   -1.6419 C   0  0  0  0  0  0  0  0  0  0  0  0
   16.1650    7.9667   -2.9041 C   0  0  0  0  0  0  0  0  0  0  0  0
   14.5831    7.2768   -4.2046 H   0  0  0  0  0  0  0  0  0  0  0  0
   12.9809    5.5338   -2.6991 H   0  0  0  0  0  0  0  0  0  0  0  0
   16.6623    7.1323    0.3909 H   0  0  0  0  0  0  0  0  0  0  0  0
   17.6792    8.5620   -1.4772 H   0  0  0  0  0  0  0  0  0  0  0  0
   16.7705    8.8014   -3.9694 N   0  0  0  0  0  0  0  0  0  0  0  0
   16.2242    8.8031   -5.0671 O   0  0  0  0  0  0  0  0  0  0  0  0
   17.7811    9.4404   -3.6884 O   0  0  0  0  0  0  0  0  0  0  0  0
   14.4173    5.4479    0.4541 N   0  0  0  0  0  0  0  0  0  0  0  0
   13.7176    4.7453    0.9418 N   0  0  0  0  0  0  0  0  0  0  0  0
   11.5532    4.3048   -2.3061 C   0  0  0  0  0  0  0  0  0  0  0  0
   11.8358    4.0800   -1.1525 O   0  0  0  0  0  0  0  0  0  0  0  0
   12.1809    5.1023   -3.1495 O   0  0  0  0  0  0  0  0  0  0  0  0
   10.3324    3.6395   -2.9973 C   0  0  0  0  0  0  0  0  0  0  0  0
   10.7283    2.9050   -4.0609 F   0  0  0  0  0  0  0  0  0  0  0  0
    9.4639    4.5777   -3.4367 F   0  0  0  0  0  0  0  0  0  0  0  0
    9.6823    2.8314   -2.1495 F   0  0  0  0  0  0  0  0  0  0  0  0
  1  6  2  0  0  0  0
  1  2  1  0  0  0  0
  2  3  2  0  0  0  0
  3  4  1  0  0  0  0
  4  9  1  0  0  0  0
  5 10  1  0  0  0  0
  5  4  2  0  0  0  0
  6  5  1  0  0  0  0
  7  1  1  0  0  0  0
 11 13  2  0  0  0  0
 11  6  1  0  0  0  0
 12 11  2  0  0  0  0
 14 15  3  0  0  0  0
 16 17  2  0  0  0  0
 18  8  1  0  0  0  0
 18 16  1  0  0  0  0
 19 16  1  0  0  0  0
 19 22  1  0  0  0  0
 20 19  1  0  0  0  0
 21 19  1  0  0  0  0
M  RAD  2   2   2   3   2
M  END
