Coordinates from ORCA-job p-NO2-Ph-N2-OOCCF3-B3LYPG-aug-cc-pVDZ-scan-d09-49-n400
 OpenBabel10311713223D

 22 20  0  0  0  0  0  0  0  0999 V2000
   15.3385    7.7571   -4.0134 C   0  0  0  0  0  0  0  0  0  0  0  0
   14.4862    6.8763   -3.3429 C   0  0  0  0  0  0  0  0  0  0  0  0
   14.6882    6.5864   -2.1391 C   0  0  0  0  0  0  0  0  0  0  0  0
   15.6263    6.9407   -1.1964 C   0  0  0  0  0  0  0  0  0  0  0  0
   16.5249    7.8369   -1.8147 C   0  0  0  0  0  0  0  0  0  0  0  0
   16.3707    8.2163   -3.1656 C   0  0  0  0  0  0  0  0  0  0  0  0
   15.2654    8.0810   -5.0475 H   0  0  0  0  0  0  0  0  0  0  0  0
   12.6027    5.5249   -3.4913 H   0  0  0  0  0  0  0  0  0  0  0  0
   15.7076    6.6225   -0.1611 H   0  0  0  0  0  0  0  0  0  0  0  0
   17.3567    8.2494   -1.2474 H   0  0  0  0  0  0  0  0  0  0  0  0
   17.3593    9.1616   -3.7350 N   0  0  0  0  0  0  0  0  0  0  0  0
   17.2174    9.4866   -4.9100 O   0  0  0  0  0  0  0  0  0  0  0  0
   18.2582    9.5644   -3.0023 O   0  0  0  0  0  0  0  0  0  0  0  0
   14.3012    4.7354    2.1413 N   0  0  0  0  0  0  0  0  0  0  0  0
   13.6680    4.0525    2.7342 N   0  0  0  0  0  0  0  0  0  0  0  0
   11.5600    4.3566   -2.4290 C   0  0  0  0  0  0  0  0  0  0  0  0
   12.1933    4.4569   -1.4098 O   0  0  0  0  0  0  0  0  0  0  0  0
   11.8053    4.9650   -3.5902 O   0  0  0  0  0  0  0  0  0  0  0  0
   10.3004    3.4603   -2.5553 C   0  0  0  0  0  0  0  0  0  0  0  0
   10.4808    2.5215   -3.5093 F   0  0  0  0  0  0  0  0  0  0  0  0
    9.2235    4.2021   -2.8930 F   0  0  0  0  0  0  0  0  0  0  0  0
   10.0423    2.8425   -1.3969 F   0  0  0  0  0  0  0  0  0  0  0  0
  1  2  2  0  0  0  0
  1  6  1  0  0  0  0
  2  3  1  0  0  0  0
  3  4  2  0  0  0  0
  4  9  1  0  0  0  0
  5 10  1  0  0  0  0
  5  4  1  0  0  0  0
  6  5  2  0  0  0  0
  7  1  1  0  0  0  0
 11  6  1  0  0  0  0
 11 13  2  0  0  0  0
 12 11  2  0  0  0  0
 14 15  3  0  0  0  0
 16 17  2  0  0  0  0
 18  8  1  0  0  0  0
 18 16  1  0  0  0  0
 19 16  1  0  0  0  0
 19 22  1  0  0  0  0
 20 19  1  0  0  0  0
 21 19  1  0  0  0  0
M  RAD  2   2   2   3   2
M  END
