Coordinates from ORCA-job p-NO2-Ph-N2-OOCCF3-B3LYPG-aug-cc-pVDZ-scan-d09-49-n400
 OpenBabel10311713223D

 22 20  0  0  0  0  0  0  0  0999 V2000
   15.1203    7.3924   -3.4589 C   0  0  0  0  0  0  0  0  0  0  0  0
   14.5548    6.6020   -2.4469 C   0  0  0  0  0  0  0  0  0  0  0  0
   15.1059    6.5991   -1.3157 C   0  0  0  0  0  0  0  0  0  0  0  0
   16.1950    7.1971   -0.7340 C   0  0  0  0  0  0  0  0  0  0  0  0
   16.8003    8.0073   -1.7191 C   0  0  0  0  0  0  0  0  0  0  0  0
   16.2683    8.0873   -3.0223 C   0  0  0  0  0  0  0  0  0  0  0  0
   14.7540    7.4916   -4.4771 H   0  0  0  0  0  0  0  0  0  0  0  0
   12.8439    5.4700   -2.8395 H   0  0  0  0  0  0  0  0  0  0  0  0
   16.5630    7.0997    0.2825 H   0  0  0  0  0  0  0  0  0  0  0  0
   17.6918    8.5825   -1.4774 H   0  0  0  0  0  0  0  0  0  0  0  0
   16.9613    8.9596   -3.9986 N   0  0  0  0  0  0  0  0  0  0  0  0
   16.4920    9.0237   -5.1304 O   0  0  0  0  0  0  0  0  0  0  0  0
   17.9602    9.5647   -3.6200 O   0  0  0  0  0  0  0  0  0  0  0  0
   14.2906    5.0731    1.2026 N   0  0  0  0  0  0  0  0  0  0  0  0
   13.6323    4.3832    1.7583 N   0  0  0  0  0  0  0  0  0  0  0  0
   11.4715    4.2542   -2.3335 C   0  0  0  0  0  0  0  0  0  0  0  0
   11.8105    4.0866   -1.1911 O   0  0  0  0  0  0  0  0  0  0  0  0
   12.0595    5.0309   -3.2426 O   0  0  0  0  0  0  0  0  0  0  0  0
   10.2334    3.5559   -2.9558 C   0  0  0  0  0  0  0  0  0  0  0  0
   10.5980    2.7946   -4.0108 F   0  0  0  0  0  0  0  0  0  0  0  0
    9.3393    4.4720   -3.3882 F   0  0  0  0  0  0  0  0  0  0  0  0
    9.6309    2.7699   -2.0562 F   0  0  0  0  0  0  0  0  0  0  0  0
  1  6  2  0  0  0  0
  1  2  1  0  0  0  0
  2  3  2  0  0  0  0
  3  4  1  0  0  0  0
  4  9  1  0  0  0  0
  5 10  1  0  0  0  0
  5  4  2  0  0  0  0
  6  5  1  0  0  0  0
  7  1  1  0  0  0  0
 11 13  2  0  0  0  0
 11  6  1  0  0  0  0
 12 11  2  0  0  0  0
 14 15  3  0  0  0  0
 16 17  2  0  0  0  0
 18  8  1  0  0  0  0
 18 16  1  0  0  0  0
 19 16  1  0  0  0  0
 19 22  1  0  0  0  0
 20 19  1  0  0  0  0
 21 19  1  0  0  0  0
M  RAD  2   2   2   3   2
M  END
