Coordinates from ORCA-job p-NO2-Ph-N2-OOCCF3-B3LYPG-aug-cc-pVDZ-scan-d09-49-n400
 OpenBabel10311713223D

 22 21  0  0  0  0  0  0  0  0999 V2000
   14.6509    8.1917   -3.0005 C   0  0  0  0  0  0  0  0  0  0  0  0
   13.8125    7.5967   -2.0696 C   0  0  0  0  0  0  0  0  0  0  0  0
   14.3686    6.7214   -1.0897 C   0  0  0  0  0  0  0  0  0  0  0  0
   15.7708    6.4539   -1.0818 C   0  0  0  0  0  0  0  0  0  0  0  0
   16.5877    7.0543   -2.0232 C   0  0  0  0  0  0  0  0  0  0  0  0
   16.0184    7.9177   -2.9641 C   0  0  0  0  0  0  0  0  0  0  0  0
   14.2524    8.8580   -3.7613 H   0  0  0  0  0  0  0  0  0  0  0  0
   12.7377    7.7499   -2.0831 H   0  0  0  0  0  0  0  0  0  0  0  0
   16.1750    5.7717   -0.3361 H   0  0  0  0  0  0  0  0  0  0  0  0
   17.6576    6.8633   -2.0416 H   0  0  0  0  0  0  0  0  0  0  0  0
   16.9034    8.5637   -3.9602 N   0  0  0  0  0  0  0  0  0  0  0  0
   16.3825    9.3285   -4.7641 O   0  0  0  0  0  0  0  0  0  0  0  0
   18.0984    8.2906   -3.9109 O   0  0  0  0  0  0  0  0  0  0  0  0
   13.6601    6.1991   -0.2877 N   0  0  0  0  0  0  0  0  0  0  0  0
   12.9595    5.5857    0.3562 N   0  0  0  0  0  0  0  0  0  0  0  0
   11.9077    4.2965   -1.9327 C   0  0  0  0  0  0  0  0  0  0  0  0
   12.4025    3.8279   -0.8638 O   0  0  0  0  0  0  0  0  0  0  0  0
   11.9170    5.4613   -2.3579 O   0  0  0  0  0  0  0  0  0  0  0  0
   11.1950    3.2044   -2.8011 C   0  0  0  0  0  0  0  0  0  0  0  0
   12.0499    2.1986   -3.1139 F   0  0  0  0  0  0  0  0  0  0  0  0
   10.7182    3.7013   -3.9582 F   0  0  0  0  0  0  0  0  0  0  0  0
   10.1514    2.6608   -2.1295 F   0  0  0  0  0  0  0  0  0  0  0  0
  1  6  2  0  0  0  0
  1  2  1  0  0  0  0
  2  3  2  0  0  0  0
  3  4  1  0  0  0  0
  3 14  1  0  0  0  0
  4  9  1  0  0  0  0
  5  4  2  0  0  0  0
  6  5  1  0  0  0  0
  7  1  1  0  0  0  0
  8  2  1  0  0  0  0
 10  5  1  0  0  0  0
 11 13  2  0  0  0  0
 11  6  1  0  0  0  0
 12 11  2  0  0  0  0
 14 15  1  0  0  0  0
 16 17  1  0  0  0  0
 18 16  2  0  0  0  0
 19 22  1  0  0  0  0
 19 16  1  0  0  0  0
 20 19  1  0  0  0  0
 21 19  1  0  0  0  0
M  RAD  3  14   2  15   3  17   2
M  END
