Coordinates from ORCA-job p-NO2-Ph-N2-OOCCF3-B3LYPG-aug-cc-pVDZ-scan-d09-49-n400
 OpenBabel10311713223D

 22 20  0  0  0  0  0  0  0  0999 V2000
   15.0162    7.2282   -3.2123 C   0  0  0  0  0  0  0  0  0  0  0  0
   14.4641    6.4380   -2.1714 C   0  0  0  0  0  0  0  0  0  0  0  0
   15.1355    6.5365   -1.0789 C   0  0  0  0  0  0  0  0  0  0  0  0
   16.2478    7.1900   -0.6107 C   0  0  0  0  0  0  0  0  0  0  0  0
   16.7882    7.9691   -1.6454 C   0  0  0  0  0  0  0  0  0  0  0  0
   16.1674    7.9707   -2.9083 C   0  0  0  0  0  0  0  0  0  0  0  0
   14.5872    7.2754   -4.2111 H   0  0  0  0  0  0  0  0  0  0  0  0
   12.9768    5.5244   -2.7034 H   0  0  0  0  0  0  0  0  0  0  0  0
   16.6688    7.1364    0.3894 H   0  0  0  0  0  0  0  0  0  0  0  0
   17.6794    8.5698   -1.4809 H   0  0  0  0  0  0  0  0  0  0  0  0
   16.7709    8.8076   -3.9726 N   0  0  0  0  0  0  0  0  0  0  0  0
   16.2267    8.8056   -5.0715 O   0  0  0  0  0  0  0  0  0  0  0  0
   17.7789    9.4502   -3.6909 O   0  0  0  0  0  0  0  0  0  0  0  0
   14.4173    5.4297    0.4939 N   0  0  0  0  0  0  0  0  0  0  0  0
   13.7155    4.7317    0.9847 N   0  0  0  0  0  0  0  0  0  0  0  0
   11.5478    4.3014   -2.3099 C   0  0  0  0  0  0  0  0  0  0  0  0
   11.8274    4.0799   -1.1555 O   0  0  0  0  0  0  0  0  0  0  0  0
   12.1807    5.0948   -3.1551 O   0  0  0  0  0  0  0  0  0  0  0  0
   10.3258    3.6397   -3.0022 C   0  0  0  0  0  0  0  0  0  0  0  0
   10.7210    2.9045   -4.0656 F   0  0  0  0  0  0  0  0  0  0  0  0
    9.4600    4.5800   -3.4421 F   0  0  0  0  0  0  0  0  0  0  0  0
    9.6734    2.8333   -2.1547 F   0  0  0  0  0  0  0  0  0  0  0  0
  1  6  2  0  0  0  0
  1  2  1  0  0  0  0
  2  3  2  0  0  0  0
  3  4  1  0  0  0  0
  4  9  1  0  0  0  0
  5 10  1  0  0  0  0
  5  4  2  0  0  0  0
  6  5  1  0  0  0  0
  7  1  1  0  0  0  0
 11 13  2  0  0  0  0
 11  6  1  0  0  0  0
 12 11  2  0  0  0  0
 14 15  3  0  0  0  0
 16 17  2  0  0  0  0
 18  8  1  0  0  0  0
 18 16  1  0  0  0  0
 19 16  1  0  0  0  0
 19 22  1  0  0  0  0
 20 19  1  0  0  0  0
 21 19  1  0  0  0  0
M  RAD  2   2   2   3   2
M  END
