Coordinates from ORCA-job p-NO2-Ph-N2-OOCCF3-B3LYPG-aug-cc-pVDZ-scan-d09-49-n400
 OpenBabel10311713223D

 22 20  0  0  0  0  0  0  0  0999 V2000
   15.1264    7.4033   -3.4761 C   0  0  0  0  0  0  0  0  0  0  0  0
   14.5550    6.6103   -2.4697 C   0  0  0  0  0  0  0  0  0  0  0  0
   15.0994    6.6014   -1.3358 C   0  0  0  0  0  0  0  0  0  0  0  0
   16.1865    7.1949   -0.7453 C   0  0  0  0  0  0  0  0  0  0  0  0
   16.7983    8.0078   -1.7241 C   0  0  0  0  0  0  0  0  0  0  0  0
   16.2734    8.0941   -3.0301 C   0  0  0  0  0  0  0  0  0  0  0  0
   14.7659    7.5074   -4.4959 H   0  0  0  0  0  0  0  0  0  0  0  0
   12.8398    5.4723   -2.8551 H   0  0  0  0  0  0  0  0  0  0  0  0
   16.5488    7.0926    0.2728 H   0  0  0  0  0  0  0  0  0  0  0  0
   17.6896    8.5805   -1.4757 H   0  0  0  0  0  0  0  0  0  0  0  0
   16.9734    8.9690   -3.9991 N   0  0  0  0  0  0  0  0  0  0  0  0
   16.5105    9.0385   -5.1332 O   0  0  0  0  0  0  0  0  0  0  0  0
   17.9715    9.5704   -3.6126 O   0  0  0  0  0  0  0  0  0  0  0  0
   14.2733    5.0441    1.2452 N   0  0  0  0  0  0  0  0  0  0  0  0
   13.6190    4.3551    1.8068 N   0  0  0  0  0  0  0  0  0  0  0  0
   11.4734    4.2563   -2.3353 C   0  0  0  0  0  0  0  0  0  0  0  0
   11.8199    4.0951   -1.1943 O   0  0  0  0  0  0  0  0  0  0  0  0
   12.0544    5.0300   -3.2518 O   0  0  0  0  0  0  0  0  0  0  0  0
   10.2331    3.5526   -2.9469 C   0  0  0  0  0  0  0  0  0  0  0  0
   10.5931    2.7868   -4.0002 F   0  0  0  0  0  0  0  0  0  0  0  0
    9.3347    4.4647   -3.3785 F   0  0  0  0  0  0  0  0  0  0  0  0
    9.6376    2.7698   -2.0399 F   0  0  0  0  0  0  0  0  0  0  0  0
  1  6  2  0  0  0  0
  1  2  1  0  0  0  0
  2  3  2  0  0  0  0
  3  4  1  0  0  0  0
  4  9  1  0  0  0  0
  5 10  1  0  0  0  0
  5  4  2  0  0  0  0
  6  5  1  0  0  0  0
  7  1  1  0  0  0  0
 11 13  2  0  0  0  0
 11  6  1  0  0  0  0
 12 11  2  0  0  0  0
 14 15  3  0  0  0  0
 16 17  2  0  0  0  0
 18  8  1  0  0  0  0
 18 16  1  0  0  0  0
 19 16  1  0  0  0  0
 19 22  1  0  0  0  0
 20 19  1  0  0  0  0
 21 19  1  0  0  0  0
M  RAD  2   2   2   3   2
M  END
