Coordinates from ORCA-job p-NO2-Ph-N2-OOCCF3-B3LYPG-aug-cc-pVDZ-scan-d09-49-n400
 OpenBabel10311713223D

 22 20  0  0  0  0  0  0  0  0999 V2000
   15.1074    7.3707   -3.4254 C   0  0  0  0  0  0  0  0  0  0  0  0
   14.5523    6.5843   -2.4029 C   0  0  0  0  0  0  0  0  0  0  0  0
   15.1202    6.5966   -1.2794 C   0  0  0  0  0  0  0  0  0  0  0  0
   16.2121    7.2019   -0.7124 C   0  0  0  0  0  0  0  0  0  0  0  0
   16.8040    8.0067   -1.7100 C   0  0  0  0  0  0  0  0  0  0  0  0
   16.2574    8.0739   -3.0080 C   0  0  0  0  0  0  0  0  0  0  0  0
   14.7300    7.4605   -4.4405 H   0  0  0  0  0  0  0  0  0  0  0  0
   12.8536    5.4689   -2.8158 H   0  0  0  0  0  0  0  0  0  0  0  0
   16.5908    7.1137    0.3009 H   0  0  0  0  0  0  0  0  0  0  0  0
   17.6958    8.5872   -1.4825 H   0  0  0  0  0  0  0  0  0  0  0  0
   16.9362    8.9409   -3.9990 N   0  0  0  0  0  0  0  0  0  0  0  0
   16.4545    8.9939   -5.1261 O   0  0  0  0  0  0  0  0  0  0  0  0
   17.9369    9.5529   -3.6363 O   0  0  0  0  0  0  0  0  0  0  0  0
   14.3147    5.1195    1.1256 N   0  0  0  0  0  0  0  0  0  0  0  0
   13.6523    4.4287    1.6754 N   0  0  0  0  0  0  0  0  0  0  0  0
   11.4713    4.2532   -2.3318 C   0  0  0  0  0  0  0  0  0  0  0  0
   11.7979    4.0751   -1.1873 O   0  0  0  0  0  0  0  0  0  0  0  0
   12.0707    5.0346   -3.2288 O   0  0  0  0  0  0  0  0  0  0  0  0
   10.2368    3.5641   -2.9716 C   0  0  0  0  0  0  0  0  0  0  0  0
   10.6090    2.8099   -4.0291 F   0  0  0  0  0  0  0  0  0  0  0  0
    9.3500    4.4867   -3.4053 F   0  0  0  0  0  0  0  0  0  0  0  0
    9.6229    2.7730   -2.0843 F   0  0  0  0  0  0  0  0  0  0  0  0
  1  6  2  0  0  0  0
  1  2  1  0  0  0  0
  2  3  2  0  0  0  0
  3  4  1  0  0  0  0
  4  9  1  0  0  0  0
  5 10  1  0  0  0  0
  5  4  2  0  0  0  0
  6  5  1  0  0  0  0
  7  1  1  0  0  0  0
 11 13  2  0  0  0  0
 11  6  1  0  0  0  0
 12 11  2  0  0  0  0
 14 15  3  0  0  0  0
 16 17  2  0  0  0  0
 18  8  1  0  0  0  0
 18 16  1  0  0  0  0
 19 16  1  0  0  0  0
 19 22  1  0  0  0  0
 20 19  1  0  0  0  0
 21 19  1  0  0  0  0
M  RAD  2   2   2   3   2
M  END
