Coordinates from ORCA-job p-NO2-Ph-N2-OOCCF3-B3LYPG-aug-cc-pVDZ-scan-d09-49-n400
 OpenBabel10311713223D

 22 20  0  0  0  0  0  0  0  0999 V2000
   15.0763    7.3192   -3.3492 C   0  0  0  0  0  0  0  0  0  0  0  0
   14.5415    6.5405   -2.3057 C   0  0  0  0  0  0  0  0  0  0  0  0
   15.1477    6.5881   -1.2003 C   0  0  0  0  0  0  0  0  0  0  0  0
   16.2449    7.2101   -0.6677 C   0  0  0  0  0  0  0  0  0  0  0  0
   16.8079    8.0024   -1.6912 C   0  0  0  0  0  0  0  0  0  0  0  0
   16.2291    8.0405   -2.9759 C   0  0  0  0  0  0  0  0  0  0  0  0
   14.6747    7.3880   -4.3568 H   0  0  0  0  0  0  0  0  0  0  0  0
   12.8809    5.4778   -2.7837 H   0  0  0  0  0  0  0  0  0  0  0  0
   16.6463    7.1415    0.3384 H   0  0  0  0  0  0  0  0  0  0  0  0
   17.6996    8.5940   -1.4945 H   0  0  0  0  0  0  0  0  0  0  0  0
   16.8756    8.8947   -3.9989 N   0  0  0  0  0  0  0  0  0  0  0  0
   16.3654    8.9240   -5.1143 O   0  0  0  0  0  0  0  0  0  0  0  0
   17.8782    9.5233   -3.6713 O   0  0  0  0  0  0  0  0  0  0  0  0
   14.3575    5.2110    0.9643 N   0  0  0  0  0  0  0  0  0  0  0  0
   13.6829    4.5180    1.4961 N   0  0  0  0  0  0  0  0  0  0  0  0
   11.4835    4.2636   -2.3357 C   0  0  0  0  0  0  0  0  0  0  0  0
   11.7919    4.0703   -1.1881 O   0  0  0  0  0  0  0  0  0  0  0  0
   12.0998    5.0511   -3.2140 O   0  0  0  0  0  0  0  0  0  0  0  0
   10.2543    3.5875   -2.9999 C   0  0  0  0  0  0  0  0  0  0  0  0
   10.6370    2.8430   -4.0606 F   0  0  0  0  0  0  0  0  0  0  0  0
    9.3777    4.5190   -3.4355 F   0  0  0  0  0  0  0  0  0  0  0  0
    9.6242    2.7895   -2.1300 F   0  0  0  0  0  0  0  0  0  0  0  0
  1  6  2  0  0  0  0
  1  2  1  0  0  0  0
  2  3  2  0  0  0  0
  3  4  1  0  0  0  0
  4  9  1  0  0  0  0
  5 10  1  0  0  0  0
  5  4  2  0  0  0  0
  6  5  1  0  0  0  0
  7  1  1  0  0  0  0
 11 13  2  0  0  0  0
 11  6  1  0  0  0  0
 12 11  2  0  0  0  0
 14 15  3  0  0  0  0
 16 17  2  0  0  0  0
 18  8  1  0  0  0  0
 18 16  1  0  0  0  0
 19 16  1  0  0  0  0
 19 22  1  0  0  0  0
 20 19  1  0  0  0  0
 21 19  1  0  0  0  0
M  RAD  2   2   2   3   2
M  END
