Coordinates from ORCA-job p-NO2-Ph-N2-OOCCF3-B3LYPG-aug-cc-pVDZ-scan-d09-49-n400
 OpenBabel10311713223D

 22 21  0  0  0  0  0  0  0  0999 V2000
   14.7521    7.5846   -3.1969 C   0  0  0  0  0  0  0  0  0  0  0  0
   14.0045    6.9161   -2.2265 C   0  0  0  0  0  0  0  0  0  0  0  0
   14.6675    6.5479   -1.0570 C   0  0  0  0  0  0  0  0  0  0  0  0
   16.0054    6.8297   -0.7836 C   0  0  0  0  0  0  0  0  0  0  0  0
   16.7445    7.4805   -1.7692 C   0  0  0  0  0  0  0  0  0  0  0  0
   16.1014    7.8459   -2.9535 C   0  0  0  0  0  0  0  0  0  0  0  0
   14.2994    7.9000   -4.1335 H   0  0  0  0  0  0  0  0  0  0  0  0
   12.9449    6.6950   -2.3576 H   0  0  0  0  0  0  0  0  0  0  0  0
   16.4550    6.5381    0.1632 H   0  0  0  0  0  0  0  0  0  0  0  0
   17.7963    7.7147   -1.6289 H   0  0  0  0  0  0  0  0  0  0  0  0
   16.8877    8.5553   -3.9941 N   0  0  0  0  0  0  0  0  0  0  0  0
   16.3014    8.8810   -5.0194 O   0  0  0  0  0  0  0  0  0  0  0  0
   18.0721    8.7678   -3.7573 O   0  0  0  0  0  0  0  0  0  0  0  0
   13.8909    5.8791    0.0127 N   0  0  0  0  0  0  0  0  0  0  0  0
   13.0771    5.0867    0.1716 N   0  0  0  0  0  0  0  0  0  0  0  0
   11.6017    4.5387   -1.9564 C   0  0  0  0  0  0  0  0  0  0  0  0
   12.6799    4.0682   -1.4369 O   0  0  0  0  0  0  0  0  0  0  0  0
   11.1119    5.6542   -1.8134 O   0  0  0  0  0  0  0  0  0  0  0  0
   10.9030    3.5001   -2.8921 C   0  0  0  0  0  0  0  0  0  0  0  0
   11.7499    3.0840   -3.8656 F   0  0  0  0  0  0  0  0  0  0  0  0
    9.8179    4.0179   -3.4897 F   0  0  0  0  0  0  0  0  0  0  0  0
   10.5125    2.4115   -2.1906 F   0  0  0  0  0  0  0  0  0  0  0  0
  1  6  2  0  0  0  0
  1  2  1  0  0  0  0
  2  3  2  0  0  0  0
  3  4  1  0  0  0  0
  3 14  1  0  0  0  0
  4  9  1  0  0  0  0
  5 10  1  0  0  0  0
  5  4  2  0  0  0  0
  6  5  1  0  0  0  0
  7  1  1  0  0  0  0
  8  2  1  0  0  0  0
 11 13  2  0  0  0  0
 11  6  1  0  0  0  0
 12 11  2  0  0  0  0
 14 15  2  0  0  0  0
 16 18  2  0  0  0  0
 16 17  1  0  0  0  0
 19 22  1  0  0  0  0
 19 16  1  0  0  0  0
 20 19  1  0  0  0  0
 21 19  1  0  0  0  0
M  RAD  2  15   2  17   2
M  END
