Coordinates from ORCA-job p-NO2-Ph-N2-OOCCF3-B3LYPG-aug-cc-pVDZ-scan-d09-49-n400
 OpenBabel10311713223D

 22 21  0  0  0  0  0  0  0  0999 V2000
   14.6408    8.2030   -2.9807 C   0  0  0  0  0  0  0  0  0  0  0  0
   13.7930    7.6212   -2.0597 C   0  0  0  0  0  0  0  0  0  0  0  0
   14.3070    6.6933   -1.0612 C   0  0  0  0  0  0  0  0  0  0  0  0
   15.7347    6.4106   -1.0983 C   0  0  0  0  0  0  0  0  0  0  0  0
   16.5523    7.0087   -2.0302 C   0  0  0  0  0  0  0  0  0  0  0  0
   16.0034    7.9009   -2.9589 C   0  0  0  0  0  0  0  0  0  0  0  0
   14.2516    8.8909   -3.7277 H   0  0  0  0  0  0  0  0  0  0  0  0
   12.7219    7.8013   -2.0561 H   0  0  0  0  0  0  0  0  0  0  0  0
   16.1205    5.7075   -0.3618 H   0  0  0  0  0  0  0  0  0  0  0  0
   17.6180    6.7937   -2.0531 H   0  0  0  0  0  0  0  0  0  0  0  0
   16.8957    8.5408   -3.9438 N   0  0  0  0  0  0  0  0  0  0  0  0
   16.3894    9.3307   -4.7343 O   0  0  0  0  0  0  0  0  0  0  0  0
   18.0865    8.2452   -3.9001 O   0  0  0  0  0  0  0  0  0  0  0  0
   13.6828    6.2490   -0.3723 N   0  0  0  0  0  0  0  0  0  0  0  0
   12.9684    5.6740    0.3155 N   0  0  0  0  0  0  0  0  0  0  0  0
   11.9397    4.3270   -1.9506 C   0  0  0  0  0  0  0  0  0  0  0  0
   12.4905    3.8742   -0.9016 O   0  0  0  0  0  0  0  0  0  0  0  0
   11.8874    5.4883   -2.3776 O   0  0  0  0  0  0  0  0  0  0  0  0
   11.2365    3.2027   -2.7891 C   0  0  0  0  0  0  0  0  0  0  0  0
   12.1137    2.2233   -3.1194 F   0  0  0  0  0  0  0  0  0  0  0  0
   10.7106    3.6760   -3.9336 F   0  0  0  0  0  0  0  0  0  0  0  0
   10.2327    2.6346   -2.0802 F   0  0  0  0  0  0  0  0  0  0  0  0
  1  6  2  0  0  0  0
  1  2  1  0  0  0  0
  2  8  1  0  0  0  0
  2  3  2  0  0  0  0
  3 14  1  0  0  0  0
  4  3  1  0  0  0  0
  4  9  1  0  0  0  0
  5  4  2  0  0  0  0
  6  5  1  0  0  0  0
  7  1  1  0  0  0  0
 10  5  1  0  0  0  0
 11 13  2  0  0  0  0
 11  6  1  0  0  0  0
 12 11  2  0  0  0  0
 14 15  1  0  0  0  0
 16 17  1  0  0  0  0
 18 16  2  0  0  0  0
 19 22  1  0  0  0  0
 19 16  1  0  0  0  0
 20 19  1  0  0  0  0
 21 19  1  0  0  0  0
M  RAD  3  14   2  15   3  17   2
M  END
