Coordinates from ORCA-job p-NO2-Ph-N2-OOCCF3-B3LYPG-aug-cc-pVDZ-scan-d09-49-n400
 OpenBabel10311713223D

 22 20  0  0  0  0  0  0  0  0999 V2000
   15.0173    7.2294   -3.2148 C   0  0  0  0  0  0  0  0  0  0  0  0
   14.4679    6.4406   -2.1718 C   0  0  0  0  0  0  0  0  0  0  0  0
   15.1383    6.5391   -1.0809 C   0  0  0  0  0  0  0  0  0  0  0  0
   16.2499    7.1917   -0.6110 C   0  0  0  0  0  0  0  0  0  0  0  0
   16.7894    7.9705   -1.6470 C   0  0  0  0  0  0  0  0  0  0  0  0
   16.1687    7.9720   -2.9101 C   0  0  0  0  0  0  0  0  0  0  0  0
   14.5881    7.2760   -4.2134 H   0  0  0  0  0  0  0  0  0  0  0  0
   12.9735    5.5223   -2.7047 H   0  0  0  0  0  0  0  0  0  0  0  0
   16.6711    7.1385    0.3890 H   0  0  0  0  0  0  0  0  0  0  0  0
   17.6806    8.5714   -1.4829 H   0  0  0  0  0  0  0  0  0  0  0  0
   16.7722    8.8086   -3.9744 N   0  0  0  0  0  0  0  0  0  0  0  0
   16.2277    8.8069   -5.0732 O   0  0  0  0  0  0  0  0  0  0  0  0
   17.7795    9.4523   -3.6925 O   0  0  0  0  0  0  0  0  0  0  0  0
   14.4167    5.4234    0.5102 N   0  0  0  0  0  0  0  0  0  0  0  0
   13.7150    4.7259    1.0015 N   0  0  0  0  0  0  0  0  0  0  0  0
   11.5451    4.3006   -2.3111 C   0  0  0  0  0  0  0  0  0  0  0  0
   11.8250    4.0789   -1.1571 O   0  0  0  0  0  0  0  0  0  0  0  0
   12.1788    5.0941   -3.1565 O   0  0  0  0  0  0  0  0  0  0  0  0
   10.3236    3.6389   -3.0043 C   0  0  0  0  0  0  0  0  0  0  0  0
   10.7194    2.9051   -4.0684 F   0  0  0  0  0  0  0  0  0  0  0  0
    9.4576    4.5794   -3.4435 F   0  0  0  0  0  0  0  0  0  0  0  0
    9.6716    2.8316   -2.1576 F   0  0  0  0  0  0  0  0  0  0  0  0
  1  6  2  0  0  0  0
  1  2  1  0  0  0  0
  2  3  2  0  0  0  0
  3  4  1  0  0  0  0
  4  9  1  0  0  0  0
  5 10  1  0  0  0  0
  5  4  2  0  0  0  0
  6  5  1  0  0  0  0
  7  1  1  0  0  0  0
 11 13  2  0  0  0  0
 11  6  1  0  0  0  0
 12 11  2  0  0  0  0
 14 15  3  0  0  0  0
 16 17  2  0  0  0  0
 18  8  1  0  0  0  0
 18 16  1  0  0  0  0
 19 16  1  0  0  0  0
 19 22  1  0  0  0  0
 20 19  1  0  0  0  0
 21 19  1  0  0  0  0
M  RAD  2   2   2   3   2
M  END
