Coordinates from ORCA-job p-NO2-Ph-N2-OOCCF3-B3LYPG-aug-cc-pVDZ-scan-d09-49-n400
 OpenBabel10311713223D

 22 20  0  0  0  0  0  0  0  0999 V2000
   15.2539    7.6147   -3.7986 C   0  0  0  0  0  0  0  0  0  0  0  0
   14.5285    6.7656   -2.9558 C   0  0  0  0  0  0  0  0  0  0  0  0
   14.8992    6.6073   -1.7666 C   0  0  0  0  0  0  0  0  0  0  0  0
   15.9211    7.0821   -0.9803 C   0  0  0  0  0  0  0  0  0  0  0  0
   16.6925    7.9509   -1.7831 C   0  0  0  0  0  0  0  0  0  0  0  0
   16.3565    8.1933   -3.1320 C   0  0  0  0  0  0  0  0  0  0  0  0
   15.0406    7.8364   -4.8404 H   0  0  0  0  0  0  0  0  0  0  0  0
   12.7212    5.4965   -3.1737 H   0  0  0  0  0  0  0  0  0  0  0  0
   16.1382    6.8634    0.0609 H   0  0  0  0  0  0  0  0  0  0  0  0
   17.5647    8.4476   -1.3629 H   0  0  0  0  0  0  0  0  0  0  0  0
   17.2194    9.1187   -3.9031 N   0  0  0  0  0  0  0  0  0  0  0  0
   16.9195    9.3249   -5.0750 O   0  0  0  0  0  0  0  0  0  0  0  0
   18.1783    9.6246   -3.3272 O   0  0  0  0  0  0  0  0  0  0  0  0
   14.2043    4.7737    1.8317 N   0  0  0  0  0  0  0  0  0  0  0  0
   13.5465    4.0870    2.3925 N   0  0  0  0  0  0  0  0  0  0  0  0
   11.5017    4.2894   -2.3653 C   0  0  0  0  0  0  0  0  0  0  0  0
   11.9999    4.2614   -1.2701 O   0  0  0  0  0  0  0  0  0  0  0  0
   11.9196    4.9879   -3.4218 O   0  0  0  0  0  0  0  0  0  0  0  0
   10.2333    3.4773   -2.7366 C   0  0  0  0  0  0  0  0  0  0  0  0
   10.4972    2.6215   -3.7480 F   0  0  0  0  0  0  0  0  0  0  0  0
    9.2405    4.3031   -3.1330 F   0  0  0  0  0  0  0  0  0  0  0  0
    9.8006    2.7699   -1.6866 F   0  0  0  0  0  0  0  0  0  0  0  0
  1  6  2  0  0  0  0
  1  2  1  0  0  0  0
  2  3  2  0  0  0  0
  3  4  1  0  0  0  0
  4  9  1  0  0  0  0
  5 10  1  0  0  0  0
  5  4  2  0  0  0  0
  6  5  1  0  0  0  0
  7  1  1  0  0  0  0
 11 13  2  0  0  0  0
 11  6  1  0  0  0  0
 12 11  2  0  0  0  0
 14 15  3  0  0  0  0
 16 17  2  0  0  0  0
 18  8  1  0  0  0  0
 18 16  1  0  0  0  0
 19 16  1  0  0  0  0
 19 22  1  0  0  0  0
 20 19  1  0  0  0  0
 21 19  1  0  0  0  0
M  RAD  2   2   2   3   2
M  END
