Coordinates from ORCA-job p-NO2-Ph-N2-OOCCF3-B3LYPG-aug-cc-pVDZ-scan-d09-49-n400
 OpenBabel10311713223D

 22 20  0  0  0  0  0  0  0  0999 V2000
   15.1404    7.4271   -3.5140 C   0  0  0  0  0  0  0  0  0  0  0  0
   14.5546    6.6281   -2.5209 C   0  0  0  0  0  0  0  0  0  0  0  0
   15.0845    6.6063   -1.3807 C   0  0  0  0  0  0  0  0  0  0  0  0
   16.1665    7.1892   -0.7707 C   0  0  0  0  0  0  0  0  0  0  0  0
   16.7933    8.0082   -1.7352 C   0  0  0  0  0  0  0  0  0  0  0  0
   16.2848    8.1087   -3.0470 C   0  0  0  0  0  0  0  0  0  0  0  0
   14.7929    7.5419   -4.5370 H   0  0  0  0  0  0  0  0  0  0  0  0
   12.8310    5.4762   -2.8859 H   0  0  0  0  0  0  0  0  0  0  0  0
   16.5161    7.0764    0.2508 H   0  0  0  0  0  0  0  0  0  0  0  0
   17.6838    8.5749   -1.4710 H   0  0  0  0  0  0  0  0  0  0  0  0
   17.0005    8.9895   -3.9992 N   0  0  0  0  0  0  0  0  0  0  0  0
   16.5519    9.0716   -5.1382 O   0  0  0  0  0  0  0  0  0  0  0  0
   17.9961    9.5834   -3.5949 O   0  0  0  0  0  0  0  0  0  0  0  0
   14.2417    4.9857    1.3387 N   0  0  0  0  0  0  0  0  0  0  0  0
   13.5931    4.2980    1.9086 N   0  0  0  0  0  0  0  0  0  0  0  0
   11.4762    4.2597   -2.3379 C   0  0  0  0  0  0  0  0  0  0  0  0
   11.8369    4.1106   -1.1996 O   0  0  0  0  0  0  0  0  0  0  0  0
   12.0431    5.0271   -3.2687 O   0  0  0  0  0  0  0  0  0  0  0  0
   10.2319    3.5452   -2.9283 C   0  0  0  0  0  0  0  0  0  0  0  0
   10.5828    2.7707   -3.9783 F   0  0  0  0  0  0  0  0  0  0  0  0
    9.3249    4.4496   -3.3582 F   0  0  0  0  0  0  0  0  0  0  0  0
    9.6501    2.7689   -2.0069 F   0  0  0  0  0  0  0  0  0  0  0  0
  1  6  2  0  0  0  0
  1  2  1  0  0  0  0
  2  3  2  0  0  0  0
  3  4  1  0  0  0  0
  4  9  1  0  0  0  0
  5 10  1  0  0  0  0
  5  4  2  0  0  0  0
  6  5  1  0  0  0  0
  7  1  1  0  0  0  0
 11 13  2  0  0  0  0
 11  6  1  0  0  0  0
 12 11  2  0  0  0  0
 14 15  3  0  0  0  0
 16 17  2  0  0  0  0
 18  8  1  0  0  0  0
 18 16  1  0  0  0  0
 19 16  1  0  0  0  0
 19 22  1  0  0  0  0
 20 19  1  0  0  0  0
 21 19  1  0  0  0  0
M  RAD  2   2   2   3   2
M  END
