Coordinates from ORCA-job p-NO2-Ph-N2-OOCCF3-B3LYPG-aug-cc-pVDZ-scan-d09-49-n400
 OpenBabel10311713223D

 22 21  0  0  0  0  0  0  0  0999 V2000
   14.6634    8.1602   -3.0221 C   0  0  0  0  0  0  0  0  0  0  0  0
   13.8307    7.5460   -2.0972 C   0  0  0  0  0  0  0  0  0  0  0  0
   14.4031    6.7024   -1.1035 C   0  0  0  0  0  0  0  0  0  0  0  0
   15.8108    6.4892   -1.0632 C   0  0  0  0  0  0  0  0  0  0  0  0
   16.6224    7.1043   -2.0005 C   0  0  0  0  0  0  0  0  0  0  0  0
   16.0384    7.9344   -2.9621 C   0  0  0  0  0  0  0  0  0  0  0  0
   14.2541    8.8047   -3.7959 H   0  0  0  0  0  0  0  0  0  0  0  0
   12.7519    7.6629   -2.1279 H   0  0  0  0  0  0  0  0  0  0  0  0
   16.2273    5.8341   -0.3001 H   0  0  0  0  0  0  0  0  0  0  0  0
   17.6986    6.9522   -1.9983 H   0  0  0  0  0  0  0  0  0  0  0  0
   16.9162    8.5986   -3.9529 N   0  0  0  0  0  0  0  0  0  0  0  0
   16.3824    9.3359   -4.7737 O   0  0  0  0  0  0  0  0  0  0  0  0
   18.1188    8.3666   -3.8827 O   0  0  0  0  0  0  0  0  0  0  0  0
   13.6923    6.1613   -0.2862 N   0  0  0  0  0  0  0  0  0  0  0  0
   12.9965    5.5210    0.3370 N   0  0  0  0  0  0  0  0  0  0  0  0
   11.8675    4.2887   -1.9376 C   0  0  0  0  0  0  0  0  0  0  0  0
   12.3579    3.8164   -0.8673 O   0  0  0  0  0  0  0  0  0  0  0  0
   11.9002    5.4491   -2.3694 O   0  0  0  0  0  0  0  0  0  0  0  0
   11.1322    3.2035   -2.7954 C   0  0  0  0  0  0  0  0  0  0  0  0
   11.9734    2.1887   -3.1157 F   0  0  0  0  0  0  0  0  0  0  0  0
   10.6487    3.7045   -3.9478 F   0  0  0  0  0  0  0  0  0  0  0  0
   10.0903    2.6722   -2.1120 F   0  0  0  0  0  0  0  0  0  0  0  0
  1  6  2  0  0  0  0
  1  2  1  0  0  0  0
  2  3  2  0  0  0  0
  3  4  1  0  0  0  0
  3 14  1  0  0  0  0
  4  9  1  0  0  0  0
  5 10  1  0  0  0  0
  5  4  2  0  0  0  0
  6  5  1  0  0  0  0
  7  1  1  0  0  0  0
  8  2  1  0  0  0  0
 11 13  2  0  0  0  0
 11  6  1  0  0  0  0
 12 11  2  0  0  0  0
 14 15  1  0  0  0  0
 16 17  1  0  0  0  0
 18 16  2  0  0  0  0
 19 22  1  0  0  0  0
 19 16  1  0  0  0  0
 20 19  1  0  0  0  0
 21 19  1  0  0  0  0
M  RAD  3  14   2  15   3  17   2
M  END
