Coordinates from ORCA-job p-NO2-Ph-N2-OOCCF3-B3LYPG-aug-cc-pVDZ-scan-d09-49-n400
 OpenBabel10311713223D

 22 20  0  0  0  0  0  0  0  0999 V2000
   15.3085    7.7083   -3.9383 C   0  0  0  0  0  0  0  0  0  0  0  0
   14.5019    6.8368   -3.2022 C   0  0  0  0  0  0  0  0  0  0  0  0
   14.7632    6.5910   -1.9999 C   0  0  0  0  0  0  0  0  0  0  0  0
   15.7354    6.9905   -1.1117 C   0  0  0  0  0  0  0  0  0  0  0  0
   16.5899    7.8798   -1.7990 C   0  0  0  0  0  0  0  0  0  0  0  0
   16.3693    8.2117   -3.1531 C   0  0  0  0  0  0  0  0  0  0  0  0
   15.1839    7.9965   -4.9781 H   0  0  0  0  0  0  0  0  0  0  0  0
   12.6417    5.5107   -3.3737 H   0  0  0  0  0  0  0  0  0  0  0  0
   15.8676    6.7077   -0.0715 H   0  0  0  0  0  0  0  0  0  0  0  0
   17.4390    8.3241   -1.2835 H   0  0  0  0  0  0  0  0  0  0  0  0
   17.3152    9.1532   -3.7968 N   0  0  0  0  0  0  0  0  0  0  0  0
   17.1171    9.4345   -4.9748 O   0  0  0  0  0  0  0  0  0  0  0  0
   18.2402    9.5920   -3.1194 O   0  0  0  0  0  0  0  0  0  0  0  0
   14.3096    4.7670    2.0656 N   0  0  0  0  0  0  0  0  0  0  0  0
   13.6559    4.0835    2.6351 N   0  0  0  0  0  0  0  0  0  0  0  0
   11.5247    4.3229   -2.4108 C   0  0  0  0  0  0  0  0  0  0  0  0
   12.1058    4.3718   -1.3577 O   0  0  0  0  0  0  0  0  0  0  0  0
   11.8403    4.9703   -3.5337 O   0  0  0  0  0  0  0  0  0  0  0  0
   10.2573    3.4578   -2.6366 C   0  0  0  0  0  0  0  0  0  0  0  0
   10.4699    2.5522   -3.6159 F   0  0  0  0  0  0  0  0  0  0  0  0
    9.2128    4.2333   -3.0003 F   0  0  0  0  0  0  0  0  0  0  0  0
    9.9276    2.8017   -1.5181 F   0  0  0  0  0  0  0  0  0  0  0  0
  1  2  2  0  0  0  0
  1  6  1  0  0  0  0
  2  3  1  0  0  0  0
  3  4  2  0  0  0  0
  4  9  1  0  0  0  0
  5 10  1  0  0  0  0
  5  4  1  0  0  0  0
  6  5  2  0  0  0  0
  7  1  1  0  0  0  0
 11  6  1  0  0  0  0
 11 13  2  0  0  0  0
 12 11  2  0  0  0  0
 14 15  3  0  0  0  0
 16 17  2  0  0  0  0
 18  8  1  0  0  0  0
 18 16  1  0  0  0  0
 19 16  1  0  0  0  0
 19 22  1  0  0  0  0
 20 19  1  0  0  0  0
 21 19  1  0  0  0  0
M  RAD  2   2   2   3   2
M  END
