Coordinates from ORCA-job p-NO2-Ph-N2-OOCCF3-B3LYPG-aug-cc-pVDZ-scan-d09-49-n400
 OpenBabel10311713223D

 22 20  0  0  0  0  0  0  0  0999 V2000
   15.1803    7.4919   -3.6135 C   0  0  0  0  0  0  0  0  0  0  0  0
   14.5509    6.6760   -2.6644 C   0  0  0  0  0  0  0  0  0  0  0  0
   15.0296    6.6091   -1.5042 C   0  0  0  0  0  0  0  0  0  0  0  0
   16.0961    7.1611   -0.8385 C   0  0  0  0  0  0  0  0  0  0  0  0
   16.7697    7.9982   -1.7550 C   0  0  0  0  0  0  0  0  0  0  0  0
   16.3145    8.1435   -3.0820 C   0  0  0  0  0  0  0  0  0  0  0  0
   14.8739    7.6404   -4.6452 H   0  0  0  0  0  0  0  0  0  0  0  0
   12.7966    5.4786   -2.9674 H   0  0  0  0  0  0  0  0  0  0  0  0
   16.4065    7.0163    0.1917 H   0  0  0  0  0  0  0  0  0  0  0  0
   17.6566    8.5449   -1.4409 H   0  0  0  0  0  0  0  0  0  0  0  0
   17.0781    9.0413   -3.9798 N   0  0  0  0  0  0  0  0  0  0  0  0
   16.6751    9.1622   -5.1324 O   0  0  0  0  0  0  0  0  0  0  0  0
   18.0644    9.6097   -3.5203 O   0  0  0  0  0  0  0  0  0  0  0  0
   14.2169    4.8925    1.5383 N   0  0  0  0  0  0  0  0  0  0  0  0
   13.5737    4.2069    2.1167 N   0  0  0  0  0  0  0  0  0  0  0  0
   11.4760    4.2622   -2.3440 C   0  0  0  0  0  0  0  0  0  0  0  0
   11.8750    4.1465   -1.2149 O   0  0  0  0  0  0  0  0  0  0  0  0
   12.0033    5.0116   -3.3121 O   0  0  0  0  0  0  0  0  0  0  0  0
   10.2219    3.5193   -2.8756 C   0  0  0  0  0  0  0  0  0  0  0  0
   10.5480    2.7215   -3.9160 F   0  0  0  0  0  0  0  0  0  0  0  0
    9.2910    4.4022   -3.2990 F   0  0  0  0  0  0  0  0  0  0  0  0
    9.6790    2.7610   -1.9161 F   0  0  0  0  0  0  0  0  0  0  0  0
  1  6  2  0  0  0  0
  1  2  1  0  0  0  0
  2  3  2  0  0  0  0
  3  4  1  0  0  0  0
  4  9  1  0  0  0  0
  5 10  1  0  0  0  0
  5  4  2  0  0  0  0
  6  5  1  0  0  0  0
  7  1  1  0  0  0  0
 11 13  2  0  0  0  0
 11  6  1  0  0  0  0
 12 11  2  0  0  0  0
 14 15  3  0  0  0  0
 16 17  2  0  0  0  0
 18  8  1  0  0  0  0
 18 16  1  0  0  0  0
 19 16  1  0  0  0  0
 19 22  1  0  0  0  0
 20 19  1  0  0  0  0
 21 19  1  0  0  0  0
M  RAD  2   2   2   3   2
M  END
