Coordinates from ORCA-job p-NO2-Ph-N2-OOCCF3-B3LYPG-aug-cc-pVDZ-scan-d09-49-n400
 OpenBabel10311713223D

 22 20  0  0  0  0  0  0  0  0999 V2000
   15.0313    7.2503   -3.2496 C   0  0  0  0  0  0  0  0  0  0  0  0
   14.5027    6.4714   -2.1944 C   0  0  0  0  0  0  0  0  0  0  0  0
   15.1566    6.5612   -1.1076 C   0  0  0  0  0  0  0  0  0  0  0  0
   16.2616    7.2052   -0.6195 C   0  0  0  0  0  0  0  0  0  0  0  0
   16.7975    7.9850   -1.6624 C   0  0  0  0  0  0  0  0  0  0  0  0
   16.1837    7.9912   -2.9299 C   0  0  0  0  0  0  0  0  0  0  0  0
   14.6044    7.2976   -4.2487 H   0  0  0  0  0  0  0  0  0  0  0  0
   12.9399    5.5010   -2.7268 H   0  0  0  0  0  0  0  0  0  0  0  0
   16.6843    7.1549    0.3794 H   0  0  0  0  0  0  0  0  0  0  0  0
   17.6880    8.5871   -1.4964 H   0  0  0  0  0  0  0  0  0  0  0  0
   16.7931    8.8311   -3.9874 N   0  0  0  0  0  0  0  0  0  0  0  0
   16.2554    8.8303   -5.0898 O   0  0  0  0  0  0  0  0  0  0  0  0
   17.8001    9.4725   -3.6999 O   0  0  0  0  0  0  0  0  0  0  0  0
   14.4101    5.3534    0.6807 N   0  0  0  0  0  0  0  0  0  0  0  0
   13.7152    4.6564    1.1811 N   0  0  0  0  0  0  0  0  0  0  0  0
   11.5210    4.2856   -2.3257 C   0  0  0  0  0  0  0  0  0  0  0  0
   11.8044    4.0724   -1.1732 O   0  0  0  0  0  0  0  0  0  0  0  0
   12.1559    5.0795   -3.1777 O   0  0  0  0  0  0  0  0  0  0  0  0
   10.2982    3.6268   -3.0182 C   0  0  0  0  0  0  0  0  0  0  0  0
   10.6922    2.8926   -4.0823 F   0  0  0  0  0  0  0  0  0  0  0  0
    9.4347    4.5697   -3.4564 F   0  0  0  0  0  0  0  0  0  0  0  0
    9.6467    2.8217   -2.1700 F   0  0  0  0  0  0  0  0  0  0  0  0
  1  6  2  0  0  0  0
  1  2  1  0  0  0  0
  2  3  2  0  0  0  0
  3  4  1  0  0  0  0
  4  9  1  0  0  0  0
  5 10  1  0  0  0  0
  5  4  2  0  0  0  0
  6  5  1  0  0  0  0
  7  1  1  0  0  0  0
 11 13  2  0  0  0  0
 11  6  1  0  0  0  0
 12 11  2  0  0  0  0
 14 15  3  0  0  0  0
 16 17  2  0  0  0  0
 18  8  1  0  0  0  0
 18 16  1  0  0  0  0
 19 16  1  0  0  0  0
 19 22  1  0  0  0  0
 20 19  1  0  0  0  0
 21 19  1  0  0  0  0
M  RAD  2   2   2   3   2
M  END
