Coordinates from ORCA-job p-NO2-Ph-N2-OOCCF3-B3LYPG-aug-cc-pVDZ-scan-d09-49-n400
 OpenBabel10311713223D

 22 21  0  0  0  0  0  0  0  0999 V2000
   14.8178    7.6036   -3.2392 C   0  0  0  0  0  0  0  0  0  0  0  0
   14.0634    6.8861   -2.3152 C   0  0  0  0  0  0  0  0  0  0  0  0
   14.6766    6.5083   -1.1030 C   0  0  0  0  0  0  0  0  0  0  0  0
   16.0091    6.8500   -0.7965 C   0  0  0  0  0  0  0  0  0  0  0  0
   16.7563    7.5470   -1.7369 C   0  0  0  0  0  0  0  0  0  0  0  0
   16.1445    7.9136   -2.9383 C   0  0  0  0  0  0  0  0  0  0  0  0
   14.3888    7.9189   -4.1870 H   0  0  0  0  0  0  0  0  0  0  0  0
   13.0166    6.6246   -2.4858 H   0  0  0  0  0  0  0  0  0  0  0  0
   16.4415    6.5530    0.1574 H   0  0  0  0  0  0  0  0  0  0  0  0
   17.7923    7.8179   -1.5519 H   0  0  0  0  0  0  0  0  0  0  0  0
   16.9424    8.6761   -3.9328 N   0  0  0  0  0  0  0  0  0  0  0  0
   16.3809    9.0068   -4.9698 O   0  0  0  0  0  0  0  0  0  0  0  0
   18.1065    8.9298   -3.6428 O   0  0  0  0  0  0  0  0  0  0  0  0
   13.9680    5.8466   -0.2055 N   0  0  0  0  0  0  0  0  0  0  0  0
   13.1928    5.0879    0.1425 N   0  0  0  0  0  0  0  0  0  0  0  0
   11.5999    4.4408   -1.9707 C   0  0  0  0  0  0  0  0  0  0  0  0
   12.5954    3.8785   -1.4032 O   0  0  0  0  0  0  0  0  0  0  0  0
   11.2626    5.6269   -1.9388 O   0  0  0  0  0  0  0  0  0  0  0  0
   10.7494    3.4369   -2.8162 C   0  0  0  0  0  0  0  0  0  0  0  0
   11.5137    2.8394   -3.7651 F   0  0  0  0  0  0  0  0  0  0  0  0
    9.7259    4.0421   -3.4442 F   0  0  0  0  0  0  0  0  0  0  0  0
   10.2326    2.4622   -2.0316 F   0  0  0  0  0  0  0  0  0  0  0  0
  1  6  2  0  0  0  0
  1  2  1  0  0  0  0
  2  3  2  0  0  0  0
  3  4  1  0  0  0  0
  3 14  1  0  0  0  0
  4  9  1  0  0  0  0
  5 10  1  0  0  0  0
  5  4  2  0  0  0  0
  6  5  1  0  0  0  0
  7  1  1  0  0  0  0
  8  2  1  0  0  0  0
 11 13  2  0  0  0  0
 11  6  1  0  0  0  0
 12 11  2  0  0  0  0
 14 15  2  0  0  0  0
 16 18  2  0  0  0  0
 16 17  1  0  0  0  0
 19 22  1  0  0  0  0
 19 16  1  0  0  0  0
 20 19  1  0  0  0  0
 21 19  1  0  0  0  0
M  RAD  2  15   2  17   2
M  END
