Coordinates from ORCA-job p-NO2-Ph-N2-OOCCF3-B3LYPG-aug-cc-pVDZ-scan-d09-49-n400
 OpenBabel10311713223D

 22 20  0  0  0  0  0  0  0  0999 V2000
   15.2415    7.5933   -3.7662 C   0  0  0  0  0  0  0  0  0  0  0  0
   14.5331    6.7497   -2.9033 C   0  0  0  0  0  0  0  0  0  0  0  0
   14.9231    6.6075   -1.7181 C   0  0  0  0  0  0  0  0  0  0  0  0
   15.9541    7.0968   -0.9529 C   0  0  0  0  0  0  0  0  0  0  0  0
   16.7085    7.9605   -1.7771 C   0  0  0  0  0  0  0  0  0  0  0  0
   16.3507    8.1856   -3.1233 C   0  0  0  0  0  0  0  0  0  0  0  0
   15.0112    7.8018   -4.8071 H   0  0  0  0  0  0  0  0  0  0  0  0
   12.7348    5.4921   -3.1338 H   0  0  0  0  0  0  0  0  0  0  0  0
   16.1882    6.8913    0.0871 H   0  0  0  0  0  0  0  0  0  0  0  0
   17.5841    8.4668   -1.3756 H   0  0  0  0  0  0  0  0  0  0  0  0
   17.1966    9.1067   -3.9180 N   0  0  0  0  0  0  0  0  0  0  0  0
   16.8774    9.2984   -5.0872 O   0  0  0  0  0  0  0  0  0  0  0  0
   18.1608    9.6250   -3.3623 O   0  0  0  0  0  0  0  0  0  0  0  0
   14.2048    4.7959    1.7725 N   0  0  0  0  0  0  0  0  0  0  0  0
   13.5510    4.1096    2.3384 N   0  0  0  0  0  0  0  0  0  0  0  0
   11.4951    4.2825   -2.3595 C   0  0  0  0  0  0  0  0  0  0  0  0
   11.9753    4.2384   -1.2569 O   0  0  0  0  0  0  0  0  0  0  0  0
   11.9341    4.9911   -3.4005 O   0  0  0  0  0  0  0  0  0  0  0  0
   10.2282    3.4825   -2.7612 C   0  0  0  0  0  0  0  0  0  0  0  0
   10.5035    2.6374   -3.7785 F   0  0  0  0  0  0  0  0  0  0  0  0
    9.2468    4.3190   -3.1637 F   0  0  0  0  0  0  0  0  0  0  0  0
    9.7741    2.7651   -1.7272 F   0  0  0  0  0  0  0  0  0  0  0  0
  1  6  2  0  0  0  0
  1  2  1  0  0  0  0
  2  3  2  0  0  0  0
  3  4  1  0  0  0  0
  4  9  1  0  0  0  0
  5 10  1  0  0  0  0
  5  4  2  0  0  0  0
  6  5  1  0  0  0  0
  7  1  1  0  0  0  0
 11 13  2  0  0  0  0
 11  6  1  0  0  0  0
 12 11  2  0  0  0  0
 14 15  3  0  0  0  0
 16 17  2  0  0  0  0
 18  8  1  0  0  0  0
 18 16  1  0  0  0  0
 19 16  1  0  0  0  0
 19 22  1  0  0  0  0
 20 19  1  0  0  0  0
 21 19  1  0  0  0  0
M  RAD  2   2   2   3   2
M  END
