Coordinates from ORCA-job p-NO2-Ph-N2-OOCCF3-B3LYPG-aug-cc-pVDZ-scan-d09-49-n400
 OpenBabel10311713223D

 22 20  0  0  0  0  0  0  0  0999 V2000
   15.1690    7.4745   -3.5868 C   0  0  0  0  0  0  0  0  0  0  0  0
   14.5533    6.6638   -2.6241 C   0  0  0  0  0  0  0  0  0  0  0  0
   15.0461    6.6093   -1.4694 C   0  0  0  0  0  0  0  0  0  0  0  0
   16.1170    7.1701   -0.8194 C   0  0  0  0  0  0  0  0  0  0  0  0
   16.7772    8.0023   -1.7501 C   0  0  0  0  0  0  0  0  0  0  0  0
   16.3065    8.1348   -3.0733 C   0  0  0  0  0  0  0  0  0  0  0  0
   14.8505    7.6132   -4.6162 H   0  0  0  0  0  0  0  0  0  0  0  0
   12.8067    5.4787   -2.9452 H   0  0  0  0  0  0  0  0  0  0  0  0
   16.4392    7.0347    0.2084 H   0  0  0  0  0  0  0  0  0  0  0  0
   17.6654    8.5548   -1.4503 H   0  0  0  0  0  0  0  0  0  0  0  0
   17.0568    9.0279   -3.9869 N   0  0  0  0  0  0  0  0  0  0  0  0
   16.6411    9.1371   -5.1361 O   0  0  0  0  0  0  0  0  0  0  0  0
   18.0465    9.6030   -3.5433 O   0  0  0  0  0  0  0  0  0  0  0  0
   14.2169    4.9123    1.4849 N   0  0  0  0  0  0  0  0  0  0  0  0
   13.5733    4.2262    2.0624 N   0  0  0  0  0  0  0  0  0  0  0  0
   11.4766    4.2616   -2.3417 C   0  0  0  0  0  0  0  0  0  0  0  0
   11.8650    4.1365   -1.2097 O   0  0  0  0  0  0  0  0  0  0  0  0
   12.0147    5.0163   -3.3000 O   0  0  0  0  0  0  0  0  0  0  0  0
   10.2250    3.5264   -2.8896 C   0  0  0  0  0  0  0  0  0  0  0  0
   10.5580    2.7352   -3.9328 F   0  0  0  0  0  0  0  0  0  0  0  0
    9.3007    4.4153   -3.3150 F   0  0  0  0  0  0  0  0  0  0  0  0
    9.6713    2.7631   -1.9405 F   0  0  0  0  0  0  0  0  0  0  0  0
  1  6  2  0  0  0  0
  1  2  1  0  0  0  0
  2  3  2  0  0  0  0
  3  4  1  0  0  0  0
  4  9  1  0  0  0  0
  5 10  1  0  0  0  0
  5  4  2  0  0  0  0
  6  5  1  0  0  0  0
  7  1  1  0  0  0  0
 11 13  2  0  0  0  0
 11  6  1  0  0  0  0
 12 11  2  0  0  0  0
 14 15  3  0  0  0  0
 16 17  2  0  0  0  0
 18  8  1  0  0  0  0
 18 16  1  0  0  0  0
 19 16  1  0  0  0  0
 19 22  1  0  0  0  0
 20 19  1  0  0  0  0
 21 19  1  0  0  0  0
M  RAD  2   2   2   3   2
M  END
