Coordinates from ORCA-job p-NO2-Ph-N2-OOCCF3-B3LYPG-aug-cc-pVDZ-scan-d09-49-n400
 OpenBabel10311713223D

 22 20  0  0  0  0  0  0  0  0999 V2000
   15.0405    7.2596   -3.2691 C   0  0  0  0  0  0  0  0  0  0  0  0
   14.5151    6.4810   -2.2143 C   0  0  0  0  0  0  0  0  0  0  0  0
   15.1582    6.5651   -1.1241 C   0  0  0  0  0  0  0  0  0  0  0  0
   16.2589    7.2085   -0.6266 C   0  0  0  0  0  0  0  0  0  0  0  0
   16.7972    7.9914   -1.6672 C   0  0  0  0  0  0  0  0  0  0  0  0
   16.1906    8.0008   -2.9386 C   0  0  0  0  0  0  0  0  0  0  0  0
   14.6185    7.3085   -4.2700 H   0  0  0  0  0  0  0  0  0  0  0  0
   12.9347    5.4876   -2.7415 H   0  0  0  0  0  0  0  0  0  0  0  0
   16.6778    7.1573    0.3738 H   0  0  0  0  0  0  0  0  0  0  0  0
   17.6858    8.5948   -1.4957 H   0  0  0  0  0  0  0  0  0  0  0  0
   16.8049    8.8446   -3.9898 N   0  0  0  0  0  0  0  0  0  0  0  0
   16.2718    8.8485   -5.0946 O   0  0  0  0  0  0  0  0  0  0  0  0
   17.8078    9.4888   -3.6942 O   0  0  0  0  0  0  0  0  0  0  0  0
   14.4018    5.3202    0.7374 N   0  0  0  0  0  0  0  0  0  0  0  0
   13.7155    4.6225    1.2480 N   0  0  0  0  0  0  0  0  0  0  0  0
   11.5222    4.2708   -2.3331 C   0  0  0  0  0  0  0  0  0  0  0  0
   11.7996    4.0762   -1.1765 O   0  0  0  0  0  0  0  0  0  0  0  0
   12.1543    5.0634   -3.1903 O   0  0  0  0  0  0  0  0  0  0  0  0
   10.2880    3.6234   -3.0159 C   0  0  0  0  0  0  0  0  0  0  0  0
   10.6689    2.8735   -4.0735 F   0  0  0  0  0  0  0  0  0  0  0  0
    9.4369    4.5743   -3.4610 F   0  0  0  0  0  0  0  0  0  0  0  0
    9.6279    2.8360   -2.1579 F   0  0  0  0  0  0  0  0  0  0  0  0
  1  6  2  0  0  0  0
  1  2  1  0  0  0  0
  2  3  2  0  0  0  0
  3  4  1  0  0  0  0
  4  9  1  0  0  0  0
  5 10  1  0  0  0  0
  5  4  2  0  0  0  0
  6  5  1  0  0  0  0
  7  1  1  0  0  0  0
 11 13  2  0  0  0  0
 11  6  1  0  0  0  0
 12 11  2  0  0  0  0
 14 15  3  0  0  0  0
 16 17  2  0  0  0  0
 18  8  1  0  0  0  0
 18 16  1  0  0  0  0
 19 16  1  0  0  0  0
 19 22  1  0  0  0  0
 20 19  1  0  0  0  0
 21 19  1  0  0  0  0
M  RAD  2   2   2   3   2
M  END
