Coordinates from ORCA-job p-NO2-Ph-N2-OOCCF3-B3LYPG-aug-cc-pVDZ-scan-d09-49-n400
 OpenBabel10311713223D

 22 20  0  0  0  0  0  0  0  0999 V2000
   14.8383    7.4406   -3.1882 C   0  0  0  0  0  0  0  0  0  0  0  0
   14.1516    6.7264   -2.1786 C   0  0  0  0  0  0  0  0  0  0  0  0
   14.9072    6.6113   -1.0791 C   0  0  0  0  0  0  0  0  0  0  0  0
   16.1518    7.0230   -0.6893 C   0  0  0  0  0  0  0  0  0  0  0  0
   16.7974    7.7235   -1.7196 C   0  0  0  0  0  0  0  0  0  0  0  0
   16.1277    7.9144   -2.9350 C   0  0  0  0  0  0  0  0  0  0  0  0
   14.3622    7.6195   -4.1502 H   0  0  0  0  0  0  0  0  0  0  0  0
   13.0935    6.3092   -2.3172 H   0  0  0  0  0  0  0  0  0  0  0  0
   16.6003    6.8354    0.2818 H   0  0  0  0  0  0  0  0  0  0  0  0
   17.8025    8.1149   -1.5809 H   0  0  0  0  0  0  0  0  0  0  0  0
   16.8295    8.6653   -4.0064 N   0  0  0  0  0  0  0  0  0  0  0  0
   16.2302    8.8328   -5.0608 O   0  0  0  0  0  0  0  0  0  0  0  0
   17.9619    9.0676   -3.7615 O   0  0  0  0  0  0  0  0  0  0  0  0
   13.9825    5.6235    0.3425 N   0  0  0  0  0  0  0  0  0  0  0  0
   13.1958    4.8502    0.4995 N   0  0  0  0  0  0  0  0  0  0  0  0
   11.6907    4.4339   -2.2260 C   0  0  0  0  0  0  0  0  0  0  0  0
   12.4867    3.8080   -1.4965 O   0  0  0  0  0  0  0  0  0  0  0  0
   11.6299    5.6630   -2.4818 O   0  0  0  0  0  0  0  0  0  0  0  0
   10.6270    3.5313   -2.9401 C   0  0  0  0  0  0  0  0  0  0  0  0
   11.2381    2.6920   -3.8136 F   0  0  0  0  0  0  0  0  0  0  0  0
    9.7133    4.2376   -3.6331 F   0  0  0  0  0  0  0  0  0  0  0  0
    9.9591    2.7735   -2.0405 F   0  0  0  0  0  0  0  0  0  0  0  0
  1  6  2  0  0  0  0
  1  2  1  0  0  0  0
  2  3  2  0  0  0  0
  3  4  1  0  0  0  0
  4  9  1  0  0  0  0
  5 10  1  0  0  0  0
  5  4  2  0  0  0  0
  6  5  1  0  0  0  0
  7  1  1  0  0  0  0
  8  2  1  0  0  0  0
 11 13  2  0  0  0  0
 11  6  1  0  0  0  0
 12 11  2  0  0  0  0
 14 15  3  0  0  0  0
 16 17  1  0  0  0  0
 18 16  2  0  0  0  0
 19 16  1  0  0  0  0
 19 22  1  0  0  0  0
 20 19  1  0  0  0  0
 21 19  1  0  0  0  0
M  RAD  2   3   2  17   2
M  END
