Coordinates from ORCA-job p-NO2-Ph-N2-OOCCF3-B3LYPG-aug-cc-pVDZ-scan-d09-49-n400
 OpenBabel10311713223D

 22 20  0  0  0  0  0  0  0  0999 V2000
   15.0503    7.2840   -3.2995 C   0  0  0  0  0  0  0  0  0  0  0  0
   14.5233    6.5068   -2.2473 C   0  0  0  0  0  0  0  0  0  0  0  0
   15.1540    6.5762   -1.1530 C   0  0  0  0  0  0  0  0  0  0  0  0
   16.2543    7.2083   -0.6417 C   0  0  0  0  0  0  0  0  0  0  0  0
   16.8013    7.9943   -1.6775 C   0  0  0  0  0  0  0  0  0  0  0  0
   16.2034    8.0159   -2.9533 C   0  0  0  0  0  0  0  0  0  0  0  0
   14.6346    7.3413   -4.3023 H   0  0  0  0  0  0  0  0  0  0  0  0
   12.9107    5.4916   -2.7577 H   0  0  0  0  0  0  0  0  0  0  0  0
   16.6681    7.1498    0.3602 H   0  0  0  0  0  0  0  0  0  0  0  0
   17.6924    8.5920   -1.4978 H   0  0  0  0  0  0  0  0  0  0  0  0
   16.8300    8.8633   -3.9943 N   0  0  0  0  0  0  0  0  0  0  0  0
   16.3092    8.8711   -5.1050 O   0  0  0  0  0  0  0  0  0  0  0  0
   17.8392    9.4932   -3.6900 O   0  0  0  0  0  0  0  0  0  0  0  0
   14.3798    5.2757    0.8292 N   0  0  0  0  0  0  0  0  0  0  0  0
   13.7018    4.5816    1.3553 N   0  0  0  0  0  0  0  0  0  0  0  0
   11.5036    4.2770   -2.3324 C   0  0  0  0  0  0  0  0  0  0  0  0
   11.8004    4.0731   -1.1828 O   0  0  0  0  0  0  0  0  0  0  0  0
   12.1289    5.0683   -3.1981 O   0  0  0  0  0  0  0  0  0  0  0  0
   10.2784    3.6093   -3.0115 C   0  0  0  0  0  0  0  0  0  0  0  0
   10.6675    2.8715   -4.0747 F   0  0  0  0  0  0  0  0  0  0  0  0
    9.4075    4.5462   -3.4474 F   0  0  0  0  0  0  0  0  0  0  0  0
    9.6383    2.8062   -2.1532 F   0  0  0  0  0  0  0  0  0  0  0  0
  1  6  2  0  0  0  0
  1  2  1  0  0  0  0
  2  3  2  0  0  0  0
  3  4  1  0  0  0  0
  4  9  1  0  0  0  0
  5 10  1  0  0  0  0
  5  4  2  0  0  0  0
  6  5  1  0  0  0  0
  7  1  1  0  0  0  0
 11 13  2  0  0  0  0
 11  6  1  0  0  0  0
 12 11  2  0  0  0  0
 14 15  3  0  0  0  0
 16 17  2  0  0  0  0
 18  8  1  0  0  0  0
 18 16  1  0  0  0  0
 19 16  1  0  0  0  0
 19 22  1  0  0  0  0
 20 19  1  0  0  0  0
 21 19  1  0  0  0  0
M  RAD  2   2   2   3   2
M  END
