Coordinates from ORCA-job p-NO2-Ph-N2-OOCCF3-B3LYPG-aug-cc-pVDZ-scan-d09-49-n400
 OpenBabel10311713223D

 22 20  0  0  0  0  0  0  0  0999 V2000
   15.0872    7.3364   -3.3734 C   0  0  0  0  0  0  0  0  0  0  0  0
   14.5466    6.5554   -2.3361 C   0  0  0  0  0  0  0  0  0  0  0  0
   15.1391    6.5904   -1.2239 C   0  0  0  0  0  0  0  0  0  0  0  0
   16.2359    7.2087   -0.6822 C   0  0  0  0  0  0  0  0  0  0  0  0
   16.8079    8.0048   -1.6974 C   0  0  0  0  0  0  0  0  0  0  0  0
   16.2392    8.0521   -2.9863 C   0  0  0  0  0  0  0  0  0  0  0  0
   14.6932    7.4118   -4.3835 H   0  0  0  0  0  0  0  0  0  0  0  0
   12.8706    5.4736   -2.7934 H   0  0  0  0  0  0  0  0  0  0  0  0
   16.6303    7.1339    0.3263 H   0  0  0  0  0  0  0  0  0  0  0  0
   17.6997    8.5930   -1.4910 H   0  0  0  0  0  0  0  0  0  0  0  0
   16.8957    8.9103   -3.9996 N   0  0  0  0  0  0  0  0  0  0  0  0
   16.3944    8.9467   -5.1187 O   0  0  0  0  0  0  0  0  0  0  0  0
   17.8979    9.5337   -3.6612 O   0  0  0  0  0  0  0  0  0  0  0  0
   14.3430    5.1806    1.0171 N   0  0  0  0  0  0  0  0  0  0  0  0
   13.6733    4.4885    1.5563 N   0  0  0  0  0  0  0  0  0  0  0  0
   11.4780    4.2592   -2.3348 C   0  0  0  0  0  0  0  0  0  0  0  0
   11.7925    4.0710   -1.1883 O   0  0  0  0  0  0  0  0  0  0  0  0
   12.0893    5.0449   -3.2186 O   0  0  0  0  0  0  0  0  0  0  0  0
   10.2472    3.5791   -2.9916 C   0  0  0  0  0  0  0  0  0  0  0  0
   10.6266    2.8317   -4.0514 F   0  0  0  0  0  0  0  0  0  0  0  0
    9.3674    4.5079   -3.4265 F   0  0  0  0  0  0  0  0  0  0  0  0
    9.6221    2.7832   -2.1162 F   0  0  0  0  0  0  0  0  0  0  0  0
  1  6  2  0  0  0  0
  1  2  1  0  0  0  0
  2  3  2  0  0  0  0
  3  4  1  0  0  0  0
  4  9  1  0  0  0  0
  5 10  1  0  0  0  0
  5  4  2  0  0  0  0
  6  5  1  0  0  0  0
  7  1  1  0  0  0  0
 11 13  2  0  0  0  0
 11  6  1  0  0  0  0
 12 11  2  0  0  0  0
 14 15  3  0  0  0  0
 16 17  2  0  0  0  0
 18  8  1  0  0  0  0
 18 16  1  0  0  0  0
 19 16  1  0  0  0  0
 19 22  1  0  0  0  0
 20 19  1  0  0  0  0
 21 19  1  0  0  0  0
M  RAD  2   2   2   3   2
M  END
