Coordinates from ORCA-job p-NO2-Ph-N2-OOCCF3-B3LYPG-aug-cc-pVDZ-scan-d09-49-n400
 OpenBabel10311713223D

 22 20  0  0  0  0  0  0  0  0999 V2000
   15.1567    7.4529   -3.5565 C   0  0  0  0  0  0  0  0  0  0  0  0
   14.5543    6.6477   -2.5797 C   0  0  0  0  0  0  0  0  0  0  0  0
   15.0658    6.6101   -1.4322 C   0  0  0  0  0  0  0  0  0  0  0  0
   16.1411    7.1799   -0.7988 C   0  0  0  0  0  0  0  0  0  0  0  0
   16.7859    8.0058   -1.7462 C   0  0  0  0  0  0  0  0  0  0  0  0
   16.2978    8.1231   -3.0644 C   0  0  0  0  0  0  0  0  0  0  0  0
   14.8249    7.5803   -4.5832 H   0  0  0  0  0  0  0  0  0  0  0  0
   12.8199    5.4784   -2.9179 H   0  0  0  0  0  0  0  0  0  0  0  0
   16.4761    7.0553    0.2262 H   0  0  0  0  0  0  0  0  0  0  0  0
   17.6754    8.5650   -1.4632 H   0  0  0  0  0  0  0  0  0  0  0  0
   17.0328    9.0102   -3.9961 N   0  0  0  0  0  0  0  0  0  0  0  0
   16.5984    9.1115   -5.1391 O   0  0  0  0  0  0  0  0  0  0  0  0
   18.0219    9.5987   -3.5688 O   0  0  0  0  0  0  0  0  0  0  0  0
   14.2197    4.9345    1.4342 N   0  0  0  0  0  0  0  0  0  0  0  0
   13.5741    4.2481    2.0089 N   0  0  0  0  0  0  0  0  0  0  0  0
   11.4773    4.2612   -2.3391 C   0  0  0  0  0  0  0  0  0  0  0  0
   11.8514    4.1242   -1.2036 O   0  0  0  0  0  0  0  0  0  0  0  0
   12.0294    5.0215   -3.2846 O   0  0  0  0  0  0  0  0  0  0  0  0
   10.2290    3.5362   -2.9079 C   0  0  0  0  0  0  0  0  0  0  0  0
   10.5707    2.7527   -3.9542 F   0  0  0  0  0  0  0  0  0  0  0  0
    9.3134    4.4327   -3.3362 F   0  0  0  0  0  0  0  0  0  0  0  0
    9.6610    2.7668   -1.9722 F   0  0  0  0  0  0  0  0  0  0  0  0
  1  6  2  0  0  0  0
  1  2  1  0  0  0  0
  2  3  2  0  0  0  0
  3  4  1  0  0  0  0
  4  9  1  0  0  0  0
  5 10  1  0  0  0  0
  5  4  2  0  0  0  0
  6  5  1  0  0  0  0
  7  1  1  0  0  0  0
 11 13  2  0  0  0  0
 11  6  1  0  0  0  0
 12 11  2  0  0  0  0
 14 15  3  0  0  0  0
 16 17  2  0  0  0  0
 18  8  1  0  0  0  0
 18 16  1  0  0  0  0
 19 16  1  0  0  0  0
 19 22  1  0  0  0  0
 20 19  1  0  0  0  0
 21 19  1  0  0  0  0
M  RAD  2   2   2   3   2
M  END
