Coordinates from ORCA-job p-NO2-Ph-N2-OOCCF3-B3LYPG-aug-cc-pVDZ-scan-d09-49-n400
 OpenBabel10311713223D

 22 20  0  0  0  0  0  0  0  0999 V2000
   15.1478    7.4368   -3.5320 C   0  0  0  0  0  0  0  0  0  0  0  0
   14.5550    6.6357   -2.5452 C   0  0  0  0  0  0  0  0  0  0  0  0
   15.0774    6.6074   -1.4010 C   0  0  0  0  0  0  0  0  0  0  0  0
   16.1575    7.1860   -0.7830 C   0  0  0  0  0  0  0  0  0  0  0  0
   16.7914    8.0073   -1.7409 C   0  0  0  0  0  0  0  0  0  0  0  0
   16.2910    8.1139   -3.0553 C   0  0  0  0  0  0  0  0  0  0  0  0
   14.8067    7.5564   -4.5566 H   0  0  0  0  0  0  0  0  0  0  0  0
   12.8269    5.4775   -2.9006 H   0  0  0  0  0  0  0  0  0  0  0  0
   16.5011    7.0688    0.2400 H   0  0  0  0  0  0  0  0  0  0  0  0
   17.6817    8.5710   -1.4696 H   0  0  0  0  0  0  0  0  0  0  0  0
   17.0145    8.9967   -3.9999 N   0  0  0  0  0  0  0  0  0  0  0  0
   16.5679    9.0907   -5.1388 O   0  0  0  0  0  0  0  0  0  0  0  0
   18.0042    9.5931   -3.5851 O   0  0  0  0  0  0  0  0  0  0  0  0
   14.2279    4.9596    1.3846 N   0  0  0  0  0  0  0  0  0  0  0  0
   13.5809    4.2728    1.9573 N   0  0  0  0  0  0  0  0  0  0  0  0
   11.4775    4.2615   -2.3396 C   0  0  0  0  0  0  0  0  0  0  0  0
   11.8445    4.1185   -1.2026 O   0  0  0  0  0  0  0  0  0  0  0  0
   12.0380    5.0254   -3.2770 O   0  0  0  0  0  0  0  0  0  0  0  0
   10.2313    3.5422   -2.9200 C   0  0  0  0  0  0  0  0  0  0  0  0
   10.5779    2.7631   -3.9680 F   0  0  0  0  0  0  0  0  0  0  0  0
    9.3205    4.4430   -3.3495 F   0  0  0  0  0  0  0  0  0  0  0  0
    9.6555    2.7695   -1.9917 F   0  0  0  0  0  0  0  0  0  0  0  0
  1  6  2  0  0  0  0
  1  2  1  0  0  0  0
  2  3  2  0  0  0  0
  3  4  1  0  0  0  0
  4  9  1  0  0  0  0
  5 10  1  0  0  0  0
  5  4  2  0  0  0  0
  6  5  1  0  0  0  0
  7  1  1  0  0  0  0
 11 13  2  0  0  0  0
 11  6  1  0  0  0  0
 12 11  2  0  0  0  0
 14 15  3  0  0  0  0
 16 17  2  0  0  0  0
 18  8  1  0  0  0  0
 18 16  1  0  0  0  0
 19 16  1  0  0  0  0
 19 22  1  0  0  0  0
 20 19  1  0  0  0  0
 21 19  1  0  0  0  0
M  RAD  2   2   2   3   2
M  END
