Coordinates from ORCA-job p-NO2-Ph-N2-OOCCF3-B3LYPG-aug-cc-pVDZ-scan-d09-49-n400
 OpenBabel10311713223D

 22 20  0  0  0  0  0  0  0  0999 V2000
   15.2191    7.5564   -3.7109 C   0  0  0  0  0  0  0  0  0  0  0  0
   14.5416    6.7232   -2.8138 C   0  0  0  0  0  0  0  0  0  0  0  0
   14.9620    6.6066   -1.6364 C   0  0  0  0  0  0  0  0  0  0  0  0
   16.0077    7.1209   -0.9085 C   0  0  0  0  0  0  0  0  0  0  0  0
   16.7327    7.9755   -1.7676 C   0  0  0  0  0  0  0  0  0  0  0  0
   16.3385    8.1713   -3.1082 C   0  0  0  0  0  0  0  0  0  0  0  0
   14.9600    7.7425   -4.7493 H   0  0  0  0  0  0  0  0  0  0  0  0
   12.7572    5.4845   -3.0663 H   0  0  0  0  0  0  0  0  0  0  0  0
   16.2711    6.9384    0.1288 H   0  0  0  0  0  0  0  0  0  0  0  0
   17.6131    8.4974   -1.3981 H   0  0  0  0  0  0  0  0  0  0  0  0
   17.1547    9.0847   -3.9418 N   0  0  0  0  0  0  0  0  0  0  0  0
   16.8047    9.2496   -5.1062 O   0  0  0  0  0  0  0  0  0  0  0  0
   18.1284    9.6216   -3.4213 O   0  0  0  0  0  0  0  0  0  0  0  0
   14.2173    4.8369    1.6861 N   0  0  0  0  0  0  0  0  0  0  0  0
   13.5716    4.1516    2.2623 N   0  0  0  0  0  0  0  0  0  0  0  0
   11.4831    4.2711   -2.3525 C   0  0  0  0  0  0  0  0  0  0  0  0
   11.9302    4.1977   -1.2378 O   0  0  0  0  0  0  0  0  0  0  0  0
   11.9590    4.9971   -3.3650 O   0  0  0  0  0  0  0  0  0  0  0  0
   10.2203    3.4938   -2.8082 C   0  0  0  0  0  0  0  0  0  0  0  0
   10.5164    2.6678   -3.8355 F   0  0  0  0  0  0  0  0  0  0  0  0
    9.2595    4.3493   -3.2206 F   0  0  0  0  0  0  0  0  0  0  0  0
    9.7289    2.7592   -1.8037 F   0  0  0  0  0  0  0  0  0  0  0  0
  1  6  2  0  0  0  0
  1  2  1  0  0  0  0
  2  3  2  0  0  0  0
  3  4  1  0  0  0  0
  4  9  1  0  0  0  0
  5 10  1  0  0  0  0
  5  4  2  0  0  0  0
  6  5  1  0  0  0  0
  7  1  1  0  0  0  0
 11 13  2  0  0  0  0
 11  6  1  0  0  0  0
 12 11  2  0  0  0  0
 14 15  3  0  0  0  0
 16 17  2  0  0  0  0
 18  8  1  0  0  0  0
 18 16  1  0  0  0  0
 19 16  1  0  0  0  0
 19 22  1  0  0  0  0
 20 19  1  0  0  0  0
 21 19  1  0  0  0  0
M  RAD  2   2   2   3   2
M  END
