Coordinates from ORCA-job p-NO2-Ph-N2-OOCCF3-B3LYPG-aug-cc-pVDZ-scan-d09-49-n400
 OpenBabel10311713223D

 22 20  0  0  0  0  0  0  0  0999 V2000
   15.0334    7.2510   -3.2523 C   0  0  0  0  0  0  0  0  0  0  0  0
   14.5055    6.4720   -2.1971 C   0  0  0  0  0  0  0  0  0  0  0  0
   15.1574    6.5613   -1.1096 C   0  0  0  0  0  0  0  0  0  0  0  0
   16.2615    7.2062   -0.6203 C   0  0  0  0  0  0  0  0  0  0  0  0
   16.7976    7.9866   -1.6628 C   0  0  0  0  0  0  0  0  0  0  0  0
   16.1850    7.9926   -2.9310 C   0  0  0  0  0  0  0  0  0  0  0  0
   14.6074    7.2980   -4.2517 H   0  0  0  0  0  0  0  0  0  0  0  0
   12.9402    5.4969   -2.7293 H   0  0  0  0  0  0  0  0  0  0  0  0
   16.6834    7.1560    0.3790 H   0  0  0  0  0  0  0  0  0  0  0  0
   17.6875    8.5895   -1.4960 H   0  0  0  0  0  0  0  0  0  0  0  0
   16.7947    8.8332   -3.9876 N   0  0  0  0  0  0  0  0  0  0  0  0
   16.2568    8.8340   -5.0900 O   0  0  0  0  0  0  0  0  0  0  0  0
   17.7997    9.4771   -3.6985 O   0  0  0  0  0  0  0  0  0  0  0  0
   14.4094    5.3484    0.6875 N   0  0  0  0  0  0  0  0  0  0  0  0
   13.7157    4.6509    1.1887 N   0  0  0  0  0  0  0  0  0  0  0  0
   11.5224    4.2811   -2.3274 C   0  0  0  0  0  0  0  0  0  0  0  0
   11.8025    4.0736   -1.1732 O   0  0  0  0  0  0  0  0  0  0  0  0
   12.1572    5.0745   -3.1802 O   0  0  0  0  0  0  0  0  0  0  0  0
   10.2959    3.6267   -3.0177 C   0  0  0  0  0  0  0  0  0  0  0  0
   10.6860    2.8872   -4.0795 F   0  0  0  0  0  0  0  0  0  0  0  0
    9.4372    4.5727   -3.4586 F   0  0  0  0  0  0  0  0  0  0  0  0
    9.6405    2.8276   -2.1668 F   0  0  0  0  0  0  0  0  0  0  0  0
  1  6  2  0  0  0  0
  1  2  1  0  0  0  0
  2  3  2  0  0  0  0
  3  4  1  0  0  0  0
  4  9  1  0  0  0  0
  5 10  1  0  0  0  0
  5  4  2  0  0  0  0
  6  5  1  0  0  0  0
  7  1  1  0  0  0  0
 11 13  2  0  0  0  0
 11  6  1  0  0  0  0
 12 11  2  0  0  0  0
 14 15  3  0  0  0  0
 16 17  2  0  0  0  0
 18  8  1  0  0  0  0
 18 16  1  0  0  0  0
 19 16  1  0  0  0  0
 19 22  1  0  0  0  0
 20 19  1  0  0  0  0
 21 19  1  0  0  0  0
M  RAD  2   2   2   3   2
M  END
