Coordinates from ORCA-job p-NO2-Ph-N2-OOCCF3-B3LYPG-aug-cc-pVDZ-scan-d09-49-n400
 OpenBabel10311713223D

 22 20  0  0  0  0  0  0  0  0999 V2000
   15.1615    7.4616   -3.5669 C   0  0  0  0  0  0  0  0  0  0  0  0
   14.5541    6.6541   -2.5957 C   0  0  0  0  0  0  0  0  0  0  0  0
   15.0562    6.6077   -1.4441 C   0  0  0  0  0  0  0  0  0  0  0  0
   16.1317    7.1767   -0.8076 C   0  0  0  0  0  0  0  0  0  0  0  0
   16.7824    8.0050   -1.7476 C   0  0  0  0  0  0  0  0  0  0  0  0
   16.3009    8.1283   -3.0674 C   0  0  0  0  0  0  0  0  0  0  0  0
   14.8344    7.5932   -4.5946 H   0  0  0  0  0  0  0  0  0  0  0  0
   12.8139    5.4785   -2.9296 H   0  0  0  0  0  0  0  0  0  0  0  0
   16.4618    7.0478    0.2185 H   0  0  0  0  0  0  0  0  0  0  0  0
   17.6713    8.5615   -1.4576 H   0  0  0  0  0  0  0  0  0  0  0  0
   17.0409    9.0178   -3.9927 N   0  0  0  0  0  0  0  0  0  0  0  0
   16.6152    9.1193   -5.1389 O   0  0  0  0  0  0  0  0  0  0  0  0
   18.0322    9.5989   -3.5605 O   0  0  0  0  0  0  0  0  0  0  0  0
   14.2195    4.9249    1.4568 N   0  0  0  0  0  0  0  0  0  0  0  0
   13.5752    4.2386    2.0331 N   0  0  0  0  0  0  0  0  0  0  0  0
   11.4772    4.2624   -2.3426 C   0  0  0  0  0  0  0  0  0  0  0  0
   11.8590    4.1316   -1.2091 O   0  0  0  0  0  0  0  0  0  0  0  0
   12.0232    5.0204   -3.2934 O   0  0  0  0  0  0  0  0  0  0  0  0
   10.2274    3.5324   -2.9013 C   0  0  0  0  0  0  0  0  0  0  0  0
   10.5648    2.7453   -3.9463 F   0  0  0  0  0  0  0  0  0  0  0  0
    9.3075    4.4252   -3.3280 F   0  0  0  0  0  0  0  0  0  0  0  0
    9.6664    2.7658   -1.9591 F   0  0  0  0  0  0  0  0  0  0  0  0
  1  6  2  0  0  0  0
  1  2  1  0  0  0  0
  2  3  2  0  0  0  0
  3  4  1  0  0  0  0
  4  9  1  0  0  0  0
  5 10  1  0  0  0  0
  5  4  2  0  0  0  0
  6  5  1  0  0  0  0
  7  1  1  0  0  0  0
 11 13  2  0  0  0  0
 11  6  1  0  0  0  0
 12 11  2  0  0  0  0
 14 15  3  0  0  0  0
 16 17  2  0  0  0  0
 18  8  1  0  0  0  0
 18 16  1  0  0  0  0
 19 16  1  0  0  0  0
 19 22  1  0  0  0  0
 20 19  1  0  0  0  0
 21 19  1  0  0  0  0
M  RAD  2   2   2   3   2
M  END
