Coordinates from ORCA-job p-NO2-Ph-N2-OOCCF3-B3LYPG-aug-cc-pVDZ-scan-d09-49-n400
 OpenBabel10311713223D

 22 20  0  0  0  0  0  0  0  0999 V2000
   15.0914    7.3450   -3.3857 C   0  0  0  0  0  0  0  0  0  0  0  0
   14.5481    6.5627   -2.3515 C   0  0  0  0  0  0  0  0  0  0  0  0
   15.1369    6.5942   -1.2380 C   0  0  0  0  0  0  0  0  0  0  0  0
   16.2310    7.2075   -0.6880 C   0  0  0  0  0  0  0  0  0  0  0  0
   16.8072    8.0060   -1.7000 C   0  0  0  0  0  0  0  0  0  0  0  0
   16.2431    8.0580   -2.9912 C   0  0  0  0  0  0  0  0  0  0  0  0
   14.7010    7.4238   -4.3968 H   0  0  0  0  0  0  0  0  0  0  0  0
   12.8664    5.4721   -2.7970 H   0  0  0  0  0  0  0  0  0  0  0  0
   16.6219    7.1295    0.3215 H   0  0  0  0  0  0  0  0  0  0  0  0
   17.6990    8.5926   -1.4892 H   0  0  0  0  0  0  0  0  0  0  0  0
   16.9048    8.9187   -3.9990 N   0  0  0  0  0  0  0  0  0  0  0  0
   16.4101    8.9564   -5.1210 O   0  0  0  0  0  0  0  0  0  0  0  0
   17.9088    9.5367   -3.6558 O   0  0  0  0  0  0  0  0  0  0  0  0
   14.3376    5.1674    1.0406 N   0  0  0  0  0  0  0  0  0  0  0  0
   13.6690    4.4753    1.5810 N   0  0  0  0  0  0  0  0  0  0  0  0
   11.4752    4.2562   -2.3325 C   0  0  0  0  0  0  0  0  0  0  0  0
   11.7907    4.0685   -1.1861 O   0  0  0  0  0  0  0  0  0  0  0  0
   12.0845    5.0416   -3.2186 O   0  0  0  0  0  0  0  0  0  0  0  0
   10.2440    3.5751   -2.9874 C   0  0  0  0  0  0  0  0  0  0  0  0
   10.6226    2.8272   -4.0471 F   0  0  0  0  0  0  0  0  0  0  0  0
    9.3633    4.5031   -3.4219 F   0  0  0  0  0  0  0  0  0  0  0  0
    9.6204    2.7795   -2.1109 F   0  0  0  0  0  0  0  0  0  0  0  0
  1  6  2  0  0  0  0
  1  2  1  0  0  0  0
  2  3  2  0  0  0  0
  3  4  1  0  0  0  0
  4  9  1  0  0  0  0
  5 10  1  0  0  0  0
  5  4  2  0  0  0  0
  6  5  1  0  0  0  0
  7  1  1  0  0  0  0
 11 13  2  0  0  0  0
 11  6  1  0  0  0  0
 12 11  2  0  0  0  0
 14 15  3  0  0  0  0
 16 17  2  0  0  0  0
 18  8  1  0  0  0  0
 18 16  1  0  0  0  0
 19 16  1  0  0  0  0
 19 22  1  0  0  0  0
 20 19  1  0  0  0  0
 21 19  1  0  0  0  0
M  RAD  2   2   2   3   2
M  END
