Coordinates from ORCA-job p-NO2-Ph-N2-OOCCF3-B3LYPG-aug-cc-pVDZ-scan-d09-49-n400
 OpenBabel10311713223D

 22 20  0  0  0  0  0  0  0  0999 V2000
   15.3392    7.7600   -4.0164 C   0  0  0  0  0  0  0  0  0  0  0  0
   14.4853    6.8786   -3.3486 C   0  0  0  0  0  0  0  0  0  0  0  0
   14.6855    6.5873   -2.1450 C   0  0  0  0  0  0  0  0  0  0  0  0
   15.6217    6.9393   -1.1995 C   0  0  0  0  0  0  0  0  0  0  0  0
   16.5216    7.8359   -1.8153 C   0  0  0  0  0  0  0  0  0  0  0  0
   16.3700    8.2175   -3.1660 C   0  0  0  0  0  0  0  0  0  0  0  0
   15.2681    8.0855   -5.0502 H   0  0  0  0  0  0  0  0  0  0  0  0
   12.6009    5.5256   -3.4959 H   0  0  0  0  0  0  0  0  0  0  0  0
   15.7015    6.6198   -0.1645 H   0  0  0  0  0  0  0  0  0  0  0  0
   17.3527    8.2474   -1.2461 H   0  0  0  0  0  0  0  0  0  0  0  0
   17.3600    9.1633   -3.7321 N   0  0  0  0  0  0  0  0  0  0  0  0
   17.2235    9.4861   -4.9083 O   0  0  0  0  0  0  0  0  0  0  0  0
   18.2607    9.5606   -2.9986 O   0  0  0  0  0  0  0  0  0  0  0  0
   14.3010    4.7335    2.1454 N   0  0  0  0  0  0  0  0  0  0  0  0
   13.6687    4.0504    2.7391 N   0  0  0  0  0  0  0  0  0  0  0  0
   11.5618    4.3570   -2.4297 C   0  0  0  0  0  0  0  0  0  0  0  0
   12.1967    4.4591   -1.4116 O   0  0  0  0  0  0  0  0  0  0  0  0
   11.8040    4.9646   -3.5920 O   0  0  0  0  0  0  0  0  0  0  0  0
   10.3022    3.4603   -2.5523 C   0  0  0  0  0  0  0  0  0  0  0  0
   10.4811    2.5202   -3.5054 F   0  0  0  0  0  0  0  0  0  0  0  0
    9.2244    4.2012   -2.8890 F   0  0  0  0  0  0  0  0  0  0  0  0
   10.0465    2.8439   -1.3926 F   0  0  0  0  0  0  0  0  0  0  0  0
  1  2  2  0  0  0  0
  1  6  1  0  0  0  0
  2  3  1  0  0  0  0
  3  4  2  0  0  0  0
  4  9  1  0  0  0  0
  5 10  1  0  0  0  0
  5  4  1  0  0  0  0
  6  5  2  0  0  0  0
  7  1  1  0  0  0  0
 11  6  1  0  0  0  0
 11 13  2  0  0  0  0
 12 11  2  0  0  0  0
 14 15  3  0  0  0  0
 16 17  2  0  0  0  0
 18  8  1  0  0  0  0
 18 16  1  0  0  0  0
 19 16  1  0  0  0  0
 19 22  1  0  0  0  0
 20 19  1  0  0  0  0
 21 19  1  0  0  0  0
M  RAD  2   2   2   3   2
M  END
