Coordinates from ORCA-job p-NO2-Ph-N2-OOCCF3-B3LYPG-aug-cc-pVDZ-scan-d09-49-n400
 OpenBabel10311713223D

 22 20  0  0  0  0  0  0  0  0999 V2000
   15.3011    7.6961   -3.9189 C   0  0  0  0  0  0  0  0  0  0  0  0
   14.5062    6.8274   -3.1665 C   0  0  0  0  0  0  0  0  0  0  0  0
   14.7817    6.5922   -1.9648 C   0  0  0  0  0  0  0  0  0  0  0  0
   15.7632    7.0047   -1.0937 C   0  0  0  0  0  0  0  0  0  0  0  0
   16.6065    7.8915   -1.7972 C   0  0  0  0  0  0  0  0  0  0  0  0
   16.3688    8.2107   -3.1510 C   0  0  0  0  0  0  0  0  0  0  0  0
   15.1631    7.9747   -4.9596 H   0  0  0  0  0  0  0  0  0  0  0  0
   12.6531    5.5093   -3.3448 H   0  0  0  0  0  0  0  0  0  0  0  0
   15.9068    6.7301   -0.0530 H   0  0  0  0  0  0  0  0  0  0  0  0
   17.4594    8.3434   -1.2949 H   0  0  0  0  0  0  0  0  0  0  0  0
   17.3029    9.1505   -3.8141 N   0  0  0  0  0  0  0  0  0  0  0  0
   17.0903    9.4200   -4.9923 O   0  0  0  0  0  0  0  0  0  0  0  0
   18.2345    9.5983   -3.1517 O   0  0  0  0  0  0  0  0  0  0  0  0
   14.2917    4.7632    2.0389 N   0  0  0  0  0  0  0  0  0  0  0  0
   13.6331    4.0788    2.6018 N   0  0  0  0  0  0  0  0  0  0  0  0
   11.5211    4.3182   -2.4047 C   0  0  0  0  0  0  0  0  0  0  0  0
   12.0920    4.3573   -1.3462 O   0  0  0  0  0  0  0  0  0  0  0  0
   11.8511    4.9734   -3.5182 O   0  0  0  0  0  0  0  0  0  0  0  0
   10.2531    3.4594   -2.6502 C   0  0  0  0  0  0  0  0  0  0  0  0
   10.4727    2.5606   -3.6344 F   0  0  0  0  0  0  0  0  0  0  0  0
    9.2151    4.2413   -3.0187 F   0  0  0  0  0  0  0  0  0  0  0  0
    9.9097    2.7958   -1.5404 F   0  0  0  0  0  0  0  0  0  0  0  0
  1  2  2  0  0  0  0
  1  6  1  0  0  0  0
  2  3  1  0  0  0  0
  3  4  2  0  0  0  0
  4  9  1  0  0  0  0
  5 10  1  0  0  0  0
  5  4  1  0  0  0  0
  6  5  2  0  0  0  0
  7  1  1  0  0  0  0
 11 13  2  0  0  0  0
 11  6  1  0  0  0  0
 12 11  2  0  0  0  0
 14 15  3  0  0  0  0
 16 17  2  0  0  0  0
 18  8  1  0  0  0  0
 18 16  1  0  0  0  0
 19 16  1  0  0  0  0
 19 22  1  0  0  0  0
 20 19  1  0  0  0  0
 21 19  1  0  0  0  0
M  RAD  2   2   2   3   2
M  END
