Coordinates from ORCA-job p-NO2-Ph-N2-OOCCF3-B3LYPG-aug-cc-pVDZ-scan-d09-49-n400
 OpenBabel10311713223D

 22 21  0  0  0  0  0  0  0  0999 V2000
   14.7215    7.5915   -3.1802 C   0  0  0  0  0  0  0  0  0  0  0  0
   13.9751    6.9478   -2.1867 C   0  0  0  0  0  0  0  0  0  0  0  0
   14.6791    6.5886   -1.0551 C   0  0  0  0  0  0  0  0  0  0  0  0
   16.0151    6.8218   -0.7841 C   0  0  0  0  0  0  0  0  0  0  0  0
   16.7442    7.4535   -1.7944 C   0  0  0  0  0  0  0  0  0  0  0  0
   16.0813    7.8253   -2.9661 C   0  0  0  0  0  0  0  0  0  0  0  0
   14.2562    7.9076   -4.1106 H   0  0  0  0  0  0  0  0  0  0  0  0
   12.9102    6.7347   -2.2960 H   0  0  0  0  0  0  0  0  0  0  0  0
   16.4725    6.5234    0.1561 H   0  0  0  0  0  0  0  0  0  0  0  0
   17.8042    7.6648   -1.6797 H   0  0  0  0  0  0  0  0  0  0  0  0
   16.8593    8.5103   -4.0284 N   0  0  0  0  0  0  0  0  0  0  0  0
   16.2575    8.8432   -5.0423 O   0  0  0  0  0  0  0  0  0  0  0  0
   18.0528    8.6995   -3.8191 O   0  0  0  0  0  0  0  0  0  0  0  0
   13.8168    5.8787    0.1755 N   0  0  0  0  0  0  0  0  0  0  0  0
   13.0106    5.0710    0.2512 N   0  0  0  0  0  0  0  0  0  0  0  0
   11.6241    4.5571   -1.9563 C   0  0  0  0  0  0  0  0  0  0  0  0
   12.6896    4.0896   -1.4101 O   0  0  0  0  0  0  0  0  0  0  0  0
   11.1153    5.6643   -1.8129 O   0  0  0  0  0  0  0  0  0  0  0  0
   10.9694    3.5256   -2.9320 C   0  0  0  0  0  0  0  0  0  0  0  0
   11.8505    3.1449   -3.8897 F   0  0  0  0  0  0  0  0  0  0  0  0
    9.8925    4.0373   -3.5493 F   0  0  0  0  0  0  0  0  0  0  0  0
   10.5791    2.4164   -2.2643 F   0  0  0  0  0  0  0  0  0  0  0  0
  1  6  2  0  0  0  0
  1  2  1  0  0  0  0
  2  3  2  0  0  0  0
  3  4  1  0  0  0  0
  3 14  1  0  0  0  0
  4  9  1  0  0  0  0
  5 10  1  0  0  0  0
  5  4  2  0  0  0  0
  6  5  1  0  0  0  0
  7  1  1  0  0  0  0
  8  2  1  0  0  0  0
 11 13  2  0  0  0  0
 11  6  1  0  0  0  0
 12 11  2  0  0  0  0
 14 15  2  0  0  0  0
 16 18  2  0  0  0  0
 16 17  1  0  0  0  0
 19 22  1  0  0  0  0
 19 16  1  0  0  0  0
 20 19  1  0  0  0  0
 21 19  1  0  0  0  0
M  RAD  2  15   2  17   2
M  END
