Coordinates from ORCA-job p-NO2-Ph-N2-OOCCF3-B3LYPG-aug-cc-pVDZ-scan-d09-49-n400
 OpenBabel10311713223D

 22 20  0  0  0  0  0  0  0  0999 V2000
   15.3342    7.7524   -4.0044 C   0  0  0  0  0  0  0  0  0  0  0  0
   14.4870    6.8725   -3.3262 C   0  0  0  0  0  0  0  0  0  0  0  0
   14.6968    6.5882   -2.1223 C   0  0  0  0  0  0  0  0  0  0  0  0
   15.6389    6.9477   -1.1862 C   0  0  0  0  0  0  0  0  0  0  0  0
   16.5326    7.8430   -1.8128 C   0  0  0  0  0  0  0  0  0  0  0  0
   16.3702    8.2169   -3.1642 C   0  0  0  0  0  0  0  0  0  0  0  0
   15.2548    8.0722   -5.0394 H   0  0  0  0  0  0  0  0  0  0  0  0
   12.6070    5.5244   -3.4761 H   0  0  0  0  0  0  0  0  0  0  0  0
   15.7265    6.6339   -0.1498 H   0  0  0  0  0  0  0  0  0  0  0  0
   17.3667    8.2594   -1.2517 H   0  0  0  0  0  0  0  0  0  0  0  0
   17.3538    9.1618   -3.7428 N   0  0  0  0  0  0  0  0  0  0  0  0
   17.2054    9.4811   -4.9184 O   0  0  0  0  0  0  0  0  0  0  0  0
   18.2566    9.5683   -3.0169 O   0  0  0  0  0  0  0  0  0  0  0  0
   14.3016    4.7399    2.1365 N   0  0  0  0  0  0  0  0  0  0  0  0
   13.6661    4.0571    2.7271 N   0  0  0  0  0  0  0  0  0  0  0  0
   11.5659    4.3380   -2.4320 C   0  0  0  0  0  0  0  0  0  0  0  0
   12.1896    4.4358   -1.4067 O   0  0  0  0  0  0  0  0  0  0  0  0
   11.8116    4.9634   -3.5839 O   0  0  0  0  0  0  0  0  0  0  0  0
   10.2942    3.4600   -2.5660 C   0  0  0  0  0  0  0  0  0  0  0  0
   10.4653    2.5224   -3.5228 F   0  0  0  0  0  0  0  0  0  0  0  0
    9.2285    4.2175   -2.9047 F   0  0  0  0  0  0  0  0  0  0  0  0
   10.0237    2.8412   -1.4110 F   0  0  0  0  0  0  0  0  0  0  0  0
  1  2  2  0  0  0  0
  1  6  1  0  0  0  0
  2  3  1  0  0  0  0
  3  4  2  0  0  0  0
  4  9  1  0  0  0  0
  5 10  1  0  0  0  0
  5  4  1  0  0  0  0
  6  5  2  0  0  0  0
  7  1  1  0  0  0  0
 11  6  1  0  0  0  0
 11 13  2  0  0  0  0
 12 11  2  0  0  0  0
 14 15  3  0  0  0  0
 16 17  2  0  0  0  0
 18  8  1  0  0  0  0
 18 16  1  0  0  0  0
 19 16  1  0  0  0  0
 19 22  1  0  0  0  0
 20 19  1  0  0  0  0
 21 19  1  0  0  0  0
M  RAD  2   2   2   3   2
M  END
