Coordinates from ORCA-job p-NO2-Ph-N2-OOCCF3-B3LYPG-aug-cc-pVDZ-scan-d09-49-n400
 OpenBabel10311713223D

 22 20  0  0  0  0  0  0  0  0999 V2000
   15.2143    7.5480   -3.6981 C   0  0  0  0  0  0  0  0  0  0  0  0
   14.5431    6.7171   -2.7941 C   0  0  0  0  0  0  0  0  0  0  0  0
   14.9697    6.6056   -1.6179 C   0  0  0  0  0  0  0  0  0  0  0  0
   16.0193    7.1264   -0.8997 C   0  0  0  0  0  0  0  0  0  0  0  0
   16.7377    7.9788   -1.7661 C   0  0  0  0  0  0  0  0  0  0  0  0
   16.3357    8.1679   -3.1049 C   0  0  0  0  0  0  0  0  0  0  0  0
   14.9488    7.7291   -4.7358 H   0  0  0  0  0  0  0  0  0  0  0  0
   12.7617    5.4831   -3.0536 H   0  0  0  0  0  0  0  0  0  0  0  0
   16.2889    6.9487    0.1369 H   0  0  0  0  0  0  0  0  0  0  0  0
   17.6191    8.5039   -1.4036 H   0  0  0  0  0  0  0  0  0  0  0  0
   17.1450    9.0794   -3.9474 N   0  0  0  0  0  0  0  0  0  0  0  0
   16.7878    9.2385   -5.1104 O   0  0  0  0  0  0  0  0  0  0  0  0
   18.1204    9.6208   -3.4349 O   0  0  0  0  0  0  0  0  0  0  0  0
   14.2204    4.8440    1.6731 N   0  0  0  0  0  0  0  0  0  0  0  0
   13.5758    4.1589    2.2506 N   0  0  0  0  0  0  0  0  0  0  0  0
   11.4811    4.2698   -2.3531 C   0  0  0  0  0  0  0  0  0  0  0  0
   11.9222    4.1912   -1.2364 O   0  0  0  0  0  0  0  0  0  0  0  0
   11.9643    4.9988   -3.3596 O   0  0  0  0  0  0  0  0  0  0  0  0
   10.2192    3.4969   -2.8188 C   0  0  0  0  0  0  0  0  0  0  0  0
   10.5193    2.6745   -3.8478 F   0  0  0  0  0  0  0  0  0  0  0  0
    9.2625    4.3561   -3.2330 F   0  0  0  0  0  0  0  0  0  0  0  0
    9.7209    2.7593   -1.8200 F   0  0  0  0  0  0  0  0  0  0  0  0
  1  6  2  0  0  0  0
  1  2  1  0  0  0  0
  2  3  2  0  0  0  0
  3  4  1  0  0  0  0
  4  9  1  0  0  0  0
  5 10  1  0  0  0  0
  5  4  2  0  0  0  0
  6  5  1  0  0  0  0
  7  1  1  0  0  0  0
 11 13  2  0  0  0  0
 11  6  1  0  0  0  0
 12 11  2  0  0  0  0
 14 15  3  0  0  0  0
 16 17  2  0  0  0  0
 18  8  1  0  0  0  0
 18 16  1  0  0  0  0
 19 16  1  0  0  0  0
 19 22  1  0  0  0  0
 20 19  1  0  0  0  0
 21 19  1  0  0  0  0
M  RAD  2   2   2   3   2
M  END
