Coordinates from ORCA-job p-NO2-Ph-N2-OOCCF3-B3LYPG-aug-cc-pVDZ-scan-d09-49-n400
 OpenBabel10311713223D

 22 20  0  0  0  0  0  0  0  0999 V2000
   15.2373    7.5871   -3.7569 C   0  0  0  0  0  0  0  0  0  0  0  0
   14.5342    6.7451   -2.8881 C   0  0  0  0  0  0  0  0  0  0  0  0
   14.9294    6.6072   -1.7042 C   0  0  0  0  0  0  0  0  0  0  0  0
   15.9629    7.1006   -0.9451 C   0  0  0  0  0  0  0  0  0  0  0  0
   16.7123    7.9630   -1.7752 C   0  0  0  0  0  0  0  0  0  0  0  0
   16.3483    8.1832   -3.1206 C   0  0  0  0  0  0  0  0  0  0  0  0
   15.0021    7.7918   -4.7975 H   0  0  0  0  0  0  0  0  0  0  0  0
   12.7392    5.4913   -3.1221 H   0  0  0  0  0  0  0  0  0  0  0  0
   16.2018    6.8989    0.0946 H   0  0  0  0  0  0  0  0  0  0  0  0
   17.5887    8.4719   -1.3791 H   0  0  0  0  0  0  0  0  0  0  0  0
   17.1892    9.1032   -3.9218 N   0  0  0  0  0  0  0  0  0  0  0  0
   16.8655    9.2895   -5.0906 O   0  0  0  0  0  0  0  0  0  0  0  0
   18.1557    9.6238   -3.3723 O   0  0  0  0  0  0  0  0  0  0  0  0
   14.2053    4.8028    1.7545 N   0  0  0  0  0  0  0  0  0  0  0  0
   13.5528    4.1165    2.3219 N   0  0  0  0  0  0  0  0  0  0  0  0
   11.4939    4.2810   -2.3579 C   0  0  0  0  0  0  0  0  0  0  0  0
   11.9689    4.2322   -1.2532 O   0  0  0  0  0  0  0  0  0  0  0  0
   11.9388    4.9926   -3.3944 O   0  0  0  0  0  0  0  0  0  0  0  0
   10.2276    3.4845   -2.7682 C   0  0  0  0  0  0  0  0  0  0  0  0
   10.5062    2.6425   -3.7872 F   0  0  0  0  0  0  0  0  0  0  0  0
    9.2494    4.3241   -3.1723 F   0  0  0  0  0  0  0  0  0  0  0  0
    9.7675    2.7642   -1.7388 F   0  0  0  0  0  0  0  0  0  0  0  0
  1  6  2  0  0  0  0
  1  2  1  0  0  0  0
  2  3  2  0  0  0  0
  3  4  1  0  0  0  0
  4  9  1  0  0  0  0
  5 10  1  0  0  0  0
  5  4  2  0  0  0  0
  6  5  1  0  0  0  0
  7  1  1  0  0  0  0
 11 13  2  0  0  0  0
 11  6  1  0  0  0  0
 12 11  2  0  0  0  0
 14 15  3  0  0  0  0
 16 17  2  0  0  0  0
 18  8  1  0  0  0  0
 18 16  1  0  0  0  0
 19 16  1  0  0  0  0
 19 22  1  0  0  0  0
 20 19  1  0  0  0  0
 21 19  1  0  0  0  0
M  RAD  2   2   2   3   2
M  END
