Coordinates from ORCA-job p-NO2-Ph-N2-OOCCF3-B3LYPG-aug-cc-pVDZ-scan-d09-49-n400
 OpenBabel10311713223D

 22 20  0  0  0  0  0  0  0  0999 V2000
   15.1352    7.4154   -3.4978 C   0  0  0  0  0  0  0  0  0  0  0  0
   14.5556    6.6197   -2.4985 C   0  0  0  0  0  0  0  0  0  0  0  0
   15.0910    6.6031   -1.3601 C   0  0  0  0  0  0  0  0  0  0  0  0
   16.1756    7.1910   -0.7591 C   0  0  0  0  0  0  0  0  0  0  0  0
   16.7962    8.0069   -1.7302 C   0  0  0  0  0  0  0  0  0  0  0  0
   16.2809    8.1008   -3.0398 C   0  0  0  0  0  0  0  0  0  0  0  0
   14.7823    7.5253   -4.5196 H   0  0  0  0  0  0  0  0  0  0  0  0
   12.8347    5.4740   -2.8734 H   0  0  0  0  0  0  0  0  0  0  0  0
   16.5308    7.0833    0.2609 H   0  0  0  0  0  0  0  0  0  0  0  0
   17.6872    8.5761   -1.4730 H   0  0  0  0  0  0  0  0  0  0  0  0
   16.9904    8.9785   -3.9996 N   0  0  0  0  0  0  0  0  0  0  0  0
   16.5313    9.0610   -5.1344 O   0  0  0  0  0  0  0  0  0  0  0  0
   17.9827    9.5817   -3.6008 O   0  0  0  0  0  0  0  0  0  0  0  0
   14.2550    5.0132    1.2952 N   0  0  0  0  0  0  0  0  0  0  0  0
   13.6047    4.3255    1.8629 N   0  0  0  0  0  0  0  0  0  0  0  0
   11.4747    4.2583   -2.3370 C   0  0  0  0  0  0  0  0  0  0  0  0
   11.8294    4.1046   -1.1975 O   0  0  0  0  0  0  0  0  0  0  0  0
   12.0478    5.0278   -3.2621 O   0  0  0  0  0  0  0  0  0  0  0  0
   10.2320    3.5483   -2.9360 C   0  0  0  0  0  0  0  0  0  0  0  0
   10.5866    2.7769   -3.9870 F   0  0  0  0  0  0  0  0  0  0  0  0
    9.3288    4.4559   -3.3672 F   0  0  0  0  0  0  0  0  0  0  0  0
    9.6442    2.7698   -2.0203 F   0  0  0  0  0  0  0  0  0  0  0  0
  1  6  2  0  0  0  0
  1  2  1  0  0  0  0
  2  3  2  0  0  0  0
  3  4  1  0  0  0  0
  4  9  1  0  0  0  0
  5 10  1  0  0  0  0
  5  4  2  0  0  0  0
  6  5  1  0  0  0  0
  7  1  1  0  0  0  0
 11 13  2  0  0  0  0
 11  6  1  0  0  0  0
 12 11  2  0  0  0  0
 14 15  3  0  0  0  0
 16 17  2  0  0  0  0
 18  8  1  0  0  0  0
 18 16  1  0  0  0  0
 19 16  1  0  0  0  0
 19 22  1  0  0  0  0
 20 19  1  0  0  0  0
 21 19  1  0  0  0  0
M  RAD  2   2   2   3   2
M  END
