Coordinates from ORCA-job p-NO2-Ph-N2-OOCCF3-B3LYPG-aug-cc-pVDZ-scan-d09-49-n400
 OpenBabel10311713223D

 22 20  0  0  0  0  0  0  0  0999 V2000
   15.1085    7.3725   -3.4287 C   0  0  0  0  0  0  0  0  0  0  0  0
   14.5525    6.5858   -2.4070 C   0  0  0  0  0  0  0  0  0  0  0  0
   15.1196    6.5975   -1.2833 C   0  0  0  0  0  0  0  0  0  0  0  0
   16.2105    7.2013   -0.7139 C   0  0  0  0  0  0  0  0  0  0  0  0
   16.8037    8.0066   -1.7107 C   0  0  0  0  0  0  0  0  0  0  0  0
   16.2585    8.0750   -3.0093 C   0  0  0  0  0  0  0  0  0  0  0  0
   14.7322    7.4632   -4.4441 H   0  0  0  0  0  0  0  0  0  0  0  0
   12.8528    5.4689   -2.8174 H   0  0  0  0  0  0  0  0  0  0  0  0
   16.5882    7.1121    0.2997 H   0  0  0  0  0  0  0  0  0  0  0  0
   17.6955    8.5866   -1.4820 H   0  0  0  0  0  0  0  0  0  0  0  0
   16.9388    8.9424   -3.9988 N   0  0  0  0  0  0  0  0  0  0  0  0
   16.4580    8.9971   -5.1262 O   0  0  0  0  0  0  0  0  0  0  0  0
   17.9389    9.5543   -3.6343 O   0  0  0  0  0  0  0  0  0  0  0  0
   14.3133    5.1165    1.1312 N   0  0  0  0  0  0  0  0  0  0  0  0
   13.6509    4.4258    1.6811 N   0  0  0  0  0  0  0  0  0  0  0  0
   11.4709    4.2528   -2.3312 C   0  0  0  0  0  0  0  0  0  0  0  0
   11.7979    4.0750   -1.1866 O   0  0  0  0  0  0  0  0  0  0  0  0
   12.0697    5.0338   -3.2291 O   0  0  0  0  0  0  0  0  0  0  0  0
   10.2363    3.5632   -2.9702 C   0  0  0  0  0  0  0  0  0  0  0  0
   10.6081    2.8087   -4.0276 F   0  0  0  0  0  0  0  0  0  0  0  0
    9.3492    4.4855   -3.4039 F   0  0  0  0  0  0  0  0  0  0  0  0
    9.6228    2.7724   -2.0823 F   0  0  0  0  0  0  0  0  0  0  0  0
  1  6  2  0  0  0  0
  1  2  1  0  0  0  0
  2  3  2  0  0  0  0
  3  4  1  0  0  0  0
  4  9  1  0  0  0  0
  5 10  1  0  0  0  0
  5  4  2  0  0  0  0
  6  5  1  0  0  0  0
  7  1  1  0  0  0  0
 11 13  2  0  0  0  0
 11  6  1  0  0  0  0
 12 11  2  0  0  0  0
 14 15  3  0  0  0  0
 16 17  2  0  0  0  0
 18  8  1  0  0  0  0
 18 16  1  0  0  0  0
 19 16  1  0  0  0  0
 19 22  1  0  0  0  0
 20 19  1  0  0  0  0
 21 19  1  0  0  0  0
M  RAD  2   2   2   3   2
M  END
