Coordinates from ORCA-job p-NO2-Ph-N2-OOCCF3-B3LYPG-aug-cc-pVDZ-scan-d09-49-n400
 OpenBabel10311713223D

 22 20  0  0  0  0  0  0  0  0999 V2000
   15.1384    7.4216   -3.5071 C   0  0  0  0  0  0  0  0  0  0  0  0
   14.5550    6.6241   -2.5114 C   0  0  0  0  0  0  0  0  0  0  0  0
   15.0875    6.6048   -1.3717 C   0  0  0  0  0  0  0  0  0  0  0  0
   16.1707    7.1899   -0.7657 C   0  0  0  0  0  0  0  0  0  0  0  0
   16.7948    8.0074   -1.7332 C   0  0  0  0  0  0  0  0  0  0  0  0
   16.2834    8.1049   -3.0441 C   0  0  0  0  0  0  0  0  0  0  0  0
   14.7887    7.5343   -4.5297 H   0  0  0  0  0  0  0  0  0  0  0  0
   12.8327    5.4751   -2.8804 H   0  0  0  0  0  0  0  0  0  0  0  0
   16.5226    7.0795    0.2552 H   0  0  0  0  0  0  0  0  0  0  0  0
   17.6856    8.5752   -1.4722 H   0  0  0  0  0  0  0  0  0  0  0  0
   16.9966    8.9841   -3.9997 N   0  0  0  0  0  0  0  0  0  0  0  0
   16.5421    9.0682   -5.1362 O   0  0  0  0  0  0  0  0  0  0  0  0
   17.9894    9.5838   -3.5971 O   0  0  0  0  0  0  0  0  0  0  0  0
   14.2472    4.9977    1.3203 N   0  0  0  0  0  0  0  0  0  0  0  0
   13.5979    4.3101    1.8893 N   0  0  0  0  0  0  0  0  0  0  0  0
   11.4756    4.2591   -2.3375 C   0  0  0  0  0  0  0  0  0  0  0  0
   11.8334    4.1080   -1.1986 O   0  0  0  0  0  0  0  0  0  0  0  0
   12.0452    5.0273   -3.2658 O   0  0  0  0  0  0  0  0  0  0  0  0
   10.2319    3.5466   -2.9317 C   0  0  0  0  0  0  0  0  0  0  0  0
   10.5844    2.7734   -3.9820 F   0  0  0  0  0  0  0  0  0  0  0  0
    9.3266    4.4525   -3.3624 F   0  0  0  0  0  0  0  0  0  0  0  0
    9.6473    2.7695   -2.0128 F   0  0  0  0  0  0  0  0  0  0  0  0
  1  6  2  0  0  0  0
  1  2  1  0  0  0  0
  2  3  2  0  0  0  0
  3  4  1  0  0  0  0
  4  9  1  0  0  0  0
  5 10  1  0  0  0  0
  5  4  2  0  0  0  0
  6  5  1  0  0  0  0
  7  1  1  0  0  0  0
 11 13  2  0  0  0  0
 11  6  1  0  0  0  0
 12 11  2  0  0  0  0
 14 15  3  0  0  0  0
 16 17  2  0  0  0  0
 18  8  1  0  0  0  0
 18 16  1  0  0  0  0
 19 16  1  0  0  0  0
 19 22  1  0  0  0  0
 20 19  1  0  0  0  0
 21 19  1  0  0  0  0
M  RAD  2   2   2   3   2
M  END
