Coordinates from ORCA-job p-NO2-Ph-N2-OOCCF3-B3LYPG-aug-cc-pVDZ-scan-d09-49-n400
 OpenBabel10311713223D

 22 21  0  0  0  0  0  0  0  0999 V2000
   14.7179    7.5896   -3.1763 C   0  0  0  0  0  0  0  0  0  0  0  0
   13.9736    6.9492   -2.1764 C   0  0  0  0  0  0  0  0  0  0  0  0
   14.6936    6.6029   -1.0571 C   0  0  0  0  0  0  0  0  0  0  0  0
   16.0257    6.8292   -0.7806 C   0  0  0  0  0  0  0  0  0  0  0  0
   16.7483    7.4587   -1.7988 C   0  0  0  0  0  0  0  0  0  0  0  0
   16.0783    7.8255   -2.9685 C   0  0  0  0  0  0  0  0  0  0  0  0
   14.2479    7.9007   -4.1061 H   0  0  0  0  0  0  0  0  0  0  0  0
   12.9080    6.7309   -2.2801 H   0  0  0  0  0  0  0  0  0  0  0  0
   16.4852    6.5329    0.1588 H   0  0  0  0  0  0  0  0  0  0  0  0
   17.8088    7.6708   -1.6903 H   0  0  0  0  0  0  0  0  0  0  0  0
   16.8508    8.5073   -4.0370 N   0  0  0  0  0  0  0  0  0  0  0  0
   16.2449    8.8311   -5.0514 O   0  0  0  0  0  0  0  0  0  0  0  0
   18.0462    8.6931   -3.8362 O   0  0  0  0  0  0  0  0  0  0  0  0
   13.7991    5.8676    0.2310 N   0  0  0  0  0  0  0  0  0  0  0  0
   12.9973    5.0591    0.2905 N   0  0  0  0  0  0  0  0  0  0  0  0
   11.6331    4.5546   -1.9639 C   0  0  0  0  0  0  0  0  0  0  0  0
   12.6822    4.0733   -1.4047 O   0  0  0  0  0  0  0  0  0  0  0  0
   11.1376    5.6711   -1.8343 O   0  0  0  0  0  0  0  0  0  0  0  0
   10.9724    3.5304   -2.9449 C   0  0  0  0  0  0  0  0  0  0  0  0
   11.8561    3.1398   -3.8965 F   0  0  0  0  0  0  0  0  0  0  0  0
    9.9058    4.0538   -3.5711 F   0  0  0  0  0  0  0  0  0  0  0  0
   10.5642    2.4254   -2.2810 F   0  0  0  0  0  0  0  0  0  0  0  0
  1  6  2  0  0  0  0
  1  2  1  0  0  0  0
  2  3  2  0  0  0  0
  3  4  1  0  0  0  0
  3 14  1  0  0  0  0
  4  9  1  0  0  0  0
  5 10  1  0  0  0  0
  5  4  2  0  0  0  0
  6  5  1  0  0  0  0
  7  1  1  0  0  0  0
  8  2  1  0  0  0  0
 11 13  2  0  0  0  0
 11  6  1  0  0  0  0
 12 11  2  0  0  0  0
 14 15  2  0  0  0  0
 16 18  2  0  0  0  0
 16 17  1  0  0  0  0
 19 22  1  0  0  0  0
 19 16  1  0  0  0  0
 20 19  1  0  0  0  0
 21 19  1  0  0  0  0
M  RAD  2  15   2  17   2
M  END
