Coordinates from ORCA-job p-NO2-Ph-N2-OOCCF3-B3LYPG-aug-cc-pVDZ-scan-d09-49-n400
 OpenBabel10311713223D

 22 20  0  0  0  0  0  0  0  0999 V2000
   15.2508    7.6112   -3.7914 C   0  0  0  0  0  0  0  0  0  0  0  0
   14.5293    6.7630   -2.9441 C   0  0  0  0  0  0  0  0  0  0  0  0
   14.9050    6.6086   -1.7560 C   0  0  0  0  0  0  0  0  0  0  0  0
   15.9287    7.0861   -0.9737 C   0  0  0  0  0  0  0  0  0  0  0  0
   16.6959    7.9541   -1.7816 C   0  0  0  0  0  0  0  0  0  0  0  0
   16.3548    8.1930   -3.1299 C   0  0  0  0  0  0  0  0  0  0  0  0
   15.0335    7.8302   -4.8329 H   0  0  0  0  0  0  0  0  0  0  0  0
   12.7234    5.4953   -3.1644 H   0  0  0  0  0  0  0  0  0  0  0  0
   16.1498    6.8702    0.0671 H   0  0  0  0  0  0  0  0  0  0  0  0
   17.5688    8.4532   -1.3657 H   0  0  0  0  0  0  0  0  0  0  0  0
   17.2137    9.1179   -3.9060 N   0  0  0  0  0  0  0  0  0  0  0  0
   16.9129    9.3164   -5.0789 O   0  0  0  0  0  0  0  0  0  0  0  0
   18.1772    9.6220   -3.3362 O   0  0  0  0  0  0  0  0  0  0  0  0
   14.2056    4.7781    1.8203 N   0  0  0  0  0  0  0  0  0  0  0  0
   13.5492    4.0913    2.3825 N   0  0  0  0  0  0  0  0  0  0  0  0
   11.4993    4.2870   -2.3638 C   0  0  0  0  0  0  0  0  0  0  0  0
   11.9931    4.2548   -1.2668 O   0  0  0  0  0  0  0  0  0  0  0  0
   11.9221    4.9883   -3.4166 O   0  0  0  0  0  0  0  0  0  0  0  0
   10.2313    3.4777   -2.7428 C   0  0  0  0  0  0  0  0  0  0  0  0
   10.4981    2.6249   -3.7560 F   0  0  0  0  0  0  0  0  0  0  0  0
    9.2411    4.3061   -3.1406 F   0  0  0  0  0  0  0  0  0  0  0  0
    9.7933    2.7674   -1.6970 F   0  0  0  0  0  0  0  0  0  0  0  0
  1  6  2  0  0  0  0
  1  2  1  0  0  0  0
  2  3  2  0  0  0  0
  3  4  1  0  0  0  0
  4  9  1  0  0  0  0
  5 10  1  0  0  0  0
  5  4  2  0  0  0  0
  6  5  1  0  0  0  0
  7  1  1  0  0  0  0
 11 13  2  0  0  0  0
 11  6  1  0  0  0  0
 12 11  2  0  0  0  0
 14 15  3  0  0  0  0
 16 17  2  0  0  0  0
 18  8  1  0  0  0  0
 18 16  1  0  0  0  0
 19 16  1  0  0  0  0
 19 22  1  0  0  0  0
 20 19  1  0  0  0  0
 21 19  1  0  0  0  0
M  RAD  2   2   2   3   2
M  END
