Coordinates from ORCA-job p-NO2-Ph-N2-OOCCF3-B3LYPG-aug-cc-pVDZ-scan-d09-49-n400
 OpenBabel10311713223D

 22 21  0  0  0  0  0  0  0  0999 V2000
   14.7497    7.5857   -3.1956 C   0  0  0  0  0  0  0  0  0  0  0  0
   14.0027    6.9185   -2.2235 C   0  0  0  0  0  0  0  0  0  0  0  0
   14.6693    6.5511   -1.0573 C   0  0  0  0  0  0  0  0  0  0  0  0
   16.0067    6.8293   -0.7842 C   0  0  0  0  0  0  0  0  0  0  0  0
   16.7447    7.4795   -1.7713 C   0  0  0  0  0  0  0  0  0  0  0  0
   16.0997    7.8455   -2.9545 C   0  0  0  0  0  0  0  0  0  0  0  0
   14.2957    7.9013   -4.1315 H   0  0  0  0  0  0  0  0  0  0  0  0
   12.9428    6.6977   -2.3527 H   0  0  0  0  0  0  0  0  0  0  0  0
   16.4570    6.5370    0.1621 H   0  0  0  0  0  0  0  0  0  0  0  0
   17.7970    7.7124   -1.6330 H   0  0  0  0  0  0  0  0  0  0  0  0
   16.8850    8.5538   -3.9966 N   0  0  0  0  0  0  0  0  0  0  0  0
   16.2986    8.8749   -5.0234 O   0  0  0  0  0  0  0  0  0  0  0  0
   18.0715    8.7596   -3.7645 O   0  0  0  0  0  0  0  0  0  0  0  0
   13.8826    5.8769    0.0295 N   0  0  0  0  0  0  0  0  0  0  0  0
   13.0688    5.0832    0.1796 N   0  0  0  0  0  0  0  0  0  0  0  0
   11.6024    4.5403   -1.9552 C   0  0  0  0  0  0  0  0  0  0  0  0
   12.6801    4.0704   -1.4335 O   0  0  0  0  0  0  0  0  0  0  0  0
   11.1102    5.6545   -1.8109 O   0  0  0  0  0  0  0  0  0  0  0  0
   10.9090    3.5028   -2.8959 C   0  0  0  0  0  0  0  0  0  0  0  0
   11.7597    3.0920   -3.8684 F   0  0  0  0  0  0  0  0  0  0  0  0
    9.8242    4.0196   -3.4948 F   0  0  0  0  0  0  0  0  0  0  0  0
   10.5196    2.4110   -2.1989 F   0  0  0  0  0  0  0  0  0  0  0  0
  1  6  2  0  0  0  0
  1  2  1  0  0  0  0
  2  3  2  0  0  0  0
  3  4  1  0  0  0  0
  3 14  1  0  0  0  0
  4  9  1  0  0  0  0
  5 10  1  0  0  0  0
  5  4  2  0  0  0  0
  6  5  1  0  0  0  0
  7  1  1  0  0  0  0
  8  2  1  0  0  0  0
 11 13  2  0  0  0  0
 11  6  1  0  0  0  0
 12 11  2  0  0  0  0
 14 15  2  0  0  0  0
 16 18  2  0  0  0  0
 16 17  1  0  0  0  0
 19 22  1  0  0  0  0
 19 16  1  0  0  0  0
 20 19  1  0  0  0  0
 21 19  1  0  0  0  0
M  RAD  2  15   2  17   2
M  END
