Coordinates from ORCA-job p-NO2-Ph-N2-OOCCF3-B3LYPG-aug-cc-pVDZ-scan-d09-49-n400
 OpenBabel10311713223D

 22 20  0  0  0  0  0  0  0  0999 V2000
   15.0141    7.2279   -3.2094 C   0  0  0  0  0  0  0  0  0  0  0  0
   14.4583    6.4373   -2.1703 C   0  0  0  0  0  0  0  0  0  0  0  0
   15.1315    6.5348   -1.0767 C   0  0  0  0  0  0  0  0  0  0  0  0
   16.2459    7.1876   -0.6109 C   0  0  0  0  0  0  0  0  0  0  0  0
   16.7881    7.9660   -1.6445 C   0  0  0  0  0  0  0  0  0  0  0  0
   16.1665    7.9685   -2.9068 C   0  0  0  0  0  0  0  0  0  0  0  0
   14.5851    7.2762   -4.2081 H   0  0  0  0  0  0  0  0  0  0  0  0
   12.9783    5.5305   -2.7007 H   0  0  0  0  0  0  0  0  0  0  0  0
   16.6667    7.1329    0.3893 H   0  0  0  0  0  0  0  0  0  0  0  0
   17.6804    8.5649   -1.4800 H   0  0  0  0  0  0  0  0  0  0  0  0
   16.7709    8.8043   -3.9717 N   0  0  0  0  0  0  0  0  0  0  0  0
   16.2250    8.8047   -5.0697 O   0  0  0  0  0  0  0  0  0  0  0  0
   17.7797    9.4457   -3.6902 O   0  0  0  0  0  0  0  0  0  0  0  0
   14.4158    5.4377    0.4778 N   0  0  0  0  0  0  0  0  0  0  0  0
   13.7143    4.7394    0.9687 N   0  0  0  0  0  0  0  0  0  0  0  0
   11.5480    4.3068   -2.3071 C   0  0  0  0  0  0  0  0  0  0  0  0
   11.8313    4.0799   -1.1543 O   0  0  0  0  0  0  0  0  0  0  0  0
   12.1798    5.1004   -3.1517 O   0  0  0  0  0  0  0  0  0  0  0  0
   10.3294    3.6395   -3.0003 C   0  0  0  0  0  0  0  0  0  0  0  0
   10.7285    2.9078   -4.0648 F   0  0  0  0  0  0  0  0  0  0  0  0
    9.4587    4.5758   -3.4392 F   0  0  0  0  0  0  0  0  0  0  0  0
    9.6809    2.8286   -2.1541 F   0  0  0  0  0  0  0  0  0  0  0  0
  1  6  2  0  0  0  0
  1  2  1  0  0  0  0
  2  3  2  0  0  0  0
  3  4  1  0  0  0  0
  4  9  1  0  0  0  0
  5 10  1  0  0  0  0
  5  4  2  0  0  0  0
  6  5  1  0  0  0  0
  7  1  1  0  0  0  0
 11 13  2  0  0  0  0
 11  6  1  0  0  0  0
 12 11  2  0  0  0  0
 14 15  3  0  0  0  0
 16 17  2  0  0  0  0
 18  8  1  0  0  0  0
 18 16  1  0  0  0  0
 19 16  1  0  0  0  0
 19 22  1  0  0  0  0
 20 19  1  0  0  0  0
 21 19  1  0  0  0  0
M  RAD  2   2   2   3   2
M  END
