Coordinates from ORCA-job p-NO2-Ph-N2-OOCCF3-B3LYPG-aug-cc-pVDZ-scan-d09-49-n400
 OpenBabel10311713223D

 22 21  0  0  0  0  0  0  0  0999 V2000
   14.6401    8.2007   -2.9828 C   0  0  0  0  0  0  0  0  0  0  0  0
   13.7958    7.6187   -2.0560 C   0  0  0  0  0  0  0  0  0  0  0  0
   14.3211    6.7062   -1.0616 C   0  0  0  0  0  0  0  0  0  0  0  0
   15.7403    6.4206   -1.0925 C   0  0  0  0  0  0  0  0  0  0  0  0
   16.5573    7.0155   -2.0296 C   0  0  0  0  0  0  0  0  0  0  0  0
   16.0031    7.9017   -2.9602 C   0  0  0  0  0  0  0  0  0  0  0  0
   14.2483    8.8825   -3.7339 H   0  0  0  0  0  0  0  0  0  0  0  0
   12.7242    7.7949   -2.0556 H   0  0  0  0  0  0  0  0  0  0  0  0
   16.1313    5.7211   -0.3555 H   0  0  0  0  0  0  0  0  0  0  0  0
   17.6232    6.8023   -2.0549 H   0  0  0  0  0  0  0  0  0  0  0  0
   16.8930    8.5395   -3.9515 N   0  0  0  0  0  0  0  0  0  0  0  0
   16.3832    9.3239   -4.7445 O   0  0  0  0  0  0  0  0  0  0  0  0
   18.0840    8.2455   -3.9094 O   0  0  0  0  0  0  0  0  0  0  0  0
   13.6750    6.2423   -0.3454 N   0  0  0  0  0  0  0  0  0  0  0  0
   12.9647    5.6601    0.3328 N   0  0  0  0  0  0  0  0  0  0  0  0
   11.9378    4.3201   -1.9462 C   0  0  0  0  0  0  0  0  0  0  0  0
   12.4719    3.8617   -0.8918 O   0  0  0  0  0  0  0  0  0  0  0  0
   11.9015    5.4836   -2.3714 O   0  0  0  0  0  0  0  0  0  0  0  0
   11.2340    3.2059   -2.7966 C   0  0  0  0  0  0  0  0  0  0  0  0
   12.1058    2.2194   -3.1212 F   0  0  0  0  0  0  0  0  0  0  0  0
   10.7244    3.6873   -3.9456 F   0  0  0  0  0  0  0  0  0  0  0  0
   10.2170    2.6434   -2.1014 F   0  0  0  0  0  0  0  0  0  0  0  0
  1  6  2  0  0  0  0
  1  2  1  0  0  0  0
  2  8  1  0  0  0  0
  2  3  2  0  0  0  0
  3 14  1  0  0  0  0
  4  3  1  0  0  0  0
  4  9  1  0  0  0  0
  5  4  2  0  0  0  0
  6  5  1  0  0  0  0
  7  1  1  0  0  0  0
 10  5  1  0  0  0  0
 11 13  2  0  0  0  0
 11  6  1  0  0  0  0
 12 11  2  0  0  0  0
 14 15  1  0  0  0  0
 16 17  1  0  0  0  0
 18 16  2  0  0  0  0
 19 22  1  0  0  0  0
 19 16  1  0  0  0  0
 20 19  1  0  0  0  0
 21 19  1  0  0  0  0
M  RAD  3  14   2  15   3  17   2
M  END
