Coordinates from ORCA-job p-NO2-Ph-N2-OOCCF3-B3LYPG-aug-cc-pVDZ-scan-d09-49-n400
 OpenBabel10311713223D

 22 20  0  0  0  0  0  0  0  0999 V2000
   15.1108    7.3764   -3.4341 C   0  0  0  0  0  0  0  0  0  0  0  0
   14.5526    6.5887   -2.4146 C   0  0  0  0  0  0  0  0  0  0  0  0
   15.1171    6.5979   -1.2895 C   0  0  0  0  0  0  0  0  0  0  0  0
   16.2077    7.2006   -0.7177 C   0  0  0  0  0  0  0  0  0  0  0  0
   16.8032    8.0069   -1.7122 C   0  0  0  0  0  0  0  0  0  0  0  0
   16.2604    8.0775   -3.0116 C   0  0  0  0  0  0  0  0  0  0  0  0
   14.7366    7.4690   -4.4501 H   0  0  0  0  0  0  0  0  0  0  0  0
   12.8509    5.4685   -2.8205 H   0  0  0  0  0  0  0  0  0  0  0  0
   16.5836    7.1100    0.2965 H   0  0  0  0  0  0  0  0  0  0  0  0
   17.6949    8.5861   -1.4810 H   0  0  0  0  0  0  0  0  0  0  0  0
   16.9431    8.9459   -3.9987 N   0  0  0  0  0  0  0  0  0  0  0  0
   16.4648    9.0019   -5.1271 O   0  0  0  0  0  0  0  0  0  0  0  0
   17.9434    9.5561   -3.6317 O   0  0  0  0  0  0  0  0  0  0  0  0
   14.3105    5.1092    1.1447 N   0  0  0  0  0  0  0  0  0  0  0  0
   13.6487    4.4186    1.6954 N   0  0  0  0  0  0  0  0  0  0  0  0
   11.4704    4.2525   -2.3313 C   0  0  0  0  0  0  0  0  0  0  0  0
   11.7991    4.0761   -1.1872 O   0  0  0  0  0  0  0  0  0  0  0  0
   12.0676    5.0328   -3.2307 O   0  0  0  0  0  0  0  0  0  0  0  0
   10.2353    3.5617   -2.9681 C   0  0  0  0  0  0  0  0  0  0  0  0
   10.6060    2.8062   -4.0251 F   0  0  0  0  0  0  0  0  0  0  0  0
    9.3471    4.4830   -3.4015 F   0  0  0  0  0  0  0  0  0  0  0  0
    9.6233    2.7714   -2.0785 F   0  0  0  0  0  0  0  0  0  0  0  0
  1  6  2  0  0  0  0
  1  2  1  0  0  0  0
  2  3  2  0  0  0  0
  3  4  1  0  0  0  0
  4  9  1  0  0  0  0
  5 10  1  0  0  0  0
  5  4  2  0  0  0  0
  6  5  1  0  0  0  0
  7  1  1  0  0  0  0
 11 13  2  0  0  0  0
 11  6  1  0  0  0  0
 12 11  2  0  0  0  0
 14 15  3  0  0  0  0
 16 17  2  0  0  0  0
 18  8  1  0  0  0  0
 18 16  1  0  0  0  0
 19 16  1  0  0  0  0
 19 22  1  0  0  0  0
 20 19  1  0  0  0  0
 21 19  1  0  0  0  0
M  RAD  2   2   2   3   2
M  END
