Coordinates from ORCA-job p-NO2-Ph-N2-OOCCF3-B3LYPG-aug-cc-pVDZ-scan-d09-49-n400
 OpenBabel10311713223D

 22 20  0  0  0  0  0  0  0  0999 V2000
   15.1156    7.3868   -3.4485 C   0  0  0  0  0  0  0  0  0  0  0  0
   14.5526    6.5966   -2.4339 C   0  0  0  0  0  0  0  0  0  0  0  0
   15.1118    6.6007   -1.3067 C   0  0  0  0  0  0  0  0  0  0  0  0
   16.2000    7.1984   -0.7260 C   0  0  0  0  0  0  0  0  0  0  0  0
   16.8010    8.0077   -1.7154 C   0  0  0  0  0  0  0  0  0  0  0  0
   16.2644    8.0843   -3.0172 C   0  0  0  0  0  0  0  0  0  0  0  0
   14.7462    7.4837   -4.4658 H   0  0  0  0  0  0  0  0  0  0  0  0
   12.8464    5.4685   -2.8284 H   0  0  0  0  0  0  0  0  0  0  0  0
   16.5712    7.1035    0.2894 H   0  0  0  0  0  0  0  0  0  0  0  0
   17.6926    8.5847   -1.4781 H   0  0  0  0  0  0  0  0  0  0  0  0
   16.9533    8.9557   -3.9974 N   0  0  0  0  0  0  0  0  0  0  0  0
   16.4838    9.0124   -5.1295 O   0  0  0  0  0  0  0  0  0  0  0  0
   17.9561    9.5582   -3.6249 O   0  0  0  0  0  0  0  0  0  0  0  0
   14.3044    5.0921    1.1761 N   0  0  0  0  0  0  0  0  0  0  0  0
   13.6433    4.4013    1.7275 N   0  0  0  0  0  0  0  0  0  0  0  0
   11.4692    4.2512   -2.3305 C   0  0  0  0  0  0  0  0  0  0  0  0
   11.8014    4.0773   -1.1869 O   0  0  0  0  0  0  0  0  0  0  0  0
   12.0623    5.0304   -3.2340 O   0  0  0  0  0  0  0  0  0  0  0  0
   10.2330    3.5576   -2.9620 C   0  0  0  0  0  0  0  0  0  0  0  0
   10.6014    2.8003   -4.0186 F   0  0  0  0  0  0  0  0  0  0  0  0
    9.3424    4.4769   -3.3947 F   0  0  0  0  0  0  0  0  0  0  0  0
    9.6248    2.7685   -2.0690 F   0  0  0  0  0  0  0  0  0  0  0  0
  1  6  2  0  0  0  0
  1  2  1  0  0  0  0
  2  3  2  0  0  0  0
  3  4  1  0  0  0  0
  4  9  1  0  0  0  0
  5 10  1  0  0  0  0
  5  4  2  0  0  0  0
  6  5  1  0  0  0  0
  7  1  1  0  0  0  0
 11 13  2  0  0  0  0
 11  6  1  0  0  0  0
 12 11  2  0  0  0  0
 14 15  3  0  0  0  0
 16 17  2  0  0  0  0
 18  8  1  0  0  0  0
 18 16  1  0  0  0  0
 19 16  1  0  0  0  0
 19 22  1  0  0  0  0
 20 19  1  0  0  0  0
 21 19  1  0  0  0  0
M  RAD  2   2   2   3   2
M  END
