Coordinates from ORCA-job p-NO2-Ph-N2-OOCCF3-B3LYPG-aug-cc-pVDZ-scan-d09-49-n400
 OpenBabel10311713223D

 22 20  0  0  0  0  0  0  0  0999 V2000
   15.2491    7.6066   -3.7855 C   0  0  0  0  0  0  0  0  0  0  0  0
   14.5305    6.7596   -2.9347 C   0  0  0  0  0  0  0  0  0  0  0  0
   14.9083    6.6071   -1.7468 C   0  0  0  0  0  0  0  0  0  0  0  0
   15.9343    7.0882   -0.9695 C   0  0  0  0  0  0  0  0  0  0  0  0
   16.6990    7.9551   -1.7807 C   0  0  0  0  0  0  0  0  0  0  0  0
   16.3543    8.1907   -3.1284 C   0  0  0  0  0  0  0  0  0  0  0  0
   15.0290    7.8231   -4.8269 H   0  0  0  0  0  0  0  0  0  0  0  0
   12.7259    5.4946   -3.1582 H   0  0  0  0  0  0  0  0  0  0  0  0
   16.1584    6.8748    0.0712 H   0  0  0  0  0  0  0  0  0  0  0  0
   17.5725    8.4556   -1.3678 H   0  0  0  0  0  0  0  0  0  0  0  0
   17.2104    9.1145   -3.9089 N   0  0  0  0  0  0  0  0  0  0  0  0
   16.9036    9.3138   -5.0801 O   0  0  0  0  0  0  0  0  0  0  0  0
   18.1723    9.6243   -3.3415 O   0  0  0  0  0  0  0  0  0  0  0  0
   14.2051    4.7825    1.8089 N   0  0  0  0  0  0  0  0  0  0  0  0
   13.5491    4.0960    2.3720 N   0  0  0  0  0  0  0  0  0  0  0  0
   11.4986    4.2864   -2.3634 C   0  0  0  0  0  0  0  0  0  0  0  0
   11.9901    4.2524   -1.2655 O   0  0  0  0  0  0  0  0  0  0  0  0
   11.9248    4.9890   -3.4137 O   0  0  0  0  0  0  0  0  0  0  0  0
   10.2307    3.4789   -2.7465 C   0  0  0  0  0  0  0  0  0  0  0  0
   10.4991    2.6274   -3.7604 F   0  0  0  0  0  0  0  0  0  0  0  0
    9.2423    4.3089   -3.1454 F   0  0  0  0  0  0  0  0  0  0  0  0
    9.7897    2.7675   -1.7028 F   0  0  0  0  0  0  0  0  0  0  0  0
  1  6  2  0  0  0  0
  1  2  1  0  0  0  0
  2  3  2  0  0  0  0
  3  4  1  0  0  0  0
  4  9  1  0  0  0  0
  5 10  1  0  0  0  0
  5  4  2  0  0  0  0
  6  5  1  0  0  0  0
  7  1  1  0  0  0  0
 11 13  2  0  0  0  0
 11  6  1  0  0  0  0
 12 11  2  0  0  0  0
 14 15  3  0  0  0  0
 16 17  2  0  0  0  0
 18  8  1  0  0  0  0
 18 16  1  0  0  0  0
 19 16  1  0  0  0  0
 19 22  1  0  0  0  0
 20 19  1  0  0  0  0
 21 19  1  0  0  0  0
M  RAD  2   2   2   3   2
M  END
