Coordinates from ORCA-job p-NO2-Ph-N2-OOCCF3-B3LYPG-aug-cc-pVDZ-scan-d09-49-n400
 OpenBabel10311713223D

 22 21  0  0  0  0  0  0  0  0999 V2000
   14.7183    7.5896   -3.1770 C   0  0  0  0  0  0  0  0  0  0  0  0
   13.9735    6.9493   -2.1778 C   0  0  0  0  0  0  0  0  0  0  0  0
   14.6914    6.6011   -1.0570 C   0  0  0  0  0  0  0  0  0  0  0  0
   16.0242    6.8276   -0.7813 C   0  0  0  0  0  0  0  0  0  0  0  0
   16.7478    7.4569   -1.7986 C   0  0  0  0  0  0  0  0  0  0  0  0
   16.0789    7.8245   -2.9685 C   0  0  0  0  0  0  0  0  0  0  0  0
   14.2491    7.9015   -4.1069 H   0  0  0  0  0  0  0  0  0  0  0  0
   12.9079    6.7320   -2.2822 H   0  0  0  0  0  0  0  0  0  0  0  0
   16.4833    6.5309    0.1583 H   0  0  0  0  0  0  0  0  0  0  0  0
   17.8084    7.6683   -1.6895 H   0  0  0  0  0  0  0  0  0  0  0  0
   16.8523    8.5061   -4.0364 N   0  0  0  0  0  0  0  0  0  0  0  0
   16.2461    8.8354   -5.0489 O   0  0  0  0  0  0  0  0  0  0  0  0
   18.0466    8.6959   -3.8328 O   0  0  0  0  0  0  0  0  0  0  0  0
   13.8014    5.8701    0.2232 N   0  0  0  0  0  0  0  0  0  0  0  0
   12.9991    5.0617    0.2850 N   0  0  0  0  0  0  0  0  0  0  0  0
   11.6320    4.5550   -1.9628 C   0  0  0  0  0  0  0  0  0  0  0  0
   12.6832    4.0758   -1.4050 O   0  0  0  0  0  0  0  0  0  0  0  0
   11.1346    5.6703   -1.8318 O   0  0  0  0  0  0  0  0  0  0  0  0
   10.9723    3.5296   -2.9430 C   0  0  0  0  0  0  0  0  0  0  0  0
   11.8560    3.1396   -3.8948 F   0  0  0  0  0  0  0  0  0  0  0  0
    9.9047    4.0513   -3.5686 F   0  0  0  0  0  0  0  0  0  0  0  0
   10.5660    2.4244   -2.2781 F   0  0  0  0  0  0  0  0  0  0  0  0
  1  6  2  0  0  0  0
  1  2  1  0  0  0  0
  2  3  2  0  0  0  0
  3  4  1  0  0  0  0
  3 14  1  0  0  0  0
  4  9  1  0  0  0  0
  5 10  1  0  0  0  0
  5  4  2  0  0  0  0
  6  5  1  0  0  0  0
  7  1  1  0  0  0  0
  8  2  1  0  0  0  0
 11 13  2  0  0  0  0
 11  6  1  0  0  0  0
 12 11  2  0  0  0  0
 14 15  2  0  0  0  0
 16 18  2  0  0  0  0
 16 17  1  0  0  0  0
 19 22  1  0  0  0  0
 19 16  1  0  0  0  0
 20 19  1  0  0  0  0
 21 19  1  0  0  0  0
M  RAD  2  15   2  17   2
M  END
