Coordinates from ORCA-job p-NO2-Ph-N2-OOCCF3-B3LYPG-aug-cc-pVDZ-scan-d09-49-n400
 OpenBabel10311713223D

 22 20  0  0  0  0  0  0  0  0999 V2000
   15.1230    7.3958   -3.4658 C   0  0  0  0  0  0  0  0  0  0  0  0
   14.5547    6.6044   -2.4557 C   0  0  0  0  0  0  0  0  0  0  0  0
   15.1047    6.6007   -1.3237 C   0  0  0  0  0  0  0  0  0  0  0  0
   16.1928    7.1965   -0.7380 C   0  0  0  0  0  0  0  0  0  0  0  0
   16.8004    8.0073   -1.7213 C   0  0  0  0  0  0  0  0  0  0  0  0
   16.2708    8.0892   -3.0259 C   0  0  0  0  0  0  0  0  0  0  0  0
   14.7592    7.4968   -4.4847 H   0  0  0  0  0  0  0  0  0  0  0  0
   12.8425    5.4703   -2.8447 H   0  0  0  0  0  0  0  0  0  0  0  0
   16.5584    7.0973    0.2792 H   0  0  0  0  0  0  0  0  0  0  0  0
   17.6919    8.5817   -1.4777 H   0  0  0  0  0  0  0  0  0  0  0  0
   16.9667    8.9622   -3.9998 N   0  0  0  0  0  0  0  0  0  0  0  0
   16.4974    9.0315   -5.1312 O   0  0  0  0  0  0  0  0  0  0  0  0
   17.9629    9.5693   -3.6172 O   0  0  0  0  0  0  0  0  0  0  0  0
   14.2837    5.0616    1.2213 N   0  0  0  0  0  0  0  0  0  0  0  0
   13.6265    4.3722    1.7789 N   0  0  0  0  0  0  0  0  0  0  0  0
   11.4717    4.2547   -2.3340 C   0  0  0  0  0  0  0  0  0  0  0  0
   11.8128    4.0892   -1.1919 O   0  0  0  0  0  0  0  0  0  0  0  0
   12.0578    5.0301   -3.2455 O   0  0  0  0  0  0  0  0  0  0  0  0
   10.2329    3.5548   -2.9531 C   0  0  0  0  0  0  0  0  0  0  0  0
   10.5961    2.7918   -4.0073 F   0  0  0  0  0  0  0  0  0  0  0  0
    9.3377    4.4697   -3.3855 F   0  0  0  0  0  0  0  0  0  0  0  0
    9.6323    2.7700   -2.0511 F   0  0  0  0  0  0  0  0  0  0  0  0
  1  6  2  0  0  0  0
  1  2  1  0  0  0  0
  2  3  2  0  0  0  0
  3  4  1  0  0  0  0
  4  9  1  0  0  0  0
  5 10  1  0  0  0  0
  5  4  2  0  0  0  0
  6  5  1  0  0  0  0
  7  1  1  0  0  0  0
 11 13  2  0  0  0  0
 11  6  1  0  0  0  0
 12 11  2  0  0  0  0
 14 15  3  0  0  0  0
 16 17  2  0  0  0  0
 18  8  1  0  0  0  0
 18 16  1  0  0  0  0
 19 16  1  0  0  0  0
 19 22  1  0  0  0  0
 20 19  1  0  0  0  0
 21 19  1  0  0  0  0
M  RAD  2   2   2   3   2
M  END
