Coordinates from ORCA-job p-NO2-Ph-N2-OOCCF3-B3LYPG-aug-cc-pVDZ-scan-d09-49-n400
 OpenBabel10311713223D

 22 20  0  0  0  0  0  0  0  0999 V2000
   15.1123    7.3812   -3.4399 C   0  0  0  0  0  0  0  0  0  0  0  0
   14.5523    6.5922   -2.4224 C   0  0  0  0  0  0  0  0  0  0  0  0
   15.1153    6.5998   -1.2969 C   0  0  0  0  0  0  0  0  0  0  0  0
   16.2044    7.1998   -0.7206 C   0  0  0  0  0  0  0  0  0  0  0  0
   16.8020    8.0076   -1.7132 C   0  0  0  0  0  0  0  0  0  0  0  0
   16.2615    8.0809   -3.0136 C   0  0  0  0  0  0  0  0  0  0  0  0
   14.7398    7.4756   -4.4564 H   0  0  0  0  0  0  0  0  0  0  0  0
   12.8490    5.4687   -2.8235 H   0  0  0  0  0  0  0  0  0  0  0  0
   16.5786    7.1073    0.2940 H   0  0  0  0  0  0  0  0  0  0  0  0
   17.6936    8.5860   -1.4796 H   0  0  0  0  0  0  0  0  0  0  0  0
   16.9466    8.9509   -3.9977 N   0  0  0  0  0  0  0  0  0  0  0  0
   16.4740    9.0045   -5.1286 O   0  0  0  0  0  0  0  0  0  0  0  0
   17.9499    9.5552   -3.6293 O   0  0  0  0  0  0  0  0  0  0  0  0
   14.3084    5.1024    1.1564 N   0  0  0  0  0  0  0  0  0  0  0  0
   13.6469    4.4115    1.7070 N   0  0  0  0  0  0  0  0  0  0  0  0
   11.4698    4.2516   -2.3305 C   0  0  0  0  0  0  0  0  0  0  0  0
   11.7996    4.0757   -1.1866 O   0  0  0  0  0  0  0  0  0  0  0  0
   12.0653    5.0319   -3.2314 O   0  0  0  0  0  0  0  0  0  0  0  0
   10.2343    3.5598   -2.9656 C   0  0  0  0  0  0  0  0  0  0  0  0
   10.6043    2.8040   -4.0227 F   0  0  0  0  0  0  0  0  0  0  0  0
    9.3452    4.4805   -3.3985 F   0  0  0  0  0  0  0  0  0  0  0  0
    9.6238    2.7697   -2.0750 F   0  0  0  0  0  0  0  0  0  0  0  0
  1  6  2  0  0  0  0
  1  2  1  0  0  0  0
  2  3  2  0  0  0  0
  3  4  1  0  0  0  0
  4  9  1  0  0  0  0
  5 10  1  0  0  0  0
  5  4  2  0  0  0  0
  6  5  1  0  0  0  0
  7  1  1  0  0  0  0
 11 13  2  0  0  0  0
 11  6  1  0  0  0  0
 12 11  2  0  0  0  0
 14 15  3  0  0  0  0
 16 17  2  0  0  0  0
 18  8  1  0  0  0  0
 18 16  1  0  0  0  0
 19 16  1  0  0  0  0
 19 22  1  0  0  0  0
 20 19  1  0  0  0  0
 21 19  1  0  0  0  0
M  RAD  2   2   2   3   2
M  END
