Coordinates from ORCA-job p-NO2-Ph-N2-OOCCF3-B3LYPG-aug-cc-pVDZ-scan-d09-49-n400
 OpenBabel10311713223D

 22 20  0  0  0  0  0  0  0  0999 V2000
   15.1577    7.4560   -3.5592 C   0  0  0  0  0  0  0  0  0  0  0  0
   14.5537    6.6498   -2.5842 C   0  0  0  0  0  0  0  0  0  0  0  0
   15.0629    6.6097   -1.4355 C   0  0  0  0  0  0  0  0  0  0  0  0
   16.1383    7.1794   -0.8014 C   0  0  0  0  0  0  0  0  0  0  0  0
   16.7846    8.0062   -1.7466 C   0  0  0  0  0  0  0  0  0  0  0  0
   16.2982    8.1254   -3.0651 C   0  0  0  0  0  0  0  0  0  0  0  0
   14.8272    7.5849   -4.5862 H   0  0  0  0  0  0  0  0  0  0  0  0
   12.8181    5.4786   -2.9208 H   0  0  0  0  0  0  0  0  0  0  0  0
   16.4721    7.0535    0.2238 H   0  0  0  0  0  0  0  0  0  0  0  0
   17.6739    8.5648   -1.4617 H   0  0  0  0  0  0  0  0  0  0  0  0
   17.0343    9.0135   -3.9949 N   0  0  0  0  0  0  0  0  0  0  0  0
   16.6046    9.1117   -5.1399 O   0  0  0  0  0  0  0  0  0  0  0  0
   18.0264    9.5968   -3.5675 O   0  0  0  0  0  0  0  0  0  0  0  0
   14.2199    4.9309    1.4419 N   0  0  0  0  0  0  0  0  0  0  0  0
   13.5748    4.2443    2.0169 N   0  0  0  0  0  0  0  0  0  0  0  0
   11.4772    4.2614   -2.3401 C   0  0  0  0  0  0  0  0  0  0  0  0
   11.8535    4.1259   -1.2053 O   0  0  0  0  0  0  0  0  0  0  0  0
   12.0276    5.0214   -3.2867 O   0  0  0  0  0  0  0  0  0  0  0  0
   10.2286    3.5351   -2.9064 C   0  0  0  0  0  0  0  0  0  0  0  0
   10.5692    2.7509   -3.9525 F   0  0  0  0  0  0  0  0  0  0  0  0
    9.3117    4.4306   -3.3340 F   0  0  0  0  0  0  0  0  0  0  0  0
    9.6625    2.7662   -1.9691 F   0  0  0  0  0  0  0  0  0  0  0  0
  1  6  2  0  0  0  0
  1  2  1  0  0  0  0
  2  3  2  0  0  0  0
  3  4  1  0  0  0  0
  4  9  1  0  0  0  0
  5 10  1  0  0  0  0
  5  4  2  0  0  0  0
  6  5  1  0  0  0  0
  7  1  1  0  0  0  0
 11 13  2  0  0  0  0
 11  6  1  0  0  0  0
 12 11  2  0  0  0  0
 14 15  3  0  0  0  0
 16 17  2  0  0  0  0
 18  8  1  0  0  0  0
 18 16  1  0  0  0  0
 19 16  1  0  0  0  0
 19 22  1  0  0  0  0
 20 19  1  0  0  0  0
 21 19  1  0  0  0  0
M  RAD  2   2   2   3   2
M  END
