Coordinates from ORCA-job p-NO2-Ph-N2-OOCCF3-B3LYPG-aug-cc-pVDZ-scan-d09-49-n400
 OpenBabel10311713223D

 22 20  0  0  0  0  0  0  0  0999 V2000
   15.2965    7.6874   -3.9070 C   0  0  0  0  0  0  0  0  0  0  0  0
   14.5103    6.8213   -3.1427 C   0  0  0  0  0  0  0  0  0  0  0  0
   14.7972    6.5952   -1.9420 C   0  0  0  0  0  0  0  0  0  0  0  0
   15.7844    7.0157   -1.0811 C   0  0  0  0  0  0  0  0  0  0  0  0
   16.6191    7.9005   -1.7974 C   0  0  0  0  0  0  0  0  0  0  0  0
   16.3691    8.2101   -3.1513 C   0  0  0  0  0  0  0  0  0  0  0  0
   15.1490    7.9589   -4.9483 H   0  0  0  0  0  0  0  0  0  0  0  0
   12.6626    5.5083   -3.3233 H   0  0  0  0  0  0  0  0  0  0  0  0
   15.9373    6.7481   -0.0397 H   0  0  0  0  0  0  0  0  0  0  0  0
   17.4748    8.3581   -1.3052 H   0  0  0  0  0  0  0  0  0  0  0  0
   17.2948    9.1483   -3.8283 N   0  0  0  0  0  0  0  0  0  0  0  0
   17.0698    9.4118   -5.0055 O   0  0  0  0  0  0  0  0  0  0  0  0
   18.2288    9.6054   -3.1757 O   0  0  0  0  0  0  0  0  0  0  0  0
   14.2670    4.7530    2.0171 N   0  0  0  0  0  0  0  0  0  0  0  0
   13.6060    4.0679    2.5761 N   0  0  0  0  0  0  0  0  0  0  0  0
   11.5205    4.3152   -2.3972 C   0  0  0  0  0  0  0  0  0  0  0  0
   12.0834    4.3466   -1.3339 O   0  0  0  0  0  0  0  0  0  0  0  0
   11.8605    4.9755   -3.5051 O   0  0  0  0  0  0  0  0  0  0  0  0
   10.2520    3.4614   -2.6571 C   0  0  0  0  0  0  0  0  0  0  0  0
   10.4765    2.5673   -3.6444 F   0  0  0  0  0  0  0  0  0  0  0  0
    9.2190    4.2482   -3.0291 F   0  0  0  0  0  0  0  0  0  0  0  0
    9.8983    2.7927   -1.5535 F   0  0  0  0  0  0  0  0  0  0  0  0
  1  6  2  0  0  0  0
  1  2  1  0  0  0  0
  2  3  2  0  0  0  0
  3  4  1  0  0  0  0
  4  9  1  0  0  0  0
  5 10  1  0  0  0  0
  5  4  2  0  0  0  0
  6  5  1  0  0  0  0
  7  1  1  0  0  0  0
 11 13  2  0  0  0  0
 11  6  1  0  0  0  0
 12 11  2  0  0  0  0
 14 15  3  0  0  0  0
 16 17  2  0  0  0  0
 18  8  1  0  0  0  0
 18 16  1  0  0  0  0
 19 16  1  0  0  0  0
 19 22  1  0  0  0  0
 20 19  1  0  0  0  0
 21 19  1  0  0  0  0
M  RAD  2   2   2   3   2
M  END
