Coordinates from ORCA-job p-NO2-Ph-N2-OOCCF3-B3LYPG-aug-cc-pVDZ-scan-d09-49-n400
 OpenBabel10311713223D

 22 20  0  0  0  0  0  0  0  0999 V2000
   15.0543    7.2868   -3.3048 C   0  0  0  0  0  0  0  0  0  0  0  0
   14.5261    6.5099   -2.2531 C   0  0  0  0  0  0  0  0  0  0  0  0
   15.1543    6.5776   -1.1578 C   0  0  0  0  0  0  0  0  0  0  0  0
   16.2544    7.2087   -0.6443 C   0  0  0  0  0  0  0  0  0  0  0  0
   16.8032    7.9947   -1.6792 C   0  0  0  0  0  0  0  0  0  0  0  0
   16.2075    8.0175   -2.9561 C   0  0  0  0  0  0  0  0  0  0  0  0
   14.6401    7.3448   -4.3082 H   0  0  0  0  0  0  0  0  0  0  0  0
   12.9074    5.4893   -2.7602 H   0  0  0  0  0  0  0  0  0  0  0  0
   16.6666    7.1495    0.3582 H   0  0  0  0  0  0  0  0  0  0  0  0
   17.6945    8.5917   -1.4980 H   0  0  0  0  0  0  0  0  0  0  0  0
   16.8365    8.8648   -3.9956 N   0  0  0  0  0  0  0  0  0  0  0  0
   16.3126    8.8801   -5.1048 O   0  0  0  0  0  0  0  0  0  0  0  0
   17.8410    9.5002   -3.6871 O   0  0  0  0  0  0  0  0  0  0  0  0
   14.3769    5.2697    0.8435 N   0  0  0  0  0  0  0  0  0  0  0  0
   13.6982    4.5758    1.3692 N   0  0  0  0  0  0  0  0  0  0  0  0
   11.5008    4.2752   -2.3325 C   0  0  0  0  0  0  0  0  0  0  0  0
   11.7983    4.0726   -1.1830 O   0  0  0  0  0  0  0  0  0  0  0  0
   12.1257    5.0656   -3.1996 O   0  0  0  0  0  0  0  0  0  0  0  0
   10.2752    3.6067   -3.0104 C   0  0  0  0  0  0  0  0  0  0  0  0
   10.6637    2.8678   -4.0729 F   0  0  0  0  0  0  0  0  0  0  0  0
    9.4041    4.5432   -3.4468 F   0  0  0  0  0  0  0  0  0  0  0  0
    9.6355    2.8047   -2.1508 F   0  0  0  0  0  0  0  0  0  0  0  0
  1  6  2  0  0  0  0
  1  2  1  0  0  0  0
  2  3  2  0  0  0  0
  3  4  1  0  0  0  0
  4  9  1  0  0  0  0
  5 10  1  0  0  0  0
  5  4  2  0  0  0  0
  6  5  1  0  0  0  0
  7  1  1  0  0  0  0
 11 13  2  0  0  0  0
 11  6  1  0  0  0  0
 12 11  2  0  0  0  0
 14 15  3  0  0  0  0
 16 17  2  0  0  0  0
 18  8  1  0  0  0  0
 18 16  1  0  0  0  0
 19 16  1  0  0  0  0
 19 22  1  0  0  0  0
 20 19  1  0  0  0  0
 21 19  1  0  0  0  0
M  RAD  2   2   2   3   2
M  END
