Coordinates from ORCA-job p-NO2-Ph-N2-OOCCF3-B3LYPG-aug-cc-pVDZ-scan-d09-49-n400
 OpenBabel10311713223D

 22 21  0  0  0  0  0  0  0  0999 V2000
   14.6433    8.1985   -2.9888 C   0  0  0  0  0  0  0  0  0  0  0  0
   13.8024    7.6126   -2.0576 C   0  0  0  0  0  0  0  0  0  0  0  0
   14.3428    6.7185   -1.0716 C   0  0  0  0  0  0  0  0  0  0  0  0
   15.7513    6.4354   -1.0869 C   0  0  0  0  0  0  0  0  0  0  0  0
   16.5687    7.0301   -2.0280 C   0  0  0  0  0  0  0  0  0  0  0  0
   16.0075    7.9072   -2.9621 C   0  0  0  0  0  0  0  0  0  0  0  0
   14.2485    8.8733   -3.7443 H   0  0  0  0  0  0  0  0  0  0  0  0
   12.7296    7.7808   -2.0627 H   0  0  0  0  0  0  0  0  0  0  0  0
   16.1486    5.7422   -0.3474 H   0  0  0  0  0  0  0  0  0  0  0  0
   17.6357    6.8237   -2.0527 H   0  0  0  0  0  0  0  0  0  0  0  0
   16.8951    8.5459   -3.9581 N   0  0  0  0  0  0  0  0  0  0  0  0
   16.3804    9.3217   -4.7559 O   0  0  0  0  0  0  0  0  0  0  0  0
   18.0869    8.2572   -3.9159 O   0  0  0  0  0  0  0  0  0  0  0  0
   13.6645    6.2255   -0.3133 N   0  0  0  0  0  0  0  0  0  0  0  0
   12.9594    5.6304    0.3493 N   0  0  0  0  0  0  0  0  0  0  0  0
   11.9281    4.3088   -1.9394 C   0  0  0  0  0  0  0  0  0  0  0  0
   12.4416    3.8446   -0.8778 O   0  0  0  0  0  0  0  0  0  0  0  0
   11.9135    5.4740   -2.3632 O   0  0  0  0  0  0  0  0  0  0  0  0
   11.2220    3.2066   -2.8017 C   0  0  0  0  0  0  0  0  0  0  0  0
   12.0861    2.2107   -3.1197 F   0  0  0  0  0  0  0  0  0  0  0  0
   10.7310    3.6967   -3.9556 F   0  0  0  0  0  0  0  0  0  0  0  0
   10.1900    2.6524   -2.1212 F   0  0  0  0  0  0  0  0  0  0  0  0
  1  6  2  0  0  0  0
  1  2  1  0  0  0  0
  2  3  2  0  0  0  0
  3 14  1  0  0  0  0
  4  3  1  0  0  0  0
  4  9  1  0  0  0  0
  5  4  2  0  0  0  0
  6  5  1  0  0  0  0
  7  1  1  0  0  0  0
  8  2  1  0  0  0  0
 10  5  1  0  0  0  0
 11 13  2  0  0  0  0
 11  6  1  0  0  0  0
 12 11  2  0  0  0  0
 14 15  1  0  0  0  0
 16 17  1  0  0  0  0
 18 16  2  0  0  0  0
 19 22  1  0  0  0  0
 19 16  1  0  0  0  0
 20 19  1  0  0  0  0
 21 19  1  0  0  0  0
M  RAD  3  14   2  15   3  17   2
M  END
