Coordinates from ORCA-job p-NO2-Ph-N2-OOCCF3-B3LYPG-aug-cc-pVDZ-scan-d09-49-n400
 OpenBabel10311713223D

 22 20  0  0  0  0  0  0  0  0999 V2000
   15.0505    7.2811   -3.2975 C   0  0  0  0  0  0  0  0  0  0  0  0
   14.5233    6.5047   -2.2446 C   0  0  0  0  0  0  0  0  0  0  0  0
   15.1544    6.5750   -1.1504 C   0  0  0  0  0  0  0  0  0  0  0  0
   16.2553    7.2080   -0.6407 C   0  0  0  0  0  0  0  0  0  0  0  0
   16.8020    7.9929   -1.6772 C   0  0  0  0  0  0  0  0  0  0  0  0
   16.2037    8.0133   -2.9528 C   0  0  0  0  0  0  0  0  0  0  0  0
   14.6344    7.3375   -4.3003 H   0  0  0  0  0  0  0  0  0  0  0  0
   12.9120    5.4915   -2.7568 H   0  0  0  0  0  0  0  0  0  0  0  0
   16.6693    7.1504    0.3611 H   0  0  0  0  0  0  0  0  0  0  0  0
   17.6933    8.5907   -1.4983 H   0  0  0  0  0  0  0  0  0  0  0  0
   16.8300    8.8594   -3.9949 N   0  0  0  0  0  0  0  0  0  0  0  0
   16.3036    8.8731   -5.1029 O   0  0  0  0  0  0  0  0  0  0  0  0
   17.8343    9.4965   -3.6892 O   0  0  0  0  0  0  0  0  0  0  0  0
   14.3802    5.2799    0.8227 N   0  0  0  0  0  0  0  0  0  0  0  0
   13.7021    4.5862    1.3494 N   0  0  0  0  0  0  0  0  0  0  0  0
   11.5041    4.2776   -2.3325 C   0  0  0  0  0  0  0  0  0  0  0  0
   11.8004    4.0740   -1.1827 O   0  0  0  0  0  0  0  0  0  0  0  0
   12.1301    5.0684   -3.1980 O   0  0  0  0  0  0  0  0  0  0  0  0
   10.2789    3.6101   -3.0120 C   0  0  0  0  0  0  0  0  0  0  0  0
   10.6682    2.8718   -4.0747 F   0  0  0  0  0  0  0  0  0  0  0  0
    9.4086    4.5472   -3.4486 F   0  0  0  0  0  0  0  0  0  0  0  0
    9.6381    2.8076   -2.1537 F   0  0  0  0  0  0  0  0  0  0  0  0
  1  6  2  0  0  0  0
  1  2  1  0  0  0  0
  2  3  2  0  0  0  0
  3  4  1  0  0  0  0
  4  9  1  0  0  0  0
  5 10  1  0  0  0  0
  5  4  2  0  0  0  0
  6  5  1  0  0  0  0
  7  1  1  0  0  0  0
 11 13  2  0  0  0  0
 11  6  1  0  0  0  0
 12 11  2  0  0  0  0
 14 15  3  0  0  0  0
 16 17  2  0  0  0  0
 18  8  1  0  0  0  0
 18 16  1  0  0  0  0
 19 16  1  0  0  0  0
 19 22  1  0  0  0  0
 20 19  1  0  0  0  0
 21 19  1  0  0  0  0
M  RAD  2   2   2   3   2
M  END
