Coordinates from ORCA-job p-NO2-Ph-N2-OOCCF3-B3LYPG-aug-cc-pVDZ-scan-d09-49-n400
 OpenBabel10311713223D

 22 20  0  0  0  0  0  0  0  0999 V2000
   14.8252    7.4622   -3.1843 C   0  0  0  0  0  0  0  0  0  0  0  0
   14.1314    6.7567   -2.1757 C   0  0  0  0  0  0  0  0  0  0  0  0
   14.8885    6.6155   -1.0751 C   0  0  0  0  0  0  0  0  0  0  0  0
   16.1446    7.0046   -0.6969 C   0  0  0  0  0  0  0  0  0  0  0  0
   16.7983    7.6974   -1.7269 C   0  0  0  0  0  0  0  0  0  0  0  0
   16.1255    7.9085   -2.9367 C   0  0  0  0  0  0  0  0  0  0  0  0
   14.3477    7.6567   -4.1425 H   0  0  0  0  0  0  0  0  0  0  0  0
   13.0739    6.3606   -2.3028 H   0  0  0  0  0  0  0  0  0  0  0  0
   16.5961    6.8038    0.2702 H   0  0  0  0  0  0  0  0  0  0  0  0
   17.8118    8.0680   -1.5926 H   0  0  0  0  0  0  0  0  0  0  0  0
   16.8354    8.6516   -4.0083 N   0  0  0  0  0  0  0  0  0  0  0  0
   16.2328    8.8373   -5.0578 O   0  0  0  0  0  0  0  0  0  0  0  0
   17.9773    9.0292   -3.7687 O   0  0  0  0  0  0  0  0  0  0  0  0
   13.9588    5.6503    0.3312 N   0  0  0  0  0  0  0  0  0  0  0  0
   13.1654    4.8771    0.4673 N   0  0  0  0  0  0  0  0  0  0  0  0
   11.6829    4.4483   -2.2050 C   0  0  0  0  0  0  0  0  0  0  0  0
   12.5039    3.8314   -1.4898 O   0  0  0  0  0  0  0  0  0  0  0  0
   11.5765    5.6774   -2.4265 O   0  0  0  0  0  0  0  0  0  0  0  0
   10.6586    3.5184   -2.9416 C   0  0  0  0  0  0  0  0  0  0  0  0
   11.3062    2.7067   -3.8150 F   0  0  0  0  0  0  0  0  0  0  0  0
    9.7332    4.2035   -3.6395 F   0  0  0  0  0  0  0  0  0  0  0  0
   10.0030    2.7317   -2.0577 F   0  0  0  0  0  0  0  0  0  0  0  0
  1  6  2  0  0  0  0
  1  2  1  0  0  0  0
  2  3  2  0  0  0  0
  3  4  1  0  0  0  0
  4  9  1  0  0  0  0
  5 10  1  0  0  0  0
  5  4  2  0  0  0  0
  6  5  1  0  0  0  0
  7  1  1  0  0  0  0
  8  2  1  0  0  0  0
 11 13  2  0  0  0  0
 11  6  1  0  0  0  0
 12 11  2  0  0  0  0
 14 15  3  0  0  0  0
 16 17  1  0  0  0  0
 18 16  2  0  0  0  0
 19 16  1  0  0  0  0
 19 22  1  0  0  0  0
 20 19  1  0  0  0  0
 21 19  1  0  0  0  0
M  RAD  2   3   2  17   2
M  END
