Coordinates from ORCA-job p-NO2-Ph-N2-OOCCF3-B3LYPG-aug-cc-pVDZ-scan-d09-49-n400
 OpenBabel10311713223D

 22 20  0  0  0  0  0  0  0  0999 V2000
   15.3560    7.7834   -4.0538 C   0  0  0  0  0  0  0  0  0  0  0  0
   14.4790    6.8986   -3.4222 C   0  0  0  0  0  0  0  0  0  0  0  0
   14.6448    6.5827   -2.2196 C   0  0  0  0  0  0  0  0  0  0  0  0
   15.5617    6.9106   -1.2465 C   0  0  0  0  0  0  0  0  0  0  0  0
   16.4846    7.8094   -1.8234 C   0  0  0  0  0  0  0  0  0  0  0  0
   16.3697    8.2161   -3.1704 C   0  0  0  0  0  0  0  0  0  0  0  0
   15.3132    8.1277   -5.0830 H   0  0  0  0  0  0  0  0  0  0  0  0
   12.5793    5.5310   -3.5593 H   0  0  0  0  0  0  0  0  0  0  0  0
   15.6127    6.5718   -0.2157 H   0  0  0  0  0  0  0  0  0  0  0  0
   17.3049    8.2029   -1.2266 H   0  0  0  0  0  0  0  0  0  0  0  0
   17.3817    9.1623   -3.6953 N   0  0  0  0  0  0  0  0  0  0  0  0
   17.2715    9.5146   -4.8658 O   0  0  0  0  0  0  0  0  0  0  0  0
   18.2623    9.5454   -2.9305 O   0  0  0  0  0  0  0  0  0  0  0  0
   14.2902    4.7219    2.1578 N   0  0  0  0  0  0  0  0  0  0  0  0
   13.6663    4.0394    2.7609 N   0  0  0  0  0  0  0  0  0  0  0  0
   11.5846    4.3778   -2.4376 C   0  0  0  0  0  0  0  0  0  0  0  0
   12.2487    4.5102   -1.4416 O   0  0  0  0  0  0  0  0  0  0  0  0
   11.7860    4.9604   -3.6201 O   0  0  0  0  0  0  0  0  0  0  0  0
   10.3320    3.4652   -2.5014 C   0  0  0  0  0  0  0  0  0  0  0  0
   10.4931    2.5051   -3.4374 F   0  0  0  0  0  0  0  0  0  0  0  0
    9.2366    4.1868   -2.8225 F   0  0  0  0  0  0  0  0  0  0  0  0
   10.1182    2.8737   -1.3205 F   0  0  0  0  0  0  0  0  0  0  0  0
  1  2  2  0  0  0  0
  1  6  1  0  0  0  0
  2  3  1  0  0  0  0
  3  4  2  0  0  0  0
  4  9  1  0  0  0  0
  5  4  1  0  0  0  0
  5 10  1  0  0  0  0
  6  5  2  0  0  0  0
  7  1  1  0  0  0  0
 11  6  1  0  0  0  0
 11 13  2  0  0  0  0
 12 11  2  0  0  0  0
 14 15  3  0  0  0  0
 16 17  2  0  0  0  0
 18  8  1  0  0  0  0
 18 16  1  0  0  0  0
 19 16  1  0  0  0  0
 19 22  1  0  0  0  0
 20 19  1  0  0  0  0
 21 19  1  0  0  0  0
M  RAD  2   2   2   3   2
M  END
