Coordinates from ORCA-job p-NO2-Ph-N2-OOCCF3-B3LYPG-aug-cc-pVDZ-scan-d09-49-n400
 OpenBabel10311713223D

 22 20  0  0  0  0  0  0  0  0999 V2000
   15.3468    7.7700   -4.0338 C   0  0  0  0  0  0  0  0  0  0  0  0
   14.4822    6.8871   -3.3826 C   0  0  0  0  0  0  0  0  0  0  0  0
   14.6662    6.5841   -2.1791 C   0  0  0  0  0  0  0  0  0  0  0  0
   15.5940    6.9258   -1.2216 C   0  0  0  0  0  0  0  0  0  0  0  0
   16.5047    7.8235   -1.8192 C   0  0  0  0  0  0  0  0  0  0  0  0
   16.3699    8.2164   -3.1683 C   0  0  0  0  0  0  0  0  0  0  0  0
   15.2886    8.1041   -5.0657 H   0  0  0  0  0  0  0  0  0  0  0  0
   12.5920    5.5283   -3.5256 H   0  0  0  0  0  0  0  0  0  0  0  0
   15.6602    6.5972   -0.1884 H   0  0  0  0  0  0  0  0  0  0  0  0
   17.3309    8.2267   -1.2371 H   0  0  0  0  0  0  0  0  0  0  0  0
   17.3700    9.1625   -3.7159 N   0  0  0  0  0  0  0  0  0  0  0  0
   17.2445    9.5000   -4.8892 O   0  0  0  0  0  0  0  0  0  0  0  0
   18.2607    9.5548   -2.9676 O   0  0  0  0  0  0  0  0  0  0  0  0
   14.2963    4.7268    2.1547 N   0  0  0  0  0  0  0  0  0  0  0  0
   13.6680    4.0439    2.7529 N   0  0  0  0  0  0  0  0  0  0  0  0
   11.5716    4.3688   -2.4336 C   0  0  0  0  0  0  0  0  0  0  0  0
   12.2207    4.4848   -1.4259 O   0  0  0  0  0  0  0  0  0  0  0  0
   11.7962    4.9634   -3.6060 O   0  0  0  0  0  0  0  0  0  0  0  0
   10.3161    3.4631   -2.5293 C   0  0  0  0  0  0  0  0  0  0  0  0
   10.4881    2.5138   -3.4744 F   0  0  0  0  0  0  0  0  0  0  0  0
    9.2294    4.1938   -2.8595 F   0  0  0  0  0  0  0  0  0  0  0  0
   10.0800    2.8581   -1.3596 F   0  0  0  0  0  0  0  0  0  0  0  0
  1  2  2  0  0  0  0
  1  6  1  0  0  0  0
  2  3  1  0  0  0  0
  3  4  2  0  0  0  0
  4  9  1  0  0  0  0
  5 10  1  0  0  0  0
  5  4  1  0  0  0  0
  6  5  2  0  0  0  0
  7  1  1  0  0  0  0
 11  6  1  0  0  0  0
 11 13  2  0  0  0  0
 12 11  2  0  0  0  0
 14 15  3  0  0  0  0
 16 17  2  0  0  0  0
 18  8  1  0  0  0  0
 18 16  1  0  0  0  0
 19 16  1  0  0  0  0
 19 22  1  0  0  0  0
 20 19  1  0  0  0  0
 21 19  1  0  0  0  0
M  RAD  2   2   2   3   2
M  END
