Coordinates from ORCA-job p-NO2-Ph-N2-OOCCF3-B3LYPG-aug-cc-pVDZ-scan-d09-49-n400
 OpenBabel10311713223D

 22 20  0  0  0  0  0  0  0  0999 V2000
   14.9913    7.2610   -3.1940 C   0  0  0  0  0  0  0  0  0  0  0  0
   14.4520    6.4408   -2.1692 C   0  0  0  0  0  0  0  0  0  0  0  0
   15.1477    6.5019   -1.0839 C   0  0  0  0  0  0  0  0  0  0  0  0
   16.2789    7.1357   -0.6286 C   0  0  0  0  0  0  0  0  0  0  0  0
   16.8039    7.9416   -1.6486 C   0  0  0  0  0  0  0  0  0  0  0  0
   16.1545    7.9854   -2.8960 C   0  0  0  0  0  0  0  0  0  0  0  0
   14.5408    7.3416   -4.1812 H   0  0  0  0  0  0  0  0  0  0  0  0
   12.9427    5.5870   -2.6785 H   0  0  0  0  0  0  0  0  0  0  0  0
   16.7227    7.0485    0.3594 H   0  0  0  0  0  0  0  0  0  0  0  0
   17.7036    8.5297   -1.4857 H   0  0  0  0  0  0  0  0  0  0  0  0
   16.7413    8.8485   -3.9491 N   0  0  0  0  0  0  0  0  0  0  0  0
   16.1750    8.8804   -5.0362 O   0  0  0  0  0  0  0  0  0  0  0  0
   17.7570    9.4798   -3.6690 O   0  0  0  0  0  0  0  0  0  0  0  0
   14.4564    5.3979    0.4242 N   0  0  0  0  0  0  0  0  0  0  0  0
   13.7062    4.7613    0.9276 N   0  0  0  0  0  0  0  0  0  0  0  0
   11.5497    4.3132   -2.3159 C   0  0  0  0  0  0  0  0  0  0  0  0
   11.9027    3.9931   -1.2044 O   0  0  0  0  0  0  0  0  0  0  0  0
   12.1112    5.2011   -3.1139 O   0  0  0  0  0  0  0  0  0  0  0  0
   10.3329    3.6319   -2.9983 C   0  0  0  0  0  0  0  0  0  0  0  0
   10.7683    2.5756   -3.7276 F   0  0  0  0  0  0  0  0  0  0  0  0
    9.6712    4.4638   -3.8255 F   0  0  0  0  0  0  0  0  0  0  0  0
    9.4669    3.1773   -2.0802 F   0  0  0  0  0  0  0  0  0  0  0  0
  1  6  2  0  0  0  0
  1  2  1  0  0  0  0
  2  3  2  0  0  0  0
  3  4  1  0  0  0  0
  4  9  1  0  0  0  0
  5 10  1  0  0  0  0
  5  4  2  0  0  0  0
  6  5  1  0  0  0  0
  7  1  1  0  0  0  0
 11 13  2  0  0  0  0
 11  6  1  0  0  0  0
 12 11  2  0  0  0  0
 14 15  3  0  0  0  0
 16 17  2  0  0  0  0
 18  8  1  0  0  0  0
 18 16  1  0  0  0  0
 19 16  1  0  0  0  0
 19 22  1  0  0  0  0
 20 19  1  0  0  0  0
 21 19  1  0  0  0  0
M  RAD  2   2   2   3   2
M  END
