Coordinates from ORCA-job p-NO2-Ph-N2-OOCCF3-B3LYPG-aug-cc-pVDZ-scan-d09-49-n400
 OpenBabel10311713223D

 22 20  0  0  0  0  0  0  0  0999 V2000
   15.3165    7.7191   -3.9568 C   0  0  0  0  0  0  0  0  0  0  0  0
   14.4986    6.8452   -3.2356 C   0  0  0  0  0  0  0  0  0  0  0  0
   14.7472    6.5901   -2.0326 C   0  0  0  0  0  0  0  0  0  0  0  0
   15.7113    6.9789   -1.1311 C   0  0  0  0  0  0  0  0  0  0  0  0
   16.5762    7.8698   -1.8031 C   0  0  0  0  0  0  0  0  0  0  0  0
   16.3710    8.2124   -3.1570 C   0  0  0  0  0  0  0  0  0  0  0  0
   15.2038    8.0154   -4.9956 H   0  0  0  0  0  0  0  0  0  0  0  0
   12.6338    5.5132   -3.3997 H   0  0  0  0  0  0  0  0  0  0  0  0
   15.8324    6.6886   -0.0916 H   0  0  0  0  0  0  0  0  0  0  0  0
   17.4216    8.3071   -1.2757 H   0  0  0  0  0  0  0  0  0  0  0  0
   17.3272    9.1548   -3.7839 N   0  0  0  0  0  0  0  0  0  0  0  0
   17.1388    9.4506   -4.9599 O   0  0  0  0  0  0  0  0  0  0  0  0
   18.2431    9.5900   -3.0919 O   0  0  0  0  0  0  0  0  0  0  0  0
   14.3078    4.7591    2.0864 N   0  0  0  0  0  0  0  0  0  0  0  0
   13.6590    4.0759    2.6619 N   0  0  0  0  0  0  0  0  0  0  0  0
   11.5318    4.3295   -2.4142 C   0  0  0  0  0  0  0  0  0  0  0  0
   12.1239    4.3893   -1.3677 O   0  0  0  0  0  0  0  0  0  0  0  0
   11.8329    4.9683   -3.5459 O   0  0  0  0  0  0  0  0  0  0  0  0
   10.2652    3.4580   -2.6188 C   0  0  0  0  0  0  0  0  0  0  0  0
   10.4705    2.5451   -3.5929 F   0  0  0  0  0  0  0  0  0  0  0  0
    9.2140    4.2267   -2.9774 F   0  0  0  0  0  0  0  0  0  0  0  0
    9.9503    2.8101   -1.4914 F   0  0  0  0  0  0  0  0  0  0  0  0
  1  2  2  0  0  0  0
  1  6  1  0  0  0  0
  2  3  1  0  0  0  0
  3  4  2  0  0  0  0
  4  9  1  0  0  0  0
  5 10  1  0  0  0  0
  5  4  1  0  0  0  0
  6  5  2  0  0  0  0
  7  1  1  0  0  0  0
 11  6  1  0  0  0  0
 11 13  2  0  0  0  0
 12 11  2  0  0  0  0
 14 15  3  0  0  0  0
 16 17  2  0  0  0  0
 18  8  1  0  0  0  0
 18 16  1  0  0  0  0
 19 16  1  0  0  0  0
 19 22  1  0  0  0  0
 20 19  1  0  0  0  0
 21 19  1  0  0  0  0
M  RAD  2   2   2   3   2
M  END
