Coordinates from ORCA-job p-NO2-Ph-N2-OOCCF3-B3LYPG-aug-cc-pVDZ-scan-d09-49-n400
 OpenBabel10311713223D

 22 20  0  0  0  0  0  0  0  0999 V2000
   15.3075    7.7058   -3.9352 C   0  0  0  0  0  0  0  0  0  0  0  0
   14.5026    6.8348   -3.1966 C   0  0  0  0  0  0  0  0  0  0  0  0
   14.7654    6.5903   -1.9944 C   0  0  0  0  0  0  0  0  0  0  0  0
   15.7392    6.9919   -1.1089 C   0  0  0  0  0  0  0  0  0  0  0  0
   16.5923    7.8808   -1.7983 C   0  0  0  0  0  0  0  0  0  0  0  0
   16.3693    8.2107   -3.1524 C   0  0  0  0  0  0  0  0  0  0  0  0
   15.1810    7.9925   -4.9751 H   0  0  0  0  0  0  0  0  0  0  0  0
   12.6433    5.5104   -3.3699 H   0  0  0  0  0  0  0  0  0  0  0  0
   15.8728    6.7101   -0.0686 H   0  0  0  0  0  0  0  0  0  0  0  0
   17.4419    8.3260   -1.2846 H   0  0  0  0  0  0  0  0  0  0  0  0
   17.3136    9.1518   -3.7991 N   0  0  0  0  0  0  0  0  0  0  0  0
   17.1120    9.4334   -4.9764 O   0  0  0  0  0  0  0  0  0  0  0  0
   18.2381    9.5939   -3.1231 O   0  0  0  0  0  0  0  0  0  0  0  0
   14.3094    4.7688    2.0609 N   0  0  0  0  0  0  0  0  0  0  0  0
   13.6548    4.0853    2.6294 N   0  0  0  0  0  0  0  0  0  0  0  0
   11.5240    4.3223   -2.4105 C   0  0  0  0  0  0  0  0  0  0  0  0
   12.1037    4.3699   -1.3566 O   0  0  0  0  0  0  0  0  0  0  0  0
   11.8418    4.9708   -3.5321 O   0  0  0  0  0  0  0  0  0  0  0  0
   10.2565    3.4582   -2.6390 C   0  0  0  0  0  0  0  0  0  0  0  0
   10.4700    2.5535   -3.6189 F   0  0  0  0  0  0  0  0  0  0  0  0
    9.2130    4.2346   -3.0034 F   0  0  0  0  0  0  0  0  0  0  0  0
    9.9248    2.8012   -1.5217 F   0  0  0  0  0  0  0  0  0  0  0  0
  1  2  2  0  0  0  0
  1  6  1  0  0  0  0
  2  3  1  0  0  0  0
  3  4  2  0  0  0  0
  4  9  1  0  0  0  0
  5 10  1  0  0  0  0
  5  4  1  0  0  0  0
  6  5  2  0  0  0  0
  7  1  1  0  0  0  0
 11  6  1  0  0  0  0
 11 13  2  0  0  0  0
 12 11  2  0  0  0  0
 14 15  3  0  0  0  0
 16 17  2  0  0  0  0
 18  8  1  0  0  0  0
 18 16  1  0  0  0  0
 19 16  1  0  0  0  0
 19 22  1  0  0  0  0
 20 19  1  0  0  0  0
 21 19  1  0  0  0  0
M  RAD  2   2   2   3   2
M  END
