Coordinates from ORCA-job p-NO2-Ph-N2-OOCCF3-B3LYPG-aug-cc-pVDZ-scan-d09-49-n400
 OpenBabel10311713223D

 22 20  0  0  0  0  0  0  0  0999 V2000
   15.0216    7.2349   -3.2242 C   0  0  0  0  0  0  0  0  0  0  0  0
   14.4831    6.4510   -2.1740 C   0  0  0  0  0  0  0  0  0  0  0  0
   15.1489    6.5487   -1.0868 C   0  0  0  0  0  0  0  0  0  0  0  0
   16.2581    7.1995   -0.6125 C   0  0  0  0  0  0  0  0  0  0  0  0
   16.7936    7.9776   -1.6534 C   0  0  0  0  0  0  0  0  0  0  0  0
   16.1732    7.9784   -2.9171 C   0  0  0  0  0  0  0  0  0  0  0  0
   14.5912    7.2797   -4.2222 H   0  0  0  0  0  0  0  0  0  0  0  0
   12.9614    5.5131   -2.7095 H   0  0  0  0  0  0  0  0  0  0  0  0
   16.6811    7.1487    0.3866 H   0  0  0  0  0  0  0  0  0  0  0  0
   17.6842    8.5799   -1.4909 H   0  0  0  0  0  0  0  0  0  0  0  0
   16.7761    8.8152   -3.9811 N   0  0  0  0  0  0  0  0  0  0  0  0
   16.2329    8.8107   -5.0807 O   0  0  0  0  0  0  0  0  0  0  0  0
   17.7837    9.4587   -3.7002 O   0  0  0  0  0  0  0  0  0  0  0  0
   14.4158    5.3968    0.5781 N   0  0  0  0  0  0  0  0  0  0  0  0
   13.7145    4.6991    1.0691 N   0  0  0  0  0  0  0  0  0  0  0  0
   11.5356    4.2941   -2.3172 C   0  0  0  0  0  0  0  0  0  0  0  0
   11.8146    4.0738   -1.1637 O   0  0  0  0  0  0  0  0  0  0  0  0
   12.1718    5.0890   -3.1627 O   0  0  0  0  0  0  0  0  0  0  0  0
   10.3142    3.6362   -3.0135 C   0  0  0  0  0  0  0  0  0  0  0  0
   10.7103    2.9044   -4.0787 F   0  0  0  0  0  0  0  0  0  0  0  0
    9.4505    4.5793   -3.4513 F   0  0  0  0  0  0  0  0  0  0  0  0
    9.6606    2.8282   -2.1690 F   0  0  0  0  0  0  0  0  0  0  0  0
  1  6  2  0  0  0  0
  1  2  1  0  0  0  0
  2  3  2  0  0  0  0
  3  4  1  0  0  0  0
  4  9  1  0  0  0  0
  5 10  1  0  0  0  0
  5  4  2  0  0  0  0
  6  5  1  0  0  0  0
  7  1  1  0  0  0  0
 11 13  2  0  0  0  0
 11  6  1  0  0  0  0
 12 11  2  0  0  0  0
 14 15  3  0  0  0  0
 16 17  2  0  0  0  0
 18  8  1  0  0  0  0
 18 16  1  0  0  0  0
 19 16  1  0  0  0  0
 19 22  1  0  0  0  0
 20 19  1  0  0  0  0
 21 19  1  0  0  0  0
M  RAD  2   2   2   3   2
M  END
