Coordinates from ORCA-job p-NO2-Ph-N2-OOCCF3-B3LYPG-aug-cc-pVDZ-scan-d09-49-n400
 OpenBabel10311713223D

 22 21  0  0  0  0  0  0  0  0999 V2000
   14.6494    8.1935   -2.9975 C   0  0  0  0  0  0  0  0  0  0  0  0
   13.8106    7.6000   -2.0666 C   0  0  0  0  0  0  0  0  0  0  0  0
   14.3641    6.7211   -1.0857 C   0  0  0  0  0  0  0  0  0  0  0  0
   15.7677    6.4511   -1.0823 C   0  0  0  0  0  0  0  0  0  0  0  0
   16.5845    7.0506   -2.0236 C   0  0  0  0  0  0  0  0  0  0  0  0
   16.0163    7.9165   -2.9631 C   0  0  0  0  0  0  0  0  0  0  0  0
   14.2515    8.8614   -3.7573 H   0  0  0  0  0  0  0  0  0  0  0  0
   12.7361    7.7560   -2.0786 H   0  0  0  0  0  0  0  0  0  0  0  0
   16.1709    5.7668   -0.3379 H   0  0  0  0  0  0  0  0  0  0  0  0
   17.6539    6.8569   -2.0433 H   0  0  0  0  0  0  0  0  0  0  0  0
   16.9016    8.5615   -3.9592 N   0  0  0  0  0  0  0  0  0  0  0  0
   16.3809    9.3244   -4.7650 O   0  0  0  0  0  0  0  0  0  0  0  0
   18.0953    8.2817   -3.9146 O   0  0  0  0  0  0  0  0  0  0  0  0
   13.6605    6.2036   -0.2913 N   0  0  0  0  0  0  0  0  0  0  0  0
   12.9590    5.5931    0.3556 N   0  0  0  0  0  0  0  0  0  0  0  0
   11.9115    4.2984   -1.9339 C   0  0  0  0  0  0  0  0  0  0  0  0
   12.4085    3.8303   -0.8659 O   0  0  0  0  0  0  0  0  0  0  0  0
   11.9175    5.4635   -2.3588 O   0  0  0  0  0  0  0  0  0  0  0  0
   11.2003    3.2050   -2.8020 C   0  0  0  0  0  0  0  0  0  0  0  0
   12.0567    2.2007   -3.1150 F   0  0  0  0  0  0  0  0  0  0  0  0
   10.7222    3.7010   -3.9589 F   0  0  0  0  0  0  0  0  0  0  0  0
   10.1579    2.6599   -2.1297 F   0  0  0  0  0  0  0  0  0  0  0  0
  1  6  2  0  0  0  0
  1  2  1  0  0  0  0
  2  3  2  0  0  0  0
  3  4  1  0  0  0  0
  3 14  1  0  0  0  0
  4  9  1  0  0  0  0
  5  4  2  0  0  0  0
  6  5  1  0  0  0  0
  7  1  1  0  0  0  0
  8  2  1  0  0  0  0
 10  5  1  0  0  0  0
 11 13  2  0  0  0  0
 11  6  1  0  0  0  0
 12 11  2  0  0  0  0
 14 15  1  0  0  0  0
 16 17  1  0  0  0  0
 18 16  2  0  0  0  0
 19 22  1  0  0  0  0
 19 16  1  0  0  0  0
 20 19  1  0  0  0  0
 21 19  1  0  0  0  0
M  RAD  3  14   2  15   3  17   2
M  END
