Coordinates from ORCA-job p-NO2-Ph-N2-OOCCF3-B3LYPG-aug-cc-pVDZ-scan-d09-49-n400
 OpenBabel10311713223D

 22 21  0  0  0  0  0  0  0  0999 V2000
   14.6849    8.1128   -3.0632 C   0  0  0  0  0  0  0  0  0  0  0  0
   13.8539    7.4801   -2.1459 C   0  0  0  0  0  0  0  0  0  0  0  0
   14.4458    6.6897   -1.1313 C   0  0  0  0  0  0  0  0  0  0  0  0
   15.8511    6.5332   -1.0372 C   0  0  0  0  0  0  0  0  0  0  0  0
   16.6615    7.1645   -1.9679 C   0  0  0  0  0  0  0  0  0  0  0  0
   16.0662    7.9481   -2.9607 C   0  0  0  0  0  0  0  0  0  0  0  0
   14.2700    8.7226   -3.8617 H   0  0  0  0  0  0  0  0  0  0  0  0
   12.7713    7.5401   -2.2075 H   0  0  0  0  0  0  0  0  0  0  0  0
   16.2753    5.9148   -0.2484 H   0  0  0  0  0  0  0  0  0  0  0  0
   17.7429    7.0612   -1.9354 H   0  0  0  0  0  0  0  0  0  0  0  0
   16.9418    8.6308   -3.9429 N   0  0  0  0  0  0  0  0  0  0  0  0
   16.3989    9.3277   -4.7922 O   0  0  0  0  0  0  0  0  0  0  0  0
   18.1508    8.4537   -3.8362 O   0  0  0  0  0  0  0  0  0  0  0  0
   13.7046    6.1121   -0.2756 N   0  0  0  0  0  0  0  0  0  0  0  0
   13.0135    5.4549    0.3295 N   0  0  0  0  0  0  0  0  0  0  0  0
   11.8164    4.2841   -1.9284 C   0  0  0  0  0  0  0  0  0  0  0  0
   12.3849    3.7836   -0.9104 O   0  0  0  0  0  0  0  0  0  0  0  0
   11.7855    5.4627   -2.3086 O   0  0  0  0  0  0  0  0  0  0  0  0
   11.0645    3.2134   -2.7893 C   0  0  0  0  0  0  0  0  0  0  0  0
   11.9120    2.2345   -3.1940 F   0  0  0  0  0  0  0  0  0  0  0  0
   10.5068    3.7446   -3.8939 F   0  0  0  0  0  0  0  0  0  0  0  0
   10.0744    2.6278   -2.0734 F   0  0  0  0  0  0  0  0  0  0  0  0
  1  6  2  0  0  0  0
  1  2  1  0  0  0  0
  2  3  2  0  0  0  0
  3  4  1  0  0  0  0
  3 14  1  0  0  0  0
  4  9  1  0  0  0  0
  5 10  1  0  0  0  0
  5  4  2  0  0  0  0
  6  5  1  0  0  0  0
  7  1  1  0  0  0  0
  8  2  1  0  0  0  0
 11 13  2  0  0  0  0
 11  6  1  0  0  0  0
 12 11  2  0  0  0  0
 14 15  1  0  0  0  0
 16 17  1  0  0  0  0
 18 16  2  0  0  0  0
 19 22  1  0  0  0  0
 19 16  1  0  0  0  0
 20 19  1  0  0  0  0
 21 19  1  0  0  0  0
M  RAD  3  14   2  15   3  17   2
M  END
