Coordinates from ORCA-job p-NO2-Ph-N2-OOCCF3-B3LYPG-aug-cc-pVDZ-scan-d09-49-n400
 OpenBabel10311713223D

 22 20  0  0  0  0  0  0  0  0999 V2000
   15.0929    7.3462   -3.3880 C   0  0  0  0  0  0  0  0  0  0  0  0
   14.5486    6.5637   -2.3545 C   0  0  0  0  0  0  0  0  0  0  0  0
   15.1352    6.5933   -1.2396 C   0  0  0  0  0  0  0  0  0  0  0  0
   16.2304    7.2076   -0.6903 C   0  0  0  0  0  0  0  0  0  0  0  0
   16.8075    8.0062   -1.7012 C   0  0  0  0  0  0  0  0  0  0  0  0
   16.2444    8.0587   -2.9926 C   0  0  0  0  0  0  0  0  0  0  0  0
   14.7033    7.4256   -4.3994 H   0  0  0  0  0  0  0  0  0  0  0  0
   12.8656    5.4711   -2.7972 H   0  0  0  0  0  0  0  0  0  0  0  0
   16.6207    7.1293    0.3194 H   0  0  0  0  0  0  0  0  0  0  0  0
   17.6993    8.5924   -1.4894 H   0  0  0  0  0  0  0  0  0  0  0  0
   16.9069    8.9195   -3.9998 N   0  0  0  0  0  0  0  0  0  0  0  0
   16.4113    8.9597   -5.1214 O   0  0  0  0  0  0  0  0  0  0  0  0
   17.9093    9.5392   -3.6552 O   0  0  0  0  0  0  0  0  0  0  0  0
   14.3359    5.1632    1.0493 N   0  0  0  0  0  0  0  0  0  0  0  0
   13.6680    4.4714    1.5910 N   0  0  0  0  0  0  0  0  0  0  0  0
   11.4749    4.2561   -2.3331 C   0  0  0  0  0  0  0  0  0  0  0  0
   11.7911    4.0693   -1.1869 O   0  0  0  0  0  0  0  0  0  0  0  0
   12.0841    5.0410   -3.2194 O   0  0  0  0  0  0  0  0  0  0  0  0
   10.2434    3.5748   -2.9873 C   0  0  0  0  0  0  0  0  0  0  0  0
   10.6216    2.8260   -4.0465 F   0  0  0  0  0  0  0  0  0  0  0  0
    9.3629    4.5028   -3.4224 F   0  0  0  0  0  0  0  0  0  0  0  0
    9.6197    2.7800   -2.1100 F   0  0  0  0  0  0  0  0  0  0  0  0
  1  6  2  0  0  0  0
  1  2  1  0  0  0  0
  2  3  2  0  0  0  0
  3  4  1  0  0  0  0
  4  9  1  0  0  0  0
  5 10  1  0  0  0  0
  5  4  2  0  0  0  0
  6  5  1  0  0  0  0
  7  1  1  0  0  0  0
 11 13  2  0  0  0  0
 11  6  1  0  0  0  0
 12 11  2  0  0  0  0
 14 15  3  0  0  0  0
 16 17  2  0  0  0  0
 18  8  1  0  0  0  0
 18 16  1  0  0  0  0
 19 16  1  0  0  0  0
 19 22  1  0  0  0  0
 20 19  1  0  0  0  0
 21 19  1  0  0  0  0
M  RAD  2   2   2   3   2
M  END
