Coordinates from ORCA-job p-NO2-Ph-N2-OOCCF3-B3LYPG-aug-cc-pVDZ-scan-d09-49-n400
 OpenBabel10311713223D

 22 20  0  0  0  0  0  0  0  0999 V2000
   15.0227    7.2356   -3.2263 C   0  0  0  0  0  0  0  0  0  0  0  0
   14.4862    6.4526   -2.1749 C   0  0  0  0  0  0  0  0  0  0  0  0
   15.1505    6.5499   -1.0880 C   0  0  0  0  0  0  0  0  0  0  0  0
   16.2590    7.2004   -0.6123 C   0  0  0  0  0  0  0  0  0  0  0  0
   16.7940    7.9785   -1.6539 C   0  0  0  0  0  0  0  0  0  0  0  0
   16.1742    7.9792   -2.9181 C   0  0  0  0  0  0  0  0  0  0  0  0
   14.5925    7.2800   -4.2244 H   0  0  0  0  0  0  0  0  0  0  0  0
   12.9593    5.5102   -2.7109 H   0  0  0  0  0  0  0  0  0  0  0  0
   16.6821    7.1501    0.3867 H   0  0  0  0  0  0  0  0  0  0  0  0
   17.6844    8.5812   -1.4914 H   0  0  0  0  0  0  0  0  0  0  0  0
   16.7775    8.8161   -3.9818 N   0  0  0  0  0  0  0  0  0  0  0  0
   16.2338    8.8129   -5.0811 O   0  0  0  0  0  0  0  0  0  0  0  0
   17.7838    9.4613   -3.6999 O   0  0  0  0  0  0  0  0  0  0  0  0
   14.4170    5.3940    0.5869 N   0  0  0  0  0  0  0  0  0  0  0  0
   13.7159    4.6961    1.0780 N   0  0  0  0  0  0  0  0  0  0  0  0
   11.5345    4.2917   -2.3184 C   0  0  0  0  0  0  0  0  0  0  0  0
   11.8126    4.0733   -1.1646 O   0  0  0  0  0  0  0  0  0  0  0  0
   12.1710    5.0866   -3.1644 O   0  0  0  0  0  0  0  0  0  0  0  0
   10.3119    3.6355   -3.0144 C   0  0  0  0  0  0  0  0  0  0  0  0
   10.7069    2.9024   -4.0791 F   0  0  0  0  0  0  0  0  0  0  0  0
    9.4500    4.5799   -3.4528 F   0  0  0  0  0  0  0  0  0  0  0  0
    9.6570    2.8293   -2.1694 F   0  0  0  0  0  0  0  0  0  0  0  0
  1  6  2  0  0  0  0
  1  2  1  0  0  0  0
  2  3  2  0  0  0  0
  3  4  1  0  0  0  0
  4  9  1  0  0  0  0
  5 10  1  0  0  0  0
  5  4  2  0  0  0  0
  6  5  1  0  0  0  0
  7  1  1  0  0  0  0
 11 13  2  0  0  0  0
 11  6  1  0  0  0  0
 12 11  2  0  0  0  0
 14 15  3  0  0  0  0
 16 17  2  0  0  0  0
 18  8  1  0  0  0  0
 18 16  1  0  0  0  0
 19 16  1  0  0  0  0
 19 22  1  0  0  0  0
 20 19  1  0  0  0  0
 21 19  1  0  0  0  0
M  RAD  2   2   2   3   2
M  END
