Coordinates from ORCA-job p-NO2-Ph-N2-OOCCF3-B3LYPG-aug-cc-pVDZ-scan-d09-49-n400
 OpenBabel10311713223D

 22 20  0  0  0  0  0  0  0  0999 V2000
   15.1037    7.3641   -3.4161 C   0  0  0  0  0  0  0  0  0  0  0  0
   14.5518    6.5790   -2.3903 C   0  0  0  0  0  0  0  0  0  0  0  0
   15.1250    6.5964   -1.2695 C   0  0  0  0  0  0  0  0  0  0  0  0
   16.2172    7.2034   -0.7064 C   0  0  0  0  0  0  0  0  0  0  0  0
   16.8052    8.0065   -1.7079 C   0  0  0  0  0  0  0  0  0  0  0  0
   16.2543    8.0697   -3.0043 C   0  0  0  0  0  0  0  0  0  0  0  0
   14.7231    7.4510   -4.4302 H   0  0  0  0  0  0  0  0  0  0  0  0
   12.8569    5.4691   -2.8098 H   0  0  0  0  0  0  0  0  0  0  0  0
   16.5989    7.1179    0.3060 H   0  0  0  0  0  0  0  0  0  0  0  0
   17.6971    8.5885   -1.4847 H   0  0  0  0  0  0  0  0  0  0  0  0
   16.9290    8.9349   -3.9996 N   0  0  0  0  0  0  0  0  0  0  0  0
   16.4427    8.9859   -5.1248 O   0  0  0  0  0  0  0  0  0  0  0  0
   17.9292    9.5503   -3.6411 O   0  0  0  0  0  0  0  0  0  0  0  0
   14.3204    5.1311    1.1063 N   0  0  0  0  0  0  0  0  0  0  0  0
   13.6561    4.4401    1.6536 N   0  0  0  0  0  0  0  0  0  0  0  0
   11.4718    4.2535   -2.3314 C   0  0  0  0  0  0  0  0  0  0  0  0
   11.7946    4.0723   -1.1862 O   0  0  0  0  0  0  0  0  0  0  0  0
   12.0744    5.0359   -3.2252 O   0  0  0  0  0  0  0  0  0  0  0  0
   10.2383    3.5669   -2.9761 C   0  0  0  0  0  0  0  0  0  0  0  0
   10.6126    2.8146   -4.0342 F   0  0  0  0  0  0  0  0  0  0  0  0
    9.3536    4.4913   -3.4103 F   0  0  0  0  0  0  0  0  0  0  0  0
    9.6211    2.7745   -2.0922 F   0  0  0  0  0  0  0  0  0  0  0  0
  1  6  2  0  0  0  0
  1  2  1  0  0  0  0
  2  3  2  0  0  0  0
  3  4  1  0  0  0  0
  4  9  1  0  0  0  0
  5 10  1  0  0  0  0
  5  4  2  0  0  0  0
  6  5  1  0  0  0  0
  7  1  1  0  0  0  0
 11 13  2  0  0  0  0
 11  6  1  0  0  0  0
 12 11  2  0  0  0  0
 14 15  3  0  0  0  0
 16 17  2  0  0  0  0
 18  8  1  0  0  0  0
 18 16  1  0  0  0  0
 19 16  1  0  0  0  0
 19 22  1  0  0  0  0
 20 19  1  0  0  0  0
 21 19  1  0  0  0  0
M  RAD  2   2   2   3   2
M  END
