Coordinates from ORCA-job p-NO2-Ph-N2-OOCCF3-B3LYPG-aug-cc-pVDZ-scan-d09-49-n400
 OpenBabel10311713223D

 22 20  0  0  0  0  0  0  0  0999 V2000
   15.3644    7.7968   -4.0742 C   0  0  0  0  0  0  0  0  0  0  0  0
   14.4746    6.9101   -3.4628 C   0  0  0  0  0  0  0  0  0  0  0  0
   14.6254    6.5834   -2.2611 C   0  0  0  0  0  0  0  0  0  0  0  0
   15.5303    6.8966   -1.2722 C   0  0  0  0  0  0  0  0  0  0  0  0
   16.4644    7.7965   -1.8294 C   0  0  0  0  0  0  0  0  0  0  0  0
   16.3686    8.2164   -3.1740 C   0  0  0  0  0  0  0  0  0  0  0  0
   15.3366    8.1512   -5.1006 H   0  0  0  0  0  0  0  0  0  0  0  0
   12.5681    5.5340   -3.5906 H   0  0  0  0  0  0  0  0  0  0  0  0
   15.5673    6.5485   -0.2440 H   0  0  0  0  0  0  0  0  0  0  0  0
   17.2790    8.1807   -1.2189 H   0  0  0  0  0  0  0  0  0  0  0  0
   17.3918    9.1626   -3.6767 N   0  0  0  0  0  0  0  0  0  0  0  0
   17.2980    9.5271   -4.8449 O   0  0  0  0  0  0  0  0  0  0  0  0
   18.2639    9.5349   -2.8968 O   0  0  0  0  0  0  0  0  0  0  0  0
   14.2861    4.7117    2.1784 N   0  0  0  0  0  0  0  0  0  0  0  0
   13.6670    4.0298    2.7870 N   0  0  0  0  0  0  0  0  0  0  0  0
   11.5959    4.3878   -2.4417 C   0  0  0  0  0  0  0  0  0  0  0  0
   12.2733    4.5340   -1.4565 O   0  0  0  0  0  0  0  0  0  0  0  0
   11.7773    4.9586   -3.6330 O   0  0  0  0  0  0  0  0  0  0  0  0
   10.3473    3.4681   -2.4779 C   0  0  0  0  0  0  0  0  0  0  0  0
   10.5002    2.4991   -3.4059 F   0  0  0  0  0  0  0  0  0  0  0  0
    9.2437    4.1808   -2.7908 F   0  0  0  0  0  0  0  0  0  0  0  0
   10.1536    2.8881   -1.2879 F   0  0  0  0  0  0  0  0  0  0  0  0
  1  2  2  0  0  0  0
  1  6  1  0  0  0  0
  2  3  1  0  0  0  0
  3  4  2  0  0  0  0
  4  9  1  0  0  0  0
  5  4  1  0  0  0  0
  5 10  1  0  0  0  0
  6  5  2  0  0  0  0
  7  1  1  0  0  0  0
 11  6  1  0  0  0  0
 11 13  2  0  0  0  0
 12 11  2  0  0  0  0
 14 15  3  0  0  0  0
 16 17  2  0  0  0  0
 18  8  1  0  0  0  0
 18 16  1  0  0  0  0
 19 16  1  0  0  0  0
 19 22  1  0  0  0  0
 20 19  1  0  0  0  0
 21 19  1  0  0  0  0
M  RAD  2   2   2   3   2
M  END
