Coordinates from ORCA-job p-NO2-Ph-N2-OOCCF3-B3LYPG-aug-cc-pVDZ-scan-d09-49-n400
 OpenBabel10311713223D

 22 20  0  0  0  0  0  0  0  0999 V2000
   15.2637    7.6342   -3.8258 C   0  0  0  0  0  0  0  0  0  0  0  0
   14.5238    6.7802   -3.0013 C   0  0  0  0  0  0  0  0  0  0  0  0
   14.8757    6.6062   -1.8087 C   0  0  0  0  0  0  0  0  0  0  0  0
   15.8900    7.0687   -1.0047 C   0  0  0  0  0  0  0  0  0  0  0  0
   16.6762    7.9421   -1.7876 C   0  0  0  0  0  0  0  0  0  0  0  0
   16.3596    8.2005   -3.1383 C   0  0  0  0  0  0  0  0  0  0  0  0
   15.0652    7.8678   -4.8680 H   0  0  0  0  0  0  0  0  0  0  0  0
   12.7090    5.5012   -3.2100 H   0  0  0  0  0  0  0  0  0  0  0  0
   16.0921    6.8382    0.0369 H   0  0  0  0  0  0  0  0  0  0  0  0
   17.5448    8.4303   -1.3502 H   0  0  0  0  0  0  0  0  0  0  0  0
   17.2370    9.1299   -3.8878 N   0  0  0  0  0  0  0  0  0  0  0  0
   16.9590    9.3431   -5.0639 O   0  0  0  0  0  0  0  0  0  0  0  0
   18.1952    9.6186   -3.2961 O   0  0  0  0  0  0  0  0  0  0  0  0
   14.2035    4.7556    1.8764 N   0  0  0  0  0  0  0  0  0  0  0  0
   13.5420    4.0681    2.4319 N   0  0  0  0  0  0  0  0  0  0  0  0
   11.5094    4.2968   -2.3706 C   0  0  0  0  0  0  0  0  0  0  0  0
   12.0250    4.2843   -1.2831 O   0  0  0  0  0  0  0  0  0  0  0  0
   11.9070    4.9859   -3.4411 O   0  0  0  0  0  0  0  0  0  0  0  0
   10.2403    3.4733   -2.7128 C   0  0  0  0  0  0  0  0  0  0  0  0
   10.4935    2.6077   -3.7186 F   0  0  0  0  0  0  0  0  0  0  0  0
    9.2366    4.2888   -3.1029 F   0  0  0  0  0  0  0  0  0  0  0  0
    9.8283    2.7754   -1.6482 F   0  0  0  0  0  0  0  0  0  0  0  0
  1  6  2  0  0  0  0
  1  2  1  0  0  0  0
  2  3  2  0  0  0  0
  3  4  1  0  0  0  0
  4  9  1  0  0  0  0
  5 10  1  0  0  0  0
  5  4  2  0  0  0  0
  6  5  1  0  0  0  0
  7  1  1  0  0  0  0
 11 13  2  0  0  0  0
 11  6  1  0  0  0  0
 12 11  2  0  0  0  0
 14 15  3  0  0  0  0
 16 17  2  0  0  0  0
 18  8  1  0  0  0  0
 18 16  1  0  0  0  0
 19 16  1  0  0  0  0
 19 22  1  0  0  0  0
 20 19  1  0  0  0  0
 21 19  1  0  0  0  0
M  RAD  2   2   2   3   2
M  END
