Coordinates from ORCA-job p-NO2-Ph-N2-OOCCF3-B3LYPG-aug-cc-pVDZ-scan-d09-49-n400
 OpenBabel10311713223D

 22 21  0  0  0  0  0  0  0  0999 V2000
   14.7352    7.5887   -3.1882 C   0  0  0  0  0  0  0  0  0  0  0  0
   13.9877    6.9337   -2.2059 C   0  0  0  0  0  0  0  0  0  0  0  0
   14.6703    6.5676   -1.0553 C   0  0  0  0  0  0  0  0  0  0  0  0
   16.0080    6.8229   -0.7849 C   0  0  0  0  0  0  0  0  0  0  0  0
   16.7433    7.4631   -1.7827 C   0  0  0  0  0  0  0  0  0  0  0  0
   16.0904    7.8335   -2.9602 C   0  0  0  0  0  0  0  0  0  0  0  0
   14.2763    7.9059   -4.1212 H   0  0  0  0  0  0  0  0  0  0  0  0
   12.9255    6.7189   -2.3265 H   0  0  0  0  0  0  0  0  0  0  0  0
   16.4614    6.5273    0.1585 H   0  0  0  0  0  0  0  0  0  0  0  0
   17.7997    7.6839   -1.6557 H   0  0  0  0  0  0  0  0  0  0  0  0
   16.8734    8.5296   -4.0119 N   0  0  0  0  0  0  0  0  0  0  0  0
   16.2803    8.8570   -5.0328 O   0  0  0  0  0  0  0  0  0  0  0  0
   18.0640    8.7244   -3.7913 O   0  0  0  0  0  0  0  0  0  0  0  0
   13.8500    5.8818    0.0967 N   0  0  0  0  0  0  0  0  0  0  0  0
   13.0376    5.0805    0.2066 N   0  0  0  0  0  0  0  0  0  0  0  0
   11.6090    4.5524   -1.9516 C   0  0  0  0  0  0  0  0  0  0  0  0
   12.6885    4.0920   -1.4234 O   0  0  0  0  0  0  0  0  0  0  0  0
   11.0987    5.6568   -1.7999 O   0  0  0  0  0  0  0  0  0  0  0  0
   10.9435    3.5151   -2.9128 C   0  0  0  0  0  0  0  0  0  0  0  0
   11.8104    3.1356   -3.8837 F   0  0  0  0  0  0  0  0  0  0  0  0
    9.8542    4.0202   -3.5132 F   0  0  0  0  0  0  0  0  0  0  0  0
   10.5697    2.4062   -2.2351 F   0  0  0  0  0  0  0  0  0  0  0  0
  1  6  2  0  0  0  0
  1  2  1  0  0  0  0
  2  3  2  0  0  0  0
  3  4  1  0  0  0  0
  3 14  1  0  0  0  0
  4  9  1  0  0  0  0
  5 10  1  0  0  0  0
  5  4  2  0  0  0  0
  6  5  1  0  0  0  0
  7  1  1  0  0  0  0
  8  2  1  0  0  0  0
 11 13  2  0  0  0  0
 11  6  1  0  0  0  0
 12 11  2  0  0  0  0
 14 15  2  0  0  0  0
 16 18  2  0  0  0  0
 16 17  1  0  0  0  0
 19 22  1  0  0  0  0
 19 16  1  0  0  0  0
 20 19  1  0  0  0  0
 21 19  1  0  0  0  0
M  RAD  2  15   2  17   2
M  END
