Coordinates from ORCA-job p-NO2-Ph-N2-OOCCF3-B3LYPG-aug-cc-pVDZ-scan-d09-49-n400
 OpenBabel10311713223D

 22 20  0  0  0  0  0  0  0  0999 V2000
   15.0400    7.2648   -3.2729 C   0  0  0  0  0  0  0  0  0  0  0  0
   14.5139    6.4882   -2.2174 C   0  0  0  0  0  0  0  0  0  0  0  0
   15.1563    6.5682   -1.1274 C   0  0  0  0  0  0  0  0  0  0  0  0
   16.2595    7.2069   -0.6293 C   0  0  0  0  0  0  0  0  0  0  0  0
   16.7998    7.9887   -1.6700 C   0  0  0  0  0  0  0  0  0  0  0  0
   16.1931    8.0015   -2.9414 C   0  0  0  0  0  0  0  0  0  0  0  0
   14.6178    7.3160   -4.2735 H   0  0  0  0  0  0  0  0  0  0  0  0
   12.9255    5.4964   -2.7409 H   0  0  0  0  0  0  0  0  0  0  0  0
   16.6788    7.1537    0.3708 H   0  0  0  0  0  0  0  0  0  0  0  0
   17.6908    8.5888   -1.4985 H   0  0  0  0  0  0  0  0  0  0  0  0
   16.8104    8.8441   -3.9918 N   0  0  0  0  0  0  0  0  0  0  0  0
   16.2774    8.8505   -5.0967 O   0  0  0  0  0  0  0  0  0  0  0  0
   17.8159    9.4839   -3.6959 O   0  0  0  0  0  0  0  0  0  0  0  0
   14.3959    5.3170    0.7536 N   0  0  0  0  0  0  0  0  0  0  0  0
   13.7100    4.6219    1.2683 N   0  0  0  0  0  0  0  0  0  0  0  0
   11.5120    4.2824   -2.3297 C   0  0  0  0  0  0  0  0  0  0  0  0
   11.8023    4.0729   -1.1789 O   0  0  0  0  0  0  0  0  0  0  0  0
   12.1431    5.0752   -3.1879 O   0  0  0  0  0  0  0  0  0  0  0  0
   10.2888    3.6190   -3.0167 C   0  0  0  0  0  0  0  0  0  0  0  0
   10.6814    2.8839   -4.0806 F   0  0  0  0  0  0  0  0  0  0  0  0
    9.4215    4.5588   -3.4537 F   0  0  0  0  0  0  0  0  0  0  0  0
    9.6429    2.8141   -2.1643 F   0  0  0  0  0  0  0  0  0  0  0  0
  1  6  2  0  0  0  0
  1  2  1  0  0  0  0
  2  3  2  0  0  0  0
  3  4  1  0  0  0  0
  4  9  1  0  0  0  0
  5 10  1  0  0  0  0
  5  4  2  0  0  0  0
  6  5  1  0  0  0  0
  7  1  1  0  0  0  0
 11 13  2  0  0  0  0
 11  6  1  0  0  0  0
 12 11  2  0  0  0  0
 14 15  3  0  0  0  0
 16 17  2  0  0  0  0
 18  8  1  0  0  0  0
 18 16  1  0  0  0  0
 19 16  1  0  0  0  0
 19 22  1  0  0  0  0
 20 19  1  0  0  0  0
 21 19  1  0  0  0  0
M  RAD  2   2   2   3   2
M  END
