Coordinates from ORCA-job p-NO2-Ph-N2-OOCCF3-B3LYPG-aug-cc-pVDZ-scan-d09-49-n400
 OpenBabel10311713223D

 22 20  0  0  0  0  0  0  0  0999 V2000
   15.2684    7.6405   -3.8366 C   0  0  0  0  0  0  0  0  0  0  0  0
   14.5230    6.7851   -3.0186 C   0  0  0  0  0  0  0  0  0  0  0  0
   14.8689    6.6065   -1.8251 C   0  0  0  0  0  0  0  0  0  0  0  0
   15.8796    7.0634   -1.0134 C   0  0  0  0  0  0  0  0  0  0  0  0
   16.6712    7.9381   -1.7897 C   0  0  0  0  0  0  0  0  0  0  0  0
   16.3620    8.2020   -3.1411 C   0  0  0  0  0  0  0  0  0  0  0  0
   15.0759    7.8782   -4.8789 H   0  0  0  0  0  0  0  0  0  0  0  0
   12.7042    5.5019   -3.2231 H   0  0  0  0  0  0  0  0  0  0  0  0
   16.0759    6.8287    0.0284 H   0  0  0  0  0  0  0  0  0  0  0  0
   17.5386    8.4231   -1.3465 H   0  0  0  0  0  0  0  0  0  0  0  0
   17.2453    9.1323   -3.8826 N   0  0  0  0  0  0  0  0  0  0  0  0
   16.9711    9.3541   -5.0580 O   0  0  0  0  0  0  0  0  0  0  0  0
   18.1987    9.6206   -3.2829 O   0  0  0  0  0  0  0  0  0  0  0  0
   14.2035    4.7502    1.8925 N   0  0  0  0  0  0  0  0  0  0  0  0
   13.5406    4.0628    2.4464 N   0  0  0  0  0  0  0  0  0  0  0  0
   11.5113    4.2988   -2.3719 C   0  0  0  0  0  0  0  0  0  0  0  0
   12.0322    4.2913   -1.2869 O   0  0  0  0  0  0  0  0  0  0  0  0
   11.9020    4.9841   -3.4474 O   0  0  0  0  0  0  0  0  0  0  0  0
   10.2419    3.4716   -2.7043 C   0  0  0  0  0  0  0  0  0  0  0  0
   10.4914    2.6025   -3.7078 F   0  0  0  0  0  0  0  0  0  0  0  0
    9.2348    4.2839   -3.0925 F   0  0  0  0  0  0  0  0  0  0  0  0
    9.8365    2.7773   -1.6348 F   0  0  0  0  0  0  0  0  0  0  0  0
  1  6  2  0  0  0  0
  1  2  1  0  0  0  0
  2  3  2  0  0  0  0
  3  4  1  0  0  0  0
  4  9  1  0  0  0  0
  5 10  1  0  0  0  0
  5  4  2  0  0  0  0
  6  5  1  0  0  0  0
  7  1  1  0  0  0  0
 11 13  2  0  0  0  0
 11  6  1  0  0  0  0
 12 11  2  0  0  0  0
 14 15  3  0  0  0  0
 16 17  2  0  0  0  0
 18  8  1  0  0  0  0
 18 16  1  0  0  0  0
 19 16  1  0  0  0  0
 19 22  1  0  0  0  0
 20 19  1  0  0  0  0
 21 19  1  0  0  0  0
M  RAD  2   2   2   3   2
M  END
