Coordinates from ORCA-job p-NO2-Ph-N2-OOCCF3-B3LYPG-aug-cc-pVDZ-scan-d09-49-n400
 OpenBabel10311713223D

 22 20  0  0  0  0  0  0  0  0999 V2000
   14.8467    7.4221   -3.1891 C   0  0  0  0  0  0  0  0  0  0  0  0
   14.1657    6.7029   -2.1778 C   0  0  0  0  0  0  0  0  0  0  0  0
   14.9202    6.6085   -1.0792 C   0  0  0  0  0  0  0  0  0  0  0  0
   16.1560    7.0379   -0.6818 C   0  0  0  0  0  0  0  0  0  0  0  0
   16.7954    7.7422   -1.7136 C   0  0  0  0  0  0  0  0  0  0  0  0
   16.1280    7.9164   -2.9331 C   0  0  0  0  0  0  0  0  0  0  0  0
   14.3719    7.5884   -4.1541 H   0  0  0  0  0  0  0  0  0  0  0  0
   13.1060    6.2692   -2.3260 H   0  0  0  0  0  0  0  0  0  0  0  0
   16.6026    6.8616    0.2922 H   0  0  0  0  0  0  0  0  0  0  0  0
   17.7940    8.1491   -1.5729 H   0  0  0  0  0  0  0  0  0  0  0  0
   16.8234    8.6716   -4.0056 N   0  0  0  0  0  0  0  0  0  0  0  0
   16.2267    8.8237   -5.0637 O   0  0  0  0  0  0  0  0  0  0  0  0
   17.9486    9.0921   -3.7580 O   0  0  0  0  0  0  0  0  0  0  0  0
   14.0047    5.6086    0.3538 N   0  0  0  0  0  0  0  0  0  0  0  0
   13.2163    4.8437    0.5316 N   0  0  0  0  0  0  0  0  0  0  0  0
   11.6948    4.4238   -2.2413 C   0  0  0  0  0  0  0  0  0  0  0  0
   12.4684    3.7950   -1.4950 O   0  0  0  0  0  0  0  0  0  0  0  0
   11.6702    5.6503   -2.5282 O   0  0  0  0  0  0  0  0  0  0  0  0
   10.6072    3.5412   -2.9435 C   0  0  0  0  0  0  0  0  0  0  0  0
   11.1958    2.6947   -3.8260 F   0  0  0  0  0  0  0  0  0  0  0  0
    9.6962    4.2628   -3.6246 F   0  0  0  0  0  0  0  0  0  0  0  0
    9.9382    2.7913   -2.0386 F   0  0  0  0  0  0  0  0  0  0  0  0
  1  6  2  0  0  0  0
  1  2  1  0  0  0  0
  2  3  2  0  0  0  0
  3  4  1  0  0  0  0
  4  9  1  0  0  0  0
  5 10  1  0  0  0  0
  5  4  2  0  0  0  0
  6  5  1  0  0  0  0
  7  1  1  0  0  0  0
  8  2  1  0  0  0  0
 11 13  2  0  0  0  0
 11  6  1  0  0  0  0
 12 11  2  0  0  0  0
 14 15  3  0  0  0  0
 16 17  1  0  0  0  0
 18 16  2  0  0  0  0
 19 16  1  0  0  0  0
 19 22  1  0  0  0  0
 20 19  1  0  0  0  0
 21 19  1  0  0  0  0
M  RAD  2   3   2  17   2
M  END
