Coordinates from ORCA-job p-NO2-Ph-N2-OOCCF3-B3LYPG-aug-cc-pVDZ-scan-d09-49-n400
 OpenBabel10311713223D

 22 20  0  0  0  0  0  0  0  0999 V2000
   15.0282    7.2446   -3.2404 C   0  0  0  0  0  0  0  0  0  0  0  0
   14.4989    6.4656   -2.1847 C   0  0  0  0  0  0  0  0  0  0  0  0
   15.1565    6.5580   -1.0984 C   0  0  0  0  0  0  0  0  0  0  0  0
   16.2634    7.2048   -0.6164 C   0  0  0  0  0  0  0  0  0  0  0  0
   16.7977    7.9831   -1.6601 C   0  0  0  0  0  0  0  0  0  0  0  0
   16.1807    7.9866   -2.9260 C   0  0  0  0  0  0  0  0  0  0  0  0
   14.5992    7.2901   -4.2387 H   0  0  0  0  0  0  0  0  0  0  0  0
   12.9452    5.5036   -2.7189 H   0  0  0  0  0  0  0  0  0  0  0  0
   16.6871    7.1552    0.3823 H   0  0  0  0  0  0  0  0  0  0  0  0
   17.6884    8.5856   -1.4967 H   0  0  0  0  0  0  0  0  0  0  0  0
   16.7871    8.8246   -3.9867 N   0  0  0  0  0  0  0  0  0  0  0  0
   16.2454    8.8235   -5.0871 O   0  0  0  0  0  0  0  0  0  0  0  0
   17.7932    9.4689   -3.7021 O   0  0  0  0  0  0  0  0  0  0  0  0
   14.4133    5.3676    0.6518 N   0  0  0  0  0  0  0  0  0  0  0  0
   13.7144    4.6703    1.1463 N   0  0  0  0  0  0  0  0  0  0  0  0
   11.5233    4.2882   -2.3228 C   0  0  0  0  0  0  0  0  0  0  0  0
   11.8047    4.0711   -1.1704 O   0  0  0  0  0  0  0  0  0  0  0  0
   12.1603    5.0827   -3.1718 O   0  0  0  0  0  0  0  0  0  0  0  0
   10.3024    3.6298   -3.0191 C   0  0  0  0  0  0  0  0  0  0  0  0
   10.6991    2.8980   -4.0839 F   0  0  0  0  0  0  0  0  0  0  0  0
    9.4388    4.5727   -3.4571 F   0  0  0  0  0  0  0  0  0  0  0  0
    9.6497    2.8222   -2.1739 F   0  0  0  0  0  0  0  0  0  0  0  0
  1  6  2  0  0  0  0
  1  2  1  0  0  0  0
  2  3  2  0  0  0  0
  3  4  1  0  0  0  0
  4  9  1  0  0  0  0
  5 10  1  0  0  0  0
  5  4  2  0  0  0  0
  6  5  1  0  0  0  0
  7  1  1  0  0  0  0
 11 13  2  0  0  0  0
 11  6  1  0  0  0  0
 12 11  2  0  0  0  0
 14 15  3  0  0  0  0
 16 17  2  0  0  0  0
 18  8  1  0  0  0  0
 18 16  1  0  0  0  0
 19 16  1  0  0  0  0
 19 22  1  0  0  0  0
 20 19  1  0  0  0  0
 21 19  1  0  0  0  0
M  RAD  2   2   2   3   2
M  END
