Coordinates from ORCA-job p-NO2-Ph-N2-OOCCF3-B3LYPG-aug-cc-pVDZ-scan-d09-49-n400
 OpenBabel10311713223D

 22 20  0  0  0  0  0  0  0  0999 V2000
   15.1967    7.5190   -3.6550 C   0  0  0  0  0  0  0  0  0  0  0  0
   14.5480    6.6961   -2.7264 C   0  0  0  0  0  0  0  0  0  0  0  0
   15.0026    6.6086   -1.5587 C   0  0  0  0  0  0  0  0  0  0  0  0
   16.0610    7.1455   -0.8674 C   0  0  0  0  0  0  0  0  0  0  0  0
   16.7558    7.9899   -1.7609 C   0  0  0  0  0  0  0  0  0  0  0  0
   16.3253    8.1558   -3.0941 C   0  0  0  0  0  0  0  0  0  0  0  0
   14.9094    7.6826   -4.6898 H   0  0  0  0  0  0  0  0  0  0  0  0
   12.7809    5.4806   -3.0064 H   0  0  0  0  0  0  0  0  0  0  0  0
   16.3523    6.9853    0.1661 H   0  0  0  0  0  0  0  0  0  0  0  0
   17.6404    8.5266   -1.4241 H   0  0  0  0  0  0  0  0  0  0  0  0
   17.1108    9.0600   -3.9662 N   0  0  0  0  0  0  0  0  0  0  0  0
   16.7286    9.2000   -5.1237 O   0  0  0  0  0  0  0  0  0  0  0  0
   18.0915    9.6170   -3.4812 O   0  0  0  0  0  0  0  0  0  0  0  0
   14.2144    4.8656    1.6049 N   0  0  0  0  0  0  0  0  0  0  0  0
   13.5704    4.1802    2.1828 N   0  0  0  0  0  0  0  0  0  0  0  0
   11.4781    4.2650   -2.3467 C   0  0  0  0  0  0  0  0  0  0  0  0
   11.8960    4.1659   -1.2227 O   0  0  0  0  0  0  0  0  0  0  0  0
   11.9854    5.0054   -3.3329 O   0  0  0  0  0  0  0  0  0  0  0  0
   10.2202    3.5084   -2.8487 C   0  0  0  0  0  0  0  0  0  0  0  0
   10.5345    2.6995   -3.8841 F   0  0  0  0  0  0  0  0  0  0  0  0
    9.2777    4.3807   -3.2683 F   0  0  0  0  0  0  0  0  0  0  0  0
    9.6971    2.7594   -1.8712 F   0  0  0  0  0  0  0  0  0  0  0  0
  1  6  2  0  0  0  0
  1  2  1  0  0  0  0
  2  3  2  0  0  0  0
  3  4  1  0  0  0  0
  4  9  1  0  0  0  0
  5 10  1  0  0  0  0
  5  4  2  0  0  0  0
  6  5  1  0  0  0  0
  7  1  1  0  0  0  0
 11 13  2  0  0  0  0
 11  6  1  0  0  0  0
 12 11  2  0  0  0  0
 14 15  3  0  0  0  0
 16 17  2  0  0  0  0
 18  8  1  0  0  0  0
 18 16  1  0  0  0  0
 19 16  1  0  0  0  0
 19 22  1  0  0  0  0
 20 19  1  0  0  0  0
 21 19  1  0  0  0  0
M  RAD  2   2   2   3   2
M  END
