Coordinates from ORCA-job p-NO2-Ph-N2-OOCCF3-B3LYPG-aug-cc-pVDZ-scan-d09-49-n400
 OpenBabel10311713223D

 22 21  0  0  0  0  0  0  0  0999 V2000
   14.7387    7.5875   -3.1895 C   0  0  0  0  0  0  0  0  0  0  0  0
   13.9909    6.9290   -2.2105 C   0  0  0  0  0  0  0  0  0  0  0  0
   14.6682    6.5620   -1.0546 C   0  0  0  0  0  0  0  0  0  0  0  0
   16.0062    6.8246   -0.7836 C   0  0  0  0  0  0  0  0  0  0  0  0
   16.7427    7.4673   -1.7784 C   0  0  0  0  0  0  0  0  0  0  0  0
   16.0924    7.8364   -2.9576 C   0  0  0  0  0  0  0  0  0  0  0  0
   14.2815    7.9044   -4.1236 H   0  0  0  0  0  0  0  0  0  0  0  0
   12.9295    6.7126   -2.3342 H   0  0  0  0  0  0  0  0  0  0  0  0
   16.4586    6.5302    0.1607 H   0  0  0  0  0  0  0  0  0  0  0  0
   17.7980    7.6915   -1.6480 H   0  0  0  0  0  0  0  0  0  0  0  0
   16.8764    8.5360   -4.0064 N   0  0  0  0  0  0  0  0  0  0  0  0
   16.2859    8.8596   -5.0300 O   0  0  0  0  0  0  0  0  0  0  0  0
   18.0663    8.7318   -3.7833 O   0  0  0  0  0  0  0  0  0  0  0  0
   13.8632    5.8831    0.0713 N   0  0  0  0  0  0  0  0  0  0  0  0
   13.0502    5.0835    0.1938 N   0  0  0  0  0  0  0  0  0  0  0  0
   11.6072    4.5499   -1.9527 C   0  0  0  0  0  0  0  0  0  0  0  0
   12.6883    4.0886   -1.4289 O   0  0  0  0  0  0  0  0  0  0  0  0
   11.1004    5.6561   -1.8012 O   0  0  0  0  0  0  0  0  0  0  0  0
   10.9341    3.5119   -2.9076 C   0  0  0  0  0  0  0  0  0  0  0  0
   11.7952    3.1264   -3.8812 F   0  0  0  0  0  0  0  0  0  0  0  0
    9.8436    4.0185   -3.5046 F   0  0  0  0  0  0  0  0  0  0  0  0
   10.5596    2.4062   -2.2247 F   0  0  0  0  0  0  0  0  0  0  0  0
  1  6  2  0  0  0  0
  1  2  1  0  0  0  0
  2  3  2  0  0  0  0
  3  4  1  0  0  0  0
  3 14  1  0  0  0  0
  4  9  1  0  0  0  0
  5 10  1  0  0  0  0
  5  4  2  0  0  0  0
  6  5  1  0  0  0  0
  7  1  1  0  0  0  0
  8  2  1  0  0  0  0
 11 13  2  0  0  0  0
 11  6  1  0  0  0  0
 12 11  2  0  0  0  0
 14 15  2  0  0  0  0
 16 18  2  0  0  0  0
 16 17  1  0  0  0  0
 19 22  1  0  0  0  0
 19 16  1  0  0  0  0
 20 19  1  0  0  0  0
 21 19  1  0  0  0  0
M  RAD  2  15   2  17   2
M  END
