Coordinates from ORCA-job p-NO2-Ph-N2-OOCCF3-B3LYPG-aug-cc-pVDZ-scan-d09-49-n400
 OpenBabel10311713223D

 22 20  0  0  0  0  0  0  0  0999 V2000
   15.2906    7.6766   -3.8901 C   0  0  0  0  0  0  0  0  0  0  0  0
   14.5154    6.8134   -3.1109 C   0  0  0  0  0  0  0  0  0  0  0  0
   14.8177    6.5995   -1.9115 C   0  0  0  0  0  0  0  0  0  0  0  0
   15.8123    7.0310   -1.0651 C   0  0  0  0  0  0  0  0  0  0  0  0
   16.6358    7.9131   -1.7975 C   0  0  0  0  0  0  0  0  0  0  0  0
   16.3693    8.2102   -3.1510 C   0  0  0  0  0  0  0  0  0  0  0  0
   15.1305    7.9389   -4.9319 H   0  0  0  0  0  0  0  0  0  0  0  0
   12.6746    5.5066   -3.2938 H   0  0  0  0  0  0  0  0  0  0  0  0
   15.9770    6.7723   -0.0233 H   0  0  0  0  0  0  0  0  0  0  0  0
   17.4949    8.3782   -1.3185 H   0  0  0  0  0  0  0  0  0  0  0  0
   17.2835    9.1463   -3.8463 N   0  0  0  0  0  0  0  0  0  0  0  0
   17.0443    9.3988   -5.0231 O   0  0  0  0  0  0  0  0  0  0  0  0
   18.2228    9.6127   -3.2081 O   0  0  0  0  0  0  0  0  0  0  0  0
   14.2360    4.7406    1.9877 N   0  0  0  0  0  0  0  0  0  0  0  0
   13.5729    4.0545    2.5429 N   0  0  0  0  0  0  0  0  0  0  0  0
   11.5188    4.3105   -2.3877 C   0  0  0  0  0  0  0  0  0  0  0  0
   12.0710    4.3318   -1.3186 O   0  0  0  0  0  0  0  0  0  0  0  0
   11.8723    4.9778   -3.4870 O   0  0  0  0  0  0  0  0  0  0  0  0
   10.2499    3.4634   -2.6669 C   0  0  0  0  0  0  0  0  0  0  0  0
   10.4811    2.5759   -3.6586 F   0  0  0  0  0  0  0  0  0  0  0  0
    9.2236    4.2568   -3.0434 F   0  0  0  0  0  0  0  0  0  0  0  0
    9.8825    2.7878   -1.5720 F   0  0  0  0  0  0  0  0  0  0  0  0
  1  6  2  0  0  0  0
  1  2  1  0  0  0  0
  2  3  2  0  0  0  0
  3  4  1  0  0  0  0
  4  9  1  0  0  0  0
  5 10  1  0  0  0  0
  5  4  2  0  0  0  0
  6  5  1  0  0  0  0
  7  1  1  0  0  0  0
 11 13  2  0  0  0  0
 11  6  1  0  0  0  0
 12 11  2  0  0  0  0
 14 15  3  0  0  0  0
 16 17  2  0  0  0  0
 18  8  1  0  0  0  0
 18 16  1  0  0  0  0
 19 16  1  0  0  0  0
 19 22  1  0  0  0  0
 20 19  1  0  0  0  0
 21 19  1  0  0  0  0
M  RAD  2   2   2   3   2
M  END
