Coordinates from ORCA-job p-NO2-Ph-N2-OOCCF3-B3LYPG-aug-cc-pVDZ-scan-d09-49-n400
 OpenBabel10311713223D

 22 20  0  0  0  0  0  0  0  0999 V2000
   15.2013    7.5271   -3.6663 C   0  0  0  0  0  0  0  0  0  0  0  0
   14.5466    6.7019   -2.7443 C   0  0  0  0  0  0  0  0  0  0  0  0
   14.9938    6.6078   -1.5739 C   0  0  0  0  0  0  0  0  0  0  0  0
   16.0502    7.1409   -0.8760 C   0  0  0  0  0  0  0  0  0  0  0  0
   16.7511    7.9876   -1.7623 C   0  0  0  0  0  0  0  0  0  0  0  0
   16.3281    8.1596   -3.0970 C   0  0  0  0  0  0  0  0  0  0  0  0
   14.9198    7.6954   -4.7019 H   0  0  0  0  0  0  0  0  0  0  0  0
   12.7755    5.4812   -3.0188 H   0  0  0  0  0  0  0  0  0  0  0  0
   16.3359    6.9760    0.1583 H   0  0  0  0  0  0  0  0  0  0  0  0
   17.6350    8.5213   -1.4188 H   0  0  0  0  0  0  0  0  0  0  0  0
   17.1198    9.0659   -3.9614 N   0  0  0  0  0  0  0  0  0  0  0  0
   16.7450    9.2095   -5.1209 O   0  0  0  0  0  0  0  0  0  0  0  0
   18.1002    9.6174   -3.4697 O   0  0  0  0  0  0  0  0  0  0  0  0
   14.2156    4.8589    1.6240 N   0  0  0  0  0  0  0  0  0  0  0  0
   13.5714    4.1734    2.2017 N   0  0  0  0  0  0  0  0  0  0  0  0
   11.4787    4.2662   -2.3487 C   0  0  0  0  0  0  0  0  0  0  0  0
   11.9031    4.1727   -1.2267 O   0  0  0  0  0  0  0  0  0  0  0  0
   11.9796    5.0037   -3.3401 O   0  0  0  0  0  0  0  0  0  0  0  0
   10.2197    3.5051   -2.8409 C   0  0  0  0  0  0  0  0  0  0  0  0
   10.5301    2.6926   -3.8746 F   0  0  0  0  0  0  0  0  0  0  0  0
    9.2732    4.3738   -3.2590 F   0  0  0  0  0  0  0  0  0  0  0  0
    9.7033    2.7590   -1.8576 F   0  0  0  0  0  0  0  0  0  0  0  0
  1  6  2  0  0  0  0
  1  2  1  0  0  0  0
  2  3  2  0  0  0  0
  3  4  1  0  0  0  0
  4  9  1  0  0  0  0
  5 10  1  0  0  0  0
  5  4  2  0  0  0  0
  6  5  1  0  0  0  0
  7  1  1  0  0  0  0
 11 13  2  0  0  0  0
 11  6  1  0  0  0  0
 12 11  2  0  0  0  0
 14 15  3  0  0  0  0
 16 17  2  0  0  0  0
 18  8  1  0  0  0  0
 18 16  1  0  0  0  0
 19 16  1  0  0  0  0
 19 22  1  0  0  0  0
 20 19  1  0  0  0  0
 21 19  1  0  0  0  0
M  RAD  2   2   2   3   2
M  END
