Coordinates from ORCA-job p-NO2-Ph-N2-OOCCF3-B3LYPG-aug-cc-pVDZ-scan-d09-49-n400
 OpenBabel10311713223D

 22 20  0  0  0  0  0  0  0  0999 V2000
   15.2176    7.5539   -3.7068 C   0  0  0  0  0  0  0  0  0  0  0  0
   14.5420    6.7213   -2.8076 C   0  0  0  0  0  0  0  0  0  0  0  0
   14.9640    6.6061   -1.6303 C   0  0  0  0  0  0  0  0  0  0  0  0
   16.0112    7.1226   -0.9058 C   0  0  0  0  0  0  0  0  0  0  0  0
   16.7341    7.9766   -1.7671 C   0  0  0  0  0  0  0  0  0  0  0  0
   16.3376    8.1703   -3.1070 C   0  0  0  0  0  0  0  0  0  0  0  0
   14.9565    7.7385   -4.7450 H   0  0  0  0  0  0  0  0  0  0  0  0
   12.7584    5.4841   -3.0626 H   0  0  0  0  0  0  0  0  0  0  0  0
   16.2765    6.9415    0.1313 H   0  0  0  0  0  0  0  0  0  0  0  0
   17.6149    8.4994   -1.3997 H   0  0  0  0  0  0  0  0  0  0  0  0
   17.1516    9.0832   -3.9434 N   0  0  0  0  0  0  0  0  0  0  0  0
   16.7997    9.2458   -5.1076 O   0  0  0  0  0  0  0  0  0  0  0  0
   18.1261    9.6210   -3.4256 O   0  0  0  0  0  0  0  0  0  0  0  0
   14.2184    4.8392    1.6818 N   0  0  0  0  0  0  0  0  0  0  0  0
   13.5731    4.1539    2.2585 N   0  0  0  0  0  0  0  0  0  0  0  0
   11.4825    4.2708   -2.3530 C   0  0  0  0  0  0  0  0  0  0  0  0
   11.9281    4.1961   -1.2378 O   0  0  0  0  0  0  0  0  0  0  0  0
   11.9605    4.9977   -3.3637 O   0  0  0  0  0  0  0  0  0  0  0  0
   10.2200    3.4947   -2.8114 C   0  0  0  0  0  0  0  0  0  0  0  0
   10.5172    2.6697   -3.8391 F   0  0  0  0  0  0  0  0  0  0  0  0
    9.2603    4.3512   -3.2242 F   0  0  0  0  0  0  0  0  0  0  0  0
    9.7268    2.7592   -1.8084 F   0  0  0  0  0  0  0  0  0  0  0  0
  1  6  2  0  0  0  0
  1  2  1  0  0  0  0
  2  3  2  0  0  0  0
  3  4  1  0  0  0  0
  4  9  1  0  0  0  0
  5 10  1  0  0  0  0
  5  4  2  0  0  0  0
  6  5  1  0  0  0  0
  7  1  1  0  0  0  0
 11 13  2  0  0  0  0
 11  6  1  0  0  0  0
 12 11  2  0  0  0  0
 14 15  3  0  0  0  0
 16 17  2  0  0  0  0
 18  8  1  0  0  0  0
 18 16  1  0  0  0  0
 19 16  1  0  0  0  0
 19 22  1  0  0  0  0
 20 19  1  0  0  0  0
 21 19  1  0  0  0  0
M  RAD  2   2   2   3   2
M  END
