Coordinates from ORCA-job p-NO2-Ph-N2-OOCCF3-B3LYPG-aug-cc-pVDZ-scan-d09-49-n400
 OpenBabel10311713223D

 22 20  0  0  0  0  0  0  0  0999 V2000
   15.2124    7.5449   -3.6939 C   0  0  0  0  0  0  0  0  0  0  0  0
   14.5438    6.7149   -2.7869 C   0  0  0  0  0  0  0  0  0  0  0  0
   14.9739    6.6066   -1.6120 C   0  0  0  0  0  0  0  0  0  0  0  0
   16.0242    7.1286   -0.8961 C   0  0  0  0  0  0  0  0  0  0  0  0
   16.7400    7.9802   -1.7656 C   0  0  0  0  0  0  0  0  0  0  0  0
   16.3347    8.1667   -3.1041 C   0  0  0  0  0  0  0  0  0  0  0  0
   14.9444    7.7240   -4.7313 H   0  0  0  0  0  0  0  0  0  0  0  0
   12.7642    5.4829   -3.0478 H   0  0  0  0  0  0  0  0  0  0  0  0
   16.2961    6.9528    0.1402 H   0  0  0  0  0  0  0  0  0  0  0  0
   17.6218    8.5065   -1.4060 H   0  0  0  0  0  0  0  0  0  0  0  0
   17.1414    9.0773   -3.9499 N   0  0  0  0  0  0  0  0  0  0  0  0
   16.7811    9.2348   -5.1122 O   0  0  0  0  0  0  0  0  0  0  0  0
   18.1171    9.6208   -3.4402 O   0  0  0  0  0  0  0  0  0  0  0  0
   14.2189    4.8456    1.6664 N   0  0  0  0  0  0  0  0  0  0  0  0
   13.5742    4.1604    2.2439 N   0  0  0  0  0  0  0  0  0  0  0  0
   11.4807    4.2690   -2.3518 C   0  0  0  0  0  0  0  0  0  0  0  0
   11.9187    4.1876   -1.2340 O   0  0  0  0  0  0  0  0  0  0  0  0
   11.9669    4.9995   -3.3560 O   0  0  0  0  0  0  0  0  0  0  0  0
   10.2193    3.4982   -2.8222 C   0  0  0  0  0  0  0  0  0  0  0  0
   10.5212    2.6775   -3.8520 F   0  0  0  0  0  0  0  0  0  0  0  0
    9.2644    4.3591   -3.2371 F   0  0  0  0  0  0  0  0  0  0  0  0
    9.7177    2.7591   -1.8261 F   0  0  0  0  0  0  0  0  0  0  0  0
  1  6  2  0  0  0  0
  1  2  1  0  0  0  0
  2  3  2  0  0  0  0
  3  4  1  0  0  0  0
  4  9  1  0  0  0  0
  5 10  1  0  0  0  0
  5  4  2  0  0  0  0
  6  5  1  0  0  0  0
  7  1  1  0  0  0  0
 11 13  2  0  0  0  0
 11  6  1  0  0  0  0
 12 11  2  0  0  0  0
 14 15  3  0  0  0  0
 16 17  2  0  0  0  0
 18  8  1  0  0  0  0
 18 16  1  0  0  0  0
 19 16  1  0  0  0  0
 19 22  1  0  0  0  0
 20 19  1  0  0  0  0
 21 19  1  0  0  0  0
M  RAD  2   2   2   3   2
M  END
