Coordinates from ORCA-job p-NO2-Ph-N2-OOCCF3-B3LYPG-aug-cc-pVDZ-scan-d09-49-n400
 OpenBabel10311713223D

 22 21  0  0  0  0  0  0  0  0999 V2000
   14.6520    8.1910   -3.0019 C   0  0  0  0  0  0  0  0  0  0  0  0
   13.8137    7.5953   -2.0710 C   0  0  0  0  0  0  0  0  0  0  0  0
   14.3720    6.7220   -1.0919 C   0  0  0  0  0  0  0  0  0  0  0  0
   15.7733    6.4557   -1.0819 C   0  0  0  0  0  0  0  0  0  0  0  0
   16.5901    7.0566   -2.0234 C   0  0  0  0  0  0  0  0  0  0  0  0
   16.0198    7.9187   -2.9649 C   0  0  0  0  0  0  0  0  0  0  0  0
   14.2531    8.8565   -3.7633 H   0  0  0  0  0  0  0  0  0  0  0  0
   12.7387    7.7470   -2.0851 H   0  0  0  0  0  0  0  0  0  0  0  0
   16.1779    5.7746   -0.3355 H   0  0  0  0  0  0  0  0  0  0  0  0
   17.6602    6.8670   -2.0413 H   0  0  0  0  0  0  0  0  0  0  0  0
   16.9043    8.5652   -3.9612 N   0  0  0  0  0  0  0  0  0  0  0  0
   16.3830    9.3303   -4.7646 O   0  0  0  0  0  0  0  0  0  0  0  0
   18.0999    8.2950   -3.9103 O   0  0  0  0  0  0  0  0  0  0  0  0
   13.6575    6.1954   -0.2832 N   0  0  0  0  0  0  0  0  0  0  0  0
   12.9568    5.5808    0.3586 N   0  0  0  0  0  0  0  0  0  0  0  0
   11.9053    4.2952   -1.9316 C   0  0  0  0  0  0  0  0  0  0  0  0
   12.3980    3.8259   -0.8619 O   0  0  0  0  0  0  0  0  0  0  0  0
   11.9168    5.4602   -2.3567 O   0  0  0  0  0  0  0  0  0  0  0  0
   11.1926    3.2041   -2.8010 C   0  0  0  0  0  0  0  0  0  0  0  0
   12.0468    2.1976   -3.1130 F   0  0  0  0  0  0  0  0  0  0  0  0
   10.7176    3.7017   -3.9586 F   0  0  0  0  0  0  0  0  0  0  0  0
   10.1476    2.6614   -2.1308 F   0  0  0  0  0  0  0  0  0  0  0  0
  1  6  2  0  0  0  0
  1  2  1  0  0  0  0
  2  3  2  0  0  0  0
  3  4  1  0  0  0  0
  3 14  1  0  0  0  0
  4  9  1  0  0  0  0
  5  4  2  0  0  0  0
  6  5  1  0  0  0  0
  7  1  1  0  0  0  0
  8  2  1  0  0  0  0
 10  5  1  0  0  0  0
 11 13  2  0  0  0  0
 11  6  1  0  0  0  0
 12 11  2  0  0  0  0
 14 15  1  0  0  0  0
 16 17  1  0  0  0  0
 18 16  2  0  0  0  0
 19 22  1  0  0  0  0
 19 16  1  0  0  0  0
 20 19  1  0  0  0  0
 21 19  1  0  0  0  0
M  RAD  3  14   2  15   3  17   2
M  END
