Coordinates from ORCA-job p-NO2-Ph-N2-OOCCF3-B3LYPG-aug-cc-pVDZ-scan-d09-49-n400
 OpenBabel10311713223D

 22 20  0  0  0  0  0  0  0  0999 V2000
   15.3412    7.7618   -4.0204 C   0  0  0  0  0  0  0  0  0  0  0  0
   14.4844    6.8801   -3.3568 C   0  0  0  0  0  0  0  0  0  0  0  0
   14.6805    6.5858   -2.1529 C   0  0  0  0  0  0  0  0  0  0  0  0
   15.6148    6.9358   -1.2057 C   0  0  0  0  0  0  0  0  0  0  0  0
   16.5178    7.8326   -1.8165 C   0  0  0  0  0  0  0  0  0  0  0  0
   16.3703    8.2168   -3.1667 C   0  0  0  0  0  0  0  0  0  0  0  0
   15.2732    8.0893   -5.0538 H   0  0  0  0  0  0  0  0  0  0  0  0
   12.5993    5.5262   -3.5026 H   0  0  0  0  0  0  0  0  0  0  0  0
   15.6909    6.6140   -0.1711 H   0  0  0  0  0  0  0  0  0  0  0  0
   17.3476    8.2419   -1.2441 H   0  0  0  0  0  0  0  0  0  0  0  0
   17.3628    9.1625   -3.7285 N   0  0  0  0  0  0  0  0  0  0  0  0
   17.2271    9.4910   -4.9032 O   0  0  0  0  0  0  0  0  0  0  0  0
   18.2595    9.5609   -2.9907 O   0  0  0  0  0  0  0  0  0  0  0  0
   14.2997    4.7318    2.1486 N   0  0  0  0  0  0  0  0  0  0  0  0
   13.6684    4.0489    2.7436 N   0  0  0  0  0  0  0  0  0  0  0  0
   11.5653    4.3589   -2.4315 C   0  0  0  0  0  0  0  0  0  0  0  0
   12.2037    4.4652   -1.4162 O   0  0  0  0  0  0  0  0  0  0  0  0
   11.8028    4.9642   -3.5955 O   0  0  0  0  0  0  0  0  0  0  0  0
   10.3056    3.4613   -2.5468 C   0  0  0  0  0  0  0  0  0  0  0  0
   10.4814    2.5185   -3.4977 F   0  0  0  0  0  0  0  0  0  0  0  0
    9.2262    4.2009   -2.8818 F   0  0  0  0  0  0  0  0  0  0  0  0
   10.0544    2.8484   -1.3844 F   0  0  0  0  0  0  0  0  0  0  0  0
  1  2  2  0  0  0  0
  1  6  1  0  0  0  0
  2  3  1  0  0  0  0
  3  4  2  0  0  0  0
  4  9  1  0  0  0  0
  5 10  1  0  0  0  0
  5  4  1  0  0  0  0
  6  5  2  0  0  0  0
  7  1  1  0  0  0  0
 11  6  1  0  0  0  0
 11 13  2  0  0  0  0
 12 11  2  0  0  0  0
 14 15  3  0  0  0  0
 16 17  2  0  0  0  0
 18  8  1  0  0  0  0
 18 16  1  0  0  0  0
 19 16  1  0  0  0  0
 19 22  1  0  0  0  0
 20 19  1  0  0  0  0
 21 19  1  0  0  0  0
M  RAD  2   2   2   3   2
M  END
