Coordinates from ORCA-job p-NO2-Ph-N2-OOCCF3-B3LYPG-aug-cc-pVDZ-scan-d09-49-n400
 OpenBabel10311713223D

 22 20  0  0  0  0  0  0  0  0999 V2000
   15.0467    7.2704   -3.2858 C   0  0  0  0  0  0  0  0  0  0  0  0
   14.5187    6.4966   -2.2304 C   0  0  0  0  0  0  0  0  0  0  0  0
   15.1549    6.5712   -1.1381 C   0  0  0  0  0  0  0  0  0  0  0  0
   16.2587    7.2060   -0.6357 C   0  0  0  0  0  0  0  0  0  0  0  0
   16.8039    7.9867   -1.6752 C   0  0  0  0  0  0  0  0  0  0  0  0
   16.2015    8.0027   -2.9488 C   0  0  0  0  0  0  0  0  0  0  0  0
   14.6277    7.3236   -4.2876 H   0  0  0  0  0  0  0  0  0  0  0  0
   12.9168    5.4973   -2.7481 H   0  0  0  0  0  0  0  0  0  0  0  0
   16.6753    7.1511    0.3654 H   0  0  0  0  0  0  0  0  0  0  0  0
   17.6962    8.5839   -1.5008 H   0  0  0  0  0  0  0  0  0  0  0  0
   16.8253    8.8438   -3.9965 N   0  0  0  0  0  0  0  0  0  0  0  0
   16.2828    8.8703   -5.0964 O   0  0  0  0  0  0  0  0  0  0  0  0
   17.8189    9.4972   -3.6904 O   0  0  0  0  0  0  0  0  0  0  0  0
   14.3837    5.3017    0.7899 N   0  0  0  0  0  0  0  0  0  0  0  0
   13.7012    4.6096    1.3131 N   0  0  0  0  0  0  0  0  0  0  0  0
   11.5048    4.2856   -2.3297 C   0  0  0  0  0  0  0  0  0  0  0  0
   11.8033    4.0733   -1.1818 O   0  0  0  0  0  0  0  0  0  0  0  0
   12.1337    5.0768   -3.1919 O   0  0  0  0  0  0  0  0  0  0  0  0
   10.2851    3.6141   -3.0149 C   0  0  0  0  0  0  0  0  0  0  0  0
   10.6807    2.8830   -4.0804 F   0  0  0  0  0  0  0  0  0  0  0  0
    9.4102    4.5482   -3.4488 F   0  0  0  0  0  0  0  0  0  0  0  0
    9.6470    2.8038   -2.1618 F   0  0  0  0  0  0  0  0  0  0  0  0
  1  6  2  0  0  0  0
  1  2  1  0  0  0  0
  2  3  2  0  0  0  0
  3  4  1  0  0  0  0
  4  9  1  0  0  0  0
  5 10  1  0  0  0  0
  5  4  2  0  0  0  0
  6  5  1  0  0  0  0
  7  1  1  0  0  0  0
 11 13  2  0  0  0  0
 11  6  1  0  0  0  0
 12 11  2  0  0  0  0
 14 15  3  0  0  0  0
 16 17  2  0  0  0  0
 18  8  1  0  0  0  0
 18 16  1  0  0  0  0
 19 16  1  0  0  0  0
 19 22  1  0  0  0  0
 20 19  1  0  0  0  0
 21 19  1  0  0  0  0
M  RAD  2   2   2   3   2
M  END
