Coordinates from ORCA-job p-NO2-Ph-N2-OOCCF3-B3LYPG-aug-cc-pVDZ-scan-d09-49-n400
 OpenBabel10311713223D

 22 22  0  0  0  0  0  0  0  0999 V2000
   15.2942    8.4595   -3.2761 C   0  0  0  0  0  0  0  0  0  0  0  0
   14.1459    7.8575   -2.8485 C   0  0  0  0  0  0  0  0  0  0  0  0
   14.1485    6.7561   -1.7942 C   0  0  0  0  0  0  0  0  0  0  0  0
   15.5668    6.4394   -1.3342 C   0  0  0  0  0  0  0  0  0  0  0  0
   16.6568    7.0984   -1.8258 C   0  0  0  0  0  0  0  0  0  0  0  0
   16.5609    8.1081   -2.7920 C   0  0  0  0  0  0  0  0  0  0  0  0
   15.2145    9.2464   -4.0268 H   0  0  0  0  0  0  0  0  0  0  0  0
   13.1475    8.1065   -3.1989 H   0  0  0  0  0  0  0  0  0  0  0  0
   15.6038    5.6519   -0.5857 H   0  0  0  0  0  0  0  0  0  0  0  0
   17.6406    6.8224   -1.4450 H   0  0  0  0  0  0  0  0  0  0  0  0
   17.7375    8.7698   -3.2764 N   0  0  0  0  0  0  0  0  0  0  0  0
   17.5993    9.6558   -4.1293 O   0  0  0  0  0  0  0  0  0  0  0  0
   18.8329    8.4231   -2.8168 O   0  0  0  0  0  0  0  0  0  0  0  0
   13.4013    6.3405   -1.4826 N   0  0  0  0  0  0  0  0  0  0  0  0
   12.3933    5.8287   -1.0129 N   0  0  0  0  0  0  0  0  0  0  0  0
   11.0066    3.9860   -1.4468 C   0  0  0  0  0  0  0  0  0  0  0  0
   12.1208    4.6590   -1.8616 O   0  0  0  0  0  0  0  0  0  0  0  0
   10.2888    4.2571   -0.5356 O   0  0  0  0  0  0  0  0  0  0  0  0
   10.7980    2.7784   -2.4051 C   0  0  0  0  0  0  0  0  0  0  0  0
    9.6988    2.1067   -2.0584 F   0  0  0  0  0  0  0  0  0  0  0  0
   11.8556    1.9432   -2.3436 F   0  0  0  0  0  0  0  0  0  0  0  0
   10.6648    3.2026   -3.6786 F   0  0  0  0  0  0  0  0  0  0  0  0
  1  2  2  0  0  0  0
  1  6  1  0  0  0  0
  2  3  1  0  0  0  0
  3 14  1  0  0  0  0
  3  4  2  0  0  0  0
  4  9  1  0  0  0  0
  5 10  1  0  0  0  0
  5  4  1  0  0  0  0
  6  5  2  0  0  0  0
  7  1  1  0  0  0  0
  8  2  1  0  0  0  0
 11 13  2  0  0  0  0
 11  6  1  0  0  0  0
 12 11  2  0  0  0  0
 14 15  1  0  0  0  0
 16 18  2  0  0  0  0
 17 16  1  0  0  0  0
 17 15  1  0  0  0  0
 19 21  1  0  0  0  0
 19 20  1  0  0  0  0
 19 16  1  0  0  0  0
 22 19  1  0  0  0  0
M  RAD  2  14   2  15   2
M  END
