Coordinates from ORCA-job p-NO2-Ph-N2-OOCCF3-B3LYPG-aug-cc-pVDZ-scan-d09-49-n400
 OpenBabel10311713223D

 22 20  0  0  0  0  0  0  0  0999 V2000
   15.2874    7.6713   -3.8820 C   0  0  0  0  0  0  0  0  0  0  0  0
   14.5167    6.8092   -3.0968 C   0  0  0  0  0  0  0  0  0  0  0  0
   14.8255    6.6005   -1.8981 C   0  0  0  0  0  0  0  0  0  0  0  0
   15.8229    7.0363   -1.0575 C   0  0  0  0  0  0  0  0  0  0  0  0
   16.6416    7.9173   -1.7966 C   0  0  0  0  0  0  0  0  0  0  0  0
   16.3686    8.2092   -3.1498 C   0  0  0  0  0  0  0  0  0  0  0  0
   15.1223    7.9297   -4.9240 H   0  0  0  0  0  0  0  0  0  0  0  0
   12.6789    5.5059   -3.2831 H   0  0  0  0  0  0  0  0  0  0  0  0
   15.9926    6.7813   -0.0156 H   0  0  0  0  0  0  0  0  0  0  0  0
   17.5021    8.3854   -1.3229 H   0  0  0  0  0  0  0  0  0  0  0  0
   17.2780    9.1444   -3.8524 N   0  0  0  0  0  0  0  0  0  0  0  0
   17.0331    9.3924   -5.0290 O   0  0  0  0  0  0  0  0  0  0  0  0
   18.2194    9.6145   -3.2200 O   0  0  0  0  0  0  0  0  0  0  0  0
   14.2311    4.7409    1.9765 N   0  0  0  0  0  0  0  0  0  0  0  0
   13.5678    4.0546    2.5312 N   0  0  0  0  0  0  0  0  0  0  0  0
   11.5173    4.3087   -2.3857 C   0  0  0  0  0  0  0  0  0  0  0  0
   12.0649    4.3257   -1.3143 O   0  0  0  0  0  0  0  0  0  0  0  0
   11.8766    4.9788   -3.4813 O   0  0  0  0  0  0  0  0  0  0  0  0
   10.2482    3.4645   -2.6730 C   0  0  0  0  0  0  0  0  0  0  0  0
   10.4822    2.5798   -3.6667 F   0  0  0  0  0  0  0  0  0  0  0  0
    9.2248    4.2607   -3.0514 F   0  0  0  0  0  0  0  0  0  0  0  0
    9.8750    2.7859   -1.5820 F   0  0  0  0  0  0  0  0  0  0  0  0
  1  6  2  0  0  0  0
  1  2  1  0  0  0  0
  2  3  2  0  0  0  0
  3  4  1  0  0  0  0
  4  9  1  0  0  0  0
  5 10  1  0  0  0  0
  5  4  2  0  0  0  0
  6  5  1  0  0  0  0
  7  1  1  0  0  0  0
 11 13  2  0  0  0  0
 11  6  1  0  0  0  0
 12 11  2  0  0  0  0
 14 15  3  0  0  0  0
 16 17  2  0  0  0  0
 18  8  1  0  0  0  0
 18 16  1  0  0  0  0
 19 16  1  0  0  0  0
 19 22  1  0  0  0  0
 20 19  1  0  0  0  0
 21 19  1  0  0  0  0
M  RAD  2   2   2   3   2
M  END
