Coordinates from ORCA-job p-NO2-Ph-N2-OOCCF3-B3LYPG-aug-cc-pVDZ-scan-d09-49-n400
 OpenBabel10311713223D

 22 20  0  0  0  0  0  0  0  0999 V2000
   15.0425    7.2702   -3.2799 C   0  0  0  0  0  0  0  0  0  0  0  0
   14.5160    6.4935   -2.2252 C   0  0  0  0  0  0  0  0  0  0  0  0
   15.1553    6.5704   -1.1341 C   0  0  0  0  0  0  0  0  0  0  0  0
   16.2580    7.2070   -0.6326 C   0  0  0  0  0  0  0  0  0  0  0  0
   16.8003    7.9897   -1.6721 C   0  0  0  0  0  0  0  0  0  0  0  0
   16.1958    8.0051   -2.9446 C   0  0  0  0  0  0  0  0  0  0  0  0
   14.6219    7.3231   -4.2811 H   0  0  0  0  0  0  0  0  0  0  0  0
   12.9207    5.4965   -2.7463 H   0  0  0  0  0  0  0  0  0  0  0  0
   16.6762    7.1525    0.3678 H   0  0  0  0  0  0  0  0  0  0  0  0
   17.6915    8.5889   -1.4984 H   0  0  0  0  0  0  0  0  0  0  0  0
   16.8157    8.8488   -3.9926 N   0  0  0  0  0  0  0  0  0  0  0  0
   16.2860    8.8556   -5.0990 O   0  0  0  0  0  0  0  0  0  0  0  0
   17.8226    9.4855   -3.6946 O   0  0  0  0  0  0  0  0  0  0  0  0
   14.3907    5.3058    0.7745 N   0  0  0  0  0  0  0  0  0  0  0  0
   13.7077    4.6113    1.2938 N   0  0  0  0  0  0  0  0  0  0  0  0
   11.5093    4.2826   -2.3307 C   0  0  0  0  0  0  0  0  0  0  0  0
   11.8034    4.0735   -1.1810 O   0  0  0  0  0  0  0  0  0  0  0  0
   12.1382    5.0750   -3.1914 O   0  0  0  0  0  0  0  0  0  0  0  0
   10.2864    3.6162   -3.0153 C   0  0  0  0  0  0  0  0  0  0  0  0
   10.6788    2.8817   -4.0796 F   0  0  0  0  0  0  0  0  0  0  0  0
    9.4161    4.5539   -3.4509 F   0  0  0  0  0  0  0  0  0  0  0  0
    9.6440    2.8101   -2.1614 F   0  0  0  0  0  0  0  0  0  0  0  0
  1  6  2  0  0  0  0
  1  2  1  0  0  0  0
  2  3  2  0  0  0  0
  3  4  1  0  0  0  0
  4  9  1  0  0  0  0
  5 10  1  0  0  0  0
  5  4  2  0  0  0  0
  6  5  1  0  0  0  0
  7  1  1  0  0  0  0
 11 13  2  0  0  0  0
 11  6  1  0  0  0  0
 12 11  2  0  0  0  0
 14 15  3  0  0  0  0
 16 17  2  0  0  0  0
 18  8  1  0  0  0  0
 18 16  1  0  0  0  0
 19 16  1  0  0  0  0
 19 22  1  0  0  0  0
 20 19  1  0  0  0  0
 21 19  1  0  0  0  0
M  RAD  2   2   2   3   2
M  END
