Coordinates from ORCA-job p-NO2-Ph-N2-OOCCF3-B3LYPG-aug-cc-pVDZ-scan-d09-49-n400
 OpenBabel10311713223D

 22 20  0  0  0  0  0  0  0  0999 V2000
   15.0471    7.2775   -3.2921 C   0  0  0  0  0  0  0  0  0  0  0  0
   14.5209    6.5010   -2.2385 C   0  0  0  0  0  0  0  0  0  0  0  0
   15.1542    6.5731   -1.1451 C   0  0  0  0  0  0  0  0  0  0  0  0
   16.2554    7.2075   -0.6380 C   0  0  0  0  0  0  0  0  0  0  0  0
   16.8003    7.9920   -1.6755 C   0  0  0  0  0  0  0  0  0  0  0  0
   16.2001    8.0109   -2.9501 C   0  0  0  0  0  0  0  0  0  0  0  0
   14.6294    7.3327   -4.2943 H   0  0  0  0  0  0  0  0  0  0  0  0
   12.9151    5.4931   -2.7549 H   0  0  0  0  0  0  0  0  0  0  0  0
   16.6715    7.1515    0.3632 H   0  0  0  0  0  0  0  0  0  0  0  0
   17.6913    8.5905   -1.4983 H   0  0  0  0  0  0  0  0  0  0  0  0
   16.8241    8.8567   -3.9940 N   0  0  0  0  0  0  0  0  0  0  0  0
   16.2984    8.8658   -5.1023 O   0  0  0  0  0  0  0  0  0  0  0  0
   17.8308    9.4916   -3.6914 O   0  0  0  0  0  0  0  0  0  0  0  0
   14.3842    5.2868    0.8102 N   0  0  0  0  0  0  0  0  0  0  0  0
   13.7072    4.5930    1.3381 N   0  0  0  0  0  0  0  0  0  0  0  0
   11.5069    4.2792   -2.3336 C   0  0  0  0  0  0  0  0  0  0  0  0
   11.8027    4.0751   -1.1838 O   0  0  0  0  0  0  0  0  0  0  0  0
   12.1334    5.0707   -3.1978 O   0  0  0  0  0  0  0  0  0  0  0  0
   10.2815    3.6128   -3.0137 C   0  0  0  0  0  0  0  0  0  0  0  0
   10.6706    2.8748   -4.0768 F   0  0  0  0  0  0  0  0  0  0  0  0
    9.4118    4.5506   -3.4500 F   0  0  0  0  0  0  0  0  0  0  0  0
    9.6400    2.8101   -2.1560 F   0  0  0  0  0  0  0  0  0  0  0  0
  1  6  2  0  0  0  0
  1  2  1  0  0  0  0
  2  3  2  0  0  0  0
  3  4  1  0  0  0  0
  4  9  1  0  0  0  0
  5 10  1  0  0  0  0
  5  4  2  0  0  0  0
  6  5  1  0  0  0  0
  7  1  1  0  0  0  0
 11 13  2  0  0  0  0
 11  6  1  0  0  0  0
 12 11  2  0  0  0  0
 14 15  3  0  0  0  0
 16 17  2  0  0  0  0
 18  8  1  0  0  0  0
 18 16  1  0  0  0  0
 19 16  1  0  0  0  0
 19 22  1  0  0  0  0
 20 19  1  0  0  0  0
 21 19  1  0  0  0  0
M  RAD  2   2   2   3   2
M  END
