Coordinates from ORCA-job p-NO2-Ph-N2-OOCCF3-B3LYPG-aug-cc-pVDZ-scan-d09-49-n400
 OpenBabel10311713223D

 22 20  0  0  0  0  0  0  0  0999 V2000
   15.1921    7.5117   -3.6435 C   0  0  0  0  0  0  0  0  0  0  0  0
   14.5486    6.6906   -2.7093 C   0  0  0  0  0  0  0  0  0  0  0  0
   15.0091    6.6080   -1.5431 C   0  0  0  0  0  0  0  0  0  0  0  0
   16.0704    7.1498   -0.8597 C   0  0  0  0  0  0  0  0  0  0  0  0
   16.7594    7.9923   -1.7593 C   0  0  0  0  0  0  0  0  0  0  0  0
   16.3221    8.1526   -3.0907 C   0  0  0  0  0  0  0  0  0  0  0  0
   14.8995    7.6713   -4.6775 H   0  0  0  0  0  0  0  0  0  0  0  0
   12.7851    5.4803   -2.9961 H   0  0  0  0  0  0  0  0  0  0  0  0
   16.3669    6.9938    0.1729 H   0  0  0  0  0  0  0  0  0  0  0  0
   17.6446    8.5318   -1.4286 H   0  0  0  0  0  0  0  0  0  0  0  0
   17.1016    9.0552   -3.9700 N   0  0  0  0  0  0  0  0  0  0  0  0
   16.7143    9.1891   -5.1265 O   0  0  0  0  0  0  0  0  0  0  0  0
   18.0846    9.6145   -3.4923 O   0  0  0  0  0  0  0  0  0  0  0  0
   14.2149    4.8722    1.5878 N   0  0  0  0  0  0  0  0  0  0  0  0
   13.5713    4.1867    2.1660 N   0  0  0  0  0  0  0  0  0  0  0  0
   11.4778    4.2647   -2.3467 C   0  0  0  0  0  0  0  0  0  0  0  0
   11.8914    4.1617   -1.2216 O   0  0  0  0  0  0  0  0  0  0  0  0
   11.9903    5.0075   -3.3280 O   0  0  0  0  0  0  0  0  0  0  0  0
   10.2208    3.5115   -2.8560 C   0  0  0  0  0  0  0  0  0  0  0  0
   10.5381    2.7054   -3.8927 F   0  0  0  0  0  0  0  0  0  0  0  0
    9.2812    4.3864   -3.2765 F   0  0  0  0  0  0  0  0  0  0  0  0
    9.6929    2.7601   -1.8830 F   0  0  0  0  0  0  0  0  0  0  0  0
  1  6  2  0  0  0  0
  1  2  1  0  0  0  0
  2  3  2  0  0  0  0
  3  4  1  0  0  0  0
  4  9  1  0  0  0  0
  5 10  1  0  0  0  0
  5  4  2  0  0  0  0
  6  5  1  0  0  0  0
  7  1  1  0  0  0  0
 11 13  2  0  0  0  0
 11  6  1  0  0  0  0
 12 11  2  0  0  0  0
 14 15  3  0  0  0  0
 16 17  2  0  0  0  0
 18  8  1  0  0  0  0
 18 16  1  0  0  0  0
 19 16  1  0  0  0  0
 19 22  1  0  0  0  0
 20 19  1  0  0  0  0
 21 19  1  0  0  0  0
M  RAD  2   2   2   3   2
M  END
