Coordinates from ORCA-job p-NO2-Ph-N2-OOCCF3-B3LYPG-aug-cc-pVDZ-scan-d09-49-n400
 OpenBabel10311713223D

 22 20  0  0  0  0  0  0  0  0999 V2000
   15.2200    7.5596   -3.7145 C   0  0  0  0  0  0  0  0  0  0  0  0
   14.5407    6.7255   -2.8196 C   0  0  0  0  0  0  0  0  0  0  0  0
   14.9596    6.6074   -1.6418 C   0  0  0  0  0  0  0  0  0  0  0  0
   16.0041    7.1196   -0.9110 C   0  0  0  0  0  0  0  0  0  0  0  0
   16.7308    7.9752   -1.7679 C   0  0  0  0  0  0  0  0  0  0  0  0
   16.3388    8.1731   -3.1089 C   0  0  0  0  0  0  0  0  0  0  0  0
   14.9628    7.7474   -4.7530 H   0  0  0  0  0  0  0  0  0  0  0  0
   12.7556    5.4850   -3.0697 H   0  0  0  0  0  0  0  0  0  0  0  0
   16.2659    6.9356    0.1264 H   0  0  0  0  0  0  0  0  0  0  0  0
   17.6109    8.4962   -1.3964 H   0  0  0  0  0  0  0  0  0  0  0  0
   17.1567    9.0875   -3.9398 N   0  0  0  0  0  0  0  0  0  0  0  0
   16.8115    9.2506   -5.1059 O   0  0  0  0  0  0  0  0  0  0  0  0
   18.1325    9.6195   -3.4183 O   0  0  0  0  0  0  0  0  0  0  0  0
   14.2171    4.8344    1.6910 N   0  0  0  0  0  0  0  0  0  0  0  0
   13.5713    4.1488    2.2668 N   0  0  0  0  0  0  0  0  0  0  0  0
   11.4835    4.2713   -2.3524 C   0  0  0  0  0  0  0  0  0  0  0  0
   11.9322    4.1991   -1.2383 O   0  0  0  0  0  0  0  0  0  0  0  0
   11.9572    4.9966   -3.3664 O   0  0  0  0  0  0  0  0  0  0  0  0
   10.2205    3.4927   -2.8055 C   0  0  0  0  0  0  0  0  0  0  0  0
   10.5157    2.6660   -3.8325 F   0  0  0  0  0  0  0  0  0  0  0  0
    9.2586    4.3472   -3.2172 F   0  0  0  0  0  0  0  0  0  0  0  0
    9.7312    2.7586   -1.7997 F   0  0  0  0  0  0  0  0  0  0  0  0
  1  6  2  0  0  0  0
  1  2  1  0  0  0  0
  2  3  2  0  0  0  0
  3  4  1  0  0  0  0
  4  9  1  0  0  0  0
  5 10  1  0  0  0  0
  5  4  2  0  0  0  0
  6  5  1  0  0  0  0
  7  1  1  0  0  0  0
 11 13  2  0  0  0  0
 11  6  1  0  0  0  0
 12 11  2  0  0  0  0
 14 15  3  0  0  0  0
 16 17  2  0  0  0  0
 18  8  1  0  0  0  0
 18 16  1  0  0  0  0
 19 16  1  0  0  0  0
 19 22  1  0  0  0  0
 20 19  1  0  0  0  0
 21 19  1  0  0  0  0
M  RAD  2   2   2   3   2
M  END
