Coordinates from ORCA-job p-NO2-Ph-N2-OOCCF3-B3LYPG-aug-cc-pVDZ-scan-d09-49-n400
 OpenBabel10311713223D

 22 20  0  0  0  0  0  0  0  0999 V2000
   15.2280    7.5714   -3.7334 C   0  0  0  0  0  0  0  0  0  0  0  0
   14.5379    6.7338   -2.8501 C   0  0  0  0  0  0  0  0  0  0  0  0
   14.9464    6.6072   -1.6695 C   0  0  0  0  0  0  0  0  0  0  0  0
   15.9860    7.1110   -0.9258 C   0  0  0  0  0  0  0  0  0  0  0  0
   16.7228    7.9695   -1.7711 C   0  0  0  0  0  0  0  0  0  0  0  0
   16.3435    8.1772   -3.1142 C   0  0  0  0  0  0  0  0  0  0  0  0
   14.9806    7.7667   -4.7730 H   0  0  0  0  0  0  0  0  0  0  0  0
   12.7487    5.4874   -3.0915 H   0  0  0  0  0  0  0  0  0  0  0  0
   16.2375    6.9190    0.1128 H   0  0  0  0  0  0  0  0  0  0  0  0
   17.6014    8.4852   -1.3888 H   0  0  0  0  0  0  0  0  0  0  0  0
   17.1719    9.0939   -3.9319 N   0  0  0  0  0  0  0  0  0  0  0  0
   16.8347    9.2693   -5.0987 O   0  0  0  0  0  0  0  0  0  0  0  0
   18.1421    9.6229   -3.3972 O   0  0  0  0  0  0  0  0  0  0  0  0
   14.2116    4.8216    1.7161 N   0  0  0  0  0  0  0  0  0  0  0  0
   13.5632    4.1359    2.2888 N   0  0  0  0  0  0  0  0  0  0  0  0
   11.4878    4.2752   -2.3540 C   0  0  0  0  0  0  0  0  0  0  0  0
   11.9477    4.2129   -1.2437 O   0  0  0  0  0  0  0  0  0  0  0  0
   11.9494    4.9946   -3.3776 O   0  0  0  0  0  0  0  0  0  0  0  0
   10.2233    3.4889   -2.7889 C   0  0  0  0  0  0  0  0  0  0  0  0
   10.5114    2.6556   -3.8124 F   0  0  0  0  0  0  0  0  0  0  0  0
    9.2544    4.3371   -3.1976 F   0  0  0  0  0  0  0  0  0  0  0  0
    9.7462    2.7608   -1.7728 F   0  0  0  0  0  0  0  0  0  0  0  0
  1  6  2  0  0  0  0
  1  2  1  0  0  0  0
  2  3  2  0  0  0  0
  3  4  1  0  0  0  0
  4  9  1  0  0  0  0
  5 10  1  0  0  0  0
  5  4  2  0  0  0  0
  6  5  1  0  0  0  0
  7  1  1  0  0  0  0
 11 13  2  0  0  0  0
 11  6  1  0  0  0  0
 12 11  2  0  0  0  0
 14 15  3  0  0  0  0
 16 17  2  0  0  0  0
 18  8  1  0  0  0  0
 18 16  1  0  0  0  0
 19 16  1  0  0  0  0
 19 22  1  0  0  0  0
 20 19  1  0  0  0  0
 21 19  1  0  0  0  0
M  RAD  2   2   2   3   2
M  END
