Coordinates from ORCA-job p-NO2-Ph-N2-OOCCF3-B3LYPG-aug-cc-pVDZ-scan-d09-49-n400
 OpenBabel10311713223D

 22 20  0  0  0  0  0  0  0  0999 V2000
   15.2471    7.6056   -3.7823 C   0  0  0  0  0  0  0  0  0  0  0  0
   14.5307    6.7589   -2.9293 C   0  0  0  0  0  0  0  0  0  0  0  0
   14.9112    6.6084   -1.7423 C   0  0  0  0  0  0  0  0  0  0  0  0
   15.9376    7.0902   -0.9661 C   0  0  0  0  0  0  0  0  0  0  0  0
   16.7001    7.9570   -1.7797 C   0  0  0  0  0  0  0  0  0  0  0  0
   16.3529    8.1912   -3.1272 C   0  0  0  0  0  0  0  0  0  0  0  0
   15.0251    7.8210   -4.8236 H   0  0  0  0  0  0  0  0  0  0  0  0
   12.7270    5.4944   -3.1538 H   0  0  0  0  0  0  0  0  0  0  0  0
   16.1634    6.8779    0.0745 H   0  0  0  0  0  0  0  0  0  0  0  0
   17.5739    8.4587   -1.3688 H   0  0  0  0  0  0  0  0  0  0  0  0
   17.2070    9.1151   -3.9098 N   0  0  0  0  0  0  0  0  0  0  0  0
   16.9021    9.3081   -5.0826 O   0  0  0  0  0  0  0  0  0  0  0  0
   18.1732    9.6210   -3.3461 O   0  0  0  0  0  0  0  0  0  0  0  0
   14.2049    4.7842    1.8016 N   0  0  0  0  0  0  0  0  0  0  0  0
   13.5495    4.0974    2.3650 N   0  0  0  0  0  0  0  0  0  0  0  0
   11.4978    4.2853   -2.3622 C   0  0  0  0  0  0  0  0  0  0  0  0
   11.9872    4.2490   -1.2633 O   0  0  0  0  0  0  0  0  0  0  0  0
   11.9260    4.9893   -3.4110 O   0  0  0  0  0  0  0  0  0  0  0  0
   10.2303    3.4790   -2.7489 C   0  0  0  0  0  0  0  0  0  0  0  0
   10.5000    2.6290   -3.7636 F   0  0  0  0  0  0  0  0  0  0  0  0
    9.2429    4.3101   -3.1481 F   0  0  0  0  0  0  0  0  0  0  0  0
    9.7870    2.7661   -1.7071 F   0  0  0  0  0  0  0  0  0  0  0  0
  1  6  2  0  0  0  0
  1  2  1  0  0  0  0
  2  3  2  0  0  0  0
  3  4  1  0  0  0  0
  4  9  1  0  0  0  0
  5 10  1  0  0  0  0
  5  4  2  0  0  0  0
  6  5  1  0  0  0  0
  7  1  1  0  0  0  0
 11 13  2  0  0  0  0
 11  6  1  0  0  0  0
 12 11  2  0  0  0  0
 14 15  3  0  0  0  0
 16 17  2  0  0  0  0
 18  8  1  0  0  0  0
 18 16  1  0  0  0  0
 19 16  1  0  0  0  0
 19 22  1  0  0  0  0
 20 19  1  0  0  0  0
 21 19  1  0  0  0  0
M  RAD  2   2   2   3   2
M  END
