Coordinates from ORCA-job p-NO2-Ph-N2-OOCCF3-B3LYPG-aug-cc-pVDZ-scan-d09-49-n400
 OpenBabel10311713223D

 22 21  0  0  0  0  0  0  0  0999 V2000
   14.6668    8.1591   -3.0262 C   0  0  0  0  0  0  0  0  0  0  0  0
   13.8337    7.5424   -2.1030 C   0  0  0  0  0  0  0  0  0  0  0  0
   14.4072    6.7023   -1.1082 C   0  0  0  0  0  0  0  0  0  0  0  0
   15.8147    6.4914   -1.0639 C   0  0  0  0  0  0  0  0  0  0  0  0
   16.6268    7.1089   -1.9995 C   0  0  0  0  0  0  0  0  0  0  0  0
   16.0424    7.9373   -2.9623 C   0  0  0  0  0  0  0  0  0  0  0  0
   14.2574    8.8011   -3.8019 H   0  0  0  0  0  0  0  0  0  0  0  0
   12.7543    7.6537   -2.1374 H   0  0  0  0  0  0  0  0  0  0  0  0
   16.2314    5.8379   -0.2995 H   0  0  0  0  0  0  0  0  0  0  0  0
   17.7034    6.9599   -1.9948 H   0  0  0  0  0  0  0  0  0  0  0  0
   16.9208    8.6037   -3.9511 N   0  0  0  0  0  0  0  0  0  0  0  0
   16.3870    9.3405   -4.7724 O   0  0  0  0  0  0  0  0  0  0  0  0
   18.1241    8.3767   -3.8769 O   0  0  0  0  0  0  0  0  0  0  0  0
   13.6901    6.1562   -0.2848 N   0  0  0  0  0  0  0  0  0  0  0  0
   12.9944    5.5163    0.3381 N   0  0  0  0  0  0  0  0  0  0  0  0
   11.8613    4.2865   -1.9356 C   0  0  0  0  0  0  0  0  0  0  0  0
   12.3579    3.8125   -0.8688 O   0  0  0  0  0  0  0  0  0  0  0  0
   11.8874    5.4488   -2.3639 O   0  0  0  0  0  0  0  0  0  0  0  0
   11.1253    3.2017   -2.7933 C   0  0  0  0  0  0  0  0  0  0  0  0
   11.9678    2.1900   -3.1201 F   0  0  0  0  0  0  0  0  0  0  0  0
   10.6354    3.7046   -3.9421 F   0  0  0  0  0  0  0  0  0  0  0  0
   10.0877    2.6656   -2.1069 F   0  0  0  0  0  0  0  0  0  0  0  0
  1  6  2  0  0  0  0
  1  2  1  0  0  0  0
  2  3  2  0  0  0  0
  3  4  1  0  0  0  0
  3 14  1  0  0  0  0
  4  9  1  0  0  0  0
  5 10  1  0  0  0  0
  5  4  2  0  0  0  0
  6  5  1  0  0  0  0
  7  1  1  0  0  0  0
  8  2  1  0  0  0  0
 11 13  2  0  0  0  0
 11  6  1  0  0  0  0
 12 11  2  0  0  0  0
 14 15  1  0  0  0  0
 16 17  1  0  0  0  0
 18 16  2  0  0  0  0
 19 22  1  0  0  0  0
 19 16  1  0  0  0  0
 20 19  1  0  0  0  0
 21 19  1  0  0  0  0
M  RAD  3  14   2  15   3  17   2
M  END
