Coordinates from ORCA-job p-NO2-Ph-N2-OOCCF3-B3LYPG-aug-cc-pVDZ-scan-d09-49-n400
 OpenBabel10311713223D

 22 21  0  0  0  0  0  0  0  0999 V2000
   14.8119    7.6001   -3.2349 C   0  0  0  0  0  0  0  0  0  0  0  0
   14.0600    6.8853   -2.3052 C   0  0  0  0  0  0  0  0  0  0  0  0
   14.6838    6.5135   -1.1020 C   0  0  0  0  0  0  0  0  0  0  0  0
   16.0131    6.8500   -0.7954 C   0  0  0  0  0  0  0  0  0  0  0  0
   16.7574    7.5450   -1.7412 C   0  0  0  0  0  0  0  0  0  0  0  0
   16.1403    7.9092   -2.9405 C   0  0  0  0  0  0  0  0  0  0  0  0
   14.3791    7.9141   -4.1815 H   0  0  0  0  0  0  0  0  0  0  0  0
   13.0123    6.6245   -2.4715 H   0  0  0  0  0  0  0  0  0  0  0  0
   16.4474    6.5554    0.1582 H   0  0  0  0  0  0  0  0  0  0  0  0
   17.7943    7.8156   -1.5614 H   0  0  0  0  0  0  0  0  0  0  0  0
   16.9344    8.6687   -3.9403 N   0  0  0  0  0  0  0  0  0  0  0  0
   16.3700    8.9933   -4.9778 O   0  0  0  0  0  0  0  0  0  0  0  0
   18.1011    8.9191   -3.6580 O   0  0  0  0  0  0  0  0  0  0  0  0
   13.9580    5.8408   -0.1674 N   0  0  0  0  0  0  0  0  0  0  0  0
   13.1744    5.0784    0.1525 N   0  0  0  0  0  0  0  0  0  0  0  0
   11.6007    4.4492   -1.9697 C   0  0  0  0  0  0  0  0  0  0  0  0
   12.5970    3.8895   -1.3995 O   0  0  0  0  0  0  0  0  0  0  0  0
   11.2571    5.6327   -1.9326 O   0  0  0  0  0  0  0  0  0  0  0  0
   10.7622    3.4447   -2.8262 C   0  0  0  0  0  0  0  0  0  0  0  0
   11.5370    2.8556   -3.7716 F   0  0  0  0  0  0  0  0  0  0  0  0
    9.7408    4.0480   -3.4591 F   0  0  0  0  0  0  0  0  0  0  0  0
   10.2446    2.4643   -2.0496 F   0  0  0  0  0  0  0  0  0  0  0  0
  1  6  2  0  0  0  0
  1  2  1  0  0  0  0
  2  3  2  0  0  0  0
  3  4  1  0  0  0  0
  3 14  1  0  0  0  0
  4  9  1  0  0  0  0
  5 10  1  0  0  0  0
  5  4  2  0  0  0  0
  6  5  1  0  0  0  0
  7  1  1  0  0  0  0
  8  2  1  0  0  0  0
 11 13  2  0  0  0  0
 11  6  1  0  0  0  0
 12 11  2  0  0  0  0
 14 15  2  0  0  0  0
 16 18  2  0  0  0  0
 16 17  1  0  0  0  0
 19 22  1  0  0  0  0
 19 16  1  0  0  0  0
 20 19  1  0  0  0  0
 21 19  1  0  0  0  0
M  RAD  2  15   2  17   2
M  END
