Coordinates from ORCA-job p-NO2-Ph-N2-OOCCF3-B3LYPG-aug-cc-pVDZ-scan-d09-49-n400
 OpenBabel10311713223D

 22 20  0  0  0  0  0  0  0  0999 V2000
   15.1218    7.3952   -3.4635 C   0  0  0  0  0  0  0  0  0  0  0  0
   14.5547    6.6039   -2.4526 C   0  0  0  0  0  0  0  0  0  0  0  0
   15.1052    6.6006   -1.3215 C   0  0  0  0  0  0  0  0  0  0  0  0
   16.1933    7.1968   -0.7365 C   0  0  0  0  0  0  0  0  0  0  0  0
   16.8001    8.0076   -1.7203 C   0  0  0  0  0  0  0  0  0  0  0  0
   16.2696    8.0891   -3.0245 C   0  0  0  0  0  0  0  0  0  0  0  0
   14.7570    7.4957   -4.4821 H   0  0  0  0  0  0  0  0  0  0  0  0
   12.8428    5.4703   -2.8428 H   0  0  0  0  0  0  0  0  0  0  0  0
   16.5596    7.0979    0.2805 H   0  0  0  0  0  0  0  0  0  0  0  0
   17.6916    8.5823   -1.4773 H   0  0  0  0  0  0  0  0  0  0  0  0
   16.9644    8.9621   -3.9991 N   0  0  0  0  0  0  0  0  0  0  0  0
   16.4968    9.0276   -5.1314 O   0  0  0  0  0  0  0  0  0  0  0  0
   17.9631    9.5664   -3.6185 O   0  0  0  0  0  0  0  0  0  0  0  0
   14.2862    5.0654    1.2144 N   0  0  0  0  0  0  0  0  0  0  0  0
   13.6287    4.3757    1.7713 N   0  0  0  0  0  0  0  0  0  0  0  0
   11.4716    4.2544   -2.3337 C   0  0  0  0  0  0  0  0  0  0  0  0
   11.8121    4.0880   -1.1915 O   0  0  0  0  0  0  0  0  0  0  0  0
   12.0582    5.0304   -3.2444 O   0  0  0  0  0  0  0  0  0  0  0  0
   10.2331    3.5550   -2.9539 C   0  0  0  0  0  0  0  0  0  0  0  0
   10.5968    2.7928   -4.0085 F   0  0  0  0  0  0  0  0  0  0  0  0
    9.3381    4.4703   -3.3861 F   0  0  0  0  0  0  0  0  0  0  0  0
    9.6320    2.7697   -2.0528 F   0  0  0  0  0  0  0  0  0  0  0  0
  1  6  2  0  0  0  0
  1  2  1  0  0  0  0
  2  3  2  0  0  0  0
  3  4  1  0  0  0  0
  4  9  1  0  0  0  0
  5 10  1  0  0  0  0
  5  4  2  0  0  0  0
  6  5  1  0  0  0  0
  7  1  1  0  0  0  0
 11 13  2  0  0  0  0
 11  6  1  0  0  0  0
 12 11  2  0  0  0  0
 14 15  3  0  0  0  0
 16 17  2  0  0  0  0
 18  8  1  0  0  0  0
 18 16  1  0  0  0  0
 19 16  1  0  0  0  0
 19 22  1  0  0  0  0
 20 19  1  0  0  0  0
 21 19  1  0  0  0  0
M  RAD  2   2   2   3   2
M  END
