Coordinates from ORCA-job p-NO2-Ph-N2-OOCCF3-B3LYPG-aug-cc-pVDZ-scan-d09-49-n400
 OpenBabel10311713223D

 22 20  0  0  0  0  0  0  0  0999 V2000
   15.2603    7.6259   -3.8151 C   0  0  0  0  0  0  0  0  0  0  0  0
   14.5255    6.7737   -2.9835 C   0  0  0  0  0  0  0  0  0  0  0  0
   14.8851    6.6062   -1.7921 C   0  0  0  0  0  0  0  0  0  0  0  0
   15.9025    7.0738   -0.9954 C   0  0  0  0  0  0  0  0  0  0  0  0
   16.6831    7.9452   -1.7862 C   0  0  0  0  0  0  0  0  0  0  0  0
   16.3589    8.1970   -3.1361 C   0  0  0  0  0  0  0  0  0  0  0  0
   15.0561    7.8546   -4.8572 H   0  0  0  0  0  0  0  0  0  0  0  0
   12.7142    5.4992   -3.1953 H   0  0  0  0  0  0  0  0  0  0  0  0
   16.1106    6.8481    0.0460 H   0  0  0  0  0  0  0  0  0  0  0  0
   17.5532    8.4368   -1.3557 H   0  0  0  0  0  0  0  0  0  0  0  0
   17.2307    9.1246   -3.8945 N   0  0  0  0  0  0  0  0  0  0  0  0
   16.9417    9.3379   -5.0678 O   0  0  0  0  0  0  0  0  0  0  0  0
   18.1871    9.6232   -3.3081 O   0  0  0  0  0  0  0  0  0  0  0  0
   14.2039    4.7625    1.8608 N   0  0  0  0  0  0  0  0  0  0  0  0
   13.5436    4.0755    2.4183 N   0  0  0  0  0  0  0  0  0  0  0  0
   11.5063    4.2940   -2.3687 C   0  0  0  0  0  0  0  0  0  0  0  0
   12.0149    4.2755   -1.2784 O   0  0  0  0  0  0  0  0  0  0  0  0
   11.9123    4.9867   -3.4333 O   0  0  0  0  0  0  0  0  0  0  0  0
   10.2373    3.4751   -2.7226 C   0  0  0  0  0  0  0  0  0  0  0  0
   10.4947    2.6132   -3.7305 F   0  0  0  0  0  0  0  0  0  0  0  0
    9.2380    4.2948   -3.1155 F   0  0  0  0  0  0  0  0  0  0  0  0
    9.8168    2.7735   -1.6638 F   0  0  0  0  0  0  0  0  0  0  0  0
  1  6  2  0  0  0  0
  1  2  1  0  0  0  0
  2  3  2  0  0  0  0
  3  4  1  0  0  0  0
  4  9  1  0  0  0  0
  5 10  1  0  0  0  0
  5  4  2  0  0  0  0
  6  5  1  0  0  0  0
  7  1  1  0  0  0  0
 11 13  2  0  0  0  0
 11  6  1  0  0  0  0
 12 11  2  0  0  0  0
 14 15  3  0  0  0  0
 16 17  2  0  0  0  0
 18  8  1  0  0  0  0
 18 16  1  0  0  0  0
 19 16  1  0  0  0  0
 19 22  1  0  0  0  0
 20 19  1  0  0  0  0
 21 19  1  0  0  0  0
M  RAD  2   2   2   3   2
M  END
