Coordinates from ORCA-job p-NO2-Ph-N2-OOCCF3-B3LYPG-aug-cc-pVDZ-scan-d09-49-n400
 OpenBabel10311713223D

 22 20  0  0  0  0  0  0  0  0999 V2000
   15.0841    7.3321   -3.3675 C   0  0  0  0  0  0  0  0  0  0  0  0
   14.5449    6.5516   -2.3288 C   0  0  0  0  0  0  0  0  0  0  0  0
   15.1413    6.5901   -1.2186 C   0  0  0  0  0  0  0  0  0  0  0  0
   16.2378    7.2087   -0.6782 C   0  0  0  0  0  0  0  0  0  0  0  0
   16.8076    8.0041   -1.6955 C   0  0  0  0  0  0  0  0  0  0  0  0
   16.2364    8.0492   -2.9834 C   0  0  0  0  0  0  0  0  0  0  0  0
   14.6883    7.4061   -4.3770 H   0  0  0  0  0  0  0  0  0  0  0  0
   12.8730    5.4752   -2.7929 H   0  0  0  0  0  0  0  0  0  0  0  0
   16.6339    7.1354    0.3297 H   0  0  0  0  0  0  0  0  0  0  0  0
   17.6993    8.5931   -1.4915 H   0  0  0  0  0  0  0  0  0  0  0  0
   16.8905    8.9067   -3.9988 N   0  0  0  0  0  0  0  0  0  0  0  0
   16.3878    8.9406   -5.1175 O   0  0  0  0  0  0  0  0  0  0  0  0
   17.8935    9.5304   -3.6632 O   0  0  0  0  0  0  0  0  0  0  0  0
   14.3474    5.1886    1.0037 N   0  0  0  0  0  0  0  0  0  0  0  0
   13.6764    4.4962    1.5409 N   0  0  0  0  0  0  0  0  0  0  0  0
   11.4796    4.2606   -2.3354 C   0  0  0  0  0  0  0  0  0  0  0  0
   11.7931    4.0714   -1.1887 O   0  0  0  0  0  0  0  0  0  0  0  0
   12.0915    5.0466   -3.2186 O   0  0  0  0  0  0  0  0  0  0  0  0
   10.2490    3.5811   -2.9933 C   0  0  0  0  0  0  0  0  0  0  0  0
   10.6288    2.8341   -4.0532 F   0  0  0  0  0  0  0  0  0  0  0  0
    9.3696    4.5102   -3.4282 F   0  0  0  0  0  0  0  0  0  0  0  0
    9.6232    2.7848   -2.1187 F   0  0  0  0  0  0  0  0  0  0  0  0
  1  6  2  0  0  0  0
  1  2  1  0  0  0  0
  2  3  2  0  0  0  0
  3  4  1  0  0  0  0
  4  9  1  0  0  0  0
  5 10  1  0  0  0  0
  5  4  2  0  0  0  0
  6  5  1  0  0  0  0
  7  1  1  0  0  0  0
 11 13  2  0  0  0  0
 11  6  1  0  0  0  0
 12 11  2  0  0  0  0
 14 15  3  0  0  0  0
 16 17  2  0  0  0  0
 18  8  1  0  0  0  0
 18 16  1  0  0  0  0
 19 16  1  0  0  0  0
 19 22  1  0  0  0  0
 20 19  1  0  0  0  0
 21 19  1  0  0  0  0
M  RAD  2   2   2   3   2
M  END
