Coordinates from ORCA-job p-NO2-Ph-N2-OOCCF3-B3LYPG-aug-cc-pVDZ-scan-d09-49-n400
 OpenBabel10311713223D

 22 20  0  0  0  0  0  0  0  0999 V2000
   15.1179    7.3880   -3.4522 C   0  0  0  0  0  0  0  0  0  0  0  0
   14.5536    6.5980   -2.4385 C   0  0  0  0  0  0  0  0  0  0  0  0
   15.1090    6.5989   -1.3090 C   0  0  0  0  0  0  0  0  0  0  0  0
   16.1987    7.1983   -0.7301 C   0  0  0  0  0  0  0  0  0  0  0  0
   16.8014    8.0074   -1.7176 C   0  0  0  0  0  0  0  0  0  0  0  0
   16.2663    8.0847   -3.0199 C   0  0  0  0  0  0  0  0  0  0  0  0
   14.7494    7.4854   -4.4698 H   0  0  0  0  0  0  0  0  0  0  0  0
   12.8461    5.4693   -2.8332 H   0  0  0  0  0  0  0  0  0  0  0  0
   16.5685    7.1025    0.2859 H   0  0  0  0  0  0  0  0  0  0  0  0
   17.6929    8.5836   -1.4788 H   0  0  0  0  0  0  0  0  0  0  0  0
   16.9563    8.9559   -3.9995 N   0  0  0  0  0  0  0  0  0  0  0  0
   16.4841    9.0182   -5.1301 O   0  0  0  0  0  0  0  0  0  0  0  0
   17.9553    9.5629   -3.6240 O   0  0  0  0  0  0  0  0  0  0  0  0
   14.2966    5.0817    1.1913 N   0  0  0  0  0  0  0  0  0  0  0  0
   13.6364    4.3915    1.7445 N   0  0  0  0  0  0  0  0  0  0  0  0
   11.4711    4.2537   -2.3331 C   0  0  0  0  0  0  0  0  0  0  0  0
   11.8069    4.0835   -1.1901 O   0  0  0  0  0  0  0  0  0  0  0  0
   12.0621    5.0315   -3.2391 O   0  0  0  0  0  0  0  0  0  0  0  0
   10.2339    3.5578   -2.9599 C   0  0  0  0  0  0  0  0  0  0  0  0
   10.6004    2.7982   -4.0155 F   0  0  0  0  0  0  0  0  0  0  0  0
    9.3417    4.4755   -3.3927 F   0  0  0  0  0  0  0  0  0  0  0  0
    9.6284    2.7705   -2.0634 F   0  0  0  0  0  0  0  0  0  0  0  0
  1  6  2  0  0  0  0
  1  2  1  0  0  0  0
  2  3  2  0  0  0  0
  3  4  1  0  0  0  0
  4  9  1  0  0  0  0
  5 10  1  0  0  0  0
  5  4  2  0  0  0  0
  6  5  1  0  0  0  0
  7  1  1  0  0  0  0
 11 13  2  0  0  0  0
 11  6  1  0  0  0  0
 12 11  2  0  0  0  0
 14 15  3  0  0  0  0
 16 17  2  0  0  0  0
 18  8  1  0  0  0  0
 18 16  1  0  0  0  0
 19 16  1  0  0  0  0
 19 22  1  0  0  0  0
 20 19  1  0  0  0  0
 21 19  1  0  0  0  0
M  RAD  2   2   2   3   2
M  END
