Coordinates from ORCA-job 4-MeO-Ph-N2-Cl-B3LYPG-6-31G_dp-MTMO-d009-169-n800
 OpenBabel09051908443D

 18 16  0  0  0  0  0  0  0  0999 V2000
   -0.8909   -1.2401   -1.0855 C   0  0  0  0  0  0  0  0  0  0  0  0
    0.3682   -0.6409   -0.9278 C   0  0  0  0  0  0  0  0  0  0  0  0
    0.2126    0.4691   -0.1281 C   0  0  0  0  0  0  0  0  0  0  0  0
   -0.7676    1.0047    0.4428 C   0  0  0  0  0  0  0  0  0  0  0  0
   -2.0482    0.4486    0.3181 C   0  0  0  0  0  0  0  0  0  0  0  0
   -2.0682   -0.7167   -0.4844 C   0  0  0  0  0  0  0  0  0  0  0  0
   -0.9906   -2.1398   -1.6847 H   0  0  0  0  0  0  0  0  0  0  0  0
    1.2733   -1.0263   -1.3804 H   0  0  0  0  0  0  0  0  0  0  0  0
   -0.7061    2.5625    1.5425 H   0  0  0  0  0  0  0  0  0  0  0  0
   -2.9370    0.8573    0.7810 H   0  0  0  0  0  0  0  0  0  0  0  0
    3.5925   -2.0701   -3.1994 N   0  0  0  0  0  0  0  0  0  0  0  0
    4.4523   -2.3552   -3.8324 N   0  0  0  0  0  0  0  0  0  0  0  0
   -0.8689    3.6126    2.3296 Cl  0  0  0  0  0  0  0  0  0  0  0  0
   -3.1980   -1.4311   -0.7496 O   0  0  0  0  0  0  0  0  0  0  0  0
   -4.4257   -0.9838   -0.1903 C   0  0  0  0  0  0  0  0  0  0  0  0
   -5.1843   -1.6892   -0.5314 H   0  0  0  0  0  0  0  0  0  0  0  0
   -4.6843    0.0231   -0.5407 H   0  0  0  0  0  0  0  0  0  0  0  0
   -4.3928   -0.9875    0.9065 H   0  0  0  0  0  0  0  0  0  0  0  0
  1  2  2  0  0  0  0
  1  6  1  0  0  0  0
  2  3  1  0  0  0  0
  3  4  2  0  0  0  0
  5  4  1  0  0  0  0
  5 10  1  0  0  0  0
  6  5  2  0  0  0  0
  7  1  1  0  0  0  0
  8  2  1  0  0  0  0
  9 13  1  0  0  0  0
 12 11  3  0  0  0  0
 14  6  1  0  0  0  0
 14 15  1  0  0  0  0
 15 18  1  0  0  0  0
 16 15  1  0  0  0  0
 17 15  1  0  0  0  0
M  RAD  2   3   2   4   2
M  END
