Coordinates from ORCA-job 4-MeO-Ph-N2-Cl-B3LYPG-6-31G_dp-MTMO-d009-169-n800
 OpenBabel09051908443D

 18 16  0  0  0  0  0  0  0  0999 V2000
   -0.7219   -0.8760   -0.9074 C   0  0  0  0  0  0  0  0  0  0  0  0
    0.4315   -0.1349   -0.6097 C   0  0  0  0  0  0  0  0  0  0  0  0
    0.0733    0.8990    0.2269 C   0  0  0  0  0  0  0  0  0  0  0  0
   -1.0133    1.2689    0.7318 C   0  0  0  0  0  0  0  0  0  0  0  0
   -2.1977    0.5678    0.4706 C   0  0  0  0  0  0  0  0  0  0  0  0
   -2.0019   -0.5405   -0.3872 C   0  0  0  0  0  0  0  0  0  0  0  0
   -0.6554   -1.7438   -1.5564 H   0  0  0  0  0  0  0  0  0  0  0  0
    1.4129   -0.3767   -0.9975 H   0  0  0  0  0  0  0  0  0  0  0  0
   -1.2399    2.7773    1.8985 H   0  0  0  0  0  0  0  0  0  0  0  0
   -3.1659    0.8337    0.8747 H   0  0  0  0  0  0  0  0  0  0  0  0
    4.0627   -3.2723   -4.1898 N   0  0  0  0  0  0  0  0  0  0  0  0
    4.6869   -3.7774   -4.9494 N   0  0  0  0  0  0  0  0  0  0  0  0
   -1.6015    3.7587    2.7050 Cl  0  0  0  0  0  0  0  0  0  0  0  0
   -3.0042   -1.3730   -0.7855 O   0  0  0  0  0  0  0  0  0  0  0  0
   -4.3211   -1.1156   -0.3172 C   0  0  0  0  0  0  0  0  0  0  0  0
   -4.9514   -1.8899   -0.7558 H   0  0  0  0  0  0  0  0  0  0  0  0
   -4.6784   -0.1306   -0.6424 H   0  0  0  0  0  0  0  0  0  0  0  0
   -4.3784   -1.1775    0.7769 H   0  0  0  0  0  0  0  0  0  0  0  0
  1  2  2  0  0  0  0
  1  6  1  0  0  0  0
  2  3  1  0  0  0  0
  3  4  2  0  0  0  0
  5  4  1  0  0  0  0
  5 10  1  0  0  0  0
  6  5  2  0  0  0  0
  7  1  1  0  0  0  0
  8  2  1  0  0  0  0
  9 13  1  0  0  0  0
 12 11  3  0  0  0  0
 14  6  1  0  0  0  0
 14 15  1  0  0  0  0
 15 18  1  0  0  0  0
 16 15  1  0  0  0  0
 17 15  1  0  0  0  0
M  RAD  2   3   2   4   2
M  END
