Coordinates from ORCA-job 4-MeO-Ph-N2-Cl-B3LYPG-6-31G_dp-MTMO-d009-169-n800
 OpenBabel09051908443D

 18 16  0  0  0  0  0  0  0  0999 V2000
   -0.6102   -0.4552   -0.6651 C   0  0  0  0  0  0  0  0  0  0  0  0
    0.4055    0.4022   -0.2164 C   0  0  0  0  0  0  0  0  0  0  0  0
   -0.1558    1.3222    0.6414 C   0  0  0  0  0  0  0  0  0  0  0  0
   -1.3220    1.5168    1.0588 C   0  0  0  0  0  0  0  0  0  0  0  0
   -2.3773    0.6934    0.6467 C   0  0  0  0  0  0  0  0  0  0  0  0
   -1.9636   -0.3201   -0.2508 C   0  0  0  0  0  0  0  0  0  0  0  0
   -0.3740   -1.2605   -1.3540 H   0  0  0  0  0  0  0  0  0  0  0  0
    1.4404    0.3133   -0.5224 H   0  0  0  0  0  0  0  0  0  0  0  0
   -1.8591    2.9182    2.2595 H   0  0  0  0  0  0  0  0  0  0  0  0
   -3.4040    0.8080    0.9707 H   0  0  0  0  0  0  0  0  0  0  0  0
    4.7396   -4.7154   -5.5080 N   0  0  0  0  0  0  0  0  0  0  0  0
    5.2709   -5.3213   -6.2644 N   0  0  0  0  0  0  0  0  0  0  0  0
   -2.4310    3.7971    3.0623 Cl  0  0  0  0  0  0  0  0  0  0  0  0
   -2.8094   -1.2423   -0.7893 O   0  0  0  0  0  0  0  0  0  0  0  0
   -4.1835   -1.1875   -0.4308 C   0  0  0  0  0  0  0  0  0  0  0  0
   -4.6664   -2.0030   -0.9703 H   0  0  0  0  0  0  0  0  0  0  0  0
   -4.6398   -0.2354   -0.7293 H   0  0  0  0  0  0  0  0  0  0  0  0
   -4.3242   -1.3332    0.6476 H   0  0  0  0  0  0  0  0  0  0  0  0
  1  6  2  0  0  0  0
  1  2  1  0  0  0  0
  2  3  2  0  0  0  0
  3  4  1  0  0  0  0
  5 10  1  0  0  0  0
  5  4  2  0  0  0  0
  6  5  1  0  0  0  0
  7  1  1  0  0  0  0
  8  2  1  0  0  0  0
  9 13  1  0  0  0  0
 12 11  3  0  0  0  0
 14 15  1  0  0  0  0
 14  6  1  0  0  0  0
 15 18  1  0  0  0  0
 16 15  1  0  0  0  0
 17 15  1  0  0  0  0
M  RAD  2   3   2   4   2
M  END
