Coordinates from ORCA-job 4-MeO-Ph-N2-Cl-B3LYPG-6-31G_dp-MTMO-d009-169-n800
 OpenBabel09051908443D

 18 16  0  0  0  0  0  0  0  0999 V2000
   -1.4290   -1.7865   -1.5100 C   0  0  0  0  0  0  0  0  0  0  0  0
   -0.0632   -1.5325   -1.7056 C   0  0  0  0  0  0  0  0  0  0  0  0
    0.2665   -0.4176   -0.9738 C   0  0  0  0  0  0  0  0  0  0  0  0
   -0.3569    0.3694   -0.2182 C   0  0  0  0  0  0  0  0  0  0  0  0
   -1.7266    0.1545    0.0059 C   0  0  0  0  0  0  0  0  0  0  0  0
   -2.2437   -0.9700   -0.6787 C   0  0  0  0  0  0  0  0  0  0  0  0
   -1.8992   -2.6324   -2.0016 H   0  0  0  0  0  0  0  0  0  0  0  0
    0.5801   -2.1370   -2.3321 H   0  0  0  0  0  0  0  0  0  0  0  0
    0.3572    1.8280    0.6878 H   0  0  0  0  0  0  0  0  0  0  0  0
   -2.3385    0.7853    0.6389 H   0  0  0  0  0  0  0  0  0  0  0  0
    3.0301   -0.1051   -1.4545 N   0  0  0  0  0  0  0  0  0  0  0  0
    3.8595    0.5390   -1.1100 N   0  0  0  0  0  0  0  0  0  0  0  0
    0.7243    2.8926    1.3949 Cl  0  0  0  0  0  0  0  0  0  0  0  0
   -3.5447   -1.3674   -0.6063 O   0  0  0  0  0  0  0  0  0  0  0  0
   -4.4347   -0.6166    0.2080 C   0  0  0  0  0  0  0  0  0  0  0  0
   -5.4041   -1.1098    0.1258 H   0  0  0  0  0  0  0  0  0  0  0  0
   -4.5248    0.4193   -0.1426 H   0  0  0  0  0  0  0  0  0  0  0  0
   -4.1159   -0.6158    1.2581 H   0  0  0  0  0  0  0  0  0  0  0  0
  1  6  1  0  0  0  0
  2  1  2  0  0  0  0
  2  3  1  0  0  0  0
  3  4  2  0  0  0  0
  4  5  1  0  0  0  0
  5 10  1  0  0  0  0
  6 14  1  0  0  0  0
  6  5  2  0  0  0  0
  7  1  1  0  0  0  0
  8  2  1  0  0  0  0
  9 13  1  0  0  0  0
 11 12  3  0  0  0  0
 14 15  1  0  0  0  0
 15 18  1  0  0  0  0
 16 15  1  0  0  0  0
 17 15  1  0  0  0  0
M  RAD  2   3   2   4   2
M  END
