Coordinates from ORCA-job 4-MeO-Ph-N2-Cl-B3LYPG-6-31G_dp-MTMO-d009-169-n800
 OpenBabel09051908453D

 18 16  0  0  0  0  0  0  0  0999 V2000
   -0.9112    0.5464   -0.9488 C   0  0  0  0  0  0  0  0  0  0  0  0
   -0.0208    1.4829   -0.4028 C   0  0  0  0  0  0  0  0  0  0  0  0
   -0.5534    1.9407    0.7817 C   0  0  0  0  0  0  0  0  0  0  0  0
   -1.6087    1.6930    1.4122 C   0  0  0  0  0  0  0  0  0  0  0  0
   -2.5351    0.7665    0.9155 C   0  0  0  0  0  0  0  0  0  0  0  0
   -2.1337    0.1932   -0.3143 C   0  0  0  0  0  0  0  0  0  0  0  0
   -0.6769    0.0625   -1.8917 H   0  0  0  0  0  0  0  0  0  0  0  0
    0.9139    1.7630   -0.8715 H   0  0  0  0  0  0  0  0  0  0  0  0
   -2.1216    2.5004    3.0783 H   0  0  0  0  0  0  0  0  0  0  0  0
   -3.4633    0.5075    1.4082 H   0  0  0  0  0  0  0  0  0  0  0  0
    6.1112   -7.0174   -6.6195 N   0  0  0  0  0  0  0  0  0  0  0  0
    6.6458   -7.9595   -6.8395 N   0  0  0  0  0  0  0  0  0  0  0  0
   -2.6496    2.9345    4.2085 Cl  0  0  0  0  0  0  0  0  0  0  0  0
   -2.8689   -0.7328   -0.9913 O   0  0  0  0  0  0  0  0  0  0  0  0
   -4.1054   -1.1539   -0.4309 C   0  0  0  0  0  0  0  0  0  0  0  0
   -4.5150   -1.8869   -1.1273 H   0  0  0  0  0  0  0  0  0  0  0  0
   -4.8077   -0.3168   -0.3304 H   0  0  0  0  0  0  0  0  0  0  0  0
   -3.9631   -1.6261    0.5494 H   0  0  0  0  0  0  0  0  0  0  0  0
  1  2  2  0  0  0  0
  1  6  1  0  0  0  0
  2  3  1  0  0  0  0
  3  4  2  0  0  0  0
  5 10  1  0  0  0  0
  5  4  1  0  0  0  0
  6  5  2  0  0  0  0
  7  1  1  0  0  0  0
  8  2  1  0  0  0  0
  9 13  1  0  0  0  0
 12 11  3  0  0  0  0
 14 15  1  0  0  0  0
 14  6  1  0  0  0  0
 15 17  1  0  0  0  0
 15 18  1  0  0  0  0
 16 15  1  0  0  0  0
M  RAD  2   3   2   4   2
M  END
