Coordinates from ORCA-job 4-MeO-Ph-N2-Cl-B3LYPG-6-31G_dp-MTMO-d009-169-n800
 OpenBabel09051908443D

 18 17  0  0  0  0  0  0  0  0999 V2000
   -1.2925   -1.7122   -1.4838 C   0  0  0  0  0  0  0  0  0  0  0  0
    0.0324   -1.3616   -1.5870 C   0  0  0  0  0  0  0  0  0  0  0  0
    0.5562   -0.2286   -0.8883 C   0  0  0  0  0  0  0  0  0  0  0  0
   -0.3456    0.5319   -0.0798 C   0  0  0  0  0  0  0  0  0  0  0  0
   -1.6781    0.1762    0.0184 C   0  0  0  0  0  0  0  0  0  0  0  0
   -2.1642   -0.9467   -0.6785 C   0  0  0  0  0  0  0  0  0  0  0  0
   -1.6951   -2.5717   -2.0081 H   0  0  0  0  0  0  0  0  0  0  0  0
    0.7127   -1.9423   -2.2024 H   0  0  0  0  0  0  0  0  0  0  0  0
    0.0525    1.3926    0.4486 H   0  0  0  0  0  0  0  0  0  0  0  0
   -2.3372    0.7739    0.6360 H   0  0  0  0  0  0  0  0  0  0  0  0
    1.7193    0.0467   -0.9991 N   0  0  0  0  0  0  0  0  0  0  0  0
    2.6689    0.6915   -0.7672 N   0  0  0  0  0  0  0  0  0  0  0  0
    2.2852    2.3753    0.6389 Cl  0  0  0  0  0  0  0  0  0  0  0  0
   -3.4385   -1.3721   -0.6437 O   0  0  0  0  0  0  0  0  0  0  0  0
   -4.3919   -0.6627    0.1497 C   0  0  0  0  0  0  0  0  0  0  0  0
   -5.3337   -1.1963    0.0237 H   0  0  0  0  0  0  0  0  0  0  0  0
   -4.5069    0.3695   -0.1990 H   0  0  0  0  0  0  0  0  0  0  0  0
   -4.1070   -0.6662    1.2076 H   0  0  0  0  0  0  0  0  0  0  0  0
  1  6  1  0  0  0  0
  2  1  2  0  0  0  0
  2  3  1  0  0  0  0
  3  4  2  0  0  0  0
  4  5  1  0  0  0  0
  4  9  1  0  0  0  0
  5 10  1  0  0  0  0
  6 14  1  0  0  0  0
  6  5  2  0  0  0  0
  7  1  1  0  0  0  0
  8  2  1  0  0  0  0
 11  3  1  0  0  0  0
 11 12  2  0  0  0  0
 14 15  1  0  0  0  0
 15 18  1  0  0  0  0
 16 15  1  0  0  0  0
 17 15  1  0  0  0  0
M  RAD  2  12   2  13   2
M  END
