Coordinates from ORCA-job 4-MeO-Ph-N2-Cl-B3LYPG-6-31G_dp-MTMO-d009-169-n800
 OpenBabel09051908443D

 18 16  0  0  0  0  0  0  0  0999 V2000
   -0.8154   -1.0727   -1.0854 C   0  0  0  0  0  0  0  0  0  0  0  0
    0.4042   -0.4091   -0.8823 C   0  0  0  0  0  0  0  0  0  0  0  0
    0.1746    0.6562   -0.0404 C   0  0  0  0  0  0  0  0  0  0  0  0
   -0.8441    1.1082    0.5347 C   0  0  0  0  0  0  0  0  0  0  0  0
   -2.0885    0.4860    0.3677 C   0  0  0  0  0  0  0  0  0  0  0  0
   -2.0295   -0.6437   -0.4826 C   0  0  0  0  0  0  0  0  0  0  0  0
   -0.8541   -1.9510   -1.7222 H   0  0  0  0  0  0  0  0  0  0  0  0
    1.3365   -0.7234   -1.3345 H   0  0  0  0  0  0  0  0  0  0  0  0
   -0.8840    2.6263    1.6987 H   0  0  0  0  0  0  0  0  0  0  0  0
   -3.0058    0.8230    0.8329 H   0  0  0  0  0  0  0  0  0  0  0  0
    3.6516   -2.4665   -3.4178 N   0  0  0  0  0  0  0  0  0  0  0  0
    4.4042   -2.9272   -4.0832 N   0  0  0  0  0  0  0  0  0  0  0  0
   -1.1167    3.6319    2.5241 Cl  0  0  0  0  0  0  0  0  0  0  0  0
   -3.1118   -1.4102   -0.7955 O   0  0  0  0  0  0  0  0  0  0  0  0
   -4.3699   -1.0627   -0.2334 C   0  0  0  0  0  0  0  0  0  0  0  0
   -5.0807   -1.7972   -0.6136 H   0  0  0  0  0  0  0  0  0  0  0  0
   -4.6861   -0.0589   -0.5438 H   0  0  0  0  0  0  0  0  0  0  0  0
   -4.3479   -1.1117    0.8626 H   0  0  0  0  0  0  0  0  0  0  0  0
  1  2  2  0  0  0  0
  1  6  1  0  0  0  0
  2  3  1  0  0  0  0
  3  4  2  0  0  0  0
  5  4  1  0  0  0  0
  5 10  1  0  0  0  0
  6  5  2  0  0  0  0
  7  1  1  0  0  0  0
  8  2  1  0  0  0  0
  9 13  1  0  0  0  0
 12 11  3  0  0  0  0
 14  6  1  0  0  0  0
 14 15  1  0  0  0  0
 15 18  1  0  0  0  0
 16 15  1  0  0  0  0
 17 15  1  0  0  0  0
M  RAD  2   3   2   4   2
M  END
