Coordinates from ORCA-job 4-MeO-Ph-N2-Cl-B3LYPG-6-31G_dp-MTMO-d009-169-n800
 OpenBabel09051908443D

 18 16  0  0  0  0  0  0  0  0999 V2000
   -0.6461   -0.6590   -0.7366 C   0  0  0  0  0  0  0  0  0  0  0  0
    0.4317    0.1501   -0.3472 C   0  0  0  0  0  0  0  0  0  0  0  0
   -0.0490    1.1352    0.4873 C   0  0  0  0  0  0  0  0  0  0  0  0
   -1.1897    1.4170    0.9251 C   0  0  0  0  0  0  0  0  0  0  0  0
   -2.3040    0.6454    0.5721 C   0  0  0  0  0  0  0  0  0  0  0  0
   -1.9770   -0.4248   -0.2948 C   0  0  0  0  0  0  0  0  0  0  0  0
   -0.4782   -1.5028   -1.3988 H   0  0  0  0  0  0  0  0  0  0  0  0
    1.4505   -0.0144   -0.6746 H   0  0  0  0  0  0  0  0  0  0  0  0
   -1.6043    2.8919    2.0869 H   0  0  0  0  0  0  0  0  0  0  0  0
   -3.3124    0.8355    0.9166 H   0  0  0  0  0  0  0  0  0  0  0  0
    4.4521   -4.0950   -4.9898 N   0  0  0  0  0  0  0  0  0  0  0  0
    5.0228   -4.6416   -5.7625 N   0  0  0  0  0  0  0  0  0  0  0  0
   -2.0952    3.8342    2.8710 Cl  0  0  0  0  0  0  0  0  0  0  0  0
   -2.8916   -1.3123   -0.7764 O   0  0  0  0  0  0  0  0  0  0  0  0
   -4.2503   -1.1575   -0.3893 C   0  0  0  0  0  0  0  0  0  0  0  0
   -4.7963   -1.9605   -0.8857 H   0  0  0  0  0  0  0  0  0  0  0  0
   -4.6538   -0.1905   -0.7143 H   0  0  0  0  0  0  0  0  0  0  0  0
   -4.3728   -1.2535    0.6969 H   0  0  0  0  0  0  0  0  0  0  0  0
  1  2  2  0  0  0  0
  1  6  1  0  0  0  0
  2  3  1  0  0  0  0
  3  4  2  0  0  0  0
  5 10  1  0  0  0  0
  5  4  1  0  0  0  0
  6  5  2  0  0  0  0
  7  1  1  0  0  0  0
  8  2  1  0  0  0  0
  9 13  1  0  0  0  0
 12 11  3  0  0  0  0
 14 15  1  0  0  0  0
 14  6  1  0  0  0  0
 15 18  1  0  0  0  0
 16 15  1  0  0  0  0
 17 15  1  0  0  0  0
M  RAD  2   3   2   4   2
M  END
