Coordinates from ORCA-job 4-MeO-Ph-N2-Cl-B3LYPG-6-31G_dp-MTMO-d009-169-n800
 OpenBabel09051908443D

 18 16  0  0  0  0  0  0  0  0999 V2000
   -1.2190   -1.5222   -1.3437 C   0  0  0  0  0  0  0  0  0  0  0  0
    0.1091   -1.0731   -1.4041 C   0  0  0  0  0  0  0  0  0  0  0  0
    0.2094    0.0616   -0.6308 C   0  0  0  0  0  0  0  0  0  0  0  0
   -0.6003    0.7176    0.0674 C   0  0  0  0  0  0  0  0  0  0  0  0
   -1.9396    0.3146    0.1621 C   0  0  0  0  0  0  0  0  0  0  0  0
   -2.2191   -0.8533   -0.5862 C   0  0  0  0  0  0  0  0  0  0  0  0
   -1.5142   -2.4133   -1.8889 H   0  0  0  0  0  0  0  0  0  0  0  0
    0.8873   -1.5650   -1.9729 H   0  0  0  0  0  0  0  0  0  0  0  0
   -0.1810    2.2608    1.1089 H   0  0  0  0  0  0  0  0  0  0  0  0
   -2.6914    0.8323    0.7440 H   0  0  0  0  0  0  0  0  0  0  0  0
    3.6506   -1.1582   -2.3225 N   0  0  0  0  0  0  0  0  0  0  0  0
    4.7202   -0.8978   -2.4181 N   0  0  0  0  0  0  0  0  0  0  0  0
   -0.0892    3.3251    1.8885 Cl  0  0  0  0  0  0  0  0  0  0  0  0
   -3.4505   -1.4336   -0.6474 O   0  0  0  0  0  0  0  0  0  0  0  0
   -4.5167   -0.8303    0.0729 C   0  0  0  0  0  0  0  0  0  0  0  0
   -5.3945   -1.4490   -0.1176 H   0  0  0  0  0  0  0  0  0  0  0  0
   -4.7112    0.1913   -0.2770 H   0  0  0  0  0  0  0  0  0  0  0  0
   -4.3135   -0.8102    1.1512 H   0  0  0  0  0  0  0  0  0  0  0  0
  1  6  1  0  0  0  0
  2  1  2  0  0  0  0
  2  3  1  0  0  0  0
  3  4  2  0  0  0  0
  4  5  1  0  0  0  0
  5 10  1  0  0  0  0
  6  5  2  0  0  0  0
  7  1  1  0  0  0  0
  8  2  1  0  0  0  0
  9 13  1  0  0  0  0
 12 11  3  0  0  0  0
 14  6  1  0  0  0  0
 14 15  1  0  0  0  0
 15 18  1  0  0  0  0
 16 15  1  0  0  0  0
 17 15  1  0  0  0  0
M  RAD  2   3   2   4   2
M  END
