Coordinates from ORCA-job 4-MeO-Ph-N2-Cl-B3LYPG-6-31G_dp-MTMO-d009-169-n800
 OpenBabel09051908443D

 18 16  0  0  0  0  0  0  0  0999 V2000
   -0.8913   -1.2425   -1.0980 C   0  0  0  0  0  0  0  0  0  0  0  0
    0.3691   -0.6445   -0.9450 C   0  0  0  0  0  0  0  0  0  0  0  0
    0.2174    0.4643   -0.1430 C   0  0  0  0  0  0  0  0  0  0  0  0
   -0.7597    1.0001    0.4332 C   0  0  0  0  0  0  0  0  0  0  0  0
   -2.0412    0.4448    0.3130 C   0  0  0  0  0  0  0  0  0  0  0  0
   -2.0655   -0.7192   -0.4911 C   0  0  0  0  0  0  0  0  0  0  0  0
   -0.9941   -2.1412   -1.6982 H   0  0  0  0  0  0  0  0  0  0  0  0
    1.2719   -1.0297   -1.4021 H   0  0  0  0  0  0  0  0  0  0  0  0
   -0.6927    2.5551    1.5346 H   0  0  0  0  0  0  0  0  0  0  0  0
   -2.9277    0.8535    0.7804 H   0  0  0  0  0  0  0  0  0  0  0  0
    3.5514   -2.0452   -3.1530 N   0  0  0  0  0  0  0  0  0  0  0  0
    4.4168   -2.3273   -3.7797 N   0  0  0  0  0  0  0  0  0  0  0  0
   -0.8513    3.6042    2.3243 Cl  0  0  0  0  0  0  0  0  0  0  0  0
   -3.1969   -1.4324   -0.7524 O   0  0  0  0  0  0  0  0  0  0  0  0
   -4.4218   -0.9852   -0.1869 C   0  0  0  0  0  0  0  0  0  0  0  0
   -5.1825   -1.6895   -0.5256 H   0  0  0  0  0  0  0  0  0  0  0  0
   -4.6814    0.0225   -0.5346 H   0  0  0  0  0  0  0  0  0  0  0  0
   -4.3840   -0.9905    0.9098 H   0  0  0  0  0  0  0  0  0  0  0  0
  1  2  2  0  0  0  0
  1  6  1  0  0  0  0
  2  3  1  0  0  0  0
  3  4  2  0  0  0  0
  5  4  1  0  0  0  0
  5 10  1  0  0  0  0
  6  5  2  0  0  0  0
  7  1  1  0  0  0  0
  8  2  1  0  0  0  0
  9 13  1  0  0  0  0
 12 11  3  0  0  0  0
 14  6  1  0  0  0  0
 14 15  1  0  0  0  0
 15 18  1  0  0  0  0
 16 15  1  0  0  0  0
 17 15  1  0  0  0  0
M  RAD  2   3   2   4   2
M  END
