Coordinates from ORCA-job 4-MeO-Ph-N2-Cl-B3LYPG-6-31G_dp-MTMO-d009-169-n800
 OpenBabel09051908443D

 18 16  0  0  0  0  0  0  0  0999 V2000
   -1.4382   -1.7836   -1.5064 C   0  0  0  0  0  0  0  0  0  0  0  0
   -0.0728   -1.5265   -1.7013 C   0  0  0  0  0  0  0  0  0  0  0  0
    0.2549   -0.4104   -0.9693 C   0  0  0  0  0  0  0  0  0  0  0  0
   -0.3749    0.3717   -0.2151 C   0  0  0  0  0  0  0  0  0  0  0  0
   -1.7436    0.1564    0.0101 C   0  0  0  0  0  0  0  0  0  0  0  0
   -2.2562   -0.9697   -0.6757 C   0  0  0  0  0  0  0  0  0  0  0  0
   -1.9062   -2.6305   -1.9983 H   0  0  0  0  0  0  0  0  0  0  0  0
    0.5714   -2.1302   -2.3277 H   0  0  0  0  0  0  0  0  0  0  0  0
    0.3441    1.8429    0.6997 H   0  0  0  0  0  0  0  0  0  0  0  0
   -2.3575    0.7853    0.6428 H   0  0  0  0  0  0  0  0  0  0  0  0
    3.1368   -0.1140   -1.4846 N   0  0  0  0  0  0  0  0  0  0  0  0
    3.9757    0.5210   -1.1460 N   0  0  0  0  0  0  0  0  0  0  0  0
    0.6986    2.9067    1.4097 Cl  0  0  0  0  0  0  0  0  0  0  0  0
   -3.5561   -1.3710   -0.6047 O   0  0  0  0  0  0  0  0  0  0  0  0
   -4.4492   -0.6230    0.2090 C   0  0  0  0  0  0  0  0  0  0  0  0
   -5.4170   -1.1190    0.1257 H   0  0  0  0  0  0  0  0  0  0  0  0
   -4.5420    0.4127   -0.1415 H   0  0  0  0  0  0  0  0  0  0  0  0
   -4.1314   -0.6215    1.2594 H   0  0  0  0  0  0  0  0  0  0  0  0
  1  6  1  0  0  0  0
  2  1  2  0  0  0  0
  2  3  1  0  0  0  0
  3  4  2  0  0  0  0
  4  5  1  0  0  0  0
  5 10  1  0  0  0  0
  6 14  1  0  0  0  0
  6  5  2  0  0  0  0
  7  1  1  0  0  0  0
  8  2  1  0  0  0  0
  9 13  1  0  0  0  0
 11 12  3  0  0  0  0
 14 15  1  0  0  0  0
 15 18  1  0  0  0  0
 16 15  1  0  0  0  0
 17 15  1  0  0  0  0
M  RAD  2   3   2   4   2
M  END
