Coordinates from ORCA-job 4-MeO-Ph-N2-Cl-B3LYPG-6-31G_dp-MTMO-d009-169-n800
 OpenBabel09051908453D

 18 16  0  0  0  0  0  0  0  0999 V2000
   -0.9179    0.5530   -0.9402 C   0  0  0  0  0  0  0  0  0  0  0  0
   -0.0280    1.4902   -0.3944 C   0  0  0  0  0  0  0  0  0  0  0  0
   -0.5615    1.9496    0.7892 C   0  0  0  0  0  0  0  0  0  0  0  0
   -1.6176    1.7016    1.4180 C   0  0  0  0  0  0  0  0  0  0  0  0
   -2.5440    0.7751    0.9222 C   0  0  0  0  0  0  0  0  0  0  0  0
   -2.1410    0.2003   -0.3068 C   0  0  0  0  0  0  0  0  0  0  0  0
   -0.6826    0.0679   -1.8823 H   0  0  0  0  0  0  0  0  0  0  0  0
    0.9071    1.7697   -0.8625 H   0  0  0  0  0  0  0  0  0  0  0  0
   -2.1339    2.5109    3.0843 H   0  0  0  0  0  0  0  0  0  0  0  0
   -3.4726    0.5167    1.4144 H   0  0  0  0  0  0  0  0  0  0  0  0
    6.1770   -7.0796   -6.6768 N   0  0  0  0  0  0  0  0  0  0  0  0
    6.7107   -8.0220   -6.8975 N   0  0  0  0  0  0  0  0  0  0  0  0
   -2.6638    2.9455    4.2131 Cl  0  0  0  0  0  0  0  0  0  0  0  0
   -2.8755   -0.7264   -0.9834 O   0  0  0  0  0  0  0  0  0  0  0  0
   -4.1125   -1.1469   -0.4239 C   0  0  0  0  0  0  0  0  0  0  0  0
   -4.5215   -1.8807   -1.1198 H   0  0  0  0  0  0  0  0  0  0  0  0
   -4.8149   -0.3096   -0.3250 H   0  0  0  0  0  0  0  0  0  0  0  0
   -3.9713   -1.6180    0.5571 H   0  0  0  0  0  0  0  0  0  0  0  0
  1  2  2  0  0  0  0
  1  6  1  0  0  0  0
  2  3  1  0  0  0  0
  3  4  2  0  0  0  0
  5 10  1  0  0  0  0
  5  4  1  0  0  0  0
  6  5  2  0  0  0  0
  7  1  1  0  0  0  0
  8  2  1  0  0  0  0
  9 13  1  0  0  0  0
 12 11  3  0  0  0  0
 14 15  1  0  0  0  0
 14  6  1  0  0  0  0
 15 17  1  0  0  0  0
 15 18  1  0  0  0  0
 16 15  1  0  0  0  0
M  RAD  2   3   2   4   2
M  END
