Coordinates from ORCA-job 4-MeO-Ph-N2-Cl-B3LYPG-6-31G_dp-MTMO-d009-169-n800
 OpenBabel09051908443D

 18 16  0  0  0  0  0  0  0  0999 V2000
   -1.4028   -1.7999   -1.5242 C   0  0  0  0  0  0  0  0  0  0  0  0
   -0.0347   -1.5611   -1.7215 C   0  0  0  0  0  0  0  0  0  0  0  0
    0.3090   -0.4598   -0.9956 C   0  0  0  0  0  0  0  0  0  0  0  0
   -0.2473    0.3937   -0.2086 C   0  0  0  0  0  0  0  0  0  0  0  0
   -1.6285    0.1397   -0.0211 C   0  0  0  0  0  0  0  0  0  0  0  0
   -2.1891   -0.9660   -0.6886 C   0  0  0  0  0  0  0  0  0  0  0  0
   -1.8827   -2.6398   -2.0163 H   0  0  0  0  0  0  0  0  0  0  0  0
    0.6040   -2.1693   -2.3484 H   0  0  0  0  0  0  0  0  0  0  0  0
    0.2785    1.3929    0.3969 H   0  0  0  0  0  0  0  0  0  0  0  0
   -2.2088    0.7934    0.6197 H   0  0  0  0  0  0  0  0  0  0  0  0
    2.6014    0.0651   -1.2145 N   0  0  0  0  0  0  0  0  0  0  0  0
    3.2860    0.8324   -0.8059 N   0  0  0  0  0  0  0  0  0  0  0  0
    0.8866    2.6493    1.1880 Cl  0  0  0  0  0  0  0  0  0  0  0  0
   -3.4943   -1.3283   -0.5987 O   0  0  0  0  0  0  0  0  0  0  0  0
   -4.3566   -0.5512    0.2261 C   0  0  0  0  0  0  0  0  0  0  0  0
   -5.3382   -1.0207    0.1556 H   0  0  0  0  0  0  0  0  0  0  0  0
   -4.4226    0.4846   -0.1280 H   0  0  0  0  0  0  0  0  0  0  0  0
   -4.0237   -0.5577    1.2712 H   0  0  0  0  0  0  0  0  0  0  0  0
  1  6  1  0  0  0  0
  2  1  2  0  0  0  0
  2  3  1  0  0  0  0
  3  4  2  0  0  0  0
  4  5  1  0  0  0  0
  4  9  1  0  0  0  0
  5 10  1  0  0  0  0
  6 14  1  0  0  0  0
  6  5  2  0  0  0  0
  7  1  1  0  0  0  0
  8  2  1  0  0  0  0
 11 12  3  0  0  0  0
 14 15  1  0  0  0  0
 15 18  1  0  0  0  0
 16 15  1  0  0  0  0
 17 15  1  0  0  0  0
M  RAD  2   3   2  13   2
M  END
