Coordinates from ORCA-job 4-MeO-Ph-N2-Cl-B3LYPG-6-31G_dp-MTMO-d009-169-n800
 OpenBabel09051908443D

 18 16  0  0  0  0  0  0  0  0999 V2000
   -1.4123   -1.7896   -1.5159 C   0  0  0  0  0  0  0  0  0  0  0  0
   -0.0464   -1.5391   -1.7119 C   0  0  0  0  0  0  0  0  0  0  0  0
    0.2862   -0.4264   -0.9804 C   0  0  0  0  0  0  0  0  0  0  0  0
   -0.3264    0.3694   -0.2217 C   0  0  0  0  0  0  0  0  0  0  0  0
   -1.6979    0.1519   -0.0011 C   0  0  0  0  0  0  0  0  0  0  0  0
   -2.2222   -0.9696   -0.6835 C   0  0  0  0  0  0  0  0  0  0  0  0
   -1.8854   -2.6340   -2.0071 H   0  0  0  0  0  0  0  0  0  0  0  0
    0.5969   -2.1438   -2.3383 H   0  0  0  0  0  0  0  0  0  0  0  0
    0.3720    1.8010    0.6663 H   0  0  0  0  0  0  0  0  0  0  0  0
   -2.3069    0.7852    0.6325 H   0  0  0  0  0  0  0  0  0  0  0  0
    2.8526   -0.0966   -1.4054 N   0  0  0  0  0  0  0  0  0  0  0  0
    3.6694    0.5605   -1.0544 N   0  0  0  0  0  0  0  0  0  0  0  0
    0.7585    2.8687    1.3701 Cl  0  0  0  0  0  0  0  0  0  0  0  0
   -3.5245   -1.3613   -0.6089 O   0  0  0  0  0  0  0  0  0  0  0  0
   -4.4100   -0.6064    0.2068 C   0  0  0  0  0  0  0  0  0  0  0  0
   -5.3816   -1.0955    0.1262 H   0  0  0  0  0  0  0  0  0  0  0  0
   -4.4961    0.4297   -0.1439 H   0  0  0  0  0  0  0  0  0  0  0  0
   -4.0895   -0.6067    1.2564 H   0  0  0  0  0  0  0  0  0  0  0  0
  1  6  1  0  0  0  0
  2  1  2  0  0  0  0
  2  3  1  0  0  0  0
  3  4  2  0  0  0  0
  4  5  1  0  0  0  0
  5 10  1  0  0  0  0
  6 14  1  0  0  0  0
  6  5  2  0  0  0  0
  7  1  1  0  0  0  0
  8  2  1  0  0  0  0
  9 13  1  0  0  0  0
 11 12  3  0  0  0  0
 14 15  1  0  0  0  0
 15 18  1  0  0  0  0
 16 15  1  0  0  0  0
 17 15  1  0  0  0  0
M  RAD  2   3   2   4   2
M  END
