Coordinates from ORCA-job 4-MeO-Ph-N2-Cl-B3LYPG-6-31G_dp-MTMO-d009-169-n800
 OpenBabel09051908443D

 18 16  0  0  0  0  0  0  0  0999 V2000
   -0.6374   -0.6051   -0.7101 C   0  0  0  0  0  0  0  0  0  0  0  0
    0.4240    0.2170   -0.3035 C   0  0  0  0  0  0  0  0  0  0  0  0
   -0.0797    1.1866    0.5356 C   0  0  0  0  0  0  0  0  0  0  0  0
   -1.2285    1.4467    0.9655 C   0  0  0  0  0  0  0  0  0  0  0  0
   -2.3273    0.6610    0.5952 C   0  0  0  0  0  0  0  0  0  0  0  0
   -1.9758   -0.3959   -0.2783 C   0  0  0  0  0  0  0  0  0  0  0  0
   -0.4504   -1.4398   -1.3788 H   0  0  0  0  0  0  0  0  0  0  0  0
    1.4481    0.0716   -0.6233 H   0  0  0  0  0  0  0  0  0  0  0  0
   -1.6779    2.9064    2.1330 H   0  0  0  0  0  0  0  0  0  0  0  0
   -3.3417    0.8323    0.9320 H   0  0  0  0  0  0  0  0  0  0  0  0
    4.5513   -4.2779   -5.1584 N   0  0  0  0  0  0  0  0  0  0  0  0
    5.1154   -4.8400   -5.9248 N   0  0  0  0  0  0  0  0  0  0  0  0
   -2.1920    3.8352    2.9185 Cl  0  0  0  0  0  0  0  0  0  0  0  0
   -2.8720   -1.2931   -0.7762 O   0  0  0  0  0  0  0  0  0  0  0  0
   -4.2361   -1.1640   -0.3992 C   0  0  0  0  0  0  0  0  0  0  0  0
   -4.7649   -1.9709   -0.9076 H   0  0  0  0  0  0  0  0  0  0  0  0
   -4.6525   -0.2005   -0.7185 H   0  0  0  0  0  0  0  0  0  0  0  0
   -4.3660   -1.2723    0.6850 H   0  0  0  0  0  0  0  0  0  0  0  0
  1  2  2  0  0  0  0
  1  6  1  0  0  0  0
  2  3  1  0  0  0  0
  3  4  2  0  0  0  0
  5 10  1  0  0  0  0
  5  4  1  0  0  0  0
  6  5  2  0  0  0  0
  7  1  1  0  0  0  0
  8  2  1  0  0  0  0
  9 13  1  0  0  0  0
 12 11  3  0  0  0  0
 14 15  1  0  0  0  0
 14  6  1  0  0  0  0
 15 18  1  0  0  0  0
 16 15  1  0  0  0  0
 17 15  1  0  0  0  0
M  RAD  2   3   2   4   2
M  END
