Coordinates from ORCA-job 4-MeO-Ph-N2-Cl-B3LYPG-6-31G_dp-MTMO-d009-169-n800
 OpenBabel09051908443D

 18 16  0  0  0  0  0  0  0  0999 V2000
   -1.4299   -1.7699   -1.4996 C   0  0  0  0  0  0  0  0  0  0  0  0
   -0.0660   -1.5021   -1.6891 C   0  0  0  0  0  0  0  0  0  0  0  0
    0.2517   -0.3842   -0.9548 C   0  0  0  0  0  0  0  0  0  0  0  0
   -0.3882    0.3907   -0.2022 C   0  0  0  0  0  0  0  0  0  0  0  0
   -1.7559    0.1657    0.0183 C   0  0  0  0  0  0  0  0  0  0  0  0
   -2.2573   -0.9633   -0.6709 C   0  0  0  0  0  0  0  0  0  0  0  0
   -1.8893   -2.6199   -1.9945 H   0  0  0  0  0  0  0  0  0  0  0  0
    0.5851   -2.1001   -2.3138 H   0  0  0  0  0  0  0  0  0  0  0  0
    0.3069    1.8712    0.7255 H   0  0  0  0  0  0  0  0  0  0  0  0
   -2.3765    0.7893    0.6497 H   0  0  0  0  0  0  0  0  0  0  0  0
    3.1905   -0.1739   -1.5334 N   0  0  0  0  0  0  0  0  0  0  0  0
    4.0634    0.4306   -1.2264 N   0  0  0  0  0  0  0  0  0  0  0  0
    0.6304    2.9372    1.4457 Cl  0  0  0  0  0  0  0  0  0  0  0  0
   -3.5544   -1.3743   -0.6052 O   0  0  0  0  0  0  0  0  0  0  0  0
   -4.4562   -0.6337    0.2056 C   0  0  0  0  0  0  0  0  0  0  0  0
   -5.4200   -1.1369    0.1180 H   0  0  0  0  0  0  0  0  0  0  0  0
   -4.5553    0.4016   -0.1443 H   0  0  0  0  0  0  0  0  0  0  0  0
   -4.1426   -0.6308    1.2573 H   0  0  0  0  0  0  0  0  0  0  0  0
  1  6  1  0  0  0  0
  2  1  2  0  0  0  0
  2  3  1  0  0  0  0
  3  4  2  0  0  0  0
  4  5  1  0  0  0  0
  5 10  1  0  0  0  0
  6 14  1  0  0  0  0
  6  5  2  0  0  0  0
  7  1  1  0  0  0  0
  8  2  1  0  0  0  0
  9 13  1  0  0  0  0
 11 12  3  0  0  0  0
 14 15  1  0  0  0  0
 15 18  1  0  0  0  0
 16 15  1  0  0  0  0
 17 15  1  0  0  0  0
M  RAD  2   3   2   4   2
M  END
