Coordinates from ORCA-job 4-MeO-Ph-N2-Cl-B3LYPG-6-31G_dp-MTMO-d009-169-n800
 OpenBabel09051908443D

 18 16  0  0  0  0  0  0  0  0999 V2000
   -0.9345   -1.2696   -1.1670 C   0  0  0  0  0  0  0  0  0  0  0  0
    0.3376   -0.6882   -1.0507 C   0  0  0  0  0  0  0  0  0  0  0  0
    0.2241    0.4170   -0.2380 C   0  0  0  0  0  0  0  0  0  0  0  0
   -0.7263    0.9624    0.3729 C   0  0  0  0  0  0  0  0  0  0  0  0
   -2.0178    0.4230    0.2896 C   0  0  0  0  0  0  0  0  0  0  0  0
   -2.0823   -0.7357   -0.5200 C   0  0  0  0  0  0  0  0  0  0  0  0
   -1.0676   -2.1631   -1.7691 H   0  0  0  0  0  0  0  0  0  0  0  0
    1.2213   -1.0798   -1.5382 H   0  0  0  0  0  0  0  0  0  0  0  0
   -0.6076    2.5054    1.4799 H   0  0  0  0  0  0  0  0  0  0  0  0
   -2.8840    0.8397    0.7871 H   0  0  0  0  0  0  0  0  0  0  0  0
    3.5013   -1.9061   -2.9465 N   0  0  0  0  0  0  0  0  0  0  0  0
    4.4202   -2.1381   -3.5147 N   0  0  0  0  0  0  0  0  0  0  0  0
   -0.7284    3.5513    2.2814 Cl  0  0  0  0  0  0  0  0  0  0  0  0
   -3.2303   -1.4334   -0.7494 O   0  0  0  0  0  0  0  0  0  0  0  0
   -4.4310   -0.9739   -0.1435 C   0  0  0  0  0  0  0  0  0  0  0  0
   -5.2108   -1.6667   -0.4618 H   0  0  0  0  0  0  0  0  0  0  0  0
   -4.6885    0.0389   -0.4777 H   0  0  0  0  0  0  0  0  0  0  0  0
   -4.3591   -0.9858    0.9515 H   0  0  0  0  0  0  0  0  0  0  0  0
  1  2  2  0  0  0  0
  1  6  1  0  0  0  0
  2  3  1  0  0  0  0
  3  4  2  0  0  0  0
  5  4  1  0  0  0  0
  5 10  1  0  0  0  0
  6  5  2  0  0  0  0
  7  1  1  0  0  0  0
  8  2  1  0  0  0  0
  9 13  1  0  0  0  0
 12 11  3  0  0  0  0
 14  6  1  0  0  0  0
 14 15  1  0  0  0  0
 15 18  1  0  0  0  0
 16 15  1  0  0  0  0
 17 15  1  0  0  0  0
M  RAD  2   3   2   4   2
M  END
