Coordinates from ORCA-job 4-MeO-Ph-N2-Cl-B3LYPG-6-31G_dp-MTMO-d009-169-n800
 OpenBabel09051908453D

 18 16  0  0  0  0  0  0  0  0999 V2000
   -0.8814    0.5183   -0.9836 C   0  0  0  0  0  0  0  0  0  0  0  0
    0.0112    1.4530   -0.4378 C   0  0  0  0  0  0  0  0  0  0  0  0
   -0.5165    1.9072    0.7504 C   0  0  0  0  0  0  0  0  0  0  0  0
   -1.5696    1.6564    1.3830 C   0  0  0  0  0  0  0  0  0  0  0  0
   -2.4985    0.7321    0.8876 C   0  0  0  0  0  0  0  0  0  0  0  0
   -2.1015    0.1629   -0.3459 C   0  0  0  0  0  0  0  0  0  0  0  0
   -0.6507    0.0375   -1.9290 H   0  0  0  0  0  0  0  0  0  0  0  0
    0.9441    1.7345   -0.9092 H   0  0  0  0  0  0  0  0  0  0  0  0
   -2.0779    2.4583    3.0554 H   0  0  0  0  0  0  0  0  0  0  0  0
   -3.4247    0.4716    1.3831 H   0  0  0  0  0  0  0  0  0  0  0  0
    5.8370   -6.7573   -6.3800 N   0  0  0  0  0  0  0  0  0  0  0  0
    6.3692   -7.7001   -6.6021 N   0  0  0  0  0  0  0  0  0  0  0  0
   -2.6028    2.8878    4.1885 Cl  0  0  0  0  0  0  0  0  0  0  0  0
   -2.8392   -0.7607   -1.0232 O   0  0  0  0  0  0  0  0  0  0  0  0
   -4.0735   -1.1837   -0.4596 C   0  0  0  0  0  0  0  0  0  0  0  0
   -4.4859   -1.9143   -1.1568 H   0  0  0  0  0  0  0  0  0  0  0  0
   -4.7754   -0.3469   -0.3535 H   0  0  0  0  0  0  0  0  0  0  0  0
   -3.9275   -1.6593    0.5186 H   0  0  0  0  0  0  0  0  0  0  0  0
  1  2  2  0  0  0  0
  1  6  1  0  0  0  0
  2  3  1  0  0  0  0
  3  4  2  0  0  0  0
  5  4  1  0  0  0  0
  5 10  1  0  0  0  0
  6  5  2  0  0  0  0
  7  1  1  0  0  0  0
  8  2  1  0  0  0  0
  9 13  1  0  0  0  0
 12 11  3  0  0  0  0
 14 15  1  0  0  0  0
 14  6  1  0  0  0  0
 15 17  1  0  0  0  0
 15 18  1  0  0  0  0
 16 15  1  0  0  0  0
M  RAD  2   3   2   4   2
M  END
