Coordinates from ORCA-job 4-MeO-Ph-N2-Cl-B3LYPG-6-31G_dp-MTMO-d009-169-n800
 OpenBabel09051908453D

 18 16  0  0  0  0  0  0  0  0999 V2000
   -1.0342    0.6648   -0.8467 C   0  0  0  0  0  0  0  0  0  0  0  0
   -0.1457    1.6030   -0.3004 C   0  0  0  0  0  0  0  0  0  0  0  0
   -0.6795    2.0602    0.8839 C   0  0  0  0  0  0  0  0  0  0  0  0
   -1.7348    1.8100    1.5134 C   0  0  0  0  0  0  0  0  0  0  0  0
   -2.6595    0.8820    1.0168 C   0  0  0  0  0  0  0  0  0  0  0  0
   -2.2563    0.3093   -0.2129 C   0  0  0  0  0  0  0  0  0  0  0  0
   -0.7985    0.1813   -1.7895 H   0  0  0  0  0  0  0  0  0  0  0  0
    0.7886    1.8846   -0.7689 H   0  0  0  0  0  0  0  0  0  0  0  0
   -2.2508    2.6166    3.1800 H   0  0  0  0  0  0  0  0  0  0  0  0
   -3.5874    0.6215    1.5092 H   0  0  0  0  0  0  0  0  0  0  0  0
    7.1004   -7.9447   -7.4308 N   0  0  0  0  0  0  0  0  0  0  0  0
    7.6341   -8.8872   -7.6513 N   0  0  0  0  0  0  0  0  0  0  0  0
   -2.7801    3.0499    4.3097 Cl  0  0  0  0  0  0  0  0  0  0  0  0
   -2.9895   -0.6181   -0.8901 O   0  0  0  0  0  0  0  0  0  0  0  0
   -4.2253   -1.0415   -0.3302 C   0  0  0  0  0  0  0  0  0  0  0  0
   -4.6332   -1.7755   -1.0266 H   0  0  0  0  0  0  0  0  0  0  0  0
   -4.9293   -0.2058   -0.2301 H   0  0  0  0  0  0  0  0  0  0  0  0
   -4.0825   -1.5133    0.6503 H   0  0  0  0  0  0  0  0  0  0  0  0
  1  2  2  0  0  0  0
  1  6  1  0  0  0  0
  2  3  1  0  0  0  0
  3  4  2  0  0  0  0
  5 10  1  0  0  0  0
  5  4  1  0  0  0  0
  6  5  2  0  0  0  0
  7  1  1  0  0  0  0
  8  2  1  0  0  0  0
  9 13  1  0  0  0  0
 12 11  3  0  0  0  0
 14 15  1  0  0  0  0
 14  6  1  0  0  0  0
 15 17  1  0  0  0  0
 15 18  1  0  0  0  0
 16 15  1  0  0  0  0
M  RAD  2   3   2   4   2
M  END
