Coordinates from ORCA-job 4-MeO-Ph-N2-Cl-B3LYPG-6-31G_dp-MTMO-d009-169-n800
 OpenBabel09051908453D

 18 16  0  0  0  0  0  0  0  0999 V2000
   -1.0012    0.6329   -0.8882 C   0  0  0  0  0  0  0  0  0  0  0  0
   -0.1094    1.5681   -0.3420 C   0  0  0  0  0  0  0  0  0  0  0  0
   -0.6366    2.0195    0.8474 C   0  0  0  0  0  0  0  0  0  0  0  0
   -1.6886    1.7667    1.4813 C   0  0  0  0  0  0  0  0  0  0  0  0
   -2.6164    0.8416    0.9851 C   0  0  0  0  0  0  0  0  0  0  0  0
   -2.2200    0.2748   -0.2496 C   0  0  0  0  0  0  0  0  0  0  0  0
   -0.7707    0.1539   -1.8346 H   0  0  0  0  0  0  0  0  0  0  0  0
    0.8226    1.8516   -0.8140 H   0  0  0  0  0  0  0  0  0  0  0  0
   -2.1970    2.5653    3.1537 H   0  0  0  0  0  0  0  0  0  0  0  0
   -3.5417    0.5790    1.4812 H   0  0  0  0  0  0  0  0  0  0  0  0
    6.7834   -7.6442   -7.1557 N   0  0  0  0  0  0  0  0  0  0  0  0
    7.3178   -8.5864   -7.3753 N   0  0  0  0  0  0  0  0  0  0  0  0
   -2.7207    2.9938    4.2880 Cl  0  0  0  0  0  0  0  0  0  0  0  0
   -2.9572   -0.6489   -0.9274 O   0  0  0  0  0  0  0  0  0  0  0  0
   -4.1902   -1.0747   -0.3629 C   0  0  0  0  0  0  0  0  0  0  0  0
   -4.6022   -1.8050   -1.0607 H   0  0  0  0  0  0  0  0  0  0  0  0
   -4.8933   -0.2392   -0.2547 H   0  0  0  0  0  0  0  0  0  0  0  0
   -4.0422   -1.5514    0.6144 H   0  0  0  0  0  0  0  0  0  0  0  0
  1  2  2  0  0  0  0
  1  6  1  0  0  0  0
  2  3  1  0  0  0  0
  3  4  2  0  0  0  0
  5 10  1  0  0  0  0
  5  4  1  0  0  0  0
  6  5  2  0  0  0  0
  7  1  1  0  0  0  0
  8  2  1  0  0  0  0
  9 13  1  0  0  0  0
 12 11  3  0  0  0  0
 14 15  1  0  0  0  0
 14  6  1  0  0  0  0
 15 17  1  0  0  0  0
 15 18  1  0  0  0  0
 16 15  1  0  0  0  0
M  RAD  2   3   2   4   2
M  END
