Coordinates from ORCA-job 4-MeO-Ph-N2-Cl-B3LYPG-6-31G_dp-MTMO-d009-169-n800
 OpenBabel09051908443D

 18 16  0  0  0  0  0  0  0  0999 V2000
   -1.2386   -1.5374   -1.3625 C   0  0  0  0  0  0  0  0  0  0  0  0
    0.0920   -1.0984   -1.4372 C   0  0  0  0  0  0  0  0  0  0  0  0
    0.2099    0.0356   -0.6654 C   0  0  0  0  0  0  0  0  0  0  0  0
   -0.5881    0.6969    0.0411 C   0  0  0  0  0  0  0  0  0  0  0  0
   -1.9292    0.3049    0.1508 C   0  0  0  0  0  0  0  0  0  0  0  0
   -2.2256   -0.8610   -0.5944 C   0  0  0  0  0  0  0  0  0  0  0  0
   -1.5467   -2.4264   -1.9041 H   0  0  0  0  0  0  0  0  0  0  0  0
    0.8602   -1.5966   -2.0141 H   0  0  0  0  0  0  0  0  0  0  0  0
   -0.1452    2.2386    1.0789 H   0  0  0  0  0  0  0  0  0  0  0  0
   -2.6707    0.8283    0.7408 H   0  0  0  0  0  0  0  0  0  0  0  0
    3.6364   -1.0942   -2.2580 N   0  0  0  0  0  0  0  0  0  0  0  0
    4.7026   -0.8090   -2.3114 N   0  0  0  0  0  0  0  0  0  0  0  0
   -0.0367    3.3021    1.8571 Cl  0  0  0  0  0  0  0  0  0  0  0  0
   -3.4618   -1.4321   -0.6422 O   0  0  0  0  0  0  0  0  0  0  0  0
   -4.5155   -0.8209    0.0897 C   0  0  0  0  0  0  0  0  0  0  0  0
   -5.3998   -1.4335   -0.0904 H   0  0  0  0  0  0  0  0  0  0  0  0
   -4.7067    0.2019   -0.2585 H   0  0  0  0  0  0  0  0  0  0  0  0
   -4.3000   -0.8018    1.1657 H   0  0  0  0  0  0  0  0  0  0  0  0
  1  6  1  0  0  0  0
  2  1  2  0  0  0  0
  2  3  1  0  0  0  0
  3  4  2  0  0  0  0
  4  5  1  0  0  0  0
  5 10  1  0  0  0  0
  6  5  2  0  0  0  0
  7  1  1  0  0  0  0
  8  2  1  0  0  0  0
  9 13  1  0  0  0  0
 12 11  3  0  0  0  0
 14  6  1  0  0  0  0
 14 15  1  0  0  0  0
 15 18  1  0  0  0  0
 16 15  1  0  0  0  0
 17 15  1  0  0  0  0
M  RAD  2   3   2   4   2
M  END
