Coordinates from ORCA-job 4-MeO-Ph-N2-Cl-B3LYPG-6-31G_dp-MTMO-d009-169-n800
 OpenBabel09051908443D

 18 16  0  0  0  0  0  0  0  0999 V2000
   -1.3992   -1.7931   -1.5211 C   0  0  0  0  0  0  0  0  0  0  0  0
   -0.0333   -1.5448   -1.7164 C   0  0  0  0  0  0  0  0  0  0  0  0
    0.3008   -0.4343   -0.9852 C   0  0  0  0  0  0  0  0  0  0  0  0
   -0.2985    0.3737   -0.2214 C   0  0  0  0  0  0  0  0  0  0  0  0
   -1.6723    0.1486   -0.0084 C   0  0  0  0  0  0  0  0  0  0  0  0
   -2.2043   -0.9698   -0.6881 C   0  0  0  0  0  0  0  0  0  0  0  0
   -1.8743   -2.6362   -2.0125 H   0  0  0  0  0  0  0  0  0  0  0  0
    0.6107   -2.1491   -2.3424 H   0  0  0  0  0  0  0  0  0  0  0  0
    0.3960    1.7405    0.6180 H   0  0  0  0  0  0  0  0  0  0  0  0
   -2.2788    0.7842    0.6256 H   0  0  0  0  0  0  0  0  0  0  0  0
    2.6686   -0.0593   -1.3290 N   0  0  0  0  0  0  0  0  0  0  0  0
    3.4633    0.6213   -0.9702 N   0  0  0  0  0  0  0  0  0  0  0  0
    0.8540    2.8103    1.3053 Cl  0  0  0  0  0  0  0  0  0  0  0  0
   -3.5076   -1.3560   -0.6113 O   0  0  0  0  0  0  0  0  0  0  0  0
   -4.3888   -0.5971    0.2060 C   0  0  0  0  0  0  0  0  0  0  0  0
   -5.3625   -1.0823    0.1271 H   0  0  0  0  0  0  0  0  0  0  0  0
   -4.4710    0.4392   -0.1449 H   0  0  0  0  0  0  0  0  0  0  0  0
   -4.0662   -0.5986    1.2548 H   0  0  0  0  0  0  0  0  0  0  0  0
  1  6  1  0  0  0  0
  2  1  2  0  0  0  0
  2  3  1  0  0  0  0
  3  4  2  0  0  0  0
  4  5  1  0  0  0  0
  5 10  1  0  0  0  0
  6 14  1  0  0  0  0
  6  5  2  0  0  0  0
  7  1  1  0  0  0  0
  8  2  1  0  0  0  0
  9 13  1  0  0  0  0
 11 12  3  0  0  0  0
 14 15  1  0  0  0  0
 15 18  1  0  0  0  0
 16 15  1  0  0  0  0
 17 15  1  0  0  0  0
M  RAD  2   3   2   4   2
M  END
