Coordinates from ORCA-job 4-MeO-Ph-N2-Cl-B3LYPG-6-31G_dp-MTMO-d009-169-n800
 OpenBabel09051908443D

 18 16  0  0  0  0  0  0  0  0999 V2000
   -0.8914   -1.2435   -1.1044 C   0  0  0  0  0  0  0  0  0  0  0  0
    0.3695   -0.6460   -0.9538 C   0  0  0  0  0  0  0  0  0  0  0  0
    0.2197    0.4621   -0.1505 C   0  0  0  0  0  0  0  0  0  0  0  0
   -0.7557    0.9979    0.4284 C   0  0  0  0  0  0  0  0  0  0  0  0
   -2.0377    0.4430    0.3106 C   0  0  0  0  0  0  0  0  0  0  0  0
   -2.0642   -0.7204   -0.4944 C   0  0  0  0  0  0  0  0  0  0  0  0
   -0.9959   -2.1418   -1.7051 H   0  0  0  0  0  0  0  0  0  0  0  0
    1.2712   -1.0310   -1.4133 H   0  0  0  0  0  0  0  0  0  0  0  0
   -0.6861    2.5514    1.5308 H   0  0  0  0  0  0  0  0  0  0  0  0
   -2.9230    0.8515    0.7802 H   0  0  0  0  0  0  0  0  0  0  0  0
    3.5308   -2.0328   -3.1297 N   0  0  0  0  0  0  0  0  0  0  0  0
    4.3990   -2.3140   -3.7529 N   0  0  0  0  0  0  0  0  0  0  0  0
   -0.8426    3.5999    2.3218 Cl  0  0  0  0  0  0  0  0  0  0  0  0
   -3.1964   -1.4331   -0.7538 O   0  0  0  0  0  0  0  0  0  0  0  0
   -4.4198   -0.9860   -0.1852 C   0  0  0  0  0  0  0  0  0  0  0  0
   -5.1815   -1.6898   -0.5227 H   0  0  0  0  0  0  0  0  0  0  0  0
   -4.6799    0.0220   -0.5315 H   0  0  0  0  0  0  0  0  0  0  0  0
   -4.3796   -0.9922    0.9114 H   0  0  0  0  0  0  0  0  0  0  0  0
  1  2  2  0  0  0  0
  1  6  1  0  0  0  0
  2  3  1  0  0  0  0
  3  4  2  0  0  0  0
  5  4  1  0  0  0  0
  5 10  1  0  0  0  0
  6  5  2  0  0  0  0
  7  1  1  0  0  0  0
  8  2  1  0  0  0  0
  9 13  1  0  0  0  0
 12 11  3  0  0  0  0
 14  6  1  0  0  0  0
 14 15  1  0  0  0  0
 15 18  1  0  0  0  0
 16 15  1  0  0  0  0
 17 15  1  0  0  0  0
M  RAD  2   3   2   4   2
M  END
