Coordinates from ORCA-job 4-MeO-Ph-N2-Cl-B3LYPG-6-31G_dp-MTMO-d009-169-n800
 OpenBabel09051908443D

 18 16  0  0  0  0  0  0  0  0999 V2000
   -0.8027   -1.0533   -1.0667 C   0  0  0  0  0  0  0  0  0  0  0  0
    0.4102   -0.3810   -0.8530 C   0  0  0  0  0  0  0  0  0  0  0  0
    0.1664    0.6818   -0.0119 C   0  0  0  0  0  0  0  0  0  0  0  0
   -0.8605    1.1254    0.5550 C   0  0  0  0  0  0  0  0  0  0  0  0
   -2.0990    0.4944    0.3775 C   0  0  0  0  0  0  0  0  0  0  0  0
   -2.0248   -0.6339   -0.4734 C   0  0  0  0  0  0  0  0  0  0  0  0
   -0.8298   -1.9312   -1.7048 H   0  0  0  0  0  0  0  0  0  0  0  0
    1.3485   -0.6879   -1.2978 H   0  0  0  0  0  0  0  0  0  0  0  0
   -0.9197    2.6438    1.7200 H   0  0  0  0  0  0  0  0  0  0  0  0
   -3.0224    0.8242    0.8357 H   0  0  0  0  0  0  0  0  0  0  0  0
    3.6820   -2.5430   -3.4940 N   0  0  0  0  0  0  0  0  0  0  0  0
    4.4194   -3.0146   -4.1688 N   0  0  0  0  0  0  0  0  0  0  0  0
   -1.1658    3.6474    2.5437 Cl  0  0  0  0  0  0  0  0  0  0  0  0
   -3.0988   -1.4079   -0.7959 O   0  0  0  0  0  0  0  0  0  0  0  0
   -4.3641   -1.0699   -0.2443 C   0  0  0  0  0  0  0  0  0  0  0  0
   -5.0663   -1.8092   -0.6309 H   0  0  0  0  0  0  0  0  0  0  0  0
   -4.6849   -0.0682   -0.5567 H   0  0  0  0  0  0  0  0  0  0  0  0
   -4.3511   -1.1195    0.8519 H   0  0  0  0  0  0  0  0  0  0  0  0
  1  2  2  0  0  0  0
  1  6  1  0  0  0  0
  2  3  1  0  0  0  0
  3  4  2  0  0  0  0
  5  4  1  0  0  0  0
  5 10  1  0  0  0  0
  6  5  2  0  0  0  0
  7  1  1  0  0  0  0
  8  2  1  0  0  0  0
  9 13  1  0  0  0  0
 12 11  3  0  0  0  0
 14  6  1  0  0  0  0
 14 15  1  0  0  0  0
 15 18  1  0  0  0  0
 16 15  1  0  0  0  0
 17 15  1  0  0  0  0
M  RAD  2   3   2   4   2
M  END
