Coordinates from ORCA-job 4-MeO-Ph-N2-Cl-B3LYPG-6-31G_dp-MTMO-d009-169-n800
 OpenBabel09051908443D

 18 16  0  0  0  0  0  0  0  0999 V2000
   -0.8079   -1.0616   -1.0744 C   0  0  0  0  0  0  0  0  0  0  0  0
    0.4079   -0.3930   -0.8651 C   0  0  0  0  0  0  0  0  0  0  0  0
    0.1700    0.6709   -0.0237 C   0  0  0  0  0  0  0  0  0  0  0  0
   -0.8536    1.1181    0.5465 C   0  0  0  0  0  0  0  0  0  0  0  0
   -2.0945    0.4908    0.3733 C   0  0  0  0  0  0  0  0  0  0  0  0
   -2.0267   -0.6381   -0.4772 C   0  0  0  0  0  0  0  0  0  0  0  0
   -0.8398   -1.9398   -1.7119 H   0  0  0  0  0  0  0  0  0  0  0  0
    1.3437   -0.7031   -1.3129 H   0  0  0  0  0  0  0  0  0  0  0  0
   -0.9046    2.6365    1.7110 H   0  0  0  0  0  0  0  0  0  0  0  0
   -3.0154    0.8237    0.8344 H   0  0  0  0  0  0  0  0  0  0  0  0
    3.6683   -2.5103   -3.4618 N   0  0  0  0  0  0  0  0  0  0  0  0
    4.4120   -2.9774   -4.1326 N   0  0  0  0  0  0  0  0  0  0  0  0
   -1.1450    3.6411    2.5353 Cl  0  0  0  0  0  0  0  0  0  0  0  0
   -3.1041   -1.4090   -0.7957 O   0  0  0  0  0  0  0  0  0  0  0  0
   -4.3665   -1.0669   -0.2399 C   0  0  0  0  0  0  0  0  0  0  0  0
   -5.0723   -1.8042   -0.6238 H   0  0  0  0  0  0  0  0  0  0  0  0
   -4.6853   -0.0644   -0.5515 H   0  0  0  0  0  0  0  0  0  0  0  0
   -4.3498   -1.1162    0.8563 H   0  0  0  0  0  0  0  0  0  0  0  0
  1  2  2  0  0  0  0
  1  6  1  0  0  0  0
  2  3  1  0  0  0  0
  3  4  2  0  0  0  0
  5  4  1  0  0  0  0
  5 10  1  0  0  0  0
  6  5  2  0  0  0  0
  7  1  1  0  0  0  0
  8  2  1  0  0  0  0
  9 13  1  0  0  0  0
 12 11  3  0  0  0  0
 14  6  1  0  0  0  0
 14 15  1  0  0  0  0
 15 18  1  0  0  0  0
 16 15  1  0  0  0  0
 17 15  1  0  0  0  0
M  RAD  2   3   2   4   2
M  END
