Coordinates from ORCA-job 4-MeO-Ph-N2-Cl-B3LYPG-6-31G_dp-MTMO-d009-169-n800
 OpenBabel09051908453D

 18 16  0  0  0  0  0  0  0  0999 V2000
   -1.0492    0.6777   -0.8465 C   0  0  0  0  0  0  0  0  0  0  0  0
   -0.1581    1.6136   -0.3005 C   0  0  0  0  0  0  0  0  0  0  0  0
   -0.6863    2.0665    0.8880 C   0  0  0  0  0  0  0  0  0  0  0  0
   -1.7390    1.8138    1.5207 C   0  0  0  0  0  0  0  0  0  0  0  0
   -2.6663    0.8882    1.0251 C   0  0  0  0  0  0  0  0  0  0  0  0
   -2.2687    0.3201   -0.2087 C   0  0  0  0  0  0  0  0  0  0  0  0
   -0.8179    0.1977   -1.7921 H   0  0  0  0  0  0  0  0  0  0  0  0
    0.7743    1.8969   -0.7719 H   0  0  0  0  0  0  0  0  0  0  0  0
   -2.2483    2.6144    3.1934 H   0  0  0  0  0  0  0  0  0  0  0  0
   -3.5921    0.6260    1.5206 H   0  0  0  0  0  0  0  0  0  0  0  0
    7.1778   -8.0112   -7.4794 N   0  0  0  0  0  0  0  0  0  0  0  0
    7.7105   -8.9541   -7.7004 N   0  0  0  0  0  0  0  0  0  0  0  0
   -2.7737    3.0427    4.3268 Cl  0  0  0  0  0  0  0  0  0  0  0  0
   -3.0050   -0.6045   -0.8862 O   0  0  0  0  0  0  0  0  0  0  0  0
   -4.2385   -1.0298   -0.3225 C   0  0  0  0  0  0  0  0  0  0  0  0
   -4.6497   -1.7609   -1.0199 H   0  0  0  0  0  0  0  0  0  0  0  0
   -4.9418   -0.1943   -0.2159 H   0  0  0  0  0  0  0  0  0  0  0  0
   -4.0914   -1.5055    0.6555 H   0  0  0  0  0  0  0  0  0  0  0  0
  1  2  2  0  0  0  0
  1  6  1  0  0  0  0
  2  3  1  0  0  0  0
  3  4  2  0  0  0  0
  5 10  1  0  0  0  0
  5  4  1  0  0  0  0
  6  5  2  0  0  0  0
  7  1  1  0  0  0  0
  8  2  1  0  0  0  0
  9 13  1  0  0  0  0
 12 11  3  0  0  0  0
 14 15  1  0  0  0  0
 14  6  1  0  0  0  0
 15 17  1  0  0  0  0
 15 18  1  0  0  0  0
 16 15  1  0  0  0  0
M  RAD  2   3   2   4   2
M  END
