Coordinates from ORCA-job 4-MeO-Ph-N2-Cl-B3LYPG-6-31G_dp-MTMO-d009-169-n800
 OpenBabel09051908453D

 18 16  0  0  0  0  0  0  0  0999 V2000
   -0.8207    0.4525   -1.0526 C   0  0  0  0  0  0  0  0  0  0  0  0
    0.0791    1.3809   -0.5081 C   0  0  0  0  0  0  0  0  0  0  0  0
   -0.4391    1.8304    0.6858 C   0  0  0  0  0  0  0  0  0  0  0  0
   -1.4886    1.5816    1.3255 C   0  0  0  0  0  0  0  0  0  0  0  0
   -2.4239    0.6630    0.8307 C   0  0  0  0  0  0  0  0  0  0  0  0
   -2.0378    0.0986   -0.4083 C   0  0  0  0  0  0  0  0  0  0  0  0
   -0.5982   -0.0242   -2.0020 H   0  0  0  0  0  0  0  0  0  0  0  0
    1.0099    1.6613   -0.9842 H   0  0  0  0  0  0  0  0  0  0  0  0
   -1.9861    2.3759    3.0011 H   0  0  0  0  0  0  0  0  0  0  0  0
   -3.3478    0.4035    1.3310 H   0  0  0  0  0  0  0  0  0  0  0  0
    5.2840   -6.2214   -5.9019 N   0  0  0  0  0  0  0  0  0  0  0  0
    5.8213   -7.1633   -6.1159 N   0  0  0  0  0  0  0  0  0  0  0  0
   -2.5016    2.8041    4.1395 Cl  0  0  0  0  0  0  0  0  0  0  0  0
   -2.7838   -0.8186   -1.0852 O   0  0  0  0  0  0  0  0  0  0  0  0
   -4.0158   -1.2398   -0.5152 C   0  0  0  0  0  0  0  0  0  0  0  0
   -4.4357   -1.9653   -1.2134 H   0  0  0  0  0  0  0  0  0  0  0  0
   -4.7138   -0.4010   -0.4001 H   0  0  0  0  0  0  0  0  0  0  0  0
   -3.8650   -1.7209    0.4595 H   0  0  0  0  0  0  0  0  0  0  0  0
  1  2  2  0  0  0  0
  1  6  1  0  0  0  0
  2  3  1  0  0  0  0
  3  4  2  0  0  0  0
  5  4  1  0  0  0  0
  5 10  1  0  0  0  0
  6  5  2  0  0  0  0
  7  1  1  0  0  0  0
  8  2  1  0  0  0  0
  9 13  1  0  0  0  0
 12 11  3  0  0  0  0
 14 15  1  0  0  0  0
 14  6  1  0  0  0  0
 15 17  1  0  0  0  0
 15 18  1  0  0  0  0
 16 15  1  0  0  0  0
M  RAD  2   3   2   4   2
M  END
