Coordinates from ORCA-job 4-MeO-Ph-N2-Cl-B3LYPG-6-31G_dp-MTMO-d009-169-n800
 OpenBabel09051908443D

 18 16  0  0  0  0  0  0  0  0999 V2000
   -0.6167   -0.4903   -0.6771 C   0  0  0  0  0  0  0  0  0  0  0  0
    0.4103    0.3586   -0.2380 C   0  0  0  0  0  0  0  0  0  0  0  0
   -0.1377    1.2901    0.6162 C   0  0  0  0  0  0  0  0  0  0  0  0
   -1.2998    1.5003    1.0378 C   0  0  0  0  0  0  0  0  0  0  0  0
   -2.3655    0.6855    0.6352 C   0  0  0  0  0  0  0  0  0  0  0  0
   -1.9666   -0.3381   -0.2576 C   0  0  0  0  0  0  0  0  0  0  0  0
   -0.3924   -1.3018   -1.3627 H   0  0  0  0  0  0  0  0  0  0  0  0
    1.4428    0.2572   -0.5480 H   0  0  0  0  0  0  0  0  0  0  0  0
   -1.8155    2.9157    2.2309 H   0  0  0  0  0  0  0  0  0  0  0  0
   -3.3895    0.8130    0.9626 H   0  0  0  0  0  0  0  0  0  0  0  0
    4.6933   -4.6134   -5.4255 N   0  0  0  0  0  0  0  0  0  0  0  0
    5.2377   -5.2073   -6.1822 N   0  0  0  0  0  0  0  0  0  0  0  0
   -2.3736    3.8070    3.0298 Cl  0  0  0  0  0  0  0  0  0  0  0  0
   -2.8247   -1.2543   -0.7868 O   0  0  0  0  0  0  0  0  0  0  0  0
   -4.1967   -1.1822   -0.4233 C   0  0  0  0  0  0  0  0  0  0  0  0
   -4.6906   -1.9956   -0.9560 H   0  0  0  0  0  0  0  0  0  0  0  0
   -4.6437   -0.2270   -0.7257 H   0  0  0  0  0  0  0  0  0  0  0  0
   -4.3347   -1.3200    0.6565 H   0  0  0  0  0  0  0  0  0  0  0  0
  1  6  2  0  0  0  0
  1  2  1  0  0  0  0
  2  3  2  0  0  0  0
  3  4  1  0  0  0  0
  5 10  1  0  0  0  0
  5  4  2  0  0  0  0
  6  5  1  0  0  0  0
  7  1  1  0  0  0  0
  8  2  1  0  0  0  0
  9 13  1  0  0  0  0
 12 11  3  0  0  0  0
 14 15  1  0  0  0  0
 14  6  1  0  0  0  0
 15 18  1  0  0  0  0
 16 15  1  0  0  0  0
 17 15  1  0  0  0  0
M  RAD  2   3   2   4   2
M  END
