Coordinates from ORCA-job 4-MeO-Ph-N2-Cl-B3LYPG-6-31G_dp-MTMO-d009-169-n800
 OpenBabel09051908443D

 18 16  0  0  0  0  0  0  0  0999 V2000
   -0.6432   -0.6409   -0.7267 C   0  0  0  0  0  0  0  0  0  0  0  0
    0.4291    0.1727   -0.3313 C   0  0  0  0  0  0  0  0  0  0  0  0
   -0.0600    1.1526    0.5044 C   0  0  0  0  0  0  0  0  0  0  0  0
   -1.2034    1.4277    0.9396 C   0  0  0  0  0  0  0  0  0  0  0  0
   -2.3122    0.6510    0.5802 C   0  0  0  0  0  0  0  0  0  0  0  0
   -1.9767   -0.4149   -0.2887 C   0  0  0  0  0  0  0  0  0  0  0  0
   -0.4685   -1.4817   -1.3910 H   0  0  0  0  0  0  0  0  0  0  0  0
    1.4499    0.0148   -0.6556 H   0  0  0  0  0  0  0  0  0  0  0  0
   -1.6298    2.8974    2.1023 H   0  0  0  0  0  0  0  0  0  0  0  0
   -3.3229    0.8346    0.9217 H   0  0  0  0  0  0  0  0  0  0  0  0
    4.4878   -4.1587   -5.0502 N   0  0  0  0  0  0  0  0  0  0  0  0
    5.0566   -4.7106   -5.8206 N   0  0  0  0  0  0  0  0  0  0  0  0
   -2.1287    3.8356    2.8865 Cl  0  0  0  0  0  0  0  0  0  0  0  0
   -2.8852   -1.3057   -0.7759 O   0  0  0  0  0  0  0  0  0  0  0  0
   -4.2458   -1.1595   -0.3926 C   0  0  0  0  0  0  0  0  0  0  0  0
   -4.7858   -1.9640   -0.8931 H   0  0  0  0  0  0  0  0  0  0  0  0
   -4.6536   -0.1937   -0.7159 H   0  0  0  0  0  0  0  0  0  0  0  0
   -4.3712   -1.2595    0.6929 H   0  0  0  0  0  0  0  0  0  0  0  0
  1  2  2  0  0  0  0
  1  6  1  0  0  0  0
  2  3  1  0  0  0  0
  3  4  2  0  0  0  0
  5 10  1  0  0  0  0
  5  4  1  0  0  0  0
  6  5  2  0  0  0  0
  7  1  1  0  0  0  0
  8  2  1  0  0  0  0
  9 13  1  0  0  0  0
 12 11  3  0  0  0  0
 14 15  1  0  0  0  0
 14  6  1  0  0  0  0
 15 18  1  0  0  0  0
 16 15  1  0  0  0  0
 17 15  1  0  0  0  0
M  RAD  2   3   2   4   2
M  END
