Coordinates from ORCA-job 4-MeO-Ph-N2-Cl-B3LYPG-6-31G_dp-MTMO-d009-169-n800
 OpenBabel09051908453D

 18 16  0  0  0  0  0  0  0  0999 V2000
   -0.9102    0.5456   -0.9532 C   0  0  0  0  0  0  0  0  0  0  0  0
   -0.0190    1.4815   -0.4073 C   0  0  0  0  0  0  0  0  0  0  0  0
   -0.5496    1.9382    0.7786 C   0  0  0  0  0  0  0  0  0  0  0  0
   -1.6043    1.6889    1.4094 C   0  0  0  0  0  0  0  0  0  0  0  0
   -2.5318    0.7634    0.9137 C   0  0  0  0  0  0  0  0  0  0  0  0
   -2.1318    0.1915   -0.3176 C   0  0  0  0  0  0  0  0  0  0  0  0
   -0.6771    0.0627   -1.8969 H   0  0  0  0  0  0  0  0  0  0  0  0
    0.9150    1.7620   -0.8771 H   0  0  0  0  0  0  0  0  0  0  0  0
   -2.1169    2.4944    3.0783 H   0  0  0  0  0  0  0  0  0  0  0  0
   -3.4592    0.5040    1.4074 H   0  0  0  0  0  0  0  0  0  0  0  0
    6.0914   -6.9976   -6.5983 N   0  0  0  0  0  0  0  0  0  0  0  0
    6.6250   -7.9400   -6.8192 N   0  0  0  0  0  0  0  0  0  0  0  0
   -2.6441    2.9269    4.2092 Cl  0  0  0  0  0  0  0  0  0  0  0  0
   -2.8679   -0.7337   -0.9946 O   0  0  0  0  0  0  0  0  0  0  0  0
   -4.1035   -1.1555   -0.4330 C   0  0  0  0  0  0  0  0  0  0  0  0
   -4.5141   -1.8877   -1.1296 H   0  0  0  0  0  0  0  0  0  0  0  0
   -4.8057   -0.3185   -0.3305 H   0  0  0  0  0  0  0  0  0  0  0  0
   -3.9599   -1.6288    0.5466 H   0  0  0  0  0  0  0  0  0  0  0  0
  1  2  2  0  0  0  0
  1  6  1  0  0  0  0
  2  3  1  0  0  0  0
  3  4  2  0  0  0  0
  5 10  1  0  0  0  0
  5  4  1  0  0  0  0
  6  5  2  0  0  0  0
  7  1  1  0  0  0  0
  8  2  1  0  0  0  0
  9 13  1  0  0  0  0
 12 11  3  0  0  0  0
 14 15  1  0  0  0  0
 14  6  1  0  0  0  0
 15 17  1  0  0  0  0
 15 18  1  0  0  0  0
 16 15  1  0  0  0  0
M  RAD  2   3   2   4   2
M  END
