Coordinates from ORCA-job 4-MeO-Ph-N2-Cl-B3LYPG-6-31G_dp-MTMO-d009-169-n800
 OpenBabel09051908453D

 18 16  0  0  0  0  0  0  0  0999 V2000
   -0.7364    0.3516   -1.1306 C   0  0  0  0  0  0  0  0  0  0  0  0
    0.1727    1.2731   -0.5897 C   0  0  0  0  0  0  0  0  0  0  0  0
   -0.3391    1.7294    0.6045 C   0  0  0  0  0  0  0  0  0  0  0  0
   -1.3895    1.4909    1.2467 C   0  0  0  0  0  0  0  0  0  0  0  0
   -2.3338    0.5796    0.7557 C   0  0  0  0  0  0  0  0  0  0  0  0
   -1.9552    0.0095   -0.4830 C   0  0  0  0  0  0  0  0  0  0  0  0
   -0.5201   -0.1289   -2.0796 H   0  0  0  0  0  0  0  0  0  0  0  0
    1.1048    1.5445   -1.0685 H   0  0  0  0  0  0  0  0  0  0  0  0
   -1.8746    2.2917    2.9229 H   0  0  0  0  0  0  0  0  0  0  0  0
   -3.2589    0.3294    1.2586 H   0  0  0  0  0  0  0  0  0  0  0  0
    4.5914   -5.5236   -5.2991 N   0  0  0  0  0  0  0  0  0  0  0  0
    5.1225   -6.4682   -5.5166 N   0  0  0  0  0  0  0  0  0  0  0  0
   -2.3857    2.7235    4.0619 Cl  0  0  0  0  0  0  0  0  0  0  0  0
   -2.7106   -0.9024   -1.1567 O   0  0  0  0  0  0  0  0  0  0  0  0
   -3.9454   -1.3111   -0.5837 C   0  0  0  0  0  0  0  0  0  0  0  0
   -4.3733   -2.0340   -1.2797 H   0  0  0  0  0  0  0  0  0  0  0  0
   -4.6353   -0.4657   -0.4689 H   0  0  0  0  0  0  0  0  0  0  0  0
   -3.7972   -1.7918    0.3917 H   0  0  0  0  0  0  0  0  0  0  0  0
  1  2  2  0  0  0  0
  1  6  1  0  0  0  0
  2  3  1  0  0  0  0
  3  4  2  0  0  0  0
  5  4  1  0  0  0  0
  5 10  1  0  0  0  0
  6  5  2  0  0  0  0
  7  1  1  0  0  0  0
  8  2  1  0  0  0  0
  9 13  1  0  0  0  0
 12 11  3  0  0  0  0
 14 15  1  0  0  0  0
 14  6  1  0  0  0  0
 15 17  1  0  0  0  0
 15 18  1  0  0  0  0
 16 15  1  0  0  0  0
M  RAD  2   3   2   4   2
M  END
