Coordinates from ORCA-job 4-MeO-Ph-N2-Cl-B3LYPG-6-31G_dp-MTMO-d009-169-n800
 OpenBabel09051908453D

 18 16  0  0  0  0  0  0  0  0999 V2000
   -0.8010    0.4310   -1.0761 C   0  0  0  0  0  0  0  0  0  0  0  0
    0.1012    1.3574   -0.5322 C   0  0  0  0  0  0  0  0  0  0  0  0
   -0.4135    1.8055    0.6639 C   0  0  0  0  0  0  0  0  0  0  0  0
   -1.4619    1.5568    1.3054 C   0  0  0  0  0  0  0  0  0  0  0  0
   -2.3994    0.6400    0.8114 C   0  0  0  0  0  0  0  0  0  0  0  0
   -2.0169    0.0773   -0.4294 C   0  0  0  0  0  0  0  0  0  0  0  0
   -0.5814   -0.0445   -2.0269 H   0  0  0  0  0  0  0  0  0  0  0  0
    1.0311    1.6376   -1.0102 H   0  0  0  0  0  0  0  0  0  0  0  0
   -1.9533    2.3490    2.9843 H   0  0  0  0  0  0  0  0  0  0  0  0
   -3.3225    0.3809    1.3136 H   0  0  0  0  0  0  0  0  0  0  0  0
    5.1037   -6.0423   -5.7383 N   0  0  0  0  0  0  0  0  0  0  0  0
    5.6369   -6.9858   -5.9554 N   0  0  0  0  0  0  0  0  0  0  0  0
   -2.4674    2.7737    4.1245 Cl  0  0  0  0  0  0  0  0  0  0  0  0
   -2.7656   -0.8380   -1.1061 O   0  0  0  0  0  0  0  0  0  0  0  0
   -3.9968   -1.2586   -0.5340 C   0  0  0  0  0  0  0  0  0  0  0  0
   -4.4192   -1.9823   -1.2323 H   0  0  0  0  0  0  0  0  0  0  0  0
   -4.6934   -0.4190   -0.4158 H   0  0  0  0  0  0  0  0  0  0  0  0
   -3.8442   -1.7415    0.4396 H   0  0  0  0  0  0  0  0  0  0  0  0
  1  2  2  0  0  0  0
  1  6  1  0  0  0  0
  2  3  1  0  0  0  0
  3  4  2  0  0  0  0
  5  4  1  0  0  0  0
  5 10  1  0  0  0  0
  6  5  2  0  0  0  0
  7  1  1  0  0  0  0
  8  2  1  0  0  0  0
  9 13  1  0  0  0  0
 12 11  3  0  0  0  0
 14 15  1  0  0  0  0
 14  6  1  0  0  0  0
 15 17  1  0  0  0  0
 15 18  1  0  0  0  0
 16 15  1  0  0  0  0
M  RAD  2   3   2   4   2
M  END
