Coordinates from ORCA-job 4-MeO-Ph-N2-Cl-B3LYPG-6-31G_dp-MTMO-d009-169-n800
 OpenBabel09051908443D

 18 17  0  0  0  0  0  0  0  0999 V2000
   -1.3581   -1.7480   -1.4956 C   0  0  0  0  0  0  0  0  0  0  0  0
   -0.0094   -1.4261   -1.6227 C   0  0  0  0  0  0  0  0  0  0  0  0
    0.3887   -0.3206   -0.9075 C   0  0  0  0  0  0  0  0  0  0  0  0
   -0.3470    0.4979   -0.0999 C   0  0  0  0  0  0  0  0  0  0  0  0
   -1.7023    0.1492    0.0074 C   0  0  0  0  0  0  0  0  0  0  0  0
   -2.2044   -0.9658   -0.6839 C   0  0  0  0  0  0  0  0  0  0  0  0
   -1.7787   -2.6023   -2.0147 H   0  0  0  0  0  0  0  0  0  0  0  0
    0.6727   -2.0020   -2.2355 H   0  0  0  0  0  0  0  0  0  0  0  0
    0.1018    1.3472    0.4109 H   0  0  0  0  0  0  0  0  0  0  0  0
   -2.3436    0.7596    0.6311 H   0  0  0  0  0  0  0  0  0  0  0  0
    2.1972    0.0744   -1.1013 N   0  0  0  0  0  0  0  0  0  0  0  0
    2.8970    0.8786   -0.6836 N   0  0  0  0  0  0  0  0  0  0  0  0
    2.1433    2.5019    0.7471 Cl  0  0  0  0  0  0  0  0  0  0  0  0
   -3.4951   -1.3765   -0.6371 O   0  0  0  0  0  0  0  0  0  0  0  0
   -4.4164   -0.6474    0.1672 C   0  0  0  0  0  0  0  0  0  0  0  0
   -5.3737   -1.1579    0.0592 H   0  0  0  0  0  0  0  0  0  0  0  0
   -4.5172    0.3887   -0.1780 H   0  0  0  0  0  0  0  0  0  0  0  0
   -4.1184   -0.6534    1.2228 H   0  0  0  0  0  0  0  0  0  0  0  0
  1  6  1  0  0  0  0
  2  1  2  0  0  0  0
  2  3  1  0  0  0  0
  3  4  2  0  0  0  0
  4  5  1  0  0  0  0
  4  9  1  0  0  0  0
  5 10  1  0  0  0  0
  6 14  1  0  0  0  0
  6  5  2  0  0  0  0
  7  1  1  0  0  0  0
  8  2  1  0  0  0  0
 11  3  1  0  0  0  0
 11 12  2  0  0  0  0
 14 15  1  0  0  0  0
 15 18  1  0  0  0  0
 16 15  1  0  0  0  0
 17 15  1  0  0  0  0
M  RAD  2  12   2  13   2
M  END
