Coordinates from ORCA-job 4-MeO-Ph-N2-Cl-B3LYPG-6-31G_dp-MTMO-d009-169-n800
 OpenBabel09051908453D

 18 16  0  0  0  0  0  0  0  0999 V2000
   -0.9883    0.6197   -0.9007 C   0  0  0  0  0  0  0  0  0  0  0  0
   -0.0957    1.5543   -0.3548 C   0  0  0  0  0  0  0  0  0  0  0  0
   -0.6217    2.0058    0.8351 C   0  0  0  0  0  0  0  0  0  0  0  0
   -1.6735    1.7528    1.4692 C   0  0  0  0  0  0  0  0  0  0  0  0
   -2.6022    0.8285    0.9737 C   0  0  0  0  0  0  0  0  0  0  0  0
   -2.2069    0.2619   -0.2615 C   0  0  0  0  0  0  0  0  0  0  0  0
   -0.7587    0.1409   -1.8474 H   0  0  0  0  0  0  0  0  0  0  0  0
    0.8361    1.8376   -0.8273 H   0  0  0  0  0  0  0  0  0  0  0  0
   -2.1801    2.5513    3.1436 H   0  0  0  0  0  0  0  0  0  0  0  0
   -3.5273    0.5661    1.4703 H   0  0  0  0  0  0  0  0  0  0  0  0
    6.6746   -7.5389   -7.0614 N   0  0  0  0  0  0  0  0  0  0  0  0
    7.2065   -8.4820   -7.2838 N   0  0  0  0  0  0  0  0  0  0  0  0
   -2.7037    2.9784    4.2783 Cl  0  0  0  0  0  0  0  0  0  0  0  0
   -2.9449   -0.6613   -0.9392 O   0  0  0  0  0  0  0  0  0  0  0  0
   -4.1777   -1.0866   -0.3741 C   0  0  0  0  0  0  0  0  0  0  0  0
   -4.5905   -1.8165   -1.0719 H   0  0  0  0  0  0  0  0  0  0  0  0
   -4.8803   -0.2509   -0.2652 H   0  0  0  0  0  0  0  0  0  0  0  0
   -4.0294   -1.5638    0.6030 H   0  0  0  0  0  0  0  0  0  0  0  0
  1  2  2  0  0  0  0
  1  6  1  0  0  0  0
  2  3  1  0  0  0  0
  3  4  2  0  0  0  0
  5  4  1  0  0  0  0
  5 10  1  0  0  0  0
  6  5  2  0  0  0  0
  7  1  1  0  0  0  0
  8  2  1  0  0  0  0
  9 13  1  0  0  0  0
 12 11  3  0  0  0  0
 14 15  1  0  0  0  0
 14  6  1  0  0  0  0
 15 17  1  0  0  0  0
 15 18  1  0  0  0  0
 16 15  1  0  0  0  0
M  RAD  2   3   2   4   2
M  END
