Coordinates from ORCA-job 4-MeO-Ph-N2-Cl-B3LYPG-6-31G_dp-MTMO-d009-169-n800
 OpenBabel09051908443D

 18 16  0  0  0  0  0  0  0  0999 V2000
   -0.6712   -0.7459   -0.7992 C   0  0  0  0  0  0  0  0  0  0  0  0
    0.4365    0.0384   -0.4444 C   0  0  0  0  0  0  0  0  0  0  0  0
    0.0013    1.0451    0.3892 C   0  0  0  0  0  0  0  0  0  0  0  0
   -1.1206    1.3619    0.8510 C   0  0  0  0  0  0  0  0  0  0  0  0
   -2.2627    0.6161    0.5326 C   0  0  0  0  0  0  0  0  0  0  0  0
   -1.9847   -0.4715   -0.3294 C   0  0  0  0  0  0  0  0  0  0  0  0
   -0.5412   -1.6013   -1.4552 H   0  0  0  0  0  0  0  0  0  0  0  0
    1.4426   -0.1570   -0.7933 H   0  0  0  0  0  0  0  0  0  0  0  0
   -1.4657    2.8528    2.0136 H   0  0  0  0  0  0  0  0  0  0  0  0
   -3.2572    0.8362    0.8988 H   0  0  0  0  0  0  0  0  0  0  0  0
    4.2975   -3.7773   -4.6781 N   0  0  0  0  0  0  0  0  0  0  0  0
    4.8819   -4.3014   -5.4562 N   0  0  0  0  0  0  0  0  0  0  0  0
   -1.9091    3.8125    2.8050 Cl  0  0  0  0  0  0  0  0  0  0  0  0
   -2.9336   -1.3395   -0.7794 O   0  0  0  0  0  0  0  0  0  0  0  0
   -4.2785   -1.1431   -0.3642 C   0  0  0  0  0  0  0  0  0  0  0  0
   -4.8570   -1.9366   -0.8385 H   0  0  0  0  0  0  0  0  0  0  0  0
   -4.6628   -0.1692   -0.6921 H   0  0  0  0  0  0  0  0  0  0  0  0
   -4.3791   -1.2229    0.7256 H   0  0  0  0  0  0  0  0  0  0  0  0
  1  2  2  0  0  0  0
  1  6  1  0  0  0  0
  2  3  1  0  0  0  0
  3  4  2  0  0  0  0
  5  4  1  0  0  0  0
  5 10  1  0  0  0  0
  6  5  2  0  0  0  0
  7  1  1  0  0  0  0
  8  2  1  0  0  0  0
  9 13  1  0  0  0  0
 12 11  3  0  0  0  0
 14 15  1  0  0  0  0
 14  6  1  0  0  0  0
 15 18  1  0  0  0  0
 16 15  1  0  0  0  0
 17 15  1  0  0  0  0
M  RAD  2   3   2   4   2
M  END
