Coordinates from ORCA-job 4-MeO-Ph-N2-Cl-B3LYPG-6-31G_dp-MTMO-d009-169-n800
 OpenBabel09051908443D

 18 18  0  0  0  0  0  0  0  0999 V2000
   -1.3092   -1.7195   -1.4842 C   0  0  0  0  0  0  0  0  0  0  0  0
    0.0221   -1.3697   -1.5900 C   0  0  0  0  0  0  0  0  0  0  0  0
    0.5043   -0.2485   -0.8898 C   0  0  0  0  0  0  0  0  0  0  0  0
   -0.3472    0.5250   -0.0860 C   0  0  0  0  0  0  0  0  0  0  0  0
   -1.6867    0.1685    0.0145 C   0  0  0  0  0  0  0  0  0  0  0  0
   -2.1757   -0.9524   -0.6795 C   0  0  0  0  0  0  0  0  0  0  0  0
   -1.7129   -2.5788   -2.0075 H   0  0  0  0  0  0  0  0  0  0  0  0
    0.7055   -1.9466   -2.2037 H   0  0  0  0  0  0  0  0  0  0  0  0
    0.0533    1.3838    0.4401 H   0  0  0  0  0  0  0  0  0  0  0  0
   -2.3421    0.7691    0.6330 H   0  0  0  0  0  0  0  0  0  0  0  0
    1.8656    0.0414   -1.0461 N   0  0  0  0  0  0  0  0  0  0  0  0
    2.7300    0.7611   -0.7314 N   0  0  0  0  0  0  0  0  0  0  0  0
    2.2534    2.3756    0.6519 Cl  0  0  0  0  0  0  0  0  0  0  0  0
   -3.4564   -1.3760   -0.6413 O   0  0  0  0  0  0  0  0  0  0  0  0
   -4.3992   -0.6601    0.1539 C   0  0  0  0  0  0  0  0  0  0  0  0
   -5.3463   -1.1866    0.0347 H   0  0  0  0  0  0  0  0  0  0  0  0
   -4.5109    0.3732   -0.1943 H   0  0  0  0  0  0  0  0  0  0  0  0
   -4.1112   -0.6621    1.2116 H   0  0  0  0  0  0  0  0  0  0  0  0
  1  6  1  0  0  0  0
  2  1  2  0  0  0  0
  2  3  1  0  0  0  0
  3  4  2  0  0  0  0
  4  5  1  0  0  0  0
  4  9  1  0  0  0  0
  5 10  1  0  0  0  0
  6 14  1  0  0  0  0
  6  5  2  0  0  0  0
  7  1  1  0  0  0  0
  8  2  1  0  0  0  0
 11  3  1  0  0  0  0
 11 12  2  0  0  0  0
 12 13  1  0  0  0  0
 14 15  1  0  0  0  0
 15 18  1  0  0  0  0
 16 15  1  0  0  0  0
 17 15  1  0  0  0  0
M  END
