Coordinates from ORCA-job 4-MeO-Ph-N2-Cl-B3LYPG-6-31G_dp-MTMO-d009-169-n800
 OpenBabel09051908443D

 18 16  0  0  0  0  0  0  0  0999 V2000
   -0.7807   -1.0124   -1.0306 C   0  0  0  0  0  0  0  0  0  0  0  0
    0.4187   -0.3230   -0.7966 C   0  0  0  0  0  0  0  0  0  0  0  0
    0.1473    0.7337    0.0438 C   0  0  0  0  0  0  0  0  0  0  0  0
   -0.8949    1.1597    0.5961 C   0  0  0  0  0  0  0  0  0  0  0  0
   -2.1212    0.5115    0.3986 C   0  0  0  0  0  0  0  0  0  0  0  0
   -2.0176   -0.6129   -0.4544 C   0  0  0  0  0  0  0  0  0  0  0  0
   -0.7853   -1.8886   -1.6716 H   0  0  0  0  0  0  0  0  0  0  0  0
    1.3680   -0.6142   -1.2281 H   0  0  0  0  0  0  0  0  0  0  0  0
   -0.9927    2.6771    1.7632 H   0  0  0  0  0  0  0  0  0  0  0  0
   -3.0560    0.8262    0.8441 H   0  0  0  0  0  0  0  0  0  0  0  0
    3.7585   -2.7056   -3.6511 N   0  0  0  0  0  0  0  0  0  0  0  0
    4.4670   -3.1942   -4.3445 N   0  0  0  0  0  0  0  0  0  0  0  0
   -1.2656    3.6760    2.5838 Cl  0  0  0  0  0  0  0  0  0  0  0  0
   -3.0751   -1.4016   -0.7953 O   0  0  0  0  0  0  0  0  0  0  0  0
   -4.3537   -1.0829   -0.2632 C   0  0  0  0  0  0  0  0  0  0  0  0
   -5.0391   -1.8314   -0.6624 H   0  0  0  0  0  0  0  0  0  0  0  0
   -4.6837   -0.0852   -0.5787 H   0  0  0  0  0  0  0  0  0  0  0  0
   -4.3575   -1.1348    0.8329 H   0  0  0  0  0  0  0  0  0  0  0  0
  1  2  2  0  0  0  0
  1  6  1  0  0  0  0
  2  3  1  0  0  0  0
  3  4  2  0  0  0  0
  5  4  1  0  0  0  0
  5 10  1  0  0  0  0
  6  5  2  0  0  0  0
  7  1  1  0  0  0  0
  8  2  1  0  0  0  0
  9 13  1  0  0  0  0
 12 11  3  0  0  0  0
 14  6  1  0  0  0  0
 14 15  1  0  0  0  0
 15 18  1  0  0  0  0
 16 15  1  0  0  0  0
 17 15  1  0  0  0  0
M  RAD  2   3   2   4   2
M  END
