Coordinates from ORCA-job 4-MeO-Ph-N2-Cl-B3LYPG-6-31G_dp-MTMO-d009-169-n800
 OpenBabel09051908443D

 18 16  0  0  0  0  0  0  0  0999 V2000
   -0.6418   -0.6344   -0.7233 C   0  0  0  0  0  0  0  0  0  0  0  0
    0.4283    0.1808   -0.3258 C   0  0  0  0  0  0  0  0  0  0  0  0
   -0.0632    1.1590    0.5104 C   0  0  0  0  0  0  0  0  0  0  0  0
   -1.2079    1.4310    0.9441 C   0  0  0  0  0  0  0  0  0  0  0  0
   -2.3150    0.6529    0.5829 C   0  0  0  0  0  0  0  0  0  0  0  0
   -1.9765   -0.4115   -0.2867 C   0  0  0  0  0  0  0  0  0  0  0  0
   -0.4649   -1.4743   -1.3883 H   0  0  0  0  0  0  0  0  0  0  0  0
    1.4498    0.0249   -0.6493 H   0  0  0  0  0  0  0  0  0  0  0  0
   -1.6391    2.8994    2.1079 H   0  0  0  0  0  0  0  0  0  0  0  0
   -3.3263    0.8345    0.9235 H   0  0  0  0  0  0  0  0  0  0  0  0
    4.4987   -4.1803   -5.0701 N   0  0  0  0  0  0  0  0  0  0  0  0
    5.0666   -4.7340   -5.8399 N   0  0  0  0  0  0  0  0  0  0  0  0
   -2.1409    3.8358    2.8921 Cl  0  0  0  0  0  0  0  0  0  0  0  0
   -2.8825   -1.3036   -0.7760 O   0  0  0  0  0  0  0  0  0  0  0  0
   -4.2438   -1.1605   -0.3940 C   0  0  0  0  0  0  0  0  0  0  0  0
   -4.7818   -1.9654   -0.8960 H   0  0  0  0  0  0  0  0  0  0  0  0
   -4.6531   -0.1950   -0.7167 H   0  0  0  0  0  0  0  0  0  0  0  0
   -4.3702   -1.2619    0.6913 H   0  0  0  0  0  0  0  0  0  0  0  0
  1  2  2  0  0  0  0
  1  6  1  0  0  0  0
  2  3  1  0  0  0  0
  3  4  2  0  0  0  0
  5 10  1  0  0  0  0
  5  4  1  0  0  0  0
  6  5  2  0  0  0  0
  7  1  1  0  0  0  0
  8  2  1  0  0  0  0
  9 13  1  0  0  0  0
 12 11  3  0  0  0  0
 14 15  1  0  0  0  0
 14  6  1  0  0  0  0
 15 18  1  0  0  0  0
 16 15  1  0  0  0  0
 17 15  1  0  0  0  0
M  RAD  2   3   2   4   2
M  END
