Coordinates from ORCA-job 4-MeO-Ph-N2-Cl-B3LYPG-6-31G_dp-MTMO-d009-169-n800
 OpenBabel09051908453D

 18 16  0  0  0  0  0  0  0  0999 V2000
   -1.1449    0.7656   -0.7833 C   0  0  0  0  0  0  0  0  0  0  0  0
   -0.2505    1.6987   -0.2377 C   0  0  0  0  0  0  0  0  0  0  0  0
   -0.7721    2.1456    0.9559 C   0  0  0  0  0  0  0  0  0  0  0  0
   -1.8212    1.8904    1.5937 C   0  0  0  0  0  0  0  0  0  0  0  0
   -2.7513    0.9672    1.0984 C   0  0  0  0  0  0  0  0  0  0  0  0
   -2.3607    0.4051   -0.1403 C   0  0  0  0  0  0  0  0  0  0  0  0
   -0.9189    0.2902   -1.7325 H   0  0  0  0  0  0  0  0  0  0  0  0
    0.6793    1.9840   -0.7129 H   0  0  0  0  0  0  0  0  0  0  0  0
   -2.3228    2.6827    3.2713 H   0  0  0  0  0  0  0  0  0  0  0  0
   -3.6743    0.7028    1.5978 H   0  0  0  0  0  0  0  0  0  0  0  0
    7.8872   -8.6669   -8.0442 N   0  0  0  0  0  0  0  0  0  0  0  0
    8.4208   -9.6095   -8.2639 N   0  0  0  0  0  0  0  0  0  0  0  0
   -2.8423    3.1067    4.4092 Cl  0  0  0  0  0  0  0  0  0  0  0  0
   -3.1011   -0.5160   -0.8182 O   0  0  0  0  0  0  0  0  0  0  0  0
   -4.3314   -0.9440   -0.2495 C   0  0  0  0  0  0  0  0  0  0  0  0
   -4.7466   -1.6717   -0.9482 H   0  0  0  0  0  0  0  0  0  0  0  0
   -5.0340   -0.1090   -0.1349 H   0  0  0  0  0  0  0  0  0  0  0  0
   -4.1788   -1.4245    0.7252 H   0  0  0  0  0  0  0  0  0  0  0  0
  1  2  2  0  0  0  0
  1  6  1  0  0  0  0
  2  3  1  0  0  0  0
  3  4  2  0  0  0  0
  5  4  1  0  0  0  0
  5 10  1  0  0  0  0
  6  5  2  0  0  0  0
  7  1  1  0  0  0  0
  8  2  1  0  0  0  0
  9 13  1  0  0  0  0
 12 11  3  0  0  0  0
 14 15  1  0  0  0  0
 14  6  1  0  0  0  0
 15 17  1  0  0  0  0
 15 18  1  0  0  0  0
 16 15  1  0  0  0  0
M  RAD  2   3   2   4   2
M  END
