Coordinates from ORCA-job 4-MeO-Ph-N2-Cl-B3LYPG-6-31G_dp-MTMO-d009-169-n800
 OpenBabel09051908443D

 18 17  0  0  0  0  0  0  0  0999 V2000
   -1.3260   -1.7254   -1.4871 C   0  0  0  0  0  0  0  0  0  0  0  0
    0.0116   -1.3821   -1.5959 C   0  0  0  0  0  0  0  0  0  0  0  0
    0.4592   -0.2691   -0.8885 C   0  0  0  0  0  0  0  0  0  0  0  0
   -0.3511    0.5178   -0.0842 C   0  0  0  0  0  0  0  0  0  0  0  0
   -1.6966    0.1611    0.0153 C   0  0  0  0  0  0  0  0  0  0  0  0
   -2.1876   -0.9563   -0.6806 C   0  0  0  0  0  0  0  0  0  0  0  0
   -1.7334   -2.5824   -2.0116 H   0  0  0  0  0  0  0  0  0  0  0  0
    0.6976   -1.9557   -2.2084 H   0  0  0  0  0  0  0  0  0  0  0  0
    0.0601    1.3727    0.4395 H   0  0  0  0  0  0  0  0  0  0  0  0
   -2.3491    0.7628    0.6358 H   0  0  0  0  0  0  0  0  0  0  0  0
    1.9980    0.0432   -1.0719 N   0  0  0  0  0  0  0  0  0  0  0  0
    2.7975    0.8055   -0.7116 N   0  0  0  0  0  0  0  0  0  0  0  0
    2.2321    2.4086    0.6558 Cl  0  0  0  0  0  0  0  0  0  0  0  0
   -3.4729   -1.3773   -0.6423 O   0  0  0  0  0  0  0  0  0  0  0  0
   -4.4085   -0.6590    0.1564 C   0  0  0  0  0  0  0  0  0  0  0  0
   -5.3593   -1.1794    0.0395 H   0  0  0  0  0  0  0  0  0  0  0  0
   -4.5168    0.3764   -0.1881 H   0  0  0  0  0  0  0  0  0  0  0  0
   -4.1184   -0.6641    1.2139 H   0  0  0  0  0  0  0  0  0  0  0  0
  1  6  1  0  0  0  0
  2  1  2  0  0  0  0
  2  3  1  0  0  0  0
  3  4  2  0  0  0  0
  4  5  1  0  0  0  0
  4  9  1  0  0  0  0
  5 10  1  0  0  0  0
  6 14  1  0  0  0  0
  6  5  2  0  0  0  0
  7  1  1  0  0  0  0
  8  2  1  0  0  0  0
 11  3  1  0  0  0  0
 11 12  2  0  0  0  0
 14 15  1  0  0  0  0
 15 18  1  0  0  0  0
 16 15  1  0  0  0  0
 17 15  1  0  0  0  0
M  RAD  2  12   2  13   2
M  END
