Coordinates from ORCA-job 4-MeO-Ph-N2-Cl-B3LYPG-6-31G_dp-MTMO-d009-169-n800
 OpenBabel09051908443D

 18 16  0  0  0  0  0  0  0  0999 V2000
   -1.4272   -1.7867   -1.5105 C   0  0  0  0  0  0  0  0  0  0  0  0
   -0.0613   -1.5331   -1.7062 C   0  0  0  0  0  0  0  0  0  0  0  0
    0.2686   -0.4185   -0.9744 C   0  0  0  0  0  0  0  0  0  0  0  0
   -0.3539    0.3693   -0.2185 C   0  0  0  0  0  0  0  0  0  0  0  0
   -1.7238    0.1543    0.0053 C   0  0  0  0  0  0  0  0  0  0  0  0
   -2.2415   -0.9699   -0.6791 C   0  0  0  0  0  0  0  0  0  0  0  0
   -1.8977   -2.6325   -2.0021 H   0  0  0  0  0  0  0  0  0  0  0  0
    0.5819   -2.1377   -2.3326 H   0  0  0  0  0  0  0  0  0  0  0  0
    0.3584    1.8260    0.6863 H   0  0  0  0  0  0  0  0  0  0  0  0
   -2.3353    0.7854    0.6383 H   0  0  0  0  0  0  0  0  0  0  0  0
    3.0124   -0.1050   -1.4503 N   0  0  0  0  0  0  0  0  0  0  0  0
    3.8410    0.5402   -1.1055 N   0  0  0  0  0  0  0  0  0  0  0  0
    0.7266    2.8909    1.3933 Cl  0  0  0  0  0  0  0  0  0  0  0  0
   -3.5426   -1.3668   -0.6066 O   0  0  0  0  0  0  0  0  0  0  0  0
   -4.4322   -0.6156    0.2078 C   0  0  0  0  0  0  0  0  0  0  0  0
   -5.4018   -1.1084    0.1257 H   0  0  0  0  0  0  0  0  0  0  0  0
   -4.5219    0.4203   -0.1428 H   0  0  0  0  0  0  0  0  0  0  0  0
   -4.1133   -0.6149    1.2579 H   0  0  0  0  0  0  0  0  0  0  0  0
  1  6  1  0  0  0  0
  2  1  2  0  0  0  0
  2  3  1  0  0  0  0
  3  4  2  0  0  0  0
  4  5  1  0  0  0  0
  5 10  1  0  0  0  0
  6 14  1  0  0  0  0
  6  5  2  0  0  0  0
  7  1  1  0  0  0  0
  8  2  1  0  0  0  0
  9 13  1  0  0  0  0
 11 12  3  0  0  0  0
 14 15  1  0  0  0  0
 15 18  1  0  0  0  0
 16 15  1  0  0  0  0
 17 15  1  0  0  0  0
M  RAD  2   3   2   4   2
M  END
