Coordinates from ORCA-job 4-MeO-Ph-N2-Cl-B3LYPG-6-31G_dp-MTMO-d009-169-n800
 OpenBabel09051908443D

 18 16  0  0  0  0  0  0  0  0999 V2000
   -0.7041   -0.8291   -0.8699 C   0  0  0  0  0  0  0  0  0  0  0  0
    0.4334   -0.0721   -0.5521 C   0  0  0  0  0  0  0  0  0  0  0  0
    0.0479    0.9523    0.2842 C   0  0  0  0  0  0  0  0  0  0  0  0
   -1.0516    1.3029    0.7746 C   0  0  0  0  0  0  0  0  0  0  0  0
   -2.2214    0.5854    0.4934 C   0  0  0  0  0  0  0  0  0  0  0  0
   -1.9964   -0.5157   -0.3667 C   0  0  0  0  0  0  0  0  0  0  0  0
   -0.6151   -1.6926   -1.5219 H   0  0  0  0  0  0  0  0  0  0  0  0
    1.4238   -0.2971   -0.9269 H   0  0  0  0  0  0  0  0  0  0  0  0
   -1.3202    2.8050    1.9415 H   0  0  0  0  0  0  0  0  0  0  0  0
   -3.1992    0.8346    0.8849 H   0  0  0  0  0  0  0  0  0  0  0  0
    4.1532   -3.4564   -4.3631 N   0  0  0  0  0  0  0  0  0  0  0  0
    4.7591   -3.9665   -5.1340 N   0  0  0  0  0  0  0  0  0  0  0  0
   -1.7107    3.7787    2.7438 Cl  0  0  0  0  0  0  0  0  0  0  0  0
   -2.9801   -1.3613   -0.7833 O   0  0  0  0  0  0  0  0  0  0  0  0
   -4.3075   -1.1256   -0.3335 C   0  0  0  0  0  0  0  0  0  0  0  0
   -4.9197   -1.9071   -0.7849 H   0  0  0  0  0  0  0  0  0  0  0  0
   -4.6745   -0.1445   -0.6596 H   0  0  0  0  0  0  0  0  0  0  0  0
   -4.3802   -1.1936    0.7593 H   0  0  0  0  0  0  0  0  0  0  0  0
  1  2  2  0  0  0  0
  1  6  1  0  0  0  0
  2  3  1  0  0  0  0
  3  4  2  0  0  0  0
  5  4  1  0  0  0  0
  5 10  1  0  0  0  0
  6  5  2  0  0  0  0
  7  1  1  0  0  0  0
  8  2  1  0  0  0  0
  9 13  1  0  0  0  0
 12 11  3  0  0  0  0
 14  6  1  0  0  0  0
 14 15  1  0  0  0  0
 15 18  1  0  0  0  0
 16 15  1  0  0  0  0
 17 15  1  0  0  0  0
M  RAD  2   3   2   4   2
M  END
