Coordinates from ORCA-job 4-MeO-Ph-N2-Cl-B3LYPG-6-31G_dp-MTMO-d009-169-n800
 OpenBabel09051908443D

 18 16  0  0  0  0  0  0  0  0999 V2000
   -0.6520   -0.6859   -0.7532 C   0  0  0  0  0  0  0  0  0  0  0  0
    0.4346    0.1161   -0.3735 C   0  0  0  0  0  0  0  0  0  0  0  0
   -0.0334    1.1084    0.4598 C   0  0  0  0  0  0  0  0  0  0  0  0
   -1.1691    1.4010    0.9034 C   0  0  0  0  0  0  0  0  0  0  0  0
   -2.2915    0.6368    0.5601 C   0  0  0  0  0  0  0  0  0  0  0  0
   -1.9783   -0.4393   -0.3044 C   0  0  0  0  0  0  0  0  0  0  0  0
   -0.4947   -1.5337   -1.4129 H   0  0  0  0  0  0  0  0  0  0  0  0
    1.4500   -0.0579   -0.7062 H   0  0  0  0  0  0  0  0  0  0  0  0
   -1.5644    2.8818    2.0641 H   0  0  0  0  0  0  0  0  0  0  0  0
   -3.2963    0.8362    0.9100 H   0  0  0  0  0  0  0  0  0  0  0  0
    4.4020   -3.9995   -4.8981 N   0  0  0  0  0  0  0  0  0  0  0  0
    4.9765   -4.5387   -5.6733 N   0  0  0  0  0  0  0  0  0  0  0  0
   -2.0421    3.8301    2.8491 Cl  0  0  0  0  0  0  0  0  0  0  0  0
   -2.9029   -1.3213   -0.7771 O   0  0  0  0  0  0  0  0  0  0  0  0
   -4.2580   -1.1538   -0.3831 C   0  0  0  0  0  0  0  0  0  0  0  0
   -4.8134   -1.9543   -0.8730 H   0  0  0  0  0  0  0  0  0  0  0  0
   -4.6554   -0.1848   -0.7099 H   0  0  0  0  0  0  0  0  0  0  0  0
   -4.3752   -1.2442    0.7042 H   0  0  0  0  0  0  0  0  0  0  0  0
  1  2  2  0  0  0  0
  1  6  1  0  0  0  0
  2  3  1  0  0  0  0
  3  4  2  0  0  0  0
  5  4  1  0  0  0  0
  5 10  1  0  0  0  0
  6  5  2  0  0  0  0
  7  1  1  0  0  0  0
  8  2  1  0  0  0  0
  9 13  1  0  0  0  0
 12 11  3  0  0  0  0
 14 15  1  0  0  0  0
 14  6  1  0  0  0  0
 15 18  1  0  0  0  0
 16 15  1  0  0  0  0
 17 15  1  0  0  0  0
M  RAD  2   3   2   4   2
M  END
