Coordinates from ORCA-job 4-MeO-Ph-N2-Cl-B3LYPG-6-31G_dp-MTMO-d009-169-n800
 OpenBabel09051908443D

 18 16  0  0  0  0  0  0  0  0999 V2000
   -1.3216   -1.6022   -1.4241 C   0  0  0  0  0  0  0  0  0  0  0  0
    0.0196   -1.2089   -1.5467 C   0  0  0  0  0  0  0  0  0  0  0  0
    0.2039   -0.0806   -0.7800 C   0  0  0  0  0  0  0  0  0  0  0  0
   -0.5440    0.6099   -0.0469 C   0  0  0  0  0  0  0  0  0  0  0  0
   -1.8930    0.2628    0.1107 C   0  0  0  0  0  0  0  0  0  0  0  0
   -2.2562   -0.8920   -0.6216 C   0  0  0  0  0  0  0  0  0  0  0  0
   -1.6791   -2.4803   -1.9529 H   0  0  0  0  0  0  0  0  0  0  0  0
    0.7498   -1.7335   -2.1492 H   0  0  0  0  0  0  0  0  0  0  0  0
   -0.0091    2.1378    0.9620 H   0  0  0  0  0  0  0  0  0  0  0  0
   -2.5950    0.8117    0.7255 H   0  0  0  0  0  0  0  0  0  0  0  0
    3.6201   -0.7973   -2.0176 N   0  0  0  0  0  0  0  0  0  0  0  0
    4.6717   -0.4646   -1.9491 N   0  0  0  0  0  0  0  0  0  0  0  0
    0.1702    3.2016    1.7274 Cl  0  0  0  0  0  0  0  0  0  0  0  0
   -3.5122   -1.4201   -0.6242 O   0  0  0  0  0  0  0  0  0  0  0  0
   -4.5162   -0.7759    0.1479 C   0  0  0  0  0  0  0  0  0  0  0  0
   -5.4259   -1.3600    0.0035 H   0  0  0  0  0  0  0  0  0  0  0  0
   -4.6885    0.2527   -0.1935 H   0  0  0  0  0  0  0  0  0  0  0  0
   -4.2581   -0.7637    1.2146 H   0  0  0  0  0  0  0  0  0  0  0  0
  1  6  1  0  0  0  0
  2  1  2  0  0  0  0
  2  3  1  0  0  0  0
  3  4  2  0  0  0  0
  4  5  1  0  0  0  0
  5 10  1  0  0  0  0
  6  5  2  0  0  0  0
  7  1  1  0  0  0  0
  8  2  1  0  0  0  0
  9 13  1  0  0  0  0
 11 12  3  0  0  0  0
 14  6  1  0  0  0  0
 14 15  1  0  0  0  0
 15 18  1  0  0  0  0
 16 15  1  0  0  0  0
 17 15  1  0  0  0  0
M  RAD  2   3   2   4   2
M  END
