Coordinates from ORCA-job 4-MeO-Ph-N2-Cl-B3LYPG-6-31G_dp-MTMO-d009-169-n800
 OpenBabel09051908443D

 18 16  0  0  0  0  0  0  0  0999 V2000
   -1.4227   -1.7361   -1.4725 C   0  0  0  0  0  0  0  0  0  0  0  0
   -0.0615   -1.4409   -1.6402 C   0  0  0  0  0  0  0  0  0  0  0  0
    0.2244   -0.3189   -0.8972 C   0  0  0  0  0  0  0  0  0  0  0  0
   -0.4474    0.4354   -0.1531 C   0  0  0  0  0  0  0  0  0  0  0  0
   -1.8128    0.1864    0.0481 C   0  0  0  0  0  0  0  0  0  0  0  0
   -2.2795   -0.9500   -0.6540 C   0  0  0  0  0  0  0  0  0  0  0  0
   -1.8578   -2.5931   -1.9771 H   0  0  0  0  0  0  0  0  0  0  0  0
    0.6098   -2.0244   -2.2571 H   0  0  0  0  0  0  0  0  0  0  0  0
    0.2298    1.9371    0.7972 H   0  0  0  0  0  0  0  0  0  0  0  0
   -2.4557    0.7940    0.6725 H   0  0  0  0  0  0  0  0  0  0  0  0
    3.4346   -0.2896   -1.6741 N   0  0  0  0  0  0  0  0  0  0  0  0
    4.3849    0.2381   -1.4744 N   0  0  0  0  0  0  0  0  0  0  0  0
    0.5246    3.0024    1.5251 Cl  0  0  0  0  0  0  0  0  0  0  0  0
   -3.5690   -1.3876   -0.6106 O   0  0  0  0  0  0  0  0  0  0  0  0
   -4.4988   -0.6683    0.1874 C   0  0  0  0  0  0  0  0  0  0  0  0
   -5.4505   -1.1907    0.0825 H   0  0  0  0  0  0  0  0  0  0  0  0
   -4.6134    0.3659   -0.1610 H   0  0  0  0  0  0  0  0  0  0  0  0
   -4.2026   -0.6624    1.2442 H   0  0  0  0  0  0  0  0  0  0  0  0
  1  6  1  0  0  0  0
  2  1  2  0  0  0  0
  2  3  1  0  0  0  0
  3  4  2  0  0  0  0
  4  5  1  0  0  0  0
  5 10  1  0  0  0  0
  6 14  1  0  0  0  0
  6  5  2  0  0  0  0
  7  1  1  0  0  0  0
  8  2  1  0  0  0  0
  9 13  1  0  0  0  0
 11 12  3  0  0  0  0
 14 15  1  0  0  0  0
 15 18  1  0  0  0  0
 16 15  1  0  0  0  0
 17 15  1  0  0  0  0
M  RAD  2   3   2   4   2
M  END
