Coordinates from ORCA-job 4-MeO-Ph-N2-Cl-B3LYPG-6-31G_dp-MTMO-d009-169-n800
 OpenBabel09051908443D

 18 16  0  0  0  0  0  0  0  0999 V2000
   -1.3230   -1.6082   -1.4256 C   0  0  0  0  0  0  0  0  0  0  0  0
    0.0193   -1.2194   -1.5492 C   0  0  0  0  0  0  0  0  0  0  0  0
    0.2079   -0.0910   -0.7836 C   0  0  0  0  0  0  0  0  0  0  0  0
   -0.5380    0.6012   -0.0502 C   0  0  0  0  0  0  0  0  0  0  0  0
   -1.8881    0.2594    0.1086 C   0  0  0  0  0  0  0  0  0  0  0  0
   -2.2552   -0.8948   -0.6231 C   0  0  0  0  0  0  0  0  0  0  0  0
   -1.6841   -2.4851   -1.9539 H   0  0  0  0  0  0  0  0  0  0  0  0
    0.7473   -1.7463   -2.1521 H   0  0  0  0  0  0  0  0  0  0  0  0
    0.0046    2.1310    0.9568 H   0  0  0  0  0  0  0  0  0  0  0  0
   -2.5880    0.8110    0.7234 H   0  0  0  0  0  0  0  0  0  0  0  0
    3.5949   -0.7755   -2.0002 N   0  0  0  0  0  0  0  0  0  0  0  0
    4.6436   -0.4339   -1.9309 N   0  0  0  0  0  0  0  0  0  0  0  0
    0.1876    3.1952    1.7200 Cl  0  0  0  0  0  0  0  0  0  0  0  0
   -3.5128   -1.4192   -0.6249 O   0  0  0  0  0  0  0  0  0  0  0  0
   -4.5144   -0.7716    0.1474 C   0  0  0  0  0  0  0  0  0  0  0  0
   -5.4259   -1.3531    0.0041 H   0  0  0  0  0  0  0  0  0  0  0  0
   -4.6839    0.2572   -0.1945 H   0  0  0  0  0  0  0  0  0  0  0  0
   -4.2555   -0.7595    1.2139 H   0  0  0  0  0  0  0  0  0  0  0  0
  1  6  1  0  0  0  0
  2  1  2  0  0  0  0
  2  3  1  0  0  0  0
  3  4  2  0  0  0  0
  4  5  1  0  0  0  0
  5 10  1  0  0  0  0
  6  5  2  0  0  0  0
  7  1  1  0  0  0  0
  8  2  1  0  0  0  0
  9 13  1  0  0  0  0
 11 12  3  0  0  0  0
 14  6  1  0  0  0  0
 14 15  1  0  0  0  0
 15 18  1  0  0  0  0
 16 15  1  0  0  0  0
 17 15  1  0  0  0  0
M  RAD  2   3   2   4   2
M  END
