Coordinates from ORCA-job 4-MeO-Ph-N2-Cl-B3LYPG-6-31G_dp-MTMO-d009-169-n800
 OpenBabel09051908443D

 18 16  0  0  0  0  0  0  0  0999 V2000
   -1.3757   -1.7684   -1.5040 C   0  0  0  0  0  0  0  0  0  0  0  0
   -0.0210   -1.4654   -1.6490 C   0  0  0  0  0  0  0  0  0  0  0  0
    0.3617   -0.3622   -0.9340 C   0  0  0  0  0  0  0  0  0  0  0  0
   -0.3281    0.4767   -0.1249 C   0  0  0  0  0  0  0  0  0  0  0  0
   -1.6893    0.1411   -0.0041 C   0  0  0  0  0  0  0  0  0  0  0  0
   -2.2065   -0.9725   -0.6875 C   0  0  0  0  0  0  0  0  0  0  0  0
   -1.8093   -2.6207   -2.0158 H   0  0  0  0  0  0  0  0  0  0  0  0
    0.6519   -2.0487   -2.2643 H   0  0  0  0  0  0  0  0  0  0  0  0
    0.1495    1.3250    0.3760 H   0  0  0  0  0  0  0  0  0  0  0  0
   -2.3179    0.7617    0.6225 H   0  0  0  0  0  0  0  0  0  0  0  0
    2.2799    0.1018   -1.1100 N   0  0  0  0  0  0  0  0  0  0  0  0
    2.9171    0.9253   -0.6578 N   0  0  0  0  0  0  0  0  0  0  0  0
    2.0075    2.5609    0.8448 Cl  0  0  0  0  0  0  0  0  0  0  0  0
   -3.5005   -1.3710   -0.6289 O   0  0  0  0  0  0  0  0  0  0  0  0
   -4.4083   -0.6290    0.1794 C   0  0  0  0  0  0  0  0  0  0  0  0
   -5.3715   -1.1301    0.0807 H   0  0  0  0  0  0  0  0  0  0  0  0
   -4.5009    0.4065   -0.1698 H   0  0  0  0  0  0  0  0  0  0  0  0
   -4.1022   -0.6337    1.2326 H   0  0  0  0  0  0  0  0  0  0  0  0
  1  6  1  0  0  0  0
  2  1  2  0  0  0  0
  2  3  1  0  0  0  0
  3  4  2  0  0  0  0
  4  5  1  0  0  0  0
  4  9  1  0  0  0  0
  5 10  1  0  0  0  0
  6 14  1  0  0  0  0
  6  5  2  0  0  0  0
  7  1  1  0  0  0  0
  8  2  1  0  0  0  0
 11 12  3  0  0  0  0
 14 15  1  0  0  0  0
 15 18  1  0  0  0  0
 16 15  1  0  0  0  0
 17 15  1  0  0  0  0
M  RAD  2   3   2  13   2
M  END
