Coordinates from ORCA-job 4-MeO-Ph-N2-Cl-B3LYPG-6-31G_dp-MTMO-d009-169-n800
 OpenBabel09051908443D

 18 16  0  0  0  0  0  0  0  0999 V2000
   -0.8911   -1.2407   -1.0886 C   0  0  0  0  0  0  0  0  0  0  0  0
    0.3684   -0.6419   -0.9321 C   0  0  0  0  0  0  0  0  0  0  0  0
    0.2138    0.4679   -0.1318 C   0  0  0  0  0  0  0  0  0  0  0  0
   -0.7656    1.0035    0.4404 C   0  0  0  0  0  0  0  0  0  0  0  0
   -2.0464    0.4476    0.3168 C   0  0  0  0  0  0  0  0  0  0  0  0
   -2.0676   -0.7174   -0.4861 C   0  0  0  0  0  0  0  0  0  0  0  0
   -0.9915   -2.1402   -1.6880 H   0  0  0  0  0  0  0  0  0  0  0  0
    1.2729   -1.0272   -1.3858 H   0  0  0  0  0  0  0  0  0  0  0  0
   -0.7027    2.5606    1.5405 H   0  0  0  0  0  0  0  0  0  0  0  0
   -2.9347    0.8563    0.7808 H   0  0  0  0  0  0  0  0  0  0  0  0
    3.5823   -2.0638   -3.1878 N   0  0  0  0  0  0  0  0  0  0  0  0
    4.4436   -2.3480   -3.8193 N   0  0  0  0  0  0  0  0  0  0  0  0
   -0.8645    3.6106    2.3282 Cl  0  0  0  0  0  0  0  0  0  0  0  0
   -3.1977   -1.4315   -0.7503 O   0  0  0  0  0  0  0  0  0  0  0  0
   -4.4247   -0.9841   -0.1895 C   0  0  0  0  0  0  0  0  0  0  0  0
   -5.1839   -1.6892   -0.5299 H   0  0  0  0  0  0  0  0  0  0  0  0
   -4.6836    0.0230   -0.5392 H   0  0  0  0  0  0  0  0  0  0  0  0
   -4.3907   -0.9882    0.9074 H   0  0  0  0  0  0  0  0  0  0  0  0
  1  2  2  0  0  0  0
  1  6  1  0  0  0  0
  2  3  1  0  0  0  0
  3  4  2  0  0  0  0
  5  4  1  0  0  0  0
  5 10  1  0  0  0  0
  6  5  2  0  0  0  0
  7  1  1  0  0  0  0
  8  2  1  0  0  0  0
  9 13  1  0  0  0  0
 12 11  3  0  0  0  0
 14  6  1  0  0  0  0
 14 15  1  0  0  0  0
 15 18  1  0  0  0  0
 16 15  1  0  0  0  0
 17 15  1  0  0  0  0
M  RAD  2   3   2   4   2
M  END
