Coordinates from ORCA-job 4-MeO-Ph-N2-Cl-B3LYPG-6-31G_dp-MTMO-d009-169-n800
 OpenBabel09051908443D

 18 16  0  0  0  0  0  0  0  0999 V2000
   -1.4019   -1.8007   -1.5248 C   0  0  0  0  0  0  0  0  0  0  0  0
   -0.0339   -1.5618   -1.7219 C   0  0  0  0  0  0  0  0  0  0  0  0
    0.3116   -0.4608   -0.9967 C   0  0  0  0  0  0  0  0  0  0  0  0
   -0.2447    0.3944   -0.2084 C   0  0  0  0  0  0  0  0  0  0  0  0
   -1.6259    0.1387   -0.0224 C   0  0  0  0  0  0  0  0  0  0  0  0
   -2.1876   -0.9665   -0.6893 C   0  0  0  0  0  0  0  0  0  0  0  0
   -1.8818   -2.6405   -2.0171 H   0  0  0  0  0  0  0  0  0  0  0  0
    0.6047   -2.1701   -2.3488 H   0  0  0  0  0  0  0  0  0  0  0  0
    0.2791    1.3814    0.3886 H   0  0  0  0  0  0  0  0  0  0  0  0
   -2.2056    0.7929    0.6186 H   0  0  0  0  0  0  0  0  0  0  0  0
    2.5832    0.0678   -1.2078 N   0  0  0  0  0  0  0  0  0  0  0  0
    3.2569    0.8417   -0.7931 N   0  0  0  0  0  0  0  0  0  0  0  0
    0.9074    2.6495    1.1835 Cl  0  0  0  0  0  0  0  0  0  0  0  0
   -3.4928   -1.3279   -0.5990 O   0  0  0  0  0  0  0  0  0  0  0  0
   -4.3546   -0.5502    0.2260 C   0  0  0  0  0  0  0  0  0  0  0  0
   -5.3363   -1.0192    0.1557 H   0  0  0  0  0  0  0  0  0  0  0  0
   -4.4201    0.4856   -0.1283 H   0  0  0  0  0  0  0  0  0  0  0  0
   -4.0214   -0.5569    1.2710 H   0  0  0  0  0  0  0  0  0  0  0  0
  1  6  1  0  0  0  0
  2  1  2  0  0  0  0
  2  3  1  0  0  0  0
  3  4  2  0  0  0  0
  4  5  1  0  0  0  0
  4  9  1  0  0  0  0
  5 10  1  0  0  0  0
  6 14  1  0  0  0  0
  6  5  2  0  0  0  0
  7  1  1  0  0  0  0
  8  2  1  0  0  0  0
 11 12  3  0  0  0  0
 14 15  1  0  0  0  0
 15 18  1  0  0  0  0
 16 15  1  0  0  0  0
 17 15  1  0  0  0  0
M  RAD  2   3   2  13   2
M  END
