Coordinates from ORCA-job 4-MeO-Ph-N2-Cl-B3LYPG-6-31G_dp-MTMO-d009-169-n800
 OpenBabel09051908443D

 18 16  0  0  0  0  0  0  0  0999 V2000
   -1.3791   -1.7726   -1.5068 C   0  0  0  0  0  0  0  0  0  0  0  0
   -0.0232   -1.4747   -1.6557 C   0  0  0  0  0  0  0  0  0  0  0  0
    0.3578   -0.3724   -0.9403 C   0  0  0  0  0  0  0  0  0  0  0  0
   -0.3217    0.4704   -0.1307 C   0  0  0  0  0  0  0  0  0  0  0  0
   -1.6843    0.1389   -0.0066 C   0  0  0  0  0  0  0  0  0  0  0  0
   -2.2058   -0.9737   -0.6887 C   0  0  0  0  0  0  0  0  0  0  0  0
   -1.8163   -2.6239   -2.0174 H   0  0  0  0  0  0  0  0  0  0  0  0
    0.6472   -2.0600   -2.2719 H   0  0  0  0  0  0  0  0  0  0  0  0
    0.1623    1.3188    0.3687 H   0  0  0  0  0  0  0  0  0  0  0  0
   -2.3095    0.7620    0.6211 H   0  0  0  0  0  0  0  0  0  0  0  0
    2.2939    0.1060   -1.1091 N   0  0  0  0  0  0  0  0  0  0  0  0
    2.9166    0.9341   -0.6501 N   0  0  0  0  0  0  0  0  0  0  0  0
    1.9650    2.5757    0.8640 Cl  0  0  0  0  0  0  0  0  0  0  0  0
   -3.5008   -1.3686   -0.6274 O   0  0  0  0  0  0  0  0  0  0  0  0
   -4.4048   -0.6236    0.1826 C   0  0  0  0  0  0  0  0  0  0  0  0
   -5.3696   -1.1219    0.0860 H   0  0  0  0  0  0  0  0  0  0  0  0
   -4.4949    0.4121   -0.1667 H   0  0  0  0  0  0  0  0  0  0  0  0
   -4.0964   -0.6290    1.2351 H   0  0  0  0  0  0  0  0  0  0  0  0
  1  6  1  0  0  0  0
  2  1  2  0  0  0  0
  2  3  1  0  0  0  0
  3  4  2  0  0  0  0
  4  5  1  0  0  0  0
  4  9  1  0  0  0  0
  5 10  1  0  0  0  0
  6 14  1  0  0  0  0
  6  5  2  0  0  0  0
  7  1  1  0  0  0  0
  8  2  1  0  0  0  0
 11 12  3  0  0  0  0
 14 15  1  0  0  0  0
 15 18  1  0  0  0  0
 16 15  1  0  0  0  0
 17 15  1  0  0  0  0
M  RAD  2   3   2  13   2
M  END
