Coordinates from ORCA-job 4-MeO-Ph-N2-Cl-B3LYPG-6-31G_dp-MTMO-d009-169-n800
 OpenBabel09051908453D

 18 16  0  0  0  0  0  0  0  0999 V2000
   -1.0104    0.6427   -0.8772 C   0  0  0  0  0  0  0  0  0  0  0  0
   -0.1198    1.5789   -0.3309 C   0  0  0  0  0  0  0  0  0  0  0  0
   -0.6486    2.0317    0.8574 C   0  0  0  0  0  0  0  0  0  0  0  0
   -1.7014    1.7786    1.4897 C   0  0  0  0  0  0  0  0  0  0  0  0
   -2.6283    0.8526    0.9938 C   0  0  0  0  0  0  0  0  0  0  0  0
   -2.2300    0.2846   -0.2398 C   0  0  0  0  0  0  0  0  0  0  0  0
   -0.7786    0.1626   -1.8227 H   0  0  0  0  0  0  0  0  0  0  0  0
    0.8126    1.8625   -0.8020 H   0  0  0  0  0  0  0  0  0  0  0  0
   -2.2115    2.5792    3.1623 H   0  0  0  0  0  0  0  0  0  0  0  0
   -3.5541    0.5901    1.4890 H   0  0  0  0  0  0  0  0  0  0  0  0
    6.8709   -7.7274   -7.2300 N   0  0  0  0  0  0  0  0  0  0  0  0
    7.4033   -8.6703   -7.4516 N   0  0  0  0  0  0  0  0  0  0  0  0
   -2.7374    3.0074    4.2954 Cl  0  0  0  0  0  0  0  0  0  0  0  0
   -2.9657   -0.6403   -0.9175 O   0  0  0  0  0  0  0  0  0  0  0  0
   -4.1992   -1.0660   -0.3542 C   0  0  0  0  0  0  0  0  0  0  0  0
   -4.6099   -1.7973   -1.0517 H   0  0  0  0  0  0  0  0  0  0  0  0
   -4.9029   -0.2308   -0.2479 H   0  0  0  0  0  0  0  0  0  0  0  0
   -4.0523   -1.5416    0.6239 H   0  0  0  0  0  0  0  0  0  0  0  0
  1  2  2  0  0  0  0
  1  6  1  0  0  0  0
  2  3  1  0  0  0  0
  3  4  2  0  0  0  0
  5 10  1  0  0  0  0
  5  4  1  0  0  0  0
  6  5  2  0  0  0  0
  7  1  1  0  0  0  0
  8  2  1  0  0  0  0
  9 13  1  0  0  0  0
 12 11  3  0  0  0  0
 14 15  1  0  0  0  0
 14  6  1  0  0  0  0
 15 17  1  0  0  0  0
 15 18  1  0  0  0  0
 16 15  1  0  0  0  0
M  RAD  2   3   2   4   2
M  END
