Coordinates from ORCA-job 4-MeO-Ph-N2-Cl-B3LYPG-6-31G_dp-MTMO-d009-169-n800
 OpenBabel09051908453D

 18 16  0  0  0  0  0  0  0  0999 V2000
   -0.9059    0.5411   -0.9591 C   0  0  0  0  0  0  0  0  0  0  0  0
   -0.0141    1.4765   -0.4133 C   0  0  0  0  0  0  0  0  0  0  0  0
   -0.5437    1.9324    0.7734 C   0  0  0  0  0  0  0  0  0  0  0  0
   -1.5978    1.6829    1.4049 C   0  0  0  0  0  0  0  0  0  0  0  0
   -2.5258    0.7579    0.9093 C   0  0  0  0  0  0  0  0  0  0  0  0
   -2.1270    0.1868   -0.3227 C   0  0  0  0  0  0  0  0  0  0  0  0
   -0.6737    0.0589   -1.9034 H   0  0  0  0  0  0  0  0  0  0  0  0
    0.9196    1.7572   -0.8837 H   0  0  0  0  0  0  0  0  0  0  0  0
   -2.1089    2.4871    3.0747 H   0  0  0  0  0  0  0  0  0  0  0  0
   -3.4529    0.4982    1.4036 H   0  0  0  0  0  0  0  0  0  0  0  0
    6.0485   -6.9560   -6.5599 N   0  0  0  0  0  0  0  0  0  0  0  0
    6.5820   -7.8985   -6.7807 N   0  0  0  0  0  0  0  0  0  0  0  0
   -2.6350    2.9189    4.2065 Cl  0  0  0  0  0  0  0  0  0  0  0  0
   -2.8638   -0.7378   -0.9998 O   0  0  0  0  0  0  0  0  0  0  0  0
   -4.0990   -1.1598   -0.4374 C   0  0  0  0  0  0  0  0  0  0  0  0
   -4.5104   -1.8915   -1.1342 H   0  0  0  0  0  0  0  0  0  0  0  0
   -4.8010   -0.3228   -0.3337 H   0  0  0  0  0  0  0  0  0  0  0  0
   -3.9546   -1.6339    0.5417 H   0  0  0  0  0  0  0  0  0  0  0  0
  1  2  2  0  0  0  0
  1  6  1  0  0  0  0
  2  3  1  0  0  0  0
  3  4  2  0  0  0  0
  5 10  1  0  0  0  0
  5  4  1  0  0  0  0
  6  5  2  0  0  0  0
  7  1  1  0  0  0  0
  8  2  1  0  0  0  0
  9 13  1  0  0  0  0
 12 11  3  0  0  0  0
 14 15  1  0  0  0  0
 14  6  1  0  0  0  0
 15 17  1  0  0  0  0
 15 18  1  0  0  0  0
 16 15  1  0  0  0  0
M  RAD  2   3   2   4   2
M  END
