Coordinates from ORCA-job 4-MeO-Ph-N2-Cl-B3LYPG-6-31G_dp-MTMO-d009-169-n800
 OpenBabel09051908443D

 18 16  0  0  0  0  0  0  0  0999 V2000
   -1.3444   -1.6358   -1.4321 C   0  0  0  0  0  0  0  0  0  0  0  0
    0.0030   -1.2669   -1.5620 C   0  0  0  0  0  0  0  0  0  0  0  0
    0.2110   -0.1397   -0.8001 C   0  0  0  0  0  0  0  0  0  0  0  0
   -0.5210    0.5672   -0.0666 C   0  0  0  0  0  0  0  0  0  0  0  0
   -1.8753    0.2447    0.0984 C   0  0  0  0  0  0  0  0  0  0  0  0
   -2.2624   -0.9061   -0.6280 C   0  0  0  0  0  0  0  0  0  0  0  0
   -1.7199   -2.5092   -1.9561 H   0  0  0  0  0  0  0  0  0  0  0  0
    0.7207   -1.8066   -2.1663 H   0  0  0  0  0  0  0  0  0  0  0  0
    0.0461    2.0913    0.9300 H   0  0  0  0  0  0  0  0  0  0  0  0
   -2.5647    0.8088    0.7137 H   0  0  0  0  0  0  0  0  0  0  0  0
    3.5818   -0.6729   -1.9569 N   0  0  0  0  0  0  0  0  0  0  0  0
    4.6165   -0.2993   -1.8517 N   0  0  0  0  0  0  0  0  0  0  0  0
    0.2487    3.1567    1.6873 Cl  0  0  0  0  0  0  0  0  0  0  0  0
   -3.5276   -1.4117   -0.6228 O   0  0  0  0  0  0  0  0  0  0  0  0
   -4.5158   -0.7487    0.1536 C   0  0  0  0  0  0  0  0  0  0  0  0
   -5.4360   -1.3182    0.0168 H   0  0  0  0  0  0  0  0  0  0  0  0
   -4.6735    0.2815   -0.1898 H   0  0  0  0  0  0  0  0  0  0  0  0
   -4.2507   -0.7376    1.2185 H   0  0  0  0  0  0  0  0  0  0  0  0
  1  6  1  0  0  0  0
  2  1  2  0  0  0  0
  2  3  1  0  0  0  0
  3  4  2  0  0  0  0
  4  5  1  0  0  0  0
  5 10  1  0  0  0  0
  6 14  1  0  0  0  0
  6  5  2  0  0  0  0
  7  1  1  0  0  0  0
  8  2  1  0  0  0  0
  9 13  1  0  0  0  0
 11 12  3  0  0  0  0
 14 15  1  0  0  0  0
 15 18  1  0  0  0  0
 16 15  1  0  0  0  0
 17 15  1  0  0  0  0
M  RAD  2   3   2   4   2
M  END
