Coordinates from ORCA-job 4-MeO-Ph-N2-Cl-B3LYPG-6-31G_dp-MTMO-d009-169-n800
 OpenBabel09051908443D

 18 16  0  0  0  0  0  0  0  0999 V2000
   -1.1152   -1.4857   -1.2267 C   0  0  0  0  0  0  0  0  0  0  0  0
    0.2067   -1.0156   -1.1975 C   0  0  0  0  0  0  0  0  0  0  0  0
    0.2343    0.1230   -0.4242 C   0  0  0  0  0  0  0  0  0  0  0  0
   -0.6313    0.7695    0.2133 C   0  0  0  0  0  0  0  0  0  0  0  0
   -1.9674    0.3449    0.2168 C   0  0  0  0  0  0  0  0  0  0  0  0
   -2.1758   -0.8304   -0.5432 C   0  0  0  0  0  0  0  0  0  0  0  0
   -1.3579   -2.3833   -1.7869 H   0  0  0  0  0  0  0  0  0  0  0  0
    1.0289   -1.4960   -1.7115 H   0  0  0  0  0  0  0  0  0  0  0  0
   -0.3120    2.3283    1.2626 H   0  0  0  0  0  0  0  0  0  0  0  0
   -2.7659    0.8528    0.7421 H   0  0  0  0  0  0  0  0  0  0  0  0
    3.6122   -1.3568   -2.6049 N   0  0  0  0  0  0  0  0  0  0  0  0
    4.6306   -1.1686   -2.9902 N   0  0  0  0  0  0  0  0  0  0  0  0
   -0.2931    3.4030    2.0337 Cl  0  0  0  0  0  0  0  0  0  0  0  0
   -3.3906   -1.4310   -0.6870 O   0  0  0  0  0  0  0  0  0  0  0  0
   -4.5139   -0.8420   -0.0460 C   0  0  0  0  0  0  0  0  0  0  0  0
   -5.3668   -1.4739   -0.2966 H   0  0  0  0  0  0  0  0  0  0  0  0
   -4.6982    0.1759   -0.4119 H   0  0  0  0  0  0  0  0  0  0  0  0
   -4.3882   -0.8168    1.0439 H   0  0  0  0  0  0  0  0  0  0  0  0
  1  2  2  0  0  0  0
  1  6  1  0  0  0  0
  2  3  1  0  0  0  0
  3  4  2  0  0  0  0
  4  5  1  0  0  0  0
  5 10  1  0  0  0  0
  6  5  2  0  0  0  0
  7  1  1  0  0  0  0
  8  2  1  0  0  0  0
  9 13  1  0  0  0  0
 12 11  3  0  0  0  0
 14  6  1  0  0  0  0
 14 15  1  0  0  0  0
 15 18  1  0  0  0  0
 16 15  1  0  0  0  0
 17 15  1  0  0  0  0
M  RAD  2   3   2   4   2
M  END
