Coordinates from ORCA-job 4-MeO-Ph-N2-Cl-B3LYPG-6-31G_dp-MTMO-d009-169-n800
 OpenBabel09051908453D

 18 16  0  0  0  0  0  0  0  0999 V2000
   -0.8696    0.5063   -0.9869 C   0  0  0  0  0  0  0  0  0  0  0  0
    0.0224    1.4417   -0.4413 C   0  0  0  0  0  0  0  0  0  0  0  0
   -0.5077    1.8988    0.7448 C   0  0  0  0  0  0  0  0  0  0  0  0
   -1.5624    1.6503    1.3758 C   0  0  0  0  0  0  0  0  0  0  0  0
   -2.4907    0.7254    0.8802 C   0  0  0  0  0  0  0  0  0  0  0  0
   -2.0913    0.1531   -0.3511 C   0  0  0  0  0  0  0  0  0  0  0  0
   -0.6370    0.0233   -1.9307 H   0  0  0  0  0  0  0  0  0  0  0  0
    0.9565    1.7216   -0.9112 H   0  0  0  0  0  0  0  0  0  0  0  0
   -2.0747    2.4559    3.0446 H   0  0  0  0  0  0  0  0  0  0  0  0
   -3.4182    0.4666    1.3742 H   0  0  0  0  0  0  0  0  0  0  0  0
    5.7652   -6.6913   -6.3303 N   0  0  0  0  0  0  0  0  0  0  0  0
    6.2989   -7.6337   -6.5509 N   0  0  0  0  0  0  0  0  0  0  0  0
   -2.6016    2.8888    4.1755 Cl  0  0  0  0  0  0  0  0  0  0  0  0
   -2.8281   -0.7716   -1.0279 O   0  0  0  0  0  0  0  0  0  0  0  0
   -4.0640   -1.1925   -0.4661 C   0  0  0  0  0  0  0  0  0  0  0  0
   -4.4752   -1.9244   -1.1626 H   0  0  0  0  0  0  0  0  0  0  0  0
   -4.7656   -0.3550   -0.3635 H   0  0  0  0  0  0  0  0  0  0  0  0
   -3.9205   -1.6659    0.5134 H   0  0  0  0  0  0  0  0  0  0  0  0
  1  2  2  0  0  0  0
  1  6  1  0  0  0  0
  2  3  1  0  0  0  0
  3  4  2  0  0  0  0
  5 10  1  0  0  0  0
  5  4  1  0  0  0  0
  6  5  2  0  0  0  0
  7  1  1  0  0  0  0
  8  2  1  0  0  0  0
  9 13  1  0  0  0  0
 12 11  3  0  0  0  0
 14 15  1  0  0  0  0
 14  6  1  0  0  0  0
 15 17  1  0  0  0  0
 15 18  1  0  0  0  0
 16 15  1  0  0  0  0
M  RAD  2   3   2   4   2
M  END
