Coordinates from ORCA-job 4-MeO-Ph-N2-Cl-B3LYPG-6-31G_dp-MTMO-d009-169-n800
 OpenBabel09051908443D

 18 16  0  0  0  0  0  0  0  0999 V2000
   -0.7642   -0.9730   -0.9938 C   0  0  0  0  0  0  0  0  0  0  0  0
    0.4223   -0.2681   -0.7411 C   0  0  0  0  0  0  0  0  0  0  0  0
    0.1254    0.7826    0.0983 C   0  0  0  0  0  0  0  0  0  0  0  0
   -0.9303    1.1926    0.6366 C   0  0  0  0  0  0  0  0  0  0  0  0
   -2.1449    0.5287    0.4204 C   0  0  0  0  0  0  0  0  0  0  0  0
   -2.0143   -0.5917   -0.4341 C   0  0  0  0  0  0  0  0  0  0  0  0
   -0.7479   -1.8474   -1.6372 H   0  0  0  0  0  0  0  0  0  0  0  0
    1.3816   -0.5450   -1.1596 H   0  0  0  0  0  0  0  0  0  0  0  0
   -1.0650    2.7087    1.8041 H   0  0  0  0  0  0  0  0  0  0  0  0
   -3.0900    0.8294    0.8538 H   0  0  0  0  0  0  0  0  0  0  0  0
    3.8579   -2.8736   -3.8136 N   0  0  0  0  0  0  0  0  0  0  0  0
    4.5391   -3.3693   -4.5291 N   0  0  0  0  0  0  0  0  0  0  0  0
   -1.3633    3.7031    2.6209 Cl  0  0  0  0  0  0  0  0  0  0  0  0
   -3.0562   -1.3937   -0.7918 O   0  0  0  0  0  0  0  0  0  0  0  0
   -4.3466   -1.0924   -0.2786 C   0  0  0  0  0  0  0  0  0  0  0  0
   -5.0162   -1.8489   -0.6893 H   0  0  0  0  0  0  0  0  0  0  0  0
   -4.6846   -0.0985   -0.5974 H   0  0  0  0  0  0  0  0  0  0  0  0
   -4.3664   -1.1464    0.8173 H   0  0  0  0  0  0  0  0  0  0  0  0
  1  2  2  0  0  0  0
  1  6  1  0  0  0  0
  2  3  1  0  0  0  0
  3  4  2  0  0  0  0
  5  4  1  0  0  0  0
  5 10  1  0  0  0  0
  6  5  2  0  0  0  0
  7  1  1  0  0  0  0
  8  2  1  0  0  0  0
  9 13  1  0  0  0  0
 12 11  3  0  0  0  0
 14  6  1  0  0  0  0
 14 15  1  0  0  0  0
 15 18  1  0  0  0  0
 16 15  1  0  0  0  0
 17 15  1  0  0  0  0
M  RAD  2   3   2   4   2
M  END
