Coordinates from ORCA-job 4-MeO-Ph-N2-Cl-B3LYPG-6-31G_dp-MTMO-d009-169-n800
 OpenBabel09051908443D

 18 16  0  0  0  0  0  0  0  0999 V2000
   -1.1988   -1.5520   -1.2910 C   0  0  0  0  0  0  0  0  0  0  0  0
    0.1358   -1.1195   -1.3211 C   0  0  0  0  0  0  0  0  0  0  0  0
    0.2284    0.0240   -0.5599 C   0  0  0  0  0  0  0  0  0  0  0  0
   -0.5917    0.6987    0.1077 C   0  0  0  0  0  0  0  0  0  0  0  0
   -1.9378    0.3126    0.1711 C   0  0  0  0  0  0  0  0  0  0  0  0
   -2.2109   -0.8618   -0.5694 C   0  0  0  0  0  0  0  0  0  0  0  0
   -1.4897   -2.4467   -1.8326 H   0  0  0  0  0  0  0  0  0  0  0  0
    0.9228   -1.6270   -1.8633 H   0  0  0  0  0  0  0  0  0  0  0  0
   -0.1820    2.2510    1.1388 H   0  0  0  0  0  0  0  0  0  0  0  0
   -2.6990    0.8465    0.7253 H   0  0  0  0  0  0  0  0  0  0  0  0
    3.6254   -1.1521   -2.4121 N   0  0  0  0  0  0  0  0  0  0  0  0
    4.6590   -0.7957   -2.5724 N   0  0  0  0  0  0  0  0  0  0  0  0
   -0.0986    3.3255    1.9055 Cl  0  0  0  0  0  0  0  0  0  0  0  0
   -3.4470   -1.4288   -0.6565 O   0  0  0  0  0  0  0  0  0  0  0  0
   -4.5251   -0.8042    0.0268 C   0  0  0  0  0  0  0  0  0  0  0  0
   -5.4046   -1.4154   -0.1798 H   0  0  0  0  0  0  0  0  0  0  0  0
   -4.6985    0.2149   -0.3411 H   0  0  0  0  0  0  0  0  0  0  0  0
   -4.3512   -0.7725    1.1099 H   0  0  0  0  0  0  0  0  0  0  0  0
  1  6  1  0  0  0  0
  2  1  2  0  0  0  0
  2  3  1  0  0  0  0
  3  4  2  0  0  0  0
  4  5  1  0  0  0  0
  5 10  1  0  0  0  0
  6  5  2  0  0  0  0
  7  1  1  0  0  0  0
  8  2  1  0  0  0  0
  9 13  1  0  0  0  0
 12 11  3  0  0  0  0
 14  6  1  0  0  0  0
 14 15  1  0  0  0  0
 15 18  1  0  0  0  0
 16 15  1  0  0  0  0
 17 15  1  0  0  0  0
M  RAD  2   3   2   4   2
M  END
