Coordinates from ORCA-job 4-MeO-Ph-N2-Cl-B3LYPG-6-31G_dp-MTMO-d009-169-n800
 OpenBabel09051908453D

 18 16  0  0  0  0  0  0  0  0999 V2000
   -0.8206    0.4560   -1.0322 C   0  0  0  0  0  0  0  0  0  0  0  0
    0.0741    1.3890   -0.4872 C   0  0  0  0  0  0  0  0  0  0  0  0
   -0.4530    1.8459    0.7002 C   0  0  0  0  0  0  0  0  0  0  0  0
   -1.5070    1.5991    1.3331 C   0  0  0  0  0  0  0  0  0  0  0  0
   -2.4379    0.6765    0.8380 C   0  0  0  0  0  0  0  0  0  0  0  0
   -2.0419    0.1046   -0.3946 C   0  0  0  0  0  0  0  0  0  0  0  0
   -0.5907   -0.0265   -1.9769 H   0  0  0  0  0  0  0  0  0  0  0  0
    1.0080    1.6674   -0.9586 H   0  0  0  0  0  0  0  0  0  0  0  0
   -2.0152    2.4037    3.0026 H   0  0  0  0  0  0  0  0  0  0  0  0
   -3.3651    0.4190    1.3333 H   0  0  0  0  0  0  0  0  0  0  0  0
    5.3564   -6.3000   -5.9864 N   0  0  0  0  0  0  0  0  0  0  0  0
    5.8900   -7.2426   -6.2064 N   0  0  0  0  0  0  0  0  0  0  0  0
   -2.5391    2.8370    4.1349 Cl  0  0  0  0  0  0  0  0  0  0  0  0
   -2.7818   -0.8180   -1.0710 O   0  0  0  0  0  0  0  0  0  0  0  0
   -4.0175   -1.2369   -0.5075 C   0  0  0  0  0  0  0  0  0  0  0  0
   -4.4315   -1.9673   -1.2040 H   0  0  0  0  0  0  0  0  0  0  0  0
   -4.7173   -0.3981   -0.4029 H   0  0  0  0  0  0  0  0  0  0  0  0
   -3.8733   -1.7115    0.4714 H   0  0  0  0  0  0  0  0  0  0  0  0
  1  2  2  0  0  0  0
  1  6  1  0  0  0  0
  2  3  1  0  0  0  0
  3  4  2  0  0  0  0
  5  4  1  0  0  0  0
  5 10  1  0  0  0  0
  6  5  2  0  0  0  0
  7  1  1  0  0  0  0
  8  2  1  0  0  0  0
  9 13  1  0  0  0  0
 12 11  3  0  0  0  0
 14 15  1  0  0  0  0
 14  6  1  0  0  0  0
 15 17  1  0  0  0  0
 15 18  1  0  0  0  0
 16 15  1  0  0  0  0
M  RAD  2   3   2   4   2
M  END
