Coordinates from ORCA-job 4-MeO-Ph-N2-Cl-B3LYPG-6-31G_dp-MTMO-d009-169-n800
 OpenBabel09051908443D

 18 16  0  0  0  0  0  0  0  0999 V2000
   -1.4340   -1.7854   -1.5083 C   0  0  0  0  0  0  0  0  0  0  0  0
   -0.0684   -1.5301   -1.7037 C   0  0  0  0  0  0  0  0  0  0  0  0
    0.2605   -0.4146   -0.9719 C   0  0  0  0  0  0  0  0  0  0  0  0
   -0.3660    0.3700   -0.2170 C   0  0  0  0  0  0  0  0  0  0  0  0
   -1.7352    0.1551    0.0078 C   0  0  0  0  0  0  0  0  0  0  0  0
   -2.2502   -0.9701   -0.6773 C   0  0  0  0  0  0  0  0  0  0  0  0
   -1.9033   -2.6318   -2.0000 H   0  0  0  0  0  0  0  0  0  0  0  0
    0.5752   -2.1344   -2.3302 H   0  0  0  0  0  0  0  0  0  0  0  0
    0.3524    1.8349    0.6930 H   0  0  0  0  0  0  0  0  0  0  0  0
   -2.3480    0.7851    0.6406 H   0  0  0  0  0  0  0  0  0  0  0  0
    3.0832   -0.1076   -1.4683 N   0  0  0  0  0  0  0  0  0  0  0  0
    3.9162    0.5330   -1.1257 N   0  0  0  0  0  0  0  0  0  0  0  0
    0.7149    2.8988    1.4010 Cl  0  0  0  0  0  0  0  0  0  0  0  0
   -3.5507   -1.3693   -0.6055 O   0  0  0  0  0  0  0  0  0  0  0  0
   -4.4421   -0.6197    0.2085 C   0  0  0  0  0  0  0  0  0  0  0  0
   -5.4108   -1.1142    0.1259 H   0  0  0  0  0  0  0  0  0  0  0  0
   -4.5334    0.4161   -0.1420 H   0  0  0  0  0  0  0  0  0  0  0  0
   -4.1238   -0.6185    1.2588 H   0  0  0  0  0  0  0  0  0  0  0  0
  1  6  1  0  0  0  0
  2  1  2  0  0  0  0
  2  3  1  0  0  0  0
  3  4  2  0  0  0  0
  4  5  1  0  0  0  0
  5 10  1  0  0  0  0
  6 14  1  0  0  0  0
  6  5  2  0  0  0  0
  7  1  1  0  0  0  0
  8  2  1  0  0  0  0
  9 13  1  0  0  0  0
 11 12  3  0  0  0  0
 14 15  1  0  0  0  0
 15 18  1  0  0  0  0
 16 15  1  0  0  0  0
 17 15  1  0  0  0  0
M  RAD  2   3   2   4   2
M  END
