Coordinates from ORCA-job 4-MeO-Ph-N2-Cl-B3LYPG-6-31G_dp-MTMO-d009-169-n800
 OpenBabel09051908443D

 18 16  0  0  0  0  0  0  0  0999 V2000
   -0.8044   -1.0561   -1.0692 C   0  0  0  0  0  0  0  0  0  0  0  0
    0.4095   -0.3850   -0.8570 C   0  0  0  0  0  0  0  0  0  0  0  0
    0.1676    0.6781   -0.0158 C   0  0  0  0  0  0  0  0  0  0  0  0
   -0.8582    1.1230    0.5522 C   0  0  0  0  0  0  0  0  0  0  0  0
   -2.0975    0.4932    0.3761 C   0  0  0  0  0  0  0  0  0  0  0  0
   -2.0254   -0.6353   -0.4746 C   0  0  0  0  0  0  0  0  0  0  0  0
   -0.8331   -1.9341   -1.7071 H   0  0  0  0  0  0  0  0  0  0  0  0
    1.3469   -0.6930   -1.3027 H   0  0  0  0  0  0  0  0  0  0  0  0
   -0.9147    2.6414    1.7170 H   0  0  0  0  0  0  0  0  0  0  0  0
   -3.0201    0.8240    0.8353 H   0  0  0  0  0  0  0  0  0  0  0  0
    3.6773   -2.5320   -3.4834 N   0  0  0  0  0  0  0  0  0  0  0  0
    4.4169   -3.0022   -4.1568 N   0  0  0  0  0  0  0  0  0  0  0  0
   -1.1589    3.6454    2.5408 Cl  0  0  0  0  0  0  0  0  0  0  0  0
   -3.1006   -1.4083   -0.7958 O   0  0  0  0  0  0  0  0  0  0  0  0
   -4.3649   -1.0689   -0.2428 C   0  0  0  0  0  0  0  0  0  0  0  0
   -5.0683   -1.8076   -0.6286 H   0  0  0  0  0  0  0  0  0  0  0  0
   -4.6850   -0.0669   -0.5550 H   0  0  0  0  0  0  0  0  0  0  0  0
   -4.3507   -1.1184    0.8533 H   0  0  0  0  0  0  0  0  0  0  0  0
  1  2  2  0  0  0  0
  1  6  1  0  0  0  0
  2  3  1  0  0  0  0
  3  4  2  0  0  0  0
  5  4  1  0  0  0  0
  5 10  1  0  0  0  0
  6  5  2  0  0  0  0
  7  1  1  0  0  0  0
  8  2  1  0  0  0  0
  9 13  1  0  0  0  0
 12 11  3  0  0  0  0
 14  6  1  0  0  0  0
 14 15  1  0  0  0  0
 15 18  1  0  0  0  0
 16 15  1  0  0  0  0
 17 15  1  0  0  0  0
M  RAD  2   3   2   4   2
M  END
