Coordinates from ORCA-job 4-MeO-Ph-N2-Cl-B3LYPG-6-31G_dp-MTMO-d009-169-n800
 OpenBabel09051908443D

 18 16  0  0  0  0  0  0  0  0999 V2000
   -0.6433   -0.6438   -0.7281 C   0  0  0  0  0  0  0  0  0  0  0  0
    0.4297    0.1692   -0.3336 C   0  0  0  0  0  0  0  0  0  0  0  0
   -0.0578    1.1501    0.5019 C   0  0  0  0  0  0  0  0  0  0  0  0
   -1.2010    1.4257    0.9370 C   0  0  0  0  0  0  0  0  0  0  0  0
   -2.3109    0.6501    0.5788 C   0  0  0  0  0  0  0  0  0  0  0  0
   -1.9766   -0.4165   -0.2897 C   0  0  0  0  0  0  0  0  0  0  0  0
   -0.4698   -1.4851   -1.3920 H   0  0  0  0  0  0  0  0  0  0  0  0
    1.4502    0.0100   -0.6585 H   0  0  0  0  0  0  0  0  0  0  0  0
   -1.6262    2.8968    2.0999 H   0  0  0  0  0  0  0  0  0  0  0  0
   -3.3211    0.8349    0.9208 H   0  0  0  0  0  0  0  0  0  0  0  0
    4.4810   -4.1483   -5.0402 N   0  0  0  0  0  0  0  0  0  0  0  0
    5.0500   -4.6993   -5.8111 N   0  0  0  0  0  0  0  0  0  0  0  0
   -2.1240    3.8354    2.8840 Cl  0  0  0  0  0  0  0  0  0  0  0  0
   -2.8858   -1.3069   -0.7761 O   0  0  0  0  0  0  0  0  0  0  0  0
   -4.2462   -1.1594   -0.3923 C   0  0  0  0  0  0  0  0  0  0  0  0
   -4.7872   -1.9636   -0.8922 H   0  0  0  0  0  0  0  0  0  0  0  0
   -4.6533   -0.1933   -0.7160 H   0  0  0  0  0  0  0  0  0  0  0  0
   -4.3712   -1.2587    0.6933 H   0  0  0  0  0  0  0  0  0  0  0  0
  1  2  2  0  0  0  0
  1  6  1  0  0  0  0
  2  3  1  0  0  0  0
  3  4  2  0  0  0  0
  5 10  1  0  0  0  0
  5  4  1  0  0  0  0
  6  5  2  0  0  0  0
  7  1  1  0  0  0  0
  8  2  1  0  0  0  0
  9 13  1  0  0  0  0
 12 11  3  0  0  0  0
 14 15  1  0  0  0  0
 14  6  1  0  0  0  0
 15 18  1  0  0  0  0
 16 15  1  0  0  0  0
 17 15  1  0  0  0  0
M  RAD  2   3   2   4   2
M  END
