Coordinates from ORCA-job 4-MeO-Ph-N2-Cl-B3LYPG-6-31G_dp-MTMO-d009-169-n800
 OpenBabel09051908443D

 18 16  0  0  0  0  0  0  0  0999 V2000
   -1.0975   -1.4617   -1.2232 C   0  0  0  0  0  0  0  0  0  0  0  0
    0.2198   -0.9791   -1.1857 C   0  0  0  0  0  0  0  0  0  0  0  0
    0.2328    0.1555   -0.4063 C   0  0  0  0  0  0  0  0  0  0  0  0
   -0.6417    0.7906    0.2306 C   0  0  0  0  0  0  0  0  0  0  0  0
   -1.9736    0.3531    0.2259 C   0  0  0  0  0  0  0  0  0  0  0  0
   -2.1673   -0.8202   -0.5410 C   0  0  0  0  0  0  0  0  0  0  0  0
   -1.3290   -2.3587   -1.7891 H   0  0  0  0  0  0  0  0  0  0  0  0
    1.0485   -1.4492   -1.6988 H   0  0  0  0  0  0  0  0  0  0  0  0
   -0.3429    2.3477    1.2873 H   0  0  0  0  0  0  0  0  0  0  0  0
   -2.7793    0.8506    0.7501 H   0  0  0  0  0  0  0  0  0  0  0  0
    3.6020   -1.4221   -2.6498 N   0  0  0  0  0  0  0  0  0  0  0  0
    4.6253   -1.2697   -3.0378 N   0  0  0  0  0  0  0  0  0  0  0  0
   -0.3383    3.4194    2.0631 Cl  0  0  0  0  0  0  0  0  0  0  0  0
   -3.3757   -1.4317   -0.6934 O   0  0  0  0  0  0  0  0  0  0  0  0
   -4.5074   -0.8568   -0.0544 C   0  0  0  0  0  0  0  0  0  0  0  0
   -5.3532   -1.4952   -0.3125 H   0  0  0  0  0  0  0  0  0  0  0  0
   -4.6993    0.1614   -0.4155 H   0  0  0  0  0  0  0  0  0  0  0  0
   -4.3869   -0.8366    1.0363 H   0  0  0  0  0  0  0  0  0  0  0  0
  1  2  2  0  0  0  0
  1  6  1  0  0  0  0
  2  3  1  0  0  0  0
  3  4  2  0  0  0  0
  5  4  1  0  0  0  0
  5 10  1  0  0  0  0
  6  5  2  0  0  0  0
  7  1  1  0  0  0  0
  8  2  1  0  0  0  0
  9 13  1  0  0  0  0
 12 11  3  0  0  0  0
 14  6  1  0  0  0  0
 14 15  1  0  0  0  0
 15 18  1  0  0  0  0
 16 15  1  0  0  0  0
 17 15  1  0  0  0  0
M  RAD  2   3   2   4   2
M  END
