Coordinates from ORCA-job 4-MeO-Ph-N2-Cl-B3LYPG-6-31G_dp-MTMO-d009-169-n800
 OpenBabel09051908443D

 18 16  0  0  0  0  0  0  0  0999 V2000
   -0.8134   -1.0698   -1.0826 C   0  0  0  0  0  0  0  0  0  0  0  0
    0.4052   -0.4049   -0.8780 C   0  0  0  0  0  0  0  0  0  0  0  0
    0.1735    0.6600   -0.0361 C   0  0  0  0  0  0  0  0  0  0  0  0
   -0.8465    1.1108    0.5377 C   0  0  0  0  0  0  0  0  0  0  0  0
   -2.0900    0.4872    0.3691 C   0  0  0  0  0  0  0  0  0  0  0  0
   -2.0287   -0.6423   -0.4812 C   0  0  0  0  0  0  0  0  0  0  0  0
   -0.8504   -1.9481   -1.7196 H   0  0  0  0  0  0  0  0  0  0  0  0
    1.3384   -0.7181   -1.3290 H   0  0  0  0  0  0  0  0  0  0  0  0
   -0.8892    2.6289    1.7019 H   0  0  0  0  0  0  0  0  0  0  0  0
   -3.0082    0.8232    0.8332 H   0  0  0  0  0  0  0  0  0  0  0  0
    3.6554   -2.4776   -3.4289 N   0  0  0  0  0  0  0  0  0  0  0  0
    4.4057   -2.9400   -4.0957 N   0  0  0  0  0  0  0  0  0  0  0  0
   -1.1239    3.6343    2.5270 Cl  0  0  0  0  0  0  0  0  0  0  0  0
   -3.1098   -1.4099   -0.7956 O   0  0  0  0  0  0  0  0  0  0  0  0
   -4.3690   -1.0638   -0.2351 C   0  0  0  0  0  0  0  0  0  0  0  0
   -5.0785   -1.7991   -0.6163 H   0  0  0  0  0  0  0  0  0  0  0  0
   -4.6859   -0.0604   -0.5459 H   0  0  0  0  0  0  0  0  0  0  0  0
   -4.3484   -1.1129    0.8610 H   0  0  0  0  0  0  0  0  0  0  0  0
  1  2  2  0  0  0  0
  1  6  1  0  0  0  0
  2  3  1  0  0  0  0
  3  4  2  0  0  0  0
  5  4  1  0  0  0  0
  5 10  1  0  0  0  0
  6  5  2  0  0  0  0
  7  1  1  0  0  0  0
  8  2  1  0  0  0  0
  9 13  1  0  0  0  0
 12 11  3  0  0  0  0
 14  6  1  0  0  0  0
 14 15  1  0  0  0  0
 15 18  1  0  0  0  0
 16 15  1  0  0  0  0
 17 15  1  0  0  0  0
M  RAD  2   3   2   4   2
M  END
