Coordinates from ORCA-job 4-MeO-Ph-N2-Cl-B3LYPG-6-31G_dp-MTMO-d009-169-n800
 OpenBabel09051908443D

 18 16  0  0  0  0  0  0  0  0999 V2000
   -1.4015   -1.7134   -1.4571 C   0  0  0  0  0  0  0  0  0  0  0  0
   -0.0418   -1.4028   -1.6099 C   0  0  0  0  0  0  0  0  0  0  0  0
    0.2241   -0.2790   -0.8620 C   0  0  0  0  0  0  0  0  0  0  0  0
   -0.4651    0.4649   -0.1233 C   0  0  0  0  0  0  0  0  0  0  0  0
   -1.8293    0.2005    0.0643 C   0  0  0  0  0  0  0  0  0  0  0  0
   -2.2756   -0.9393   -0.6456 C   0  0  0  0  0  0  0  0  0  0  0  0
   -1.8213   -2.5743   -1.9680 H   0  0  0  0  0  0  0  0  0  0  0  0
    0.6426   -1.9773   -2.2208 H   0  0  0  0  0  0  0  0  0  0  0  0
    0.1795    1.9739    0.8420 H   0  0  0  0  0  0  0  0  0  0  0  0
   -2.4851    0.7987    0.6842 H   0  0  0  0  0  0  0  0  0  0  0  0
    3.4817   -0.3856   -1.7686 N   0  0  0  0  0  0  0  0  0  0  0  0
    4.4535    0.1123   -1.5984 N   0  0  0  0  0  0  0  0  0  0  0  0
    0.4441    3.0407    1.5788 Cl  0  0  0  0  0  0  0  0  0  0  0  0
   -3.5604   -1.3917   -0.6167 O   0  0  0  0  0  0  0  0  0  0  0  0
   -4.5067   -0.6846    0.1727 C   0  0  0  0  0  0  0  0  0  0  0  0
   -5.4513   -1.2173    0.0567 H   0  0  0  0  0  0  0  0  0  0  0  0
   -4.6292    0.3491   -0.1749 H   0  0  0  0  0  0  0  0  0  0  0  0
   -4.2219   -0.6775    1.2326 H   0  0  0  0  0  0  0  0  0  0  0  0
  1  6  1  0  0  0  0
  2  1  2  0  0  0  0
  2  3  1  0  0  0  0
  3  4  2  0  0  0  0
  4  5  1  0  0  0  0
  5 10  1  0  0  0  0
  6 14  1  0  0  0  0
  6  5  2  0  0  0  0
  7  1  1  0  0  0  0
  8  2  1  0  0  0  0
  9 13  1  0  0  0  0
 11 12  3  0  0  0  0
 14 15  1  0  0  0  0
 15 18  1  0  0  0  0
 16 15  1  0  0  0  0
 17 15  1  0  0  0  0
M  RAD  2   3   2   4   2
M  END
