Coordinates from ORCA-job 4-MeO-Ph-N2-Cl-B3LYPG-6-31G_dp-MTMO-d009-169-n800
 OpenBabel09051908443D

 18 16  0  0  0  0  0  0  0  0999 V2000
   -1.2568   -1.5485   -1.3775 C   0  0  0  0  0  0  0  0  0  0  0  0
    0.0756   -1.1170   -1.4638 C   0  0  0  0  0  0  0  0  0  0  0  0
    0.2064    0.0158   -0.6924 C   0  0  0  0  0  0  0  0  0  0  0  0
   -0.5807    0.6824    0.0214 C   0  0  0  0  0  0  0  0  0  0  0  0
   -1.9231    0.2973    0.1424 C   0  0  0  0  0  0  0  0  0  0  0  0
   -2.2329   -0.8665   -0.6004 C   0  0  0  0  0  0  0  0  0  0  0  0
   -1.5746   -2.4355   -1.9167 H   0  0  0  0  0  0  0  0  0  0  0  0
    0.8363   -1.6193   -2.0470 H   0  0  0  0  0  0  0  0  0  0  0  0
   -0.1189    2.2198    1.0537 H   0  0  0  0  0  0  0  0  0  0  0  0
   -2.6565    0.8247    0.7389 H   0  0  0  0  0  0  0  0  0  0  0  0
    3.6425   -1.0450   -2.2112 N   0  0  0  0  0  0  0  0  0  0  0  0
    4.7052   -0.7426   -2.2290 N   0  0  0  0  0  0  0  0  0  0  0  0
    0.0042    3.2830    1.8307 Cl  0  0  0  0  0  0  0  0  0  0  0  0
   -3.4728   -1.4303   -0.6375 O   0  0  0  0  0  0  0  0  0  0  0  0
   -4.5163   -0.8138    0.1045 C   0  0  0  0  0  0  0  0  0  0  0  0
   -5.4054   -1.4216   -0.0673 H   0  0  0  0  0  0  0  0  0  0  0  0
   -4.7054    0.2102   -0.2415 H   0  0  0  0  0  0  0  0  0  0  0  0
   -4.2905   -0.7960    1.1784 H   0  0  0  0  0  0  0  0  0  0  0  0
  1  6  1  0  0  0  0
  2  1  2  0  0  0  0
  2  3  1  0  0  0  0
  3  4  2  0  0  0  0
  4  5  1  0  0  0  0
  5 10  1  0  0  0  0
  6  5  2  0  0  0  0
  7  1  1  0  0  0  0
  8  2  1  0  0  0  0
  9 13  1  0  0  0  0
 12 11  3  0  0  0  0
 14  6  1  0  0  0  0
 14 15  1  0  0  0  0
 15 18  1  0  0  0  0
 16 15  1  0  0  0  0
 17 15  1  0  0  0  0
M  RAD  2   3   2   4   2
M  END
