Coordinates from ORCA-job 4-MeO-Ph-N2-Cl-B3LYPG-6-31G_dp-MTMO-d009-169-n800
 OpenBabel09051908453D

 18 16  0  0  0  0  0  0  0  0999 V2000
   -1.0853    0.7139   -0.8112 C   0  0  0  0  0  0  0  0  0  0  0  0
   -0.1964    1.6518   -0.2649 C   0  0  0  0  0  0  0  0  0  0  0  0
   -0.7278    2.1060    0.9217 C   0  0  0  0  0  0  0  0  0  0  0  0
   -1.7815    1.8530    1.5526 C   0  0  0  0  0  0  0  0  0  0  0  0
   -2.7067    0.9255    1.0565 C   0  0  0  0  0  0  0  0  0  0  0  0
   -2.3056    0.3558   -0.1755 C   0  0  0  0  0  0  0  0  0  0  0  0
   -0.8513    0.2326   -1.7556 H   0  0  0  0  0  0  0  0  0  0  0  0
    0.7366    1.9354   -0.7347 H   0  0  0  0  0  0  0  0  0  0  0  0
   -2.2945    2.6559    3.2234 H   0  0  0  0  0  0  0  0  0  0  0  0
   -3.6331    0.6629    1.5505 H   0  0  0  0  0  0  0  0  0  0  0  0
    7.4867   -8.3044   -7.7390 N   0  0  0  0  0  0  0  0  0  0  0  0
    8.0190   -9.2474   -7.9608 N   0  0  0  0  0  0  0  0  0  0  0  0
   -2.8223    3.0853    4.3551 Cl  0  0  0  0  0  0  0  0  0  0  0  0
   -3.0394   -0.5708   -0.8530 O   0  0  0  0  0  0  0  0  0  0  0  0
   -4.2735   -0.9966   -0.2912 C   0  0  0  0  0  0  0  0  0  0  0  0
   -4.6824   -1.7294   -0.9883 H   0  0  0  0  0  0  0  0  0  0  0  0
   -4.9781   -0.1618   -0.1876 H   0  0  0  0  0  0  0  0  0  0  0  0
   -4.1280   -1.4705    0.6878 H   0  0  0  0  0  0  0  0  0  0  0  0
  1  2  2  0  0  0  0
  1  6  1  0  0  0  0
  2  3  1  0  0  0  0
  3  4  2  0  0  0  0
  5 10  1  0  0  0  0
  5  4  1  0  0  0  0
  6  5  2  0  0  0  0
  7  1  1  0  0  0  0
  8  2  1  0  0  0  0
  9 13  1  0  0  0  0
 12 11  3  0  0  0  0
 14 15  1  0  0  0  0
 14  6  1  0  0  0  0
 15 17  1  0  0  0  0
 15 18  1  0  0  0  0
 16 15  1  0  0  0  0
M  RAD  2   3   2   4   2
M  END
