Coordinates from ORCA-job 4-MeO-Ph-N2-Cl-B3LYPG-6-31G_dp-MTMO-d009-169-n800
 OpenBabel09051908453D

 18 16  0  0  0  0  0  0  0  0999 V2000
   -0.9466    0.5771   -0.9352 C   0  0  0  0  0  0  0  0  0  0  0  0
   -0.0523    1.5102   -0.3896 C   0  0  0  0  0  0  0  0  0  0  0  0
   -0.5779    1.9626    0.8001 C   0  0  0  0  0  0  0  0  0  0  0  0
   -1.6298    1.7125    1.4353 C   0  0  0  0  0  0  0  0  0  0  0  0
   -2.5598    0.7894    0.9394 C   0  0  0  0  0  0  0  0  0  0  0  0
   -2.1658    0.2217   -0.2957 C   0  0  0  0  0  0  0  0  0  0  0  0
   -0.7180    0.0977   -1.8818 H   0  0  0  0  0  0  0  0  0  0  0  0
    0.8799    1.7916   -0.8625 H   0  0  0  0  0  0  0  0  0  0  0  0
   -2.1356    2.5117    3.1066 H   0  0  0  0  0  0  0  0  0  0  0  0
   -3.4854    0.5289    1.4362 H   0  0  0  0  0  0  0  0  0  0  0  0
    6.3397   -7.2219   -6.7877 N   0  0  0  0  0  0  0  0  0  0  0  0
    6.8749   -8.1639   -7.0060 N   0  0  0  0  0  0  0  0  0  0  0  0
   -2.6571    2.9422    4.2413 Cl  0  0  0  0  0  0  0  0  0  0  0  0
   -2.9056   -0.7003   -0.9729 O   0  0  0  0  0  0  0  0  0  0  0  0
   -4.1391   -1.1232   -0.4075 C   0  0  0  0  0  0  0  0  0  0  0  0
   -4.5533   -1.8526   -1.1049 H   0  0  0  0  0  0  0  0  0  0  0  0
   -4.8402   -0.2861   -0.2989 H   0  0  0  0  0  0  0  0  0  0  0  0
   -3.9916   -1.6002    0.5698 H   0  0  0  0  0  0  0  0  0  0  0  0
  1  2  2  0  0  0  0
  1  6  1  0  0  0  0
  2  3  1  0  0  0  0
  3  4  2  0  0  0  0
  5  4  1  0  0  0  0
  5 10  1  0  0  0  0
  6  5  2  0  0  0  0
  7  1  1  0  0  0  0
  8  2  1  0  0  0  0
  9 13  1  0  0  0  0
 12 11  3  0  0  0  0
 14 15  1  0  0  0  0
 14  6  1  0  0  0  0
 15 17  1  0  0  0  0
 15 18  1  0  0  0  0
 16 15  1  0  0  0  0
M  RAD  2   3   2   4   2
M  END
