Coordinates from ORCA-job 4-MeO-Ph-N2-Cl-B3LYPG-6-31G_dp-MTMO-d009-169-n800
 OpenBabel09051908453D

 18 16  0  0  0  0  0  0  0  0999 V2000
   -0.8616    0.5002   -0.9893 C   0  0  0  0  0  0  0  0  0  0  0  0
    0.0290    1.4367   -0.4434 C   0  0  0  0  0  0  0  0  0  0  0  0
   -0.5032    1.8950    0.7412 C   0  0  0  0  0  0  0  0  0  0  0  0
   -1.5587    1.6465    1.3709 C   0  0  0  0  0  0  0  0  0  0  0  0
   -2.4857    0.7205    0.8751 C   0  0  0  0  0  0  0  0  0  0  0  0
   -2.0841    0.1471   -0.3550 C   0  0  0  0  0  0  0  0  0  0  0  0
   -0.6273    0.0162   -1.9322 H   0  0  0  0  0  0  0  0  0  0  0  0
    0.9637    1.7166   -0.9123 H   0  0  0  0  0  0  0  0  0  0  0  0
   -2.0724    2.4541    3.0387 H   0  0  0  0  0  0  0  0  0  0  0  0
   -3.4138    0.4617    1.3679 H   0  0  0  0  0  0  0  0  0  0  0  0
    5.7157   -6.6481   -6.2943 N   0  0  0  0  0  0  0  0  0  0  0  0
    6.2480   -7.5909   -6.5167 N   0  0  0  0  0  0  0  0  0  0  0  0
   -2.6008    2.8877    4.1686 Cl  0  0  0  0  0  0  0  0  0  0  0  0
   -2.8194   -0.7789   -1.0319 O   0  0  0  0  0  0  0  0  0  0  0  0
   -4.0558   -1.1998   -0.4715 C   0  0  0  0  0  0  0  0  0  0  0  0
   -4.4656   -1.9327   -1.1678 H   0  0  0  0  0  0  0  0  0  0  0  0
   -4.7580   -0.3626   -0.3709 H   0  0  0  0  0  0  0  0  0  0  0  0
   -3.9136   -1.6720    0.5088 H   0  0  0  0  0  0  0  0  0  0  0  0
  1  2  2  0  0  0  0
  1  6  1  0  0  0  0
  2  3  1  0  0  0  0
  3  4  2  0  0  0  0
  5 10  1  0  0  0  0
  5  4  1  0  0  0  0
  6  5  2  0  0  0  0
  7  1  1  0  0  0  0
  8  2  1  0  0  0  0
  9 13  1  0  0  0  0
 12 11  3  0  0  0  0
 14 15  1  0  0  0  0
 14  6  1  0  0  0  0
 15 17  1  0  0  0  0
 15 18  1  0  0  0  0
 16 15  1  0  0  0  0
M  RAD  2   3   2   4   2
M  END
