Coordinates from ORCA-job 4-MeO-Ph-N2-Cl-B3LYPG-6-31G_dp-MTMO-d009-169-n800
 OpenBabel09051908443D

 18 16  0  0  0  0  0  0  0  0999 V2000
   -0.6574   -0.7062   -0.7673 C   0  0  0  0  0  0  0  0  0  0  0  0
    0.4360    0.0901   -0.3955 C   0  0  0  0  0  0  0  0  0  0  0  0
   -0.0216    1.0875    0.4373 C   0  0  0  0  0  0  0  0  0  0  0  0
   -1.1530    1.3883    0.8863 C   0  0  0  0  0  0  0  0  0  0  0  0
   -2.2819    0.6300    0.5508 C   0  0  0  0  0  0  0  0  0  0  0  0
   -1.9798   -0.4502   -0.3124 C   0  0  0  0  0  0  0  0  0  0  0  0
   -0.5088   -1.5568   -1.4255 H   0  0  0  0  0  0  0  0  0  0  0  0
    1.4487   -0.0911   -0.7330 H   0  0  0  0  0  0  0  0  0  0  0  0
   -1.5325    2.8730    2.0469 H   0  0  0  0  0  0  0  0  0  0  0  0
   -3.2835    0.8364    0.9056 H   0  0  0  0  0  0  0  0  0  0  0  0
    4.3649   -3.9255   -4.8257 N   0  0  0  0  0  0  0  0  0  0  0  0
    4.9423   -4.4593   -5.6024 N   0  0  0  0  0  0  0  0  0  0  0  0
   -1.9995    3.8255    2.8334 Cl  0  0  0  0  0  0  0  0  0  0  0  0
   -2.9122   -1.3278   -0.7778 O   0  0  0  0  0  0  0  0  0  0  0  0
   -4.2643   -1.1506   -0.3776 C   0  0  0  0  0  0  0  0  0  0  0  0
   -4.8271   -1.9490   -0.8624 H   0  0  0  0  0  0  0  0  0  0  0  0
   -4.6571   -0.1800   -0.7053 H   0  0  0  0  0  0  0  0  0  0  0  0
   -4.3767   -1.2371    0.7106 H   0  0  0  0  0  0  0  0  0  0  0  0
  1  2  2  0  0  0  0
  1  6  1  0  0  0  0
  2  3  1  0  0  0  0
  3  4  2  0  0  0  0
  5  4  1  0  0  0  0
  5 10  1  0  0  0  0
  6  5  2  0  0  0  0
  7  1  1  0  0  0  0
  8  2  1  0  0  0  0
  9 13  1  0  0  0  0
 12 11  3  0  0  0  0
 14 15  1  0  0  0  0
 14  6  1  0  0  0  0
 15 18  1  0  0  0  0
 16 15  1  0  0  0  0
 17 15  1  0  0  0  0
M  RAD  2   3   2   4   2
M  END
