Coordinates from ORCA-job 4-MeO-Ph-N2-Cl-B3LYPG-6-31G_dp-MTMO-d009-169-n800
 OpenBabel09051908443D

 18 16  0  0  0  0  0  0  0  0999 V2000
   -1.2932   -1.5730   -1.4076 C   0  0  0  0  0  0  0  0  0  0  0  0
    0.0429   -1.1589   -1.5164 C   0  0  0  0  0  0  0  0  0  0  0  0
    0.2022   -0.0293   -0.7460 C   0  0  0  0  0  0  0  0  0  0  0  0
   -0.5631    0.6478   -0.0184 C   0  0  0  0  0  0  0  0  0  0  0  0
   -1.9081    0.2797    0.1254 C   0  0  0  0  0  0  0  0  0  0  0  0
   -2.2464   -0.8789   -0.6129 C   0  0  0  0  0  0  0  0  0  0  0  0
   -1.6320   -2.4552   -1.9417 H   0  0  0  0  0  0  0  0  0  0  0  0
    0.7870   -1.6709   -2.1128 H   0  0  0  0  0  0  0  0  0  0  0  0
   -0.0633    2.1801    1.0014 H   0  0  0  0  0  0  0  0  0  0  0  0
   -2.6242    0.8163    0.7348 H   0  0  0  0  0  0  0  0  0  0  0  0
    3.6398   -0.9211   -2.1081 N   0  0  0  0  0  0  0  0  0  0  0  0
    4.6992   -0.6103   -2.0603 N   0  0  0  0  0  0  0  0  0  0  0  0
    0.0900    3.2434    1.7731 Cl  0  0  0  0  0  0  0  0  0  0  0  0
   -3.4942   -1.4260   -0.6289 O   0  0  0  0  0  0  0  0  0  0  0  0
   -4.5159   -0.7975    0.1330 C   0  0  0  0  0  0  0  0  0  0  0  0
   -5.4155   -1.3942   -0.0227 H   0  0  0  0  0  0  0  0  0  0  0  0
   -4.6988    0.2291   -0.2085 H   0  0  0  0  0  0  0  0  0  0  0  0
   -4.2699   -0.7837    1.2025 H   0  0  0  0  0  0  0  0  0  0  0  0
  1  6  1  0  0  0  0
  2  1  2  0  0  0  0
  2  3  1  0  0  0  0
  3  4  2  0  0  0  0
  4  5  1  0  0  0  0
  5 10  1  0  0  0  0
  6  5  2  0  0  0  0
  7  1  1  0  0  0  0
  8  2  1  0  0  0  0
  9 13  1  0  0  0  0
 11 12  3  0  0  0  0
 14  6  1  0  0  0  0
 14 15  1  0  0  0  0
 15 18  1  0  0  0  0
 16 15  1  0  0  0  0
 17 15  1  0  0  0  0
M  RAD  2   3   2   4   2
M  END
