Coordinates from ORCA-job 4-MeO-Ph-N2-Cl-B3LYPG-6-31G_dp-MTMO-d009-169-n800
 OpenBabel09051908443D

 18 16  0  0  0  0  0  0  0  0999 V2000
   -1.2971   -1.5815   -1.4122 C   0  0  0  0  0  0  0  0  0  0  0  0
    0.0407   -1.1737   -1.5242 C   0  0  0  0  0  0  0  0  0  0  0  0
    0.2070   -0.0441   -0.7551 C   0  0  0  0  0  0  0  0  0  0  0  0
   -0.5545    0.6357   -0.0262 C   0  0  0  0  0  0  0  0  0  0  0  0
   -1.9009    0.2747    0.1211 C   0  0  0  0  0  0  0  0  0  0  0  0
   -2.2457   -0.8830   -0.6159 C   0  0  0  0  0  0  0  0  0  0  0  0
   -1.6415   -2.4624   -1.9451 H   0  0  0  0  0  0  0  0  0  0  0  0
    0.7812   -1.6889   -2.1219 H   0  0  0  0  0  0  0  0  0  0  0  0
   -0.0427    2.1695    0.9907 H   0  0  0  0  0  0  0  0  0  0  0  0
   -2.6132    0.8148    0.7318 H   0  0  0  0  0  0  0  0  0  0  0  0
    3.6060   -0.8866   -2.0782 N   0  0  0  0  0  0  0  0  0  0  0  0
    4.6620   -0.5655   -2.0233 N   0  0  0  0  0  0  0  0  0  0  0  0
    0.1165    3.2332    1.7600 Cl  0  0  0  0  0  0  0  0  0  0  0  0
   -3.4958   -1.4250   -0.6291 O   0  0  0  0  0  0  0  0  0  0  0  0
   -4.5130   -0.7919    0.1348 C   0  0  0  0  0  0  0  0  0  0  0  0
   -5.4155   -1.3849   -0.0182 H   0  0  0  0  0  0  0  0  0  0  0  0
   -4.6926    0.2353   -0.2069 H   0  0  0  0  0  0  0  0  0  0  0  0
   -4.2645   -0.7784    1.2038 H   0  0  0  0  0  0  0  0  0  0  0  0
  1  6  1  0  0  0  0
  2  1  2  0  0  0  0
  2  3  1  0  0  0  0
  3  4  2  0  0  0  0
  4  5  1  0  0  0  0
  5 10  1  0  0  0  0
  6  5  2  0  0  0  0
  7  1  1  0  0  0  0
  8  2  1  0  0  0  0
  9 13  1  0  0  0  0
 11 12  3  0  0  0  0
 14  6  1  0  0  0  0
 14 15  1  0  0  0  0
 15 18  1  0  0  0  0
 16 15  1  0  0  0  0
 17 15  1  0  0  0  0
M  RAD  2   3   2   4   2
M  END
