Coordinates from ORCA-job 4-MeO-Ph-N2-Cl-B3LYPG-6-31G_dp-MTMO-d009-169-n800
 OpenBabel09051908453D

 18 16  0  0  0  0  0  0  0  0999 V2000
   -1.0902    0.7164   -0.8104 C   0  0  0  0  0  0  0  0  0  0  0  0
   -0.2000    1.6530   -0.2641 C   0  0  0  0  0  0  0  0  0  0  0  0
   -0.7300    2.1060    0.9232 C   0  0  0  0  0  0  0  0  0  0  0  0
   -1.7829    1.8545    1.5563 C   0  0  0  0  0  0  0  0  0  0  0  0
   -2.7090    0.9278    1.0594 C   0  0  0  0  0  0  0  0  0  0  0  0
   -2.3101    0.3589   -0.1735 C   0  0  0  0  0  0  0  0  0  0  0  0
   -0.8577    0.2359   -1.7555 H   0  0  0  0  0  0  0  0  0  0  0  0
    0.7327    1.9361   -0.7349 H   0  0  0  0  0  0  0  0  0  0  0  0
   -2.2929    2.6558    3.2253 H   0  0  0  0  0  0  0  0  0  0  0  0
   -3.6352    0.6656    1.5541 H   0  0  0  0  0  0  0  0  0  0  0  0
    7.5132   -8.3259   -7.7577 N   0  0  0  0  0  0  0  0  0  0  0  0
    8.0474   -9.2683   -7.9774 N   0  0  0  0  0  0  0  0  0  0  0  0
   -2.8181    3.0865    4.3583 Cl  0  0  0  0  0  0  0  0  0  0  0  0
   -3.0456   -0.5664   -0.8511 O   0  0  0  0  0  0  0  0  0  0  0  0
   -4.2794   -0.9918   -0.2881 C   0  0  0  0  0  0  0  0  0  0  0  0
   -4.6896   -1.7236   -0.9854 H   0  0  0  0  0  0  0  0  0  0  0  0
   -4.9832   -0.1565   -0.1829 H   0  0  0  0  0  0  0  0  0  0  0  0
   -4.1330   -1.4667    0.6903 H   0  0  0  0  0  0  0  0  0  0  0  0
  1  2  2  0  0  0  0
  1  6  1  0  0  0  0
  2  3  1  0  0  0  0
  3  4  2  0  0  0  0
  5 10  1  0  0  0  0
  5  4  1  0  0  0  0
  6  5  2  0  0  0  0
  7  1  1  0  0  0  0
  8  2  1  0  0  0  0
  9 13  1  0  0  0  0
 12 11  3  0  0  0  0
 14 15  1  0  0  0  0
 14  6  1  0  0  0  0
 15 17  1  0  0  0  0
 15 18  1  0  0  0  0
 16 15  1  0  0  0  0
M  RAD  2   3   2   4   2
M  END
