Coordinates from ORCA-job 4-MeO-Ph-N2-Cl-B3LYPG-6-31G_dp-MTMO-d009-169-n800
 OpenBabel09051908443D

 18 16  0  0  0  0  0  0  0  0999 V2000
   -1.4361   -1.7513   -1.4830 C   0  0  0  0  0  0  0  0  0  0  0  0
   -0.0736   -1.4683   -1.6614 C   0  0  0  0  0  0  0  0  0  0  0  0
    0.2273   -0.3475   -0.9228 C   0  0  0  0  0  0  0  0  0  0  0  0
   -0.4323    0.4142   -0.1752 C   0  0  0  0  0  0  0  0  0  0  0  0
   -1.7983    0.1773    0.0367 C   0  0  0  0  0  0  0  0  0  0  0  0
   -2.2799   -0.9564   -0.6596 C   0  0  0  0  0  0  0  0  0  0  0  0
   -1.8822   -2.6055   -1.9829 H   0  0  0  0  0  0  0  0  0  0  0  0
    0.5879   -2.0589   -2.2824 H   0  0  0  0  0  0  0  0  0  0  0  0
    0.2554    1.9116    0.7689 H   0  0  0  0  0  0  0  0  0  0  0  0
   -2.4311    0.7919    0.6646 H   0  0  0  0  0  0  0  0  0  0  0  0
    3.4107   -0.2387   -1.6307 N   0  0  0  0  0  0  0  0  0  0  0  0
    4.3243    0.3289   -1.3767 N   0  0  0  0  0  0  0  0  0  0  0  0
    0.5586    2.9766    1.4944 Cl  0  0  0  0  0  0  0  0  0  0  0  0
   -3.5726   -1.3830   -0.6058 O   0  0  0  0  0  0  0  0  0  0  0  0
   -4.4901   -0.6548    0.1983 C   0  0  0  0  0  0  0  0  0  0  0  0
   -5.4471   -1.1691    0.1015 H   0  0  0  0  0  0  0  0  0  0  0  0
   -4.5987    0.3800   -0.1507 H   0  0  0  0  0  0  0  0  0  0  0  0
   -4.1857   -0.6499    1.2527 H   0  0  0  0  0  0  0  0  0  0  0  0
  1  6  1  0  0  0  0
  2  1  2  0  0  0  0
  2  3  1  0  0  0  0
  3  4  2  0  0  0  0
  4  5  1  0  0  0  0
  5 10  1  0  0  0  0
  6 14  1  0  0  0  0
  6  5  2  0  0  0  0
  7  1  1  0  0  0  0
  8  2  1  0  0  0  0
  9 13  1  0  0  0  0
 11 12  3  0  0  0  0
 14 15  1  0  0  0  0
 15 18  1  0  0  0  0
 16 15  1  0  0  0  0
 17 15  1  0  0  0  0
M  RAD  2   3   2   4   2
M  END
