Coordinates from ORCA-job 4-MeO-Ph-N2-Cl-B3LYPG-6-31G_dp-MTMO-d009-169-n800
 OpenBabel09051908443D

 18 17  0  0  0  0  0  0  0  0999 V2000
   -1.3635   -1.7541   -1.4975 C   0  0  0  0  0  0  0  0  0  0  0  0
   -0.0131   -1.4372   -1.6298 C   0  0  0  0  0  0  0  0  0  0  0  0
    0.3792   -0.3322   -0.9148 C   0  0  0  0  0  0  0  0  0  0  0  0
   -0.3430    0.4928   -0.1071 C   0  0  0  0  0  0  0  0  0  0  0  0
   -1.6999    0.1472    0.0039 C   0  0  0  0  0  0  0  0  0  0  0  0
   -2.2058   -0.9679   -0.6848 C   0  0  0  0  0  0  0  0  0  0  0  0
   -1.7875   -2.6082   -2.0142 H   0  0  0  0  0  0  0  0  0  0  0  0
    0.6668   -2.0150   -2.2431 H   0  0  0  0  0  0  0  0  0  0  0  0
    0.1142    1.3415    0.4007 H   0  0  0  0  0  0  0  0  0  0  0  0
   -2.3380    0.7605    0.6282 H   0  0  0  0  0  0  0  0  0  0  0  0
    2.2246    0.0835   -1.1057 N   0  0  0  0  0  0  0  0  0  0  0  0
    2.9064    0.8931   -0.6773 N   0  0  0  0  0  0  0  0  0  0  0  0
    2.1112    2.5180    0.7770 Cl  0  0  0  0  0  0  0  0  0  0  0  0
   -3.4974   -1.3756   -0.6346 O   0  0  0  0  0  0  0  0  0  0  0  0
   -4.4151   -0.6429    0.1705 C   0  0  0  0  0  0  0  0  0  0  0  0
   -5.3739   -1.1511    0.0653 H   0  0  0  0  0  0  0  0  0  0  0  0
   -4.5140    0.3929   -0.1762 H   0  0  0  0  0  0  0  0  0  0  0  0
   -4.1149   -0.6479    1.2254 H   0  0  0  0  0  0  0  0  0  0  0  0
  1  6  1  0  0  0  0
  2  1  2  0  0  0  0
  2  3  1  0  0  0  0
  3  4  2  0  0  0  0
  4  5  1  0  0  0  0
  4  9  1  0  0  0  0
  5 10  1  0  0  0  0
  6 14  1  0  0  0  0
  6  5  2  0  0  0  0
  7  1  1  0  0  0  0
  8  2  1  0  0  0  0
 11  3  1  0  0  0  0
 11 12  2  0  0  0  0
 14 15  1  0  0  0  0
 15 18  1  0  0  0  0
 16 15  1  0  0  0  0
 17 15  1  0  0  0  0
M  RAD  2  12   2  13   2
M  END
