Coordinates from ORCA-job 4-MeO-Ph-N2-Cl-B3LYPG-6-31G_dp-MTMO-d009-169-n800
 OpenBabel09051908443D

 18 17  0  0  0  0  0  0  0  0999 V2000
   -1.3323   -1.7277   -1.4893 C   0  0  0  0  0  0  0  0  0  0  0  0
    0.0077   -1.3883   -1.5992 C   0  0  0  0  0  0  0  0  0  0  0  0
    0.4443   -0.2782   -0.8882 C   0  0  0  0  0  0  0  0  0  0  0  0
   -0.3515    0.5134   -0.0824 C   0  0  0  0  0  0  0  0  0  0  0  0
   -1.6991    0.1577    0.0165 C   0  0  0  0  0  0  0  0  0  0  0  0
   -2.1917   -0.9576   -0.6812 C   0  0  0  0  0  0  0  0  0  0  0  0
   -1.7419   -2.5831   -2.0147 H   0  0  0  0  0  0  0  0  0  0  0  0
    0.6940   -1.9610   -2.2118 H   0  0  0  0  0  0  0  0  0  0  0  0
    0.0655    1.3664    0.4406 H   0  0  0  0  0  0  0  0  0  0  0  0
   -2.3502    0.7597    0.6382 H   0  0  0  0  0  0  0  0  0  0  0  0
    2.0423    0.0441   -1.0760 N   0  0  0  0  0  0  0  0  0  0  0  0
    2.8210    0.8186   -0.7054 N   0  0  0  0  0  0  0  0  0  0  0  0
    2.2210    2.4303    0.6554 Cl  0  0  0  0  0  0  0  0  0  0  0  0
   -3.4784   -1.3767   -0.6434 O   0  0  0  0  0  0  0  0  0  0  0  0
   -4.4115   -0.6578    0.1572 C   0  0  0  0  0  0  0  0  0  0  0  0
   -5.3637   -1.1758    0.0403 H   0  0  0  0  0  0  0  0  0  0  0  0
   -4.5180    0.3785   -0.1851 H   0  0  0  0  0  0  0  0  0  0  0  0
   -4.1208   -0.6653    1.2146 H   0  0  0  0  0  0  0  0  0  0  0  0
  1  6  1  0  0  0  0
  2  1  2  0  0  0  0
  2  3  1  0  0  0  0
  3  4  2  0  0  0  0
  4  5  1  0  0  0  0
  4  9  1  0  0  0  0
  5 10  1  0  0  0  0
  6 14  1  0  0  0  0
  6  5  2  0  0  0  0
  7  1  1  0  0  0  0
  8  2  1  0  0  0  0
 11  3  1  0  0  0  0
 11 12  2  0  0  0  0
 14 15  1  0  0  0  0
 15 18  1  0  0  0  0
 16 15  1  0  0  0  0
 17 15  1  0  0  0  0
M  RAD  2  12   2  13   2
M  END
