Coordinates from ORCA-job 4-MeO-Ph-N2-Cl-B3LYPG-6-31G_dp-MTMO-d009-169-n800
 OpenBabel09051908453D

 18 16  0  0  0  0  0  0  0  0999 V2000
   -0.9410    0.5749   -0.9223 C   0  0  0  0  0  0  0  0  0  0  0  0
   -0.0512    1.5122   -0.3765 C   0  0  0  0  0  0  0  0  0  0  0  0
   -0.5843    1.9710    0.8075 C   0  0  0  0  0  0  0  0  0  0  0  0
   -1.6402    1.7225    1.4366 C   0  0  0  0  0  0  0  0  0  0  0  0
   -2.5665    0.7959    0.9408 C   0  0  0  0  0  0  0  0  0  0  0  0
   -2.1638    0.2217   -0.2886 C   0  0  0  0  0  0  0  0  0  0  0  0
   -0.7060    0.0904   -1.8647 H   0  0  0  0  0  0  0  0  0  0  0  0
    0.8837    1.7921   -0.8448 H   0  0  0  0  0  0  0  0  0  0  0  0
   -2.1559    2.5310    3.1035 H   0  0  0  0  0  0  0  0  0  0  0  0
   -3.4948    0.5371    1.4332 H   0  0  0  0  0  0  0  0  0  0  0  0
    6.3582   -7.2487   -6.8238 N   0  0  0  0  0  0  0  0  0  0  0  0
    6.8918   -8.1911   -7.0445 N   0  0  0  0  0  0  0  0  0  0  0  0
   -2.6855    2.9650    4.2326 Cl  0  0  0  0  0  0  0  0  0  0  0  0
   -2.8983   -0.7049   -0.9653 O   0  0  0  0  0  0  0  0  0  0  0  0
   -4.1350   -1.1259   -0.4055 C   0  0  0  0  0  0  0  0  0  0  0  0
   -4.5440   -1.8596   -1.1015 H   0  0  0  0  0  0  0  0  0  0  0  0
   -4.8376   -0.2889   -0.3060 H   0  0  0  0  0  0  0  0  0  0  0  0
   -3.9932   -1.5974    0.5753 H   0  0  0  0  0  0  0  0  0  0  0  0
  1  2  2  0  0  0  0
  1  6  1  0  0  0  0
  2  3  1  0  0  0  0
  3  4  2  0  0  0  0
  5 10  1  0  0  0  0
  5  4  1  0  0  0  0
  6  5  2  0  0  0  0
  7  1  1  0  0  0  0
  8  2  1  0  0  0  0
  9 13  1  0  0  0  0
 12 11  3  0  0  0  0
 14 15  1  0  0  0  0
 14  6  1  0  0  0  0
 15 17  1  0  0  0  0
 15 18  1  0  0  0  0
 16 15  1  0  0  0  0
M  RAD  2   3   2   4   2
M  END
