Coordinates from ORCA-job 4-MeO-Ph-N2-Cl-B3LYPG-6-31G_dp-MTMO-d009-169-n800
 OpenBabel09051908453D

 18 16  0  0  0  0  0  0  0  0999 V2000
   -1.0368    0.6654   -0.8622 C   0  0  0  0  0  0  0  0  0  0  0  0
   -0.1442    1.6000   -0.3163 C   0  0  0  0  0  0  0  0  0  0  0  0
   -0.6698    2.0507    0.8741 C   0  0  0  0  0  0  0  0  0  0  0  0
   -1.7212    1.7973    1.5087 C   0  0  0  0  0  0  0  0  0  0  0  0
   -2.6499    0.8729    1.0131 C   0  0  0  0  0  0  0  0  0  0  0  0
   -2.2550    0.3070   -0.2225 C   0  0  0  0  0  0  0  0  0  0  0  0
   -0.8075    0.1871   -1.8092 H   0  0  0  0  0  0  0  0  0  0  0  0
    0.7873    1.8837   -0.7891 H   0  0  0  0  0  0  0  0  0  0  0  0
   -2.2280    2.5947    3.1830 H   0  0  0  0  0  0  0  0  0  0  0  0
   -3.5747    0.6101    1.5101 H   0  0  0  0  0  0  0  0  0  0  0  0
    7.0575   -7.8973   -7.3757 N   0  0  0  0  0  0  0  0  0  0  0  0
    7.5915   -8.8398   -7.5954 N   0  0  0  0  0  0  0  0  0  0  0  0
   -2.7511    3.0217    4.3180 Cl  0  0  0  0  0  0  0  0  0  0  0  0
   -2.9931   -0.6161   -0.9003 O   0  0  0  0  0  0  0  0  0  0  0  0
   -4.2254   -1.0421   -0.3347 C   0  0  0  0  0  0  0  0  0  0  0  0
   -4.6384   -1.7717   -1.0326 H   0  0  0  0  0  0  0  0  0  0  0  0
   -4.9283   -0.2066   -0.2251 H   0  0  0  0  0  0  0  0  0  0  0  0
   -4.0765   -1.5196    0.6421 H   0  0  0  0  0  0  0  0  0  0  0  0
  1  2  2  0  0  0  0
  1  6  1  0  0  0  0
  2  3  1  0  0  0  0
  3  4  2  0  0  0  0
  5  4  1  0  0  0  0
  5 10  1  0  0  0  0
  6  5  2  0  0  0  0
  7  1  1  0  0  0  0
  8  2  1  0  0  0  0
  9 13  1  0  0  0  0
 12 11  3  0  0  0  0
 14 15  1  0  0  0  0
 14  6  1  0  0  0  0
 15 17  1  0  0  0  0
 15 18  1  0  0  0  0
 16 15  1  0  0  0  0
M  RAD  2   3   2   4   2
M  END
