Coordinates from ORCA-job 4-MeO-Ph-N2-Cl-B3LYPG-6-31G_dp-MTMO-d009-169-n800
 OpenBabel09051908453D

 18 16  0  0  0  0  0  0  0  0999 V2000
   -0.9516    0.5884   -0.9105 C   0  0  0  0  0  0  0  0  0  0  0  0
   -0.0639    1.5272   -0.3641 C   0  0  0  0  0  0  0  0  0  0  0  0
   -0.5991    1.9858    0.8191 C   0  0  0  0  0  0  0  0  0  0  0  0
   -1.6552    1.7359    1.4470 C   0  0  0  0  0  0  0  0  0  0  0  0
   -2.5796    0.8076    0.9507 C   0  0  0  0  0  0  0  0  0  0  0  0
   -2.1746    0.2335   -0.2780 C   0  0  0  0  0  0  0  0  0  0  0  0
   -0.7147    0.1037   -1.8524 H   0  0  0  0  0  0  0  0  0  0  0  0
    0.8711    1.8084   -0.8315 H   0  0  0  0  0  0  0  0  0  0  0  0
   -2.1730    2.5446    3.1135 H   0  0  0  0  0  0  0  0  0  0  0  0
   -3.5081    0.5476    1.4421 H   0  0  0  0  0  0  0  0  0  0  0  0
    6.4535   -7.3440   -6.9059 N   0  0  0  0  0  0  0  0  0  0  0  0
    6.9860   -8.2865   -7.1287 N   0  0  0  0  0  0  0  0  0  0  0  0
   -2.7040    2.9783    4.2421 Cl  0  0  0  0  0  0  0  0  0  0  0  0
   -2.9068   -0.6946   -0.9551 O   0  0  0  0  0  0  0  0  0  0  0  0
   -4.1435   -1.1173   -0.3965 C   0  0  0  0  0  0  0  0  0  0  0  0
   -4.5506   -1.8519   -1.0926 H   0  0  0  0  0  0  0  0  0  0  0  0
   -4.8475   -0.2814   -0.2982 H   0  0  0  0  0  0  0  0  0  0  0  0
   -4.0021   -1.5881    0.5847 H   0  0  0  0  0  0  0  0  0  0  0  0
  1  2  2  0  0  0  0
  1  6  1  0  0  0  0
  2  3  1  0  0  0  0
  3  4  2  0  0  0  0
  5 10  1  0  0  0  0
  5  4  1  0  0  0  0
  6  5  2  0  0  0  0
  7  1  1  0  0  0  0
  8  2  1  0  0  0  0
  9 13  1  0  0  0  0
 12 11  3  0  0  0  0
 14 15  1  0  0  0  0
 14  6  1  0  0  0  0
 15 17  1  0  0  0  0
 15 18  1  0  0  0  0
 16 15  1  0  0  0  0
M  RAD  2   3   2   4   2
M  END
