Coordinates from ORCA-job 4-MeO-Ph-N2-Cl-B3LYPG-6-31G_dp-MTMO-d009-169-n800
 OpenBabel09051908453D

 18 16  0  0  0  0  0  0  0  0999 V2000
   -0.8206    0.4568   -1.0242 C   0  0  0  0  0  0  0  0  0  0  0  0
    0.0722    1.3914   -0.4788 C   0  0  0  0  0  0  0  0  0  0  0  0
   -0.4590    1.8507    0.7056 C   0  0  0  0  0  0  0  0  0  0  0  0
   -1.5145    1.6059    1.3368 C   0  0  0  0  0  0  0  0  0  0  0  0
   -2.4433    0.6814    0.8406 C   0  0  0  0  0  0  0  0  0  0  0  0
   -2.0437    0.1067   -0.3892 C   0  0  0  0  0  0  0  0  0  0  0  0
   -0.5877   -0.0279   -1.9671 H   0  0  0  0  0  0  0  0  0  0  0  0
    1.0073    1.6690   -0.9481 H   0  0  0  0  0  0  0  0  0  0  0  0
   -2.0249    2.4146    3.0020 H   0  0  0  0  0  0  0  0  0  0  0  0
   -3.3719    0.4249    1.3338 H   0  0  0  0  0  0  0  0  0  0  0  0
    5.3832   -6.3291   -6.0193 N   0  0  0  0  0  0  0  0  0  0  0  0
    5.9172   -7.2715   -6.2395 N   0  0  0  0  0  0  0  0  0  0  0  0
   -2.5514    2.8507    4.1324 Cl  0  0  0  0  0  0  0  0  0  0  0  0
   -2.7814   -0.8178   -1.0655 O   0  0  0  0  0  0  0  0  0  0  0  0
   -4.0186   -1.2357   -0.5046 C   0  0  0  0  0  0  0  0  0  0  0  0
   -4.4303   -1.9679   -1.2006 H   0  0  0  0  0  0  0  0  0  0  0  0
   -4.7189   -0.3968   -0.4041 H   0  0  0  0  0  0  0  0  0  0  0  0
   -3.8772   -1.7079    0.4758 H   0  0  0  0  0  0  0  0  0  0  0  0
  1  2  2  0  0  0  0
  1  6  1  0  0  0  0
  2  3  1  0  0  0  0
  3  4  2  0  0  0  0
  5 10  1  0  0  0  0
  5  4  1  0  0  0  0
  6  5  2  0  0  0  0
  7  1  1  0  0  0  0
  8  2  1  0  0  0  0
  9 13  1  0  0  0  0
 12 11  3  0  0  0  0
 14 15  1  0  0  0  0
 14  6  1  0  0  0  0
 15 17  1  0  0  0  0
 15 18  1  0  0  0  0
 16 15  1  0  0  0  0
M  RAD  2   3   2   4   2
M  END
