Coordinates from ORCA-job 4-MeO-Ph-N2-Cl-B3LYPG-6-31G_dp-MTMO-d009-169-n800
 OpenBabel09051908443D

 18 16  0  0  0  0  0  0  0  0999 V2000
   -0.6022   -0.4130   -0.6532 C   0  0  0  0  0  0  0  0  0  0  0  0
    0.4001    0.4543   -0.1934 C   0  0  0  0  0  0  0  0  0  0  0  0
   -0.1773    1.3603    0.6686 C   0  0  0  0  0  0  0  0  0  0  0  0
   -1.3478    1.5361    1.0826 C   0  0  0  0  0  0  0  0  0  0  0  0
   -2.3902    0.7020    0.6594 C   0  0  0  0  0  0  0  0  0  0  0  0
   -1.9590   -0.2991   -0.2439 C   0  0  0  0  0  0  0  0  0  0  0  0
   -0.3523   -1.2100   -1.3468 H   0  0  0  0  0  0  0  0  0  0  0  0
    1.4374    0.3816   -0.4953 H   0  0  0  0  0  0  0  0  0  0  0  0
   -1.9090    2.9179    2.2940 H   0  0  0  0  0  0  0  0  0  0  0  0
   -3.4196    0.8002    0.9797 H   0  0  0  0  0  0  0  0  0  0  0  0
    4.7875   -4.8307   -5.5975 N   0  0  0  0  0  0  0  0  0  0  0  0
    5.3020   -5.4529   -6.3523 N   0  0  0  0  0  0  0  0  0  0  0  0
   -2.4965    3.7809    3.1030 Cl  0  0  0  0  0  0  0  0  0  0  0  0
   -2.7902   -1.2283   -0.7931 O   0  0  0  0  0  0  0  0  0  0  0  0
   -4.1665   -1.1942   -0.4404 C   0  0  0  0  0  0  0  0  0  0  0  0
   -4.6361   -2.0122   -0.9878 H   0  0  0  0  0  0  0  0  0  0  0  0
   -4.6340   -0.2461   -0.7341 H   0  0  0  0  0  0  0  0  0  0  0  0
   -4.3100   -1.3496    0.6363 H   0  0  0  0  0  0  0  0  0  0  0  0
  1  6  2  0  0  0  0
  1  2  1  0  0  0  0
  2  3  2  0  0  0  0
  3  4  1  0  0  0  0
  5 10  1  0  0  0  0
  5  4  2  0  0  0  0
  6  5  1  0  0  0  0
  7  1  1  0  0  0  0
  8  2  1  0  0  0  0
  9 13  1  0  0  0  0
 12 11  3  0  0  0  0
 14 15  1  0  0  0  0
 14  6  1  0  0  0  0
 15 18  1  0  0  0  0
 16 15  1  0  0  0  0
 17 15  1  0  0  0  0
M  RAD  2   3   2   4   2
M  END
