Coordinates from ORCA-job 4-MeO-Ph-N2-Cl-B3LYPG-6-31G_dp-MTMO-d009-169-n800
 OpenBabel09051908453D

 18 16  0  0  0  0  0  0  0  0999 V2000
   -0.9755    0.6073   -0.9005 C   0  0  0  0  0  0  0  0  0  0  0  0
   -0.0846    1.5435   -0.3547 C   0  0  0  0  0  0  0  0  0  0  0  0
   -0.6151    1.9996    0.8316 C   0  0  0  0  0  0  0  0  0  0  0  0
   -1.6694    1.7495    1.4627 C   0  0  0  0  0  0  0  0  0  0  0  0
   -2.5966    0.8237    0.9669 C   0  0  0  0  0  0  0  0  0  0  0  0
   -2.1968    0.2524   -0.2647 C   0  0  0  0  0  0  0  0  0  0  0  0
   -0.7426    0.1249   -1.8446 H   0  0  0  0  0  0  0  0  0  0  0  0
    0.8491    1.8247   -0.8246 H   0  0  0  0  0  0  0  0  0  0  0  0
   -2.1821    2.5541    3.1319 H   0  0  0  0  0  0  0  0  0  0  0  0
   -3.5237    0.5636    1.4609 H   0  0  0  0  0  0  0  0  0  0  0  0
    6.6108   -7.4827   -7.0232 N   0  0  0  0  0  0  0  0  0  0  0  0
    7.1447   -8.4251   -7.2433 N   0  0  0  0  0  0  0  0  0  0  0  0
   -2.7092    2.9860    4.2631 Cl  0  0  0  0  0  0  0  0  0  0  0  0
   -2.9326   -0.6729   -0.9418 O   0  0  0  0  0  0  0  0  0  0  0  0
   -4.1678   -1.0956   -0.3799 C   0  0  0  0  0  0  0  0  0  0  0  0
   -4.5783   -1.8278   -1.0765 H   0  0  0  0  0  0  0  0  0  0  0  0
   -4.8704   -0.2590   -0.2768 H   0  0  0  0  0  0  0  0  0  0  0  0
   -4.0235   -1.5692    0.5995 H   0  0  0  0  0  0  0  0  0  0  0  0
  1  2  2  0  0  0  0
  1  6  1  0  0  0  0
  2  3  1  0  0  0  0
  3  4  2  0  0  0  0
  5 10  1  0  0  0  0
  5  4  1  0  0  0  0
  6  5  2  0  0  0  0
  7  1  1  0  0  0  0
  8  2  1  0  0  0  0
  9 13  1  0  0  0  0
 12 11  3  0  0  0  0
 14 15  1  0  0  0  0
 14  6  1  0  0  0  0
 15 17  1  0  0  0  0
 15 18  1  0  0  0  0
 16 15  1  0  0  0  0
M  RAD  2   3   2   4   2
M  END
