Coordinates from ORCA-job 4-MeO-Ph-N2-Cl-B3LYPG-6-31G_dp-MTMO-d009-169-n800
 OpenBabel09051908443D

 18 16  0  0  0  0  0  0  0  0999 V2000
   -0.7653   -0.9755   -0.9962 C   0  0  0  0  0  0  0  0  0  0  0  0
    0.4221   -0.2716   -0.7446 C   0  0  0  0  0  0  0  0  0  0  0  0
    0.1268    0.7795    0.0948 C   0  0  0  0  0  0  0  0  0  0  0  0
   -0.9281    1.1905    0.6341 C   0  0  0  0  0  0  0  0  0  0  0  0
   -2.1435    0.5276    0.4190 C   0  0  0  0  0  0  0  0  0  0  0  0
   -2.0146   -0.5931   -0.4354 C   0  0  0  0  0  0  0  0  0  0  0  0
   -0.7504   -1.8500   -1.6394 H   0  0  0  0  0  0  0  0  0  0  0  0
    1.3807   -0.5494   -1.1639 H   0  0  0  0  0  0  0  0  0  0  0  0
   -1.0604    2.7068    1.8015 H   0  0  0  0  0  0  0  0  0  0  0  0
   -3.0879    0.8293    0.8532 H   0  0  0  0  0  0  0  0  0  0  0  0
    3.8520   -2.8629   -3.8035 N   0  0  0  0  0  0  0  0  0  0  0  0
    4.5349   -3.3584   -4.5174 N   0  0  0  0  0  0  0  0  0  0  0  0
   -1.3571    3.7015    2.6186 Cl  0  0  0  0  0  0  0  0  0  0  0  0
   -3.0574   -1.3942   -0.7920 O   0  0  0  0  0  0  0  0  0  0  0  0
   -4.3472   -1.0918   -0.2776 C   0  0  0  0  0  0  0  0  0  0  0  0
   -5.0178   -1.8478   -0.6876 H   0  0  0  0  0  0  0  0  0  0  0  0
   -4.6847   -0.0976   -0.5961 H   0  0  0  0  0  0  0  0  0  0  0  0
   -4.3659   -1.1457    0.8183 H   0  0  0  0  0  0  0  0  0  0  0  0
  1  2  2  0  0  0  0
  1  6  1  0  0  0  0
  2  3  1  0  0  0  0
  3  4  2  0  0  0  0
  5  4  1  0  0  0  0
  5 10  1  0  0  0  0
  6  5  2  0  0  0  0
  7  1  1  0  0  0  0
  8  2  1  0  0  0  0
  9 13  1  0  0  0  0
 12 11  3  0  0  0  0
 14  6  1  0  0  0  0
 14 15  1  0  0  0  0
 15 18  1  0  0  0  0
 16 15  1  0  0  0  0
 17 15  1  0  0  0  0
M  RAD  2   3   2   4   2
M  END
