Coordinates from ORCA-job 4-MeO-Ph-N2-Cl-B3LYPG-6-31G_dp-MTMO-d009-169-n800
 OpenBabel09051908453D

 18 16  0  0  0  0  0  0  0  0999 V2000
   -0.7893    0.4254   -1.0493 C   0  0  0  0  0  0  0  0  0  0  0  0
    0.1043    1.3597   -0.5044 C   0  0  0  0  0  0  0  0  0  0  0  0
   -0.4263    1.8209    0.6797 C   0  0  0  0  0  0  0  0  0  0  0  0
   -1.4825    1.5765    1.3098 C   0  0  0  0  0  0  0  0  0  0  0  0
   -2.4125    0.6530    0.8150 C   0  0  0  0  0  0  0  0  0  0  0  0
   -2.0129    0.0769   -0.4144 C   0  0  0  0  0  0  0  0  0  0  0  0
   -0.5567   -0.0603   -1.9916 H   0  0  0  0  0  0  0  0  0  0  0  0
    1.0398    1.6360   -0.9737 H   0  0  0  0  0  0  0  0  0  0  0  0
   -1.9934    2.3871    2.9768 H   0  0  0  0  0  0  0  0  0  0  0  0
   -3.3414    0.3977    1.3083 H   0  0  0  0  0  0  0  0  0  0  0  0
    5.1377   -6.0949   -5.8153 N   0  0  0  0  0  0  0  0  0  0  0  0
    5.6684   -7.0383   -6.0387 N   0  0  0  0  0  0  0  0  0  0  0  0
   -2.5203    2.8233    4.1065 Cl  0  0  0  0  0  0  0  0  0  0  0  0
   -2.7512   -0.8474   -1.0902 O   0  0  0  0  0  0  0  0  0  0  0  0
   -3.9891   -1.2635   -0.5294 C   0  0  0  0  0  0  0  0  0  0  0  0
   -4.4013   -1.9959   -1.2249 H   0  0  0  0  0  0  0  0  0  0  0  0
   -4.6884   -0.4238   -0.4298 H   0  0  0  0  0  0  0  0  0  0  0  0
   -3.8485   -1.7352    0.4514 H   0  0  0  0  0  0  0  0  0  0  0  0
  1  2  2  0  0  0  0
  1  6  1  0  0  0  0
  2  3  1  0  0  0  0
  3  4  2  0  0  0  0
  5 10  1  0  0  0  0
  5  4  1  0  0  0  0
  6  5  2  0  0  0  0
  7  1  1  0  0  0  0
  8  2  1  0  0  0  0
  9 13  1  0  0  0  0
 12 11  3  0  0  0  0
 14 15  1  0  0  0  0
 14  6  1  0  0  0  0
 15 17  1  0  0  0  0
 15 18  1  0  0  0  0
 16 15  1  0  0  0  0
M  RAD  2   3   2   4   2
M  END
