Coordinates from ORCA-job 4-MeO-Ph-N2-Cl-B3LYPG-6-31G_dp-MTMO-d009-169-n800
 OpenBabel09051908443D

 18 16  0  0  0  0  0  0  0  0999 V2000
   -0.8061   -1.0589   -1.0718 C   0  0  0  0  0  0  0  0  0  0  0  0
    0.4087   -0.3890   -0.8610 C   0  0  0  0  0  0  0  0  0  0  0  0
    0.1688    0.6745   -0.0197 C   0  0  0  0  0  0  0  0  0  0  0  0
   -0.8559    1.1205    0.5494 C   0  0  0  0  0  0  0  0  0  0  0  0
   -2.0960    0.4920    0.3747 C   0  0  0  0  0  0  0  0  0  0  0  0
   -2.0260   -0.6367   -0.4759 C   0  0  0  0  0  0  0  0  0  0  0  0
   -0.8364   -1.9370   -1.7095 H   0  0  0  0  0  0  0  0  0  0  0  0
    1.3453   -0.6981   -1.3078 H   0  0  0  0  0  0  0  0  0  0  0  0
   -0.9096    2.6389    1.7140 H   0  0  0  0  0  0  0  0  0  0  0  0
   -3.0177    0.8239    0.8348 H   0  0  0  0  0  0  0  0  0  0  0  0
    3.6728   -2.5211   -3.4726 N   0  0  0  0  0  0  0  0  0  0  0  0
    4.4144   -2.9898   -4.1448 N   0  0  0  0  0  0  0  0  0  0  0  0
   -1.1519    3.6433    2.5380 Cl  0  0  0  0  0  0  0  0  0  0  0  0
   -3.1024   -1.4087   -0.7958 O   0  0  0  0  0  0  0  0  0  0  0  0
   -4.3657   -1.0679   -0.2414 C   0  0  0  0  0  0  0  0  0  0  0  0
   -5.0703   -1.8059   -0.6262 H   0  0  0  0  0  0  0  0  0  0  0  0
   -4.6851   -0.0657   -0.5533 H   0  0  0  0  0  0  0  0  0  0  0  0
   -4.3503   -1.1173    0.8548 H   0  0  0  0  0  0  0  0  0  0  0  0
  1  2  2  0  0  0  0
  1  6  1  0  0  0  0
  2  3  1  0  0  0  0
  3  4  2  0  0  0  0
  5  4  1  0  0  0  0
  5 10  1  0  0  0  0
  6  5  2  0  0  0  0
  7  1  1  0  0  0  0
  8  2  1  0  0  0  0
  9 13  1  0  0  0  0
 12 11  3  0  0  0  0
 14  6  1  0  0  0  0
 14 15  1  0  0  0  0
 15 18  1  0  0  0  0
 16 15  1  0  0  0  0
 17 15  1  0  0  0  0
M  RAD  2   3   2   4   2
M  END
