Coordinates from ORCA-job 4-MeO-Ph-N2-Cl-B3LYPG-6-31G_dp-MTMO-d009-169-n800
 OpenBabel09051908453D

 18 16  0  0  0  0  0  0  0  0999 V2000
   -0.9430    0.5716   -0.9521 C   0  0  0  0  0  0  0  0  0  0  0  0
   -0.0452    1.5017   -0.4070 C   0  0  0  0  0  0  0  0  0  0  0  0
   -0.5641    1.9494    0.7874 C   0  0  0  0  0  0  0  0  0  0  0  0
   -1.6132    1.6972    1.4265 C   0  0  0  0  0  0  0  0  0  0  0  0
   -2.5466    0.7770    0.9316 C   0  0  0  0  0  0  0  0  0  0  0  0
   -2.1592    0.2144   -0.3079 C   0  0  0  0  0  0  0  0  0  0  0  0
   -0.7196    0.0960   -1.9018 H   0  0  0  0  0  0  0  0  0  0  0  0
    0.8848    1.7844   -0.8832 H   0  0  0  0  0  0  0  0  0  0  0  0
   -2.1119    2.4895    3.1039 H   0  0  0  0  0  0  0  0  0  0  0  0
   -3.4699    0.5152    1.4319 H   0  0  0  0  0  0  0  0  0  0  0  0
    6.2618   -7.1415   -6.7063 N   0  0  0  0  0  0  0  0  0  0  0  0
    6.7969   -8.0838   -6.9238 N   0  0  0  0  0  0  0  0  0  0  0  0
   -2.6287    2.9151    4.2426 Cl  0  0  0  0  0  0  0  0  0  0  0  0
   -2.9032   -0.7041   -0.9854 O   0  0  0  0  0  0  0  0  0  0  0  0
   -4.1341   -1.1286   -0.4155 C   0  0  0  0  0  0  0  0  0  0  0  0
   -4.5524   -1.8546   -1.1141 H   0  0  0  0  0  0  0  0  0  0  0  0
   -4.8340   -0.2915   -0.2997 H   0  0  0  0  0  0  0  0  0  0  0  0
   -3.9819   -1.6100    0.5588 H   0  0  0  0  0  0  0  0  0  0  0  0
  1  2  2  0  0  0  0
  1  6  1  0  0  0  0
  2  3  1  0  0  0  0
  3  4  2  0  0  0  0
  5  4  1  0  0  0  0
  5 10  1  0  0  0  0
  6  5  2  0  0  0  0
  7  1  1  0  0  0  0
  8  2  1  0  0  0  0
  9 13  1  0  0  0  0
 12 11  3  0  0  0  0
 14 15  1  0  0  0  0
 14  6  1  0  0  0  0
 15 17  1  0  0  0  0
 15 18  1  0  0  0  0
 16 15  1  0  0  0  0
M  RAD  2   3   2   4   2
M  END
