Coordinates from ORCA-job 4-MeO-Ph-N2-Cl-B3LYPG-6-31G_dp-MTMO-d009-169-n800
 OpenBabel09051908453D

 18 16  0  0  0  0  0  0  0  0999 V2000
   -0.7509    0.3813   -1.0969 C   0  0  0  0  0  0  0  0  0  0  0  0
    0.1484    1.3106   -0.5533 C   0  0  0  0  0  0  0  0  0  0  0  0
   -0.3748    1.7686    0.6354 C   0  0  0  0  0  0  0  0  0  0  0  0
   -1.4282    1.5259    1.2709 C   0  0  0  0  0  0  0  0  0  0  0  0
   -2.3633    0.6068    0.7768 C   0  0  0  0  0  0  0  0  0  0  0  0
   -1.9722    0.0342   -0.4568 C   0  0  0  0  0  0  0  0  0  0  0  0
   -0.5249   -0.1015   -2.0424 H   0  0  0  0  0  0  0  0  0  0  0  0
    1.0823    1.5860   -1.0262 H   0  0  0  0  0  0  0  0  0  0  0  0
   -1.9268    2.3312    2.9421 H   0  0  0  0  0  0  0  0  0  0  0  0
   -3.2904    0.3524    1.2738 H   0  0  0  0  0  0  0  0  0  0  0  0
    4.7771   -5.7366   -5.4906 N   0  0  0  0  0  0  0  0  0  0  0  0
    5.3064   -6.6808   -5.7144 N   0  0  0  0  0  0  0  0  0  0  0  0
   -2.4462    2.7650    4.0765 Cl  0  0  0  0  0  0  0  0  0  0  0  0
   -2.7171   -0.8851   -1.1322 O   0  0  0  0  0  0  0  0  0  0  0  0
   -3.9532   -1.2996   -0.5664 C   0  0  0  0  0  0  0  0  0  0  0  0
   -4.3715   -2.0279   -1.2626 H   0  0  0  0  0  0  0  0  0  0  0  0
   -4.6494   -0.4581   -0.4598 H   0  0  0  0  0  0  0  0  0  0  0  0
   -3.8090   -1.7755    0.4119 H   0  0  0  0  0  0  0  0  0  0  0  0
  1  2  2  0  0  0  0
  1  6  1  0  0  0  0
  2  3  1  0  0  0  0
  3  4  2  0  0  0  0
  5  4  1  0  0  0  0
  5 10  1  0  0  0  0
  6  5  2  0  0  0  0
  7  1  1  0  0  0  0
  8  2  1  0  0  0  0
  9 13  1  0  0  0  0
 12 11  3  0  0  0  0
 14 15  1  0  0  0  0
 14  6  1  0  0  0  0
 15 17  1  0  0  0  0
 15 18  1  0  0  0  0
 16 15  1  0  0  0  0
M  RAD  2   3   2   4   2
M  END
