Coordinates from ORCA-job 4-MeO-Ph-N2-Cl-B3LYPG-6-31G_dp-MTMO-d009-169-n800
 OpenBabel09051908443D

 18 16  0  0  0  0  0  0  0  0999 V2000
   -1.2375   -1.5351   -1.3604 C   0  0  0  0  0  0  0  0  0  0  0  0
    0.0927   -1.0944   -1.4335 C   0  0  0  0  0  0  0  0  0  0  0  0
    0.2081    0.0395   -0.6613 C   0  0  0  0  0  0  0  0  0  0  0  0
   -0.5909    0.7005    0.0446 C   0  0  0  0  0  0  0  0  0  0  0  0
   -1.9317    0.3063    0.1524 C   0  0  0  0  0  0  0  0  0  0  0  0
   -2.2260   -0.8598   -0.5932 C   0  0  0  0  0  0  0  0  0  0  0  0
   -1.5438   -2.4243   -1.9025 H   0  0  0  0  0  0  0  0  0  0  0  0
    0.8624   -1.5914   -2.0095 H   0  0  0  0  0  0  0  0  0  0  0  0
   -0.1505    2.2411    1.0822 H   0  0  0  0  0  0  0  0  0  0  0  0
   -2.6745    0.8286    0.7416 H   0  0  0  0  0  0  0  0  0  0  0  0
    3.6470   -1.1031   -2.2676 N   0  0  0  0  0  0  0  0  0  0  0  0
    4.7141   -0.8223   -2.3261 N   0  0  0  0  0  0  0  0  0  0  0  0
   -0.0435    3.3048    1.8608 Cl  0  0  0  0  0  0  0  0  0  0  0  0
   -3.4616   -1.4322   -0.6424 O   0  0  0  0  0  0  0  0  0  0  0  0
   -4.5167   -0.8223    0.0885 C   0  0  0  0  0  0  0  0  0  0  0  0
   -5.4001   -1.4358   -0.0928 H   0  0  0  0  0  0  0  0  0  0  0  0
   -4.7087    0.2004   -0.2597 H   0  0  0  0  0  0  0  0  0  0  0  0
   -4.3025   -0.8032    1.1647 H   0  0  0  0  0  0  0  0  0  0  0  0
  1  6  1  0  0  0  0
  2  1  2  0  0  0  0
  2  3  1  0  0  0  0
  3  4  2  0  0  0  0
  4  5  1  0  0  0  0
  5 10  1  0  0  0  0
  6  5  2  0  0  0  0
  7  1  1  0  0  0  0
  8  2  1  0  0  0  0
  9 13  1  0  0  0  0
 12 11  3  0  0  0  0
 14  6  1  0  0  0  0
 14 15  1  0  0  0  0
 15 18  1  0  0  0  0
 16 15  1  0  0  0  0
 17 15  1  0  0  0  0
M  RAD  2   3   2   4   2
M  END
