Coordinates from ORCA-job 4-MeO-Ph-N2-Cl-B3LYPG-6-31G_dp-MTMO-d009-169-n800
 OpenBabel09051908443D

 18 16  0  0  0  0  0  0  0  0999 V2000
   -1.4092   -1.7928   -1.5188 C   0  0  0  0  0  0  0  0  0  0  0  0
   -0.0432   -1.5441   -1.7152 C   0  0  0  0  0  0  0  0  0  0  0  0
    0.2904   -0.4323   -0.9839 C   0  0  0  0  0  0  0  0  0  0  0  0
   -0.3163    0.3684   -0.2233 C   0  0  0  0  0  0  0  0  0  0  0  0
   -1.6887    0.1492   -0.0048 C   0  0  0  0  0  0  0  0  0  0  0  0
   -2.2166   -0.9710   -0.6860 C   0  0  0  0  0  0  0  0  0  0  0  0
   -1.8838   -2.6365   -2.0099 H   0  0  0  0  0  0  0  0  0  0  0  0
    0.5998   -2.1491   -2.3416 H   0  0  0  0  0  0  0  0  0  0  0  0
    0.3924    1.7756    0.6431 H   0  0  0  0  0  0  0  0  0  0  0  0
   -2.2963    0.7837    0.6290 H   0  0  0  0  0  0  0  0  0  0  0  0
    2.7775   -0.0723   -1.3671 N   0  0  0  0  0  0  0  0  0  0  0  0
    3.5768    0.6012   -1.0062 N   0  0  0  0  0  0  0  0  0  0  0  0
    0.8188    2.8415    1.3357 Cl  0  0  0  0  0  0  0  0  0  0  0  0
   -3.5195   -1.3600   -0.6101 O   0  0  0  0  0  0  0  0  0  0  0  0
   -4.4027   -0.6031    0.2066 C   0  0  0  0  0  0  0  0  0  0  0  0
   -5.3753   -1.0902    0.1270 H   0  0  0  0  0  0  0  0  0  0  0  0
   -4.4869    0.4331   -0.1442 H   0  0  0  0  0  0  0  0  0  0  0  0
   -4.0810   -0.6040    1.2557 H   0  0  0  0  0  0  0  0  0  0  0  0
  1  6  1  0  0  0  0
  2  1  2  0  0  0  0
  2  3  1  0  0  0  0
  3  4  2  0  0  0  0
  4  5  1  0  0  0  0
  5 10  1  0  0  0  0
  6 14  1  0  0  0  0
  6  5  2  0  0  0  0
  7  1  1  0  0  0  0
  8  2  1  0  0  0  0
  9 13  1  0  0  0  0
 11 12  3  0  0  0  0
 14 15  1  0  0  0  0
 15 18  1  0  0  0  0
 16 15  1  0  0  0  0
 17 15  1  0  0  0  0
M  RAD  2   3   2   4   2
M  END
