Coordinates from ORCA-job 4-MeO-Ph-N2-Cl-B3LYPG-6-31G_dp-MTMO-d009-169-n800
 OpenBabel09051908453D

 18 16  0  0  0  0  0  0  0  0999 V2000
   -0.9380    0.5695   -0.9422 C   0  0  0  0  0  0  0  0  0  0  0  0
   -0.0438    1.5028   -0.3968 C   0  0  0  0  0  0  0  0  0  0  0  0
   -0.5691    1.9556    0.7930 C   0  0  0  0  0  0  0  0  0  0  0  0
   -1.6212    1.7048    1.4274 C   0  0  0  0  0  0  0  0  0  0  0  0
   -2.5514    0.7816    0.9323 C   0  0  0  0  0  0  0  0  0  0  0  0
   -2.1571    0.2139   -0.3027 C   0  0  0  0  0  0  0  0  0  0  0  0
   -0.7093    0.0898   -1.8887 H   0  0  0  0  0  0  0  0  0  0  0  0
    0.8884    1.7845   -0.8695 H   0  0  0  0  0  0  0  0  0  0  0  0
   -2.1273    2.5045    3.1009 H   0  0  0  0  0  0  0  0  0  0  0  0
   -3.4769    0.5210    1.4291 H   0  0  0  0  0  0  0  0  0  0  0  0
    6.2720   -7.1587   -6.7311 N   0  0  0  0  0  0  0  0  0  0  0  0
    6.8055   -8.1014   -6.9511 N   0  0  0  0  0  0  0  0  0  0  0  0
   -2.6504    2.9331    4.2353 Cl  0  0  0  0  0  0  0  0  0  0  0  0
   -2.8966   -0.7084   -0.9799 O   0  0  0  0  0  0  0  0  0  0  0  0
   -4.1301   -1.1315   -0.4146 C   0  0  0  0  0  0  0  0  0  0  0  0
   -4.5442   -1.8609   -1.1120 H   0  0  0  0  0  0  0  0  0  0  0  0
   -4.8314   -0.2945   -0.3060 H   0  0  0  0  0  0  0  0  0  0  0  0
   -3.9826   -1.6084    0.5627 H   0  0  0  0  0  0  0  0  0  0  0  0
  1  2  2  0  0  0  0
  1  6  1  0  0  0  0
  2  3  1  0  0  0  0
  3  4  2  0  0  0  0
  5  4  1  0  0  0  0
  5 10  1  0  0  0  0
  6  5  2  0  0  0  0
  7  1  1  0  0  0  0
  8  2  1  0  0  0  0
  9 13  1  0  0  0  0
 12 11  3  0  0  0  0
 14 15  1  0  0  0  0
 14  6  1  0  0  0  0
 15 17  1  0  0  0  0
 15 18  1  0  0  0  0
 16 15  1  0  0  0  0
M  RAD  2   3   2   4   2
M  END
