Coordinates from ORCA-job 4-MeO-Ph-N2-Cl-B3LYPG-6-31G_dp-MTMO-d009-169-n800
 OpenBabel09051908453D

 18 16  0  0  0  0  0  0  0  0999 V2000
   -1.0168    0.6474   -0.8756 C   0  0  0  0  0  0  0  0  0  0  0  0
   -0.1250    1.5825   -0.3295 C   0  0  0  0  0  0  0  0  0  0  0  0
   -0.6521    2.0340    0.8600 C   0  0  0  0  0  0  0  0  0  0  0  0
   -1.7041    1.7812    1.4939 C   0  0  0  0  0  0  0  0  0  0  0  0
   -2.6319    0.8561    0.9978 C   0  0  0  0  0  0  0  0  0  0  0  0
   -2.2356    0.2893   -0.2369 C   0  0  0  0  0  0  0  0  0  0  0  0
   -0.7865    0.1684   -1.8220 H   0  0  0  0  0  0  0  0  0  0  0  0
    0.8070    1.8661   -0.8015 H   0  0  0  0  0  0  0  0  0  0  0  0
   -2.2124    2.5797    3.1664 H   0  0  0  0  0  0  0  0  0  0  0  0
   -3.5572    0.5935    1.4939 H   0  0  0  0  0  0  0  0  0  0  0  0
    6.9079   -7.7599   -7.2572 N   0  0  0  0  0  0  0  0  0  0  0  0
    7.4422   -8.7022   -7.4768 N   0  0  0  0  0  0  0  0  0  0  0  0
   -2.7360    3.0082    4.3007 Cl  0  0  0  0  0  0  0  0  0  0  0  0
   -2.9729   -0.6344   -0.9147 O   0  0  0  0  0  0  0  0  0  0  0  0
   -4.2058   -1.0602   -0.3501 C   0  0  0  0  0  0  0  0  0  0  0  0
   -4.6178   -1.7905   -1.0479 H   0  0  0  0  0  0  0  0  0  0  0  0
   -4.9089   -0.2248   -0.2419 H   0  0  0  0  0  0  0  0  0  0  0  0
   -4.0577   -1.5370    0.6272 H   0  0  0  0  0  0  0  0  0  0  0  0
  1  2  2  0  0  0  0
  1  6  1  0  0  0  0
  2  3  1  0  0  0  0
  3  4  2  0  0  0  0
  5 10  1  0  0  0  0
  5  4  1  0  0  0  0
  6  5  2  0  0  0  0
  7  1  1  0  0  0  0
  8  2  1  0  0  0  0
  9 13  1  0  0  0  0
 12 11  3  0  0  0  0
 14 15  1  0  0  0  0
 14  6  1  0  0  0  0
 15 17  1  0  0  0  0
 15 18  1  0  0  0  0
 16 15  1  0  0  0  0
M  RAD  2   3   2   4   2
M  END
