Coordinates from ORCA-job 4-MeO-Ph-N2-Cl-B3LYPG-6-31G_dp-MTMO-d009-169-n800
 OpenBabel09051908443D

 18 16  0  0  0  0  0  0  0  0999 V2000
   -1.4213   -1.7870   -1.5119 C   0  0  0  0  0  0  0  0  0  0  0  0
   -0.0555   -1.5338   -1.7072 C   0  0  0  0  0  0  0  0  0  0  0  0
    0.2748   -0.4198   -0.9754 C   0  0  0  0  0  0  0  0  0  0  0  0
   -0.3449    0.3702   -0.2187 C   0  0  0  0  0  0  0  0  0  0  0  0
   -1.7154    0.1540    0.0036 C   0  0  0  0  0  0  0  0  0  0  0  0
   -2.2347   -0.9695   -0.6804 C   0  0  0  0  0  0  0  0  0  0  0  0
   -1.8920   -2.6325   -2.0037 H   0  0  0  0  0  0  0  0  0  0  0  0
    0.5881   -2.1382   -2.3335 H   0  0  0  0  0  0  0  0  0  0  0  0
    0.3607    1.8194    0.6818 H   0  0  0  0  0  0  0  0  0  0  0  0
   -2.3264    0.7856    0.6367 H   0  0  0  0  0  0  0  0  0  0  0  0
    2.9594   -0.1064   -1.4387 N   0  0  0  0  0  0  0  0  0  0  0  0
    3.7863    0.5411   -1.0939 N   0  0  0  0  0  0  0  0  0  0  0  0
    0.7322    2.8856    1.3885 Cl  0  0  0  0  0  0  0  0  0  0  0  0
   -3.5361   -1.3649   -0.6075 O   0  0  0  0  0  0  0  0  0  0  0  0
   -4.4248   -0.6128    0.2072 C   0  0  0  0  0  0  0  0  0  0  0  0
   -5.3949   -1.1047    0.1253 H   0  0  0  0  0  0  0  0  0  0  0  0
   -4.5135    0.4232   -0.1434 H   0  0  0  0  0  0  0  0  0  0  0  0
   -4.1056   -0.6124    1.2572 H   0  0  0  0  0  0  0  0  0  0  0  0
  1  6  1  0  0  0  0
  2  1  2  0  0  0  0
  2  3  1  0  0  0  0
  3  4  2  0  0  0  0
  4  5  1  0  0  0  0
  5 10  1  0  0  0  0
  6 14  1  0  0  0  0
  6  5  2  0  0  0  0
  7  1  1  0  0  0  0
  8  2  1  0  0  0  0
  9 13  1  0  0  0  0
 11 12  3  0  0  0  0
 14 15  1  0  0  0  0
 15 18  1  0  0  0  0
 16 15  1  0  0  0  0
 17 15  1  0  0  0  0
M  RAD  2   3   2   4   2
M  END
