Coordinates from ORCA-job 4-MeO-Ph-N2-Cl-B3LYPG-6-31G_dp-MTMO-d009-169-n800
 OpenBabel09051908443D

 18 16  0  0  0  0  0  0  0  0999 V2000
   -0.7728   -0.9930   -1.0124 C   0  0  0  0  0  0  0  0  0  0  0  0
    0.4203   -0.2960   -0.7691 C   0  0  0  0  0  0  0  0  0  0  0  0
    0.1364    0.7577    0.0709 C   0  0  0  0  0  0  0  0  0  0  0  0
   -0.9125    1.1759    0.6164 C   0  0  0  0  0  0  0  0  0  0  0  0
   -2.1331    0.5200    0.4096 C   0  0  0  0  0  0  0  0  0  0  0  0
   -2.0163   -0.6024   -0.4443 C   0  0  0  0  0  0  0  0  0  0  0  0
   -0.7672   -1.8683   -1.6547 H   0  0  0  0  0  0  0  0  0  0  0  0
    1.3745   -0.5801   -1.1942 H   0  0  0  0  0  0  0  0  0  0  0  0
   -1.0284    2.6930    1.7834 H   0  0  0  0  0  0  0  0  0  0  0  0
   -3.0730    0.8278    0.8492 H   0  0  0  0  0  0  0  0  0  0  0  0
    3.8098   -2.7884   -3.7327 N   0  0  0  0  0  0  0  0  0  0  0  0
    4.5046   -3.2819   -4.4364 N   0  0  0  0  0  0  0  0  0  0  0  0
   -1.3137    3.6899    2.6021 Cl  0  0  0  0  0  0  0  0  0  0  0  0
   -3.0662   -1.3976   -0.7935 O   0  0  0  0  0  0  0  0  0  0  0  0
   -4.3507   -1.0875   -0.2706 C   0  0  0  0  0  0  0  0  0  0  0  0
   -5.0283   -1.8399   -0.6756 H   0  0  0  0  0  0  0  0  0  0  0  0
   -4.6846   -0.0916   -0.5876 H   0  0  0  0  0  0  0  0  0  0  0  0
   -4.3623   -1.1405    0.8254 H   0  0  0  0  0  0  0  0  0  0  0  0
  1  2  2  0  0  0  0
  1  6  1  0  0  0  0
  2  3  1  0  0  0  0
  3  4  2  0  0  0  0
  5  4  1  0  0  0  0
  5 10  1  0  0  0  0
  6  5  2  0  0  0  0
  7  1  1  0  0  0  0
  8  2  1  0  0  0  0
  9 13  1  0  0  0  0
 12 11  3  0  0  0  0
 14  6  1  0  0  0  0
 14 15  1  0  0  0  0
 15 18  1  0  0  0  0
 16 15  1  0  0  0  0
 17 15  1  0  0  0  0
M  RAD  2   3   2   4   2
M  END
