Coordinates from ORCA-job 4-MeO-Ph-N2-Cl-B3LYPG-6-31G_dp-MTMO-d009-169-n800
 OpenBabel09051908453D

 18 16  0  0  0  0  0  0  0  0999 V2000
   -0.9773    0.6080   -0.9048 C   0  0  0  0  0  0  0  0  0  0  0  0
   -0.0850    1.5428   -0.3590 C   0  0  0  0  0  0  0  0  0  0  0  0
   -0.6129    1.9968    0.8291 C   0  0  0  0  0  0  0  0  0  0  0  0
   -1.6659    1.7462    1.4622 C   0  0  0  0  0  0  0  0  0  0  0  0
   -2.5944    0.8216    0.9664 C   0  0  0  0  0  0  0  0  0  0  0  0
   -2.1974    0.2524   -0.2670 C   0  0  0  0  0  0  0  0  0  0  0  0
   -0.7465    0.1273   -1.8502 H   0  0  0  0  0  0  0  0  0  0  0  0
    0.8479    1.8244   -0.8305 H   0  0  0  0  0  0  0  0  0  0  0  0
   -2.1754    2.5478    3.1330 H   0  0  0  0  0  0  0  0  0  0  0  0
   -3.5206    0.5610    1.4619 H   0  0  0  0  0  0  0  0  0  0  0  0
    6.6045   -7.4737   -7.0114 N   0  0  0  0  0  0  0  0  0  0  0  0
    7.1389   -8.4160   -7.2308 N   0  0  0  0  0  0  0  0  0  0  0  0
   -2.6998    2.9785    4.2660 Cl  0  0  0  0  0  0  0  0  0  0  0  0
   -2.9350   -0.6714   -0.9442 O   0  0  0  0  0  0  0  0  0  0  0  0
   -4.1691   -1.0947   -0.3805 C   0  0  0  0  0  0  0  0  0  0  0  0
   -4.5813   -1.8255   -1.0776 H   0  0  0  0  0  0  0  0  0  0  0  0
   -4.8713   -0.2581   -0.2745 H   0  0  0  0  0  0  0  0  0  0  0  0
   -4.0230   -1.5701    0.5977 H   0  0  0  0  0  0  0  0  0  0  0  0
  1  2  2  0  0  0  0
  1  6  1  0  0  0  0
  2  3  1  0  0  0  0
  3  4  2  0  0  0  0
  5 10  1  0  0  0  0
  5  4  1  0  0  0  0
  6  5  2  0  0  0  0
  7  1  1  0  0  0  0
  8  2  1  0  0  0  0
  9 13  1  0  0  0  0
 12 11  3  0  0  0  0
 14 15  1  0  0  0  0
 14  6  1  0  0  0  0
 15 17  1  0  0  0  0
 15 18  1  0  0  0  0
 16 15  1  0  0  0  0
M  RAD  2   3   2   4   2
M  END
