Coordinates from ORCA-job 4-MeO-Ph-N2-Cl-B3LYPG-6-31G_dp-MTMO-d009-169-n800
 OpenBabel09051908453D

 18 16  0  0  0  0  0  0  0  0999 V2000
   -1.1385    0.7630   -0.7697 C   0  0  0  0  0  0  0  0  0  0  0  0
   -0.2492    1.7005   -0.2236 C   0  0  0  0  0  0  0  0  0  0  0  0
   -0.7796    2.1542    0.9637 C   0  0  0  0  0  0  0  0  0  0  0  0
   -1.8328    1.9011    1.5952 C   0  0  0  0  0  0  0  0  0  0  0  0
   -2.7585    0.9739    1.0994 C   0  0  0  0  0  0  0  0  0  0  0  0
   -2.3585    0.4047   -0.1332 C   0  0  0  0  0  0  0  0  0  0  0  0
   -0.9053    0.2820   -1.7144 H   0  0  0  0  0  0  0  0  0  0  0  0
    0.6836    1.9842   -0.6940 H   0  0  0  0  0  0  0  0  0  0  0  0
   -2.3451    2.7032    3.2664 H   0  0  0  0  0  0  0  0  0  0  0  0
   -3.6847    0.7112    1.5939 H   0  0  0  0  0  0  0  0  0  0  0  0
    7.9058   -8.6934   -8.0794 N   0  0  0  0  0  0  0  0  0  0  0  0
    8.4386   -9.6362   -8.3004 N   0  0  0  0  0  0  0  0  0  0  0  0
   -2.8723    3.1323    4.3986 Cl  0  0  0  0  0  0  0  0  0  0  0  0
   -3.0929   -0.5215   -0.8106 O   0  0  0  0  0  0  0  0  0  0  0  0
   -4.3266   -0.9475   -0.2481 C   0  0  0  0  0  0  0  0  0  0  0  0
   -4.7361   -1.6798   -0.9452 H   0  0  0  0  0  0  0  0  0  0  0  0
   -5.0310   -0.1126   -0.1435 H   0  0  0  0  0  0  0  0  0  0  0  0
   -4.1804   -1.4218    0.7307 H   0  0  0  0  0  0  0  0  0  0  0  0
  1  2  2  0  0  0  0
  1  6  1  0  0  0  0
  2  3  1  0  0  0  0
  3  4  2  0  0  0  0
  5 10  1  0  0  0  0
  5  4  1  0  0  0  0
  6  5  2  0  0  0  0
  7  1  1  0  0  0  0
  8  2  1  0  0  0  0
  9 13  1  0  0  0  0
 12 11  3  0  0  0  0
 14 15  1  0  0  0  0
 14  6  1  0  0  0  0
 15 17  1  0  0  0  0
 15 18  1  0  0  0  0
 16 15  1  0  0  0  0
M  RAD  2   3   2   4   2
M  END
