Coordinates from ORCA-job 4-MeO-Ph-N2-Cl-B3LYPG-6-31G_dp-MTMO-d009-169-n800
 OpenBabel09051908443D

 18 17  0  0  0  0  0  0  0  0999 V2000
   -1.3281   -1.7261   -1.4878 C   0  0  0  0  0  0  0  0  0  0  0  0
    0.0103   -1.3840   -1.5969 C   0  0  0  0  0  0  0  0  0  0  0  0
    0.4542   -0.2720   -0.8884 C   0  0  0  0  0  0  0  0  0  0  0  0
   -0.3514    0.5164   -0.0836 C   0  0  0  0  0  0  0  0  0  0  0  0
   -1.6975    0.1601    0.0157 C   0  0  0  0  0  0  0  0  0  0  0  0
   -2.1890   -0.9567   -0.6807 C   0  0  0  0  0  0  0  0  0  0  0  0
   -1.7361   -2.5826   -2.0125 H   0  0  0  0  0  0  0  0  0  0  0  0
    0.6965   -1.9573   -2.2094 H   0  0  0  0  0  0  0  0  0  0  0  0
    0.0617    1.3708    0.4399 H   0  0  0  0  0  0  0  0  0  0  0  0
   -2.3496    0.7618    0.6365 H   0  0  0  0  0  0  0  0  0  0  0  0
    2.0128    0.0434   -1.0735 N   0  0  0  0  0  0  0  0  0  0  0  0
    2.8053    0.8099   -0.7096 N   0  0  0  0  0  0  0  0  0  0  0  0
    2.2288    2.4153    0.6555 Cl  0  0  0  0  0  0  0  0  0  0  0  0
   -3.4747   -1.3771   -0.6427 O   0  0  0  0  0  0  0  0  0  0  0  0
   -4.4095   -0.6587    0.1566 C   0  0  0  0  0  0  0  0  0  0  0  0
   -5.3608   -1.1783    0.0397 H   0  0  0  0  0  0  0  0  0  0  0  0
   -4.5173    0.3770   -0.1871 H   0  0  0  0  0  0  0  0  0  0  0  0
   -4.1193   -0.6645    1.2141 H   0  0  0  0  0  0  0  0  0  0  0  0
  1  6  1  0  0  0  0
  2  1  2  0  0  0  0
  2  3  1  0  0  0  0
  3  4  2  0  0  0  0
  4  5  1  0  0  0  0
  4  9  1  0  0  0  0
  5 10  1  0  0  0  0
  6 14  1  0  0  0  0
  6  5  2  0  0  0  0
  7  1  1  0  0  0  0
  8  2  1  0  0  0  0
 11  3  1  0  0  0  0
 11 12  2  0  0  0  0
 14 15  1  0  0  0  0
 15 18  1  0  0  0  0
 16 15  1  0  0  0  0
 17 15  1  0  0  0  0
M  RAD  2  12   2  13   2
M  END
