Coordinates from ORCA-job 4-MeO-Ph-N2-Cl-B3LYPG-6-31G_dp-MTMO-d009-169-n800
 OpenBabel09051908453D

 18 16  0  0  0  0  0  0  0  0999 V2000
   -0.9607    0.5928   -0.9347 C   0  0  0  0  0  0  0  0  0  0  0  0
   -0.0655    1.5250   -0.3889 C   0  0  0  0  0  0  0  0  0  0  0  0
   -0.5865    1.9722    0.8049 C   0  0  0  0  0  0  0  0  0  0  0  0
   -1.6358    1.7174    1.4424 C   0  0  0  0  0  0  0  0  0  0  0  0
   -2.5668    0.7952    0.9472 C   0  0  0  0  0  0  0  0  0  0  0  0
   -2.1768    0.2331   -0.2918 C   0  0  0  0  0  0  0  0  0  0  0  0
   -0.7352    0.1175   -1.8841 H   0  0  0  0  0  0  0  0  0  0  0  0
    0.8645    1.8097   -0.8642 H   0  0  0  0  0  0  0  0  0  0  0  0
   -2.1356    2.5098    3.1212 H   0  0  0  0  0  0  0  0  0  0  0  0
   -3.4900    0.5313    1.4466 H   0  0  0  0  0  0  0  0  0  0  0  0
    6.4131   -7.2897   -6.8325 N   0  0  0  0  0  0  0  0  0  0  0  0
    6.9442   -8.2330   -7.0553 N   0  0  0  0  0  0  0  0  0  0  0  0
   -2.6547    2.9329    4.2595 Cl  0  0  0  0  0  0  0  0  0  0  0  0
   -2.9179   -0.6872   -0.9699 O   0  0  0  0  0  0  0  0  0  0  0  0
   -4.1485   -1.1143   -0.4013 C   0  0  0  0  0  0  0  0  0  0  0  0
   -4.5645   -1.8414   -1.1001 H   0  0  0  0  0  0  0  0  0  0  0  0
   -4.8505   -0.2787   -0.2864 H   0  0  0  0  0  0  0  0  0  0  0  0
   -3.9964   -1.5951    0.5734 H   0  0  0  0  0  0  0  0  0  0  0  0
  1  2  2  0  0  0  0
  1  6  1  0  0  0  0
  2  3  1  0  0  0  0
  3  4  2  0  0  0  0
  5  4  1  0  0  0  0
  5 10  1  0  0  0  0
  6  5  2  0  0  0  0
  7  1  1  0  0  0  0
  8  2  1  0  0  0  0
  9 13  1  0  0  0  0
 12 11  3  0  0  0  0
 14 15  1  0  0  0  0
 14  6  1  0  0  0  0
 15 17  1  0  0  0  0
 15 18  1  0  0  0  0
 16 15  1  0  0  0  0
M  RAD  2   3   2   4   2
M  END
