Coordinates from ORCA-job 4-MeO-Ph-N2-Cl-B3LYPG-6-31G_dp-MTMO-d009-169-n800
 OpenBabel09051908443D

 18 16  0  0  0  0  0  0  0  0999 V2000
   -0.7598   -0.9629   -0.9845 C   0  0  0  0  0  0  0  0  0  0  0  0
    0.4233   -0.2541   -0.7270 C   0  0  0  0  0  0  0  0  0  0  0  0
    0.1200    0.7950    0.1121 C   0  0  0  0  0  0  0  0  0  0  0  0
   -0.9392    1.2008    0.6468 C   0  0  0  0  0  0  0  0  0  0  0  0
   -2.1508    0.5330    0.4259 C   0  0  0  0  0  0  0  0  0  0  0  0
   -2.0132   -0.5864   -0.4290 C   0  0  0  0  0  0  0  0  0  0  0  0
   -0.7382   -1.8367   -1.6284 H   0  0  0  0  0  0  0  0  0  0  0  0
    1.3850   -0.5274   -1.1422 H   0  0  0  0  0  0  0  0  0  0  0  0
   -1.0835    2.7165    1.8143 H   0  0  0  0  0  0  0  0  0  0  0  0
   -3.0984    0.8301    0.8562 H   0  0  0  0  0  0  0  0  0  0  0  0
    3.8816   -2.9161   -3.8543 N   0  0  0  0  0  0  0  0  0  0  0  0
    4.5561   -3.4131   -4.5751 N   0  0  0  0  0  0  0  0  0  0  0  0
   -1.3883    3.7098    2.6300 Cl  0  0  0  0  0  0  0  0  0  0  0  0
   -3.0510   -1.3916   -0.7910 O   0  0  0  0  0  0  0  0  0  0  0  0
   -4.3445   -1.0948   -0.2826 C   0  0  0  0  0  0  0  0  0  0  0  0
   -5.0100   -1.8533   -0.6963 H   0  0  0  0  0  0  0  0  0  0  0  0
   -4.6844   -0.1019   -0.6022 H   0  0  0  0  0  0  0  0  0  0  0  0
   -4.3683   -1.1495    0.8131 H   0  0  0  0  0  0  0  0  0  0  0  0
  1  2  2  0  0  0  0
  1  6  1  0  0  0  0
  2  3  1  0  0  0  0
  3  4  2  0  0  0  0
  5  4  1  0  0  0  0
  5 10  1  0  0  0  0
  6  5  2  0  0  0  0
  7  1  1  0  0  0  0
  8  2  1  0  0  0  0
  9 13  1  0  0  0  0
 12 11  3  0  0  0  0
 14  6  1  0  0  0  0
 14 15  1  0  0  0  0
 15 18  1  0  0  0  0
 16 15  1  0  0  0  0
 17 15  1  0  0  0  0
M  RAD  2   3   2   4   2
M  END
