Coordinates from ORCA-job 4-MeO-Ph-N2-Cl-B3LYPG-6-31G_dp-MTMO-d009-169-n800
 OpenBabel09051908443D

 18 16  0  0  0  0  0  0  0  0999 V2000
   -0.7851   -1.0225   -1.0397 C   0  0  0  0  0  0  0  0  0  0  0  0
    0.4175   -0.3371   -0.8106 C   0  0  0  0  0  0  0  0  0  0  0  0
    0.1527    0.7212    0.0299 C   0  0  0  0  0  0  0  0  0  0  0  0
   -0.8859    1.1514    0.5857 C   0  0  0  0  0  0  0  0  0  0  0  0
   -2.1152    0.5072    0.3929 C   0  0  0  0  0  0  0  0  0  0  0  0
   -2.0186   -0.6182   -0.4595 C   0  0  0  0  0  0  0  0  0  0  0  0
   -0.7950   -1.8993   -1.6799 H   0  0  0  0  0  0  0  0  0  0  0  0
    1.3642   -0.6320   -1.2454 H   0  0  0  0  0  0  0  0  0  0  0  0
   -0.9745    2.6689    1.7527 H   0  0  0  0  0  0  0  0  0  0  0  0
   -3.0473    0.8255    0.8414 H   0  0  0  0  0  0  0  0  0  0  0  0
    3.7342   -2.6639   -3.6100 N   0  0  0  0  0  0  0  0  0  0  0  0
    4.4497   -3.1490   -4.2985 N   0  0  0  0  0  0  0  0  0  0  0  0
   -1.2411    3.6687    2.5743 Cl  0  0  0  0  0  0  0  0  0  0  0  0
   -3.0800   -1.4036   -0.7959 O   0  0  0  0  0  0  0  0  0  0  0  0
   -4.3555   -1.0802   -0.2592 C   0  0  0  0  0  0  0  0  0  0  0  0
   -5.0449   -1.8267   -0.6553 H   0  0  0  0  0  0  0  0  0  0  0  0
   -4.6834   -0.0817   -0.5740 H   0  0  0  0  0  0  0  0  0  0  0  0
   -4.3553   -1.1315    0.8370 H   0  0  0  0  0  0  0  0  0  0  0  0
  1  2  2  0  0  0  0
  1  6  1  0  0  0  0
  2  3  1  0  0  0  0
  3  4  2  0  0  0  0
  5  4  1  0  0  0  0
  5 10  1  0  0  0  0
  6  5  2  0  0  0  0
  7  1  1  0  0  0  0
  8  2  1  0  0  0  0
  9 13  1  0  0  0  0
 12 11  3  0  0  0  0
 14  6  1  0  0  0  0
 14 15  1  0  0  0  0
 15 18  1  0  0  0  0
 16 15  1  0  0  0  0
 17 15  1  0  0  0  0
M  RAD  2   3   2   4   2
M  END
