Coordinates from ORCA-job 4-MeO-Ph-N2-Cl-B3LYPG-6-31G_dp-MTMO-d009-169-n800
 OpenBabel09051908443D

 18 16  0  0  0  0  0  0  0  0999 V2000
   -0.6215   -0.5130   -0.6818 C   0  0  0  0  0  0  0  0  0  0  0  0
    0.4124    0.3306   -0.2489 C   0  0  0  0  0  0  0  0  0  0  0  0
   -0.1267    1.2701    0.6022 C   0  0  0  0  0  0  0  0  0  0  0  0
   -1.2865    1.4902    1.0246 C   0  0  0  0  0  0  0  0  0  0  0  0
   -2.3592    0.6815    0.6284 C   0  0  0  0  0  0  0  0  0  0  0  0
   -1.9695   -0.3491   -0.2604 C   0  0  0  0  0  0  0  0  0  0  0  0
   -0.4046   -1.3294   -1.3640 H   0  0  0  0  0  0  0  0  0  0  0  0
    1.4434    0.2199   -0.5607 H   0  0  0  0  0  0  0  0  0  0  0  0
   -1.7898    2.9160    2.2118 H   0  0  0  0  0  0  0  0  0  0  0  0
   -3.3814    0.8183    0.9574 H   0  0  0  0  0  0  0  0  0  0  0  0
    4.6737   -4.5526   -5.3817 N   0  0  0  0  0  0  0  0  0  0  0  0
    5.2226   -5.1404   -6.1399 N   0  0  0  0  0  0  0  0  0  0  0  0
   -2.3395    3.8155    3.0071 Cl  0  0  0  0  0  0  0  0  0  0  0  0
   -2.8351   -1.2616   -0.7837 O   0  0  0  0  0  0  0  0  0  0  0  0
   -4.2058   -1.1780   -0.4178 C   0  0  0  0  0  0  0  0  0  0  0  0
   -4.7067   -1.9901   -0.9458 H   0  0  0  0  0  0  0  0  0  0  0  0
   -4.6465   -0.2209   -0.7237 H   0  0  0  0  0  0  0  0  0  0  0  0
   -4.3427   -1.3098    0.6629 H   0  0  0  0  0  0  0  0  0  0  0  0
  1  6  2  0  0  0  0
  1  2  1  0  0  0  0
  2  3  2  0  0  0  0
  3  4  1  0  0  0  0
  5 10  1  0  0  0  0
  5  4  2  0  0  0  0
  6  5  1  0  0  0  0
  7  1  1  0  0  0  0
  8  2  1  0  0  0  0
  9 13  1  0  0  0  0
 12 11  3  0  0  0  0
 14 15  1  0  0  0  0
 14  6  1  0  0  0  0
 15 18  1  0  0  0  0
 16 15  1  0  0  0  0
 17 15  1  0  0  0  0
M  RAD  2   3   2   4   2
M  END
