Coordinates from ORCA-job 4-MeO-Ph-N2-Cl-B3LYPG-6-31G_dp-MTMO-d009-169-n800
 OpenBabel09051908443D

 18 16  0  0  0  0  0  0  0  0999 V2000
   -1.4237   -1.7343   -1.4703 C   0  0  0  0  0  0  0  0  0  0  0  0
   -0.0625   -1.4384   -1.6371 C   0  0  0  0  0  0  0  0  0  0  0  0
    0.2221   -0.3161   -0.8940 C   0  0  0  0  0  0  0  0  0  0  0  0
   -0.4511    0.4374   -0.1503 C   0  0  0  0  0  0  0  0  0  0  0  0
   -1.8165    0.1878    0.0502 C   0  0  0  0  0  0  0  0  0  0  0  0
   -2.2817   -0.9489   -0.6524 C   0  0  0  0  0  0  0  0  0  0  0  0
   -1.8578   -2.5917   -1.9753 H   0  0  0  0  0  0  0  0  0  0  0  0
    0.6095   -2.0215   -2.2536 H   0  0  0  0  0  0  0  0  0  0  0  0
    0.2181    1.9404    0.8034 H   0  0  0  0  0  0  0  0  0  0  0  0
   -2.4601    0.7949    0.6743 H   0  0  0  0  0  0  0  0  0  0  0  0
    3.4682   -0.3009   -1.6934 N   0  0  0  0  0  0  0  0  0  0  0  0
    4.4168    0.2286   -1.4908 N   0  0  0  0  0  0  0  0  0  0  0  0
    0.5044    3.0061    1.5340 Cl  0  0  0  0  0  0  0  0  0  0  0  0
   -3.5709   -1.3876   -0.6101 O   0  0  0  0  0  0  0  0  0  0  0  0
   -4.5018   -0.6689    0.1871 C   0  0  0  0  0  0  0  0  0  0  0  0
   -5.4531   -1.1919    0.0815 H   0  0  0  0  0  0  0  0  0  0  0  0
   -4.6169    0.3653   -0.1613 H   0  0  0  0  0  0  0  0  0  0  0  0
   -4.2066   -0.6628    1.2442 H   0  0  0  0  0  0  0  0  0  0  0  0
  1  6  1  0  0  0  0
  2  1  2  0  0  0  0
  2  3  1  0  0  0  0
  3  4  2  0  0  0  0
  4  5  1  0  0  0  0
  5 10  1  0  0  0  0
  6 14  1  0  0  0  0
  6  5  2  0  0  0  0
  7  1  1  0  0  0  0
  8  2  1  0  0  0  0
  9 13  1  0  0  0  0
 11 12  3  0  0  0  0
 14 15  1  0  0  0  0
 15 18  1  0  0  0  0
 16 15  1  0  0  0  0
 17 15  1  0  0  0  0
M  RAD  2   3   2   4   2
M  END
