Coordinates from ORCA-job 4-MeO-Ph-N2-Cl-B3LYPG-6-31G_dp-MTMO-d009-169-n800
 OpenBabel09051908443D

 18 16  0  0  0  0  0  0  0  0999 V2000
   -1.1797   -1.5299   -1.2790 C   0  0  0  0  0  0  0  0  0  0  0  0
    0.1509   -1.0844   -1.2965 C   0  0  0  0  0  0  0  0  0  0  0  0
    0.2263    0.0570   -0.5305 C   0  0  0  0  0  0  0  0  0  0  0  0
   -0.6057    0.7214    0.1327 C   0  0  0  0  0  0  0  0  0  0  0  0
   -1.9486    0.3224    0.1835 C   0  0  0  0  0  0  0  0  0  0  0  0
   -2.2043   -0.8520   -0.5634 C   0  0  0  0  0  0  0  0  0  0  0  0
   -1.4577   -2.4253   -1.8262 H   0  0  0  0  0  0  0  0  0  0  0  0
    0.9468   -1.5826   -1.8345 H   0  0  0  0  0  0  0  0  0  0  0  0
   -0.2193    2.2753    1.1704 H   0  0  0  0  0  0  0  0  0  0  0  0
   -2.7192    0.8471    0.7333 H   0  0  0  0  0  0  0  0  0  0  0  0
    3.6387   -1.2202   -2.4622 N   0  0  0  0  0  0  0  0  0  0  0  0
    4.6773   -0.9078   -2.6741 N   0  0  0  0  0  0  0  0  0  0  0  0
   -0.1523    3.3490    1.9398 Cl  0  0  0  0  0  0  0  0  0  0  0  0
   -3.4342   -1.4303   -0.6630 O   0  0  0  0  0  0  0  0  0  0  0  0
   -4.5239   -0.8181    0.0133 C   0  0  0  0  0  0  0  0  0  0  0  0
   -5.3959   -1.4363   -0.2034 H   0  0  0  0  0  0  0  0  0  0  0  0
   -4.7030    0.2009   -0.3522 H   0  0  0  0  0  0  0  0  0  0  0  0
   -4.3596   -0.7891    1.0980 H   0  0  0  0  0  0  0  0  0  0  0  0
  1  6  1  0  0  0  0
  2  1  2  0  0  0  0
  2  3  1  0  0  0  0
  3  4  2  0  0  0  0
  4  5  1  0  0  0  0
  5 10  1  0  0  0  0
  6  5  2  0  0  0  0
  7  1  1  0  0  0  0
  8  2  1  0  0  0  0
  9 13  1  0  0  0  0
 12 11  3  0  0  0  0
 14  6  1  0  0  0  0
 14 15  1  0  0  0  0
 15 18  1  0  0  0  0
 16 15  1  0  0  0  0
 17 15  1  0  0  0  0
M  RAD  2   3   2   4   2
M  END
