Coordinates from ORCA-job 4-MeO-Ph-N2-Cl-B3LYPG-6-31G_dp-MTMO-d009-169-n800
 OpenBabel09051908453D

 18 16  0  0  0  0  0  0  0  0999 V2000
   -0.7444    0.3799   -1.0700 C   0  0  0  0  0  0  0  0  0  0  0  0
    0.1479    1.3157   -0.5257 C   0  0  0  0  0  0  0  0  0  0  0  0
   -0.3885    1.7851    0.6527 C   0  0  0  0  0  0  0  0  0  0  0  0
   -1.4488    1.5463    1.2781 C   0  0  0  0  0  0  0  0  0  0  0  0
   -2.3777    0.6217    0.7836 C   0  0  0  0  0  0  0  0  0  0  0  0
   -1.9722    0.0375   -0.4400 C   0  0  0  0  0  0  0  0  0  0  0  0
   -0.5074   -0.1119   -2.0081 H   0  0  0  0  0  0  0  0  0  0  0  0
    1.0866    1.5875   -0.9913 H   0  0  0  0  0  0  0  0  0  0  0  0
   -1.9670    2.3673    2.9378 H   0  0  0  0  0  0  0  0  0  0  0  0
   -3.3099    0.3711    1.2731 H   0  0  0  0  0  0  0  0  0  0  0  0
    4.8349   -5.8114   -5.5882 N   0  0  0  0  0  0  0  0  0  0  0  0
    5.3660   -6.7546   -5.8117 N   0  0  0  0  0  0  0  0  0  0  0  0
   -2.4989    2.8110    4.0623 Cl  0  0  0  0  0  0  0  0  0  0  0  0
   -2.7085   -0.8894   -1.1145 O   0  0  0  0  0  0  0  0  0  0  0  0
   -3.9504   -1.2996   -0.5584 C   0  0  0  0  0  0  0  0  0  0  0  0
   -4.3602   -2.0353   -1.2519 H   0  0  0  0  0  0  0  0  0  0  0  0
   -4.6486   -0.4579   -0.4679 H   0  0  0  0  0  0  0  0  0  0  0  0
   -3.8166   -1.7656    0.4260 H   0  0  0  0  0  0  0  0  0  0  0  0
  1  2  2  0  0  0  0
  1  6  1  0  0  0  0
  2  3  1  0  0  0  0
  3  4  2  0  0  0  0
  5 10  1  0  0  0  0
  5  4  1  0  0  0  0
  6  5  2  0  0  0  0
  7  1  1  0  0  0  0
  8  2  1  0  0  0  0
  9 13  1  0  0  0  0
 12 11  3  0  0  0  0
 14 15  1  0  0  0  0
 14  6  1  0  0  0  0
 15 17  1  0  0  0  0
 15 18  1  0  0  0  0
 16 15  1  0  0  0  0
M  RAD  2   3   2   4   2
M  END
