Coordinates from ORCA-job 4-MeO-Ph-N2-Cl-B3LYPG-6-31G_dp-MTMO-d009-169-n800
 OpenBabel09051908443D

 18 16  0  0  0  0  0  0  0  0999 V2000
   -0.7416   -0.9217   -0.9469 C   0  0  0  0  0  0  0  0  0  0  0  0
    0.4275   -0.1972   -0.6700 C   0  0  0  0  0  0  0  0  0  0  0  0
    0.0977    0.8450    0.1678 C   0  0  0  0  0  0  0  0  0  0  0  0
   -0.9750    1.2338    0.6880 C   0  0  0  0  0  0  0  0  0  0  0  0
   -2.1738    0.5499    0.4477 C   0  0  0  0  0  0  0  0  0  0  0  0
   -2.0082   -0.5646   -0.4085 C   0  0  0  0  0  0  0  0  0  0  0  0
   -0.6985   -1.7929   -1.5932 H   0  0  0  0  0  0  0  0  0  0  0  0
    1.3989   -0.4556   -1.0719 H   0  0  0  0  0  0  0  0  0  0  0  0
   -1.1585    2.7468    1.8550 H   0  0  0  0  0  0  0  0  0  0  0  0
   -3.1315    0.8323    0.8653 H   0  0  0  0  0  0  0  0  0  0  0  0
    3.9722   -3.0877   -4.0170 N   0  0  0  0  0  0  0  0  0  0  0  0
    4.6209   -3.5890   -4.7582 N   0  0  0  0  0  0  0  0  0  0  0  0
   -1.4904    3.7350    2.6663 Cl  0  0  0  0  0  0  0  0  0  0  0  0
   -3.0292   -1.3831   -0.7880 O   0  0  0  0  0  0  0  0  0  0  0  0
   -4.3342   -1.1048   -0.2993 C   0  0  0  0  0  0  0  0  0  0  0  0
   -4.9830   -1.8711   -0.7249 H   0  0  0  0  0  0  0  0  0  0  0  0
   -4.6824   -0.1157   -0.6220 H   0  0  0  0  0  0  0  0  0  0  0  0
   -4.3746   -1.1624    0.7958 H   0  0  0  0  0  0  0  0  0  0  0  0
  1  2  2  0  0  0  0
  1  6  1  0  0  0  0
  2  3  1  0  0  0  0
  3  4  2  0  0  0  0
  5  4  1  0  0  0  0
  5 10  1  0  0  0  0
  6  5  2  0  0  0  0
  7  1  1  0  0  0  0
  8  2  1  0  0  0  0
  9 13  1  0  0  0  0
 12 11  3  0  0  0  0
 14  6  1  0  0  0  0
 14 15  1  0  0  0  0
 15 18  1  0  0  0  0
 16 15  1  0  0  0  0
 17 15  1  0  0  0  0
M  RAD  2   3   2   4   2
M  END
