Coordinates from ORCA-job 4-MeO-Ph-N2-Cl-B3LYPG-6-31G_dp-MTMO-d009-169-n800
 OpenBabel09051908443D

 18 16  0  0  0  0  0  0  0  0999 V2000
   -0.7060   -0.8346   -0.8742 C   0  0  0  0  0  0  0  0  0  0  0  0
    0.4334   -0.0794   -0.5587 C   0  0  0  0  0  0  0  0  0  0  0  0
    0.0509    0.9461    0.2776 C   0  0  0  0  0  0  0  0  0  0  0  0
   -1.0471    1.2990    0.7696 C   0  0  0  0  0  0  0  0  0  0  0  0
   -2.2186    0.5833    0.4907 C   0  0  0  0  0  0  0  0  0  0  0  0
   -1.9970   -0.5187   -0.3690 C   0  0  0  0  0  0  0  0  0  0  0  0
   -0.6196   -1.6987   -1.5258 H   0  0  0  0  0  0  0  0  0  0  0  0
    1.4228   -0.3065   -0.9349 H   0  0  0  0  0  0  0  0  0  0  0  0
   -1.3109    2.8019    1.9365 H   0  0  0  0  0  0  0  0  0  0  0  0
   -3.1954    0.8346    0.8836 H   0  0  0  0  0  0  0  0  0  0  0  0
    4.1424   -3.4348   -4.3427 N   0  0  0  0  0  0  0  0  0  0  0  0
    4.7501   -3.9442   -5.1126 N   0  0  0  0  0  0  0  0  0  0  0  0
   -1.6981    3.7766    2.7392 Cl  0  0  0  0  0  0  0  0  0  0  0  0
   -2.9829   -1.3628   -0.7835 O   0  0  0  0  0  0  0  0  0  0  0  0
   -4.3091   -1.1245   -0.3318 C   0  0  0  0  0  0  0  0  0  0  0  0
   -4.9234   -1.9052   -0.7816 H   0  0  0  0  0  0  0  0  0  0  0  0
   -4.6749   -0.1429   -0.6578 H   0  0  0  0  0  0  0  0  0  0  0  0
   -4.3801   -1.1917    0.7613 H   0  0  0  0  0  0  0  0  0  0  0  0
  1  2  2  0  0  0  0
  1  6  1  0  0  0  0
  2  3  1  0  0  0  0
  3  4  2  0  0  0  0
  5  4  1  0  0  0  0
  5 10  1  0  0  0  0
  6  5  2  0  0  0  0
  7  1  1  0  0  0  0
  8  2  1  0  0  0  0
  9 13  1  0  0  0  0
 12 11  3  0  0  0  0
 14  6  1  0  0  0  0
 14 15  1  0  0  0  0
 15 18  1  0  0  0  0
 16 15  1  0  0  0  0
 17 15  1  0  0  0  0
M  RAD  2   3   2   4   2
M  END
