Coordinates from ORCA-job 4-MeO-Ph-N2-Cl-B3LYPG-6-31G_dp-MTMO-d009-169-n800
 OpenBabel09051908453D

 18 16  0  0  0  0  0  0  0  0999 V2000
   -0.8000    0.4370   -1.0449 C   0  0  0  0  0  0  0  0  0  0  0  0
    0.0938    1.3709   -0.4998 C   0  0  0  0  0  0  0  0  0  0  0  0
   -0.4353    1.8295    0.6860 C   0  0  0  0  0  0  0  0  0  0  0  0
   -1.4903    1.5833    1.3175 C   0  0  0  0  0  0  0  0  0  0  0  0
   -2.4203    0.6599    0.8224 C   0  0  0  0  0  0  0  0  0  0  0  0
   -2.0223    0.0864   -0.4088 C   0  0  0  0  0  0  0  0  0  0  0  0
   -0.5685   -0.0468   -1.9886 H   0  0  0  0  0  0  0  0  0  0  0  0
    1.0284    1.6488   -0.9701 H   0  0  0  0  0  0  0  0  0  0  0  0
   -1.9992    2.3906    2.9861 H   0  0  0  0  0  0  0  0  0  0  0  0
   -3.3482    0.4030    1.3166 H   0  0  0  0  0  0  0  0  0  0  0  0
    5.2065   -6.1611   -5.8668 N   0  0  0  0  0  0  0  0  0  0  0  0
    5.7378   -7.1042   -6.0900 N   0  0  0  0  0  0  0  0  0  0  0  0
   -2.5247    2.8248    4.1173 Cl  0  0  0  0  0  0  0  0  0  0  0  0
   -2.7610   -0.8372   -1.0851 O   0  0  0  0  0  0  0  0  0  0  0  0
   -3.9976   -1.2554   -0.5230 C   0  0  0  0  0  0  0  0  0  0  0  0
   -4.4104   -1.9868   -1.2191 H   0  0  0  0  0  0  0  0  0  0  0  0
   -4.6975   -0.4165   -0.4206 H   0  0  0  0  0  0  0  0  0  0  0  0
   -3.8549   -1.7288    0.4568 H   0  0  0  0  0  0  0  0  0  0  0  0
  1  2  2  0  0  0  0
  1  6  1  0  0  0  0
  2  3  1  0  0  0  0
  3  4  2  0  0  0  0
  5 10  1  0  0  0  0
  5  4  1  0  0  0  0
  6  5  2  0  0  0  0
  7  1  1  0  0  0  0
  8  2  1  0  0  0  0
  9 13  1  0  0  0  0
 12 11  3  0  0  0  0
 14 15  1  0  0  0  0
 14  6  1  0  0  0  0
 15 17  1  0  0  0  0
 15 18  1  0  0  0  0
 16 15  1  0  0  0  0
M  RAD  2   3   2   4   2
M  END
