Coordinates from ORCA-job 4-MeO-Ph-N2-Cl-B3LYPG-6-31G_dp-MTMO-d009-169-n800
 OpenBabel09051908443D

 18 16  0  0  0  0  0  0  0  0999 V2000
   -0.6499   -0.6770   -0.7474 C   0  0  0  0  0  0  0  0  0  0  0  0
    0.4337    0.1274   -0.3645 C   0  0  0  0  0  0  0  0  0  0  0  0
   -0.0386    1.1173    0.4691 C   0  0  0  0  0  0  0  0  0  0  0  0
   -1.1760    1.4064    0.9107 C   0  0  0  0  0  0  0  0  0  0  0  0
   -2.2957    0.6397    0.5640 C   0  0  0  0  0  0  0  0  0  0  0  0
   -1.9778   -0.4345   -0.3012 C   0  0  0  0  0  0  0  0  0  0  0  0
   -0.4891   -1.5235   -1.4080 H   0  0  0  0  0  0  0  0  0  0  0  0
    1.4503   -0.0436   -0.6954 H   0  0  0  0  0  0  0  0  0  0  0  0
   -1.5778    2.8853    2.0716 H   0  0  0  0  0  0  0  0  0  0  0  0
   -3.3017    0.8360    0.9121 H   0  0  0  0  0  0  0  0  0  0  0  0
    4.4185   -4.0313   -4.9289 N   0  0  0  0  0  0  0  0  0  0  0  0
    4.9917   -4.5729   -5.7033 N   0  0  0  0  0  0  0  0  0  0  0  0
   -2.0600    3.8317    2.8562 Cl  0  0  0  0  0  0  0  0  0  0  0  0
   -2.8990   -1.3184   -0.7768 O   0  0  0  0  0  0  0  0  0  0  0  0
   -4.2554   -1.1551   -0.3852 C   0  0  0  0  0  0  0  0  0  0  0  0
   -4.8076   -1.9564   -0.8773 H   0  0  0  0  0  0  0  0  0  0  0  0
   -4.6548   -0.1867   -0.7116 H   0  0  0  0  0  0  0  0  0  0  0  0
   -4.3745   -1.2472    0.7017 H   0  0  0  0  0  0  0  0  0  0  0  0
  1  2  2  0  0  0  0
  1  6  1  0  0  0  0
  2  3  1  0  0  0  0
  3  4  2  0  0  0  0
  5  4  1  0  0  0  0
  5 10  1  0  0  0  0
  6  5  2  0  0  0  0
  7  1  1  0  0  0  0
  8  2  1  0  0  0  0
  9 13  1  0  0  0  0
 12 11  3  0  0  0  0
 14 15  1  0  0  0  0
 14  6  1  0  0  0  0
 15 18  1  0  0  0  0
 16 15  1  0  0  0  0
 17 15  1  0  0  0  0
M  RAD  2   3   2   4   2
M  END
