Coordinates from ORCA-job 4-MeO-Ph-N2-Cl-B3LYPG-6-31G_dp-MTMO-d009-169-n800
 OpenBabel09051908443D

 18 16  0  0  0  0  0  0  0  0999 V2000
   -0.6534   -0.6917   -0.7571 C   0  0  0  0  0  0  0  0  0  0  0  0
    0.4350    0.1087   -0.3796 C   0  0  0  0  0  0  0  0  0  0  0  0
   -0.0300    1.1025    0.4535 C   0  0  0  0  0  0  0  0  0  0  0  0
   -1.1645    1.3974    0.8986 C   0  0  0  0  0  0  0  0  0  0  0  0
   -2.2888    0.6349    0.5574 C   0  0  0  0  0  0  0  0  0  0  0  0
   -1.9787   -0.4424   -0.3067 C   0  0  0  0  0  0  0  0  0  0  0  0
   -0.4986   -1.5404   -1.4164 H   0  0  0  0  0  0  0  0  0  0  0  0
    1.4497   -0.0674   -0.7137 H   0  0  0  0  0  0  0  0  0  0  0  0
   -1.5553    2.8794    2.0591 H   0  0  0  0  0  0  0  0  0  0  0  0
   -3.2927    0.8363    0.9087 H   0  0  0  0  0  0  0  0  0  0  0  0
    4.3912   -3.9783   -4.8776 N   0  0  0  0  0  0  0  0  0  0  0  0
    4.9665   -4.5159   -5.6532 N   0  0  0  0  0  0  0  0  0  0  0  0
   -2.0301    3.8289    2.8445 Cl  0  0  0  0  0  0  0  0  0  0  0  0
   -2.9055   -1.3232   -0.7773 O   0  0  0  0  0  0  0  0  0  0  0  0
   -4.2598   -1.1529   -0.3816 C   0  0  0  0  0  0  0  0  0  0  0  0
   -4.8172   -1.9528   -0.8700 H   0  0  0  0  0  0  0  0  0  0  0  0
   -4.6558   -0.1835   -0.7087 H   0  0  0  0  0  0  0  0  0  0  0  0
   -4.3757   -1.2421    0.7060 H   0  0  0  0  0  0  0  0  0  0  0  0
  1  2  2  0  0  0  0
  1  6  1  0  0  0  0
  2  3  1  0  0  0  0
  3  4  2  0  0  0  0
  5  4  1  0  0  0  0
  5 10  1  0  0  0  0
  6  5  2  0  0  0  0
  7  1  1  0  0  0  0
  8  2  1  0  0  0  0
  9 13  1  0  0  0  0
 12 11  3  0  0  0  0
 14 15  1  0  0  0  0
 14  6  1  0  0  0  0
 15 18  1  0  0  0  0
 16 15  1  0  0  0  0
 17 15  1  0  0  0  0
M  RAD  2   3   2   4   2
M  END
