Coordinates from ORCA-job 4-MeO-Ph-N2-Cl-B3LYPG-6-31G_dp-MTMO-d009-169-n800
 OpenBabel09051908453D

 18 16  0  0  0  0  0  0  0  0999 V2000
   -1.0132    0.6458   -0.8671 C   0  0  0  0  0  0  0  0  0  0  0  0
   -0.1242    1.5836   -0.3207 C   0  0  0  0  0  0  0  0  0  0  0  0
   -0.6565    2.0393    0.8649 C   0  0  0  0  0  0  0  0  0  0  0  0
   -1.7111    1.7878    1.4949 C   0  0  0  0  0  0  0  0  0  0  0  0
   -2.6364    0.8604    0.9988 C   0  0  0  0  0  0  0  0  0  0  0  0
   -2.2345    0.2892   -0.2322 C   0  0  0  0  0  0  0  0  0  0  0  0
   -0.7785    0.1633   -1.8106 H   0  0  0  0  0  0  0  0  0  0  0  0
    0.8095    1.8661   -0.7899 H   0  0  0  0  0  0  0  0  0  0  0  0
   -2.2260    2.5925    3.1639 H   0  0  0  0  0  0  0  0  0  0  0  0
   -3.5636    0.5991    1.4919 H   0  0  0  0  0  0  0  0  0  0  0  0
    6.9209   -7.7778   -7.2810 N   0  0  0  0  0  0  0  0  0  0  0  0
    7.4545   -8.7202   -7.5018 N   0  0  0  0  0  0  0  0  0  0  0  0
   -2.7547    3.0238    4.2945 Cl  0  0  0  0  0  0  0  0  0  0  0  0
   -2.9682   -0.6375   -0.9097 O   0  0  0  0  0  0  0  0  0  0  0  0
   -4.2032   -1.0619   -0.3487 C   0  0  0  0  0  0  0  0  0  0  0  0
   -4.6119   -1.7950   -1.0455 H   0  0  0  0  0  0  0  0  0  0  0  0
   -4.9073   -0.2264   -0.2467 H   0  0  0  0  0  0  0  0  0  0  0  0
   -4.0592   -1.5349    0.6309 H   0  0  0  0  0  0  0  0  0  0  0  0
  1  2  2  0  0  0  0
  1  6  1  0  0  0  0
  2  3  1  0  0  0  0
  3  4  2  0  0  0  0
  5 10  1  0  0  0  0
  5  4  1  0  0  0  0
  6  5  2  0  0  0  0
  7  1  1  0  0  0  0
  8  2  1  0  0  0  0
  9 13  1  0  0  0  0
 12 11  3  0  0  0  0
 14 15  1  0  0  0  0
 14  6  1  0  0  0  0
 15 17  1  0  0  0  0
 15 18  1  0  0  0  0
 16 15  1  0  0  0  0
M  RAD  2   3   2   4   2
M  END
