Coordinates from ORCA-job 4-MeO-Ph-N2-Cl-B3LYPG-6-31G_dp-MTMO-d009-169-n800
 OpenBabel09051908443D

 18 16  0  0  0  0  0  0  0  0999 V2000
   -1.3895   -1.7886   -1.5184 C   0  0  0  0  0  0  0  0  0  0  0  0
   -0.0288   -1.5120   -1.6831 C   0  0  0  0  0  0  0  0  0  0  0  0
    0.3479   -0.4125   -0.9672 C   0  0  0  0  0  0  0  0  0  0  0  0
   -0.2907    0.4440   -0.1571 C   0  0  0  0  0  0  0  0  0  0  0  0
   -1.6592    0.1318   -0.0182 C   0  0  0  0  0  0  0  0  0  0  0  0
   -2.1991   -0.9763   -0.6938 C   0  0  0  0  0  0  0  0  0  0  0  0
   -1.8419   -2.6354   -2.0234 H   0  0  0  0  0  0  0  0  0  0  0  0
    0.6299   -2.1060   -2.3032 H   0  0  0  0  0  0  0  0  0  0  0  0
    0.2171    1.2967    0.3411 H   0  0  0  0  0  0  0  0  0  0  0  0
   -2.2690    0.7657    0.6140 H   0  0  0  0  0  0  0  0  0  0  0  0
    2.3357    0.1158   -1.1064 N   0  0  0  0  0  0  0  0  0  0  0  0
    2.9034    0.9590   -0.6225 N   0  0  0  0  0  0  0  0  0  0  0  0
    1.7524    2.6251    0.9451 Cl  0  0  0  0  0  0  0  0  0  0  0  0
   -3.4978   -1.3560   -0.6208 O   0  0  0  0  0  0  0  0  0  0  0  0
   -4.3852   -0.5988    0.1968 C   0  0  0  0  0  0  0  0  0  0  0  0
   -5.3567   -1.0856    0.1100 H   0  0  0  0  0  0  0  0  0  0  0  0
   -4.4656    0.4373   -0.1533 H   0  0  0  0  0  0  0  0  0  0  0  0
   -4.0665   -0.6066    1.2463 H   0  0  0  0  0  0  0  0  0  0  0  0
  1  6  1  0  0  0  0
  2  1  2  0  0  0  0
  2  3  1  0  0  0  0
  3  4  2  0  0  0  0
  4  5  1  0  0  0  0
  4  9  1  0  0  0  0
  5 10  1  0  0  0  0
  6 14  1  0  0  0  0
  6  5  2  0  0  0  0
  7  1  1  0  0  0  0
  8  2  1  0  0  0  0
 11 12  3  0  0  0  0
 14 15  1  0  0  0  0
 15 18  1  0  0  0  0
 16 15  1  0  0  0  0
 17 15  1  0  0  0  0
M  RAD  2   3   2  13   2
M  END
