Coordinates from ORCA-job 4-MeO-Ph-N2-Cl-B3LYPG-6-31G_dp-MTMO-d009-169-n800
 OpenBabel09051908443D

 18 16  0  0  0  0  0  0  0  0999 V2000
   -0.6870   -0.7794   -0.8306 C   0  0  0  0  0  0  0  0  0  0  0  0
    0.4337   -0.0065   -0.4919 C   0  0  0  0  0  0  0  0  0  0  0  0
    0.0199    1.0073    0.3440 C   0  0  0  0  0  0  0  0  0  0  0  0
   -1.0923    1.3378    0.8194 C   0  0  0  0  0  0  0  0  0  0  0  0
   -2.2464    0.6037    0.5173 C   0  0  0  0  0  0  0  0  0  0  0  0
   -1.9914   -0.4892   -0.3451 C   0  0  0  0  0  0  0  0  0  0  0  0
   -0.5747   -1.6380   -1.4856 H   0  0  0  0  0  0  0  0  0  0  0  0
    1.4331   -0.2140   -0.8528 H   0  0  0  0  0  0  0  0  0  0  0  0
   -1.4044    2.8327    1.9856 H   0  0  0  0  0  0  0  0  0  0  0  0
   -3.2338    0.8356    0.8954 H   0  0  0  0  0  0  0  0  0  0  0  0
    4.2486   -3.6491   -4.5488 N   0  0  0  0  0  0  0  0  0  0  0  0
    4.8412   -4.1662   -5.3253 N   0  0  0  0  0  0  0  0  0  0  0  0
   -1.8250    3.7978    2.7829 Cl  0  0  0  0  0  0  0  0  0  0  0  0
   -2.9554   -1.3478   -0.7807 O   0  0  0  0  0  0  0  0  0  0  0  0
   -4.2928   -1.1352   -0.3496 C   0  0  0  0  0  0  0  0  0  0  0  0
   -4.8860   -1.9235   -0.8142 H   0  0  0  0  0  0  0  0  0  0  0  0
   -4.6702   -0.1580   -0.6757 H   0  0  0  0  0  0  0  0  0  0  0  0
   -4.3808   -1.2105    0.7417 H   0  0  0  0  0  0  0  0  0  0  0  0
  1  2  2  0  0  0  0
  1  6  1  0  0  0  0
  2  3  1  0  0  0  0
  3  4  2  0  0  0  0
  5  4  1  0  0  0  0
  5 10  1  0  0  0  0
  6  5  2  0  0  0  0
  7  1  1  0  0  0  0
  8  2  1  0  0  0  0
  9 13  1  0  0  0  0
 12 11  3  0  0  0  0
 14 15  1  0  0  0  0
 14  6  1  0  0  0  0
 15 18  1  0  0  0  0
 16 15  1  0  0  0  0
 17 15  1  0  0  0  0
M  RAD  2   3   2   4   2
M  END
