Coordinates from ORCA-job 4-MeO-Ph-N2-Cl-B3LYPG-6-31G_dp-MTMO-d009-169-n800
 OpenBabel09051908453D

 18 16  0  0  0  0  0  0  0  0999 V2000
   -0.7251    0.3527   -1.0896 C   0  0  0  0  0  0  0  0  0  0  0  0
    0.1711    1.2854   -0.5465 C   0  0  0  0  0  0  0  0  0  0  0  0
   -0.3629    1.7568    0.6320 C   0  0  0  0  0  0  0  0  0  0  0  0
   -1.4231    1.5232    1.2597 C   0  0  0  0  0  0  0  0  0  0  0  0
   -2.3555    0.6013    0.7655 C   0  0  0  0  0  0  0  0  0  0  0  0
   -1.9536    0.0151   -0.4582 C   0  0  0  0  0  0  0  0  0  0  0  0
   -0.4908   -0.1403   -2.0278 H   0  0  0  0  0  0  0  0  0  0  0  0
    1.1103    1.5537   -1.0130 H   0  0  0  0  0  0  0  0  0  0  0  0
   -1.9356    2.3460    2.9177 H   0  0  0  0  0  0  0  0  0  0  0  0
   -3.2882    0.3542    1.2557 H   0  0  0  0  0  0  0  0  0  0  0  0
    4.6697   -5.6376   -5.4428 N   0  0  0  0  0  0  0  0  0  0  0  0
    5.2011   -6.5812   -5.6641 N   0  0  0  0  0  0  0  0  0  0  0  0
   -2.4644    2.7923    4.0429 Cl  0  0  0  0  0  0  0  0  0  0  0  0
   -2.6939   -0.9093   -1.1315 O   0  0  0  0  0  0  0  0  0  0  0  0
   -3.9369   -1.3147   -0.5741 C   0  0  0  0  0  0  0  0  0  0  0  0
   -4.3500   -2.0491   -1.2670 H   0  0  0  0  0  0  0  0  0  0  0  0
   -4.6319   -0.4704   -0.4833 H   0  0  0  0  0  0  0  0  0  0  0  0
   -3.8039   -1.7809    0.4104 H   0  0  0  0  0  0  0  0  0  0  0  0
  1  2  2  0  0  0  0
  1  6  1  0  0  0  0
  2  3  1  0  0  0  0
  3  4  2  0  0  0  0
  5 10  1  0  0  0  0
  5  4  1  0  0  0  0
  6  5  2  0  0  0  0
  7  1  1  0  0  0  0
  8  2  1  0  0  0  0
  9 13  1  0  0  0  0
 12 11  3  0  0  0  0
 14 15  1  0  0  0  0
 14  6  1  0  0  0  0
 15 17  1  0  0  0  0
 15 18  1  0  0  0  0
 16 15  1  0  0  0  0
M  RAD  2   3   2   4   2
M  END
