Coordinates from ORCA-job 4-MeO-Ph-N2-Cl-B3LYPG-6-31G_dp-MTMO-d009-169-n800
 OpenBabel09051908443D

 18 16  0  0  0  0  0  0  0  0999 V2000
   -1.3970   -1.8038   -1.5285 C   0  0  0  0  0  0  0  0  0  0  0  0
   -0.0300   -1.5625   -1.7221 C   0  0  0  0  0  0  0  0  0  0  0  0
    0.3272   -0.4635   -1.0003 C   0  0  0  0  0  0  0  0  0  0  0  0
   -0.2366    0.3987   -0.2046 C   0  0  0  0  0  0  0  0  0  0  0  0
   -1.6163    0.1330   -0.0277 C   0  0  0  0  0  0  0  0  0  0  0  0
   -2.1814   -0.9701   -0.6935 C   0  0  0  0  0  0  0  0  0  0  0  0
   -1.8752   -2.6435   -2.0223 H   0  0  0  0  0  0  0  0  0  0  0  0
    0.6093   -2.1703   -2.3489 H   0  0  0  0  0  0  0  0  0  0  0  0
    0.2883    1.3288    0.3497 H   0  0  0  0  0  0  0  0  0  0  0  0
   -2.1965    0.7869    0.6129 H   0  0  0  0  0  0  0  0  0  0  0  0
    2.4738    0.0849   -1.1655 N   0  0  0  0  0  0  0  0  0  0  0  0
    3.0706    0.8994   -0.7067 N   0  0  0  0  0  0  0  0  0  0  0  0
    1.0897    2.6504    1.1343 Cl  0  0  0  0  0  0  0  0  0  0  0  0
   -3.4861   -1.3288   -0.6026 O   0  0  0  0  0  0  0  0  0  0  0  0
   -4.3476   -0.5504    0.2230 C   0  0  0  0  0  0  0  0  0  0  0  0
   -5.3296   -1.0187    0.1520 H   0  0  0  0  0  0  0  0  0  0  0  0
   -4.4119    0.4854   -0.1312 H   0  0  0  0  0  0  0  0  0  0  0  0
   -4.0144   -0.5585    1.2678 H   0  0  0  0  0  0  0  0  0  0  0  0
  1  6  1  0  0  0  0
  2  1  2  0  0  0  0
  2  3  1  0  0  0  0
  3  4  2  0  0  0  0
  4  5  1  0  0  0  0
  4  9  1  0  0  0  0
  5 10  1  0  0  0  0
  6 14  1  0  0  0  0
  6  5  2  0  0  0  0
  7  1  1  0  0  0  0
  8  2  1  0  0  0  0
 11 12  3  0  0  0  0
 14 15  1  0  0  0  0
 15 18  1  0  0  0  0
 16 15  1  0  0  0  0
 17 15  1  0  0  0  0
M  RAD  2   3   2  13   2
M  END
