Coordinates from ORCA-job 4-MeO-Ph-N2-Cl-B3LYPG-6-31G_dp-MTMO-d009-169-n800
 OpenBabel09051908443D

 18 16  0  0  0  0  0  0  0  0999 V2000
   -0.7707   -0.9880   -1.0078 C   0  0  0  0  0  0  0  0  0  0  0  0
    0.4208   -0.2890   -0.7622 C   0  0  0  0  0  0  0  0  0  0  0  0
    0.1336    0.7640    0.0777 C   0  0  0  0  0  0  0  0  0  0  0  0
   -0.9170    1.1801    0.6214 C   0  0  0  0  0  0  0  0  0  0  0  0
   -2.1361    0.5222    0.4123 C   0  0  0  0  0  0  0  0  0  0  0  0
   -2.0158   -0.5997   -0.4417 C   0  0  0  0  0  0  0  0  0  0  0  0
   -0.7625   -1.8630   -1.6503 H   0  0  0  0  0  0  0  0  0  0  0  0
    1.3763   -0.5714   -1.1856 H   0  0  0  0  0  0  0  0  0  0  0  0
   -1.0375    2.6969    1.7886 H   0  0  0  0  0  0  0  0  0  0  0  0
   -3.0773    0.8282    0.8504 H   0  0  0  0  0  0  0  0  0  0  0  0
    3.8220   -2.8096   -3.7530 N   0  0  0  0  0  0  0  0  0  0  0  0
    4.5134   -3.3039   -4.4595 N   0  0  0  0  0  0  0  0  0  0  0  0
   -1.3260    3.6932    2.6069 Cl  0  0  0  0  0  0  0  0  0  0  0  0
   -3.0637   -1.3966   -0.7931 O   0  0  0  0  0  0  0  0  0  0  0  0
   -4.3497   -1.0887   -0.2726 C   0  0  0  0  0  0  0  0  0  0  0  0
   -5.0254   -1.8421   -0.6790 H   0  0  0  0  0  0  0  0  0  0  0  0
   -4.6847   -0.0933   -0.5900 H   0  0  0  0  0  0  0  0  0  0  0  0
   -4.3633   -1.1420    0.8234 H   0  0  0  0  0  0  0  0  0  0  0  0
  1  2  2  0  0  0  0
  1  6  1  0  0  0  0
  2  3  1  0  0  0  0
  3  4  2  0  0  0  0
  5  4  1  0  0  0  0
  5 10  1  0  0  0  0
  6  5  2  0  0  0  0
  7  1  1  0  0  0  0
  8  2  1  0  0  0  0
  9 13  1  0  0  0  0
 12 11  3  0  0  0  0
 14  6  1  0  0  0  0
 14 15  1  0  0  0  0
 15 18  1  0  0  0  0
 16 15  1  0  0  0  0
 17 15  1  0  0  0  0
M  RAD  2   3   2   4   2
M  END
