Coordinates from ORCA-job 4-MeO-Ph-N2-Cl-B3LYPG-6-31G_dp-MTMO-d009-169-n800
 OpenBabel09051908453D

 18 16  0  0  0  0  0  0  0  0999 V2000
   -1.0335    0.6600   -0.8791 C   0  0  0  0  0  0  0  0  0  0  0  0
   -0.1372    1.5912   -0.3336 C   0  0  0  0  0  0  0  0  0  0  0  0
   -0.6563    2.0367    0.8616 C   0  0  0  0  0  0  0  0  0  0  0  0
   -1.7045    1.7818    1.5009 C   0  0  0  0  0  0  0  0  0  0  0  0
   -2.6364    0.8603    1.0056 C   0  0  0  0  0  0  0  0  0  0  0  0
   -2.2487    0.2997   -0.2347 C   0  0  0  0  0  0  0  0  0  0  0  0
   -0.8097    0.1858   -1.8295 H   0  0  0  0  0  0  0  0  0  0  0  0
    0.7921    1.8762   -0.8100 H   0  0  0  0  0  0  0  0  0  0  0  0
   -2.2034    2.5717    3.1797 H   0  0  0  0  0  0  0  0  0  0  0  0
   -3.5589    0.5961    1.5062 H   0  0  0  0  0  0  0  0  0  0  0  0
    6.9798   -7.8169   -7.2951 N   0  0  0  0  0  0  0  0  0  0  0  0
    7.5137   -8.7596   -7.5142 N   0  0  0  0  0  0  0  0  0  0  0  0
   -2.7205    2.9949    4.3191 Cl  0  0  0  0  0  0  0  0  0  0  0  0
   -2.9912   -0.6195   -0.9127 O   0  0  0  0  0  0  0  0  0  0  0  0
   -4.2209   -1.0471   -0.3426 C   0  0  0  0  0  0  0  0  0  0  0  0
   -4.6382   -1.7732   -1.0416 H   0  0  0  0  0  0  0  0  0  0  0  0
   -4.9225   -0.2115   -0.2255 H   0  0  0  0  0  0  0  0  0  0  0  0
   -4.0672   -1.5292    0.6312 H   0  0  0  0  0  0  0  0  0  0  0  0
  1  2  2  0  0  0  0
  1  6  1  0  0  0  0
  2  3  1  0  0  0  0
  3  4  2  0  0  0  0
  5  4  1  0  0  0  0
  5 10  1  0  0  0  0
  6  5  2  0  0  0  0
  7  1  1  0  0  0  0
  8  2  1  0  0  0  0
  9 13  1  0  0  0  0
 12 11  3  0  0  0  0
 14 15  1  0  0  0  0
 14  6  1  0  0  0  0
 15 17  1  0  0  0  0
 15 18  1  0  0  0  0
 16 15  1  0  0  0  0
M  RAD  2   3   2   4   2
M  END
