Coordinates from ORCA-job 4-MeO-Ph-N2-Cl-B3LYPG-6-31G_dp-MTMO-d009-169-n800
 OpenBabel09051908453D

 18 16  0  0  0  0  0  0  0  0999 V2000
   -0.7717    0.4082   -1.0543 C   0  0  0  0  0  0  0  0  0  0  0  0
    0.1206    1.3436   -0.5094 C   0  0  0  0  0  0  0  0  0  0  0  0
   -0.4141    1.8084    0.6714 C   0  0  0  0  0  0  0  0  0  0  0  0
   -1.4723    1.5675    1.2997 C   0  0  0  0  0  0  0  0  0  0  0  0
   -2.4007    0.6425    0.8038 C   0  0  0  0  0  0  0  0  0  0  0  0
   -1.9976    0.0624   -0.4223 C   0  0  0  0  0  0  0  0  0  0  0  0
   -0.5362   -0.0805   -1.9945 H   0  0  0  0  0  0  0  0  0  0  0  0
    1.0577    1.6181   -0.9763 H   0  0  0  0  0  0  0  0  0  0  0  0
   -1.9871    2.3833    2.9607 H   0  0  0  0  0  0  0  0  0  0  0  0
   -3.3315    0.3892    1.2946 H   0  0  0  0  0  0  0  0  0  0  0  0
    5.0282   -5.9958   -5.7404 N   0  0  0  0  0  0  0  0  0  0  0  0
    5.5614   -6.9384   -5.9614 N   0  0  0  0  0  0  0  0  0  0  0  0
   -2.5167    2.8240    4.0877 Cl  0  0  0  0  0  0  0  0  0  0  0  0
   -2.7342   -0.8636   -1.0977 O   0  0  0  0  0  0  0  0  0  0  0  0
   -3.9742   -1.2773   -0.5397 C   0  0  0  0  0  0  0  0  0  0  0  0
   -4.3845   -2.0115   -1.2343 H   0  0  0  0  0  0  0  0  0  0  0  0
   -4.6734   -0.4369   -0.4451 H   0  0  0  0  0  0  0  0  0  0  0  0
   -3.8372   -1.7459    0.4431 H   0  0  0  0  0  0  0  0  0  0  0  0
  1  2  2  0  0  0  0
  1  6  1  0  0  0  0
  2  3  1  0  0  0  0
  3  4  2  0  0  0  0
  5 10  1  0  0  0  0
  5  4  1  0  0  0  0
  6  5  2  0  0  0  0
  7  1  1  0  0  0  0
  8  2  1  0  0  0  0
  9 13  1  0  0  0  0
 12 11  3  0  0  0  0
 14 15  1  0  0  0  0
 14  6  1  0  0  0  0
 15 17  1  0  0  0  0
 15 18  1  0  0  0  0
 16 15  1  0  0  0  0
M  RAD  2   3   2   4   2
M  END
