Coordinates from ORCA-job 4-MeO-Ph-N2-Cl-B3LYPG-6-31G_dp-MTMO-d009-169-n800
 OpenBabel09051908453D

 18 16  0  0  0  0  0  0  0  0999 V2000
   -0.7654    0.4007   -1.0712 C   0  0  0  0  0  0  0  0  0  0  0  0
    0.1296    1.3339   -0.5267 C   0  0  0  0  0  0  0  0  0  0  0  0
   -0.3998    1.7952    0.6580 C   0  0  0  0  0  0  0  0  0  0  0  0
   -1.4558    1.5517    1.2890 C   0  0  0  0  0  0  0  0  0  0  0  0
   -2.3869    0.6292    0.7943 C   0  0  0  0  0  0  0  0  0  0  0  0
   -1.9888    0.0532   -0.4356 C   0  0  0  0  0  0  0  0  0  0  0  0
   -0.5339   -0.0849   -2.0140 H   0  0  0  0  0  0  0  0  0  0  0  0
    1.0650    1.6094   -0.9966 H   0  0  0  0  0  0  0  0  0  0  0  0
   -1.9644    2.3620    2.9561 H   0  0  0  0  0  0  0  0  0  0  0  0
   -3.3157    0.3747    1.2882 H   0  0  0  0  0  0  0  0  0  0  0  0
    4.9390   -5.9040   -5.6469 N   0  0  0  0  0  0  0  0  0  0  0  0
    5.4688   -6.8477   -5.8712 N   0  0  0  0  0  0  0  0  0  0  0  0
   -2.4898    2.7986    4.0865 Cl  0  0  0  0  0  0  0  0  0  0  0  0
   -2.7286   -0.8702   -1.1112 O   0  0  0  0  0  0  0  0  0  0  0  0
   -3.9664   -1.2852   -0.5496 C   0  0  0  0  0  0  0  0  0  0  0  0
   -4.3800   -2.0169   -1.2451 H   0  0  0  0  0  0  0  0  0  0  0  0
   -4.6649   -0.4449   -0.4491 H   0  0  0  0  0  0  0  0  0  0  0  0
   -3.8256   -1.7574    0.4310 H   0  0  0  0  0  0  0  0  0  0  0  0
  1  2  2  0  0  0  0
  1  6  1  0  0  0  0
  2  3  1  0  0  0  0
  3  4  2  0  0  0  0
  5 10  1  0  0  0  0
  5  4  1  0  0  0  0
  6  5  2  0  0  0  0
  7  1  1  0  0  0  0
  8  2  1  0  0  0  0
  9 13  1  0  0  0  0
 12 11  3  0  0  0  0
 14 15  1  0  0  0  0
 14  6  1  0  0  0  0
 15 17  1  0  0  0  0
 15 18  1  0  0  0  0
 16 15  1  0  0  0  0
M  RAD  2   3   2   4   2
M  END
