Coordinates from ORCA-job 4-MeO-Ph-N2-Cl-B3LYPG-6-31G_dp-MTMO-d009-169-n800
 OpenBabel09051908443D

 18 16  0  0  0  0  0  0  0  0999 V2000
   -0.6506   -0.6800   -0.7493 C   0  0  0  0  0  0  0  0  0  0  0  0
    0.4340    0.1236   -0.3675 C   0  0  0  0  0  0  0  0  0  0  0  0
   -0.0369    1.1144    0.4660 C   0  0  0  0  0  0  0  0  0  0  0  0
   -1.1737    1.4046    0.9083 C   0  0  0  0  0  0  0  0  0  0  0  0
   -2.2943    0.6387    0.5627 C   0  0  0  0  0  0  0  0  0  0  0  0
   -1.9780   -0.4361   -0.3022 C   0  0  0  0  0  0  0  0  0  0  0  0
   -0.4909   -1.5269   -1.4096 H   0  0  0  0  0  0  0  0  0  0  0  0
    1.4503   -0.0484   -0.6989 H   0  0  0  0  0  0  0  0  0  0  0  0
   -1.5733    2.8842    2.0691 H   0  0  0  0  0  0  0  0  0  0  0  0
   -3.2999    0.8361    0.9114 H   0  0  0  0  0  0  0  0  0  0  0  0
    4.4130   -4.0207   -4.9187 N   0  0  0  0  0  0  0  0  0  0  0  0
    4.9866   -4.5615   -5.6934 N   0  0  0  0  0  0  0  0  0  0  0  0
   -2.0540    3.8312    2.8538 Cl  0  0  0  0  0  0  0  0  0  0  0  0
   -2.9003   -1.3194   -0.7769 O   0  0  0  0  0  0  0  0  0  0  0  0
   -4.2563   -1.1546   -0.3845 C   0  0  0  0  0  0  0  0  0  0  0  0
   -4.8095   -1.9557   -0.8759 H   0  0  0  0  0  0  0  0  0  0  0  0
   -4.6550   -0.1861   -0.7110 H   0  0  0  0  0  0  0  0  0  0  0  0
   -4.3747   -1.2462    0.7025 H   0  0  0  0  0  0  0  0  0  0  0  0
  1  2  2  0  0  0  0
  1  6  1  0  0  0  0
  2  3  1  0  0  0  0
  3  4  2  0  0  0  0
  5  4  1  0  0  0  0
  5 10  1  0  0  0  0
  6  5  2  0  0  0  0
  7  1  1  0  0  0  0
  8  2  1  0  0  0  0
  9 13  1  0  0  0  0
 12 11  3  0  0  0  0
 14 15  1  0  0  0  0
 14  6  1  0  0  0  0
 15 18  1  0  0  0  0
 16 15  1  0  0  0  0
 17 15  1  0  0  0  0
M  RAD  2   3   2   4   2
M  END
