Coordinates from ORCA-job 4-MeO-Ph-N2-Cl-B3LYPG-6-31G_dp-MTMO-d009-169-n800
 OpenBabel09051908443D

 18 16  0  0  0  0  0  0  0  0999 V2000
   -0.6668   -0.7347   -0.7896 C   0  0  0  0  0  0  0  0  0  0  0  0
    0.4367    0.0532   -0.4298 C   0  0  0  0  0  0  0  0  0  0  0  0
   -0.0051    1.0574    0.4034 C   0  0  0  0  0  0  0  0  0  0  0  0
   -1.1299    1.3696    0.8613 C   0  0  0  0  0  0  0  0  0  0  0  0
   -2.2681    0.6201    0.5378 C   0  0  0  0  0  0  0  0  0  0  0  0
   -1.9830   -0.4655   -0.3244 C   0  0  0  0  0  0  0  0  0  0  0  0
   -0.5313   -1.5888   -1.4461 H   0  0  0  0  0  0  0  0  0  0  0  0
    1.4448   -0.1382   -0.7751 H   0  0  0  0  0  0  0  0  0  0  0  0
   -1.4853    2.8589    2.0230 H   0  0  0  0  0  0  0  0  0  0  0  0
   -3.2648    0.8363    0.9004 H   0  0  0  0  0  0  0  0  0  0  0  0
    4.3157   -3.8197   -4.7207 N   0  0  0  0  0  0  0  0  0  0  0  0
    4.8978   -4.3465   -5.4986 N   0  0  0  0  0  0  0  0  0  0  0  0
   -1.9358    3.8167    2.8127 Cl  0  0  0  0  0  0  0  0  0  0  0  0
   -2.9271   -1.3363   -0.7789 O   0  0  0  0  0  0  0  0  0  0  0  0
   -4.2742   -1.1454   -0.3684 C   0  0  0  0  0  0  0  0  0  0  0  0
   -4.8481   -1.9404   -0.8457 H   0  0  0  0  0  0  0  0  0  0  0  0
   -4.6608   -0.1725   -0.6965 H   0  0  0  0  0  0  0  0  0  0  0  0
   -4.3784   -1.2269    0.7209 H   0  0  0  0  0  0  0  0  0  0  0  0
  1  2  2  0  0  0  0
  1  6  1  0  0  0  0
  2  3  1  0  0  0  0
  3  4  2  0  0  0  0
  5  4  1  0  0  0  0
  5 10  1  0  0  0  0
  6  5  2  0  0  0  0
  7  1  1  0  0  0  0
  8  2  1  0  0  0  0
  9 13  1  0  0  0  0
 12 11  3  0  0  0  0
 14 15  1  0  0  0  0
 14  6  1  0  0  0  0
 15 18  1  0  0  0  0
 16 15  1  0  0  0  0
 17 15  1  0  0  0  0
M  RAD  2   3   2   4   2
M  END
