Coordinates from ORCA-job 4-MeO-Ph-N2-Cl-B3LYPG-6-31G_dp-MTMO-d009-169-n800
 OpenBabel09051908453D

 18 16  0  0  0  0  0  0  0  0999 V2000
   -1.0232    0.6552   -0.8565 C   0  0  0  0  0  0  0  0  0  0  0  0
   -0.1348    1.5936   -0.3102 C   0  0  0  0  0  0  0  0  0  0  0  0
   -0.6682    2.0503    0.8745 C   0  0  0  0  0  0  0  0  0  0  0  0
   -1.7233    1.7992    1.5038 C   0  0  0  0  0  0  0  0  0  0  0  0
   -2.6482    0.8714    1.0076 C   0  0  0  0  0  0  0  0  0  0  0  0
   -2.2450    0.2991   -0.2225 C   0  0  0  0  0  0  0  0  0  0  0  0
   -0.7877    0.1719   -1.7995 H   0  0  0  0  0  0  0  0  0  0  0  0
    0.7993    1.8757   -0.7787 H   0  0  0  0  0  0  0  0  0  0  0  0
   -2.2391    2.6055    3.1721 H   0  0  0  0  0  0  0  0  0  0  0  0
   -3.5758    0.6104    1.5002 H   0  0  0  0  0  0  0  0  0  0  0  0
    7.0102   -7.8610   -7.3556 N   0  0  0  0  0  0  0  0  0  0  0  0
    7.5428   -8.8038   -7.5773 N   0  0  0  0  0  0  0  0  0  0  0  0
   -2.7688    3.0374    4.3020 Cl  0  0  0  0  0  0  0  0  0  0  0  0
   -2.9781   -0.6283   -0.8998 O   0  0  0  0  0  0  0  0  0  0  0  0
   -4.2137   -1.0522   -0.3397 C   0  0  0  0  0  0  0  0  0  0  0  0
   -4.6217   -1.7860   -1.0362 H   0  0  0  0  0  0  0  0  0  0  0  0
   -4.9178   -0.2167   -0.2390 H   0  0  0  0  0  0  0  0  0  0  0  0
   -4.0705   -1.5243    0.6406 H   0  0  0  0  0  0  0  0  0  0  0  0
  1  2  2  0  0  0  0
  1  6  1  0  0  0  0
  2  3  1  0  0  0  0
  3  4  2  0  0  0  0
  5 10  1  0  0  0  0
  5  4  1  0  0  0  0
  6  5  2  0  0  0  0
  7  1  1  0  0  0  0
  8  2  1  0  0  0  0
  9 13  1  0  0  0  0
 12 11  3  0  0  0  0
 14 15  1  0  0  0  0
 14  6  1  0  0  0  0
 15 17  1  0  0  0  0
 15 18  1  0  0  0  0
 16 15  1  0  0  0  0
M  RAD  2   3   2   4   2
M  END
