Coordinates from ORCA-job 4-MeO-Ph-N2-Cl-B3LYPG-6-31G_dp-MTMO-d009-169-n800
 OpenBabel09051908453D

 18 16  0  0  0  0  0  0  0  0999 V2000
   -0.7256    0.3476   -1.1074 C   0  0  0  0  0  0  0  0  0  0  0  0
    0.1757    1.2762   -0.5655 C   0  0  0  0  0  0  0  0  0  0  0  0
   -0.3498    1.7434    0.6187 C   0  0  0  0  0  0  0  0  0  0  0  0
   -1.4069    1.5077    1.2506 C   0  0  0  0  0  0  0  0  0  0  0  0
   -2.3444    0.5903    0.7588 C   0  0  0  0  0  0  0  0  0  0  0  0
   -1.9508    0.0092   -0.4703 C   0  0  0  0  0  0  0  0  0  0  0  0
   -0.4980   -0.1414   -2.0494 H   0  0  0  0  0  0  0  0  0  0  0  0
    1.1125    1.5449   -1.0366 H   0  0  0  0  0  0  0  0  0  0  0  0
   -1.9092    2.3238    2.9174 H   0  0  0  0  0  0  0  0  0  0  0  0
   -3.2744    0.3428    1.2539 H   0  0  0  0  0  0  0  0  0  0  0  0
    4.6149   -5.5674   -5.3646 N   0  0  0  0  0  0  0  0  0  0  0  0
    5.1429   -6.5122   -5.5888 N   0  0  0  0  0  0  0  0  0  0  0  0
   -2.4314    2.7648    4.0474 Cl  0  0  0  0  0  0  0  0  0  0  0  0
   -2.6969   -0.9107   -1.1435 O   0  0  0  0  0  0  0  0  0  0  0  0
   -3.9372   -1.3164   -0.5804 C   0  0  0  0  0  0  0  0  0  0  0  0
   -4.3560   -2.0467   -1.2742 H   0  0  0  0  0  0  0  0  0  0  0  0
   -4.6300   -0.4712   -0.4813 H   0  0  0  0  0  0  0  0  0  0  0  0
   -3.7990   -1.7874    0.4011 H   0  0  0  0  0  0  0  0  0  0  0  0
  1  2  2  0  0  0  0
  1  6  1  0  0  0  0
  2  3  1  0  0  0  0
  3  4  2  0  0  0  0
  5  4  1  0  0  0  0
  5 10  1  0  0  0  0
  6  5  2  0  0  0  0
  7  1  1  0  0  0  0
  8  2  1  0  0  0  0
  9 13  1  0  0  0  0
 12 11  3  0  0  0  0
 14 15  1  0  0  0  0
 14  6  1  0  0  0  0
 15 17  1  0  0  0  0
 15 18  1  0  0  0  0
 16 15  1  0  0  0  0
M  RAD  2   3   2   4   2
M  END
