Coordinates from ORCA-job 4-MeO-Ph-N2-Cl-B3LYPG-6-31G_dp-MTMO-d009-169-n800
 OpenBabel09051908443D

 18 16  0  0  0  0  0  0  0  0999 V2000
   -1.4332   -1.7553   -1.4875 C   0  0  0  0  0  0  0  0  0  0  0  0
   -0.0704   -1.4753   -1.6686 C   0  0  0  0  0  0  0  0  0  0  0  0
    0.2340   -0.3552   -0.9308 C   0  0  0  0  0  0  0  0  0  0  0  0
   -0.4210    0.4095   -0.1817 C   0  0  0  0  0  0  0  0  0  0  0  0
   -1.7874    0.1747    0.0321 C   0  0  0  0  0  0  0  0  0  0  0  0
   -2.2733   -0.9579   -0.6627 C   0  0  0  0  0  0  0  0  0  0  0  0
   -1.8822   -2.6085   -1.9863 H   0  0  0  0  0  0  0  0  0  0  0  0
    0.5888   -2.0672   -2.2905 H   0  0  0  0  0  0  0  0  0  0  0  0
    0.2704    1.9024    0.7572 H   0  0  0  0  0  0  0  0  0  0  0  0
   -2.4175    0.7911    0.6609 H   0  0  0  0  0  0  0  0  0  0  0  0
    3.3429   -0.2215   -1.5992 N   0  0  0  0  0  0  0  0  0  0  0  0
    4.2534    0.3492   -1.3407 N   0  0  0  0  0  0  0  0  0  0  0  0
    0.5813    2.9676    1.4804 Cl  0  0  0  0  0  0  0  0  0  0  0  0
   -3.5670   -1.3813   -0.6061 O   0  0  0  0  0  0  0  0  0  0  0  0
   -4.4810   -0.6505    0.1998 C   0  0  0  0  0  0  0  0  0  0  0  0
   -5.4394   -1.1625    0.1052 H   0  0  0  0  0  0  0  0  0  0  0  0
   -4.5877    0.3844   -0.1492 H   0  0  0  0  0  0  0  0  0  0  0  0
   -4.1744   -0.6462    1.2536 H   0  0  0  0  0  0  0  0  0  0  0  0
  1  6  1  0  0  0  0
  2  1  2  0  0  0  0
  2  3  1  0  0  0  0
  3  4  2  0  0  0  0
  4  5  1  0  0  0  0
  5 10  1  0  0  0  0
  6 14  1  0  0  0  0
  6  5  2  0  0  0  0
  7  1  1  0  0  0  0
  8  2  1  0  0  0  0
  9 13  1  0  0  0  0
 11 12  3  0  0  0  0
 14 15  1  0  0  0  0
 15 18  1  0  0  0  0
 16 15  1  0  0  0  0
 17 15  1  0  0  0  0
M  RAD  2   3   2   4   2
M  END
