Coordinates from ORCA-job 4-MeO-Ph-N2-Cl-B3LYPG-6-31G_dp-MTMO-d009-169-n800
 OpenBabel09051908443D

 18 16  0  0  0  0  0  0  0  0999 V2000
   -1.3954   -1.8039   -1.5292 C   0  0  0  0  0  0  0  0  0  0  0  0
   -0.0289   -1.5604   -1.7204 C   0  0  0  0  0  0  0  0  0  0  0  0
    0.3328   -0.4619   -0.9996 C   0  0  0  0  0  0  0  0  0  0  0  0
   -0.2373    0.4016   -0.2009 C   0  0  0  0  0  0  0  0  0  0  0  0
   -1.6160    0.1311   -0.0284 C   0  0  0  0  0  0  0  0  0  0  0  0
   -2.1807   -0.9715   -0.6947 C   0  0  0  0  0  0  0  0  0  0  0  0
   -1.8720   -2.6437   -2.0242 H   0  0  0  0  0  0  0  0  0  0  0  0
    0.6115   -2.1672   -2.3469 H   0  0  0  0  0  0  0  0  0  0  0  0
    0.2886    1.3138    0.3399 H   0  0  0  0  0  0  0  0  0  0  0  0
   -2.1981    0.7835    0.6118 H   0  0  0  0  0  0  0  0  0  0  0  0
    2.4378    0.0905   -1.1512 N   0  0  0  0  0  0  0  0  0  0  0  0
    3.0091    0.9175   -0.6784 N   0  0  0  0  0  0  0  0  0  0  0  0
    1.1752    2.6527    1.1109 Cl  0  0  0  0  0  0  0  0  0  0  0  0
   -3.4851   -1.3305   -0.6048 O   0  0  0  0  0  0  0  0  0  0  0  0
   -4.3478   -0.5532    0.2207 C   0  0  0  0  0  0  0  0  0  0  0  0
   -5.3293   -1.0221    0.1485 H   0  0  0  0  0  0  0  0  0  0  0  0
   -4.4125    0.4828   -0.1330 H   0  0  0  0  0  0  0  0  0  0  0  0
   -4.0154   -0.5619    1.2658 H   0  0  0  0  0  0  0  0  0  0  0  0
  1  6  1  0  0  0  0
  2  1  2  0  0  0  0
  2  3  1  0  0  0  0
  3  4  2  0  0  0  0
  4  5  1  0  0  0  0
  4  9  1  0  0  0  0
  5 10  1  0  0  0  0
  6 14  1  0  0  0  0
  6  5  2  0  0  0  0
  7  1  1  0  0  0  0
  8  2  1  0  0  0  0
 11 12  3  0  0  0  0
 14 15  1  0  0  0  0
 15 18  1  0  0  0  0
 16 15  1  0  0  0  0
 17 15  1  0  0  0  0
M  RAD  2   3   2  13   2
M  END
