Coordinates from ORCA-job 4-MeO-Ph-N2-Cl-B3LYPG-6-31G_dp-MTMO-d009-169-n800
 OpenBabel09051908443D

 18 16  0  0  0  0  0  0  0  0999 V2000
   -1.1093   -1.4779   -1.2253 C   0  0  0  0  0  0  0  0  0  0  0  0
    0.2111   -1.0038   -1.1933 C   0  0  0  0  0  0  0  0  0  0  0  0
    0.2339    0.1335   -0.4181 C   0  0  0  0  0  0  0  0  0  0  0  0
   -0.6347    0.7764    0.2191 C   0  0  0  0  0  0  0  0  0  0  0  0
   -1.9695    0.3476    0.2198 C   0  0  0  0  0  0  0  0  0  0  0  0
   -2.1730   -0.8271   -0.5424 C   0  0  0  0  0  0  0  0  0  0  0  0
   -1.3483   -2.3754   -1.7874 H   0  0  0  0  0  0  0  0  0  0  0  0
    1.0355   -1.4808   -1.7069 H   0  0  0  0  0  0  0  0  0  0  0  0
   -0.3221    2.3347    1.2708 H   0  0  0  0  0  0  0  0  0  0  0  0
   -2.7704    0.8521    0.7447 H   0  0  0  0  0  0  0  0  0  0  0  0
    3.6091   -1.3786   -2.6199 N   0  0  0  0  0  0  0  0  0  0  0  0
    4.6289   -1.2013   -3.0066 N   0  0  0  0  0  0  0  0  0  0  0  0
   -0.3080    3.4085    2.0434 Cl  0  0  0  0  0  0  0  0  0  0  0  0
   -3.3857   -1.4312   -0.6891 O   0  0  0  0  0  0  0  0  0  0  0  0
   -4.5119   -0.8468   -0.0489 C   0  0  0  0  0  0  0  0  0  0  0  0
   -5.3624   -1.4808   -0.3020 H   0  0  0  0  0  0  0  0  0  0  0  0
   -4.6986    0.1712   -0.4133 H   0  0  0  0  0  0  0  0  0  0  0  0
   -4.3880   -0.8232    1.0413 H   0  0  0  0  0  0  0  0  0  0  0  0
  1  2  2  0  0  0  0
  1  6  1  0  0  0  0
  2  3  1  0  0  0  0
  3  4  2  0  0  0  0
  4  5  1  0  0  0  0
  5 10  1  0  0  0  0
  6  5  2  0  0  0  0
  7  1  1  0  0  0  0
  8  2  1  0  0  0  0
  9 13  1  0  0  0  0
 12 11  3  0  0  0  0
 14  6  1  0  0  0  0
 14 15  1  0  0  0  0
 15 18  1  0  0  0  0
 16 15  1  0  0  0  0
 17 15  1  0  0  0  0
M  RAD  2   3   2   4   2
M  END
