Coordinates from ORCA-job 4-MeO-Ph-N2-Cl-B3LYPG-6-31G_dp-MTMO-d009-169-n800
 OpenBabel09051908443D

 18 16  0  0  0  0  0  0  0  0999 V2000
   -1.3654   -1.6663   -1.4456 C   0  0  0  0  0  0  0  0  0  0  0  0
   -0.0136   -1.3193   -1.5873 C   0  0  0  0  0  0  0  0  0  0  0  0
    0.2193   -0.1924   -0.8320 C   0  0  0  0  0  0  0  0  0  0  0  0
   -0.4966    0.5272   -0.0952 C   0  0  0  0  0  0  0  0  0  0  0  0
   -1.8545    0.2279    0.0820 C   0  0  0  0  0  0  0  0  0  0  0  0
   -2.2655   -0.9195   -0.6369 C   0  0  0  0  0  0  0  0  0  0  0  0
   -1.7591   -2.5353   -1.9635 H   0  0  0  0  0  0  0  0  0  0  0  0
    0.6899   -1.8726   -2.1960 H   0  0  0  0  0  0  0  0  0  0  0  0
    0.1043    2.0479    0.8920 H   0  0  0  0  0  0  0  0  0  0  0  0
   -2.5301    0.8052    0.7005 H   0  0  0  0  0  0  0  0  0  0  0  0
    3.5204   -0.5605   -1.8809 N   0  0  0  0  0  0  0  0  0  0  0  0
    4.5280   -0.1364   -1.7195 N   0  0  0  0  0  0  0  0  0  0  0  0
    0.3348    3.1128    1.6411 Cl  0  0  0  0  0  0  0  0  0  0  0  0
   -3.5383   -1.4053   -0.6196 O   0  0  0  0  0  0  0  0  0  0  0  0
   -4.5092   -0.7254    0.1639 C   0  0  0  0  0  0  0  0  0  0  0  0
   -5.4389   -1.2815    0.0374 H   0  0  0  0  0  0  0  0  0  0  0  0
   -4.6548    0.3061   -0.1810 H   0  0  0  0  0  0  0  0  0  0  0  0
   -4.2341   -0.7153    1.2263 H   0  0  0  0  0  0  0  0  0  0  0  0
  1  6  1  0  0  0  0
  2  1  2  0  0  0  0
  2  3  1  0  0  0  0
  3  4  2  0  0  0  0
  4  5  1  0  0  0  0
  5 10  1  0  0  0  0
  6 14  1  0  0  0  0
  6  5  2  0  0  0  0
  7  1  1  0  0  0  0
  8  2  1  0  0  0  0
  9 13  1  0  0  0  0
 11 12  3  0  0  0  0
 14 15  1  0  0  0  0
 15 18  1  0  0  0  0
 16 15  1  0  0  0  0
 17 15  1  0  0  0  0
M  RAD  2   3   2   4   2
M  END
