Coordinates from ORCA-job 4-MeO-Ph-N2-Cl-B3LYPG-6-31G_dp-MTMO-d009-169-n800
 OpenBabel09051908453D

 18 16  0  0  0  0  0  0  0  0999 V2000
   -0.7487    0.3803   -1.0922 C   0  0  0  0  0  0  0  0  0  0  0  0
    0.1493    1.3109   -0.5484 C   0  0  0  0  0  0  0  0  0  0  0  0
   -0.3764    1.7715    0.6382 C   0  0  0  0  0  0  0  0  0  0  0  0
   -1.4313    1.5291    1.2713 C   0  0  0  0  0  0  0  0  0  0  0  0
   -2.3654    0.6090    0.7775 C   0  0  0  0  0  0  0  0  0  0  0  0
   -1.9713    0.0341   -0.4542 C   0  0  0  0  0  0  0  0  0  0  0  0
   -0.5203   -0.1044   -2.0362 H   0  0  0  0  0  0  0  0  0  0  0  0
    1.0841    1.5855   -1.0202 H   0  0  0  0  0  0  0  0  0  0  0  0
   -1.9345    2.3377    2.9408 H   0  0  0  0  0  0  0  0  0  0  0  0
   -3.2934    0.3556    1.2732 H   0  0  0  0  0  0  0  0  0  0  0  0
    4.7821   -5.7452   -5.5040 N   0  0  0  0  0  0  0  0  0  0  0  0
    5.3107   -6.6894   -5.7290 N   0  0  0  0  0  0  0  0  0  0  0  0
   -2.4566    2.7734    4.0730 Cl  0  0  0  0  0  0  0  0  0  0  0  0
   -2.7143   -0.8869   -1.1294 O   0  0  0  0  0  0  0  0  0  0  0  0
   -3.9517   -1.3004   -0.5655 C   0  0  0  0  0  0  0  0  0  0  0  0
   -4.3682   -2.0302   -1.2611 H   0  0  0  0  0  0  0  0  0  0  0  0
   -4.6483   -0.4589   -0.4622 H   0  0  0  0  0  0  0  0  0  0  0  0
   -3.8094   -1.7743    0.4141 H   0  0  0  0  0  0  0  0  0  0  0  0
  1  2  2  0  0  0  0
  1  6  1  0  0  0  0
  2  3  1  0  0  0  0
  3  4  2  0  0  0  0
  5  4  1  0  0  0  0
  5 10  1  0  0  0  0
  6  5  2  0  0  0  0
  7  1  1  0  0  0  0
  8  2  1  0  0  0  0
  9 13  1  0  0  0  0
 12 11  3  0  0  0  0
 14 15  1  0  0  0  0
 14  6  1  0  0  0  0
 15 17  1  0  0  0  0
 15 18  1  0  0  0  0
 16 15  1  0  0  0  0
M  RAD  2   3   2   4   2
M  END
