Coordinates from ORCA-job 4-MeO-Ph-N2-Cl-B3LYPG-6-31G_dp-MTMO-d009-169-n800
 OpenBabel09051908443D

 18 16  0  0  0  0  0  0  0  0999 V2000
   -0.6549   -0.6976   -0.7611 C   0  0  0  0  0  0  0  0  0  0  0  0
    0.4355    0.1013   -0.3859 C   0  0  0  0  0  0  0  0  0  0  0  0
   -0.0266    1.0965    0.4471 C   0  0  0  0  0  0  0  0  0  0  0  0
   -1.1599    1.3938    0.8937 C   0  0  0  0  0  0  0  0  0  0  0  0
   -2.2860    0.6330    0.5548 C   0  0  0  0  0  0  0  0  0  0  0  0
   -1.9791   -0.4456   -0.3089 C   0  0  0  0  0  0  0  0  0  0  0  0
   -0.5026   -1.5470   -1.4199 H   0  0  0  0  0  0  0  0  0  0  0  0
    1.4494   -0.0769   -0.7213 H   0  0  0  0  0  0  0  0  0  0  0  0
   -1.5463    2.8769    2.0542 H   0  0  0  0  0  0  0  0  0  0  0  0
   -3.2890    0.8363    0.9074 H   0  0  0  0  0  0  0  0  0  0  0  0
    4.3806   -3.9572   -4.8569 N   0  0  0  0  0  0  0  0  0  0  0  0
    4.9567   -4.4932   -5.6330 N   0  0  0  0  0  0  0  0  0  0  0  0
   -2.0179    3.8276    2.8400 Cl  0  0  0  0  0  0  0  0  0  0  0  0
   -2.9081   -1.3251   -0.7775 O   0  0  0  0  0  0  0  0  0  0  0  0
   -4.2616   -1.1520   -0.3800 C   0  0  0  0  0  0  0  0  0  0  0  0
   -4.8212   -1.9513   -0.8670 H   0  0  0  0  0  0  0  0  0  0  0  0
   -4.6563   -0.1821   -0.7074 H   0  0  0  0  0  0  0  0  0  0  0  0
   -4.3761   -1.2401    0.7078 H   0  0  0  0  0  0  0  0  0  0  0  0
  1  2  2  0  0  0  0
  1  6  1  0  0  0  0
  2  3  1  0  0  0  0
  3  4  2  0  0  0  0
  5  4  1  0  0  0  0
  5 10  1  0  0  0  0
  6  5  2  0  0  0  0
  7  1  1  0  0  0  0
  8  2  1  0  0  0  0
  9 13  1  0  0  0  0
 12 11  3  0  0  0  0
 14 15  1  0  0  0  0
 14  6  1  0  0  0  0
 15 18  1  0  0  0  0
 16 15  1  0  0  0  0
 17 15  1  0  0  0  0
M  RAD  2   3   2   4   2
M  END
