Coordinates from ORCA-job 4-MeO-Ph-N2-Cl-B3LYPG-6-31G_dp-MTMO-d009-169-n800
 OpenBabel09051908453D

 18 16  0  0  0  0  0  0  0  0999 V2000
   -0.9616    0.5951   -0.9125 C   0  0  0  0  0  0  0  0  0  0  0  0
   -0.0708    1.5314   -0.3665 C   0  0  0  0  0  0  0  0  0  0  0  0
   -0.6012    1.9868    0.8201 C   0  0  0  0  0  0  0  0  0  0  0  0
   -1.6553    1.7362    1.4513 C   0  0  0  0  0  0  0  0  0  0  0  0
   -2.5823    0.8103    0.9554 C   0  0  0  0  0  0  0  0  0  0  0  0
   -2.1825    0.2396   -0.2765 C   0  0  0  0  0  0  0  0  0  0  0  0
   -0.7287    0.1131   -1.8567 H   0  0  0  0  0  0  0  0  0  0  0  0
    0.8627    1.8130   -0.8365 H   0  0  0  0  0  0  0  0  0  0  0  0
   -2.1680    2.5401    3.1208 H   0  0  0  0  0  0  0  0  0  0  0  0
   -3.5092    0.5497    1.4495 H   0  0  0  0  0  0  0  0  0  0  0  0
    6.4968   -7.3780   -6.9300 N   0  0  0  0  0  0  0  0  0  0  0  0
    7.0311   -8.3203   -7.1501 N   0  0  0  0  0  0  0  0  0  0  0  0
   -2.6951    2.9714    4.2523 Cl  0  0  0  0  0  0  0  0  0  0  0  0
   -2.9182   -0.6857   -0.9537 O   0  0  0  0  0  0  0  0  0  0  0  0
   -4.1532   -1.1090   -0.3917 C   0  0  0  0  0  0  0  0  0  0  0  0
   -4.5636   -1.8411   -1.0886 H   0  0  0  0  0  0  0  0  0  0  0  0
   -4.8560   -0.2727   -0.2882 H   0  0  0  0  0  0  0  0  0  0  0  0
   -4.0085   -1.5829    0.5875 H   0  0  0  0  0  0  0  0  0  0  0  0
  1  2  2  0  0  0  0
  1  6  1  0  0  0  0
  2  3  1  0  0  0  0
  3  4  2  0  0  0  0
  5 10  1  0  0  0  0
  5  4  1  0  0  0  0
  6  5  2  0  0  0  0
  7  1  1  0  0  0  0
  8  2  1  0  0  0  0
  9 13  1  0  0  0  0
 12 11  3  0  0  0  0
 14 15  1  0  0  0  0
 14  6  1  0  0  0  0
 15 17  1  0  0  0  0
 15 18  1  0  0  0  0
 16 15  1  0  0  0  0
M  RAD  2   3   2   4   2
M  END
