Coordinates from ORCA-job 4-MeO-Ph-N2-Cl-B3LYPG-6-31G_dp-MTMO-d009-169-n800
 OpenBabel09051908443D

 18 16  0  0  0  0  0  0  0  0999 V2000
   -1.0205   -1.3509   -1.2166 C   0  0  0  0  0  0  0  0  0  0  0  0
    0.2737   -0.8126   -1.1467 C   0  0  0  0  0  0  0  0  0  0  0  0
    0.2247    0.3018   -0.3403 C   0  0  0  0  0  0  0  0  0  0  0  0
   -0.6857    0.8836    0.2973 C   0  0  0  0  0  0  0  0  0  0  0  0
   -1.9969    0.3883    0.2606 C   0  0  0  0  0  0  0  0  0  0  0  0
   -2.1274   -0.7733   -0.5368 C   0  0  0  0  0  0  0  0  0  0  0  0
   -1.2037   -2.2433   -1.8071 H   0  0  0  0  0  0  0  0  0  0  0  0
    1.1287   -1.2352   -1.6584 H   0  0  0  0  0  0  0  0  0  0  0  0
   -0.4764    2.4271    1.3901 H   0  0  0  0  0  0  0  0  0  0  0  0
   -2.8315    0.8378    0.7830 H   0  0  0  0  0  0  0  0  0  0  0  0
    3.5467   -1.6784   -2.8024 N   0  0  0  0  0  0  0  0  0  0  0  0
    4.5654   -1.7422   -3.2256 N   0  0  0  0  0  0  0  0  0  0  0  0
   -0.5342    3.4805    2.1889 Cl  0  0  0  0  0  0  0  0  0  0  0  0
   -3.3054   -1.4329   -0.7228 O   0  0  0  0  0  0  0  0  0  0  0  0
   -4.4702   -0.9250   -0.0862 C   0  0  0  0  0  0  0  0  0  0  0  0
   -5.2835   -1.5924   -0.3737 H   0  0  0  0  0  0  0  0  0  0  0  0
   -4.7015    0.0932   -0.4235 H   0  0  0  0  0  0  0  0  0  0  0  0
   -4.3658   -0.9288    1.0062 H   0  0  0  0  0  0  0  0  0  0  0  0
  1  2  2  0  0  0  0
  1  6  1  0  0  0  0
  2  3  1  0  0  0  0
  3  4  2  0  0  0  0
  5  4  1  0  0  0  0
  5 10  1  0  0  0  0
  6  5  2  0  0  0  0
  7  1  1  0  0  0  0
  8  2  1  0  0  0  0
  9 13  1  0  0  0  0
 12 11  3  0  0  0  0
 14  6  1  0  0  0  0
 14 15  1  0  0  0  0
 15 18  1  0  0  0  0
 16 15  1  0  0  0  0
 17 15  1  0  0  0  0
M  RAD  2   3   2   4   2
M  END
