Coordinates from ORCA-job 4-MeO-Ph-N2-Cl-B3LYPG-6-31G_dp-MTMO-d009-169-n800
 OpenBabel09051908453D

 18 16  0  0  0  0  0  0  0  0999 V2000
   -1.1545    0.7766   -0.7754 C   0  0  0  0  0  0  0  0  0  0  0  0
   -0.2610    1.7103   -0.2296 C   0  0  0  0  0  0  0  0  0  0  0  0
   -0.7829    2.1565    0.9642 C   0  0  0  0  0  0  0  0  0  0  0  0
   -1.8318    1.8999    1.6017 C   0  0  0  0  0  0  0  0  0  0  0  0
   -2.7612    0.9760    1.1063 C   0  0  0  0  0  0  0  0  0  0  0  0
   -2.3701    0.4147   -0.1326 C   0  0  0  0  0  0  0  0  0  0  0  0
   -0.9282    0.3016   -1.7248 H   0  0  0  0  0  0  0  0  0  0  0  0
    0.6685    1.9966   -0.7047 H   0  0  0  0  0  0  0  0  0  0  0  0
   -2.3334    2.6915    3.2804 H   0  0  0  0  0  0  0  0  0  0  0  0
   -3.6840    0.7106    1.6057 H   0  0  0  0  0  0  0  0  0  0  0  0
    7.9643   -8.7407   -8.1068 N   0  0  0  0  0  0  0  0  0  0  0  0
    8.4963   -9.6839   -8.3280 N   0  0  0  0  0  0  0  0  0  0  0  0
   -2.8535    3.1139    4.4185 Cl  0  0  0  0  0  0  0  0  0  0  0  0
   -3.1096   -0.5069   -0.8108 O   0  0  0  0  0  0  0  0  0  0  0  0
   -4.3394   -0.9363   -0.2422 C   0  0  0  0  0  0  0  0  0  0  0  0
   -4.7540   -1.6641   -0.9410 H   0  0  0  0  0  0  0  0  0  0  0  0
   -5.0429   -0.1020   -0.1273 H   0  0  0  0  0  0  0  0  0  0  0  0
   -4.1863   -1.4168    0.7324 H   0  0  0  0  0  0  0  0  0  0  0  0
  1  2  2  0  0  0  0
  1  6  1  0  0  0  0
  2  3  1  0  0  0  0
  3  4  2  0  0  0  0
  5  4  1  0  0  0  0
  5 10  1  0  0  0  0
  6  5  2  0  0  0  0
  7  1  1  0  0  0  0
  8  2  1  0  0  0  0
  9 13  1  0  0  0  0
 12 11  3  0  0  0  0
 14 15  1  0  0  0  0
 14  6  1  0  0  0  0
 15 17  1  0  0  0  0
 15 18  1  0  0  0  0
 16 15  1  0  0  0  0
M  RAD  2   3   2   4   2
M  END
