Coordinates from ORCA-job 4-MeO-Ph-N2-Cl-B3LYPG-6-31G_dp-MTMO-d009-169-n800
 OpenBabel09051908443D

 18 16  0  0  0  0  0  0  0  0999 V2000
   -1.0495   -1.3921   -1.2181 C   0  0  0  0  0  0  0  0  0  0  0  0
    0.2535   -0.8741   -1.1599 C   0  0  0  0  0  0  0  0  0  0  0  0
    0.2271    0.2482   -0.3633 C   0  0  0  0  0  0  0  0  0  0  0  0
   -0.6705    0.8499    0.2740 C   0  0  0  0  0  0  0  0  0  0  0  0
   -1.9896    0.3756    0.2489 C   0  0  0  0  0  0  0  0  0  0  0  0
   -2.1432   -0.7908   -0.5374 C   0  0  0  0  0  0  0  0  0  0  0  0
   -1.2504   -2.2865   -1.7997 H   0  0  0  0  0  0  0  0  0  0  0  0
    1.0993   -1.3143   -1.6721 H   0  0  0  0  0  0  0  0  0  0  0  0
   -0.4282    2.3992    1.3534 H   0  0  0  0  0  0  0  0  0  0  0  0
   -2.8139    0.8429    0.7719 H   0  0  0  0  0  0  0  0  0  0  0  0
    3.5733   -1.5897   -2.7541 N   0  0  0  0  0  0  0  0  0  0  0  0
    4.6003   -1.5670   -3.1610 N   0  0  0  0  0  0  0  0  0  0  0  0
   -0.4631    3.4599    2.1436 Cl  0  0  0  0  0  0  0  0  0  0  0  0
   -3.3327   -1.4328   -0.7112 O   0  0  0  0  0  0  0  0  0  0  0  0
   -4.4859   -0.8995   -0.0744 C   0  0  0  0  0  0  0  0  0  0  0  0
   -5.3114   -1.5563   -0.3515 H   0  0  0  0  0  0  0  0  0  0  0  0
   -4.7020    0.1189   -0.4207 H   0  0  0  0  0  0  0  0  0  0  0  0
   -4.3765   -0.8942    1.0176 H   0  0  0  0  0  0  0  0  0  0  0  0
  1  2  2  0  0  0  0
  1  6  1  0  0  0  0
  2  3  1  0  0  0  0
  3  4  2  0  0  0  0
  5  4  1  0  0  0  0
  5 10  1  0  0  0  0
  6  5  2  0  0  0  0
  7  1  1  0  0  0  0
  8  2  1  0  0  0  0
  9 13  1  0  0  0  0
 12 11  3  0  0  0  0
 14  6  1  0  0  0  0
 14 15  1  0  0  0  0
 15 18  1  0  0  0  0
 16 15  1  0  0  0  0
 17 15  1  0  0  0  0
M  RAD  2   3   2   4   2
M  END
