Coordinates from ORCA-job 4-MeO-Ph-N2-Cl-B3LYPG-6-31G_dp-MTMO-d009-169-n800
 OpenBabel09051908443D

 18 16  0  0  0  0  0  0  0  0999 V2000
   -0.7880   -1.0278   -1.0446 C   0  0  0  0  0  0  0  0  0  0  0  0
    0.4165   -0.3446   -0.8182 C   0  0  0  0  0  0  0  0  0  0  0  0
    0.1552    0.7144    0.0225 C   0  0  0  0  0  0  0  0  0  0  0  0
   -0.8814    1.1469    0.5802 C   0  0  0  0  0  0  0  0  0  0  0  0
   -2.1122    0.5050    0.3901 C   0  0  0  0  0  0  0  0  0  0  0  0
   -2.0195   -0.6210   -0.4621 C   0  0  0  0  0  0  0  0  0  0  0  0
   -0.8008   -1.9048   -1.6844 H   0  0  0  0  0  0  0  0  0  0  0  0
    1.3617   -0.6416   -1.2547 H   0  0  0  0  0  0  0  0  0  0  0  0
   -0.9649    2.6645    1.7471 H   0  0  0  0  0  0  0  0  0  0  0  0
   -3.0429    0.8253    0.8403 H   0  0  0  0  0  0  0  0  0  0  0  0
    3.7240   -2.6422   -3.5889 N   0  0  0  0  0  0  0  0  0  0  0  0
    4.4429   -3.1256   -4.2751 N   0  0  0  0  0  0  0  0  0  0  0  0
   -1.2279    3.6648    2.5693 Cl  0  0  0  0  0  0  0  0  0  0  0  0
   -3.0831   -1.4044   -0.7961 O   0  0  0  0  0  0  0  0  0  0  0  0
   -4.3568   -1.0786   -0.2567 C   0  0  0  0  0  0  0  0  0  0  0  0
   -5.0484   -1.8238   -0.6512 H   0  0  0  0  0  0  0  0  0  0  0  0
   -4.6836   -0.0795   -0.5711 H   0  0  0  0  0  0  0  0  0  0  0  0
   -4.3543   -1.1296    0.8395 H   0  0  0  0  0  0  0  0  0  0  0  0
  1  2  2  0  0  0  0
  1  6  1  0  0  0  0
  2  3  1  0  0  0  0
  3  4  2  0  0  0  0
  5  4  1  0  0  0  0
  5 10  1  0  0  0  0
  6  5  2  0  0  0  0
  7  1  1  0  0  0  0
  8  2  1  0  0  0  0
  9 13  1  0  0  0  0
 12 11  3  0  0  0  0
 14  6  1  0  0  0  0
 14 15  1  0  0  0  0
 15 18  1  0  0  0  0
 16 15  1  0  0  0  0
 17 15  1  0  0  0  0
M  RAD  2   3   2   4   2
M  END
