Coordinates from ORCA-job 4-MeO-Ph-N2-Cl-B3LYPG-6-31G_dp-MTMO-d009-169-n800
 OpenBabel09051908443D

 18 16  0  0  0  0  0  0  0  0999 V2000
   -0.9298   -1.2793   -1.1635 C   0  0  0  0  0  0  0  0  0  0  0  0
    0.3435   -0.7008   -1.0463 C   0  0  0  0  0  0  0  0  0  0  0  0
    0.2311    0.4070   -0.2372 C   0  0  0  0  0  0  0  0  0  0  0  0
   -0.7189    0.9570    0.3704 C   0  0  0  0  0  0  0  0  0  0  0  0
   -2.0116    0.4205    0.2859 C   0  0  0  0  0  0  0  0  0  0  0  0
   -2.0775   -0.7404   -0.5203 C   0  0  0  0  0  0  0  0  0  0  0  0
   -1.0640   -2.1742   -1.7632 H   0  0  0  0  0  0  0  0  0  0  0  0
    1.2277   -1.0952   -1.5305 H   0  0  0  0  0  0  0  0  0  0  0  0
   -0.6002    2.5018    1.4730 H   0  0  0  0  0  0  0  0  0  0  0  0
   -2.8777    0.8409    0.7804 H   0  0  0  0  0  0  0  0  0  0  0  0
    3.4612   -1.8810   -2.9253 N   0  0  0  0  0  0  0  0  0  0  0  0
    4.3761   -2.1017   -3.5043 N   0  0  0  0  0  0  0  0  0  0  0  0
   -0.7207    3.5501    2.2716 Cl  0  0  0  0  0  0  0  0  0  0  0  0
   -3.2268   -1.4358   -0.7500 O   0  0  0  0  0  0  0  0  0  0  0  0
   -4.4276   -0.9710   -0.1485 C   0  0  0  0  0  0  0  0  0  0  0  0
   -5.2088   -1.6625   -0.4665 H   0  0  0  0  0  0  0  0  0  0  0  0
   -4.6814    0.0415   -0.4865 H   0  0  0  0  0  0  0  0  0  0  0  0
   -4.3584   -0.9796    0.9467 H   0  0  0  0  0  0  0  0  0  0  0  0
  1  2  2  0  0  0  0
  1  6  1  0  0  0  0
  2  3  1  0  0  0  0
  3  4  2  0  0  0  0
  5  4  1  0  0  0  0
  5 10  1  0  0  0  0
  6  5  2  0  0  0  0
  7  1  1  0  0  0  0
  8  2  1  0  0  0  0
  9 13  1  0  0  0  0
 12 11  3  0  0  0  0
 14  6  1  0  0  0  0
 14 15  1  0  0  0  0
 15 18  1  0  0  0  0
 16 15  1  0  0  0  0
 17 15  1  0  0  0  0
M  RAD  2   3   2   4   2
M  END
