Coordinates from ORCA-job 4-MeO-Ph-N2-Cl-B3LYPG-6-31G_dp-MTMO-d009-169-n800
 OpenBabel09051908443D

 18 16  0  0  0  0  0  0  0  0999 V2000
   -0.7264   -0.8868   -0.9166 C   0  0  0  0  0  0  0  0  0  0  0  0
    0.4307   -0.1496   -0.6238 C   0  0  0  0  0  0  0  0  0  0  0  0
    0.0791    0.8864    0.2131 C   0  0  0  0  0  0  0  0  0  0  0  0
   -1.0043    1.2607    0.7215 C   0  0  0  0  0  0  0  0  0  0  0  0
   -2.1921    0.5636    0.4652 C   0  0  0  0  0  0  0  0  0  0  0  0
   -2.0033   -0.5463   -0.3922 C   0  0  0  0  0  0  0  0  0  0  0  0
   -0.6654   -1.7555   -1.5649 H   0  0  0  0  0  0  0  0  0  0  0  0
    1.4098   -0.3953   -1.0148 H   0  0  0  0  0  0  0  0  0  0  0  0
   -1.2208    2.7703    1.8883 H   0  0  0  0  0  0  0  0  0  0  0  0
   -3.1579    0.8335    0.8725 H   0  0  0  0  0  0  0  0  0  0  0  0
    4.0416   -3.2289   -4.1491 N   0  0  0  0  0  0  0  0  0  0  0  0
    4.6710   -3.7331   -4.9049 N   0  0  0  0  0  0  0  0  0  0  0  0
   -1.5754    3.7534    2.6960 Cl  0  0  0  0  0  0  0  0  0  0  0  0
   -3.0101   -1.3755   -0.7861 O   0  0  0  0  0  0  0  0  0  0  0  0
   -4.3242   -1.1131   -0.3131 C   0  0  0  0  0  0  0  0  0  0  0  0
   -4.9589   -1.8856   -0.7486 H   0  0  0  0  0  0  0  0  0  0  0  0
   -4.6794   -0.1272   -0.6378 H   0  0  0  0  0  0  0  0  0  0  0  0
   -4.3777   -1.1739    0.7813 H   0  0  0  0  0  0  0  0  0  0  0  0
  1  2  2  0  0  0  0
  1  6  1  0  0  0  0
  2  3  1  0  0  0  0
  3  4  2  0  0  0  0
  5  4  1  0  0  0  0
  5 10  1  0  0  0  0
  6  5  2  0  0  0  0
  7  1  1  0  0  0  0
  8  2  1  0  0  0  0
  9 13  1  0  0  0  0
 12 11  3  0  0  0  0
 14  6  1  0  0  0  0
 14 15  1  0  0  0  0
 15 18  1  0  0  0  0
 16 15  1  0  0  0  0
 17 15  1  0  0  0  0
M  RAD  2   3   2   4   2
M  END
