Coordinates from ORCA-job 4-MeO-Ph-N2-Cl-B3LYPG-6-31G_dp-MTMO-d009-169-n800
 OpenBabel09051908443D

 18 16  0  0  0  0  0  0  0  0999 V2000
   -1.4143   -1.7880   -1.5142 C   0  0  0  0  0  0  0  0  0  0  0  0
   -0.0485   -1.5363   -1.7096 C   0  0  0  0  0  0  0  0  0  0  0  0
    0.2829   -0.4231   -0.9777 C   0  0  0  0  0  0  0  0  0  0  0  0
   -0.3326    0.3705   -0.2199 C   0  0  0  0  0  0  0  0  0  0  0  0
   -1.7037    0.1532    0.0010 C   0  0  0  0  0  0  0  0  0  0  0  0
   -2.2258   -0.9691   -0.6822 C   0  0  0  0  0  0  0  0  0  0  0  0
   -1.8864   -2.6328   -2.0058 H   0  0  0  0  0  0  0  0  0  0  0  0
    0.5955   -2.1404   -2.3357 H   0  0  0  0  0  0  0  0  0  0  0  0
    0.3654    1.8101    0.6746 H   0  0  0  0  0  0  0  0  0  0  0  0
   -2.3137    0.7857    0.6343 H   0  0  0  0  0  0  0  0  0  0  0  0
    2.8886   -0.1048   -1.4207 N   0  0  0  0  0  0  0  0  0  0  0  0
    3.7121    0.5465   -1.0746 N   0  0  0  0  0  0  0  0  0  0  0  0
    0.7419    2.8777    1.3808 Cl  0  0  0  0  0  0  0  0  0  0  0  0
   -3.5277   -1.3624   -0.6086 O   0  0  0  0  0  0  0  0  0  0  0  0
   -4.4148   -0.6088    0.2066 C   0  0  0  0  0  0  0  0  0  0  0  0
   -5.3857   -1.0990    0.1252 H   0  0  0  0  0  0  0  0  0  0  0  0
   -4.5019    0.4273   -0.1440 H   0  0  0  0  0  0  0  0  0  0  0  0
   -4.0950   -0.6089    1.2564 H   0  0  0  0  0  0  0  0  0  0  0  0
  1  6  1  0  0  0  0
  2  1  2  0  0  0  0
  2  3  1  0  0  0  0
  3  4  2  0  0  0  0
  4  5  1  0  0  0  0
  5 10  1  0  0  0  0
  6 14  1  0  0  0  0
  6  5  2  0  0  0  0
  7  1  1  0  0  0  0
  8  2  1  0  0  0  0
  9 13  1  0  0  0  0
 11 12  3  0  0  0  0
 14 15  1  0  0  0  0
 15 18  1  0  0  0  0
 16 15  1  0  0  0  0
 17 15  1  0  0  0  0
M  RAD  2   3   2   4   2
M  END
