Coordinates from ORCA-job 4-MeO-Ph-N2-Cl-B3LYPG-6-31G_dp-MTMO-d009-169-n800
 OpenBabel09051908443D

 18 16  0  0  0  0  0  0  0  0999 V2000
   -0.7358   -0.9084   -0.9352 C   0  0  0  0  0  0  0  0  0  0  0  0
    0.4288   -0.1790   -0.6522 C   0  0  0  0  0  0  0  0  0  0  0  0
    0.0906    0.8609    0.1852 C   0  0  0  0  0  0  0  0  0  0  0  0
   -0.9862    1.2442    0.7009 C   0  0  0  0  0  0  0  0  0  0  0  0
   -2.1809    0.5552    0.4544 C   0  0  0  0  0  0  0  0  0  0  0  0
   -2.0064   -0.5576   -0.4022 C   0  0  0  0  0  0  0  0  0  0  0  0
   -0.6858   -1.7788   -1.5823 H   0  0  0  0  0  0  0  0  0  0  0  0
    1.4032   -0.4325   -1.0499 H   0  0  0  0  0  0  0  0  0  0  0  0
   -1.1824    2.7560    1.8679 H   0  0  0  0  0  0  0  0  0  0  0  0
   -3.1417    0.8328    0.8681 H   0  0  0  0  0  0  0  0  0  0  0  0
    3.9993   -3.1419   -4.0677 N   0  0  0  0  0  0  0  0  0  0  0  0
    4.6403   -3.6442   -4.8149 N   0  0  0  0  0  0  0  0  0  0  0  0
   -1.5229    3.7423    2.6777 Cl  0  0  0  0  0  0  0  0  0  0  0  0
   -3.0219   -1.3802   -0.7873 O   0  0  0  0  0  0  0  0  0  0  0  0
   -4.3306   -1.1080   -0.3046 C   0  0  0  0  0  0  0  0  0  0  0  0
   -4.9739   -1.8767   -0.7340 H   0  0  0  0  0  0  0  0  0  0  0  0
   -4.6814   -0.1201   -0.6281 H   0  0  0  0  0  0  0  0  0  0  0  0
   -4.3760   -1.1667    0.7903 H   0  0  0  0  0  0  0  0  0  0  0  0
  1  2  2  0  0  0  0
  1  6  1  0  0  0  0
  2  3  1  0  0  0  0
  3  4  2  0  0  0  0
  5  4  1  0  0  0  0
  5 10  1  0  0  0  0
  6  5  2  0  0  0  0
  7  1  1  0  0  0  0
  8  2  1  0  0  0  0
  9 13  1  0  0  0  0
 12 11  3  0  0  0  0
 14  6  1  0  0  0  0
 14 15  1  0  0  0  0
 15 18  1  0  0  0  0
 16 15  1  0  0  0  0
 17 15  1  0  0  0  0
M  RAD  2   3   2   4   2
M  END
