Coordinates from ORCA-job 4-MeO-Ph-N2-Cl-B3LYPG-6-31G_dp-MTMO-d009-169-n800
 OpenBabel09051908453D

 18 16  0  0  0  0  0  0  0  0999 V2000
   -1.0035    0.6338   -0.8928 C   0  0  0  0  0  0  0  0  0  0  0  0
   -0.1099    1.5674   -0.3466 C   0  0  0  0  0  0  0  0  0  0  0  0
   -0.6345    2.0162    0.8448 C   0  0  0  0  0  0  0  0  0  0  0  0
   -1.6850    1.7631    1.4812 C   0  0  0  0  0  0  0  0  0  0  0  0
   -2.6141    0.8393    0.9848 C   0  0  0  0  0  0  0  0  0  0  0  0
   -2.2210    0.2749   -0.2521 C   0  0  0  0  0  0  0  0  0  0  0  0
   -0.7755    0.1568   -1.8407 H   0  0  0  0  0  0  0  0  0  0  0  0
    0.8210    1.8513   -0.8204 H   0  0  0  0  0  0  0  0  0  0  0  0
   -2.1891    2.5582    3.1546 H   0  0  0  0  0  0  0  0  0  0  0  0
   -3.5384    0.5762    1.4825 H   0  0  0  0  0  0  0  0  0  0  0  0
    6.7778   -7.6354   -7.1436 N   0  0  0  0  0  0  0  0  0  0  0  0
    7.3130   -8.5774   -7.3623 N   0  0  0  0  0  0  0  0  0  0  0  0
   -2.7094    2.9856    4.2911 Cl  0  0  0  0  0  0  0  0  0  0  0  0
   -2.9603   -0.6470   -0.9301 O   0  0  0  0  0  0  0  0  0  0  0  0
   -4.1920   -1.0734   -0.3635 C   0  0  0  0  0  0  0  0  0  0  0  0
   -4.6060   -1.8021   -1.0618 H   0  0  0  0  0  0  0  0  0  0  0  0
   -4.8946   -0.2379   -0.2520 H   0  0  0  0  0  0  0  0  0  0  0  0
   -4.0419   -1.5522    0.6125 H   0  0  0  0  0  0  0  0  0  0  0  0
  1  2  2  0  0  0  0
  1  6  1  0  0  0  0
  2  3  1  0  0  0  0
  3  4  2  0  0  0  0
  5  4  1  0  0  0  0
  5 10  1  0  0  0  0
  6  5  2  0  0  0  0
  7  1  1  0  0  0  0
  8  2  1  0  0  0  0
  9 13  1  0  0  0  0
 12 11  3  0  0  0  0
 14 15  1  0  0  0  0
 14  6  1  0  0  0  0
 15 17  1  0  0  0  0
 15 18  1  0  0  0  0
 16 15  1  0  0  0  0
M  RAD  2   3   2   4   2
M  END
