Coordinates from ORCA-job 4-MeO-Ph-N2-Cl-B3LYPG-6-31G_dp-MTMO-d009-169-n800
 OpenBabel09051908443D

 18 16  0  0  0  0  0  0  0  0999 V2000
   -0.6243   -0.5258   -0.6853 C   0  0  0  0  0  0  0  0  0  0  0  0
    0.4137    0.3148   -0.2560 C   0  0  0  0  0  0  0  0  0  0  0  0
   -0.1209    1.2584    0.5934 C   0  0  0  0  0  0  0  0  0  0  0  0
   -1.2791    1.4847    1.0173 C   0  0  0  0  0  0  0  0  0  0  0  0
   -2.3553    0.6790    0.6243 C   0  0  0  0  0  0  0  0  0  0  0  0
   -1.9709   -0.3554   -0.2624 C   0  0  0  0  0  0  0  0  0  0  0  0
   -0.4114   -1.3448   -1.3656 H   0  0  0  0  0  0  0  0  0  0  0  0
    1.4438    0.1994   -0.5687 H   0  0  0  0  0  0  0  0  0  0  0  0
   -1.7744    2.9154    2.2010 H   0  0  0  0  0  0  0  0  0  0  0  0
   -3.3766    0.8205    0.9542 H   0  0  0  0  0  0  0  0  0  0  0  0
    4.6611   -4.5170   -5.3546 N   0  0  0  0  0  0  0  0  0  0  0  0
    5.2124   -5.1013   -6.1137 N   0  0  0  0  0  0  0  0  0  0  0  0
   -2.3190    3.8195    2.9948 Cl  0  0  0  0  0  0  0  0  0  0  0  0
   -2.8411   -1.2657   -0.7822 O   0  0  0  0  0  0  0  0  0  0  0  0
   -4.2109   -1.1756   -0.4147 C   0  0  0  0  0  0  0  0  0  0  0  0
   -4.7157   -1.9870   -0.9401 H   0  0  0  0  0  0  0  0  0  0  0  0
   -4.6482   -0.2176   -0.7224 H   0  0  0  0  0  0  0  0  0  0  0  0
   -4.3469   -1.3042    0.6665 H   0  0  0  0  0  0  0  0  0  0  0  0
  1  6  2  0  0  0  0
  1  2  1  0  0  0  0
  2  3  2  0  0  0  0
  3  4  1  0  0  0  0
  5 10  1  0  0  0  0
  5  4  2  0  0  0  0
  6  5  1  0  0  0  0
  7  1  1  0  0  0  0
  8  2  1  0  0  0  0
  9 13  1  0  0  0  0
 12 11  3  0  0  0  0
 14 15  1  0  0  0  0
 14  6  1  0  0  0  0
 15 18  1  0  0  0  0
 16 15  1  0  0  0  0
 17 15  1  0  0  0  0
M  RAD  2   3   2   4   2
M  END
