Coordinates from ORCA-job 4-MeO-Ph-N2-Cl-B3LYPG-6-31G_dp-MTMO-d009-169-n800
 OpenBabel09051908453D

 18 16  0  0  0  0  0  0  0  0999 V2000
   -0.7693    0.4075   -1.0469 C   0  0  0  0  0  0  0  0  0  0  0  0
    0.1209    1.3449   -0.5020 C   0  0  0  0  0  0  0  0  0  0  0  0
   -0.4173    1.8134    0.6759 C   0  0  0  0  0  0  0  0  0  0  0  0
   -1.4777    1.5728    1.3006 C   0  0  0  0  0  0  0  0  0  0  0  0
   -2.4046    0.6465    0.8054 C   0  0  0  0  0  0  0  0  0  0  0  0
   -1.9971    0.0629   -0.4179 C   0  0  0  0  0  0  0  0  0  0  0  0
   -0.5307   -0.0840   -1.9848 H   0  0  0  0  0  0  0  0  0  0  0  0
    1.0594    1.6184   -0.9668 H   0  0  0  0  0  0  0  0  0  0  0  0
   -1.9988    2.3933    2.9597 H   0  0  0  0  0  0  0  0  0  0  0  0
   -3.3367    0.3943    1.2941 H   0  0  0  0  0  0  0  0  0  0  0  0
    5.0418   -6.0142   -5.7648 N   0  0  0  0  0  0  0  0  0  0  0  0
    5.5744   -6.9568   -5.9868 N   0  0  0  0  0  0  0  0  0  0  0  0
   -2.5323    2.8363    4.0836 Cl  0  0  0  0  0  0  0  0  0  0  0  0
   -2.7311   -0.8653   -1.0930 O   0  0  0  0  0  0  0  0  0  0  0  0
   -3.9727   -1.2778   -0.5377 C   0  0  0  0  0  0  0  0  0  0  0  0
   -4.3806   -2.0142   -1.2315 H   0  0  0  0  0  0  0  0  0  0  0  0
   -4.6725   -0.4373   -0.4478 H   0  0  0  0  0  0  0  0  0  0  0  0
   -3.8387   -1.7435    0.4468 H   0  0  0  0  0  0  0  0  0  0  0  0
  1  2  2  0  0  0  0
  1  6  1  0  0  0  0
  2  3  1  0  0  0  0
  3  4  2  0  0  0  0
  5 10  1  0  0  0  0
  5  4  1  0  0  0  0
  6  5  2  0  0  0  0
  7  1  1  0  0  0  0
  8  2  1  0  0  0  0
  9 13  1  0  0  0  0
 12 11  3  0  0  0  0
 14 15  1  0  0  0  0
 14  6  1  0  0  0  0
 15 17  1  0  0  0  0
 15 18  1  0  0  0  0
 16 15  1  0  0  0  0
M  RAD  2   3   2   4   2
M  END
