Coordinates from ORCA-job 4-MeO-Ph-N2-Cl-B3LYPG-6-31G_dp-MTMO-d009-169-n800
 OpenBabel09051908453D

 18 16  0  0  0  0  0  0  0  0999 V2000
   -0.7226    0.3502   -1.0896 C   0  0  0  0  0  0  0  0  0  0  0  0
    0.1734    1.2833   -0.5468 C   0  0  0  0  0  0  0  0  0  0  0  0
   -0.3610    1.7562    0.6311 C   0  0  0  0  0  0  0  0  0  0  0  0
   -1.4218    1.5222    1.2573 C   0  0  0  0  0  0  0  0  0  0  0  0
   -2.3544    0.6005    0.7642 C   0  0  0  0  0  0  0  0  0  0  0  0
   -1.9515    0.0132   -0.4589 C   0  0  0  0  0  0  0  0  0  0  0  0
   -0.4877   -0.1436   -2.0272 H   0  0  0  0  0  0  0  0  0  0  0  0
    1.1129    1.5511   -1.0130 H   0  0  0  0  0  0  0  0  0  0  0  0
   -1.9364    2.3465    2.9163 H   0  0  0  0  0  0  0  0  0  0  0  0
   -3.2873    0.3540    1.2542 H   0  0  0  0  0  0  0  0  0  0  0  0
    4.6576   -5.6261   -5.4344 N   0  0  0  0  0  0  0  0  0  0  0  0
    5.1876   -6.5701   -5.6574 N   0  0  0  0  0  0  0  0  0  0  0  0
   -2.4663    2.7931    4.0405 Cl  0  0  0  0  0  0  0  0  0  0  0  0
   -2.6914   -0.9118   -1.1320 O   0  0  0  0  0  0  0  0  0  0  0  0
   -3.9348   -1.3164   -0.5751 C   0  0  0  0  0  0  0  0  0  0  0  0
   -4.3476   -2.0514   -1.2676 H   0  0  0  0  0  0  0  0  0  0  0  0
   -4.6297   -0.4719   -0.4855 H   0  0  0  0  0  0  0  0  0  0  0  0
   -3.8026   -1.7817    0.4099 H   0  0  0  0  0  0  0  0  0  0  0  0
  1  2  2  0  0  0  0
  1  6  1  0  0  0  0
  2  3  1  0  0  0  0
  3  4  2  0  0  0  0
  5 10  1  0  0  0  0
  5  4  1  0  0  0  0
  6  5  2  0  0  0  0
  7  1  1  0  0  0  0
  8  2  1  0  0  0  0
  9 13  1  0  0  0  0
 12 11  3  0  0  0  0
 14 15  1  0  0  0  0
 14  6  1  0  0  0  0
 15 17  1  0  0  0  0
 15 18  1  0  0  0  0
 16 15  1  0  0  0  0
M  RAD  2   3   2   4   2
M  END
