Coordinates from ORCA-job 4-MeO-Ph-N2-Cl-B3LYPG-6-31G_dp-MTMO-d009-169-n800
 OpenBabel09051908443D

 18 16  0  0  0  0  0  0  0  0999 V2000
   -1.1211   -1.4933   -1.2282 C   0  0  0  0  0  0  0  0  0  0  0  0
    0.2023   -1.0273   -1.2018 C   0  0  0  0  0  0  0  0  0  0  0  0
    0.2347    0.1125   -0.4305 C   0  0  0  0  0  0  0  0  0  0  0  0
   -0.6279    0.7626    0.2073 C   0  0  0  0  0  0  0  0  0  0  0  0
   -1.9653    0.3422    0.2137 C   0  0  0  0  0  0  0  0  0  0  0  0
   -2.1785   -0.8336   -0.5441 C   0  0  0  0  0  0  0  0  0  0  0  0
   -1.3674   -2.3911   -1.7865 H   0  0  0  0  0  0  0  0  0  0  0  0
    1.0222   -1.5110   -1.7163 H   0  0  0  0  0  0  0  0  0  0  0  0
   -0.3018    2.3219    1.2543 H   0  0  0  0  0  0  0  0  0  0  0  0
   -2.7614    0.8534    0.7395 H   0  0  0  0  0  0  0  0  0  0  0  0
    3.6150   -1.3349   -2.5899 N   0  0  0  0  0  0  0  0  0  0  0  0
    4.6322   -1.1363   -2.9730 N   0  0  0  0  0  0  0  0  0  0  0  0
   -0.2782    3.3975    2.0240 Cl  0  0  0  0  0  0  0  0  0  0  0  0
   -3.3954   -1.4307   -0.6849 O   0  0  0  0  0  0  0  0  0  0  0  0
   -4.5159   -0.8373   -0.0430 C   0  0  0  0  0  0  0  0  0  0  0  0
   -5.3711   -1.4671   -0.2910 H   0  0  0  0  0  0  0  0  0  0  0  0
   -4.6978    0.1805   -0.4104 H   0  0  0  0  0  0  0  0  0  0  0  0
   -4.3882   -0.8106    1.0467 H   0  0  0  0  0  0  0  0  0  0  0  0
  1  2  2  0  0  0  0
  1  6  1  0  0  0  0
  2  3  1  0  0  0  0
  3  4  2  0  0  0  0
  4  5  1  0  0  0  0
  5 10  1  0  0  0  0
  6  5  2  0  0  0  0
  7  1  1  0  0  0  0
  8  2  1  0  0  0  0
  9 13  1  0  0  0  0
 12 11  3  0  0  0  0
 14  6  1  0  0  0  0
 14 15  1  0  0  0  0
 15 18  1  0  0  0  0
 16 15  1  0  0  0  0
 17 15  1  0  0  0  0
M  RAD  2   3   2   4   2
M  END
