Coordinates from ORCA-job 4-MeO-Ph-N2-Cl-B3LYPG-6-31G_dp-MTMO-d009-169-n800
 OpenBabel09051908453D

 18 16  0  0  0  0  0  0  0  0999 V2000
   -0.8834    0.5197   -0.9828 C   0  0  0  0  0  0  0  0  0  0  0  0
    0.0094    1.4539   -0.4368 C   0  0  0  0  0  0  0  0  0  0  0  0
   -0.5184    1.9073    0.7515 C   0  0  0  0  0  0  0  0  0  0  0  0
   -1.5712    1.6576    1.3854 C   0  0  0  0  0  0  0  0  0  0  0  0
   -2.4998    0.7332    0.8889 C   0  0  0  0  0  0  0  0  0  0  0  0
   -2.1035    0.1644   -0.3448 C   0  0  0  0  0  0  0  0  0  0  0  0
   -0.6529    0.0393   -1.9284 H   0  0  0  0  0  0  0  0  0  0  0  0
    0.9422    1.7354   -0.9083 H   0  0  0  0  0  0  0  0  0  0  0  0
   -2.0775    2.4588    3.0557 H   0  0  0  0  0  0  0  0  0  0  0  0
   -3.4261    0.4727    1.3843 H   0  0  0  0  0  0  0  0  0  0  0  0
    5.8491   -6.7679   -6.3895 N   0  0  0  0  0  0  0  0  0  0  0  0
    6.3828   -7.7103   -6.6103 N   0  0  0  0  0  0  0  0  0  0  0  0
   -2.6010    2.8893    4.1896 Cl  0  0  0  0  0  0  0  0  0  0  0  0
   -2.8416   -0.7589   -1.0222 O   0  0  0  0  0  0  0  0  0  0  0  0
   -4.0758   -1.1819   -0.4584 C   0  0  0  0  0  0  0  0  0  0  0  0
   -4.4884   -1.9122   -1.1558 H   0  0  0  0  0  0  0  0  0  0  0  0
   -4.7776   -0.3451   -0.3518 H   0  0  0  0  0  0  0  0  0  0  0  0
   -3.9296   -1.6578    0.5195 H   0  0  0  0  0  0  0  0  0  0  0  0
  1  2  2  0  0  0  0
  1  6  1  0  0  0  0
  2  3  1  0  0  0  0
  3  4  2  0  0  0  0
  5 10  1  0  0  0  0
  5  4  1  0  0  0  0
  6  5  2  0  0  0  0
  7  1  1  0  0  0  0
  8  2  1  0  0  0  0
  9 13  1  0  0  0  0
 12 11  3  0  0  0  0
 14 15  1  0  0  0  0
 14  6  1  0  0  0  0
 15 17  1  0  0  0  0
 15 18  1  0  0  0  0
 16 15  1  0  0  0  0
M  RAD  2   3   2   4   2
M  END
