Coordinates from ORCA-job 4-MeO-Ph-N2-Cl-B3LYPG-6-31G_dp-MTMO-d009-169-n800
 OpenBabel09051908443D

 18 16  0  0  0  0  0  0  0  0999 V2000
   -1.2354   -1.5320   -1.3579 C   0  0  0  0  0  0  0  0  0  0  0  0
    0.0943   -1.0894   -1.4292 C   0  0  0  0  0  0  0  0  0  0  0  0
    0.2068    0.0445   -0.6564 C   0  0  0  0  0  0  0  0  0  0  0  0
   -0.5938    0.7043    0.0486 C   0  0  0  0  0  0  0  0  0  0  0  0
   -1.9341    0.3080    0.1544 C   0  0  0  0  0  0  0  0  0  0  0  0
   -2.2258   -0.8583   -0.5918 C   0  0  0  0  0  0  0  0  0  0  0  0
   -1.5396   -2.4215   -1.9007 H   0  0  0  0  0  0  0  0  0  0  0  0
    0.8655   -1.5852   -2.0043 H   0  0  0  0  0  0  0  0  0  0  0  0
   -0.1571    2.2451    1.0868 H   0  0  0  0  0  0  0  0  0  0  0  0
   -2.6786    0.8291    0.7427 H   0  0  0  0  0  0  0  0  0  0  0  0
    3.6559   -1.1145   -2.2787 N   0  0  0  0  0  0  0  0  0  0  0  0
    4.7241   -0.8392   -2.3432 N   0  0  0  0  0  0  0  0  0  0  0  0
   -0.0525    3.3087    1.8658 Cl  0  0  0  0  0  0  0  0  0  0  0  0
   -3.4605   -1.4324   -0.6428 O   0  0  0  0  0  0  0  0  0  0  0  0
   -4.5176   -0.8242    0.0867 C   0  0  0  0  0  0  0  0  0  0  0  0
   -5.3998   -1.4389   -0.0960 H   0  0  0  0  0  0  0  0  0  0  0  0
   -4.7104    0.1983   -0.2614 H   0  0  0  0  0  0  0  0  0  0  0  0
   -4.3049   -0.8051    1.1633 H   0  0  0  0  0  0  0  0  0  0  0  0
  1  6  1  0  0  0  0
  2  1  2  0  0  0  0
  2  3  1  0  0  0  0
  3  4  2  0  0  0  0
  4  5  1  0  0  0  0
  5 10  1  0  0  0  0
  6  5  2  0  0  0  0
  7  1  1  0  0  0  0
  8  2  1  0  0  0  0
  9 13  1  0  0  0  0
 12 11  3  0  0  0  0
 14  6  1  0  0  0  0
 14 15  1  0  0  0  0
 15 18  1  0  0  0  0
 16 15  1  0  0  0  0
 17 15  1  0  0  0  0
M  RAD  2   3   2   4   2
M  END
