Coordinates from ORCA-job 4-MeO-Ph-N2-Cl-B3LYPG-6-31G_dp-MTMO-d009-169-n800
 OpenBabel09051908453D

 18 16  0  0  0  0  0  0  0  0999 V2000
   -0.8125    0.4494   -1.0318 C   0  0  0  0  0  0  0  0  0  0  0  0
    0.0805    1.3839   -0.4866 C   0  0  0  0  0  0  0  0  0  0  0  0
   -0.4499    1.8433    0.6984 C   0  0  0  0  0  0  0  0  0  0  0  0
   -1.5054    1.5974    1.3291 C   0  0  0  0  0  0  0  0  0  0  0  0
   -2.4347    0.6734    0.8338 C   0  0  0  0  0  0  0  0  0  0  0  0
   -2.0353    0.0990   -0.3965 C   0  0  0  0  0  0  0  0  0  0  0  0
   -0.5800   -0.0351   -1.9749 H   0  0  0  0  0  0  0  0  0  0  0  0
    1.0154    1.6616   -0.9562 H   0  0  0  0  0  0  0  0  0  0  0  0
   -2.0163    2.4060    2.9963 H   0  0  0  0  0  0  0  0  0  0  0  0
   -3.3630    0.4167    1.3273 H   0  0  0  0  0  0  0  0  0  0  0  0
    5.3162   -6.2660   -5.9623 N   0  0  0  0  0  0  0  0  0  0  0  0
    5.8488   -7.2089   -6.1836 N   0  0  0  0  0  0  0  0  0  0  0  0
   -2.5429    2.8411    4.1267 Cl  0  0  0  0  0  0  0  0  0  0  0  0
   -2.7732   -0.8253   -1.0728 O   0  0  0  0  0  0  0  0  0  0  0  0
   -4.0102   -1.2434   -0.5115 C   0  0  0  0  0  0  0  0  0  0  0  0
   -4.4222   -1.9754   -1.2075 H   0  0  0  0  0  0  0  0  0  0  0  0
   -4.7104   -0.4045   -0.4105 H   0  0  0  0  0  0  0  0  0  0  0  0
   -3.8684   -1.7159    0.4687 H   0  0  0  0  0  0  0  0  0  0  0  0
  1  2  2  0  0  0  0
  1  6  1  0  0  0  0
  2  3  1  0  0  0  0
  3  4  2  0  0  0  0
  5 10  1  0  0  0  0
  5  4  1  0  0  0  0
  6  5  2  0  0  0  0
  7  1  1  0  0  0  0
  8  2  1  0  0  0  0
  9 13  1  0  0  0  0
 12 11  3  0  0  0  0
 14 15  1  0  0  0  0
 14  6  1  0  0  0  0
 15 17  1  0  0  0  0
 15 18  1  0  0  0  0
 16 15  1  0  0  0  0
M  RAD  2   3   2   4   2
M  END
