Coordinates from ORCA-job 4-MeO-Ph-N2-Cl-B3LYPG-6-31G_dp-MTMO-d009-169-n800
 OpenBabel09051908443D

 18 17  0  0  0  0  0  0  0  0999 V2000
   -1.2892   -1.7102   -1.4839 C   0  0  0  0  0  0  0  0  0  0  0  0
    0.0344   -1.3602   -1.5864 C   0  0  0  0  0  0  0  0  0  0  0  0
    0.5675   -0.2241   -0.8870 C   0  0  0  0  0  0  0  0  0  0  0  0
   -0.3463    0.5340   -0.0769 C   0  0  0  0  0  0  0  0  0  0  0  0
   -1.6773    0.1779    0.0202 C   0  0  0  0  0  0  0  0  0  0  0  0
   -2.1622   -0.9451   -0.6781 C   0  0  0  0  0  0  0  0  0  0  0  0
   -1.6920   -2.5694   -2.0087 H   0  0  0  0  0  0  0  0  0  0  0  0
    0.7144   -1.9414   -2.2021 H   0  0  0  0  0  0  0  0  0  0  0  0
    0.0523    1.3947    0.4521 H   0  0  0  0  0  0  0  0  0  0  0  0
   -2.3376    0.7746    0.6377 H   0  0  0  0  0  0  0  0  0  0  0  0
    1.6907    0.0490   -0.9878 N   0  0  0  0  0  0  0  0  0  0  0  0
    2.6594    0.6735   -0.7770 N   0  0  0  0  0  0  0  0  0  0  0  0
    2.2946    2.3782    0.6332 Cl  0  0  0  0  0  0  0  0  0  0  0  0
   -3.4350   -1.3711   -0.6447 O   0  0  0  0  0  0  0  0  0  0  0  0
   -4.3913   -0.6638    0.1484 C   0  0  0  0  0  0  0  0  0  0  0  0
   -5.3316   -1.1992    0.0202 H   0  0  0  0  0  0  0  0  0  0  0  0
   -4.5071    0.3682   -0.1998 H   0  0  0  0  0  0  0  0  0  0  0  0
   -4.1073   -0.6684    1.2064 H   0  0  0  0  0  0  0  0  0  0  0  0
  1  6  1  0  0  0  0
  2  1  2  0  0  0  0
  2  3  1  0  0  0  0
  3  4  2  0  0  0  0
  4  5  1  0  0  0  0
  4  9  1  0  0  0  0
  5 10  1  0  0  0  0
  6 14  1  0  0  0  0
  6  5  2  0  0  0  0
  7  1  1  0  0  0  0
  8  2  1  0  0  0  0
 11  3  1  0  0  0  0
 11 12  1  0  0  0  0
 14 15  1  0  0  0  0
 15 18  1  0  0  0  0
 16 15  1  0  0  0  0
 17 15  1  0  0  0  0
M  RAD  3  11   2  12   3  13   2
M  END
