Coordinates from ORCA-job 4-MeO-Ph-N2-Cl-B3LYPG-6-31G_dp-MTMO-d009-169-n800
 OpenBabel09051908443D

 18 16  0  0  0  0  0  0  0  0999 V2000
   -0.8904   -1.2378   -1.0762 C   0  0  0  0  0  0  0  0  0  0  0  0
    0.3678   -0.6376   -0.9149 C   0  0  0  0  0  0  0  0  0  0  0  0
    0.2090    0.4732   -0.1168 C   0  0  0  0  0  0  0  0  0  0  0  0
   -0.7736    1.0084    0.4501 C   0  0  0  0  0  0  0  0  0  0  0  0
   -2.0534    0.4514    0.3219 C   0  0  0  0  0  0  0  0  0  0  0  0
   -2.0700   -0.7147   -0.4795 C   0  0  0  0  0  0  0  0  0  0  0  0
   -0.9874   -2.1382   -1.6748 H   0  0  0  0  0  0  0  0  0  0  0  0
    1.2746   -1.0229   -1.3641 H   0  0  0  0  0  0  0  0  0  0  0  0
   -0.7164    2.5681    1.5487 H   0  0  0  0  0  0  0  0  0  0  0  0
   -2.9440    0.8599    0.7815 H   0  0  0  0  0  0  0  0  0  0  0  0
    3.6224   -2.0893   -3.2343 N   0  0  0  0  0  0  0  0  0  0  0  0
    4.4778   -2.3775   -3.8718 N   0  0  0  0  0  0  0  0  0  0  0  0
   -0.8827    3.6189    2.3340 Cl  0  0  0  0  0  0  0  0  0  0  0  0
   -3.1984   -1.4301   -0.7477 O   0  0  0  0  0  0  0  0  0  0  0  0
   -4.4282   -0.9831   -0.1930 C   0  0  0  0  0  0  0  0  0  0  0  0
   -5.1853   -1.6892   -0.5359 H   0  0  0  0  0  0  0  0  0  0  0  0
   -4.6863    0.0234   -0.5453 H   0  0  0  0  0  0  0  0  0  0  0  0
   -4.3991   -0.9855    0.9040 H   0  0  0  0  0  0  0  0  0  0  0  0
  1  2  2  0  0  0  0
  1  6  1  0  0  0  0
  2  3  1  0  0  0  0
  3  4  2  0  0  0  0
  5  4  1  0  0  0  0
  5 10  1  0  0  0  0
  6  5  2  0  0  0  0
  7  1  1  0  0  0  0
  8  2  1  0  0  0  0
  9 13  1  0  0  0  0
 12 11  3  0  0  0  0
 14  6  1  0  0  0  0
 14 15  1  0  0  0  0
 15 18  1  0  0  0  0
 16 15  1  0  0  0  0
 17 15  1  0  0  0  0
M  RAD  2   3   2   4   2
M  END
