Coordinates from ORCA-job 4-MeO-Ph-N2-Cl-B3LYPG-6-31G_dp-MTMO-d009-169-n800
 OpenBabel09051908443D

 18 16  0  0  0  0  0  0  0  0999 V2000
   -0.6961   -0.8042   -0.8511 C   0  0  0  0  0  0  0  0  0  0  0  0
    0.4332   -0.0392   -0.5232 C   0  0  0  0  0  0  0  0  0  0  0  0
    0.0339    0.9797    0.3133 C   0  0  0  0  0  0  0  0  0  0  0  0
   -1.0718    1.3202    0.7968 C   0  0  0  0  0  0  0  0  0  0  0  0
   -2.2340    0.5945    0.5054 C   0  0  0  0  0  0  0  0  0  0  0  0
   -1.9943   -0.5024   -0.3561 C   0  0  0  0  0  0  0  0  0  0  0  0
   -0.5958   -1.6651   -1.5050 H   0  0  0  0  0  0  0  0  0  0  0  0
    1.4280   -0.2554   -0.8916 H   0  0  0  0  0  0  0  0  0  0  0  0
   -1.3616    2.8186    1.9640 H   0  0  0  0  0  0  0  0  0  0  0  0
   -3.2165    0.8350    0.8907 H   0  0  0  0  0  0  0  0  0  0  0  0
    4.2030   -3.5530   -4.4548 N   0  0  0  0  0  0  0  0  0  0  0  0
    4.8017   -4.0664   -5.2291 N   0  0  0  0  0  0  0  0  0  0  0  0
   -1.7668    3.7878    2.7643 Cl  0  0  0  0  0  0  0  0  0  0  0  0
   -2.9685   -1.3545   -0.7820 O   0  0  0  0  0  0  0  0  0  0  0  0
   -4.3007   -1.1303   -0.3410 C   0  0  0  0  0  0  0  0  0  0  0  0
   -4.9037   -1.9151   -0.7989 H   0  0  0  0  0  0  0  0  0  0  0  0
   -4.6730   -0.1510   -0.6669 H   0  0  0  0  0  0  0  0  0  0  0  0
   -4.3807   -1.2020    0.7511 H   0  0  0  0  0  0  0  0  0  0  0  0
  1  2  2  0  0  0  0
  1  6  1  0  0  0  0
  2  3  1  0  0  0  0
  3  4  2  0  0  0  0
  5  4  1  0  0  0  0
  5 10  1  0  0  0  0
  6  5  2  0  0  0  0
  7  1  1  0  0  0  0
  8  2  1  0  0  0  0
  9 13  1  0  0  0  0
 12 11  3  0  0  0  0
 14  6  1  0  0  0  0
 14 15  1  0  0  0  0
 15 18  1  0  0  0  0
 16 15  1  0  0  0  0
 17 15  1  0  0  0  0
M  RAD  2   3   2   4   2
M  END
