Coordinates from ORCA-job 4-MeO-Ph-N2-Cl-B3LYPG-6-31G_dp-MTMO-d009-169-n800
 OpenBabel09051908453D

 18 16  0  0  0  0  0  0  0  0999 V2000
   -0.9191    0.5542   -0.9361 C   0  0  0  0  0  0  0  0  0  0  0  0
   -0.0299    1.4920   -0.3901 C   0  0  0  0  0  0  0  0  0  0  0  0
   -0.5649    1.9525    0.7923 C   0  0  0  0  0  0  0  0  0  0  0  0
   -1.6217    1.7054    1.4204 C   0  0  0  0  0  0  0  0  0  0  0  0
   -2.5473    0.7781    0.9242 C   0  0  0  0  0  0  0  0  0  0  0  0
   -2.1429    0.2022   -0.3037 C   0  0  0  0  0  0  0  0  0  0  0  0
   -0.6826    0.0683   -1.8774 H   0  0  0  0  0  0  0  0  0  0  0  0
    0.9057    1.7710   -0.8575 H   0  0  0  0  0  0  0  0  0  0  0  0
   -2.1390    2.5162    3.0848 H   0  0  0  0  0  0  0  0  0  0  0  0
   -3.4765    0.5202    1.4155 H   0  0  0  0  0  0  0  0  0  0  0  0
    6.1969   -7.0997   -6.6974 N   0  0  0  0  0  0  0  0  0  0  0  0
    6.7312   -8.0418   -6.9176 N   0  0  0  0  0  0  0  0  0  0  0  0
   -2.6696    2.9523    4.2129 Cl  0  0  0  0  0  0  0  0  0  0  0  0
   -2.8765   -0.7253   -0.9803 O   0  0  0  0  0  0  0  0  0  0  0  0
   -4.1142   -1.1453   -0.4218 C   0  0  0  0  0  0  0  0  0  0  0  0
   -4.5223   -1.8797   -1.1175 H   0  0  0  0  0  0  0  0  0  0  0  0
   -4.8168   -0.3080   -0.3246 H   0  0  0  0  0  0  0  0  0  0  0  0
   -3.9741   -1.6154    0.5598 H   0  0  0  0  0  0  0  0  0  0  0  0
  1  2  2  0  0  0  0
  1  6  1  0  0  0  0
  2  3  1  0  0  0  0
  3  4  2  0  0  0  0
  5 10  1  0  0  0  0
  5  4  1  0  0  0  0
  6  5  2  0  0  0  0
  7  1  1  0  0  0  0
  8  2  1  0  0  0  0
  9 13  1  0  0  0  0
 12 11  3  0  0  0  0
 14 15  1  0  0  0  0
 14  6  1  0  0  0  0
 15 17  1  0  0  0  0
 15 18  1  0  0  0  0
 16 15  1  0  0  0  0
M  RAD  2   3   2   4   2
M  END
