Coordinates from ORCA-job 4-MeO-Ph-N2-Cl-B3LYPG-6-31G_dp-MTMO-d009-169-n800
 OpenBabel09051908443D

 18 16  0  0  0  0  0  0  0  0999 V2000
   -0.6117   -0.4631   -0.6677 C   0  0  0  0  0  0  0  0  0  0  0  0
    0.4066    0.3923   -0.2212 C   0  0  0  0  0  0  0  0  0  0  0  0
   -0.1516    1.3150    0.6359 C   0  0  0  0  0  0  0  0  0  0  0  0
   -1.3169    1.5130    1.0541 C   0  0  0  0  0  0  0  0  0  0  0  0
   -2.3747    0.6917    0.6442 C   0  0  0  0  0  0  0  0  0  0  0  0
   -1.9643   -0.3242   -0.2522 C   0  0  0  0  0  0  0  0  0  0  0  0
   -0.3782   -1.2699   -1.3557 H   0  0  0  0  0  0  0  0  0  0  0  0
    1.4409    0.3004   -0.5281 H   0  0  0  0  0  0  0  0  0  0  0  0
   -1.8493    2.9178    2.2530 H   0  0  0  0  0  0  0  0  0  0  0  0
   -3.4007    0.8093    0.9689 H   0  0  0  0  0  0  0  0  0  0  0  0
    4.7295   -4.6927   -5.4898 N   0  0  0  0  0  0  0  0  0  0  0  0
    5.2639   -5.2957   -6.2464 N   0  0  0  0  0  0  0  0  0  0  0  0
   -2.4182    3.7996    3.0548 Cl  0  0  0  0  0  0  0  0  0  0  0  0
   -2.8129   -1.2450   -0.7887 O   0  0  0  0  0  0  0  0  0  0  0  0
   -4.1865   -1.1863   -0.4291 C   0  0  0  0  0  0  0  0  0  0  0  0
   -4.6719   -2.0013   -0.9670 H   0  0  0  0  0  0  0  0  0  0  0  0
   -4.6408   -0.2335   -0.7285 H   0  0  0  0  0  0  0  0  0  0  0  0
   -4.3267   -1.3302    0.6496 H   0  0  0  0  0  0  0  0  0  0  0  0
  1  6  2  0  0  0  0
  1  2  1  0  0  0  0
  2  3  2  0  0  0  0
  3  4  1  0  0  0  0
  5 10  1  0  0  0  0
  5  4  2  0  0  0  0
  6  5  1  0  0  0  0
  7  1  1  0  0  0  0
  8  2  1  0  0  0  0
  9 13  1  0  0  0  0
 12 11  3  0  0  0  0
 14 15  1  0  0  0  0
 14  6  1  0  0  0  0
 15 18  1  0  0  0  0
 16 15  1  0  0  0  0
 17 15  1  0  0  0  0
M  RAD  2   3   2   4   2
M  END
