Coordinates from ORCA-job 4-MeO-Ph-N2-Cl-B3LYPG-6-31G_dp-MTMO-d009-169-n800
 OpenBabel09051908453D

 18 16  0  0  0  0  0  0  0  0999 V2000
   -0.9659    0.5969   -0.9215 C   0  0  0  0  0  0  0  0  0  0  0  0
   -0.0718    1.5302   -0.3757 C   0  0  0  0  0  0  0  0  0  0  0  0
   -0.5969    1.9808    0.8149 C   0  0  0  0  0  0  0  0  0  0  0  0
   -1.6480    1.7292    1.4508 C   0  0  0  0  0  0  0  0  0  0  0  0
   -2.5777    0.8058    0.9546 C   0  0  0  0  0  0  0  0  0  0  0  0
   -2.1842    0.2398   -0.2814 C   0  0  0  0  0  0  0  0  0  0  0  0
   -0.7376    0.1187   -1.8688 H   0  0  0  0  0  0  0  0  0  0  0  0
    0.8597    1.8129   -0.8490 H   0  0  0  0  0  0  0  0  0  0  0  0
   -2.1534    2.5263    3.1231 H   0  0  0  0  0  0  0  0  0  0  0  0
   -3.5026    0.5440    1.4518 H   0  0  0  0  0  0  0  0  0  0  0  0
    6.4851   -7.3604   -6.9058 N   0  0  0  0  0  0  0  0  0  0  0  0
    7.0208   -8.3023   -7.1239 N   0  0  0  0  0  0  0  0  0  0  0  0
   -2.6744    2.9553    4.2586 Cl  0  0  0  0  0  0  0  0  0  0  0  0
   -2.9238   -0.6821   -0.9590 O   0  0  0  0  0  0  0  0  0  0  0  0
   -4.1564   -1.1068   -0.3929 C   0  0  0  0  0  0  0  0  0  0  0  0
   -4.5706   -1.8358   -1.0908 H   0  0  0  0  0  0  0  0  0  0  0  0
   -4.8582   -0.2705   -0.2828 H   0  0  0  0  0  0  0  0  0  0  0  0
   -4.0076   -1.5847    0.5836 H   0  0  0  0  0  0  0  0  0  0  0  0
  1  2  2  0  0  0  0
  1  6  1  0  0  0  0
  2  3  1  0  0  0  0
  3  4  2  0  0  0  0
  5  4  1  0  0  0  0
  5 10  1  0  0  0  0
  6  5  2  0  0  0  0
  7  1  1  0  0  0  0
  8  2  1  0  0  0  0
  9 13  1  0  0  0  0
 12 11  3  0  0  0  0
 14 15  1  0  0  0  0
 14  6  1  0  0  0  0
 15 17  1  0  0  0  0
 15 18  1  0  0  0  0
 16 15  1  0  0  0  0
M  RAD  2   3   2   4   2
M  END
