Coordinates from ORCA-job 4-MeO-Ph-N2-Cl-B3LYPG-6-31G_dp-MTMO-d009-169-n800
 OpenBabel09051908453D

 18 16  0  0  0  0  0  0  0  0999 V2000
   -0.9600    0.5944   -0.9084 C   0  0  0  0  0  0  0  0  0  0  0  0
   -0.0706    1.5319   -0.3623 C   0  0  0  0  0  0  0  0  0  0  0  0
   -0.6034    1.9893    0.8224 C   0  0  0  0  0  0  0  0  0  0  0  0
   -1.6586    1.7394    1.4519 C   0  0  0  0  0  0  0  0  0  0  0  0
   -2.5845    0.8124    0.9560 C   0  0  0  0  0  0  0  0  0  0  0  0
   -2.1821    0.2397   -0.2742 C   0  0  0  0  0  0  0  0  0  0  0  0
   -0.7251    0.1109   -1.8514 H   0  0  0  0  0  0  0  0  0  0  0  0
    0.8638    1.8131   -0.8310 H   0  0  0  0  0  0  0  0  0  0  0  0
   -2.1742    2.5461    3.1197 H   0  0  0  0  0  0  0  0  0  0  0  0
   -3.5123    0.5524    1.4487 H   0  0  0  0  0  0  0  0  0  0  0  0
    6.5036   -7.3870   -6.9419 N   0  0  0  0  0  0  0  0  0  0  0  0
    7.0376   -8.3293   -7.1626 N   0  0  0  0  0  0  0  0  0  0  0  0
   -2.7035    2.9789    4.2495 Cl  0  0  0  0  0  0  0  0  0  0  0  0
   -2.9162   -0.6870   -0.9513 O   0  0  0  0  0  0  0  0  0  0  0  0
   -4.1522   -1.1096   -0.3910 C   0  0  0  0  0  0  0  0  0  0  0  0
   -4.5610   -1.8430   -1.0874 H   0  0  0  0  0  0  0  0  0  0  0  0
   -4.8554   -0.2733   -0.2903 H   0  0  0  0  0  0  0  0  0  0  0  0
   -4.0093   -1.5818    0.5893 H   0  0  0  0  0  0  0  0  0  0  0  0
  1  2  2  0  0  0  0
  1  6  1  0  0  0  0
  2  3  1  0  0  0  0
  3  4  2  0  0  0  0
  5 10  1  0  0  0  0
  5  4  1  0  0  0  0
  6  5  2  0  0  0  0
  7  1  1  0  0  0  0
  8  2  1  0  0  0  0
  9 13  1  0  0  0  0
 12 11  3  0  0  0  0
 14 15  1  0  0  0  0
 14  6  1  0  0  0  0
 15 17  1  0  0  0  0
 15 18  1  0  0  0  0
 16 15  1  0  0  0  0
M  RAD  2   3   2   4   2
M  END
