Coordinates from ORCA-job 4-MeO-Ph-N2-Cl-B3LYPG-6-31G_dp-MTMO-d009-169-n800
 OpenBabel09051908453D

 18 16  0  0  0  0  0  0  0  0999 V2000
   -0.7934    0.4272   -1.0611 C   0  0  0  0  0  0  0  0  0  0  0  0
    0.1037    1.3582   -0.5167 C   0  0  0  0  0  0  0  0  0  0  0  0
   -0.4202    1.8143    0.6725 C   0  0  0  0  0  0  0  0  0  0  0  0
   -1.4732    1.5675    1.3070 C   0  0  0  0  0  0  0  0  0  0  0  0
   -2.4065    0.6470    0.8129 C   0  0  0  0  0  0  0  0  0  0  0  0
   -2.0138    0.0764   -0.4213 C   0  0  0  0  0  0  0  0  0  0  0  0
   -0.5662   -0.0543   -2.0070 H   0  0  0  0  0  0  0  0  0  0  0  0
    1.0369    1.6362   -0.9896 H   0  0  0  0  0  0  0  0  0  0  0  0
   -1.9761    2.3708    2.9799 H   0  0  0  0  0  0  0  0  0  0  0  0
   -3.3329    0.3901    1.3100 H   0  0  0  0  0  0  0  0  0  0  0  0
    5.1180   -6.0677   -5.7780 N   0  0  0  0  0  0  0  0  0  0  0  0
    5.6489   -7.0114   -5.9998 N   0  0  0  0  0  0  0  0  0  0  0  0
   -2.4979    2.8019    4.1139 Cl  0  0  0  0  0  0  0  0  0  0  0  0
   -2.7563   -0.8442   -1.0975 O   0  0  0  0  0  0  0  0  0  0  0  0
   -3.9914   -1.2623   -0.5320 C   0  0  0  0  0  0  0  0  0  0  0  0
   -4.4079   -1.9911   -1.2287 H   0  0  0  0  0  0  0  0  0  0  0  0
   -4.6897   -0.4227   -0.4246 H   0  0  0  0  0  0  0  0  0  0  0  0
   -3.8458   -1.7386    0.4459 H   0  0  0  0  0  0  0  0  0  0  0  0
  1  2  2  0  0  0  0
  1  6  1  0  0  0  0
  2  3  1  0  0  0  0
  3  4  2  0  0  0  0
  5  4  1  0  0  0  0
  5 10  1  0  0  0  0
  6  5  2  0  0  0  0
  7  1  1  0  0  0  0
  8  2  1  0  0  0  0
  9 13  1  0  0  0  0
 12 11  3  0  0  0  0
 14 15  1  0  0  0  0
 14  6  1  0  0  0  0
 15 17  1  0  0  0  0
 15 18  1  0  0  0  0
 16 15  1  0  0  0  0
M  RAD  2   3   2   4   2
M  END
