Coordinates from ORCA-job 4-MeO-Ph-N2-Cl-B3LYPG-6-31G_dp-MTMO-d009-169-n800
 OpenBabel09051908443D

 18 17  0  0  0  0  0  0  0  0999 V2000
   -1.3389   -1.7310   -1.4914 C   0  0  0  0  0  0  0  0  0  0  0  0
    0.0035   -1.3957   -1.6037 C   0  0  0  0  0  0  0  0  0  0  0  0
    0.4292   -0.2880   -0.8897 C   0  0  0  0  0  0  0  0  0  0  0  0
   -0.3516    0.5091   -0.0825 C   0  0  0  0  0  0  0  0  0  0  0  0
   -1.7013    0.1547    0.0166 C   0  0  0  0  0  0  0  0  0  0  0  0
   -2.1957   -0.9593   -0.6818 C   0  0  0  0  0  0  0  0  0  0  0  0
   -1.7510   -2.5851   -2.0170 H   0  0  0  0  0  0  0  0  0  0  0  0
    0.6896   -1.9682   -2.2163 H   0  0  0  0  0  0  0  0  0  0  0  0
    0.0723    1.3605    0.4388 H   0  0  0  0  0  0  0  0  0  0  0  0
   -2.3505    0.7576    0.6393 H   0  0  0  0  0  0  0  0  0  0  0  0
    2.0859    0.0474   -1.0805 N   0  0  0  0  0  0  0  0  0  0  0  0
    2.8440    0.8322   -0.6995 N   0  0  0  0  0  0  0  0  0  0  0  0
    2.2077    2.4523    0.6629 Cl  0  0  0  0  0  0  0  0  0  0  0  0
   -3.4837   -1.3763   -0.6435 O   0  0  0  0  0  0  0  0  0  0  0  0
   -4.4141   -0.6563    0.1586 C   0  0  0  0  0  0  0  0  0  0  0  0
   -5.3677   -1.1719    0.0424 H   0  0  0  0  0  0  0  0  0  0  0  0
   -4.5189    0.3807   -0.1825 H   0  0  0  0  0  0  0  0  0  0  0  0
   -4.1224   -0.6653    1.2158 H   0  0  0  0  0  0  0  0  0  0  0  0
  1  6  1  0  0  0  0
  2  1  2  0  0  0  0
  2  3  1  0  0  0  0
  3  4  2  0  0  0  0
  4  5  1  0  0  0  0
  4  9  1  0  0  0  0
  5 10  1  0  0  0  0
  6 14  1  0  0  0  0
  6  5  2  0  0  0  0
  7  1  1  0  0  0  0
  8  2  1  0  0  0  0
 11  3  1  0  0  0  0
 11 12  2  0  0  0  0
 14 15  1  0  0  0  0
 15 18  1  0  0  0  0
 16 15  1  0  0  0  0
 17 15  1  0  0  0  0
M  RAD  2  12   2  13   2
M  END
