Coordinates from ORCA-job 4-MeO-Ph-N2-Cl-B3LYPG-6-31G_dp-MTMO-d009-169-n800
 OpenBabel09051908453D

 18 16  0  0  0  0  0  0  0  0999 V2000
   -1.0771    0.7038   -0.8361 C   0  0  0  0  0  0  0  0  0  0  0  0
   -0.1837    1.6376   -0.2902 C   0  0  0  0  0  0  0  0  0  0  0  0
   -0.7066    2.0852    0.9027 C   0  0  0  0  0  0  0  0  0  0  0  0
   -1.7563    1.8295    1.5391 C   0  0  0  0  0  0  0  0  0  0  0  0
   -2.6857    0.9057    1.0438 C   0  0  0  0  0  0  0  0  0  0  0  0
   -2.2935    0.3431   -0.1943 C   0  0  0  0  0  0  0  0  0  0  0  0
   -0.8499    0.2278   -1.7848 H   0  0  0  0  0  0  0  0  0  0  0  0
    0.7465    1.9230   -0.7646 H   0  0  0  0  0  0  0  0  0  0  0  0
   -2.2589    2.6230    3.2171 H   0  0  0  0  0  0  0  0  0  0  0  0
   -3.6091    0.6412    1.5424 H   0  0  0  0  0  0  0  0  0  0  0  0
    7.3551   -8.1727   -7.6103 N   0  0  0  0  0  0  0  0  0  0  0  0
    7.8868   -9.1160   -7.8320 N   0  0  0  0  0  0  0  0  0  0  0  0
   -2.7798    3.0464    4.3543 Cl  0  0  0  0  0  0  0  0  0  0  0  0
   -3.0327   -0.5789   -0.8724 O   0  0  0  0  0  0  0  0  0  0  0  0
   -4.2633   -1.0070   -0.3047 C   0  0  0  0  0  0  0  0  0  0  0  0
   -4.6775   -1.7353   -1.0033 H   0  0  0  0  0  0  0  0  0  0  0  0
   -4.9665   -0.1723   -0.1914 H   0  0  0  0  0  0  0  0  0  0  0  0
   -4.1116   -1.4868    0.6705 H   0  0  0  0  0  0  0  0  0  0  0  0
  1  2  2  0  0  0  0
  1  6  1  0  0  0  0
  2  3  1  0  0  0  0
  3  4  2  0  0  0  0
  5  4  1  0  0  0  0
  5 10  1  0  0  0  0
  6  5  2  0  0  0  0
  7  1  1  0  0  0  0
  8  2  1  0  0  0  0
  9 13  1  0  0  0  0
 12 11  3  0  0  0  0
 14 15  1  0  0  0  0
 14  6  1  0  0  0  0
 15 17  1  0  0  0  0
 15 18  1  0  0  0  0
 16 15  1  0  0  0  0
M  RAD  2   3   2   4   2
M  END
