Coordinates from ORCA-job 4-MeO-Ph-N2-Cl-B3LYPG-6-31G_dp-MTMO-d009-169-n800
 OpenBabel09051908453D

 18 16  0  0  0  0  0  0  0  0999 V2000
   -1.0118    0.6451   -0.8631 C   0  0  0  0  0  0  0  0  0  0  0  0
   -0.1241    1.5840   -0.3167 C   0  0  0  0  0  0  0  0  0  0  0  0
   -0.6586    2.0416    0.8671 C   0  0  0  0  0  0  0  0  0  0  0  0
   -1.7143    1.7909    1.4956 C   0  0  0  0  0  0  0  0  0  0  0  0
   -2.6385    0.8625    0.9993 C   0  0  0  0  0  0  0  0  0  0  0  0
   -2.2342    0.2894   -0.2300 C   0  0  0  0  0  0  0  0  0  0  0  0
   -0.7754    0.1612   -1.8055 H   0  0  0  0  0  0  0  0  0  0  0  0
    0.8105    1.8659   -0.7846 H   0  0  0  0  0  0  0  0  0  0  0  0
   -2.2319    2.5983    3.1627 H   0  0  0  0  0  0  0  0  0  0  0  0
   -3.5666    0.6017    1.4912 H   0  0  0  0  0  0  0  0  0  0  0  0
    6.9281   -7.7869   -7.2928 N   0  0  0  0  0  0  0  0  0  0  0  0
    7.4617   -8.7293   -7.5138 N   0  0  0  0  0  0  0  0  0  0  0  0
   -2.7626    3.0311    4.2918 Cl  0  0  0  0  0  0  0  0  0  0  0  0
   -2.9665   -0.6387   -0.9073 O   0  0  0  0  0  0  0  0  0  0  0  0
   -4.2025   -1.0623   -0.3480 C   0  0  0  0  0  0  0  0  0  0  0  0
   -4.6098   -1.7967   -1.0443 H   0  0  0  0  0  0  0  0  0  0  0  0
   -4.9069   -0.2268   -0.2486 H   0  0  0  0  0  0  0  0  0  0  0  0
   -4.0602   -1.5337    0.6328 H   0  0  0  0  0  0  0  0  0  0  0  0
  1  2  2  0  0  0  0
  1  6  1  0  0  0  0
  2  3  1  0  0  0  0
  3  4  2  0  0  0  0
  5 10  1  0  0  0  0
  5  4  1  0  0  0  0
  6  5  2  0  0  0  0
  7  1  1  0  0  0  0
  8  2  1  0  0  0  0
  9 13  1  0  0  0  0
 12 11  3  0  0  0  0
 14 15  1  0  0  0  0
 14  6  1  0  0  0  0
 15 17  1  0  0  0  0
 15 18  1  0  0  0  0
 16 15  1  0  0  0  0
M  RAD  2   3   2   4   2
M  END
