Coordinates from ORCA-job 4-MeO-Ph-N2-Cl-B3LYPG-6-31G_dp-MTMO-d009-169-n800
 OpenBabel09051908453D

 18 16  0  0  0  0  0  0  0  0999 V2000
   -0.8492    0.4883   -1.0026 C   0  0  0  0  0  0  0  0  0  0  0  0
    0.0422    1.4241   -0.4568 C   0  0  0  0  0  0  0  0  0  0  0  0
   -0.4886    1.8812    0.7289 C   0  0  0  0  0  0  0  0  0  0  0  0
   -1.5435    1.6322    1.3595 C   0  0  0  0  0  0  0  0  0  0  0  0
   -2.4711    0.7069    0.8638 C   0  0  0  0  0  0  0  0  0  0  0  0
   -2.0710    0.1346   -0.3673 C   0  0  0  0  0  0  0  0  0  0  0  0
   -0.6160    0.0052   -1.9463 H   0  0  0  0  0  0  0  0  0  0  0  0
    0.9763    1.7043   -0.9264 H   0  0  0  0  0  0  0  0  0  0  0  0
   -2.0552    2.4382    3.0286 H   0  0  0  0  0  0  0  0  0  0  0  0
   -3.3987    0.4477    1.3574 H   0  0  0  0  0  0  0  0  0  0  0  0
    5.6055   -6.5435   -6.1991 N   0  0  0  0  0  0  0  0  0  0  0  0
    6.1370   -7.4865   -6.4226 N   0  0  0  0  0  0  0  0  0  0  0  0
   -2.5823    2.8707    4.1596 Cl  0  0  0  0  0  0  0  0  0  0  0  0
   -2.8072   -0.7905   -1.0443 O   0  0  0  0  0  0  0  0  0  0  0  0
   -4.0431   -1.2118   -0.4830 C   0  0  0  0  0  0  0  0  0  0  0  0
   -4.4537   -1.9440   -1.1795 H   0  0  0  0  0  0  0  0  0  0  0  0
   -4.7450   -0.3746   -0.3808 H   0  0  0  0  0  0  0  0  0  0  0  0
   -3.8998   -1.6851    0.4967 H   0  0  0  0  0  0  0  0  0  0  0  0
  1  2  2  0  0  0  0
  1  6  1  0  0  0  0
  2  3  1  0  0  0  0
  3  4  2  0  0  0  0
  5 10  1  0  0  0  0
  5  4  1  0  0  0  0
  6  5  2  0  0  0  0
  7  1  1  0  0  0  0
  8  2  1  0  0  0  0
  9 13  1  0  0  0  0
 12 11  3  0  0  0  0
 14 15  1  0  0  0  0
 14  6  1  0  0  0  0
 15 17  1  0  0  0  0
 15 18  1  0  0  0  0
 16 15  1  0  0  0  0
M  RAD  2   3   2   4   2
M  END
