Coordinates from ORCA-job 4-MeO-Ph-N2-Cl-B3LYPG-6-31G_dp-MTMO-d009-169-n800
 OpenBabel09051908443D

 18 17  0  0  0  0  0  0  0  0999 V2000
   -1.2958   -1.7140   -1.4838 C   0  0  0  0  0  0  0  0  0  0  0  0
    0.0304   -1.3630   -1.5876 C   0  0  0  0  0  0  0  0  0  0  0  0
    0.5454   -0.2330   -0.8892 C   0  0  0  0  0  0  0  0  0  0  0  0
   -0.3452    0.5300   -0.0820 C   0  0  0  0  0  0  0  0  0  0  0  0
   -1.6793    0.1745    0.0171 C   0  0  0  0  0  0  0  0  0  0  0  0
   -2.1663   -0.9481   -0.6787 C   0  0  0  0  0  0  0  0  0  0  0  0
   -1.6984   -2.5735   -2.0078 H   0  0  0  0  0  0  0  0  0  0  0  0
    0.7111   -1.9431   -2.2026 H   0  0  0  0  0  0  0  0  0  0  0  0
    0.0528    1.3904    0.4460 H   0  0  0  0  0  0  0  0  0  0  0  0
   -2.3374    0.7730    0.6349 H   0  0  0  0  0  0  0  0  0  0  0  0
    1.7482    0.0448   -1.0099 N   0  0  0  0  0  0  0  0  0  0  0  0
    2.6794    0.7080   -0.7581 N   0  0  0  0  0  0  0  0  0  0  0  0
    2.2767    2.3736    0.6428 Cl  0  0  0  0  0  0  0  0  0  0  0  0
   -3.4420   -1.3730   -0.6429 O   0  0  0  0  0  0  0  0  0  0  0  0
   -4.3929   -0.6617    0.1507 C   0  0  0  0  0  0  0  0  0  0  0  0
   -5.3359   -1.1937    0.0265 H   0  0  0  0  0  0  0  0  0  0  0  0
   -4.5071    0.3706   -0.1982 H   0  0  0  0  0  0  0  0  0  0  0  0
   -4.1072   -0.6646    1.2086 H   0  0  0  0  0  0  0  0  0  0  0  0
  1  6  1  0  0  0  0
  2  1  2  0  0  0  0
  2  3  1  0  0  0  0
  3  4  2  0  0  0  0
  4  5  1  0  0  0  0
  4  9  1  0  0  0  0
  5 10  1  0  0  0  0
  6 14  1  0  0  0  0
  6  5  2  0  0  0  0
  7  1  1  0  0  0  0
  8  2  1  0  0  0  0
 11  3  1  0  0  0  0
 11 12  2  0  0  0  0
 14 15  1  0  0  0  0
 15 18  1  0  0  0  0
 16 15  1  0  0  0  0
 17 15  1  0  0  0  0
M  RAD  2  12   2  13   2
M  END
