Coordinates from ORCA-job 4-MeO-Ph-N2-Cl-B3LYPG-6-31G_dp-MTMO-d009-169-n800
 OpenBabel09051908453D

 18 16  0  0  0  0  0  0  0  0999 V2000
   -0.7265    0.3492   -1.1058 C   0  0  0  0  0  0  0  0  0  0  0  0
    0.1743    1.2779   -0.5635 C   0  0  0  0  0  0  0  0  0  0  0  0
   -0.3522    1.7446    0.6203 C   0  0  0  0  0  0  0  0  0  0  0  0
   -1.4091    1.5097    1.2529 C   0  0  0  0  0  0  0  0  0  0  0  0
   -2.3458    0.5915    0.7598 C   0  0  0  0  0  0  0  0  0  0  0  0
   -1.9518    0.0105   -0.4689 C   0  0  0  0  0  0  0  0  0  0  0  0
   -0.4983   -0.1398   -2.0476 H   0  0  0  0  0  0  0  0  0  0  0  0
    1.1112    1.5470   -1.0341 H   0  0  0  0  0  0  0  0  0  0  0  0
   -1.9111    2.3255    2.9174 H   0  0  0  0  0  0  0  0  0  0  0  0
   -3.2760    0.3437    1.2544 H   0  0  0  0  0  0  0  0  0  0  0  0
    4.6236   -5.5781   -5.3750 N   0  0  0  0  0  0  0  0  0  0  0  0
    5.1532   -6.5224   -5.5975 N   0  0  0  0  0  0  0  0  0  0  0  0
   -2.4330    2.7673    4.0476 Cl  0  0  0  0  0  0  0  0  0  0  0  0
   -2.6975   -0.9096   -1.1423 O   0  0  0  0  0  0  0  0  0  0  0  0
   -3.9378   -1.3158   -0.5796 C   0  0  0  0  0  0  0  0  0  0  0  0
   -4.3561   -2.0462   -1.2735 H   0  0  0  0  0  0  0  0  0  0  0  0
   -4.6309   -0.4708   -0.4808 H   0  0  0  0  0  0  0  0  0  0  0  0
   -3.7998   -1.7868    0.4019 H   0  0  0  0  0  0  0  0  0  0  0  0
  1  2  2  0  0  0  0
  1  6  1  0  0  0  0
  2  3  1  0  0  0  0
  3  4  2  0  0  0  0
  5  4  1  0  0  0  0
  5 10  1  0  0  0  0
  6  5  2  0  0  0  0
  7  1  1  0  0  0  0
  8  2  1  0  0  0  0
  9 13  1  0  0  0  0
 12 11  3  0  0  0  0
 14 15  1  0  0  0  0
 14  6  1  0  0  0  0
 15 17  1  0  0  0  0
 15 18  1  0  0  0  0
 16 15  1  0  0  0  0
M  RAD  2   3   2   4   2
M  END
