Coordinates from ORCA-job 4-MeO-Ph-N2-Cl-B3LYPG-6-31G_dp-MTMO-d009-169-n800
 OpenBabel09051908453D

 18 16  0  0  0  0  0  0  0  0999 V2000
   -0.7484    0.3806   -1.0866 C   0  0  0  0  0  0  0  0  0  0  0  0
    0.1483    1.3123   -0.5426 C   0  0  0  0  0  0  0  0  0  0  0  0
   -0.3801    1.7744    0.6420 C   0  0  0  0  0  0  0  0  0  0  0  0
   -1.4361    1.5337    1.2741 C   0  0  0  0  0  0  0  0  0  0  0  0
   -2.3687    0.6124    0.7794 C   0  0  0  0  0  0  0  0  0  0  0  0
   -1.9722    0.0354   -0.4504 C   0  0  0  0  0  0  0  0  0  0  0  0
   -0.5181   -0.1056   -2.0294 H   0  0  0  0  0  0  0  0  0  0  0  0
    1.0840    1.5862   -1.0129 H   0  0  0  0  0  0  0  0  0  0  0  0
   -1.9419    2.3449    2.9399 H   0  0  0  0  0  0  0  0  0  0  0  0
   -3.2978    0.3596    1.2735 H   0  0  0  0  0  0  0  0  0  0  0  0
    4.7984   -5.7646   -5.5278 N   0  0  0  0  0  0  0  0  0  0  0  0
    5.3291   -6.7081   -5.7508 N   0  0  0  0  0  0  0  0  0  0  0  0
   -2.4657    2.7829    4.0706 Cl  0  0  0  0  0  0  0  0  0  0  0  0
   -2.7138   -0.8868   -1.1255 O   0  0  0  0  0  0  0  0  0  0  0  0
   -3.9523   -1.2996   -0.5634 C   0  0  0  0  0  0  0  0  0  0  0  0
   -4.3673   -2.0307   -1.2586 H   0  0  0  0  0  0  0  0  0  0  0  0
   -4.6492   -0.4580   -0.4629 H   0  0  0  0  0  0  0  0  0  0  0  0
   -3.8120   -1.7717    0.4173 H   0  0  0  0  0  0  0  0  0  0  0  0
  1  2  2  0  0  0  0
  1  6  1  0  0  0  0
  2  3  1  0  0  0  0
  3  4  2  0  0  0  0
  5 10  1  0  0  0  0
  5  4  1  0  0  0  0
  6  5  2  0  0  0  0
  7  1  1  0  0  0  0
  8  2  1  0  0  0  0
  9 13  1  0  0  0  0
 12 11  3  0  0  0  0
 14 15  1  0  0  0  0
 14  6  1  0  0  0  0
 15 17  1  0  0  0  0
 15 18  1  0  0  0  0
 16 15  1  0  0  0  0
M  RAD  2   3   2   4   2
M  END
