Coordinates from ORCA-job 4-MeO-Ph-N2-Cl-B3LYPG-6-31G_dp-MTMO-d009-169-n800
 OpenBabel09051908453D

 18 16  0  0  0  0  0  0  0  0999 V2000
   -0.8391    0.4759   -1.0126 C   0  0  0  0  0  0  0  0  0  0  0  0
    0.0538    1.4105   -0.4672 C   0  0  0  0  0  0  0  0  0  0  0  0
   -0.4757    1.8682    0.7189 C   0  0  0  0  0  0  0  0  0  0  0  0
   -1.5304    1.6206    1.3501 C   0  0  0  0  0  0  0  0  0  0  0  0
   -2.4596    0.6965    0.8549 C   0  0  0  0  0  0  0  0  0  0  0  0
   -2.0610    0.1238   -0.3765 C   0  0  0  0  0  0  0  0  0  0  0  0
   -0.6072   -0.0074   -1.9564 H   0  0  0  0  0  0  0  0  0  0  0  0
    0.9880    1.6895   -0.9374 H   0  0  0  0  0  0  0  0  0  0  0  0
   -2.0414    2.4268    3.0190 H   0  0  0  0  0  0  0  0  0  0  0  0
   -3.3872    0.4386    1.3491 H   0  0  0  0  0  0  0  0  0  0  0  0
    5.5195   -6.4582   -6.1268 N   0  0  0  0  0  0  0  0  0  0  0  0
    6.0528   -7.4008   -6.3479 N   0  0  0  0  0  0  0  0  0  0  0  0
   -2.5677    2.8601    4.1501 Cl  0  0  0  0  0  0  0  0  0  0  0  0
   -2.7988   -0.8003   -1.0531 O   0  0  0  0  0  0  0  0  0  0  0  0
   -4.0349   -1.2199   -0.4910 C   0  0  0  0  0  0  0  0  0  0  0  0
   -4.4471   -1.9515   -1.1874 H   0  0  0  0  0  0  0  0  0  0  0  0
   -4.7357   -0.3818   -0.3883 H   0  0  0  0  0  0  0  0  0  0  0  0
   -3.8917   -1.6934    0.4886 H   0  0  0  0  0  0  0  0  0  0  0  0
  1  2  2  0  0  0  0
  1  6  1  0  0  0  0
  2  3  1  0  0  0  0
  3  4  2  0  0  0  0
  5 10  1  0  0  0  0
  5  4  1  0  0  0  0
  6  5  2  0  0  0  0
  7  1  1  0  0  0  0
  8  2  1  0  0  0  0
  9 13  1  0  0  0  0
 12 11  3  0  0  0  0
 14 15  1  0  0  0  0
 14  6  1  0  0  0  0
 15 17  1  0  0  0  0
 15 18  1  0  0  0  0
 16 15  1  0  0  0  0
M  RAD  2   3   2   4   2
M  END
