Coordinates from ORCA-job 4-MeO-Ph-N2-Cl-B3LYPG-6-31G_dp-MTMO-d009-169-n800
 OpenBabel09051908443D

 18 16  0  0  0  0  0  0  0  0999 V2000
   -0.6353   -0.5914   -0.7047 C   0  0  0  0  0  0  0  0  0  0  0  0
    0.4220    0.2340   -0.2939 C   0  0  0  0  0  0  0  0  0  0  0  0
   -0.0871    1.1994    0.5468 C   0  0  0  0  0  0  0  0  0  0  0  0
   -1.2378    1.4536    0.9750 C   0  0  0  0  0  0  0  0  0  0  0  0
   -2.3328    0.6646    0.6007 C   0  0  0  0  0  0  0  0  0  0  0  0
   -1.9753   -0.3887   -0.2748 C   0  0  0  0  0  0  0  0  0  0  0  0
   -0.4436   -1.4236   -1.3751 H   0  0  0  0  0  0  0  0  0  0  0  0
    1.4474    0.0936   -0.6122 H   0  0  0  0  0  0  0  0  0  0  0  0
   -1.6957    2.9093    2.1449 H   0  0  0  0  0  0  0  0  0  0  0  0
   -3.3485    0.8310    0.9360 H   0  0  0  0  0  0  0  0  0  0  0  0
    4.5738   -4.3220   -5.1970 N   0  0  0  0  0  0  0  0  0  0  0  0
    5.1359   -4.8881   -5.9620 N   0  0  0  0  0  0  0  0  0  0  0  0
   -2.2154    3.8341    2.9313 Cl  0  0  0  0  0  0  0  0  0  0  0  0
   -2.8669   -1.2883   -0.7767 O   0  0  0  0  0  0  0  0  0  0  0  0
   -4.2322   -1.1658   -0.4017 C   0  0  0  0  0  0  0  0  0  0  0  0
   -4.7567   -1.9736   -0.9131 H   0  0  0  0  0  0  0  0  0  0  0  0
   -4.6521   -0.2032   -0.7193 H   0  0  0  0  0  0  0  0  0  0  0  0
   -4.3635   -1.2774    0.6819 H   0  0  0  0  0  0  0  0  0  0  0  0
  1  2  2  0  0  0  0
  1  6  1  0  0  0  0
  2  3  1  0  0  0  0
  3  4  2  0  0  0  0
  5 10  1  0  0  0  0
  5  4  1  0  0  0  0
  6  5  2  0  0  0  0
  7  1  1  0  0  0  0
  8  2  1  0  0  0  0
  9 13  1  0  0  0  0
 12 11  3  0  0  0  0
 14 15  1  0  0  0  0
 14  6  1  0  0  0  0
 15 18  1  0  0  0  0
 16 15  1  0  0  0  0
 17 15  1  0  0  0  0
M  RAD  2   3   2   4   2
M  END
