Coordinates from ORCA-job 4-MeO-Ph-N2-Cl-B3LYPG-6-31G_dp-MTMO-d009-169-n800
 OpenBabel09051908443D

 18 16  0  0  0  0  0  0  0  0999 V2000
   -0.7022   -0.8235   -0.8657 C   0  0  0  0  0  0  0  0  0  0  0  0
    0.4335   -0.0647   -0.5456 C   0  0  0  0  0  0  0  0  0  0  0  0
    0.0448    0.9585    0.2907 C   0  0  0  0  0  0  0  0  0  0  0  0
   -1.0561    1.3068    0.7796 C   0  0  0  0  0  0  0  0  0  0  0  0
   -2.2242    0.5874    0.4961 C   0  0  0  0  0  0  0  0  0  0  0  0
   -1.9959   -0.5128   -0.3643 C   0  0  0  0  0  0  0  0  0  0  0  0
   -0.6107   -1.6865   -1.5181 H   0  0  0  0  0  0  0  0  0  0  0  0
    1.4249   -0.2878   -0.9189 H   0  0  0  0  0  0  0  0  0  0  0  0
   -1.3295    2.8081    1.9466 H   0  0  0  0  0  0  0  0  0  0  0  0
   -3.2031    0.8347    0.8861 H   0  0  0  0  0  0  0  0  0  0  0  0
    4.1641   -3.4779   -4.3834 N   0  0  0  0  0  0  0  0  0  0  0  0
    4.7682   -3.9888   -5.1552 N   0  0  0  0  0  0  0  0  0  0  0  0
   -1.7233    3.7808    2.7484 Cl  0  0  0  0  0  0  0  0  0  0  0  0
   -2.9775   -1.3598   -0.7830 O   0  0  0  0  0  0  0  0  0  0  0  0
   -4.3059   -1.1267   -0.3353 C   0  0  0  0  0  0  0  0  0  0  0  0
   -4.9160   -1.9090   -0.7881 H   0  0  0  0  0  0  0  0  0  0  0  0
   -4.6741   -0.1460   -0.6613 H   0  0  0  0  0  0  0  0  0  0  0  0
   -4.3804   -1.1955    0.7574 H   0  0  0  0  0  0  0  0  0  0  0  0
  1  2  2  0  0  0  0
  1  6  1  0  0  0  0
  2  3  1  0  0  0  0
  3  4  2  0  0  0  0
  5  4  1  0  0  0  0
  5 10  1  0  0  0  0
  6  5  2  0  0  0  0
  7  1  1  0  0  0  0
  8  2  1  0  0  0  0
  9 13  1  0  0  0  0
 12 11  3  0  0  0  0
 14  6  1  0  0  0  0
 14 15  1  0  0  0  0
 15 18  1  0  0  0  0
 16 15  1  0  0  0  0
 17 15  1  0  0  0  0
M  RAD  2   3   2   4   2
M  END
