Coordinates from ORCA-job 4-MeO-Ph-N2-Cl-B3LYPG-6-31G_dp-MTMO-d009-169-n800
 OpenBabel09051908443D

 18 16  0  0  0  0  0  0  0  0999 V2000
   -0.7910   -1.0333   -1.0495 C   0  0  0  0  0  0  0  0  0  0  0  0
    0.4152   -0.3524   -0.8258 C   0  0  0  0  0  0  0  0  0  0  0  0
    0.1577    0.7075    0.0149 C   0  0  0  0  0  0  0  0  0  0  0  0
   -0.8768    1.1423    0.5746 C   0  0  0  0  0  0  0  0  0  0  0  0
   -2.1093    0.5027    0.3873 C   0  0  0  0  0  0  0  0  0  0  0  0
   -2.0205   -0.6237   -0.4646 C   0  0  0  0  0  0  0  0  0  0  0  0
   -0.8069   -1.9105   -1.6889 H   0  0  0  0  0  0  0  0  0  0  0  0
    1.3590   -0.6515   -1.2642 H   0  0  0  0  0  0  0  0  0  0  0  0
   -0.9550    2.6600    1.7413 H   0  0  0  0  0  0  0  0  0  0  0  0
   -3.0384    0.8250    0.8392 H   0  0  0  0  0  0  0  0  0  0  0  0
    3.7142   -2.6203   -3.5679 N   0  0  0  0  0  0  0  0  0  0  0  0
    4.4369   -3.1017   -4.2516 N   0  0  0  0  0  0  0  0  0  0  0  0
   -1.2144    3.6609    2.5639 Cl  0  0  0  0  0  0  0  0  0  0  0  0
   -3.0864   -1.4052   -0.7961 O   0  0  0  0  0  0  0  0  0  0  0  0
   -4.3583   -1.0768   -0.2541 C   0  0  0  0  0  0  0  0  0  0  0  0
   -5.0522   -1.8209   -0.6469 H   0  0  0  0  0  0  0  0  0  0  0  0
   -4.6838   -0.0772   -0.5680 H   0  0  0  0  0  0  0  0  0  0  0  0
   -4.3535   -1.1275    0.8421 H   0  0  0  0  0  0  0  0  0  0  0  0
  1  2  2  0  0  0  0
  1  6  1  0  0  0  0
  2  3  1  0  0  0  0
  3  4  2  0  0  0  0
  5  4  1  0  0  0  0
  5 10  1  0  0  0  0
  6  5  2  0  0  0  0
  7  1  1  0  0  0  0
  8  2  1  0  0  0  0
  9 13  1  0  0  0  0
 12 11  3  0  0  0  0
 14  6  1  0  0  0  0
 14 15  1  0  0  0  0
 15 18  1  0  0  0  0
 16 15  1  0  0  0  0
 17 15  1  0  0  0  0
M  RAD  2   3   2   4   2
M  END
