Coordinates from ORCA-job 4-MeO-Ph-N2-Cl-B3LYPG-6-31G_dp-MTMO-d009-169-n800
 OpenBabel09051908453D

 18 16  0  0  0  0  0  0  0  0999 V2000
   -0.8713    0.5071   -0.9912 C   0  0  0  0  0  0  0  0  0  0  0  0
    0.0220    1.4411   -0.4456 C   0  0  0  0  0  0  0  0  0  0  0  0
   -0.5056    1.8962    0.7423 C   0  0  0  0  0  0  0  0  0  0  0  0
   -1.5590    1.6470    1.3752 C   0  0  0  0  0  0  0  0  0  0  0  0
   -2.4885    0.7232    0.8797 C   0  0  0  0  0  0  0  0  0  0  0  0
   -2.0919    0.1531   -0.3534 C   0  0  0  0  0  0  0  0  0  0  0  0
   -0.6409    0.0258   -1.9363 H   0  0  0  0  0  0  0  0  0  0  0  0
    0.9552    1.7215   -0.9170 H   0  0  0  0  0  0  0  0  0  0  0  0
   -2.0683    2.4496    3.0456 H   0  0  0  0  0  0  0  0  0  0  0  0
   -3.4151    0.4639    1.3751 H   0  0  0  0  0  0  0  0  0  0  0  0
    5.7590   -6.6824   -6.3180 N   0  0  0  0  0  0  0  0  0  0  0  0
    6.2933   -7.6247   -6.5378 N   0  0  0  0  0  0  0  0  0  0  0  0
   -2.5927    2.8812    4.1783 Cl  0  0  0  0  0  0  0  0  0  0  0  0
   -2.8304   -0.7701   -1.0305 O   0  0  0  0  0  0  0  0  0  0  0  0
   -4.0652   -1.1917   -0.4669 C   0  0  0  0  0  0  0  0  0  0  0  0
   -4.4781   -1.9223   -1.1638 H   0  0  0  0  0  0  0  0  0  0  0  0
   -4.7664   -0.3543   -0.3613 H   0  0  0  0  0  0  0  0  0  0  0  0
   -3.9198   -1.6669    0.5116 H   0  0  0  0  0  0  0  0  0  0  0  0
  1  2  2  0  0  0  0
  1  6  1  0  0  0  0
  2  3  1  0  0  0  0
  3  4  2  0  0  0  0
  5 10  1  0  0  0  0
  5  4  1  0  0  0  0
  6  5  2  0  0  0  0
  7  1  1  0  0  0  0
  8  2  1  0  0  0  0
  9 13  1  0  0  0  0
 12 11  3  0  0  0  0
 14 15  1  0  0  0  0
 14  6  1  0  0  0  0
 15 17  1  0  0  0  0
 15 18  1  0  0  0  0
 16 15  1  0  0  0  0
M  RAD  2   3   2   4   2
M  END
