Coordinates from ORCA-job 4-MeO-Ph-N2-Cl-B3LYPG-6-31G_dp-MTMO-d009-169-n800
 OpenBabel09051908453D

 18 16  0  0  0  0  0  0  0  0999 V2000
   -0.8874    0.5233   -0.9658 C   0  0  0  0  0  0  0  0  0  0  0  0
    0.0030    1.4598   -0.4198 C   0  0  0  0  0  0  0  0  0  0  0  0
   -0.5306    1.9187    0.7637 C   0  0  0  0  0  0  0  0  0  0  0  0
   -1.5864    1.6725    1.3939 C   0  0  0  0  0  0  0  0  0  0  0  0
   -2.5128    0.7460    0.8969 C   0  0  0  0  0  0  0  0  0  0  0  0
   -2.1107    0.1713   -0.3321 C   0  0  0  0  0  0  0  0  0  0  0  0
   -0.6524    0.0384   -1.9081 H   0  0  0  0  0  0  0  0  0  0  0  0
    0.9382    1.7389   -0.8880 H   0  0  0  0  0  0  0  0  0  0  0  0
   -2.1004    2.4814    3.0577 H   0  0  0  0  0  0  0  0  0  0  0  0
   -3.4416    0.4880    1.3890 H   0  0  0  0  0  0  0  0  0  0  0  0
    5.9294   -6.8475   -6.4740 N   0  0  0  0  0  0  0  0  0  0  0  0
    6.4647   -7.7893   -6.6932 N   0  0  0  0  0  0  0  0  0  0  0  0
   -2.6289    2.9174    4.1872 Cl  0  0  0  0  0  0  0  0  0  0  0  0
   -2.8458   -0.7549   -1.0088 O   0  0  0  0  0  0  0  0  0  0  0  0
   -4.0829   -1.1748   -0.4491 C   0  0  0  0  0  0  0  0  0  0  0  0
   -4.4923   -1.9083   -1.1452 H   0  0  0  0  0  0  0  0  0  0  0  0
   -4.7849   -0.3373   -0.3499 H   0  0  0  0  0  0  0  0  0  0  0  0
   -3.9417   -1.6463    0.5317 H   0  0  0  0  0  0  0  0  0  0  0  0
  1  2  2  0  0  0  0
  1  6  1  0  0  0  0
  2  3  1  0  0  0  0
  3  4  2  0  0  0  0
  5 10  1  0  0  0  0
  5  4  1  0  0  0  0
  6  5  2  0  0  0  0
  7  1  1  0  0  0  0
  8  2  1  0  0  0  0
  9 13  1  0  0  0  0
 12 11  3  0  0  0  0
 14 15  1  0  0  0  0
 14  6  1  0  0  0  0
 15 17  1  0  0  0  0
 15 18  1  0  0  0  0
 16 15  1  0  0  0  0
M  RAD  2   3   2   4   2
M  END
