Coordinates from ORCA-job 4-MeO-Ph-N2-Cl-B3LYPG-6-31G_dp-MTMO-d009-169-n800
 OpenBabel09051908443D

 18 16  0  0  0  0  0  0  0  0999 V2000
   -0.7381   -0.9137   -0.9399 C   0  0  0  0  0  0  0  0  0  0  0  0
    0.4282   -0.1863   -0.6593 C   0  0  0  0  0  0  0  0  0  0  0  0
    0.0934    0.8545    0.1782 C   0  0  0  0  0  0  0  0  0  0  0  0
   -0.9817    1.2400    0.6957 C   0  0  0  0  0  0  0  0  0  0  0  0
   -2.1780    0.5531    0.4517 C   0  0  0  0  0  0  0  0  0  0  0  0
   -2.0071   -0.5604   -0.4047 C   0  0  0  0  0  0  0  0  0  0  0  0
   -0.6909   -1.7845   -1.5866 H   0  0  0  0  0  0  0  0  0  0  0  0
    1.4015   -0.4418   -1.0587 H   0  0  0  0  0  0  0  0  0  0  0  0
   -1.1728    2.7524    1.8627 H   0  0  0  0  0  0  0  0  0  0  0  0
   -3.1377    0.8326    0.8670 H   0  0  0  0  0  0  0  0  0  0  0  0
    3.9886   -3.1202   -4.0474 N   0  0  0  0  0  0  0  0  0  0  0  0
    4.6327   -3.6221   -4.7923 N   0  0  0  0  0  0  0  0  0  0  0  0
   -1.5099    3.7394    2.6732 Cl  0  0  0  0  0  0  0  0  0  0  0  0
   -3.0249   -1.3814   -0.7876 O   0  0  0  0  0  0  0  0  0  0  0  0
   -4.3321   -1.1067   -0.3025 C   0  0  0  0  0  0  0  0  0  0  0  0
   -4.9776   -1.8744   -0.7304 H   0  0  0  0  0  0  0  0  0  0  0  0
   -4.6818   -0.1183   -0.6257 H   0  0  0  0  0  0  0  0  0  0  0  0
   -4.3754   -1.1649    0.7925 H   0  0  0  0  0  0  0  0  0  0  0  0
  1  2  2  0  0  0  0
  1  6  1  0  0  0  0
  2  3  1  0  0  0  0
  3  4  2  0  0  0  0
  5  4  1  0  0  0  0
  5 10  1  0  0  0  0
  6  5  2  0  0  0  0
  7  1  1  0  0  0  0
  8  2  1  0  0  0  0
  9 13  1  0  0  0  0
 12 11  3  0  0  0  0
 14  6  1  0  0  0  0
 14 15  1  0  0  0  0
 15 18  1  0  0  0  0
 16 15  1  0  0  0  0
 17 15  1  0  0  0  0
M  RAD  2   3   2   4   2
M  END
