Coordinates from ORCA-job 4-MeO-Ph-N2-Cl-B3LYPG-6-31G_dp-MTMO-d009-169-n800
 OpenBabel09051908443D

 18 16  0  0  0  0  0  0  0  0999 V2000
   -1.4103   -1.7923   -1.5182 C   0  0  0  0  0  0  0  0  0  0  0  0
   -0.0442   -1.5434   -1.7148 C   0  0  0  0  0  0  0  0  0  0  0  0
    0.2894   -0.4314   -0.9836 C   0  0  0  0  0  0  0  0  0  0  0  0
   -0.3189    0.3680   -0.2235 C   0  0  0  0  0  0  0  0  0  0  0  0
   -1.6910    0.1498   -0.0040 C   0  0  0  0  0  0  0  0  0  0  0  0
   -2.2181   -0.9708   -0.6855 C   0  0  0  0  0  0  0  0  0  0  0  0
   -1.8848   -2.6360   -2.0092 H   0  0  0  0  0  0  0  0  0  0  0  0
    0.5986   -2.1485   -2.3413 H   0  0  0  0  0  0  0  0  0  0  0  0
    0.3884    1.7821    0.6485 H   0  0  0  0  0  0  0  0  0  0  0  0
   -2.2987    0.7841    0.6298 H   0  0  0  0  0  0  0  0  0  0  0  0
    2.7964   -0.0773   -1.3759 N   0  0  0  0  0  0  0  0  0  0  0  0
    3.5990    0.5928   -1.0163 N   0  0  0  0  0  0  0  0  0  0  0  0
    0.8050    2.8483    1.3439 Cl  0  0  0  0  0  0  0  0  0  0  0  0
   -3.5209   -1.3604   -0.6098 O   0  0  0  0  0  0  0  0  0  0  0  0
   -4.4045   -0.6039    0.2067 C   0  0  0  0  0  0  0  0  0  0  0  0
   -5.3769   -1.0914    0.1270 H   0  0  0  0  0  0  0  0  0  0  0  0
   -4.4891    0.4323   -0.1440 H   0  0  0  0  0  0  0  0  0  0  0  0
   -4.0829   -0.6046    1.2560 H   0  0  0  0  0  0  0  0  0  0  0  0
  1  6  1  0  0  0  0
  2  1  2  0  0  0  0
  2  3  1  0  0  0  0
  3  4  2  0  0  0  0
  4  5  1  0  0  0  0
  5 10  1  0  0  0  0
  6 14  1  0  0  0  0
  6  5  2  0  0  0  0
  7  1  1  0  0  0  0
  8  2  1  0  0  0  0
  9 13  1  0  0  0  0
 11 12  3  0  0  0  0
 14 15  1  0  0  0  0
 15 18  1  0  0  0  0
 16 15  1  0  0  0  0
 17 15  1  0  0  0  0
M  RAD  2   3   2   4   2
M  END
