Coordinates from ORCA-job 4-MeO-Ph-N2-Cl-B3LYPG-6-31G_dp-MTMO-d009-169-n800
 OpenBabel09051908443D

 18 16  0  0  0  0  0  0  0  0999 V2000
   -1.4117   -1.7906   -1.5167 C   0  0  0  0  0  0  0  0  0  0  0  0
   -0.0457   -1.5406   -1.7130 C   0  0  0  0  0  0  0  0  0  0  0  0
    0.2873   -0.4282   -0.9816 C   0  0  0  0  0  0  0  0  0  0  0  0
   -0.3238    0.3688   -0.2224 C   0  0  0  0  0  0  0  0  0  0  0  0
   -1.6955    0.1511   -0.0021 C   0  0  0  0  0  0  0  0  0  0  0  0
   -2.2208   -0.9701   -0.6842 C   0  0  0  0  0  0  0  0  0  0  0  0
   -1.8853   -2.6348   -2.0079 H   0  0  0  0  0  0  0  0  0  0  0  0
    0.5973   -2.1455   -2.3394 H   0  0  0  0  0  0  0  0  0  0  0  0
    0.3775    1.7949    0.6605 H   0  0  0  0  0  0  0  0  0  0  0  0
   -2.3040    0.7848    0.6315 H   0  0  0  0  0  0  0  0  0  0  0  0
    2.8339   -0.0902   -1.3957 N   0  0  0  0  0  0  0  0  0  0  0  0
    3.6459    0.5712   -1.0414 N   0  0  0  0  0  0  0  0  0  0  0  0
    0.7736    2.8622    1.3616 Cl  0  0  0  0  0  0  0  0  0  0  0  0
   -3.5233   -1.3610   -0.6091 O   0  0  0  0  0  0  0  0  0  0  0  0
   -4.4082   -0.6055    0.2069 C   0  0  0  0  0  0  0  0  0  0  0  0
   -5.3800   -1.0941    0.1266 H   0  0  0  0  0  0  0  0  0  0  0  0
   -4.4937    0.4306   -0.1439 H   0  0  0  0  0  0  0  0  0  0  0  0
   -4.0872   -0.6060    1.2563 H   0  0  0  0  0  0  0  0  0  0  0  0
  1  6  1  0  0  0  0
  2  1  2  0  0  0  0
  2  3  1  0  0  0  0
  3  4  2  0  0  0  0
  4  5  1  0  0  0  0
  5 10  1  0  0  0  0
  6 14  1  0  0  0  0
  6  5  2  0  0  0  0
  7  1  1  0  0  0  0
  8  2  1  0  0  0  0
  9 13  1  0  0  0  0
 11 12  3  0  0  0  0
 14 15  1  0  0  0  0
 15 18  1  0  0  0  0
 16 15  1  0  0  0  0
 17 15  1  0  0  0  0
M  RAD  2   3   2   4   2
M  END
