Coordinates from ORCA-job 4-MeO-Ph-N2-Cl-B3LYPG-6-31G_dp-MTMO-d009-169-n800
 OpenBabel09051908453D

 18 16  0  0  0  0  0  0  0  0999 V2000
   -1.0913    0.7169   -0.8247 C   0  0  0  0  0  0  0  0  0  0  0  0
   -0.1979    1.6506   -0.2788 C   0  0  0  0  0  0  0  0  0  0  0  0
   -0.7206    2.0981    0.9141 C   0  0  0  0  0  0  0  0  0  0  0  0
   -1.7702    1.8426    1.5507 C   0  0  0  0  0  0  0  0  0  0  0  0
   -2.6997    0.9189    1.0553 C   0  0  0  0  0  0  0  0  0  0  0  0
   -2.3077    0.3562   -0.1827 C   0  0  0  0  0  0  0  0  0  0  0  0
   -0.8643    0.2410   -1.7735 H   0  0  0  0  0  0  0  0  0  0  0  0
    0.7323    1.9360   -0.7534 H   0  0  0  0  0  0  0  0  0  0  0  0
   -2.2727    2.6359    3.2285 H   0  0  0  0  0  0  0  0  0  0  0  0
   -3.6230    0.6543    1.5540 H   0  0  0  0  0  0  0  0  0  0  0  0
    7.4679   -8.2779   -7.7029 N   0  0  0  0  0  0  0  0  0  0  0  0
    8.0003   -9.2209   -7.9238 N   0  0  0  0  0  0  0  0  0  0  0  0
   -2.7934    3.0595    4.3658 Cl  0  0  0  0  0  0  0  0  0  0  0  0
   -3.0470   -0.5656   -0.8608 O   0  0  0  0  0  0  0  0  0  0  0  0
   -4.2776   -0.9938   -0.2930 C   0  0  0  0  0  0  0  0  0  0  0  0
   -4.6919   -1.7220   -0.9916 H   0  0  0  0  0  0  0  0  0  0  0  0
   -4.9807   -0.1590   -0.1795 H   0  0  0  0  0  0  0  0  0  0  0  0
   -4.1258   -1.4736    0.6822 H   0  0  0  0  0  0  0  0  0  0  0  0
  1  2  2  0  0  0  0
  1  6  1  0  0  0  0
  2  3  1  0  0  0  0
  3  4  2  0  0  0  0
  5  4  1  0  0  0  0
  5 10  1  0  0  0  0
  6  5  2  0  0  0  0
  7  1  1  0  0  0  0
  8  2  1  0  0  0  0
  9 13  1  0  0  0  0
 12 11  3  0  0  0  0
 14 15  1  0  0  0  0
 14  6  1  0  0  0  0
 15 17  1  0  0  0  0
 15 18  1  0  0  0  0
 16 15  1  0  0  0  0
M  RAD  2   3   2   4   2
M  END
