Coordinates from ORCA-job 4-MeO-Ph-N2-Cl-B3LYPG-6-31G_dp-MTMO-d009-169-n800
 OpenBabel09051908443D

 18 16  0  0  0  0  0  0  0  0999 V2000
   -1.4371   -1.7659   -1.4945 C   0  0  0  0  0  0  0  0  0  0  0  0
   -0.0735   -1.4945   -1.6812 C   0  0  0  0  0  0  0  0  0  0  0  0
    0.2408   -0.3757   -0.9461 C   0  0  0  0  0  0  0  0  0  0  0  0
   -0.4050    0.3952   -0.1951 C   0  0  0  0  0  0  0  0  0  0  0  0
   -1.7722    0.1681    0.0238 C   0  0  0  0  0  0  0  0  0  0  0  0
   -2.2686   -0.9622   -0.6671 C   0  0  0  0  0  0  0  0  0  0  0  0
   -1.8931   -2.6169   -1.9906 H   0  0  0  0  0  0  0  0  0  0  0  0
    0.5797   -2.0911   -2.3052 H   0  0  0  0  0  0  0  0  0  0  0  0
    0.2893    1.8825    0.7386 H   0  0  0  0  0  0  0  0  0  0  0  0
   -2.3957    0.7896    0.6543 H   0  0  0  0  0  0  0  0  0  0  0  0
    3.2945   -0.1899   -1.5722 N   0  0  0  0  0  0  0  0  0  0  0  0
    4.1705    0.4117   -1.2684 N   0  0  0  0  0  0  0  0  0  0  0  0
    0.6047    2.9481    1.4608 Cl  0  0  0  0  0  0  0  0  0  0  0  0
   -3.5647   -1.3769   -0.6043 O   0  0  0  0  0  0  0  0  0  0  0  0
   -4.4703   -0.6394    0.2050 C   0  0  0  0  0  0  0  0  0  0  0  0
   -5.4324   -1.1453    0.1153 H   0  0  0  0  0  0  0  0  0  0  0  0
   -4.5718    0.3958   -0.1446 H   0  0  0  0  0  0  0  0  0  0  0  0
   -4.1588   -0.6360    1.2573 H   0  0  0  0  0  0  0  0  0  0  0  0
  1  6  1  0  0  0  0
  2  1  2  0  0  0  0
  2  3  1  0  0  0  0
  3  4  2  0  0  0  0
  4  5  1  0  0  0  0
  5 10  1  0  0  0  0
  6 14  1  0  0  0  0
  6  5  2  0  0  0  0
  7  1  1  0  0  0  0
  8  2  1  0  0  0  0
  9 13  1  0  0  0  0
 11 12  3  0  0  0  0
 14 15  1  0  0  0  0
 15 18  1  0  0  0  0
 16 15  1  0  0  0  0
 17 15  1  0  0  0  0
M  RAD  2   3   2   4   2
M  END
