Coordinates from ORCA-job 4-MeO-Ph-N2-Cl-B3LYPG-6-31G_dp-MTMO-d009-169-n800
 OpenBabel09051908443D

 18 16  0  0  0  0  0  0  0  0999 V2000
   -1.0229   -1.3560   -1.2173 C   0  0  0  0  0  0  0  0  0  0  0  0
    0.2724   -0.8202   -1.1489 C   0  0  0  0  0  0  0  0  0  0  0  0
    0.2262    0.2951   -0.3436 C   0  0  0  0  0  0  0  0  0  0  0  0
   -0.6828    0.8793    0.2940 C   0  0  0  0  0  0  0  0  0  0  0  0
   -1.9950    0.3866    0.2588 C   0  0  0  0  0  0  0  0  0  0  0  0
   -2.1283   -0.7756   -0.5374 C   0  0  0  0  0  0  0  0  0  0  0  0
   -1.2084   -2.2486   -1.8068 H   0  0  0  0  0  0  0  0  0  0  0  0
    1.1262   -1.2448   -1.6606 H   0  0  0  0  0  0  0  0  0  0  0  0
   -0.4698    2.4235    1.3852 H   0  0  0  0  0  0  0  0  0  0  0  0
   -2.8283    0.8382    0.7813 H   0  0  0  0  0  0  0  0  0  0  0  0
    3.5414   -1.6656   -2.7931 N   0  0  0  0  0  0  0  0  0  0  0  0
    4.5618   -1.7195   -3.2136 N   0  0  0  0  0  0  0  0  0  0  0  0
   -0.5249    3.4778    2.1830 Cl  0  0  0  0  0  0  0  0  0  0  0  0
   -3.3077   -1.4332   -0.7219 O   0  0  0  0  0  0  0  0  0  0  0  0
   -4.4711   -0.9222   -0.0853 C   0  0  0  0  0  0  0  0  0  0  0  0
   -5.2858   -1.5884   -0.3715 H   0  0  0  0  0  0  0  0  0  0  0  0
   -4.7005    0.0960   -0.4236 H   0  0  0  0  0  0  0  0  0  0  0  0
   -4.3661   -0.9250    1.0071 H   0  0  0  0  0  0  0  0  0  0  0  0
  1  2  2  0  0  0  0
  1  6  1  0  0  0  0
  2  3  1  0  0  0  0
  3  4  2  0  0  0  0
  5  4  1  0  0  0  0
  5 10  1  0  0  0  0
  6  5  2  0  0  0  0
  7  1  1  0  0  0  0
  8  2  1  0  0  0  0
  9 13  1  0  0  0  0
 12 11  3  0  0  0  0
 14  6  1  0  0  0  0
 14 15  1  0  0  0  0
 15 18  1  0  0  0  0
 16 15  1  0  0  0  0
 17 15  1  0  0  0  0
M  RAD  2   3   2   4   2
M  END
