Coordinates from ORCA-job 4-MeO-Ph-N2-Cl-B3LYPG-6-31G_dp-MTMO-d009-169-n800
 OpenBabel09051908443D

 18 16  0  0  0  0  0  0  0  0999 V2000
   -0.8853   -1.2217   -1.0322 C   0  0  0  0  0  0  0  0  0  0  0  0
    0.3669   -0.6144   -0.8527 C   0  0  0  0  0  0  0  0  0  0  0  0
    0.1905    0.4984   -0.0608 C   0  0  0  0  0  0  0  0  0  0  0  0
   -0.8044    1.0295    0.4881 C   0  0  0  0  0  0  0  0  0  0  0  0
   -2.0792    0.4660    0.3416 C   0  0  0  0  0  0  0  0  0  0  0  0
   -2.0769   -0.7027   -0.4562 C   0  0  0  0  0  0  0  0  0  0  0  0
   -0.9681   -2.1246   -1.6292 H   0  0  0  0  0  0  0  0  0  0  0  0
    1.2829   -0.9964   -1.2857 H   0  0  0  0  0  0  0  0  0  0  0  0
   -0.7715    2.5959    1.5825 H   0  0  0  0  0  0  0  0  0  0  0  0
   -2.9790    0.8713    0.7857 H   0  0  0  0  0  0  0  0  0  0  0  0
    3.7638   -2.1908   -3.4077 N   0  0  0  0  0  0  0  0  0  0  0  0
    4.5963   -2.5038   -4.0637 N   0  0  0  0  0  0  0  0  0  0  0  0
   -0.9556    3.6487    2.3606 Cl  0  0  0  0  0  0  0  0  0  0  0  0
   -3.1972   -1.4248   -0.7400 O   0  0  0  0  0  0  0  0  0  0  0  0
   -4.4382   -0.9819   -0.2072 C   0  0  0  0  0  0  0  0  0  0  0  0
   -5.1861   -1.6930   -0.5601 H   0  0  0  0  0  0  0  0  0  0  0  0
   -4.6954    0.0220   -0.5672 H   0  0  0  0  0  0  0  0  0  0  0  0
   -4.4273   -0.9806    0.8901 H   0  0  0  0  0  0  0  0  0  0  0  0
  1  2  2  0  0  0  0
  1  6  1  0  0  0  0
  2  3  1  0  0  0  0
  3  4  2  0  0  0  0
  5  4  1  0  0  0  0
  5 10  1  0  0  0  0
  6  5  2  0  0  0  0
  7  1  1  0  0  0  0
  8  2  1  0  0  0  0
  9 13  1  0  0  0  0
 12 11  3  0  0  0  0
 14  6  1  0  0  0  0
 14 15  1  0  0  0  0
 15 18  1  0  0  0  0
 16 15  1  0  0  0  0
 17 15  1  0  0  0  0
M  RAD  2   3   2   4   2
M  END
