Coordinates from ORCA-job 4-MeO-Ph-N2-Cl-B3LYPG-6-31G_dp-MTMO-d009-169-n800
 OpenBabel09051908453D

 18 16  0  0  0  0  0  0  0  0999 V2000
   -0.7230    0.3482   -1.0974 C   0  0  0  0  0  0  0  0  0  0  0  0
    0.1752    1.2794   -0.5550 C   0  0  0  0  0  0  0  0  0  0  0  0
   -0.3556    1.7501    0.6254 C   0  0  0  0  0  0  0  0  0  0  0  0
   -1.4150    1.5156    1.2539 C   0  0  0  0  0  0  0  0  0  0  0  0
   -2.3496    0.5957    0.7613 C   0  0  0  0  0  0  0  0  0  0  0  0
   -1.9505    0.0108   -0.4641 C   0  0  0  0  0  0  0  0  0  0  0  0
   -0.4910   -0.1438   -2.0367 H   0  0  0  0  0  0  0  0  0  0  0  0
    1.1137    1.5474   -1.0231 H   0  0  0  0  0  0  0  0  0  0  0  0
   -1.9245    2.3367    2.9160 H   0  0  0  0  0  0  0  0  0  0  0  0
   -3.2814    0.3489    1.2534 H   0  0  0  0  0  0  0  0  0  0  0  0
    4.6344   -5.5961   -5.4007 N   0  0  0  0  0  0  0  0  0  0  0  0
    5.1632   -6.5405   -5.6248 N   0  0  0  0  0  0  0  0  0  0  0  0
   -2.4511    2.7813    4.0425 Cl  0  0  0  0  0  0  0  0  0  0  0  0
   -2.6929   -0.9122   -1.1372 O   0  0  0  0  0  0  0  0  0  0  0  0
   -3.9352   -1.3171   -0.5779 C   0  0  0  0  0  0  0  0  0  0  0  0
   -4.3504   -2.0502   -1.2708 H   0  0  0  0  0  0  0  0  0  0  0  0
   -4.6291   -0.4722   -0.4845 H   0  0  0  0  0  0  0  0  0  0  0  0
   -3.8006   -1.7847    0.4058 H   0  0  0  0  0  0  0  0  0  0  0  0
  1  2  2  0  0  0  0
  1  6  1  0  0  0  0
  2  3  1  0  0  0  0
  3  4  2  0  0  0  0
  5 10  1  0  0  0  0
  5  4  1  0  0  0  0
  6  5  2  0  0  0  0
  7  1  1  0  0  0  0
  8  2  1  0  0  0  0
  9 13  1  0  0  0  0
 12 11  3  0  0  0  0
 14 15  1  0  0  0  0
 14  6  1  0  0  0  0
 15 17  1  0  0  0  0
 15 18  1  0  0  0  0
 16 15  1  0  0  0  0
M  RAD  2   3   2   4   2
M  END
