Coordinates from ORCA-job 4-MeO-Ph-N2-Cl-B3LYPG-6-31G_dp-MTMO-d009-169-n800
 OpenBabel09051908443D

 18 17  0  0  0  0  0  0  0  0999 V2000
   -1.2752   -1.7013   -1.4809 C   0  0  0  0  0  0  0  0  0  0  0  0
    0.0422   -1.3526   -1.5831 C   0  0  0  0  0  0  0  0  0  0  0  0
    0.6206   -0.1953   -0.8806 C   0  0  0  0  0  0  0  0  0  0  0  0
   -0.3558    0.5525   -0.0622 C   0  0  0  0  0  0  0  0  0  0  0  0
   -1.6788    0.1892    0.0272 C   0  0  0  0  0  0  0  0  0  0  0  0
   -2.1552   -0.9377   -0.6750 C   0  0  0  0  0  0  0  0  0  0  0  0
   -1.6782   -2.5612   -2.0055 H   0  0  0  0  0  0  0  0  0  0  0  0
    0.7235   -1.9345   -2.1986 H   0  0  0  0  0  0  0  0  0  0  0  0
    0.0401    1.4156    0.4678 H   0  0  0  0  0  0  0  0  0  0  0  0
   -2.3478    0.7800    0.6420 H   0  0  0  0  0  0  0  0  0  0  0  0
    1.5845    0.0630   -0.9479 N   0  0  0  0  0  0  0  0  0  0  0  0
    2.6304    0.5959   -0.8268 N   0  0  0  0  0  0  0  0  0  0  0  0
    2.3476    2.3628    0.6117 Cl  0  0  0  0  0  0  0  0  0  0  0  0
   -3.4212   -1.3693   -0.6471 O   0  0  0  0  0  0  0  0  0  0  0  0
   -4.3911   -0.6723    0.1427 C   0  0  0  0  0  0  0  0  0  0  0  0
   -5.3243   -1.2175    0.0059 H   0  0  0  0  0  0  0  0  0  0  0  0
   -4.5128    0.3586   -0.2052 H   0  0  0  0  0  0  0  0  0  0  0  0
   -4.1120   -0.6783    1.2016 H   0  0  0  0  0  0  0  0  0  0  0  0
  1  6  1  0  0  0  0
  2  1  2  0  0  0  0
  2  3  1  0  0  0  0
  3  4  2  0  0  0  0
  4  5  1  0  0  0  0
  4  9  1  0  0  0  0
  5 10  1  0  0  0  0
  6 14  1  0  0  0  0
  6  5  2  0  0  0  0
  7  1  1  0  0  0  0
  8  2  1  0  0  0  0
 11  3  1  0  0  0  0
 11 12  1  0  0  0  0
 14 15  1  0  0  0  0
 15 18  1  0  0  0  0
 16 15  1  0  0  0  0
 17 15  1  0  0  0  0
M  RAD  3  11   2  12   3  13   2
M  END
