Coordinates from ORCA-job 4-MeO-Ph-N2-Cl-B3LYPG-6-31G_dp-MTMO-d009-169-n800
 OpenBabel09051908453D

 18 16  0  0  0  0  0  0  0  0999 V2000
   -0.9179    0.5538   -0.9324 C   0  0  0  0  0  0  0  0  0  0  0  0
   -0.0298    1.4926   -0.3864 C   0  0  0  0  0  0  0  0  0  0  0  0
   -0.5668    1.9549    0.7945 C   0  0  0  0  0  0  0  0  0  0  0  0
   -1.6247    1.7082    1.4209 C   0  0  0  0  0  0  0  0  0  0  0  0
   -2.5493    0.7801    0.9248 C   0  0  0  0  0  0  0  0  0  0  0  0
   -2.1427    0.2024   -0.3015 C   0  0  0  0  0  0  0  0  0  0  0  0
   -0.6797    0.0665   -1.8726 H   0  0  0  0  0  0  0  0  0  0  0  0
    0.9066    1.7712   -0.8526 H   0  0  0  0  0  0  0  0  0  0  0  0
   -2.1449    2.5215    3.0841 H   0  0  0  0  0  0  0  0  0  0  0  0
   -3.4792    0.5227    1.4149 H   0  0  0  0  0  0  0  0  0  0  0  0
    6.2041   -7.1089   -6.7092 N   0  0  0  0  0  0  0  0  0  0  0  0
    6.7382   -8.0511   -6.9298 N   0  0  0  0  0  0  0  0  0  0  0  0
   -2.6774    2.9588    4.2106 Cl  0  0  0  0  0  0  0  0  0  0  0  0
   -2.8749   -0.7263   -0.9780 O   0  0  0  0  0  0  0  0  0  0  0  0
   -4.1135   -1.1456   -0.4209 C   0  0  0  0  0  0  0  0  0  0  0  0
   -4.5203   -1.8812   -1.1162 H   0  0  0  0  0  0  0  0  0  0  0  0
   -4.8164   -0.3083   -0.3262 H   0  0  0  0  0  0  0  0  0  0  0  0
   -3.9750   -1.6142    0.5617 H   0  0  0  0  0  0  0  0  0  0  0  0
  1  2  2  0  0  0  0
  1  6  1  0  0  0  0
  2  3  1  0  0  0  0
  3  4  2  0  0  0  0
  5 10  1  0  0  0  0
  5  4  1  0  0  0  0
  6  5  2  0  0  0  0
  7  1  1  0  0  0  0
  8  2  1  0  0  0  0
  9 13  1  0  0  0  0
 12 11  3  0  0  0  0
 14 15  1  0  0  0  0
 14  6  1  0  0  0  0
 15 17  1  0  0  0  0
 15 18  1  0  0  0  0
 16 15  1  0  0  0  0
M  RAD  2   3   2   4   2
M  END
