Coordinates from ORCA-job 4-MeO-Ph-N2-Cl-B3LYPG-6-31G_dp-MTMO-d009-169-n800
 OpenBabel09051908443D

 18 16  0  0  0  0  0  0  0  0999 V2000
   -0.7196   -0.8705   -0.9029 C   0  0  0  0  0  0  0  0  0  0  0  0
    0.4319   -0.1275   -0.6027 C   0  0  0  0  0  0  0  0  0  0  0  0
    0.0704    0.9053    0.2338 C   0  0  0  0  0  0  0  0  0  0  0  0
   -1.0178    1.2729    0.7369 C   0  0  0  0  0  0  0  0  0  0  0  0
   -2.2005    0.5699    0.4733 C   0  0  0  0  0  0  0  0  0  0  0  0
   -2.0012   -0.5377   -0.3848 C   0  0  0  0  0  0  0  0  0  0  0  0
   -0.6505   -1.7379   -1.5521 H   0  0  0  0  0  0  0  0  0  0  0  0
    1.4144   -0.3673   -0.9890 H   0  0  0  0  0  0  0  0  0  0  0  0
   -1.2495    2.7807    1.9035 H   0  0  0  0  0  0  0  0  0  0  0  0
   -3.1699    0.8339    0.8759 H   0  0  0  0  0  0  0  0  0  0  0  0
    4.0733   -3.2940   -4.2102 N   0  0  0  0  0  0  0  0  0  0  0  0
    4.6949   -3.7995   -4.9715 N   0  0  0  0  0  0  0  0  0  0  0  0
   -1.6145    3.7613    2.7095 Cl  0  0  0  0  0  0  0  0  0  0  0  0
   -3.0013   -1.3717   -0.7852 O   0  0  0  0  0  0  0  0  0  0  0  0
   -4.3195   -1.1168   -0.3193 C   0  0  0  0  0  0  0  0  0  0  0  0
   -4.9477   -1.8920   -0.7593 H   0  0  0  0  0  0  0  0  0  0  0  0
   -4.6779   -0.1323   -0.6447 H   0  0  0  0  0  0  0  0  0  0  0  0
   -4.3787   -1.1794    0.7747 H   0  0  0  0  0  0  0  0  0  0  0  0
  1  2  2  0  0  0  0
  1  6  1  0  0  0  0
  2  3  1  0  0  0  0
  3  4  2  0  0  0  0
  5  4  1  0  0  0  0
  5 10  1  0  0  0  0
  6  5  2  0  0  0  0
  7  1  1  0  0  0  0
  8  2  1  0  0  0  0
  9 13  1  0  0  0  0
 12 11  3  0  0  0  0
 14  6  1  0  0  0  0
 14 15  1  0  0  0  0
 15 18  1  0  0  0  0
 16 15  1  0  0  0  0
 17 15  1  0  0  0  0
M  RAD  2   3   2   4   2
M  END
