Coordinates from ORCA-job 4-MeO-Ph-N2-Cl-B3LYPG-6-31G_dp-MTMO-d009-169-n800
 OpenBabel09051908453D

 18 16  0  0  0  0  0  0  0  0999 V2000
   -0.7981    0.4295   -1.0708 C   0  0  0  0  0  0  0  0  0  0  0  0
    0.1023    1.3577   -0.5267 C   0  0  0  0  0  0  0  0  0  0  0  0
   -0.4157    1.8088    0.6669 C   0  0  0  0  0  0  0  0  0  0  0  0
   -1.4658    1.5605    1.3057 C   0  0  0  0  0  0  0  0  0  0  0  0
   -2.4018    0.6424    0.8119 C   0  0  0  0  0  0  0  0  0  0  0  0
   -2.0156    0.0769   -0.4266 C   0  0  0  0  0  0  0  0  0  0  0  0
   -0.5757   -0.0481   -2.0198 H   0  0  0  0  0  0  0  0  0  0  0  0
    1.0334    1.6370   -1.0030 H   0  0  0  0  0  0  0  0  0  0  0  0
   -1.9617    2.3568    2.9828 H   0  0  0  0  0  0  0  0  0  0  0  0
   -3.3260    0.3841    1.3123 H   0  0  0  0  0  0  0  0  0  0  0  0
    5.1079   -6.0506   -5.7517 N   0  0  0  0  0  0  0  0  0  0  0  0
    5.6400   -6.9943   -5.9708 N   0  0  0  0  0  0  0  0  0  0  0  0
   -2.4787    2.7838    4.1206 Cl  0  0  0  0  0  0  0  0  0  0  0  0
   -2.7621   -0.8403   -1.1031 O   0  0  0  0  0  0  0  0  0  0  0  0
   -3.9946   -1.2600   -0.5333 C   0  0  0  0  0  0  0  0  0  0  0  0
   -4.4149   -1.9856   -1.2311 H   0  0  0  0  0  0  0  0  0  0  0  0
   -4.6919   -0.4205   -0.4190 H   0  0  0  0  0  0  0  0  0  0  0  0
   -3.8445   -1.7406    0.4418 H   0  0  0  0  0  0  0  0  0  0  0  0
  1  2  2  0  0  0  0
  1  6  1  0  0  0  0
  2  3  1  0  0  0  0
  3  4  2  0  0  0  0
  5  4  1  0  0  0  0
  5 10  1  0  0  0  0
  6  5  2  0  0  0  0
  7  1  1  0  0  0  0
  8  2  1  0  0  0  0
  9 13  1  0  0  0  0
 12 11  3  0  0  0  0
 14 15  1  0  0  0  0
 14  6  1  0  0  0  0
 15 17  1  0  0  0  0
 15 18  1  0  0  0  0
 16 15  1  0  0  0  0
M  RAD  2   3   2   4   2
M  END
