Coordinates from ORCA-job 4-MeO-Ph-N2-Cl-B3LYPG-6-31G_dp-MTMO-d009-169-n800
 OpenBabel09051908453D

 18 16  0  0  0  0  0  0  0  0999 V2000
   -1.0748    0.7026   -0.8313 C   0  0  0  0  0  0  0  0  0  0  0  0
   -0.1831    1.6380   -0.2852 C   0  0  0  0  0  0  0  0  0  0  0  0
   -0.7091    2.0879    0.9053 C   0  0  0  0  0  0  0  0  0  0  0  0
   -1.7602    1.8332    1.5397 C   0  0  0  0  0  0  0  0  0  0  0  0
   -2.6881    0.9080    1.0441 C   0  0  0  0  0  0  0  0  0  0  0  0
   -2.2926    0.3428   -0.1917 C   0  0  0  0  0  0  0  0  0  0  0  0
   -0.8451    0.2248   -1.7785 H   0  0  0  0  0  0  0  0  0  0  0  0
    0.7481    1.9228   -0.7580 H   0  0  0  0  0  0  0  0  0  0  0  0
   -2.2666    2.6300    3.2152 H   0  0  0  0  0  0  0  0  0  0  0  0
   -3.6126    0.6441    1.5410 H   0  0  0  0  0  0  0  0  0  0  0  0
    7.3609   -8.1815   -7.6225 N   0  0  0  0  0  0  0  0  0  0  0  0
    7.8925   -9.1247   -7.8446 N   0  0  0  0  0  0  0  0  0  0  0  0
   -2.7900    3.0556    4.3505 Cl  0  0  0  0  0  0  0  0  0  0  0  0
   -3.0298   -0.5808   -0.8697 O   0  0  0  0  0  0  0  0  0  0  0  0
   -4.2617   -1.0082   -0.3042 C   0  0  0  0  0  0  0  0  0  0  0  0
   -4.6739   -1.7381   -1.0023 H   0  0  0  0  0  0  0  0  0  0  0  0
   -4.9654   -0.1734   -0.1944 H   0  0  0  0  0  0  0  0  0  0  0  0
   -4.1122   -1.4858    0.6724 H   0  0  0  0  0  0  0  0  0  0  0  0
  1  2  2  0  0  0  0
  1  6  1  0  0  0  0
  2  3  1  0  0  0  0
  3  4  2  0  0  0  0
  5  4  1  0  0  0  0
  5 10  1  0  0  0  0
  6  5  2  0  0  0  0
  7  1  1  0  0  0  0
  8  2  1  0  0  0  0
  9 13  1  0  0  0  0
 12 11  3  0  0  0  0
 14 15  1  0  0  0  0
 14  6  1  0  0  0  0
 15 17  1  0  0  0  0
 15 18  1  0  0  0  0
 16 15  1  0  0  0  0
M  RAD  2   3   2   4   2
M  END
