Coordinates from ORCA-job 4-MeO-Ph-N2-Cl-B3LYPG-6-31G_dp-MTMO-d009-169-n800
 OpenBabel09051908453D

 18 16  0  0  0  0  0  0  0  0999 V2000
   -0.7996    0.4370   -1.0393 C   0  0  0  0  0  0  0  0  0  0  0  0
    0.0929    1.3719   -0.4941 C   0  0  0  0  0  0  0  0  0  0  0  0
   -0.4391    1.8324    0.6897 C   0  0  0  0  0  0  0  0  0  0  0  0
   -1.4952    1.5881    1.3201 C   0  0  0  0  0  0  0  0  0  0  0  0
   -2.4238    0.6634    0.8241 C   0  0  0  0  0  0  0  0  0  0  0  0
   -2.0233    0.0876   -0.4050 C   0  0  0  0  0  0  0  0  0  0  0  0
   -0.5662   -0.0486   -1.9816 H   0  0  0  0  0  0  0  0  0  0  0  0
    1.0285    1.6492   -0.9626 H   0  0  0  0  0  0  0  0  0  0  0  0
   -2.0064    2.3983    2.9854 H   0  0  0  0  0  0  0  0  0  0  0  0
   -3.3528    0.4072    1.3166 H   0  0  0  0  0  0  0  0  0  0  0  0
    5.2236   -6.1803   -5.8901 N   0  0  0  0  0  0  0  0  0  0  0  0
    5.7563   -7.1229   -6.1121 N   0  0  0  0  0  0  0  0  0  0  0  0
   -2.5337    2.8348    4.1150 Cl  0  0  0  0  0  0  0  0  0  0  0  0
   -2.7606   -0.8373   -1.0811 O   0  0  0  0  0  0  0  0  0  0  0  0
   -3.9983   -1.2546   -0.5209 C   0  0  0  0  0  0  0  0  0  0  0  0
   -4.4096   -1.9872   -1.2166 H   0  0  0  0  0  0  0  0  0  0  0  0
   -4.6985   -0.4155   -0.4216 H   0  0  0  0  0  0  0  0  0  0  0  0
   -3.8578   -1.7261    0.4600 H   0  0  0  0  0  0  0  0  0  0  0  0
  1  2  2  0  0  0  0
  1  6  1  0  0  0  0
  2  3  1  0  0  0  0
  3  4  2  0  0  0  0
  5 10  1  0  0  0  0
  5  4  1  0  0  0  0
  6  5  2  0  0  0  0
  7  1  1  0  0  0  0
  8  2  1  0  0  0  0
  9 13  1  0  0  0  0
 12 11  3  0  0  0  0
 14 15  1  0  0  0  0
 14  6  1  0  0  0  0
 15 17  1  0  0  0  0
 15 18  1  0  0  0  0
 16 15  1  0  0  0  0
M  RAD  2   3   2   4   2
M  END
