Coordinates from ORCA-job 4-MeO-Ph-N2-Cl-B3LYPG-6-31G_dp-MTMO-d009-169-n800
 OpenBabel09051908443D

 18 16  0  0  0  0  0  0  0  0999 V2000
   -0.7080   -0.8402   -0.8785 C   0  0  0  0  0  0  0  0  0  0  0  0
    0.4333   -0.0868   -0.5653 C   0  0  0  0  0  0  0  0  0  0  0  0
    0.0540    0.9399    0.2710 C   0  0  0  0  0  0  0  0  0  0  0  0
   -1.0426    1.2950    0.7646 C   0  0  0  0  0  0  0  0  0  0  0  0
   -2.2158    0.5813    0.4880 C   0  0  0  0  0  0  0  0  0  0  0  0
   -1.9976   -0.5216   -0.3714 C   0  0  0  0  0  0  0  0  0  0  0  0
   -0.6242   -1.7048   -1.5297 H   0  0  0  0  0  0  0  0  0  0  0  0
    1.4216   -0.3159   -0.9430 H   0  0  0  0  0  0  0  0  0  0  0  0
   -1.3015    2.7988    1.9314 H   0  0  0  0  0  0  0  0  0  0  0  0
   -3.1915    0.8345    0.8824 H   0  0  0  0  0  0  0  0  0  0  0  0
    4.1316   -3.4132   -4.3223 N   0  0  0  0  0  0  0  0  0  0  0  0
    4.7412   -3.9219   -5.0912 N   0  0  0  0  0  0  0  0  0  0  0  0
   -1.6854    3.7744    2.7346 Cl  0  0  0  0  0  0  0  0  0  0  0  0
   -2.9856   -1.3642   -0.7838 O   0  0  0  0  0  0  0  0  0  0  0  0
   -4.3106   -1.1234   -0.3299 C   0  0  0  0  0  0  0  0  0  0  0  0
   -4.9270   -1.9033   -0.7783 H   0  0  0  0  0  0  0  0  0  0  0  0
   -4.6753   -0.1414   -0.6559 H   0  0  0  0  0  0  0  0  0  0  0  0
   -4.3800   -1.1898    0.7632 H   0  0  0  0  0  0  0  0  0  0  0  0
  1  2  2  0  0  0  0
  1  6  1  0  0  0  0
  2  3  1  0  0  0  0
  3  4  2  0  0  0  0
  5  4  1  0  0  0  0
  5 10  1  0  0  0  0
  6  5  2  0  0  0  0
  7  1  1  0  0  0  0
  8  2  1  0  0  0  0
  9 13  1  0  0  0  0
 12 11  3  0  0  0  0
 14  6  1  0  0  0  0
 14 15  1  0  0  0  0
 15 18  1  0  0  0  0
 16 15  1  0  0  0  0
 17 15  1  0  0  0  0
M  RAD  2   3   2   4   2
M  END
