Coordinates from ORCA-job 4-MeO-Ph-N2-Cl-B3LYPG-6-31G_dp-MTMO-d009-169-n800
 OpenBabel09051908443D

 18 16  0  0  0  0  0  0  0  0999 V2000
   -0.6299   -0.5585   -0.6935 C   0  0  0  0  0  0  0  0  0  0  0  0
    0.4176    0.2746   -0.2732 C   0  0  0  0  0  0  0  0  0  0  0  0
   -0.1043    1.2295    0.5716 C   0  0  0  0  0  0  0  0  0  0  0  0
   -1.2592    1.4696    0.9968 C   0  0  0  0  0  0  0  0  0  0  0  0
   -2.3449    0.6724    0.6131 C   0  0  0  0  0  0  0  0  0  0  0  0
   -1.9736   -0.3718   -0.2677 C   0  0  0  0  0  0  0  0  0  0  0  0
   -0.4275   -1.3843   -1.3686 H   0  0  0  0  0  0  0  0  0  0  0  0
    1.4455    0.1465   -0.5883 H   0  0  0  0  0  0  0  0  0  0  0  0
   -1.7364    2.9139    2.1732 H   0  0  0  0  0  0  0  0  0  0  0  0
   -3.3636    0.8266    0.9453 H   0  0  0  0  0  0  0  0  0  0  0  0
    4.6222   -4.4235   -5.2819 N   0  0  0  0  0  0  0  0  0  0  0  0
    5.1791   -4.9987   -6.0438 N   0  0  0  0  0  0  0  0  0  0  0  0
   -2.2691    3.8287    2.9626 Cl  0  0  0  0  0  0  0  0  0  0  0  0
   -2.8542   -1.2768   -0.7788 O   0  0  0  0  0  0  0  0  0  0  0  0
   -4.2221   -1.1705   -0.4080 C   0  0  0  0  0  0  0  0  0  0  0  0
   -4.7366   -1.9802   -0.9265 H   0  0  0  0  0  0  0  0  0  0  0  0
   -4.6505   -0.2101   -0.7209 H   0  0  0  0  0  0  0  0  0  0  0  0
   -4.3562   -1.2904    0.6744 H   0  0  0  0  0  0  0  0  0  0  0  0
  1  2  2  0  0  0  0
  1  6  1  0  0  0  0
  2  3  1  0  0  0  0
  3  4  2  0  0  0  0
  5 10  1  0  0  0  0
  5  4  1  0  0  0  0
  6  5  2  0  0  0  0
  7  1  1  0  0  0  0
  8  2  1  0  0  0  0
  9 13  1  0  0  0  0
 12 11  3  0  0  0  0
 14 15  1  0  0  0  0
 14  6  1  0  0  0  0
 15 18  1  0  0  0  0
 16 15  1  0  0  0  0
 17 15  1  0  0  0  0
M  RAD  2   3   2   4   2
M  END
