Coordinates from ORCA-job 4-MeO-Ph-N2-Cl-B3LYPG-6-31G_dp-MTMO-d009-169-n800
 OpenBabel09051908443D

 18 16  0  0  0  0  0  0  0  0999 V2000
   -0.6404   -0.6249   -0.7188 C   0  0  0  0  0  0  0  0  0  0  0  0
    0.4269    0.1926   -0.3182 C   0  0  0  0  0  0  0  0  0  0  0  0
   -0.0687    1.1680    0.5189 C   0  0  0  0  0  0  0  0  0  0  0  0
   -1.2147    1.4363    0.9512 C   0  0  0  0  0  0  0  0  0  0  0  0
   -2.3191    0.6556    0.5870 C   0  0  0  0  0  0  0  0  0  0  0  0
   -1.9763   -0.4064   -0.2838 C   0  0  0  0  0  0  0  0  0  0  0  0
   -0.4602   -1.4631   -1.3849 H   0  0  0  0  0  0  0  0  0  0  0  0
    1.4493    0.0401   -0.6405 H   0  0  0  0  0  0  0  0  0  0  0  0
   -1.6519    2.9018    2.1160 H   0  0  0  0  0  0  0  0  0  0  0  0
   -3.3315    0.8339    0.9262 H   0  0  0  0  0  0  0  0  0  0  0  0
    4.5164   -4.2126   -5.0998 N   0  0  0  0  0  0  0  0  0  0  0  0
    5.0831   -4.7691   -5.8684 N   0  0  0  0  0  0  0  0  0  0  0  0
   -2.1577    3.8359    2.9005 Cl  0  0  0  0  0  0  0  0  0  0  0  0
   -2.8791   -1.3002   -0.7759 O   0  0  0  0  0  0  0  0  0  0  0  0
   -4.2414   -1.1616   -0.3957 C   0  0  0  0  0  0  0  0  0  0  0  0
   -4.7763   -1.9672   -0.8998 H   0  0  0  0  0  0  0  0  0  0  0  0
   -4.6530   -0.1968   -0.7174 H   0  0  0  0  0  0  0  0  0  0  0  0
   -4.3690   -1.2652    0.6892 H   0  0  0  0  0  0  0  0  0  0  0  0
  1  2  2  0  0  0  0
  1  6  1  0  0  0  0
  2  3  1  0  0  0  0
  3  4  2  0  0  0  0
  5 10  1  0  0  0  0
  5  4  1  0  0  0  0
  6  5  2  0  0  0  0
  7  1  1  0  0  0  0
  8  2  1  0  0  0  0
  9 13  1  0  0  0  0
 12 11  3  0  0  0  0
 14 15  1  0  0  0  0
 14  6  1  0  0  0  0
 15 18  1  0  0  0  0
 16 15  1  0  0  0  0
 17 15  1  0  0  0  0
M  RAD  2   3   2   4   2
M  END
