Coordinates from ORCA-job 4-MeO-Ph-N2-Cl-B3LYPG-6-31G_dp-MTMO-d009-169-n800
 OpenBabel09051908453D

 18 16  0  0  0  0  0  0  0  0999 V2000
   -1.1188    0.7413   -0.8032 C   0  0  0  0  0  0  0  0  0  0  0  0
   -0.2246    1.6745   -0.2576 C   0  0  0  0  0  0  0  0  0  0  0  0
   -0.7468    2.1222    0.9355 C   0  0  0  0  0  0  0  0  0  0  0  0
   -1.7963    1.8672    1.5726 C   0  0  0  0  0  0  0  0  0  0  0  0
   -2.7263    0.9439    1.0774 C   0  0  0  0  0  0  0  0  0  0  0  0
   -2.3350    0.3812   -0.1608 C   0  0  0  0  0  0  0  0  0  0  0  0
   -0.8923    0.2654   -1.7521 H   0  0  0  0  0  0  0  0  0  0  0  0
    0.7054    1.9595   -0.7325 H   0  0  0  0  0  0  0  0  0  0  0  0
   -2.2983    2.6604    3.2502 H   0  0  0  0  0  0  0  0  0  0  0  0
   -3.6496    0.6798    1.5764 H   0  0  0  0  0  0  0  0  0  0  0  0
    7.6839   -8.4773   -7.8787 N   0  0  0  0  0  0  0  0  0  0  0  0
    8.2168   -9.4203   -8.0989 N   0  0  0  0  0  0  0  0  0  0  0  0
   -2.8184    3.0844    4.3877 Cl  0  0  0  0  0  0  0  0  0  0  0  0
   -3.0750   -0.5403   -0.8387 O   0  0  0  0  0  0  0  0  0  0  0  0
   -4.3056   -0.9679   -0.2705 C   0  0  0  0  0  0  0  0  0  0  0  0
   -4.7205   -1.6960   -0.9689 H   0  0  0  0  0  0  0  0  0  0  0  0
   -5.0083   -0.1329   -0.1567 H   0  0  0  0  0  0  0  0  0  0  0  0
   -4.1537   -1.4478    0.7047 H   0  0  0  0  0  0  0  0  0  0  0  0
  1  2  2  0  0  0  0
  1  6  1  0  0  0  0
  2  3  1  0  0  0  0
  3  4  2  0  0  0  0
  5  4  1  0  0  0  0
  5 10  1  0  0  0  0
  6  5  2  0  0  0  0
  7  1  1  0  0  0  0
  8  2  1  0  0  0  0
  9 13  1  0  0  0  0
 12 11  3  0  0  0  0
 14 15  1  0  0  0  0
 14  6  1  0  0  0  0
 15 17  1  0  0  0  0
 15 18  1  0  0  0  0
 16 15  1  0  0  0  0
M  RAD  2   3   2   4   2
M  END
