Coordinates from ORCA-job 4-MeO-Ph-N2-Cl-B3LYPG-6-31G_dp-MTMO-d009-169-n800
 OpenBabel09051908443D

 18 16  0  0  0  0  0  0  0  0999 V2000
   -1.3973   -1.7927   -1.5213 C   0  0  0  0  0  0  0  0  0  0  0  0
   -0.0315   -1.5440   -1.7163 C   0  0  0  0  0  0  0  0  0  0  0  0
    0.3027   -0.4337   -0.9850 C   0  0  0  0  0  0  0  0  0  0  0  0
   -0.2960    0.3754   -0.2208 C   0  0  0  0  0  0  0  0  0  0  0  0
   -1.6699    0.1488   -0.0090 C   0  0  0  0  0  0  0  0  0  0  0  0
   -2.2022   -0.9695   -0.6884 C   0  0  0  0  0  0  0  0  0  0  0  0
   -1.8721   -2.6359   -2.0128 H   0  0  0  0  0  0  0  0  0  0  0  0
    0.6124   -2.1484   -2.3423 H   0  0  0  0  0  0  0  0  0  0  0  0
    0.3965    1.7340    0.6131 H   0  0  0  0  0  0  0  0  0  0  0  0
   -2.2765    0.7844    0.6250 H   0  0  0  0  0  0  0  0  0  0  0  0
    2.6508   -0.0578   -1.3234 N   0  0  0  0  0  0  0  0  0  0  0  0
    3.4449    0.6232   -0.9641 N   0  0  0  0  0  0  0  0  0  0  0  0
    0.8599    2.8048    1.2998 Cl  0  0  0  0  0  0  0  0  0  0  0  0
   -3.5056   -1.3554   -0.6115 O   0  0  0  0  0  0  0  0  0  0  0  0
   -4.3866   -0.5964    0.2059 C   0  0  0  0  0  0  0  0  0  0  0  0
   -5.3603   -1.0815    0.1271 H   0  0  0  0  0  0  0  0  0  0  0  0
   -4.4688    0.4399   -0.1450 H   0  0  0  0  0  0  0  0  0  0  0  0
   -4.0639   -0.5979    1.2547 H   0  0  0  0  0  0  0  0  0  0  0  0
  1  6  1  0  0  0  0
  2  1  2  0  0  0  0
  2  3  1  0  0  0  0
  3  4  2  0  0  0  0
  4  5  1  0  0  0  0
  5 10  1  0  0  0  0
  6 14  1  0  0  0  0
  6  5  2  0  0  0  0
  7  1  1  0  0  0  0
  8  2  1  0  0  0  0
  9 13  1  0  0  0  0
 11 12  3  0  0  0  0
 14 15  1  0  0  0  0
 15 18  1  0  0  0  0
 16 15  1  0  0  0  0
 17 15  1  0  0  0  0
M  RAD  2   3   2   4   2
M  END
