Coordinates from ORCA-job 4-MeO-Ph-N2-Cl-B3LYPG-6-31G_dp-MTMO-d009-169-n800
 OpenBabel09051908443D

 18 16  0  0  0  0  0  0  0  0999 V2000
   -0.6977   -0.8096   -0.8552 C   0  0  0  0  0  0  0  0  0  0  0  0
    0.4334   -0.0464   -0.5296 C   0  0  0  0  0  0  0  0  0  0  0  0
    0.0370    0.9738    0.3069 C   0  0  0  0  0  0  0  0  0  0  0  0
   -1.0674    1.3165    0.7919 C   0  0  0  0  0  0  0  0  0  0  0  0
   -2.2312    0.5925    0.5028 C   0  0  0  0  0  0  0  0  0  0  0  0
   -1.9947   -0.5053   -0.3584 C   0  0  0  0  0  0  0  0  0  0  0  0
   -0.5999   -1.6711   -1.5087 H   0  0  0  0  0  0  0  0  0  0  0  0
    1.4272   -0.2646   -0.8993 H   0  0  0  0  0  0  0  0  0  0  0  0
   -1.3526    2.8156    1.9591 H   0  0  0  0  0  0  0  0  0  0  0  0
   -3.2127    0.8349    0.8894 H   0  0  0  0  0  0  0  0  0  0  0  0
    4.1917   -3.5316   -4.4344 N   0  0  0  0  0  0  0  0  0  0  0  0
    4.7918   -4.0444   -5.2081 N   0  0  0  0  0  0  0  0  0  0  0  0
   -1.7545    3.7859    2.7598 Cl  0  0  0  0  0  0  0  0  0  0  0  0
   -2.9709   -1.3560   -0.7823 O   0  0  0  0  0  0  0  0  0  0  0  0
   -4.3022   -1.1293   -0.3395 C   0  0  0  0  0  0  0  0  0  0  0  0
   -4.9071   -1.9135   -0.7960 H   0  0  0  0  0  0  0  0  0  0  0  0
   -4.6733   -0.1497   -0.6654 H   0  0  0  0  0  0  0  0  0  0  0  0
   -4.3806   -1.2003    0.7528 H   0  0  0  0  0  0  0  0  0  0  0  0
  1  2  2  0  0  0  0
  1  6  1  0  0  0  0
  2  3  1  0  0  0  0
  3  4  2  0  0  0  0
  5  4  1  0  0  0  0
  5 10  1  0  0  0  0
  6  5  2  0  0  0  0
  7  1  1  0  0  0  0
  8  2  1  0  0  0  0
  9 13  1  0  0  0  0
 12 11  3  0  0  0  0
 14  6  1  0  0  0  0
 14 15  1  0  0  0  0
 15 18  1  0  0  0  0
 16 15  1  0  0  0  0
 17 15  1  0  0  0  0
M  RAD  2   3   2   4   2
M  END
