Coordinates from ORCA-job 4-MeO-Ph-N2-Cl-B3LYPG-6-31G_dp-MTMO-d009-169-n800
 OpenBabel09051908453D

 18 16  0  0  0  0  0  0  0  0999 V2000
   -1.1287    0.7544   -0.7727 C   0  0  0  0  0  0  0  0  0  0  0  0
   -0.2406    1.6930   -0.2265 C   0  0  0  0  0  0  0  0  0  0  0  0
   -0.7732    2.1485    0.9590 C   0  0  0  0  0  0  0  0  0  0  0  0
   -1.8276    1.8962    1.5891 C   0  0  0  0  0  0  0  0  0  0  0  0
   -2.7522    0.9680    1.0930 C   0  0  0  0  0  0  0  0  0  0  0  0
   -2.3498    0.3970   -0.1379 C   0  0  0  0  0  0  0  0  0  0  0  0
   -0.8937    0.2720   -1.7162 H   0  0  0  0  0  0  0  0  0  0  0  0
    0.6930    1.9761   -0.6956 H   0  0  0  0  0  0  0  0  0  0  0  0
   -2.3427    2.7009    3.2583 H   0  0  0  0  0  0  0  0  0  0  0  0
   -3.6792    0.7060    1.5862 H   0  0  0  0  0  0  0  0  0  0  0  0
    7.8457   -8.6395   -8.0357 N   0  0  0  0  0  0  0  0  0  0  0  0
    8.3784   -9.5824   -8.2568 N   0  0  0  0  0  0  0  0  0  0  0  0
   -2.8718    3.1316    4.3889 Cl  0  0  0  0  0  0  0  0  0  0  0  0
   -3.0828   -0.5304   -0.8152 O   0  0  0  0  0  0  0  0  0  0  0  0
   -4.3175   -0.9557   -0.2542 C   0  0  0  0  0  0  0  0  0  0  0  0
   -4.7256   -1.6893   -0.9509 H   0  0  0  0  0  0  0  0  0  0  0  0
   -5.0222   -0.1208   -0.1523 H   0  0  0  0  0  0  0  0  0  0  0  0
   -4.1730   -1.4284    0.7255 H   0  0  0  0  0  0  0  0  0  0  0  0
  1  2  2  0  0  0  0
  1  6  1  0  0  0  0
  2  3  1  0  0  0  0
  3  4  2  0  0  0  0
  5 10  1  0  0  0  0
  5  4  1  0  0  0  0
  6  5  2  0  0  0  0
  7  1  1  0  0  0  0
  8  2  1  0  0  0  0
  9 13  1  0  0  0  0
 12 11  3  0  0  0  0
 14 15  1  0  0  0  0
 14  6  1  0  0  0  0
 15 17  1  0  0  0  0
 15 18  1  0  0  0  0
 16 15  1  0  0  0  0
M  RAD  2   3   2   4   2
M  END
