Coordinates from ORCA-job 4-MeO-Ph-N2-Cl-B3LYPG-6-31G_dp-MTMO-d009-169-n800
 OpenBabel09051908443D

 18 16  0  0  0  0  0  0  0  0999 V2000
   -1.4320   -1.7557   -1.4883 C   0  0  0  0  0  0  0  0  0  0  0  0
   -0.0693   -1.4756   -1.6693 C   0  0  0  0  0  0  0  0  0  0  0  0
    0.2350   -0.3558   -0.9314 C   0  0  0  0  0  0  0  0  0  0  0  0
   -0.4189    0.4095   -0.1820 C   0  0  0  0  0  0  0  0  0  0  0  0
   -1.7854    0.1741    0.0314 C   0  0  0  0  0  0  0  0  0  0  0  0
   -2.2719   -0.9582   -0.6633 C   0  0  0  0  0  0  0  0  0  0  0  0
   -1.8809   -2.6089   -1.9873 H   0  0  0  0  0  0  0  0  0  0  0  0
    0.5901   -2.0674   -2.2912 H   0  0  0  0  0  0  0  0  0  0  0  0
    0.2749    1.8999    0.7539 H   0  0  0  0  0  0  0  0  0  0  0  0
   -2.4154    0.7905    0.6603 H   0  0  0  0  0  0  0  0  0  0  0  0
    3.3251   -0.2181   -1.5918 N   0  0  0  0  0  0  0  0  0  0  0  0
    4.2358    0.3523   -1.3335 N   0  0  0  0  0  0  0  0  0  0  0  0
    0.5904    2.9652    1.4757 Cl  0  0  0  0  0  0  0  0  0  0  0  0
   -3.5657   -1.3812   -0.6064 O   0  0  0  0  0  0  0  0  0  0  0  0
   -4.4793   -0.6502    0.1997 C   0  0  0  0  0  0  0  0  0  0  0  0
   -5.4378   -1.1619    0.1052 H   0  0  0  0  0  0  0  0  0  0  0  0
   -4.5857    0.3847   -0.1493 H   0  0  0  0  0  0  0  0  0  0  0  0
   -4.1725   -0.6460    1.2534 H   0  0  0  0  0  0  0  0  0  0  0  0
  1  6  1  0  0  0  0
  2  1  2  0  0  0  0
  2  3  1  0  0  0  0
  3  4  2  0  0  0  0
  4  5  1  0  0  0  0
  5 10  1  0  0  0  0
  6 14  1  0  0  0  0
  6  5  2  0  0  0  0
  7  1  1  0  0  0  0
  8  2  1  0  0  0  0
  9 13  1  0  0  0  0
 11 12  3  0  0  0  0
 14 15  1  0  0  0  0
 15 18  1  0  0  0  0
 16 15  1  0  0  0  0
 17 15  1  0  0  0  0
M  RAD  2   3   2   4   2
M  END
