Coordinates from ORCA-job 4-MeO-Ph-N2-Cl-B3LYPG-6-31G_dp-MTMO-d009-169-n800
 OpenBabel09051908443D

 18 16  0  0  0  0  0  0  0  0999 V2000
   -0.7977   -1.0445   -1.0595 C   0  0  0  0  0  0  0  0  0  0  0  0
    0.4124   -0.3685   -0.8415 C   0  0  0  0  0  0  0  0  0  0  0  0
    0.1627    0.6930   -0.0005 C   0  0  0  0  0  0  0  0  0  0  0  0
   -0.8675    1.1327    0.5635 C   0  0  0  0  0  0  0  0  0  0  0  0
   -2.1034    0.4980    0.3817 C   0  0  0  0  0  0  0  0  0  0  0  0
   -2.0229   -0.6295   -0.4697 C   0  0  0  0  0  0  0  0  0  0  0  0
   -0.8199   -1.9221   -1.6982 H   0  0  0  0  0  0  0  0  0  0  0  0
    1.3530   -0.6720   -1.2835 H   0  0  0  0  0  0  0  0  0  0  0  0
   -0.9349    2.6508    1.7293 H   0  0  0  0  0  0  0  0  0  0  0  0
   -3.0293    0.8245    0.8374 H   0  0  0  0  0  0  0  0  0  0  0  0
    3.6958   -2.5763   -3.5255 N   0  0  0  0  0  0  0  0  0  0  0  0
    4.4267   -3.0525   -4.2041 N   0  0  0  0  0  0  0  0  0  0  0  0
   -1.1867    3.6532    2.5526 Cl  0  0  0  0  0  0  0  0  0  0  0  0
   -3.0934   -1.4067   -0.7961 O   0  0  0  0  0  0  0  0  0  0  0  0
   -4.3616   -1.0730   -0.2485 C   0  0  0  0  0  0  0  0  0  0  0  0
   -5.0602   -1.8144   -0.6378 H   0  0  0  0  0  0  0  0  0  0  0  0
   -4.6845   -0.0722   -0.5614 H   0  0  0  0  0  0  0  0  0  0  0  0
   -4.3520   -1.1232    0.8477 H   0  0  0  0  0  0  0  0  0  0  0  0
  1  2  2  0  0  0  0
  1  6  1  0  0  0  0
  2  3  1  0  0  0  0
  3  4  2  0  0  0  0
  5  4  1  0  0  0  0
  5 10  1  0  0  0  0
  6  5  2  0  0  0  0
  7  1  1  0  0  0  0
  8  2  1  0  0  0  0
  9 13  1  0  0  0  0
 12 11  3  0  0  0  0
 14  6  1  0  0  0  0
 14 15  1  0  0  0  0
 15 18  1  0  0  0  0
 16 15  1  0  0  0  0
 17 15  1  0  0  0  0
M  RAD  2   3   2   4   2
M  END
