Coordinates from ORCA-job 4-MeO-Ph-N2-Cl-B3LYPG-6-31G_dp-MTMO-d009-169-n800
 OpenBabel09051908443D

 18 16  0  0  0  0  0  0  0  0999 V2000
   -1.4343   -1.7548   -1.4867 C   0  0  0  0  0  0  0  0  0  0  0  0
   -0.0716   -1.4741   -1.6671 C   0  0  0  0  0  0  0  0  0  0  0  0
    0.2321   -0.3539   -0.9293 C   0  0  0  0  0  0  0  0  0  0  0  0
   -0.4231    0.4106   -0.1803 C   0  0  0  0  0  0  0  0  0  0  0  0
   -1.7895    0.1749    0.0328 C   0  0  0  0  0  0  0  0  0  0  0  0
   -2.2750   -0.9578   -0.6621 C   0  0  0  0  0  0  0  0  0  0  0  0
   -1.8825   -2.6083   -1.9858 H   0  0  0  0  0  0  0  0  0  0  0  0
    0.5881   -2.0657   -2.2888 H   0  0  0  0  0  0  0  0  0  0  0  0
    0.2662    1.9026    0.7587 H   0  0  0  0  0  0  0  0  0  0  0  0
   -2.4201    0.7911    0.6615 H   0  0  0  0  0  0  0  0  0  0  0  0
    3.3599   -0.2243   -1.6062 N   0  0  0  0  0  0  0  0  0  0  0  0
    4.2700    0.3468   -1.3472 N   0  0  0  0  0  0  0  0  0  0  0  0
    0.5754    2.9681    1.4828 Cl  0  0  0  0  0  0  0  0  0  0  0  0
   -3.5686   -1.3814   -0.6057 O   0  0  0  0  0  0  0  0  0  0  0  0
   -4.4830   -0.6509    0.1999 C   0  0  0  0  0  0  0  0  0  0  0  0
   -5.4412   -1.1632    0.1050 H   0  0  0  0  0  0  0  0  0  0  0  0
   -4.5898    0.3840   -0.1492 H   0  0  0  0  0  0  0  0  0  0  0  0
   -4.1767   -0.6464    1.2537 H   0  0  0  0  0  0  0  0  0  0  0  0
  1  6  1  0  0  0  0
  2  1  2  0  0  0  0
  2  3  1  0  0  0  0
  3  4  2  0  0  0  0
  4  5  1  0  0  0  0
  5 10  1  0  0  0  0
  6 14  1  0  0  0  0
  6  5  2  0  0  0  0
  7  1  1  0  0  0  0
  8  2  1  0  0  0  0
  9 13  1  0  0  0  0
 11 12  3  0  0  0  0
 14 15  1  0  0  0  0
 15 18  1  0  0  0  0
 16 15  1  0  0  0  0
 17 15  1  0  0  0  0
M  RAD  2   3   2   4   2
M  END
