Coordinates from ORCA-job 4-MeO-Ph-N2-Cl-B3LYPG-6-31G_dp-MTMO-d009-169-n800
 OpenBabel09051908453D

 18 16  0  0  0  0  0  0  0  0999 V2000
   -0.7967    0.4357   -1.0313 C   0  0  0  0  0  0  0  0  0  0  0  0
    0.0936    1.3729   -0.4860 C   0  0  0  0  0  0  0  0  0  0  0  0
   -0.4424    1.8374    0.6945 C   0  0  0  0  0  0  0  0  0  0  0  0
   -1.5009    1.5937    1.3210 C   0  0  0  0  0  0  0  0  0  0  0  0
   -2.4278    0.6675    0.8255 C   0  0  0  0  0  0  0  0  0  0  0  0
   -2.0224    0.0878   -0.4003 C   0  0  0  0  0  0  0  0  0  0  0  0
   -0.5596   -0.0529   -1.9711 H   0  0  0  0  0  0  0  0  0  0  0  0
    1.0307    1.6488   -0.9523 H   0  0  0  0  0  0  0  0  0  0  0  0
   -2.0191    2.4093    2.9835 H   0  0  0  0  0  0  0  0  0  0  0  0
   -3.3584    0.4127    1.3158 H   0  0  0  0  0  0  0  0  0  0  0  0
    5.2367   -6.1982   -5.9151 N   0  0  0  0  0  0  0  0  0  0  0  0
    5.7687   -7.1410   -6.1383 N   0  0  0  0  0  0  0  0  0  0  0  0
   -2.5507    2.8487    4.1097 Cl  0  0  0  0  0  0  0  0  0  0  0  0
   -2.7568   -0.8396   -1.0761 O   0  0  0  0  0  0  0  0  0  0  0  0
   -3.9965   -1.2554   -0.5190 C   0  0  0  0  0  0  0  0  0  0  0  0
   -4.4051   -1.9905   -1.2137 H   0  0  0  0  0  0  0  0  0  0  0  0
   -4.6973   -0.4162   -0.4250 H   0  0  0  0  0  0  0  0  0  0  0  0
   -3.8594   -1.7235    0.4640 H   0  0  0  0  0  0  0  0  0  0  0  0
  1  2  2  0  0  0  0
  1  6  1  0  0  0  0
  2  3  1  0  0  0  0
  3  4  2  0  0  0  0
  5 10  1  0  0  0  0
  5  4  1  0  0  0  0
  6  5  2  0  0  0  0
  7  1  1  0  0  0  0
  8  2  1  0  0  0  0
  9 13  1  0  0  0  0
 12 11  3  0  0  0  0
 14 15  1  0  0  0  0
 14  6  1  0  0  0  0
 15 17  1  0  0  0  0
 15 18  1  0  0  0  0
 16 15  1  0  0  0  0
M  RAD  2   3   2   4   2
M  END
