Coordinates from ORCA-job 4-MeO-Ph-N2-Cl-B3LYPG-6-31G_dp-MTMO-d009-169-n800
 OpenBabel09051908443D

 18 16  0  0  0  0  0  0  0  0999 V2000
   -0.6397   -0.6185   -0.7160 C   0  0  0  0  0  0  0  0  0  0  0  0
    0.4259    0.2004   -0.3135 C   0  0  0  0  0  0  0  0  0  0  0  0
   -0.0727    1.1738    0.5242 C   0  0  0  0  0  0  0  0  0  0  0  0
   -1.2194    1.4399    0.9562 C   0  0  0  0  0  0  0  0  0  0  0  0
   -2.3218    0.6574    0.5897 C   0  0  0  0  0  0  0  0  0  0  0  0
   -1.9762   -0.4030   -0.2820 C   0  0  0  0  0  0  0  0  0  0  0  0
   -0.4571   -1.4556   -1.3829 H   0  0  0  0  0  0  0  0  0  0  0  0
    1.4489    0.0505   -0.6348 H   0  0  0  0  0  0  0  0  0  0  0  0
   -1.6601    2.9034    2.1215 H   0  0  0  0  0  0  0  0  0  0  0  0
   -3.3349    0.8332    0.9281 H   0  0  0  0  0  0  0  0  0  0  0  0
    4.5287   -4.2341   -5.1194 N   0  0  0  0  0  0  0  0  0  0  0  0
    5.0947   -4.7925   -5.8872 N   0  0  0  0  0  0  0  0  0  0  0  0
   -2.1685    3.8359    2.9063 Cl  0  0  0  0  0  0  0  0  0  0  0  0
   -2.8771   -1.2978   -0.7759 O   0  0  0  0  0  0  0  0  0  0  0  0
   -4.2400   -1.1622   -0.3966 C   0  0  0  0  0  0  0  0  0  0  0  0
   -4.7729   -1.9682   -0.9021 H   0  0  0  0  0  0  0  0  0  0  0  0
   -4.6531   -0.1978   -0.7176 H   0  0  0  0  0  0  0  0  0  0  0  0
   -4.3683   -1.2674    0.6880 H   0  0  0  0  0  0  0  0  0  0  0  0
  1  2  2  0  0  0  0
  1  6  1  0  0  0  0
  2  3  1  0  0  0  0
  3  4  2  0  0  0  0
  5 10  1  0  0  0  0
  5  4  1  0  0  0  0
  6  5  2  0  0  0  0
  7  1  1  0  0  0  0
  8  2  1  0  0  0  0
  9 13  1  0  0  0  0
 12 11  3  0  0  0  0
 14 15  1  0  0  0  0
 14  6  1  0  0  0  0
 15 18  1  0  0  0  0
 16 15  1  0  0  0  0
 17 15  1  0  0  0  0
M  RAD  2   3   2   4   2
M  END
