Coordinates from ORCA-job 4-MeO-Ph-N2-Cl-B3LYPG-6-31G_dp-MTMO-d009-169-n800
 OpenBabel09051908443D

 18 16  0  0  0  0  0  0  0  0999 V2000
   -0.7299   -0.8950   -0.9236 C   0  0  0  0  0  0  0  0  0  0  0  0
    0.4300   -0.1607   -0.6344 C   0  0  0  0  0  0  0  0  0  0  0  0
    0.0834    0.8768    0.2026 C   0  0  0  0  0  0  0  0  0  0  0  0
   -0.9975    1.2545    0.7138 C   0  0  0  0  0  0  0  0  0  0  0  0
   -2.1879    0.5605    0.4612 C   0  0  0  0  0  0  0  0  0  0  0  0
   -2.0045   -0.5505   -0.3959 C   0  0  0  0  0  0  0  0  0  0  0  0
   -0.6730   -1.7643   -1.5714 H   0  0  0  0  0  0  0  0  0  0  0  0
    1.4074   -0.4093   -1.0280 H   0  0  0  0  0  0  0  0  0  0  0  0
   -1.2063    2.7650    1.8807 H   0  0  0  0  0  0  0  0  0  0  0  0
   -3.1519    0.8332    0.8708 H   0  0  0  0  0  0  0  0  0  0  0  0
    4.0259   -3.1962   -4.1185 N   0  0  0  0  0  0  0  0  0  0  0  0
    4.6596   -3.6997   -4.8713 N   0  0  0  0  0  0  0  0  0  0  0  0
   -1.5556    3.7493    2.6891 Cl  0  0  0  0  0  0  0  0  0  0  0  0
   -3.0146   -1.3773   -0.7865 O   0  0  0  0  0  0  0  0  0  0  0  0
   -4.3267   -1.1112   -0.3099 C   0  0  0  0  0  0  0  0  0  0  0  0
   -4.9646   -1.8823   -0.7431 H   0  0  0  0  0  0  0  0  0  0  0  0
   -4.6802   -0.1245   -0.6342 H   0  0  0  0  0  0  0  0  0  0  0  0
   -4.3771   -1.1711    0.7847 H   0  0  0  0  0  0  0  0  0  0  0  0
  1  2  2  0  0  0  0
  1  6  1  0  0  0  0
  2  3  1  0  0  0  0
  3  4  2  0  0  0  0
  5  4  1  0  0  0  0
  5 10  1  0  0  0  0
  6  5  2  0  0  0  0
  7  1  1  0  0  0  0
  8  2  1  0  0  0  0
  9 13  1  0  0  0  0
 12 11  3  0  0  0  0
 14  6  1  0  0  0  0
 14 15  1  0  0  0  0
 15 18  1  0  0  0  0
 16 15  1  0  0  0  0
 17 15  1  0  0  0  0
M  RAD  2   3   2   4   2
M  END
