Coordinates from ORCA-job 4-MeO-Ph-N2-Cl-B3LYPG-6-31G_dp-MTMO-d009-169-n800
 OpenBabel09051908453D

 18 16  0  0  0  0  0  0  0  0999 V2000
   -0.9206    0.5547   -0.9401 C   0  0  0  0  0  0  0  0  0  0  0  0
   -0.0302    1.4913   -0.3942 C   0  0  0  0  0  0  0  0  0  0  0  0
   -0.5632    1.9497    0.7900 C   0  0  0  0  0  0  0  0  0  0  0  0
   -1.6188    1.7025    1.4202 C   0  0  0  0  0  0  0  0  0  0  0  0
   -2.5452    0.7760    0.9236 C   0  0  0  0  0  0  0  0  0  0  0  0
   -2.1434    0.2020   -0.3059 C   0  0  0  0  0  0  0  0  0  0  0  0
   -0.6860    0.0703   -1.8827 H   0  0  0  0  0  0  0  0  0  0  0  0
    0.9047    1.7709   -0.8626 H   0  0  0  0  0  0  0  0  0  0  0  0
   -2.1321    2.5107    3.0857 H   0  0  0  0  0  0  0  0  0  0  0  0
   -3.4736    0.5174    1.4159 H   0  0  0  0  0  0  0  0  0  0  0  0
    6.1903   -7.0906   -6.6855 N   0  0  0  0  0  0  0  0  0  0  0  0
    6.7251   -8.0326   -6.9051 N   0  0  0  0  0  0  0  0  0  0  0  0
   -2.6604    2.9455    4.2155 Cl  0  0  0  0  0  0  0  0  0  0  0  0
   -2.8786   -0.7241   -0.9827 O   0  0  0  0  0  0  0  0  0  0  0  0
   -4.1153   -1.1447   -0.4226 C   0  0  0  0  0  0  0  0  0  0  0  0
   -4.5249   -1.8779   -1.1188 H   0  0  0  0  0  0  0  0  0  0  0  0
   -4.8176   -0.3074   -0.3227 H   0  0  0  0  0  0  0  0  0  0  0  0
   -3.9736   -1.6165    0.5580 H   0  0  0  0  0  0  0  0  0  0  0  0
  1  2  2  0  0  0  0
  1  6  1  0  0  0  0
  2  3  1  0  0  0  0
  3  4  2  0  0  0  0
  5 10  1  0  0  0  0
  5  4  1  0  0  0  0
  6  5  2  0  0  0  0
  7  1  1  0  0  0  0
  8  2  1  0  0  0  0
  9 13  1  0  0  0  0
 12 11  3  0  0  0  0
 14 15  1  0  0  0  0
 14  6  1  0  0  0  0
 15 17  1  0  0  0  0
 15 18  1  0  0  0  0
 16 15  1  0  0  0  0
M  RAD  2   3   2   4   2
M  END
