Coordinates from ORCA-job 4-MeO-Ph-N2-Cl-B3LYPG-6-31G_dp-MTMO-d009-169-n800
 OpenBabel09051908453D

 18 16  0  0  0  0  0  0  0  0999 V2000
   -0.9043    0.5404   -0.9550 C   0  0  0  0  0  0  0  0  0  0  0  0
   -0.0138    1.4770   -0.4091 C   0  0  0  0  0  0  0  0  0  0  0  0
   -0.5458    1.9349    0.7758 C   0  0  0  0  0  0  0  0  0  0  0  0
   -1.6011    1.6860    1.4056 C   0  0  0  0  0  0  0  0  0  0  0  0
   -2.5280    0.7600    0.9098 C   0  0  0  0  0  0  0  0  0  0  0  0
   -2.1266    0.1868   -0.3204 C   0  0  0  0  0  0  0  0  0  0  0  0
   -0.6701    0.0565   -1.8980 H   0  0  0  0  0  0  0  0  0  0  0  0
    0.9207    1.7572   -0.8781 H   0  0  0  0  0  0  0  0  0  0  0  0
   -2.1151    2.4931    3.0736 H   0  0  0  0  0  0  0  0  0  0  0  0
   -3.4559    0.5009    1.4028 H   0  0  0  0  0  0  0  0  0  0  0  0
    6.0550   -6.9650   -6.5721 N   0  0  0  0  0  0  0  0  0  0  0  0
    6.5882   -7.9075   -6.7934 N   0  0  0  0  0  0  0  0  0  0  0  0
   -2.6435    2.9264    4.2036 Cl  0  0  0  0  0  0  0  0  0  0  0  0
   -2.8618   -0.7392   -0.9973 O   0  0  0  0  0  0  0  0  0  0  0  0
   -4.0980   -1.1605   -0.4367 C   0  0  0  0  0  0  0  0  0  0  0  0
   -4.5078   -1.8934   -1.1330 H   0  0  0  0  0  0  0  0  0  0  0  0
   -4.8004   -0.3235   -0.3358 H   0  0  0  0  0  0  0  0  0  0  0  0
   -3.9554   -1.6328    0.5435 H   0  0  0  0  0  0  0  0  0  0  0  0
  1  2  2  0  0  0  0
  1  6  1  0  0  0  0
  2  3  1  0  0  0  0
  3  4  2  0  0  0  0
  5 10  1  0  0  0  0
  5  4  1  0  0  0  0
  6  5  2  0  0  0  0
  7  1  1  0  0  0  0
  8  2  1  0  0  0  0
  9 13  1  0  0  0  0
 12 11  3  0  0  0  0
 14 15  1  0  0  0  0
 14  6  1  0  0  0  0
 15 17  1  0  0  0  0
 15 18  1  0  0  0  0
 16 15  1  0  0  0  0
M  RAD  2   3   2   4   2
M  END
