Coordinates from ORCA-job 4-MeO-Ph-N2-Cl-B3LYPG-6-31G_dp-MTMO-d009-169-n800
 OpenBabel09051908453D

 18 16  0  0  0  0  0  0  0  0999 V2000
   -1.1143    0.7394   -0.7940 C   0  0  0  0  0  0  0  0  0  0  0  0
   -0.2236    1.6757   -0.2480 C   0  0  0  0  0  0  0  0  0  0  0  0
   -0.7518    2.1279    0.9408 C   0  0  0  0  0  0  0  0  0  0  0  0
   -1.8042    1.8744    1.5737 C   0  0  0  0  0  0  0  0  0  0  0  0
   -2.7311    0.9483    1.0781 C   0  0  0  0  0  0  0  0  0  0  0  0
   -2.3334    0.3808   -0.1559 C   0  0  0  0  0  0  0  0  0  0  0  0
   -0.8830    0.2597   -1.7398 H   0  0  0  0  0  0  0  0  0  0  0  0
    0.7084    1.9596   -0.7195 H   0  0  0  0  0  0  0  0  0  0  0  0
   -2.3135    2.6743    3.2468 H   0  0  0  0  0  0  0  0  0  0  0  0
   -3.6566    0.6854    1.5738 H   0  0  0  0  0  0  0  0  0  0  0  0
    7.6958   -8.4949   -7.9025 N   0  0  0  0  0  0  0  0  0  0  0  0
    8.2283   -9.4379   -8.1236 N   0  0  0  0  0  0  0  0  0  0  0  0
   -2.8388    3.1021    4.3804 Cl  0  0  0  0  0  0  0  0  0  0  0  0
   -3.0693   -0.5441   -0.8335 O   0  0  0  0  0  0  0  0  0  0  0  0
   -4.3023   -0.9703   -0.2695 C   0  0  0  0  0  0  0  0  0  0  0  0
   -4.7133   -1.7015   -0.9670 H   0  0  0  0  0  0  0  0  0  0  0  0
   -5.0062   -0.1353   -0.1626 H   0  0  0  0  0  0  0  0  0  0  0  0
   -4.1547   -1.4461    0.7083 H   0  0  0  0  0  0  0  0  0  0  0  0
  1  2  2  0  0  0  0
  1  6  1  0  0  0  0
  2  3  1  0  0  0  0
  3  4  2  0  0  0  0
  5  4  1  0  0  0  0
  5 10  1  0  0  0  0
  6  5  2  0  0  0  0
  7  1  1  0  0  0  0
  8  2  1  0  0  0  0
  9 13  1  0  0  0  0
 12 11  3  0  0  0  0
 14 15  1  0  0  0  0
 14  6  1  0  0  0  0
 15 17  1  0  0  0  0
 15 18  1  0  0  0  0
 16 15  1  0  0  0  0
M  RAD  2   3   2   4   2
M  END
