Coordinates from ORCA-job 4-MeO-Ph-N2-Cl-B3LYPG-6-31G_dp-MTMO-d009-169-n800
 OpenBabel09051908443D

 18 16  0  0  0  0  0  0  0  0999 V2000
   -1.1271   -1.5010   -1.2298 C   0  0  0  0  0  0  0  0  0  0  0  0
    0.1977   -1.0392   -1.2065 C   0  0  0  0  0  0  0  0  0  0  0  0
    0.2351    0.1018   -0.4371 C   0  0  0  0  0  0  0  0  0  0  0  0
   -0.6244    0.7555    0.2012 C   0  0  0  0  0  0  0  0  0  0  0  0
   -1.9632    0.3394    0.2105 C   0  0  0  0  0  0  0  0  0  0  0  0
   -2.1814   -0.8369   -0.5449 C   0  0  0  0  0  0  0  0  0  0  0  0
   -1.3773   -2.3990   -1.7862 H   0  0  0  0  0  0  0  0  0  0  0  0
    1.0154   -1.5262   -1.7215 H   0  0  0  0  0  0  0  0  0  0  0  0
   -0.2913    2.3152    1.2456 H   0  0  0  0  0  0  0  0  0  0  0  0
   -2.7567    0.8540    0.7369 H   0  0  0  0  0  0  0  0  0  0  0  0
    3.6176   -1.3127   -2.5751 N   0  0  0  0  0  0  0  0  0  0  0  0
    4.6341   -1.1030   -2.9542 N   0  0  0  0  0  0  0  0  0  0  0  0
   -0.2629    3.3917    2.0139 Cl  0  0  0  0  0  0  0  0  0  0  0  0
   -3.4004   -1.4304   -0.6828 O   0  0  0  0  0  0  0  0  0  0  0  0
   -4.5179   -0.8325   -0.0398 C   0  0  0  0  0  0  0  0  0  0  0  0
   -5.3754   -1.4603   -0.2852 H   0  0  0  0  0  0  0  0  0  0  0  0
   -4.6974    0.1852   -0.4086 H   0  0  0  0  0  0  0  0  0  0  0  0
   -4.3881   -0.8043    1.0496 H   0  0  0  0  0  0  0  0  0  0  0  0
  1  2  2  0  0  0  0
  1  6  1  0  0  0  0
  2  3  1  0  0  0  0
  3  4  2  0  0  0  0
  4  5  1  0  0  0  0
  5 10  1  0  0  0  0
  6  5  2  0  0  0  0
  7  1  1  0  0  0  0
  8  2  1  0  0  0  0
  9 13  1  0  0  0  0
 12 11  3  0  0  0  0
 14  6  1  0  0  0  0
 14 15  1  0  0  0  0
 15 18  1  0  0  0  0
 16 15  1  0  0  0  0
 17 15  1  0  0  0  0
M  RAD  2   3   2   4   2
M  END
