Coordinates from ORCA-job 4-MeO-Ph-N2-Cl-B3LYPG-6-31G_dp-MTMO-d009-169-n800
 OpenBabel09051908453D

 18 16  0  0  0  0  0  0  0  0999 V2000
   -0.8654    0.5020   -0.9981 C   0  0  0  0  0  0  0  0  0  0  0  0
    0.0279    1.4359   -0.4523 C   0  0  0  0  0  0  0  0  0  0  0  0
   -0.4995    1.8895    0.7362 C   0  0  0  0  0  0  0  0  0  0  0  0
   -1.5523    1.6401    1.3701 C   0  0  0  0  0  0  0  0  0  0  0  0
   -2.4814    0.7161    0.8739 C   0  0  0  0  0  0  0  0  0  0  0  0
   -2.0855    0.1472   -0.3598 C   0  0  0  0  0  0  0  0  0  0  0  0
   -0.6353    0.0215   -1.9438 H   0  0  0  0  0  0  0  0  0  0  0  0
    0.9607    1.7171   -0.9238 H   0  0  0  0  0  0  0  0  0  0  0  0
   -2.0581    2.4417    3.0411 H   0  0  0  0  0  0  0  0  0  0  0  0
   -3.4076    0.4559    1.3694 H   0  0  0  0  0  0  0  0  0  0  0  0
    5.7035   -6.6305   -6.2691 N   0  0  0  0  0  0  0  0  0  0  0  0
    6.2368   -7.5731   -6.4900 N   0  0  0  0  0  0  0  0  0  0  0  0
   -2.5816    2.8719    4.1749 Cl  0  0  0  0  0  0  0  0  0  0  0  0
   -2.8241   -0.7758   -1.0372 O   0  0  0  0  0  0  0  0  0  0  0  0
   -4.0584   -1.1983   -0.4732 C   0  0  0  0  0  0  0  0  0  0  0  0
   -4.4714   -1.9285   -1.1706 H   0  0  0  0  0  0  0  0  0  0  0  0
   -4.7598   -0.3613   -0.3665 H   0  0  0  0  0  0  0  0  0  0  0  0
   -3.9122   -1.6744    0.5047 H   0  0  0  0  0  0  0  0  0  0  0  0
  1  2  2  0  0  0  0
  1  6  1  0  0  0  0
  2  3  1  0  0  0  0
  3  4  2  0  0  0  0
  5 10  1  0  0  0  0
  5  4  1  0  0  0  0
  6  5  2  0  0  0  0
  7  1  1  0  0  0  0
  8  2  1  0  0  0  0
  9 13  1  0  0  0  0
 12 11  3  0  0  0  0
 14 15  1  0  0  0  0
 14  6  1  0  0  0  0
 15 17  1  0  0  0  0
 15 18  1  0  0  0  0
 16 15  1  0  0  0  0
M  RAD  2   3   2   4   2
M  END
