Coordinates from ORCA-job 4-MeO-Ph-N2-Cl-B3LYPG-6-31G_dp-MTMO-d009-169-n800
 OpenBabel09051908443D

 18 16  0  0  0  0  0  0  0  0999 V2000
   -1.4234   -1.7870   -1.5115 C   0  0  0  0  0  0  0  0  0  0  0  0
   -0.0575   -1.5340   -1.7072 C   0  0  0  0  0  0  0  0  0  0  0  0
    0.2728   -0.4197   -0.9754 C   0  0  0  0  0  0  0  0  0  0  0  0
   -0.3479    0.3694   -0.2190 C   0  0  0  0  0  0  0  0  0  0  0  0
   -1.7181    0.1541    0.0042 C   0  0  0  0  0  0  0  0  0  0  0  0
   -2.2369   -0.9696   -0.6800 C   0  0  0  0  0  0  0  0  0  0  0  0
   -1.8944   -2.6325   -2.0031 H   0  0  0  0  0  0  0  0  0  0  0  0
    0.5858   -2.1386   -2.3336 H   0  0  0  0  0  0  0  0  0  0  0  0
    0.3604    1.8223    0.6836 H   0  0  0  0  0  0  0  0  0  0  0  0
   -2.3292    0.7856    0.6372 H   0  0  0  0  0  0  0  0  0  0  0  0
    2.9772   -0.1056   -1.4424 N   0  0  0  0  0  0  0  0  0  0  0  0
    3.8045    0.5412   -1.0974 N   0  0  0  0  0  0  0  0  0  0  0  0
    0.7302    2.8879    1.3905 Cl  0  0  0  0  0  0  0  0  0  0  0  0
   -3.5383   -1.3656   -0.6072 O   0  0  0  0  0  0  0  0  0  0  0  0
   -4.4273   -0.6137    0.2074 C   0  0  0  0  0  0  0  0  0  0  0  0
   -5.3972   -1.1059    0.1255 H   0  0  0  0  0  0  0  0  0  0  0  0
   -4.5162    0.4222   -0.1432 H   0  0  0  0  0  0  0  0  0  0  0  0
   -4.1081   -0.6132    1.2574 H   0  0  0  0  0  0  0  0  0  0  0  0
  1  6  1  0  0  0  0
  2  1  2  0  0  0  0
  2  3  1  0  0  0  0
  3  4  2  0  0  0  0
  4  5  1  0  0  0  0
  5 10  1  0  0  0  0
  6 14  1  0  0  0  0
  6  5  2  0  0  0  0
  7  1  1  0  0  0  0
  8  2  1  0  0  0  0
  9 13  1  0  0  0  0
 11 12  3  0  0  0  0
 14 15  1  0  0  0  0
 15 18  1  0  0  0  0
 16 15  1  0  0  0  0
 17 15  1  0  0  0  0
M  RAD  2   3   2   4   2
M  END
