Coordinates from ORCA-job 4-MeO-Ph-N2-Cl-B3LYPG-6-31G_dp-MTMO-d009-169-n800
 OpenBabel09051908453D

 18 16  0  0  0  0  0  0  0  0999 V2000
   -1.0647    0.6898   -0.8515 C   0  0  0  0  0  0  0  0  0  0  0  0
   -0.1692    1.6217   -0.3059 C   0  0  0  0  0  0  0  0  0  0  0  0
   -0.6893    2.0678    0.8886 C   0  0  0  0  0  0  0  0  0  0  0  0
   -1.7380    1.8129    1.5272 C   0  0  0  0  0  0  0  0  0  0  0  0
   -2.6692    0.8908    1.0319 C   0  0  0  0  0  0  0  0  0  0  0  0
   -2.2802    0.3295   -0.2077 C   0  0  0  0  0  0  0  0  0  0  0  0
   -0.8399    0.2151   -1.8013 H   0  0  0  0  0  0  0  0  0  0  0  0
    0.7604    1.9068   -0.7817 H   0  0  0  0  0  0  0  0  0  0  0  0
   -2.2380    2.6039    3.2055 H   0  0  0  0  0  0  0  0  0  0  0  0
   -3.5919    0.6266    1.5319 H   0  0  0  0  0  0  0  0  0  0  0  0
    7.2364   -8.0583   -7.5086 N   0  0  0  0  0  0  0  0  0  0  0  0
    7.7708   -9.0008   -7.7273 N   0  0  0  0  0  0  0  0  0  0  0  0
   -2.7561    3.0273    4.3442 Cl  0  0  0  0  0  0  0  0  0  0  0  0
   -3.0219   -0.5905   -0.8857 O   0  0  0  0  0  0  0  0  0  0  0  0
   -4.2519   -1.0181   -0.3162 C   0  0  0  0  0  0  0  0  0  0  0  0
   -4.6683   -1.7449   -1.0151 H   0  0  0  0  0  0  0  0  0  0  0  0
   -4.9539   -0.1828   -0.2002 H   0  0  0  0  0  0  0  0  0  0  0  0
   -4.0987   -1.4995    0.6580 H   0  0  0  0  0  0  0  0  0  0  0  0
  1  2  2  0  0  0  0
  1  6  1  0  0  0  0
  2  3  1  0  0  0  0
  3  4  2  0  0  0  0
  5  4  1  0  0  0  0
  5 10  1  0  0  0  0
  6  5  2  0  0  0  0
  7  1  1  0  0  0  0
  8  2  1  0  0  0  0
  9 13  1  0  0  0  0
 12 11  3  0  0  0  0
 14 15  1  0  0  0  0
 14  6  1  0  0  0  0
 15 17  1  0  0  0  0
 15 18  1  0  0  0  0
 16 15  1  0  0  0  0
M  RAD  2   3   2   4   2
M  END
