Coordinates from ORCA-job 4-MeO-Ph-N2-Cl-B3LYPG-6-31G_dp-MTMO-d009-169-n800
 OpenBabel09051908453D

 18 16  0  0  0  0  0  0  0  0999 V2000
   -0.7472    0.3808   -1.0778 C   0  0  0  0  0  0  0  0  0  0  0  0
    0.1473    1.3145   -0.5336 C   0  0  0  0  0  0  0  0  0  0  0  0
   -0.3853    1.7800    0.6479 C   0  0  0  0  0  0  0  0  0  0  0  0
   -1.4433    1.5408    1.2772 C   0  0  0  0  0  0  0  0  0  0  0  0
   -2.3738    0.6176    0.7821 C   0  0  0  0  0  0  0  0  0  0  0  0
   -1.9730    0.0371   -0.4446 C   0  0  0  0  0  0  0  0  0  0  0  0
   -0.5136   -0.1081   -2.0183 H   0  0  0  0  0  0  0  0  0  0  0  0
    1.0845    1.5874   -1.0013 H   0  0  0  0  0  0  0  0  0  0  0  0
   -1.9546    2.3568    2.9392 H   0  0  0  0  0  0  0  0  0  0  0  0
   -3.3045    0.3659    1.2737 H   0  0  0  0  0  0  0  0  0  0  0  0
    4.8221   -5.7933   -5.5632 N   0  0  0  0  0  0  0  0  0  0  0  0
    5.3540   -6.7364   -5.7854 N   0  0  0  0  0  0  0  0  0  0  0  0
   -2.4823    2.7979    4.0669 Cl  0  0  0  0  0  0  0  0  0  0  0  0
   -2.7121   -0.8874   -1.1194 O   0  0  0  0  0  0  0  0  0  0  0  0
   -3.9523   -1.2989   -0.5603 C   0  0  0  0  0  0  0  0  0  0  0  0
   -4.3646   -2.0322   -1.2547 H   0  0  0  0  0  0  0  0  0  0  0  0
   -4.6498   -0.4572   -0.4648 H   0  0  0  0  0  0  0  0  0  0  0  0
   -3.8151   -1.7680    0.4222 H   0  0  0  0  0  0  0  0  0  0  0  0
  1  2  2  0  0  0  0
  1  6  1  0  0  0  0
  2  3  1  0  0  0  0
  3  4  2  0  0  0  0
  5 10  1  0  0  0  0
  5  4  1  0  0  0  0
  6  5  2  0  0  0  0
  7  1  1  0  0  0  0
  8  2  1  0  0  0  0
  9 13  1  0  0  0  0
 12 11  3  0  0  0  0
 14 15  1  0  0  0  0
 14  6  1  0  0  0  0
 15 17  1  0  0  0  0
 15 18  1  0  0  0  0
 16 15  1  0  0  0  0
M  RAD  2   3   2   4   2
M  END
