Coordinates from ORCA-job 4-MeO-Ph-N2-Cl-B3LYPG-6-31G_dp-MTMO-d009-169-n800
 OpenBabel09051908453D

 18 16  0  0  0  0  0  0  0  0999 V2000
   -0.8509    0.4891   -1.0069 C   0  0  0  0  0  0  0  0  0  0  0  0
    0.0417    1.4238   -0.4611 C   0  0  0  0  0  0  0  0  0  0  0  0
   -0.4867    1.8788    0.7265 C   0  0  0  0  0  0  0  0  0  0  0  0
   -1.5403    1.6291    1.3589 C   0  0  0  0  0  0  0  0  0  0  0  0
   -2.4690    0.7047    0.8632 C   0  0  0  0  0  0  0  0  0  0  0  0
   -2.0715    0.1346   -0.3697 C   0  0  0  0  0  0  0  0  0  0  0  0
   -0.6197    0.0078   -1.9519 H   0  0  0  0  0  0  0  0  0  0  0  0
    0.9750    1.7046   -0.9321 H   0  0  0  0  0  0  0  0  0  0  0  0
   -2.0487    2.4321    3.0298 H   0  0  0  0  0  0  0  0  0  0  0  0
   -3.3957    0.4449    1.3582 H   0  0  0  0  0  0  0  0  0  0  0  0
    5.5993   -6.5346   -6.1864 N   0  0  0  0  0  0  0  0  0  0  0  0
    6.1308   -7.4777   -6.4096 N   0  0  0  0  0  0  0  0  0  0  0  0
   -2.5736    2.8631    4.1625 Cl  0  0  0  0  0  0  0  0  0  0  0  0
   -2.8092   -0.7891   -1.0469 O   0  0  0  0  0  0  0  0  0  0  0  0
   -4.0441   -1.2113   -0.4838 C   0  0  0  0  0  0  0  0  0  0  0  0
   -4.4563   -1.9421   -1.1809 H   0  0  0  0  0  0  0  0  0  0  0  0
   -4.7457   -0.3742   -0.3787 H   0  0  0  0  0  0  0  0  0  0  0  0
   -3.8989   -1.6863    0.4947 H   0  0  0  0  0  0  0  0  0  0  0  0
  1  2  2  0  0  0  0
  1  6  1  0  0  0  0
  2  3  1  0  0  0  0
  3  4  2  0  0  0  0
  5 10  1  0  0  0  0
  5  4  1  0  0  0  0
  6  5  2  0  0  0  0
  7  1  1  0  0  0  0
  8  2  1  0  0  0  0
  9 13  1  0  0  0  0
 12 11  3  0  0  0  0
 14 15  1  0  0  0  0
 14  6  1  0  0  0  0
 15 17  1  0  0  0  0
 15 18  1  0  0  0  0
 16 15  1  0  0  0  0
M  RAD  2   3   2   4   2
M  END
