Coordinates from ORCA-job 4-MeO-Ph-N2-Cl-B3LYPG-6-31G_dp-MTMO-d009-169-n800
 OpenBabel09051908443D

 18 16  0  0  0  0  0  0  0  0999 V2000
   -0.6196   -0.5042   -0.6798 C   0  0  0  0  0  0  0  0  0  0  0  0
    0.4115    0.3415   -0.2444 C   0  0  0  0  0  0  0  0  0  0  0  0
   -0.1309    1.2780    0.6079 C   0  0  0  0  0  0  0  0  0  0  0  0
   -1.2917    1.4941    1.0298 C   0  0  0  0  0  0  0  0  0  0  0  0
   -2.3618    0.6831    0.6311 C   0  0  0  0  0  0  0  0  0  0  0  0
   -1.9684   -0.3448   -0.2592 C   0  0  0  0  0  0  0  0  0  0  0  0
   -0.3999   -1.3186   -1.3633 H   0  0  0  0  0  0  0  0  0  0  0  0
    1.4431    0.2343   -0.5556 H   0  0  0  0  0  0  0  0  0  0  0  0
   -1.8000    2.9160    2.2192 H   0  0  0  0  0  0  0  0  0  0  0  0
   -3.3847    0.8165    0.9595 H   0  0  0  0  0  0  0  0  0  0  0  0
    4.6818   -4.5767   -5.3994 N   0  0  0  0  0  0  0  0  0  0  0  0
    5.2289   -5.1668   -6.1571 N   0  0  0  0  0  0  0  0  0  0  0  0
   -2.3531    3.8124    3.0158 Cl  0  0  0  0  0  0  0  0  0  0  0  0
   -2.8311   -1.2587   -0.7849 O   0  0  0  0  0  0  0  0  0  0  0  0
   -4.2023   -1.1796   -0.4199 C   0  0  0  0  0  0  0  0  0  0  0  0
   -4.7005   -1.9922   -0.9498 H   0  0  0  0  0  0  0  0  0  0  0  0
   -4.6455   -0.2232   -0.7245 H   0  0  0  0  0  0  0  0  0  0  0  0
   -4.3396   -1.3137    0.6605 H   0  0  0  0  0  0  0  0  0  0  0  0
  1  6  2  0  0  0  0
  1  2  1  0  0  0  0
  2  3  2  0  0  0  0
  3  4  1  0  0  0  0
  5 10  1  0  0  0  0
  5  4  2  0  0  0  0
  6  5  1  0  0  0  0
  7  1  1  0  0  0  0
  8  2  1  0  0  0  0
  9 13  1  0  0  0  0
 12 11  3  0  0  0  0
 14 15  1  0  0  0  0
 14  6  1  0  0  0  0
 15 18  1  0  0  0  0
 16 15  1  0  0  0  0
 17 15  1  0  0  0  0
M  RAD  2   3   2   4   2
M  END
