Coordinates from ORCA-job 4-MeO-Ph-N2-Cl-B3LYPG-6-31G_dp-MTMO-d009-169-n800
 OpenBabel09051908453D

 18 16  0  0  0  0  0  0  0  0999 V2000
   -0.9962    0.6233   -0.9158 C   0  0  0  0  0  0  0  0  0  0  0  0
   -0.0981    1.5528   -0.3704 C   0  0  0  0  0  0  0  0  0  0  0  0
   -0.6144    1.9963    0.8266 C   0  0  0  0  0  0  0  0  0  0  0  0
   -1.6614    1.7415    1.4681 C   0  0  0  0  0  0  0  0  0  0  0  0
   -2.5949    0.8214    0.9727 C   0  0  0  0  0  0  0  0  0  0  0  0
   -2.2103    0.2629   -0.2693 C   0  0  0  0  0  0  0  0  0  0  0  0
   -0.7748    0.1507   -1.8675 H   0  0  0  0  0  0  0  0  0  0  0  0
    0.8304    1.8381   -0.8482 H   0  0  0  0  0  0  0  0  0  0  0  0
   -2.1553    2.5288    3.1488 H   0  0  0  0  0  0  0  0  0  0  0  0
   -3.5165    0.5570    1.4746 H   0  0  0  0  0  0  0  0  0  0  0  0
    6.6597   -7.5132   -7.0237 N   0  0  0  0  0  0  0  0  0  0  0  0
    7.1929   -8.4560   -7.2437 N   0  0  0  0  0  0  0  0  0  0  0  0
   -2.6699    2.9500    4.2901 Cl  0  0  0  0  0  0  0  0  0  0  0  0
   -2.9550   -0.6546   -0.9475 O   0  0  0  0  0  0  0  0  0  0  0  0
   -4.1838   -1.0823   -0.3755 C   0  0  0  0  0  0  0  0  0  0  0  0
   -4.6031   -1.8068   -1.0751 H   0  0  0  0  0  0  0  0  0  0  0  0
   -4.8845   -0.2464   -0.2554 H   0  0  0  0  0  0  0  0  0  0  0  0
   -4.0284   -1.5663    0.5970 H   0  0  0  0  0  0  0  0  0  0  0  0
  1  2  2  0  0  0  0
  1  6  1  0  0  0  0
  2  3  1  0  0  0  0
  3  4  2  0  0  0  0
  5  4  1  0  0  0  0
  5 10  1  0  0  0  0
  6  5  2  0  0  0  0
  7  1  1  0  0  0  0
  8  2  1  0  0  0  0
  9 13  1  0  0  0  0
 12 11  3  0  0  0  0
 14 15  1  0  0  0  0
 14  6  1  0  0  0  0
 15 17  1  0  0  0  0
 15 18  1  0  0  0  0
 16 15  1  0  0  0  0
M  RAD  2   3   2   4   2
M  END
