Coordinates from ORCA-job 4-MeO-Ph-N2-Cl-B3LYPG-6-31G_dp-MTMO-d009-169-n800
 OpenBabel09051908443D

 18 16  0  0  0  0  0  0  0  0999 V2000
   -1.4193   -1.7868   -1.5122 C   0  0  0  0  0  0  0  0  0  0  0  0
   -0.0534   -1.5338   -1.7075 C   0  0  0  0  0  0  0  0  0  0  0  0
    0.2769   -0.4198   -0.9755 C   0  0  0  0  0  0  0  0  0  0  0  0
   -0.3428    0.3704   -0.2188 C   0  0  0  0  0  0  0  0  0  0  0  0
   -1.7132    0.1542    0.0034 C   0  0  0  0  0  0  0  0  0  0  0  0
   -2.2326   -0.9692   -0.6807 C   0  0  0  0  0  0  0  0  0  0  0  0
   -1.8904   -2.6320   -2.0039 H   0  0  0  0  0  0  0  0  0  0  0  0
    0.5905   -2.1380   -2.3337 H   0  0  0  0  0  0  0  0  0  0  0  0
    0.3637    1.8195    0.6812 H   0  0  0  0  0  0  0  0  0  0  0  0
   -2.3243    0.7857    0.6365 H   0  0  0  0  0  0  0  0  0  0  0  0
    2.9418   -0.1080   -1.4354 N   0  0  0  0  0  0  0  0  0  0  0  0
    3.7683    0.5402   -1.0909 N   0  0  0  0  0  0  0  0  0  0  0  0
    0.7359    2.8856    1.3876 Cl  0  0  0  0  0  0  0  0  0  0  0  0
   -3.5340   -1.3648   -0.6081 O   0  0  0  0  0  0  0  0  0  0  0  0
   -4.4228   -0.6126    0.2066 C   0  0  0  0  0  0  0  0  0  0  0  0
   -5.3929   -1.1044    0.1246 H   0  0  0  0  0  0  0  0  0  0  0  0
   -4.5113    0.4234   -0.1439 H   0  0  0  0  0  0  0  0  0  0  0  0
   -4.1037   -0.6123    1.2566 H   0  0  0  0  0  0  0  0  0  0  0  0
  1  6  1  0  0  0  0
  2  1  2  0  0  0  0
  2  3  1  0  0  0  0
  3  4  2  0  0  0  0
  4  5  1  0  0  0  0
  5 10  1  0  0  0  0
  6 14  1  0  0  0  0
  6  5  2  0  0  0  0
  7  1  1  0  0  0  0
  8  2  1  0  0  0  0
  9 13  1  0  0  0  0
 11 12  3  0  0  0  0
 14 15  1  0  0  0  0
 15 18  1  0  0  0  0
 16 15  1  0  0  0  0
 17 15  1  0  0  0  0
M  RAD  2   3   2   4   2
M  END
