Coordinates from ORCA-job 4-MeO-Ph-N2-Cl-B3LYPG-6-31G_dp-MTMO-d009-169-n800
 OpenBabel09051908443D

 18 16  0  0  0  0  0  0  0  0999 V2000
   -0.6647   -0.7290   -0.7850 C   0  0  0  0  0  0  0  0  0  0  0  0
    0.4367    0.0606   -0.4226 C   0  0  0  0  0  0  0  0  0  0  0  0
   -0.0084    1.0635    0.4104 C   0  0  0  0  0  0  0  0  0  0  0  0
   -1.1346    1.3734    0.8663 C   0  0  0  0  0  0  0  0  0  0  0  0
   -2.2709    0.6221    0.5404 C   0  0  0  0  0  0  0  0  0  0  0  0
   -1.9823   -0.4625   -0.3219 C   0  0  0  0  0  0  0  0  0  0  0  0
   -0.5265   -1.5825   -1.4417 H   0  0  0  0  0  0  0  0  0  0  0  0
    1.4458   -0.1288   -0.7663 H   0  0  0  0  0  0  0  0  0  0  0  0
   -1.4949    2.8619    2.0278 H   0  0  0  0  0  0  0  0  0  0  0  0
   -3.2686    0.8364    0.9013 H   0  0  0  0  0  0  0  0  0  0  0  0
    4.3251   -3.8409   -4.7418 N   0  0  0  0  0  0  0  0  0  0  0  0
    4.9063   -4.3690   -5.5196 N   0  0  0  0  0  0  0  0  0  0  0  0
   -1.9488    3.8187    2.8167 Cl  0  0  0  0  0  0  0  0  0  0  0  0
   -2.9239   -1.3347   -0.7787 O   0  0  0  0  0  0  0  0  0  0  0  0
   -4.2721   -1.1465   -0.3704 C   0  0  0  0  0  0  0  0  0  0  0  0
   -4.8438   -1.9422   -0.8492 H   0  0  0  0  0  0  0  0  0  0  0  0
   -4.6600   -0.1741   -0.6985 H   0  0  0  0  0  0  0  0  0  0  0  0
   -4.3781   -1.2290    0.7187 H   0  0  0  0  0  0  0  0  0  0  0  0
  1  2  2  0  0  0  0
  1  6  1  0  0  0  0
  2  3  1  0  0  0  0
  3  4  2  0  0  0  0
  5  4  1  0  0  0  0
  5 10  1  0  0  0  0
  6  5  2  0  0  0  0
  7  1  1  0  0  0  0
  8  2  1  0  0  0  0
  9 13  1  0  0  0  0
 12 11  3  0  0  0  0
 14 15  1  0  0  0  0
 14  6  1  0  0  0  0
 15 18  1  0  0  0  0
 16 15  1  0  0  0  0
 17 15  1  0  0  0  0
M  RAD  2   3   2   4   2
M  END
