Coordinates from ORCA-job 4-MeO-Ph-N2-Cl-B3LYPG-6-31G_dp-MTMO-d009-169-n800
 OpenBabel09051908443D

 18 16  0  0  0  0  0  0  0  0999 V2000
   -1.3431   -1.6293   -1.4310 C   0  0  0  0  0  0  0  0  0  0  0  0
    0.0028   -1.2554   -1.5608 C   0  0  0  0  0  0  0  0  0  0  0  0
    0.2068   -0.1279   -0.7981 C   0  0  0  0  0  0  0  0  0  0  0  0
   -0.5277    0.5760   -0.0642 C   0  0  0  0  0  0  0  0  0  0  0  0
   -1.8809    0.2484    0.1004 C   0  0  0  0  0  0  0  0  0  0  0  0
   -2.2639   -0.9034   -0.6265 C   0  0  0  0  0  0  0  0  0  0  0  0
   -1.7155   -2.5038   -1.9555 H   0  0  0  0  0  0  0  0  0  0  0  0
    0.7226   -1.7923   -2.1652 H   0  0  0  0  0  0  0  0  0  0  0  0
    0.0328    2.1000    0.9356 H   0  0  0  0  0  0  0  0  0  0  0  0
   -2.5723    0.8096    0.7161 H   0  0  0  0  0  0  0  0  0  0  0  0
    3.6092   -0.6961   -1.9709 N   0  0  0  0  0  0  0  0  0  0  0  0
    4.6478   -0.3322   -1.8702 N   0  0  0  0  0  0  0  0  0  0  0  0
    0.2314    3.1646    1.6951 Cl  0  0  0  0  0  0  0  0  0  0  0  0
   -3.5272   -1.4134   -0.6217 O   0  0  0  0  0  0  0  0  0  0  0  0
   -4.5180   -0.7541    0.1546 C   0  0  0  0  0  0  0  0  0  0  0  0
   -5.4361   -1.3265    0.0172 H   0  0  0  0  0  0  0  0  0  0  0  0
   -4.6789    0.2758   -0.1885 H   0  0  0  0  0  0  0  0  0  0  0  0
   -4.2533   -0.7425    1.2197 H   0  0  0  0  0  0  0  0  0  0  0  0
  1  6  1  0  0  0  0
  2  1  2  0  0  0  0
  2  3  1  0  0  0  0
  3  4  2  0  0  0  0
  4  5  1  0  0  0  0
  5 10  1  0  0  0  0
  6 14  1  0  0  0  0
  6  5  2  0  0  0  0
  7  1  1  0  0  0  0
  8  2  1  0  0  0  0
  9 13  1  0  0  0  0
 11 12  3  0  0  0  0
 14 15  1  0  0  0  0
 15 18  1  0  0  0  0
 16 15  1  0  0  0  0
 17 15  1  0  0  0  0
M  RAD  2   3   2   4   2
M  END
