Coordinates from ORCA-job 4-MeO-Ph-N2-Cl-B3LYPG-6-31G_dp-MTMO-d009-169-n800
 OpenBabel09051908443D

 18 16  0  0  0  0  0  0  0  0999 V2000
   -1.0350   -1.3717   -1.2172 C   0  0  0  0  0  0  0  0  0  0  0  0
    0.2637   -0.8435   -1.1531 C   0  0  0  0  0  0  0  0  0  0  0  0
    0.2260    0.2749   -0.3516 C   0  0  0  0  0  0  0  0  0  0  0  0
   -0.6781    0.8668    0.2858 C   0  0  0  0  0  0  0  0  0  0  0  0
   -1.9933    0.3820    0.2548 C   0  0  0  0  0  0  0  0  0  0  0  0
   -2.1354   -0.7821   -0.5370 C   0  0  0  0  0  0  0  0  0  0  0  0
   -1.2270   -2.2651   -1.8032 H   0  0  0  0  0  0  0  0  0  0  0  0
    1.1142   -1.2750   -1.6650 H   0  0  0  0  0  0  0  0  0  0  0  0
   -0.4524    2.4132    1.3718 H   0  0  0  0  0  0  0  0  0  0  0  0
   -2.8228    0.8405    0.7775 H   0  0  0  0  0  0  0  0  0  0  0  0
    3.5600   -1.6350   -2.7785 N   0  0  0  0  0  0  0  0  0  0  0  0
    4.5836   -1.6536   -3.1941 N   0  0  0  0  0  0  0  0  0  0  0  0
   -0.4987    3.4704    2.1663 Cl  0  0  0  0  0  0  0  0  0  0  0  0
   -3.3192   -1.4329   -0.7169 O   0  0  0  0  0  0  0  0  0  0  0  0
   -4.4783   -0.9122   -0.0804 C   0  0  0  0  0  0  0  0  0  0  0  0
   -5.2977   -1.5742   -0.3627 H   0  0  0  0  0  0  0  0  0  0  0  0
   -4.7018    0.1062   -0.4223 H   0  0  0  0  0  0  0  0  0  0  0  0
   -4.3715   -0.9113    1.0119 H   0  0  0  0  0  0  0  0  0  0  0  0
  1  2  2  0  0  0  0
  1  6  1  0  0  0  0
  2  3  1  0  0  0  0
  3  4  2  0  0  0  0
  5  4  1  0  0  0  0
  5 10  1  0  0  0  0
  6  5  2  0  0  0  0
  7  1  1  0  0  0  0
  8  2  1  0  0  0  0
  9 13  1  0  0  0  0
 12 11  3  0  0  0  0
 14  6  1  0  0  0  0
 14 15  1  0  0  0  0
 15 18  1  0  0  0  0
 16 15  1  0  0  0  0
 17 15  1  0  0  0  0
M  RAD  2   3   2   4   2
M  END
