Coordinates from ORCA-job 4-MeO-Ph-N2-Cl-B3LYPG-6-31G_dp-MTMO-d009-169-n800
 OpenBabel09051908453D

 18 16  0  0  0  0  0  0  0  0999 V2000
   -0.8040    0.4388   -1.0567 C   0  0  0  0  0  0  0  0  0  0  0  0
    0.0933    1.3696   -0.5120 C   0  0  0  0  0  0  0  0  0  0  0  0
   -0.4291    1.8230    0.6788 C   0  0  0  0  0  0  0  0  0  0  0  0
   -1.4809    1.5744    1.3146 C   0  0  0  0  0  0  0  0  0  0  0  0
   -2.4142    0.6539    0.8203 C   0  0  0  0  0  0  0  0  0  0  0  0
   -2.0231    0.0859   -0.4156 C   0  0  0  0  0  0  0  0  0  0  0  0
   -0.5779   -0.0408   -2.0038 H   0  0  0  0  0  0  0  0  0  0  0  0
    1.0255    1.6491   -0.9860 H   0  0  0  0  0  0  0  0  0  0  0  0
   -1.9823    2.3742    2.9892 H   0  0  0  0  0  0  0  0  0  0  0  0
   -3.3396    0.3954    1.3183 H   0  0  0  0  0  0  0  0  0  0  0  0
    5.1863   -6.1340   -5.8297 N   0  0  0  0  0  0  0  0  0  0  0  0
    5.7180   -7.0773   -6.0512 N   0  0  0  0  0  0  0  0  0  0  0  0
   -2.5028    2.8031    4.1247 Cl  0  0  0  0  0  0  0  0  0  0  0  0
   -2.7659   -0.8341   -1.0923 O   0  0  0  0  0  0  0  0  0  0  0  0
   -3.9997   -1.2542   -0.5255 C   0  0  0  0  0  0  0  0  0  0  0  0
   -4.4167   -1.9821   -1.2228 H   0  0  0  0  0  0  0  0  0  0  0  0
   -4.6986   -0.4154   -0.4155 H   0  0  0  0  0  0  0  0  0  0  0  0
   -3.8521   -1.7321    0.4513 H   0  0  0  0  0  0  0  0  0  0  0  0
  1  2  2  0  0  0  0
  1  6  1  0  0  0  0
  2  3  1  0  0  0  0
  3  4  2  0  0  0  0
  5  4  1  0  0  0  0
  5 10  1  0  0  0  0
  6  5  2  0  0  0  0
  7  1  1  0  0  0  0
  8  2  1  0  0  0  0
  9 13  1  0  0  0  0
 12 11  3  0  0  0  0
 14 15  1  0  0  0  0
 14  6  1  0  0  0  0
 15 17  1  0  0  0  0
 15 18  1  0  0  0  0
 16 15  1  0  0  0  0
M  RAD  2   3   2   4   2
M  END
