Coordinates from ORCA-job 4-MeO-Ph-N2-Cl-B3LYPG-6-31G_dp-MTMO-d009-169-n800
 OpenBabel09051908453D

 18 16  0  0  0  0  0  0  0  0999 V2000
   -0.8696    0.5039   -1.0100 C   0  0  0  0  0  0  0  0  0  0  0  0
    0.0275    1.4345   -0.4647 C   0  0  0  0  0  0  0  0  0  0  0  0
   -0.4925    1.8830    0.7289 C   0  0  0  0  0  0  0  0  0  0  0  0
   -1.5422    1.6308    1.3670 C   0  0  0  0  0  0  0  0  0  0  0  0
   -2.4750    0.7101    0.8720 C   0  0  0  0  0  0  0  0  0  0  0  0
   -2.0863    0.1468   -0.3667 C   0  0  0  0  0  0  0  0  0  0  0  0
   -0.6451    0.0277   -1.9592 H   0  0  0  0  0  0  0  0  0  0  0  0
    0.9580    1.7171   -0.9403 H   0  0  0  0  0  0  0  0  0  0  0  0
   -2.0413    2.4245    3.0444 H   0  0  0  0  0  0  0  0  0  0  0  0
   -3.3986    0.4484    1.3717 H   0  0  0  0  0  0  0  0  0  0  0  0
    5.6830   -6.6034   -6.2330 N   0  0  0  0  0  0  0  0  0  0  0  0
    6.2170   -7.5461   -6.4517 N   0  0  0  0  0  0  0  0  0  0  0  0
   -2.5598    2.8495    4.1824 Cl  0  0  0  0  0  0  0  0  0  0  0  0
   -2.8294   -0.7724   -1.0443 O   0  0  0  0  0  0  0  0  0  0  0  0
   -4.0607   -1.1967   -0.4754 C   0  0  0  0  0  0  0  0  0  0  0  0
   -4.4782   -1.9233   -1.1739 H   0  0  0  0  0  0  0  0  0  0  0  0
   -4.7610   -0.3597   -0.3608 H   0  0  0  0  0  0  0  0  0  0  0  0
   -3.9094   -1.6775    0.4994 H   0  0  0  0  0  0  0  0  0  0  0  0
  1  2  2  0  0  0  0
  1  6  1  0  0  0  0
  2  3  1  0  0  0  0
  3  4  2  0  0  0  0
  5  4  1  0  0  0  0
  5 10  1  0  0  0  0
  6  5  2  0  0  0  0
  7  1  1  0  0  0  0
  8  2  1  0  0  0  0
  9 13  1  0  0  0  0
 12 11  3  0  0  0  0
 14 15  1  0  0  0  0
 14  6  1  0  0  0  0
 15 17  1  0  0  0  0
 15 18  1  0  0  0  0
 16 15  1  0  0  0  0
M  RAD  2   3   2   4   2
M  END
