Coordinates from ORCA-job 4-MeO-Ph-N2-Cl-B3LYPG-6-31G_dp-MTMO-d009-169-n800
 OpenBabel09051908453D

 18 16  0  0  0  0  0  0  0  0999 V2000
   -0.7183    0.3177   -1.1141 C   0  0  0  0  0  0  0  0  0  0  0  0
    0.1909    1.2404   -0.5753 C   0  0  0  0  0  0  0  0  0  0  0  0
   -0.3319    1.7170    0.6059 C   0  0  0  0  0  0  0  0  0  0  0  0
   -1.3910    1.4948    1.2395 C   0  0  0  0  0  0  0  0  0  0  0  0
   -2.3359    0.5833    0.7497 C   0  0  0  0  0  0  0  0  0  0  0  0
   -1.9470   -0.0067   -0.4763 C   0  0  0  0  0  0  0  0  0  0  0  0
   -0.4942   -0.1773   -2.0537 H   0  0  0  0  0  0  0  0  0  0  0  0
    1.1303    1.4985   -1.0470 H   0  0  0  0  0  0  0  0  0  0  0  0
   -1.8856    2.3200    2.9001 H   0  0  0  0  0  0  0  0  0  0  0  0
   -3.2685    0.3463    1.2453 H   0  0  0  0  0  0  0  0  0  0  0  0
    4.5623   -5.4669   -5.3052 N   0  0  0  0  0  0  0  0  0  0  0  0
    5.0881   -6.4141   -5.5243 N   0  0  0  0  0  0  0  0  0  0  0  0
   -2.4033    2.7708    4.0289 Cl  0  0  0  0  0  0  0  0  0  0  0  0
   -2.7010   -0.9228   -1.1460 O   0  0  0  0  0  0  0  0  0  0  0  0
   -3.9454   -1.3145   -0.5823 C   0  0  0  0  0  0  0  0  0  0  0  0
   -4.3703   -2.0440   -1.2732 H   0  0  0  0  0  0  0  0  0  0  0  0
   -4.6304   -0.4626   -0.4875 H   0  0  0  0  0  0  0  0  0  0  0  0
   -3.8124   -1.7825    0.4014 H   0  0  0  0  0  0  0  0  0  0  0  0
  1  2  2  0  0  0  0
  1  6  1  0  0  0  0
  2  3  1  0  0  0  0
  3  4  2  0  0  0  0
  5  4  1  0  0  0  0
  5 10  1  0  0  0  0
  6  5  2  0  0  0  0
  7  1  1  0  0  0  0
  8  2  1  0  0  0  0
  9 13  1  0  0  0  0
 12 11  3  0  0  0  0
 14 15  1  0  0  0  0
 14  6  1  0  0  0  0
 15 17  1  0  0  0  0
 15 18  1  0  0  0  0
 16 15  1  0  0  0  0
M  RAD  2   3   2   4   2
M  END
