Coordinates from ORCA-job 4-MeO-Ph-N2-Cl-B3LYPG-6-31G_dp-MTMO-d009-169-n800
 OpenBabel09051908443D

 18 16  0  0  0  0  0  0  0  0999 V2000
   -0.6287   -0.5504   -0.6915 C   0  0  0  0  0  0  0  0  0  0  0  0
    0.4165    0.2845   -0.2691 C   0  0  0  0  0  0  0  0  0  0  0  0
   -0.1085    1.2366    0.5769 C   0  0  0  0  0  0  0  0  0  0  0  0
   -1.2641    1.4734    1.0020 C   0  0  0  0  0  0  0  0  0  0  0  0
   -2.3475    0.6741    0.6159 C   0  0  0  0  0  0  0  0  0  0  0  0
   -1.9731   -0.3677   -0.2663 C   0  0  0  0  0  0  0  0  0  0  0  0
   -0.4238   -1.3745   -1.3680 H   0  0  0  0  0  0  0  0  0  0  0  0
    1.4449    0.1594   -0.5838 H   0  0  0  0  0  0  0  0  0  0  0  0
   -1.7457    2.9140    2.1799 H   0  0  0  0  0  0  0  0  0  0  0  0
   -3.3668    0.8253    0.9477 H   0  0  0  0  0  0  0  0  0  0  0  0
    4.6325   -4.4466   -5.3001 N   0  0  0  0  0  0  0  0  0  0  0  0
    5.1882   -5.0242   -6.0612 N   0  0  0  0  0  0  0  0  0  0  0  0
   -2.2810    3.8264    2.9705 Cl  0  0  0  0  0  0  0  0  0  0  0  0
   -2.8512   -1.2740   -0.7795 O   0  0  0  0  0  0  0  0  0  0  0  0
   -4.2195   -1.1716   -0.4095 C   0  0  0  0  0  0  0  0  0  0  0  0
   -4.7317   -1.9817   -0.9297 H   0  0  0  0  0  0  0  0  0  0  0  0
   -4.6501   -0.2118   -0.7211 H   0  0  0  0  0  0  0  0  0  0  0  0
   -4.3540   -1.2938    0.6726 H   0  0  0  0  0  0  0  0  0  0  0  0
  1  2  2  0  0  0  0
  1  6  1  0  0  0  0
  2  3  1  0  0  0  0
  3  4  2  0  0  0  0
  5 10  1  0  0  0  0
  5  4  1  0  0  0  0
  6  5  2  0  0  0  0
  7  1  1  0  0  0  0
  8  2  1  0  0  0  0
  9 13  1  0  0  0  0
 12 11  3  0  0  0  0
 14 15  1  0  0  0  0
 14  6  1  0  0  0  0
 15 18  1  0  0  0  0
 16 15  1  0  0  0  0
 17 15  1  0  0  0  0
M  RAD  2   3   2   4   2
M  END
