Coordinates from ORCA-job 4-MeO-Ph-N2-Cl-B3LYPG-6-31G_dp-MTMO-d009-169-n800
 OpenBabel09051908453D

 18 16  0  0  0  0  0  0  0  0999 V2000
   -1.1469    0.7727   -0.7579 C   0  0  0  0  0  0  0  0  0  0  0  0
   -0.2594    1.7118   -0.2114 C   0  0  0  0  0  0  0  0  0  0  0  0
   -0.7924    2.1668    0.9742 C   0  0  0  0  0  0  0  0  0  0  0  0
   -1.8466    1.9135    1.6041 C   0  0  0  0  0  0  0  0  0  0  0  0
   -2.7706    0.9848    1.1079 C   0  0  0  0  0  0  0  0  0  0  0  0
   -2.3677    0.4143   -0.1231 C   0  0  0  0  0  0  0  0  0  0  0  0
   -0.9115    0.2907   -1.7015 H   0  0  0  0  0  0  0  0  0  0  0  0
    0.6740    1.9957   -0.6805 H   0  0  0  0  0  0  0  0  0  0  0  0
   -2.3619    2.7176    3.2737 H   0  0  0  0  0  0  0  0  0  0  0  0
   -3.6974    0.7220    1.6010 H   0  0  0  0  0  0  0  0  0  0  0  0
    7.9905   -8.7764   -8.1543 N   0  0  0  0  0  0  0  0  0  0  0  0
    8.5229   -9.7193   -8.3759 N   0  0  0  0  0  0  0  0  0  0  0  0
   -2.8911    3.1478    4.4045 Cl  0  0  0  0  0  0  0  0  0  0  0  0
   -3.1000   -0.5135   -0.8007 O   0  0  0  0  0  0  0  0  0  0  0  0
   -4.3344   -0.9398   -0.2398 C   0  0  0  0  0  0  0  0  0  0  0  0
   -4.7419   -1.6735   -0.9366 H   0  0  0  0  0  0  0  0  0  0  0  0
   -5.0397   -0.1054   -0.1377 H   0  0  0  0  0  0  0  0  0  0  0  0
   -4.1896   -1.4126    0.7399 H   0  0  0  0  0  0  0  0  0  0  0  0
  1  2  2  0  0  0  0
  1  6  1  0  0  0  0
  2  3  1  0  0  0  0
  3  4  2  0  0  0  0
  5 10  1  0  0  0  0
  5  4  1  0  0  0  0
  6  5  2  0  0  0  0
  7  1  1  0  0  0  0
  8  2  1  0  0  0  0
  9 13  1  0  0  0  0
 12 11  3  0  0  0  0
 14 15  1  0  0  0  0
 14  6  1  0  0  0  0
 15 17  1  0  0  0  0
 15 18  1  0  0  0  0
 16 15  1  0  0  0  0
M  RAD  2   3   2   4   2
M  END
