Coordinates from ORCA-job 4-MeO-Ph-N2-Cl-B3LYPG-6-31G_dp-MTMO-d009-169-n800
 OpenBabel09051908453D

 18 16  0  0  0  0  0  0  0  0999 V2000
   -1.1608    0.7793   -0.7862 C   0  0  0  0  0  0  0  0  0  0  0  0
   -0.2629    1.7091   -0.2408 C   0  0  0  0  0  0  0  0  0  0  0  0
   -0.7775    2.1494    0.9582 C   0  0  0  0  0  0  0  0  0  0  0  0
   -1.8228    1.8917    1.6012 C   0  0  0  0  0  0  0  0  0  0  0  0
   -2.7559    0.9712    1.1060 C   0  0  0  0  0  0  0  0  0  0  0  0
   -2.3730    0.4157   -0.1379 C   0  0  0  0  0  0  0  0  0  0  0  0
   -0.9406    0.3089   -1.7392 H   0  0  0  0  0  0  0  0  0  0  0  0
    0.6642    1.9967   -0.7199 H   0  0  0  0  0  0  0  0  0  0  0  0
   -2.3143    2.6752    3.2846 H   0  0  0  0  0  0  0  0  0  0  0  0
   -3.6761    0.7044    1.6093 H   0  0  0  0  0  0  0  0  0  0  0  0
    7.9548   -8.7238   -8.0825 N   0  0  0  0  0  0  0  0  0  0  0  0
    8.4880   -9.6668   -8.3019 N   0  0  0  0  0  0  0  0  0  0  0  0
   -2.8278    3.0928    4.4277 Cl  0  0  0  0  0  0  0  0  0  0  0  0
   -3.1176   -0.5015   -0.8164 O   0  0  0  0  0  0  0  0  0  0  0  0
   -4.3445   -0.9324   -0.2427 C   0  0  0  0  0  0  0  0  0  0  0  0
   -4.7641   -1.6562   -0.9428 H   0  0  0  0  0  0  0  0  0  0  0  0
   -5.0464   -0.0980   -0.1194 H   0  0  0  0  0  0  0  0  0  0  0  0
   -4.1862   -1.4181    0.7286 H   0  0  0  0  0  0  0  0  0  0  0  0
  1  2  2  0  0  0  0
  1  6  1  0  0  0  0
  2  3  1  0  0  0  0
  3  4  2  0  0  0  0
  5  4  1  0  0  0  0
  5 10  1  0  0  0  0
  6  5  2  0  0  0  0
  7  1  1  0  0  0  0
  8  2  1  0  0  0  0
  9 13  1  0  0  0  0
 12 11  3  0  0  0  0
 14 15  1  0  0  0  0
 14  6  1  0  0  0  0
 15 17  1  0  0  0  0
 15 18  1  0  0  0  0
 16 15  1  0  0  0  0
M  RAD  2   3   2   4   2
M  END
