Coordinates from ORCA-job 4-MeO-Ph-N2-Cl-B3LYPG-6-31G_dp-MTMO-d009-169-n800
 OpenBabel09051908453D

 18 16  0  0  0  0  0  0  0  0999 V2000
   -0.9111    0.5401   -0.9814 C   0  0  0  0  0  0  0  0  0  0  0  0
   -0.0120    1.4690   -0.4365 C   0  0  0  0  0  0  0  0  0  0  0  0
   -0.5297    1.9159    0.7587 C   0  0  0  0  0  0  0  0  0  0  0  0
   -1.5780    1.6644    1.3993 C   0  0  0  0  0  0  0  0  0  0  0  0
   -2.5124    0.7451    0.9041 C   0  0  0  0  0  0  0  0  0  0  0  0
   -2.1269    0.1833   -0.3362 C   0  0  0  0  0  0  0  0  0  0  0  0
   -0.6889    0.0652   -1.9318 H   0  0  0  0  0  0  0  0  0  0  0  0
    0.9178    1.7517   -0.9132 H   0  0  0  0  0  0  0  0  0  0  0  0
   -2.0745    2.4555    3.0766 H   0  0  0  0  0  0  0  0  0  0  0  0
   -3.4354    0.4833    1.4050 H   0  0  0  0  0  0  0  0  0  0  0  0
    5.9949   -6.8890   -6.4829 N   0  0  0  0  0  0  0  0  0  0  0  0
    6.5308   -7.8311   -6.6991 N   0  0  0  0  0  0  0  0  0  0  0  0
   -2.5889    2.8815    4.2163 Cl  0  0  0  0  0  0  0  0  0  0  0  0
   -2.8722   -0.7341   -1.0137 O   0  0  0  0  0  0  0  0  0  0  0  0
   -4.1028   -1.1583   -0.4429 C   0  0  0  0  0  0  0  0  0  0  0  0
   -4.5223   -1.8834   -1.1417 H   0  0  0  0  0  0  0  0  0  0  0  0
   -4.8021   -0.3209   -0.3256 H   0  0  0  0  0  0  0  0  0  0  0  0
   -3.9499   -1.6407    0.5308 H   0  0  0  0  0  0  0  0  0  0  0  0
  1  2  2  0  0  0  0
  1  6  1  0  0  0  0
  2  3  1  0  0  0  0
  3  4  2  0  0  0  0
  5  4  1  0  0  0  0
  5 10  1  0  0  0  0
  6  5  2  0  0  0  0
  7  1  1  0  0  0  0
  8  2  1  0  0  0  0
  9 13  1  0  0  0  0
 12 11  3  0  0  0  0
 14 15  1  0  0  0  0
 14  6  1  0  0  0  0
 15 17  1  0  0  0  0
 15 18  1  0  0  0  0
 16 15  1  0  0  0  0
M  RAD  2   3   2   4   2
M  END
