Coordinates from ORCA-job 4-MeO-Ph-N2-Cl-B3LYPG-6-31G_dp-MTMO-d009-169-n800
 OpenBabel09051908453D

 18 16  0  0  0  0  0  0  0  0999 V2000
   -0.9667    0.5957   -0.9454 C   0  0  0  0  0  0  0  0  0  0  0  0
   -0.0676    1.5242   -0.4000 C   0  0  0  0  0  0  0  0  0  0  0  0
   -0.5817    1.9655    0.7988 C   0  0  0  0  0  0  0  0  0  0  0  0
   -1.6274    1.7094    1.4418 C   0  0  0  0  0  0  0  0  0  0  0  0
   -2.5618    0.7903    0.9465 C   0  0  0  0  0  0  0  0  0  0  0  0
   -2.1796    0.2341   -0.2973 C   0  0  0  0  0  0  0  0  0  0  0  0
   -0.7471    0.1249   -1.8984 H   0  0  0  0  0  0  0  0  0  0  0  0
    0.8600    1.8104   -0.8790 H   0  0  0  0  0  0  0  0  0  0  0  0
   -2.1177    2.4938    3.1250 H   0  0  0  0  0  0  0  0  0  0  0  0
   -3.4825    0.5249    1.4498 H   0  0  0  0  0  0  0  0  0  0  0  0
    6.4045   -7.2729   -6.8065 N   0  0  0  0  0  0  0  0  0  0  0  0
    6.9367   -8.2161   -7.0273 N   0  0  0  0  0  0  0  0  0  0  0  0
   -2.6304    2.9124    4.2681 Cl  0  0  0  0  0  0  0  0  0  0  0  0
   -2.9256   -0.6821   -0.9758 O   0  0  0  0  0  0  0  0  0  0  0  0
   -4.1532   -1.1110   -0.4022 C   0  0  0  0  0  0  0  0  0  0  0  0
   -4.5738   -1.8342   -1.1023 H   0  0  0  0  0  0  0  0  0  0  0  0
   -4.8538   -0.2754   -0.2792 H   0  0  0  0  0  0  0  0  0  0  0  0
   -3.9959   -1.5968    0.5691 H   0  0  0  0  0  0  0  0  0  0  0  0
  1  2  2  0  0  0  0
  1  6  1  0  0  0  0
  2  3  1  0  0  0  0
  3  4  2  0  0  0  0
  5  4  1  0  0  0  0
  5 10  1  0  0  0  0
  6  5  2  0  0  0  0
  7  1  1  0  0  0  0
  8  2  1  0  0  0  0
  9 13  1  0  0  0  0
 12 11  3  0  0  0  0
 14 15  1  0  0  0  0
 14  6  1  0  0  0  0
 15 17  1  0  0  0  0
 15 18  1  0  0  0  0
 16 15  1  0  0  0  0
M  RAD  2   3   2   4   2
M  END
