Coordinates from ORCA-job 4-MeO-Ph-N2-Cl-B3LYPG-6-31G_dp-MTMO-d009-169-n800
 OpenBabel09051908443D

 18 16  0  0  0  0  0  0  0  0999 V2000
   -0.7674   -0.9805   -1.0009 C   0  0  0  0  0  0  0  0  0  0  0  0
    0.4215   -0.2785   -0.7517 C   0  0  0  0  0  0  0  0  0  0  0  0
    0.1295    0.7733    0.0879 C   0  0  0  0  0  0  0  0  0  0  0  0
   -0.9236    1.1864    0.6290 C   0  0  0  0  0  0  0  0  0  0  0  0
   -2.1405    0.5255    0.4163 C   0  0  0  0  0  0  0  0  0  0  0  0
   -2.0151   -0.5957   -0.4379 C   0  0  0  0  0  0  0  0  0  0  0  0
   -0.7552   -1.8552   -1.6438 H   0  0  0  0  0  0  0  0  0  0  0  0
    1.3789   -0.5582   -1.1726 H   0  0  0  0  0  0  0  0  0  0  0  0
   -1.0512    2.7028    1.7964 H   0  0  0  0  0  0  0  0  0  0  0  0
   -3.0836    0.8289    0.8521 H   0  0  0  0  0  0  0  0  0  0  0  0
    3.8401   -2.8415   -3.7833 N   0  0  0  0  0  0  0  0  0  0  0  0
    4.5263   -3.3367   -4.4942 N   0  0  0  0  0  0  0  0  0  0  0  0
   -1.3446    3.6981    2.6140 Cl  0  0  0  0  0  0  0  0  0  0  0  0
   -3.0600   -1.3951   -0.7925 O   0  0  0  0  0  0  0  0  0  0  0  0
   -4.3482   -1.0906   -0.2756 C   0  0  0  0  0  0  0  0  0  0  0  0
   -5.0208   -1.8455   -0.6841 H   0  0  0  0  0  0  0  0  0  0  0  0
   -4.6847   -0.0959   -0.5937 H   0  0  0  0  0  0  0  0  0  0  0  0
   -4.3649   -1.1442    0.8204 H   0  0  0  0  0  0  0  0  0  0  0  0
  1  2  2  0  0  0  0
  1  6  1  0  0  0  0
  2  3  1  0  0  0  0
  3  4  2  0  0  0  0
  5  4  1  0  0  0  0
  5 10  1  0  0  0  0
  6  5  2  0  0  0  0
  7  1  1  0  0  0  0
  8  2  1  0  0  0  0
  9 13  1  0  0  0  0
 12 11  3  0  0  0  0
 14  6  1  0  0  0  0
 14 15  1  0  0  0  0
 15 18  1  0  0  0  0
 16 15  1  0  0  0  0
 17 15  1  0  0  0  0
M  RAD  2   3   2   4   2
M  END
