Coordinates from ORCA-job 4-MeO-Ph-N2-Cl-B3LYPG-6-31G_dp-MTMO-d009-169-n800
 OpenBabel09051908453D

 18 16  0  0  0  0  0  0  0  0999 V2000
   -0.7452    0.3793   -1.0785 C   0  0  0  0  0  0  0  0  0  0  0  0
    0.1492    1.3133   -0.5344 C   0  0  0  0  0  0  0  0  0  0  0  0
   -0.3835    1.7796    0.6469 C   0  0  0  0  0  0  0  0  0  0  0  0
   -1.4418    1.5395    1.2750 C   0  0  0  0  0  0  0  0  0  0  0  0
   -2.3726    0.6166    0.7809 C   0  0  0  0  0  0  0  0  0  0  0  0
   -1.9712    0.0356   -0.4457 C   0  0  0  0  0  0  0  0  0  0  0  0
   -0.5112   -0.1100   -2.0187 H   0  0  0  0  0  0  0  0  0  0  0  0
    1.0865    1.5861   -1.0022 H   0  0  0  0  0  0  0  0  0  0  0  0
   -1.9548    2.3561    2.9384 H   0  0  0  0  0  0  0  0  0  0  0  0
   -3.3033    0.3650    1.2726 H   0  0  0  0  0  0  0  0  0  0  0  0
    4.8101   -5.7825   -5.5535 N   0  0  0  0  0  0  0  0  0  0  0  0
    5.3406   -6.7260   -5.7775 N   0  0  0  0  0  0  0  0  0  0  0  0
   -2.4832    2.7969    4.0656 Cl  0  0  0  0  0  0  0  0  0  0  0  0
   -2.7098   -0.8892   -1.1204 O   0  0  0  0  0  0  0  0  0  0  0  0
   -3.9502   -1.3006   -0.5615 C   0  0  0  0  0  0  0  0  0  0  0  0
   -4.3623   -2.0342   -1.2557 H   0  0  0  0  0  0  0  0  0  0  0  0
   -4.6478   -0.4589   -0.4665 H   0  0  0  0  0  0  0  0  0  0  0  0
   -3.8133   -1.7694    0.4212 H   0  0  0  0  0  0  0  0  0  0  0  0
  1  2  2  0  0  0  0
  1  6  1  0  0  0  0
  2  3  1  0  0  0  0
  3  4  2  0  0  0  0
  5 10  1  0  0  0  0
  5  4  1  0  0  0  0
  6  5  2  0  0  0  0
  7  1  1  0  0  0  0
  8  2  1  0  0  0  0
  9 13  1  0  0  0  0
 12 11  3  0  0  0  0
 14 15  1  0  0  0  0
 14  6  1  0  0  0  0
 15 17  1  0  0  0  0
 15 18  1  0  0  0  0
 16 15  1  0  0  0  0
M  RAD  2   3   2   4   2
M  END
