Coordinates from ORCA-job 4-MeO-Ph-N2-Cl-B3LYPG-6-31G_dp-MTMO-d009-169-n800
 OpenBabel09051908453D

 18 16  0  0  0  0  0  0  0  0999 V2000
   -0.9102    0.5428   -0.9681 C   0  0  0  0  0  0  0  0  0  0  0  0
   -0.0152    1.4753   -0.4224 C   0  0  0  0  0  0  0  0  0  0  0  0
   -0.5396    1.9263    0.7682 C   0  0  0  0  0  0  0  0  0  0  0  0
   -1.5909    1.6759    1.4044 C   0  0  0  0  0  0  0  0  0  0  0  0
   -2.5215    0.7534    0.9083 C   0  0  0  0  0  0  0  0  0  0  0  0
   -2.1288    0.1869   -0.3277 C   0  0  0  0  0  0  0  0  0  0  0  0
   -0.6825    0.0643   -1.9154 H   0  0  0  0  0  0  0  0  0  0  0  0
    0.9165    1.7570   -0.8959 H   0  0  0  0  0  0  0  0  0  0  0  0
   -2.0941    2.4736    3.0767 H   0  0  0  0  0  0  0  0  0  0  0  0
   -3.4466    0.4925    1.4058 H   0  0  0  0  0  0  0  0  0  0  0  0
    6.0373   -6.9383   -6.5352 N   0  0  0  0  0  0  0  0  0  0  0  0
    6.5719   -7.8805   -6.7541 N   0  0  0  0  0  0  0  0  0  0  0  0
   -2.6141    2.9030    4.2126 Cl  0  0  0  0  0  0  0  0  0  0  0  0
   -2.8694   -0.7343   -1.0051 O   0  0  0  0  0  0  0  0  0  0  0  0
   -4.1023   -1.1577   -0.4388 C   0  0  0  0  0  0  0  0  0  0  0  0
   -4.5173   -1.8863   -1.1367 H   0  0  0  0  0  0  0  0  0  0  0  0
   -4.8032   -0.3207   -0.3286 H   0  0  0  0  0  0  0  0  0  0  0  0
   -3.9537   -1.6358    0.5377 H   0  0  0  0  0  0  0  0  0  0  0  0
  1  2  2  0  0  0  0
  1  6  1  0  0  0  0
  2  3  1  0  0  0  0
  3  4  2  0  0  0  0
  5  4  1  0  0  0  0
  5 10  1  0  0  0  0
  6  5  2  0  0  0  0
  7  1  1  0  0  0  0
  8  2  1  0  0  0  0
  9 13  1  0  0  0  0
 12 11  3  0  0  0  0
 14 15  1  0  0  0  0
 14  6  1  0  0  0  0
 15 17  1  0  0  0  0
 15 18  1  0  0  0  0
 16 15  1  0  0  0  0
M  RAD  2   3   2   4   2
M  END
