Coordinates from ORCA-job 4-MeO-Ph-N2-Cl-B3LYPG-6-31G_dp-MTMO-d009-169-n800
 OpenBabel09051908453D

 18 16  0  0  0  0  0  0  0  0999 V2000
   -1.0315    0.6630   -0.8495 C   0  0  0  0  0  0  0  0  0  0  0  0
   -0.1432    1.6014   -0.3031 C   0  0  0  0  0  0  0  0  0  0  0  0
   -0.6767    2.0583    0.8815 C   0  0  0  0  0  0  0  0  0  0  0  0
   -1.7319    1.8072    1.5107 C   0  0  0  0  0  0  0  0  0  0  0  0
   -2.6566    0.8793    1.0145 C   0  0  0  0  0  0  0  0  0  0  0  0
   -2.2534    0.3070   -0.2155 C   0  0  0  0  0  0  0  0  0  0  0  0
   -0.7959    0.1796   -1.7924 H   0  0  0  0  0  0  0  0  0  0  0  0
    0.7910    1.8835   -0.7716 H   0  0  0  0  0  0  0  0  0  0  0  0
   -2.2479    2.6136    3.1788 H   0  0  0  0  0  0  0  0  0  0  0  0
   -3.5843    0.6183    1.5071 H   0  0  0  0  0  0  0  0  0  0  0  0
    7.0774   -7.9241   -7.4114 N   0  0  0  0  0  0  0  0  0  0  0  0
    7.6107   -8.8667   -7.6324 N   0  0  0  0  0  0  0  0  0  0  0  0
   -2.7778    3.0456    4.3086 Cl  0  0  0  0  0  0  0  0  0  0  0  0
   -2.9864   -0.6205   -0.8928 O   0  0  0  0  0  0  0  0  0  0  0  0
   -4.2220   -1.0444   -0.3327 C   0  0  0  0  0  0  0  0  0  0  0  0
   -4.6299   -1.7783   -1.0292 H   0  0  0  0  0  0  0  0  0  0  0  0
   -4.9262   -0.2089   -0.2322 H   0  0  0  0  0  0  0  0  0  0  0  0
   -4.0789   -1.5165    0.6476 H   0  0  0  0  0  0  0  0  0  0  0  0
  1  2  2  0  0  0  0
  1  6  1  0  0  0  0
  2  3  1  0  0  0  0
  3  4  2  0  0  0  0
  5 10  1  0  0  0  0
  5  4  1  0  0  0  0
  6  5  2  0  0  0  0
  7  1  1  0  0  0  0
  8  2  1  0  0  0  0
  9 13  1  0  0  0  0
 12 11  3  0  0  0  0
 14 15  1  0  0  0  0
 14  6  1  0  0  0  0
 15 17  1  0  0  0  0
 15 18  1  0  0  0  0
 16 15  1  0  0  0  0
M  RAD  2   3   2   4   2
M  END
