Coordinates from ORCA-job 4-MeO-Ph-N2-Cl-B3LYPG-6-31G_dp-MTMO-d009-169-n800
 OpenBabel09051908443D

 18 16  0  0  0  0  0  0  0  0999 V2000
   -0.9861   -1.3047   -1.2144 C   0  0  0  0  0  0  0  0  0  0  0  0
    0.2977   -0.7438   -1.1306 C   0  0  0  0  0  0  0  0  0  0  0  0
    0.2230    0.3615   -0.3137 C   0  0  0  0  0  0  0  0  0  0  0  0
   -0.7019    0.9209    0.3232 C   0  0  0  0  0  0  0  0  0  0  0  0
   -2.0036    0.4022    0.2727 C   0  0  0  0  0  0  0  0  0  0  0  0
   -2.1077   -0.7538   -0.5367 C   0  0  0  0  0  0  0  0  0  0  0  0
   -1.1492   -2.1946   -1.8145 H   0  0  0  0  0  0  0  0  0  0  0  0
    1.1632   -1.1464   -1.6408 H   0  0  0  0  0  0  0  0  0  0  0  0
   -0.5301    2.4573    1.4306 H   0  0  0  0  0  0  0  0  0  0  0  0
   -2.8497    0.8316    0.7934 H   0  0  0  0  0  0  0  0  0  0  0  0
    3.5125   -1.7697   -2.8429 N   0  0  0  0  0  0  0  0  0  0  0  0
    4.5025   -1.9411   -3.3027 N   0  0  0  0  0  0  0  0  0  0  0  0
   -0.6138    3.5021    2.2384 Cl  0  0  0  0  0  0  0  0  0  0  0  0
   -3.2724   -1.4327   -0.7370 O   0  0  0  0  0  0  0  0  0  0  0  0
   -4.4498   -0.9539   -0.1013 C   0  0  0  0  0  0  0  0  0  0  0  0
   -5.2488   -1.6334   -0.4004 H   0  0  0  0  0  0  0  0  0  0  0  0
   -4.6986    0.0634   -0.4288 H   0  0  0  0  0  0  0  0  0  0  0  0
   -4.3511   -0.9676    0.9915 H   0  0  0  0  0  0  0  0  0  0  0  0
  1  2  2  0  0  0  0
  1  6  1  0  0  0  0
  2  3  1  0  0  0  0
  3  4  2  0  0  0  0
  5  4  1  0  0  0  0
  5 10  1  0  0  0  0
  6  5  2  0  0  0  0
  7  1  1  0  0  0  0
  8  2  1  0  0  0  0
  9 13  1  0  0  0  0
 12 11  3  0  0  0  0
 14  6  1  0  0  0  0
 14 15  1  0  0  0  0
 15 18  1  0  0  0  0
 16 15  1  0  0  0  0
 17 15  1  0  0  0  0
M  RAD  2   3   2   4   2
M  END
