Coordinates from ORCA-job 4-MeO-Ph-N2-Cl-B3LYPG-6-31G_dp-MTMO-d009-169-n800
 OpenBabel09051908443D

 18 16  0  0  0  0  0  0  0  0999 V2000
   -1.1385   -1.5159   -1.2331 C   0  0  0  0  0  0  0  0  0  0  0  0
    0.1893   -1.0620   -1.2154 C   0  0  0  0  0  0  0  0  0  0  0  0
    0.2363    0.0810   -0.4496 C   0  0  0  0  0  0  0  0  0  0  0  0
   -0.6173    0.7417    0.1894 C   0  0  0  0  0  0  0  0  0  0  0  0
   -1.9586    0.3339    0.2044 C   0  0  0  0  0  0  0  0  0  0  0  0
   -2.1864   -0.8433   -0.5469 C   0  0  0  0  0  0  0  0  0  0  0  0
   -1.3959   -2.4140   -1.7860 H   0  0  0  0  0  0  0  0  0  0  0  0
    1.0023   -1.5556   -1.7314 H   0  0  0  0  0  0  0  0  0  0  0  0
   -0.2710    2.3025    1.2288 H   0  0  0  0  0  0  0  0  0  0  0  0
   -2.7472    0.8548    0.7318 H   0  0  0  0  0  0  0  0  0  0  0  0
    3.6191   -1.2712   -2.5479 N   0  0  0  0  0  0  0  0  0  0  0  0
    4.6348   -1.0372   -2.9148 N   0  0  0  0  0  0  0  0  0  0  0  0
   -0.2332    3.3808    1.9940 Cl  0  0  0  0  0  0  0  0  0  0  0  0
   -3.4095   -1.4297   -0.6790 O   0  0  0  0  0  0  0  0  0  0  0  0
   -4.5211   -0.8233   -0.0339 C   0  0  0  0  0  0  0  0  0  0  0  0
   -5.3831   -1.4469   -0.2741 H   0  0  0  0  0  0  0  0  0  0  0  0
   -4.6961    0.1942   -0.4053 H   0  0  0  0  0  0  0  0  0  0  0  0
   -4.3872   -0.7924    1.0549 H   0  0  0  0  0  0  0  0  0  0  0  0
  1  2  2  0  0  0  0
  1  6  1  0  0  0  0
  2  3  1  0  0  0  0
  3  4  2  0  0  0  0
  4  5  1  0  0  0  0
  5 10  1  0  0  0  0
  6  5  2  0  0  0  0
  7  1  1  0  0  0  0
  8  2  1  0  0  0  0
  9 13  1  0  0  0  0
 12 11  3  0  0  0  0
 14  6  1  0  0  0  0
 14 15  1  0  0  0  0
 15 18  1  0  0  0  0
 16 15  1  0  0  0  0
 17 15  1  0  0  0  0
M  RAD  2   3   2   4   2
M  END
