Coordinates from ORCA-job 4-MeO-Ph-N2-Cl-B3LYPG-6-31G_dp-MTMO-d009-169-n800
 OpenBabel09051908443D

 18 17  0  0  0  0  0  0  0  0999 V2000
   -1.2841   -1.7071   -1.4832 C   0  0  0  0  0  0  0  0  0  0  0  0
    0.0374   -1.3576   -1.5853 C   0  0  0  0  0  0  0  0  0  0  0  0
    0.5854   -0.2150   -0.8849 C   0  0  0  0  0  0  0  0  0  0  0  0
   -0.3488    0.5395   -0.0724 C   0  0  0  0  0  0  0  0  0  0  0  0
   -1.6771    0.1816    0.0225 C   0  0  0  0  0  0  0  0  0  0  0  0
   -2.1595   -0.9425   -0.6772 C   0  0  0  0  0  0  0  0  0  0  0  0
   -1.6868   -2.5663   -2.0083 H   0  0  0  0  0  0  0  0  0  0  0  0
    0.7174   -1.9393   -2.2011 H   0  0  0  0  0  0  0  0  0  0  0  0
    0.0498    1.4009    0.4568 H   0  0  0  0  0  0  0  0  0  0  0  0
   -2.3399    0.7765    0.6393 H   0  0  0  0  0  0  0  0  0  0  0  0
    1.6487    0.0539   -0.9717 N   0  0  0  0  0  0  0  0  0  0  0  0
    2.6471    0.6443   -0.7946 N   0  0  0  0  0  0  0  0  0  0  0  0
    2.3128    2.3772    0.6269 Cl  0  0  0  0  0  0  0  0  0  0  0  0
   -3.4298   -1.3702   -0.6458 O   0  0  0  0  0  0  0  0  0  0  0  0
   -4.3907   -0.6665    0.1465 C   0  0  0  0  0  0  0  0  0  0  0  0
   -5.3287   -1.2053    0.0152 H   0  0  0  0  0  0  0  0  0  0  0  0
   -4.5085    0.3652   -0.2015 H   0  0  0  0  0  0  0  0  0  0  0  0
   -4.1083   -0.6719    1.2047 H   0  0  0  0  0  0  0  0  0  0  0  0
  1  6  1  0  0  0  0
  2  1  2  0  0  0  0
  2  3  1  0  0  0  0
  3  4  2  0  0  0  0
  4  5  1  0  0  0  0
  4  9  1  0  0  0  0
  5 10  1  0  0  0  0
  6 14  1  0  0  0  0
  6  5  2  0  0  0  0
  7  1  1  0  0  0  0
  8  2  1  0  0  0  0
 11  3  1  0  0  0  0
 11 12  1  0  0  0  0
 14 15  1  0  0  0  0
 15 18  1  0  0  0  0
 16 15  1  0  0  0  0
 17 15  1  0  0  0  0
M  RAD  3  11   2  12   3  13   2
M  END
