Coordinates from ORCA-job 4-MeO-Ph-N2-Cl-B3LYPG-6-31G_dp-MTMO-d009-169-n800
 OpenBabel09051908443D

 18 16  0  0  0  0  0  0  0  0999 V2000
   -0.7827   -1.0174   -1.0351 C   0  0  0  0  0  0  0  0  0  0  0  0
    0.4182   -0.3298   -0.8035 C   0  0  0  0  0  0  0  0  0  0  0  0
    0.1500    0.7276    0.0370 C   0  0  0  0  0  0  0  0  0  0  0  0
   -0.8904    1.1556    0.5910 C   0  0  0  0  0  0  0  0  0  0  0  0
   -2.1182    0.5094    0.3957 C   0  0  0  0  0  0  0  0  0  0  0  0
   -2.0180   -0.6155   -0.4570 C   0  0  0  0  0  0  0  0  0  0  0  0
   -0.7899   -1.8938   -1.6757 H   0  0  0  0  0  0  0  0  0  0  0  0
    1.3663   -0.6229   -1.2365 H   0  0  0  0  0  0  0  0  0  0  0  0
   -0.9838    2.6731    1.7580 H   0  0  0  0  0  0  0  0  0  0  0  0
   -3.0517    0.8258    0.8427 H   0  0  0  0  0  0  0  0  0  0  0  0
    3.7457   -2.6850   -3.6306 N   0  0  0  0  0  0  0  0  0  0  0  0
    4.4578   -3.1719   -4.3216 N   0  0  0  0  0  0  0  0  0  0  0  0
   -1.2536    3.6724    2.5792 Cl  0  0  0  0  0  0  0  0  0  0  0  0
   -3.0774   -1.4026   -0.7957 O   0  0  0  0  0  0  0  0  0  0  0  0
   -4.3545   -1.0817   -0.2613 C   0  0  0  0  0  0  0  0  0  0  0  0
   -5.0418   -1.8292   -0.6591 H   0  0  0  0  0  0  0  0  0  0  0  0
   -4.6835   -0.0836   -0.5765 H   0  0  0  0  0  0  0  0  0  0  0  0
   -4.3563   -1.1333    0.8348 H   0  0  0  0  0  0  0  0  0  0  0  0
  1  2  2  0  0  0  0
  1  6  1  0  0  0  0
  2  3  1  0  0  0  0
  3  4  2  0  0  0  0
  5  4  1  0  0  0  0
  5 10  1  0  0  0  0
  6  5  2  0  0  0  0
  7  1  1  0  0  0  0
  8  2  1  0  0  0  0
  9 13  1  0  0  0  0
 12 11  3  0  0  0  0
 14  6  1  0  0  0  0
 14 15  1  0  0  0  0
 15 18  1  0  0  0  0
 16 15  1  0  0  0  0
 17 15  1  0  0  0  0
M  RAD  2   3   2   4   2
M  END
