Coordinates from ORCA-job 4-MeO-Ph-N2-Cl-B3LYPG-6-31G_dp-MTMO-d009-169-n800
 OpenBabel09051908453D

 18 16  0  0  0  0  0  0  0  0999 V2000
   -1.0711    0.7007   -0.8227 C   0  0  0  0  0  0  0  0  0  0  0  0
   -0.1823    1.6386   -0.2763 C   0  0  0  0  0  0  0  0  0  0  0  0
   -0.7136    2.0928    0.9103 C   0  0  0  0  0  0  0  0  0  0  0  0
   -1.7674    1.8399    1.5411 C   0  0  0  0  0  0  0  0  0  0  0  0
   -2.6926    0.9124    1.0450 C   0  0  0  0  0  0  0  0  0  0  0  0
   -2.2915    0.3427   -0.1870 C   0  0  0  0  0  0  0  0  0  0  0  0
   -0.8371    0.2194   -1.7670 H   0  0  0  0  0  0  0  0  0  0  0  0
    0.7508    1.9222   -0.7461 H   0  0  0  0  0  0  0  0  0  0  0  0
   -2.2804    2.6428    3.2119 H   0  0  0  0  0  0  0  0  0  0  0  0
   -3.6191    0.6498    1.5389 H   0  0  0  0  0  0  0  0  0  0  0  0
    7.3739   -8.1993   -7.6467 N   0  0  0  0  0  0  0  0  0  0  0  0
    7.9059   -9.1423   -7.8689 N   0  0  0  0  0  0  0  0  0  0  0  0
   -2.8082    3.0722    4.3436 Cl  0  0  0  0  0  0  0  0  0  0  0  0
   -3.0253   -0.5839   -0.8646 O   0  0  0  0  0  0  0  0  0  0  0  0
   -4.2594   -1.0097   -0.3028 C   0  0  0  0  0  0  0  0  0  0  0  0
   -4.6683   -1.7425   -0.9999 H   0  0  0  0  0  0  0  0  0  0  0  0
   -4.9640   -0.1749   -0.1992 H   0  0  0  0  0  0  0  0  0  0  0  0
   -4.1140   -1.4836    0.6762 H   0  0  0  0  0  0  0  0  0  0  0  0
  1  2  2  0  0  0  0
  1  6  1  0  0  0  0
  2  3  1  0  0  0  0
  3  4  2  0  0  0  0
  5 10  1  0  0  0  0
  5  4  1  0  0  0  0
  6  5  2  0  0  0  0
  7  1  1  0  0  0  0
  8  2  1  0  0  0  0
  9 13  1  0  0  0  0
 12 11  3  0  0  0  0
 14 15  1  0  0  0  0
 14  6  1  0  0  0  0
 15 17  1  0  0  0  0
 15 18  1  0  0  0  0
 16 15  1  0  0  0  0
M  RAD  2   3   2   4   2
M  END
