Coordinates from ORCA-job 4-MeO-Ph-N2-Cl-B3LYPG-6-31G_dp-MTMO-d009-169-n800
 OpenBabel09051908443D

 18 16  0  0  0  0  0  0  0  0999 V2000
   -0.8890   -1.2332   -1.0611 C   0  0  0  0  0  0  0  0  0  0  0  0
    0.3674   -0.6309   -0.8938 C   0  0  0  0  0  0  0  0  0  0  0  0
    0.2029    0.4809   -0.0980 C   0  0  0  0  0  0  0  0  0  0  0  0
   -0.7837    1.0151    0.4626 C   0  0  0  0  0  0  0  0  0  0  0  0
   -2.0621    0.4562    0.3283 C   0  0  0  0  0  0  0  0  0  0  0  0
   -2.0726   -0.7110   -0.4715 C   0  0  0  0  0  0  0  0  0  0  0  0
   -0.9815   -2.1346   -1.6589 H   0  0  0  0  0  0  0  0  0  0  0  0
    1.2772   -1.0156   -1.3375 H   0  0  0  0  0  0  0  0  0  0  0  0
   -0.7343    2.5774    1.5596 H   0  0  0  0  0  0  0  0  0  0  0  0
   -2.9558    0.8641    0.7826 H   0  0  0  0  0  0  0  0  0  0  0  0
    3.6708   -2.1222   -3.2922 N   0  0  0  0  0  0  0  0  0  0  0  0
    4.5186   -2.4175   -3.9367 N   0  0  0  0  0  0  0  0  0  0  0  0
   -0.9063    3.6291    2.3422 Cl  0  0  0  0  0  0  0  0  0  0  0  0
   -3.1984   -1.4284   -0.7449 O   0  0  0  0  0  0  0  0  0  0  0  0
   -4.4320   -0.9823   -0.1977 C   0  0  0  0  0  0  0  0  0  0  0  0
   -5.1862   -1.6900   -0.5438 H   0  0  0  0  0  0  0  0  0  0  0  0
   -4.6896    0.0233   -0.5528 H   0  0  0  0  0  0  0  0  0  0  0  0
   -4.4090   -0.9832    0.8994 H   0  0  0  0  0  0  0  0  0  0  0  0
  1  2  2  0  0  0  0
  1  6  1  0  0  0  0
  2  3  1  0  0  0  0
  3  4  2  0  0  0  0
  5  4  1  0  0  0  0
  5 10  1  0  0  0  0
  6  5  2  0  0  0  0
  7  1  1  0  0  0  0
  8  2  1  0  0  0  0
  9 13  1  0  0  0  0
 12 11  3  0  0  0  0
 14  6  1  0  0  0  0
 14 15  1  0  0  0  0
 15 18  1  0  0  0  0
 16 15  1  0  0  0  0
 17 15  1  0  0  0  0
M  RAD  2   3   2   4   2
M  END
