Coordinates from ORCA-job 4-MeO-Ph-N2-Cl-B3LYPG-6-31G_dp-MTMO-d009-169-n800
 OpenBabel09051908443D

 18 16  0  0  0  0  0  0  0  0999 V2000
   -0.7564   -0.9553   -0.9775 C   0  0  0  0  0  0  0  0  0  0  0  0
    0.4241   -0.2436   -0.7163 C   0  0  0  0  0  0  0  0  0  0  0  0
    0.1158    0.8043    0.1225 C   0  0  0  0  0  0  0  0  0  0  0  0
   -0.9459    1.2070    0.6546 C   0  0  0  0  0  0  0  0  0  0  0  0
   -2.1551    0.5362    0.4300 C   0  0  0  0  0  0  0  0  0  0  0  0
   -2.0124   -0.5823   -0.4251 C   0  0  0  0  0  0  0  0  0  0  0  0
   -0.7308   -1.8286   -1.6218 H   0  0  0  0  0  0  0  0  0  0  0  0
    1.3877   -0.5140   -1.1290 H   0  0  0  0  0  0  0  0  0  0  0  0
   -1.0974    2.7223    1.8219 H   0  0  0  0  0  0  0  0  0  0  0  0
   -3.1047    0.8306    0.8580 H   0  0  0  0  0  0  0  0  0  0  0  0
    3.8990   -2.9481   -3.8848 N   0  0  0  0  0  0  0  0  0  0  0  0
    4.5685   -3.4461   -4.6095 N   0  0  0  0  0  0  0  0  0  0  0  0
   -1.4073    3.7147    2.6369 Cl  0  0  0  0  0  0  0  0  0  0  0  0
   -3.0471   -1.3901   -0.7904 O   0  0  0  0  0  0  0  0  0  0  0  0
   -4.3427   -1.0967   -0.2857 C   0  0  0  0  0  0  0  0  0  0  0  0
   -5.0051   -1.8566   -0.7017 H   0  0  0  0  0  0  0  0  0  0  0  0
   -4.6842   -0.1044   -0.6059 H   0  0  0  0  0  0  0  0  0  0  0  0
   -4.3696   -1.1518    0.8099 H   0  0  0  0  0  0  0  0  0  0  0  0
  1  2  2  0  0  0  0
  1  6  1  0  0  0  0
  2  3  1  0  0  0  0
  3  4  2  0  0  0  0
  5  4  1  0  0  0  0
  5 10  1  0  0  0  0
  6  5  2  0  0  0  0
  7  1  1  0  0  0  0
  8  2  1  0  0  0  0
  9 13  1  0  0  0  0
 12 11  3  0  0  0  0
 14  6  1  0  0  0  0
 14 15  1  0  0  0  0
 15 18  1  0  0  0  0
 16 15  1  0  0  0  0
 17 15  1  0  0  0  0
M  RAD  2   3   2   4   2
M  END
