Coordinates from ORCA-job 4-MeO-Ph-N2-Cl-B3LYPG-6-31G_dp-MTMO-d009-169-n800
 OpenBabel09051908453D

 18 16  0  0  0  0  0  0  0  0999 V2000
   -0.9962    0.6306   -0.8757 C   0  0  0  0  0  0  0  0  0  0  0  0
   -0.1084    1.5695   -0.3293 C   0  0  0  0  0  0  0  0  0  0  0  0
   -0.6431    2.0271    0.8545 C   0  0  0  0  0  0  0  0  0  0  0  0
   -1.6987    1.7764    1.4830 C   0  0  0  0  0  0  0  0  0  0  0  0
   -2.6230    0.8480    0.9866 C   0  0  0  0  0  0  0  0  0  0  0  0
   -2.2186    0.2749   -0.2427 C   0  0  0  0  0  0  0  0  0  0  0  0
   -0.7597    0.1466   -1.8181 H   0  0  0  0  0  0  0  0  0  0  0  0
    0.8261    1.8513   -0.7971 H   0  0  0  0  0  0  0  0  0  0  0  0
   -2.2164    2.5838    3.1500 H   0  0  0  0  0  0  0  0  0  0  0  0
   -3.5511    0.5873    1.4785 H   0  0  0  0  0  0  0  0  0  0  0  0
    6.8036   -7.6711   -7.1915 N   0  0  0  0  0  0  0  0  0  0  0  0
    7.3372   -8.6135   -7.4125 N   0  0  0  0  0  0  0  0  0  0  0  0
   -2.7472    3.0166    4.2791 Cl  0  0  0  0  0  0  0  0  0  0  0  0
   -2.9509   -0.6531   -0.9199 O   0  0  0  0  0  0  0  0  0  0  0  0
   -4.1870   -1.0767   -0.3607 C   0  0  0  0  0  0  0  0  0  0  0  0
   -4.5942   -1.8111   -1.0570 H   0  0  0  0  0  0  0  0  0  0  0  0
   -4.8913   -0.2412   -0.2614 H   0  0  0  0  0  0  0  0  0  0  0  0
   -4.0447   -1.5481    0.6200 H   0  0  0  0  0  0  0  0  0  0  0  0
  1  2  2  0  0  0  0
  1  6  1  0  0  0  0
  2  3  1  0  0  0  0
  3  4  2  0  0  0  0
  5 10  1  0  0  0  0
  5  4  1  0  0  0  0
  6  5  2  0  0  0  0
  7  1  1  0  0  0  0
  8  2  1  0  0  0  0
  9 13  1  0  0  0  0
 12 11  3  0  0  0  0
 14 15  1  0  0  0  0
 14  6  1  0  0  0  0
 15 17  1  0  0  0  0
 15 18  1  0  0  0  0
 16 15  1  0  0  0  0
M  RAD  2   3   2   4   2
M  END
