Coordinates from ORCA-job 4-MeO-Ph-N2-Cl-B3LYPG-6-31G_dp-MTMO-d009-169-n800
 OpenBabel09051908443D

 18 16  0  0  0  0  0  0  0  0999 V2000
   -0.8912   -1.2419   -1.0948 C   0  0  0  0  0  0  0  0  0  0  0  0
    0.3688   -0.6437   -0.9407 C   0  0  0  0  0  0  0  0  0  0  0  0
    0.2162    0.4655   -0.1392 C   0  0  0  0  0  0  0  0  0  0  0  0
   -0.7616    1.0012    0.4356 C   0  0  0  0  0  0  0  0  0  0  0  0
   -2.0429    0.4458    0.3143 C   0  0  0  0  0  0  0  0  0  0  0  0
   -2.0662   -0.7186   -0.4894 C   0  0  0  0  0  0  0  0  0  0  0  0
   -0.9933   -2.1410   -1.6947 H   0  0  0  0  0  0  0  0  0  0  0  0
    1.2722   -1.0289   -1.3966 H   0  0  0  0  0  0  0  0  0  0  0  0
   -0.6960    2.5570    1.5366 H   0  0  0  0  0  0  0  0  0  0  0  0
   -2.9300    0.8545    0.7805 H   0  0  0  0  0  0  0  0  0  0  0  0
    3.5618   -2.0513   -3.1647 N   0  0  0  0  0  0  0  0  0  0  0  0
    4.4258   -2.3341   -3.7929 N   0  0  0  0  0  0  0  0  0  0  0  0
   -0.8557    3.6064    2.3255 Cl  0  0  0  0  0  0  0  0  0  0  0  0
   -3.1972   -1.4321   -0.7517 O   0  0  0  0  0  0  0  0  0  0  0  0
   -4.4228   -0.9848   -0.1878 C   0  0  0  0  0  0  0  0  0  0  0  0
   -5.1830   -1.6894   -0.5271 H   0  0  0  0  0  0  0  0  0  0  0  0
   -4.6821    0.0227   -0.5362 H   0  0  0  0  0  0  0  0  0  0  0  0
   -4.3863   -0.9897    0.9090 H   0  0  0  0  0  0  0  0  0  0  0  0
  1  2  2  0  0  0  0
  1  6  1  0  0  0  0
  2  3  1  0  0  0  0
  3  4  2  0  0  0  0
  5  4  1  0  0  0  0
  5 10  1  0  0  0  0
  6  5  2  0  0  0  0
  7  1  1  0  0  0  0
  8  2  1  0  0  0  0
  9 13  1  0  0  0  0
 12 11  3  0  0  0  0
 14  6  1  0  0  0  0
 14 15  1  0  0  0  0
 15 18  1  0  0  0  0
 16 15  1  0  0  0  0
 17 15  1  0  0  0  0
M  RAD  2   3   2   4   2
M  END
