Coordinates from ORCA-job 4-MeO-Ph-N2-Cl-B3LYPG-6-31G_dp-MTMO-d009-169-n800
 OpenBabel09051908453D

 18 16  0  0  0  0  0  0  0  0999 V2000
   -1.0475    0.6769   -0.8423 C   0  0  0  0  0  0  0  0  0  0  0  0
   -0.1578    1.6141   -0.2961 C   0  0  0  0  0  0  0  0  0  0  0  0
   -0.6886    2.0690    0.8904 C   0  0  0  0  0  0  0  0  0  0  0  0
   -1.7425    1.8171    1.5214 C   0  0  0  0  0  0  0  0  0  0  0  0
   -2.6686    0.8903    1.0256 C   0  0  0  0  0  0  0  0  0  0  0  0
   -2.2681    0.3201   -0.2064 C   0  0  0  0  0  0  0  0  0  0  0  0
   -0.8141    0.1952   -1.7865 H   0  0  0  0  0  0  0  0  0  0  0  0
    0.7755    1.8968   -0.7661 H   0  0  0  0  0  0  0  0  0  0  0  0
   -2.2550    2.6206    3.1919 H   0  0  0  0  0  0  0  0  0  0  0  0
   -3.5953    0.6287    1.5196 H   0  0  0  0  0  0  0  0  0  0  0  0
    7.1844   -8.0202   -7.4913 N   0  0  0  0  0  0  0  0  0  0  0  0
    7.7170   -8.9630   -7.7126 N   0  0  0  0  0  0  0  0  0  0  0  0
   -2.7826    3.0507    4.3235 Cl  0  0  0  0  0  0  0  0  0  0  0  0
   -3.0028   -0.6060   -0.8837 O   0  0  0  0  0  0  0  0  0  0  0  0
   -4.2373   -1.0306   -0.3218 C   0  0  0  0  0  0  0  0  0  0  0  0
   -4.6469   -1.7630   -1.0187 H   0  0  0  0  0  0  0  0  0  0  0  0
   -4.9411   -0.1951   -0.2183 H   0  0  0  0  0  0  0  0  0  0  0  0
   -4.0922   -1.5044    0.6573 H   0  0  0  0  0  0  0  0  0  0  0  0
  1  2  2  0  0  0  0
  1  6  1  0  0  0  0
  2  3  1  0  0  0  0
  3  4  2  0  0  0  0
  5 10  1  0  0  0  0
  5  4  1  0  0  0  0
  6  5  2  0  0  0  0
  7  1  1  0  0  0  0
  8  2  1  0  0  0  0
  9 13  1  0  0  0  0
 12 11  3  0  0  0  0
 14 15  1  0  0  0  0
 14  6  1  0  0  0  0
 15 17  1  0  0  0  0
 15 18  1  0  0  0  0
 16 15  1  0  0  0  0
M  RAD  2   3   2   4   2
M  END
