Coordinates from ORCA-job 4-MeO-Ph-N2-Cl-B3LYPG-6-31G_dp-MTMO-d009-169-n800
 OpenBabel09051908443D

 18 16  0  0  0  0  0  0  0  0999 V2000
   -0.6054   -0.4303   -0.6577 C   0  0  0  0  0  0  0  0  0  0  0  0
    0.4023    0.4329   -0.2024 C   0  0  0  0  0  0  0  0  0  0  0  0
   -0.1686    1.3448    0.6578 C   0  0  0  0  0  0  0  0  0  0  0  0
   -1.3374    1.5283    1.0731 C   0  0  0  0  0  0  0  0  0  0  0  0
   -2.3851    0.6986    0.6544 C   0  0  0  0  0  0  0  0  0  0  0  0
   -1.9610   -0.3077   -0.2465 C   0  0  0  0  0  0  0  0  0  0  0  0
   -0.3611   -1.2308   -1.3494 H   0  0  0  0  0  0  0  0  0  0  0  0
    1.4387    0.3536   -0.5059 H   0  0  0  0  0  0  0  0  0  0  0  0
   -1.8889    2.9184    2.2798 H   0  0  0  0  0  0  0  0  0  0  0  0
   -3.4134    0.8036    0.9761 H   0  0  0  0  0  0  0  0  0  0  0  0
    4.7687   -4.7843   -5.5620 N   0  0  0  0  0  0  0  0  0  0  0  0
    5.2902   -5.3997   -6.3177 N   0  0  0  0  0  0  0  0  0  0  0  0
   -2.4701    3.7881    3.0861 Cl  0  0  0  0  0  0  0  0  0  0  0  0
   -2.7981   -1.2340   -0.7914 O   0  0  0  0  0  0  0  0  0  0  0  0
   -4.1735   -1.1914   -0.4364 C   0  0  0  0  0  0  0  0  0  0  0  0
   -4.6486   -2.0084   -0.9806 H   0  0  0  0  0  0  0  0  0  0  0  0
   -4.6365   -0.2416   -0.7322 H   0  0  0  0  0  0  0  0  0  0  0  0
   -4.3160   -1.3428    0.6410 H   0  0  0  0  0  0  0  0  0  0  0  0
  1  6  2  0  0  0  0
  1  2  1  0  0  0  0
  2  3  2  0  0  0  0
  3  4  1  0  0  0  0
  5 10  1  0  0  0  0
  5  4  2  0  0  0  0
  6  5  1  0  0  0  0
  7  1  1  0  0  0  0
  8  2  1  0  0  0  0
  9 13  1  0  0  0  0
 12 11  3  0  0  0  0
 14 15  1  0  0  0  0
 14  6  1  0  0  0  0
 15 18  1  0  0  0  0
 16 15  1  0  0  0  0
 17 15  1  0  0  0  0
M  RAD  2   3   2   4   2
M  END
