Coordinates from ORCA-job 4-MeO-Ph-N2-Cl-B3LYPG-6-31G_dp-MTMO-d009-169-n800
 OpenBabel09051908443D

 18 16  0  0  0  0  0  0  0  0999 V2000
   -0.7370   -0.9111   -0.9376 C   0  0  0  0  0  0  0  0  0  0  0  0
    0.4285   -0.1827   -0.6558 C   0  0  0  0  0  0  0  0  0  0  0  0
    0.0920    0.8577    0.1817 C   0  0  0  0  0  0  0  0  0  0  0  0
   -0.9840    1.2421    0.6983 C   0  0  0  0  0  0  0  0  0  0  0  0
   -2.1794    0.5542    0.4531 C   0  0  0  0  0  0  0  0  0  0  0  0
   -2.0067   -0.5590   -0.4035 C   0  0  0  0  0  0  0  0  0  0  0  0
   -0.6883   -1.7816   -1.5844 H   0  0  0  0  0  0  0  0  0  0  0  0
    1.4023   -0.4372   -1.0543 H   0  0  0  0  0  0  0  0  0  0  0  0
   -1.1776    2.7542    1.8653 H   0  0  0  0  0  0  0  0  0  0  0  0
   -3.1397    0.8327    0.8675 H   0  0  0  0  0  0  0  0  0  0  0  0
    3.9940   -3.1311   -4.0576 N   0  0  0  0  0  0  0  0  0  0  0  0
    4.6365   -3.6332   -4.8036 N   0  0  0  0  0  0  0  0  0  0  0  0
   -1.5164    3.7408    2.6755 Cl  0  0  0  0  0  0  0  0  0  0  0  0
   -3.0234   -1.3808   -0.7874 O   0  0  0  0  0  0  0  0  0  0  0  0
   -4.3313   -1.1073   -0.3035 C   0  0  0  0  0  0  0  0  0  0  0  0
   -4.9758   -1.8756   -0.7322 H   0  0  0  0  0  0  0  0  0  0  0  0
   -4.6816   -0.1192   -0.6269 H   0  0  0  0  0  0  0  0  0  0  0  0
   -4.3757   -1.1658    0.7914 H   0  0  0  0  0  0  0  0  0  0  0  0
  1  2  2  0  0  0  0
  1  6  1  0  0  0  0
  2  3  1  0  0  0  0
  3  4  2  0  0  0  0
  5  4  1  0  0  0  0
  5 10  1  0  0  0  0
  6  5  2  0  0  0  0
  7  1  1  0  0  0  0
  8  2  1  0  0  0  0
  9 13  1  0  0  0  0
 12 11  3  0  0  0  0
 14  6  1  0  0  0  0
 14 15  1  0  0  0  0
 15 18  1  0  0  0  0
 16 15  1  0  0  0  0
 17 15  1  0  0  0  0
M  RAD  2   3   2   4   2
M  END
