Coordinates from ORCA-job 4-MeO-Ph-N2-Cl-B3LYPG-6-31G_dp-MTMO-d009-169-n800
 OpenBabel09051908443D

 18 16  0  0  0  0  0  0  0  0999 V2000
   -0.6923   -0.7905   -0.8410 C   0  0  0  0  0  0  0  0  0  0  0  0
    0.4326   -0.0214   -0.5077 C   0  0  0  0  0  0  0  0  0  0  0  0
    0.0260    0.9945    0.3291 C   0  0  0  0  0  0  0  0  0  0  0  0
   -1.0829    1.3296    0.8089 C   0  0  0  0  0  0  0  0  0  0  0  0
   -2.2410    0.5995    0.5121 C   0  0  0  0  0  0  0  0  0  0  0  0
   -1.9935   -0.4950   -0.3503 C   0  0  0  0  0  0  0  0  0  0  0  0
   -0.5859   -1.6499   -1.4959 H   0  0  0  0  0  0  0  0  0  0  0  0
    1.4297   -0.2328   -0.8727 H   0  0  0  0  0  0  0  0  0  0  0  0
   -1.3840    2.8258    1.9762 H   0  0  0  0  0  0  0  0  0  0  0  0
   -3.2259    0.8353    0.8941 H   0  0  0  0  0  0  0  0  0  0  0  0
    4.2319   -3.6062   -4.5058 N   0  0  0  0  0  0  0  0  0  0  0  0
    4.8275   -4.1214   -5.2814 N   0  0  0  0  0  0  0  0  0  0  0  0
   -1.7970    3.7926    2.7754 Cl  0  0  0  0  0  0  0  0  0  0  0  0
   -2.9625   -1.3504   -0.7811 O   0  0  0  0  0  0  0  0  0  0  0  0
   -4.2973   -1.1325   -0.3447 C   0  0  0  0  0  0  0  0  0  0  0  0
   -4.8953   -1.9191   -0.8061 H   0  0  0  0  0  0  0  0  0  0  0  0
   -4.6725   -0.1543   -0.6703 H   0  0  0  0  0  0  0  0  0  0  0  0
   -4.3811   -1.2065    0.7470 H   0  0  0  0  0  0  0  0  0  0  0  0
  1  2  2  0  0  0  0
  1  6  1  0  0  0  0
  2  3  1  0  0  0  0
  3  4  2  0  0  0  0
  5  4  1  0  0  0  0
  5 10  1  0  0  0  0
  6  5  2  0  0  0  0
  7  1  1  0  0  0  0
  8  2  1  0  0  0  0
  9 13  1  0  0  0  0
 12 11  3  0  0  0  0
 14  6  1  0  0  0  0
 14 15  1  0  0  0  0
 15 18  1  0  0  0  0
 16 15  1  0  0  0  0
 17 15  1  0  0  0  0
M  RAD  2   3   2   4   2
M  END
