Coordinates from ORCA-job 4-MeO-Ph-N2-Cl-B3LYPG-6-31G_dp-MTMO-d009-169-n800
 OpenBabel09051908443D

 18 16  0  0  0  0  0  0  0  0999 V2000
   -0.6315   -0.5660   -0.6962 C   0  0  0  0  0  0  0  0  0  0  0  0
    0.4184    0.2653   -0.2782 C   0  0  0  0  0  0  0  0  0  0  0  0
   -0.1009    1.2223    0.5657 C   0  0  0  0  0  0  0  0  0  0  0  0
   -1.2545    1.4663    0.9923 C   0  0  0  0  0  0  0  0  0  0  0  0
   -2.3421    0.6706    0.6104 C   0  0  0  0  0  0  0  0  0  0  0  0
   -1.9742   -0.3756   -0.2693 C   0  0  0  0  0  0  0  0  0  0  0  0
   -0.4315   -1.3932   -1.3704 H   0  0  0  0  0  0  0  0  0  0  0  0
    1.4458    0.1346   -0.5939 H   0  0  0  0  0  0  0  0  0  0  0  0
   -1.7266    2.9127    2.1667 H   0  0  0  0  0  0  0  0  0  0  0  0
   -3.3602    0.8274    0.9433 H   0  0  0  0  0  0  0  0  0  0  0  0
    4.6124   -4.4006   -5.2631 N   0  0  0  0  0  0  0  0  0  0  0  0
    5.1707   -4.9739   -6.0255 N   0  0  0  0  0  0  0  0  0  0  0  0
   -2.2561    3.8300    2.9556 Cl  0  0  0  0  0  0  0  0  0  0  0  0
   -2.8575   -1.2793   -0.7782 O   0  0  0  0  0  0  0  0  0  0  0  0
   -4.2248   -1.1692   -0.4063 C   0  0  0  0  0  0  0  0  0  0  0  0
   -4.7416   -1.9785   -0.9232 H   0  0  0  0  0  0  0  0  0  0  0  0
   -4.6513   -0.2083   -0.7202 H   0  0  0  0  0  0  0  0  0  0  0  0
   -4.3582   -1.2874    0.6764 H   0  0  0  0  0  0  0  0  0  0  0  0
  1  2  2  0  0  0  0
  1  6  1  0  0  0  0
  2  3  1  0  0  0  0
  3  4  2  0  0  0  0
  5 10  1  0  0  0  0
  5  4  1  0  0  0  0
  6  5  2  0  0  0  0
  7  1  1  0  0  0  0
  8  2  1  0  0  0  0
  9 13  1  0  0  0  0
 12 11  3  0  0  0  0
 14 15  1  0  0  0  0
 14  6  1  0  0  0  0
 15 18  1  0  0  0  0
 16 15  1  0  0  0  0
 17 15  1  0  0  0  0
M  RAD  2   3   2   4   2
M  END
