Coordinates from ORCA-job 4-MeO-Ph-N2-Cl-B3LYPG-6-31G_dp-MTMO-d009-169-n800
 OpenBabel09051908453D

 18 16  0  0  0  0  0  0  0  0999 V2000
   -1.0246    0.6559   -0.8605 C   0  0  0  0  0  0  0  0  0  0  0  0
   -0.1350    1.5932   -0.3143 C   0  0  0  0  0  0  0  0  0  0  0  0
   -0.6661    2.0481    0.8722 C   0  0  0  0  0  0  0  0  0  0  0  0
   -1.7200    1.7961    1.5031 C   0  0  0  0  0  0  0  0  0  0  0  0
   -2.6460    0.8693    1.0071 C   0  0  0  0  0  0  0  0  0  0  0  0
   -2.2454    0.2991   -0.2248 C   0  0  0  0  0  0  0  0  0  0  0  0
   -0.7911    0.1742   -1.8047 H   0  0  0  0  0  0  0  0  0  0  0  0
    0.7983    1.8759   -0.7841 H   0  0  0  0  0  0  0  0  0  0  0  0
   -2.2330    2.5997    3.1734 H   0  0  0  0  0  0  0  0  0  0  0  0
   -3.5727    0.6077    1.5010 H   0  0  0  0  0  0  0  0  0  0  0  0
    7.0031   -7.8520   -7.3437 N   0  0  0  0  0  0  0  0  0  0  0  0
    7.5356   -8.7948   -7.5653 N   0  0  0  0  0  0  0  0  0  0  0  0
   -2.7608    3.0298    4.3049 Cl  0  0  0  0  0  0  0  0  0  0  0  0
   -2.9799   -0.6271   -0.9022 O   0  0  0  0  0  0  0  0  0  0  0  0
   -4.2144   -1.0517   -0.3404 C   0  0  0  0  0  0  0  0  0  0  0  0
   -4.6239   -1.7842   -1.0374 H   0  0  0  0  0  0  0  0  0  0  0  0
   -4.9183   -0.2162   -0.2370 H   0  0  0  0  0  0  0  0  0  0  0  0
   -4.0695   -1.5255    0.6387 H   0  0  0  0  0  0  0  0  0  0  0  0
  1  2  2  0  0  0  0
  1  6  1  0  0  0  0
  2  3  1  0  0  0  0
  3  4  2  0  0  0  0
  5 10  1  0  0  0  0
  5  4  1  0  0  0  0
  6  5  2  0  0  0  0
  7  1  1  0  0  0  0
  8  2  1  0  0  0  0
  9 13  1  0  0  0  0
 12 11  3  0  0  0  0
 14 15  1  0  0  0  0
 14  6  1  0  0  0  0
 15 17  1  0  0  0  0
 15 18  1  0  0  0  0
 16 15  1  0  0  0  0
M  RAD  2   3   2   4   2
M  END
