Coordinates from ORCA-job 4-MeO-Ph-N2-Cl-B3LYPG-6-31G_dp-MTMO-d009-169-n800
 OpenBabel09051908443D

 18 16  0  0  0  0  0  0  0  0999 V2000
   -0.8901   -1.2370   -1.0731 C   0  0  0  0  0  0  0  0  0  0  0  0
    0.3677   -0.6364   -0.9107 C   0  0  0  0  0  0  0  0  0  0  0  0
    0.2078    0.4746   -0.1130 C   0  0  0  0  0  0  0  0  0  0  0  0
   -0.7756    1.0097    0.4526 C   0  0  0  0  0  0  0  0  0  0  0  0
   -2.0552    0.4524    0.3232 C   0  0  0  0  0  0  0  0  0  0  0  0
   -2.0705   -0.7140   -0.4779 C   0  0  0  0  0  0  0  0  0  0  0  0
   -0.9863   -2.1376   -1.6715 H   0  0  0  0  0  0  0  0  0  0  0  0
    1.2751   -1.0216   -1.3587 H   0  0  0  0  0  0  0  0  0  0  0  0
   -0.7200    2.5699    1.5508 H   0  0  0  0  0  0  0  0  0  0  0  0
   -2.9464    0.8608    0.7817 H   0  0  0  0  0  0  0  0  0  0  0  0
    3.6322   -2.0958   -3.2459 N   0  0  0  0  0  0  0  0  0  0  0  0
    4.4861   -2.3852   -3.8849 N   0  0  0  0  0  0  0  0  0  0  0  0
   -0.8873    3.6210    2.3356 Cl  0  0  0  0  0  0  0  0  0  0  0  0
   -3.1984   -1.4298   -0.7471 O   0  0  0  0  0  0  0  0  0  0  0  0
   -4.4290   -0.9828   -0.1939 C   0  0  0  0  0  0  0  0  0  0  0  0
   -5.1855   -1.6893   -0.5375 H   0  0  0  0  0  0  0  0  0  0  0  0
   -4.6870    0.0234   -0.5468 H   0  0  0  0  0  0  0  0  0  0  0  0
   -4.4011   -0.9850    0.9031 H   0  0  0  0  0  0  0  0  0  0  0  0
  1  2  2  0  0  0  0
  1  6  1  0  0  0  0
  2  3  1  0  0  0  0
  3  4  2  0  0  0  0
  5  4  1  0  0  0  0
  5 10  1  0  0  0  0
  6  5  2  0  0  0  0
  7  1  1  0  0  0  0
  8  2  1  0  0  0  0
  9 13  1  0  0  0  0
 12 11  3  0  0  0  0
 14  6  1  0  0  0  0
 14 15  1  0  0  0  0
 15 18  1  0  0  0  0
 16 15  1  0  0  0  0
 17 15  1  0  0  0  0
M  RAD  2   3   2   4   2
M  END
