Coordinates from ORCA-job 4-MeO-Ph-N2-Cl-B3LYPG-6-31G_dp-MTMO-d009-169-n800
 OpenBabel09051908453D

 18 16  0  0  0  0  0  0  0  0999 V2000
   -0.7956    0.4283   -1.0658 C   0  0  0  0  0  0  0  0  0  0  0  0
    0.1031    1.3580   -0.5216 C   0  0  0  0  0  0  0  0  0  0  0  0
   -0.4179    1.8116    0.6698 C   0  0  0  0  0  0  0  0  0  0  0  0
   -1.4696    1.5641    1.3062 C   0  0  0  0  0  0  0  0  0  0  0  0
   -2.4042    0.6447    0.8124 C   0  0  0  0  0  0  0  0  0  0  0  0
   -2.0146    0.0766   -0.4239 C   0  0  0  0  0  0  0  0  0  0  0  0
   -0.5707   -0.0513   -2.0132 H   0  0  0  0  0  0  0  0  0  0  0  0
    1.0353    1.6366   -0.9961 H   0  0  0  0  0  0  0  0  0  0  0  0
   -1.9691    2.3640    2.9813 H   0  0  0  0  0  0  0  0  0  0  0  0
   -3.3295    0.3871    1.3111 H   0  0  0  0  0  0  0  0  0  0  0  0
    5.1128   -6.0591   -5.7649 N   0  0  0  0  0  0  0  0  0  0  0  0
    5.6441   -7.0028   -5.9855 N   0  0  0  0  0  0  0  0  0  0  0  0
   -2.4886    2.7931    4.1172 Cl  0  0  0  0  0  0  0  0  0  0  0  0
   -2.7590   -0.8424   -1.1003 O   0  0  0  0  0  0  0  0  0  0  0  0
   -3.9929   -1.2613   -0.5327 C   0  0  0  0  0  0  0  0  0  0  0  0
   -4.4112   -1.9886   -1.2299 H   0  0  0  0  0  0  0  0  0  0  0  0
   -4.6907   -0.4217   -0.4220 H   0  0  0  0  0  0  0  0  0  0  0  0
   -3.8451   -1.7396    0.4439 H   0  0  0  0  0  0  0  0  0  0  0  0
  1  2  2  0  0  0  0
  1  6  1  0  0  0  0
  2  3  1  0  0  0  0
  3  4  2  0  0  0  0
  5  4  1  0  0  0  0
  5 10  1  0  0  0  0
  6  5  2  0  0  0  0
  7  1  1  0  0  0  0
  8  2  1  0  0  0  0
  9 13  1  0  0  0  0
 12 11  3  0  0  0  0
 14 15  1  0  0  0  0
 14  6  1  0  0  0  0
 15 17  1  0  0  0  0
 15 18  1  0  0  0  0
 16 15  1  0  0  0  0
M  RAD  2   3   2   4   2
M  END
