Coordinates from ORCA-job 4-MeO-Ph-N2-Cl-B3LYPG-6-31G_dp-MTMO-d009-169-n800
 OpenBabel09051908453D

 18 16  0  0  0  0  0  0  0  0999 V2000
   -1.1016    0.7275   -0.7964 C   0  0  0  0  0  0  0  0  0  0  0  0
   -0.2124    1.6651   -0.2502 C   0  0  0  0  0  0  0  0  0  0  0  0
   -0.7442    2.1204    0.9357 C   0  0  0  0  0  0  0  0  0  0  0  0
   -1.7983    1.8691    1.5666 C   0  0  0  0  0  0  0  0  0  0  0  0
   -2.7238    0.9417    1.0703 C   0  0  0  0  0  0  0  0  0  0  0  0
   -2.3226    0.3709   -0.1610 C   0  0  0  0  0  0  0  0  0  0  0  0
   -0.8675    0.2455   -1.7403 H   0  0  0  0  0  0  0  0  0  0  0  0
    0.7210    1.9476   -0.7199 H   0  0  0  0  0  0  0  0  0  0  0  0
   -2.3120    2.6733    3.2351 H   0  0  0  0  0  0  0  0  0  0  0  0
   -3.6507    0.6803    1.5639 H   0  0  0  0  0  0  0  0  0  0  0  0
    7.6229   -8.4295   -7.8520 N   0  0  0  0  0  0  0  0  0  0  0  0
    8.1563   -9.3722   -8.0724 N   0  0  0  0  0  0  0  0  0  0  0  0
   -2.8395    3.1050    4.3663 Cl  0  0  0  0  0  0  0  0  0  0  0  0
   -3.0567   -0.5557   -0.8382 O   0  0  0  0  0  0  0  0  0  0  0  0
   -4.2915   -0.9803   -0.2768 C   0  0  0  0  0  0  0  0  0  0  0  0
   -4.7004   -1.7133   -0.9735 H   0  0  0  0  0  0  0  0  0  0  0  0
   -4.9955   -0.1448   -0.1742 H   0  0  0  0  0  0  0  0  0  0  0  0
   -4.1469   -1.4534    0.7028 H   0  0  0  0  0  0  0  0  0  0  0  0
  1  2  2  0  0  0  0
  1  6  1  0  0  0  0
  2  3  1  0  0  0  0
  3  4  2  0  0  0  0
  5 10  1  0  0  0  0
  5  4  1  0  0  0  0
  6  5  2  0  0  0  0
  7  1  1  0  0  0  0
  8  2  1  0  0  0  0
  9 13  1  0  0  0  0
 12 11  3  0  0  0  0
 14 15  1  0  0  0  0
 14  6  1  0  0  0  0
 15 17  1  0  0  0  0
 15 18  1  0  0  0  0
 16 15  1  0  0  0  0
M  RAD  2   3   2   4   2
M  END
