Coordinates from ORCA-job 4-MeO-Ph-N2-Cl-B3LYPG-6-31G_dp-MTMO-d009-169-n800
 OpenBabel09051908443D

 18 16  0  0  0  0  0  0  0  0999 V2000
   -1.4357   -1.7528   -1.4844 C   0  0  0  0  0  0  0  0  0  0  0  0
   -0.0733   -1.4705   -1.6634 C   0  0  0  0  0  0  0  0  0  0  0  0
    0.2286   -0.3500   -0.9252 C   0  0  0  0  0  0  0  0  0  0  0  0
   -0.4289    0.4131   -0.1769 C   0  0  0  0  0  0  0  0  0  0  0  0
   -1.7951    0.1762    0.0351 C   0  0  0  0  0  0  0  0  0  0  0  0
   -2.2784   -0.9570   -0.6606 C   0  0  0  0  0  0  0  0  0  0  0  0
   -1.8824   -2.6068   -1.9841 H   0  0  0  0  0  0  0  0  0  0  0  0
    0.5877   -2.0614   -2.2847 H   0  0  0  0  0  0  0  0  0  0  0  0
    0.2590    1.9068    0.7642 H   0  0  0  0  0  0  0  0  0  0  0  0
   -2.4270    0.7915    0.6633 H   0  0  0  0  0  0  0  0  0  0  0  0
    3.3937   -0.2326   -1.6217 N   0  0  0  0  0  0  0  0  0  0  0  0
    4.3053    0.3369   -1.3650 N   0  0  0  0  0  0  0  0  0  0  0  0
    0.5648    2.9722    1.4893 Cl  0  0  0  0  0  0  0  0  0  0  0  0
   -3.5714   -1.3823   -0.6056 O   0  0  0  0  0  0  0  0  0  0  0  0
   -4.4876   -0.6530    0.1991 C   0  0  0  0  0  0  0  0  0  0  0  0
   -5.4451   -1.1665    0.1032 H   0  0  0  0  0  0  0  0  0  0  0  0
   -4.5954    0.3818   -0.1499 H   0  0  0  0  0  0  0  0  0  0  0  0
   -4.1824   -0.6483    1.2533 H   0  0  0  0  0  0  0  0  0  0  0  0
  1  6  1  0  0  0  0
  2  1  2  0  0  0  0
  2  3  1  0  0  0  0
  3  4  2  0  0  0  0
  4  5  1  0  0  0  0
  5 10  1  0  0  0  0
  6 14  1  0  0  0  0
  6  5  2  0  0  0  0
  7  1  1  0  0  0  0
  8  2  1  0  0  0  0
  9 13  1  0  0  0  0
 11 12  3  0  0  0  0
 14 15  1  0  0  0  0
 15 18  1  0  0  0  0
 16 15  1  0  0  0  0
 17 15  1  0  0  0  0
M  RAD  2   3   2   4   2
M  END
