Coordinates from ORCA-job 4-MeO-Ph-N2-Cl-B3LYPG-6-31G_dp-MTMO-d009-169-n800
 OpenBabel09051908453D

 18 16  0  0  0  0  0  0  0  0999 V2000
   -0.7755    0.4063   -1.0968 C   0  0  0  0  0  0  0  0  0  0  0  0
    0.1268    1.3327   -0.5531 C   0  0  0  0  0  0  0  0  0  0  0  0
   -0.3879    1.7819    0.6426 C   0  0  0  0  0  0  0  0  0  0  0  0
   -1.4366    1.5330    1.2835 C   0  0  0  0  0  0  0  0  0  0  0  0
   -2.3745    0.6166    0.7902 C   0  0  0  0  0  0  0  0  0  0  0  0
   -1.9918    0.0533   -0.4504 C   0  0  0  0  0  0  0  0  0  0  0  0
   -0.5558   -0.0696   -2.0473 H   0  0  0  0  0  0  0  0  0  0  0  0
    1.0570    1.6123   -1.0311 H   0  0  0  0  0  0  0  0  0  0  0  0
   -1.9271    2.3261    2.9637 H   0  0  0  0  0  0  0  0  0  0  0  0
   -3.2977    0.3579    1.2924 H   0  0  0  0  0  0  0  0  0  0  0  0
    4.9040   -5.8509   -5.5677 N   0  0  0  0  0  0  0  0  0  0  0  0
    5.4314   -6.7963   -5.7906 N   0  0  0  0  0  0  0  0  0  0  0  0
   -2.4406    2.7511    4.1039 Cl  0  0  0  0  0  0  0  0  0  0  0  0
   -2.7405   -0.8621   -1.1269 O   0  0  0  0  0  0  0  0  0  0  0  0
   -3.9720   -1.2820   -0.5549 C   0  0  0  0  0  0  0  0  0  0  0  0
   -4.3945   -2.0060   -1.2531 H   0  0  0  0  0  0  0  0  0  0  0  0
   -4.6684   -0.4423   -0.4373 H   0  0  0  0  0  0  0  0  0  0  0  0
   -3.8199   -1.7646    0.4189 H   0  0  0  0  0  0  0  0  0  0  0  0
  1  2  2  0  0  0  0
  1  6  1  0  0  0  0
  2  3  1  0  0  0  0
  3  4  2  0  0  0  0
  5  4  1  0  0  0  0
  5 10  1  0  0  0  0
  6  5  2  0  0  0  0
  7  1  1  0  0  0  0
  8  2  1  0  0  0  0
  9 13  1  0  0  0  0
 12 11  3  0  0  0  0
 14 15  1  0  0  0  0
 14  6  1  0  0  0  0
 15 17  1  0  0  0  0
 15 18  1  0  0  0  0
 16 15  1  0  0  0  0
M  RAD  2   3   2   4   2
M  END
