Coordinates from ORCA-job 4-MeO-Ph-N2-Cl-B3LYPG-6-31G_dp-MTMO-d009-169-n800
 OpenBabel09051908453D

 18 16  0  0  0  0  0  0  0  0999 V2000
   -0.8021    0.4380   -1.0496 C   0  0  0  0  0  0  0  0  0  0  0  0
    0.0930    1.3705   -0.5045 C   0  0  0  0  0  0  0  0  0  0  0  0
   -0.4336    1.8265    0.6833 C   0  0  0  0  0  0  0  0  0  0  0  0
   -1.4871    1.5801    1.3173 C   0  0  0  0  0  0  0  0  0  0  0  0
   -2.4181    0.6577    0.8217 C   0  0  0  0  0  0  0  0  0  0  0  0
   -2.0231    0.0865   -0.4113 C   0  0  0  0  0  0  0  0  0  0  0  0
   -0.5729   -0.0440   -1.9947 H   0  0  0  0  0  0  0  0  0  0  0  0
    1.0267    1.6492   -0.9761 H   0  0  0  0  0  0  0  0  0  0  0  0
   -1.9916    2.3842    2.9873 H   0  0  0  0  0  0  0  0  0  0  0  0
   -3.3451    0.4000    1.3173 H   0  0  0  0  0  0  0  0  0  0  0  0
    5.2009   -6.1524   -5.8539 N   0  0  0  0  0  0  0  0  0  0  0  0
    5.7331   -7.0954   -6.0758 N   0  0  0  0  0  0  0  0  0  0  0  0
   -2.5144    2.8166    4.1207 Cl  0  0  0  0  0  0  0  0  0  0  0  0
   -2.7636   -0.8355   -1.0878 O   0  0  0  0  0  0  0  0  0  0  0  0
   -3.9991   -1.2546   -0.5238 C   0  0  0  0  0  0  0  0  0  0  0  0
   -4.4136   -1.9845   -1.2206 H   0  0  0  0  0  0  0  0  0  0  0  0
   -4.6986   -0.4157   -0.4183 H   0  0  0  0  0  0  0  0  0  0  0  0
   -3.8544   -1.7299    0.4546 H   0  0  0  0  0  0  0  0  0  0  0  0
  1  2  2  0  0  0  0
  1  6  1  0  0  0  0
  2  3  1  0  0  0  0
  3  4  2  0  0  0  0
  5  4  1  0  0  0  0
  5 10  1  0  0  0  0
  6  5  2  0  0  0  0
  7  1  1  0  0  0  0
  8  2  1  0  0  0  0
  9 13  1  0  0  0  0
 12 11  3  0  0  0  0
 14 15  1  0  0  0  0
 14  6  1  0  0  0  0
 15 17  1  0  0  0  0
 15 18  1  0  0  0  0
 16 15  1  0  0  0  0
M  RAD  2   3   2   4   2
M  END
