Coordinates from ORCA-job 4-MeO-Ph-N2-Cl-B3LYPG-6-31G_dp-MTMO-d009-169-n800
 OpenBabel09051908443D

 18 16  0  0  0  0  0  0  0  0999 V2000
   -0.6413   -0.6313   -0.7218 C   0  0  0  0  0  0  0  0  0  0  0  0
    0.4279    0.1848   -0.3232 C   0  0  0  0  0  0  0  0  0  0  0  0
   -0.0650    1.1621    0.5133 C   0  0  0  0  0  0  0  0  0  0  0  0
   -1.2102    1.4327    0.9464 C   0  0  0  0  0  0  0  0  0  0  0  0
   -2.3164    0.6538    0.5842 C   0  0  0  0  0  0  0  0  0  0  0  0
   -1.9763   -0.4098   -0.2857 C   0  0  0  0  0  0  0  0  0  0  0  0
   -0.4632   -1.4705   -1.3871 H   0  0  0  0  0  0  0  0  0  0  0  0
    1.4497    0.0300   -0.6462 H   0  0  0  0  0  0  0  0  0  0  0  0
   -1.6434    2.9004    2.1106 H   0  0  0  0  0  0  0  0  0  0  0  0
   -3.3281    0.8343    0.9243 H   0  0  0  0  0  0  0  0  0  0  0  0
    4.5044   -4.1911   -5.0800 N   0  0  0  0  0  0  0  0  0  0  0  0
    5.0718   -4.7457   -5.8495 N   0  0  0  0  0  0  0  0  0  0  0  0
   -2.1468    3.8360    2.8949 Cl  0  0  0  0  0  0  0  0  0  0  0  0
   -2.8812   -1.3025   -0.7760 O   0  0  0  0  0  0  0  0  0  0  0  0
   -4.2430   -1.1609   -0.3946 C   0  0  0  0  0  0  0  0  0  0  0  0
   -4.7799   -1.9660   -0.8973 H   0  0  0  0  0  0  0  0  0  0  0  0
   -4.6530   -0.1957   -0.7171 H   0  0  0  0  0  0  0  0  0  0  0  0
   -4.3698   -1.2630    0.6905 H   0  0  0  0  0  0  0  0  0  0  0  0
  1  2  2  0  0  0  0
  1  6  1  0  0  0  0
  2  3  1  0  0  0  0
  3  4  2  0  0  0  0
  5 10  1  0  0  0  0
  5  4  1  0  0  0  0
  6  5  2  0  0  0  0
  7  1  1  0  0  0  0
  8  2  1  0  0  0  0
  9 13  1  0  0  0  0
 12 11  3  0  0  0  0
 14 15  1  0  0  0  0
 14  6  1  0  0  0  0
 15 18  1  0  0  0  0
 16 15  1  0  0  0  0
 17 15  1  0  0  0  0
M  RAD  2   3   2   4   2
M  END
