Coordinates from ORCA-job 4-MeO-Ph-N2-Cl-B3LYPG-6-31G_dp-MTMO-d009-169-n800
 OpenBabel09051908443D

 18 16  0  0  0  0  0  0  0  0999 V2000
   -0.8870   -1.2265   -1.0438 C   0  0  0  0  0  0  0  0  0  0  0  0
    0.3669   -0.6213   -0.8693 C   0  0  0  0  0  0  0  0  0  0  0  0
    0.1954    0.4911   -0.0759 C   0  0  0  0  0  0  0  0  0  0  0  0
   -0.7961    1.0236    0.4778 C   0  0  0  0  0  0  0  0  0  0  0  0
   -2.0724    0.4620    0.3363 C   0  0  0  0  0  0  0  0  0  0  0  0
   -2.0754   -0.7061   -0.4623 C   0  0  0  0  0  0  0  0  0  0  0  0
   -0.9739   -2.1288   -1.6411 H   0  0  0  0  0  0  0  0  0  0  0  0
    1.2803   -1.0046   -1.3067 H   0  0  0  0  0  0  0  0  0  0  0  0
   -0.7563    2.5884    1.5731 H   0  0  0  0  0  0  0  0  0  0  0  0
   -2.9697    0.8685    0.7845 H   0  0  0  0  0  0  0  0  0  0  0  0
    3.7275   -2.1628   -3.3613 N   0  0  0  0  0  0  0  0  0  0  0  0
    4.5662   -2.4687   -4.0129 N   0  0  0  0  0  0  0  0  0  0  0  0
   -0.9354    3.6409    2.3530 Cl  0  0  0  0  0  0  0  0  0  0  0  0
   -3.1980   -1.4262   -0.7418 O   0  0  0  0  0  0  0  0  0  0  0  0
   -4.4360   -0.9819   -0.2032 C   0  0  0  0  0  0  0  0  0  0  0  0
   -5.1864   -1.6916   -0.5533 H   0  0  0  0  0  0  0  0  0  0  0  0
   -4.6932    0.0227   -0.5613 H   0  0  0  0  0  0  0  0  0  0  0  0
   -4.4201   -0.9814    0.8940 H   0  0  0  0  0  0  0  0  0  0  0  0
  1  2  2  0  0  0  0
  1  6  1  0  0  0  0
  2  3  1  0  0  0  0
  3  4  2  0  0  0  0
  5  4  1  0  0  0  0
  5 10  1  0  0  0  0
  6  5  2  0  0  0  0
  7  1  1  0  0  0  0
  8  2  1  0  0  0  0
  9 13  1  0  0  0  0
 12 11  3  0  0  0  0
 14  6  1  0  0  0  0
 14 15  1  0  0  0  0
 15 18  1  0  0  0  0
 16 15  1  0  0  0  0
 17 15  1  0  0  0  0
M  RAD  2   3   2   4   2
M  END
