Coordinates from ORCA-job 4-MeO-Ph-N2-Cl-B3LYPG-6-31G_dp-MTMO-d009-169-n800
 OpenBabel09051908443D

 18 17  0  0  0  0  0  0  0  0999 V2000
   -1.2823   -1.7059   -1.4829 C   0  0  0  0  0  0  0  0  0  0  0  0
    0.0384   -1.3567   -1.5850 C   0  0  0  0  0  0  0  0  0  0  0  0
    0.5918   -0.2116   -0.8842 C   0  0  0  0  0  0  0  0  0  0  0  0
   -0.3500    0.5418   -0.0707 C   0  0  0  0  0  0  0  0  0  0  0  0
   -1.6773    0.1831    0.0232 C   0  0  0  0  0  0  0  0  0  0  0  0
   -2.1586   -0.9415   -0.6769 C   0  0  0  0  0  0  0  0  0  0  0  0
   -1.6851   -2.5653   -2.0079 H   0  0  0  0  0  0  0  0  0  0  0  0
    0.7185   -1.9385   -2.2007 H   0  0  0  0  0  0  0  0  0  0  0  0
    0.0484    1.4035    0.4585 H   0  0  0  0  0  0  0  0  0  0  0  0
   -2.3411    0.7773    0.6397 H   0  0  0  0  0  0  0  0  0  0  0  0
    1.6352    0.0557   -0.9665 N   0  0  0  0  0  0  0  0  0  0  0  0
    2.6435    0.6341   -0.8007 N   0  0  0  0  0  0  0  0  0  0  0  0
    2.3194    2.3758    0.6246 Cl  0  0  0  0  0  0  0  0  0  0  0  0
   -3.4281   -1.3699   -0.6461 O   0  0  0  0  0  0  0  0  0  0  0  0
   -4.3907   -0.6676    0.1458 C   0  0  0  0  0  0  0  0  0  0  0  0
   -5.3277   -1.2076    0.0136 H   0  0  0  0  0  0  0  0  0  0  0  0
   -4.5092    0.3640   -0.2021 H   0  0  0  0  0  0  0  0  0  0  0  0
   -4.1088   -0.6732    1.2042 H   0  0  0  0  0  0  0  0  0  0  0  0
  1  6  1  0  0  0  0
  2  1  2  0  0  0  0
  2  3  1  0  0  0  0
  3  4  2  0  0  0  0
  4  5  1  0  0  0  0
  4  9  1  0  0  0  0
  5 10  1  0  0  0  0
  6 14  1  0  0  0  0
  6  5  2  0  0  0  0
  7  1  1  0  0  0  0
  8  2  1  0  0  0  0
 11  3  1  0  0  0  0
 11 12  1  0  0  0  0
 14 15  1  0  0  0  0
 15 18  1  0  0  0  0
 16 15  1  0  0  0  0
 17 15  1  0  0  0  0
M  RAD  3  11   2  12   3  13   2
M  END
