Coordinates from ORCA-job 4-MeO-Ph-N2-Cl-B3LYPG-6-31G_dp-MTMO-d009-169-n800
 OpenBabel09051908453D

 18 16  0  0  0  0  0  0  0  0999 V2000
   -1.0148    0.6466   -0.8712 C   0  0  0  0  0  0  0  0  0  0  0  0
   -0.1245    1.5831   -0.3250 C   0  0  0  0  0  0  0  0  0  0  0  0
   -0.6543    2.0368    0.8625 C   0  0  0  0  0  0  0  0  0  0  0  0
   -1.7077    1.7846    1.4943 C   0  0  0  0  0  0  0  0  0  0  0  0
   -2.6342    0.8583    0.9983 C   0  0  0  0  0  0  0  0  0  0  0  0
   -2.2349    0.2892   -0.2345 C   0  0  0  0  0  0  0  0  0  0  0  0
   -0.7822    0.1657   -1.8161 H   0  0  0  0  0  0  0  0  0  0  0  0
    0.8083    1.8661   -0.7955 H   0  0  0  0  0  0  0  0  0  0  0  0
   -2.2195    2.5864    3.1651 H   0  0  0  0  0  0  0  0  0  0  0  0
   -3.5605    0.5963    1.4929 H   0  0  0  0  0  0  0  0  0  0  0  0
    6.9141   -7.7688   -7.2692 N   0  0  0  0  0  0  0  0  0  0  0  0
    7.4480   -8.7112   -7.4895 N   0  0  0  0  0  0  0  0  0  0  0  0
   -2.7459    3.0162    4.2975 Cl  0  0  0  0  0  0  0  0  0  0  0  0
   -2.9703   -0.6361   -0.9121 O   0  0  0  0  0  0  0  0  0  0  0  0
   -4.2043   -1.0612   -0.3495 C   0  0  0  0  0  0  0  0  0  0  0  0
   -4.6146   -1.7930   -1.0467 H   0  0  0  0  0  0  0  0  0  0  0  0
   -4.9079   -0.2258   -0.2445 H   0  0  0  0  0  0  0  0  0  0  0  0
   -4.0583   -1.5360    0.6291 H   0  0  0  0  0  0  0  0  0  0  0  0
  1  2  2  0  0  0  0
  1  6  1  0  0  0  0
  2  3  1  0  0  0  0
  3  4  2  0  0  0  0
  5 10  1  0  0  0  0
  5  4  1  0  0  0  0
  6  5  2  0  0  0  0
  7  1  1  0  0  0  0
  8  2  1  0  0  0  0
  9 13  1  0  0  0  0
 12 11  3  0  0  0  0
 14 15  1  0  0  0  0
 14  6  1  0  0  0  0
 15 17  1  0  0  0  0
 15 18  1  0  0  0  0
 16 15  1  0  0  0  0
M  RAD  2   3   2   4   2
M  END
