Coordinates from ORCA-job 4-MeO-Ph-N2-Cl-B3LYPG-6-31G_dp-MTMO-d009-169-n800
 OpenBabel09051908453D

 18 16  0  0  0  0  0  0  0  0999 V2000
   -1.0018    0.6317   -0.9042 C   0  0  0  0  0  0  0  0  0  0  0  0
   -0.1062    1.5634   -0.3584 C   0  0  0  0  0  0  0  0  0  0  0  0
   -0.6258    2.0087    0.8366 C   0  0  0  0  0  0  0  0  0  0  0  0
   -1.6742    1.7532    1.4755 C   0  0  0  0  0  0  0  0  0  0  0  0
   -2.6055    0.8313    0.9800 C   0  0  0  0  0  0  0  0  0  0  0  0
   -2.2170    0.2709   -0.2601 C   0  0  0  0  0  0  0  0  0  0  0  0
   -0.7775    0.1576   -1.8545 H   0  0  0  0  0  0  0  0  0  0  0  0
    0.8231    1.8489   -0.8345 H   0  0  0  0  0  0  0  0  0  0  0  0
   -2.1733    2.5433    3.1547 H   0  0  0  0  0  0  0  0  0  0  0  0
   -3.5280    0.5666    1.4803 H   0  0  0  0  0  0  0  0  0  0  0  0
    6.7298   -7.5857   -7.0908 N   0  0  0  0  0  0  0  0  0  0  0  0
    7.2627   -8.5286   -7.3113 N   0  0  0  0  0  0  0  0  0  0  0  0
   -2.6914    2.9655    4.2939 Cl  0  0  0  0  0  0  0  0  0  0  0  0
   -2.9589   -0.6487   -0.9384 O   0  0  0  0  0  0  0  0  0  0  0  0
   -4.1886   -1.0769   -0.3686 C   0  0  0  0  0  0  0  0  0  0  0  0
   -4.6053   -1.8032   -1.0679 H   0  0  0  0  0  0  0  0  0  0  0  0
   -4.8906   -0.2417   -0.2517 H   0  0  0  0  0  0  0  0  0  0  0  0
   -4.0349   -1.5590    0.6052 H   0  0  0  0  0  0  0  0  0  0  0  0
  1  2  2  0  0  0  0
  1  6  1  0  0  0  0
  2  3  1  0  0  0  0
  3  4  2  0  0  0  0
  5  4  1  0  0  0  0
  5 10  1  0  0  0  0
  6  5  2  0  0  0  0
  7  1  1  0  0  0  0
  8  2  1  0  0  0  0
  9 13  1  0  0  0  0
 12 11  3  0  0  0  0
 14 15  1  0  0  0  0
 14  6  1  0  0  0  0
 15 17  1  0  0  0  0
 15 18  1  0  0  0  0
 16 15  1  0  0  0  0
M  RAD  2   3   2   4   2
M  END
