Coordinates from ORCA-job 4-MeO-Ph-N2-Cl-B3LYPG-6-31G_dp-MTMO-d009-169-n800
 OpenBabel09051908453D

 18 16  0  0  0  0  0  0  0  0999 V2000
   -0.9562    0.5905   -0.9253 C   0  0  0  0  0  0  0  0  0  0  0  0
   -0.0642    1.5256   -0.3792 C   0  0  0  0  0  0  0  0  0  0  0  0
   -0.5912    1.9775    0.8102 C   0  0  0  0  0  0  0  0  0  0  0  0
   -1.6433    1.7245    1.4437 C   0  0  0  0  0  0  0  0  0  0  0  0
   -2.5715    0.7997    0.9480 C   0  0  0  0  0  0  0  0  0  0  0  0
   -2.1751    0.2327   -0.2867 C   0  0  0  0  0  0  0  0  0  0  0  0
   -0.7258    0.1113   -1.8715 H   0  0  0  0  0  0  0  0  0  0  0  0
    0.8679    1.8090   -0.8511 H   0  0  0  0  0  0  0  0  0  0  0  0
   -2.1505    2.5237    3.1178 H   0  0  0  0  0  0  0  0  0  0  0  0
   -3.4969    0.5373    1.4441 H   0  0  0  0  0  0  0  0  0  0  0  0
    6.4241   -7.3071   -6.8580 N   0  0  0  0  0  0  0  0  0  0  0  0
    6.9554   -8.2502   -7.0814 N   0  0  0  0  0  0  0  0  0  0  0  0
   -2.6747    2.9509    4.2521 Cl  0  0  0  0  0  0  0  0  0  0  0  0
   -2.9124   -0.6910   -0.9645 O   0  0  0  0  0  0  0  0  0  0  0  0
   -4.1455   -1.1164   -0.4000 C   0  0  0  0  0  0  0  0  0  0  0  0
   -4.5576   -1.8467   -1.0978 H   0  0  0  0  0  0  0  0  0  0  0  0
   -4.8484   -0.2808   -0.2920 H   0  0  0  0  0  0  0  0  0  0  0  0
   -3.9977   -1.5931    0.5774 H   0  0  0  0  0  0  0  0  0  0  0  0
  1  2  2  0  0  0  0
  1  6  1  0  0  0  0
  2  3  1  0  0  0  0
  3  4  2  0  0  0  0
  5  4  1  0  0  0  0
  5 10  1  0  0  0  0
  6  5  2  0  0  0  0
  7  1  1  0  0  0  0
  8  2  1  0  0  0  0
  9 13  1  0  0  0  0
 12 11  3  0  0  0  0
 14 15  1  0  0  0  0
 14  6  1  0  0  0  0
 15 17  1  0  0  0  0
 15 18  1  0  0  0  0
 16 15  1  0  0  0  0
M  RAD  2   3   2   4   2
M  END
