Coordinates from ORCA-job 4-MeO-Ph-N2-Cl-B3LYPG-6-31G_dp-MTMO-d009-169-n800
 OpenBabel09051908443D

 18 18  0  0  0  0  0  0  0  0999 V2000
   -1.3182   -1.7228   -1.4852 C   0  0  0  0  0  0  0  0  0  0  0  0
    0.0164   -1.3757   -1.5927 C   0  0  0  0  0  0  0  0  0  0  0  0
    0.4791   -0.2590   -0.8892 C   0  0  0  0  0  0  0  0  0  0  0  0
   -0.3496    0.5218   -0.0858 C   0  0  0  0  0  0  0  0  0  0  0  0
   -1.6924    0.1648    0.0144 C   0  0  0  0  0  0  0  0  0  0  0  0
   -2.1822   -0.9546   -0.6799 C   0  0  0  0  0  0  0  0  0  0  0  0
   -1.7235   -2.5812   -2.0088 H   0  0  0  0  0  0  0  0  0  0  0  0
    0.7015   -1.9507   -2.2055 H   0  0  0  0  0  0  0  0  0  0  0  0
    0.0558    1.3788    0.4388 H   0  0  0  0  0  0  0  0  0  0  0  0
   -2.3463    0.7660    0.6337 H   0  0  0  0  0  0  0  0  0  0  0  0
    1.9390    0.0422   -1.0628 N   0  0  0  0  0  0  0  0  0  0  0  0
    2.7666    0.7871   -0.7199 N   0  0  0  0  0  0  0  0  0  0  0  0
    2.2427    2.3886    0.6555 Cl  0  0  0  0  0  0  0  0  0  0  0  0
   -3.4655   -1.3772   -0.6414 O   0  0  0  0  0  0  0  0  0  0  0  0
   -4.4043   -0.6597    0.1553 C   0  0  0  0  0  0  0  0  0  0  0  0
   -5.3534   -1.1830    0.0379 H   0  0  0  0  0  0  0  0  0  0  0  0
   -4.5144    0.3746   -0.1912 H   0  0  0  0  0  0  0  0  0  0  0  0
   -4.1150   -0.6627    1.2130 H   0  0  0  0  0  0  0  0  0  0  0  0
  1  6  1  0  0  0  0
  2  1  2  0  0  0  0
  2  3  1  0  0  0  0
  3  4  2  0  0  0  0
  4  5  1  0  0  0  0
  4  9  1  0  0  0  0
  5 10  1  0  0  0  0
  6 14  1  0  0  0  0
  6  5  2  0  0  0  0
  7  1  1  0  0  0  0
  8  2  1  0  0  0  0
 11  3  1  0  0  0  0
 11 12  2  0  0  0  0
 12 13  1  0  0  0  0
 14 15  1  0  0  0  0
 15 18  1  0  0  0  0
 16 15  1  0  0  0  0
 17 15  1  0  0  0  0
M  END
