Coordinates from ORCA-job 4-MeO-Ph-N2-Cl-B3LYPG-6-31G_dp-MTMO-d009-169-n800
 OpenBabel09051908443D

 18 16  0  0  0  0  0  0  0  0999 V2000
   -1.4234   -1.7354   -1.4715 C   0  0  0  0  0  0  0  0  0  0  0  0
   -0.0622   -1.4398   -1.6387 C   0  0  0  0  0  0  0  0  0  0  0  0
    0.2229   -0.3177   -0.8958 C   0  0  0  0  0  0  0  0  0  0  0  0
   -0.4489    0.4367   -0.1516 C   0  0  0  0  0  0  0  0  0  0  0  0
   -1.8143    0.1868    0.0489 C   0  0  0  0  0  0  0  0  0  0  0  0
   -2.2806   -0.9495   -0.6533 C   0  0  0  0  0  0  0  0  0  0  0  0
   -1.8577   -2.5926   -1.9765 H   0  0  0  0  0  0  0  0  0  0  0  0
    0.6095   -2.0231   -2.2554 H   0  0  0  0  0  0  0  0  0  0  0  0
    0.2233    1.9367    0.7990 H   0  0  0  0  0  0  0  0  0  0  0  0
   -2.4574    0.7943    0.6733 H   0  0  0  0  0  0  0  0  0  0  0  0
    3.4513   -0.2943   -1.6830 N   0  0  0  0  0  0  0  0  0  0  0  0
    4.4004    0.2348   -1.4814 N   0  0  0  0  0  0  0  0  0  0  0  0
    0.5143    3.0026    1.5284 Cl  0  0  0  0  0  0  0  0  0  0  0  0
   -3.5700   -1.3874   -0.6101 O   0  0  0  0  0  0  0  0  0  0  0  0
   -4.5001   -0.6682    0.1876 C   0  0  0  0  0  0  0  0  0  0  0  0
   -5.4518   -1.1906    0.0824 H   0  0  0  0  0  0  0  0  0  0  0  0
   -4.6148    0.3661   -0.1609 H   0  0  0  0  0  0  0  0  0  0  0  0
   -4.2043   -0.6622    1.2444 H   0  0  0  0  0  0  0  0  0  0  0  0
  1  6  1  0  0  0  0
  2  1  2  0  0  0  0
  2  3  1  0  0  0  0
  3  4  2  0  0  0  0
  4  5  1  0  0  0  0
  5 10  1  0  0  0  0
  6 14  1  0  0  0  0
  6  5  2  0  0  0  0
  7  1  1  0  0  0  0
  8  2  1  0  0  0  0
  9 13  1  0  0  0  0
 11 12  3  0  0  0  0
 14 15  1  0  0  0  0
 15 18  1  0  0  0  0
 16 15  1  0  0  0  0
 17 15  1  0  0  0  0
M  RAD  2   3   2   4   2
M  END
