Coordinates from ORCA-job 4-MeO-Ph-N2-Cl-B3LYPG-6-31G_dp-MTMO-d009-169-n800
 OpenBabel09051908443D

 18 16  0  0  0  0  0  0  0  0999 V2000
   -0.6600   -0.7148   -0.7738 C   0  0  0  0  0  0  0  0  0  0  0  0
    0.4364    0.0790   -0.4054 C   0  0  0  0  0  0  0  0  0  0  0  0
   -0.0166    1.0786    0.4274 C   0  0  0  0  0  0  0  0  0  0  0  0
   -1.1461    1.3828    0.8789 C   0  0  0  0  0  0  0  0  0  0  0  0
   -2.2777    0.6271    0.5469 C   0  0  0  0  0  0  0  0  0  0  0  0
   -1.9806   -0.4549   -0.3159 C   0  0  0  0  0  0  0  0  0  0  0  0
   -0.5152   -1.5665   -1.4314 H   0  0  0  0  0  0  0  0  0  0  0  0
    1.4478   -0.1052   -0.7452 H   0  0  0  0  0  0  0  0  0  0  0  0
   -1.5186    2.8690    2.0397 H   0  0  0  0  0  0  0  0  0  0  0  0
   -3.2780    0.8364    0.9039 H   0  0  0  0  0  0  0  0  0  0  0  0
    4.3496   -3.8938   -4.7944 N   0  0  0  0  0  0  0  0  0  0  0  0
    4.9284   -4.4254   -5.5716 N   0  0  0  0  0  0  0  0  0  0  0  0
   -1.9807    3.8231    2.8270 Cl  0  0  0  0  0  0  0  0  0  0  0  0
   -2.9165   -1.3305   -0.7781 O   0  0  0  0  0  0  0  0  0  0  0  0
   -4.2672   -1.1491   -0.3750 C   0  0  0  0  0  0  0  0  0  0  0  0
   -4.8333   -1.9465   -0.8576 H   0  0  0  0  0  0  0  0  0  0  0  0
   -4.6581   -0.1779   -0.7029 H   0  0  0  0  0  0  0  0  0  0  0  0
   -4.3772   -1.2340    0.7135 H   0  0  0  0  0  0  0  0  0  0  0  0
  1  2  2  0  0  0  0
  1  6  1  0  0  0  0
  2  3  1  0  0  0  0
  3  4  2  0  0  0  0
  5  4  1  0  0  0  0
  5 10  1  0  0  0  0
  6  5  2  0  0  0  0
  7  1  1  0  0  0  0
  8  2  1  0  0  0  0
  9 13  1  0  0  0  0
 12 11  3  0  0  0  0
 14 15  1  0  0  0  0
 14  6  1  0  0  0  0
 15 18  1  0  0  0  0
 16 15  1  0  0  0  0
 17 15  1  0  0  0  0
M  RAD  2   3   2   4   2
M  END
