Coordinates from ORCA-job 4-MeO-Ph-N2-Cl-B3LYPG-6-31G_dp-MTMO-d009-169-n800
 OpenBabel09051908453D

 18 16  0  0  0  0  0  0  0  0999 V2000
   -1.1483    0.7735   -0.7619 C   0  0  0  0  0  0  0  0  0  0  0  0
   -0.2596    1.7115   -0.2155 C   0  0  0  0  0  0  0  0  0  0  0  0
   -0.7902    2.1645    0.9719 C   0  0  0  0  0  0  0  0  0  0  0  0
   -1.8433    1.9104    1.6034 C   0  0  0  0  0  0  0  0  0  0  0  0
   -2.7683    0.9827    1.1074 C   0  0  0  0  0  0  0  0  0  0  0  0
   -2.3680    0.4143   -0.1254 C   0  0  0  0  0  0  0  0  0  0  0  0
   -0.9149    0.2931   -1.7067 H   0  0  0  0  0  0  0  0  0  0  0  0
    0.6729    1.9960   -0.6859 H   0  0  0  0  0  0  0  0  0  0  0  0
   -2.3555    2.7118    3.2751 H   0  0  0  0  0  0  0  0  0  0  0  0
   -3.6943    0.7193    1.6019 H   0  0  0  0  0  0  0  0  0  0  0  0
    7.9832   -8.7673   -8.1426 N   0  0  0  0  0  0  0  0  0  0  0  0
    8.5153   -9.7104   -8.3642 N   0  0  0  0  0  0  0  0  0  0  0  0
   -2.8828    3.1401    4.4076 Cl  0  0  0  0  0  0  0  0  0  0  0  0
   -3.1018   -0.5123   -0.8031 O   0  0  0  0  0  0  0  0  0  0  0  0
   -4.3351   -0.9393   -0.2406 C   0  0  0  0  0  0  0  0  0  0  0  0
   -4.7441   -1.6718   -0.9379 H   0  0  0  0  0  0  0  0  0  0  0  0
   -5.0402   -0.1050   -0.1357 H   0  0  0  0  0  0  0  0  0  0  0  0
   -4.1885   -1.4138    0.7380 H   0  0  0  0  0  0  0  0  0  0  0  0
  1  2  2  0  0  0  0
  1  6  1  0  0  0  0
  2  3  1  0  0  0  0
  3  4  2  0  0  0  0
  5 10  1  0  0  0  0
  5  4  1  0  0  0  0
  6  5  2  0  0  0  0
  7  1  1  0  0  0  0
  8  2  1  0  0  0  0
  9 13  1  0  0  0  0
 12 11  3  0  0  0  0
 14 15  1  0  0  0  0
 14  6  1  0  0  0  0
 15 17  1  0  0  0  0
 15 18  1  0  0  0  0
 16 15  1  0  0  0  0
M  RAD  2   3   2   4   2
M  END
