Coordinates from ORCA-job 4-MeO-Ph-N2-Cl-B3LYPG-6-31G_dp-MTMO-d009-169-n800
 OpenBabel09051908443D

 18 16  0  0  0  0  0  0  0  0999 V2000
   -1.1924   -1.5451   -1.2875 C   0  0  0  0  0  0  0  0  0  0  0  0
    0.1409   -1.1088   -1.3133 C   0  0  0  0  0  0  0  0  0  0  0  0
    0.2285    0.0340   -0.5503 C   0  0  0  0  0  0  0  0  0  0  0  0
   -0.5956    0.7051    0.1158 C   0  0  0  0  0  0  0  0  0  0  0  0
   -1.9409    0.3155    0.1749 C   0  0  0  0  0  0  0  0  0  0  0  0
   -2.2086   -0.8586   -0.5679 C   0  0  0  0  0  0  0  0  0  0  0  0
   -1.4797   -2.4398   -1.8310 H   0  0  0  0  0  0  0  0  0  0  0  0
    0.9309   -1.6134   -1.8540 H   0  0  0  0  0  0  0  0  0  0  0  0
   -0.1934    2.2587    1.1488 H   0  0  0  0  0  0  0  0  0  0  0  0
   -2.7050    0.8467    0.7278 H   0  0  0  0  0  0  0  0  0  0  0  0
    3.6268   -1.1722   -2.4245 N   0  0  0  0  0  0  0  0  0  0  0  0
    4.6621   -0.8310   -2.6056 N   0  0  0  0  0  0  0  0  0  0  0  0
   -0.1150    3.3335    1.9156 Cl  0  0  0  0  0  0  0  0  0  0  0  0
   -3.4428   -1.4289   -0.6594 O   0  0  0  0  0  0  0  0  0  0  0  0
   -4.5245   -0.8086    0.0223 C   0  0  0  0  0  0  0  0  0  0  0  0
   -5.4016   -1.4221   -0.1874 H   0  0  0  0  0  0  0  0  0  0  0  0
   -4.7000    0.2106   -0.3444 H   0  0  0  0  0  0  0  0  0  0  0  0
   -4.3532   -0.7782    1.1059 H   0  0  0  0  0  0  0  0  0  0  0  0
  1  6  1  0  0  0  0
  2  1  2  0  0  0  0
  2  3  1  0  0  0  0
  3  4  2  0  0  0  0
  4  5  1  0  0  0  0
  5 10  1  0  0  0  0
  6  5  2  0  0  0  0
  7  1  1  0  0  0  0
  8  2  1  0  0  0  0
  9 13  1  0  0  0  0
 12 11  3  0  0  0  0
 14  6  1  0  0  0  0
 14 15  1  0  0  0  0
 15 18  1  0  0  0  0
 16 15  1  0  0  0  0
 17 15  1  0  0  0  0
M  RAD  2   3   2   4   2
M  END
