Coordinates from ORCA-job 4-MeO-Ph-N2-Cl-B3LYPG-6-31G_dp-MTMO-d009-169-n800
 OpenBabel09051908443D

 18 16  0  0  0  0  0  0  0  0999 V2000
   -0.6079   -0.4429   -0.6614 C   0  0  0  0  0  0  0  0  0  0  0  0
    0.4040    0.4173   -0.2094 C   0  0  0  0  0  0  0  0  0  0  0  0
   -0.1621    1.3334    0.6496 C   0  0  0  0  0  0  0  0  0  0  0  0
   -1.3296    1.5225    1.0660 C   0  0  0  0  0  0  0  0  0  0  0  0
   -2.3812    0.6960    0.6506 C   0  0  0  0  0  0  0  0  0  0  0  0
   -1.9623   -0.3140   -0.2486 C   0  0  0  0  0  0  0  0  0  0  0  0
   -0.3676   -1.2459   -1.3516 H   0  0  0  0  0  0  0  0  0  0  0  0
    1.4396    0.3332   -0.5141 H   0  0  0  0  0  0  0  0  0  0  0  0
   -1.8739    2.9184    2.2695 H   0  0  0  0  0  0  0  0  0  0  0  0
   -3.4087    0.8059    0.9733 H   0  0  0  0  0  0  0  0  0  0  0  0
    4.7543   -4.7498   -5.5351 N   0  0  0  0  0  0  0  0  0  0  0  0
    5.2808   -5.3603   -6.2912 N   0  0  0  0  0  0  0  0  0  0  0  0
   -2.4504    3.7929    3.0739 Cl  0  0  0  0  0  0  0  0  0  0  0  0
   -2.8038   -1.2382   -0.7903 O   0  0  0  0  0  0  0  0  0  0  0  0
   -4.1786   -1.1894   -0.4336 C   0  0  0  0  0  0  0  0  0  0  0  0
   -4.6576   -2.0056   -0.9754 H   0  0  0  0  0  0  0  0  0  0  0  0
   -4.6382   -0.2384   -0.7307 H   0  0  0  0  0  0  0  0  0  0  0  0
   -4.3203   -1.3379    0.6443 H   0  0  0  0  0  0  0  0  0  0  0  0
  1  6  2  0  0  0  0
  1  2  1  0  0  0  0
  2  3  2  0  0  0  0
  3  4  1  0  0  0  0
  5 10  1  0  0  0  0
  5  4  2  0  0  0  0
  6  5  1  0  0  0  0
  7  1  1  0  0  0  0
  8  2  1  0  0  0  0
  9 13  1  0  0  0  0
 12 11  3  0  0  0  0
 14 15  1  0  0  0  0
 14  6  1  0  0  0  0
 15 18  1  0  0  0  0
 16 15  1  0  0  0  0
 17 15  1  0  0  0  0
M  RAD  2   3   2   4   2
M  END
