Coordinates from ORCA-job 4-MeO-Ph-N2-Cl-B3LYPG-6-31G_dp-MTMO-d009-169-n800
 OpenBabel09051908443D

 18 16  0  0  0  0  0  0  0  0999 V2000
   -1.4159   -1.7875   -1.5135 C   0  0  0  0  0  0  0  0  0  0  0  0
   -0.0499   -1.5355   -1.7089 C   0  0  0  0  0  0  0  0  0  0  0  0
    0.2811   -0.4221   -0.9770 C   0  0  0  0  0  0  0  0  0  0  0  0
   -0.3361    0.3702   -0.2196 C   0  0  0  0  0  0  0  0  0  0  0  0
   -1.7069    0.1537    0.0020 C   0  0  0  0  0  0  0  0  0  0  0  0
   -2.2280   -0.9691   -0.6817 C   0  0  0  0  0  0  0  0  0  0  0  0
   -1.8878   -2.6324   -2.0050 H   0  0  0  0  0  0  0  0  0  0  0  0
    0.5938   -2.1398   -2.3351 H   0  0  0  0  0  0  0  0  0  0  0  0
    0.3648    1.8139    0.6773 H   0  0  0  0  0  0  0  0  0  0  0  0
   -2.3173    0.7858    0.6352 H   0  0  0  0  0  0  0  0  0  0  0  0
    2.9065   -0.1063   -1.4260 N   0  0  0  0  0  0  0  0  0  0  0  0
    3.7314    0.5438   -1.0808 N   0  0  0  0  0  0  0  0  0  0  0  0
    0.7389    2.8809    1.3838 Cl  0  0  0  0  0  0  0  0  0  0  0  0
   -3.5298   -1.3632   -0.6085 O   0  0  0  0  0  0  0  0  0  0  0  0
   -4.4174   -0.6101    0.2065 C   0  0  0  0  0  0  0  0  0  0  0  0
   -5.3881   -1.1009    0.1249 H   0  0  0  0  0  0  0  0  0  0  0  0
   -4.5050    0.4260   -0.1441 H   0  0  0  0  0  0  0  0  0  0  0  0
   -4.0979   -0.6101    1.2564 H   0  0  0  0  0  0  0  0  0  0  0  0
  1  6  1  0  0  0  0
  2  1  2  0  0  0  0
  2  3  1  0  0  0  0
  3  4  2  0  0  0  0
  4  5  1  0  0  0  0
  5 10  1  0  0  0  0
  6 14  1  0  0  0  0
  6  5  2  0  0  0  0
  7  1  1  0  0  0  0
  8  2  1  0  0  0  0
  9 13  1  0  0  0  0
 11 12  3  0  0  0  0
 14 15  1  0  0  0  0
 15 18  1  0  0  0  0
 16 15  1  0  0  0  0
 17 15  1  0  0  0  0
M  RAD  2   3   2   4   2
M  END
