Coordinates from ORCA-job 4-MeO-Ph-N2-Cl-B3LYPG-6-31G_dp-MTMO-d009-169-n800
 OpenBabel09051908443D

 18 16  0  0  0  0  0  0  0  0999 V2000
   -0.6826   -0.7711   -0.8224 C   0  0  0  0  0  0  0  0  0  0  0  0
    0.4347    0.0048   -0.4796 C   0  0  0  0  0  0  0  0  0  0  0  0
    0.0154    1.0169    0.3556 C   0  0  0  0  0  0  0  0  0  0  0  0
   -1.0994    1.3439    0.8274 C   0  0  0  0  0  0  0  0  0  0  0  0
   -2.2505    0.6068    0.5211 C   0  0  0  0  0  0  0  0  0  0  0  0
   -1.9895   -0.4848   -0.3411 C   0  0  0  0  0  0  0  0  0  0  0  0
   -0.5658   -1.6289   -1.4776 H   0  0  0  0  0  0  0  0  0  0  0  0
    1.4358   -0.1997   -0.8372 H   0  0  0  0  0  0  0  0  0  0  0  0
   -1.4201    2.8379    1.9926 H   0  0  0  0  0  0  0  0  0  0  0  0
   -3.2397    0.8358    0.8960 H   0  0  0  0  0  0  0  0  0  0  0  0
    4.2600   -3.6813   -4.5813 N   0  0  0  0  0  0  0  0  0  0  0  0
    4.8503   -4.2000   -5.3586 N   0  0  0  0  0  0  0  0  0  0  0  0
   -1.8466    3.8018    2.7883 Cl  0  0  0  0  0  0  0  0  0  0  0  0
   -2.9496   -1.3459   -0.7803 O   0  0  0  0  0  0  0  0  0  0  0  0
   -4.2890   -1.1373   -0.3535 C   0  0  0  0  0  0  0  0  0  0  0  0
   -4.8784   -1.9270   -0.8206 H   0  0  0  0  0  0  0  0  0  0  0  0
   -4.6681   -0.1610   -0.6803 H   0  0  0  0  0  0  0  0  0  0  0  0
   -4.3804   -1.2136    0.7374 H   0  0  0  0  0  0  0  0  0  0  0  0
  1  2  2  0  0  0  0
  1  6  1  0  0  0  0
  2  3  1  0  0  0  0
  3  4  2  0  0  0  0
  5  4  1  0  0  0  0
  5 10  1  0  0  0  0
  6  5  2  0  0  0  0
  7  1  1  0  0  0  0
  8  2  1  0  0  0  0
  9 13  1  0  0  0  0
 12 11  3  0  0  0  0
 14 15  1  0  0  0  0
 14  6  1  0  0  0  0
 15 18  1  0  0  0  0
 16 15  1  0  0  0  0
 17 15  1  0  0  0  0
M  RAD  2   3   2   4   2
M  END
