Coordinates from ORCA-job 4-MeO-Ph-N2-Cl-B3LYPG-6-31G_dp-MTMO-d009-169-n800
 OpenBabel09051908443D

 18 16  0  0  0  0  0  0  0  0999 V2000
   -0.8906   -1.2386   -1.0792 C   0  0  0  0  0  0  0  0  0  0  0  0
    0.3679   -0.6387   -0.9192 C   0  0  0  0  0  0  0  0  0  0  0  0
    0.2102    0.4718   -0.1206 C   0  0  0  0  0  0  0  0  0  0  0  0
   -0.7716    1.0071    0.4477 C   0  0  0  0  0  0  0  0  0  0  0  0
   -2.0517    0.4505    0.3206 C   0  0  0  0  0  0  0  0  0  0  0  0
   -2.0694   -0.7154   -0.4811 C   0  0  0  0  0  0  0  0  0  0  0  0
   -0.9885   -2.1388   -1.6780 H   0  0  0  0  0  0  0  0  0  0  0  0
    1.2742   -1.0241   -1.3695 H   0  0  0  0  0  0  0  0  0  0  0  0
   -0.7129    2.5662    1.5466 H   0  0  0  0  0  0  0  0  0  0  0  0
   -2.9417    0.8591    0.7813 H   0  0  0  0  0  0  0  0  0  0  0  0
    3.6125   -2.0829   -3.2226 N   0  0  0  0  0  0  0  0  0  0  0  0
    4.4694   -2.3699   -3.8587 N   0  0  0  0  0  0  0  0  0  0  0  0
   -0.8780    3.6168    2.3325 Cl  0  0  0  0  0  0  0  0  0  0  0  0
   -3.1983   -1.4305   -0.7483 O   0  0  0  0  0  0  0  0  0  0  0  0
   -4.4274   -0.9833   -0.1921 C   0  0  0  0  0  0  0  0  0  0  0  0
   -5.1850   -1.6892   -0.5344 H   0  0  0  0  0  0  0  0  0  0  0  0
   -4.6857    0.0233   -0.5438 H   0  0  0  0  0  0  0  0  0  0  0  0
   -4.3970   -0.9861    0.9048 H   0  0  0  0  0  0  0  0  0  0  0  0
  1  2  2  0  0  0  0
  1  6  1  0  0  0  0
  2  3  1  0  0  0  0
  3  4  2  0  0  0  0
  5  4  1  0  0  0  0
  5 10  1  0  0  0  0
  6  5  2  0  0  0  0
  7  1  1  0  0  0  0
  8  2  1  0  0  0  0
  9 13  1  0  0  0  0
 12 11  3  0  0  0  0
 14  6  1  0  0  0  0
 14 15  1  0  0  0  0
 15 18  1  0  0  0  0
 16 15  1  0  0  0  0
 17 15  1  0  0  0  0
M  RAD  2   3   2   4   2
M  END
