Coordinates from ORCA-job 4-MeO-Ph-N2-Cl-B3LYPG-6-31G_dp-MTMO-d009-169-n800
 OpenBabel09051908453D

 18 16  0  0  0  0  0  0  0  0999 V2000
   -1.1369    0.7580   -0.7906 C   0  0  0  0  0  0  0  0  0  0  0  0
   -0.2423    1.6908   -0.2450 C   0  0  0  0  0  0  0  0  0  0  0  0
   -0.7634    2.1374    0.9489 C   0  0  0  0  0  0  0  0  0  0  0  0
   -1.8123    1.8822    1.5870 C   0  0  0  0  0  0  0  0  0  0  0  0
   -2.7427    0.9592    1.0916 C   0  0  0  0  0  0  0  0  0  0  0  0
   -2.3526    0.3974   -0.1474 C   0  0  0  0  0  0  0  0  0  0  0  0
   -0.9113    0.2828   -1.7401 H   0  0  0  0  0  0  0  0  0  0  0  0
    0.6874    1.9761   -0.7205 H   0  0  0  0  0  0  0  0  0  0  0  0
   -2.3137    2.6739    3.2645 H   0  0  0  0  0  0  0  0  0  0  0  0
   -3.6656    0.6947    1.5912 H   0  0  0  0  0  0  0  0  0  0  0  0
    7.8204   -8.6041   -7.9886 N   0  0  0  0  0  0  0  0  0  0  0  0
    8.3540   -9.5468   -8.2081 N   0  0  0  0  0  0  0  0  0  0  0  0
   -2.8325    3.0979    4.4028 Cl  0  0  0  0  0  0  0  0  0  0  0  0
   -3.0933   -0.5234   -0.8253 O   0  0  0  0  0  0  0  0  0  0  0  0
   -4.3234   -0.9514   -0.2563 C   0  0  0  0  0  0  0  0  0  0  0  0
   -4.7390   -1.6789   -0.9550 H   0  0  0  0  0  0  0  0  0  0  0  0
   -5.0260   -0.1164   -0.1413 H   0  0  0  0  0  0  0  0  0  0  0  0
   -4.1706   -1.4322    0.7183 H   0  0  0  0  0  0  0  0  0  0  0  0
  1  2  2  0  0  0  0
  1  6  1  0  0  0  0
  2  3  1  0  0  0  0
  3  4  2  0  0  0  0
  5  4  1  0  0  0  0
  5 10  1  0  0  0  0
  6  5  2  0  0  0  0
  7  1  1  0  0  0  0
  8  2  1  0  0  0  0
  9 13  1  0  0  0  0
 12 11  3  0  0  0  0
 14 15  1  0  0  0  0
 14  6  1  0  0  0  0
 15 17  1  0  0  0  0
 15 18  1  0  0  0  0
 16 15  1  0  0  0  0
M  RAD  2   3   2   4   2
M  END
