Coordinates from ORCA-job 4-MeO-Ph-N2-Cl-B3LYPG-6-31G_dp-MTMO-d009-169-n800
 OpenBabel09051908453D

 18 16  0  0  0  0  0  0  0  0999 V2000
   -1.1217    0.7425   -0.8084 C   0  0  0  0  0  0  0  0  0  0  0  0
   -0.2255    1.6739   -0.2631 C   0  0  0  0  0  0  0  0  0  0  0  0
   -0.7441    2.1188    0.9326 C   0  0  0  0  0  0  0  0  0  0  0  0
   -1.7919    1.8631    1.5723 C   0  0  0  0  0  0  0  0  0  0  0  0
   -2.7237    0.9415    1.0772 C   0  0  0  0  0  0  0  0  0  0  0  0
   -2.3364    0.3815   -0.1635 C   0  0  0  0  0  0  0  0  0  0  0  0
   -0.8982    0.2688   -1.7591 H   0  0  0  0  0  0  0  0  0  0  0  0
    0.7034    1.9595   -0.7399 H   0  0  0  0  0  0  0  0  0  0  0  0
   -2.2894    2.6525    3.2522 H   0  0  0  0  0  0  0  0  0  0  0  0
   -3.6458    0.6767    1.5782 H   0  0  0  0  0  0  0  0  0  0  0  0
    7.6789   -8.4688   -7.8666 N   0  0  0  0  0  0  0  0  0  0  0  0
    8.2126   -9.4115   -8.0858 N   0  0  0  0  0  0  0  0  0  0  0  0
   -2.8061    3.0745    4.3920 Cl  0  0  0  0  0  0  0  0  0  0  0  0
   -3.0789   -0.5378   -0.8414 O   0  0  0  0  0  0  0  0  0  0  0  0
   -4.3081   -0.9661   -0.2708 C   0  0  0  0  0  0  0  0  0  0  0  0
   -4.7254   -1.6922   -0.9699 H   0  0  0  0  0  0  0  0  0  0  0  0
   -5.0100   -0.1309   -0.1530 H   0  0  0  0  0  0  0  0  0  0  0  0
   -4.1536   -1.4485    0.7027 H   0  0  0  0  0  0  0  0  0  0  0  0
  1  2  2  0  0  0  0
  1  6  1  0  0  0  0
  2  3  1  0  0  0  0
  3  4  2  0  0  0  0
  5  4  1  0  0  0  0
  5 10  1  0  0  0  0
  6  5  2  0  0  0  0
  7  1  1  0  0  0  0
  8  2  1  0  0  0  0
  9 13  1  0  0  0  0
 12 11  3  0  0  0  0
 14 15  1  0  0  0  0
 14  6  1  0  0  0  0
 15 17  1  0  0  0  0
 15 18  1  0  0  0  0
 16 15  1  0  0  0  0
M  RAD  2   3   2   4   2
M  END
