Coordinates from ORCA-job 4-MeO-Ph-N2-Cl-B3LYPG-6-31G_dp-MTMO-d009-169-n800
 OpenBabel09051908443D

 18 16  0  0  0  0  0  0  0  0999 V2000
   -1.4313   -1.7693   -1.4988 C   0  0  0  0  0  0  0  0  0  0  0  0
   -0.0672   -1.5014   -1.6880 C   0  0  0  0  0  0  0  0  0  0  0  0
    0.2502   -0.3834   -0.9536 C   0  0  0  0  0  0  0  0  0  0  0  0
   -0.3910    0.3907   -0.2014 C   0  0  0  0  0  0  0  0  0  0  0  0
   -1.7585    0.1661    0.0193 C   0  0  0  0  0  0  0  0  0  0  0  0
   -2.2592   -0.9631   -0.6703 C   0  0  0  0  0  0  0  0  0  0  0  0
   -1.8907   -2.6193   -1.9936 H   0  0  0  0  0  0  0  0  0  0  0  0
    0.5838   -2.0995   -2.3127 H   0  0  0  0  0  0  0  0  0  0  0  0
    0.3039    1.8749    0.7293 H   0  0  0  0  0  0  0  0  0  0  0  0
   -2.3796    0.7893    0.6505 H   0  0  0  0  0  0  0  0  0  0  0  0
    3.2083   -0.1760   -1.5394 N   0  0  0  0  0  0  0  0  0  0  0  0
    4.0840    0.4262   -1.2361 N   0  0  0  0  0  0  0  0  0  0  0  0
    0.6238    2.9406    1.4502 Cl  0  0  0  0  0  0  0  0  0  0  0  0
   -3.5562   -1.3747   -0.6052 O   0  0  0  0  0  0  0  0  0  0  0  0
   -4.4586   -0.6347    0.2053 C   0  0  0  0  0  0  0  0  0  0  0  0
   -5.4221   -1.1382    0.1174 H   0  0  0  0  0  0  0  0  0  0  0  0
   -4.5580    0.4007   -0.1445 H   0  0  0  0  0  0  0  0  0  0  0  0
   -4.1453   -0.6317    1.2572 H   0  0  0  0  0  0  0  0  0  0  0  0
  1  6  1  0  0  0  0
  2  1  2  0  0  0  0
  2  3  1  0  0  0  0
  3  4  2  0  0  0  0
  4  5  1  0  0  0  0
  5 10  1  0  0  0  0
  6 14  1  0  0  0  0
  6  5  2  0  0  0  0
  7  1  1  0  0  0  0
  8  2  1  0  0  0  0
  9 13  1  0  0  0  0
 11 12  3  0  0  0  0
 14 15  1  0  0  0  0
 15 18  1  0  0  0  0
 16 15  1  0  0  0  0
 17 15  1  0  0  0  0
M  RAD  2   3   2   4   2
M  END
