Coordinates from ORCA-job 4-MeO-Ph-N2-Cl-B3LYPG-6-31G_dp-MTMO-d009-169-n800
 OpenBabel09051908443D

 18 16  0  0  0  0  0  0  0  0999 V2000
   -1.4350   -1.7536   -1.4855 C   0  0  0  0  0  0  0  0  0  0  0  0
   -0.0723   -1.4724   -1.6655 C   0  0  0  0  0  0  0  0  0  0  0  0
    0.2307   -0.3520   -0.9273 C   0  0  0  0  0  0  0  0  0  0  0  0
   -0.4266    0.4113   -0.1790 C   0  0  0  0  0  0  0  0  0  0  0  0
   -1.7927    0.1758    0.0341 C   0  0  0  0  0  0  0  0  0  0  0  0
   -2.2767   -0.9573   -0.6613 C   0  0  0  0  0  0  0  0  0  0  0  0
   -1.8830   -2.6072   -1.9846 H   0  0  0  0  0  0  0  0  0  0  0  0
    0.5878   -2.0639   -2.2870 H   0  0  0  0  0  0  0  0  0  0  0  0
    0.2640    1.9078    0.7632 H   0  0  0  0  0  0  0  0  0  0  0  0
   -2.4241    0.7914    0.6625 H   0  0  0  0  0  0  0  0  0  0  0  0
    3.3771   -0.2294   -1.6144 N   0  0  0  0  0  0  0  0  0  0  0  0
    4.2888    0.3402   -1.3576 N   0  0  0  0  0  0  0  0  0  0  0  0
    0.5700    2.9727    1.4878 Cl  0  0  0  0  0  0  0  0  0  0  0  0
   -3.5700   -1.3822   -0.6060 O   0  0  0  0  0  0  0  0  0  0  0  0
   -4.4855   -0.6525    0.1992 C   0  0  0  0  0  0  0  0  0  0  0  0
   -5.4433   -1.1656    0.1037 H   0  0  0  0  0  0  0  0  0  0  0  0
   -4.5930    0.3823   -0.1498 H   0  0  0  0  0  0  0  0  0  0  0  0
   -4.1798   -0.6480    1.2532 H   0  0  0  0  0  0  0  0  0  0  0  0
  1  6  1  0  0  0  0
  2  1  2  0  0  0  0
  2  3  1  0  0  0  0
  3  4  2  0  0  0  0
  4  5  1  0  0  0  0
  5 10  1  0  0  0  0
  6 14  1  0  0  0  0
  6  5  2  0  0  0  0
  7  1  1  0  0  0  0
  8  2  1  0  0  0  0
  9 13  1  0  0  0  0
 11 12  3  0  0  0  0
 14 15  1  0  0  0  0
 15 18  1  0  0  0  0
 16 15  1  0  0  0  0
 17 15  1  0  0  0  0
M  RAD  2   3   2   4   2
M  END
