Coordinates from ORCA-job 4-MeO-Ph-N2-Cl-B3LYPG-6-31G_dp-MTMO-d009-169-n800
 OpenBabel09051908443D

 18 16  0  0  0  0  0  0  0  0999 V2000
   -1.3943   -1.8019   -1.5282 C   0  0  0  0  0  0  0  0  0  0  0  0
   -0.0295   -1.5490   -1.7114 C   0  0  0  0  0  0  0  0  0  0  0  0
    0.3404   -0.4513   -0.9930 C   0  0  0  0  0  0  0  0  0  0  0  0
   -0.2510    0.4137   -0.1878 C   0  0  0  0  0  0  0  0  0  0  0  0
   -1.6262    0.1282   -0.0278 C   0  0  0  0  0  0  0  0  0  0  0  0
   -2.1856   -0.9752   -0.6964 C   0  0  0  0  0  0  0  0  0  0  0  0
   -1.8640   -2.6435   -2.0265 H   0  0  0  0  0  0  0  0  0  0  0  0
    0.6159   -2.1523   -2.3361 H   0  0  0  0  0  0  0  0  0  0  0  0
    0.2743    1.2914    0.3264 H   0  0  0  0  0  0  0  0  0  0  0  0
   -2.2169    0.7749    0.6100 H   0  0  0  0  0  0  0  0  0  0  0  0
    2.3829    0.1076   -1.1226 N   0  0  0  0  0  0  0  0  0  0  0  0
    2.9178    0.9537   -0.6284 N   0  0  0  0  0  0  0  0  0  0  0  0
    1.4092    2.6528    1.0480 Cl  0  0  0  0  0  0  0  0  0  0  0  0
   -3.4883   -1.3386   -0.6108 O   0  0  0  0  0  0  0  0  0  0  0  0
   -4.3574   -0.5666    0.2133 C   0  0  0  0  0  0  0  0  0  0  0  0
   -5.3364   -1.0401    0.1370 H   0  0  0  0  0  0  0  0  0  0  0  0
   -4.4261    0.4695   -0.1391 H   0  0  0  0  0  0  0  0  0  0  0  0
   -4.0286   -0.5759    1.2595 H   0  0  0  0  0  0  0  0  0  0  0  0
  1  6  1  0  0  0  0
  2  1  2  0  0  0  0
  2  3  1  0  0  0  0
  3  4  2  0  0  0  0
  4  5  1  0  0  0  0
  4  9  1  0  0  0  0
  5 10  1  0  0  0  0
  6 14  1  0  0  0  0
  6  5  2  0  0  0  0
  7  1  1  0  0  0  0
  8  2  1  0  0  0  0
 11 12  3  0  0  0  0
 14 15  1  0  0  0  0
 15 18  1  0  0  0  0
 16 15  1  0  0  0  0
 17 15  1  0  0  0  0
M  RAD  2   3   2  13   2
M  END
