Coordinates from ORCA-job 4-MeO-Ph-N2-Cl-B3LYPG-6-31G_dp-MTMO-d009-169-n800
 OpenBabel09051908443D

 18 16  0  0  0  0  0  0  0  0999 V2000
   -0.6062   -0.4345   -0.6589 C   0  0  0  0  0  0  0  0  0  0  0  0
    0.4029    0.4277   -0.2047 C   0  0  0  0  0  0  0  0  0  0  0  0
   -0.1664    1.3410    0.6551 C   0  0  0  0  0  0  0  0  0  0  0  0
   -1.3348    1.5264    1.0707 C   0  0  0  0  0  0  0  0  0  0  0  0
   -2.3838    0.6977    0.6531 C   0  0  0  0  0  0  0  0  0  0  0  0
   -1.9614   -0.3098   -0.2472 C   0  0  0  0  0  0  0  0  0  0  0  0
   -0.3633   -1.2358   -1.3501 H   0  0  0  0  0  0  0  0  0  0  0  0
    1.4390    0.3467   -0.5086 H   0  0  0  0  0  0  0  0  0  0  0  0
   -1.8838    2.9184    2.2764 H   0  0  0  0  0  0  0  0  0  0  0  0
   -3.4119    0.8044    0.9751 H   0  0  0  0  0  0  0  0  0  0  0  0
    4.7640   -4.7728   -5.5531 N   0  0  0  0  0  0  0  0  0  0  0  0
    5.2871   -5.3865   -6.3089 N   0  0  0  0  0  0  0  0  0  0  0  0
   -2.4635    3.7898    3.0820 Cl  0  0  0  0  0  0  0  0  0  0  0  0
   -2.8000   -1.2354   -0.7910 O   0  0  0  0  0  0  0  0  0  0  0  0
   -4.1753   -1.1908   -0.4355 C   0  0  0  0  0  0  0  0  0  0  0  0
   -4.6516   -2.0075   -0.9789 H   0  0  0  0  0  0  0  0  0  0  0  0
   -4.6371   -0.2406   -0.7317 H   0  0  0  0  0  0  0  0  0  0  0  0
   -4.3175   -1.3411    0.6421 H   0  0  0  0  0  0  0  0  0  0  0  0
  1  6  2  0  0  0  0
  1  2  1  0  0  0  0
  2  3  2  0  0  0  0
  3  4  1  0  0  0  0
  5 10  1  0  0  0  0
  5  4  2  0  0  0  0
  6  5  1  0  0  0  0
  7  1  1  0  0  0  0
  8  2  1  0  0  0  0
  9 13  1  0  0  0  0
 12 11  3  0  0  0  0
 14 15  1  0  0  0  0
 14  6  1  0  0  0  0
 15 18  1  0  0  0  0
 16 15  1  0  0  0  0
 17 15  1  0  0  0  0
M  RAD  2   3   2   4   2
M  END
