Coordinates from ORCA-job 4-MeO-Ph-N2-Cl-B3LYPG-6-31G_dp-MTMO-d009-169-n800
 OpenBabel09051908453D

 18 16  0  0  0  0  0  0  0  0999 V2000
   -1.0347    0.6645   -0.8577 C   0  0  0  0  0  0  0  0  0  0  0  0
   -0.1437    1.6005   -0.3116 C   0  0  0  0  0  0  0  0  0  0  0  0
   -0.6722    2.0534    0.8767 C   0  0  0  0  0  0  0  0  0  0  0  0
   -1.7250    1.8008    1.5093 C   0  0  0  0  0  0  0  0  0  0  0  0
   -2.6522    0.8751    1.0135 C   0  0  0  0  0  0  0  0  0  0  0  0
   -2.2542    0.3069   -0.2201 C   0  0  0  0  0  0  0  0  0  0  0  0
   -0.8032    0.1844   -1.8032 H   0  0  0  0  0  0  0  0  0  0  0  0
    0.7887    1.8837   -0.7829 H   0  0  0  0  0  0  0  0  0  0  0  0
   -2.2352    2.6015    3.1815 H   0  0  0  0  0  0  0  0  0  0  0  0
   -3.5780    0.6129    1.5089 H   0  0  0  0  0  0  0  0  0  0  0  0
    7.0637   -7.9062   -7.3877 N   0  0  0  0  0  0  0  0  0  0  0  0
    7.5972   -8.8487   -7.6081 N   0  0  0  0  0  0  0  0  0  0  0  0
   -2.7608    3.0301    4.3146 Cl  0  0  0  0  0  0  0  0  0  0  0  0
   -2.9904   -0.6178   -0.8977 O   0  0  0  0  0  0  0  0  0  0  0  0
   -4.2239   -1.0431   -0.3341 C   0  0  0  0  0  0  0  0  0  0  0  0
   -4.6350   -1.7743   -1.0315 H   0  0  0  0  0  0  0  0  0  0  0  0
   -4.9274   -0.2077   -0.2278 H   0  0  0  0  0  0  0  0  0  0  0  0
   -4.0771   -1.5187    0.6439 H   0  0  0  0  0  0  0  0  0  0  0  0
  1  2  2  0  0  0  0
  1  6  1  0  0  0  0
  2  3  1  0  0  0  0
  3  4  2  0  0  0  0
  5 10  1  0  0  0  0
  5  4  1  0  0  0  0
  6  5  2  0  0  0  0
  7  1  1  0  0  0  0
  8  2  1  0  0  0  0
  9 13  1  0  0  0  0
 12 11  3  0  0  0  0
 14 15  1  0  0  0  0
 14  6  1  0  0  0  0
 15 17  1  0  0  0  0
 15 18  1  0  0  0  0
 16 15  1  0  0  0  0
M  RAD  2   3   2   4   2
M  END
