Coordinates from ORCA-job 4-MeO-Ph-N2-Cl-B3LYPG-6-31G_dp-MTMO-d009-169-n800
 OpenBabel09051908443D

 18 17  0  0  0  0  0  0  0  0999 V2000
   -1.3434   -1.7343   -1.4923 C   0  0  0  0  0  0  0  0  0  0  0  0
    0.0005   -1.4018   -1.6074 C   0  0  0  0  0  0  0  0  0  0  0  0
    0.4189   -0.2948   -0.8927 C   0  0  0  0  0  0  0  0  0  0  0  0
   -0.3515    0.5070   -0.0853 C   0  0  0  0  0  0  0  0  0  0  0  0
   -1.7025    0.1534    0.0151 C   0  0  0  0  0  0  0  0  0  0  0  0
   -2.1981   -0.9606   -0.6822 C   0  0  0  0  0  0  0  0  0  0  0  0
   -1.7572   -2.5884   -2.0168 H   0  0  0  0  0  0  0  0  0  0  0  0
    0.6861   -1.9745   -2.2200 H   0  0  0  0  0  0  0  0  0  0  0  0
    0.0776    1.3579    0.4338 H   0  0  0  0  0  0  0  0  0  0  0  0
   -2.3503    0.7577    0.6379 H   0  0  0  0  0  0  0  0  0  0  0  0
    2.1141    0.0525   -1.0854 N   0  0  0  0  0  0  0  0  0  0  0  0
    2.8587    0.8424   -0.6959 N   0  0  0  0  0  0  0  0  0  0  0  0
    2.1974    2.4637    0.6781 Cl  0  0  0  0  0  0  0  0  0  0  0  0
   -3.4868   -1.3766   -0.6425 O   0  0  0  0  0  0  0  0  0  0  0  0
   -4.4154   -0.6550    0.1602 C   0  0  0  0  0  0  0  0  0  0  0  0
   -5.3698   -1.1696    0.0455 H   0  0  0  0  0  0  0  0  0  0  0  0
   -4.5194    0.3819   -0.1814 H   0  0  0  0  0  0  0  0  0  0  0  0
   -4.1225   -0.6636    1.2171 H   0  0  0  0  0  0  0  0  0  0  0  0
  1  6  1  0  0  0  0
  2  1  2  0  0  0  0
  2  3  1  0  0  0  0
  3  4  2  0  0  0  0
  4  5  1  0  0  0  0
  4  9  1  0  0  0  0
  5 10  1  0  0  0  0
  6 14  1  0  0  0  0
  6  5  2  0  0  0  0
  7  1  1  0  0  0  0
  8  2  1  0  0  0  0
 11  3  1  0  0  0  0
 11 12  2  0  0  0  0
 14 15  1  0  0  0  0
 15 18  1  0  0  0  0
 16 15  1  0  0  0  0
 17 15  1  0  0  0  0
M  RAD  2  12   2  13   2
M  END
