Coordinates from ORCA-job 4-MeO-Ph-N2-Cl-B3LYPG-6-31G_dp-MTMO-d009-169-n800
 OpenBabel09051908453D

 18 16  0  0  0  0  0  0  0  0999 V2000
   -1.0147    0.6447   -0.8864 C   0  0  0  0  0  0  0  0  0  0  0  0
   -0.1209    1.5781   -0.3405 C   0  0  0  0  0  0  0  0  0  0  0  0
   -0.6439    2.0263    0.8521 C   0  0  0  0  0  0  0  0  0  0  0  0
   -1.6939    1.7716    1.4885 C   0  0  0  0  0  0  0  0  0  0  0  0
   -2.6236    0.8482    0.9930 C   0  0  0  0  0  0  0  0  0  0  0  0
   -2.2315    0.2849   -0.2447 C   0  0  0  0  0  0  0  0  0  0  0  0
   -0.7876    0.1684   -1.8349 H   0  0  0  0  0  0  0  0  0  0  0  0
    0.8096    1.8629   -0.8147 H   0  0  0  0  0  0  0  0  0  0  0  0
   -2.1970    2.5656    3.1656 H   0  0  0  0  0  0  0  0  0  0  0  0
   -3.5473    0.5843    1.4914 H   0  0  0  0  0  0  0  0  0  0  0  0
    6.8589   -7.7099   -7.2054 N   0  0  0  0  0  0  0  0  0  0  0  0
    7.3917   -8.6528   -7.4261 N   0  0  0  0  0  0  0  0  0  0  0  0
   -2.7181    2.9899    4.3025 Cl  0  0  0  0  0  0  0  0  0  0  0  0
   -2.9711   -0.6367   -0.9228 O   0  0  0  0  0  0  0  0  0  0  0  0
   -4.2021   -1.0640   -0.3554 C   0  0  0  0  0  0  0  0  0  0  0  0
   -4.6166   -1.7922   -1.0539 H   0  0  0  0  0  0  0  0  0  0  0  0
   -4.9048   -0.2288   -0.2424 H   0  0  0  0  0  0  0  0  0  0  0  0
   -4.0509   -1.5436    0.6200 H   0  0  0  0  0  0  0  0  0  0  0  0
  1  2  2  0  0  0  0
  1  6  1  0  0  0  0
  2  3  1  0  0  0  0
  3  4  2  0  0  0  0
  5  4  1  0  0  0  0
  5 10  1  0  0  0  0
  6  5  2  0  0  0  0
  7  1  1  0  0  0  0
  8  2  1  0  0  0  0
  9 13  1  0  0  0  0
 12 11  3  0  0  0  0
 14 15  1  0  0  0  0
 14  6  1  0  0  0  0
 15 17  1  0  0  0  0
 15 18  1  0  0  0  0
 16 15  1  0  0  0  0
M  RAD  2   3   2   4   2
M  END
