Coordinates from ORCA-job 4-MeO-Ph-N2-Cl-B3LYPG-6-31G_dp-MTMO-d009-169-n800
 OpenBabel09051908453D

 18 16  0  0  0  0  0  0  0  0999 V2000
   -0.8632    0.5010   -0.9935 C   0  0  0  0  0  0  0  0  0  0  0  0
    0.0286    1.4363   -0.4476 C   0  0  0  0  0  0  0  0  0  0  0  0
   -0.5013    1.8925    0.7388 C   0  0  0  0  0  0  0  0  0  0  0  0
   -1.5555    1.6434    1.3703 C   0  0  0  0  0  0  0  0  0  0  0  0
   -2.4836    0.7184    0.8745 C   0  0  0  0  0  0  0  0  0  0  0  0
   -2.0845    0.1470   -0.3573 C   0  0  0  0  0  0  0  0  0  0  0  0
   -0.6309    0.0186   -1.9377 H   0  0  0  0  0  0  0  0  0  0  0  0
    0.9624    1.7168   -0.9178 H   0  0  0  0  0  0  0  0  0  0  0  0
   -2.0660    2.4482    3.0397 H   0  0  0  0  0  0  0  0  0  0  0  0
   -3.4108    0.4589    1.3686 H   0  0  0  0  0  0  0  0  0  0  0  0
    5.7093   -6.6392   -6.2818 N   0  0  0  0  0  0  0  0  0  0  0  0
    6.2416   -7.5820   -6.5039 N   0  0  0  0  0  0  0  0  0  0  0  0
   -2.5922    2.8803    4.1714 Cl  0  0  0  0  0  0  0  0  0  0  0  0
   -2.8213   -0.7776   -1.0344 O   0  0  0  0  0  0  0  0  0  0  0  0
   -4.0568   -1.1992   -0.4724 C   0  0  0  0  0  0  0  0  0  0  0  0
   -4.4681   -1.9309   -1.1692 H   0  0  0  0  0  0  0  0  0  0  0  0
   -4.7586   -0.3621   -0.3689 H   0  0  0  0  0  0  0  0  0  0  0  0
   -3.9127   -1.6732    0.5069 H   0  0  0  0  0  0  0  0  0  0  0  0
  1  2  2  0  0  0  0
  1  6  1  0  0  0  0
  2  3  1  0  0  0  0
  3  4  2  0  0  0  0
  5 10  1  0  0  0  0
  5  4  1  0  0  0  0
  6  5  2  0  0  0  0
  7  1  1  0  0  0  0
  8  2  1  0  0  0  0
  9 13  1  0  0  0  0
 12 11  3  0  0  0  0
 14 15  1  0  0  0  0
 14  6  1  0  0  0  0
 15 17  1  0  0  0  0
 15 18  1  0  0  0  0
 16 15  1  0  0  0  0
M  RAD  2   3   2   4   2
M  END
