Coordinates from ORCA-job 4-MeO-Ph-N2-Cl-B3LYPG-6-31G_dp-MTMO-d009-169-n800
 OpenBabel09051908443D

 18 16  0  0  0  0  0  0  0  0999 V2000
   -1.4176   -1.7872   -1.5129 C   0  0  0  0  0  0  0  0  0  0  0  0
   -0.0517   -1.5347   -1.7082 C   0  0  0  0  0  0  0  0  0  0  0  0
    0.2790   -0.4210   -0.9763 C   0  0  0  0  0  0  0  0  0  0  0  0
   -0.3395    0.3702   -0.2193 C   0  0  0  0  0  0  0  0  0  0  0  0
   -1.7101    0.1539    0.0027 C   0  0  0  0  0  0  0  0  0  0  0  0
   -2.2303   -0.9692   -0.6812 C   0  0  0  0  0  0  0  0  0  0  0  0
   -1.8892   -2.6322   -2.0045 H   0  0  0  0  0  0  0  0  0  0  0  0
    0.5920   -2.1391   -2.3344 H   0  0  0  0  0  0  0  0  0  0  0  0
    0.3645    1.8169    0.6794 H   0  0  0  0  0  0  0  0  0  0  0  0
   -2.3208    0.7857    0.6358 H   0  0  0  0  0  0  0  0  0  0  0  0
    2.9242   -0.1071   -1.4306 N   0  0  0  0  0  0  0  0  0  0  0  0
    3.7498    0.5421   -1.0858 N   0  0  0  0  0  0  0  0  0  0  0  0
    0.7376    2.8834    1.3858 Cl  0  0  0  0  0  0  0  0  0  0  0  0
   -3.5320   -1.3640   -0.6083 O   0  0  0  0  0  0  0  0  0  0  0  0
   -4.4201   -0.6114    0.2065 C   0  0  0  0  0  0  0  0  0  0  0  0
   -5.3905   -1.1026    0.1247 H   0  0  0  0  0  0  0  0  0  0  0  0
   -4.5082    0.4246   -0.1440 H   0  0  0  0  0  0  0  0  0  0  0  0
   -4.1008   -0.6112    1.2565 H   0  0  0  0  0  0  0  0  0  0  0  0
  1  6  1  0  0  0  0
  2  1  2  0  0  0  0
  2  3  1  0  0  0  0
  3  4  2  0  0  0  0
  4  5  1  0  0  0  0
  5 10  1  0  0  0  0
  6 14  1  0  0  0  0
  6  5  2  0  0  0  0
  7  1  1  0  0  0  0
  8  2  1  0  0  0  0
  9 13  1  0  0  0  0
 11 12  3  0  0  0  0
 14 15  1  0  0  0  0
 15 18  1  0  0  0  0
 16 15  1  0  0  0  0
 17 15  1  0  0  0  0
M  RAD  2   3   2   4   2
M  END
