Coordinates from ORCA-job 4-MeO-Ph-N2-Cl-B3LYPG-6-31G_dp-MTMO-d009-169-n800
 OpenBabel09051908443D

 18 16  0  0  0  0  0  0  0  0999 V2000
   -1.4307   -1.7862   -1.5095 C   0  0  0  0  0  0  0  0  0  0  0  0
   -0.0650   -1.5318   -1.7050 C   0  0  0  0  0  0  0  0  0  0  0  0
    0.2645   -0.4167   -0.9732 C   0  0  0  0  0  0  0  0  0  0  0  0
   -0.3599    0.3695   -0.2178 C   0  0  0  0  0  0  0  0  0  0  0  0
   -1.7295    0.1547    0.0066 C   0  0  0  0  0  0  0  0  0  0  0  0
   -2.2459   -0.9701   -0.6782 C   0  0  0  0  0  0  0  0  0  0  0  0
   -1.9006   -2.6322   -2.0011 H   0  0  0  0  0  0  0  0  0  0  0  0
    0.5784   -2.1362   -2.3315 H   0  0  0  0  0  0  0  0  0  0  0  0
    0.3557    1.8301    0.6894 H   0  0  0  0  0  0  0  0  0  0  0  0
   -2.3416    0.7852    0.6395 H   0  0  0  0  0  0  0  0  0  0  0  0
    3.0477   -0.1056   -1.4589 N   0  0  0  0  0  0  0  0  0  0  0  0
    3.8783    0.5375   -1.1149 N   0  0  0  0  0  0  0  0  0  0  0  0
    0.7215    2.8945    1.3967 Cl  0  0  0  0  0  0  0  0  0  0  0  0
   -3.5467   -1.3680   -0.6061 O   0  0  0  0  0  0  0  0  0  0  0  0
   -4.4372   -0.6176    0.2082 C   0  0  0  0  0  0  0  0  0  0  0  0
   -5.4063   -1.1112    0.1258 H   0  0  0  0  0  0  0  0  0  0  0  0
   -4.5276    0.4182   -0.1424 H   0  0  0  0  0  0  0  0  0  0  0  0
   -4.1185   -0.6166    1.2584 H   0  0  0  0  0  0  0  0  0  0  0  0
  1  6  1  0  0  0  0
  2  1  2  0  0  0  0
  2  3  1  0  0  0  0
  3  4  2  0  0  0  0
  4  5  1  0  0  0  0
  5 10  1  0  0  0  0
  6 14  1  0  0  0  0
  6  5  2  0  0  0  0
  7  1  1  0  0  0  0
  8  2  1  0  0  0  0
  9 13  1  0  0  0  0
 11 12  3  0  0  0  0
 14 15  1  0  0  0  0
 15 18  1  0  0  0  0
 16 15  1  0  0  0  0
 17 15  1  0  0  0  0
M  RAD  2   3   2   4   2
M  END
