Coordinates from ORCA-job 4-MeO-Ph-N2-Cl-B3LYPG-6-31G_dp-MTMO-d009-169-n800
 OpenBabel09051908443D

 18 16  0  0  0  0  0  0  0  0999 V2000
   -1.4366   -1.7503   -1.4818 C   0  0  0  0  0  0  0  0  0  0  0  0
   -0.0743   -1.4660   -1.6591 C   0  0  0  0  0  0  0  0  0  0  0  0
    0.2253   -0.3452   -0.9203 C   0  0  0  0  0  0  0  0  0  0  0  0
   -0.4347    0.4164   -0.1727 C   0  0  0  0  0  0  0  0  0  0  0  0
   -1.8008    0.1777    0.0378 C   0  0  0  0  0  0  0  0  0  0  0  0
   -2.2814   -0.9560   -0.6589 C   0  0  0  0  0  0  0  0  0  0  0  0
   -1.8814   -2.6048   -1.9823 H   0  0  0  0  0  0  0  0  0  0  0  0
    0.5881   -2.0559   -2.2797 H   0  0  0  0  0  0  0  0  0  0  0  0
    0.2505    1.9118    0.7706 H   0  0  0  0  0  0  0  0  0  0  0  0
   -2.4343    0.7919    0.6654 H   0  0  0  0  0  0  0  0  0  0  0  0
    3.4270   -0.2431   -1.6389 N   0  0  0  0  0  0  0  0  0  0  0  0
    4.3412    0.3240   -1.3856 N   0  0  0  0  0  0  0  0  0  0  0  0
    0.5525    2.9772    1.4968 Cl  0  0  0  0  0  0  0  0  0  0  0  0
   -3.5740   -1.3832   -0.6056 O   0  0  0  0  0  0  0  0  0  0  0  0
   -4.4923   -0.6554    0.1980 C   0  0  0  0  0  0  0  0  0  0  0  0
   -5.4489   -1.1703    0.1006 H   0  0  0  0  0  0  0  0  0  0  0  0
   -4.6011    0.3792   -0.1510 H   0  0  0  0  0  0  0  0  0  0  0  0
   -4.1885   -0.6505    1.2526 H   0  0  0  0  0  0  0  0  0  0  0  0
  1  6  1  0  0  0  0
  2  1  2  0  0  0  0
  2  3  1  0  0  0  0
  3  4  2  0  0  0  0
  4  5  1  0  0  0  0
  5 10  1  0  0  0  0
  6 14  1  0  0  0  0
  6  5  2  0  0  0  0
  7  1  1  0  0  0  0
  8  2  1  0  0  0  0
  9 13  1  0  0  0  0
 11 12  3  0  0  0  0
 14 15  1  0  0  0  0
 15 18  1  0  0  0  0
 16 15  1  0  0  0  0
 17 15  1  0  0  0  0
M  RAD  2   3   2   4   2
M  END
