Coordinates from ORCA-job 4-MeO-Ph-N2-Cl-B3LYPG-6-31G_dp-MTMO-d009-169-n800
 OpenBabel09051908443D

 18 16  0  0  0  0  0  0  0  0999 V2000
   -0.9824   -1.2983   -1.2138 C   0  0  0  0  0  0  0  0  0  0  0  0
    0.2999   -0.7343   -1.1281 C   0  0  0  0  0  0  0  0  0  0  0  0
    0.2219    0.3698   -0.3098 C   0  0  0  0  0  0  0  0  0  0  0  0
   -0.7050    0.9261    0.3269 C   0  0  0  0  0  0  0  0  0  0  0  0
   -2.0053    0.4042    0.2747 C   0  0  0  0  0  0  0  0  0  0  0  0
   -2.1060   -0.7510   -0.5363 C   0  0  0  0  0  0  0  0  0  0  0  0
   -1.1428   -2.1878   -1.8151 H   0  0  0  0  0  0  0  0  0  0  0  0
    1.1668   -1.1342   -1.6382 H   0  0  0  0  0  0  0  0  0  0  0  0
   -0.5381    2.4615    1.4364 H   0  0  0  0  0  0  0  0  0  0  0  0
   -2.8529    0.8310    0.7952 H   0  0  0  0  0  0  0  0  0  0  0  0
    3.5151   -1.7844   -2.8517 N   0  0  0  0  0  0  0  0  0  0  0  0
    4.5006   -1.9691   -3.3160 N   0  0  0  0  0  0  0  0  0  0  0  0
   -0.6251    3.5052    2.2455 Cl  0  0  0  0  0  0  0  0  0  0  0  0
   -3.2688   -1.4324   -0.7384 O   0  0  0  0  0  0  0  0  0  0  0  0
   -4.4479   -0.9575   -0.1029 C   0  0  0  0  0  0  0  0  0  0  0  0
   -5.2449   -1.6386   -0.4035 H   0  0  0  0  0  0  0  0  0  0  0  0
   -4.6990    0.0596   -0.4291 H   0  0  0  0  0  0  0  0  0  0  0  0
   -4.3499   -0.9725    0.9900 H   0  0  0  0  0  0  0  0  0  0  0  0
  1  2  2  0  0  0  0
  1  6  1  0  0  0  0
  2  3  1  0  0  0  0
  3  4  2  0  0  0  0
  5  4  1  0  0  0  0
  5 10  1  0  0  0  0
  6  5  2  0  0  0  0
  7  1  1  0  0  0  0
  8  2  1  0  0  0  0
  9 13  1  0  0  0  0
 12 11  3  0  0  0  0
 14  6  1  0  0  0  0
 14 15  1  0  0  0  0
 15 18  1  0  0  0  0
 16 15  1  0  0  0  0
 17 15  1  0  0  0  0
M  RAD  2   3   2   4   2
M  END
