Coordinates from ORCA-job 4-MeO-Ph-N2-Cl-B3LYPG-6-31G_dp-MTMO-d009-169-n800
 OpenBabel09051908443D

 18 16  0  0  0  0  0  0  0  0999 V2000
   -0.7943   -1.0389   -1.0545 C   0  0  0  0  0  0  0  0  0  0  0  0
    0.4139   -0.3604   -0.8337 C   0  0  0  0  0  0  0  0  0  0  0  0
    0.1602    0.7003    0.0073 C   0  0  0  0  0  0  0  0  0  0  0  0
   -0.8722    1.1376    0.5691 C   0  0  0  0  0  0  0  0  0  0  0  0
   -2.1064    0.5004    0.3845 C   0  0  0  0  0  0  0  0  0  0  0  0
   -2.0217   -0.6266   -0.4672 C   0  0  0  0  0  0  0  0  0  0  0  0
   -0.8133   -1.9163   -1.6935 H   0  0  0  0  0  0  0  0  0  0  0  0
    1.3560   -0.6616   -1.2739 H   0  0  0  0  0  0  0  0  0  0  0  0
   -0.9450    2.6554    1.7354 H   0  0  0  0  0  0  0  0  0  0  0  0
   -3.0339    0.8248    0.8383 H   0  0  0  0  0  0  0  0  0  0  0  0
    3.7049   -2.5984   -3.5467 N   0  0  0  0  0  0  0  0  0  0  0  0
    4.4315   -3.0773   -4.2279 N   0  0  0  0  0  0  0  0  0  0  0  0
   -1.2007    3.6571    2.5584 Cl  0  0  0  0  0  0  0  0  0  0  0  0
   -3.0898   -1.4060   -0.7961 O   0  0  0  0  0  0  0  0  0  0  0  0
   -4.3599   -1.0749   -0.2513 C   0  0  0  0  0  0  0  0  0  0  0  0
   -5.0561   -1.8177   -0.6424 H   0  0  0  0  0  0  0  0  0  0  0  0
   -4.6841   -0.0747   -0.5648 H   0  0  0  0  0  0  0  0  0  0  0  0
   -4.3528   -1.1254    0.8449 H   0  0  0  0  0  0  0  0  0  0  0  0
  1  2  2  0  0  0  0
  1  6  1  0  0  0  0
  2  3  1  0  0  0  0
  3  4  2  0  0  0  0
  5  4  1  0  0  0  0
  5 10  1  0  0  0  0
  6  5  2  0  0  0  0
  7  1  1  0  0  0  0
  8  2  1  0  0  0  0
  9 13  1  0  0  0  0
 12 11  3  0  0  0  0
 14  6  1  0  0  0  0
 14 15  1  0  0  0  0
 15 18  1  0  0  0  0
 16 15  1  0  0  0  0
 17 15  1  0  0  0  0
M  RAD  2   3   2   4   2
M  END
