Coordinates from ORCA-job 4-MeO-Ph-N2-Cl-B3LYPG-6-31G_dp-MTMO-d009-169-n800
 OpenBabel09051908443D

 18 16  0  0  0  0  0  0  0  0999 V2000
   -1.2758   -1.5624   -1.3960 C   0  0  0  0  0  0  0  0  0  0  0  0
    0.0589   -1.1415   -1.4954 C   0  0  0  0  0  0  0  0  0  0  0  0
    0.2067   -0.0104   -0.7245 C   0  0  0  0  0  0  0  0  0  0  0  0
   -0.5682    0.6610   -0.0020 C   0  0  0  0  0  0  0  0  0  0  0  0
   -1.9123    0.2866    0.1326 C   0  0  0  0  0  0  0  0  0  0  0  0
   -2.2387   -0.8738   -0.6083 C   0  0  0  0  0  0  0  0  0  0  0  0
   -1.6060   -2.4464   -1.9327 H   0  0  0  0  0  0  0  0  0  0  0  0
    0.8100   -1.6492   -2.0863 H   0  0  0  0  0  0  0  0  0  0  0  0
   -0.0820    2.1974    1.0221 H   0  0  0  0  0  0  0  0  0  0  0  0
   -2.6354    0.8190    0.7372 H   0  0  0  0  0  0  0  0  0  0  0  0
    3.6225   -0.9730   -2.1478 N   0  0  0  0  0  0  0  0  0  0  0  0
    4.6828   -0.6629   -2.1219 N   0  0  0  0  0  0  0  0  0  0  0  0
    0.0568    3.2612    1.7954 Cl  0  0  0  0  0  0  0  0  0  0  0  0
   -3.4832   -1.4282   -0.6334 O   0  0  0  0  0  0  0  0  0  0  0  0
   -4.5141   -0.8049    0.1203 C   0  0  0  0  0  0  0  0  0  0  0  0
   -5.4094   -1.4061   -0.0425 H   0  0  0  0  0  0  0  0  0  0  0  0
   -4.6995    0.2208   -0.2227 H   0  0  0  0  0  0  0  0  0  0  0  0
   -4.2767   -0.7898    1.1918 H   0  0  0  0  0  0  0  0  0  0  0  0
  1  6  1  0  0  0  0
  2  1  2  0  0  0  0
  2  3  1  0  0  0  0
  3  4  2  0  0  0  0
  4  5  1  0  0  0  0
  5 10  1  0  0  0  0
  6  5  2  0  0  0  0
  7  1  1  0  0  0  0
  8  2  1  0  0  0  0
  9 13  1  0  0  0  0
 11 12  3  0  0  0  0
 14  6  1  0  0  0  0
 14 15  1  0  0  0  0
 15 18  1  0  0  0  0
 16 15  1  0  0  0  0
 17 15  1  0  0  0  0
M  RAD  2   3   2   4   2
M  END
