Coordinates from ORCA-job 4-MeO-Ph-N2-Cl-B3LYPG-6-31G_dp-MTMO-d009-169-n800
 OpenBabel09051908443D

 18 16  0  0  0  0  0  0  0  0999 V2000
   -1.3203   -1.5990   -1.4229 C   0  0  0  0  0  0  0  0  0  0  0  0
    0.0202   -1.2032   -1.5449 C   0  0  0  0  0  0  0  0  0  0  0  0
    0.2022   -0.0748   -0.7778 C   0  0  0  0  0  0  0  0  0  0  0  0
   -0.5471    0.6143   -0.0448 C   0  0  0  0  0  0  0  0  0  0  0  0
   -1.8956    0.2647    0.1121 C   0  0  0  0  0  0  0  0  0  0  0  0
   -2.2565   -0.8906   -0.6207 C   0  0  0  0  0  0  0  0  0  0  0  0
   -1.6760   -2.4775   -1.9521 H   0  0  0  0  0  0  0  0  0  0  0  0
    0.7516   -1.7265   -2.1471 H   0  0  0  0  0  0  0  0  0  0  0  0
   -0.0161    2.1422    0.9656 H   0  0  0  0  0  0  0  0  0  0  0  0
   -2.5988    0.8122    0.7268 H   0  0  0  0  0  0  0  0  0  0  0  0
    3.6320   -0.8097   -2.0272 N   0  0  0  0  0  0  0  0  0  0  0  0
    4.6851   -0.4816   -1.9601 N   0  0  0  0  0  0  0  0  0  0  0  0
    0.1606    3.2057    1.7320 Cl  0  0  0  0  0  0  0  0  0  0  0  0
   -3.5116   -1.4207   -0.6239 O   0  0  0  0  0  0  0  0  0  0  0  0
   -4.5171   -0.7783    0.1476 C   0  0  0  0  0  0  0  0  0  0  0  0
   -5.4258   -1.3639    0.0026 H   0  0  0  0  0  0  0  0  0  0  0  0
   -4.6908    0.2500   -0.1936 H   0  0  0  0  0  0  0  0  0  0  0  0
   -4.2597   -0.7660    1.2145 H   0  0  0  0  0  0  0  0  0  0  0  0
  1  6  1  0  0  0  0
  2  1  2  0  0  0  0
  2  3  1  0  0  0  0
  3  4  2  0  0  0  0
  4  5  1  0  0  0  0
  5 10  1  0  0  0  0
  6  5  2  0  0  0  0
  7  1  1  0  0  0  0
  8  2  1  0  0  0  0
  9 13  1  0  0  0  0
 11 12  3  0  0  0  0
 14  6  1  0  0  0  0
 14 15  1  0  0  0  0
 15 18  1  0  0  0  0
 16 15  1  0  0  0  0
 17 15  1  0  0  0  0
M  RAD  2   3   2   4   2
M  END
