Coordinates from ORCA-job 4-MeO-Ph-N2-Cl-B3LYPG-6-31G_dp-MTMO-d009-169-n800
 OpenBabel09051908443D

 18 16  0  0  0  0  0  0  0  0999 V2000
   -0.8874   -1.2277   -1.0466 C   0  0  0  0  0  0  0  0  0  0  0  0
    0.3670   -0.6230   -0.8734 C   0  0  0  0  0  0  0  0  0  0  0  0
    0.1967    0.4893   -0.0796 C   0  0  0  0  0  0  0  0  0  0  0  0
   -0.7940    1.0222    0.4752 C   0  0  0  0  0  0  0  0  0  0  0  0
   -2.0707    0.4611    0.3350 C   0  0  0  0  0  0  0  0  0  0  0  0
   -2.0750   -0.7069   -0.4638 C   0  0  0  0  0  0  0  0  0  0  0  0
   -0.9752   -2.1298   -1.6440 H   0  0  0  0  0  0  0  0  0  0  0  0
    1.2798   -1.0065   -1.3118 H   0  0  0  0  0  0  0  0  0  0  0  0
   -0.7526    2.5866    1.5708 H   0  0  0  0  0  0  0  0  0  0  0  0
   -2.9674    0.8678    0.7842 H   0  0  0  0  0  0  0  0  0  0  0  0
    3.7182   -2.1560   -3.3498 N   0  0  0  0  0  0  0  0  0  0  0  0
    4.5584   -2.4600   -4.0002 N   0  0  0  0  0  0  0  0  0  0  0  0
   -0.9305    3.6389    2.3511 Cl  0  0  0  0  0  0  0  0  0  0  0  0
   -3.1981   -1.4266   -0.7423 O   0  0  0  0  0  0  0  0  0  0  0  0
   -4.4354   -0.9819   -0.2023 C   0  0  0  0  0  0  0  0  0  0  0  0
   -5.1865   -1.6913   -0.5517 H   0  0  0  0  0  0  0  0  0  0  0  0
   -4.6927    0.0228   -0.5599 H   0  0  0  0  0  0  0  0  0  0  0  0
   -4.4183   -0.9817    0.8950 H   0  0  0  0  0  0  0  0  0  0  0  0
  1  2  2  0  0  0  0
  1  6  1  0  0  0  0
  2  3  1  0  0  0  0
  3  4  2  0  0  0  0
  5  4  1  0  0  0  0
  5 10  1  0  0  0  0
  6  5  2  0  0  0  0
  7  1  1  0  0  0  0
  8  2  1  0  0  0  0
  9 13  1  0  0  0  0
 12 11  3  0  0  0  0
 14  6  1  0  0  0  0
 14 15  1  0  0  0  0
 15 18  1  0  0  0  0
 16 15  1  0  0  0  0
 17 15  1  0  0  0  0
M  RAD  2   3   2   4   2
M  END
