Coordinates from ORCA-job 4-MeO-Ph-N2-Cl-B3LYPG-6-31G_dp-MTMO-d009-169-n800
 OpenBabel09051908443D

 18 16  0  0  0  0  0  0  0  0999 V2000
   -0.6249   -0.5302   -0.6860 C   0  0  0  0  0  0  0  0  0  0  0  0
    0.4142    0.3094   -0.2578 C   0  0  0  0  0  0  0  0  0  0  0  0
   -0.1184    1.2548    0.5909 C   0  0  0  0  0  0  0  0  0  0  0  0
   -1.2764    1.4826    1.0144 C   0  0  0  0  0  0  0  0  0  0  0  0
   -2.3540    0.6782    0.6229 C   0  0  0  0  0  0  0  0  0  0  0  0
   -1.9713   -0.3575   -0.2629 C   0  0  0  0  0  0  0  0  0  0  0  0
   -0.4135   -1.3501   -1.3655 H   0  0  0  0  0  0  0  0  0  0  0  0
    1.4440    0.1921   -0.5709 H   0  0  0  0  0  0  0  0  0  0  0  0
   -1.7698    2.9155    2.1973 H   0  0  0  0  0  0  0  0  0  0  0  0
   -3.3750    0.8217    0.9531 H   0  0  0  0  0  0  0  0  0  0  0  0
    4.6563   -4.5050   -5.3458 N   0  0  0  0  0  0  0  0  0  0  0  0
    5.2084   -5.0881   -6.1053 N   0  0  0  0  0  0  0  0  0  0  0  0
   -2.3130    3.8210    2.9902 Cl  0  0  0  0  0  0  0  0  0  0  0  0
   -2.8427   -1.2672   -0.7816 O   0  0  0  0  0  0  0  0  0  0  0  0
   -4.2123   -1.1750   -0.4139 C   0  0  0  0  0  0  0  0  0  0  0  0
   -4.7184   -1.9862   -0.9383 H   0  0  0  0  0  0  0  0  0  0  0  0
   -4.6484   -0.2166   -0.7224 H   0  0  0  0  0  0  0  0  0  0  0  0
   -4.3482   -1.3023    0.6675 H   0  0  0  0  0  0  0  0  0  0  0  0
  1  6  2  0  0  0  0
  1  2  1  0  0  0  0
  2  3  2  0  0  0  0
  3  4  1  0  0  0  0
  5 10  1  0  0  0  0
  5  4  2  0  0  0  0
  6  5  1  0  0  0  0
  7  1  1  0  0  0  0
  8  2  1  0  0  0  0
  9 13  1  0  0  0  0
 12 11  3  0  0  0  0
 14 15  1  0  0  0  0
 14  6  1  0  0  0  0
 15 18  1  0  0  0  0
 16 15  1  0  0  0  0
 17 15  1  0  0  0  0
M  RAD  2   3   2   4   2
M  END
