Coordinates from ORCA-job 4-MeO-Ph-N2-Cl-B3LYPG-6-31G_dp-MTMO-d009-169-n800
 OpenBabel09051908453D

 18 16  0  0  0  0  0  0  0  0999 V2000
   -0.7786    0.4080   -1.1023 C   0  0  0  0  0  0  0  0  0  0  0  0
    0.1256    1.3327   -0.5587 C   0  0  0  0  0  0  0  0  0  0  0  0
   -0.3859    1.7787    0.6395 C   0  0  0  0  0  0  0  0  0  0  0  0
   -1.4328    1.5292    1.2832 C   0  0  0  0  0  0  0  0  0  0  0  0
   -2.3722    0.6142    0.7897 C   0  0  0  0  0  0  0  0  0  0  0  0
   -1.9932    0.0539   -0.4533 C   0  0  0  0  0  0  0  0  0  0  0  0
   -0.5617   -0.0655   -2.0546 H   0  0  0  0  0  0  0  0  0  0  0  0
    1.0545    1.6132   -1.0384 H   0  0  0  0  0  0  0  0  0  0  0  0
   -1.9185    2.3181    2.9653 H   0  0  0  0  0  0  0  0  0  0  0  0
   -3.2941    0.3545    1.2936 H   0  0  0  0  0  0  0  0  0  0  0  0
    4.9001   -5.8428   -5.5537 N   0  0  0  0  0  0  0  0  0  0  0  0
    5.4283   -6.7882   -5.7748 N   0  0  0  0  0  0  0  0  0  0  0  0
   -2.4289    2.7406    4.1080 Cl  0  0  0  0  0  0  0  0  0  0  0  0
   -2.7441   -0.8595   -1.1300 O   0  0  0  0  0  0  0  0  0  0  0  0
   -3.9741   -1.2806   -0.5557 C   0  0  0  0  0  0  0  0  0  0  0  0
   -4.3987   -2.0027   -1.2545 H   0  0  0  0  0  0  0  0  0  0  0  0
   -4.6700   -0.4410   -0.4339 H   0  0  0  0  0  0  0  0  0  0  0  0
   -3.8193   -1.7657    0.4165 H   0  0  0  0  0  0  0  0  0  0  0  0
  1  2  2  0  0  0  0
  1  6  1  0  0  0  0
  2  3  1  0  0  0  0
  3  4  2  0  0  0  0
  5  4  1  0  0  0  0
  5 10  1  0  0  0  0
  6  5  2  0  0  0  0
  7  1  1  0  0  0  0
  8  2  1  0  0  0  0
  9 13  1  0  0  0  0
 12 11  3  0  0  0  0
 14 15  1  0  0  0  0
 14  6  1  0  0  0  0
 15 17  1  0  0  0  0
 15 18  1  0  0  0  0
 16 15  1  0  0  0  0
M  RAD  2   3   2   4   2
M  END
