Coordinates from ORCA-job 4-MeO-Ph-N2-Cl-B3LYPG-6-31G_dp-MTMO-d009-169-n800
 OpenBabel09051908443D

 18 18  0  0  0  0  0  0  0  0999 V2000
   -1.3220   -1.7241   -1.4860 C   0  0  0  0  0  0  0  0  0  0  0  0
    0.0140   -1.3787   -1.5942 C   0  0  0  0  0  0  0  0  0  0  0  0
    0.4691   -0.2637   -0.8890 C   0  0  0  0  0  0  0  0  0  0  0  0
   -0.3505    0.5201   -0.0853 C   0  0  0  0  0  0  0  0  0  0  0  0
   -1.6946    0.1632    0.0146 C   0  0  0  0  0  0  0  0  0  0  0  0
   -2.1849   -0.9554   -0.6802 C   0  0  0  0  0  0  0  0  0  0  0  0
   -1.7283   -2.5820   -2.0098 H   0  0  0  0  0  0  0  0  0  0  0  0
    0.6997   -1.9530   -2.2068 H   0  0  0  0  0  0  0  0  0  0  0  0
    0.0576    1.3762    0.4388 H   0  0  0  0  0  0  0  0  0  0  0  0
   -2.3479    0.7646    0.6344 H   0  0  0  0  0  0  0  0  0  0  0  0
    1.9685    0.0428   -1.0680 N   0  0  0  0  0  0  0  0  0  0  0  0
    2.7819    0.7965   -0.7157 N   0  0  0  0  0  0  0  0  0  0  0  0
    2.2379    2.3970    0.6564 Cl  0  0  0  0  0  0  0  0  0  0  0  0
   -3.4692   -1.3774   -0.6417 O   0  0  0  0  0  0  0  0  0  0  0  0
   -4.4064   -0.6594    0.1559 C   0  0  0  0  0  0  0  0  0  0  0  0
   -5.3563   -1.1814    0.0389 H   0  0  0  0  0  0  0  0  0  0  0  0
   -4.5157    0.3753   -0.1898 H   0  0  0  0  0  0  0  0  0  0  0  0
   -4.1167   -0.6632    1.2135 H   0  0  0  0  0  0  0  0  0  0  0  0
  1  6  1  0  0  0  0
  2  1  2  0  0  0  0
  2  3  1  0  0  0  0
  3  4  2  0  0  0  0
  4  5  1  0  0  0  0
  4  9  1  0  0  0  0
  5 10  1  0  0  0  0
  6 14  1  0  0  0  0
  6  5  2  0  0  0  0
  7  1  1  0  0  0  0
  8  2  1  0  0  0  0
 11  3  1  0  0  0  0
 11 12  2  0  0  0  0
 12 13  1  0  0  0  0
 14 15  1  0  0  0  0
 15 18  1  0  0  0  0
 16 15  1  0  0  0  0
 17 15  1  0  0  0  0
M  END
