Coordinates from ORCA-job 4-MeO-Ph-N2-Cl-B3LYPG-6-31G_dp-MTMO-d009-169-n800
 OpenBabel09051908453D

 18 16  0  0  0  0  0  0  0  0999 V2000
   -0.8064    0.4400   -1.0616 C   0  0  0  0  0  0  0  0  0  0  0  0
    0.0925    1.3693   -0.5171 C   0  0  0  0  0  0  0  0  0  0  0  0
   -0.4269    1.8202    0.6760 C   0  0  0  0  0  0  0  0  0  0  0  0
   -1.4772    1.5708    1.3140 C   0  0  0  0  0  0  0  0  0  0  0  0
   -2.4118    0.6516    0.8198 C   0  0  0  0  0  0  0  0  0  0  0  0
   -2.0240    0.0862   -0.4183 C   0  0  0  0  0  0  0  0  0  0  0  0
   -0.5827   -0.0376   -2.0103 H   0  0  0  0  0  0  0  0  0  0  0  0
    1.0237    1.6495   -0.9927 H   0  0  0  0  0  0  0  0  0  0  0  0
   -1.9749    2.3670    2.9906 H   0  0  0  0  0  0  0  0  0  0  0  0
   -3.3362    0.3924    1.3195 H   0  0  0  0  0  0  0  0  0  0  0  0
    5.1813   -6.1255   -5.8165 N   0  0  0  0  0  0  0  0  0  0  0  0
    5.7137   -7.0688   -6.0367 N   0  0  0  0  0  0  0  0  0  0  0  0
   -2.4928    2.7939    4.1281 Cl  0  0  0  0  0  0  0  0  0  0  0  0
   -2.7689   -0.8320   -1.0952 O   0  0  0  0  0  0  0  0  0  0  0  0
   -4.0014   -1.2530   -0.5262 C   0  0  0  0  0  0  0  0  0  0  0  0
   -4.4203   -1.9793   -1.2241 H   0  0  0  0  0  0  0  0  0  0  0  0
   -4.6998   -0.4143   -0.4126 H   0  0  0  0  0  0  0  0  0  0  0  0
   -3.8515   -1.7331    0.4492 H   0  0  0  0  0  0  0  0  0  0  0  0
  1  2  2  0  0  0  0
  1  6  1  0  0  0  0
  2  3  1  0  0  0  0
  3  4  2  0  0  0  0
  5  4  1  0  0  0  0
  5 10  1  0  0  0  0
  6  5  2  0  0  0  0
  7  1  1  0  0  0  0
  8  2  1  0  0  0  0
  9 13  1  0  0  0  0
 12 11  3  0  0  0  0
 14 15  1  0  0  0  0
 14  6  1  0  0  0  0
 15 17  1  0  0  0  0
 15 18  1  0  0  0  0
 16 15  1  0  0  0  0
M  RAD  2   3   2   4   2
M  END
