Coordinates from ORCA-job 4-MeO-Ph-N2-Cl-B3LYPG-6-31G_dp-MTMO-d009-169-n800
 OpenBabel09051908453D

 18 16  0  0  0  0  0  0  0  0999 V2000
   -0.5959   -0.3772   -0.6449 C   0  0  0  0  0  0  0  0  0  0  0  0
    0.3951    0.4983   -0.1763 C   0  0  0  0  0  0  0  0  0  0  0  0
   -0.1953    1.3921    0.6897 C   0  0  0  0  0  0  0  0  0  0  0  0
   -1.3688    1.5517    1.1015 C   0  0  0  0  0  0  0  0  0  0  0  0
   -2.4004    0.7086    0.6695 C   0  0  0  0  0  0  0  0  0  0  0  0
   -1.9552   -0.2814   -0.2392 C   0  0  0  0  0  0  0  0  0  0  0  0
   -0.3348   -1.1669   -1.3429 H   0  0  0  0  0  0  0  0  0  0  0  0
    1.4341    0.4395   -0.4755 H   0  0  0  0  0  0  0  0  0  0  0  0
   -1.9492    2.9155    2.3235 H   0  0  0  0  0  0  0  0  0  0  0  0
   -3.4318    0.7928    0.9875 H   0  0  0  0  0  0  0  0  0  0  0  0
    4.8244   -4.9244   -5.6674 N   0  0  0  0  0  0  0  0  0  0  0  0
    5.3253   -5.5606   -6.4198 N   0  0  0  0  0  0  0  0  0  0  0  0
   -2.5489    3.7640    3.1389 Cl  0  0  0  0  0  0  0  0  0  0  0  0
   -2.7741   -1.2163   -0.7969 O   0  0  0  0  0  0  0  0  0  0  0  0
   -4.1518   -1.1999   -0.4484 C   0  0  0  0  0  0  0  0  0  0  0  0
   -4.6105   -2.0196   -1.0024 H   0  0  0  0  0  0  0  0  0  0  0  0
   -4.6290   -0.2552   -0.7376 H   0  0  0  0  0  0  0  0  0  0  0  0
   -4.2969   -1.3635    0.6269 H   0  0  0  0  0  0  0  0  0  0  0  0
  1  6  2  0  0  0  0
  1  2  1  0  0  0  0
  2  3  2  0  0  0  0
  3  4  1  0  0  0  0
  5 10  1  0  0  0  0
  5  4  2  0  0  0  0
  6  5  1  0  0  0  0
  7  1  1  0  0  0  0
  8  2  1  0  0  0  0
  9 13  1  0  0  0  0
 12 11  3  0  0  0  0
 14 15  1  0  0  0  0
 14  6  1  0  0  0  0
 15 18  1  0  0  0  0
 16 15  1  0  0  0  0
 17 15  1  0  0  0  0
M  RAD  2   3   2   4   2
M  END
