Coordinates from ORCA-job 4-MeO-Ph-N2-Cl-B3LYPG-6-31G_dp-MTMO-d009-169-n800
 OpenBabel09051908443D

 18 16  0  0  0  0  0  0  0  0999 V2000
   -1.3979   -1.7047   -1.4523 C   0  0  0  0  0  0  0  0  0  0  0  0
   -0.0397   -1.3869   -1.6018 C   0  0  0  0  0  0  0  0  0  0  0  0
    0.2190   -0.2626   -0.8520 C   0  0  0  0  0  0  0  0  0  0  0  0
   -0.4755    0.4773   -0.1143 C   0  0  0  0  0  0  0  0  0  0  0  0
   -1.8389    0.2059    0.0693 C   0  0  0  0  0  0  0  0  0  0  0  0
   -2.2778   -0.9355   -0.6424 C   0  0  0  0  0  0  0  0  0  0  0  0
   -1.8122   -2.5673   -1.9649 H   0  0  0  0  0  0  0  0  0  0  0  0
    0.6494   -1.9570   -2.2116 H   0  0  0  0  0  0  0  0  0  0  0  0
    0.1593    1.9878    0.8552 H   0  0  0  0  0  0  0  0  0  0  0  0
   -2.4993    0.8004    0.6879 H   0  0  0  0  0  0  0  0  0  0  0  0
    3.5245   -0.4193   -1.8032 N   0  0  0  0  0  0  0  0  0  0  0  0
    4.5047    0.0640   -1.6389 N   0  0  0  0  0  0  0  0  0  0  0  0
    0.4165    3.0542    1.5951 Cl  0  0  0  0  0  0  0  0  0  0  0  0
   -3.5604   -1.3942   -0.6168 O   0  0  0  0  0  0  0  0  0  0  0  0
   -4.5122   -0.6921    0.1705 C   0  0  0  0  0  0  0  0  0  0  0  0
   -5.4539   -1.2295    0.0518 H   0  0  0  0  0  0  0  0  0  0  0  0
   -4.6390    0.3410   -0.1769 H   0  0  0  0  0  0  0  0  0  0  0  0
   -4.2302   -0.6842    1.2311 H   0  0  0  0  0  0  0  0  0  0  0  0
  1  6  1  0  0  0  0
  2  1  2  0  0  0  0
  2  3  1  0  0  0  0
  3  4  2  0  0  0  0
  4  5  1  0  0  0  0
  5 10  1  0  0  0  0
  6 14  1  0  0  0  0
  6  5  2  0  0  0  0
  7  1  1  0  0  0  0
  8  2  1  0  0  0  0
  9 13  1  0  0  0  0
 11 12  3  0  0  0  0
 14 15  1  0  0  0  0
 15 18  1  0  0  0  0
 16 15  1  0  0  0  0
 17 15  1  0  0  0  0
M  RAD  2   3   2   4   2
M  END
