Coordinates from ORCA-job 4-MeO-Ph-N2-Cl-B3LYPG-6-31G_dp-MTMO-d009-169-n800
 OpenBabel09051908443D

 18 16  0  0  0  0  0  0  0  0999 V2000
   -0.7428   -0.9243   -0.9493 C   0  0  0  0  0  0  0  0  0  0  0  0
    0.4272   -0.2008   -0.6735 C   0  0  0  0  0  0  0  0  0  0  0  0
    0.0991    0.8419    0.1643 C   0  0  0  0  0  0  0  0  0  0  0  0
   -0.9727    1.2318    0.6855 C   0  0  0  0  0  0  0  0  0  0  0  0
   -2.1723    0.5489    0.4463 C   0  0  0  0  0  0  0  0  0  0  0  0
   -2.0085   -0.5660   -0.4098 C   0  0  0  0  0  0  0  0  0  0  0  0
   -0.7009   -1.7957   -1.5954 H   0  0  0  0  0  0  0  0  0  0  0  0
    1.3981   -0.4601   -1.0763 H   0  0  0  0  0  0  0  0  0  0  0  0
   -1.1538    2.7450    1.8525 H   0  0  0  0  0  0  0  0  0  0  0  0
   -3.1295    0.8322    0.8648 H   0  0  0  0  0  0  0  0  0  0  0  0
    3.9667   -3.0769   -4.0068 N   0  0  0  0  0  0  0  0  0  0  0  0
    4.6169   -3.5780   -4.7469 N   0  0  0  0  0  0  0  0  0  0  0  0
   -1.4840    3.7335    2.6640 Cl  0  0  0  0  0  0  0  0  0  0  0  0
   -3.0306   -1.3836   -0.7882 O   0  0  0  0  0  0  0  0  0  0  0  0
   -4.3349   -1.1042   -0.2983 C   0  0  0  0  0  0  0  0  0  0  0  0
   -4.9847   -1.8700   -0.7231 H   0  0  0  0  0  0  0  0  0  0  0  0
   -4.6825   -0.1148   -0.6208 H   0  0  0  0  0  0  0  0  0  0  0  0
   -4.3742   -1.1615    0.7969 H   0  0  0  0  0  0  0  0  0  0  0  0
  1  2  2  0  0  0  0
  1  6  1  0  0  0  0
  2  3  1  0  0  0  0
  3  4  2  0  0  0  0
  5  4  1  0  0  0  0
  5 10  1  0  0  0  0
  6  5  2  0  0  0  0
  7  1  1  0  0  0  0
  8  2  1  0  0  0  0
  9 13  1  0  0  0  0
 12 11  3  0  0  0  0
 14  6  1  0  0  0  0
 14 15  1  0  0  0  0
 15 18  1  0  0  0  0
 16 15  1  0  0  0  0
 17 15  1  0  0  0  0
M  RAD  2   3   2   4   2
M  END
