Coordinates from ORCA-job 4-MeO-Ph-N2-Cl-B3LYPG-6-31G_dp-MTMO-d009-169-n800
 OpenBabel09051908443D

 18 16  0  0  0  0  0  0  0  0999 V2000
   -1.1818   -1.5335   -1.2810 C   0  0  0  0  0  0  0  0  0  0  0  0
    0.1494   -1.0901   -1.3003 C   0  0  0  0  0  0  0  0  0  0  0  0
    0.2275    0.0516   -0.5350 C   0  0  0  0  0  0  0  0  0  0  0  0
   -0.6027    0.7176    0.1287 C   0  0  0  0  0  0  0  0  0  0  0  0
   -1.9462    0.3207    0.1814 C   0  0  0  0  0  0  0  0  0  0  0  0
   -2.2046   -0.8536   -0.5646 C   0  0  0  0  0  0  0  0  0  0  0  0
   -1.4620   -2.4287   -1.8273 H   0  0  0  0  0  0  0  0  0  0  0  0
    0.9440   -1.5897   -1.8389 H   0  0  0  0  0  0  0  0  0  0  0  0
   -0.2128    2.2715    1.1653 H   0  0  0  0  0  0  0  0  0  0  0  0
   -2.7154    0.8470    0.7319 H   0  0  0  0  0  0  0  0  0  0  0  0
    3.6305   -1.2087   -2.4517 N   0  0  0  0  0  0  0  0  0  0  0  0
    4.6682   -0.8894   -2.6571 N   0  0  0  0  0  0  0  0  0  0  0  0
   -0.1432    3.3455    1.9341 Cl  0  0  0  0  0  0  0  0  0  0  0  0
   -3.4354   -1.4301   -0.6624 O   0  0  0  0  0  0  0  0  0  0  0  0
   -4.5234   -0.8160    0.0148 C   0  0  0  0  0  0  0  0  0  0  0  0
   -5.3966   -1.4331   -0.2004 H   0  0  0  0  0  0  0  0  0  0  0  0
   -4.7016    0.2030   -0.3509 H   0  0  0  0  0  0  0  0  0  0  0  0
   -4.3577   -0.7866    1.0994 H   0  0  0  0  0  0  0  0  0  0  0  0
  1  6  1  0  0  0  0
  2  1  2  0  0  0  0
  2  3  1  0  0  0  0
  3  4  2  0  0  0  0
  4  5  1  0  0  0  0
  5 10  1  0  0  0  0
  6  5  2  0  0  0  0
  7  1  1  0  0  0  0
  8  2  1  0  0  0  0
  9 13  1  0  0  0  0
 12 11  3  0  0  0  0
 14  6  1  0  0  0  0
 14 15  1  0  0  0  0
 15 18  1  0  0  0  0
 16 15  1  0  0  0  0
 17 15  1  0  0  0  0
M  RAD  2   3   2   4   2
M  END
