Coordinates from ORCA-job 4-MeO-Ph-N2-Cl-B3LYPG-6-31G_dp-MTMO-d009-169-n800
 OpenBabel09051908443D

 18 16  0  0  0  0  0  0  0  0999 V2000
   -0.7768   -1.0027   -1.0215 C   0  0  0  0  0  0  0  0  0  0  0  0
    0.4195   -0.3095   -0.7829 C   0  0  0  0  0  0  0  0  0  0  0  0
    0.1418    0.7456    0.0574 C   0  0  0  0  0  0  0  0  0  0  0  0
   -0.9037    1.1677    0.6063 C   0  0  0  0  0  0  0  0  0  0  0  0
   -2.1272    0.5157    0.4041 C   0  0  0  0  0  0  0  0  0  0  0  0
   -2.0170   -0.6077   -0.4493 C   0  0  0  0  0  0  0  0  0  0  0  0
   -0.7763   -1.8785   -1.6632 H   0  0  0  0  0  0  0  0  0  0  0  0
    1.3712   -0.5972   -1.2112 H   0  0  0  0  0  0  0  0  0  0  0  0
   -1.0105    2.6851    1.7733 H   0  0  0  0  0  0  0  0  0  0  0  0
   -3.0645    0.8270    0.8467 H   0  0  0  0  0  0  0  0  0  0  0  0
    3.7844   -2.7467   -3.6920 N   0  0  0  0  0  0  0  0  0  0  0  0
    4.4860   -3.2381   -4.3904 N   0  0  0  0  0  0  0  0  0  0  0  0
   -1.2895    3.6831    2.5929 Cl  0  0  0  0  0  0  0  0  0  0  0  0
   -3.0707   -1.3996   -0.7944 O   0  0  0  0  0  0  0  0  0  0  0  0
   -4.3523   -1.0852   -0.2669 C   0  0  0  0  0  0  0  0  0  0  0  0
   -5.0338   -1.8356   -0.6690 H   0  0  0  0  0  0  0  0  0  0  0  0
   -4.6842   -0.0884   -0.5831 H   0  0  0  0  0  0  0  0  0  0  0  0
   -4.3600   -1.1377    0.8292 H   0  0  0  0  0  0  0  0  0  0  0  0
  1  2  2  0  0  0  0
  1  6  1  0  0  0  0
  2  3  1  0  0  0  0
  3  4  2  0  0  0  0
  5  4  1  0  0  0  0
  5 10  1  0  0  0  0
  6  5  2  0  0  0  0
  7  1  1  0  0  0  0
  8  2  1  0  0  0  0
  9 13  1  0  0  0  0
 12 11  3  0  0  0  0
 14  6  1  0  0  0  0
 14 15  1  0  0  0  0
 15 18  1  0  0  0  0
 16 15  1  0  0  0  0
 17 15  1  0  0  0  0
M  RAD  2   3   2   4   2
M  END
