Coordinates from ORCA-job 4-MeO-Ph-N2-Cl-B3LYPG-6-31G_dp-MTMO-d009-169-n800
 OpenBabel09051908443D

 18 16  0  0  0  0  0  0  0  0999 V2000
   -0.9625   -1.2791   -1.2054 C   0  0  0  0  0  0  0  0  0  0  0  0
    0.3150   -0.7060   -1.1088 C   0  0  0  0  0  0  0  0  0  0  0  0
    0.2230    0.3936   -0.2864 C   0  0  0  0  0  0  0  0  0  0  0  0
   -0.7123    0.9412    0.3456 C   0  0  0  0  0  0  0  0  0  0  0  0
   -2.0084    0.4098    0.2825 C   0  0  0  0  0  0  0  0  0  0  0  0
   -2.0949   -0.7429   -0.5336 C   0  0  0  0  0  0  0  0  0  0  0  0
   -1.1122   -2.1675   -1.8111 H   0  0  0  0  0  0  0  0  0  0  0  0
    1.1876   -1.0983   -1.6149 H   0  0  0  0  0  0  0  0  0  0  0  0
   -0.5597    2.4795    1.4534 H   0  0  0  0  0  0  0  0  0  0  0  0
   -2.8627    0.8286    0.7984 H   0  0  0  0  0  0  0  0  0  0  0  0
    3.4861   -1.8368   -2.8750 N   0  0  0  0  0  0  0  0  0  0  0  0
    4.4507   -2.0506   -3.3698 N   0  0  0  0  0  0  0  0  0  0  0  0
   -0.6560    3.5243    2.2599 Cl  0  0  0  0  0  0  0  0  0  0  0  0
   -3.2511   -1.4321   -0.7466 O   0  0  0  0  0  0  0  0  0  0  0  0
   -4.4377   -0.9694   -0.1161 C   0  0  0  0  0  0  0  0  0  0  0  0
   -5.2275   -1.6554   -0.4244 H   0  0  0  0  0  0  0  0  0  0  0  0
   -4.6950    0.0471   -0.4391 H   0  0  0  0  0  0  0  0  0  0  0  0
   -4.3460   -0.9886    0.9774 H   0  0  0  0  0  0  0  0  0  0  0  0
  1  2  2  0  0  0  0
  1  6  1  0  0  0  0
  2  3  1  0  0  0  0
  3  4  2  0  0  0  0
  5  4  1  0  0  0  0
  5 10  1  0  0  0  0
  6  5  2  0  0  0  0
  7  1  1  0  0  0  0
  8  2  1  0  0  0  0
  9 13  1  0  0  0  0
 12 11  3  0  0  0  0
 14  6  1  0  0  0  0
 14 15  1  0  0  0  0
 15 18  1  0  0  0  0
 16 15  1  0  0  0  0
 17 15  1  0  0  0  0
M  RAD  2   3   2   4   2
M  END
