Coordinates from ORCA-job 4-MeO-Ph-N2-Cl-B3LYPG-6-31G_dp-MTMO-d009-169-n800
 OpenBabel09051908453D

 18 16  0  0  0  0  0  0  0  0999 V2000
   -1.1580    0.7811   -0.7585 C   0  0  0  0  0  0  0  0  0  0  0  0
   -0.2677    1.7178   -0.2124 C   0  0  0  0  0  0  0  0  0  0  0  0
   -0.7960    2.1694    0.9765 C   0  0  0  0  0  0  0  0  0  0  0  0
   -1.8481    1.9153    1.6096 C   0  0  0  0  0  0  0  0  0  0  0  0
   -2.7746    0.9888    1.1138 C   0  0  0  0  0  0  0  0  0  0  0  0
   -2.3767    0.4217   -0.1204 C   0  0  0  0  0  0  0  0  0  0  0  0
   -0.9265    0.3017   -1.7044 H   0  0  0  0  0  0  0  0  0  0  0  0
    0.6641    2.0023   -0.6841 H   0  0  0  0  0  0  0  0  0  0  0  0
   -2.3582    2.7145    3.2825 H   0  0  0  0  0  0  0  0  0  0  0  0
   -3.6998    0.7253    1.6095 H   0  0  0  0  0  0  0  0  0  0  0  0
    8.0438   -8.8208   -8.1876 N   0  0  0  0  0  0  0  0  0  0  0  0
    8.5768   -9.7637   -8.4081 N   0  0  0  0  0  0  0  0  0  0  0  0
   -2.8837    3.1420    4.4161 Cl  0  0  0  0  0  0  0  0  0  0  0  0
   -3.1123   -0.5034   -0.7981 O   0  0  0  0  0  0  0  0  0  0  0  0
   -4.3450   -0.9305   -0.2339 C   0  0  0  0  0  0  0  0  0  0  0  0
   -4.7556   -1.6618   -0.9315 H   0  0  0  0  0  0  0  0  0  0  0  0
   -5.0493   -0.0959   -0.1267 H   0  0  0  0  0  0  0  0  0  0  0  0
   -4.1969   -1.4064    0.7438 H   0  0  0  0  0  0  0  0  0  0  0  0
  1  2  2  0  0  0  0
  1  6  1  0  0  0  0
  2  3  1  0  0  0  0
  3  4  2  0  0  0  0
  5 10  1  0  0  0  0
  5  4  1  0  0  0  0
  6  5  2  0  0  0  0
  7  1  1  0  0  0  0
  8  2  1  0  0  0  0
  9 13  1  0  0  0  0
 12 11  3  0  0  0  0
 14 15  1  0  0  0  0
 14  6  1  0  0  0  0
 15 17  1  0  0  0  0
 15 18  1  0  0  0  0
 16 15  1  0  0  0  0
M  RAD  2   3   2   4   2
M  END
