Coordinates from ORCA-job 4-MeO-Ph-N2-Cl-B3LYPG-6-31G_dp-MTMO-d009-169-n800
 OpenBabel09051908453D

 18 16  0  0  0  0  0  0  0  0999 V2000
   -0.7253    0.3507   -1.0973 C   0  0  0  0  0  0  0  0  0  0  0  0
    0.1729    1.2816   -0.5545 C   0  0  0  0  0  0  0  0  0  0  0  0
   -0.3576    1.7508    0.6264 C   0  0  0  0  0  0  0  0  0  0  0  0
   -1.4163    1.5167    1.2563 C   0  0  0  0  0  0  0  0  0  0  0  0
   -2.3507    0.5965    0.7626 C   0  0  0  0  0  0  0  0  0  0  0  0
   -1.9524    0.0126   -0.4633 C   0  0  0  0  0  0  0  0  0  0  0  0
   -0.4938   -0.1404   -2.0372 H   0  0  0  0  0  0  0  0  0  0  0  0
    1.1110    1.5501   -1.0230 H   0  0  0  0  0  0  0  0  0  0  0  0
   -1.9241    2.3362    2.9171 H   0  0  0  0  0  0  0  0  0  0  0  0
   -3.2822    0.3492    1.2550 H   0  0  0  0  0  0  0  0  0  0  0  0
    4.6458   -5.6077   -5.4094 N   0  0  0  0  0  0  0  0  0  0  0  0
    5.1763   -6.5516   -5.6313 N   0  0  0  0  0  0  0  0  0  0  0  0
   -2.4497    2.7806    4.0446 Cl  0  0  0  0  0  0  0  0  0  0  0  0
   -2.6952   -0.9098   -1.1367 O   0  0  0  0  0  0  0  0  0  0  0  0
   -3.9370   -1.3155   -0.5769 C   0  0  0  0  0  0  0  0  0  0  0  0
   -4.3525   -2.0481   -1.2702 H   0  0  0  0  0  0  0  0  0  0  0  0
   -4.6311   -0.4708   -0.4824 H   0  0  0  0  0  0  0  0  0  0  0  0
   -3.8017   -1.7838    0.4063 H   0  0  0  0  0  0  0  0  0  0  0  0
  1  2  2  0  0  0  0
  1  6  1  0  0  0  0
  2  3  1  0  0  0  0
  3  4  2  0  0  0  0
  5 10  1  0  0  0  0
  5  4  1  0  0  0  0
  6  5  2  0  0  0  0
  7  1  1  0  0  0  0
  8  2  1  0  0  0  0
  9 13  1  0  0  0  0
 12 11  3  0  0  0  0
 14 15  1  0  0  0  0
 14  6  1  0  0  0  0
 15 17  1  0  0  0  0
 15 18  1  0  0  0  0
 16 15  1  0  0  0  0
M  RAD  2   3   2   4   2
M  END
