Coordinates from ORCA-job 4-MeO-Ph-N2-Cl-B3LYPG-6-31G_dp-MTMO-d009-169-n800
 OpenBabel09051908443D

 18 16  0  0  0  0  0  0  0  0999 V2000
   -1.3606   -1.6571   -1.4398 C   0  0  0  0  0  0  0  0  0  0  0  0
   -0.0099   -1.3037   -1.5769 C   0  0  0  0  0  0  0  0  0  0  0  0
    0.2145   -0.1767   -0.8194 C   0  0  0  0  0  0  0  0  0  0  0  0
   -0.5058    0.5397   -0.0836 C   0  0  0  0  0  0  0  0  0  0  0  0
   -1.8630    0.2330    0.0884 C   0  0  0  0  0  0  0  0  0  0  0  0
   -2.2665   -0.9153   -0.6330 C   0  0  0  0  0  0  0  0  0  0  0  0
   -1.7485   -2.5274   -1.9599 H   0  0  0  0  0  0  0  0  0  0  0  0
    0.6988   -1.8525   -2.1837 H   0  0  0  0  0  0  0  0  0  0  0  0
    0.0828    2.0603    0.9052 H   0  0  0  0  0  0  0  0  0  0  0  0
   -2.5431    0.8064    0.7056 H   0  0  0  0  0  0  0  0  0  0  0  0
    3.5579   -0.5965   -1.9148 N   0  0  0  0  0  0  0  0  0  0  0  0
    4.5736   -0.1863   -1.7682 N   0  0  0  0  0  0  0  0  0  0  0  0
    0.3027    3.1262    1.6570 Cl  0  0  0  0  0  0  0  0  0  0  0  0
   -3.5371   -1.4069   -0.6203 O   0  0  0  0  0  0  0  0  0  0  0  0
   -4.5138   -0.7319    0.1602 C   0  0  0  0  0  0  0  0  0  0  0  0
   -5.4406   -1.2919    0.0300 H   0  0  0  0  0  0  0  0  0  0  0  0
   -4.6625    0.2993   -0.1844 H   0  0  0  0  0  0  0  0  0  0  0  0
   -4.2425   -0.7214    1.2237 H   0  0  0  0  0  0  0  0  0  0  0  0
  1  6  1  0  0  0  0
  2  1  2  0  0  0  0
  2  3  1  0  0  0  0
  3  4  2  0  0  0  0
  4  5  1  0  0  0  0
  5 10  1  0  0  0  0
  6 14  1  0  0  0  0
  6  5  2  0  0  0  0
  7  1  1  0  0  0  0
  8  2  1  0  0  0  0
  9 13  1  0  0  0  0
 11 12  3  0  0  0  0
 14 15  1  0  0  0  0
 15 18  1  0  0  0  0
 16 15  1  0  0  0  0
 17 15  1  0  0  0  0
M  RAD  2   3   2   4   2
M  END
