Coordinates from ORCA-job 4-MeO-Ph-N2-Cl-B3LYPG-6-31G_dp-MTMO-d009-169-n800
 OpenBabel09051908443D

 18 17  0  0  0  0  0  0  0  0999 V2000
   -1.3007   -1.7162   -1.4839 C   0  0  0  0  0  0  0  0  0  0  0  0
    0.0273   -1.3652   -1.5884 C   0  0  0  0  0  0  0  0  0  0  0  0
    0.5297   -0.2390   -0.8898 C   0  0  0  0  0  0  0  0  0  0  0  0
   -0.3454    0.5278   -0.0842 C   0  0  0  0  0  0  0  0  0  0  0  0
   -1.6816    0.1721    0.0157 C   0  0  0  0  0  0  0  0  0  0  0  0
   -2.1696   -0.9498   -0.6791 C   0  0  0  0  0  0  0  0  0  0  0  0
   -1.7036   -2.5758   -2.0075 H   0  0  0  0  0  0  0  0  0  0  0  0
    0.7089   -1.9443   -2.2030 H   0  0  0  0  0  0  0  0  0  0  0  0
    0.0529    1.3877    0.4431 H   0  0  0  0  0  0  0  0  0  0  0  0
   -2.3385    0.7716    0.6338 H   0  0  0  0  0  0  0  0  0  0  0  0
    1.7921    0.0426   -1.0247 N   0  0  0  0  0  0  0  0  0  0  0  0
    2.6968    0.7301   -0.7464 N   0  0  0  0  0  0  0  0  0  0  0  0
    2.2661    2.3725    0.6469 Cl  0  0  0  0  0  0  0  0  0  0  0  0
   -3.4473   -1.3742   -0.6421 O   0  0  0  0  0  0  0  0  0  0  0  0
   -4.3949   -0.6608    0.1521 C   0  0  0  0  0  0  0  0  0  0  0  0
   -5.3396   -1.1905    0.0301 H   0  0  0  0  0  0  0  0  0  0  0  0
   -4.5081    0.3718   -0.1967 H   0  0  0  0  0  0  0  0  0  0  0  0
   -4.1082   -0.6631    1.2099 H   0  0  0  0  0  0  0  0  0  0  0  0
  1  6  1  0  0  0  0
  2  1  2  0  0  0  0
  2  3  1  0  0  0  0
  3  4  2  0  0  0  0
  4  5  1  0  0  0  0
  4  9  1  0  0  0  0
  5 10  1  0  0  0  0
  6 14  1  0  0  0  0
  6  5  2  0  0  0  0
  7  1  1  0  0  0  0
  8  2  1  0  0  0  0
 11  3  1  0  0  0  0
 11 12  2  0  0  0  0
 14 15  1  0  0  0  0
 15 18  1  0  0  0  0
 16 15  1  0  0  0  0
 17 15  1  0  0  0  0
M  RAD  2  12   2  13   2
M  END
