Coordinates from ORCA-job 4-MeO-Ph-N2-Cl-B3LYPG-6-31G_dp-MTMO-d009-169-n800
 OpenBabel09051908443D

 18 16  0  0  0  0  0  0  0  0999 V2000
   -1.4012   -1.7934   -1.5209 C   0  0  0  0  0  0  0  0  0  0  0  0
   -0.0352   -1.5453   -1.7165 C   0  0  0  0  0  0  0  0  0  0  0  0
    0.2990   -0.4347   -0.9853 C   0  0  0  0  0  0  0  0  0  0  0  0
   -0.3016    0.3720   -0.2222 C   0  0  0  0  0  0  0  0  0  0  0  0
   -1.6751    0.1485   -0.0079 C   0  0  0  0  0  0  0  0  0  0  0  0
   -2.2065   -0.9703   -0.6879 C   0  0  0  0  0  0  0  0  0  0  0  0
   -1.8764   -2.6365   -2.0121 H   0  0  0  0  0  0  0  0  0  0  0  0
    0.6085   -2.1499   -2.3426 H   0  0  0  0  0  0  0  0  0  0  0  0
    0.3970    1.7470    0.6224 H   0  0  0  0  0  0  0  0  0  0  0  0
   -2.2817    0.7839    0.6261 H   0  0  0  0  0  0  0  0  0  0  0  0
    2.6867   -0.0603   -1.3343 N   0  0  0  0  0  0  0  0  0  0  0  0
    3.4811    0.6202   -0.9751 N   0  0  0  0  0  0  0  0  0  0  0  0
    0.8503    2.8155    1.3101 Cl  0  0  0  0  0  0  0  0  0  0  0  0
   -3.5099   -1.3567   -0.6112 O   0  0  0  0  0  0  0  0  0  0  0  0
   -4.3912   -0.5981    0.2060 C   0  0  0  0  0  0  0  0  0  0  0  0
   -5.3648   -1.0834    0.1271 H   0  0  0  0  0  0  0  0  0  0  0  0
   -4.4737    0.4383   -0.1448 H   0  0  0  0  0  0  0  0  0  0  0  0
   -4.0688   -0.5995    1.2549 H   0  0  0  0  0  0  0  0  0  0  0  0
  1  6  1  0  0  0  0
  2  1  2  0  0  0  0
  2  3  1  0  0  0  0
  3  4  2  0  0  0  0
  4  5  1  0  0  0  0
  5 10  1  0  0  0  0
  6 14  1  0  0  0  0
  6  5  2  0  0  0  0
  7  1  1  0  0  0  0
  8  2  1  0  0  0  0
  9 13  1  0  0  0  0
 11 12  3  0  0  0  0
 14 15  1  0  0  0  0
 15 18  1  0  0  0  0
 16 15  1  0  0  0  0
 17 15  1  0  0  0  0
M  RAD  2   3   2   4   2
M  END
