Coordinates from ORCA-job 4-MeO-Ph-N2-Cl-B3LYPG-6-31G_dp-MTMO-d009-169-n800
 OpenBabel09051908453D

 18 16  0  0  0  0  0  0  0  0999 V2000
   -1.1343    0.7570   -0.7857 C   0  0  0  0  0  0  0  0  0  0  0  0
   -0.2416    1.6915   -0.2399 C   0  0  0  0  0  0  0  0  0  0  0  0
   -0.7661    2.1406    0.9516 C   0  0  0  0  0  0  0  0  0  0  0  0
   -1.8165    1.8860    1.5873 C   0  0  0  0  0  0  0  0  0  0  0  0
   -2.7452    0.9615    1.0919 C   0  0  0  0  0  0  0  0  0  0  0  0
   -2.3515    0.3972   -0.1449 C   0  0  0  0  0  0  0  0  0  0  0  0
   -0.9060    0.2798   -1.7335 H   0  0  0  0  0  0  0  0  0  0  0  0
    0.6891    1.9763   -0.7136 H   0  0  0  0  0  0  0  0  0  0  0  0
   -2.3219    2.6814    3.2629 H   0  0  0  0  0  0  0  0  0  0  0  0
   -3.6692    0.6977    1.5896 H   0  0  0  0  0  0  0  0  0  0  0  0
    7.8259   -8.6128   -8.0005 N   0  0  0  0  0  0  0  0  0  0  0  0
    8.3589   -9.5556   -8.2208 N   0  0  0  0  0  0  0  0  0  0  0  0
   -2.8440    3.1070    4.3989 Cl  0  0  0  0  0  0  0  0  0  0  0  0
   -3.0899   -0.5256   -0.8227 O   0  0  0  0  0  0  0  0  0  0  0  0
   -4.3213   -0.9530   -0.2560 C   0  0  0  0  0  0  0  0  0  0  0  0
   -4.7346   -1.6822   -0.9541 H   0  0  0  0  0  0  0  0  0  0  0  0
   -5.0246   -0.1181   -0.1446 H   0  0  0  0  0  0  0  0  0  0  0  0
   -4.1708   -1.4315    0.7201 H   0  0  0  0  0  0  0  0  0  0  0  0
  1  2  2  0  0  0  0
  1  6  1  0  0  0  0
  2  3  1  0  0  0  0
  3  4  2  0  0  0  0
  5  4  1  0  0  0  0
  5 10  1  0  0  0  0
  6  5  2  0  0  0  0
  7  1  1  0  0  0  0
  8  2  1  0  0  0  0
  9 13  1  0  0  0  0
 12 11  3  0  0  0  0
 14 15  1  0  0  0  0
 14  6  1  0  0  0  0
 15 17  1  0  0  0  0
 15 18  1  0  0  0  0
 16 15  1  0  0  0  0
M  RAD  2   3   2   4   2
M  END
