Coordinates from ORCA-job 4-MeO-Ph-N2-Cl-B3LYPG-6-31G_dp-MTMO-d009-169-n800
 OpenBabel09051908443D

 18 16  0  0  0  0  0  0  0  0999 V2000
   -0.7759   -1.0003   -1.0193 C   0  0  0  0  0  0  0  0  0  0  0  0
    0.4197   -0.3062   -0.7795 C   0  0  0  0  0  0  0  0  0  0  0  0
    0.1405    0.7486    0.0608 C   0  0  0  0  0  0  0  0  0  0  0  0
   -0.9059    1.1698    0.6089 C   0  0  0  0  0  0  0  0  0  0  0  0
   -2.1287    0.5168    0.4055 C   0  0  0  0  0  0  0  0  0  0  0  0
   -2.0169   -0.6064   -0.4481 C   0  0  0  0  0  0  0  0  0  0  0  0
   -0.7741   -1.8759   -1.6611 H   0  0  0  0  0  0  0  0  0  0  0  0
    1.3720   -0.5930   -1.2070 H   0  0  0  0  0  0  0  0  0  0  0  0
   -1.0149    2.6871    1.7758 H   0  0  0  0  0  0  0  0  0  0  0  0
   -3.0667    0.8272    0.8474 H   0  0  0  0  0  0  0  0  0  0  0  0
    3.7908   -2.7570   -3.7022 N   0  0  0  0  0  0  0  0  0  0  0  0
    4.4908   -3.2491   -4.4019 N   0  0  0  0  0  0  0  0  0  0  0  0
   -1.2955    3.6848    2.5951 Cl  0  0  0  0  0  0  0  0  0  0  0  0
   -3.0696   -1.3991   -0.7942 O   0  0  0  0  0  0  0  0  0  0  0  0
   -4.3519   -1.0857   -0.2678 C   0  0  0  0  0  0  0  0  0  0  0  0
   -5.0325   -1.8366   -0.6706 H   0  0  0  0  0  0  0  0  0  0  0  0
   -4.6843   -0.0892   -0.5843 H   0  0  0  0  0  0  0  0  0  0  0  0
   -4.3606   -1.1384    0.8283 H   0  0  0  0  0  0  0  0  0  0  0  0
  1  2  2  0  0  0  0
  1  6  1  0  0  0  0
  2  3  1  0  0  0  0
  3  4  2  0  0  0  0
  5  4  1  0  0  0  0
  5 10  1  0  0  0  0
  6  5  2  0  0  0  0
  7  1  1  0  0  0  0
  8  2  1  0  0  0  0
  9 13  1  0  0  0  0
 12 11  3  0  0  0  0
 14  6  1  0  0  0  0
 14 15  1  0  0  0  0
 15 18  1  0  0  0  0
 16 15  1  0  0  0  0
 17 15  1  0  0  0  0
M  RAD  2   3   2   4   2
M  END
