Coordinates from ORCA-job 4-MeO-Ph-N2-Cl-B3LYPG-6-31G_dp-MTMO-d009-169-n800
 OpenBabel09051908453D

 18 16  0  0  0  0  0  0  0  0999 V2000
   -1.1403    0.7638   -0.7739 C   0  0  0  0  0  0  0  0  0  0  0  0
   -0.2495    1.7000   -0.2280 C   0  0  0  0  0  0  0  0  0  0  0  0
   -0.7772    2.1516    0.9612 C   0  0  0  0  0  0  0  0  0  0  0  0
   -1.8292    1.8977    1.5946 C   0  0  0  0  0  0  0  0  0  0  0  0
   -2.7562    0.9717    1.0990 C   0  0  0  0  0  0  0  0  0  0  0  0
   -2.3590    0.4048   -0.1355 C   0  0  0  0  0  0  0  0  0  0  0  0
   -0.9093    0.2845   -1.7200 H   0  0  0  0  0  0  0  0  0  0  0  0
    0.6823    1.9842   -0.6998 H   0  0  0  0  0  0  0  0  0  0  0  0
   -2.3383    2.6968    3.2679 H   0  0  0  0  0  0  0  0  0  0  0  0
   -3.6814    0.7085    1.5950 H   0  0  0  0  0  0  0  0  0  0  0  0
    7.8990   -8.6844   -8.0677 N   0  0  0  0  0  0  0  0  0  0  0  0
    8.4319   -9.6273   -8.2885 N   0  0  0  0  0  0  0  0  0  0  0  0
   -2.8632    3.1242    4.4019 Cl  0  0  0  0  0  0  0  0  0  0  0  0
   -3.0951   -0.5200   -0.8131 O   0  0  0  0  0  0  0  0  0  0  0  0
   -4.3278   -0.9466   -0.2487 C   0  0  0  0  0  0  0  0  0  0  0  0
   -4.7390   -1.6776   -0.9463 H   0  0  0  0  0  0  0  0  0  0  0  0
   -5.0317   -0.1118   -0.1410 H   0  0  0  0  0  0  0  0  0  0  0  0
   -4.1796   -1.4228    0.7289 H   0  0  0  0  0  0  0  0  0  0  0  0
  1  2  2  0  0  0  0
  1  6  1  0  0  0  0
  2  3  1  0  0  0  0
  3  4  2  0  0  0  0
  5  4  1  0  0  0  0
  5 10  1  0  0  0  0
  6  5  2  0  0  0  0
  7  1  1  0  0  0  0
  8  2  1  0  0  0  0
  9 13  1  0  0  0  0
 12 11  3  0  0  0  0
 14 15  1  0  0  0  0
 14  6  1  0  0  0  0
 15 17  1  0  0  0  0
 15 18  1  0  0  0  0
 16 15  1  0  0  0  0
M  RAD  2   3   2   4   2
M  END
