Coordinates from ORCA-job 4-MeO-Ph-N2-Cl-B3LYPG-6-31G_dp-MTMO-d009-169-n800
 OpenBabel09051908443D

 18 17  0  0  0  0  0  0  0  0999 V2000
   -1.2684   -1.6963   -1.4785 C   0  0  0  0  0  0  0  0  0  0  0  0
    0.0454   -1.3480   -1.5813 C   0  0  0  0  0  0  0  0  0  0  0  0
    0.6567   -0.1747   -0.8758 C   0  0  0  0  0  0  0  0  0  0  0  0
   -0.3649    0.5666   -0.0500 C   0  0  0  0  0  0  0  0  0  0  0  0
   -1.6829    0.1963    0.0326 C   0  0  0  0  0  0  0  0  0  0  0  0
   -2.1523   -0.9333   -0.6726 C   0  0  0  0  0  0  0  0  0  0  0  0
   -1.6731   -2.5569   -2.0019 H   0  0  0  0  0  0  0  0  0  0  0  0
    0.7282   -1.9303   -2.1962 H   0  0  0  0  0  0  0  0  0  0  0  0
    0.0228    1.4318    0.4825 H   0  0  0  0  0  0  0  0  0  0  0  0
   -2.3599    0.7817    0.6448 H   0  0  0  0  0  0  0  0  0  0  0  0
    1.5417    0.0707   -0.9309 N   0  0  0  0  0  0  0  0  0  0  0  0
    2.6233    0.5659   -0.8483 N   0  0  0  0  0  0  0  0  0  0  0  0
    2.3857    2.3340    0.5845 Cl  0  0  0  0  0  0  0  0  0  0  0  0
   -3.4150   -1.3691   -0.6483 O   0  0  0  0  0  0  0  0  0  0  0  0
   -4.3929   -0.6786    0.1388 C   0  0  0  0  0  0  0  0  0  0  0  0
   -5.3218   -1.2297   -0.0028 H   0  0  0  0  0  0  0  0  0  0  0  0
   -4.5188    0.3517   -0.2090 H   0  0  0  0  0  0  0  0  0  0  0  0
   -4.1174   -0.6846    1.1984 H   0  0  0  0  0  0  0  0  0  0  0  0
  1  6  1  0  0  0  0
  2  1  2  0  0  0  0
  2  3  1  0  0  0  0
  3  4  2  0  0  0  0
  4  5  1  0  0  0  0
  4  9  1  0  0  0  0
  5 10  1  0  0  0  0
  6 14  1  0  0  0  0
  6  5  2  0  0  0  0
  7  1  1  0  0  0  0
  8  2  1  0  0  0  0
 11  3  1  0  0  0  0
 11 12  1  0  0  0  0
 14 15  1  0  0  0  0
 15 18  1  0  0  0  0
 16 15  1  0  0  0  0
 17 15  1  0  0  0  0
M  RAD  3  11   2  12   3  13   2
M  END
