Coordinates from ORCA-job 4-MeO-Ph-N2-Cl-B3LYPG-6-31G_dp-MTMO-d009-169-n800
 OpenBabel09051908453D

 18 16  0  0  0  0  0  0  0  0999 V2000
   -1.0420    0.6674   -0.8721 C   0  0  0  0  0  0  0  0  0  0  0  0
   -0.1456    1.5984   -0.3266 C   0  0  0  0  0  0  0  0  0  0  0  0
   -0.6649    2.0439    0.8685 C   0  0  0  0  0  0  0  0  0  0  0  0
   -1.7130    1.7897    1.5083 C   0  0  0  0  0  0  0  0  0  0  0  0
   -2.6449    0.8682    1.0125 C   0  0  0  0  0  0  0  0  0  0  0  0
   -2.2573    0.3075   -0.2276 C   0  0  0  0  0  0  0  0  0  0  0  0
   -0.8182    0.1932   -1.8225 H   0  0  0  0  0  0  0  0  0  0  0  0
    0.7838    1.8834   -0.8027 H   0  0  0  0  0  0  0  0  0  0  0  0
   -2.2115    2.5797    3.1861 H   0  0  0  0  0  0  0  0  0  0  0  0
   -3.5675    0.6041    1.5129 H   0  0  0  0  0  0  0  0  0  0  0  0
    7.0470   -7.8800   -7.3517 N   0  0  0  0  0  0  0  0  0  0  0  0
    7.5829   -8.8220   -7.5690 N   0  0  0  0  0  0  0  0  0  0  0  0
   -2.7277    3.0039    4.3256 Cl  0  0  0  0  0  0  0  0  0  0  0  0
   -3.0000   -0.6116   -0.9056 O   0  0  0  0  0  0  0  0  0  0  0  0
   -4.2298   -1.0390   -0.3355 C   0  0  0  0  0  0  0  0  0  0  0  0
   -4.6472   -1.7650   -1.0346 H   0  0  0  0  0  0  0  0  0  0  0  0
   -4.9313   -0.2033   -0.2185 H   0  0  0  0  0  0  0  0  0  0  0  0
   -4.0762   -1.5211    0.6382 H   0  0  0  0  0  0  0  0  0  0  0  0
  1  2  2  0  0  0  0
  1  6  1  0  0  0  0
  2  3  1  0  0  0  0
  3  4  2  0  0  0  0
  5  4  1  0  0  0  0
  5 10  1  0  0  0  0
  6  5  2  0  0  0  0
  7  1  1  0  0  0  0
  8  2  1  0  0  0  0
  9 13  1  0  0  0  0
 12 11  3  0  0  0  0
 14 15  1  0  0  0  0
 14  6  1  0  0  0  0
 15 17  1  0  0  0  0
 15 18  1  0  0  0  0
 16 15  1  0  0  0  0
M  RAD  2   3   2   4   2
M  END
