Coordinates from ORCA-job 4-MeO-Ph-N2-Cl-B3LYPG-6-31G_dp-MTMO-d009-169-n800
 OpenBabel09051908443D

 18 16  0  0  0  0  0  0  0  0999 V2000
   -0.7323   -0.9003   -0.9282 C   0  0  0  0  0  0  0  0  0  0  0  0
    0.4295   -0.1680   -0.6415 C   0  0  0  0  0  0  0  0  0  0  0  0
    0.0863    0.8704    0.1956 C   0  0  0  0  0  0  0  0  0  0  0  0
   -0.9930    1.2504    0.7086 C   0  0  0  0  0  0  0  0  0  0  0  0
   -2.1851    0.5584    0.4585 C   0  0  0  0  0  0  0  0  0  0  0  0
   -2.0052   -0.5534   -0.3985 C   0  0  0  0  0  0  0  0  0  0  0  0
   -0.6781   -1.7701   -1.5757 H   0  0  0  0  0  0  0  0  0  0  0  0
    1.4057   -0.4186   -1.0368 H   0  0  0  0  0  0  0  0  0  0  0  0
   -1.1967    2.7614    1.8755 H   0  0  0  0  0  0  0  0  0  0  0  0
   -3.1478    0.8331    0.8697 H   0  0  0  0  0  0  0  0  0  0  0  0
    4.0153   -3.1745   -4.0982 N   0  0  0  0  0  0  0  0  0  0  0  0
    4.6519   -3.6775   -4.8488 N   0  0  0  0  0  0  0  0  0  0  0  0
   -1.5425    3.7465    2.6846 Cl  0  0  0  0  0  0  0  0  0  0  0  0
   -3.0175   -1.3785   -0.7868 O   0  0  0  0  0  0  0  0  0  0  0  0
   -4.3283   -1.1099   -0.3078 C   0  0  0  0  0  0  0  0  0  0  0  0
   -4.9684   -1.8800   -0.7395 H   0  0  0  0  0  0  0  0  0  0  0  0
   -4.6807   -0.1227   -0.6318 H   0  0  0  0  0  0  0  0  0  0  0  0
   -4.3767   -1.1693    0.7869 H   0  0  0  0  0  0  0  0  0  0  0  0
  1  2  2  0  0  0  0
  1  6  1  0  0  0  0
  2  3  1  0  0  0  0
  3  4  2  0  0  0  0
  5  4  1  0  0  0  0
  5 10  1  0  0  0  0
  6  5  2  0  0  0  0
  7  1  1  0  0  0  0
  8  2  1  0  0  0  0
  9 13  1  0  0  0  0
 12 11  3  0  0  0  0
 14  6  1  0  0  0  0
 14 15  1  0  0  0  0
 15 18  1  0  0  0  0
 16 15  1  0  0  0  0
 17 15  1  0  0  0  0
M  RAD  2   3   2   4   2
M  END
