Coordinates from ORCA-job 4-MeO-Ph-N2-Cl-B3LYPG-6-31G_dp-MTMO-d009-169-n800
 OpenBabel09051908443D

 18 16  0  0  0  0  0  0  0  0999 V2000
   -0.6030   -0.4174   -0.6543 C   0  0  0  0  0  0  0  0  0  0  0  0
    0.4007    0.4489   -0.1956 C   0  0  0  0  0  0  0  0  0  0  0  0
   -0.1751    1.3564    0.6659 C   0  0  0  0  0  0  0  0  0  0  0  0
   -1.3451    1.5341    1.0802 C   0  0  0  0  0  0  0  0  0  0  0  0
   -2.3889    0.7011    0.6581 C   0  0  0  0  0  0  0  0  0  0  0  0
   -1.9595   -0.3012   -0.2446 C   0  0  0  0  0  0  0  0  0  0  0  0
   -0.3545   -1.2153   -1.3474 H   0  0  0  0  0  0  0  0  0  0  0  0
    1.4378    0.3746   -0.4979 H   0  0  0  0  0  0  0  0  0  0  0  0
   -1.9040    2.9181    2.2904 H   0  0  0  0  0  0  0  0  0  0  0  0
   -3.4181    0.8011    0.9788 H   0  0  0  0  0  0  0  0  0  0  0  0
    4.7828   -4.8191   -5.5886 N   0  0  0  0  0  0  0  0  0  0  0  0
    5.2991   -5.4395   -6.3437 N   0  0  0  0  0  0  0  0  0  0  0  0
   -2.4899    3.7828    3.0987 Cl  0  0  0  0  0  0  0  0  0  0  0  0
   -2.7922   -1.2297   -0.7926 O   0  0  0  0  0  0  0  0  0  0  0  0
   -4.1683   -1.1935   -0.4394 C   0  0  0  0  0  0  0  0  0  0  0  0
   -4.6393   -2.0112   -0.9860 H   0  0  0  0  0  0  0  0  0  0  0  0
   -4.6346   -0.2450   -0.7336 H   0  0  0  0  0  0  0  0  0  0  0  0
   -4.3115   -1.3478    0.6375 H   0  0  0  0  0  0  0  0  0  0  0  0
  1  6  2  0  0  0  0
  1  2  1  0  0  0  0
  2  3  2  0  0  0  0
  3  4  1  0  0  0  0
  5 10  1  0  0  0  0
  5  4  2  0  0  0  0
  6  5  1  0  0  0  0
  7  1  1  0  0  0  0
  8  2  1  0  0  0  0
  9 13  1  0  0  0  0
 12 11  3  0  0  0  0
 14 15  1  0  0  0  0
 14  6  1  0  0  0  0
 15 18  1  0  0  0  0
 16 15  1  0  0  0  0
 17 15  1  0  0  0  0
M  RAD  2   3   2   4   2
M  END
