Coordinates from ORCA-job 4-MeO-Ph-N2-Cl-B3LYPG-6-31G_dp-MTMO-d009-169-n800
 OpenBabel09051908453D

 18 16  0  0  0  0  0  0  0  0999 V2000
   -0.7255    0.3082   -1.1365 C   0  0  0  0  0  0  0  0  0  0  0  0
    0.1929    1.2242   -0.6019 C   0  0  0  0  0  0  0  0  0  0  0  0
   -0.3178    1.7003    0.5851 C   0  0  0  0  0  0  0  0  0  0  0  0
   -1.3728    1.4798    1.2259 C   0  0  0  0  0  0  0  0  0  0  0  0
   -2.3269    0.5755    0.7413 C   0  0  0  0  0  0  0  0  0  0  0  0
   -1.9507   -0.0121   -0.4901 C   0  0  0  0  0  0  0  0  0  0  0  0
   -0.5119   -0.1845   -2.0798 H   0  0  0  0  0  0  0  0  0  0  0  0
    1.1299    1.4793   -1.0802 H   0  0  0  0  0  0  0  0  0  0  0  0
   -1.8444    2.2895    2.9028 H   0  0  0  0  0  0  0  0  0  0  0  0
   -3.2563    0.3414    1.2438 H   0  0  0  0  0  0  0  0  0  0  0  0
    4.5370   -5.3896   -5.2235 N   0  0  0  0  0  0  0  0  0  0  0  0
    5.0475   -6.3453   -5.4419 N   0  0  0  0  0  0  0  0  0  0  0  0
   -2.3470    2.7295    4.0423 Cl  0  0  0  0  0  0  0  0  0  0  0  0
   -2.7147   -0.9220   -1.1568 O   0  0  0  0  0  0  0  0  0  0  0  0
   -3.9568   -1.3089   -0.5847 C   0  0  0  0  0  0  0  0  0  0  0  0
   -4.3912   -2.0335   -1.2748 H   0  0  0  0  0  0  0  0  0  0  0  0
   -4.6363   -0.4535   -0.4816 H   0  0  0  0  0  0  0  0  0  0  0  0
   -3.8187   -1.7810    0.3963 H   0  0  0  0  0  0  0  0  0  0  0  0
  1  2  2  0  0  0  0
  1  6  1  0  0  0  0
  2  3  1  0  0  0  0
  3  4  2  0  0  0  0
  5  4  1  0  0  0  0
  5 10  1  0  0  0  0
  6  5  2  0  0  0  0
  7  1  1  0  0  0  0
  8  2  1  0  0  0  0
  9 13  1  0  0  0  0
 12 11  3  0  0  0  0
 14 15  1  0  0  0  0
 14  6  1  0  0  0  0
 15 17  1  0  0  0  0
 15 18  1  0  0  0  0
 16 15  1  0  0  0  0
M  RAD  2   3   2   4   2
M  END
