Coordinates from ORCA-job 4-MeO-Ph-N2-Cl-B3LYPG-6-31G_dp-MTMO-d009-169-n800
 OpenBabel09051908453D

 18 16  0  0  0  0  0  0  0  0999 V2000
   -1.1625    0.7829   -0.7678 C   0  0  0  0  0  0  0  0  0  0  0  0
   -0.2687    1.7165   -0.2220 C   0  0  0  0  0  0  0  0  0  0  0  0
   -0.7909    2.1634    0.9712 C   0  0  0  0  0  0  0  0  0  0  0  0
   -1.8401    1.9080    1.6087 C   0  0  0  0  0  0  0  0  0  0  0  0
   -2.7697    0.9843    1.1132 C   0  0  0  0  0  0  0  0  0  0  0  0
   -2.3784    0.4221   -0.1252 C   0  0  0  0  0  0  0  0  0  0  0  0
   -0.9359    0.3074   -1.7168 H   0  0  0  0  0  0  0  0  0  0  0  0
    0.6611    2.0021   -0.6970 H   0  0  0  0  0  0  0  0  0  0  0  0
   -2.3429    2.7005    3.2857 H   0  0  0  0  0  0  0  0  0  0  0  0
   -3.6928    0.7196    1.6123 H   0  0  0  0  0  0  0  0  0  0  0  0
    8.0317   -8.8033   -8.1642 N   0  0  0  0  0  0  0  0  0  0  0  0
    8.5655   -9.7459   -8.3836 N   0  0  0  0  0  0  0  0  0  0  0  0
   -2.8627    3.1246    4.4233 Cl  0  0  0  0  0  0  0  0  0  0  0  0
   -3.1182   -0.4995   -0.8032 O   0  0  0  0  0  0  0  0  0  0  0  0
   -4.3484   -0.9280   -0.2348 C   0  0  0  0  0  0  0  0  0  0  0  0
   -4.7631   -1.6560   -0.9334 H   0  0  0  0  0  0  0  0  0  0  0  0
   -5.0515   -0.0933   -0.1207 H   0  0  0  0  0  0  0  0  0  0  0  0
   -4.1960   -1.4081    0.7401 H   0  0  0  0  0  0  0  0  0  0  0  0
  1  2  2  0  0  0  0
  1  6  1  0  0  0  0
  2  3  1  0  0  0  0
  3  4  2  0  0  0  0
  5  4  1  0  0  0  0
  5 10  1  0  0  0  0
  6  5  2  0  0  0  0
  7  1  1  0  0  0  0
  8  2  1  0  0  0  0
  9 13  1  0  0  0  0
 12 11  3  0  0  0  0
 14 15  1  0  0  0  0
 14  6  1  0  0  0  0
 15 17  1  0  0  0  0
 15 18  1  0  0  0  0
 16 15  1  0  0  0  0
M  RAD  2   3   2   4   2
M  END
