31
Coordinates from ORCA-job Ph-N2-OTs-B3LYPG-aug-cc-pVDZ-scan-d09-49-n400
  C   -0.14917523344272     -0.19204824141996     -2.27635172092364
  C   0.90136692558673      0.72998645682349     -2.20946557845586
  C   0.57171509564600      2.03349584832498     -2.53709603764292
  C   -0.67975269639024      2.49571030481868     -2.93610870038574
  C   -1.69460480819066      1.53957402822846     -3.01174264516338
  C   -1.42815280508106      0.20491019664563     -2.68194852810973
  H   0.04644774737171     -1.23150856421152     -2.01626016204756
  H   1.91887903117567      0.45194858563034     -1.92042148408639
  H   -0.85162076392747      3.54067312812827     -3.18336156626350
  H   -2.68977251399596      1.84314705287765     -3.33405914912554
  N   1.65901632091296      3.13587705211516     -2.43667438546056
  N   1.91327231487297      4.20345941828152     -2.22913830715778
  C   5.90124444480653     -0.01347100642566     -3.80981490326118
  C   7.01534725540250     -0.30485657637502     -4.59519265021549
  C   8.04789640766503      0.63377276479654     -4.77112858958427
  C   7.93373156213167      1.87598420988419     -4.13191517176819
  C   6.81953568750331      2.18741180037598     -3.34388823490661
  C   5.81250845732176      1.23687688444526     -3.19103928633073
  H   5.11163511790162     -0.74801537051247     -3.66041611749047
  H   7.08761829531473     -1.28108030726547     -5.07791094427489
  H   8.72902832050734      2.61481729200812     -4.24491959306881
  H   6.73463563726929      3.15028370501874     -2.84296369491938
  S   4.34668760347420      1.63338460302619     -2.20957617344201
  O   3.28751482855839      1.98946432618396     -3.29750260012316
  O   4.66091843570753      2.81598647623470     -1.34783215872489
  O   3.93751942836247      0.37642788203512     -1.48588795532492
  C   9.24609223007912      0.29620889375295     -5.62547664332474
  H   9.74034255797935     -0.61888951733021     -5.26801850793213
  H   8.95075024720980      0.11807970506638     -6.67021421671907
  H   9.98734298772042      1.10590077480884     -5.61834978593051
  H   -2.22856811945321     -0.53261180597085     -2.74732450783613
