31
Coordinates from ORCA-job Ph-N2-OTs-B3LYPG-aug-cc-pVDZ-scan-d09-49-n400
  C   2.04200333333867      0.49187824879997     -2.01122836640211
  C   1.88354376809715      1.22667926613232     -3.30119899925161
  C   0.45059663085963      1.59283713364112     -3.53254288003268
  C   -0.51253997790635      1.66819140250064     -2.46638205771381
  C   -0.19123232924826      1.16394856834685     -1.24357705567169
  C   1.08861584033256      0.51620217675031     -1.04985599650380
  H   2.98778871265561     -0.02533452492580     -1.85506389661344
  H   2.30732211311687      0.68746022376192     -4.15310724484676
  H   -1.48410338532951      2.11935809777311     -2.66496470988638
  H   -0.90782511515181      1.20850808504143     -0.42505441877096
  N   0.08021683641948      1.91127715782104     -4.75997711909570
  N   -0.23627610569770      2.18235063143548     -5.81726925136384
  C   5.40217703065977      0.83375869398275     -5.03430277144390
  C   6.53311278564967      0.04222856315244     -4.82656117449307
  C   7.42348495218495      0.30844915179757     -3.77360305958889
  C   7.15735802385854      1.39972844720564     -2.93035385162964
  C   6.03342128301705      2.20656204597028     -3.12097343164749
  C   5.16323738960626      1.90552160778634     -4.17086563171685
  H   4.71991414969368      0.64356907788273     -5.86015669654086
  H   6.72950537276957     -0.79075267194036     -5.50337111731691
  H   7.84569673448611      1.62624261358875     -2.11529624412385
  H   5.84195419513400      3.05972448464416     -2.47265577056820
  S   3.70371184200285      2.93073830699528     -4.42245862274825
  O   3.06015933640420      2.51321715767568     -5.69590094202827
  O   4.04488863335405      4.34204677132758     -4.15665383923818
  O   2.71909997725128      2.49654096526673     -3.16350116388651
  C   8.63392948118768     -0.56803206911454     -3.56061843716381
  H   8.33572468966835     -1.58352938250125     -3.26090572994569
  H   9.22216347116513     -0.66162231767652     -4.48442554933821
  H   9.28771759511803     -0.16503102524506     -2.77695058669370
  H   1.27403273530243      0.00818311212342     -0.10222338373496
