19
Coordinates from ORCA-job Ph-N2-HSO4-B3LYPG-aug-cc-pVDZ-scan-d09-49-n400
  C   -0.60482410681626      0.45287912068383     -0.41680080357672
  C   0.78209561821652      0.68078983269354     -0.61673100649134
  C   1.40948234838602      0.17096366830021      0.48307360614125
  C   1.11959754555858     -0.41765552909797      1.56554811457424
  C   -0.26327372848833     -0.64464936625771      1.76733286436260
  C   -1.10416388596706     -0.18674929031245      0.73493694845769
  H   -1.29468273839286      0.79146061557976     -1.19179409689261
  H   1.20141560998052      1.16921234643982     -1.49128014081869
  N   3.13090175809742      2.41625710865626     -3.51759790990418
  N   4.05069344666545      2.77312880829650     -4.01307213853442
  H   -2.18185239979214     -0.33198508912004      0.82629236263388
  H   -0.66665390051137     -1.13918204070615      2.65090656276537
  H   2.88170026690185     -0.69746666112019      2.30879278856236
  S   4.73517104165672      0.21609355670779      1.67337722499765
  O   3.84442580821594     -0.79376927381843      2.57237462160129
  O   6.13006403418615     -0.21002138341538      1.82771707997758
  O   4.09619702071699      0.42466461499238      0.36155466439588
  O   4.53764950140186      1.65528011182921      2.45894534042743
  H   5.15775675998412      1.66214884966898      3.20792391732077
