19
Coordinates from ORCA-job Ph-N2-HSO4-B3LYPG-aug-cc-pVDZ-scan-d09-49-n400
  C   -0.92945300862765      0.12799165117196     -0.64200943632297
  C   0.24364002888774      0.75938702467341     -1.12968998918709
  C   1.16476471538721      0.70634872123689     -0.14206669017161
  C   1.35515541416488      0.28104628285310      1.08472477270935
  C   0.13457660317151     -0.33749789681118      1.50581122183745
  C   -0.97250597000865     -0.40496523406359      0.65339190683075
  H   -1.79173410994784      0.07456398245313     -1.30740779245725
  H   0.34063698769276      1.19164379928949     -2.11972871729313
  N   2.98907701591301      1.89652166433231     -1.00686499204316
  N   3.81128054045066      2.48936022652834     -1.44116164348811
  H   -1.88624730389556     -0.88600335201634      1.00119557251957
  H   0.11105100773954     -0.76476909046912      2.50913763523265
  H   2.32826756793425      0.29952391247910      1.75548861722164
  S   4.78296699882891      0.04874853535757      1.66150961980671
  O   3.55810815038160      0.26720052032506      2.57495219689129
  O   5.85001764359776     -0.73647266302854      2.32734862730809
  O   4.36058894813584     -0.31383918368097      0.27888848507106
  O   5.41731766135165      1.60063079097179      1.46979354719820
  H   6.09419110884244      1.69198030839754      2.15818705833659
