19
Coordinates from ORCA-job Ph-N2-HSO4-B3LYPG-aug-cc-pVDZ-scan-d09-49-n400
  C   -0.37949971950338     -0.12402302786867     -0.74258033296793
  C   0.47145539960669      0.84882420057206     -1.17969186324927
  C   1.47485160739698      1.31577394592770     -0.27738331613938
  C   1.81288044353308      0.68608577418356      1.01052693202222
  C   0.71705524661481     -0.20940398474248      1.45743189650464
  C   -0.26673476294670     -0.61247625798834      0.61237536102858
  H   -1.16002373151969     -0.50702031779563     -1.39709497610531
  H   0.39806977396265      1.28084292830063     -2.17644504304345
  N   2.29088604337114      2.42157983522820     -0.67736067837476
  N   2.94582373550941      3.29170747707985     -0.97984161136073
  H   -1.01970447658321     -1.31379021419195      0.97478518905514
  H   0.77132056105768     -0.57024153114761      2.48274540721146
  H   2.15132331344422      1.38588392659975      1.77813129871329
  S   4.20827780631284     -0.28918714263965      1.92429947625308
  O   3.56694375889661     -0.17315586049943      3.24293287759438
  O   5.14125885091243     -1.37016720736824      1.57033948926734
  O   3.09766814704274     -0.21754451245545      0.74747475921504
  O   5.01143283059317      1.15618370218612      1.72794721231630
  H   5.72841517229856      0.99152826661956      1.09290792205936
