19
Coordinates from ORCA-job Ph-N2-HSO4-B3LYPG-aug-cc-pVDZ-scan-d09-49-n400
  C   -0.37073497927683     -0.10887921594311     -0.73532159779540
  C   0.48475267234813      0.84696870934182     -1.18555717082049
  C   1.51547516341111      1.33403339772790     -0.30352315851586
  C   1.83911420943298      0.68113698746486      0.99758758246304
  C   0.73475584312206     -0.20343627176354      1.45743632622092
  C   -0.25971744967788     -0.59414166488637      0.62507111258020
  H   -1.15889421879666     -0.48889792027154     -1.38287944434968
  H   0.40858938557878      1.26739062034691     -2.18755426640393
  N   2.26386369381489      2.35937370164821     -0.66927159811630
  N   2.91895696731253      3.23935676714092     -0.97172828365490
  H   -1.02097884738255     -1.28312091207897      0.99357428184742
  H   0.79573649172658     -0.56244449088313      2.48313401683130
  H   2.16420666718200      1.39435096114328      1.76045684670293
  S   4.20230746335244     -0.29836567306585      1.92250205257500
  O   3.55097906302549     -0.23328509873514      3.23836354023127
  O   5.14280401915773     -1.35757886981332      1.53053045641743
  O   3.09260012032977     -0.20731921358228      0.73581656185914
  O   4.97977819176554      1.16222637466609      1.77437968003109
  H   5.67810554357390      1.04403181154324      1.10848306189682
