19
Coordinates from ORCA-job Ph-N2-HSO4-B3LYPG-aug-cc-pVDZ-scan-d09-49-n400
  C   -1.12314872240551      0.30994968601407     -0.46571472739484
  C   0.08060859133273      0.78658388657348     -1.04867896922492
  C   1.07797493010007      0.52403736631055     -0.15067545500297
  C   1.19400991053908     -0.00548706935881      0.98907852003253
  C   0.00306630685159     -0.48258420217895      1.58321716656027
  C   -1.15506842432373     -0.30045618415883      0.80197875793914
  H   -2.04796699270636      0.42874989390708     -1.03319085172774
  H   0.14122539413191      1.26079043801309     -2.02337780872540
  N   3.44405651477312      1.99568373441771     -2.27942431828991
  N   4.37464821773516      2.50865482415798     -2.57861459278028
  H   -2.11352023378828     -0.64677701666034      1.19226369960416
  H   -0.03676658566845     -0.95969853148344      2.56190380376287
  H   2.91201804659567     -0.22426569121028      1.84729966907340
  S   5.05747122240930      0.10998700429342      1.70003454664213
  O   3.70363427513472     -0.43456335332922      2.41666017324051
  O   6.17029928470191     -0.48054315426157      2.45477297897617
  O   4.92644210622559      0.03169199369389      0.24071236184407
  O   4.99959556773504      1.72786370578069      2.04241686537934
  H   5.35312059062653      1.84178266947940      2.94083818009151
