Coordinates from ORCA-job p-CH3O-Ph-N2-OTs-B3LYPG-aug-cc-pVDZ-scan-d09-49-n400
 OpenBabel07022015293D

 35 34  0  0  0  0  0  0  0  0999 V2000
   -0.2737    0.2221   -3.0135 C   0  0  0  0  0  0  0  0  0  0  0  0
    0.4908    1.3504   -2.7078 C   0  0  0  0  0  0  0  0  0  0  0  0
    0.0587    2.1830   -1.8678 C   0  0  0  0  0  0  0  0  0  0  0  0
   -1.0741    2.2832   -1.1042 C   0  0  0  0  0  0  0  0  0  0  0  0
   -1.8907    1.1583   -1.3761 C   0  0  0  0  0  0  0  0  0  0  0  0
   -1.5023    0.1581   -2.3030 C   0  0  0  0  0  0  0  0  0  0  0  0
   -0.0090   -0.5645   -3.7183 H   0  0  0  0  0  0  0  0  0  0  0  0
    2.3013    1.7321   -3.6433 H   0  0  0  0  0  0  0  0  0  0  0  0
   -1.3438    3.0665   -0.4016 H   0  0  0  0  0  0  0  0  0  0  0  0
   -2.8381    1.0836   -0.8471 H   0  0  0  0  0  0  0  0  0  0  0  0
    1.2514    4.8656   -0.7665 N   0  0  0  0  0  0  0  0  0  0  0  0
    2.0562    5.6206   -0.7423 N   0  0  0  0  0  0  0  0  0  0  0  0
    5.9736    0.7986   -2.8836 C   0  0  0  0  0  0  0  0  0  0  0  0
    7.1051   -0.0039   -3.0498 C   0  0  0  0  0  0  0  0  0  0  0  0
    7.9282    0.1247   -4.1793 C   0  0  0  0  0  0  0  0  0  0  0  0
    7.5919    1.0842   -5.1491 C   0  0  0  0  0  0  0  0  0  0  0  0
    6.4667    1.8964   -5.0042 C   0  0  0  0  0  0  0  0  0  0  0  0
    5.6688    1.7381   -3.8688 C   0  0  0  0  0  0  0  0  0  0  0  0
    5.3427    0.7056   -2.0015 H   0  0  0  0  0  0  0  0  0  0  0  0
    7.3539   -0.7376   -2.2818 H   0  0  0  0  0  0  0  0  0  0  0  0
    8.2252    1.2012   -6.0299 H   0  0  0  0  0  0  0  0  0  0  0  0
    6.2105    2.6469   -5.7494 H   0  0  0  0  0  0  0  0  0  0  0  0
    4.2152    2.7775   -3.6736 S   0  0  0  0  0  0  0  0  0  0  0  0
    3.9194    2.9708   -2.2317 O   0  0  0  0  0  0  0  0  0  0  0  0
    3.0483    1.7734   -4.2869 O   0  0  0  0  0  0  0  0  0  0  0  0
    4.3344    3.9356   -4.5845 O   0  0  0  0  0  0  0  0  0  0  0  0
    9.1583   -0.7330   -4.3497 C   0  0  0  0  0  0  0  0  0  0  0  0
   10.0725   -0.1262   -4.2713 H   0  0  0  0  0  0  0  0  0  0  0  0
    9.2089   -1.5216   -3.5886 H   0  0  0  0  0  0  0  0  0  0  0  0
    9.1718   -1.2126   -5.3385 H   0  0  0  0  0  0  0  0  0  0  0  0
   -2.2665   -0.9376   -2.5898 O   0  0  0  0  0  0  0  0  0  0  0  0
   -3.5291   -1.0845   -1.9483 C   0  0  0  0  0  0  0  0  0  0  0  0
   -3.9592   -2.0051   -2.3532 H   0  0  0  0  0  0  0  0  0  0  0  0
   -4.1934   -0.2370   -2.1780 H   0  0  0  0  0  0  0  0  0  0  0  0
   -3.4136   -1.1813   -0.8574 H   0  0  0  0  0  0  0  0  0  0  0  0
  1  2  2  0  0  0  0
  1  6  1  0  0  0  0
  2  3  1  0  0  0  0
  3  4  2  0  0  0  0
  4  9  1  0  0  0  0
  5  4  1  0  0  0  0
  5 10  1  0  0  0  0
  6  5  2  0  0  0  0
  7  1  1  0  0  0  0
 11 12  3  0  0  0  0
 13 19  1  0  0  0  0
 14 13  1  0  0  0  0
 14 20  1  0  0  0  0
 15 14  2  0  0  0  0
 16 17  2  0  0  0  0
 16 15  1  0  0  0  0
 17 18  1  0  0  0  0
 18 23  1  0  0  0  0
 18 13  2  0  0  0  0
 21 16  1  0  0  0  0
 22 17  1  0  0  0  0
 23 24  2  0  0  0  0
 25 23  1  0  0  0  0
 25  8  1  0  0  0  0
 26 23  2  0  0  0  0
 27 28  1  0  0  0  0
 27 15  1  0  0  0  0
 27 29  1  0  0  0  0
 30 27  1  0  0  0  0
 31  6  1  0  0  0  0
 31 32  1  0  0  0  0
 32 35  1  0  0  0  0
 33 32  1  0  0  0  0
 34 32  1  0  0  0  0
M  RAD  2   2   2   3   2
M  END
