Coordinates from ORCA-job p-CH3O-Ph-N2-OTs-B3LYPG-aug-cc-pVDZ-scan-d09-49-n400
 OpenBabel07022015293D

 35 34  0  0  0  0  0  0  0  0999 V2000
   -0.2955    0.1262   -3.0424 C   0  0  0  0  0  0  0  0  0  0  0  0
    0.4908    1.2392   -2.7435 C   0  0  0  0  0  0  0  0  0  0  0  0
    0.0944    2.0889   -1.9047 C   0  0  0  0  0  0  0  0  0  0  0  0
   -1.0323    2.2161   -1.1334 C   0  0  0  0  0  0  0  0  0  0  0  0
   -1.8755    1.1085   -1.3944 C   0  0  0  0  0  0  0  0  0  0  0  0
   -1.5187    0.0951   -2.3199 C   0  0  0  0  0  0  0  0  0  0  0  0
   -0.0547   -0.6675   -3.7475 H   0  0  0  0  0  0  0  0  0  0  0  0
    2.3246    1.7348   -3.6825 H   0  0  0  0  0  0  0  0  0  0  0  0
   -1.2805    3.0077   -0.4318 H   0  0  0  0  0  0  0  0  0  0  0  0
   -2.8201    1.0554   -0.8578 H   0  0  0  0  0  0  0  0  0  0  0  0
    1.3743    5.1284   -0.6278 N   0  0  0  0  0  0  0  0  0  0  0  0
    2.1825    5.8801   -0.6149 N   0  0  0  0  0  0  0  0  0  0  0  0
    5.9642    0.8253   -2.8814 C   0  0  0  0  0  0  0  0  0  0  0  0
    7.0900    0.0129   -3.0404 C   0  0  0  0  0  0  0  0  0  0  0  0
    7.9140    0.1254   -4.1708 C   0  0  0  0  0  0  0  0  0  0  0  0
    7.5848    1.0791   -5.1490 C   0  0  0  0  0  0  0  0  0  0  0  0
    6.4661    1.9011   -5.0111 C   0  0  0  0  0  0  0  0  0  0  0  0
    5.6667    1.7589   -3.8744 C   0  0  0  0  0  0  0  0  0  0  0  0
    5.3328    0.7447   -1.9984 H   0  0  0  0  0  0  0  0  0  0  0  0
    7.3336   -0.7156   -2.2659 H   0  0  0  0  0  0  0  0  0  0  0  0
    8.2188    1.1842   -6.0307 H   0  0  0  0  0  0  0  0  0  0  0  0
    6.2170    2.6480   -5.7622 H   0  0  0  0  0  0  0  0  0  0  0  0
    4.2203    2.8113   -3.6919 S   0  0  0  0  0  0  0  0  0  0  0  0
    3.8995    2.9857   -2.2530 O   0  0  0  0  0  0  0  0  0  0  0  0
    3.0463    1.8389   -4.3445 O   0  0  0  0  0  0  0  0  0  0  0  0
    4.3691    3.9776   -4.5867 O   0  0  0  0  0  0  0  0  0  0  0  0
    9.1378   -0.7426   -4.3340 C   0  0  0  0  0  0  0  0  0  0  0  0
   10.0563   -0.1412   -4.2645 H   0  0  0  0  0  0  0  0  0  0  0  0
    9.1849   -1.5230   -3.5642 H   0  0  0  0  0  0  0  0  0  0  0  0
    9.1458   -1.2334   -5.3174 H   0  0  0  0  0  0  0  0  0  0  0  0
   -2.3110   -0.9839   -2.5945 O   0  0  0  0  0  0  0  0  0  0  0  0
   -3.5717   -1.0975   -1.9424 C   0  0  0  0  0  0  0  0  0  0  0  0
   -4.0272   -2.0092   -2.3396 H   0  0  0  0  0  0  0  0  0  0  0  0
   -4.2174   -0.2355   -2.1706 H   0  0  0  0  0  0  0  0  0  0  0  0
   -3.4498   -1.1923   -0.8520 H   0  0  0  0  0  0  0  0  0  0  0  0
  1  2  2  0  0  0  0
  1  6  1  0  0  0  0
  2  3  1  0  0  0  0
  3  4  2  0  0  0  0
  4  9  1  0  0  0  0
  5  4  1  0  0  0  0
  5 10  1  0  0  0  0
  6  5  2  0  0  0  0
  7  1  1  0  0  0  0
 11 12  3  0  0  0  0
 13 19  1  0  0  0  0
 14 13  1  0  0  0  0
 14 20  1  0  0  0  0
 15 14  2  0  0  0  0
 16 17  2  0  0  0  0
 16 15  1  0  0  0  0
 17 18  1  0  0  0  0
 18 23  1  0  0  0  0
 18 13  2  0  0  0  0
 21 16  1  0  0  0  0
 22 17  1  0  0  0  0
 23 24  2  0  0  0  0
 25 23  1  0  0  0  0
 25  8  1  0  0  0  0
 26 23  2  0  0  0  0
 27 28  1  0  0  0  0
 27 15  1  0  0  0  0
 27 29  1  0  0  0  0
 30 27  1  0  0  0  0
 31  6  1  0  0  0  0
 31 32  1  0  0  0  0
 32 35  1  0  0  0  0
 33 32  1  0  0  0  0
 34 32  1  0  0  0  0
M  RAD  2   2   2   3   2
M  END
