Coordinates from ORCA-job p-CH3O-Ph-N2-OTs-B3LYPG-aug-cc-pVDZ-scan-d09-49-n400
 OpenBabel07022015293D

 35 34  0  0  0  0  0  0  0  0999 V2000
   -0.2900    0.1548   -3.0357 C   0  0  0  0  0  0  0  0  0  0  0  0
    0.4902    1.2726   -2.7363 C   0  0  0  0  0  0  0  0  0  0  0  0
    0.0835    2.1181   -1.8978 C   0  0  0  0  0  0  0  0  0  0  0  0
   -1.0445    2.2385   -1.1280 C   0  0  0  0  0  0  0  0  0  0  0  0
   -1.8801    1.1254   -1.3909 C   0  0  0  0  0  0  0  0  0  0  0  0
   -1.5145    0.1149   -2.3160 C   0  0  0  0  0  0  0  0  0  0  0  0
   -0.0426   -0.6376   -3.7400 H   0  0  0  0  0  0  0  0  0  0  0  0
    2.3172    1.7288   -3.6729 H   0  0  0  0  0  0  0  0  0  0  0  0
   -1.2987    3.0283   -0.4266 H   0  0  0  0  0  0  0  0  0  0  0  0
   -2.8253    1.0666   -0.8559 H   0  0  0  0  0  0  0  0  0  0  0  0
    1.3265    5.0561   -0.6475 N   0  0  0  0  0  0  0  0  0  0  0  0
    2.1305    5.8121   -0.6236 N   0  0  0  0  0  0  0  0  0  0  0  0
    5.9695    0.8171   -2.8834 C   0  0  0  0  0  0  0  0  0  0  0  0
    7.0978    0.0088   -3.0434 C   0  0  0  0  0  0  0  0  0  0  0  0
    7.9212    0.1251   -4.1739 C   0  0  0  0  0  0  0  0  0  0  0  0
    7.5887    1.0786   -5.1511 C   0  0  0  0  0  0  0  0  0  0  0  0
    6.4671    1.8966   -5.0123 C   0  0  0  0  0  0  0  0  0  0  0  0
    5.6685    1.7505   -3.8756 C   0  0  0  0  0  0  0  0  0  0  0  0
    5.3383    0.7334   -2.0005 H   0  0  0  0  0  0  0  0  0  0  0  0
    7.3439   -0.7199   -2.2697 H   0  0  0  0  0  0  0  0  0  0  0  0
    8.2222    1.1865   -6.0328 H   0  0  0  0  0  0  0  0  0  0  0  0
    6.2147    2.6429   -5.7630 H   0  0  0  0  0  0  0  0  0  0  0  0
    4.2180    2.7967   -3.6913 S   0  0  0  0  0  0  0  0  0  0  0  0
    3.9049    2.9802   -2.2518 O   0  0  0  0  0  0  0  0  0  0  0  0
    3.0485    1.8093   -4.3285 O   0  0  0  0  0  0  0  0  0  0  0  0
    4.3550    3.9585   -4.5942 O   0  0  0  0  0  0  0  0  0  0  0  0
    9.1477   -0.7390   -4.3381 C   0  0  0  0  0  0  0  0  0  0  0  0
   10.0644   -0.1351   -4.2658 H   0  0  0  0  0  0  0  0  0  0  0  0
    9.1962   -1.5213   -3.5703 H   0  0  0  0  0  0  0  0  0  0  0  0
    9.1583   -1.2270   -5.3228 H   0  0  0  0  0  0  0  0  0  0  0  0
   -2.2988   -0.9693   -2.5927 O   0  0  0  0  0  0  0  0  0  0  0  0
   -3.5598   -1.0920   -1.9427 C   0  0  0  0  0  0  0  0  0  0  0  0
   -4.0082   -2.0067   -2.3410 H   0  0  0  0  0  0  0  0  0  0  0  0
   -4.2111   -0.2344   -2.1718 H   0  0  0  0  0  0  0  0  0  0  0  0
   -3.4391   -1.1862   -0.8521 H   0  0  0  0  0  0  0  0  0  0  0  0
  1  2  2  0  0  0  0
  1  6  1  0  0  0  0
  2  3  1  0  0  0  0
  3  4  2  0  0  0  0
  4  9  1  0  0  0  0
  5  4  1  0  0  0  0
  5 10  1  0  0  0  0
  6  5  2  0  0  0  0
  7  1  1  0  0  0  0
 11 12  3  0  0  0  0
 13 19  1  0  0  0  0
 14 13  1  0  0  0  0
 14 20  1  0  0  0  0
 15 14  2  0  0  0  0
 16 17  2  0  0  0  0
 16 15  1  0  0  0  0
 17 18  1  0  0  0  0
 18 23  1  0  0  0  0
 18 13  2  0  0  0  0
 21 16  1  0  0  0  0
 22 17  1  0  0  0  0
 23 24  2  0  0  0  0
 25 23  1  0  0  0  0
 25  8  1  0  0  0  0
 26 23  2  0  0  0  0
 27 28  1  0  0  0  0
 27 15  1  0  0  0  0
 27 29  1  0  0  0  0
 30 27  1  0  0  0  0
 31  6  1  0  0  0  0
 31 32  1  0  0  0  0
 32 35  1  0  0  0  0
 33 32  1  0  0  0  0
 34 32  1  0  0  0  0
M  RAD  2   2   2   3   2
M  END
