Coordinates from ORCA-job p-CH3O-Ph-N2-OTs-B3LYPG-aug-cc-pVDZ-scan-d09-49-n400
 OpenBabel07022015293D

 35 34  0  0  0  0  0  0  0  0999 V2000
   -0.1668   -1.1452   -2.8145 C   0  0  0  0  0  0  0  0  0  0  0  0
    0.9608   -0.3695   -2.7022 C   0  0  0  0  0  0  0  0  0  0  0  0
    1.1199    0.8205   -2.3358 C   0  0  0  0  0  0  0  0  0  0  0  0
    0.0738    1.6027   -1.8388 C   0  0  0  0  0  0  0  0  0  0  0  0
   -1.1639    0.9307   -1.8750 C   0  0  0  0  0  0  0  0  0  0  0  0
   -1.2890   -0.4030   -2.3445 C   0  0  0  0  0  0  0  0  0  0  0  0
   -0.2668   -2.1737   -3.1512 H   0  0  0  0  0  0  0  0  0  0  0  0
    2.3851    1.9448   -3.6240 H   0  0  0  0  0  0  0  0  0  0  0  0
    0.1625    2.6305   -1.4944 H   0  0  0  0  0  0  0  0  0  0  0  0
   -2.0475    1.4681   -1.5386 H   0  0  0  0  0  0  0  0  0  0  0  0
    1.2077    5.0511   -0.7497 N   0  0  0  0  0  0  0  0  0  0  0  0
    1.8350    5.9028   -0.4345 N   0  0  0  0  0  0  0  0  0  0  0  0
    5.7299    1.0435   -2.7453 C   0  0  0  0  0  0  0  0  0  0  0  0
    6.7718    0.1421   -2.9874 C   0  0  0  0  0  0  0  0  0  0  0  0
    7.5590    0.2357   -4.1441 C   0  0  0  0  0  0  0  0  0  0  0  0
    7.2819    1.2625   -5.0643 C   0  0  0  0  0  0  0  0  0  0  0  0
    6.2481    2.1713   -4.8447 C   0  0  0  0  0  0  0  0  0  0  0  0
    5.4817    2.0460   -3.6824 C   0  0  0  0  0  0  0  0  0  0  0  0
    5.1303    0.9830   -1.8392 H   0  0  0  0  0  0  0  0  0  0  0  0
    6.9781   -0.6401   -2.2556 H   0  0  0  0  0  0  0  0  0  0  0  0
    7.8907    1.3538   -5.9651 H   0  0  0  0  0  0  0  0  0  0  0  0
    6.0443    2.9753   -5.5494 H   0  0  0  0  0  0  0  0  0  0  0  0
    4.1394    3.2108   -3.4005 S   0  0  0  0  0  0  0  0  0  0  0  0
    3.7807    3.1964   -1.9608 O   0  0  0  0  0  0  0  0  0  0  0  0
    2.8812    2.5308   -4.2377 O   0  0  0  0  0  0  0  0  0  0  0  0
    4.4355    4.4660   -4.1180 O   0  0  0  0  0  0  0  0  0  0  0  0
    8.6908   -0.7286   -4.4022 C   0  0  0  0  0  0  0  0  0  0  0  0
    9.6567   -0.2033   -4.4253 H   0  0  0  0  0  0  0  0  0  0  0  0
    8.7444   -1.5063   -3.6300 H   0  0  0  0  0  0  0  0  0  0  0  0
    8.5700   -1.2264   -5.3752 H   0  0  0  0  0  0  0  0  0  0  0  0
   -2.4672   -1.0900   -2.3726 O   0  0  0  0  0  0  0  0  0  0  0  0
   -3.6412   -0.4670   -1.8547 C   0  0  0  0  0  0  0  0  0  0  0  0
   -4.4353   -1.2146   -1.9469 H   0  0  0  0  0  0  0  0  0  0  0  0
   -3.9088    0.4259   -2.4395 H   0  0  0  0  0  0  0  0  0  0  0  0
   -3.5128   -0.1948   -0.7964 H   0  0  0  0  0  0  0  0  0  0  0  0
  1  2  2  0  0  0  0
  1  6  1  0  0  0  0
  2  3  1  0  0  0  0
  3  4  2  0  0  0  0
  4  9  1  0  0  0  0
  5  4  1  0  0  0  0
  5 10  1  0  0  0  0
  6  5  2  0  0  0  0
  7  1  1  0  0  0  0
 11 12  3  0  0  0  0
 13 19  1  0  0  0  0
 14 13  1  0  0  0  0
 14 20  1  0  0  0  0
 15 14  2  0  0  0  0
 16 17  2  0  0  0  0
 16 15  1  0  0  0  0
 17 18  1  0  0  0  0
 18 23  1  0  0  0  0
 18 13  2  0  0  0  0
 21 16  1  0  0  0  0
 22 17  1  0  0  0  0
 23 24  2  0  0  0  0
 25  8  1  0  0  0  0
 25 23  1  0  0  0  0
 26 23  2  0  0  0  0
 27 15  1  0  0  0  0
 27 29  1  0  0  0  0
 28 27  1  0  0  0  0
 30 27  1  0  0  0  0
 31  6  1  0  0  0  0
 31 32  1  0  0  0  0
 32 35  1  0  0  0  0
 33 32  1  0  0  0  0
 34 32  1  0  0  0  0
M  RAD  2   2   2   3   2
M  END
