Coordinates from ORCA-job p-CH3O-Ph-N2-OTs-B3LYPG-aug-cc-pVDZ-scan-d09-49-n400
 OpenBabel07022015293D

 35 34  0  0  0  0  0  0  0  0999 V2000
   -0.1489   -0.1050   -2.9694 C   0  0  0  0  0  0  0  0  0  0  0  0
    0.6250    1.0280   -2.7346 C   0  0  0  0  0  0  0  0  0  0  0  0
    0.2174    1.9659   -2.0048 C   0  0  0  0  0  0  0  0  0  0  0  0
   -0.9532    2.1745   -1.3164 C   0  0  0  0  0  0  0  0  0  0  0  0
   -1.7951    1.0529   -1.5089 C   0  0  0  0  0  0  0  0  0  0  0  0
   -1.4066   -0.0522   -2.3093 C   0  0  0  0  0  0  0  0  0  0  0  0
    0.1163   -0.9637   -3.5832 H   0  0  0  0  0  0  0  0  0  0  0  0
    2.4211    1.9195   -3.6795 H   0  0  0  0  0  0  0  0  0  0  0  0
   -1.2287    3.0334   -0.7103 H   0  0  0  0  0  0  0  0  0  0  0  0
   -2.7657    1.0596   -1.0181 H   0  0  0  0  0  0  0  0  0  0  0  0
    1.3576    5.4988   -0.7534 N   0  0  0  0  0  0  0  0  0  0  0  0
    2.1472    6.2702   -0.7425 N   0  0  0  0  0  0  0  0  0  0  0  0
    5.8907    0.8531   -2.8336 C   0  0  0  0  0  0  0  0  0  0  0  0
    6.9486   -0.0354   -3.0518 C   0  0  0  0  0  0  0  0  0  0  0  0
    7.7637    0.0706   -4.1882 C   0  0  0  0  0  0  0  0  0  0  0  0
    7.4985    1.0969   -5.1119 C   0  0  0  0  0  0  0  0  0  0  0  0
    6.4502    1.9947   -4.9147 C   0  0  0  0  0  0  0  0  0  0  0  0
    5.6557    1.8565   -3.7733 C   0  0  0  0  0  0  0  0  0  0  0  0
    5.2705    0.7822   -1.9421 H   0  0  0  0  0  0  0  0  0  0  0  0
    7.1460   -0.8174   -2.3173 H   0  0  0  0  0  0  0  0  0  0  0  0
    8.1284    1.1981   -5.9969 H   0  0  0  0  0  0  0  0  0  0  0  0
    6.2555    2.7999   -5.6205 H   0  0  0  0  0  0  0  0  0  0  0  0
    4.2989    3.0106   -3.5196 S   0  0  0  0  0  0  0  0  0  0  0  0
    3.9312    3.0344   -2.0822 O   0  0  0  0  0  0  0  0  0  0  0  0
    3.0585    2.2729   -4.3369 O   0  0  0  0  0  0  0  0  0  0  0  0
    4.5904    4.2506   -4.2659 O   0  0  0  0  0  0  0  0  0  0  0  0
    8.9126   -0.8802   -4.4200 C   0  0  0  0  0  0  0  0  0  0  0  0
    9.8725   -0.3435   -4.4195 H   0  0  0  0  0  0  0  0  0  0  0  0
    8.9568   -1.6581   -3.6475 H   0  0  0  0  0  0  0  0  0  0  0  0
    8.8209   -1.3781   -5.3962 H   0  0  0  0  0  0  0  0  0  0  0  0
   -2.1993   -1.1464   -2.5146 O   0  0  0  0  0  0  0  0  0  0  0  0
   -3.4931   -1.1814   -1.9206 C   0  0  0  0  0  0  0  0  0  0  0  0
   -3.9411   -2.1253   -2.2445 H   0  0  0  0  0  0  0  0  0  0  0  0
   -4.1146   -0.3429   -2.2703 H   0  0  0  0  0  0  0  0  0  0  0  0
   -3.4277   -1.1620   -0.8216 H   0  0  0  0  0  0  0  0  0  0  0  0
  1  2  2  0  0  0  0
  1  6  1  0  0  0  0
  2  3  1  0  0  0  0
  3  4  2  0  0  0  0
  4  9  1  0  0  0  0
  5  4  1  0  0  0  0
  5 10  1  0  0  0  0
  6  5  2  0  0  0  0
  7  1  1  0  0  0  0
 11 12  3  0  0  0  0
 13 19  1  0  0  0  0
 14 13  1  0  0  0  0
 14 20  1  0  0  0  0
 15 14  2  0  0  0  0
 16 17  2  0  0  0  0
 16 15  1  0  0  0  0
 17 18  1  0  0  0  0
 18 23  1  0  0  0  0
 18 13  2  0  0  0  0
 21 16  1  0  0  0  0
 22 17  1  0  0  0  0
 23 24  2  0  0  0  0
 25  8  1  0  0  0  0
 25 23  1  0  0  0  0
 26 23  2  0  0  0  0
 27 28  1  0  0  0  0
 27 15  1  0  0  0  0
 27 29  1  0  0  0  0
 30 27  1  0  0  0  0
 31  6  1  0  0  0  0
 31 32  1  0  0  0  0
 32 35  1  0  0  0  0
 33 32  1  0  0  0  0
 34 32  1  0  0  0  0
M  RAD  2   2   2   3   2
M  END
