Coordinates from ORCA-job p-CH3O-Ph-N2-OTs-B3LYPG-aug-cc-pVDZ-scan-d09-49-n400
 OpenBabel07022015293D

 35 34  0  0  0  0  0  0  0  0999 V2000
   -0.1435   -0.0946   -2.9685 C   0  0  0  0  0  0  0  0  0  0  0  0
    0.6256    1.0415   -2.7328 C   0  0  0  0  0  0  0  0  0  0  0  0
    0.2128    1.9771   -2.0028 C   0  0  0  0  0  0  0  0  0  0  0  0
   -0.9589    2.1802   -1.3148 C   0  0  0  0  0  0  0  0  0  0  0  0
   -1.7958    1.0551   -1.5084 C   0  0  0  0  0  0  0  0  0  0  0  0
   -1.4020   -0.0478   -2.3092 C   0  0  0  0  0  0  0  0  0  0  0  0
    0.1258   -0.9519   -3.5825 H   0  0  0  0  0  0  0  0  0  0  0  0
    2.4218    1.9286   -3.6739 H   0  0  0  0  0  0  0  0  0  0  0  0
   -1.2383    3.0376   -0.7084 H   0  0  0  0  0  0  0  0  0  0  0  0
   -2.7667    1.0577   -1.0184 H   0  0  0  0  0  0  0  0  0  0  0  0
    1.3468    5.4849   -0.7692 N   0  0  0  0  0  0  0  0  0  0  0  0
    2.1325    6.2602   -0.7562 N   0  0  0  0  0  0  0  0  0  0  0  0
    5.8904    0.8527   -2.8317 C   0  0  0  0  0  0  0  0  0  0  0  0
    6.9461   -0.0379   -3.0518 C   0  0  0  0  0  0  0  0  0  0  0  0
    7.7601    0.0671   -4.1892 C   0  0  0  0  0  0  0  0  0  0  0  0
    7.4961    1.0948   -5.1117 C   0  0  0  0  0  0  0  0  0  0  0  0
    6.4502    1.9948   -4.9125 C   0  0  0  0  0  0  0  0  0  0  0  0
    5.6566    1.8575   -3.7703 C   0  0  0  0  0  0  0  0  0  0  0  0
    5.2712    0.7827   -1.9394 H   0  0  0  0  0  0  0  0  0  0  0  0
    7.1426   -0.8210   -2.3182 H   0  0  0  0  0  0  0  0  0  0  0  0
    8.1252    1.1953   -5.9974 H   0  0  0  0  0  0  0  0  0  0  0  0
    6.2565    2.8011   -5.6174 H   0  0  0  0  0  0  0  0  0  0  0  0
    4.3027    3.0143   -3.5140 S   0  0  0  0  0  0  0  0  0  0  0  0
    3.9361    3.0370   -2.0763 O   0  0  0  0  0  0  0  0  0  0  0  0
    3.0602    2.2803   -4.3314 O   0  0  0  0  0  0  0  0  0  0  0  0
    4.5965    4.2547   -4.2588 O   0  0  0  0  0  0  0  0  0  0  0  0
    8.9065   -0.8862   -4.4232 C   0  0  0  0  0  0  0  0  0  0  0  0
    9.8675   -0.3517   -4.4248 H   0  0  0  0  0  0  0  0  0  0  0  0
    8.9506   -1.6642   -3.6507 H   0  0  0  0  0  0  0  0  0  0  0  0
    8.8116   -1.3841   -5.3991 H   0  0  0  0  0  0  0  0  0  0  0  0
   -2.1897   -1.1454   -2.5158 O   0  0  0  0  0  0  0  0  0  0  0  0
   -3.4833   -1.1869   -1.9217 C   0  0  0  0  0  0  0  0  0  0  0  0
   -3.9267   -2.1328   -2.2461 H   0  0  0  0  0  0  0  0  0  0  0  0
   -4.1088   -0.3511   -2.2709 H   0  0  0  0  0  0  0  0  0  0  0  0
   -3.4179   -1.1678   -0.8227 H   0  0  0  0  0  0  0  0  0  0  0  0
  1  2  2  0  0  0  0
  1  6  1  0  0  0  0
  2  3  1  0  0  0  0
  3  4  2  0  0  0  0
  4  9  1  0  0  0  0
  5  4  1  0  0  0  0
  5 10  1  0  0  0  0
  6  5  2  0  0  0  0
  7  1  1  0  0  0  0
 11 12  3  0  0  0  0
 13 19  1  0  0  0  0
 14 13  1  0  0  0  0
 14 20  1  0  0  0  0
 15 14  2  0  0  0  0
 16 17  2  0  0  0  0
 16 15  1  0  0  0  0
 17 18  1  0  0  0  0
 18 23  1  0  0  0  0
 18 13  2  0  0  0  0
 21 16  1  0  0  0  0
 22 17  1  0  0  0  0
 23 24  2  0  0  0  0
 25  8  1  0  0  0  0
 25 23  1  0  0  0  0
 26 23  2  0  0  0  0
 27 15  1  0  0  0  0
 27 29  1  0  0  0  0
 28 27  1  0  0  0  0
 30 27  1  0  0  0  0
 31  6  1  0  0  0  0
 31 32  1  0  0  0  0
 32 35  1  0  0  0  0
 33 32  1  0  0  0  0
 34 32  1  0  0  0  0
M  RAD  2   2   2   3   2
M  END
