Coordinates from ORCA-job p-CH3O-Ph-N2-OTs-B3LYPG-aug-cc-pVDZ-scan-d09-49-n400
 OpenBabel07022015293D

 35 36  0  0  1  0  0  0  0  0999 V2000
    1.3190    0.6710   -2.7645 C   0  0  0  0  0  0  0  0  0  0  0  0
    1.3409    1.8283   -3.6910 C   0  0  1  0  0  0  0  0  0  0  0  0
    0.0011    2.5740   -3.7466 C   0  0  0  0  0  0  0  0  0  0  0  0
   -0.9059    2.4398   -2.6016 C   0  0  0  0  0  0  0  0  0  0  0  0
   -0.7138    1.4907   -1.6576 C   0  0  0  0  0  0  0  0  0  0  0  0
    0.3940    0.5509   -1.7798 C   0  0  0  0  0  0  0  0  0  0  0  0
    2.1215   -0.0606   -2.8398 H   0  0  0  0  0  0  0  0  0  0  0  0
    1.6395    1.5540   -4.7080 H   0  0  0  0  0  0  0  0  0  0  0  0
   -1.7452    3.1334   -2.5506 H   0  0  0  0  0  0  0  0  0  0  0  0
   -1.4006    1.4215   -0.8188 H   0  0  0  0  0  0  0  0  0  0  0  0
   -0.2262    3.2172   -4.5973 N   0  0  0  0  0  0  0  0  0  0  0  0
   -0.4606    3.8971   -5.5032 N   0  0  0  0  0  0  0  0  0  0  0  0
    5.0523    0.9775   -4.9746 C   0  0  0  0  0  0  0  0  0  0  0  0
    5.9841   -0.0395   -4.7546 C   0  0  0  0  0  0  0  0  0  0  0  0
    6.6638   -0.1531   -3.5314 C   0  0  0  0  0  0  0  0  0  0  0  0
    6.3962    0.7935   -2.5277 C   0  0  0  0  0  0  0  0  0  0  0  0
    5.4735    1.8206   -2.7274 C   0  0  0  0  0  0  0  0  0  0  0  0
    4.8061    1.8946   -3.9517 C   0  0  0  0  0  0  0  0  0  0  0  0
    4.5369    1.0735   -5.9280 H   0  0  0  0  0  0  0  0  0  0  0  0
    6.1897   -0.7536   -5.5537 H   0  0  0  0  0  0  0  0  0  0  0  0
    6.9234    0.7338   -1.5747 H   0  0  0  0  0  0  0  0  0  0  0  0
    5.2811    2.5605   -1.9522 H   0  0  0  0  0  0  0  0  0  0  0  0
    3.6253    3.2264   -4.2206 S   0  0  0  0  0  0  0  0  0  0  0  0
    2.3647    2.8201   -3.2106 O   0  0  0  0  0  0  0  0  0  0  0  0
    3.1529    3.1539   -5.6260 O   0  0  0  0  0  0  0  0  0  0  0  0
    4.1556    4.4755   -3.6413 O   0  0  0  0  0  0  0  0  0  0  0  0
    7.6484   -1.2737   -3.3008 C   0  0  0  0  0  0  0  0  0  0  0  0
    7.1221   -2.2158   -3.0843 H   0  0  0  0  0  0  0  0  0  0  0  0
    8.2721   -1.4462   -4.1883 H   0  0  0  0  0  0  0  0  0  0  0  0
    8.3072   -1.0567   -2.4509 H   0  0  0  0  0  0  0  0  0  0  0  0
    0.5416   -0.4884   -0.9042 O   0  0  0  0  0  0  0  0  0  0  0  0
   -0.5503   -0.8591   -0.0624 C   0  0  0  0  0  0  0  0  0  0  0  0
   -0.2379   -1.7860    0.4280 H   0  0  0  0  0  0  0  0  0  0  0  0
   -1.4620   -1.0470   -0.6481 H   0  0  0  0  0  0  0  0  0  0  0  0
   -0.7501   -0.0962    0.7043 H   0  0  0  0  0  0  0  0  0  0  0  0
  1  6  1  0  0  0  0
  2  8  1  6  0  0  0
  2 24  1  0  0  0  0
  2  1  1  0  0  0  0
  3  2  1  0  0  0  0
  3  4  2  0  0  0  0
  4  9  1  0  0  0  0
  4  5  1  0  0  0  0
  5 10  1  0  0  0  0
  6  5  2  0  0  0  0
  6 31  1  0  0  0  0
  7  1  1  0  0  0  0
 11  3  1  0  0  0  0
 12 11  1  0  0  0  0
 13 14  2  0  0  0  0
 13 18  1  0  0  0  0
 14 15  1  0  0  0  0
 15 27  1  0  0  0  0
 15 16  2  0  0  0  0
 16 21  1  0  0  0  0
 17 16  1  0  0  0  0
 17 22  1  0  0  0  0
 18 17  2  0  0  0  0
 19 13  1  0  0  0  0
 20 14  1  0  0  0  0
 23 18  1  0  0  0  0
 23 26  2  0  0  0  0
 23 24  1  0  0  0  0
 25 23  2  0  0  0  0
 27 28  1  0  0  0  0
 27 30  1  0  0  0  0
 29 27  1  0  0  0  0
 31 32  1  0  0  0  0
 32 33  1  0  0  0  0
 32 35  1  0  0  0  0
 34 32  1  0  0  0  0
M  RAD  3   1   2  11   2  12   3
M  END
