Coordinates from ORCA-job p-CH3O-Ph-N2-OTs-B3LYPG-aug-cc-pVDZ-scan-d09-49-n400
 OpenBabel07022015293D

 35 35  0  0  0  0  0  0  0  0999 V2000
   -0.6307    0.0384   -2.4420 C   0  0  0  0  0  0  0  0  0  0  0  0
    0.4497    0.8946   -2.6046 C   0  0  0  0  0  0  0  0  0  0  0  0
    0.2372    2.2225   -2.2308 C   0  0  0  0  0  0  0  0  0  0  0  0
   -0.9439    2.7315   -1.7060 C   0  0  0  0  0  0  0  0  0  0  0  0
   -2.0146    1.8529   -1.5543 C   0  0  0  0  0  0  0  0  0  0  0  0
   -1.8579    0.5019   -1.9231 C   0  0  0  0  0  0  0  0  0  0  0  0
   -0.5351   -1.0131   -2.7071 H   0  0  0  0  0  0  0  0  0  0  0  0
    1.4084    0.5301   -2.9790 H   0  0  0  0  0  0  0  0  0  0  0  0
   -1.0282    3.7789   -1.4255 H   0  0  0  0  0  0  0  0  0  0  0  0
   -2.9501    2.2253   -1.1481 H   0  0  0  0  0  0  0  0  0  0  0  0
    1.3918    3.2320   -2.3861 N   0  0  0  0  0  0  0  0  0  0  0  0
    2.4031    3.5855   -2.7324 N   0  0  0  0  0  0  0  0  0  0  0  0
    6.1109   -0.2244   -4.3297 C   0  0  0  0  0  0  0  0  0  0  0  0
    7.4332   -0.2981   -4.7811 C   0  0  0  0  0  0  0  0  0  0  0  0
    8.3522    0.7255   -4.5129 C   0  0  0  0  0  0  0  0  0  0  0  0
    7.9122    1.8391   -3.7749 C   0  0  0  0  0  0  0  0  0  0  0  0
    6.5985    1.9289   -3.3172 C   0  0  0  0  0  0  0  0  0  0  0  0
    5.7059    0.8904   -3.5990 C   0  0  0  0  0  0  0  0  0  0  0  0
    5.3972   -1.0212   -4.5312 H   0  0  0  0  0  0  0  0  0  0  0  0
    7.7554   -1.1714   -5.3505 H   0  0  0  0  0  0  0  0  0  0  0  0
    8.6120    2.6472   -3.5525 H   0  0  0  0  0  0  0  0  0  0  0  0
    6.2668    2.7888   -2.7377 H   0  0  0  0  0  0  0  0  0  0  0  0
    3.9973    1.0162   -3.0206 S   0  0  0  0  0  0  0  0  0  0  0  0
    4.0287    1.5354   -1.6094 O   0  0  0  0  0  0  0  0  0  0  0  0
    3.3699   -0.3401   -3.2009 O   0  0  0  0  0  0  0  0  0  0  0  0
    3.3263    2.0520   -3.9614 O   0  0  0  0  0  0  0  0  0  0  0  0
    9.7840    0.6363   -4.9848 C   0  0  0  0  0  0  0  0  0  0  0  0
   10.4730    0.5120   -4.1357 H   0  0  0  0  0  0  0  0  0  0  0  0
    9.9290   -0.2153   -5.6617 H   0  0  0  0  0  0  0  0  0  0  0  0
   10.0866    1.5501   -5.5163 H   0  0  0  0  0  0  0  0  0  0  0  0
   -2.8286   -0.4307   -1.8100 O   0  0  0  0  0  0  0  0  0  0  0  0
   -4.0998   -0.0480   -1.2776 C   0  0  0  0  0  0  0  0  0  0  0  0
   -4.6985   -0.9629   -1.2638 H   0  0  0  0  0  0  0  0  0  0  0  0
   -4.5841    0.7028   -1.9189 H   0  0  0  0  0  0  0  0  0  0  0  0
   -3.9976    0.3389   -0.2534 H   0  0  0  0  0  0  0  0  0  0  0  0
  1  6  1  0  0  0  0
  2  1  2  0  0  0  0
  2  3  1  0  0  0  0
  3  4  2  0  0  0  0
  4  5  1  0  0  0  0
  4  9  1  0  0  0  0
  5 10  1  0  0  0  0
  6 31  1  0  0  0  0
  6  5  2  0  0  0  0
  7  1  1  0  0  0  0
  8  2  1  0  0  0  0
 11  3  1  0  0  0  0
 12 11  1  0  0  0  0
 13 18  2  0  0  0  0
 14 15  2  0  0  0  0
 14 13  1  0  0  0  0
 15 16  1  0  0  0  0
 16 21  1  0  0  0  0
 16 17  2  0  0  0  0
 17 22  1  0  0  0  0
 18 17  1  0  0  0  0
 18 23  1  0  0  0  0
 19 13  1  0  0  0  0
 20 14  1  0  0  0  0
 23 24  1  0  0  0  0
 25 23  2  0  0  0  0
 26 23  2  0  0  0  0
 27 15  1  0  0  0  0
 27 28  1  0  0  0  0
 29 27  1  0  0  0  0
 30 27  1  0  0  0  0
 31 32  1  0  0  0  0
 32 33  1  0  0  0  0
 32 35  1  0  0  0  0
 34 32  1  0  0  0  0
M  RAD  3  11   2  12   3  24   2
M  END
