Coordinates from ORCA-job p-CH3O-Ph-N2-OTs-B3LYPG-aug-cc-pVDZ-scan-d09-49-n400
 OpenBabel07022015293D

 35 34  0  0  0  0  0  0  0  0999 V2000
   -0.2396    0.2904   -2.9527 C   0  0  0  0  0  0  0  0  0  0  0  0
    0.5026    1.4353   -2.6444 C   0  0  0  0  0  0  0  0  0  0  0  0
    0.0221    2.2619   -1.8224 C   0  0  0  0  0  0  0  0  0  0  0  0
   -1.1306    2.3488   -1.0905 C   0  0  0  0  0  0  0  0  0  0  0  0
   -1.9191    1.2070   -1.3708 C   0  0  0  0  0  0  0  0  0  0  0  0
   -1.4855    0.2063   -2.2768 C   0  0  0  0  0  0  0  0  0  0  0  0
    0.0591   -0.4986   -3.6414 H   0  0  0  0  0  0  0  0  0  0  0  0
    2.2842    1.7293   -3.5810 H   0  0  0  0  0  0  0  0  0  0  0  0
   -1.4312    3.1349   -0.4037 H   0  0  0  0  0  0  0  0  0  0  0  0
   -2.8786    1.1212   -0.8658 H   0  0  0  0  0  0  0  0  0  0  0  0
    1.1713    4.6468   -0.9269 N   0  0  0  0  0  0  0  0  0  0  0  0
    2.0002    5.3757   -0.9287 N   0  0  0  0  0  0  0  0  0  0  0  0
    5.9851    0.7700   -2.8799 C   0  0  0  0  0  0  0  0  0  0  0  0
    7.1203   -0.0230   -3.0625 C   0  0  0  0  0  0  0  0  0  0  0  0
    7.9370    0.1261   -4.1943 C   0  0  0  0  0  0  0  0  0  0  0  0
    7.5897    1.0960   -5.1497 C   0  0  0  0  0  0  0  0  0  0  0  0
    6.4597    1.8987   -4.9885 C   0  0  0  0  0  0  0  0  0  0  0  0
    5.6689    1.7203   -3.8513 C   0  0  0  0  0  0  0  0  0  0  0  0
    5.3594    0.6620   -1.9959 H   0  0  0  0  0  0  0  0  0  0  0  0
    7.3772   -0.7653   -2.3056 H   0  0  0  0  0  0  0  0  0  0  0  0
    8.2179    1.2281   -6.0319 H   0  0  0  0  0  0  0  0  0  0  0  0
    6.1945    2.6567   -5.7229 H   0  0  0  0  0  0  0  0  0  0  0  0
    4.2123    2.7495   -3.6299 S   0  0  0  0  0  0  0  0  0  0  0  0
    3.9455    2.9465   -2.1825 O   0  0  0  0  0  0  0  0  0  0  0  0
    3.0451    1.7309   -4.2134 O   0  0  0  0  0  0  0  0  0  0  0  0
    4.3051    3.9087   -4.5432 O   0  0  0  0  0  0  0  0  0  0  0  0
    9.1720   -0.7211   -4.3810 C   0  0  0  0  0  0  0  0  0  0  0  0
   10.0828   -0.1113   -4.2866 H   0  0  0  0  0  0  0  0  0  0  0  0
    9.2248   -1.5260   -3.6373 H   0  0  0  0  0  0  0  0  0  0  0  0
    9.1907   -1.1783   -5.3802 H   0  0  0  0  0  0  0  0  0  0  0  0
   -2.2190   -0.9071   -2.5743 O   0  0  0  0  0  0  0  0  0  0  0  0
   -3.4943   -1.0754   -1.9643 C   0  0  0  0  0  0  0  0  0  0  0  0
   -3.8945   -2.0080   -2.3723 H   0  0  0  0  0  0  0  0  0  0  0  0
   -4.1701   -0.2441   -2.2181 H   0  0  0  0  0  0  0  0  0  0  0  0
   -3.4048   -1.1611   -0.8700 H   0  0  0  0  0  0  0  0  0  0  0  0
  1  2  2  0  0  0  0
  1  6  1  0  0  0  0
  2  3  1  0  0  0  0
  3  4  2  0  0  0  0
  4  9  1  0  0  0  0
  5  4  1  0  0  0  0
  5 10  1  0  0  0  0
  6  5  2  0  0  0  0
  7  1  1  0  0  0  0
 12 11  3  0  0  0  0
 13 19  1  0  0  0  0
 14 13  1  0  0  0  0
 14 20  1  0  0  0  0
 15 14  2  0  0  0  0
 16 17  2  0  0  0  0
 16 15  1  0  0  0  0
 17 18  1  0  0  0  0
 18 23  1  0  0  0  0
 18 13  2  0  0  0  0
 21 16  1  0  0  0  0
 22 17  1  0  0  0  0
 23 24  2  0  0  0  0
 25 23  1  0  0  0  0
 25  8  1  0  0  0  0
 26 23  2  0  0  0  0
 27 28  1  0  0  0  0
 27 15  1  0  0  0  0
 27 29  1  0  0  0  0
 30 27  1  0  0  0  0
 31  6  1  0  0  0  0
 31 32  1  0  0  0  0
 32 35  1  0  0  0  0
 33 32  1  0  0  0  0
 34 32  1  0  0  0  0
M  RAD  2   2   2   3   2
M  END
