Coordinates from ORCA-job p-CH3O-Ph-N2-OTs-B3LYPG-aug-cc-pVDZ-scan-d09-49-n400
 OpenBabel07022015293D

 35 34  0  0  0  0  0  0  0  0999 V2000
   -0.1378   -0.9943   -2.7489 C   0  0  0  0  0  0  0  0  0  0  0  0
    0.9110   -0.1139   -2.6223 C   0  0  0  0  0  0  0  0  0  0  0  0
    0.9363    1.0829   -2.2470 C   0  0  0  0  0  0  0  0  0  0  0  0
   -0.1863    1.7700   -1.7852 C   0  0  0  0  0  0  0  0  0  0  0  0
   -1.3506    0.9779   -1.8392 C   0  0  0  0  0  0  0  0  0  0  0  0
   -1.3351   -0.3638   -2.3039 C   0  0  0  0  0  0  0  0  0  0  0  0
   -0.1350   -2.0247   -3.0947 H   0  0  0  0  0  0  0  0  0  0  0  0
    2.4362    2.0347   -3.5636 H   0  0  0  0  0  0  0  0  0  0  0  0
   -0.2025    2.8021   -1.4436 H   0  0  0  0  0  0  0  0  0  0  0  0
   -2.2888    1.4259   -1.5204 H   0  0  0  0  0  0  0  0  0  0  0  0
    1.2597    5.0273   -0.8166 N   0  0  0  0  0  0  0  0  0  0  0  0
    1.9059    5.8539   -0.4741 N   0  0  0  0  0  0  0  0  0  0  0  0
    5.8085    1.0312   -2.7544 C   0  0  0  0  0  0  0  0  0  0  0  0
    6.8325    0.1140   -3.0123 C   0  0  0  0  0  0  0  0  0  0  0  0
    7.6062    0.1983   -4.1789 C   0  0  0  0  0  0  0  0  0  0  0  0
    7.3341    1.2324   -5.0924 C   0  0  0  0  0  0  0  0  0  0  0  0
    6.3184    2.1574   -4.8568 C   0  0  0  0  0  0  0  0  0  0  0  0
    5.5648    2.0407   -3.6852 C   0  0  0  0  0  0  0  0  0  0  0  0
    5.2209    0.9783   -1.8400 H   0  0  0  0  0  0  0  0  0  0  0  0
    7.0356   -0.6736   -2.2855 H   0  0  0  0  0  0  0  0  0  0  0  0
    7.9325    1.3164   -6.0007 H   0  0  0  0  0  0  0  0  0  0  0  0
    6.1190    2.9673   -5.5560 H   0  0  0  0  0  0  0  0  0  0  0  0
    4.2476    3.2278   -3.3799 S   0  0  0  0  0  0  0  0  0  0  0  0
    3.9108    3.2182   -1.9349 O   0  0  0  0  0  0  0  0  0  0  0  0
    2.9638    2.5670   -4.1965 O   0  0  0  0  0  0  0  0  0  0  0  0
    4.5545    4.4777   -4.1019 O   0  0  0  0  0  0  0  0  0  0  0  0
    8.7187   -0.7834   -4.4546 C   0  0  0  0  0  0  0  0  0  0  0  0
    9.6920   -0.2731   -4.4934 H   0  0  0  0  0  0  0  0  0  0  0  0
    8.7726   -1.5617   -3.6830 H   0  0  0  0  0  0  0  0  0  0  0  0
    8.5747   -1.2797   -5.4253 H   0  0  0  0  0  0  0  0  0  0  0  0
   -2.4417   -1.1611   -2.3550 O   0  0  0  0  0  0  0  0  0  0  0  0
   -3.6847   -0.6438   -1.8849 C   0  0  0  0  0  0  0  0  0  0  0  0
   -4.4040   -1.4620   -1.9916 H   0  0  0  0  0  0  0  0  0  0  0  0
   -4.0123    0.2147   -2.4904 H   0  0  0  0  0  0  0  0  0  0  0  0
   -3.6171   -0.3492   -0.8270 H   0  0  0  0  0  0  0  0  0  0  0  0
  1  2  2  0  0  0  0
  1  6  1  0  0  0  0
  2  3  1  0  0  0  0
  3  4  2  0  0  0  0
  4  9  1  0  0  0  0
  5  4  1  0  0  0  0
  5 10  1  0  0  0  0
  6  5  2  0  0  0  0
  7  1  1  0  0  0  0
 11 12  3  0  0  0  0
 13 19  1  0  0  0  0
 14 13  1  0  0  0  0
 14 20  1  0  0  0  0
 15 14  2  0  0  0  0
 16 17  2  0  0  0  0
 16 15  1  0  0  0  0
 17 18  1  0  0  0  0
 18 23  1  0  0  0  0
 18 13  2  0  0  0  0
 21 16  1  0  0  0  0
 22 17  1  0  0  0  0
 23 24  2  0  0  0  0
 25  8  1  0  0  0  0
 25 23  1  0  0  0  0
 26 23  2  0  0  0  0
 27 15  1  0  0  0  0
 27 29  1  0  0  0  0
 28 27  1  0  0  0  0
 30 27  1  0  0  0  0
 31  6  1  0  0  0  0
 31 32  1  0  0  0  0
 32 35  1  0  0  0  0
 33 32  1  0  0  0  0
 34 32  1  0  0  0  0
M  RAD  2   2   2   3   2
M  END
