Coordinates from ORCA-job p-CH3O-Ph-N2-OTs-B3LYPG-aug-cc-pVDZ-scan-d09-49-n400
 OpenBabel07022015293D

 35 34  0  0  0  0  0  0  0  0999 V2000
   -0.0890   -0.8703   -2.7057 C   0  0  0  0  0  0  0  0  0  0  0  0
    0.8998    0.0765   -2.5631 C   0  0  0  0  0  0  0  0  0  0  0  0
    0.8309    1.2688   -2.1800 C   0  0  0  0  0  0  0  0  0  0  0  0
   -0.3399    1.8822   -1.7395 C   0  0  0  0  0  0  0  0  0  0  0  0
   -1.4468    1.0128   -1.8124 C   0  0  0  0  0  0  0  0  0  0  0  0
   -1.3326   -0.3234   -2.2791 C   0  0  0  0  0  0  0  0  0  0  0  0
   -0.0136   -1.8958   -3.0578 H   0  0  0  0  0  0  0  0  0  0  0  0
    2.4487    2.1215   -3.5251 H   0  0  0  0  0  0  0  0  0  0  0  0
   -0.4291    2.9089   -1.3942 H   0  0  0  0  0  0  0  0  0  0  0  0
   -2.4172    1.3960   -1.5062 H   0  0  0  0  0  0  0  0  0  0  0  0
    1.2615    4.9411   -0.8554 N   0  0  0  0  0  0  0  0  0  0  0  0
    1.9395    5.7791   -0.6185 N   0  0  0  0  0  0  0  0  0  0  0  0
    5.8331    1.0156   -2.7580 C   0  0  0  0  0  0  0  0  0  0  0  0
    6.8429    0.0862   -3.0275 C   0  0  0  0  0  0  0  0  0  0  0  0
    7.6118    0.1680   -4.1974 C   0  0  0  0  0  0  0  0  0  0  0  0
    7.3494    1.2118   -5.1026 C   0  0  0  0  0  0  0  0  0  0  0  0
    6.3481    2.1494   -4.8551 C   0  0  0  0  0  0  0  0  0  0  0  0
    5.5992    2.0350   -3.6805 C   0  0  0  0  0  0  0  0  0  0  0  0
    5.2511    0.9655   -1.8398 H   0  0  0  0  0  0  0  0  0  0  0  0
    7.0393   -0.7089   -2.3069 H   0  0  0  0  0  0  0  0  0  0  0  0
    7.9442    1.2938   -6.0134 H   0  0  0  0  0  0  0  0  0  0  0  0
    6.1571    2.9676   -5.5470 H   0  0  0  0  0  0  0  0  0  0  0  0
    4.3060    3.2428   -3.3560 S   0  0  0  0  0  0  0  0  0  0  0  0
    3.9783    3.2270   -1.9091 O   0  0  0  0  0  0  0  0  0  0  0  0
    3.0034    2.6111   -4.1674 O   0  0  0  0  0  0  0  0  0  0  0  0
    4.6323    4.4924   -4.0701 O   0  0  0  0  0  0  0  0  0  0  0  0
    8.7097   -0.8266   -4.4853 C   0  0  0  0  0  0  0  0  0  0  0  0
    9.6882   -0.3273   -4.5365 H   0  0  0  0  0  0  0  0  0  0  0  0
    8.7641   -1.6049   -3.7139 H   0  0  0  0  0  0  0  0  0  0  0  0
    8.5484   -1.3221   -5.4538 H   0  0  0  0  0  0  0  0  0  0  0  0
   -2.3829   -1.1928   -2.3510 O   0  0  0  0  0  0  0  0  0  0  0  0
   -3.6676   -0.7557   -1.9133 C   0  0  0  0  0  0  0  0  0  0  0  0
   -4.3311   -1.6178   -2.0347 H   0  0  0  0  0  0  0  0  0  0  0  0
   -4.0328    0.0801   -2.5290 H   0  0  0  0  0  0  0  0  0  0  0  0
   -3.6442   -0.4557   -0.8550 H   0  0  0  0  0  0  0  0  0  0  0  0
  1  2  2  0  0  0  0
  1  6  1  0  0  0  0
  2  3  1  0  0  0  0
  3  4  2  0  0  0  0
  4  9  1  0  0  0  0
  5  4  1  0  0  0  0
  5 10  1  0  0  0  0
  6  5  2  0  0  0  0
  7  1  1  0  0  0  0
 11 12  3  0  0  0  0
 13 19  1  0  0  0  0
 14 13  1  0  0  0  0
 14 20  1  0  0  0  0
 15 14  2  0  0  0  0
 16 17  2  0  0  0  0
 16 15  1  0  0  0  0
 17 18  1  0  0  0  0
 18 23  1  0  0  0  0
 18 13  2  0  0  0  0
 21 16  1  0  0  0  0
 22 17  1  0  0  0  0
 23 24  2  0  0  0  0
 25  8  1  0  0  0  0
 25 23  1  0  0  0  0
 26 23  2  0  0  0  0
 27 15  1  0  0  0  0
 27 29  1  0  0  0  0
 28 27  1  0  0  0  0
 30 27  1  0  0  0  0
 31  6  1  0  0  0  0
 31 32  1  0  0  0  0
 32 35  1  0  0  0  0
 33 32  1  0  0  0  0
 34 32  1  0  0  0  0
M  RAD  2   2   2   3   2
M  END
