Coordinates from ORCA-job p-CH3O-Ph-N2-OTs-B3LYPG-aug-cc-pVDZ-scan-d09-49-n400
 OpenBabel07022015293D

 35 35  0  0  0  0  0  0  0  0999 V2000
   -0.6016    0.0542   -2.4217 C   0  0  0  0  0  0  0  0  0  0  0  0
    0.4731    0.9279   -2.5628 C   0  0  0  0  0  0  0  0  0  0  0  0
    0.2027    2.2364   -2.2032 C   0  0  0  0  0  0  0  0  0  0  0  0
   -0.9804    2.7521   -1.7158 C   0  0  0  0  0  0  0  0  0  0  0  0
   -2.0405    1.8504   -1.5870 C   0  0  0  0  0  0  0  0  0  0  0  0
   -1.8493    0.5006   -1.9398 C   0  0  0  0  0  0  0  0  0  0  0  0
   -0.4784   -0.9971   -2.6763 H   0  0  0  0  0  0  0  0  0  0  0  0
    1.4476    0.5788   -2.9098 H   0  0  0  0  0  0  0  0  0  0  0  0
   -1.0838    3.8000   -1.4467 H   0  0  0  0  0  0  0  0  0  0  0  0
   -2.9931    2.2104   -1.2099 H   0  0  0  0  0  0  0  0  0  0  0  0
    1.4383    3.3552   -2.3329 N   0  0  0  0  0  0  0  0  0  0  0  0
    2.4686    3.6266   -2.6948 N   0  0  0  0  0  0  0  0  0  0  0  0
    6.0965   -0.2336   -4.2953 C   0  0  0  0  0  0  0  0  0  0  0  0
    7.4061   -0.3087   -4.7829 C   0  0  0  0  0  0  0  0  0  0  0  0
    8.3322    0.7152   -4.5422 C   0  0  0  0  0  0  0  0  0  0  0  0
    7.9131    1.8304   -3.7946 C   0  0  0  0  0  0  0  0  0  0  0  0
    6.6128    1.9217   -3.3006 C   0  0  0  0  0  0  0  0  0  0  0  0
    5.7128    0.8830   -3.5558 C   0  0  0  0  0  0  0  0  0  0  0  0
    5.3778   -1.0312   -4.4756 H   0  0  0  0  0  0  0  0  0  0  0  0
    7.7123   -1.1837   -5.3585 H   0  0  0  0  0  0  0  0  0  0  0  0
    8.6192    2.6385   -3.5928 H   0  0  0  0  0  0  0  0  0  0  0  0
    6.2973    2.7817   -2.7125 H   0  0  0  0  0  0  0  0  0  0  0  0
    4.0237    1.0142   -2.9239 S   0  0  0  0  0  0  0  0  0  0  0  0
    4.0996    1.5656   -1.5289 O   0  0  0  0  0  0  0  0  0  0  0  0
    3.3922   -0.3450   -3.0608 O   0  0  0  0  0  0  0  0  0  0  0  0
    3.3163    2.0260   -3.8693 O   0  0  0  0  0  0  0  0  0  0  0  0
    9.7503    0.6252   -5.0536 C   0  0  0  0  0  0  0  0  0  0  0  0
   10.4637    0.5177   -4.2224 H   0  0  0  0  0  0  0  0  0  0  0  0
    9.8806   -0.2362   -5.7208 H   0  0  0  0  0  0  0  0  0  0  0  0
   10.0327    1.5319   -5.6080 H   0  0  0  0  0  0  0  0  0  0  0  0
   -2.8076   -0.4503   -1.8444 O   0  0  0  0  0  0  0  0  0  0  0  0
   -4.0950   -0.0843   -1.3429 C   0  0  0  0  0  0  0  0  0  0  0  0
   -4.6795   -1.0084   -1.3328 H   0  0  0  0  0  0  0  0  0  0  0  0
   -4.5787    0.6530   -2.0006 H   0  0  0  0  0  0  0  0  0  0  0  0
   -4.0210    0.3137   -0.3202 H   0  0  0  0  0  0  0  0  0  0  0  0
  1  6  1  0  0  0  0
  2  1  2  0  0  0  0
  2  3  1  0  0  0  0
  3  4  2  0  0  0  0
  4  5  1  0  0  0  0
  4  9  1  0  0  0  0
  5 10  1  0  0  0  0
  6 31  1  0  0  0  0
  6  5  2  0  0  0  0
  7  1  1  0  0  0  0
  8  2  1  0  0  0  0
 11  3  1  0  0  0  0
 12 11  2  0  0  0  0
 13 18  2  0  0  0  0
 14 15  2  0  0  0  0
 14 13  1  0  0  0  0
 15 16  1  0  0  0  0
 16 21  1  0  0  0  0
 16 17  2  0  0  0  0
 17 22  1  0  0  0  0
 18 17  1  0  0  0  0
 18 23  1  0  0  0  0
 19 13  1  0  0  0  0
 20 14  1  0  0  0  0
 23 24  1  0  0  0  0
 25 23  2  0  0  0  0
 26 23  2  0  0  0  0
 27 15  1  0  0  0  0
 27 28  1  0  0  0  0
 29 27  1  0  0  0  0
 30 27  1  0  0  0  0
 31 32  1  0  0  0  0
 32 33  1  0  0  0  0
 32 35  1  0  0  0  0
 34 32  1  0  0  0  0
M  RAD  2  12   2  24   2
M  END
