Coordinates from ORCA-job p-CH3O-Ph-N2-OTs-B3LYPG-aug-cc-pVDZ-scan-d09-49-n400
 OpenBabel07022015293D

 35 36  0  0  1  0  0  0  0  0999 V2000
    1.3178    0.6700   -2.7641 C   0  0  0  0  0  0  0  0  0  0  0  0
    1.3420    1.8278   -3.6901 C   0  0  1  0  0  0  0  0  0  0  0  0
    0.0001    2.5783   -3.7506 C   0  0  0  0  0  0  0  0  0  0  0  0
   -0.9030    2.4449   -2.5980 C   0  0  0  0  0  0  0  0  0  0  0  0
   -0.7112    1.4954   -1.6554 C   0  0  0  0  0  0  0  0  0  0  0  0
    0.3933    0.5514   -1.7793 C   0  0  0  0  0  0  0  0  0  0  0  0
    2.1186   -0.0634   -2.8406 H   0  0  0  0  0  0  0  0  0  0  0  0
    1.6379    1.5526   -4.7079 H   0  0  0  0  0  0  0  0  0  0  0  0
   -1.7390    3.1424   -2.5450 H   0  0  0  0  0  0  0  0  0  0  0  0
   -1.3957    1.4292   -0.8143 H   0  0  0  0  0  0  0  0  0  0  0  0
   -0.2243    3.2055   -4.5885 N   0  0  0  0  0  0  0  0  0  0  0  0
   -0.4616    3.8825   -5.4988 N   0  0  0  0  0  0  0  0  0  0  0  0
    5.0508    0.9751   -4.9735 C   0  0  0  0  0  0  0  0  0  0  0  0
    5.9834   -0.0410   -4.7536 C   0  0  0  0  0  0  0  0  0  0  0  0
    6.6657   -0.1521   -3.5316 C   0  0  0  0  0  0  0  0  0  0  0  0
    6.3997    0.7960   -2.5289 C   0  0  0  0  0  0  0  0  0  0  0  0
    5.4761    1.8224   -2.7285 C   0  0  0  0  0  0  0  0  0  0  0  0
    4.8062    1.8939   -3.9516 C   0  0  0  0  0  0  0  0  0  0  0  0
    4.5335    1.0693   -5.9261 H   0  0  0  0  0  0  0  0  0  0  0  0
    6.1878   -0.7562   -5.5521 H   0  0  0  0  0  0  0  0  0  0  0  0
    6.9288    0.7381   -1.5769 H   0  0  0  0  0  0  0  0  0  0  0  0
    5.2849    2.5636   -1.9543 H   0  0  0  0  0  0  0  0  0  0  0  0
    3.6249    3.2249   -4.2214 S   0  0  0  0  0  0  0  0  0  0  0  0
    2.3634    2.8175   -3.2108 O   0  0  0  0  0  0  0  0  0  0  0  0
    3.1526    3.1516   -5.6265 O   0  0  0  0  0  0  0  0  0  0  0  0
    4.1532    4.4742   -3.6410 O   0  0  0  0  0  0  0  0  0  0  0  0
    7.6520   -1.2714   -3.3020 C   0  0  0  0  0  0  0  0  0  0  0  0
    7.1270   -2.2167   -3.0961 H   0  0  0  0  0  0  0  0  0  0  0  0
    8.2824   -1.4357   -4.1864 H   0  0  0  0  0  0  0  0  0  0  0  0
    8.3043   -1.0585   -2.4461 H   0  0  0  0  0  0  0  0  0  0  0  0
    0.5380   -0.4884   -0.9040 O   0  0  0  0  0  0  0  0  0  0  0  0
   -0.5570   -0.8597   -0.0661 C   0  0  0  0  0  0  0  0  0  0  0  0
   -0.2477   -1.7888    0.4222 H   0  0  0  0  0  0  0  0  0  0  0  0
   -1.4674   -1.0438   -0.6549 H   0  0  0  0  0  0  0  0  0  0  0  0
   -0.7572   -0.0988    0.7025 H   0  0  0  0  0  0  0  0  0  0  0  0
  1  6  1  0  0  0  0
  2  8  1  6  0  0  0
  2 24  1  0  0  0  0
  2  1  1  0  0  0  0
  3  2  1  0  0  0  0
  3  4  2  0  0  0  0
  4  9  1  0  0  0  0
  4  5  1  0  0  0  0
  5 10  1  0  0  0  0
  6  5  2  0  0  0  0
  6 31  1  0  0  0  0
  7  1  1  0  0  0  0
 11  3  1  0  0  0  0
 12 11  1  0  0  0  0
 13 14  2  0  0  0  0
 13 18  1  0  0  0  0
 14 15  1  0  0  0  0
 15 27  1  0  0  0  0
 15 16  2  0  0  0  0
 16 21  1  0  0  0  0
 17 16  1  0  0  0  0
 17 22  1  0  0  0  0
 18 17  2  0  0  0  0
 19 13  1  0  0  0  0
 20 14  1  0  0  0  0
 23 18  1  0  0  0  0
 23 26  2  0  0  0  0
 23 24  1  0  0  0  0
 25 23  2  0  0  0  0
 27 28  1  0  0  0  0
 27 30  1  0  0  0  0
 29 27  1  0  0  0  0
 31 32  1  0  0  0  0
 32 33  1  0  0  0  0
 32 35  1  0  0  0  0
 34 32  1  0  0  0  0
M  RAD  3   1   2  11   2  12   3
M  END
