Coordinates from ORCA-job p-CH3O-Ph-N2-OTs-B3LYPG-aug-cc-pVDZ-scan-d09-49-n400
 OpenBabel07022015293D

 35 34  0  0  0  0  0  0  0  0999 V2000
   -0.1190   -0.0348   -2.9697 C   0  0  0  0  0  0  0  0  0  0  0  0
    0.6258    1.1164   -2.7271 C   0  0  0  0  0  0  0  0  0  0  0  0
    0.1890    2.0372   -1.9920 C   0  0  0  0  0  0  0  0  0  0  0  0
   -0.9855    2.2094   -1.3013 C   0  0  0  0  0  0  0  0  0  0  0  0
   -1.7973    1.0672   -1.5028 C   0  0  0  0  0  0  0  0  0  0  0  0
   -1.3784   -0.0211   -2.3108 C   0  0  0  0  0  0  0  0  0  0  0  0
    0.1697   -0.8826   -3.5881 H   0  0  0  0  0  0  0  0  0  0  0  0
    2.4309    1.9786   -3.6434 H   0  0  0  0  0  0  0  0  0  0  0  0
   -1.2837    3.0564   -0.6894 H   0  0  0  0  0  0  0  0  0  0  0  0
   -2.7684    1.0464   -1.0135 H   0  0  0  0  0  0  0  0  0  0  0  0
    1.2583    5.3991   -0.8537 N   0  0  0  0  0  0  0  0  0  0  0  0
    2.0148    6.2026   -0.8281 N   0  0  0  0  0  0  0  0  0  0  0  0
    5.8953    0.8529   -2.8198 C   0  0  0  0  0  0  0  0  0  0  0  0
    6.9377   -0.0506   -3.0506 C   0  0  0  0  0  0  0  0  0  0  0  0
    7.7432    0.0464   -4.1947 C   0  0  0  0  0  0  0  0  0  0  0  0
    7.4849    1.0798   -5.1125 C   0  0  0  0  0  0  0  0  0  0  0  0
    6.4523    1.9926   -4.9026 C   0  0  0  0  0  0  0  0  0  0  0  0
    5.6665    1.8627   -3.7541 C   0  0  0  0  0  0  0  0  0  0  0  0
    5.2830    0.7891   -1.9223 H   0  0  0  0  0  0  0  0  0  0  0  0
    7.1303   -0.8378   -2.3204 H   0  0  0  0  0  0  0  0  0  0  0  0
    8.1076    1.1741   -6.0034 H   0  0  0  0  0  0  0  0  0  0  0  0
    6.2632    2.8030   -5.6040 H   0  0  0  0  0  0  0  0  0  0  0  0
    4.3288    3.0353   -3.4843 S   0  0  0  0  0  0  0  0  0  0  0  0
    3.9688    3.0534   -2.0448 O   0  0  0  0  0  0  0  0  0  0  0  0
    3.0740    2.3222   -4.3010 O   0  0  0  0  0  0  0  0  0  0  0  0
    4.6352    4.2768   -4.2223 O   0  0  0  0  0  0  0  0  0  0  0  0
    8.8746   -0.9215   -4.4413 C   0  0  0  0  0  0  0  0  0  0  0  0
    9.8421   -0.3991   -4.4568 H   0  0  0  0  0  0  0  0  0  0  0  0
    8.9191   -1.6983   -3.6677 H   0  0  0  0  0  0  0  0  0  0  0  0
    8.7607   -1.4205   -5.4146 H   0  0  0  0  0  0  0  0  0  0  0  0
   -2.1409   -1.1349   -2.5248 O   0  0  0  0  0  0  0  0  0  0  0  0
   -3.4309   -1.2124   -1.9267 C   0  0  0  0  0  0  0  0  0  0  0  0
   -3.8512   -2.1671   -2.2558 H   0  0  0  0  0  0  0  0  0  0  0  0
   -4.0782   -0.3903   -2.2682 H   0  0  0  0  0  0  0  0  0  0  0  0
   -3.3621   -1.1987   -0.8277 H   0  0  0  0  0  0  0  0  0  0  0  0
  1  2  2  0  0  0  0
  1  6  1  0  0  0  0
  2  3  1  0  0  0  0
  3  4  2  0  0  0  0
  4  9  1  0  0  0  0
  5  4  1  0  0  0  0
  5 10  1  0  0  0  0
  6  5  2  0  0  0  0
  7  1  1  0  0  0  0
 11 12  3  0  0  0  0
 13 19  1  0  0  0  0
 14 13  1  0  0  0  0
 14 20  1  0  0  0  0
 15 14  2  0  0  0  0
 16 17  2  0  0  0  0
 16 15  1  0  0  0  0
 17 18  1  0  0  0  0
 18 23  1  0  0  0  0
 18 13  2  0  0  0  0
 21 16  1  0  0  0  0
 22 17  1  0  0  0  0
 23 24  2  0  0  0  0
 25  8  1  0  0  0  0
 25 23  1  0  0  0  0
 26 23  2  0  0  0  0
 27 15  1  0  0  0  0
 27 29  1  0  0  0  0
 28 27  1  0  0  0  0
 30 27  1  0  0  0  0
 31  6  1  0  0  0  0
 31 32  1  0  0  0  0
 32 35  1  0  0  0  0
 33 32  1  0  0  0  0
 34 32  1  0  0  0  0
M  RAD  2   2   2   3   2
M  END
