Coordinates from ORCA-job p-CH3O-Ph-N2-OTs-B3LYPG-aug-cc-pVDZ-scan-d09-49-n400
 OpenBabel07022015293D

 35 35  0  0  0  0  0  0  0  0999 V2000
   -0.5525   -0.0231   -2.5812 C   0  0  0  0  0  0  0  0  0  0  0  0
    0.5583    0.8165   -2.7250 C   0  0  0  0  0  0  0  0  0  0  0  0
    0.3739    2.0219   -2.1170 C   0  0  0  0  0  0  0  0  0  0  0  0
   -0.6693    2.5453   -1.4043 C   0  0  0  0  0  0  0  0  0  0  0  0
   -1.7592    1.6663   -1.2818 C   0  0  0  0  0  0  0  0  0  0  0  0
   -1.6972    0.3877   -1.8683 C   0  0  0  0  0  0  0  0  0  0  0  0
   -0.5339   -1.0150   -3.0298 H   0  0  0  0  0  0  0  0  0  0  0  0
    1.4590    0.5243   -3.2857 H   0  0  0  0  0  0  0  0  0  0  0  0
   -0.6754    3.5406   -0.9702 H   0  0  0  0  0  0  0  0  0  0  0  0
   -2.6311    2.0036   -0.7287 H   0  0  0  0  0  0  0  0  0  0  0  0
    1.7789    3.2521   -2.2530 N   0  0  0  0  0  0  0  0  0  0  0  0
    2.1149    4.3063   -2.1758 N   0  0  0  0  0  0  0  0  0  0  0  0
    5.9263   -0.0763   -4.6218 C   0  0  0  0  0  0  0  0  0  0  0  0
    7.2995   -0.3358   -4.7022 C   0  0  0  0  0  0  0  0  0  0  0  0
    8.2453    0.5948   -4.2512 C   0  0  0  0  0  0  0  0  0  0  0  0
    7.7809    1.8109   -3.7187 C   0  0  0  0  0  0  0  0  0  0  0  0
    6.4176    2.0881   -3.6359 C   0  0  0  0  0  0  0  0  0  0  0  0
    5.4986    1.1369   -4.0889 C   0  0  0  0  0  0  0  0  0  0  0  0
    5.1928   -0.8017   -4.9686 H   0  0  0  0  0  0  0  0  0  0  0  0
    7.6391   -1.2819   -5.1263 H   0  0  0  0  0  0  0  0  0  0  0  0
    8.4982    2.5551   -3.3668 H   0  0  0  0  0  0  0  0  0  0  0  0
    6.0659    3.0344   -3.2286 H   0  0  0  0  0  0  0  0  0  0  0  0
    3.7334    1.5228   -3.9947 S   0  0  0  0  0  0  0  0  0  0  0  0
    3.4800    1.7618   -2.4894 O   0  0  0  0  0  0  0  0  0  0  0  0
    2.9912    0.2961   -4.4766 O   0  0  0  0  0  0  0  0  0  0  0  0
    3.4895    2.7689   -4.7931 O   0  0  0  0  0  0  0  0  0  0  0  0
    9.7249    0.2992   -4.3163 C   0  0  0  0  0  0  0  0  0  0  0  0
   10.1287    0.0827   -3.3155 H   0  0  0  0  0  0  0  0  0  0  0  0
    9.9292   -0.5697   -4.9549 H   0  0  0  0  0  0  0  0  0  0  0  0
   10.2873    1.1557   -4.7145 H   0  0  0  0  0  0  0  0  0  0  0  0
   -2.6974   -0.5242   -1.8039 O   0  0  0  0  0  0  0  0  0  0  0  0
   -3.8997   -0.1784   -1.1144 C   0  0  0  0  0  0  0  0  0  0  0  0
   -4.5502   -1.0534   -1.2004 H   0  0  0  0  0  0  0  0  0  0  0  0
   -4.3857    0.6894   -1.5840 H   0  0  0  0  0  0  0  0  0  0  0  0
   -3.7016    0.0297   -0.0525 H   0  0  0  0  0  0  0  0  0  0  0  0
  1  6  1  0  0  0  0
  2  1  2  0  0  0  0
  2  3  1  0  0  0  0
  3  4  2  0  0  0  0
  4  5  1  0  0  0  0
  4  9  1  0  0  0  0
  5 10  1  0  0  0  0
  6 31  1  0  0  0  0
  6  5  2  0  0  0  0
  7  1  1  0  0  0  0
  8  2  1  0  0  0  0
 11 12  2  0  0  0  0
 11  3  1  0  0  0  0
 13 18  1  0  0  0  0
 14 13  2  0  0  0  0
 14 15  1  0  0  0  0
 15 16  2  0  0  0  0
 16 17  1  0  0  0  0
 16 21  1  0  0  0  0
 17 22  1  0  0  0  0
 18 23  1  0  0  0  0
 18 17  2  0  0  0  0
 19 13  1  0  0  0  0
 20 14  1  0  0  0  0
 23 24  1  0  0  0  0
 25 23  2  0  0  0  0
 26 23  2  0  0  0  0
 27 15  1  0  0  0  0
 27 28  1  0  0  0  0
 29 27  1  0  0  0  0
 30 27  1  0  0  0  0
 31 32  1  0  0  0  0
 32 35  1  0  0  0  0
 33 32  1  0  0  0  0
 34 32  1  0  0  0  0
M  RAD  2  12   2  24   2
M  END
