Coordinates from ORCA-job p-CH3O-Ph-N2-OTs-B3LYPG-aug-cc-pVDZ-scan-d09-49-n400
 OpenBabel07022015293D

 35 36  0  0  1  0  0  0  0  0999 V2000
    1.2888    0.6533   -2.7826 C   0  0  0  0  0  0  0  0  0  0  0  0
    1.3353    1.8243   -3.6916 C   0  0  1  0  0  0  0  0  0  0  0  0
   -0.0146    2.6280   -3.7570 C   0  0  1  0  0  0  0  0  0  0  0  0
   -0.8797    2.4942   -2.5477 C   0  0  0  0  0  0  0  0  0  0  0  0
   -0.6921    1.5269   -1.6289 C   0  0  0  0  0  0  0  0  0  0  0  0
    0.3761    0.5440   -1.7887 C   0  0  0  0  0  0  0  0  0  0  0  0
    2.0667   -0.1020   -2.8849 H   0  0  0  0  0  0  0  0  0  0  0  0
    1.5940    1.5568   -4.7223 H   0  0  0  0  0  0  0  0  0  0  0  0
   -1.6821    3.2279   -2.4647 H   0  0  0  0  0  0  0  0  0  0  0  0
   -1.3520    1.4767   -0.7665 H   0  0  0  0  0  0  0  0  0  0  0  0
   -0.2186    3.1777   -4.5046 N   0  0  0  0  0  0  0  0  0  0  0  0
   -0.4714    3.8580   -5.4309 N   0  0  0  0  0  0  0  0  0  0  0  0
    5.0333    0.9288   -4.9571 C   0  0  0  0  0  0  0  0  0  0  0  0
    5.9764   -0.0750   -4.7289 C   0  0  0  0  0  0  0  0  0  0  0  0
    6.6927   -0.1419   -3.5228 C   0  0  0  0  0  0  0  0  0  0  0  0
    6.4479    0.8362   -2.5444 C   0  0  0  0  0  0  0  0  0  0  0  0
    5.5135    1.8518   -2.7524 C   0  0  0  0  0  0  0  0  0  0  0  0
    4.8117    1.8798   -3.9590 C   0  0  0  0  0  0  0  0  0  0  0  0
    4.4917    0.9907   -5.8986 H   0  0  0  0  0  0  0  0  0  0  0  0
    6.1645   -0.8139   -5.5096 H   0  0  0  0  0  0  0  0  0  0  0  0
    7.0016    0.8107   -1.6051 H   0  0  0  0  0  0  0  0  0  0  0  0
    5.3389    2.6176   -1.9985 H   0  0  0  0  0  0  0  0  0  0  0  0
    3.6196    3.1961   -4.2444 S   0  0  0  0  0  0  0  0  0  0  0  0
    2.3579    2.7840   -3.2198 O   0  0  0  0  0  0  0  0  0  0  0  0
    3.1413    3.0996   -5.6444 O   0  0  0  0  0  0  0  0  0  0  0  0
    4.1311    4.4554   -3.6730 O   0  0  0  0  0  0  0  0  0  0  0  0
    7.6961   -1.2455   -3.2904 C   0  0  0  0  0  0  0  0  0  0  0  0
    7.1878   -2.2092   -3.1374 H   0  0  0  0  0  0  0  0  0  0  0  0
    8.3637   -1.3640   -4.1552 H   0  0  0  0  0  0  0  0  0  0  0  0
    8.3115   -1.0453   -2.4048 H   0  0  0  0  0  0  0  0  0  0  0  0
    0.4967   -0.5124   -0.9309 O   0  0  0  0  0  0  0  0  0  0  0  0
   -0.6136   -0.8815   -0.1110 C   0  0  0  0  0  0  0  0  0  0  0  0
   -0.3328   -1.8348    0.3470 H   0  0  0  0  0  0  0  0  0  0  0  0
   -1.5247   -1.0193   -0.7107 H   0  0  0  0  0  0  0  0  0  0  0  0
   -0.7970   -0.1419    0.6820 H   0  0  0  0  0  0  0  0  0  0  0  0
  1  6  2  0  0  0  0
  2  8  1  6  0  0  0
  2 24  1  0  0  0  0
  2  1  1  0  0  0  0
  3 11  1  1  0  0  0
  3  2  1  0  0  0  0
  3  4  1  0  0  0  0
  4  9  1  0  0  0  0
  4  5  2  0  0  0  0
  5 10  1  0  0  0  0
  6  5  1  0  0  0  0
  6 31  1  0  0  0  0
  7  1  1  0  0  0  0
 12 11  1  0  0  0  0
 13 14  2  0  0  0  0
 13 18  1  0  0  0  0
 14 15  1  0  0  0  0
 15 27  1  0  0  0  0
 15 16  2  0  0  0  0
 16 21  1  0  0  0  0
 17 16  1  0  0  0  0
 17 22  1  0  0  0  0
 18 17  2  0  0  0  0
 19 13  1  0  0  0  0
 20 14  1  0  0  0  0
 23 18  1  0  0  0  0
 23 26  2  0  0  0  0
 23 24  1  0  0  0  0
 25 23  2  0  0  0  0
 27 28  1  0  0  0  0
 27 30  1  0  0  0  0
 29 27  1  0  0  0  0
 31 32  1  0  0  0  0
 32 33  1  0  0  0  0
 32 35  1  0  0  0  0
 34 32  1  0  0  0  0
M  RAD  3   3   2  11   2  12   3
M  END
