Coordinates from ORCA-job p-CH3O-Ph-N2-OTs-B3LYPG-aug-cc-pVDZ-scan-d09-49-n400
 OpenBabel07022015293D

 35 34  0  0  0  0  0  0  0  0999 V2000
   -0.0820    0.4653   -2.7985 C   0  0  0  0  0  0  0  0  0  0  0  0
    0.5898    1.6572   -2.4734 C   0  0  0  0  0  0  0  0  0  0  0  0
   -0.0502    2.4407   -1.7014 C   0  0  0  0  0  0  0  0  0  0  0  0
   -1.2625    2.4623   -1.0736 C   0  0  0  0  0  0  0  0  0  0  0  0
   -1.9528    1.2705   -1.3909 C   0  0  0  0  0  0  0  0  0  0  0  0
   -1.3718    0.2935   -2.2362 C   0  0  0  0  0  0  0  0  0  0  0  0
    0.3255   -0.3122   -3.4445 H   0  0  0  0  0  0  0  0  0  0  0  0
    2.2596    1.8312   -3.3960 H   0  0  0  0  0  0  0  0  0  0  0  0
   -1.6666    3.2409   -0.4322 H   0  0  0  0  0  0  0  0  0  0  0  0
   -2.9452    1.1296   -0.9695 H   0  0  0  0  0  0  0  0  0  0  0  0
    0.9403    4.3936   -1.0901 N   0  0  0  0  0  0  0  0  0  0  0  0
    1.8042    5.0810   -1.1243 N   0  0  0  0  0  0  0  0  0  0  0  0
    6.0045    0.7884   -2.8375 C   0  0  0  0  0  0  0  0  0  0  0  0
    7.1136   -0.0311   -3.0558 C   0  0  0  0  0  0  0  0  0  0  0  0
    7.8747    0.0728   -4.2311 C   0  0  0  0  0  0  0  0  0  0  0  0
    7.4955    1.0231   -5.1935 C   0  0  0  0  0  0  0  0  0  0  0  0
    6.3900    1.8525   -4.9963 C   0  0  0  0  0  0  0  0  0  0  0  0
    5.6563    1.7200   -3.8161 C   0  0  0  0  0  0  0  0  0  0  0  0
    5.4225    0.7151   -1.9208 H   0  0  0  0  0  0  0  0  0  0  0  0
    7.3931   -0.7601   -2.2938 H   0  0  0  0  0  0  0  0  0  0  0  0
    8.0781    1.1179   -6.1109 H   0  0  0  0  0  0  0  0  0  0  0  0
    6.1009    2.5948   -5.7377 H   0  0  0  0  0  0  0  0  0  0  0  0
    4.2299    2.7819   -3.5449 S   0  0  0  0  0  0  0  0  0  0  0  0
    4.0491    3.0218   -2.0893 O   0  0  0  0  0  0  0  0  0  0  0  0
    3.0228    1.7759   -4.0401 O   0  0  0  0  0  0  0  0  0  0  0  0
    4.3022    3.9232   -4.4844 O   0  0  0  0  0  0  0  0  0  0  0  0
    9.0886   -0.7973   -4.4493 C   0  0  0  0  0  0  0  0  0  0  0  0
   10.0130   -0.2308   -4.2590 H   0  0  0  0  0  0  0  0  0  0  0  0
    9.0858   -1.6667   -3.7798 H   0  0  0  0  0  0  0  0  0  0  0  0
    9.1380   -1.1604   -5.4847 H   0  0  0  0  0  0  0  0  0  0  0  0
   -1.9943   -0.8727   -2.5767 O   0  0  0  0  0  0  0  0  0  0  0  0
   -3.2978   -1.1328   -2.0663 C   0  0  0  0  0  0  0  0  0  0  0  0
   -3.5904   -2.0994   -2.4858 H   0  0  0  0  0  0  0  0  0  0  0  0
   -4.0142   -0.3617   -2.3889 H   0  0  0  0  0  0  0  0  0  0  0  0
   -3.2898   -1.1964   -0.9668 H   0  0  0  0  0  0  0  0  0  0  0  0
  1  2  2  0  0  0  0
  1  6  1  0  0  0  0
  2  3  1  0  0  0  0
  3  4  2  0  0  0  0
  4  9  1  0  0  0  0
  5  4  1  0  0  0  0
  5 10  1  0  0  0  0
  6  5  2  0  0  0  0
  7  1  1  0  0  0  0
 12 11  3  0  0  0  0
 13 19  1  0  0  0  0
 14 13  1  0  0  0  0
 14 20  1  0  0  0  0
 15 14  2  0  0  0  0
 16 17  2  0  0  0  0
 16 15  1  0  0  0  0
 17 18  1  0  0  0  0
 18 23  1  0  0  0  0
 18 13  2  0  0  0  0
 21 16  1  0  0  0  0
 22 17  1  0  0  0  0
 23 24  2  0  0  0  0
 25 23  1  0  0  0  0
 25  8  1  0  0  0  0
 26 23  2  0  0  0  0
 27 28  1  0  0  0  0
 27 15  1  0  0  0  0
 27 29  1  0  0  0  0
 30 27  1  0  0  0  0
 31  6  1  0  0  0  0
 31 32  1  0  0  0  0
 32 35  1  0  0  0  0
 33 32  1  0  0  0  0
 34 32  1  0  0  0  0
M  RAD  2   2   2   3   2
M  END
