Coordinates from ORCA-job p-CH3O-Ph-N2-OTs-B3LYPG-aug-cc-pVDZ-scan-d09-49-n400
 OpenBabel07022015293D

 35 34  0  0  0  0  0  0  0  0999 V2000
   -0.1418   -0.0915   -2.9683 C   0  0  0  0  0  0  0  0  0  0  0  0
    0.6260    1.0455   -2.7323 C   0  0  0  0  0  0  0  0  0  0  0  0
    0.2117    1.9804   -2.0023 C   0  0  0  0  0  0  0  0  0  0  0  0
   -0.9603    2.1822   -1.3145 C   0  0  0  0  0  0  0  0  0  0  0  0
   -1.7959    1.0561   -1.5085 C   0  0  0  0  0  0  0  0  0  0  0  0
   -1.4005   -0.0462   -2.3094 C   0  0  0  0  0  0  0  0  0  0  0  0
    0.1287   -0.9485   -3.5823 H   0  0  0  0  0  0  0  0  0  0  0  0
    2.4214    1.9306   -3.6712 H   0  0  0  0  0  0  0  0  0  0  0  0
   -1.2409    3.0391   -0.7081 H   0  0  0  0  0  0  0  0  0  0  0  0
   -2.7669    1.0575   -1.0187 H   0  0  0  0  0  0  0  0  0  0  0  0
    1.3444    5.4797   -0.7748 N   0  0  0  0  0  0  0  0  0  0  0  0
    2.1290    6.2560   -0.7612 N   0  0  0  0  0  0  0  0  0  0  0  0
    5.8905    0.8524   -2.8309 C   0  0  0  0  0  0  0  0  0  0  0  0
    6.9456   -0.0386   -3.0517 C   0  0  0  0  0  0  0  0  0  0  0  0
    7.7591    0.0663   -4.1894 C   0  0  0  0  0  0  0  0  0  0  0  0
    7.4951    1.0943   -5.1116 C   0  0  0  0  0  0  0  0  0  0  0  0
    6.4496    1.9947   -4.9117 C   0  0  0  0  0  0  0  0  0  0  0  0
    5.6565    1.8574   -3.7691 C   0  0  0  0  0  0  0  0  0  0  0  0
    5.2717    0.7825   -1.9382 H   0  0  0  0  0  0  0  0  0  0  0  0
    7.1422   -0.8219   -2.3184 H   0  0  0  0  0  0  0  0  0  0  0  0
    8.1237    1.1947   -5.9976 H   0  0  0  0  0  0  0  0  0  0  0  0
    6.2559    2.8012   -5.6163 H   0  0  0  0  0  0  0  0  0  0  0  0
    4.3032    3.0148   -3.5119 S   0  0  0  0  0  0  0  0  0  0  0  0
    3.9374    3.0374   -2.0740 O   0  0  0  0  0  0  0  0  0  0  0  0
    3.0601    2.2816   -4.3289 O   0  0  0  0  0  0  0  0  0  0  0  0
    4.5972    4.2553   -4.2565 O   0  0  0  0  0  0  0  0  0  0  0  0
    8.9049   -0.8875   -4.4243 C   0  0  0  0  0  0  0  0  0  0  0  0
    9.8662   -0.3533   -4.4267 H   0  0  0  0  0  0  0  0  0  0  0  0
    8.9494   -1.6654   -3.6518 H   0  0  0  0  0  0  0  0  0  0  0  0
    8.8091   -1.3854   -5.4001 H   0  0  0  0  0  0  0  0  0  0  0  0
   -2.1868   -1.1448   -2.5162 O   0  0  0  0  0  0  0  0  0  0  0  0
   -3.4803   -1.1881   -1.9222 C   0  0  0  0  0  0  0  0  0  0  0  0
   -3.9225   -2.1345   -2.2468 H   0  0  0  0  0  0  0  0  0  0  0  0
   -4.1070   -0.3531   -2.2713 H   0  0  0  0  0  0  0  0  0  0  0  0
   -3.4151   -1.1690   -0.8232 H   0  0  0  0  0  0  0  0  0  0  0  0
  1  2  2  0  0  0  0
  1  6  1  0  0  0  0
  2  3  1  0  0  0  0
  3  4  2  0  0  0  0
  4  9  1  0  0  0  0
  5  4  1  0  0  0  0
  5 10  1  0  0  0  0
  6  5  2  0  0  0  0
  7  1  1  0  0  0  0
 11 12  3  0  0  0  0
 13 19  1  0  0  0  0
 14 13  1  0  0  0  0
 14 20  1  0  0  0  0
 15 14  2  0  0  0  0
 16 17  2  0  0  0  0
 16 15  1  0  0  0  0
 17 18  1  0  0  0  0
 18 23  1  0  0  0  0
 18 13  2  0  0  0  0
 21 16  1  0  0  0  0
 22 17  1  0  0  0  0
 23 24  2  0  0  0  0
 25  8  1  0  0  0  0
 25 23  1  0  0  0  0
 26 23  2  0  0  0  0
 27 15  1  0  0  0  0
 27 29  1  0  0  0  0
 28 27  1  0  0  0  0
 30 27  1  0  0  0  0
 31  6  1  0  0  0  0
 31 32  1  0  0  0  0
 32 35  1  0  0  0  0
 33 32  1  0  0  0  0
 34 32  1  0  0  0  0
M  RAD  2   2   2   3   2
M  END
