Coordinates from ORCA-job p-CH3O-Ph-N2-OTs-B3LYPG-aug-cc-pVDZ-scan-d09-49-n400
 OpenBabel07022015293D

 35 34  0  0  0  0  0  0  0  0999 V2000
   -0.2902    0.1526   -3.0369 C   0  0  0  0  0  0  0  0  0  0  0  0
    0.4906    1.2699   -2.7376 C   0  0  0  0  0  0  0  0  0  0  0  0
    0.0849    2.1155   -1.8987 C   0  0  0  0  0  0  0  0  0  0  0  0
   -1.0427    2.2363   -1.1283 C   0  0  0  0  0  0  0  0  0  0  0  0
   -1.8789    1.1237   -1.3910 C   0  0  0  0  0  0  0  0  0  0  0  0
   -1.5143    0.1131   -2.3166 C   0  0  0  0  0  0  0  0  0  0  0  0
   -0.0435   -0.6398   -3.7416 H   0  0  0  0  0  0  0  0  0  0  0  0
    2.3177    1.7299   -3.6746 H   0  0  0  0  0  0  0  0  0  0  0  0
   -1.2961    3.0260   -0.4267 H   0  0  0  0  0  0  0  0  0  0  0  0
   -2.8239    1.0651   -0.8557 H   0  0  0  0  0  0  0  0  0  0  0  0
    1.3304    5.0626   -0.6448 N   0  0  0  0  0  0  0  0  0  0  0  0
    2.1346    5.8184   -0.6218 N   0  0  0  0  0  0  0  0  0  0  0  0
    5.9684    0.8182   -2.8832 C   0  0  0  0  0  0  0  0  0  0  0  0
    7.0964    0.0092   -3.0429 C   0  0  0  0  0  0  0  0  0  0  0  0
    7.9200    0.1249   -4.1734 C   0  0  0  0  0  0  0  0  0  0  0  0
    7.5881    1.0783   -5.1508 C   0  0  0  0  0  0  0  0  0  0  0  0
    6.4669    1.8970   -5.0123 C   0  0  0  0  0  0  0  0  0  0  0  0
    5.6681    1.7515   -3.8757 C   0  0  0  0  0  0  0  0  0  0  0  0
    5.3371    0.7350   -2.0004 H   0  0  0  0  0  0  0  0  0  0  0  0
    7.3420   -0.7193   -2.2691 H   0  0  0  0  0  0  0  0  0  0  0  0
    8.2217    1.1858   -6.0325 H   0  0  0  0  0  0  0  0  0  0  0  0
    6.2150    2.6432   -5.7631 H   0  0  0  0  0  0  0  0  0  0  0  0
    4.2181    2.7985   -3.6919 S   0  0  0  0  0  0  0  0  0  0  0  0
    3.9040    2.9813   -2.2525 O   0  0  0  0  0  0  0  0  0  0  0  0
    3.0481    1.8128   -4.3309 O   0  0  0  0  0  0  0  0  0  0  0  0
    4.3566    3.9607   -4.5941 O   0  0  0  0  0  0  0  0  0  0  0  0
    9.1461   -0.7398   -4.3372 C   0  0  0  0  0  0  0  0  0  0  0  0
   10.0631   -0.1363   -4.2650 H   0  0  0  0  0  0  0  0  0  0  0  0
    9.1942   -1.5219   -3.5692 H   0  0  0  0  0  0  0  0  0  0  0  0
    9.1566   -1.2281   -5.3218 H   0  0  0  0  0  0  0  0  0  0  0  0
   -2.2994   -0.9706   -2.5931 O   0  0  0  0  0  0  0  0  0  0  0  0
   -3.5601   -1.0927   -1.9426 C   0  0  0  0  0  0  0  0  0  0  0  0
   -4.0092   -2.0072   -2.3409 H   0  0  0  0  0  0  0  0  0  0  0  0
   -4.2110   -0.2347   -2.1712 H   0  0  0  0  0  0  0  0  0  0  0  0
   -3.4390   -1.1872   -0.8521 H   0  0  0  0  0  0  0  0  0  0  0  0
  1  2  2  0  0  0  0
  1  6  1  0  0  0  0
  2  3  1  0  0  0  0
  3  4  2  0  0  0  0
  4  9  1  0  0  0  0
  5  4  1  0  0  0  0
  5 10  1  0  0  0  0
  6  5  2  0  0  0  0
  7  1  1  0  0  0  0
 11 12  3  0  0  0  0
 13 19  1  0  0  0  0
 14 13  1  0  0  0  0
 14 20  1  0  0  0  0
 15 14  2  0  0  0  0
 16 17  2  0  0  0  0
 16 15  1  0  0  0  0
 17 18  1  0  0  0  0
 18 23  1  0  0  0  0
 18 13  2  0  0  0  0
 21 16  1  0  0  0  0
 22 17  1  0  0  0  0
 23 24  2  0  0  0  0
 25 23  1  0  0  0  0
 25  8  1  0  0  0  0
 26 23  2  0  0  0  0
 27 28  1  0  0  0  0
 27 15  1  0  0  0  0
 27 29  1  0  0  0  0
 30 27  1  0  0  0  0
 31  6  1  0  0  0  0
 31 32  1  0  0  0  0
 32 35  1  0  0  0  0
 33 32  1  0  0  0  0
 34 32  1  0  0  0  0
M  RAD  2   2   2   3   2
M  END
