Coordinates from ORCA-job p-CH3O-Ph-N2-OTs-B3LYPG-aug-cc-pVDZ-scan-d09-49-n400
 OpenBabel07022015293D

 35 34  0  0  0  0  0  0  0  0999 V2000
   -0.1369   -1.0628   -2.7803 C   0  0  0  0  0  0  0  0  0  0  0  0
    0.9421   -0.2198   -2.6634 C   0  0  0  0  0  0  0  0  0  0  0  0
    1.0208    0.9776   -2.2964 C   0  0  0  0  0  0  0  0  0  0  0  0
   -0.0743    1.7013   -1.8198 C   0  0  0  0  0  0  0  0  0  0  0  0
   -1.2677    0.9536   -1.8625 C   0  0  0  0  0  0  0  0  0  0  0  0
   -1.3064   -0.3881   -2.3254 C   0  0  0  0  0  0  0  0  0  0  0  0
   -0.1728   -2.0950   -3.1185 H   0  0  0  0  0  0  0  0  0  0  0  0
    2.4200    2.0214   -3.5836 H   0  0  0  0  0  0  0  0  0  0  0  0
   -0.0507    2.7338   -1.4792 H   0  0  0  0  0  0  0  0  0  0  0  0
   -2.1859    1.4362   -1.5364 H   0  0  0  0  0  0  0  0  0  0  0  0
    1.2351    5.0684   -0.8072 N   0  0  0  0  0  0  0  0  0  0  0  0
    1.8763    5.9059   -0.4822 N   0  0  0  0  0  0  0  0  0  0  0  0
    5.7760    1.0423   -2.7397 C   0  0  0  0  0  0  0  0  0  0  0  0
    6.7991    0.1241   -2.9977 C   0  0  0  0  0  0  0  0  0  0  0  0
    7.5721    0.2071   -4.1647 C   0  0  0  0  0  0  0  0  0  0  0  0
    7.3005    1.2410   -5.0786 C   0  0  0  0  0  0  0  0  0  0  0  0
    6.2855    2.1669   -4.8430 C   0  0  0  0  0  0  0  0  0  0  0  0
    5.5326    2.0514   -3.6710 C   0  0  0  0  0  0  0  0  0  0  0  0
    5.1880    0.9901   -1.8256 H   0  0  0  0  0  0  0  0  0  0  0  0
    7.0016   -0.6635   -2.2707 H   0  0  0  0  0  0  0  0  0  0  0  0
    7.8984    1.3240   -5.9874 H   0  0  0  0  0  0  0  0  0  0  0  0
    6.0862    2.9762   -5.5430 H   0  0  0  0  0  0  0  0  0  0  0  0
    4.2136    3.2374   -3.3678 S   0  0  0  0  0  0  0  0  0  0  0  0
    3.8664    3.2184   -1.9254 O   0  0  0  0  0  0  0  0  0  0  0  0
    2.9362    2.5852   -4.1999 O   0  0  0  0  0  0  0  0  0  0  0  0
    4.5257    4.4923   -4.0789 O   0  0  0  0  0  0  0  0  0  0  0  0
    8.6832   -0.7761   -4.4409 C   0  0  0  0  0  0  0  0  0  0  0  0
    9.6573   -0.2672   -4.4796 H   0  0  0  0  0  0  0  0  0  0  0  0
    8.7361   -1.5548   -3.6697 H   0  0  0  0  0  0  0  0  0  0  0  0
    8.5384   -1.2718   -5.4119 H   0  0  0  0  0  0  0  0  0  0  0  0
   -2.4412   -1.1450   -2.3629 O   0  0  0  0  0  0  0  0  0  0  0  0
   -3.6582   -0.5863   -1.8721 C   0  0  0  0  0  0  0  0  0  0  0  0
   -4.4063   -1.3794   -1.9693 H   0  0  0  0  0  0  0  0  0  0  0  0
   -3.9663    0.2840   -2.4708 H   0  0  0  0  0  0  0  0  0  0  0  0
   -3.5643   -0.2969   -0.8147 H   0  0  0  0  0  0  0  0  0  0  0  0
  1  2  2  0  0  0  0
  1  6  1  0  0  0  0
  2  3  1  0  0  0  0
  3  4  2  0  0  0  0
  4  9  1  0  0  0  0
  5  4  1  0  0  0  0
  5 10  1  0  0  0  0
  6  5  2  0  0  0  0
  7  1  1  0  0  0  0
 11 12  3  0  0  0  0
 13 19  1  0  0  0  0
 14 13  1  0  0  0  0
 14 20  1  0  0  0  0
 15 14  2  0  0  0  0
 16 17  2  0  0  0  0
 16 15  1  0  0  0  0
 17 18  1  0  0  0  0
 18 23  1  0  0  0  0
 18 13  2  0  0  0  0
 21 16  1  0  0  0  0
 22 17  1  0  0  0  0
 23 24  2  0  0  0  0
 25  8  1  0  0  0  0
 25 23  1  0  0  0  0
 26 23  2  0  0  0  0
 27 15  1  0  0  0  0
 27 29  1  0  0  0  0
 28 27  1  0  0  0  0
 30 27  1  0  0  0  0
 31  6  1  0  0  0  0
 31 32  1  0  0  0  0
 32 35  1  0  0  0  0
 33 32  1  0  0  0  0
 34 32  1  0  0  0  0
M  RAD  2   2   2   3   2
M  END
