Coordinates from ORCA-job p-CH3O-Ph-N2-OTs-B3LYPG-aug-cc-pVDZ-scan-d09-49-n400
 OpenBabel07022015293D

 35 36  0  0  1  0  0  0  0  0999 V2000
    1.1548    0.6082   -2.8454 C   0  0  0  0  0  0  0  0  0  0  0  0
    1.2368    1.8133   -3.7007 C   0  0  1  0  0  0  0  0  0  0  0  0
   -0.0128    2.6535   -3.6132 C   0  0  0  0  0  0  0  0  0  0  0  0
   -0.9068    2.5338   -2.4831 C   0  0  0  0  0  0  0  0  0  0  0  0
   -0.7712    1.5057   -1.6063 C   0  0  0  0  0  0  0  0  0  0  0  0
    0.2537    0.4982   -1.8330 C   0  0  0  0  0  0  0  0  0  0  0  0
    1.8888   -0.1808   -2.9969 H   0  0  0  0  0  0  0  0  0  0  0  0
    1.4870    1.5908   -4.7417 H   0  0  0  0  0  0  0  0  0  0  0  0
   -1.6868    3.2846   -2.3594 H   0  0  0  0  0  0  0  0  0  0  0  0
   -1.4385    1.4336   -0.7527 H   0  0  0  0  0  0  0  0  0  0  0  0
   -0.2154    3.5005   -4.4830 N   0  0  0  0  0  0  0  0  0  0  0  0
   -0.3892    4.2835   -5.2976 N   0  0  0  0  0  0  0  0  0  0  0  0
    5.0422    0.8207   -4.9208 C   0  0  0  0  0  0  0  0  0  0  0  0
    6.0219   -0.1507   -4.6840 C   0  0  0  0  0  0  0  0  0  0  0  0
    6.7971   -0.1305   -3.5168 C   0  0  0  0  0  0  0  0  0  0  0  0
    6.5715    0.8942   -2.5788 C   0  0  0  0  0  0  0  0  0  0  0  0
    5.6041    1.8725   -2.7952 C   0  0  0  0  0  0  0  0  0  0  0  0
    4.8452    1.8193   -3.9686 C   0  0  0  0  0  0  0  0  0  0  0  0
    4.4550    0.8177   -5.8368 H   0  0  0  0  0  0  0  0  0  0  0  0
    6.1894   -0.9290   -5.4299 H   0  0  0  0  0  0  0  0  0  0  0  0
    7.1706    0.9301   -1.6678 H   0  0  0  0  0  0  0  0  0  0  0  0
    5.4436    2.6741   -2.0765 H   0  0  0  0  0  0  0  0  0  0  0  0
    3.6094    3.0964   -4.2533 S   0  0  0  0  0  0  0  0  0  0  0  0
    2.3942    2.6873   -3.2040 O   0  0  0  0  0  0  0  0  0  0  0  0
    3.1048    2.9633   -5.6458 O   0  0  0  0  0  0  0  0  0  0  0  0
    4.1283    4.3823   -3.7443 O   0  0  0  0  0  0  0  0  0  0  0  0
    7.8615   -1.1696   -3.2630 C   0  0  0  0  0  0  0  0  0  0  0  0
    7.6750   -1.7024   -2.3191 H   0  0  0  0  0  0  0  0  0  0  0  0
    7.9011   -1.9143   -4.0680 H   0  0  0  0  0  0  0  0  0  0  0  0
    8.8538   -0.7029   -3.1810 H   0  0  0  0  0  0  0  0  0  0  0  0
    0.3481   -0.6103   -1.0378 O   0  0  0  0  0  0  0  0  0  0  0  0
   -0.7391   -0.9521   -0.1785 C   0  0  0  0  0  0  0  0  0  0  0  0
   -0.4918   -1.9387    0.2250 H   0  0  0  0  0  0  0  0  0  0  0  0
   -1.6856   -1.0116   -0.7350 H   0  0  0  0  0  0  0  0  0  0  0  0
   -0.8408   -0.2389    0.6528 H   0  0  0  0  0  0  0  0  0  0  0  0
  1  6  1  0  0  0  0
  2  8  1  6  0  0  0
  2  3  1  0  0  0  0
  2 24  1  0  0  0  0
  2  1  1  0  0  0  0
  3  4  2  0  0  0  0
  4  9  1  0  0  0  0
  4  5  1  0  0  0  0
  5 10  1  0  0  0  0
  6  5  2  0  0  0  0
  6 31  1  0  0  0  0
  7  1  1  0  0  0  0
 11  3  1  0  0  0  0
 12 11  1  0  0  0  0
 13 14  2  0  0  0  0
 13 18  1  0  0  0  0
 14 15  1  0  0  0  0
 15 27  1  0  0  0  0
 15 16  2  0  0  0  0
 16 21  1  0  0  0  0
 17 16  1  0  0  0  0
 17 22  1  0  0  0  0
 18 17  2  0  0  0  0
 19 13  1  0  0  0  0
 20 14  1  0  0  0  0
 23 18  1  0  0  0  0
 23 26  2  0  0  0  0
 23 24  1  0  0  0  0
 25 23  2  0  0  0  0
 27 30  1  0  0  0  0
 27 28  1  0  0  0  0
 29 27  1  0  0  0  0
 31 32  1  0  0  0  0
 32 33  1  0  0  0  0
 32 35  1  0  0  0  0
 34 32  1  0  0  0  0
M  RAD  3   1   2  11   2  12   3
M  END
