Coordinates from ORCA-job p-CH3O-Ph-N2-OTs-B3LYPG-aug-cc-pVDZ-scan-d09-49-n400
 OpenBabel07022015293D

 35 34  0  0  0  0  0  0  0  0999 V2000
   -0.1714    0.2035   -2.8017 C   0  0  0  0  0  0  0  0  0  0  0  0
    0.6431    1.3387   -3.0135 C   0  0  0  0  0  0  0  0  0  0  0  0
    0.1356    2.3548   -2.3276 C   0  0  0  0  0  0  0  0  0  0  0  0
   -0.9011    2.6274   -1.5005 C   0  0  0  0  0  0  0  0  0  0  0  0
   -1.6779    1.4595   -1.3248 C   0  0  0  0  0  0  0  0  0  0  0  0
   -1.3083    0.2598   -1.9681 C   0  0  0  0  0  0  0  0  0  0  0  0
    0.0903   -0.7344   -3.2907 H   0  0  0  0  0  0  0  0  0  0  0  0
    1.5968    1.3282   -3.6774 H   0  0  0  0  0  0  0  0  0  0  0  0
   -1.1299    3.5775   -1.0295 H   0  0  0  0  0  0  0  0  0  0  0  0
   -2.5586    1.5276   -0.6916 H   0  0  0  0  0  0  0  0  0  0  0  0
    1.2434    4.2055   -2.5928 N   0  0  0  0  0  0  0  0  0  0  0  0
    1.5822    5.2515   -2.6792 N   0  0  0  0  0  0  0  0  0  0  0  0
    5.5014    0.1977   -4.4671 C   0  0  0  0  0  0  0  0  0  0  0  0
    6.7438   -0.4467   -4.4767 C   0  0  0  0  0  0  0  0  0  0  0  0
    7.9082    0.2129   -4.0646 C   0  0  0  0  0  0  0  0  0  0  0  0
    7.8000    1.5504   -3.6426 C   0  0  0  0  0  0  0  0  0  0  0  0
    6.5703    2.2067   -3.6278 C   0  0  0  0  0  0  0  0  0  0  0  0
    5.4237    1.5205   -4.0396 C   0  0  0  0  0  0  0  0  0  0  0  0
    4.5988   -0.3141   -4.7939 H   0  0  0  0  0  0  0  0  0  0  0  0
    6.8022   -1.4835   -4.8119 H   0  0  0  0  0  0  0  0  0  0  0  0
    8.6938    2.0874   -3.3202 H   0  0  0  0  0  0  0  0  0  0  0  0
    6.5003    3.2446   -3.3053 H   0  0  0  0  0  0  0  0  0  0  0  0
    3.8371    2.3979   -4.0058 S   0  0  0  0  0  0  0  0  0  0  0  0
    3.5099    2.6644   -2.5530 O   0  0  0  0  0  0  0  0  0  0  0  0
    2.8257    1.3904   -4.6063 O   0  0  0  0  0  0  0  0  0  0  0  0
    3.9927    3.6278   -4.8414 O   0  0  0  0  0  0  0  0  0  0  0  0
    9.2494   -0.4824   -4.0659 C   0  0  0  0  0  0  0  0  0  0  0  0
    9.6512   -0.5720   -3.0456 H   0  0  0  0  0  0  0  0  0  0  0  0
    9.1743   -1.4921   -4.4886 H   0  0  0  0  0  0  0  0  0  0  0  0
    9.9872    0.0788   -4.6581 H   0  0  0  0  0  0  0  0  0  0  0  0
   -1.9919   -0.9050   -1.8445 O   0  0  0  0  0  0  0  0  0  0  0  0
   -3.1448   -0.9394   -1.0024 C   0  0  0  0  0  0  0  0  0  0  0  0
   -3.4942   -1.9751   -1.0246 H   0  0  0  0  0  0  0  0  0  0  0  0
   -3.9334   -0.2759   -1.3881 H   0  0  0  0  0  0  0  0  0  0  0  0
   -2.8894   -0.6614    0.0312 H   0  0  0  0  0  0  0  0  0  0  0  0
  1  6  1  0  0  0  0
  2  1  2  0  0  0  0
  2  3  1  0  0  0  0
  3  4  2  0  0  0  0
  4  5  1  0  0  0  0
  4  9  1  0  0  0  0
  5 10  1  0  0  0  0
  6 31  1  0  0  0  0
  6  5  2  0  0  0  0
  7  1  1  0  0  0  0
  8  2  1  0  0  0  0
 12 11  3  0  0  0  0
 13 18  1  0  0  0  0
 14 13  2  0  0  0  0
 14 15  1  0  0  0  0
 15 16  2  0  0  0  0
 16 17  1  0  0  0  0
 16 21  1  0  0  0  0
 17 22  1  0  0  0  0
 18 23  1  0  0  0  0
 18 17  2  0  0  0  0
 19 13  1  0  0  0  0
 20 14  1  0  0  0  0
 23 24  1  0  0  0  0
 25 23  2  0  0  0  0
 26 23  2  0  0  0  0
 27 15  1  0  0  0  0
 27 28  1  0  0  0  0
 29 27  1  0  0  0  0
 30 27  1  0  0  0  0
 31 32  1  0  0  0  0
 32 35  1  0  0  0  0
 33 32  1  0  0  0  0
 34 32  1  0  0  0  0
M  RAD  2   3   2  24   2
M  END
