Coordinates from ORCA-job p-CH3O-Ph-N2-OTs-B3LYPG-aug-cc-pVDZ-scan-d09-49-n400
 OpenBabel07022015293D

 35 34  0  0  0  0  0  0  0  0999 V2000
   -0.1268    0.4157   -2.8219 C   0  0  0  0  0  0  0  0  0  0  0  0
    0.5586    1.5980   -2.4993 C   0  0  0  0  0  0  0  0  0  0  0  0
   -0.0470    2.3978   -1.7245 C   0  0  0  0  0  0  0  0  0  0  0  0
   -1.2499    2.4449   -1.0799 C   0  0  0  0  0  0  0  0  0  0  0  0
   -1.9635    1.2631   -1.3894 C   0  0  0  0  0  0  0  0  0  0  0  0
   -1.4128    0.2730   -2.2406 C   0  0  0  0  0  0  0  0  0  0  0  0
    0.2587   -0.3700   -3.4711 H   0  0  0  0  0  0  0  0  0  0  0  0
    2.2717    1.7887   -3.4299 H   0  0  0  0  0  0  0  0  0  0  0  0
   -1.6331    3.2301   -0.4341 H   0  0  0  0  0  0  0  0  0  0  0  0
   -2.9529    1.1405   -0.9551 H   0  0  0  0  0  0  0  0  0  0  0  0
    0.9964    4.4675   -1.0505 N   0  0  0  0  0  0  0  0  0  0  0  0
    1.8508    5.1660   -1.0842 N   0  0  0  0  0  0  0  0  0  0  0  0
    6.0123    0.7716   -2.8509 C   0  0  0  0  0  0  0  0  0  0  0  0
    7.1319   -0.0350   -3.0647 C   0  0  0  0  0  0  0  0  0  0  0  0
    7.9068    0.0903   -4.2286 C   0  0  0  0  0  0  0  0  0  0  0  0
    7.5317    1.0493   -5.1841 C   0  0  0  0  0  0  0  0  0  0  0  0
    6.4159    1.8654   -4.9918 C   0  0  0  0  0  0  0  0  0  0  0  0
    5.6679    1.7112   -3.8230 C   0  0  0  0  0  0  0  0  0  0  0  0
    5.4196    0.6822   -1.9425 H   0  0  0  0  0  0  0  0  0  0  0  0
    7.4090   -0.7699   -2.3076 H   0  0  0  0  0  0  0  0  0  0  0  0
    8.1264    1.1618   -6.0918 H   0  0  0  0  0  0  0  0  0  0  0  0
    6.1295    2.6143   -5.7276 H   0  0  0  0  0  0  0  0  0  0  0  0
    4.2298    2.7574   -3.5566 S   0  0  0  0  0  0  0  0  0  0  0  0
    4.0332    2.9868   -2.1020 O   0  0  0  0  0  0  0  0  0  0  0  0
    3.0359    1.7373   -4.0660 O   0  0  0  0  0  0  0  0  0  0  0  0
    4.2945    3.9027   -4.4913 O   0  0  0  0  0  0  0  0  0  0  0  0
    9.1289   -0.7685   -4.4452 C   0  0  0  0  0  0  0  0  0  0  0  0
   10.0487   -0.1780   -4.3171 H   0  0  0  0  0  0  0  0  0  0  0  0
    9.1640   -1.6046   -3.7357 H   0  0  0  0  0  0  0  0  0  0  0  0
    9.1486   -1.1819   -5.4630 H   0  0  0  0  0  0  0  0  0  0  0  0
   -2.0633   -0.8815   -2.5702 O   0  0  0  0  0  0  0  0  0  0  0  0
   -3.3650   -1.1142   -2.0427 C   0  0  0  0  0  0  0  0  0  0  0  0
   -3.6828   -2.0749   -2.4575 H   0  0  0  0  0  0  0  0  0  0  0  0
   -4.0692   -0.3285   -2.3568 H   0  0  0  0  0  0  0  0  0  0  0  0
   -3.3440   -1.1770   -0.9433 H   0  0  0  0  0  0  0  0  0  0  0  0
  1  2  2  0  0  0  0
  1  6  1  0  0  0  0
  2  3  1  0  0  0  0
  3  4  2  0  0  0  0
  4  9  1  0  0  0  0
  5  4  1  0  0  0  0
  5 10  1  0  0  0  0
  6  5  2  0  0  0  0
  7  1  1  0  0  0  0
 12 11  3  0  0  0  0
 13 19  1  0  0  0  0
 14 13  1  0  0  0  0
 14 20  1  0  0  0  0
 15 14  2  0  0  0  0
 16 17  2  0  0  0  0
 16 15  1  0  0  0  0
 17 18  1  0  0  0  0
 18 23  1  0  0  0  0
 18 13  2  0  0  0  0
 21 16  1  0  0  0  0
 22 17  1  0  0  0  0
 23 24  2  0  0  0  0
 25 23  1  0  0  0  0
 25  8  1  0  0  0  0
 26 23  2  0  0  0  0
 27 28  1  0  0  0  0
 27 15  1  0  0  0  0
 27 29  1  0  0  0  0
 30 27  1  0  0  0  0
 31  6  1  0  0  0  0
 31 32  1  0  0  0  0
 32 35  1  0  0  0  0
 33 32  1  0  0  0  0
 34 32  1  0  0  0  0
M  RAD  2   2   2   3   2
M  END
