Coordinates from ORCA-job p-CH3O-Ph-N2-OTs-B3LYPG-aug-cc-pVDZ-scan-d09-49-n400
 OpenBabel07022015293D

 35 34  0  0  0  0  0  0  0  0999 V2000
   -0.2311    0.3024   -2.9270 C   0  0  0  0  0  0  0  0  0  0  0  0
    0.5046    1.4522   -2.6173 C   0  0  0  0  0  0  0  0  0  0  0  0
    0.0046    2.2785   -1.8055 C   0  0  0  0  0  0  0  0  0  0  0  0
   -1.1578    2.3660   -1.0898 C   0  0  0  0  0  0  0  0  0  0  0  0
   -1.9376    1.2189   -1.3744 C   0  0  0  0  0  0  0  0  0  0  0  0
   -1.4862    0.2157   -2.2685 C   0  0  0  0  0  0  0  0  0  0  0  0
    0.0804   -0.4895   -3.6067 H   0  0  0  0  0  0  0  0  0  0  0  0
    2.2874    1.7278   -3.5505 H   0  0  0  0  0  0  0  0  0  0  0  0
   -1.4708    3.1550   -0.4119 H   0  0  0  0  0  0  0  0  0  0  0  0
   -2.9038    1.1318   -0.8826 H   0  0  0  0  0  0  0  0  0  0  0  0
    1.1424    4.6219   -0.9416 N   0  0  0  0  0  0  0  0  0  0  0  0
    1.9780    5.3431   -0.9511 N   0  0  0  0  0  0  0  0  0  0  0  0
    6.0006    0.7675   -2.8766 C   0  0  0  0  0  0  0  0  0  0  0  0
    7.1357   -0.0239   -3.0655 C   0  0  0  0  0  0  0  0  0  0  0  0
    7.9444    0.1244   -4.2033 C   0  0  0  0  0  0  0  0  0  0  0  0
    7.5886    1.0917   -5.1581 C   0  0  0  0  0  0  0  0  0  0  0  0
    6.4582    1.8928   -4.9907 C   0  0  0  0  0  0  0  0  0  0  0  0
    5.6759    1.7152   -3.8476 C   0  0  0  0  0  0  0  0  0  0  0  0
    5.3813    0.6602   -1.9880 H   0  0  0  0  0  0  0  0  0  0  0  0
    7.3989   -0.7644   -2.3090 H   0  0  0  0  0  0  0  0  0  0  0  0
    8.2105    1.2231   -6.0449 H   0  0  0  0  0  0  0  0  0  0  0  0
    6.1865    2.6485   -5.7250 H   0  0  0  0  0  0  0  0  0  0  0  0
    4.2192    2.7424   -3.6163 S   0  0  0  0  0  0  0  0  0  0  0  0
    3.9678    2.9475   -2.1672 O   0  0  0  0  0  0  0  0  0  0  0  0
    3.0501    1.7159   -4.1812 O   0  0  0  0  0  0  0  0  0  0  0  0
    4.2996    3.8974   -4.5363 O   0  0  0  0  0  0  0  0  0  0  0  0
    9.1797   -0.7210   -4.3965 C   0  0  0  0  0  0  0  0  0  0  0  0
   10.0901   -0.1103   -4.3035 H   0  0  0  0  0  0  0  0  0  0  0  0
    9.2359   -1.5276   -3.6550 H   0  0  0  0  0  0  0  0  0  0  0  0
    9.1956   -1.1755   -5.3969 H   0  0  0  0  0  0  0  0  0  0  0  0
   -2.2100   -0.9030   -2.5702 O   0  0  0  0  0  0  0  0  0  0  0  0
   -3.4919   -1.0755   -1.9756 C   0  0  0  0  0  0  0  0  0  0  0  0
   -3.8817   -2.0122   -2.3843 H   0  0  0  0  0  0  0  0  0  0  0  0
   -4.1691   -0.2493   -2.2418 H   0  0  0  0  0  0  0  0  0  0  0  0
   -3.4156   -1.1556   -0.8799 H   0  0  0  0  0  0  0  0  0  0  0  0
  1  2  2  0  0  0  0
  1  6  1  0  0  0  0
  2  3  1  0  0  0  0
  3  4  2  0  0  0  0
  4  9  1  0  0  0  0
  5  4  1  0  0  0  0
  5 10  1  0  0  0  0
  6  5  2  0  0  0  0
  7  1  1  0  0  0  0
 12 11  3  0  0  0  0
 13 19  1  0  0  0  0
 14 13  1  0  0  0  0
 14 20  1  0  0  0  0
 15 14  2  0  0  0  0
 16 17  2  0  0  0  0
 16 15  1  0  0  0  0
 17 18  1  0  0  0  0
 18 23  1  0  0  0  0
 18 13  2  0  0  0  0
 21 16  1  0  0  0  0
 22 17  1  0  0  0  0
 23 24  2  0  0  0  0
 25 23  1  0  0  0  0
 25  8  1  0  0  0  0
 26 23  2  0  0  0  0
 27 28  1  0  0  0  0
 27 15  1  0  0  0  0
 27 29  1  0  0  0  0
 30 27  1  0  0  0  0
 31  6  1  0  0  0  0
 31 32  1  0  0  0  0
 32 35  1  0  0  0  0
 33 32  1  0  0  0  0
 34 32  1  0  0  0  0
M  RAD  2   2   2   3   2
M  END
