Coordinates from ORCA-job p-CH3O-Ph-N2-OTs-B3LYPG-aug-cc-pVDZ-scan-d09-49-n400
 OpenBabel07022015293D

 35 34  0  0  0  0  0  0  0  0999 V2000
   -0.4867   -1.3104   -2.8251 C   0  0  0  0  0  0  0  0  0  0  0  0
    0.7754   -0.7675   -2.7647 C   0  0  0  0  0  0  0  0  0  0  0  0
    1.1569    0.3759   -2.4152 C   0  0  0  0  0  0  0  0  0  0  0  0
    0.3039    1.3504   -1.8931 C   0  0  0  0  0  0  0  0  0  0  0  0
   -1.0390    0.9243   -1.8821 C   0  0  0  0  0  0  0  0  0  0  0  0
   -1.4307   -0.3654   -2.3284 C   0  0  0  0  0  0  0  0  0  0  0  0
   -0.7921   -2.3036   -3.1438 H   0  0  0  0  0  0  0  0  0  0  0  0
    2.2779    1.4046   -3.9595 H   0  0  0  0  0  0  0  0  0  0  0  0
    0.6011    2.3432   -1.5659 H   0  0  0  0  0  0  0  0  0  0  0  0
   -1.7915    1.6247   -1.5258 H   0  0  0  0  0  0  0  0  0  0  0  0
    1.5226    4.4629   -0.1243 N   0  0  0  0  0  0  0  0  0  0  0  0
    2.3137    5.1207    0.2753 N   0  0  0  0  0  0  0  0  0  0  0  0
    5.6449    1.0582   -2.8717 C   0  0  0  0  0  0  0  0  0  0  0  0
    6.8218    0.3099   -2.9624 C   0  0  0  0  0  0  0  0  0  0  0  0
    7.6959    0.4576   -4.0499 C   0  0  0  0  0  0  0  0  0  0  0  0
    7.3646    1.3809   -5.0567 C   0  0  0  0  0  0  0  0  0  0  0  0
    6.1952    2.1375   -4.9884 C   0  0  0  0  0  0  0  0  0  0  0  0
    5.3471    1.9622   -3.8915 C   0  0  0  0  0  0  0  0  0  0  0  0
    4.9745    0.9504   -2.0210 H   0  0  0  0  0  0  0  0  0  0  0  0
    7.0662   -0.3956   -2.1672 H   0  0  0  0  0  0  0  0  0  0  0  0
    8.0373    1.5136   -5.9056 H   0  0  0  0  0  0  0  0  0  0  0  0
    5.9436    2.8606   -5.7618 H   0  0  0  0  0  0  0  0  0  0  0  0
    3.8272    2.9205   -3.8093 S   0  0  0  0  0  0  0  0  0  0  0  0
    3.3796    3.0004   -2.3961 O   0  0  0  0  0  0  0  0  0  0  0  0
    2.7461    1.9611   -4.6196 O   0  0  0  0  0  0  0  0  0  0  0  0
    3.9740    4.1258   -4.6471 O   0  0  0  0  0  0  0  0  0  0  0  0
    8.9744   -0.3395   -4.1359 C   0  0  0  0  0  0  0  0  0  0  0  0
    9.8502    0.3097   -3.9876 H   0  0  0  0  0  0  0  0  0  0  0  0
    9.0078   -1.1306   -3.3764 H   0  0  0  0  0  0  0  0  0  0  0  0
    9.0827   -0.8089   -5.1235 H   0  0  0  0  0  0  0  0  0  0  0  0
   -2.7182   -0.8160   -2.3081 O   0  0  0  0  0  0  0  0  0  0  0  0
   -3.7359    0.0299   -1.7758 C   0  0  0  0  0  0  0  0  0  0  0  0
   -4.6605   -0.5528   -1.8303 H   0  0  0  0  0  0  0  0  0  0  0  0
   -3.8426    0.9469   -2.3742 H   0  0  0  0  0  0  0  0  0  0  0  0
   -3.5273    0.2905   -0.7275 H   0  0  0  0  0  0  0  0  0  0  0  0
  1  2  2  0  0  0  0
  1  6  1  0  0  0  0
  2  3  1  0  0  0  0
  3  4  2  0  0  0  0
  4  5  1  0  0  0  0
  4  9  1  0  0  0  0
  5 10  1  0  0  0  0
  6 31  1  0  0  0  0
  6  5  2  0  0  0  0
  7  1  1  0  0  0  0
 11 12  3  0  0  0  0
 13 19  1  0  0  0  0
 14 13  1  0  0  0  0
 14 20  1  0  0  0  0
 15 14  2  0  0  0  0
 16 17  2  0  0  0  0
 16 15  1  0  0  0  0
 17 18  1  0  0  0  0
 18 23  1  0  0  0  0
 18 13  2  0  0  0  0
 21 16  1  0  0  0  0
 22 17  1  0  0  0  0
 23 24  2  0  0  0  0
 25  8  1  0  0  0  0
 25 23  1  0  0  0  0
 26 23  2  0  0  0  0
 27 15  1  0  0  0  0
 27 28  1  0  0  0  0
 27 29  1  0  0  0  0
 30 27  1  0  0  0  0
 31 32  1  0  0  0  0
 32 35  1  0  0  0  0
 33 32  1  0  0  0  0
 34 32  1  0  0  0  0
M  RAD  2   2   2   3   2
M  END
