Coordinates from ORCA-job p-CH3O-Ph-N2-OTs-B3LYPG-aug-cc-pVDZ-scan-d09-49-n400
 OpenBabel07022015293D

 35 34  0  0  0  0  0  0  0  0999 V2000
   -0.1281   -0.9527   -2.7254 C   0  0  0  0  0  0  0  0  0  0  0  0
    0.9011   -0.0494   -2.5948 C   0  0  0  0  0  0  0  0  0  0  0  0
    0.8936    1.1481   -2.2210 C   0  0  0  0  0  0  0  0  0  0  0  0
   -0.2470    1.8128   -1.7726 C   0  0  0  0  0  0  0  0  0  0  0  0
   -1.3926    0.9942   -1.8323 C   0  0  0  0  0  0  0  0  0  0  0  0
   -1.3427   -0.3483   -2.2921 C   0  0  0  0  0  0  0  0  0  0  0  0
   -0.1001   -1.9833   -3.0696 H   0  0  0  0  0  0  0  0  0  0  0  0
    2.4422    2.0527   -3.5485 H   0  0  0  0  0  0  0  0  0  0  0  0
   -0.2885    2.8453   -1.4344 H   0  0  0  0  0  0  0  0  0  0  0  0
   -2.3428    1.4222   -1.5219 H   0  0  0  0  0  0  0  0  0  0  0  0
    1.2641    4.9960   -0.8310 N   0  0  0  0  0  0  0  0  0  0  0  0
    1.9244    5.8069   -0.4777 N   0  0  0  0  0  0  0  0  0  0  0  0
    5.8236    1.0257   -2.7590 C   0  0  0  0  0  0  0  0  0  0  0  0
    6.8460    0.1073   -3.0191 C   0  0  0  0  0  0  0  0  0  0  0  0
    7.6175    0.1909   -4.1870 C   0  0  0  0  0  0  0  0  0  0  0  0
    7.3448    1.2253   -5.1000 C   0  0  0  0  0  0  0  0  0  0  0  0
    6.3307    2.1517   -4.8621 C   0  0  0  0  0  0  0  0  0  0  0  0
    5.5794    2.0357   -3.6891 C   0  0  0  0  0  0  0  0  0  0  0  0
    5.2382    0.9736   -1.8431 H   0  0  0  0  0  0  0  0  0  0  0  0
    7.0496   -0.6806   -2.2926 H   0  0  0  0  0  0  0  0  0  0  0  0
    7.9415    1.3088   -6.0094 H   0  0  0  0  0  0  0  0  0  0  0  0
    6.1312    2.9621   -5.5607 H   0  0  0  0  0  0  0  0  0  0  0  0
    4.2665    3.2263   -3.3790 S   0  0  0  0  0  0  0  0  0  0  0  0
    3.9358    3.2181   -1.9328 O   0  0  0  0  0  0  0  0  0  0  0  0
    2.9769    2.5680   -4.1886 O   0  0  0  0  0  0  0  0  0  0  0  0
    4.5745    4.4747   -4.1032 O   0  0  0  0  0  0  0  0  0  0  0  0
    8.7288   -0.7916   -4.4646 C   0  0  0  0  0  0  0  0  0  0  0  0
    9.7026   -0.2821   -4.5040 H   0  0  0  0  0  0  0  0  0  0  0  0
    8.7829   -1.5705   -3.6938 H   0  0  0  0  0  0  0  0  0  0  0  0
    8.5835   -1.2870   -5.4356 H   0  0  0  0  0  0  0  0  0  0  0  0
   -2.4306   -1.1707   -2.3496 O   0  0  0  0  0  0  0  0  0  0  0  0
   -3.6894   -0.6785   -1.8949 C   0  0  0  0  0  0  0  0  0  0  0  0
   -4.3896   -1.5128   -2.0040 H   0  0  0  0  0  0  0  0  0  0  0  0
   -4.0292    0.1696   -2.5083 H   0  0  0  0  0  0  0  0  0  0  0  0
   -3.6385   -0.3767   -0.8381 H   0  0  0  0  0  0  0  0  0  0  0  0
  1  2  2  0  0  0  0
  1  6  1  0  0  0  0
  2  3  1  0  0  0  0
  3  4  2  0  0  0  0
  4  9  1  0  0  0  0
  5  4  1  0  0  0  0
  5 10  1  0  0  0  0
  6  5  2  0  0  0  0
  7  1  1  0  0  0  0
 11 12  3  0  0  0  0
 13 19  1  0  0  0  0
 14 13  1  0  0  0  0
 14 20  1  0  0  0  0
 15 14  2  0  0  0  0
 16 17  2  0  0  0  0
 16 15  1  0  0  0  0
 17 18  1  0  0  0  0
 18 23  1  0  0  0  0
 18 13  2  0  0  0  0
 21 16  1  0  0  0  0
 22 17  1  0  0  0  0
 23 24  2  0  0  0  0
 25  8  1  0  0  0  0
 25 23  1  0  0  0  0
 26 23  2  0  0  0  0
 27 15  1  0  0  0  0
 27 29  1  0  0  0  0
 28 27  1  0  0  0  0
 30 27  1  0  0  0  0
 31  6  1  0  0  0  0
 31 32  1  0  0  0  0
 32 35  1  0  0  0  0
 33 32  1  0  0  0  0
 34 32  1  0  0  0  0
M  RAD  2   2   2   3   2
M  END
