Coordinates from ORCA-job p-CH3O-Ph-N2-OTs-B3LYPG-aug-cc-pVDZ-scan-d09-49-n400
 OpenBabel07022015293D

 35 34  0  0  0  0  0  0  0  0999 V2000
   -0.1380   -1.0371   -2.7697 C   0  0  0  0  0  0  0  0  0  0  0  0
    0.9305   -0.1812   -2.6476 C   0  0  0  0  0  0  0  0  0  0  0  0
    0.9905    1.0158   -2.2756 C   0  0  0  0  0  0  0  0  0  0  0  0
   -0.1151    1.7255   -1.8042 C   0  0  0  0  0  0  0  0  0  0  0  0
   -1.2986    0.9623   -1.8523 C   0  0  0  0  0  0  0  0  0  0  0  0
   -1.3178   -0.3788   -2.3178 C   0  0  0  0  0  0  0  0  0  0  0  0
   -0.1600   -2.0682   -3.1124 H   0  0  0  0  0  0  0  0  0  0  0  0
    2.4274    2.0214   -3.5753 H   0  0  0  0  0  0  0  0  0  0  0  0
   -0.1057    2.7579   -1.4620 H   0  0  0  0  0  0  0  0  0  0  0  0
   -2.2241    1.4324   -1.5284 H   0  0  0  0  0  0  0  0  0  0  0  0
    1.2457    5.0568   -0.8030 N   0  0  0  0  0  0  0  0  0  0  0  0
    1.8885    5.8898   -0.4693 N   0  0  0  0  0  0  0  0  0  0  0  0
    5.7888    1.0395   -2.7457 C   0  0  0  0  0  0  0  0  0  0  0  0
    6.8129    0.1221   -3.0025 C   0  0  0  0  0  0  0  0  0  0  0  0
    7.5858    0.2043   -4.1697 C   0  0  0  0  0  0  0  0  0  0  0  0
    7.3129    1.2367   -5.0850 C   0  0  0  0  0  0  0  0  0  0  0  0
    6.2970    2.1618   -4.8506 C   0  0  0  0  0  0  0  0  0  0  0  0
    5.5442    2.0471   -3.6783 C   0  0  0  0  0  0  0  0  0  0  0  0
    5.2012    0.9879   -1.8313 H   0  0  0  0  0  0  0  0  0  0  0  0
    7.0164   -0.6642   -2.2743 H   0  0  0  0  0  0  0  0  0  0  0  0
    7.9107    1.3192   -5.9938 H   0  0  0  0  0  0  0  0  0  0  0  0
    6.0967    2.9700   -5.5515 H   0  0  0  0  0  0  0  0  0  0  0  0
    4.2245    3.2326   -3.3761 S   0  0  0  0  0  0  0  0  0  0  0  0
    3.8822    3.2187   -1.9327 O   0  0  0  0  0  0  0  0  0  0  0  0
    2.9447    2.5744   -4.1998 O   0  0  0  0  0  0  0  0  0  0  0  0
    4.5330    4.4844   -4.0942 O   0  0  0  0  0  0  0  0  0  0  0  0
    8.6980   -0.7780   -4.4445 C   0  0  0  0  0  0  0  0  0  0  0  0
    9.6715   -0.2679   -4.4842 H   0  0  0  0  0  0  0  0  0  0  0  0
    8.7521   -1.5553   -3.6720 H   0  0  0  0  0  0  0  0  0  0  0  0
    8.5536   -1.2754   -5.4146 H   0  0  0  0  0  0  0  0  0  0  0  0
   -2.4426   -1.1503   -2.3620 O   0  0  0  0  0  0  0  0  0  0  0  0
   -3.6695   -0.6068   -1.8788 C   0  0  0  0  0  0  0  0  0  0  0  0
   -4.4074   -1.4087   -1.9814 H   0  0  0  0  0  0  0  0  0  0  0  0
   -3.9839    0.2604   -2.4788 H   0  0  0  0  0  0  0  0  0  0  0  0
   -3.5858   -0.3171   -0.8206 H   0  0  0  0  0  0  0  0  0  0  0  0
  1  2  2  0  0  0  0
  1  6  1  0  0  0  0
  2  3  1  0  0  0  0
  3  4  2  0  0  0  0
  4  9  1  0  0  0  0
  5  4  1  0  0  0  0
  5 10  1  0  0  0  0
  6  5  2  0  0  0  0
  7  1  1  0  0  0  0
 11 12  3  0  0  0  0
 13 19  1  0  0  0  0
 14 13  1  0  0  0  0
 14 20  1  0  0  0  0
 15 14  2  0  0  0  0
 16 17  2  0  0  0  0
 16 15  1  0  0  0  0
 17 18  1  0  0  0  0
 18 23  1  0  0  0  0
 18 13  2  0  0  0  0
 21 16  1  0  0  0  0
 22 17  1  0  0  0  0
 23 24  2  0  0  0  0
 25  8  1  0  0  0  0
 25 23  1  0  0  0  0
 26 23  2  0  0  0  0
 27 15  1  0  0  0  0
 27 29  1  0  0  0  0
 28 27  1  0  0  0  0
 30 27  1  0  0  0  0
 31  6  1  0  0  0  0
 31 32  1  0  0  0  0
 32 35  1  0  0  0  0
 33 32  1  0  0  0  0
 34 32  1  0  0  0  0
M  RAD  2   2   2   3   2
M  END
