Coordinates from ORCA-job p-CH3O-Ph-N2-OTs-B3LYPG-aug-cc-pVDZ-scan-d09-49-n400
 OpenBabel07022015293D

 35 34  0  0  0  0  0  0  0  0999 V2000
   -0.2541    0.2681   -2.9772 C   0  0  0  0  0  0  0  0  0  0  0  0
    0.4974    1.4064   -2.6698 C   0  0  0  0  0  0  0  0  0  0  0  0
    0.0357    2.2342   -1.8392 C   0  0  0  0  0  0  0  0  0  0  0  0
   -1.1080    2.3264   -1.0930 C   0  0  0  0  0  0  0  0  0  0  0  0
   -1.9077    1.1911   -1.3705 C   0  0  0  0  0  0  0  0  0  0  0  0
   -1.4927    0.1915   -2.2863 C   0  0  0  0  0  0  0  0  0  0  0  0
    0.0305   -0.5195   -3.6732 H   0  0  0  0  0  0  0  0  0  0  0  0
    2.2892    1.7278   -3.6051 H   0  0  0  0  0  0  0  0  0  0  0  0
   -1.3956    3.1109   -0.3990 H   0  0  0  0  0  0  0  0  0  0  0  0
   -2.8620    1.1089   -0.8551 H   0  0  0  0  0  0  0  0  0  0  0  0
    1.1980    4.7066   -0.8814 N   0  0  0  0  0  0  0  0  0  0  0  0
    2.0186    5.4447   -0.8745 N   0  0  0  0  0  0  0  0  0  0  0  0
    5.9810    0.7791   -2.8811 C   0  0  0  0  0  0  0  0  0  0  0  0
    7.1156   -0.0163   -3.0579 C   0  0  0  0  0  0  0  0  0  0  0  0
    7.9354    0.1274   -4.1881 C   0  0  0  0  0  0  0  0  0  0  0  0
    7.5921    1.0945   -5.1479 C   0  0  0  0  0  0  0  0  0  0  0  0
    6.4629    1.8995   -4.9925 C   0  0  0  0  0  0  0  0  0  0  0  0
    5.6689    1.7263   -3.8567 C   0  0  0  0  0  0  0  0  0  0  0  0
    5.3527    0.6750   -1.9984 H   0  0  0  0  0  0  0  0  0  0  0  0
    7.3697   -0.7562   -2.2976 H   0  0  0  0  0  0  0  0  0  0  0  0
    8.2228    1.2226   -6.0289 H   0  0  0  0  0  0  0  0  0  0  0  0
    6.2009    2.6555   -5.7301 H   0  0  0  0  0  0  0  0  0  0  0  0
    4.2123    2.7575   -3.6446 S   0  0  0  0  0  0  0  0  0  0  0  0
    3.9347    2.9525   -2.1990 O   0  0  0  0  0  0  0  0  0  0  0  0
    3.0470    1.7419   -4.2394 O   0  0  0  0  0  0  0  0  0  0  0  0
    4.3131    3.9168   -4.5567 O   0  0  0  0  0  0  0  0  0  0  0  0
    9.1693   -0.7226   -4.3691 C   0  0  0  0  0  0  0  0  0  0  0  0
   10.0808   -0.1127   -4.2826 H   0  0  0  0  0  0  0  0  0  0  0  0
    9.2230   -1.5205   -3.6181 H   0  0  0  0  0  0  0  0  0  0  0  0
    9.1854   -1.1894   -5.3640 H   0  0  0  0  0  0  0  0  0  0  0  0
   -2.2387   -0.9149   -2.5797 O   0  0  0  0  0  0  0  0  0  0  0  0
   -3.5087   -1.0752   -1.9565 C   0  0  0  0  0  0  0  0  0  0  0  0
   -3.9211   -2.0026   -2.3641 H   0  0  0  0  0  0  0  0  0  0  0  0
   -4.1801   -0.2371   -2.1993 H   0  0  0  0  0  0  0  0  0  0  0  0
   -3.4080   -1.1664   -0.8636 H   0  0  0  0  0  0  0  0  0  0  0  0
  1  2  2  0  0  0  0
  1  6  1  0  0  0  0
  2  3  1  0  0  0  0
  3  4  2  0  0  0  0
  4  9  1  0  0  0  0
  5  4  1  0  0  0  0
  5 10  1  0  0  0  0
  6  5  2  0  0  0  0
  7  1  1  0  0  0  0
 11 12  3  0  0  0  0
 13 19  1  0  0  0  0
 14 13  1  0  0  0  0
 14 20  1  0  0  0  0
 15 14  2  0  0  0  0
 16 17  2  0  0  0  0
 16 15  1  0  0  0  0
 17 18  1  0  0  0  0
 18 23  1  0  0  0  0
 18 13  2  0  0  0  0
 21 16  1  0  0  0  0
 22 17  1  0  0  0  0
 23 24  2  0  0  0  0
 25 23  1  0  0  0  0
 25  8  1  0  0  0  0
 26 23  2  0  0  0  0
 27 28  1  0  0  0  0
 27 15  1  0  0  0  0
 27 29  1  0  0  0  0
 30 27  1  0  0  0  0
 31  6  1  0  0  0  0
 31 32  1  0  0  0  0
 32 35  1  0  0  0  0
 33 32  1  0  0  0  0
 34 32  1  0  0  0  0
M  RAD  2   2   2   3   2
M  END
