Coordinates from ORCA-job p-CH3O-Ph-N2-OTs-B3LYPG-aug-cc-pVDZ-scan-d09-49-n400
 OpenBabel07022015293D

 35 34  0  0  0  0  0  0  0  0999 V2000
   -0.4539    0.0420   -2.6047 C   0  0  0  0  0  0  0  0  0  0  0  0
    0.5775    0.9831   -2.7793 C   0  0  0  0  0  0  0  0  0  0  0  0
    0.2469    2.1397   -2.1770 C   0  0  0  0  0  0  0  0  0  0  0  0
   -0.8019    2.6093   -1.4510 C   0  0  0  0  0  0  0  0  0  0  0  0
   -1.8009    1.6253   -1.3046 C   0  0  0  0  0  0  0  0  0  0  0  0
   -1.6229    0.3512   -1.8791 C   0  0  0  0  0  0  0  0  0  0  0  0
   -0.3435   -0.9492   -3.0425 H   0  0  0  0  0  0  0  0  0  0  0  0
    1.5135    0.7601   -3.3551 H   0  0  0  0  0  0  0  0  0  0  0  0
   -0.8857    3.6053   -1.0283 H   0  0  0  0  0  0  0  0  0  0  0  0
   -2.6927    1.8873   -0.7421 H   0  0  0  0  0  0  0  0  0  0  0  0
    1.6183    3.6271   -2.3752 N   0  0  0  0  0  0  0  0  0  0  0  0
    1.9560    4.6791   -2.3837 N   0  0  0  0  0  0  0  0  0  0  0  0
    5.8398   -0.0140   -4.5964 C   0  0  0  0  0  0  0  0  0  0  0  0
    7.1906   -0.3678   -4.6946 C   0  0  0  0  0  0  0  0  0  0  0  0
    8.2037    0.4850   -4.2361 C   0  0  0  0  0  0  0  0  0  0  0  0
    7.8300    1.7197   -3.6771 C   0  0  0  0  0  0  0  0  0  0  0  0
    6.4900    2.0895   -3.5757 C   0  0  0  0  0  0  0  0  0  0  0  0
    5.5011    1.2149   -4.0359 C   0  0  0  0  0  0  0  0  0  0  0  0
    5.0559   -0.6814   -4.9493 H   0  0  0  0  0  0  0  0  0  0  0  0
    7.4583   -1.3285   -5.1371 H   0  0  0  0  0  0  0  0  0  0  0  0
    8.5999    2.4056   -3.3181 H   0  0  0  0  0  0  0  0  0  0  0  0
    6.2096    3.0495   -3.1455 H   0  0  0  0  0  0  0  0  0  0  0  0
    3.7711    1.7398   -3.9240 S   0  0  0  0  0  0  0  0  0  0  0  0
    3.5380    2.0793   -2.4539 O   0  0  0  0  0  0  0  0  0  0  0  0
    2.9409    0.5269   -4.3393 O   0  0  0  0  0  0  0  0  0  0  0  0
    3.6017    2.9279   -4.8236 O   0  0  0  0  0  0  0  0  0  0  0  0
    9.6577    0.0844   -4.3183 C   0  0  0  0  0  0  0  0  0  0  0  0
   10.0424   -0.2128   -3.3306 H   0  0  0  0  0  0  0  0  0  0  0  0
    9.7978   -0.7649   -4.9996 H   0  0  0  0  0  0  0  0  0  0  0  0
   10.2836    0.9154   -4.6733 H   0  0  0  0  0  0  0  0  0  0  0  0
   -2.5293   -0.6521   -1.7887 O   0  0  0  0  0  0  0  0  0  0  0  0
   -3.7472   -0.4151   -1.0806 C   0  0  0  0  0  0  0  0  0  0  0  0
   -4.3084   -1.3518   -1.1386 H   0  0  0  0  0  0  0  0  0  0  0  0
   -4.3263    0.3914   -1.5546 H   0  0  0  0  0  0  0  0  0  0  0  0
   -3.5512   -0.1693   -0.0264 H   0  0  0  0  0  0  0  0  0  0  0  0
  1  6  1  0  0  0  0
  2  1  2  0  0  0  0
  2  3  1  0  0  0  0
  3  4  2  0  0  0  0
  4  5  1  0  0  0  0
  4  9  1  0  0  0  0
  5 10  1  0  0  0  0
  6 31  1  0  0  0  0
  6  5  2  0  0  0  0
  7  1  1  0  0  0  0
  8  2  1  0  0  0  0
 12 11  3  0  0  0  0
 13 18  1  0  0  0  0
 14 13  2  0  0  0  0
 14 15  1  0  0  0  0
 15 16  2  0  0  0  0
 16 17  1  0  0  0  0
 16 21  1  0  0  0  0
 17 22  1  0  0  0  0
 18 23  1  0  0  0  0
 18 17  2  0  0  0  0
 19 13  1  0  0  0  0
 20 14  1  0  0  0  0
 23 24  1  0  0  0  0
 25 23  2  0  0  0  0
 26 23  2  0  0  0  0
 27 15  1  0  0  0  0
 27 28  1  0  0  0  0
 29 27  1  0  0  0  0
 30 27  1  0  0  0  0
 31 32  1  0  0  0  0
 32 35  1  0  0  0  0
 33 32  1  0  0  0  0
 34 32  1  0  0  0  0
M  RAD  2   3   2  24   2
M  END
