Coordinates from ORCA-job p-CH3O-Ph-N2-OTs-B3LYPG-aug-cc-pVDZ-scan-d09-49-n400
 OpenBabel07022015293D

 35 34  0  0  0  0  0  0  0  0999 V2000
   -0.2659    0.2496   -2.9957 C   0  0  0  0  0  0  0  0  0  0  0  0
    0.4920    1.3827   -2.6880 C   0  0  0  0  0  0  0  0  0  0  0  0
    0.0452    2.2115   -1.8511 C   0  0  0  0  0  0  0  0  0  0  0  0
   -1.0922    2.3060   -1.0948 C   0  0  0  0  0  0  0  0  0  0  0  0
   -1.9003    1.1759   -1.3707 C   0  0  0  0  0  0  0  0  0  0  0  0
   -1.4990    0.1777   -2.2941 C   0  0  0  0  0  0  0  0  0  0  0  0
    0.0085   -0.5364   -3.6975 H   0  0  0  0  0  0  0  0  0  0  0  0
    2.2938    1.7286   -3.6230 H   0  0  0  0  0  0  0  0  0  0  0  0
   -1.3704    3.0887   -0.3949 H   0  0  0  0  0  0  0  0  0  0  0  0
   -2.8506    1.0963   -0.8476 H   0  0  0  0  0  0  0  0  0  0  0  0
    1.2282    4.7691   -0.8358 N   0  0  0  0  0  0  0  0  0  0  0  0
    2.0419    5.5148   -0.8215 N   0  0  0  0  0  0  0  0  0  0  0  0
    5.9775    0.7880   -2.8826 C   0  0  0  0  0  0  0  0  0  0  0  0
    7.1112   -0.0099   -3.0538 C   0  0  0  0  0  0  0  0  0  0  0  0
    7.9333    0.1275   -4.1832 C   0  0  0  0  0  0  0  0  0  0  0  0
    7.5932    1.0910   -5.1477 C   0  0  0  0  0  0  0  0  0  0  0  0
    6.4652    1.8986   -4.9978 C   0  0  0  0  0  0  0  0  0  0  0  0
    5.6688    1.7317   -3.8627 C   0  0  0  0  0  0  0  0  0  0  0  0
    5.3474    0.6885   -2.0006 H   0  0  0  0  0  0  0  0  0  0  0  0
    7.3628   -0.7469   -2.2899 H   0  0  0  0  0  0  0  0  0  0  0  0
    8.2256    1.2145   -6.0282 H   0  0  0  0  0  0  0  0  0  0  0  0
    6.2058    2.6519   -5.7391 H   0  0  0  0  0  0  0  0  0  0  0  0
    4.2126    2.7655   -3.6592 S   0  0  0  0  0  0  0  0  0  0  0  0
    3.9268    2.9614   -2.2155 O   0  0  0  0  0  0  0  0  0  0  0  0
    3.0476    1.7527   -4.2606 O   0  0  0  0  0  0  0  0  0  0  0  0
    4.3204    3.9233   -4.5722 O   0  0  0  0  0  0  0  0  0  0  0  0
    9.1660   -0.7253   -4.3586 C   0  0  0  0  0  0  0  0  0  0  0  0
   10.0783   -0.1164   -4.2750 H   0  0  0  0  0  0  0  0  0  0  0  0
    9.2182   -1.5191   -3.6030 H   0  0  0  0  0  0  0  0  0  0  0  0
    9.1819   -1.1978   -5.3508 H   0  0  0  0  0  0  0  0  0  0  0  0
   -2.2539   -0.9232   -2.5854 O   0  0  0  0  0  0  0  0  0  0  0  0
   -3.5197   -1.0782   -1.9523 C   0  0  0  0  0  0  0  0  0  0  0  0
   -3.9410   -2.0017   -2.3598 H   0  0  0  0  0  0  0  0  0  0  0  0
   -4.1880   -0.2352   -2.1867 H   0  0  0  0  0  0  0  0  0  0  0  0
   -3.4107   -1.1739   -0.8606 H   0  0  0  0  0  0  0  0  0  0  0  0
  1  2  2  0  0  0  0
  1  6  1  0  0  0  0
  2  3  1  0  0  0  0
  3  4  2  0  0  0  0
  4  9  1  0  0  0  0
  5  4  1  0  0  0  0
  5 10  1  0  0  0  0
  6  5  2  0  0  0  0
  7  1  1  0  0  0  0
 11 12  3  0  0  0  0
 13 19  1  0  0  0  0
 14 13  1  0  0  0  0
 14 20  1  0  0  0  0
 15 14  2  0  0  0  0
 16 17  2  0  0  0  0
 16 15  1  0  0  0  0
 17 18  1  0  0  0  0
 18 23  1  0  0  0  0
 18 13  2  0  0  0  0
 21 16  1  0  0  0  0
 22 17  1  0  0  0  0
 23 24  2  0  0  0  0
 25 23  1  0  0  0  0
 25  8  1  0  0  0  0
 26 23  2  0  0  0  0
 27 28  1  0  0  0  0
 27 15  1  0  0  0  0
 27 29  1  0  0  0  0
 30 27  1  0  0  0  0
 31  6  1  0  0  0  0
 31 32  1  0  0  0  0
 32 35  1  0  0  0  0
 33 32  1  0  0  0  0
 34 32  1  0  0  0  0
M  RAD  2   2   2   3   2
M  END
