Coordinates from ORCA-job p-CH3O-Ph-N2-OTs-B3LYPG-aug-cc-pVDZ-scan-d09-49-n400
 OpenBabel07022015293D

 35 34  0  0  0  0  0  0  0  0999 V2000
   -0.0719    0.2417   -2.8033 C   0  0  0  0  0  0  0  0  0  0  0  0
    0.6764    1.4239   -3.0227 C   0  0  0  0  0  0  0  0  0  0  0  0
    0.1117    2.4014   -2.3445 C   0  0  0  0  0  0  0  0  0  0  0  0
   -0.9349    2.6368   -1.5196 C   0  0  0  0  0  0  0  0  0  0  0  0
   -1.6457    1.4277   -1.3352 C   0  0  0  0  0  0  0  0  0  0  0  0
   -1.2103    0.2441   -1.9690 C   0  0  0  0  0  0  0  0  0  0  0  0
    0.2394   -0.6848   -3.2851 H   0  0  0  0  0  0  0  0  0  0  0  0
    1.6593    1.4555   -3.7108 H   0  0  0  0  0  0  0  0  0  0  0  0
   -1.2137    3.5775   -1.0569 H   0  0  0  0  0  0  0  0  0  0  0  0
   -2.5301    1.4517   -0.7037 H   0  0  0  0  0  0  0  0  0  0  0  0
    1.1340    4.3778   -2.6299 N   0  0  0  0  0  0  0  0  0  0  0  0
    1.4900    5.4148   -2.7470 N   0  0  0  0  0  0  0  0  0  0  0  0
    5.4272    0.2455   -4.4875 C   0  0  0  0  0  0  0  0  0  0  0  0
    6.6420   -0.4502   -4.4788 C   0  0  0  0  0  0  0  0  0  0  0  0
    7.8225    0.1545   -4.0309 C   0  0  0  0  0  0  0  0  0  0  0  0
    7.7601    1.4890   -3.5905 C   0  0  0  0  0  0  0  0  0  0  0  0
    6.5592    2.1964   -3.5940 C   0  0  0  0  0  0  0  0  0  0  0  0
    5.3950    1.5646   -4.0424 C   0  0  0  0  0  0  0  0  0  0  0  0
    4.5119   -0.2248   -4.8399 H   0  0  0  0  0  0  0  0  0  0  0  0
    6.6646   -1.4840   -4.8273 H   0  0  0  0  0  0  0  0  0  0  0  0
    8.6675    1.9824   -3.2380 H   0  0  0  0  0  0  0  0  0  0  0  0
    6.5249    3.2304   -3.2534 H   0  0  0  0  0  0  0  0  0  0  0  0
    3.8538    2.5186   -4.0440 S   0  0  0  0  0  0  0  0  0  0  0  0
    3.5387    2.8679   -2.6118 O   0  0  0  0  0  0  0  0  0  0  0  0
    2.7907    1.5196   -4.5974 O   0  0  0  0  0  0  0  0  0  0  0  0
    4.0552    3.6828   -4.9561 O   0  0  0  0  0  0  0  0  0  0  0  0
    9.1342   -0.5943   -4.0122 C   0  0  0  0  0  0  0  0  0  0  0  0
    9.5126   -0.7059   -2.9852 H   0  0  0  0  0  0  0  0  0  0  0  0
    9.0276   -1.5975   -4.4435 H   0  0  0  0  0  0  0  0  0  0  0  0
    9.9046   -0.0590   -4.5866 H   0  0  0  0  0  0  0  0  0  0  0  0
   -1.8304   -0.9560   -1.8352 O   0  0  0  0  0  0  0  0  0  0  0  0
   -2.9816   -1.0450   -0.9957 C   0  0  0  0  0  0  0  0  0  0  0  0
   -3.2729   -2.0988   -1.0060 H   0  0  0  0  0  0  0  0  0  0  0  0
   -3.8052   -0.4315   -1.3913 H   0  0  0  0  0  0  0  0  0  0  0  0
   -2.7458   -0.7410    0.0353 H   0  0  0  0  0  0  0  0  0  0  0  0
  1  6  1  0  0  0  0
  2  1  2  0  0  0  0
  2  3  1  0  0  0  0
  3  4  2  0  0  0  0
  4  5  1  0  0  0  0
  4  9  1  0  0  0  0
  5 10  1  0  0  0  0
  6 31  1  0  0  0  0
  6  5  2  0  0  0  0
  7  1  1  0  0  0  0
  8  2  1  0  0  0  0
 12 11  3  0  0  0  0
 13 14  2  0  0  0  0
 13 18  1  0  0  0  0
 14 15  1  0  0  0  0
 15 27  1  0  0  0  0
 15 16  2  0  0  0  0
 16 21  1  0  0  0  0
 17 16  1  0  0  0  0
 17 22  1  0  0  0  0
 18 17  2  0  0  0  0
 19 13  1  0  0  0  0
 20 14  1  0  0  0  0
 23 18  1  0  0  0  0
 23 24  1  0  0  0  0
 25 23  2  0  0  0  0
 26 23  2  0  0  0  0
 27 28  1  0  0  0  0
 29 27  1  0  0  0  0
 30 27  1  0  0  0  0
 31 32  1  0  0  0  0
 32 35  1  0  0  0  0
 33 32  1  0  0  0  0
 34 32  1  0  0  0  0
M  RAD  2   3   2  24   2
M  END
