Coordinates from ORCA-job p-CH3O-Ph-N2-OTs-B3LYPG-aug-cc-pVDZ-scan-d09-49-n400
 OpenBabel07022015293D

 35 34  0  0  0  0  0  0  0  0999 V2000
   -0.1450   -1.0534   -2.7758 C   0  0  0  0  0  0  0  0  0  0  0  0
    0.9313   -0.2076   -2.6570 C   0  0  0  0  0  0  0  0  0  0  0  0
    1.0086    0.9899   -2.2901 C   0  0  0  0  0  0  0  0  0  0  0  0
   -0.0893    1.7104   -1.8144 C   0  0  0  0  0  0  0  0  0  0  0  0
   -1.2809    0.9601   -1.8580 C   0  0  0  0  0  0  0  0  0  0  0  0
   -1.3163   -0.3816   -2.3214 C   0  0  0  0  0  0  0  0  0  0  0  0
   -0.1780   -2.0855   -3.1149 H   0  0  0  0  0  0  0  0  0  0  0  0
    2.4212    2.0129   -3.5793 H   0  0  0  0  0  0  0  0  0  0  0  0
   -0.0673    2.7431   -1.4741 H   0  0  0  0  0  0  0  0  0  0  0  0
   -2.2004    1.4407   -1.5323 H   0  0  0  0  0  0  0  0  0  0  0  0
    1.2315    5.0423   -0.8142 N   0  0  0  0  0  0  0  0  0  0  0  0
    1.8765    5.8776   -0.4910 N   0  0  0  0  0  0  0  0  0  0  0  0
    5.7844    1.0382   -2.7429 C   0  0  0  0  0  0  0  0  0  0  0  0
    6.8106    0.1235   -3.0007 C   0  0  0  0  0  0  0  0  0  0  0  0
    7.5842    0.2098   -4.1671 C   0  0  0  0  0  0  0  0  0  0  0  0
    7.3099    1.2434   -5.0805 C   0  0  0  0  0  0  0  0  0  0  0  0
    6.2917    2.1659   -4.8450 C   0  0  0  0  0  0  0  0  0  0  0  0
    5.5383    2.0472   -3.6737 C   0  0  0  0  0  0  0  0  0  0  0  0
    5.1957    0.9834   -1.8294 H   0  0  0  0  0  0  0  0  0  0  0  0
    7.0152   -0.6639   -2.2740 H   0  0  0  0  0  0  0  0  0  0  0  0
    7.9082    1.3288   -5.9887 H   0  0  0  0  0  0  0  0  0  0  0  0
    6.0904    2.9750   -5.5446 H   0  0  0  0  0  0  0  0  0  0  0  0
    4.2149    3.2283   -3.3704 S   0  0  0  0  0  0  0  0  0  0  0  0
    3.8686    3.2082   -1.9277 O   0  0  0  0  0  0  0  0  0  0  0  0
    2.9394    2.5698   -4.2003 O   0  0  0  0  0  0  0  0  0  0  0  0
    4.5224    4.4839   -4.0823 O   0  0  0  0  0  0  0  0  0  0  0  0
    8.6986   -0.7698   -4.4430 C   0  0  0  0  0  0  0  0  0  0  0  0
    9.6712   -0.2579   -4.4802 H   0  0  0  0  0  0  0  0  0  0  0  0
    8.7530   -1.5490   -3.6725 H   0  0  0  0  0  0  0  0  0  0  0  0
    8.5564   -1.2650   -5.4146 H   0  0  0  0  0  0  0  0  0  0  0  0
   -2.4493   -1.1412   -2.3600 O   0  0  0  0  0  0  0  0  0  0  0  0
   -3.6680   -0.5851   -1.8702 C   0  0  0  0  0  0  0  0  0  0  0  0
   -4.4144   -1.3797   -1.9684 H   0  0  0  0  0  0  0  0  0  0  0  0
   -3.9772    0.2848   -2.4689 H   0  0  0  0  0  0  0  0  0  0  0  0
   -3.5757   -0.2958   -0.8127 H   0  0  0  0  0  0  0  0  0  0  0  0
  1  2  2  0  0  0  0
  1  6  1  0  0  0  0
  2  3  1  0  0  0  0
  3  4  2  0  0  0  0
  4  9  1  0  0  0  0
  5  4  1  0  0  0  0
  5 10  1  0  0  0  0
  6  5  2  0  0  0  0
  7  1  1  0  0  0  0
 11 12  3  0  0  0  0
 13 19  1  0  0  0  0
 14 13  1  0  0  0  0
 14 20  1  0  0  0  0
 15 14  2  0  0  0  0
 16 17  2  0  0  0  0
 16 15  1  0  0  0  0
 17 18  1  0  0  0  0
 18 23  1  0  0  0  0
 18 13  2  0  0  0  0
 21 16  1  0  0  0  0
 22 17  1  0  0  0  0
 23 24  2  0  0  0  0
 25  8  1  0  0  0  0
 25 23  1  0  0  0  0
 26 23  2  0  0  0  0
 27 15  1  0  0  0  0
 27 29  1  0  0  0  0
 28 27  1  0  0  0  0
 30 27  1  0  0  0  0
 31  6  1  0  0  0  0
 31 32  1  0  0  0  0
 32 35  1  0  0  0  0
 33 32  1  0  0  0  0
 34 32  1  0  0  0  0
M  RAD  2   2   2   3   2
M  END
