Coordinates from ORCA-job p-CH3O-Ph-N2-OTs-B3LYPG-aug-cc-pVDZ-scan-d09-49-n400
 OpenBabel07022015293D

 35 34  0  0  0  0  0  0  0  0999 V2000
   -0.5026   -1.3319   -2.9115 C   0  0  0  0  0  0  0  0  0  0  0  0
    0.7660   -0.8034   -2.9011 C   0  0  0  0  0  0  0  0  0  0  0  0
    1.1867    0.3254   -2.5485 C   0  0  0  0  0  0  0  0  0  0  0  0
    0.3704    1.2947   -1.9580 C   0  0  0  0  0  0  0  0  0  0  0  0
   -0.9761    0.8863   -1.8904 C   0  0  0  0  0  0  0  0  0  0  0  0
   -1.4078   -0.3870   -2.3463 C   0  0  0  0  0  0  0  0  0  0  0  0
   -0.8355   -2.3149   -3.2338 H   0  0  0  0  0  0  0  0  0  0  0  0
    2.3011    1.4697   -3.9915 H   0  0  0  0  0  0  0  0  0  0  0  0
    0.6978    2.2757   -1.6234 H   0  0  0  0  0  0  0  0  0  0  0  0
   -1.7008    1.5881   -1.4832 H   0  0  0  0  0  0  0  0  0  0  0  0
    1.2834    4.6484   -0.3523 N   0  0  0  0  0  0  0  0  0  0  0  0
    1.9578    5.4451    0.0068 N   0  0  0  0  0  0  0  0  0  0  0  0
    5.6222    0.9974   -2.8655 C   0  0  0  0  0  0  0  0  0  0  0  0
    6.7830    0.2278   -2.9855 C   0  0  0  0  0  0  0  0  0  0  0  0
    7.6776    0.4229   -4.0482 C   0  0  0  0  0  0  0  0  0  0  0  0
    7.3856    1.4163   -4.9992 C   0  0  0  0  0  0  0  0  0  0  0  0
    6.2330    2.1950   -4.9012 C   0  0  0  0  0  0  0  0  0  0  0  0
    5.3626    1.9704   -3.8307 C   0  0  0  0  0  0  0  0  0  0  0  0
    4.9356    0.8549   -2.0331 H   0  0  0  0  0  0  0  0  0  0  0  0
    6.9984   -0.5312   -2.2324 H   0  0  0  0  0  0  0  0  0  0  0  0
    8.0763    1.5855   -5.8269 H   0  0  0  0  0  0  0  0  0  0  0  0
    6.0118    2.9726   -5.6297 H   0  0  0  0  0  0  0  0  0  0  0  0
    3.8623    2.9554   -3.7118 S   0  0  0  0  0  0  0  0  0  0  0  0
    3.3918    2.9542   -2.3036 O   0  0  0  0  0  0  0  0  0  0  0  0
    2.7762    2.0757   -4.6017 O   0  0  0  0  0  0  0  0  0  0  0  0
    4.0492    4.2093   -4.4664 O   0  0  0  0  0  0  0  0  0  0  0  0
    8.9370   -0.3998   -4.1695 C   0  0  0  0  0  0  0  0  0  0  0  0
    9.8298    0.2290   -4.0373 H   0  0  0  0  0  0  0  0  0  0  0  0
    8.9703   -1.1991   -3.4187 H   0  0  0  0  0  0  0  0  0  0  0  0
    9.0115   -0.8630   -5.1635 H   0  0  0  0  0  0  0  0  0  0  0  0
   -2.6983   -0.8225   -2.2706 O   0  0  0  0  0  0  0  0  0  0  0  0
   -3.6757    0.0223   -1.6658 C   0  0  0  0  0  0  0  0  0  0  0  0
   -4.6101   -0.5468   -1.6867 H   0  0  0  0  0  0  0  0  0  0  0  0
   -3.8003    0.9554   -2.2351 H   0  0  0  0  0  0  0  0  0  0  0  0
   -3.4098    0.2540   -0.6237 H   0  0  0  0  0  0  0  0  0  0  0  0
  1  2  2  0  0  0  0
  1  6  1  0  0  0  0
  2  3  1  0  0  0  0
  3  4  2  0  0  0  0
  4  5  1  0  0  0  0
  4  9  1  0  0  0  0
  5 10  1  0  0  0  0
  6 31  1  0  0  0  0
  6  5  2  0  0  0  0
  7  1  1  0  0  0  0
 11 12  3  0  0  0  0
 13 19  1  0  0  0  0
 14 13  1  0  0  0  0
 14 20  1  0  0  0  0
 15 14  2  0  0  0  0
 16 17  2  0  0  0  0
 16 15  1  0  0  0  0
 17 18  1  0  0  0  0
 18 23  1  0  0  0  0
 18 13  2  0  0  0  0
 21 16  1  0  0  0  0
 22 17  1  0  0  0  0
 23 24  2  0  0  0  0
 25  8  1  0  0  0  0
 25 23  1  0  0  0  0
 26 23  2  0  0  0  0
 27 15  1  0  0  0  0
 27 28  1  0  0  0  0
 27 29  1  0  0  0  0
 30 27  1  0  0  0  0
 31 32  1  0  0  0  0
 32 35  1  0  0  0  0
 33 32  1  0  0  0  0
 34 32  1  0  0  0  0
M  RAD  2   2   2   3   2
M  END
