Coordinates from ORCA-job p-CH3O-Ph-N2-OTs-B3LYPG-aug-cc-pVDZ-scan-d09-49-n400
 OpenBabel07022015293D

 35 34  0  0  0  0  0  0  0  0999 V2000
   -0.2717    0.2325   -3.0072 C   0  0  0  0  0  0  0  0  0  0  0  0
    0.4904    1.3626   -2.7006 C   0  0  0  0  0  0  0  0  0  0  0  0
    0.0530    2.1936   -1.8615 C   0  0  0  0  0  0  0  0  0  0  0  0
   -1.0814    2.2913   -1.1002 C   0  0  0  0  0  0  0  0  0  0  0  0
   -1.8948    1.1646   -1.3739 C   0  0  0  0  0  0  0  0  0  0  0  0
   -1.5018    0.1654   -2.2999 C   0  0  0  0  0  0  0  0  0  0  0  0
   -0.0035   -0.5537   -3.7112 H   0  0  0  0  0  0  0  0  0  0  0  0
    2.2987    1.7308   -3.6354 H   0  0  0  0  0  0  0  0  0  0  0  0
   -1.3541    3.0742   -0.3983 H   0  0  0  0  0  0  0  0  0  0  0  0
   -2.8432    1.0879   -0.8469 H   0  0  0  0  0  0  0  0  0  0  0  0
    1.2429    4.8315   -0.7910 N   0  0  0  0  0  0  0  0  0  0  0  0
    2.0506    5.5835   -0.7700 N   0  0  0  0  0  0  0  0  0  0  0  0
    5.9758    0.7947   -2.8832 C   0  0  0  0  0  0  0  0  0  0  0  0
    7.1081   -0.0059   -3.0512 C   0  0  0  0  0  0  0  0  0  0  0  0
    7.9307    0.1257   -4.1809 C   0  0  0  0  0  0  0  0  0  0  0  0
    7.5927    1.0864   -5.1490 C   0  0  0  0  0  0  0  0  0  0  0  0
    6.4664    1.8968   -5.0023 C   0  0  0  0  0  0  0  0  0  0  0  0
    5.6692    1.7355   -3.8668 C   0  0  0  0  0  0  0  0  0  0  0  0
    5.3453    0.6996   -2.0010 H   0  0  0  0  0  0  0  0  0  0  0  0
    7.3582   -0.7406   -2.2846 H   0  0  0  0  0  0  0  0  0  0  0  0
    8.2255    1.2056   -6.0297 H   0  0  0  0  0  0  0  0  0  0  0  0
    6.2088    2.6480   -5.7462 H   0  0  0  0  0  0  0  0  0  0  0  0
    4.2146    2.7728   -3.6686 S   0  0  0  0  0  0  0  0  0  0  0  0
    3.9227    2.9677   -2.2260 O   0  0  0  0  0  0  0  0  0  0  0  0
    3.0483    1.7651   -4.2768 O   0  0  0  0  0  0  0  0  0  0  0  0
    4.3293    3.9304   -4.5807 O   0  0  0  0  0  0  0  0  0  0  0  0
    9.1618   -0.7301   -4.3530 C   0  0  0  0  0  0  0  0  0  0  0  0
   10.0753   -0.1223   -4.2731 H   0  0  0  0  0  0  0  0  0  0  0  0
    9.2133   -1.5204   -3.5937 H   0  0  0  0  0  0  0  0  0  0  0  0
    9.1761   -1.2074   -5.3430 H   0  0  0  0  0  0  0  0  0  0  0  0
   -2.2626   -0.9322   -2.5885 O   0  0  0  0  0  0  0  0  0  0  0  0
   -3.5263   -1.0823   -1.9500 C   0  0  0  0  0  0  0  0  0  0  0  0
   -3.9531   -2.0039   -2.3559 H   0  0  0  0  0  0  0  0  0  0  0  0
   -4.1921   -0.2365   -2.1811 H   0  0  0  0  0  0  0  0  0  0  0  0
   -3.4129   -1.1789   -0.8588 H   0  0  0  0  0  0  0  0  0  0  0  0
  1  2  2  0  0  0  0
  1  6  1  0  0  0  0
  2  3  1  0  0  0  0
  3  4  2  0  0  0  0
  4  9  1  0  0  0  0
  5  4  1  0  0  0  0
  5 10  1  0  0  0  0
  6  5  2  0  0  0  0
  7  1  1  0  0  0  0
 11 12  3  0  0  0  0
 13 19  1  0  0  0  0
 14 13  1  0  0  0  0
 14 20  1  0  0  0  0
 15 14  2  0  0  0  0
 16 17  2  0  0  0  0
 16 15  1  0  0  0  0
 17 18  1  0  0  0  0
 18 23  1  0  0  0  0
 18 13  2  0  0  0  0
 21 16  1  0  0  0  0
 22 17  1  0  0  0  0
 23 24  2  0  0  0  0
 25 23  1  0  0  0  0
 25  8  1  0  0  0  0
 26 23  2  0  0  0  0
 27 28  1  0  0  0  0
 27 15  1  0  0  0  0
 27 29  1  0  0  0  0
 30 27  1  0  0  0  0
 31  6  1  0  0  0  0
 31 32  1  0  0  0  0
 32 35  1  0  0  0  0
 33 32  1  0  0  0  0
 34 32  1  0  0  0  0
M  RAD  2   2   2   3   2
M  END
