Coordinates from ORCA-job p-CH3O-Ph-N2-OTs-B3LYPG-aug-cc-pVDZ-scan-d09-49-n400
 OpenBabel07022015293D

 35 34  0  0  0  0  0  0  0  0999 V2000
   -0.2631    0.2552   -2.9899 C   0  0  0  0  0  0  0  0  0  0  0  0
    0.4935    1.3897   -2.6827 C   0  0  0  0  0  0  0  0  0  0  0  0
    0.0419    2.2181   -1.8477 C   0  0  0  0  0  0  0  0  0  0  0  0
   -1.0973    2.3121   -1.0943 C   0  0  0  0  0  0  0  0  0  0  0  0
   -1.9031    1.1806   -1.3705 C   0  0  0  0  0  0  0  0  0  0  0  0
   -1.4978    0.1819   -2.2916 C   0  0  0  0  0  0  0  0  0  0  0  0
    0.0143   -0.5315   -3.6899 H   0  0  0  0  0  0  0  0  0  0  0  0
    2.2925    1.7280   -3.6168 H   0  0  0  0  0  0  0  0  0  0  0  0
   -1.3782    3.0955   -0.3962 H   0  0  0  0  0  0  0  0  0  0  0  0
   -2.8546    1.1004   -0.8497 H   0  0  0  0  0  0  0  0  0  0  0  0
    1.2192    4.7500   -0.8501 N   0  0  0  0  0  0  0  0  0  0  0  0
    2.0352    5.4933   -0.8381 N   0  0  0  0  0  0  0  0  0  0  0  0
    5.9790    0.7853   -2.8821 C   0  0  0  0  0  0  0  0  0  0  0  0
    7.1131   -0.0118   -3.0552 C   0  0  0  0  0  0  0  0  0  0  0  0
    7.9344    0.1277   -4.1848 C   0  0  0  0  0  0  0  0  0  0  0  0
    7.5932    1.0923   -5.1478 C   0  0  0  0  0  0  0  0  0  0  0  0
    6.4648    1.8990   -4.9962 C   0  0  0  0  0  0  0  0  0  0  0  0
    5.6692    1.7300   -3.8609 C   0  0  0  0  0  0  0  0  0  0  0  0
    5.3495    0.6842   -2.0000 H   0  0  0  0  0  0  0  0  0  0  0  0
    7.3655   -0.7497   -2.2925 H   0  0  0  0  0  0  0  0  0  0  0  0
    8.2251    1.2173   -6.0285 H   0  0  0  0  0  0  0  0  0  0  0  0
    6.2045    2.6531   -5.7363 H   0  0  0  0  0  0  0  0  0  0  0  0
    4.2127    2.7628   -3.6546 S   0  0  0  0  0  0  0  0  0  0  0  0
    3.9300    2.9590   -2.2103 O   0  0  0  0  0  0  0  0  0  0  0  0
    3.0479    1.7486   -4.2531 O   0  0  0  0  0  0  0  0  0  0  0  0
    4.3177    3.9208   -4.5677 O   0  0  0  0  0  0  0  0  0  0  0  0
    9.1675   -0.7242   -4.3620 C   0  0  0  0  0  0  0  0  0  0  0  0
   10.0796   -0.1150   -4.2774 H   0  0  0  0  0  0  0  0  0  0  0  0
    9.2202   -1.5194   -3.6079 H   0  0  0  0  0  0  0  0  0  0  0  0
    9.1835   -1.1948   -5.3551 H   0  0  0  0  0  0  0  0  0  0  0  0
   -2.2500   -0.9206   -2.5836 O   0  0  0  0  0  0  0  0  0  0  0  0
   -3.5171   -1.0771   -1.9535 C   0  0  0  0  0  0  0  0  0  0  0  0
   -3.9358   -2.0018   -2.3611 H   0  0  0  0  0  0  0  0  0  0  0  0
   -4.1863   -0.2355   -2.1904 H   0  0  0  0  0  0  0  0  0  0  0  0
   -3.4106   -1.1715   -0.8615 H   0  0  0  0  0  0  0  0  0  0  0  0
  1  2  2  0  0  0  0
  1  6  1  0  0  0  0
  2  3  1  0  0  0  0
  3  4  2  0  0  0  0
  4  9  1  0  0  0  0
  5  4  1  0  0  0  0
  5 10  1  0  0  0  0
  6  5  2  0  0  0  0
  7  1  1  0  0  0  0
 11 12  3  0  0  0  0
 13 19  1  0  0  0  0
 14 13  1  0  0  0  0
 14 20  1  0  0  0  0
 15 14  2  0  0  0  0
 16 17  2  0  0  0  0
 16 15  1  0  0  0  0
 17 18  1  0  0  0  0
 18 23  1  0  0  0  0
 18 13  2  0  0  0  0
 21 16  1  0  0  0  0
 22 17  1  0  0  0  0
 23 24  2  0  0  0  0
 25 23  1  0  0  0  0
 25  8  1  0  0  0  0
 26 23  2  0  0  0  0
 27 28  1  0  0  0  0
 27 15  1  0  0  0  0
 27 29  1  0  0  0  0
 30 27  1  0  0  0  0
 31  6  1  0  0  0  0
 31 32  1  0  0  0  0
 32 35  1  0  0  0  0
 33 32  1  0  0  0  0
 34 32  1  0  0  0  0
M  RAD  2   2   2   3   2
M  END
