Coordinates from ORCA-job p-CH3O-Ph-N2-OTs-B3LYPG-aug-cc-pVDZ-scan-d09-49-n400
 OpenBabel07022015293D

 35 36  0  0  1  0  0  0  0  0999 V2000
    0.4347    0.2703   -3.0439 C   0  0  0  0  0  0  0  0  0  0  0  0
    0.9193    1.4664   -3.7412 C   0  0  1  0  0  0  0  0  0  0  0  0
    0.1016    2.6365   -3.3875 C   0  0  1  0  0  0  0  0  0  0  0  0
   -0.6735    2.7428   -2.2021 C   0  0  0  0  0  0  0  0  0  0  0  0
   -0.8753    1.6179   -1.4513 C   0  0  0  0  0  0  0  0  0  0  0  0
   -0.3511    0.3557   -1.9267 C   0  0  0  0  0  0  0  0  0  0  0  0
    0.7783   -0.7044   -3.3817 H   0  0  0  0  0  0  0  0  0  0  0  0
    1.0904    1.3432   -4.8107 H   0  0  0  0  0  0  0  0  0  0  0  0
   -1.0990    3.7020   -1.9130 H   0  0  0  0  0  0  0  0  0  0  0  0
   -1.4482    1.6804   -0.5317 H   0  0  0  0  0  0  0  0  0  0  0  0
    0.1841    3.7862   -4.2360 N   0  0  0  0  0  0  0  0  0  0  0  0
    0.2434    4.6842   -4.9148 N   0  0  0  0  0  0  0  0  0  0  0  0
    5.1995    0.5140   -4.7873 C   0  0  0  0  0  0  0  0  0  0  0  0
    6.3694   -0.2338   -4.6326 C   0  0  0  0  0  0  0  0  0  0  0  0
    7.3114    0.0890   -3.6438 C   0  0  0  0  0  0  0  0  0  0  0  0
    7.0574    1.1897   -2.8077 C   0  0  0  0  0  0  0  0  0  0  0  0
    5.8952    1.9498   -2.9449 C   0  0  0  0  0  0  0  0  0  0  0  0
    4.9769    1.5961   -3.9358 C   0  0  0  0  0  0  0  0  0  0  0  0
    4.4752    0.2744   -5.5634 H   0  0  0  0  0  0  0  0  0  0  0  0
    6.5548   -1.0770   -5.2993 H   0  0  0  0  0  0  0  0  0  0  0  0
    7.7858    1.4577   -2.0407 H   0  0  0  0  0  0  0  0  0  0  0  0
    5.7034    2.8106   -2.3074 H   0  0  0  0  0  0  0  0  0  0  0  0
    3.4643    2.5541   -4.1128 S   0  0  0  0  0  0  0  0  0  0  0  0
    2.4369    1.6668   -3.2019 O   0  0  0  0  0  0  0  0  0  0  0  0
    3.0047    2.4996   -5.5326 O   0  0  0  0  0  0  0  0  0  0  0  0
    3.6617    3.8821   -3.4786 O   0  0  0  0  0  0  0  0  0  0  0  0
    8.5768   -0.7174   -3.4783 C   0  0  0  0  0  0  0  0  0  0  0  0
    8.6442   -1.1406   -2.4656 H   0  0  0  0  0  0  0  0  0  0  0  0
    8.6213   -1.5471   -4.1945 H   0  0  0  0  0  0  0  0  0  0  0  0
    9.4672   -0.0890   -3.6265 H   0  0  0  0  0  0  0  0  0  0  0  0
   -0.6428   -0.8218   -1.2999 O   0  0  0  0  0  0  0  0  0  0  0  0
   -1.5745   -0.8299   -0.2206 C   0  0  0  0  0  0  0  0  0  0  0  0
   -1.7036   -1.8832    0.0464 H   0  0  0  0  0  0  0  0  0  0  0  0
   -2.5457   -0.4106   -0.5225 H   0  0  0  0  0  0  0  0  0  0  0  0
   -1.1841   -0.2827    0.6507 H   0  0  0  0  0  0  0  0  0  0  0  0
  1  6  2  0  0  0  0
  2  8  1  6  0  0  0
  2  3  1  0  0  0  0
  2 24  1  0  0  0  0
  2  1  1  0  0  0  0
  3 11  1  1  0  0  0
  3  4  1  0  0  0  0
  4  9  1  0  0  0  0
  4  5  2  0  0  0  0
  5 10  1  0  0  0  0
  6  5  1  0  0  0  0
  6 31  1  0  0  0  0
  7  1  1  0  0  0  0
 12 11  1  0  0  0  0
 13 14  2  0  0  0  0
 13 18  1  0  0  0  0
 14 15  1  0  0  0  0
 15 27  1  0  0  0  0
 15 16  2  0  0  0  0
 16 21  1  0  0  0  0
 17 16  1  0  0  0  0
 17 22  1  0  0  0  0
 18 17  2  0  0  0  0
 19 13  1  0  0  0  0
 20 14  1  0  0  0  0
 23 18  1  0  0  0  0
 23 26  2  0  0  0  0
 23 24  1  0  0  0  0
 25 23  2  0  0  0  0
 27 28  1  0  0  0  0
 29 27  1  0  0  0  0
 30 27  1  0  0  0  0
 31 32  1  0  0  0  0
 32 33  1  0  0  0  0
 32 35  1  0  0  0  0
 34 32  1  0  0  0  0
M  RAD  3   3   2  11   2  12   3
M  END
