Coordinates from ORCA-job p-CH3O-Ph-N2-OTs-B3LYPG-aug-cc-pVDZ-scan-d09-49-n400
 OpenBabel07022015293D

 35 34  0  0  0  0  0  0  0  0999 V2000
   -0.1279   -0.0626   -2.9635 C   0  0  0  0  0  0  0  0  0  0  0  0
    0.6252    1.0837   -2.7250 C   0  0  0  0  0  0  0  0  0  0  0  0
    0.1959    2.0132   -1.9966 C   0  0  0  0  0  0  0  0  0  0  0  0
   -0.9797    2.1995   -1.3111 C   0  0  0  0  0  0  0  0  0  0  0  0
   -1.8005    1.0630   -1.5079 C   0  0  0  0  0  0  0  0  0  0  0  0
   -1.3889   -0.0338   -2.3081 C   0  0  0  0  0  0  0  0  0  0  0  0
    0.1552   -0.9162   -3.5765 H   0  0  0  0  0  0  0  0  0  0  0  0
    2.4244    1.9595   -3.6521 H   0  0  0  0  0  0  0  0  0  0  0  0
   -1.2726    3.0526   -0.7050 H   0  0  0  0  0  0  0  0  0  0  0  0
   -2.7730    1.0529   -1.0210 H   0  0  0  0  0  0  0  0  0  0  0  0
    1.3202    5.4271   -0.8353 N   0  0  0  0  0  0  0  0  0  0  0  0
    2.0944    6.2138   -0.8167 N   0  0  0  0  0  0  0  0  0  0  0  0
    5.8915    0.8518   -2.8238 C   0  0  0  0  0  0  0  0  0  0  0  0
    6.9397   -0.0457   -3.0519 C   0  0  0  0  0  0  0  0  0  0  0  0
    7.7489    0.0573   -4.1928 C   0  0  0  0  0  0  0  0  0  0  0  0
    7.4882    1.0902   -5.1105 C   0  0  0  0  0  0  0  0  0  0  0  0
    6.4498    1.9971   -4.9032 C   0  0  0  0  0  0  0  0  0  0  0  0
    5.6606    1.8615   -3.7577 C   0  0  0  0  0  0  0  0  0  0  0  0
    5.2762    0.7834   -1.9287 H   0  0  0  0  0  0  0  0  0  0  0  0
    7.1339   -0.8327   -2.3220 H   0  0  0  0  0  0  0  0  0  0  0  0
    8.1137    1.1890   -5.9989 H   0  0  0  0  0  0  0  0  0  0  0  0
    6.2588    2.8073   -5.6043 H   0  0  0  0  0  0  0  0  0  0  0  0
    4.3160    3.0267   -3.4908 S   0  0  0  0  0  0  0  0  0  0  0  0
    3.9537    3.0435   -2.0518 O   0  0  0  0  0  0  0  0  0  0  0  0
    3.0664    2.3060   -4.3091 O   0  0  0  0  0  0  0  0  0  0  0  0
    4.6165    4.2695   -4.2289 O   0  0  0  0  0  0  0  0  0  0  0  0
    8.8870   -0.9037   -4.4359 C   0  0  0  0  0  0  0  0  0  0  0  0
    9.8518   -0.3760   -4.4430 H   0  0  0  0  0  0  0  0  0  0  0  0
    8.9306   -1.6832   -3.6651 H   0  0  0  0  0  0  0  0  0  0  0  0
    8.7822   -1.3993   -5.4119 H   0  0  0  0  0  0  0  0  0  0  0  0
   -2.1606   -1.1421   -2.5176 O   0  0  0  0  0  0  0  0  0  0  0  0
   -3.4538   -1.2037   -1.9246 C   0  0  0  0  0  0  0  0  0  0  0  0
   -3.8822   -2.1562   -2.2498 H   0  0  0  0  0  0  0  0  0  0  0  0
   -4.0917   -0.3774   -2.2738 H   0  0  0  0  0  0  0  0  0  0  0  0
   -3.3895   -1.1841   -0.8254 H   0  0  0  0  0  0  0  0  0  0  0  0
  1  2  2  0  0  0  0
  1  6  1  0  0  0  0
  2  3  1  0  0  0  0
  3  4  2  0  0  0  0
  4  9  1  0  0  0  0
  5  4  1  0  0  0  0
  5 10  1  0  0  0  0
  6  5  2  0  0  0  0
  7  1  1  0  0  0  0
 11 12  3  0  0  0  0
 13 19  1  0  0  0  0
 14 13  1  0  0  0  0
 14 20  1  0  0  0  0
 15 14  2  0  0  0  0
 16 17  2  0  0  0  0
 16 15  1  0  0  0  0
 17 18  1  0  0  0  0
 18 23  1  0  0  0  0
 18 13  2  0  0  0  0
 21 16  1  0  0  0  0
 22 17  1  0  0  0  0
 23 24  2  0  0  0  0
 25  8  1  0  0  0  0
 25 23  1  0  0  0  0
 26 23  2  0  0  0  0
 27 15  1  0  0  0  0
 27 29  1  0  0  0  0
 28 27  1  0  0  0  0
 30 27  1  0  0  0  0
 31  6  1  0  0  0  0
 31 32  1  0  0  0  0
 32 35  1  0  0  0  0
 33 32  1  0  0  0  0
 34 32  1  0  0  0  0
M  RAD  2   2   2   3   2
M  END
