Coordinates from ORCA-job p-CH3O-Ph-N2-OTs-B3LYPG-aug-cc-pVDZ-scan-d09-49-n400
 OpenBabel07022015293D

 35 34  0  0  0  0  0  0  0  0999 V2000
   -0.2820    0.1886   -3.0285 C   0  0  0  0  0  0  0  0  0  0  0  0
    0.4910    1.3116   -2.7264 C   0  0  0  0  0  0  0  0  0  0  0  0
    0.0714    2.1488   -1.8852 C   0  0  0  0  0  0  0  0  0  0  0  0
   -1.0571    2.2593   -1.1161 C   0  0  0  0  0  0  0  0  0  0  0  0
   -1.8833    1.1399   -1.3835 C   0  0  0  0  0  0  0  0  0  0  0  0
   -1.5074    0.1356   -2.3113 C   0  0  0  0  0  0  0  0  0  0  0  0
   -0.0272   -0.6003   -3.7344 H   0  0  0  0  0  0  0  0  0  0  0  0
    2.3081    1.7302   -3.6626 H   0  0  0  0  0  0  0  0  0  0  0  0
   -1.3183    3.0448   -0.4128 H   0  0  0  0  0  0  0  0  0  0  0  0
   -2.8287    1.0721   -0.8501 H   0  0  0  0  0  0  0  0  0  0  0  0
    1.2927    4.9706   -0.6981 N   0  0  0  0  0  0  0  0  0  0  0  0
    2.0948    5.7285   -0.6707 N   0  0  0  0  0  0  0  0  0  0  0  0
    5.9698    0.8090   -2.8837 C   0  0  0  0  0  0  0  0  0  0  0  0
    7.0994    0.0030   -3.0457 C   0  0  0  0  0  0  0  0  0  0  0  0
    7.9233    0.1243   -4.1754 C   0  0  0  0  0  0  0  0  0  0  0  0
    7.5898    1.0803   -5.1497 C   0  0  0  0  0  0  0  0  0  0  0  0
    6.4666    1.8959   -5.0090 C   0  0  0  0  0  0  0  0  0  0  0  0
    5.6677    1.7449   -3.8732 C   0  0  0  0  0  0  0  0  0  0  0  0
    5.3382    0.7213   -2.0015 H   0  0  0  0  0  0  0  0  0  0  0  0
    7.3462   -0.7278   -2.2743 H   0  0  0  0  0  0  0  0  0  0  0  0
    8.2236    1.1919   -6.0308 H   0  0  0  0  0  0  0  0  0  0  0  0
    6.2129    2.6439   -5.7576 H   0  0  0  0  0  0  0  0  0  0  0  0
    4.2157    2.7880   -3.6853 S   0  0  0  0  0  0  0  0  0  0  0  0
    3.9102    2.9776   -2.2450 O   0  0  0  0  0  0  0  0  0  0  0  0
    3.0482    1.7919   -4.3115 O   0  0  0  0  0  0  0  0  0  0  0  0
    4.3446    3.9474   -4.5929 O   0  0  0  0  0  0  0  0  0  0  0  0
    9.1512   -0.7374   -4.3417 C   0  0  0  0  0  0  0  0  0  0  0  0
   10.0669   -0.1322   -4.2684 H   0  0  0  0  0  0  0  0  0  0  0  0
    9.2011   -1.5212   -3.5756 H   0  0  0  0  0  0  0  0  0  0  0  0
    9.1623   -1.2234   -5.3274 H   0  0  0  0  0  0  0  0  0  0  0  0
   -2.2820   -0.9543   -2.5926 O   0  0  0  0  0  0  0  0  0  0  0  0
   -3.5428   -1.0899   -1.9451 C   0  0  0  0  0  0  0  0  0  0  0  0
   -3.9824   -2.0074   -2.3467 H   0  0  0  0  0  0  0  0  0  0  0  0
   -4.2011   -0.2373   -2.1727 H   0  0  0  0  0  0  0  0  0  0  0  0
   -3.4230   -1.1863   -0.8546 H   0  0  0  0  0  0  0  0  0  0  0  0
  1  2  2  0  0  0  0
  1  6  1  0  0  0  0
  2  3  1  0  0  0  0
  3  4  2  0  0  0  0
  4  9  1  0  0  0  0
  5  4  1  0  0  0  0
  5 10  1  0  0  0  0
  6  5  2  0  0  0  0
  7  1  1  0  0  0  0
 11 12  3  0  0  0  0
 13 19  1  0  0  0  0
 14 13  1  0  0  0  0
 14 20  1  0  0  0  0
 15 14  2  0  0  0  0
 16 17  2  0  0  0  0
 16 15  1  0  0  0  0
 17 18  1  0  0  0  0
 18 23  1  0  0  0  0
 18 13  2  0  0  0  0
 21 16  1  0  0  0  0
 22 17  1  0  0  0  0
 23 24  2  0  0  0  0
 25 23  1  0  0  0  0
 25  8  1  0  0  0  0
 26 23  2  0  0  0  0
 27 28  1  0  0  0  0
 27 15  1  0  0  0  0
 27 29  1  0  0  0  0
 30 27  1  0  0  0  0
 31  6  1  0  0  0  0
 31 32  1  0  0  0  0
 32 35  1  0  0  0  0
 33 32  1  0  0  0  0
 34 32  1  0  0  0  0
M  RAD  2   2   2   3   2
M  END
