Coordinates from ORCA-job p-CH3O-Ph-N2-OTs-B3LYPG-aug-cc-pVDZ-scan-d09-49-n400
 OpenBabel07022015293D

 35 34  0  0  0  0  0  0  0  0999 V2000
   -0.1135    0.4310   -2.8143 C   0  0  0  0  0  0  0  0  0  0  0  0
    0.5671    1.6164   -2.4903 C   0  0  0  0  0  0  0  0  0  0  0  0
   -0.0492    2.4110   -1.7166 C   0  0  0  0  0  0  0  0  0  0  0  0
   -1.2550    2.4504   -1.0772 C   0  0  0  0  0  0  0  0  0  0  0  0
   -1.9611    1.2655   -1.3897 C   0  0  0  0  0  0  0  0  0  0  0  0
   -1.4009    0.2795   -2.2391 C   0  0  0  0  0  0  0  0  0  0  0  0
    0.2790   -0.3521   -3.4625 H   0  0  0  0  0  0  0  0  0  0  0  0
    2.2684    1.8011   -3.4195 H   0  0  0  0  0  0  0  0  0  0  0  0
   -1.6447    3.2336   -0.4327 H   0  0  0  0  0  0  0  0  0  0  0  0
   -2.9516    1.1371   -0.9596 H   0  0  0  0  0  0  0  0  0  0  0  0
    0.9796    4.4472   -1.0611 N   0  0  0  0  0  0  0  0  0  0  0  0
    1.8358    5.1437   -1.0972 N   0  0  0  0  0  0  0  0  0  0  0  0
    6.0100    0.7758   -2.8474 C   0  0  0  0  0  0  0  0  0  0  0  0
    7.1266   -0.0345   -3.0626 C   0  0  0  0  0  0  0  0  0  0  0  0
    7.8978    0.0849   -4.2296 C   0  0  0  0  0  0  0  0  0  0  0  0
    7.5217    1.0417   -5.1870 C   0  0  0  0  0  0  0  0  0  0  0  0
    6.4088    1.8616   -4.9932 C   0  0  0  0  0  0  0  0  0  0  0  0
    5.6647    1.7134   -3.8212 C   0  0  0  0  0  0  0  0  0  0  0  0
    5.4202    0.6909   -1.9366 H   0  0  0  0  0  0  0  0  0  0  0  0
    7.4042   -0.7680   -2.3042 H   0  0  0  0  0  0  0  0  0  0  0  0
    8.1131    1.1493   -6.0974 H   0  0  0  0  0  0  0  0  0  0  0  0
    6.1218    2.6089   -5.7304 H   0  0  0  0  0  0  0  0  0  0  0  0
    4.2301    2.7642   -3.5533 S   0  0  0  0  0  0  0  0  0  0  0  0
    4.0385    2.9972   -2.0984 O   0  0  0  0  0  0  0  0  0  0  0  0
    3.0322    1.7478   -4.0578 O   0  0  0  0  0  0  0  0  0  0  0  0
    4.2965    3.9079   -4.4898 O   0  0  0  0  0  0  0  0  0  0  0  0
    9.1175   -0.7772   -4.4467 C   0  0  0  0  0  0  0  0  0  0  0  0
   10.0389   -0.1932   -4.3007 H   0  0  0  0  0  0  0  0  0  0  0  0
    9.1417   -1.6231   -3.7483 H   0  0  0  0  0  0  0  0  0  0  0  0
    9.1455   -1.1762   -5.4698 H   0  0  0  0  0  0  0  0  0  0  0  0
   -2.0427   -0.8788   -2.5724 O   0  0  0  0  0  0  0  0  0  0  0  0
   -3.3450   -1.1202   -2.0500 C   0  0  0  0  0  0  0  0  0  0  0  0
   -3.6548   -2.0828   -2.4663 H   0  0  0  0  0  0  0  0  0  0  0  0
   -4.0533   -0.3391   -2.3667 H   0  0  0  0  0  0  0  0  0  0  0  0
   -3.3279   -1.1832   -0.9506 H   0  0  0  0  0  0  0  0  0  0  0  0
  1  2  2  0  0  0  0
  1  6  1  0  0  0  0
  2  3  1  0  0  0  0
  3  4  2  0  0  0  0
  4  9  1  0  0  0  0
  5  4  1  0  0  0  0
  5 10  1  0  0  0  0
  6  5  2  0  0  0  0
  7  1  1  0  0  0  0
 12 11  3  0  0  0  0
 13 19  1  0  0  0  0
 14 13  1  0  0  0  0
 14 20  1  0  0  0  0
 15 14  2  0  0  0  0
 16 17  2  0  0  0  0
 16 15  1  0  0  0  0
 17 18  1  0  0  0  0
 18 23  1  0  0  0  0
 18 13  2  0  0  0  0
 21 16  1  0  0  0  0
 22 17  1  0  0  0  0
 23 24  2  0  0  0  0
 25 23  1  0  0  0  0
 25  8  1  0  0  0  0
 26 23  2  0  0  0  0
 27 28  1  0  0  0  0
 27 15  1  0  0  0  0
 27 29  1  0  0  0  0
 30 27  1  0  0  0  0
 31  6  1  0  0  0  0
 31 32  1  0  0  0  0
 32 35  1  0  0  0  0
 33 32  1  0  0  0  0
 34 32  1  0  0  0  0
M  RAD  2   2   2   3   2
M  END
