Coordinates from ORCA-job p-CH3O-Ph-N2-OTs-B3LYPG-aug-cc-pVDZ-scan-d09-49-n400
 OpenBabel07022015293D

 35 34  0  0  0  0  0  0  0  0999 V2000
   -0.5064    0.0080   -2.5891 C   0  0  0  0  0  0  0  0  0  0  0  0
    0.5666    0.8984   -2.7476 C   0  0  0  0  0  0  0  0  0  0  0  0
    0.3068    2.0824   -2.1433 C   0  0  0  0  0  0  0  0  0  0  0  0
   -0.7403    2.5791   -1.4253 C   0  0  0  0  0  0  0  0  0  0  0  0
   -1.7862    1.6464   -1.2918 C   0  0  0  0  0  0  0  0  0  0  0  0
   -1.6654    0.3687   -1.8716 C   0  0  0  0  0  0  0  0  0  0  0  0
   -0.4424   -0.9850   -3.0317 H   0  0  0  0  0  0  0  0  0  0  0  0
    1.4850    0.6423   -3.3141 H   0  0  0  0  0  0  0  0  0  0  0  0
   -0.7856    3.5757   -0.9973 H   0  0  0  0  0  0  0  0  0  0  0  0
   -2.6692    1.9468   -0.7348 H   0  0  0  0  0  0  0  0  0  0  0  0
    1.7017    3.4384   -2.3118 N   0  0  0  0  0  0  0  0  0  0  0  0
    2.0304    4.4948   -2.2798 N   0  0  0  0  0  0  0  0  0  0  0  0
    5.8870   -0.0471   -4.6049 C   0  0  0  0  0  0  0  0  0  0  0  0
    7.2497   -0.3533   -4.6979 C   0  0  0  0  0  0  0  0  0  0  0  0
    8.2308    0.5406   -4.2479 C   0  0  0  0  0  0  0  0  0  0  0  0
    7.8124    1.7678   -3.7037 C   0  0  0  0  0  0  0  0  0  0  0  0
    6.4601    2.0909   -3.6082 C   0  0  0  0  0  0  0  0  0  0  0  0
    5.5043    1.1757   -4.0596 C   0  0  0  0  0  0  0  0  0  0  0  0
    5.1272   -0.7453   -4.9509 H   0  0  0  0  0  0  0  0  0  0  0  0
    7.5529   -1.3079   -5.1304 H   0  0  0  0  0  0  0  0  0  0  0  0
    8.5572    2.4847   -3.3520 H   0  0  0  0  0  0  0  0  0  0  0  0
    6.1445    3.0456   -3.1907 H   0  0  0  0  0  0  0  0  0  0  0  0
    3.7546    1.6302   -3.9546 S   0  0  0  0  0  0  0  0  0  0  0  0
    3.5122    1.9271   -2.4676 O   0  0  0  0  0  0  0  0  0  0  0  0
    2.9687    0.4072   -4.3964 O   0  0  0  0  0  0  0  0  0  0  0  0
    3.5468    2.8453   -4.8093 O   0  0  0  0  0  0  0  0  0  0  0  0
    9.6983    0.1919   -4.3241 C   0  0  0  0  0  0  0  0  0  0  0  0
   10.0925   -0.0765   -3.3319 H   0  0  0  0  0  0  0  0  0  0  0  0
    9.8699   -0.6612   -4.9931 H   0  0  0  0  0  0  0  0  0  0  0  0
   10.2937    1.0400   -4.6909 H   0  0  0  0  0  0  0  0  0  0  0  0
   -2.6201   -0.5900   -1.7956 O   0  0  0  0  0  0  0  0  0  0  0  0
   -3.8335   -0.2973   -1.1008 C   0  0  0  0  0  0  0  0  0  0  0  0
   -4.4405   -1.2041   -1.1739 H   0  0  0  0  0  0  0  0  0  0  0  0
   -4.3647    0.5411   -1.5753 H   0  0  0  0  0  0  0  0  0  0  0  0
   -3.6390   -0.0695   -0.0423 H   0  0  0  0  0  0  0  0  0  0  0  0
  1  6  1  0  0  0  0
  2  1  2  0  0  0  0
  2  3  1  0  0  0  0
  3  4  2  0  0  0  0
  4  5  1  0  0  0  0
  4  9  1  0  0  0  0
  5 10  1  0  0  0  0
  6 31  1  0  0  0  0
  6  5  2  0  0  0  0
  7  1  1  0  0  0  0
  8  2  1  0  0  0  0
 11 12  3  0  0  0  0
 13 18  1  0  0  0  0
 14 13  2  0  0  0  0
 14 15  1  0  0  0  0
 15 16  2  0  0  0  0
 16 17  1  0  0  0  0
 16 21  1  0  0  0  0
 17 22  1  0  0  0  0
 18 23  1  0  0  0  0
 18 17  2  0  0  0  0
 19 13  1  0  0  0  0
 20 14  1  0  0  0  0
 23 24  1  0  0  0  0
 25 23  2  0  0  0  0
 26 23  2  0  0  0  0
 27 15  1  0  0  0  0
 27 28  1  0  0  0  0
 29 27  1  0  0  0  0
 30 27  1  0  0  0  0
 31 32  1  0  0  0  0
 32 35  1  0  0  0  0
 33 32  1  0  0  0  0
 34 32  1  0  0  0  0
M  RAD  2   3   2  24   2
M  END
