Coordinates from ORCA-job p-CH3O-Ph-N2-OTs-B3LYPG-aug-cc-pVDZ-scan-d09-49-n400
 OpenBabel07022015293D

 35 34  0  0  0  0  0  0  0  0999 V2000
   -0.2874    0.1696   -3.0308 C   0  0  0  0  0  0  0  0  0  0  0  0
    0.4882    1.2901   -2.7300 C   0  0  0  0  0  0  0  0  0  0  0  0
    0.0769    2.1335   -1.8918 C   0  0  0  0  0  0  0  0  0  0  0  0
   -1.0524    2.2495   -1.1239 C   0  0  0  0  0  0  0  0  0  0  0  0
   -1.8836    1.1336   -1.3880 C   0  0  0  0  0  0  0  0  0  0  0  0
   -1.5129    0.1247   -2.3132 C   0  0  0  0  0  0  0  0  0  0  0  0
   -0.0358   -0.6217   -3.7350 H   0  0  0  0  0  0  0  0  0  0  0  0
    2.3132    1.7273   -3.6676 H   0  0  0  0  0  0  0  0  0  0  0  0
   -1.3101    3.0382   -0.4226 H   0  0  0  0  0  0  0  0  0  0  0  0
   -2.8293    1.0716   -0.8543 H   0  0  0  0  0  0  0  0  0  0  0  0
    1.3086    5.0170   -0.6673 N   0  0  0  0  0  0  0  0  0  0  0  0
    2.1114    5.7740   -0.6398 N   0  0  0  0  0  0  0  0  0  0  0  0
    5.9717    0.8119   -2.8841 C   0  0  0  0  0  0  0  0  0  0  0  0
    7.1015    0.0058   -3.0452 C   0  0  0  0  0  0  0  0  0  0  0  0
    7.9248    0.1252   -4.1755 C   0  0  0  0  0  0  0  0  0  0  0  0
    7.5905    1.0793   -5.1514 C   0  0  0  0  0  0  0  0  0  0  0  0
    6.4673    1.8951   -5.0116 C   0  0  0  0  0  0  0  0  0  0  0  0
    5.6690    1.7460   -3.8751 C   0  0  0  0  0  0  0  0  0  0  0  0
    5.3407    0.7259   -2.0013 H   0  0  0  0  0  0  0  0  0  0  0  0
    7.3489   -0.7234   -2.2725 H   0  0  0  0  0  0  0  0  0  0  0  0
    8.2238    1.1895   -6.0330 H   0  0  0  0  0  0  0  0  0  0  0  0
    6.2133    2.6417   -5.7613 H   0  0  0  0  0  0  0  0  0  0  0  0
    4.2170    2.7897   -3.6888 S   0  0  0  0  0  0  0  0  0  0  0  0
    3.9071    2.9754   -2.2488 O   0  0  0  0  0  0  0  0  0  0  0  0
    3.0483    1.7978   -4.3206 O   0  0  0  0  0  0  0  0  0  0  0  0
    4.3496    3.9505   -4.5938 O   0  0  0  0  0  0  0  0  0  0  0  0
    9.1528   -0.7363   -4.3407 C   0  0  0  0  0  0  0  0  0  0  0  0
   10.0684   -0.1308   -4.2683 H   0  0  0  0  0  0  0  0  0  0  0  0
    9.2030   -1.5192   -3.5736 H   0  0  0  0  0  0  0  0  0  0  0  0
    9.1641   -1.2236   -5.3259 H   0  0  0  0  0  0  0  0  0  0  0  0
   -2.2927   -0.9623   -2.5916 O   0  0  0  0  0  0  0  0  0  0  0  0
   -3.5542   -1.0897   -1.9436 C   0  0  0  0  0  0  0  0  0  0  0  0
   -3.9986   -2.0060   -2.3429 H   0  0  0  0  0  0  0  0  0  0  0  0
   -4.2082   -0.2344   -2.1735 H   0  0  0  0  0  0  0  0  0  0  0  0
   -3.4348   -1.1838   -0.8529 H   0  0  0  0  0  0  0  0  0  0  0  0
  1  2  2  0  0  0  0
  1  6  1  0  0  0  0
  2  3  1  0  0  0  0
  3  4  2  0  0  0  0
  4  9  1  0  0  0  0
  5  4  1  0  0  0  0
  5 10  1  0  0  0  0
  6  5  2  0  0  0  0
  7  1  1  0  0  0  0
 11 12  3  0  0  0  0
 13 19  1  0  0  0  0
 14 13  1  0  0  0  0
 14 20  1  0  0  0  0
 15 14  2  0  0  0  0
 16 17  2  0  0  0  0
 16 15  1  0  0  0  0
 17 18  1  0  0  0  0
 18 23  1  0  0  0  0
 18 13  2  0  0  0  0
 21 16  1  0  0  0  0
 22 17  1  0  0  0  0
 23 24  2  0  0  0  0
 25 23  1  0  0  0  0
 25  8  1  0  0  0  0
 26 23  2  0  0  0  0
 27 28  1  0  0  0  0
 27 15  1  0  0  0  0
 27 29  1  0  0  0  0
 30 27  1  0  0  0  0
 31  6  1  0  0  0  0
 31 32  1  0  0  0  0
 32 35  1  0  0  0  0
 33 32  1  0  0  0  0
 34 32  1  0  0  0  0
M  RAD  2   2   2   3   2
M  END
