Coordinates from ORCA-job p-CH3O-Ph-N2-OTs-B3LYPG-aug-cc-pVDZ-scan-d09-49-n400
 OpenBabel07022015293D

 35 34  0  0  0  0  0  0  0  0999 V2000
   -0.1054   -1.0997   -2.7799 C   0  0  0  0  0  0  0  0  0  0  0  0
    0.9877   -0.2767   -2.6585 C   0  0  0  0  0  0  0  0  0  0  0  0
    1.0894    0.9218   -2.3001 C   0  0  0  0  0  0  0  0  0  0  0  0
    0.0042    1.6664   -1.8309 C   0  0  0  0  0  0  0  0  0  0  0  0
   -1.2032    0.9422   -1.8787 C   0  0  0  0  0  0  0  0  0  0  0  0
   -1.2648   -0.4004   -2.3359 C   0  0  0  0  0  0  0  0  0  0  0  0
   -0.1581   -2.1336   -3.1108 H   0  0  0  0  0  0  0  0  0  0  0  0
    2.4039    2.0239   -3.5798 H   0  0  0  0  0  0  0  0  0  0  0  0
    0.0446    2.7004   -1.4961 H   0  0  0  0  0  0  0  0  0  0  0  0
   -2.1142    1.4444   -1.5617 H   0  0  0  0  0  0  0  0  0  0  0  0
    1.2170    5.0868   -0.7997 N   0  0  0  0  0  0  0  0  0  0  0  0
    1.8453    5.9352   -0.4778 N   0  0  0  0  0  0  0  0  0  0  0  0
    5.7436    1.0509   -2.7297 C   0  0  0  0  0  0  0  0  0  0  0  0
    6.7628    0.1284   -2.9885 C   0  0  0  0  0  0  0  0  0  0  0  0
    7.5329    0.2062   -4.1578 C   0  0  0  0  0  0  0  0  0  0  0  0
    7.2625    1.2392   -5.0732 C   0  0  0  0  0  0  0  0  0  0  0  0
    6.2513    2.1690   -4.8368 C   0  0  0  0  0  0  0  0  0  0  0  0
    5.5012    2.0588   -3.6625 C   0  0  0  0  0  0  0  0  0  0  0  0
    5.1581    1.0029   -1.8138 H   0  0  0  0  0  0  0  0  0  0  0  0
    6.9645   -0.6583   -2.2603 H   0  0  0  0  0  0  0  0  0  0  0  0
    7.8582    1.3183   -5.9837 H   0  0  0  0  0  0  0  0  0  0  0  0
    6.0530    2.9776   -5.5378 H   0  0  0  0  0  0  0  0  0  0  0  0
    4.1881    3.2511   -3.3582 S   0  0  0  0  0  0  0  0  0  0  0  0
    3.8426    3.2327   -1.9154 O   0  0  0  0  0  0  0  0  0  0  0  0
    2.9072    2.6067   -4.1901 O   0  0  0  0  0  0  0  0  0  0  0  0
    4.5049    4.5051   -4.0688 O   0  0  0  0  0  0  0  0  0  0  0  0
    8.6397   -0.7815   -4.4351 C   0  0  0  0  0  0  0  0  0  0  0  0
    9.6149   -0.2756   -4.4825 H   0  0  0  0  0  0  0  0  0  0  0  0
    8.6951   -1.5561   -3.6600 H   0  0  0  0  0  0  0  0  0  0  0  0
    8.4876   -1.2822   -5.4024 H   0  0  0  0  0  0  0  0  0  0  0  0
   -2.4131   -1.1361   -2.3762 O   0  0  0  0  0  0  0  0  0  0  0  0
   -3.6212   -0.5550   -1.8890 C   0  0  0  0  0  0  0  0  0  0  0  0
   -4.3826   -1.3354   -1.9856 H   0  0  0  0  0  0  0  0  0  0  0  0
   -3.9133    0.3188   -2.4906 H   0  0  0  0  0  0  0  0  0  0  0  0
   -3.5242   -0.2645   -0.8323 H   0  0  0  0  0  0  0  0  0  0  0  0
  1  2  2  0  0  0  0
  1  6  1  0  0  0  0
  2  3  1  0  0  0  0
  3  4  2  0  0  0  0
  4  9  1  0  0  0  0
  5  4  1  0  0  0  0
  5 10  1  0  0  0  0
  6  5  2  0  0  0  0
  7  1  1  0  0  0  0
 11 12  3  0  0  0  0
 13 19  1  0  0  0  0
 14 13  1  0  0  0  0
 14 20  1  0  0  0  0
 15 14  2  0  0  0  0
 16 17  2  0  0  0  0
 16 15  1  0  0  0  0
 17 18  1  0  0  0  0
 18 23  1  0  0  0  0
 18 13  2  0  0  0  0
 21 16  1  0  0  0  0
 22 17  1  0  0  0  0
 23 24  2  0  0  0  0
 25  8  1  0  0  0  0
 25 23  1  0  0  0  0
 26 23  2  0  0  0  0
 27 15  1  0  0  0  0
 27 29  1  0  0  0  0
 28 27  1  0  0  0  0
 30 27  1  0  0  0  0
 31  6  1  0  0  0  0
 31 32  1  0  0  0  0
 32 35  1  0  0  0  0
 33 32  1  0  0  0  0
 34 32  1  0  0  0  0
M  RAD  2   2   2   3   2
M  END
