Coordinates from ORCA-job p-CH3O-Ph-N2-OTs-B3LYPG-aug-cc-pVDZ-scan-d09-49-n400
 OpenBabel07022015293D

 35 34  0  0  0  0  0  0  0  0999 V2000
   -0.1182   -0.0327   -2.9690 C   0  0  0  0  0  0  0  0  0  0  0  0
    0.6255    1.1192   -2.7263 C   0  0  0  0  0  0  0  0  0  0  0  0
    0.1877    2.0396   -1.9915 C   0  0  0  0  0  0  0  0  0  0  0  0
   -0.9871    2.2109   -1.3011 C   0  0  0  0  0  0  0  0  0  0  0  0
   -1.7978    1.0679   -1.5027 C   0  0  0  0  0  0  0  0  0  0  0  0
   -1.3778   -0.0200   -2.3105 C   0  0  0  0  0  0  0  0  0  0  0  0
    0.1714   -0.8804   -3.5873 H   0  0  0  0  0  0  0  0  0  0  0  0
    2.4314    1.9807   -3.6413 H   0  0  0  0  0  0  0  0  0  0  0  0
   -1.2861    3.0577   -0.6893 H   0  0  0  0  0  0  0  0  0  0  0  0
   -2.7691    1.0465   -1.0137 H   0  0  0  0  0  0  0  0  0  0  0  0
    1.2558    5.3933   -0.8600 N   0  0  0  0  0  0  0  0  0  0  0  0
    2.0112    6.1978   -0.8341 N   0  0  0  0  0  0  0  0  0  0  0  0
    5.8957    0.8527   -2.8193 C   0  0  0  0  0  0  0  0  0  0  0  0
    6.9376   -0.0513   -3.0508 C   0  0  0  0  0  0  0  0  0  0  0  0
    7.7428    0.0459   -4.1951 C   0  0  0  0  0  0  0  0  0  0  0  0
    7.4846    1.0798   -5.1124 C   0  0  0  0  0  0  0  0  0  0  0  0
    6.4526    1.9930   -4.9017 C   0  0  0  0  0  0  0  0  0  0  0  0
    5.6671    1.8630   -3.7530 C   0  0  0  0  0  0  0  0  0  0  0  0
    5.2837    0.7888   -1.9216 H   0  0  0  0  0  0  0  0  0  0  0  0
    7.1300   -0.8389   -2.3210 H   0  0  0  0  0  0  0  0  0  0  0  0
    8.1070    1.1741   -6.0035 H   0  0  0  0  0  0  0  0  0  0  0  0
    6.2636    2.8038   -5.6027 H   0  0  0  0  0  0  0  0  0  0  0  0
    4.3300    3.0360   -3.4822 S   0  0  0  0  0  0  0  0  0  0  0  0
    3.9703    3.0534   -2.0426 O   0  0  0  0  0  0  0  0  0  0  0  0
    3.0747    2.3239   -4.2990 O   0  0  0  0  0  0  0  0  0  0  0  0
    4.6367    4.2778   -4.2195 O   0  0  0  0  0  0  0  0  0  0  0  0
    8.8736   -0.9225   -4.4425 C   0  0  0  0  0  0  0  0  0  0  0  0
    9.8414   -0.4005   -4.4582 H   0  0  0  0  0  0  0  0  0  0  0  0
    8.9180   -1.6997   -3.6693 H   0  0  0  0  0  0  0  0  0  0  0  0
    8.7591   -1.4210   -5.4160 H   0  0  0  0  0  0  0  0  0  0  0  0
   -2.1392   -1.1345   -2.5246 O   0  0  0  0  0  0  0  0  0  0  0  0
   -3.4293   -1.2132   -1.9267 C   0  0  0  0  0  0  0  0  0  0  0  0
   -3.8486   -2.1683   -2.2558 H   0  0  0  0  0  0  0  0  0  0  0  0
   -4.0773   -0.3917   -2.2684 H   0  0  0  0  0  0  0  0  0  0  0  0
   -3.3606   -1.1993   -0.8277 H   0  0  0  0  0  0  0  0  0  0  0  0
  1  2  2  0  0  0  0
  1  6  1  0  0  0  0
  2  3  1  0  0  0  0
  3  4  2  0  0  0  0
  4  9  1  0  0  0  0
  5  4  1  0  0  0  0
  5 10  1  0  0  0  0
  6  5  2  0  0  0  0
  7  1  1  0  0  0  0
 11 12  3  0  0  0  0
 13 19  1  0  0  0  0
 14 13  1  0  0  0  0
 14 20  1  0  0  0  0
 15 14  2  0  0  0  0
 16 17  2  0  0  0  0
 16 15  1  0  0  0  0
 17 18  1  0  0  0  0
 18 23  1  0  0  0  0
 18 13  2  0  0  0  0
 21 16  1  0  0  0  0
 22 17  1  0  0  0  0
 23 24  2  0  0  0  0
 25  8  1  0  0  0  0
 25 23  1  0  0  0  0
 26 23  2  0  0  0  0
 27 15  1  0  0  0  0
 27 29  1  0  0  0  0
 28 27  1  0  0  0  0
 30 27  1  0  0  0  0
 31  6  1  0  0  0  0
 31 32  1  0  0  0  0
 32 35  1  0  0  0  0
 33 32  1  0  0  0  0
 34 32  1  0  0  0  0
M  RAD  2   2   2   3   2
M  END
