Coordinates from ORCA-job p-CH3O-Ph-N2-OTs-B3LYPG-aug-cc-pVDZ-scan-d09-49-n400
 OpenBabel07022015293D

 35 34  0  0  0  0  0  0  0  0999 V2000
   -0.2744    0.2035   -3.0243 C   0  0  0  0  0  0  0  0  0  0  0  0
    0.4942    1.3296   -2.7209 C   0  0  0  0  0  0  0  0  0  0  0  0
    0.0674    2.1627   -1.8787 C   0  0  0  0  0  0  0  0  0  0  0  0
   -1.0619    2.2673   -1.1107 C   0  0  0  0  0  0  0  0  0  0  0  0
   -1.8824    1.1444   -1.3803 C   0  0  0  0  0  0  0  0  0  0  0  0
   -1.5004    0.1433   -2.3089 C   0  0  0  0  0  0  0  0  0  0  0  0
   -0.0149   -0.5834   -3.7306 H   0  0  0  0  0  0  0  0  0  0  0  0
    2.3041    1.7367   -3.6576 H   0  0  0  0  0  0  0  0  0  0  0  0
   -1.3269    3.0511   -0.4068 H   0  0  0  0  0  0  0  0  0  0  0  0
   -2.8281    1.0718   -0.8479 H   0  0  0  0  0  0  0  0  0  0  0  0
    1.2791    4.9422   -0.7203 N   0  0  0  0  0  0  0  0  0  0  0  0
    2.0813    5.7000   -0.6947 N   0  0  0  0  0  0  0  0  0  0  0  0
    5.9653    0.8052   -2.8848 C   0  0  0  0  0  0  0  0  0  0  0  0
    7.0943   -0.0015   -3.0473 C   0  0  0  0  0  0  0  0  0  0  0  0
    7.9198    0.1218   -4.1757 C   0  0  0  0  0  0  0  0  0  0  0  0
    7.5884    1.0804   -5.1482 C   0  0  0  0  0  0  0  0  0  0  0  0
    6.4658    1.8968   -5.0069 C   0  0  0  0  0  0  0  0  0  0  0  0
    5.6654    1.7438   -3.8724 C   0  0  0  0  0  0  0  0  0  0  0  0
    5.3326    0.7163   -2.0034 H   0  0  0  0  0  0  0  0  0  0  0  0
    7.3395   -0.7343   -2.2773 H   0  0  0  0  0  0  0  0  0  0  0  0
    8.2234    1.1934   -6.0282 H   0  0  0  0  0  0  0  0  0  0  0  0
    6.2136    2.6467   -5.7540 H   0  0  0  0  0  0  0  0  0  0  0  0
    4.2149    2.7887   -3.6830 S   0  0  0  0  0  0  0  0  0  0  0  0
    3.9124    2.9798   -2.2421 O   0  0  0  0  0  0  0  0  0  0  0  0
    3.0456    1.7930   -4.3060 O   0  0  0  0  0  0  0  0  0  0  0  0
    4.3439    3.9475   -4.5913 O   0  0  0  0  0  0  0  0  0  0  0  0
    9.1472   -0.7403   -4.3423 C   0  0  0  0  0  0  0  0  0  0  0  0
   10.0633   -0.1361   -4.2655 H   0  0  0  0  0  0  0  0  0  0  0  0
    9.1951   -1.5265   -3.5784 H   0  0  0  0  0  0  0  0  0  0  0  0
    9.1598   -1.2235   -5.3294 H   0  0  0  0  0  0  0  0  0  0  0  0
   -2.2691   -0.9501   -2.5929 O   0  0  0  0  0  0  0  0  0  0  0  0
   -3.5300   -1.0929   -1.9473 C   0  0  0  0  0  0  0  0  0  0  0  0
   -3.9644   -2.0122   -2.3506 H   0  0  0  0  0  0  0  0  0  0  0  0
   -4.1924   -0.2434   -2.1748 H   0  0  0  0  0  0  0  0  0  0  0  0
   -3.4112   -1.1900   -0.8567 H   0  0  0  0  0  0  0  0  0  0  0  0
  1  2  2  0  0  0  0
  1  6  1  0  0  0  0
  2  3  1  0  0  0  0
  3  4  2  0  0  0  0
  4  9  1  0  0  0  0
  5  4  1  0  0  0  0
  5 10  1  0  0  0  0
  6  5  2  0  0  0  0
  7  1  1  0  0  0  0
 11 12  3  0  0  0  0
 13 19  1  0  0  0  0
 14 13  1  0  0  0  0
 14 20  1  0  0  0  0
 15 14  2  0  0  0  0
 16 17  2  0  0  0  0
 16 15  1  0  0  0  0
 17 18  1  0  0  0  0
 18 23  1  0  0  0  0
 18 13  2  0  0  0  0
 21 16  1  0  0  0  0
 22 17  1  0  0  0  0
 23 24  2  0  0  0  0
 25 23  1  0  0  0  0
 25  8  1  0  0  0  0
 26 23  2  0  0  0  0
 27 28  1  0  0  0  0
 27 15  1  0  0  0  0
 27 29  1  0  0  0  0
 30 27  1  0  0  0  0
 31  6  1  0  0  0  0
 31 32  1  0  0  0  0
 32 35  1  0  0  0  0
 33 32  1  0  0  0  0
 34 32  1  0  0  0  0
M  RAD  2   2   2   3   2
M  END
