Coordinates from ORCA-job p-CH3O-Ph-N2-OTs-B3LYPG-aug-cc-pVDZ-scan-d09-49-n400
 OpenBabel07022015293D

 35 34  0  0  0  0  0  0  0  0999 V2000
   -0.1358   -1.0315   -2.7647 C   0  0  0  0  0  0  0  0  0  0  0  0
    0.9296   -0.1719   -2.6414 C   0  0  0  0  0  0  0  0  0  0  0  0
    0.9847    1.0256   -2.2703 C   0  0  0  0  0  0  0  0  0  0  0  0
   -0.1241    1.7323   -1.8020 C   0  0  0  0  0  0  0  0  0  0  0  0
   -1.3048    0.9649   -1.8515 C   0  0  0  0  0  0  0  0  0  0  0  0
   -1.3187   -0.3767   -2.3157 C   0  0  0  0  0  0  0  0  0  0  0  0
   -0.1538   -2.0630   -3.1068 H   0  0  0  0  0  0  0  0  0  0  0  0
    2.4287    2.0254   -3.5717 H   0  0  0  0  0  0  0  0  0  0  0  0
   -0.1186    2.7649   -1.4607 H   0  0  0  0  0  0  0  0  0  0  0  0
   -2.2325    1.4322   -1.5298 H   0  0  0  0  0  0  0  0  0  0  0  0
    1.2459    5.0484   -0.8076 N   0  0  0  0  0  0  0  0  0  0  0  0
    1.8894    5.8802   -0.4725 N   0  0  0  0  0  0  0  0  0  0  0  0
    5.7919    1.0394   -2.7457 C   0  0  0  0  0  0  0  0  0  0  0  0
    6.8153    0.1215   -3.0033 C   0  0  0  0  0  0  0  0  0  0  0  0
    7.5871    0.2031   -4.1712 C   0  0  0  0  0  0  0  0  0  0  0  0
    7.3138    1.2354   -5.0864 C   0  0  0  0  0  0  0  0  0  0  0  0
    6.2985    2.1610   -4.8512 C   0  0  0  0  0  0  0  0  0  0  0  0
    5.5469    2.0470   -3.6782 C   0  0  0  0  0  0  0  0  0  0  0  0
    5.2052    0.9883   -1.8306 H   0  0  0  0  0  0  0  0  0  0  0  0
    7.0192   -0.6648   -2.2752 H   0  0  0  0  0  0  0  0  0  0  0  0
    7.9107    1.3175   -5.9959 H   0  0  0  0  0  0  0  0  0  0  0  0
    6.0980    2.9692   -5.5521 H   0  0  0  0  0  0  0  0  0  0  0  0
    4.2283    3.2334   -3.3747 S   0  0  0  0  0  0  0  0  0  0  0  0
    3.8873    3.2199   -1.9310 O   0  0  0  0  0  0  0  0  0  0  0  0
    2.9472    2.5760   -4.1972 O   0  0  0  0  0  0  0  0  0  0  0  0
    4.5371    4.4850   -4.0931 O   0  0  0  0  0  0  0  0  0  0  0  0
    8.6986   -0.7797   -4.4469 C   0  0  0  0  0  0  0  0  0  0  0  0
    9.6723   -0.2700   -4.4880 H   0  0  0  0  0  0  0  0  0  0  0  0
    8.7533   -1.5567   -3.6742 H   0  0  0  0  0  0  0  0  0  0  0  0
    8.5529   -1.2774   -5.4167 H   0  0  0  0  0  0  0  0  0  0  0  0
   -2.4409   -1.1520   -2.3613 O   0  0  0  0  0  0  0  0  0  0  0  0
   -3.6705   -0.6119   -1.8813 C   0  0  0  0  0  0  0  0  0  0  0  0
   -4.4056   -1.4163   -1.9844 H   0  0  0  0  0  0  0  0  0  0  0  0
   -3.9864    0.2535   -2.4832 H   0  0  0  0  0  0  0  0  0  0  0  0
   -3.5899   -0.3205   -0.8234 H   0  0  0  0  0  0  0  0  0  0  0  0
  1  2  2  0  0  0  0
  1  6  1  0  0  0  0
  2  3  1  0  0  0  0
  3  4  2  0  0  0  0
  4  9  1  0  0  0  0
  5  4  1  0  0  0  0
  5 10  1  0  0  0  0
  6  5  2  0  0  0  0
  7  1  1  0  0  0  0
 11 12  3  0  0  0  0
 13 19  1  0  0  0  0
 14 13  1  0  0  0  0
 14 20  1  0  0  0  0
 15 14  2  0  0  0  0
 16 17  2  0  0  0  0
 16 15  1  0  0  0  0
 17 18  1  0  0  0  0
 18 23  1  0  0  0  0
 18 13  2  0  0  0  0
 21 16  1  0  0  0  0
 22 17  1  0  0  0  0
 23 24  2  0  0  0  0
 25  8  1  0  0  0  0
 25 23  1  0  0  0  0
 26 23  2  0  0  0  0
 27 15  1  0  0  0  0
 27 29  1  0  0  0  0
 28 27  1  0  0  0  0
 30 27  1  0  0  0  0
 31  6  1  0  0  0  0
 31 32  1  0  0  0  0
 32 35  1  0  0  0  0
 33 32  1  0  0  0  0
 34 32  1  0  0  0  0
M  RAD  2   2   2   3   2
M  END
