Coordinates from ORCA-job p-CH3O-Ph-N2-OTs-B3LYPG-aug-cc-pVDZ-scan-d09-49-n400
 OpenBabel07022015293D

 35 34  0  0  0  0  0  0  0  0999 V2000
   -0.4886   -1.3119   -2.8271 C   0  0  0  0  0  0  0  0  0  0  0  0
    0.7742   -0.7708   -2.7656 C   0  0  0  0  0  0  0  0  0  0  0  0
    1.1571    0.3717   -2.4147 C   0  0  0  0  0  0  0  0  0  0  0  0
    0.3052    1.3467   -1.8918 C   0  0  0  0  0  0  0  0  0  0  0  0
   -1.0382    0.9224   -1.8817 C   0  0  0  0  0  0  0  0  0  0  0  0
   -1.4316   -0.3663   -2.3295 C   0  0  0  0  0  0  0  0  0  0  0  0
   -0.7953   -2.3044   -3.1469 H   0  0  0  0  0  0  0  0  0  0  0  0
    2.2773    1.4031   -3.9582 H   0  0  0  0  0  0  0  0  0  0  0  0
    0.6034    2.3390   -1.5635 H   0  0  0  0  0  0  0  0  0  0  0  0
   -1.7899    1.6234   -1.5248 H   0  0  0  0  0  0  0  0  0  0  0  0
    1.5253    4.4704   -0.1246 N   0  0  0  0  0  0  0  0  0  0  0  0
    2.3163    5.1301    0.2719 N   0  0  0  0  0  0  0  0  0  0  0  0
    5.6455    1.0578   -2.8707 C   0  0  0  0  0  0  0  0  0  0  0  0
    6.8228    0.3101   -2.9620 C   0  0  0  0  0  0  0  0  0  0  0  0
    7.6962    0.4581   -4.0500 C   0  0  0  0  0  0  0  0  0  0  0  0
    7.3638    1.3811   -5.0567 C   0  0  0  0  0  0  0  0  0  0  0  0
    6.1940    2.1372   -4.9879 C   0  0  0  0  0  0  0  0  0  0  0  0
    5.3467    1.9615   -3.8904 C   0  0  0  0  0  0  0  0  0  0  0  0
    4.9756    0.9497   -2.0196 H   0  0  0  0  0  0  0  0  0  0  0  0
    7.0680   -0.3953   -2.1668 H   0  0  0  0  0  0  0  0  0  0  0  0
    8.0359    1.5141   -5.9060 H   0  0  0  0  0  0  0  0  0  0  0  0
    5.9417    2.8600   -5.7612 H   0  0  0  0  0  0  0  0  0  0  0  0
    3.8265    2.9193   -3.8073 S   0  0  0  0  0  0  0  0  0  0  0  0
    3.3793    2.9984   -2.3939 O   0  0  0  0  0  0  0  0  0  0  0  0
    2.7454    1.9600   -4.6179 O   0  0  0  0  0  0  0  0  0  0  0  0
    3.9727    4.1251   -4.6445 O   0  0  0  0  0  0  0  0  0  0  0  0
    8.9750   -0.3383   -4.1367 C   0  0  0  0  0  0  0  0  0  0  0  0
    9.8506    0.3114   -3.9896 H   0  0  0  0  0  0  0  0  0  0  0  0
    9.0094   -1.1290   -3.3769 H   0  0  0  0  0  0  0  0  0  0  0  0
    9.0827   -0.8082   -5.1242 H   0  0  0  0  0  0  0  0  0  0  0  0
   -2.7196   -0.8152   -2.3099 O   0  0  0  0  0  0  0  0  0  0  0  0
   -3.7363    0.0313   -1.7769 C   0  0  0  0  0  0  0  0  0  0  0  0
   -4.6616   -0.5501   -1.8322 H   0  0  0  0  0  0  0  0  0  0  0  0
   -3.8417    0.9492   -2.3742 H   0  0  0  0  0  0  0  0  0  0  0  0
   -3.5276    0.2904   -0.7282 H   0  0  0  0  0  0  0  0  0  0  0  0
  1  2  2  0  0  0  0
  1  6  1  0  0  0  0
  2  3  1  0  0  0  0
  3  4  2  0  0  0  0
  4  5  1  0  0  0  0
  4  9  1  0  0  0  0
  5 10  1  0  0  0  0
  6 31  1  0  0  0  0
  6  5  2  0  0  0  0
  7  1  1  0  0  0  0
 11 12  3  0  0  0  0
 13 19  1  0  0  0  0
 14 13  1  0  0  0  0
 14 20  1  0  0  0  0
 15 14  2  0  0  0  0
 16 17  2  0  0  0  0
 16 15  1  0  0  0  0
 17 18  1  0  0  0  0
 18 23  1  0  0  0  0
 18 13  2  0  0  0  0
 21 16  1  0  0  0  0
 22 17  1  0  0  0  0
 23 24  2  0  0  0  0
 25  8  1  0  0  0  0
 25 23  1  0  0  0  0
 26 23  2  0  0  0  0
 27 15  1  0  0  0  0
 27 28  1  0  0  0  0
 27 29  1  0  0  0  0
 30 27  1  0  0  0  0
 31 32  1  0  0  0  0
 32 35  1  0  0  0  0
 33 32  1  0  0  0  0
 34 32  1  0  0  0  0
M  RAD  2   2   2   3   2
M  END
