Coordinates from ORCA-job p-CH3O-Ph-N2-OTs-B3LYPG-aug-cc-pVDZ-scan-d09-49-n400
 OpenBabel07022015293D

 35 34  0  0  0  0  0  0  0  0999 V2000
   -0.5031   -1.3386   -2.9133 C   0  0  0  0  0  0  0  0  0  0  0  0
    0.7664   -0.8123   -2.9041 C   0  0  0  0  0  0  0  0  0  0  0  0
    1.1895    0.3161   -2.5530 C   0  0  0  0  0  0  0  0  0  0  0  0
    0.3750    1.2874   -1.9628 C   0  0  0  0  0  0  0  0  0  0  0  0
   -0.9722    0.8813   -1.8940 C   0  0  0  0  0  0  0  0  0  0  0  0
   -1.4063   -0.3918   -2.3484 C   0  0  0  0  0  0  0  0  0  0  0  0
   -0.8378   -2.3213   -3.2345 H   0  0  0  0  0  0  0  0  0  0  0  0
    2.2996    1.4692   -3.9942 H   0  0  0  0  0  0  0  0  0  0  0  0
    0.7038    2.2685   -1.6297 H   0  0  0  0  0  0  0  0  0  0  0  0
   -1.6955    1.5846   -1.4870 H   0  0  0  0  0  0  0  0  0  0  0  0
    1.2961    4.6743   -0.3380 N   0  0  0  0  0  0  0  0  0  0  0  0
    1.9758    5.4689    0.0157 N   0  0  0  0  0  0  0  0  0  0  0  0
    5.6185    0.9981   -2.8646 C   0  0  0  0  0  0  0  0  0  0  0  0
    6.7792    0.2283   -2.9844 C   0  0  0  0  0  0  0  0  0  0  0  0
    7.6740    0.4233   -4.0469 C   0  0  0  0  0  0  0  0  0  0  0  0
    7.3823    1.4167   -4.9980 C   0  0  0  0  0  0  0  0  0  0  0  0
    6.2298    2.1955   -4.9003 C   0  0  0  0  0  0  0  0  0  0  0  0
    5.3592    1.9710   -3.8299 C   0  0  0  0  0  0  0  0  0  0  0  0
    4.9317    0.8557   -2.0324 H   0  0  0  0  0  0  0  0  0  0  0  0
    6.9944   -0.5307   -2.2311 H   0  0  0  0  0  0  0  0  0  0  0  0
    8.0732    1.5858   -5.8255 H   0  0  0  0  0  0  0  0  0  0  0  0
    6.0089    2.9731   -5.6288 H   0  0  0  0  0  0  0  0  0  0  0  0
    3.8591    2.9564   -3.7113 S   0  0  0  0  0  0  0  0  0  0  0  0
    3.3877    2.9540   -2.3034 O   0  0  0  0  0  0  0  0  0  0  0  0
    2.7732    2.0779   -4.6029 O   0  0  0  0  0  0  0  0  0  0  0  0
    4.0467    4.2108   -4.4648 O   0  0  0  0  0  0  0  0  0  0  0  0
    8.9333   -0.3996   -4.1680 C   0  0  0  0  0  0  0  0  0  0  0  0
    9.8262    0.2292   -4.0370 H   0  0  0  0  0  0  0  0  0  0  0  0
    8.9670   -1.1981   -3.4164 H   0  0  0  0  0  0  0  0  0  0  0  0
    9.0072   -0.8639   -5.1615 H   0  0  0  0  0  0  0  0  0  0  0  0
   -2.6975   -0.8249   -2.2715 O   0  0  0  0  0  0  0  0  0  0  0  0
   -3.6732    0.0223   -1.6674 C   0  0  0  0  0  0  0  0  0  0  0  0
   -4.6087   -0.5451   -1.6873 H   0  0  0  0  0  0  0  0  0  0  0  0
   -3.7962    0.9549   -2.2378 H   0  0  0  0  0  0  0  0  0  0  0  0
   -3.4066    0.2549   -0.6256 H   0  0  0  0  0  0  0  0  0  0  0  0
  1  2  2  0  0  0  0
  1  6  1  0  0  0  0
  2  3  1  0  0  0  0
  3  4  2  0  0  0  0
  4  5  1  0  0  0  0
  4  9  1  0  0  0  0
  5 10  1  0  0  0  0
  6 31  1  0  0  0  0
  6  5  2  0  0  0  0
  7  1  1  0  0  0  0
 11 12  3  0  0  0  0
 13 19  1  0  0  0  0
 14 13  1  0  0  0  0
 14 20  1  0  0  0  0
 15 14  2  0  0  0  0
 16 17  2  0  0  0  0
 16 15  1  0  0  0  0
 17 18  1  0  0  0  0
 18 23  1  0  0  0  0
 18 13  2  0  0  0  0
 21 16  1  0  0  0  0
 22 17  1  0  0  0  0
 23 24  2  0  0  0  0
 25  8  1  0  0  0  0
 25 23  1  0  0  0  0
 26 23  2  0  0  0  0
 27 15  1  0  0  0  0
 27 28  1  0  0  0  0
 27 29  1  0  0  0  0
 30 27  1  0  0  0  0
 31 32  1  0  0  0  0
 32 35  1  0  0  0  0
 33 32  1  0  0  0  0
 34 32  1  0  0  0  0
M  RAD  2   2   2   3   2
M  END
