Coordinates from ORCA-job p-CH3O-Ph-N2-OTs-B3LYPG-aug-cc-pVDZ-scan-d09-49-n400
 OpenBabel07022015293D

 35 34  0  0  0  0  0  0  0  0999 V2000
   -0.1963    0.1959   -2.8101 C   0  0  0  0  0  0  0  0  0  0  0  0
    0.6349    1.3168   -3.0227 C   0  0  0  0  0  0  0  0  0  0  0  0
    0.1525    2.3451   -2.3285 C   0  0  0  0  0  0  0  0  0  0  0  0
   -0.8764    2.6223   -1.4914 C   0  0  0  0  0  0  0  0  0  0  0  0
   -1.6706    1.4672   -1.3150 C   0  0  0  0  0  0  0  0  0  0  0  0
   -1.3256    0.2654   -1.9673 C   0  0  0  0  0  0  0  0  0  0  0  0
    0.0459   -0.7436   -3.3058 H   0  0  0  0  0  0  0  0  0  0  0  0
    1.5749    1.2962   -3.6879 H   0  0  0  0  0  0  0  0  0  0  0  0
   -1.0875    3.5728   -1.0129 H   0  0  0  0  0  0  0  0  0  0  0  0
   -2.5445    1.5459   -0.6738 H   0  0  0  0  0  0  0  0  0  0  0  0
    1.2746    4.1404   -2.5891 N   0  0  0  0  0  0  0  0  0  0  0  0
    1.5989    5.1914   -2.6717 N   0  0  0  0  0  0  0  0  0  0  0  0
    5.5177    0.1937   -4.4870 C   0  0  0  0  0  0  0  0  0  0  0  0
    6.7660   -0.4390   -4.4913 C   0  0  0  0  0  0  0  0  0  0  0  0
    7.9207    0.2281   -4.0641 C   0  0  0  0  0  0  0  0  0  0  0  0
    7.7966    1.5611   -3.6329 C   0  0  0  0  0  0  0  0  0  0  0  0
    6.5605    2.2057   -3.6231 C   0  0  0  0  0  0  0  0  0  0  0  0
    5.4241    1.5122   -4.0497 C   0  0  0  0  0  0  0  0  0  0  0  0
    4.6224   -0.3237   -4.8252 H   0  0  0  0  0  0  0  0  0  0  0  0
    6.8370   -1.4727   -4.8338 H   0  0  0  0  0  0  0  0  0  0  0  0
    8.6827    2.1041   -3.2993 H   0  0  0  0  0  0  0  0  0  0  0  0
    6.4781    3.2407   -3.2941 H   0  0  0  0  0  0  0  0  0  0  0  0
    3.8270    2.3709   -4.0210 S   0  0  0  0  0  0  0  0  0  0  0  0
    3.4883    2.6160   -2.5645 O   0  0  0  0  0  0  0  0  0  0  0  0
    2.8322    1.3642   -4.6400 O   0  0  0  0  0  0  0  0  0  0  0  0
    3.9779    3.6180   -4.8328 O   0  0  0  0  0  0  0  0  0  0  0  0
    9.2680   -0.4554   -4.0591 C   0  0  0  0  0  0  0  0  0  0  0  0
    9.6589   -0.5553   -3.0354 H   0  0  0  0  0  0  0  0  0  0  0  0
    9.2064   -1.4600   -4.4960 H   0  0  0  0  0  0  0  0  0  0  0  0
   10.0076    0.1197   -4.6353 H   0  0  0  0  0  0  0  0  0  0  0  0
   -2.0264   -0.8887   -1.8444 O   0  0  0  0  0  0  0  0  0  0  0  0
   -3.1721   -0.9100   -0.9919 C   0  0  0  0  0  0  0  0  0  0  0  0
   -3.5391   -1.9394   -1.0188 H   0  0  0  0  0  0  0  0  0  0  0  0
   -3.9527   -0.2302   -1.3654 H   0  0  0  0  0  0  0  0  0  0  0  0
   -2.9024   -0.6441    0.0412 H   0  0  0  0  0  0  0  0  0  0  0  0
  1  6  1  0  0  0  0
  2  1  2  0  0  0  0
  2  3  1  0  0  0  0
  3  4  2  0  0  0  0
  4  5  1  0  0  0  0
  4  9  1  0  0  0  0
  5 10  1  0  0  0  0
  6 31  1  0  0  0  0
  6  5  2  0  0  0  0
  7  1  1  0  0  0  0
  8  2  1  0  0  0  0
 12 11  3  0  0  0  0
 13 18  1  0  0  0  0
 14 13  2  0  0  0  0
 14 15  1  0  0  0  0
 15 27  1  0  0  0  0
 15 16  2  0  0  0  0
 16 17  1  0  0  0  0
 16 21  1  0  0  0  0
 17 22  1  0  0  0  0
 18 23  1  0  0  0  0
 18 17  2  0  0  0  0
 19 13  1  0  0  0  0
 20 14  1  0  0  0  0
 23 24  1  0  0  0  0
 25 23  2  0  0  0  0
 26 23  2  0  0  0  0
 27 28  1  0  0  0  0
 29 27  1  0  0  0  0
 30 27  1  0  0  0  0
 31 32  1  0  0  0  0
 32 35  1  0  0  0  0
 33 32  1  0  0  0  0
 34 32  1  0  0  0  0
M  RAD  2   3   2  24   2
M  END
