Coordinates from ORCA-job p-CH3O-Ph-N2-OTs-B3LYPG-aug-cc-pVDZ-scan-d09-49-n400
 OpenBabel07022015293D

 35 34  0  0  0  0  0  0  0  0999 V2000
   -0.1212    0.4227   -2.8174 C   0  0  0  0  0  0  0  0  0  0  0  0
    0.5621    1.6065   -2.4943 C   0  0  0  0  0  0  0  0  0  0  0  0
   -0.0487    2.4041   -1.7205 C   0  0  0  0  0  0  0  0  0  0  0  0
   -1.2532    2.4481   -1.0788 C   0  0  0  0  0  0  0  0  0  0  0  0
   -1.9634    1.2648   -1.3895 C   0  0  0  0  0  0  0  0  0  0  0  0
   -1.4081    0.2763   -2.2393 C   0  0  0  0  0  0  0  0  0  0  0  0
    0.2677   -0.3621   -3.4657 H   0  0  0  0  0  0  0  0  0  0  0  0
    2.2702    1.7934   -3.4243 H   0  0  0  0  0  0  0  0  0  0  0  0
   -1.6396    3.2326   -0.4340 H   0  0  0  0  0  0  0  0  0  0  0  0
   -2.9535    1.1398   -0.9575 H   0  0  0  0  0  0  0  0  0  0  0  0
    0.9881    4.4569   -1.0563 N   0  0  0  0  0  0  0  0  0  0  0  0
    1.8438    5.1539   -1.0914 N   0  0  0  0  0  0  0  0  0  0  0  0
    6.0118    0.7728   -2.8497 C   0  0  0  0  0  0  0  0  0  0  0  0
    7.1304   -0.0351   -3.0642 C   0  0  0  0  0  0  0  0  0  0  0  0
    7.9037    0.0882   -4.2294 C   0  0  0  0  0  0  0  0  0  0  0  0
    7.5279    1.0464   -5.1855 C   0  0  0  0  0  0  0  0  0  0  0  0
    6.4131    1.8638   -4.9924 C   0  0  0  0  0  0  0  0  0  0  0  0
    5.6668    1.7116   -3.8223 C   0  0  0  0  0  0  0  0  0  0  0  0
    5.4204    0.6849   -1.9403 H   0  0  0  0  0  0  0  0  0  0  0  0
    7.4078   -0.7695   -2.3068 H   0  0  0  0  0  0  0  0  0  0  0  0
    8.1212    1.1572   -6.0943 H   0  0  0  0  0  0  0  0  0  0  0  0
    6.1263    2.6121   -5.7287 H   0  0  0  0  0  0  0  0  0  0  0  0
    4.2300    2.7595   -3.5549 S   0  0  0  0  0  0  0  0  0  0  0  0
    4.0362    2.9908   -2.1001 O   0  0  0  0  0  0  0  0  0  0  0  0
    3.0344    1.7406   -4.0613 O   0  0  0  0  0  0  0  0  0  0  0  0
    4.2947    3.9038   -4.4907 O   0  0  0  0  0  0  0  0  0  0  0  0
    9.1250   -0.7717   -4.4463 C   0  0  0  0  0  0  0  0  0  0  0  0
   10.0453   -0.1840   -4.3092 H   0  0  0  0  0  0  0  0  0  0  0  0
    9.1550   -1.6128   -3.7425 H   0  0  0  0  0  0  0  0  0  0  0  0
    9.1491   -1.1777   -5.4669 H   0  0  0  0  0  0  0  0  0  0  0  0
   -2.0546   -0.8800   -2.5705 O   0  0  0  0  0  0  0  0  0  0  0  0
   -3.3568   -1.1163   -2.0458 C   0  0  0  0  0  0  0  0  0  0  0  0
   -3.6709   -2.0781   -2.4612 H   0  0  0  0  0  0  0  0  0  0  0  0
   -4.0627   -0.3328   -2.3617 H   0  0  0  0  0  0  0  0  0  0  0  0
   -3.3382   -1.1789   -0.9464 H   0  0  0  0  0  0  0  0  0  0  0  0
  1  2  2  0  0  0  0
  1  6  1  0  0  0  0
  2  3  1  0  0  0  0
  3  4  2  0  0  0  0
  4  9  1  0  0  0  0
  5  4  1  0  0  0  0
  5 10  1  0  0  0  0
  6  5  2  0  0  0  0
  7  1  1  0  0  0  0
 12 11  3  0  0  0  0
 13 19  1  0  0  0  0
 14 13  1  0  0  0  0
 14 20  1  0  0  0  0
 15 14  2  0  0  0  0
 16 17  2  0  0  0  0
 16 15  1  0  0  0  0
 17 18  1  0  0  0  0
 18 23  1  0  0  0  0
 18 13  2  0  0  0  0
 21 16  1  0  0  0  0
 22 17  1  0  0  0  0
 23 24  2  0  0  0  0
 25 23  1  0  0  0  0
 25  8  1  0  0  0  0
 26 23  2  0  0  0  0
 27 28  1  0  0  0  0
 27 15  1  0  0  0  0
 27 29  1  0  0  0  0
 30 27  1  0  0  0  0
 31  6  1  0  0  0  0
 31 32  1  0  0  0  0
 32 35  1  0  0  0  0
 33 32  1  0  0  0  0
 34 32  1  0  0  0  0
M  RAD  2   2   2   3   2
M  END
