Coordinates from ORCA-job p-CH3O-Ph-N2-OTs-B3LYPG-aug-cc-pVDZ-scan-d09-49-n400
 OpenBabel07022015293D

 35 36  0  0  1  0  0  0  0  0999 V2000
    1.3176    0.6706   -2.7635 C   0  0  0  0  0  0  0  0  0  0  0  0
    1.3351    1.8254   -3.6915 C   0  0  1  0  0  0  0  0  0  0  0  0
    0.0053    2.5578   -3.7286 C   0  0  0  0  0  0  0  0  0  0  0  0
   -0.9188    2.4225   -2.6136 C   0  0  0  0  0  0  0  0  0  0  0  0
   -0.7301    1.4720   -1.6658 C   0  0  0  0  0  0  0  0  0  0  0  0
    0.3881    0.5463   -1.7810 C   0  0  0  0  0  0  0  0  0  0  0  0
    2.1242   -0.0568   -2.8331 H   0  0  0  0  0  0  0  0  0  0  0  0
    1.6450    1.5557   -4.7058 H   0  0  0  0  0  0  0  0  0  0  0  0
   -1.7681    3.1040   -2.5715 H   0  0  0  0  0  0  0  0  0  0  0  0
   -1.4274    1.3918   -0.8372 H   0  0  0  0  0  0  0  0  0  0  0  0
   -0.2279    3.2705   -4.6276 N   0  0  0  0  0  0  0  0  0  0  0  0
   -0.4460    3.9664   -5.5146 N   0  0  0  0  0  0  0  0  0  0  0  0
    5.0565    0.9813   -4.9768 C   0  0  0  0  0  0  0  0  0  0  0  0
    5.9874   -0.0372   -4.7573 C   0  0  0  0  0  0  0  0  0  0  0  0
    6.6636   -0.1550   -3.5329 C   0  0  0  0  0  0  0  0  0  0  0  0
    6.3941    0.7893   -2.5272 C   0  0  0  0  0  0  0  0  0  0  0  0
    5.4725    1.8171   -2.7263 C   0  0  0  0  0  0  0  0  0  0  0  0
    4.8079    1.8954   -3.9521 C   0  0  0  0  0  0  0  0  0  0  0  0
    4.5433    1.0800   -5.9311 H   0  0  0  0  0  0  0  0  0  0  0  0
    6.1944   -0.7494   -5.5578 H   0  0  0  0  0  0  0  0  0  0  0  0
    6.9190    0.7266   -1.5731 H   0  0  0  0  0  0  0  0  0  0  0  0
    5.2784    2.5547   -1.9494 H   0  0  0  0  0  0  0  0  0  0  0  0
    3.6260    3.2278   -4.2165 S   0  0  0  0  0  0  0  0  0  0  0  0
    2.3720    2.8244   -3.2067 O   0  0  0  0  0  0  0  0  0  0  0  0
    3.1509    3.1568   -5.6223 O   0  0  0  0  0  0  0  0  0  0  0  0
    4.1639    4.4776   -3.6441 O   0  0  0  0  0  0  0  0  0  0  0  0
    7.6453   -1.2775   -3.2997 C   0  0  0  0  0  0  0  0  0  0  0  0
    7.1186   -2.2047   -3.0262 H   0  0  0  0  0  0  0  0  0  0  0  0
    8.2312   -1.4907   -4.2038 H   0  0  0  0  0  0  0  0  0  0  0  0
    8.3391   -1.0370   -2.4845 H   0  0  0  0  0  0  0  0  0  0  0  0
    0.5433   -0.4924   -0.9054 O   0  0  0  0  0  0  0  0  0  0  0  0
   -0.5383   -0.8583   -0.0491 C   0  0  0  0  0  0  0  0  0  0  0  0
   -0.2165   -1.7779    0.4491 H   0  0  0  0  0  0  0  0  0  0  0  0
   -1.4548   -1.0580   -0.6234 H   0  0  0  0  0  0  0  0  0  0  0  0
   -0.7346   -0.0874    0.7105 H   0  0  0  0  0  0  0  0  0  0  0  0
  1  6  1  0  0  0  0
  2  8  1  6  0  0  0
  2 24  1  0  0  0  0
  2  1  1  0  0  0  0
  3  2  1  0  0  0  0
  3  4  2  0  0  0  0
  4  9  1  0  0  0  0
  4  5  1  0  0  0  0
  5 10  1  0  0  0  0
  6  5  2  0  0  0  0
  6 31  1  0  0  0  0
  7  1  1  0  0  0  0
 11  3  1  0  0  0  0
 12 11  1  0  0  0  0
 13 14  2  0  0  0  0
 13 18  1  0  0  0  0
 14 15  1  0  0  0  0
 15 27  1  0  0  0  0
 15 16  2  0  0  0  0
 16 21  1  0  0  0  0
 17 16  1  0  0  0  0
 17 22  1  0  0  0  0
 18 17  2  0  0  0  0
 19 13  1  0  0  0  0
 20 14  1  0  0  0  0
 23 18  1  0  0  0  0
 23 26  2  0  0  0  0
 23 24  1  0  0  0  0
 25 23  2  0  0  0  0
 27 28  1  0  0  0  0
 27 30  1  0  0  0  0
 29 27  1  0  0  0  0
 31 32  1  0  0  0  0
 32 33  1  0  0  0  0
 32 35  1  0  0  0  0
 34 32  1  0  0  0  0
M  RAD  3   1   2  11   2  12   3
M  END
