Coordinates from ORCA-job p-CH3O-Ph-N2-OTs-B3LYPG-aug-cc-pVDZ-scan-d09-49-n400
 OpenBabel07022015293D

 35 35  0  0  0  0  0  0  0  0999 V2000
   -0.5418   -0.0179   -2.5847 C   0  0  0  0  0  0  0  0  0  0  0  0
    0.5610    0.8320   -2.7338 C   0  0  0  0  0  0  0  0  0  0  0  0
    0.3642    2.0338   -2.1251 C   0  0  0  0  0  0  0  0  0  0  0  0
   -0.6791    2.5500   -1.4082 C   0  0  0  0  0  0  0  0  0  0  0  0
   -1.7598    1.6601   -1.2808 C   0  0  0  0  0  0  0  0  0  0  0  0
   -1.6876    0.3821   -1.8673 C   0  0  0  0  0  0  0  0  0  0  0  0
   -0.5159   -1.0101   -3.0326 H   0  0  0  0  0  0  0  0  0  0  0  0
    1.4645    0.5483   -3.2971 H   0  0  0  0  0  0  0  0  0  0  0  0
   -0.6925    3.5455   -0.9748 H   0  0  0  0  0  0  0  0  0  0  0  0
   -2.6323    1.9895   -0.7239 H   0  0  0  0  0  0  0  0  0  0  0  0
    1.7605    3.2875   -2.2741 N   0  0  0  0  0  0  0  0  0  0  0  0
    2.0877    4.3451   -2.2103 N   0  0  0  0  0  0  0  0  0  0  0  0
    5.9155   -0.0659   -4.6230 C   0  0  0  0  0  0  0  0  0  0  0  0
    7.2862   -0.3380   -4.7021 C   0  0  0  0  0  0  0  0  0  0  0  0
    8.2399    0.5823   -4.2465 C   0  0  0  0  0  0  0  0  0  0  0  0
    7.7859    1.8010   -3.7110 C   0  0  0  0  0  0  0  0  0  0  0  0
    6.4252    2.0905   -3.6295 C   0  0  0  0  0  0  0  0  0  0  0  0
    5.4980    1.1494   -4.0869 C   0  0  0  0  0  0  0  0  0  0  0  0
    5.1758   -0.7836   -4.9730 H   0  0  0  0  0  0  0  0  0  0  0  0
    7.6179   -1.2860   -5.1282 H   0  0  0  0  0  0  0  0  0  0  0  0
    8.5095    2.5373   -3.3555 H   0  0  0  0  0  0  0  0  0  0  0  0
    6.0814    3.0387   -3.2197 H   0  0  0  0  0  0  0  0  0  0  0  0
    3.7362    1.5528   -3.9964 S   0  0  0  0  0  0  0  0  0  0  0  0
    3.4806    1.8000   -2.4943 O   0  0  0  0  0  0  0  0  0  0  0  0
    2.9842    0.3297   -4.4754 O   0  0  0  0  0  0  0  0  0  0  0  0
    3.5053    2.7959   -4.8030 O   0  0  0  0  0  0  0  0  0  0  0  0
    9.7167    0.2721   -4.3090 C   0  0  0  0  0  0  0  0  0  0  0  0
   10.1142    0.0412   -3.3089 H   0  0  0  0  0  0  0  0  0  0  0  0
    9.9144   -0.5927   -4.9553 H   0  0  0  0  0  0  0  0  0  0  0  0
   10.2896    1.1265   -4.6964 H   0  0  0  0  0  0  0  0  0  0  0  0
   -2.6784   -0.5397   -1.7985 O   0  0  0  0  0  0  0  0  0  0  0  0
   -3.8820   -0.2046   -1.1059 C   0  0  0  0  0  0  0  0  0  0  0  0
   -4.5240   -1.0862   -1.1882 H   0  0  0  0  0  0  0  0  0  0  0  0
   -4.3779    0.6575   -1.5758 H   0  0  0  0  0  0  0  0  0  0  0  0
   -3.6828    0.0077   -0.0451 H   0  0  0  0  0  0  0  0  0  0  0  0
  1  6  1  0  0  0  0
  2  1  2  0  0  0  0
  2  3  1  0  0  0  0
  3  4  2  0  0  0  0
  4  5  1  0  0  0  0
  4  9  1  0  0  0  0
  5 10  1  0  0  0  0
  6 31  1  0  0  0  0
  6  5  2  0  0  0  0
  7  1  1  0  0  0  0
  8  2  1  0  0  0  0
 11 12  2  0  0  0  0
 11  3  1  0  0  0  0
 13 18  1  0  0  0  0
 14 13  2  0  0  0  0
 14 15  1  0  0  0  0
 15 16  2  0  0  0  0
 16 17  1  0  0  0  0
 16 21  1  0  0  0  0
 17 22  1  0  0  0  0
 18 23  1  0  0  0  0
 18 17  2  0  0  0  0
 19 13  1  0  0  0  0
 20 14  1  0  0  0  0
 23 24  1  0  0  0  0
 25 23  2  0  0  0  0
 26 23  2  0  0  0  0
 27 15  1  0  0  0  0
 27 28  1  0  0  0  0
 29 27  1  0  0  0  0
 30 27  1  0  0  0  0
 31 32  1  0  0  0  0
 32 35  1  0  0  0  0
 33 32  1  0  0  0  0
 34 32  1  0  0  0  0
M  RAD  2  12   2  24   2
M  END
