Coordinates from ORCA-job p-CH3O-Ph-N2-OTs-B3LYPG-aug-cc-pVDZ-scan-d09-49-n400
 OpenBabel07022015293D

 35 34  0  0  0  0  0  0  0  0999 V2000
   -0.1349   -0.0782   -2.9672 C   0  0  0  0  0  0  0  0  0  0  0  0
    0.6263    1.0630   -2.7299 C   0  0  0  0  0  0  0  0  0  0  0  0
    0.2053    1.9949   -1.9998 C   0  0  0  0  0  0  0  0  0  0  0  0
   -0.9680    2.1893   -1.3125 C   0  0  0  0  0  0  0  0  0  0  0  0
   -1.7970    1.0586   -1.5081 C   0  0  0  0  0  0  0  0  0  0  0  0
   -1.3944   -0.0408   -2.3094 C   0  0  0  0  0  0  0  0  0  0  0  0
    0.1411   -0.9333   -3.5814 H   0  0  0  0  0  0  0  0  0  0  0  0
    2.4228    1.9441   -3.6639 H   0  0  0  0  0  0  0  0  0  0  0  0
   -1.2540    3.0442   -0.7057 H   0  0  0  0  0  0  0  0  0  0  0  0
   -2.7685    1.0544   -1.0192 H   0  0  0  0  0  0  0  0  0  0  0  0
    1.3316    5.4604   -0.7970 N   0  0  0  0  0  0  0  0  0  0  0  0
    2.1114    6.2416   -0.7810 N   0  0  0  0  0  0  0  0  0  0  0  0
    5.8905    0.8528   -2.8277 C   0  0  0  0  0  0  0  0  0  0  0  0
    6.9423   -0.0415   -3.0513 C   0  0  0  0  0  0  0  0  0  0  0  0
    7.7538    0.0616   -4.1906 C   0  0  0  0  0  0  0  0  0  0  0  0
    7.4914    1.0913   -5.1114 C   0  0  0  0  0  0  0  0  0  0  0  0
    6.4493    1.9950   -4.9087 C   0  0  0  0  0  0  0  0  0  0  0  0
    5.6580    1.8594   -3.7646 C   0  0  0  0  0  0  0  0  0  0  0  0
    5.2733    0.7843   -1.9338 H   0  0  0  0  0  0  0  0  0  0  0  0
    7.1377   -0.8260   -2.3190 H   0  0  0  0  0  0  0  0  0  0  0  0
    8.1186    1.1903   -5.9986 H   0  0  0  0  0  0  0  0  0  0  0  0
    6.2569    2.8027   -5.6123 H   0  0  0  0  0  0  0  0  0  0  0  0
    4.3090    3.0209   -3.5038 S   0  0  0  0  0  0  0  0  0  0  0  0
    3.9446    3.0418   -2.0655 O   0  0  0  0  0  0  0  0  0  0  0  0
    3.0627    2.2934   -4.3213 O   0  0  0  0  0  0  0  0  0  0  0  0
    4.6064    4.2619   -4.2462 O   0  0  0  0  0  0  0  0  0  0  0  0
    8.8959   -0.8958   -4.4287 C   0  0  0  0  0  0  0  0  0  0  0  0
    9.8588   -0.3647   -4.4341 H   0  0  0  0  0  0  0  0  0  0  0  0
    8.9402   -1.6737   -3.6561 H   0  0  0  0  0  0  0  0  0  0  0  0
    8.7955   -1.3937   -5.4040 H   0  0  0  0  0  0  0  0  0  0  0  0
   -2.1741   -1.1438   -2.5178 O   0  0  0  0  0  0  0  0  0  0  0  0
   -3.4673   -1.1958   -1.9238 C   0  0  0  0  0  0  0  0  0  0  0  0
   -3.9033   -2.1448   -2.2490 H   0  0  0  0  0  0  0  0  0  0  0  0
   -4.0993   -0.3646   -2.2722 H   0  0  0  0  0  0  0  0  0  0  0  0
   -3.4021   -1.1771   -0.8247 H   0  0  0  0  0  0  0  0  0  0  0  0
  1  2  2  0  0  0  0
  1  6  1  0  0  0  0
  2  3  1  0  0  0  0
  3  4  2  0  0  0  0
  4  9  1  0  0  0  0
  5  4  1  0  0  0  0
  5 10  1  0  0  0  0
  6  5  2  0  0  0  0
  7  1  1  0  0  0  0
 11 12  3  0  0  0  0
 13 19  1  0  0  0  0
 14 13  1  0  0  0  0
 14 20  1  0  0  0  0
 15 14  2  0  0  0  0
 16 17  2  0  0  0  0
 16 15  1  0  0  0  0
 17 18  1  0  0  0  0
 18 23  1  0  0  0  0
 18 13  2  0  0  0  0
 21 16  1  0  0  0  0
 22 17  1  0  0  0  0
 23 24  2  0  0  0  0
 25  8  1  0  0  0  0
 25 23  1  0  0  0  0
 26 23  2  0  0  0  0
 27 15  1  0  0  0  0
 27 29  1  0  0  0  0
 28 27  1  0  0  0  0
 30 27  1  0  0  0  0
 31  6  1  0  0  0  0
 31 32  1  0  0  0  0
 32 35  1  0  0  0  0
 33 32  1  0  0  0  0
 34 32  1  0  0  0  0
M  RAD  2   2   2   3   2
M  END
