Coordinates from ORCA-job p-CH3O-Ph-N2-OTs-B3LYPG-aug-cc-pVDZ-scan-d09-49-n400
 OpenBabel07022015293D

 35 34  0  0  0  0  0  0  0  0999 V2000
   -0.2716    0.2285   -3.0099 C   0  0  0  0  0  0  0  0  0  0  0  0
    0.4912    1.3581   -2.7037 C   0  0  0  0  0  0  0  0  0  0  0  0
    0.0558    2.1896   -1.8642 C   0  0  0  0  0  0  0  0  0  0  0  0
   -1.0779    2.2880   -1.1019 C   0  0  0  0  0  0  0  0  0  0  0  0
   -1.8924    1.1618   -1.3748 C   0  0  0  0  0  0  0  0  0  0  0  0
   -1.5010    0.1623   -2.3012 C   0  0  0  0  0  0  0  0  0  0  0  0
   -0.0046   -0.5577   -3.7142 H   0  0  0  0  0  0  0  0  0  0  0  0
    2.2997    1.7320   -3.6388 H   0  0  0  0  0  0  0  0  0  0  0  0
   -1.3496    3.0710   -0.3997 H   0  0  0  0  0  0  0  0  0  0  0  0
   -2.8403    1.0857   -0.8469 H   0  0  0  0  0  0  0  0  0  0  0  0
    1.2464    4.8457   -0.7816 N   0  0  0  0  0  0  0  0  0  0  0  0
    2.0528    5.5991   -0.7594 N   0  0  0  0  0  0  0  0  0  0  0  0
    5.9738    0.7964   -2.8835 C   0  0  0  0  0  0  0  0  0  0  0  0
    7.1055   -0.0055   -3.0507 C   0  0  0  0  0  0  0  0  0  0  0  0
    7.9287    0.1250   -4.1800 C   0  0  0  0  0  0  0  0  0  0  0  0
    7.5921    1.0857   -5.1486 C   0  0  0  0  0  0  0  0  0  0  0  0
    6.4665    1.8972   -5.0027 C   0  0  0  0  0  0  0  0  0  0  0  0
    5.6687    1.7371   -3.8675 C   0  0  0  0  0  0  0  0  0  0  0  0
    5.3428    0.7020   -2.0016 H   0  0  0  0  0  0  0  0  0  0  0  0
    7.3545   -0.7401   -2.2838 H   0  0  0  0  0  0  0  0  0  0  0  0
    8.2255    1.2041   -6.0291 H   0  0  0  0  0  0  0  0  0  0  0  0
    6.2100    2.6485   -5.7470 H   0  0  0  0  0  0  0  0  0  0  0  0
    4.2147    2.7755   -3.6708 S   0  0  0  0  0  0  0  0  0  0  0  0
    3.9210    2.9698   -2.2285 O   0  0  0  0  0  0  0  0  0  0  0  0
    3.0481    1.7694   -4.2812 O   0  0  0  0  0  0  0  0  0  0  0  0
    4.3314    3.9333   -4.5824 O   0  0  0  0  0  0  0  0  0  0  0  0
    9.1591   -0.7321   -4.3514 C   0  0  0  0  0  0  0  0  0  0  0  0
   10.0731   -0.1252   -4.2715 H   0  0  0  0  0  0  0  0  0  0  0  0
    9.2096   -1.5220   -3.5916 H   0  0  0  0  0  0  0  0  0  0  0  0
    9.1732   -1.2099   -5.3411 H   0  0  0  0  0  0  0  0  0  0  0  0
   -2.2630   -0.9347   -2.5890 O   0  0  0  0  0  0  0  0  0  0  0  0
   -3.5261   -1.0838   -1.9492 C   0  0  0  0  0  0  0  0  0  0  0  0
   -3.9541   -2.0051   -2.3548 H   0  0  0  0  0  0  0  0  0  0  0  0
   -4.1916   -0.2375   -2.1797 H   0  0  0  0  0  0  0  0  0  0  0  0
   -3.4118   -1.1805   -0.8582 H   0  0  0  0  0  0  0  0  0  0  0  0
  1  2  2  0  0  0  0
  1  6  1  0  0  0  0
  2  3  1  0  0  0  0
  3  4  2  0  0  0  0
  4  9  1  0  0  0  0
  5  4  1  0  0  0  0
  5 10  1  0  0  0  0
  6  5  2  0  0  0  0
  7  1  1  0  0  0  0
 11 12  3  0  0  0  0
 13 19  1  0  0  0  0
 14 13  1  0  0  0  0
 14 20  1  0  0  0  0
 15 14  2  0  0  0  0
 16 17  2  0  0  0  0
 16 15  1  0  0  0  0
 17 18  1  0  0  0  0
 18 23  1  0  0  0  0
 18 13  2  0  0  0  0
 21 16  1  0  0  0  0
 22 17  1  0  0  0  0
 23 24  2  0  0  0  0
 25 23  1  0  0  0  0
 25  8  1  0  0  0  0
 26 23  2  0  0  0  0
 27 28  1  0  0  0  0
 27 15  1  0  0  0  0
 27 29  1  0  0  0  0
 30 27  1  0  0  0  0
 31  6  1  0  0  0  0
 31 32  1  0  0  0  0
 32 35  1  0  0  0  0
 33 32  1  0  0  0  0
 34 32  1  0  0  0  0
M  RAD  2   2   2   3   2
M  END
