Coordinates from ORCA-job p-CH3O-Ph-N2-OTs-B3LYPG-aug-cc-pVDZ-scan-d09-49-n400
 OpenBabel07022015293D

 35 36  0  0  1  0  0  0  0  0999 V2000
    1.1517    0.6055   -2.8450 C   0  0  0  0  0  0  0  0  0  0  0  0
    1.2336    1.8094   -3.7009 C   0  0  1  0  0  0  0  0  0  0  0  0
   -0.0125    2.6423   -3.6058 C   0  0  0  0  0  0  0  0  0  0  0  0
   -0.9125    2.5279   -2.4871 C   0  0  0  0  0  0  0  0  0  0  0  0
   -0.7784    1.4996   -1.6078 C   0  0  0  0  0  0  0  0  0  0  0  0
    0.2494    0.4960   -1.8322 C   0  0  0  0  0  0  0  0  0  0  0  0
    1.8859   -0.1837   -2.9949 H   0  0  0  0  0  0  0  0  0  0  0  0
    1.4886    1.5889   -4.7408 H   0  0  0  0  0  0  0  0  0  0  0  0
   -1.6954    3.2762   -2.3674 H   0  0  0  0  0  0  0  0  0  0  0  0
   -1.4489    1.4255   -0.7571 H   0  0  0  0  0  0  0  0  0  0  0  0
   -0.2151    3.5259   -4.4966 N   0  0  0  0  0  0  0  0  0  0  0  0
   -0.3816    4.3145   -5.3028 N   0  0  0  0  0  0  0  0  0  0  0  0
    5.0428    0.8204   -4.9201 C   0  0  0  0  0  0  0  0  0  0  0  0
    6.0223   -0.1514   -4.6837 C   0  0  0  0  0  0  0  0  0  0  0  0
    6.7991   -0.1305   -3.5175 C   0  0  0  0  0  0  0  0  0  0  0  0
    6.5757    0.8958   -2.5807 C   0  0  0  0  0  0  0  0  0  0  0  0
    5.6085    1.8742   -2.7968 C   0  0  0  0  0  0  0  0  0  0  0  0
    4.8476    1.8201   -3.9688 C   0  0  0  0  0  0  0  0  0  0  0  0
    4.4542    0.8164   -5.8352 H   0  0  0  0  0  0  0  0  0  0  0  0
    6.1881   -0.9308   -5.4287 H   0  0  0  0  0  0  0  0  0  0  0  0
    7.1761    0.9324   -1.6705 H   0  0  0  0  0  0  0  0  0  0  0  0
    5.4492    2.6767   -2.0787 H   0  0  0  0  0  0  0  0  0  0  0  0
    3.6096    3.0962   -4.2507 S   0  0  0  0  0  0  0  0  0  0  0  0
    2.3981    2.6856   -3.2014 O   0  0  0  0  0  0  0  0  0  0  0  0
    3.1035    2.9638   -5.6433 O   0  0  0  0  0  0  0  0  0  0  0  0
    4.1299    4.3831   -3.7447 O   0  0  0  0  0  0  0  0  0  0  0  0
    7.8625   -1.1705   -3.2636 C   0  0  0  0  0  0  0  0  0  0  0  0
    7.6769   -1.7011   -2.3182 H   0  0  0  0  0  0  0  0  0  0  0  0
    7.8992   -1.9170   -4.0669 H   0  0  0  0  0  0  0  0  0  0  0  0
    8.8557   -0.7053   -3.1844 H   0  0  0  0  0  0  0  0  0  0  0  0
    0.3464   -0.6121   -1.0364 O   0  0  0  0  0  0  0  0  0  0  0  0
   -0.7377   -0.9527   -0.1733 C   0  0  0  0  0  0  0  0  0  0  0  0
   -0.4877   -1.9373    0.2334 H   0  0  0  0  0  0  0  0  0  0  0  0
   -1.6856   -1.0159   -0.7271 H   0  0  0  0  0  0  0  0  0  0  0  0
   -0.8388   -0.2364    0.6556 H   0  0  0  0  0  0  0  0  0  0  0  0
  1  6  1  0  0  0  0
  2  8  1  6  0  0  0
  2  3  1  0  0  0  0
  2 24  1  0  0  0  0
  2  1  1  0  0  0  0
  3  4  2  0  0  0  0
  4  9  1  0  0  0  0
  4  5  1  0  0  0  0
  5 10  1  0  0  0  0
  6  5  2  0  0  0  0
  6 31  1  0  0  0  0
  7  1  1  0  0  0  0
 11  3  1  0  0  0  0
 12 11  1  0  0  0  0
 13 14  2  0  0  0  0
 13 18  1  0  0  0  0
 14 15  1  0  0  0  0
 15 27  1  0  0  0  0
 15 16  2  0  0  0  0
 16 21  1  0  0  0  0
 17 16  1  0  0  0  0
 17 22  1  0  0  0  0
 18 17  2  0  0  0  0
 19 13  1  0  0  0  0
 20 14  1  0  0  0  0
 23 18  1  0  0  0  0
 23 26  2  0  0  0  0
 23 24  1  0  0  0  0
 25 23  2  0  0  0  0
 27 30  1  0  0  0  0
 27 28  1  0  0  0  0
 29 27  1  0  0  0  0
 31 32  1  0  0  0  0
 32 33  1  0  0  0  0
 32 35  1  0  0  0  0
 34 32  1  0  0  0  0
M  RAD  3   1   2  11   2  12   3
M  END
