Coordinates from ORCA-job p-CH3O-Ph-N2-OTs-B3LYPG-aug-cc-pVDZ-scan-d09-49-n400
 OpenBabel07022015293D

 35 34  0  0  0  0  0  0  0  0999 V2000
   -0.1058   -1.0827   -2.7668 C   0  0  0  0  0  0  0  0  0  0  0  0
    0.9777   -0.2475   -2.6445 C   0  0  0  0  0  0  0  0  0  0  0  0
    1.0681    0.9529   -2.2889 C   0  0  0  0  0  0  0  0  0  0  0  0
   -0.0272    1.6865   -1.8252 C   0  0  0  0  0  0  0  0  0  0  0  0
   -1.2269    0.9498   -1.8734 C   0  0  0  0  0  0  0  0  0  0  0  0
   -1.2736   -0.3946   -2.3272 C   0  0  0  0  0  0  0  0  0  0  0  0
   -0.1468   -2.1175   -3.0962 H   0  0  0  0  0  0  0  0  0  0  0  0
    2.4064    2.0371   -3.5729 H   0  0  0  0  0  0  0  0  0  0  0  0
    0.0023    2.7217   -1.4930 H   0  0  0  0  0  0  0  0  0  0  0  0
   -2.1436    1.4432   -1.5593 H   0  0  0  0  0  0  0  0  0  0  0  0
    1.2142    5.0645   -0.8196 N   0  0  0  0  0  0  0  0  0  0  0  0
    1.8471    5.9096   -0.4977 N   0  0  0  0  0  0  0  0  0  0  0  0
    5.7525    1.0450   -2.7340 C   0  0  0  0  0  0  0  0  0  0  0  0
    6.7706    0.1221   -2.9951 C   0  0  0  0  0  0  0  0  0  0  0  0
    7.5425    0.2036   -4.1630 C   0  0  0  0  0  0  0  0  0  0  0  0
    7.2748    1.2406   -5.0746 C   0  0  0  0  0  0  0  0  0  0  0  0
    6.2647    2.1709   -4.8359 C   0  0  0  0  0  0  0  0  0  0  0  0
    5.5127    2.0570   -3.6631 C   0  0  0  0  0  0  0  0  0  0  0  0
    5.1658    0.9942   -1.8189 H   0  0  0  0  0  0  0  0  0  0  0  0
    6.9703   -0.6678   -2.2698 H   0  0  0  0  0  0  0  0  0  0  0  0
    7.8720    1.3225   -5.9839 H   0  0  0  0  0  0  0  0  0  0  0  0
    6.0686    2.9829   -5.5336 H   0  0  0  0  0  0  0  0  0  0  0  0
    4.2018    3.2506   -3.3550 S   0  0  0  0  0  0  0  0  0  0  0  0
    3.8587    3.2311   -1.9117 O   0  0  0  0  0  0  0  0  0  0  0  0
    2.9183    2.6097   -4.1855 O   0  0  0  0  0  0  0  0  0  0  0  0
    4.5201    4.5049   -4.0646 O   0  0  0  0  0  0  0  0  0  0  0  0
    8.6482   -0.7847   -4.4429 C   0  0  0  0  0  0  0  0  0  0  0  0
    9.6240   -0.2797   -4.4891 H   0  0  0  0  0  0  0  0  0  0  0  0
    8.7028   -1.5614   -3.6698 H   0  0  0  0  0  0  0  0  0  0  0  0
    8.4955   -1.2828   -5.4114 H   0  0  0  0  0  0  0  0  0  0  0  0
   -2.4139   -1.1425   -2.3680 O   0  0  0  0  0  0  0  0  0  0  0  0
   -3.6300   -0.5710   -1.8894 C   0  0  0  0  0  0  0  0  0  0  0  0
   -4.3834   -1.3590   -1.9866 H   0  0  0  0  0  0  0  0  0  0  0  0
   -3.9271    0.2977   -2.4961 H   0  0  0  0  0  0  0  0  0  0  0  0
   -3.5411   -0.2753   -0.8334 H   0  0  0  0  0  0  0  0  0  0  0  0
  1  2  2  0  0  0  0
  1  6  1  0  0  0  0
  2  3  1  0  0  0  0
  3  4  2  0  0  0  0
  4  9  1  0  0  0  0
  5  4  1  0  0  0  0
  5 10  1  0  0  0  0
  6  5  2  0  0  0  0
  7  1  1  0  0  0  0
 11 12  3  0  0  0  0
 13 19  1  0  0  0  0
 14 13  1  0  0  0  0
 14 20  1  0  0  0  0
 15 14  2  0  0  0  0
 16 17  2  0  0  0  0
 16 15  1  0  0  0  0
 17 18  1  0  0  0  0
 18 23  1  0  0  0  0
 18 13  2  0  0  0  0
 21 16  1  0  0  0  0
 22 17  1  0  0  0  0
 23 24  2  0  0  0  0
 25  8  1  0  0  0  0
 25 23  1  0  0  0  0
 26 23  2  0  0  0  0
 27 15  1  0  0  0  0
 27 29  1  0  0  0  0
 28 27  1  0  0  0  0
 30 27  1  0  0  0  0
 31  6  1  0  0  0  0
 31 32  1  0  0  0  0
 32 35  1  0  0  0  0
 33 32  1  0  0  0  0
 34 32  1  0  0  0  0
M  RAD  2   2   2   3   2
M  END
