Coordinates from ORCA-job p-CH3O-Ph-N2-OTs-B3LYPG-aug-cc-pVDZ-scan-d09-49-n400
 OpenBabel07022015293D

 35 36  0  0  1  0  0  0  0  0999 V2000
    1.3187    0.6703   -2.7613 C   0  0  0  0  0  0  0  0  0  0  0  0
    1.3411    1.8263   -3.6892 C   0  0  1  0  0  0  0  0  0  0  0  0
    0.0028    2.5702   -3.7453 C   0  0  0  0  0  0  0  0  0  0  0  0
   -0.9082    2.4368   -2.6053 C   0  0  0  0  0  0  0  0  0  0  0  0
   -0.7180    1.4883   -1.6596 C   0  0  0  0  0  0  0  0  0  0  0  0
    0.3915    0.5505   -1.7782 C   0  0  0  0  0  0  0  0  0  0  0  0
    2.1220   -0.0607   -2.8337 H   0  0  0  0  0  0  0  0  0  0  0  0
    1.6428    1.5514   -4.7052 H   0  0  0  0  0  0  0  0  0  0  0  0
   -1.7492    3.1287   -2.5572 H   0  0  0  0  0  0  0  0  0  0  0  0
   -1.4075    1.4184   -0.8232 H   0  0  0  0  0  0  0  0  0  0  0  0
   -0.2239    3.2214   -4.6030 N   0  0  0  0  0  0  0  0  0  0  0  0
   -0.4549    3.9027   -5.5074 N   0  0  0  0  0  0  0  0  0  0  0  0
    5.0531    0.9791   -4.9751 C   0  0  0  0  0  0  0  0  0  0  0  0
    5.9852   -0.0379   -4.7565 C   0  0  0  0  0  0  0  0  0  0  0  0
    6.6651   -0.1529   -3.5335 C   0  0  0  0  0  0  0  0  0  0  0  0
    6.3973    0.7923   -2.5286 C   0  0  0  0  0  0  0  0  0  0  0  0
    5.4742    1.8193   -2.7268 C   0  0  0  0  0  0  0  0  0  0  0  0
    4.8066    1.8947   -3.9510 C   0  0  0  0  0  0  0  0  0  0  0  0
    4.5376    1.0761   -5.9283 H   0  0  0  0  0  0  0  0  0  0  0  0
    6.1910   -0.7509   -5.5566 H   0  0  0  0  0  0  0  0  0  0  0  0
    6.9247    0.7316   -1.5757 H   0  0  0  0  0  0  0  0  0  0  0  0
    5.2817    2.5582   -1.9507 H   0  0  0  0  0  0  0  0  0  0  0  0
    3.6253    3.2266   -4.2178 S   0  0  0  0  0  0  0  0  0  0  0  0
    2.3658    2.8197   -3.2081 O   0  0  0  0  0  0  0  0  0  0  0  0
    3.1525    3.1556   -5.6233 O   0  0  0  0  0  0  0  0  0  0  0  0
    4.1565    4.4754   -3.6383 O   0  0  0  0  0  0  0  0  0  0  0  0
    7.6500   -1.2735   -3.3042 C   0  0  0  0  0  0  0  0  0  0  0  0
    7.1241   -2.2144   -3.0816 H   0  0  0  0  0  0  0  0  0  0  0  0
    8.2690   -1.4497   -4.1942 H   0  0  0  0  0  0  0  0  0  0  0  0
    8.3132   -1.0541   -2.4583 H   0  0  0  0  0  0  0  0  0  0  0  0
    0.5391   -0.4877   -0.9012 O   0  0  0  0  0  0  0  0  0  0  0  0
   -0.5526   -0.8572   -0.0586 C   0  0  0  0  0  0  0  0  0  0  0  0
   -0.2393   -1.7825    0.4344 H   0  0  0  0  0  0  0  0  0  0  0  0
   -1.4640   -1.0477   -0.6439 H   0  0  0  0  0  0  0  0  0  0  0  0
   -0.7532   -0.0924    0.7061 H   0  0  0  0  0  0  0  0  0  0  0  0
  1  6  1  0  0  0  0
  2  8  1  6  0  0  0
  2 24  1  0  0  0  0
  2  1  1  0  0  0  0
  3  2  1  0  0  0  0
  3  4  2  0  0  0  0
  4  9  1  0  0  0  0
  4  5  1  0  0  0  0
  5 10  1  0  0  0  0
  6  5  2  0  0  0  0
  6 31  1  0  0  0  0
  7  1  1  0  0  0  0
 11  3  1  0  0  0  0
 12 11  1  0  0  0  0
 13 14  2  0  0  0  0
 13 18  1  0  0  0  0
 14 15  1  0  0  0  0
 15 27  1  0  0  0  0
 15 16  2  0  0  0  0
 16 21  1  0  0  0  0
 17 16  1  0  0  0  0
 17 22  1  0  0  0  0
 18 17  2  0  0  0  0
 19 13  1  0  0  0  0
 20 14  1  0  0  0  0
 23 18  1  0  0  0  0
 23 26  2  0  0  0  0
 23 24  1  0  0  0  0
 25 23  2  0  0  0  0
 27 28  1  0  0  0  0
 27 30  1  0  0  0  0
 29 27  1  0  0  0  0
 31 32  1  0  0  0  0
 32 33  1  0  0  0  0
 32 35  1  0  0  0  0
 34 32  1  0  0  0  0
M  RAD  3   1   2  11   2  12   3
M  END
