Coordinates from ORCA-job p-CH3O-Ph-N2-OTs-B3LYPG-aug-cc-pVDZ-scan-d09-49-n400
 OpenBabel07022015293D

 35 34  0  0  0  0  0  0  0  0999 V2000
   -0.4889   -1.3147   -2.8308 C   0  0  0  0  0  0  0  0  0  0  0  0
    0.7747   -0.7757   -2.7680 C   0  0  0  0  0  0  0  0  0  0  0  0
    1.1595    0.3655   -2.4149 C   0  0  0  0  0  0  0  0  0  0  0  0
    0.3090    1.3408   -1.8899 C   0  0  0  0  0  0  0  0  0  0  0  0
   -1.0351    0.9185   -1.8808 C   0  0  0  0  0  0  0  0  0  0  0  0
   -1.4304   -0.3686   -2.3313 C   0  0  0  0  0  0  0  0  0  0  0  0
   -0.7970   -2.3060   -3.1525 H   0  0  0  0  0  0  0  0  0  0  0  0
    2.2765    1.4034   -3.9569 H   0  0  0  0  0  0  0  0  0  0  0  0
    0.6082    2.3321   -1.5594 H   0  0  0  0  0  0  0  0  0  0  0  0
   -1.7858    1.6200   -1.5226 H   0  0  0  0  0  0  0  0  0  0  0  0
    1.5291    4.4883   -0.1269 N   0  0  0  0  0  0  0  0  0  0  0  0
    2.3197    5.1526    0.2631 N   0  0  0  0  0  0  0  0  0  0  0  0
    5.6435    1.0562   -2.8699 C   0  0  0  0  0  0  0  0  0  0  0  0
    6.8206    0.3082   -2.9622 C   0  0  0  0  0  0  0  0  0  0  0  0
    7.6941    0.4576   -4.0498 C   0  0  0  0  0  0  0  0  0  0  0  0
    7.3623    1.3823   -5.0552 C   0  0  0  0  0  0  0  0  0  0  0  0
    6.1927    2.1387   -4.9854 C   0  0  0  0  0  0  0  0  0  0  0  0
    5.3451    1.9616   -3.8883 C   0  0  0  0  0  0  0  0  0  0  0  0
    4.9735    0.9471   -2.0191 H   0  0  0  0  0  0  0  0  0  0  0  0
    7.0654   -0.3984   -2.1681 H   0  0  0  0  0  0  0  0  0  0  0  0
    8.0345    1.5164   -5.9042 H   0  0  0  0  0  0  0  0  0  0  0  0
    5.9408    2.8628   -5.7576 H   0  0  0  0  0  0  0  0  0  0  0  0
    3.8252    2.9197   -3.8039 S   0  0  0  0  0  0  0  0  0  0  0  0
    3.3782    2.9971   -2.3903 O   0  0  0  0  0  0  0  0  0  0  0  0
    2.7438    1.9619   -4.6158 O   0  0  0  0  0  0  0  0  0  0  0  0
    3.9718    4.1265   -4.6396 O   0  0  0  0  0  0  0  0  0  0  0  0
    8.9726   -0.3392   -4.1377 C   0  0  0  0  0  0  0  0  0  0  0  0
    9.8486    0.3101   -3.9905 H   0  0  0  0  0  0  0  0  0  0  0  0
    9.0072   -1.1304   -3.3784 H   0  0  0  0  0  0  0  0  0  0  0  0
    9.0797   -0.8084   -5.1256 H   0  0  0  0  0  0  0  0  0  0  0  0
   -2.7191   -0.8156   -2.3127 O   0  0  0  0  0  0  0  0  0  0  0  0
   -3.7346    0.0314   -1.7780 C   0  0  0  0  0  0  0  0  0  0  0  0
   -4.6608   -0.5485   -1.8347 H   0  0  0  0  0  0  0  0  0  0  0  0
   -3.8385    0.9506   -2.3734 H   0  0  0  0  0  0  0  0  0  0  0  0
   -3.5256    0.2880   -0.7287 H   0  0  0  0  0  0  0  0  0  0  0  0
  1  2  2  0  0  0  0
  1  6  1  0  0  0  0
  2  3  1  0  0  0  0
  3  4  2  0  0  0  0
  4  5  1  0  0  0  0
  4  9  1  0  0  0  0
  5 10  1  0  0  0  0
  6 31  1  0  0  0  0
  6  5  2  0  0  0  0
  7  1  1  0  0  0  0
 11 12  3  0  0  0  0
 13 19  1  0  0  0  0
 14 13  1  0  0  0  0
 14 20  1  0  0  0  0
 15 14  2  0  0  0  0
 16 17  2  0  0  0  0
 16 15  1  0  0  0  0
 17 18  1  0  0  0  0
 18 23  1  0  0  0  0
 18 13  2  0  0  0  0
 21 16  1  0  0  0  0
 22 17  1  0  0  0  0
 23 24  2  0  0  0  0
 25  8  1  0  0  0  0
 25 23  1  0  0  0  0
 26 23  2  0  0  0  0
 27 15  1  0  0  0  0
 27 28  1  0  0  0  0
 27 29  1  0  0  0  0
 30 27  1  0  0  0  0
 31 32  1  0  0  0  0
 32 35  1  0  0  0  0
 33 32  1  0  0  0  0
 34 32  1  0  0  0  0
M  RAD  2   2   2   3   2
M  END
