Coordinates from ORCA-job p-CH3O-Ph-N2-OTs-B3LYPG-aug-cc-pVDZ-scan-d09-49-n400
 OpenBabel07022015293D

 35 36  0  0  1  0  0  0  0  0999 V2000
    1.2929    0.6550   -2.7793 C   0  0  0  0  0  0  0  0  0  0  0  0
    1.3372    1.8243   -3.6907 C   0  0  1  0  0  0  0  0  0  0  0  0
   -0.0128    2.6210   -3.7581 C   0  0  1  0  0  0  0  0  0  0  0  0
   -0.8817    2.4886   -2.5542 C   0  0  0  0  0  0  0  0  0  0  0  0
   -0.6935    1.5244   -1.6319 C   0  0  0  0  0  0  0  0  0  0  0  0
    0.3787    0.5451   -1.7868 C   0  0  0  0  0  0  0  0  0  0  0  0
    2.0737   -0.0978   -2.8782 H   0  0  0  0  0  0  0  0  0  0  0  0
    1.6001    1.5551   -4.7199 H   0  0  0  0  0  0  0  0  0  0  0  0
   -1.6874    3.2192   -2.4752 H   0  0  0  0  0  0  0  0  0  0  0  0
   -1.3557    1.4739   -0.7714 H   0  0  0  0  0  0  0  0  0  0  0  0
   -0.2183    3.1761   -4.5141 N   0  0  0  0  0  0  0  0  0  0  0  0
   -0.4694    3.8546   -5.4398 N   0  0  0  0  0  0  0  0  0  0  0  0
    5.0344    0.9346   -4.9587 C   0  0  0  0  0  0  0  0  0  0  0  0
    5.9762   -0.0707   -4.7320 C   0  0  0  0  0  0  0  0  0  0  0  0
    6.6893   -0.1428   -3.5243 C   0  0  0  0  0  0  0  0  0  0  0  0
    6.4427    0.8318   -2.5428 C   0  0  0  0  0  0  0  0  0  0  0  0
    5.5096    1.8489   -2.7493 C   0  0  0  0  0  0  0  0  0  0  0  0
    4.8109    1.8820   -3.9576 C   0  0  0  0  0  0  0  0  0  0  0  0
    4.4951    1.0004   -5.9013 H   0  0  0  0  0  0  0  0  0  0  0  0
    6.1658   -0.8069   -5.5149 H   0  0  0  0  0  0  0  0  0  0  0  0
    6.9941    0.8025   -1.6023 H   0  0  0  0  0  0  0  0  0  0  0  0
    5.3337    2.6119   -1.9929 H   0  0  0  0  0  0  0  0  0  0  0  0
    3.6203    3.2002   -4.2408 S   0  0  0  0  0  0  0  0  0  0  0  0
    2.3578    2.7878   -3.2182 O   0  0  0  0  0  0  0  0  0  0  0  0
    3.1431    3.1074   -5.6415 O   0  0  0  0  0  0  0  0  0  0  0  0
    4.1332    4.4579   -3.6668 O   0  0  0  0  0  0  0  0  0  0  0  0
    7.6908   -1.2483   -3.2930 C   0  0  0  0  0  0  0  0  0  0  0  0
    7.1806   -2.2106   -3.1366 H   0  0  0  0  0  0  0  0  0  0  0  0
    8.3556   -1.3702   -4.1595 H   0  0  0  0  0  0  0  0  0  0  0  0
    8.3091   -1.0482   -2.4094 H   0  0  0  0  0  0  0  0  0  0  0  0
    0.5014   -0.5088   -0.9261 O   0  0  0  0  0  0  0  0  0  0  0  0
   -0.6085   -0.8787   -0.1061 C   0  0  0  0  0  0  0  0  0  0  0  0
   -0.3250   -1.8294    0.3554 H   0  0  0  0  0  0  0  0  0  0  0  0
   -1.5186   -1.0214   -0.7062 H   0  0  0  0  0  0  0  0  0  0  0  0
   -0.7950   -0.1369    0.6842 H   0  0  0  0  0  0  0  0  0  0  0  0
  1  6  2  0  0  0  0
  2  8  1  6  0  0  0
  2 24  1  0  0  0  0
  2  1  1  0  0  0  0
  3 11  1  1  0  0  0
  3  2  1  0  0  0  0
  3  4  1  0  0  0  0
  4  9  1  0  0  0  0
  4  5  2  0  0  0  0
  5 10  1  0  0  0  0
  6  5  1  0  0  0  0
  6 31  1  0  0  0  0
  7  1  1  0  0  0  0
 12 11  1  0  0  0  0
 13 14  2  0  0  0  0
 13 18  1  0  0  0  0
 14 15  1  0  0  0  0
 15 27  1  0  0  0  0
 15 16  2  0  0  0  0
 16 21  1  0  0  0  0
 17 16  1  0  0  0  0
 17 22  1  0  0  0  0
 18 17  2  0  0  0  0
 19 13  1  0  0  0  0
 20 14  1  0  0  0  0
 23 18  1  0  0  0  0
 23 26  2  0  0  0  0
 23 24  1  0  0  0  0
 25 23  2  0  0  0  0
 27 28  1  0  0  0  0
 27 30  1  0  0  0  0
 29 27  1  0  0  0  0
 31 32  1  0  0  0  0
 32 33  1  0  0  0  0
 32 35  1  0  0  0  0
 34 32  1  0  0  0  0
M  RAD  3   3   2  11   2  12   3
M  END
