Coordinates from ORCA-job p-CH3O-Ph-N2-OTs-B3LYPG-aug-cc-pVDZ-scan-d09-49-n400
 OpenBabel07022015293D

 35 34  0  0  0  0  0  0  0  0999 V2000
   -0.1336    0.4082   -2.8260 C   0  0  0  0  0  0  0  0  0  0  0  0
    0.5542    1.5889   -2.5041 C   0  0  0  0  0  0  0  0  0  0  0  0
   -0.0457    2.3911   -1.7283 C   0  0  0  0  0  0  0  0  0  0  0  0
   -1.2470    2.4417   -1.0809 C   0  0  0  0  0  0  0  0  0  0  0  0
   -1.9644    1.2617   -1.3891 C   0  0  0  0  0  0  0  0  0  0  0  0
   -1.4188    0.2698   -2.2415 C   0  0  0  0  0  0  0  0  0  0  0  0
    0.2481   -0.3786   -3.4760 H   0  0  0  0  0  0  0  0  0  0  0  0
    2.2731    1.7829   -3.4356 H   0  0  0  0  0  0  0  0  0  0  0  0
   -1.6267    3.2278   -0.4342 H   0  0  0  0  0  0  0  0  0  0  0  0
   -2.9531    1.1419   -0.9524 H   0  0  0  0  0  0  0  0  0  0  0  0
    1.0050    4.4773   -1.0448 N   0  0  0  0  0  0  0  0  0  0  0  0
    1.8584    5.1771   -1.0767 N   0  0  0  0  0  0  0  0  0  0  0  0
    6.0134    0.7698   -2.8526 C   0  0  0  0  0  0  0  0  0  0  0  0
    7.1345   -0.0349   -3.0655 C   0  0  0  0  0  0  0  0  0  0  0  0
    7.9112    0.0929   -4.2279 C   0  0  0  0  0  0  0  0  0  0  0  0
    7.5364    1.0527   -5.1828 C   0  0  0  0  0  0  0  0  0  0  0  0
    6.4192    1.8670   -4.9914 C   0  0  0  0  0  0  0  0  0  0  0  0
    5.6693    1.7102   -3.8241 C   0  0  0  0  0  0  0  0  0  0  0  0
    5.4193    0.6786   -1.9453 H   0  0  0  0  0  0  0  0  0  0  0  0
    7.4114   -0.7704   -2.3089 H   0  0  0  0  0  0  0  0  0  0  0  0
    8.1327    1.1674   -6.0892 H   0  0  0  0  0  0  0  0  0  0  0  0
    6.1331    2.6165   -5.7267 H   0  0  0  0  0  0  0  0  0  0  0  0
    4.2296    2.7543   -3.5589 S   0  0  0  0  0  0  0  0  0  0  0  0
    4.0303    2.9821   -2.1044 O   0  0  0  0  0  0  0  0  0  0  0  0
    3.0375    1.7327   -4.0708 O   0  0  0  0  0  0  0  0  0  0  0  0
    4.2938    3.9001   -4.4927 O   0  0  0  0  0  0  0  0  0  0  0  0
    9.1346   -0.7642   -4.4440 C   0  0  0  0  0  0  0  0  0  0  0  0
   10.0534   -0.1708   -4.3234 H   0  0  0  0  0  0  0  0  0  0  0  0
    9.1743   -1.5961   -3.7297 H   0  0  0  0  0  0  0  0  0  0  0  0
    9.1511   -1.1838   -5.4594 H   0  0  0  0  0  0  0  0  0  0  0  0
   -2.0736   -0.8828   -2.5694 O   0  0  0  0  0  0  0  0  0  0  0  0
   -3.3749   -1.1112   -2.0390 C   0  0  0  0  0  0  0  0  0  0  0  0
   -3.6968   -2.0708   -2.4532 H   0  0  0  0  0  0  0  0  0  0  0  0
   -4.0773   -0.3232   -2.3517 H   0  0  0  0  0  0  0  0  0  0  0  0
   -3.3518   -1.1741   -0.9397 H   0  0  0  0  0  0  0  0  0  0  0  0
  1  2  2  0  0  0  0
  1  6  1  0  0  0  0
  2  3  1  0  0  0  0
  3  4  2  0  0  0  0
  4  9  1  0  0  0  0
  5  4  1  0  0  0  0
  5 10  1  0  0  0  0
  6  5  2  0  0  0  0
  7  1  1  0  0  0  0
 12 11  3  0  0  0  0
 13 19  1  0  0  0  0
 14 13  1  0  0  0  0
 14 20  1  0  0  0  0
 15 14  2  0  0  0  0
 16 17  2  0  0  0  0
 16 15  1  0  0  0  0
 17 18  1  0  0  0  0
 18 23  1  0  0  0  0
 18 13  2  0  0  0  0
 21 16  1  0  0  0  0
 22 17  1  0  0  0  0
 23 24  2  0  0  0  0
 25 23  1  0  0  0  0
 25  8  1  0  0  0  0
 26 23  2  0  0  0  0
 27 28  1  0  0  0  0
 27 15  1  0  0  0  0
 27 29  1  0  0  0  0
 30 27  1  0  0  0  0
 31  6  1  0  0  0  0
 31 32  1  0  0  0  0
 32 35  1  0  0  0  0
 33 32  1  0  0  0  0
 34 32  1  0  0  0  0
M  RAD  2   2   2   3   2
M  END
