Coordinates from ORCA-job p-CH3O-Ph-N2-OTs-B3LYPG-aug-cc-pVDZ-scan-d09-49-n400
 OpenBabel07022015293D

 35 34  0  0  0  0  0  0  0  0999 V2000
   -0.2467    0.2791   -2.9626 C   0  0  0  0  0  0  0  0  0  0  0  0
    0.5005    1.4211   -2.6556 C   0  0  0  0  0  0  0  0  0  0  0  0
    0.0266    2.2483   -1.8305 C   0  0  0  0  0  0  0  0  0  0  0  0
   -1.1223    2.3393   -1.0928 C   0  0  0  0  0  0  0  0  0  0  0  0
   -1.9159    1.2001   -1.3716 C   0  0  0  0  0  0  0  0  0  0  0  0
   -1.4900    0.1992   -2.2808 C   0  0  0  0  0  0  0  0  0  0  0  0
    0.0459   -0.5102   -3.6536 H   0  0  0  0  0  0  0  0  0  0  0  0
    2.2875    1.7277   -3.5892 H   0  0  0  0  0  0  0  0  0  0  0  0
   -1.4173    3.1254   -0.4037 H   0  0  0  0  0  0  0  0  0  0  0  0
   -2.8735    1.1165   -0.8627 H   0  0  0  0  0  0  0  0  0  0  0  0
    1.1821    4.6777   -0.9052 N   0  0  0  0  0  0  0  0  0  0  0  0
    2.0075    5.4106   -0.9031 N   0  0  0  0  0  0  0  0  0  0  0  0
    5.9854    0.7741   -2.8800 C   0  0  0  0  0  0  0  0  0  0  0  0
    7.1202   -0.0199   -3.0607 C   0  0  0  0  0  0  0  0  0  0  0  0
    7.9374    0.1267   -4.1925 C   0  0  0  0  0  0  0  0  0  0  0  0
    7.5911    1.0952   -5.1496 C   0  0  0  0  0  0  0  0  0  0  0  0
    6.4616    1.8990   -4.9903 C   0  0  0  0  0  0  0  0  0  0  0  0
    5.6702    1.7229   -3.8531 C   0  0  0  0  0  0  0  0  0  0  0  0
    5.3591    0.6680   -1.9961 H   0  0  0  0  0  0  0  0  0  0  0  0
    7.3764   -0.7611   -2.3024 H   0  0  0  0  0  0  0  0  0  0  0  0
    8.2199    1.2255   -6.0318 H   0  0  0  0  0  0  0  0  0  0  0  0
    6.1973    2.6559   -5.7261 H   0  0  0  0  0  0  0  0  0  0  0  0
    4.2134    2.7527   -3.6349 S   0  0  0  0  0  0  0  0  0  0  0  0
    3.9433    2.9495   -2.1881 O   0  0  0  0  0  0  0  0  0  0  0  0
    3.0475    1.7342   -4.2219 O   0  0  0  0  0  0  0  0  0  0  0  0
    4.3084    3.9116   -4.5482 O   0  0  0  0  0  0  0  0  0  0  0  0
    9.1718   -0.7218   -4.3774 C   0  0  0  0  0  0  0  0  0  0  0  0
   10.0830   -0.1120   -4.2870 H   0  0  0  0  0  0  0  0  0  0  0  0
    9.2254   -1.5237   -3.6305 H   0  0  0  0  0  0  0  0  0  0  0  0
    9.1888   -1.1832   -5.3748 H   0  0  0  0  0  0  0  0  0  0  0  0
   -2.2291   -0.9112   -2.5762 O   0  0  0  0  0  0  0  0  0  0  0  0
   -3.5025   -1.0753   -1.9609 C   0  0  0  0  0  0  0  0  0  0  0  0
   -3.9080   -2.0059   -2.3684 H   0  0  0  0  0  0  0  0  0  0  0  0
   -4.1761   -0.2411   -2.2108 H   0  0  0  0  0  0  0  0  0  0  0  0
   -3.4086   -1.1628   -0.8671 H   0  0  0  0  0  0  0  0  0  0  0  0
  1  2  2  0  0  0  0
  1  6  1  0  0  0  0
  2  3  1  0  0  0  0
  3  4  2  0  0  0  0
  4  9  1  0  0  0  0
  5  4  1  0  0  0  0
  5 10  1  0  0  0  0
  6  5  2  0  0  0  0
  7  1  1  0  0  0  0
 11 12  3  0  0  0  0
 13 19  1  0  0  0  0
 14 13  1  0  0  0  0
 14 20  1  0  0  0  0
 15 14  2  0  0  0  0
 16 17  2  0  0  0  0
 16 15  1  0  0  0  0
 17 18  1  0  0  0  0
 18 23  1  0  0  0  0
 18 13  2  0  0  0  0
 21 16  1  0  0  0  0
 22 17  1  0  0  0  0
 23 24  2  0  0  0  0
 25 23  1  0  0  0  0
 25  8  1  0  0  0  0
 26 23  2  0  0  0  0
 27 28  1  0  0  0  0
 27 15  1  0  0  0  0
 27 29  1  0  0  0  0
 30 27  1  0  0  0  0
 31  6  1  0  0  0  0
 31 32  1  0  0  0  0
 32 35  1  0  0  0  0
 33 32  1  0  0  0  0
 34 32  1  0  0  0  0
M  RAD  2   2   2   3   2
M  END
