Coordinates from ORCA-job p-CH3O-Ph-N2-OTs-B3LYPG-aug-cc-pVDZ-scan-d09-49-n400
 OpenBabel07022015293D

 35 34  0  0  0  0  0  0  0  0999 V2000
   -0.5037   -1.3247   -2.9110 C   0  0  0  0  0  0  0  0  0  0  0  0
    0.7640   -0.7940   -2.8999 C   0  0  0  0  0  0  0  0  0  0  0  0
    1.1828    0.3350   -2.5458 C   0  0  0  0  0  0  0  0  0  0  0  0
    0.3650    1.3020   -1.9538 C   0  0  0  0  0  0  0  0  0  0  0  0
   -0.9808    0.8912   -1.8866 C   0  0  0  0  0  0  0  0  0  0  0  0
   -1.4103   -0.3822   -2.3442 C   0  0  0  0  0  0  0  0  0  0  0  0
   -0.8350   -2.3078   -3.2346 H   0  0  0  0  0  0  0  0  0  0  0  0
    2.3030    1.4701   -3.9907 H   0  0  0  0  0  0  0  0  0  0  0  0
    0.6911    2.2828   -1.6177 H   0  0  0  0  0  0  0  0  0  0  0  0
   -1.7066    1.5912   -1.4783 H   0  0  0  0  0  0  0  0  0  0  0  0
    1.2707    4.6219   -0.3666 N   0  0  0  0  0  0  0  0  0  0  0  0
    1.9399    5.4205   -0.0023 N   0  0  0  0  0  0  0  0  0  0  0  0
    5.6261    0.9965   -2.8670 C   0  0  0  0  0  0  0  0  0  0  0  0
    6.7871    0.2272   -2.9868 C   0  0  0  0  0  0  0  0  0  0  0  0
    7.6820    0.4228   -4.0491 C   0  0  0  0  0  0  0  0  0  0  0  0
    7.3901    1.4164   -5.0000 C   0  0  0  0  0  0  0  0  0  0  0  0
    6.2373    2.1947   -4.9022 C   0  0  0  0  0  0  0  0  0  0  0  0
    5.3666    1.9696   -3.8321 C   0  0  0  0  0  0  0  0  0  0  0  0
    4.9392    0.8537   -2.0349 H   0  0  0  0  0  0  0  0  0  0  0  0
    7.0024   -0.5320   -2.2337 H   0  0  0  0  0  0  0  0  0  0  0  0
    8.0811    1.5859   -5.8274 H   0  0  0  0  0  0  0  0  0  0  0  0
    6.0161    2.9724   -5.6306 H   0  0  0  0  0  0  0  0  0  0  0  0
    3.8660    2.9543   -3.7135 S   0  0  0  0  0  0  0  0  0  0  0  0
    3.3957    2.9540   -2.3053 O   0  0  0  0  0  0  0  0  0  0  0  0
    2.7799    2.0733   -4.6022 O   0  0  0  0  0  0  0  0  0  0  0  0
    4.0524    4.2076   -4.4691 O   0  0  0  0  0  0  0  0  0  0  0  0
    8.9416   -0.3996   -4.1700 C   0  0  0  0  0  0  0  0  0  0  0  0
    9.8342    0.2291   -4.0356 H   0  0  0  0  0  0  0  0  0  0  0  0
    8.9740   -1.2001   -3.4206 H   0  0  0  0  0  0  0  0  0  0  0  0
    9.0176   -0.8611   -5.1647 H   0  0  0  0  0  0  0  0  0  0  0  0
   -2.7002   -0.8200   -2.2689 O   0  0  0  0  0  0  0  0  0  0  0  0
   -3.6787    0.0219   -1.6621 C   0  0  0  0  0  0  0  0  0  0  0  0
   -4.6121   -0.5490   -1.6833 H   0  0  0  0  0  0  0  0  0  0  0  0
   -3.8056    0.9557   -2.2298 H   0  0  0  0  0  0  0  0  0  0  0  0
   -3.4126    0.2525   -0.6197 H   0  0  0  0  0  0  0  0  0  0  0  0
  1  2  2  0  0  0  0
  1  6  1  0  0  0  0
  2  3  1  0  0  0  0
  3  4  2  0  0  0  0
  4  5  1  0  0  0  0
  4  9  1  0  0  0  0
  5 10  1  0  0  0  0
  6 31  1  0  0  0  0
  6  5  2  0  0  0  0
  7  1  1  0  0  0  0
 11 12  3  0  0  0  0
 13 19  1  0  0  0  0
 14 13  1  0  0  0  0
 14 20  1  0  0  0  0
 15 14  2  0  0  0  0
 16 17  2  0  0  0  0
 16 15  1  0  0  0  0
 17 18  1  0  0  0  0
 18 23  1  0  0  0  0
 18 13  2  0  0  0  0
 21 16  1  0  0  0  0
 22 17  1  0  0  0  0
 23 24  2  0  0  0  0
 25  8  1  0  0  0  0
 25 23  1  0  0  0  0
 26 23  2  0  0  0  0
 27 15  1  0  0  0  0
 27 28  1  0  0  0  0
 27 29  1  0  0  0  0
 30 27  1  0  0  0  0
 31 32  1  0  0  0  0
 32 35  1  0  0  0  0
 33 32  1  0  0  0  0
 34 32  1  0  0  0  0
M  RAD  2   2   2   3   2
M  END
