Coordinates from ORCA-job p-CH3O-Ph-N2-OTs-B3LYPG-aug-cc-pVDZ-scan-d09-49-n400
 OpenBabel07022015293D

 35 34  0  0  0  0  0  0  0  0999 V2000
   -0.2955    0.1011   -3.0546 C   0  0  0  0  0  0  0  0  0  0  0  0
    0.4932    1.2135   -2.7615 C   0  0  0  0  0  0  0  0  0  0  0  0
    0.1042    2.0673   -1.9237 C   0  0  0  0  0  0  0  0  0  0  0  0
   -1.0198    2.1986   -1.1484 C   0  0  0  0  0  0  0  0  0  0  0  0
   -1.8661    1.0918   -1.4024 C   0  0  0  0  0  0  0  0  0  0  0  0
   -1.5154    0.0748   -2.3263 C   0  0  0  0  0  0  0  0  0  0  0  0
   -0.0594   -0.6949   -3.7587 H   0  0  0  0  0  0  0  0  0  0  0  0
    2.3318    1.7547   -3.6993 H   0  0  0  0  0  0  0  0  0  0  0  0
   -1.2637    2.9929   -0.4482 H   0  0  0  0  0  0  0  0  0  0  0  0
   -2.8086    1.0419   -0.8619 H   0  0  0  0  0  0  0  0  0  0  0  0
    1.4160    5.2091   -0.6168 N   0  0  0  0  0  0  0  0  0  0  0  0
    2.2288    5.9561   -0.6144 N   0  0  0  0  0  0  0  0  0  0  0  0
    5.9513    0.8305   -2.8783 C   0  0  0  0  0  0  0  0  0  0  0  0
    7.0713    0.0102   -3.0386 C   0  0  0  0  0  0  0  0  0  0  0  0
    7.8979    0.1205   -4.1672 C   0  0  0  0  0  0  0  0  0  0  0  0
    7.5774    1.0803   -5.1424 C   0  0  0  0  0  0  0  0  0  0  0  0
    6.4651    1.9105   -5.0031 C   0  0  0  0  0  0  0  0  0  0  0  0
    5.6627    1.7702   -3.8681 C   0  0  0  0  0  0  0  0  0  0  0  0
    5.3181    0.7519   -1.9964 H   0  0  0  0  0  0  0  0  0  0  0  0
    7.3083   -0.7229   -2.2663 H   0  0  0  0  0  0  0  0  0  0  0  0
    8.2136    1.1840   -6.0227 H   0  0  0  0  0  0  0  0  0  0  0  0
    6.2236    2.6628   -5.7514 H   0  0  0  0  0  0  0  0  0  0  0  0
    4.2249    2.8344   -3.6841 S   0  0  0  0  0  0  0  0  0  0  0  0
    3.8917    2.9885   -2.2459 O   0  0  0  0  0  0  0  0  0  0  0  0
    3.0441    1.8897   -4.3651 O   0  0  0  0  0  0  0  0  0  0  0  0
    4.3950    4.0120   -4.5598 O   0  0  0  0  0  0  0  0  0  0  0  0
    9.1157   -0.7556   -4.3316 C   0  0  0  0  0  0  0  0  0  0  0  0
   10.0382   -0.1604   -4.2622 H   0  0  0  0  0  0  0  0  0  0  0  0
    9.1580   -1.5370   -3.5625 H   0  0  0  0  0  0  0  0  0  0  0  0
    9.1199   -1.2457   -5.3154 H   0  0  0  0  0  0  0  0  0  0  0  0
   -2.3109   -1.0037   -2.5938 O   0  0  0  0  0  0  0  0  0  0  0  0
   -3.5684   -1.1134   -1.9349 C   0  0  0  0  0  0  0  0  0  0  0  0
   -4.0270   -2.0260   -2.3265 H   0  0  0  0  0  0  0  0  0  0  0  0
   -4.2144   -0.2515   -2.1630 H   0  0  0  0  0  0  0  0  0  0  0  0
   -3.4412   -1.2043   -0.8447 H   0  0  0  0  0  0  0  0  0  0  0  0
  1  2  2  0  0  0  0
  1  6  1  0  0  0  0
  2  3  1  0  0  0  0
  3  4  2  0  0  0  0
  4  9  1  0  0  0  0
  5  4  1  0  0  0  0
  5 10  1  0  0  0  0
  6  5  2  0  0  0  0
  7  1  1  0  0  0  0
 11 12  3  0  0  0  0
 13 19  1  0  0  0  0
 14 13  1  0  0  0  0
 14 20  1  0  0  0  0
 15 14  2  0  0  0  0
 16 17  2  0  0  0  0
 16 15  1  0  0  0  0
 17 18  1  0  0  0  0
 18 23  1  0  0  0  0
 18 13  2  0  0  0  0
 21 16  1  0  0  0  0
 22 17  1  0  0  0  0
 23 24  2  0  0  0  0
 25  8  1  0  0  0  0
 25 23  1  0  0  0  0
 26 23  2  0  0  0  0
 27 28  1  0  0  0  0
 27 15  1  0  0  0  0
 27 29  1  0  0  0  0
 30 27  1  0  0  0  0
 31  6  1  0  0  0  0
 31 32  1  0  0  0  0
 32 35  1  0  0  0  0
 33 32  1  0  0  0  0
 34 32  1  0  0  0  0
M  RAD  2   2   2   3   2
M  END
