Coordinates from ORCA-job p-CH3O-Ph-N2-OTs-B3LYPG-aug-cc-pVDZ-scan-d09-49-n400
 OpenBabel07022015293D

 35 34  0  0  0  0  0  0  0  0999 V2000
   -0.4133    0.0675   -2.6291 C   0  0  0  0  0  0  0  0  0  0  0  0
    0.5836    1.0442   -2.8169 C   0  0  0  0  0  0  0  0  0  0  0  0
    0.2163    2.1817   -2.2083 C   0  0  0  0  0  0  0  0  0  0  0  0
   -0.8331    2.6226   -1.4677 C   0  0  0  0  0  0  0  0  0  0  0  0
   -1.7959    1.6041   -1.3094 C   0  0  0  0  0  0  0  0  0  0  0  0
   -1.5820    0.3366   -1.8872 C   0  0  0  0  0  0  0  0  0  0  0  0
   -0.2742   -0.9194   -3.0686 H   0  0  0  0  0  0  0  0  0  0  0  0
    1.5265    0.8502   -3.4055 H   0  0  0  0  0  0  0  0  0  0  0  0
   -0.9431    3.6151   -1.0430 H   0  0  0  0  0  0  0  0  0  0  0  0
   -2.6892    1.8352   -0.7358 H   0  0  0  0  0  0  0  0  0  0  0  0
    1.5507    3.7394   -2.4284 N   0  0  0  0  0  0  0  0  0  0  0  0
    1.9007    4.7860   -2.4613 N   0  0  0  0  0  0  0  0  0  0  0  0
    5.7951    0.0207   -4.5931 C   0  0  0  0  0  0  0  0  0  0  0  0
    7.1343   -0.3773   -4.6821 C   0  0  0  0  0  0  0  0  0  0  0  0
    8.1715    0.4407   -4.2144 C   0  0  0  0  0  0  0  0  0  0  0  0
    7.8341    1.6857   -3.6551 C   0  0  0  0  0  0  0  0  0  0  0  0
    6.5062    2.0989   -3.5623 C   0  0  0  0  0  0  0  0  0  0  0  0
    5.4924    1.2583   -4.0315 C   0  0  0  0  0  0  0  0  0  0  0  0
    4.9927   -0.6196   -4.9544 H   0  0  0  0  0  0  0  0  0  0  0  0
    7.3730   -1.3458   -5.1243 H   0  0  0  0  0  0  0  0  0  0  0  0
    8.6234    2.3456   -3.2894 H   0  0  0  0  0  0  0  0  0  0  0  0
    6.2549    3.0671   -3.1325 H   0  0  0  0  0  0  0  0  0  0  0  0
    3.7805    1.8416   -3.9292 S   0  0  0  0  0  0  0  0  0  0  0  0
    3.5389    2.1803   -2.4645 O   0  0  0  0  0  0  0  0  0  0  0  0
    2.9170    0.6525   -4.3617 O   0  0  0  0  0  0  0  0  0  0  0  0
    3.6576    3.0321   -4.8326 O   0  0  0  0  0  0  0  0  0  0  0  0
    9.6122   -0.0070   -4.2878 C   0  0  0  0  0  0  0  0  0  0  0  0
    9.9817   -0.3151   -3.2976 H   0  0  0  0  0  0  0  0  0  0  0  0
    9.7287   -0.8612   -4.9673 H   0  0  0  0  0  0  0  0  0  0  0  0
   10.2669    0.8028   -4.6401 H   0  0  0  0  0  0  0  0  0  0  0  0
   -2.4520   -0.6973   -1.7840 O   0  0  0  0  0  0  0  0  0  0  0  0
   -3.6644   -0.5041   -1.0538 C   0  0  0  0  0  0  0  0  0  0  0  0
   -4.1911   -1.4611   -1.0996 H   0  0  0  0  0  0  0  0  0  0  0  0
   -4.2823    0.2790   -1.5180 H   0  0  0  0  0  0  0  0  0  0  0  0
   -3.4582   -0.2487   -0.0037 H   0  0  0  0  0  0  0  0  0  0  0  0
  1  6  1  0  0  0  0
  2  1  2  0  0  0  0
  2  3  1  0  0  0  0
  3  4  2  0  0  0  0
  4  5  1  0  0  0  0
  4  9  1  0  0  0  0
  5 10  1  0  0  0  0
  6 31  1  0  0  0  0
  6  5  2  0  0  0  0
  7  1  1  0  0  0  0
  8  2  1  0  0  0  0
 12 11  3  0  0  0  0
 13 18  1  0  0  0  0
 14 13  2  0  0  0  0
 14 15  1  0  0  0  0
 15 16  2  0  0  0  0
 16 17  1  0  0  0  0
 16 21  1  0  0  0  0
 17 22  1  0  0  0  0
 18 23  1  0  0  0  0
 18 17  2  0  0  0  0
 19 13  1  0  0  0  0
 20 14  1  0  0  0  0
 23 24  1  0  0  0  0
 25 23  2  0  0  0  0
 26 23  2  0  0  0  0
 27 15  1  0  0  0  0
 27 28  1  0  0  0  0
 29 27  1  0  0  0  0
 30 27  1  0  0  0  0
 31 32  1  0  0  0  0
 32 35  1  0  0  0  0
 33 32  1  0  0  0  0
 34 32  1  0  0  0  0
M  RAD  2   3   2  24   2
M  END
