Coordinates from ORCA-job p-CH3O-Ph-N2-OTs-B3LYPG-aug-cc-pVDZ-scan-d09-49-n400
 OpenBabel07022015293D

 35 35  0  0  0  0  0  0  0  0999 V2000
   -0.5983    0.0558   -2.4214 C   0  0  0  0  0  0  0  0  0  0  0  0
    0.4749    0.9320   -2.5610 C   0  0  0  0  0  0  0  0  0  0  0  0
    0.1987    2.2383   -2.2011 C   0  0  0  0  0  0  0  0  0  0  0  0
   -0.9844    2.7531   -1.7150 C   0  0  0  0  0  0  0  0  0  0  0  0
   -2.0423    1.8484   -1.5877 C   0  0  0  0  0  0  0  0  0  0  0  0
   -1.8475    0.4991   -1.9406 C   0  0  0  0  0  0  0  0  0  0  0  0
   -0.4722   -0.9951   -2.6764 H   0  0  0  0  0  0  0  0  0  0  0  0
    1.4508    0.5854   -2.9071 H   0  0  0  0  0  0  0  0  0  0  0  0
   -1.0900    3.8007   -1.4458 H   0  0  0  0  0  0  0  0  0  0  0  0
   -2.9962    2.2061   -1.2116 H   0  0  0  0  0  0  0  0  0  0  0  0
    1.4390    3.3670   -2.3295 N   0  0  0  0  0  0  0  0  0  0  0  0
    2.4688    3.6381   -2.6917 N   0  0  0  0  0  0  0  0  0  0  0  0
    6.0932   -0.2318   -4.2946 C   0  0  0  0  0  0  0  0  0  0  0  0
    7.4024   -0.3100   -4.7827 C   0  0  0  0  0  0  0  0  0  0  0  0
    8.3310    0.7119   -4.5427 C   0  0  0  0  0  0  0  0  0  0  0  0
    7.9148    1.8283   -3.7953 C   0  0  0  0  0  0  0  0  0  0  0  0
    6.6149    1.9227   -3.3007 C   0  0  0  0  0  0  0  0  0  0  0  0
    5.7125    0.8860   -3.5551 C   0  0  0  0  0  0  0  0  0  0  0  0
    5.3727   -1.0278   -4.4743 H   0  0  0  0  0  0  0  0  0  0  0  0
    7.7064   -1.1859   -5.3582 H   0  0  0  0  0  0  0  0  0  0  0  0
    8.6228    2.6348   -3.5941 H   0  0  0  0  0  0  0  0  0  0  0  0
    6.3017    2.7836   -2.7128 H   0  0  0  0  0  0  0  0  0  0  0  0
    4.0240    1.0215   -2.9225 S   0  0  0  0  0  0  0  0  0  0  0  0
    4.1018    1.5728   -1.5277 O   0  0  0  0  0  0  0  0  0  0  0  0
    3.3893   -0.3364   -3.0586 O   0  0  0  0  0  0  0  0  0  0  0  0
    3.3186    2.0343   -3.8679 O   0  0  0  0  0  0  0  0  0  0  0  0
    9.7487    0.6184   -5.0546 C   0  0  0  0  0  0  0  0  0  0  0  0
   10.4622    0.5102   -4.2237 H   0  0  0  0  0  0  0  0  0  0  0  0
    9.8768   -0.2439   -5.7211 H   0  0  0  0  0  0  0  0  0  0  0  0
   10.0328    1.5240   -5.6101 H   0  0  0  0  0  0  0  0  0  0  0  0
   -2.8037   -0.4541   -1.8464 O   0  0  0  0  0  0  0  0  0  0  0  0
   -4.0922   -0.0912   -1.3456 C   0  0  0  0  0  0  0  0  0  0  0  0
   -4.6747   -1.0166   -1.3362 H   0  0  0  0  0  0  0  0  0  0  0  0
   -4.5772    0.6452   -2.0035 H   0  0  0  0  0  0  0  0  0  0  0  0
   -4.0197    0.3067   -0.3229 H   0  0  0  0  0  0  0  0  0  0  0  0
  1  6  1  0  0  0  0
  2  1  2  0  0  0  0
  2  3  1  0  0  0  0
  3  4  2  0  0  0  0
  4  5  1  0  0  0  0
  4  9  1  0  0  0  0
  5 10  1  0  0  0  0
  6 31  1  0  0  0  0
  6  5  2  0  0  0  0
  7  1  1  0  0  0  0
  8  2  1  0  0  0  0
 11  3  1  0  0  0  0
 12 11  2  0  0  0  0
 13 18  2  0  0  0  0
 14 15  2  0  0  0  0
 14 13  1  0  0  0  0
 15 16  1  0  0  0  0
 16 21  1  0  0  0  0
 16 17  2  0  0  0  0
 17 22  1  0  0  0  0
 18 17  1  0  0  0  0
 18 23  1  0  0  0  0
 19 13  1  0  0  0  0
 20 14  1  0  0  0  0
 23 24  1  0  0  0  0
 25 23  2  0  0  0  0
 26 23  2  0  0  0  0
 27 15  1  0  0  0  0
 27 28  1  0  0  0  0
 29 27  1  0  0  0  0
 30 27  1  0  0  0  0
 31 32  1  0  0  0  0
 32 33  1  0  0  0  0
 32 35  1  0  0  0  0
 34 32  1  0  0  0  0
M  RAD  2  12   2  24   2
M  END
