Coordinates from ORCA-job p-CH3O-Ph-N2-OTs-B3LYPG-aug-cc-pVDZ-scan-d09-49-n400
 OpenBabel07022015293D

 35 34  0  0  0  0  0  0  0  0999 V2000
   -0.1309   -0.9802   -2.7413 C   0  0  0  0  0  0  0  0  0  0  0  0
    0.9111   -0.0920   -2.6130 C   0  0  0  0  0  0  0  0  0  0  0  0
    0.9272    1.1057   -2.2398 C   0  0  0  0  0  0  0  0  0  0  0  0
   -0.2021    1.7848   -1.7822 C   0  0  0  0  0  0  0  0  0  0  0  0
   -1.3604    0.9842   -1.8379 C   0  0  0  0  0  0  0  0  0  0  0  0
   -1.3339   -0.3579   -2.3005 C   0  0  0  0  0  0  0  0  0  0  0  0
   -0.1195   -2.0110   -3.0856 H   0  0  0  0  0  0  0  0  0  0  0  0
    2.4375    2.0451   -3.5568 H   0  0  0  0  0  0  0  0  0  0  0  0
   -0.2261    2.8171   -1.4420 H   0  0  0  0  0  0  0  0  0  0  0  0
   -2.3026    1.4259   -1.5220 H   0  0  0  0  0  0  0  0  0  0  0  0
    1.2545    5.0033   -0.8285 N   0  0  0  0  0  0  0  0  0  0  0  0
    1.9052    5.8262   -0.4855 N   0  0  0  0  0  0  0  0  0  0  0  0
    5.8120    1.0306   -2.7542 C   0  0  0  0  0  0  0  0  0  0  0  0
    6.8343    0.1119   -3.0136 C   0  0  0  0  0  0  0  0  0  0  0  0
    7.6065    0.1953   -4.1811 C   0  0  0  0  0  0  0  0  0  0  0  0
    7.3346    1.2297   -5.0942 C   0  0  0  0  0  0  0  0  0  0  0  0
    6.3206    2.1563   -4.8571 C   0  0  0  0  0  0  0  0  0  0  0  0
    5.5685    2.0406   -3.6845 C   0  0  0  0  0  0  0  0  0  0  0  0
    5.2257    0.9786   -1.8388 H   0  0  0  0  0  0  0  0  0  0  0  0
    7.0372   -0.6760   -2.2870 H   0  0  0  0  0  0  0  0  0  0  0  0
    7.9319    1.3130   -6.0034 H   0  0  0  0  0  0  0  0  0  0  0  0
    6.1215    2.9666   -5.5559 H   0  0  0  0  0  0  0  0  0  0  0  0
    4.2541    3.2302   -3.3767 S   0  0  0  0  0  0  0  0  0  0  0  0
    3.9193    3.2203   -1.9314 O   0  0  0  0  0  0  0  0  0  0  0  0
    2.9678    2.5724   -4.1915 O   0  0  0  0  0  0  0  0  0  0  0  0
    4.5629    4.4799   -4.0984 O   0  0  0  0  0  0  0  0  0  0  0  0
    8.7172   -0.7880   -4.4584 C   0  0  0  0  0  0  0  0  0  0  0  0
    9.6912   -0.2789   -4.4989 H   0  0  0  0  0  0  0  0  0  0  0  0
    8.7714   -1.5662   -3.6868 H   0  0  0  0  0  0  0  0  0  0  0  0
    8.5710   -1.2843   -5.4288 H   0  0  0  0  0  0  0  0  0  0  0  0
   -2.4345   -1.1635   -2.3533 O   0  0  0  0  0  0  0  0  0  0  0  0
   -3.6827   -0.6542   -1.8883 C   0  0  0  0  0  0  0  0  0  0  0  0
   -4.3958   -1.4777   -1.9955 H   0  0  0  0  0  0  0  0  0  0  0  0
   -4.0143    0.2007   -2.4966 H   0  0  0  0  0  0  0  0  0  0  0  0
   -3.6204   -0.3568   -0.8308 H   0  0  0  0  0  0  0  0  0  0  0  0
  1  2  2  0  0  0  0
  1  6  1  0  0  0  0
  2  3  1  0  0  0  0
  3  4  2  0  0  0  0
  4  9  1  0  0  0  0
  5  4  1  0  0  0  0
  5 10  1  0  0  0  0
  6  5  2  0  0  0  0
  7  1  1  0  0  0  0
 11 12  3  0  0  0  0
 13 19  1  0  0  0  0
 14 13  1  0  0  0  0
 14 20  1  0  0  0  0
 15 14  2  0  0  0  0
 16 17  2  0  0  0  0
 16 15  1  0  0  0  0
 17 18  1  0  0  0  0
 18 23  1  0  0  0  0
 18 13  2  0  0  0  0
 21 16  1  0  0  0  0
 22 17  1  0  0  0  0
 23 24  2  0  0  0  0
 25  8  1  0  0  0  0
 25 23  1  0  0  0  0
 26 23  2  0  0  0  0
 27 15  1  0  0  0  0
 27 29  1  0  0  0  0
 28 27  1  0  0  0  0
 30 27  1  0  0  0  0
 31  6  1  0  0  0  0
 31 32  1  0  0  0  0
 32 35  1  0  0  0  0
 33 32  1  0  0  0  0
 34 32  1  0  0  0  0
M  RAD  2   2   2   3   2
M  END
