Coordinates from ORCA-job p-CH3O-Ph-N2-OTs-B3LYPG-aug-cc-pVDZ-scan-d09-49-n400
 OpenBabel07022015293D

 35 35  0  0  0  0  0  0  0  0999 V2000
   -0.6236    0.0455   -2.4393 C   0  0  0  0  0  0  0  0  0  0  0  0
    0.4580    0.9040   -2.5944 C   0  0  0  0  0  0  0  0  0  0  0  0
    0.2300    2.2269   -2.2292 C   0  0  0  0  0  0  0  0  0  0  0  0
   -0.9510    2.7432   -1.7219 C   0  0  0  0  0  0  0  0  0  0  0  0
   -2.0220    1.8608   -1.5782 C   0  0  0  0  0  0  0  0  0  0  0  0
   -1.8574    0.5088   -1.9372 C   0  0  0  0  0  0  0  0  0  0  0  0
   -0.5213   -1.0071   -2.6976 H   0  0  0  0  0  0  0  0  0  0  0  0
    1.4210    0.5430   -2.9574 H   0  0  0  0  0  0  0  0  0  0  0  0
   -1.0386    3.7918   -1.4482 H   0  0  0  0  0  0  0  0  0  0  0  0
   -2.9632    2.2334   -1.1851 H   0  0  0  0  0  0  0  0  0  0  0  0
    1.4200    3.2742   -2.3731 N   0  0  0  0  0  0  0  0  0  0  0  0
    2.4508    3.5604   -2.7296 N   0  0  0  0  0  0  0  0  0  0  0  0
    6.1128   -0.2405   -4.2997 C   0  0  0  0  0  0  0  0  0  0  0  0
    7.4248   -0.2986   -4.7826 C   0  0  0  0  0  0  0  0  0  0  0  0
    8.3385    0.7344   -4.5332 C   0  0  0  0  0  0  0  0  0  0  0  0
    7.9044    1.8409   -3.7813 C   0  0  0  0  0  0  0  0  0  0  0  0
    6.6012    1.9153   -3.2920 C   0  0  0  0  0  0  0  0  0  0  0  0
    5.7138    0.8680   -3.5562 C   0  0  0  0  0  0  0  0  0  0  0  0
    5.4033   -1.0447   -4.4865 H   0  0  0  0  0  0  0  0  0  0  0  0
    7.7428   -1.1672   -5.3616 H   0  0  0  0  0  0  0  0  0  0  0  0
    8.6009    2.6554   -3.5727 H   0  0  0  0  0  0  0  0  0  0  0  0
    6.2743    2.7690   -2.7008 H   0  0  0  0  0  0  0  0  0  0  0  0
    4.0189    0.9742   -2.9353 S   0  0  0  0  0  0  0  0  0  0  0  0
    4.0759    1.5314   -1.5416 O   0  0  0  0  0  0  0  0  0  0  0  0
    3.4083   -0.3927   -3.0758 O   0  0  0  0  0  0  0  0  0  0  0  0
    3.3035    1.9763   -3.8881 O   0  0  0  0  0  0  0  0  0  0  0  0
    9.7593    0.6628   -5.0401 C   0  0  0  0  0  0  0  0  0  0  0  0
   10.4709    0.5560   -4.2074 H   0  0  0  0  0  0  0  0  0  0  0  0
    9.9006   -0.1917   -5.7140 H   0  0  0  0  0  0  0  0  0  0  0  0
   10.0343    1.5768   -5.5862 H   0  0  0  0  0  0  0  0  0  0  0  0
   -2.8276   -0.4269   -1.8300 O   0  0  0  0  0  0  0  0  0  0  0  0
   -4.1042   -0.0438   -1.3125 C   0  0  0  0  0  0  0  0  0  0  0  0
   -4.7017   -0.9595   -1.2991 H   0  0  0  0  0  0  0  0  0  0  0  0
   -4.5841    0.7026   -1.9626 H   0  0  0  0  0  0  0  0  0  0  0  0
   -4.0130    0.3495   -0.2896 H   0  0  0  0  0  0  0  0  0  0  0  0
  1  6  1  0  0  0  0
  2  1  2  0  0  0  0
  2  3  1  0  0  0  0
  3  4  2  0  0  0  0
  4  5  1  0  0  0  0
  4  9  1  0  0  0  0
  5 10  1  0  0  0  0
  6 31  1  0  0  0  0
  6  5  2  0  0  0  0
  7  1  1  0  0  0  0
  8  2  1  0  0  0  0
 11  3  1  0  0  0  0
 12 11  2  0  0  0  0
 13 18  2  0  0  0  0
 14 15  2  0  0  0  0
 14 13  1  0  0  0  0
 15 16  1  0  0  0  0
 16 21  1  0  0  0  0
 16 17  2  0  0  0  0
 17 22  1  0  0  0  0
 18 17  1  0  0  0  0
 18 23  1  0  0  0  0
 19 13  1  0  0  0  0
 20 14  1  0  0  0  0
 23 24  1  0  0  0  0
 25 23  2  0  0  0  0
 26 23  2  0  0  0  0
 27 15  1  0  0  0  0
 27 28  1  0  0  0  0
 29 27  1  0  0  0  0
 30 27  1  0  0  0  0
 31 32  1  0  0  0  0
 32 33  1  0  0  0  0
 32 35  1  0  0  0  0
 34 32  1  0  0  0  0
M  RAD  2  12   2  24   2
M  END
