Coordinates from ORCA-job p-CH3O-Ph-N2-OTs-B3LYPG-aug-cc-pVDZ-scan-d09-49-n400
 OpenBabel07022015293D

 35 34  0  0  0  0  0  0  0  0999 V2000
   -0.5032    0.0095   -2.5889 C   0  0  0  0  0  0  0  0  0  0  0  0
    0.5673    0.9032   -2.7484 C   0  0  0  0  0  0  0  0  0  0  0  0
    0.3016    2.0853   -2.1449 C   0  0  0  0  0  0  0  0  0  0  0  0
   -0.7453    2.5814   -1.4275 C   0  0  0  0  0  0  0  0  0  0  0  0
   -1.7884    1.6453   -1.2933 C   0  0  0  0  0  0  0  0  0  0  0  0
   -1.6634    0.3674   -1.8718 C   0  0  0  0  0  0  0  0  0  0  0  0
   -0.4359   -0.9836   -3.0307 H   0  0  0  0  0  0  0  0  0  0  0  0
    1.4868    0.6488   -3.3150 H   0  0  0  0  0  0  0  0  0  0  0  0
   -0.7928    3.5783   -1.0006 H   0  0  0  0  0  0  0  0  0  0  0  0
   -2.6723    1.9438   -0.7367 H   0  0  0  0  0  0  0  0  0  0  0  0
    1.6994    3.4527   -2.3130 N   0  0  0  0  0  0  0  0  0  0  0  0
    2.0274    4.5091   -2.2818 N   0  0  0  0  0  0  0  0  0  0  0  0
    5.8847   -0.0457   -4.6044 C   0  0  0  0  0  0  0  0  0  0  0  0
    7.2467   -0.3545   -4.6980 C   0  0  0  0  0  0  0  0  0  0  0  0
    8.2297    0.5373   -4.2479 C   0  0  0  0  0  0  0  0  0  0  0  0
    7.8138    1.7650   -3.7029 C   0  0  0  0  0  0  0  0  0  0  0  0
    6.4622    2.0906   -3.6068 C   0  0  0  0  0  0  0  0  0  0  0  0
    5.5045    1.1775   -4.0583 C   0  0  0  0  0  0  0  0  0  0  0  0
    5.1234   -0.7424   -4.9506 H   0  0  0  0  0  0  0  0  0  0  0  0
    7.5480   -1.3095   -5.1310 H   0  0  0  0  0  0  0  0  0  0  0  0
    8.5601    2.4803   -3.3512 H   0  0  0  0  0  0  0  0  0  0  0  0
    6.1485    3.0456   -3.1887 H   0  0  0  0  0  0  0  0  0  0  0  0
    3.7556    1.6359   -3.9523 S   0  0  0  0  0  0  0  0  0  0  0  0
    3.5153    1.9364   -2.4660 O   0  0  0  0  0  0  0  0  0  0  0  0
    2.9671    0.4134   -4.3908 O   0  0  0  0  0  0  0  0  0  0  0  0
    3.5495    2.8490   -4.8101 O   0  0  0  0  0  0  0  0  0  0  0  0
    9.6965    0.1858   -4.3247 C   0  0  0  0  0  0  0  0  0  0  0  0
   10.0904   -0.0845   -3.3329 H   0  0  0  0  0  0  0  0  0  0  0  0
    9.8663   -0.6670   -4.9946 H   0  0  0  0  0  0  0  0  0  0  0  0
   10.2936    1.0330   -4.6908 H   0  0  0  0  0  0  0  0  0  0  0  0
   -2.6150   -0.5942   -1.7948 O   0  0  0  0  0  0  0  0  0  0  0  0
   -3.8294   -0.3046   -1.1004 C   0  0  0  0  0  0  0  0  0  0  0  0
   -4.4335   -1.2134   -1.1724 H   0  0  0  0  0  0  0  0  0  0  0  0
   -4.3633    0.5315   -1.5757 H   0  0  0  0  0  0  0  0  0  0  0  0
   -3.6355   -0.0751   -0.0421 H   0  0  0  0  0  0  0  0  0  0  0  0
  1  6  1  0  0  0  0
  2  1  2  0  0  0  0
  2  3  1  0  0  0  0
  3  4  2  0  0  0  0
  4  5  1  0  0  0  0
  4  9  1  0  0  0  0
  5 10  1  0  0  0  0
  6 31  1  0  0  0  0
  6  5  2  0  0  0  0
  7  1  1  0  0  0  0
  8  2  1  0  0  0  0
 11 12  3  0  0  0  0
 13 18  1  0  0  0  0
 14 13  2  0  0  0  0
 14 15  1  0  0  0  0
 15 16  2  0  0  0  0
 16 17  1  0  0  0  0
 16 21  1  0  0  0  0
 17 22  1  0  0  0  0
 18 23  1  0  0  0  0
 18 17  2  0  0  0  0
 19 13  1  0  0  0  0
 20 14  1  0  0  0  0
 23 24  1  0  0  0  0
 25 23  2  0  0  0  0
 26 23  2  0  0  0  0
 27 15  1  0  0  0  0
 27 28  1  0  0  0  0
 29 27  1  0  0  0  0
 30 27  1  0  0  0  0
 31 32  1  0  0  0  0
 32 35  1  0  0  0  0
 33 32  1  0  0  0  0
 34 32  1  0  0  0  0
M  RAD  2   3   2  24   2
M  END
