Coordinates from ORCA-job p-CH3O-Ph-N2-OTs-B3LYPG-aug-cc-pVDZ-scan-d09-49-n400
 OpenBabel07022015293D

 35 34  0  0  0  0  0  0  0  0999 V2000
   -0.5096   -1.3134   -2.9113 C   0  0  0  0  0  0  0  0  0  0  0  0
    0.7569   -0.7803   -2.8996 C   0  0  0  0  0  0  0  0  0  0  0  0
    1.1753    0.3485   -2.5442 C   0  0  0  0  0  0  0  0  0  0  0  0
    0.3558    1.3123   -1.9488 C   0  0  0  0  0  0  0  0  0  0  0  0
   -0.9892    0.8993   -1.8810 C   0  0  0  0  0  0  0  0  0  0  0  0
   -1.4172   -0.3737   -2.3413 C   0  0  0  0  0  0  0  0  0  0  0  0
   -0.8395   -2.2964   -3.2365 H   0  0  0  0  0  0  0  0  0  0  0  0
    2.3058    1.4651   -3.9919 H   0  0  0  0  0  0  0  0  0  0  0  0
    0.6819    2.2922   -1.6108 H   0  0  0  0  0  0  0  0  0  0  0  0
   -1.7156    1.5973   -1.4704 H   0  0  0  0  0  0  0  0  0  0  0  0
    1.2540    4.5790   -0.3864 N   0  0  0  0  0  0  0  0  0  0  0  0
    1.9161    5.3816   -0.0181 N   0  0  0  0  0  0  0  0  0  0  0  0
    5.6323    0.9932   -2.8707 C   0  0  0  0  0  0  0  0  0  0  0  0
    6.7948    0.2260   -2.9894 C   0  0  0  0  0  0  0  0  0  0  0  0
    7.6913    0.4244   -4.0499 C   0  0  0  0  0  0  0  0  0  0  0  0
    7.3994    1.4187   -5.0001 C   0  0  0  0  0  0  0  0  0  0  0  0
    6.2450    2.1949   -4.9034 C   0  0  0  0  0  0  0  0  0  0  0  0
    5.3728    1.9670   -3.8351 C   0  0  0  0  0  0  0  0  0  0  0  0
    4.9441    0.8481   -2.0401 H   0  0  0  0  0  0  0  0  0  0  0  0
    7.0101   -0.5338   -2.2370 H   0  0  0  0  0  0  0  0  0  0  0  0
    8.0914    1.5904   -5.8260 H   0  0  0  0  0  0  0  0  0  0  0  0
    6.0236    2.9731   -5.6311 H   0  0  0  0  0  0  0  0  0  0  0  0
    3.8698    2.9482   -3.7179 S   0  0  0  0  0  0  0  0  0  0  0  0
    3.3986    2.9477   -2.3099 O   0  0  0  0  0  0  0  0  0  0  0  0
    2.7864    2.0633   -4.6058 O   0  0  0  0  0  0  0  0  0  0  0  0
    4.0539    4.2014   -4.4743 O   0  0  0  0  0  0  0  0  0  0  0  0
    8.9525   -0.3956   -4.1695 C   0  0  0  0  0  0  0  0  0  0  0  0
    9.8436    0.2337   -4.0285 H   0  0  0  0  0  0  0  0  0  0  0  0
    8.9830   -1.1994   -3.4235 H   0  0  0  0  0  0  0  0  0  0  0  0
    9.0332   -0.8525   -5.1660 H   0  0  0  0  0  0  0  0  0  0  0  0
   -2.7062   -0.8138   -2.2657 O   0  0  0  0  0  0  0  0  0  0  0  0
   -3.6850    0.0238   -1.6534 C   0  0  0  0  0  0  0  0  0  0  0  0
   -4.6172   -0.5489   -1.6742 H   0  0  0  0  0  0  0  0  0  0  0  0
   -3.8153    0.9593   -2.2175 H   0  0  0  0  0  0  0  0  0  0  0  0
   -3.4166    0.2515   -0.6110 H   0  0  0  0  0  0  0  0  0  0  0  0
  1  2  2  0  0  0  0
  1  6  1  0  0  0  0
  2  3  1  0  0  0  0
  3  4  2  0  0  0  0
  4  5  1  0  0  0  0
  4  9  1  0  0  0  0
  5 10  1  0  0  0  0
  6 31  1  0  0  0  0
  6  5  2  0  0  0  0
  7  1  1  0  0  0  0
 11 12  3  0  0  0  0
 13 19  1  0  0  0  0
 14 13  1  0  0  0  0
 14 20  1  0  0  0  0
 15 14  2  0  0  0  0
 16 17  2  0  0  0  0
 16 15  1  0  0  0  0
 17 18  1  0  0  0  0
 18 23  1  0  0  0  0
 18 13  2  0  0  0  0
 21 16  1  0  0  0  0
 22 17  1  0  0  0  0
 23 24  2  0  0  0  0
 25  8  1  0  0  0  0
 25 23  1  0  0  0  0
 26 23  2  0  0  0  0
 27 15  1  0  0  0  0
 27 28  1  0  0  0  0
 27 29  1  0  0  0  0
 30 27  1  0  0  0  0
 31 32  1  0  0  0  0
 32 35  1  0  0  0  0
 33 32  1  0  0  0  0
 34 32  1  0  0  0  0
M  RAD  2   2   2   3   2
M  END
