Coordinates from ORCA-job p-CH3O-Ph-N2-OTs-B3LYPG-aug-cc-pVDZ-scan-d09-49-n400
 OpenBabel07022015293D

 35 34  0  0  0  0  0  0  0  0999 V2000
   -0.1049   -0.8864   -2.7141 C   0  0  0  0  0  0  0  0  0  0  0  0
    0.8932    0.0518   -2.5781 C   0  0  0  0  0  0  0  0  0  0  0  0
    0.8359    1.2444   -2.1941 C   0  0  0  0  0  0  0  0  0  0  0  0
   -0.3265    1.8696   -1.7487 C   0  0  0  0  0  0  0  0  0  0  0  0
   -1.4411    1.0094   -1.8148 C   0  0  0  0  0  0  0  0  0  0  0  0
   -1.3413   -0.3281   -2.2808 C   0  0  0  0  0  0  0  0  0  0  0  0
   -0.0407   -1.9124   -3.0667 H   0  0  0  0  0  0  0  0  0  0  0  0
    2.4467    2.1012   -3.5428 H   0  0  0  0  0  0  0  0  0  0  0  0
   -0.4051    2.8977   -1.4053 H   0  0  0  0  0  0  0  0  0  0  0  0
   -2.4066    1.4013   -1.5039 H   0  0  0  0  0  0  0  0  0  0  0  0
    1.2674    4.9678   -0.8632 N   0  0  0  0  0  0  0  0  0  0  0  0
    1.9413    5.7685   -0.5124 N   0  0  0  0  0  0  0  0  0  0  0  0
    5.8322    1.0180   -2.7637 C   0  0  0  0  0  0  0  0  0  0  0  0
    6.8473    0.0925   -3.0266 C   0  0  0  0  0  0  0  0  0  0  0  0
    7.6203    0.1743   -4.1938 C   0  0  0  0  0  0  0  0  0  0  0  0
    7.3563    1.2140   -5.1032 C   0  0  0  0  0  0  0  0  0  0  0  0
    6.3497    2.1476   -4.8625 C   0  0  0  0  0  0  0  0  0  0  0  0
    5.5969    2.0334   -3.6903 C   0  0  0  0  0  0  0  0  0  0  0  0
    5.2468    0.9678   -1.8477 H   0  0  0  0  0  0  0  0  0  0  0  0
    7.0446   -0.6995   -2.3028 H   0  0  0  0  0  0  0  0  0  0  0  0
    7.9542    1.2961   -6.0120 H   0  0  0  0  0  0  0  0  0  0  0  0
    6.1572    2.9626   -5.5578 H   0  0  0  0  0  0  0  0  0  0  0  0
    4.2963    3.2357   -3.3750 S   0  0  0  0  0  0  0  0  0  0  0  0
    3.9658    3.2267   -1.9287 O   0  0  0  0  0  0  0  0  0  0  0  0
    2.9996    2.5916   -4.1859 O   0  0  0  0  0  0  0  0  0  0  0  0
    4.6168    4.4835   -4.0950 O   0  0  0  0  0  0  0  0  0  0  0  0
    8.7241   -0.8159   -4.4744 C   0  0  0  0  0  0  0  0  0  0  0  0
    9.7008   -0.3126   -4.5195 H   0  0  0  0  0  0  0  0  0  0  0  0
    8.7769   -1.5935   -3.7021 H   0  0  0  0  0  0  0  0  0  0  0  0
    8.5710   -1.3125   -5.4436 H   0  0  0  0  0  0  0  0  0  0  0  0
   -2.3996   -1.1881   -2.3462 O   0  0  0  0  0  0  0  0  0  0  0  0
   -3.6783   -0.7394   -1.9027 C   0  0  0  0  0  0  0  0  0  0  0  0
   -4.3497   -1.5959   -2.0196 H   0  0  0  0  0  0  0  0  0  0  0  0
   -4.0395    0.0988   -2.5175 H   0  0  0  0  0  0  0  0  0  0  0  0
   -3.6472   -0.4383   -0.8449 H   0  0  0  0  0  0  0  0  0  0  0  0
  1  2  2  0  0  0  0
  1  6  1  0  0  0  0
  2  3  1  0  0  0  0
  3  4  2  0  0  0  0
  4  9  1  0  0  0  0
  5  4  1  0  0  0  0
  5 10  1  0  0  0  0
  6  5  2  0  0  0  0
  7  1  1  0  0  0  0
 11 12  3  0  0  0  0
 13 19  1  0  0  0  0
 14 13  1  0  0  0  0
 14 20  1  0  0  0  0
 15 14  2  0  0  0  0
 16 17  2  0  0  0  0
 16 15  1  0  0  0  0
 17 18  1  0  0  0  0
 18 23  1  0  0  0  0
 18 13  2  0  0  0  0
 21 16  1  0  0  0  0
 22 17  1  0  0  0  0
 23 24  2  0  0  0  0
 25  8  1  0  0  0  0
 25 23  1  0  0  0  0
 26 23  2  0  0  0  0
 27 15  1  0  0  0  0
 27 29  1  0  0  0  0
 28 27  1  0  0  0  0
 30 27  1  0  0  0  0
 31  6  1  0  0  0  0
 31 32  1  0  0  0  0
 32 35  1  0  0  0  0
 33 32  1  0  0  0  0
 34 32  1  0  0  0  0
M  RAD  2   2   2   3   2
M  END
