Coordinates from ORCA-job p-CH3O-Ph-N2-OTs-B3LYPG-aug-cc-pVDZ-scan-d09-49-n400
 OpenBabel07022015293D

 35 34  0  0  0  0  0  0  0  0999 V2000
   -0.2602    0.2598   -2.9840 C   0  0  0  0  0  0  0  0  0  0  0  0
    0.4948    1.3958   -2.6771 C   0  0  0  0  0  0  0  0  0  0  0  0
    0.0381    2.2240   -1.8443 C   0  0  0  0  0  0  0  0  0  0  0  0
   -1.1027    2.3187   -1.0941 C   0  0  0  0  0  0  0  0  0  0  0  0
   -1.9063    1.1855   -1.3708 C   0  0  0  0  0  0  0  0  0  0  0  0
   -1.4969    0.1859   -2.2891 C   0  0  0  0  0  0  0  0  0  0  0  0
    0.0201   -0.5277   -3.6818 H   0  0  0  0  0  0  0  0  0  0  0  0
    2.2916    1.7264   -3.6103 H   0  0  0  0  0  0  0  0  0  0  0  0
   -1.3864    3.1029   -0.3982 H   0  0  0  0  0  0  0  0  0  0  0  0
   -2.8592    1.1050   -0.8526 H   0  0  0  0  0  0  0  0  0  0  0  0
    1.2092    4.7304   -0.8640 N   0  0  0  0  0  0  0  0  0  0  0  0
    2.0272    5.4714   -0.8540 N   0  0  0  0  0  0  0  0  0  0  0  0
    5.9816    0.7827   -2.8814 C   0  0  0  0  0  0  0  0  0  0  0  0
    7.1160   -0.0134   -3.0565 C   0  0  0  0  0  0  0  0  0  0  0  0
    7.9361    0.1280   -4.1868 C   0  0  0  0  0  0  0  0  0  0  0  0
    7.5934    1.0935   -5.1483 C   0  0  0  0  0  0  0  0  0  0  0  0
    6.4645    1.8993   -4.9946 C   0  0  0  0  0  0  0  0  0  0  0  0
    5.6701    1.7283   -3.8587 C   0  0  0  0  0  0  0  0  0  0  0  0
    5.3529    0.6802   -1.9988 H   0  0  0  0  0  0  0  0  0  0  0  0
    7.3696   -0.7521   -2.2949 H   0  0  0  0  0  0  0  0  0  0  0  0
    8.2243    1.2200   -6.0294 H   0  0  0  0  0  0  0  0  0  0  0  0
    6.2029    2.6539   -5.7337 H   0  0  0  0  0  0  0  0  0  0  0  0
    4.2132    2.7598   -3.6494 S   0  0  0  0  0  0  0  0  0  0  0  0
    3.9336    2.9563   -2.2045 O   0  0  0  0  0  0  0  0  0  0  0  0
    3.0487    1.7436   -4.2451 O   0  0  0  0  0  0  0  0  0  0  0  0
    4.3150    3.9181   -4.5627 O   0  0  0  0  0  0  0  0  0  0  0  0
    9.1697   -0.7229   -4.3661 C   0  0  0  0  0  0  0  0  0  0  0  0
   10.0814   -0.1132   -4.2811 H   0  0  0  0  0  0  0  0  0  0  0  0
    9.2233   -1.5191   -3.6132 H   0  0  0  0  0  0  0  0  0  0  0  0
    9.1854   -1.1919   -5.3599 H   0  0  0  0  0  0  0  0  0  0  0  0
   -2.2469   -0.9181   -2.5815 O   0  0  0  0  0  0  0  0  0  0  0  0
   -3.5154   -1.0753   -1.9546 C   0  0  0  0  0  0  0  0  0  0  0  0
   -3.9318   -2.0011   -2.3620 H   0  0  0  0  0  0  0  0  0  0  0  0
   -4.1851   -0.2350   -2.1945 H   0  0  0  0  0  0  0  0  0  0  0  0
   -3.4117   -1.1680   -0.8621 H   0  0  0  0  0  0  0  0  0  0  0  0
  1  2  2  0  0  0  0
  1  6  1  0  0  0  0
  2  3  1  0  0  0  0
  3  4  2  0  0  0  0
  4  9  1  0  0  0  0
  5  4  1  0  0  0  0
  5 10  1  0  0  0  0
  6  5  2  0  0  0  0
  7  1  1  0  0  0  0
 11 12  3  0  0  0  0
 13 19  1  0  0  0  0
 14 13  1  0  0  0  0
 14 20  1  0  0  0  0
 15 14  2  0  0  0  0
 16 17  2  0  0  0  0
 16 15  1  0  0  0  0
 17 18  1  0  0  0  0
 18 23  1  0  0  0  0
 18 13  2  0  0  0  0
 21 16  1  0  0  0  0
 22 17  1  0  0  0  0
 23 24  2  0  0  0  0
 25 23  1  0  0  0  0
 25  8  1  0  0  0  0
 26 23  2  0  0  0  0
 27 28  1  0  0  0  0
 27 15  1  0  0  0  0
 27 29  1  0  0  0  0
 30 27  1  0  0  0  0
 31  6  1  0  0  0  0
 31 32  1  0  0  0  0
 32 35  1  0  0  0  0
 33 32  1  0  0  0  0
 34 32  1  0  0  0  0
M  RAD  2   2   2   3   2
M  END
