Coordinates from ORCA-job p-CH3O-Ph-N2-OTs-B3LYPG-aug-cc-pVDZ-scan-d09-49-n400
 OpenBabel07022015293D

 35 36  0  0  1  0  0  0  0  0999 V2000
    1.1127    0.5808   -2.8580 C   0  0  0  0  0  0  0  0  0  0  0  0
    1.2067    1.7826   -3.7082 C   0  0  1  0  0  0  0  0  0  0  0  0
   -0.0170    2.6151   -3.5850 C   0  0  1  0  0  0  0  0  0  0  0  0
   -0.9263    2.5241   -2.4878 C   0  0  0  0  0  0  0  0  0  0  0  0
   -0.8071    1.4875   -1.6090 C   0  0  0  0  0  0  0  0  0  0  0  0
    0.2106    0.4799   -1.8394 C   0  0  0  0  0  0  0  0  0  0  0  0
    1.8354   -0.2180   -3.0109 H   0  0  0  0  0  0  0  0  0  0  0  0
    1.4778    1.5777   -4.7459 H   0  0  0  0  0  0  0  0  0  0  0  0
   -1.7021    3.2794   -2.3705 H   0  0  0  0  0  0  0  0  0  0  0  0
   -1.4827    1.4149   -0.7626 H   0  0  0  0  0  0  0  0  0  0  0  0
   -0.2029    3.6040   -4.5164 N   0  0  0  0  0  0  0  0  0  0  0  0
   -0.3371    4.4148   -5.2959 N   0  0  0  0  0  0  0  0  0  0  0  0
    5.0537    0.8105   -4.9173 C   0  0  0  0  0  0  0  0  0  0  0  0
    6.0411   -0.1542   -4.6839 C   0  0  0  0  0  0  0  0  0  0  0  0
    6.8253   -0.1242   -3.5230 C   0  0  0  0  0  0  0  0  0  0  0  0
    6.6013    0.9040   -2.5886 C   0  0  0  0  0  0  0  0  0  0  0  0
    5.6264    1.8753   -2.8022 C   0  0  0  0  0  0  0  0  0  0  0  0
    4.8577    1.8123   -3.9686 C   0  0  0  0  0  0  0  0  0  0  0  0
    4.4589    0.7991   -5.8285 H   0  0  0  0  0  0  0  0  0  0  0  0
    6.2074   -0.9351   -5.4274 H   0  0  0  0  0  0  0  0  0  0  0  0
    7.2075    0.9477   -1.6824 H   0  0  0  0  0  0  0  0  0  0  0  0
    5.4665    2.6794   -2.0860 H   0  0  0  0  0  0  0  0  0  0  0  0
    3.6047    3.0769   -4.2418 S   0  0  0  0  0  0  0  0  0  0  0  0
    2.4084    2.6558   -3.1933 O   0  0  0  0  0  0  0  0  0  0  0  0
    3.0945    2.9420   -5.6346 O   0  0  0  0  0  0  0  0  0  0  0  0
    4.1243    4.3703   -3.7481 O   0  0  0  0  0  0  0  0  0  0  0  0
    7.8967   -1.1568   -3.2718 C   0  0  0  0  0  0  0  0  0  0  0  0
    7.7197   -1.6858   -2.3239 H   0  0  0  0  0  0  0  0  0  0  0  0
    7.9335   -1.9058   -4.0730 H   0  0  0  0  0  0  0  0  0  0  0  0
    8.8876   -0.6856   -3.1995 H   0  0  0  0  0  0  0  0  0  0  0  0
    0.3020   -0.6346   -1.0522 O   0  0  0  0  0  0  0  0  0  0  0  0
   -0.7604   -0.9478   -0.1533 C   0  0  0  0  0  0  0  0  0  0  0  0
   -0.5142   -1.9322    0.2560 H   0  0  0  0  0  0  0  0  0  0  0  0
   -1.7258   -1.0008   -0.6773 H   0  0  0  0  0  0  0  0  0  0  0  0
   -0.8244   -0.2212    0.6704 H   0  0  0  0  0  0  0  0  0  0  0  0
  1  6  2  0  0  0  0
  2  8  1  6  0  0  0
  2  3  1  0  0  0  0
  2 24  1  0  0  0  0
  2  1  1  0  0  0  0
  3 11  1  1  0  0  0
  3  4  1  0  0  0  0
  4  9  1  0  0  0  0
  4  5  2  0  0  0  0
  5 10  1  0  0  0  0
  6  5  1  0  0  0  0
  6 31  1  0  0  0  0
  7  1  1  0  0  0  0
 12 11  1  0  0  0  0
 13 14  2  0  0  0  0
 13 18  1  0  0  0  0
 14 15  1  0  0  0  0
 15 27  1  0  0  0  0
 15 16  2  0  0  0  0
 16 21  1  0  0  0  0
 17 16  1  0  0  0  0
 17 22  1  0  0  0  0
 18 17  2  0  0  0  0
 19 13  1  0  0  0  0
 20 14  1  0  0  0  0
 23 18  1  0  0  0  0
 23 26  2  0  0  0  0
 23 24  1  0  0  0  0
 25 23  2  0  0  0  0
 27 30  1  0  0  0  0
 27 28  1  0  0  0  0
 29 27  1  0  0  0  0
 31 32  1  0  0  0  0
 32 33  1  0  0  0  0
 32 35  1  0  0  0  0
 34 32  1  0  0  0  0
M  RAD  3   3   2  11   2  12   3
M  END
