Coordinates from ORCA-job p-CH3O-Ph-N2-OTs-B3LYPG-aug-cc-pVDZ-scan-d09-49-n400
 OpenBabel07022015293D

 35 34  0  0  0  0  0  0  0  0999 V2000
   -0.2676    0.2477   -2.9972 C   0  0  0  0  0  0  0  0  0  0  0  0
    0.4914    1.3802   -2.6897 C   0  0  0  0  0  0  0  0  0  0  0  0
    0.0458    2.2091   -1.8523 C   0  0  0  0  0  0  0  0  0  0  0  0
   -1.0911    2.3042   -1.0952 C   0  0  0  0  0  0  0  0  0  0  0  0
   -1.9001    1.1748   -1.3709 C   0  0  0  0  0  0  0  0  0  0  0  0
   -1.5002    0.1765   -2.2948 C   0  0  0  0  0  0  0  0  0  0  0  0
    0.0058   -0.5384   -3.6994 H   0  0  0  0  0  0  0  0  0  0  0  0
    2.2942    1.7282   -3.6243 H   0  0  0  0  0  0  0  0  0  0  0  0
   -1.3683    3.0868   -0.3949 H   0  0  0  0  0  0  0  0  0  0  0  0
   -2.8502    1.0957   -0.8472 H   0  0  0  0  0  0  0  0  0  0  0  0
    1.2304    4.7752   -0.8308 N   0  0  0  0  0  0  0  0  0  0  0  0
    2.0436    5.5215   -0.8156 N   0  0  0  0  0  0  0  0  0  0  0  0
    5.9780    0.7887   -2.8825 C   0  0  0  0  0  0  0  0  0  0  0  0
    7.1119   -0.0091   -3.0534 C   0  0  0  0  0  0  0  0  0  0  0  0
    7.9337    0.1277   -4.1830 C   0  0  0  0  0  0  0  0  0  0  0  0
    7.5933    1.0904   -5.1481 C   0  0  0  0  0  0  0  0  0  0  0  0
    6.4652    1.8980   -4.9986 C   0  0  0  0  0  0  0  0  0  0  0  0
    5.6690    1.7316   -3.8633 C   0  0  0  0  0  0  0  0  0  0  0  0
    5.3481    0.6897   -2.0004 H   0  0  0  0  0  0  0  0  0  0  0  0
    7.3638   -0.7455   -2.2890 H   0  0  0  0  0  0  0  0  0  0  0  0
    8.2256    1.2135   -6.0288 H   0  0  0  0  0  0  0  0  0  0  0  0
    6.2056    2.6507   -5.7403 H   0  0  0  0  0  0  0  0  0  0  0  0
    4.2128    2.7656   -3.6603 S   0  0  0  0  0  0  0  0  0  0  0  0
    3.9266    2.9616   -2.2167 O   0  0  0  0  0  0  0  0  0  0  0  0
    3.0478    1.7532   -4.2621 O   0  0  0  0  0  0  0  0  0  0  0  0
    4.3210    3.9233   -4.5733 O   0  0  0  0  0  0  0  0  0  0  0  0
    9.1666   -0.7250   -4.3580 C   0  0  0  0  0  0  0  0  0  0  0  0
   10.0788   -0.1158   -4.2751 H   0  0  0  0  0  0  0  0  0  0  0  0
    9.2192   -1.5182   -3.6017 H   0  0  0  0  0  0  0  0  0  0  0  0
    9.1824   -1.1983   -5.3498 H   0  0  0  0  0  0  0  0  0  0  0  0
   -2.2561   -0.9238   -2.5859 O   0  0  0  0  0  0  0  0  0  0  0  0
   -3.5216   -1.0780   -1.9520 C   0  0  0  0  0  0  0  0  0  0  0  0
   -3.9438   -2.0012   -2.3594 H   0  0  0  0  0  0  0  0  0  0  0  0
   -4.1894   -0.2345   -2.1858 H   0  0  0  0  0  0  0  0  0  0  0  0
   -3.4119   -1.1741   -0.8604 H   0  0  0  0  0  0  0  0  0  0  0  0
  1  2  2  0  0  0  0
  1  6  1  0  0  0  0
  2  3  1  0  0  0  0
  3  4  2  0  0  0  0
  4  9  1  0  0  0  0
  5  4  1  0  0  0  0
  5 10  1  0  0  0  0
  6  5  2  0  0  0  0
  7  1  1  0  0  0  0
 11 12  3  0  0  0  0
 13 19  1  0  0  0  0
 14 13  1  0  0  0  0
 14 20  1  0  0  0  0
 15 14  2  0  0  0  0
 16 17  2  0  0  0  0
 16 15  1  0  0  0  0
 17 18  1  0  0  0  0
 18 23  1  0  0  0  0
 18 13  2  0  0  0  0
 21 16  1  0  0  0  0
 22 17  1  0  0  0  0
 23 24  2  0  0  0  0
 25 23  1  0  0  0  0
 25  8  1  0  0  0  0
 26 23  2  0  0  0  0
 27 28  1  0  0  0  0
 27 15  1  0  0  0  0
 27 29  1  0  0  0  0
 30 27  1  0  0  0  0
 31  6  1  0  0  0  0
 31 32  1  0  0  0  0
 32 35  1  0  0  0  0
 33 32  1  0  0  0  0
 34 32  1  0  0  0  0
M  RAD  2   2   2   3   2
M  END
