Coordinates from ORCA-job p-CH3O-Ph-N2-OTs-B3LYPG-aug-cc-pVDZ-scan-d09-49-n400
 OpenBabel07022015293D

 35 34  0  0  0  0  0  0  0  0999 V2000
   -0.1312   -0.9149   -2.7236 C   0  0  0  0  0  0  0  0  0  0  0  0
    0.8831    0.0059   -2.5923 C   0  0  0  0  0  0  0  0  0  0  0  0
    0.8506    1.1998   -2.2097 C   0  0  0  0  0  0  0  0  0  0  0  0
   -0.2989    1.8443   -1.7569 C   0  0  0  0  0  0  0  0  0  0  0  0
   -1.4291    1.0042   -1.8175 C   0  0  0  0  0  0  0  0  0  0  0  0
   -1.3554   -0.3349   -2.2840 C   0  0  0  0  0  0  0  0  0  0  0  0
   -0.0864   -1.9424   -3.0752 H   0  0  0  0  0  0  0  0  0  0  0  0
    2.4431    2.0659   -3.5526 H   0  0  0  0  0  0  0  0  0  0  0  0
   -0.3576    2.8738   -1.4131 H   0  0  0  0  0  0  0  0  0  0  0  0
   -2.3860    1.4130   -1.5018 H   0  0  0  0  0  0  0  0  0  0  0  0
    1.2746    4.9778   -0.8489 N   0  0  0  0  0  0  0  0  0  0  0  0
    1.9318    5.7906   -0.4944 N   0  0  0  0  0  0  0  0  0  0  0  0
    5.8333    1.0140   -2.7674 C   0  0  0  0  0  0  0  0  0  0  0  0
    6.8567    0.0969   -3.0273 C   0  0  0  0  0  0  0  0  0  0  0  0
    7.6335    0.1861   -4.1914 C   0  0  0  0  0  0  0  0  0  0  0  0
    7.3649    1.2248   -5.1007 C   0  0  0  0  0  0  0  0  0  0  0  0
    6.3499    2.1502   -4.8628 C   0  0  0  0  0  0  0  0  0  0  0  0
    5.5934    2.0286   -3.6937 C   0  0  0  0  0  0  0  0  0  0  0  0
    5.2442    0.9579   -1.8541 H   0  0  0  0  0  0  0  0  0  0  0  0
    7.0573   -0.6943   -2.3036 H   0  0  0  0  0  0  0  0  0  0  0  0
    7.9657    1.3125   -6.0070 H   0  0  0  0  0  0  0  0  0  0  0  0
    6.1536    2.9641   -5.5581 H   0  0  0  0  0  0  0  0  0  0  0  0
    4.2806    3.2188   -3.3830 S   0  0  0  0  0  0  0  0  0  0  0  0
    3.9465    3.2082   -1.9374 O   0  0  0  0  0  0  0  0  0  0  0  0
    2.9923    2.5607   -4.1959 O   0  0  0  0  0  0  0  0  0  0  0  0
    4.5909    4.4688   -4.1036 O   0  0  0  0  0  0  0  0  0  0  0  0
    8.7461   -0.7951   -4.4686 C   0  0  0  0  0  0  0  0  0  0  0  0
    9.7197   -0.2849   -4.5043 H   0  0  0  0  0  0  0  0  0  0  0  0
    8.7986   -1.5759   -3.6996 H   0  0  0  0  0  0  0  0  0  0  0  0
    8.6035   -1.2881   -5.4412 H   0  0  0  0  0  0  0  0  0  0  0  0
   -2.4288   -1.1764   -2.3437 O   0  0  0  0  0  0  0  0  0  0  0  0
   -3.6964   -0.7067   -1.8902 C   0  0  0  0  0  0  0  0  0  0  0  0
   -4.3828   -1.5519   -2.0034 H   0  0  0  0  0  0  0  0  0  0  0  0
   -4.0484    0.1380   -2.5013 H   0  0  0  0  0  0  0  0  0  0  0  0
   -3.6527   -0.4078   -0.8322 H   0  0  0  0  0  0  0  0  0  0  0  0
  1  2  2  0  0  0  0
  1  6  1  0  0  0  0
  2  3  1  0  0  0  0
  3  4  2  0  0  0  0
  4  9  1  0  0  0  0
  5  4  1  0  0  0  0
  5 10  1  0  0  0  0
  6  5  2  0  0  0  0
  7  1  1  0  0  0  0
 11 12  3  0  0  0  0
 13 19  1  0  0  0  0
 14 13  1  0  0  0  0
 14 20  1  0  0  0  0
 15 14  2  0  0  0  0
 16 17  2  0  0  0  0
 16 15  1  0  0  0  0
 17 18  1  0  0  0  0
 18 23  1  0  0  0  0
 18 13  2  0  0  0  0
 21 16  1  0  0  0  0
 22 17  1  0  0  0  0
 23 24  2  0  0  0  0
 25  8  1  0  0  0  0
 25 23  1  0  0  0  0
 26 23  2  0  0  0  0
 27 15  1  0  0  0  0
 27 29  1  0  0  0  0
 28 27  1  0  0  0  0
 30 27  1  0  0  0  0
 31  6  1  0  0  0  0
 31 32  1  0  0  0  0
 32 35  1  0  0  0  0
 33 32  1  0  0  0  0
 34 32  1  0  0  0  0
M  RAD  2   2   2   3   2
M  END
