Coordinates from ORCA-job p-CH3O-Ph-N2-OTs-B3LYPG-aug-cc-pVDZ-scan-d09-49-n400
 OpenBabel07022015293D

 35 34  0  0  0  0  0  0  0  0999 V2000
   -0.2975    0.1160   -3.0441 C   0  0  0  0  0  0  0  0  0  0  0  0
    0.4891    1.2285   -2.7458 C   0  0  0  0  0  0  0  0  0  0  0  0
    0.0958    2.0807   -1.9085 C   0  0  0  0  0  0  0  0  0  0  0  0
   -1.0312    2.2104   -1.1376 C   0  0  0  0  0  0  0  0  0  0  0  0
   -1.8758    1.1035   -1.3969 C   0  0  0  0  0  0  0  0  0  0  0  0
   -1.5206    0.0880   -2.3211 C   0  0  0  0  0  0  0  0  0  0  0  0
   -0.0578   -0.6789   -3.7482 H   0  0  0  0  0  0  0  0  0  0  0  0
    2.3274    1.7372   -3.6848 H   0  0  0  0  0  0  0  0  0  0  0  0
   -1.2784    3.0034   -0.4371 H   0  0  0  0  0  0  0  0  0  0  0  0
   -2.8204    1.0523   -0.8603 H   0  0  0  0  0  0  0  0  0  0  0  0
    1.3925    5.1569   -0.6245 N   0  0  0  0  0  0  0  0  0  0  0  0
    2.2032    5.9060   -0.6157 N   0  0  0  0  0  0  0  0  0  0  0  0
    5.9628    0.8261   -2.8805 C   0  0  0  0  0  0  0  0  0  0  0  0
    7.0876    0.0126   -3.0404 C   0  0  0  0  0  0  0  0  0  0  0  0
    7.9119    0.1253   -4.1706 C   0  0  0  0  0  0  0  0  0  0  0  0
    7.5839    1.0805   -5.1477 C   0  0  0  0  0  0  0  0  0  0  0  0
    6.4663    1.9038   -5.0090 C   0  0  0  0  0  0  0  0  0  0  0  0
    5.6666    1.7613   -3.8724 C   0  0  0  0  0  0  0  0  0  0  0  0
    5.3313    0.7454   -1.9976 H   0  0  0  0  0  0  0  0  0  0  0  0
    7.3303   -0.7171   -2.2667 H   0  0  0  0  0  0  0  0  0  0  0  0
    8.2181    1.1858   -6.0293 H   0  0  0  0  0  0  0  0  0  0  0  0
    6.2183    2.6520   -5.7592 H   0  0  0  0  0  0  0  0  0  0  0  0
    4.2217    2.8157   -3.6889 S   0  0  0  0  0  0  0  0  0  0  0  0
    3.8982    2.9845   -2.2499 O   0  0  0  0  0  0  0  0  0  0  0  0
    3.0461    1.8493   -4.3484 O   0  0  0  0  0  0  0  0  0  0  0  0
    4.3747    3.9850   -4.5790 O   0  0  0  0  0  0  0  0  0  0  0  0
    9.1347   -0.7439   -4.3346 C   0  0  0  0  0  0  0  0  0  0  0  0
   10.0538   -0.1434   -4.2654 H   0  0  0  0  0  0  0  0  0  0  0  0
    9.1815   -1.5246   -3.5650 H   0  0  0  0  0  0  0  0  0  0  0  0
    9.1418   -1.2345   -5.3181 H   0  0  0  0  0  0  0  0  0  0  0  0
   -2.3147   -0.9902   -2.5938 O   0  0  0  0  0  0  0  0  0  0  0  0
   -3.5754   -1.1009   -1.9411 C   0  0  0  0  0  0  0  0  0  0  0  0
   -4.0324   -2.0125   -2.3368 H   0  0  0  0  0  0  0  0  0  0  0  0
   -4.2199   -0.2383   -2.1705 H   0  0  0  0  0  0  0  0  0  0  0  0
   -3.4533   -1.1941   -0.8506 H   0  0  0  0  0  0  0  0  0  0  0  0
  1  2  2  0  0  0  0
  1  6  1  0  0  0  0
  2  3  1  0  0  0  0
  3  4  2  0  0  0  0
  4  9  1  0  0  0  0
  5  4  1  0  0  0  0
  5 10  1  0  0  0  0
  6  5  2  0  0  0  0
  7  1  1  0  0  0  0
 11 12  3  0  0  0  0
 13 19  1  0  0  0  0
 14 13  1  0  0  0  0
 14 20  1  0  0  0  0
 15 14  2  0  0  0  0
 16 17  2  0  0  0  0
 16 15  1  0  0  0  0
 17 18  1  0  0  0  0
 18 23  1  0  0  0  0
 18 13  2  0  0  0  0
 21 16  1  0  0  0  0
 22 17  1  0  0  0  0
 23 24  2  0  0  0  0
 25 23  1  0  0  0  0
 25  8  1  0  0  0  0
 26 23  2  0  0  0  0
 27 28  1  0  0  0  0
 27 15  1  0  0  0  0
 27 29  1  0  0  0  0
 30 27  1  0  0  0  0
 31  6  1  0  0  0  0
 31 32  1  0  0  0  0
 32 35  1  0  0  0  0
 33 32  1  0  0  0  0
 34 32  1  0  0  0  0
M  RAD  2   2   2   3   2
M  END
