Coordinates from ORCA-job p-CH3O-Ph-N2-OTs-B3LYPG-aug-cc-pVDZ-scan-d09-49-n400
 OpenBabel07022015293D

 35 35  0  0  0  0  0  0  0  0999 V2000
   -0.6329    0.0378   -2.4448 C   0  0  0  0  0  0  0  0  0  0  0  0
    0.4478    0.8928   -2.6091 C   0  0  0  0  0  0  0  0  0  0  0  0
    0.2401    2.2222   -2.2341 C   0  0  0  0  0  0  0  0  0  0  0  0
   -0.9409    2.7302   -1.7057 C   0  0  0  0  0  0  0  0  0  0  0  0
   -2.0122    1.8534   -1.5521 C   0  0  0  0  0  0  0  0  0  0  0  0
   -1.8582    0.5024   -1.9224 C   0  0  0  0  0  0  0  0  0  0  0  0
   -0.5394   -1.0136   -2.7110 H   0  0  0  0  0  0  0  0  0  0  0  0
    1.4050    0.5274   -2.9864 H   0  0  0  0  0  0  0  0  0  0  0  0
   -1.0236    3.7775   -1.4241 H   0  0  0  0  0  0  0  0  0  0  0  0
   -2.9463    2.2266   -1.1432 H   0  0  0  0  0  0  0  0  0  0  0  0
    1.3882    3.2237   -2.3913 N   0  0  0  0  0  0  0  0  0  0  0  0
    2.3981    3.5819   -2.7372 N   0  0  0  0  0  0  0  0  0  0  0  0
    6.1120   -0.2243   -4.3317 C   0  0  0  0  0  0  0  0  0  0  0  0
    7.4351   -0.2972   -4.7810 C   0  0  0  0  0  0  0  0  0  0  0  0
    8.3532    0.7266   -4.5107 C   0  0  0  0  0  0  0  0  0  0  0  0
    7.9115    1.8396   -3.7729 C   0  0  0  0  0  0  0  0  0  0  0  0
    6.5970    1.9286   -3.3174 C   0  0  0  0  0  0  0  0  0  0  0  0
    5.7054    0.8899   -3.6011 C   0  0  0  0  0  0  0  0  0  0  0  0
    5.3990   -1.0214   -4.5348 H   0  0  0  0  0  0  0  0  0  0  0  0
    7.7586   -1.1701   -5.3503 H   0  0  0  0  0  0  0  0  0  0  0  0
    8.6106    2.6479   -3.5490 H   0  0  0  0  0  0  0  0  0  0  0  0
    6.2640    2.7881   -2.7381 H   0  0  0  0  0  0  0  0  0  0  0  0
    3.9956    1.0146   -3.0259 S   0  0  0  0  0  0  0  0  0  0  0  0
    4.0241    1.5318   -1.6138 O   0  0  0  0  0  0  0  0  0  0  0  0
    3.3690   -0.3417   -3.2090 O   0  0  0  0  0  0  0  0  0  0  0  0
    3.3263    2.0516   -3.9664 O   0  0  0  0  0  0  0  0  0  0  0  0
    9.7858    0.6381   -4.9803 C   0  0  0  0  0  0  0  0  0  0  0  0
   10.4734    0.5129   -4.1301 H   0  0  0  0  0  0  0  0  0  0  0  0
    9.9321   -0.2126   -5.6579 H   0  0  0  0  0  0  0  0  0  0  0  0
   10.0893    1.5526   -5.5101 H   0  0  0  0  0  0  0  0  0  0  0  0
   -2.8298   -0.4287   -1.8079 O   0  0  0  0  0  0  0  0  0  0  0  0
   -4.0996   -0.0451   -1.2723 C   0  0  0  0  0  0  0  0  0  0  0  0
   -4.6992   -0.9594   -1.2583 H   0  0  0  0  0  0  0  0  0  0  0  0
   -4.5842    0.7069   -1.9120 H   0  0  0  0  0  0  0  0  0  0  0  0
   -3.9947    0.3406   -0.2480 H   0  0  0  0  0  0  0  0  0  0  0  0
  1  6  1  0  0  0  0
  2  1  2  0  0  0  0
  2  3  1  0  0  0  0
  3  4  2  0  0  0  0
  4  5  1  0  0  0  0
  4  9  1  0  0  0  0
  5 10  1  0  0  0  0
  6 31  1  0  0  0  0
  6  5  2  0  0  0  0
  7  1  1  0  0  0  0
  8  2  1  0  0  0  0
 11  3  1  0  0  0  0
 12 11  1  0  0  0  0
 13 18  2  0  0  0  0
 14 15  2  0  0  0  0
 14 13  1  0  0  0  0
 15 16  1  0  0  0  0
 16 21  1  0  0  0  0
 16 17  2  0  0  0  0
 17 22  1  0  0  0  0
 18 17  1  0  0  0  0
 18 23  1  0  0  0  0
 19 13  1  0  0  0  0
 20 14  1  0  0  0  0
 23 24  1  0  0  0  0
 25 23  2  0  0  0  0
 26 23  2  0  0  0  0
 27 15  1  0  0  0  0
 27 28  1  0  0  0  0
 29 27  1  0  0  0  0
 30 27  1  0  0  0  0
 31 32  1  0  0  0  0
 32 33  1  0  0  0  0
 32 35  1  0  0  0  0
 34 32  1  0  0  0  0
M  RAD  3  11   2  12   3  24   2
M  END
