Coordinates from ORCA-job p-CH3O-Ph-N2-OTs-B3LYPG-aug-cc-pVDZ-scan-d09-49-n400
 OpenBabel07022015293D

 35 34  0  0  0  0  0  0  0  0999 V2000
   -0.2978    0.1118   -3.0457 C   0  0  0  0  0  0  0  0  0  0  0  0
    0.4905    1.2238   -2.7494 C   0  0  0  0  0  0  0  0  0  0  0  0
    0.0976    2.0766   -1.9123 C   0  0  0  0  0  0  0  0  0  0  0  0
   -1.0287    2.2078   -1.1407 C   0  0  0  0  0  0  0  0  0  0  0  0
   -1.8743    1.1013   -1.3985 C   0  0  0  0  0  0  0  0  0  0  0  0
   -1.5204    0.0849   -2.3220 C   0  0  0  0  0  0  0  0  0  0  0  0
   -0.0592   -0.6839   -3.7493 H   0  0  0  0  0  0  0  0  0  0  0  0
    2.3284    1.7387   -3.6863 H   0  0  0  0  0  0  0  0  0  0  0  0
   -1.2749    3.0015   -0.4407 H   0  0  0  0  0  0  0  0  0  0  0  0
   -2.8186    1.0511   -0.8611 H   0  0  0  0  0  0  0  0  0  0  0  0
    1.3961    5.1715   -0.6191 N   0  0  0  0  0  0  0  0  0  0  0  0
    2.2071    5.9203   -0.6114 N   0  0  0  0  0  0  0  0  0  0  0  0
    5.9611    0.8265   -2.8806 C   0  0  0  0  0  0  0  0  0  0  0  0
    7.0853    0.0119   -3.0405 C   0  0  0  0  0  0  0  0  0  0  0  0
    7.9101    0.1246   -4.1703 C   0  0  0  0  0  0  0  0  0  0  0  0
    7.5833    1.0807   -5.1470 C   0  0  0  0  0  0  0  0  0  0  0  0
    6.4665    1.9050   -5.0082 C   0  0  0  0  0  0  0  0  0  0  0  0
    5.6662    1.7625   -3.8720 C   0  0  0  0  0  0  0  0  0  0  0  0
    5.3292    0.7458   -1.9979 H   0  0  0  0  0  0  0  0  0  0  0  0
    7.3270   -0.7184   -2.2671 H   0  0  0  0  0  0  0  0  0  0  0  0
    8.2181    1.1861   -6.0282 H   0  0  0  0  0  0  0  0  0  0  0  0
    6.2195    2.6540   -5.7580 H   0  0  0  0  0  0  0  0  0  0  0  0
    4.2222    2.8181   -3.6884 S   0  0  0  0  0  0  0  0  0  0  0  0
    3.8976    2.9852   -2.2495 O   0  0  0  0  0  0  0  0  0  0  0  0
    3.0460    1.8546   -4.3504 O   0  0  0  0  0  0  0  0  0  0  0  0
    4.3773    3.9885   -4.5767 O   0  0  0  0  0  0  0  0  0  0  0  0
    9.1322   -0.7456   -4.3344 C   0  0  0  0  0  0  0  0  0  0  0  0
   10.0518   -0.1459   -4.2645 H   0  0  0  0  0  0  0  0  0  0  0  0
    9.1781   -1.5267   -3.5652 H   0  0  0  0  0  0  0  0  0  0  0  0
    9.1392   -1.2356   -5.3182 H   0  0  0  0  0  0  0  0  0  0  0  0
   -2.3152   -0.9931   -2.5934 O   0  0  0  0  0  0  0  0  0  0  0  0
   -3.5755   -1.1026   -1.9399 C   0  0  0  0  0  0  0  0  0  0  0  0
   -4.0332   -2.0143   -2.3346 H   0  0  0  0  0  0  0  0  0  0  0  0
   -4.2197   -0.2399   -2.1694 H   0  0  0  0  0  0  0  0  0  0  0  0
   -3.4528   -1.1951   -0.8493 H   0  0  0  0  0  0  0  0  0  0  0  0
  1  2  2  0  0  0  0
  1  6  1  0  0  0  0
  2  3  1  0  0  0  0
  3  4  2  0  0  0  0
  4  9  1  0  0  0  0
  5  4  1  0  0  0  0
  5 10  1  0  0  0  0
  6  5  2  0  0  0  0
  7  1  1  0  0  0  0
 11 12  3  0  0  0  0
 13 19  1  0  0  0  0
 14 13  1  0  0  0  0
 14 20  1  0  0  0  0
 15 14  2  0  0  0  0
 16 17  2  0  0  0  0
 16 15  1  0  0  0  0
 17 18  1  0  0  0  0
 18 23  1  0  0  0  0
 18 13  2  0  0  0  0
 21 16  1  0  0  0  0
 22 17  1  0  0  0  0
 23 24  2  0  0  0  0
 25 23  1  0  0  0  0
 25  8  1  0  0  0  0
 26 23  2  0  0  0  0
 27 28  1  0  0  0  0
 27 15  1  0  0  0  0
 27 29  1  0  0  0  0
 30 27  1  0  0  0  0
 31  6  1  0  0  0  0
 31 32  1  0  0  0  0
 32 35  1  0  0  0  0
 33 32  1  0  0  0  0
 34 32  1  0  0  0  0
M  RAD  2   2   2   3   2
M  END
