Coordinates from ORCA-job p-CH3O-Ph-N2-OTs-B3LYPG-aug-cc-pVDZ-scan-d09-49-n400
 OpenBabel07022015293D

 35 34  0  0  0  0  0  0  0  0999 V2000
   -0.1309   -0.0696   -2.9657 C   0  0  0  0  0  0  0  0  0  0  0  0
    0.6260    1.0744   -2.7277 C   0  0  0  0  0  0  0  0  0  0  0  0
    0.2005    2.0047   -1.9982 C   0  0  0  0  0  0  0  0  0  0  0  0
   -0.9740    2.1945   -1.3116 C   0  0  0  0  0  0  0  0  0  0  0  0
   -1.7985    1.0607   -1.5080 C   0  0  0  0  0  0  0  0  0  0  0  0
   -1.3911   -0.0371   -2.3090 C   0  0  0  0  0  0  0  0  0  0  0  0
    0.1489   -0.9237   -3.5795 H   0  0  0  0  0  0  0  0  0  0  0  0
    2.4238    1.9528   -3.6583 H   0  0  0  0  0  0  0  0  0  0  0  0
   -1.2636    3.0483   -0.7049 H   0  0  0  0  0  0  0  0  0  0  0  0
   -2.7704    1.0531   -1.0199 H   0  0  0  0  0  0  0  0  0  0  0  0
    1.3242    5.4446   -0.8152 N   0  0  0  0  0  0  0  0  0  0  0  0
    2.1008    6.2290   -0.7976 N   0  0  0  0  0  0  0  0  0  0  0  0
    5.8908    0.8526   -2.8256 C   0  0  0  0  0  0  0  0  0  0  0  0
    6.9405   -0.0437   -3.0515 C   0  0  0  0  0  0  0  0  0  0  0  0
    7.7508    0.0589   -4.1917 C   0  0  0  0  0  0  0  0  0  0  0  0
    7.4894    1.0901   -5.1110 C   0  0  0  0  0  0  0  0  0  0  0  0
    6.4495    1.9958   -4.9061 C   0  0  0  0  0  0  0  0  0  0  0  0
    5.6594    1.8606   -3.7612 C   0  0  0  0  0  0  0  0  0  0  0  0
    5.2747    0.7845   -1.9311 H   0  0  0  0  0  0  0  0  0  0  0  0
    7.1352   -0.8294   -2.3202 H   0  0  0  0  0  0  0  0  0  0  0  0
    8.1157    1.1887   -5.9989 H   0  0  0  0  0  0  0  0  0  0  0  0
    6.2580    2.8046   -5.6086 H   0  0  0  0  0  0  0  0  0  0  0  0
    4.3129    3.0244   -3.4975 S   0  0  0  0  0  0  0  0  0  0  0  0
    3.9495    3.0435   -2.0589 O   0  0  0  0  0  0  0  0  0  0  0  0
    3.0648    2.3009   -4.3154 O   0  0  0  0  0  0  0  0  0  0  0  0
    4.6124    4.2663   -4.2377 O   0  0  0  0  0  0  0  0  0  0  0  0
    8.8906   -0.9007   -4.4322 C   0  0  0  0  0  0  0  0  0  0  0  0
    9.8546   -0.3716   -4.4390 H   0  0  0  0  0  0  0  0  0  0  0  0
    8.9346   -1.6791   -3.6602 H   0  0  0  0  0  0  0  0  0  0  0  0
    8.7875   -1.3978   -5.4076 H   0  0  0  0  0  0  0  0  0  0  0  0
   -2.1663   -1.1430   -2.5181 O   0  0  0  0  0  0  0  0  0  0  0  0
   -3.4594   -1.2005   -1.9243 C   0  0  0  0  0  0  0  0  0  0  0  0
   -3.8913   -2.1514   -2.2497 H   0  0  0  0  0  0  0  0  0  0  0  0
   -4.0948   -0.3719   -2.2729 H   0  0  0  0  0  0  0  0  0  0  0  0
   -3.3945   -1.1815   -0.8252 H   0  0  0  0  0  0  0  0  0  0  0  0
  1  2  2  0  0  0  0
  1  6  1  0  0  0  0
  2  3  1  0  0  0  0
  3  4  2  0  0  0  0
  4  9  1  0  0  0  0
  5  4  1  0  0  0  0
  5 10  1  0  0  0  0
  6  5  2  0  0  0  0
  7  1  1  0  0  0  0
 11 12  3  0  0  0  0
 13 19  1  0  0  0  0
 14 13  1  0  0  0  0
 14 20  1  0  0  0  0
 15 14  2  0  0  0  0
 16 17  2  0  0  0  0
 16 15  1  0  0  0  0
 17 18  1  0  0  0  0
 18 23  1  0  0  0  0
 18 13  2  0  0  0  0
 21 16  1  0  0  0  0
 22 17  1  0  0  0  0
 23 24  2  0  0  0  0
 25  8  1  0  0  0  0
 25 23  1  0  0  0  0
 26 23  2  0  0  0  0
 27 15  1  0  0  0  0
 27 29  1  0  0  0  0
 28 27  1  0  0  0  0
 30 27  1  0  0  0  0
 31  6  1  0  0  0  0
 31 32  1  0  0  0  0
 32 35  1  0  0  0  0
 33 32  1  0  0  0  0
 34 32  1  0  0  0  0
M  RAD  2   2   2   3   2
M  END
