Coordinates from ORCA-job p-CH3O-Ph-N2-OTs-B3LYPG-aug-cc-pVDZ-scan-d09-49-n400
 OpenBabel07022015293D

 35 34  0  0  0  0  0  0  0  0999 V2000
   -0.1400   -1.0580   -2.7773 C   0  0  0  0  0  0  0  0  0  0  0  0
    0.9373   -0.2131   -2.6597 C   0  0  0  0  0  0  0  0  0  0  0  0
    1.0144    0.9845   -2.2930 C   0  0  0  0  0  0  0  0  0  0  0  0
   -0.0824    1.7063   -1.8172 C   0  0  0  0  0  0  0  0  0  0  0  0
   -1.2745    0.9566   -1.8605 C   0  0  0  0  0  0  0  0  0  0  0  0
   -1.3108   -0.3852   -2.3232 C   0  0  0  0  0  0  0  0  0  0  0  0
   -0.1740   -2.0903   -3.1156 H   0  0  0  0  0  0  0  0  0  0  0  0
    2.4208    2.0192   -3.5816 H   0  0  0  0  0  0  0  0  0  0  0  0
   -0.0603    2.7388   -1.4768 H   0  0  0  0  0  0  0  0  0  0  0  0
   -2.1937    1.4378   -1.5348 H   0  0  0  0  0  0  0  0  0  0  0  0
    1.2335    5.0562   -0.8109 N   0  0  0  0  0  0  0  0  0  0  0  0
    1.8765    5.8926   -0.4864 N   0  0  0  0  0  0  0  0  0  0  0  0
    5.7799    1.0405   -2.7413 C   0  0  0  0  0  0  0  0  0  0  0  0
    6.8041    0.1235   -2.9993 C   0  0  0  0  0  0  0  0  0  0  0  0
    7.5774    0.2079   -4.1661 C   0  0  0  0  0  0  0  0  0  0  0  0
    7.3049    1.2419   -5.0796 C   0  0  0  0  0  0  0  0  0  0  0  0
    6.2889    2.1666   -4.8439 C   0  0  0  0  0  0  0  0  0  0  0  0
    5.5356    2.0498   -3.6722 C   0  0  0  0  0  0  0  0  0  0  0  0
    5.1917    0.9873   -1.8273 H   0  0  0  0  0  0  0  0  0  0  0  0
    7.0074   -0.6641   -2.2725 H   0  0  0  0  0  0  0  0  0  0  0  0
    7.9031    1.3259   -5.9881 H   0  0  0  0  0  0  0  0  0  0  0  0
    6.0890    2.9760   -5.5435 H   0  0  0  0  0  0  0  0  0  0  0  0
    4.2152    3.2341   -3.3688 S   0  0  0  0  0  0  0  0  0  0  0  0
    3.8685    3.2150   -1.9263 O   0  0  0  0  0  0  0  0  0  0  0  0
    2.9383    2.5796   -4.1998 O   0  0  0  0  0  0  0  0  0  0  0  0
    4.5257    4.4893   -4.0803 O   0  0  0  0  0  0  0  0  0  0  0  0
    8.6897   -0.7740   -4.4422 C   0  0  0  0  0  0  0  0  0  0  0  0
    9.6633   -0.2641   -4.4801 H   0  0  0  0  0  0  0  0  0  0  0  0
    8.7429   -1.5531   -3.6714 H   0  0  0  0  0  0  0  0  0  0  0  0
    8.5459   -1.2693   -5.4135 H   0  0  0  0  0  0  0  0  0  0  0  0
   -2.4444   -1.1440   -2.3613 O   0  0  0  0  0  0  0  0  0  0  0  0
   -3.6626   -0.5870   -1.8715 C   0  0  0  0  0  0  0  0  0  0  0  0
   -4.4095   -1.3813   -1.9692 H   0  0  0  0  0  0  0  0  0  0  0  0
   -3.9716    0.2827   -2.4707 H   0  0  0  0  0  0  0  0  0  0  0  0
   -3.5700   -0.2971   -0.8142 H   0  0  0  0  0  0  0  0  0  0  0  0
  1  2  2  0  0  0  0
  1  6  1  0  0  0  0
  2  3  1  0  0  0  0
  3  4  2  0  0  0  0
  4  9  1  0  0  0  0
  5  4  1  0  0  0  0
  5 10  1  0  0  0  0
  6  5  2  0  0  0  0
  7  1  1  0  0  0  0
 11 12  3  0  0  0  0
 13 19  1  0  0  0  0
 14 13  1  0  0  0  0
 14 20  1  0  0  0  0
 15 14  2  0  0  0  0
 16 17  2  0  0  0  0
 16 15  1  0  0  0  0
 17 18  1  0  0  0  0
 18 23  1  0  0  0  0
 18 13  2  0  0  0  0
 21 16  1  0  0  0  0
 22 17  1  0  0  0  0
 23 24  2  0  0  0  0
 25  8  1  0  0  0  0
 25 23  1  0  0  0  0
 26 23  2  0  0  0  0
 27 15  1  0  0  0  0
 27 29  1  0  0  0  0
 28 27  1  0  0  0  0
 30 27  1  0  0  0  0
 31  6  1  0  0  0  0
 31 32  1  0  0  0  0
 32 35  1  0  0  0  0
 33 32  1  0  0  0  0
 34 32  1  0  0  0  0
M  RAD  2   2   2   3   2
M  END
