Coordinates from ORCA-job p-CH3O-Ph-N2-OTs-B3LYPG-aug-cc-pVDZ-scan-d09-49-n400
 OpenBabel07022015293D

 35 34  0  0  0  0  0  0  0  0999 V2000
   -0.1078   -0.8893   -2.7165 C   0  0  0  0  0  0  0  0  0  0  0  0
    0.8922    0.0470   -2.5811 C   0  0  0  0  0  0  0  0  0  0  0  0
    0.8374    1.2394   -2.1962 C   0  0  0  0  0  0  0  0  0  0  0  0
   -0.3233    1.8664   -1.7489 C   0  0  0  0  0  0  0  0  0  0  0  0
   -1.4396    1.0083   -1.8144 C   0  0  0  0  0  0  0  0  0  0  0  0
   -1.3427   -0.3291   -2.2815 C   0  0  0  0  0  0  0  0  0  0  0  0
   -0.0458   -1.9152   -3.0700 H   0  0  0  0  0  0  0  0  0  0  0  0
    2.4465    2.0978   -3.5449 H   0  0  0  0  0  0  0  0  0  0  0  0
   -0.3998    2.8944   -1.4047 H   0  0  0  0  0  0  0  0  0  0  0  0
   -2.4041    1.4016   -1.5021 H   0  0  0  0  0  0  0  0  0  0  0  0
    1.2679    4.9718   -0.8598 N   0  0  0  0  0  0  0  0  0  0  0  0
    1.9399    5.7741   -0.5092 N   0  0  0  0  0  0  0  0  0  0  0  0
    5.8319    1.0177   -2.7643 C   0  0  0  0  0  0  0  0  0  0  0  0
    6.8478    0.0929   -3.0266 C   0  0  0  0  0  0  0  0  0  0  0  0
    7.6215    0.1752   -4.1933 C   0  0  0  0  0  0  0  0  0  0  0  0
    7.3574    1.2148   -5.1028 C   0  0  0  0  0  0  0  0  0  0  0  0
    6.3500    2.1478   -4.8627 C   0  0  0  0  0  0  0  0  0  0  0  0
    5.5965    2.0330   -3.6910 C   0  0  0  0  0  0  0  0  0  0  0  0
    5.2460    0.9671   -1.8486 H   0  0  0  0  0  0  0  0  0  0  0  0
    7.0451   -0.6989   -2.3027 H   0  0  0  0  0  0  0  0  0  0  0  0
    7.9558    1.2974   -6.0113 H   0  0  0  0  0  0  0  0  0  0  0  0
    6.1574    2.9626   -5.5581 H   0  0  0  0  0  0  0  0  0  0  0  0
    4.2948    3.2344   -3.3766 S   0  0  0  0  0  0  0  0  0  0  0  0
    3.9637    3.2255   -1.9304 O   0  0  0  0  0  0  0  0  0  0  0  0
    2.9990    2.5890   -4.1879 O   0  0  0  0  0  0  0  0  0  0  0  0
    4.6145    4.4822   -4.0969 O   0  0  0  0  0  0  0  0  0  0  0  0
    8.7261   -0.8142   -4.4732 C   0  0  0  0  0  0  0  0  0  0  0  0
    9.7025   -0.3103   -4.5173 H   0  0  0  0  0  0  0  0  0  0  0  0
    8.7786   -1.5920   -3.7011 H   0  0  0  0  0  0  0  0  0  0  0  0
    8.5741   -1.3106   -5.4427 H   0  0  0  0  0  0  0  0  0  0  0  0
   -2.4026   -1.1872   -2.3463 O   0  0  0  0  0  0  0  0  0  0  0  0
   -3.6799   -0.7365   -1.9011 C   0  0  0  0  0  0  0  0  0  0  0  0
   -4.3530   -1.5917   -2.0181 H   0  0  0  0  0  0  0  0  0  0  0  0
   -4.0404    0.1028   -2.5149 H   0  0  0  0  0  0  0  0  0  0  0  0
   -3.6472   -0.4364   -0.8431 H   0  0  0  0  0  0  0  0  0  0  0  0
  1  2  2  0  0  0  0
  1  6  1  0  0  0  0
  2  3  1  0  0  0  0
  3  4  2  0  0  0  0
  4  9  1  0  0  0  0
  5  4  1  0  0  0  0
  5 10  1  0  0  0  0
  6  5  2  0  0  0  0
  7  1  1  0  0  0  0
 11 12  3  0  0  0  0
 13 19  1  0  0  0  0
 14 13  1  0  0  0  0
 14 20  1  0  0  0  0
 15 14  2  0  0  0  0
 16 17  2  0  0  0  0
 16 15  1  0  0  0  0
 17 18  1  0  0  0  0
 18 23  1  0  0  0  0
 18 13  2  0  0  0  0
 21 16  1  0  0  0  0
 22 17  1  0  0  0  0
 23 24  2  0  0  0  0
 25  8  1  0  0  0  0
 25 23  1  0  0  0  0
 26 23  2  0  0  0  0
 27 15  1  0  0  0  0
 27 29  1  0  0  0  0
 28 27  1  0  0  0  0
 30 27  1  0  0  0  0
 31  6  1  0  0  0  0
 31 32  1  0  0  0  0
 32 35  1  0  0  0  0
 33 32  1  0  0  0  0
 34 32  1  0  0  0  0
M  RAD  2   2   2   3   2
M  END
