Coordinates from ORCA-job p-CH3O-Ph-N2-OTs-B3LYPG-aug-cc-pVDZ-scan-d09-49-n400
 OpenBabel07022015293D

 35 34  0  0  0  0  0  0  0  0999 V2000
   -0.1392   -1.0605   -2.7787 C   0  0  0  0  0  0  0  0  0  0  0  0
    0.9390   -0.2167   -2.6613 C   0  0  0  0  0  0  0  0  0  0  0  0
    1.0170    0.9808   -2.2944 C   0  0  0  0  0  0  0  0  0  0  0  0
   -0.0789    1.7037   -1.8184 C   0  0  0  0  0  0  0  0  0  0  0  0
   -1.2717    0.9551   -1.8615 C   0  0  0  0  0  0  0  0  0  0  0  0
   -1.3094   -0.3866   -2.3243 C   0  0  0  0  0  0  0  0  0  0  0  0
   -0.1743   -2.0927   -3.1170 H   0  0  0  0  0  0  0  0  0  0  0  0
    2.4205    2.0201   -3.5825 H   0  0  0  0  0  0  0  0  0  0  0  0
   -0.0560    2.7362   -1.4778 H   0  0  0  0  0  0  0  0  0  0  0  0
   -2.1904    1.4372   -1.5356 H   0  0  0  0  0  0  0  0  0  0  0  0
    1.2344    5.0619   -0.8086 N   0  0  0  0  0  0  0  0  0  0  0  0
    1.8764    5.8988   -0.4836 N   0  0  0  0  0  0  0  0  0  0  0  0
    5.7791    1.0417   -2.7402 C   0  0  0  0  0  0  0  0  0  0  0  0
    6.8029    0.1243   -2.9982 C   0  0  0  0  0  0  0  0  0  0  0  0
    7.5755    0.2076   -4.1655 C   0  0  0  0  0  0  0  0  0  0  0  0
    7.3026    1.2411   -5.0796 C   0  0  0  0  0  0  0  0  0  0  0  0
    6.2869    2.1661   -4.8439 C   0  0  0  0  0  0  0  0  0  0  0  0
    5.5344    2.0503   -3.6717 C   0  0  0  0  0  0  0  0  0  0  0  0
    5.1914    0.9892   -1.8258 H   0  0  0  0  0  0  0  0  0  0  0  0
    7.0065   -0.6629   -2.2710 H   0  0  0  0  0  0  0  0  0  0  0  0
    7.9001    1.3243   -5.9886 H   0  0  0  0  0  0  0  0  0  0  0  0
    6.0867    2.9752   -5.5440 H   0  0  0  0  0  0  0  0  0  0  0  0
    4.2147    3.2354   -3.3682 S   0  0  0  0  0  0  0  0  0  0  0  0
    3.8678    3.2163   -1.9257 O   0  0  0  0  0  0  0  0  0  0  0  0
    2.9375    2.5821   -4.1997 O   0  0  0  0  0  0  0  0  0  0  0  0
    4.5259    4.4905   -4.0794 O   0  0  0  0  0  0  0  0  0  0  0  0
    8.6874   -0.7746   -4.4418 C   0  0  0  0  0  0  0  0  0  0  0  0
    9.6610   -0.2649   -4.4808 H   0  0  0  0  0  0  0  0  0  0  0  0
    8.7411   -1.5531   -3.6704 H   0  0  0  0  0  0  0  0  0  0  0  0
    8.5428   -1.2706   -5.4126 H   0  0  0  0  0  0  0  0  0  0  0  0
   -2.4436   -1.1443   -2.3622 O   0  0  0  0  0  0  0  0  0  0  0  0
   -3.6612   -0.5863   -1.8720 C   0  0  0  0  0  0  0  0  0  0  0  0
   -4.4088   -1.3799   -1.9695 H   0  0  0  0  0  0  0  0  0  0  0  0
   -3.9696    0.2838   -2.4710 H   0  0  0  0  0  0  0  0  0  0  0  0
   -3.5681   -0.2967   -0.8147 H   0  0  0  0  0  0  0  0  0  0  0  0
  1  2  2  0  0  0  0
  1  6  1  0  0  0  0
  2  3  1  0  0  0  0
  3  4  2  0  0  0  0
  4  9  1  0  0  0  0
  5  4  1  0  0  0  0
  5 10  1  0  0  0  0
  6  5  2  0  0  0  0
  7  1  1  0  0  0  0
 11 12  3  0  0  0  0
 13 19  1  0  0  0  0
 14 13  1  0  0  0  0
 14 20  1  0  0  0  0
 15 14  2  0  0  0  0
 16 17  2  0  0  0  0
 16 15  1  0  0  0  0
 17 18  1  0  0  0  0
 18 23  1  0  0  0  0
 18 13  2  0  0  0  0
 21 16  1  0  0  0  0
 22 17  1  0  0  0  0
 23 24  2  0  0  0  0
 25  8  1  0  0  0  0
 25 23  1  0  0  0  0
 26 23  2  0  0  0  0
 27 15  1  0  0  0  0
 27 29  1  0  0  0  0
 28 27  1  0  0  0  0
 30 27  1  0  0  0  0
 31  6  1  0  0  0  0
 31 32  1  0  0  0  0
 32 35  1  0  0  0  0
 33 32  1  0  0  0  0
 34 32  1  0  0  0  0
M  RAD  2   2   2   3   2
M  END
