Coordinates from ORCA-job p-CH3O-Ph-N2-OTs-B3LYPG-aug-cc-pVDZ-scan-d09-49-n400
 OpenBabel07022015293D

 35 34  0  0  0  0  0  0  0  0999 V2000
   -0.5133    0.0026   -2.5870 C   0  0  0  0  0  0  0  0  0  0  0  0
    0.5656    0.8855   -2.7433 C   0  0  0  0  0  0  0  0  0  0  0  0
    0.3161    2.0728   -2.1386 C   0  0  0  0  0  0  0  0  0  0  0  0
   -0.7303    2.5739   -1.4218 C   0  0  0  0  0  0  0  0  0  0  0  0
   -1.7829    1.6489   -1.2900 C   0  0  0  0  0  0  0  0  0  0  0  0
   -1.6705    0.3708   -1.8705 C   0  0  0  0  0  0  0  0  0  0  0  0
   -0.4560   -0.9904   -3.0306 H   0  0  0  0  0  0  0  0  0  0  0  0
    1.4813    0.6242   -3.3090 H   0  0  0  0  0  0  0  0  0  0  0  0
   -0.7698    3.5705   -0.9934 H   0  0  0  0  0  0  0  0  0  0  0  0
   -2.6645    1.9550   -0.7340 H   0  0  0  0  0  0  0  0  0  0  0  0
    1.7147    3.4111   -2.3012 N   0  0  0  0  0  0  0  0  0  0  0  0
    2.0409    4.4683   -2.2604 N   0  0  0  0  0  0  0  0  0  0  0  0
    5.8929   -0.0510   -4.6071 C   0  0  0  0  0  0  0  0  0  0  0  0
    7.2570   -0.3512   -4.6977 C   0  0  0  0  0  0  0  0  0  0  0  0
    8.2334    0.5482   -4.2485 C   0  0  0  0  0  0  0  0  0  0  0  0
    7.8088    1.7749   -3.7077 C   0  0  0  0  0  0  0  0  0  0  0  0
    6.4550    2.0921   -3.6147 C   0  0  0  0  0  0  0  0  0  0  0  0
    5.5041    1.1714   -4.0652 C   0  0  0  0  0  0  0  0  0  0  0  0
    5.1365   -0.7532   -4.9526 H   0  0  0  0  0  0  0  0  0  0  0  0
    7.5652   -1.3053   -5.1278 H   0  0  0  0  0  0  0  0  0  0  0  0
    8.5500    2.4959   -3.3569 H   0  0  0  0  0  0  0  0  0  0  0  0
    6.1344    3.0464   -3.2002 H   0  0  0  0  0  0  0  0  0  0  0  0
    3.7517    1.6164   -3.9625 S   0  0  0  0  0  0  0  0  0  0  0  0
    3.5074    1.9038   -2.4721 O   0  0  0  0  0  0  0  0  0  0  0  0
    2.9721    0.3936   -4.4109 O   0  0  0  0  0  0  0  0  0  0  0  0
    3.5396    2.8373   -4.8076 O   0  0  0  0  0  0  0  0  0  0  0  0
    9.7027    0.2062   -4.3221 C   0  0  0  0  0  0  0  0  0  0  0  0
   10.0977   -0.0547   -3.3283 H   0  0  0  0  0  0  0  0  0  0  0  0
    9.8787   -0.6497   -4.9864 H   0  0  0  0  0  0  0  0  0  0  0  0
   10.2941    1.0552   -4.6935 H   0  0  0  0  0  0  0  0  0  0  0  0
   -2.6319   -0.5812   -1.7962 O   0  0  0  0  0  0  0  0  0  0  0  0
   -3.8442   -0.2805   -1.1030 C   0  0  0  0  0  0  0  0  0  0  0  0
   -4.4577   -1.1828   -1.1779 H   0  0  0  0  0  0  0  0  0  0  0  0
   -4.3687    0.5621   -1.5775 H   0  0  0  0  0  0  0  0  0  0  0  0
   -3.6497   -0.0551   -0.0440 H   0  0  0  0  0  0  0  0  0  0  0  0
  1  6  1  0  0  0  0
  2  1  2  0  0  0  0
  2  3  1  0  0  0  0
  3  4  2  0  0  0  0
  4  5  1  0  0  0  0
  4  9  1  0  0  0  0
  5 10  1  0  0  0  0
  6 31  1  0  0  0  0
  6  5  2  0  0  0  0
  7  1  1  0  0  0  0
  8  2  1  0  0  0  0
 11 12  3  0  0  0  0
 13 18  1  0  0  0  0
 14 13  2  0  0  0  0
 14 15  1  0  0  0  0
 15 16  2  0  0  0  0
 16 17  1  0  0  0  0
 16 21  1  0  0  0  0
 17 22  1  0  0  0  0
 18 23  1  0  0  0  0
 18 17  2  0  0  0  0
 19 13  1  0  0  0  0
 20 14  1  0  0  0  0
 23 24  1  0  0  0  0
 25 23  2  0  0  0  0
 26 23  2  0  0  0  0
 27 15  1  0  0  0  0
 27 28  1  0  0  0  0
 29 27  1  0  0  0  0
 30 27  1  0  0  0  0
 31 32  1  0  0  0  0
 32 35  1  0  0  0  0
 33 32  1  0  0  0  0
 34 32  1  0  0  0  0
M  RAD  2   3   2  24   2
M  END
