Coordinates from ORCA-job p-CH3O-Ph-N2-OTs-B3LYPG-aug-cc-pVDZ-scan-d09-49-n400
 OpenBabel07022015293D

 35 34  0  0  0  0  0  0  0  0999 V2000
   -0.5034   -1.3265   -2.9110 C   0  0  0  0  0  0  0  0  0  0  0  0
    0.7645   -0.7965   -2.9000 C   0  0  0  0  0  0  0  0  0  0  0  0
    1.1838    0.3325   -2.5463 C   0  0  0  0  0  0  0  0  0  0  0  0
    0.3663    1.3002   -1.9548 C   0  0  0  0  0  0  0  0  0  0  0  0
   -0.9797    0.8900   -1.8876 C   0  0  0  0  0  0  0  0  0  0  0  0
   -1.4097   -0.3834   -2.3447 C   0  0  0  0  0  0  0  0  0  0  0  0
   -0.8351   -2.3096   -3.2342 H   0  0  0  0  0  0  0  0  0  0  0  0
    2.3025    1.4700   -3.9908 H   0  0  0  0  0  0  0  0  0  0  0  0
    0.6927    2.2810   -1.6191 H   0  0  0  0  0  0  0  0  0  0  0  0
   -1.7052    1.5905   -1.4796 H   0  0  0  0  0  0  0  0  0  0  0  0
    1.2737    4.6286   -0.3631 N   0  0  0  0  0  0  0  0  0  0  0  0
    1.9442    5.4266    0.0000 N   0  0  0  0  0  0  0  0  0  0  0  0
    5.6251    0.9967   -2.8667 C   0  0  0  0  0  0  0  0  0  0  0  0
    6.7861    0.2273   -2.9865 C   0  0  0  0  0  0  0  0  0  0  0  0
    7.6810    0.4228   -4.0489 C   0  0  0  0  0  0  0  0  0  0  0  0
    7.3890    1.4164   -4.9998 C   0  0  0  0  0  0  0  0  0  0  0  0
    6.2362    2.1948   -4.9020 C   0  0  0  0  0  0  0  0  0  0  0  0
    5.3656    1.9698   -3.8318 C   0  0  0  0  0  0  0  0  0  0  0  0
    4.9383    0.8539   -2.0345 H   0  0  0  0  0  0  0  0  0  0  0  0
    7.0014   -0.5318   -2.2335 H   0  0  0  0  0  0  0  0  0  0  0  0
    8.0799    1.5859   -5.8273 H   0  0  0  0  0  0  0  0  0  0  0  0
    6.0151    2.9725   -5.6304 H   0  0  0  0  0  0  0  0  0  0  0  0
    3.8651    2.9546   -3.7131 S   0  0  0  0  0  0  0  0  0  0  0  0
    3.3948    2.9540   -2.3048 O   0  0  0  0  0  0  0  0  0  0  0  0
    2.7790    2.0740   -4.6021 O   0  0  0  0  0  0  0  0  0  0  0  0
    4.0517    4.2080   -4.4684 O   0  0  0  0  0  0  0  0  0  0  0  0
    8.9405   -0.3996   -4.1700 C   0  0  0  0  0  0  0  0  0  0  0  0
    9.8331    0.2291   -4.0361 H   0  0  0  0  0  0  0  0  0  0  0  0
    8.9731   -1.1998   -3.4201 H   0  0  0  0  0  0  0  0  0  0  0  0
    9.0161   -0.8616   -5.1644 H   0  0  0  0  0  0  0  0  0  0  0  0
   -2.6997   -0.8206   -2.2693 O   0  0  0  0  0  0  0  0  0  0  0  0
   -3.6780    0.0220   -1.6631 C   0  0  0  0  0  0  0  0  0  0  0  0
   -4.6116   -0.5484   -1.6842 H   0  0  0  0  0  0  0  0  0  0  0  0
   -3.8043    0.9556   -2.2313 H   0  0  0  0  0  0  0  0  0  0  0  0
   -3.4120    0.2530   -0.6208 H   0  0  0  0  0  0  0  0  0  0  0  0
  1  2  2  0  0  0  0
  1  6  1  0  0  0  0
  2  3  1  0  0  0  0
  3  4  2  0  0  0  0
  4  5  1  0  0  0  0
  4  9  1  0  0  0  0
  5 10  1  0  0  0  0
  6 31  1  0  0  0  0
  6  5  2  0  0  0  0
  7  1  1  0  0  0  0
 11 12  3  0  0  0  0
 13 19  1  0  0  0  0
 14 13  1  0  0  0  0
 14 20  1  0  0  0  0
 15 14  2  0  0  0  0
 16 17  2  0  0  0  0
 16 15  1  0  0  0  0
 17 18  1  0  0  0  0
 18 23  1  0  0  0  0
 18 13  2  0  0  0  0
 21 16  1  0  0  0  0
 22 17  1  0  0  0  0
 23 24  2  0  0  0  0
 25  8  1  0  0  0  0
 25 23  1  0  0  0  0
 26 23  2  0  0  0  0
 27 15  1  0  0  0  0
 27 28  1  0  0  0  0
 27 29  1  0  0  0  0
 30 27  1  0  0  0  0
 31 32  1  0  0  0  0
 32 35  1  0  0  0  0
 33 32  1  0  0  0  0
 34 32  1  0  0  0  0
M  RAD  2   2   2   3   2
M  END
