Coordinates from ORCA-job p-CH3O-Ph-N2-OTs-B3LYPG-aug-cc-pVDZ-scan-d09-49-n400
 OpenBabel07022015293D

 35 34  0  0  0  0  0  0  0  0999 V2000
   -0.1342   -0.9857   -2.7431 C   0  0  0  0  0  0  0  0  0  0  0  0
    0.9100   -0.1001   -2.6152 C   0  0  0  0  0  0  0  0  0  0  0  0
    0.9289    1.0972   -2.2411 C   0  0  0  0  0  0  0  0  0  0  0  0
   -0.1982    1.7794   -1.7827 C   0  0  0  0  0  0  0  0  0  0  0  0
   -1.3585    0.9816   -1.8382 C   0  0  0  0  0  0  0  0  0  0  0  0
   -1.3355   -0.3605   -2.3014 C   0  0  0  0  0  0  0  0  0  0  0  0
   -0.1257   -2.0163   -3.0880 H   0  0  0  0  0  0  0  0  0  0  0  0
    2.4380    2.0418   -3.5591 H   0  0  0  0  0  0  0  0  0  0  0  0
   -0.2198    2.8116   -1.4420 H   0  0  0  0  0  0  0  0  0  0  0  0
   -2.2994    1.4254   -1.5218 H   0  0  0  0  0  0  0  0  0  0  0  0
    1.2570    5.0136   -0.8228 N   0  0  0  0  0  0  0  0  0  0  0  0
    1.9056    5.8380   -0.4793 N   0  0  0  0  0  0  0  0  0  0  0  0
    5.8123    1.0315   -2.7541 C   0  0  0  0  0  0  0  0  0  0  0  0
    6.8351    0.1132   -3.0131 C   0  0  0  0  0  0  0  0  0  0  0  0
    7.6072    0.1963   -4.1807 C   0  0  0  0  0  0  0  0  0  0  0  0
    7.3348    1.2302   -5.0943 C   0  0  0  0  0  0  0  0  0  0  0  0
    6.3203    2.1563   -4.8577 C   0  0  0  0  0  0  0  0  0  0  0  0
    5.5683    2.0409   -3.6850 C   0  0  0  0  0  0  0  0  0  0  0  0
    5.2261    0.9796   -1.8388 H   0  0  0  0  0  0  0  0  0  0  0  0
    7.0384   -0.6743   -2.2861 H   0  0  0  0  0  0  0  0  0  0  0  0
    7.9320    1.3133   -6.0035 H   0  0  0  0  0  0  0  0  0  0  0  0
    6.1208    2.9661   -5.5570 H   0  0  0  0  0  0  0  0  0  0  0  0
    4.2531    3.2298   -3.3780 S   0  0  0  0  0  0  0  0  0  0  0  0
    3.9181    3.2207   -1.9327 O   0  0  0  0  0  0  0  0  0  0  0  0
    2.9673    2.5709   -4.1931 O   0  0  0  0  0  0  0  0  0  0  0  0
    4.5611    4.4793   -4.1002 O   0  0  0  0  0  0  0  0  0  0  0  0
    8.7184   -0.7866   -4.4575 C   0  0  0  0  0  0  0  0  0  0  0  0
    9.6921   -0.2771   -4.4982 H   0  0  0  0  0  0  0  0  0  0  0  0
    8.7729   -1.5644   -3.6856 H   0  0  0  0  0  0  0  0  0  0  0  0
    8.5725   -1.2834   -5.4277 H   0  0  0  0  0  0  0  0  0  0  0  0
   -2.4382   -1.1632   -2.3540 O   0  0  0  0  0  0  0  0  0  0  0  0
   -3.6848   -0.6511   -1.8878 C   0  0  0  0  0  0  0  0  0  0  0  0
   -4.4000   -1.4728   -1.9950 H   0  0  0  0  0  0  0  0  0  0  0  0
   -4.0148    0.2050   -2.4954 H   0  0  0  0  0  0  0  0  0  0  0  0
   -3.6211   -0.3545   -0.8302 H   0  0  0  0  0  0  0  0  0  0  0  0
  1  2  2  0  0  0  0
  1  6  1  0  0  0  0
  2  3  1  0  0  0  0
  3  4  2  0  0  0  0
  4  9  1  0  0  0  0
  5  4  1  0  0  0  0
  5 10  1  0  0  0  0
  6  5  2  0  0  0  0
  7  1  1  0  0  0  0
 11 12  3  0  0  0  0
 13 19  1  0  0  0  0
 14 13  1  0  0  0  0
 14 20  1  0  0  0  0
 15 14  2  0  0  0  0
 16 17  2  0  0  0  0
 16 15  1  0  0  0  0
 17 18  1  0  0  0  0
 18 23  1  0  0  0  0
 18 13  2  0  0  0  0
 21 16  1  0  0  0  0
 22 17  1  0  0  0  0
 23 24  2  0  0  0  0
 25  8  1  0  0  0  0
 25 23  1  0  0  0  0
 26 23  2  0  0  0  0
 27 15  1  0  0  0  0
 27 29  1  0  0  0  0
 28 27  1  0  0  0  0
 30 27  1  0  0  0  0
 31  6  1  0  0  0  0
 31 32  1  0  0  0  0
 32 35  1  0  0  0  0
 33 32  1  0  0  0  0
 34 32  1  0  0  0  0
M  RAD  2   2   2   3   2
M  END
