Coordinates from ORCA-job p-CH3O-Ph-N2-OTs-B3LYPG-aug-cc-pVDZ-scan-d09-49-n400
 OpenBabel07022015293D

 35 35  0  0  0  0  0  0  0  0999 V2000
   -0.6176    0.0473   -2.4344 C   0  0  0  0  0  0  0  0  0  0  0  0
    0.4624    0.9094   -2.5858 C   0  0  0  0  0  0  0  0  0  0  0  0
    0.2237    2.2290   -2.2226 C   0  0  0  0  0  0  0  0  0  0  0  0
   -0.9581    2.7454   -1.7211 C   0  0  0  0  0  0  0  0  0  0  0  0
   -2.0265    1.8583   -1.5813 C   0  0  0  0  0  0  0  0  0  0  0  0
   -1.8552    0.5067   -1.9381 C   0  0  0  0  0  0  0  0  0  0  0  0
   -0.5102   -1.0052   -2.6913 H   0  0  0  0  0  0  0  0  0  0  0  0
    1.4285    0.5513   -2.9442 H   0  0  0  0  0  0  0  0  0  0  0  0
   -1.0496    3.7940   -1.4490 H   0  0  0  0  0  0  0  0  0  0  0  0
   -2.9707    2.2280   -1.1927 H   0  0  0  0  0  0  0  0  0  0  0  0
    1.4253    3.2940   -2.3628 N   0  0  0  0  0  0  0  0  0  0  0  0
    2.4562    3.5758   -2.7204 N   0  0  0  0  0  0  0  0  0  0  0  0
    6.1084   -0.2387   -4.2978 C   0  0  0  0  0  0  0  0  0  0  0  0
    7.4194   -0.3009   -4.7828 C   0  0  0  0  0  0  0  0  0  0  0  0
    8.3363    0.7299   -4.5360 C   0  0  0  0  0  0  0  0  0  0  0  0
    7.9064    1.8385   -3.7847 C   0  0  0  0  0  0  0  0  0  0  0  0
    6.6043    1.9169   -3.2933 C   0  0  0  0  0  0  0  0  0  0  0  0
    5.7137    0.8717   -3.5548 C   0  0  0  0  0  0  0  0  0  0  0  0
    5.3965   -1.0413   -4.4826 H   0  0  0  0  0  0  0  0  0  0  0  0
    7.7342   -1.1709   -5.3613 H   0  0  0  0  0  0  0  0  0  0  0  0
    8.6055    2.6513   -3.5781 H   0  0  0  0  0  0  0  0  0  0  0  0
    6.2805    2.7720   -2.7025 H   0  0  0  0  0  0  0  0  0  0  0  0
    4.0206    0.9838   -2.9303 S   0  0  0  0  0  0  0  0  0  0  0  0
    4.0827    1.5411   -1.5369 O   0  0  0  0  0  0  0  0  0  0  0  0
    3.4054   -0.3815   -3.0684 O   0  0  0  0  0  0  0  0  0  0  0  0
    3.3061    1.9871   -3.8819 O   0  0  0  0  0  0  0  0  0  0  0  0
    9.7561    0.6539   -5.0450 C   0  0  0  0  0  0  0  0  0  0  0  0
   10.4687    0.5460   -4.2133 H   0  0  0  0  0  0  0  0  0  0  0  0
    9.8941   -0.2018   -5.7181 H   0  0  0  0  0  0  0  0  0  0  0  0
   10.0329    1.5665   -5.5925 H   0  0  0  0  0  0  0  0  0  0  0  0
   -2.8226   -0.4328   -1.8339 O   0  0  0  0  0  0  0  0  0  0  0  0
   -4.1022   -0.0535   -1.3213 C   0  0  0  0  0  0  0  0  0  0  0  0
   -4.6966   -0.9713   -1.3087 H   0  0  0  0  0  0  0  0  0  0  0  0
   -4.5825    0.6904   -1.9739 H   0  0  0  0  0  0  0  0  0  0  0  0
   -4.0158    0.3414   -0.2985 H   0  0  0  0  0  0  0  0  0  0  0  0
  1  6  1  0  0  0  0
  2  1  2  0  0  0  0
  2  3  1  0  0  0  0
  3  4  2  0  0  0  0
  4  5  1  0  0  0  0
  4  9  1  0  0  0  0
  5 10  1  0  0  0  0
  6 31  1  0  0  0  0
  6  5  2  0  0  0  0
  7  1  1  0  0  0  0
  8  2  1  0  0  0  0
 11  3  1  0  0  0  0
 12 11  2  0  0  0  0
 13 18  2  0  0  0  0
 14 15  2  0  0  0  0
 14 13  1  0  0  0  0
 15 16  1  0  0  0  0
 16 21  1  0  0  0  0
 16 17  2  0  0  0  0
 17 22  1  0  0  0  0
 18 17  1  0  0  0  0
 18 23  1  0  0  0  0
 19 13  1  0  0  0  0
 20 14  1  0  0  0  0
 23 24  1  0  0  0  0
 25 23  2  0  0  0  0
 26 23  2  0  0  0  0
 27 15  1  0  0  0  0
 27 28  1  0  0  0  0
 29 27  1  0  0  0  0
 30 27  1  0  0  0  0
 31 32  1  0  0  0  0
 32 33  1  0  0  0  0
 32 35  1  0  0  0  0
 34 32  1  0  0  0  0
M  RAD  2  12   2  24   2
M  END
