Coordinates from ORCA-job p-CH3O-Ph-N2-OTs-B3LYPG-aug-cc-pVDZ-scan-d09-49-n400
 OpenBabel07022015293D

 35 35  0  0  0  0  0  0  0  0999 V2000
   -0.6206    0.0463   -2.4366 C   0  0  0  0  0  0  0  0  0  0  0  0
    0.4602    0.9066   -2.5898 C   0  0  0  0  0  0  0  0  0  0  0  0
    0.2268    2.2279   -2.2258 C   0  0  0  0  0  0  0  0  0  0  0  0
   -0.9547    2.7443   -1.7216 C   0  0  0  0  0  0  0  0  0  0  0  0
   -2.0244    1.8596   -1.5799 C   0  0  0  0  0  0  0  0  0  0  0  0
   -1.8564    0.5077   -1.9376 C   0  0  0  0  0  0  0  0  0  0  0  0
   -0.5157   -1.0063   -2.6941 H   0  0  0  0  0  0  0  0  0  0  0  0
    1.4249    0.5470   -2.9503 H   0  0  0  0  0  0  0  0  0  0  0  0
   -1.0443    3.7930   -1.4488 H   0  0  0  0  0  0  0  0  0  0  0  0
   -2.9672    2.2307   -1.1892 H   0  0  0  0  0  0  0  0  0  0  0  0
    1.4227    3.2840   -2.3677 N   0  0  0  0  0  0  0  0  0  0  0  0
    2.4535    3.5680   -2.7247 N   0  0  0  0  0  0  0  0  0  0  0  0
    6.1106   -0.2396   -4.2987 C   0  0  0  0  0  0  0  0  0  0  0  0
    7.4220   -0.2997   -4.7827 C   0  0  0  0  0  0  0  0  0  0  0  0
    8.3374    0.7321   -4.5348 C   0  0  0  0  0  0  0  0  0  0  0  0
    7.9056    1.8397   -3.7831 C   0  0  0  0  0  0  0  0  0  0  0  0
    6.6029    1.9162   -3.2925 C   0  0  0  0  0  0  0  0  0  0  0  0
    5.7139    0.8700   -3.5553 C   0  0  0  0  0  0  0  0  0  0  0  0
    5.3998   -1.0429   -4.4844 H   0  0  0  0  0  0  0  0  0  0  0  0
    7.7384   -1.1690   -5.3616 H   0  0  0  0  0  0  0  0  0  0  0  0
    8.6035    2.6533   -3.5756 H   0  0  0  0  0  0  0  0  0  0  0  0
    6.2778    2.7706   -2.7015 H   0  0  0  0  0  0  0  0  0  0  0  0
    4.0200    0.9791   -2.9324 S   0  0  0  0  0  0  0  0  0  0  0  0
    4.0796    1.5366   -1.5390 O   0  0  0  0  0  0  0  0  0  0  0  0
    3.4071   -0.3871   -3.0715 O   0  0  0  0  0  0  0  0  0  0  0  0
    3.3048    1.9815   -3.8847 O   0  0  0  0  0  0  0  0  0  0  0  0
    9.7577    0.6583   -5.0430 C   0  0  0  0  0  0  0  0  0  0  0  0
   10.4699    0.5509   -4.2108 H   0  0  0  0  0  0  0  0  0  0  0  0
    9.8972   -0.1967   -5.7165 H   0  0  0  0  0  0  0  0  0  0  0  0
   10.0335    1.5717   -5.5897 H   0  0  0  0  0  0  0  0  0  0  0  0
   -2.8252   -0.4299   -1.8320 O   0  0  0  0  0  0  0  0  0  0  0  0
   -4.1034   -0.0486   -1.3172 C   0  0  0  0  0  0  0  0  0  0  0  0
   -4.6993   -0.9654   -1.3042 H   0  0  0  0  0  0  0  0  0  0  0  0
   -4.5834    0.6965   -1.9687 H   0  0  0  0  0  0  0  0  0  0  0  0
   -4.0148    0.3456   -0.2944 H   0  0  0  0  0  0  0  0  0  0  0  0
  1  6  1  0  0  0  0
  2  1  2  0  0  0  0
  2  3  1  0  0  0  0
  3  4  2  0  0  0  0
  4  5  1  0  0  0  0
  4  9  1  0  0  0  0
  5 10  1  0  0  0  0
  6 31  1  0  0  0  0
  6  5  2  0  0  0  0
  7  1  1  0  0  0  0
  8  2  1  0  0  0  0
 11  3  1  0  0  0  0
 12 11  2  0  0  0  0
 13 18  2  0  0  0  0
 14 15  2  0  0  0  0
 14 13  1  0  0  0  0
 15 16  1  0  0  0  0
 16 21  1  0  0  0  0
 16 17  2  0  0  0  0
 17 22  1  0  0  0  0
 18 17  1  0  0  0  0
 18 23  1  0  0  0  0
 19 13  1  0  0  0  0
 20 14  1  0  0  0  0
 23 24  1  0  0  0  0
 25 23  2  0  0  0  0
 26 23  2  0  0  0  0
 27 15  1  0  0  0  0
 27 28  1  0  0  0  0
 29 27  1  0  0  0  0
 30 27  1  0  0  0  0
 31 32  1  0  0  0  0
 32 33  1  0  0  0  0
 32 35  1  0  0  0  0
 34 32  1  0  0  0  0
M  RAD  2  12   2  24   2
M  END
