Coordinates from ORCA-job p-CH3O-Ph-N2-OTs-B3LYPG-aug-cc-pVDZ-scan-d09-49-n400
 OpenBabel07022015293D

 35 34  0  0  0  0  0  0  0  0999 V2000
   -0.1050    0.4419   -2.8102 C   0  0  0  0  0  0  0  0  0  0  0  0
    0.5737    1.6286   -2.4847 C   0  0  0  0  0  0  0  0  0  0  0  0
   -0.0496    2.4192   -1.7107 C   0  0  0  0  0  0  0  0  0  0  0  0
   -1.2570    2.4535   -1.0743 C   0  0  0  0  0  0  0  0  0  0  0  0
   -1.9590    1.2671   -1.3894 C   0  0  0  0  0  0  0  0  0  0  0  0
   -1.3932    0.2844   -2.2387 C   0  0  0  0  0  0  0  0  0  0  0  0
    0.2916   -0.3392   -3.4585 H   0  0  0  0  0  0  0  0  0  0  0  0
    2.2656    1.8084   -3.4122 H   0  0  0  0  0  0  0  0  0  0  0  0
   -1.6505    3.2348   -0.4298 H   0  0  0  0  0  0  0  0  0  0  0  0
   -2.9501    1.1350   -0.9619 H   0  0  0  0  0  0  0  0  0  0  0  0
    0.9688    4.4293   -1.0668 N   0  0  0  0  0  0  0  0  0  0  0  0
    1.8262    5.1244   -1.1043 N   0  0  0  0  0  0  0  0  0  0  0  0
    6.0098    0.7806   -2.8440 C   0  0  0  0  0  0  0  0  0  0  0  0
    7.1246   -0.0320   -3.0598 C   0  0  0  0  0  0  0  0  0  0  0  0
    7.8918    0.0817   -4.2300 C   0  0  0  0  0  0  0  0  0  0  0  0
    7.5135    1.0350   -5.1899 C   0  0  0  0  0  0  0  0  0  0  0  0
    6.4025    1.8573   -4.9953 C   0  0  0  0  0  0  0  0  0  0  0  0
    5.6623    1.7148   -3.8202 C   0  0  0  0  0  0  0  0  0  0  0  0
    5.4230    0.6999   -1.9309 H   0  0  0  0  0  0  0  0  0  0  0  0
    7.4038   -0.7629   -2.2996 H   0  0  0  0  0  0  0  0  0  0  0  0
    8.1017    1.1381   -6.1030 H   0  0  0  0  0  0  0  0  0  0  0  0
    6.1138    2.6019   -5.7347 H   0  0  0  0  0  0  0  0  0  0  0  0
    4.2296    2.7683   -3.5517 S   0  0  0  0  0  0  0  0  0  0  0  0
    4.0417    3.0047   -2.0967 O   0  0  0  0  0  0  0  0  0  0  0  0
    3.0295    1.7534   -4.0518 O   0  0  0  0  0  0  0  0  0  0  0  0
    4.2965    3.9104   -4.4902 O   0  0  0  0  0  0  0  0  0  0  0  0
    9.1103   -0.7822   -4.4470 C   0  0  0  0  0  0  0  0  0  0  0  0
   10.0324   -0.2028   -4.2877 H   0  0  0  0  0  0  0  0  0  0  0  0
    9.1267   -1.6351   -3.7569 H   0  0  0  0  0  0  0  0  0  0  0  0
    9.1450   -1.1707   -5.4739 H   0  0  0  0  0  0  0  0  0  0  0  0
   -2.0298   -0.8757   -2.5753 O   0  0  0  0  0  0  0  0  0  0  0  0
   -3.3322   -1.1228   -2.0560 C   0  0  0  0  0  0  0  0  0  0  0  0
   -3.6374   -2.0863   -2.4741 H   0  0  0  0  0  0  0  0  0  0  0  0
   -4.0430   -0.3443   -2.3734 H   0  0  0  0  0  0  0  0  0  0  0  0
   -3.3174   -1.1871   -0.9567 H   0  0  0  0  0  0  0  0  0  0  0  0
  1  2  2  0  0  0  0
  1  6  1  0  0  0  0
  2  3  1  0  0  0  0
  3  4  2  0  0  0  0
  4  9  1  0  0  0  0
  5  4  1  0  0  0  0
  5 10  1  0  0  0  0
  6  5  2  0  0  0  0
  7  1  1  0  0  0  0
 12 11  3  0  0  0  0
 13 19  1  0  0  0  0
 14 13  1  0  0  0  0
 14 20  1  0  0  0  0
 15 14  2  0  0  0  0
 16 17  2  0  0  0  0
 16 15  1  0  0  0  0
 17 18  1  0  0  0  0
 18 23  1  0  0  0  0
 18 13  2  0  0  0  0
 21 16  1  0  0  0  0
 22 17  1  0  0  0  0
 23 24  2  0  0  0  0
 25 23  1  0  0  0  0
 25  8  1  0  0  0  0
 26 23  2  0  0  0  0
 27 28  1  0  0  0  0
 27 15  1  0  0  0  0
 27 29  1  0  0  0  0
 30 27  1  0  0  0  0
 31  6  1  0  0  0  0
 31 32  1  0  0  0  0
 32 35  1  0  0  0  0
 33 32  1  0  0  0  0
 34 32  1  0  0  0  0
M  RAD  2   2   2   3   2
M  END
