Coordinates from ORCA-job p-CH3O-Ph-N2-OTs-B3LYPG-aug-cc-pVDZ-scan-d09-49-n400
 OpenBabel07022015293D

 35 34  0  0  0  0  0  0  0  0999 V2000
   -0.5102   -1.3109   -2.9114 C   0  0  0  0  0  0  0  0  0  0  0  0
    0.7559   -0.7773   -2.8992 C   0  0  0  0  0  0  0  0  0  0  0  0
    1.1744    0.3516   -2.5438 C   0  0  0  0  0  0  0  0  0  0  0  0
    0.3542    1.3145   -1.9480 C   0  0  0  0  0  0  0  0  0  0  0  0
   -0.9907    0.9013   -1.8801 C   0  0  0  0  0  0  0  0  0  0  0  0
   -1.4182   -0.3716   -2.3410 C   0  0  0  0  0  0  0  0  0  0  0  0
   -0.8398   -2.2939   -3.2369 H   0  0  0  0  0  0  0  0  0  0  0  0
    2.3055    1.4635   -3.9914 H   0  0  0  0  0  0  0  0  0  0  0  0
    0.6809    2.2943   -1.6098 H   0  0  0  0  0  0  0  0  0  0  0  0
   -1.7173    1.5989   -1.4693 H   0  0  0  0  0  0  0  0  0  0  0  0
    1.2519    4.5721   -0.3886 N   0  0  0  0  0  0  0  0  0  0  0  0
    1.9128    5.3765   -0.0219 N   0  0  0  0  0  0  0  0  0  0  0  0
    5.6332    0.9917   -2.8714 C   0  0  0  0  0  0  0  0  0  0  0  0
    6.7962    0.2253   -2.9900 C   0  0  0  0  0  0  0  0  0  0  0  0
    7.6930    0.4248   -4.0501 C   0  0  0  0  0  0  0  0  0  0  0  0
    7.4007    1.4192   -5.0000 C   0  0  0  0  0  0  0  0  0  0  0  0
    6.2458    2.1947   -4.9033 C   0  0  0  0  0  0  0  0  0  0  0  0
    5.3734    1.9658   -3.8354 C   0  0  0  0  0  0  0  0  0  0  0  0
    4.9448    0.8458   -2.0411 H   0  0  0  0  0  0  0  0  0  0  0  0
    7.0118   -0.5347   -2.2378 H   0  0  0  0  0  0  0  0  0  0  0  0
    8.0930    1.5917   -5.8256 H   0  0  0  0  0  0  0  0  0  0  0  0
    6.0241    2.9731   -5.6308 H   0  0  0  0  0  0  0  0  0  0  0  0
    3.8697    2.9459   -3.7184 S   0  0  0  0  0  0  0  0  0  0  0  0
    3.3984    2.9447   -2.3105 O   0  0  0  0  0  0  0  0  0  0  0  0
    2.7866    2.0605   -4.6062 O   0  0  0  0  0  0  0  0  0  0  0  0
    4.0534    4.1992   -4.4748 O   0  0  0  0  0  0  0  0  0  0  0  0
    8.9548   -0.3944   -4.1695 C   0  0  0  0  0  0  0  0  0  0  0  0
    9.8454    0.2353   -4.0270 H   0  0  0  0  0  0  0  0  0  0  0  0
    8.9851   -1.1990   -3.4244 H   0  0  0  0  0  0  0  0  0  0  0  0
    9.0367   -0.8501   -5.1664 H   0  0  0  0  0  0  0  0  0  0  0  0
   -2.7070   -0.8126   -2.2656 O   0  0  0  0  0  0  0  0  0  0  0  0
   -3.6859    0.0241   -1.6522 C   0  0  0  0  0  0  0  0  0  0  0  0
   -4.6179   -0.5491   -1.6730 H   0  0  0  0  0  0  0  0  0  0  0  0
   -3.8171    0.9600   -2.2155 H   0  0  0  0  0  0  0  0  0  0  0  0
   -3.4171    0.2510   -0.6097 H   0  0  0  0  0  0  0  0  0  0  0  0
  1  2  2  0  0  0  0
  1  6  1  0  0  0  0
  2  3  1  0  0  0  0
  3  4  2  0  0  0  0
  4  5  1  0  0  0  0
  4  9  1  0  0  0  0
  5 10  1  0  0  0  0
  6 31  1  0  0  0  0
  6  5  2  0  0  0  0
  7  1  1  0  0  0  0
 11 12  3  0  0  0  0
 13 19  1  0  0  0  0
 14 13  1  0  0  0  0
 14 20  1  0  0  0  0
 15 14  2  0  0  0  0
 16 17  2  0  0  0  0
 16 15  1  0  0  0  0
 17 18  1  0  0  0  0
 18 23  1  0  0  0  0
 18 13  2  0  0  0  0
 21 16  1  0  0  0  0
 22 17  1  0  0  0  0
 23 24  2  0  0  0  0
 25  8  1  0  0  0  0
 25 23  1  0  0  0  0
 26 23  2  0  0  0  0
 27 15  1  0  0  0  0
 27 28  1  0  0  0  0
 27 29  1  0  0  0  0
 30 27  1  0  0  0  0
 31 32  1  0  0  0  0
 32 35  1  0  0  0  0
 33 32  1  0  0  0  0
 34 32  1  0  0  0  0
M  RAD  2   2   2   3   2
M  END
