Coordinates from ORCA-job p-CH3O-Ph-N2-OTs-B3LYPG-aug-cc-pVDZ-scan-d09-49-n400
 OpenBabel07022015293D

 35 34  0  0  0  0  0  0  0  0999 V2000
   -0.1023   -1.0908   -2.7728 C   0  0  0  0  0  0  0  0  0  0  0  0
    0.9858   -0.2615   -2.6504 C   0  0  0  0  0  0  0  0  0  0  0  0
    1.0809    0.9382   -2.2937 C   0  0  0  0  0  0  0  0  0  0  0  0
   -0.0098    1.6772   -1.8284 C   0  0  0  0  0  0  0  0  0  0  0  0
   -1.2132    0.9464   -1.8771 C   0  0  0  0  0  0  0  0  0  0  0  0
   -1.2664   -0.3973   -2.3322 C   0  0  0  0  0  0  0  0  0  0  0  0
   -0.1486   -2.1253   -3.1025 H   0  0  0  0  0  0  0  0  0  0  0  0
    2.4052    2.0308   -3.5750 H   0  0  0  0  0  0  0  0  0  0  0  0
    0.0250    2.7120   -1.4951 H   0  0  0  0  0  0  0  0  0  0  0  0
   -2.1274    1.4441   -1.5626 H   0  0  0  0  0  0  0  0  0  0  0  0
    1.2163    5.0769   -0.8099 N   0  0  0  0  0  0  0  0  0  0  0  0
    1.8468    5.9235   -0.4875 N   0  0  0  0  0  0  0  0  0  0  0  0
    5.7464    1.0482   -2.7313 C   0  0  0  0  0  0  0  0  0  0  0  0
    6.7646    0.1251   -2.9915 C   0  0  0  0  0  0  0  0  0  0  0  0
    7.5353    0.2043   -4.1602 C   0  0  0  0  0  0  0  0  0  0  0  0
    7.2664    1.2393   -5.0737 C   0  0  0  0  0  0  0  0  0  0  0  0
    6.2562    2.1698   -4.8360 C   0  0  0  0  0  0  0  0  0  0  0  0
    5.5054    2.0582   -3.6622 C   0  0  0  0  0  0  0  0  0  0  0  0
    5.1604    0.9991   -1.8156 H   0  0  0  0  0  0  0  0  0  0  0  0
    6.9651   -0.6632   -2.2647 H   0  0  0  0  0  0  0  0  0  0  0  0
    7.8626    1.3194   -5.9838 H   0  0  0  0  0  0  0  0  0  0  0  0
    6.0591    2.9800   -5.5355 H   0  0  0  0  0  0  0  0  0  0  0  0
    4.1937    3.2514   -3.3558 S   0  0  0  0  0  0  0  0  0  0  0  0
    3.8494    3.2316   -1.9128 O   0  0  0  0  0  0  0  0  0  0  0  0
    2.9112    2.6096   -4.1868 O   0  0  0  0  0  0  0  0  0  0  0  0
    4.5117    4.5057   -4.0655 O   0  0  0  0  0  0  0  0  0  0  0  0
    8.6411   -0.7841   -4.4390 C   0  0  0  0  0  0  0  0  0  0  0  0
    9.6168   -0.2791   -4.4859 H   0  0  0  0  0  0  0  0  0  0  0  0
    8.6959   -1.5598   -3.6649 H   0  0  0  0  0  0  0  0  0  0  0  0
    8.4884   -1.2834   -5.4069 H   0  0  0  0  0  0  0  0  0  0  0  0
   -2.4106   -1.1394   -2.3737 O   0  0  0  0  0  0  0  0  0  0  0  0
   -3.6229   -0.5638   -1.8906 C   0  0  0  0  0  0  0  0  0  0  0  0
   -4.3799   -1.3484   -1.9873 H   0  0  0  0  0  0  0  0  0  0  0  0
   -3.9182    0.3072   -2.4948 H   0  0  0  0  0  0  0  0  0  0  0  0
   -3.5299   -0.2704   -0.8343 H   0  0  0  0  0  0  0  0  0  0  0  0
  1  2  2  0  0  0  0
  1  6  1  0  0  0  0
  2  3  1  0  0  0  0
  3  4  2  0  0  0  0
  4  9  1  0  0  0  0
  5  4  1  0  0  0  0
  5 10  1  0  0  0  0
  6  5  2  0  0  0  0
  7  1  1  0  0  0  0
 11 12  3  0  0  0  0
 13 19  1  0  0  0  0
 14 13  1  0  0  0  0
 14 20  1  0  0  0  0
 15 14  2  0  0  0  0
 16 17  2  0  0  0  0
 16 15  1  0  0  0  0
 17 18  1  0  0  0  0
 18 23  1  0  0  0  0
 18 13  2  0  0  0  0
 21 16  1  0  0  0  0
 22 17  1  0  0  0  0
 23 24  2  0  0  0  0
 25  8  1  0  0  0  0
 25 23  1  0  0  0  0
 26 23  2  0  0  0  0
 27 15  1  0  0  0  0
 27 29  1  0  0  0  0
 28 27  1  0  0  0  0
 30 27  1  0  0  0  0
 31  6  1  0  0  0  0
 31 32  1  0  0  0  0
 32 35  1  0  0  0  0
 33 32  1  0  0  0  0
 34 32  1  0  0  0  0
M  RAD  2   2   2   3   2
M  END
