Coordinates from ORCA-job p-CH3O-Ph-N2-OTs-B3LYPG-aug-cc-pVDZ-scan-d09-49-n400
 OpenBabel07022015293D

 35 34  0  0  0  0  0  0  0  0999 V2000
   -0.1783    0.3612   -2.8578 C   0  0  0  0  0  0  0  0  0  0  0  0
    0.5280    1.5307   -2.5423 C   0  0  0  0  0  0  0  0  0  0  0  0
   -0.0349    2.3464   -1.7571 C   0  0  0  0  0  0  0  0  0  0  0  0
   -1.2234    2.4175   -1.0866 C   0  0  0  0  0  0  0  0  0  0  0  0
   -1.9657    1.2493   -1.3843 C   0  0  0  0  0  0  0  0  0  0  0  0
   -1.4549    0.2481   -2.2478 C   0  0  0  0  0  0  0  0  0  0  0  0
    0.1771   -0.4314   -3.5153 H   0  0  0  0  0  0  0  0  0  0  0  0
    2.2824    1.7515   -3.4766 H   0  0  0  0  0  0  0  0  0  0  0  0
   -1.5785    3.2080   -0.4317 H   0  0  0  0  0  0  0  0  0  0  0  0
   -2.9479    1.1456   -0.9289 H   0  0  0  0  0  0  0  0  0  0  0  0
    1.0583    4.5413   -1.0073 N   0  0  0  0  0  0  0  0  0  0  0  0
    1.9063    5.2479   -1.0299 N   0  0  0  0  0  0  0  0  0  0  0  0
    6.0144    0.7600   -2.8666 C   0  0  0  0  0  0  0  0  0  0  0  0
    7.1436   -0.0356   -3.0716 C   0  0  0  0  0  0  0  0  0  0  0  0
    7.9352    0.1081   -4.2220 C   0  0  0  0  0  0  0  0  0  0  0  0
    7.5675    1.0748   -5.1730 C   0  0  0  0  0  0  0  0  0  0  0  0
    6.4424    1.8799   -4.9895 C   0  0  0  0  0  0  0  0  0  0  0  0
    5.6777    1.7070   -3.8341 C   0  0  0  0  0  0  0  0  0  0  0  0
    5.4088    0.6567   -1.9681 H   0  0  0  0  0  0  0  0  0  0  0  0
    7.4154   -0.7759   -2.3179 H   0  0  0  0  0  0  0  0  0  0  0  0
    8.1759    1.2021   -6.0696 H   0  0  0  0  0  0  0  0  0  0  0  0
    6.1616    2.6347   -5.7214 H   0  0  0  0  0  0  0  0  0  0  0  0
    4.2289    2.7405   -3.5785 S   0  0  0  0  0  0  0  0  0  0  0  0
    4.0119    2.9594   -2.1256 O   0  0  0  0  0  0  0  0  0  0  0  0
    3.0473    1.7120   -4.1075 O   0  0  0  0  0  0  0  0  0  0  0  0
    4.2932    3.8899   -4.5076 O   0  0  0  0  0  0  0  0  0  0  0  0
    9.1655   -0.7406   -4.4312 C   0  0  0  0  0  0  0  0  0  0  0  0
   10.0793   -0.1360   -4.3305 H   0  0  0  0  0  0  0  0  0  0  0  0
    9.2193   -1.5584   -3.7019 H   0  0  0  0  0  0  0  0  0  0  0  0
    9.1774   -1.1797   -5.4385 H   0  0  0  0  0  0  0  0  0  0  0  0
   -2.1378   -0.8919   -2.5635 O   0  0  0  0  0  0  0  0  0  0  0  0
   -3.4342   -1.0943   -2.0113 C   0  0  0  0  0  0  0  0  0  0  0  0
   -3.7829   -2.0463   -2.4214 H   0  0  0  0  0  0  0  0  0  0  0  0
   -4.1251   -0.2912   -2.3107 H   0  0  0  0  0  0  0  0  0  0  0  0
   -3.3936   -1.1596   -0.9126 H   0  0  0  0  0  0  0  0  0  0  0  0
  1  2  2  0  0  0  0
  1  6  1  0  0  0  0
  2  3  1  0  0  0  0
  3  4  2  0  0  0  0
  4  9  1  0  0  0  0
  5  4  1  0  0  0  0
  5 10  1  0  0  0  0
  6  5  2  0  0  0  0
  7  1  1  0  0  0  0
 12 11  3  0  0  0  0
 13 19  1  0  0  0  0
 14 13  1  0  0  0  0
 14 20  1  0  0  0  0
 15 14  2  0  0  0  0
 16 17  2  0  0  0  0
 16 15  1  0  0  0  0
 17 18  1  0  0  0  0
 18 23  1  0  0  0  0
 18 13  2  0  0  0  0
 21 16  1  0  0  0  0
 22 17  1  0  0  0  0
 23 24  2  0  0  0  0
 25 23  1  0  0  0  0
 25  8  1  0  0  0  0
 26 23  2  0  0  0  0
 27 28  1  0  0  0  0
 27 15  1  0  0  0  0
 27 29  1  0  0  0  0
 30 27  1  0  0  0  0
 31  6  1  0  0  0  0
 31 32  1  0  0  0  0
 32 35  1  0  0  0  0
 33 32  1  0  0  0  0
 34 32  1  0  0  0  0
M  RAD  2   2   2   3   2
M  END
