Coordinates from ORCA-job p-CH3O-Ph-N2-OTs-B3LYPG-aug-cc-pVDZ-scan-d09-49-n400
 OpenBabel07022015293D

 35 34  0  0  0  0  0  0  0  0999 V2000
   -0.5031   -1.3301   -2.9113 C   0  0  0  0  0  0  0  0  0  0  0  0
    0.7653   -0.8012   -2.9006 C   0  0  0  0  0  0  0  0  0  0  0  0
    1.1856    0.3277   -2.5477 C   0  0  0  0  0  0  0  0  0  0  0  0
    0.3689    1.2965   -1.9569 C   0  0  0  0  0  0  0  0  0  0  0  0
   -0.9775    0.8875   -1.8894 C   0  0  0  0  0  0  0  0  0  0  0  0
   -1.4086   -0.3858   -2.3457 C   0  0  0  0  0  0  0  0  0  0  0  0
   -0.8357   -2.3131   -3.2338 H   0  0  0  0  0  0  0  0  0  0  0  0
    2.3016    1.4698   -3.9914 H   0  0  0  0  0  0  0  0  0  0  0  0
    0.6960    2.2775   -1.6221 H   0  0  0  0  0  0  0  0  0  0  0  0
   -1.7024    1.5889   -1.4820 H   0  0  0  0  0  0  0  0  0  0  0  0
    1.2802    4.6418   -0.3560 N   0  0  0  0  0  0  0  0  0  0  0  0
    1.9533    5.4388    0.0045 N   0  0  0  0  0  0  0  0  0  0  0  0
    5.6232    0.9970   -2.8661 C   0  0  0  0  0  0  0  0  0  0  0  0
    6.7841    0.2275   -2.9860 C   0  0  0  0  0  0  0  0  0  0  0  0
    7.6789    0.4230   -4.0484 C   0  0  0  0  0  0  0  0  0  0  0  0
    7.3870    1.4165   -4.9994 C   0  0  0  0  0  0  0  0  0  0  0  0
    6.2343    2.1950   -4.9015 C   0  0  0  0  0  0  0  0  0  0  0  0
    5.3637    1.9701   -3.8312 C   0  0  0  0  0  0  0  0  0  0  0  0
    4.9364    0.8543   -2.0339 H   0  0  0  0  0  0  0  0  0  0  0  0
    6.9994   -0.5317   -2.2330 H   0  0  0  0  0  0  0  0  0  0  0  0
    8.0779    1.5860   -5.8268 H   0  0  0  0  0  0  0  0  0  0  0  0
    6.0132    2.9728   -5.6298 H   0  0  0  0  0  0  0  0  0  0  0  0
    3.8634    2.9551   -3.7124 S   0  0  0  0  0  0  0  0  0  0  0  0
    3.3929    2.9541   -2.3042 O   0  0  0  0  0  0  0  0  0  0  0  0
    2.7772    2.0751   -4.6019 O   0  0  0  0  0  0  0  0  0  0  0  0
    4.0501    4.2088   -4.4672 O   0  0  0  0  0  0  0  0  0  0  0  0
    8.9384   -0.3996   -4.1696 C   0  0  0  0  0  0  0  0  0  0  0  0
    9.8311    0.2292   -4.0367 H   0  0  0  0  0  0  0  0  0  0  0  0
    8.9714   -1.1993   -3.4192 H   0  0  0  0  0  0  0  0  0  0  0  0
    9.0134   -0.8623   -5.1638 H   0  0  0  0  0  0  0  0  0  0  0  0
   -2.6990   -0.8218   -2.2701 O   0  0  0  0  0  0  0  0  0  0  0  0
   -3.6767    0.0222   -1.6647 C   0  0  0  0  0  0  0  0  0  0  0  0
   -4.6108   -0.5474   -1.6855 H   0  0  0  0  0  0  0  0  0  0  0  0
   -3.8020    0.9554   -2.2337 H   0  0  0  0  0  0  0  0  0  0  0  0
   -3.4107    0.2538   -0.6226 H   0  0  0  0  0  0  0  0  0  0  0  0
  1  2  2  0  0  0  0
  1  6  1  0  0  0  0
  2  3  1  0  0  0  0
  3  4  2  0  0  0  0
  4  5  1  0  0  0  0
  4  9  1  0  0  0  0
  5 10  1  0  0  0  0
  6 31  1  0  0  0  0
  6  5  2  0  0  0  0
  7  1  1  0  0  0  0
 11 12  3  0  0  0  0
 13 19  1  0  0  0  0
 14 13  1  0  0  0  0
 14 20  1  0  0  0  0
 15 14  2  0  0  0  0
 16 17  2  0  0  0  0
 16 15  1  0  0  0  0
 17 18  1  0  0  0  0
 18 23  1  0  0  0  0
 18 13  2  0  0  0  0
 21 16  1  0  0  0  0
 22 17  1  0  0  0  0
 23 24  2  0  0  0  0
 25  8  1  0  0  0  0
 25 23  1  0  0  0  0
 26 23  2  0  0  0  0
 27 15  1  0  0  0  0
 27 28  1  0  0  0  0
 27 29  1  0  0  0  0
 30 27  1  0  0  0  0
 31 32  1  0  0  0  0
 32 35  1  0  0  0  0
 33 32  1  0  0  0  0
 34 32  1  0  0  0  0
M  RAD  2   2   2   3   2
M  END
