Coordinates from ORCA-job p-CH3O-Ph-N2-OTs-B3LYPG-aug-cc-pVDZ-scan-d09-49-n400
 OpenBabel07022015293D

 35 35  0  0  0  0  0  0  0  0999 V2000
   -0.5275    0.0877   -2.4247 C   0  0  0  0  0  0  0  0  0  0  0  0
    0.5000    1.0279   -2.5621 C   0  0  0  0  0  0  0  0  0  0  0  0
    0.1036    2.2782   -2.1838 C   0  0  0  0  0  0  0  0  0  0  0  0
   -1.0772    2.7599   -1.6890 C   0  0  0  0  0  0  0  0  0  0  0  0
   -2.0756    1.7818   -1.5670 C   0  0  0  0  0  0  0  0  0  0  0  0
   -1.7981    0.4502   -1.9336 C   0  0  0  0  0  0  0  0  0  0  0  0
   -0.3340   -0.9499   -2.6925 H   0  0  0  0  0  0  0  0  0  0  0  0
    1.5032    0.7316   -2.9104 H   0  0  0  0  0  0  0  0  0  0  0  0
   -1.2367    3.7977   -1.4124 H   0  0  0  0  0  0  0  0  0  0  0  0
   -3.0478    2.0793   -1.1849 H   0  0  0  0  0  0  0  0  0  0  0  0
    1.3951    3.5985   -2.3268 N   0  0  0  0  0  0  0  0  0  0  0  0
    2.3779    3.9828   -2.6844 N   0  0  0  0  0  0  0  0  0  0  0  0
    5.9953   -0.1260   -4.3689 C   0  0  0  0  0  0  0  0  0  0  0  0
    7.3101   -0.3156   -4.8096 C   0  0  0  0  0  0  0  0  0  0  0  0
    8.3198    0.6082   -4.5079 C   0  0  0  0  0  0  0  0  0  0  0  0
    7.9795    1.7404   -3.7462 C   0  0  0  0  0  0  0  0  0  0  0  0
    6.6750    1.9446   -3.2988 C   0  0  0  0  0  0  0  0  0  0  0  0
    5.6899    1.0042   -3.6140 C   0  0  0  0  0  0  0  0  0  0  0  0
    5.2148   -0.8504   -4.5951 H   0  0  0  0  0  0  0  0  0  0  0  0
    7.5533   -1.2031   -5.3962 H   0  0  0  0  0  0  0  0  0  0  0  0
    8.7491    2.4744   -3.4984 H   0  0  0  0  0  0  0  0  0  0  0  0
    6.4190    2.8164   -2.6991 H   0  0  0  0  0  0  0  0  0  0  0  0
    3.9977    1.2953   -3.0439 S   0  0  0  0  0  0  0  0  0  0  0  0
    4.0780    1.8028   -1.6300 O   0  0  0  0  0  0  0  0  0  0  0  0
    3.2628   -0.0204   -3.1997 O   0  0  0  0  0  0  0  0  0  0  0  0
    3.4159    2.3594   -3.9876 O   0  0  0  0  0  0  0  0  0  0  0  0
    9.7416    0.3943   -4.9701 C   0  0  0  0  0  0  0  0  0  0  0  0
   10.4180    0.2479   -4.1146 H   0  0  0  0  0  0  0  0  0  0  0  0
    9.8215   -0.4891   -5.6163 H   0  0  0  0  0  0  0  0  0  0  0  0
   10.1137    1.2631   -5.5326 H   0  0  0  0  0  0  0  0  0  0  0  0
   -2.6944   -0.5607   -1.8427 O   0  0  0  0  0  0  0  0  0  0  0  0
   -3.9955   -0.2811   -1.3216 C   0  0  0  0  0  0  0  0  0  0  0  0
   -4.5204   -1.2402   -1.3108 H   0  0  0  0  0  0  0  0  0  0  0  0
   -4.5344    0.4281   -1.9676 H   0  0  0  0  0  0  0  0  0  0  0  0
   -3.9327    0.1133   -0.2966 H   0  0  0  0  0  0  0  0  0  0  0  0
  1  6  1  0  0  0  0
  2  1  2  0  0  0  0
  2  3  1  0  0  0  0
  3  4  2  0  0  0  0
  4  5  1  0  0  0  0
  4  9  1  0  0  0  0
  5 10  1  0  0  0  0
  6 31  1  0  0  0  0
  6  5  2  0  0  0  0
  7  1  1  0  0  0  0
  8  2  1  0  0  0  0
 11  3  1  0  0  0  0
 12 11  2  0  0  0  0
 13 18  2  0  0  0  0
 14 15  2  0  0  0  0
 14 13  1  0  0  0  0
 15 16  1  0  0  0  0
 16 21  1  0  0  0  0
 16 17  2  0  0  0  0
 17 22  1  0  0  0  0
 18 17  1  0  0  0  0
 18 23  1  0  0  0  0
 19 13  1  0  0  0  0
 20 14  1  0  0  0  0
 23 24  1  0  0  0  0
 25 23  2  0  0  0  0
 26 23  2  0  0  0  0
 27 15  1  0  0  0  0
 27 28  1  0  0  0  0
 29 27  1  0  0  0  0
 30 27  1  0  0  0  0
 31 32  1  0  0  0  0
 32 33  1  0  0  0  0
 32 35  1  0  0  0  0
 34 32  1  0  0  0  0
M  RAD  2  12   2  24   2
M  END
