Coordinates from ORCA-job p-CH3O-Ph-N2-OTs-B3LYPG-aug-cc-pVDZ-scan-d09-49-n400
 OpenBabel07022015293D

 35 34  0  0  0  0  0  0  0  0999 V2000
   -0.4890   -1.2967   -2.8118 C   0  0  0  0  0  0  0  0  0  0  0  0
    0.7697   -0.7449   -2.7594 C   0  0  0  0  0  0  0  0  0  0  0  0
    1.1441    0.4039   -2.4202 C   0  0  0  0  0  0  0  0  0  0  0  0
    0.2859    1.3771   -1.9046 C   0  0  0  0  0  0  0  0  0  0  0  0
   -1.0539    0.9420   -1.8857 C   0  0  0  0  0  0  0  0  0  0  0  0
   -1.4380   -0.3541   -2.3200 C   0  0  0  0  0  0  0  0  0  0  0  0
   -0.7887   -2.2944   -3.1218 H   0  0  0  0  0  0  0  0  0  0  0  0
    2.2830    1.3989   -3.9698 H   0  0  0  0  0  0  0  0  0  0  0  0
    0.5797    2.3738   -1.5867 H   0  0  0  0  0  0  0  0  0  0  0  0
   -1.8101    1.6402   -1.5327 H   0  0  0  0  0  0  0  0  0  0  0  0
    1.5070    4.3831   -0.1224 N   0  0  0  0  0  0  0  0  0  0  0  0
    2.3019    5.0199    0.3028 N   0  0  0  0  0  0  0  0  0  0  0  0
    5.6521    1.0611   -2.8772 C   0  0  0  0  0  0  0  0  0  0  0  0
    6.8309    0.3152   -2.9630 C   0  0  0  0  0  0  0  0  0  0  0  0
    7.7069    0.4611   -4.0492 C   0  0  0  0  0  0  0  0  0  0  0  0
    7.3755    1.3801   -5.0599 C   0  0  0  0  0  0  0  0  0  0  0  0
    6.2041    2.1343   -4.9966 C   0  0  0  0  0  0  0  0  0  0  0  0
    5.3543    1.9609   -3.9008 C   0  0  0  0  0  0  0  0  0  0  0  0
    4.9801    0.9545   -2.0276 H   0  0  0  0  0  0  0  0  0  0  0  0
    7.0753   -0.3871   -2.1649 H   0  0  0  0  0  0  0  0  0  0  0  0
    8.0494    1.5114   -5.9081 H   0  0  0  0  0  0  0  0  0  0  0  0
    5.9524    2.8538   -5.7732 H   0  0  0  0  0  0  0  0  0  0  0  0
    3.8315    2.9151   -3.8252 S   0  0  0  0  0  0  0  0  0  0  0  0
    3.3808    2.9990   -2.4131 O   0  0  0  0  0  0  0  0  0  0  0  0
    2.7550    1.9485   -4.6330 O   0  0  0  0  0  0  0  0  0  0  0  0
    3.9764    4.1176   -4.6674 O   0  0  0  0  0  0  0  0  0  0  0  0
    8.9874   -0.3333   -4.1296 C   0  0  0  0  0  0  0  0  0  0  0  0
    9.8612    0.3175   -3.9763 H   0  0  0  0  0  0  0  0  0  0  0  0
    9.0186   -1.1248   -3.3705 H   0  0  0  0  0  0  0  0  0  0  0  0
    9.1016   -0.8017   -5.1170 H   0  0  0  0  0  0  0  0  0  0  0  0
   -2.7223   -0.8134   -2.2920 O   0  0  0  0  0  0  0  0  0  0  0  0
   -3.7442    0.0301   -1.7640 C   0  0  0  0  0  0  0  0  0  0  0  0
   -4.6649   -0.5593   -1.8107 H   0  0  0  0  0  0  0  0  0  0  0  0
   -3.8590    0.9412   -2.3698 H   0  0  0  0  0  0  0  0  0  0  0  0
   -3.5344    0.3010   -0.7186 H   0  0  0  0  0  0  0  0  0  0  0  0
  1  2  2  0  0  0  0
  1  6  1  0  0  0  0
  2  3  1  0  0  0  0
  3  4  2  0  0  0  0
  4  5  1  0  0  0  0
  4  9  1  0  0  0  0
  5 10  1  0  0  0  0
  6 31  1  0  0  0  0
  6  5  2  0  0  0  0
  7  1  1  0  0  0  0
 11 12  3  0  0  0  0
 13 19  1  0  0  0  0
 14 13  1  0  0  0  0
 14 20  1  0  0  0  0
 15 14  2  0  0  0  0
 16 17  2  0  0  0  0
 16 15  1  0  0  0  0
 17 18  1  0  0  0  0
 18 23  1  0  0  0  0
 18 13  2  0  0  0  0
 21 16  1  0  0  0  0
 22 17  1  0  0  0  0
 23 24  2  0  0  0  0
 25  8  1  0  0  0  0
 25 23  1  0  0  0  0
 26 23  2  0  0  0  0
 27 15  1  0  0  0  0
 27 28  1  0  0  0  0
 27 29  1  0  0  0  0
 30 27  1  0  0  0  0
 31 32  1  0  0  0  0
 32 35  1  0  0  0  0
 33 32  1  0  0  0  0
 34 32  1  0  0  0  0
M  RAD  2   2   2   3   2
M  END
