Coordinates from ORCA-job p-CH3O-Ph-N2-OTs-B3LYPG-aug-cc-pVDZ-scan-d09-49-n400
 OpenBabel07022015293D

 35 34  0  0  0  0  0  0  0  0999 V2000
   -0.1367   -0.0814   -2.9674 C   0  0  0  0  0  0  0  0  0  0  0  0
    0.6261    1.0588   -2.7304 C   0  0  0  0  0  0  0  0  0  0  0  0
    0.2068    1.9914   -2.0003 C   0  0  0  0  0  0  0  0  0  0  0  0
   -0.9663    2.1876   -1.3129 C   0  0  0  0  0  0  0  0  0  0  0  0
   -1.7968    1.0580   -1.5081 C   0  0  0  0  0  0  0  0  0  0  0  0
   -1.3960   -0.0421   -2.3094 C   0  0  0  0  0  0  0  0  0  0  0  0
    0.1380   -0.9370   -3.5816 H   0  0  0  0  0  0  0  0  0  0  0  0
    2.4225    1.9407   -3.6657 H   0  0  0  0  0  0  0  0  0  0  0  0
   -1.2509    3.0429   -0.7062 H   0  0  0  0  0  0  0  0  0  0  0  0
   -2.7682    1.0552   -1.0190 H   0  0  0  0  0  0  0  0  0  0  0  0
    1.3344    5.4654   -0.7913 N   0  0  0  0  0  0  0  0  0  0  0  0
    2.1153    6.2455   -0.7758 N   0  0  0  0  0  0  0  0  0  0  0  0
    5.8906    0.8527   -2.8285 C   0  0  0  0  0  0  0  0  0  0  0  0
    6.9432   -0.0408   -3.0514 C   0  0  0  0  0  0  0  0  0  0  0  0
    7.7552    0.0627   -4.1904 C   0  0  0  0  0  0  0  0  0  0  0  0
    7.4924    1.0920   -5.1115 C   0  0  0  0  0  0  0  0  0  0  0  0
    6.4495    1.9948   -4.9095 C   0  0  0  0  0  0  0  0  0  0  0  0
    5.6578    1.8589   -3.7658 C   0  0  0  0  0  0  0  0  0  0  0  0
    5.2731    0.7838   -1.9349 H   0  0  0  0  0  0  0  0  0  0  0  0
    7.1389   -0.8250   -2.3189 H   0  0  0  0  0  0  0  0  0  0  0  0
    8.1199    1.1913   -5.9984 H   0  0  0  0  0  0  0  0  0  0  0  0
    6.2568    2.8022   -5.6133 H   0  0  0  0  0  0  0  0  0  0  0  0
    4.3077    3.0193   -3.5059 S   0  0  0  0  0  0  0  0  0  0  0  0
    3.9429    3.0408   -2.0677 O   0  0  0  0  0  0  0  0  0  0  0  0
    3.0622    2.2904   -4.3232 O   0  0  0  0  0  0  0  0  0  0  0  0
    4.6042    4.2602   -4.2489 O   0  0  0  0  0  0  0  0  0  0  0  0
    8.8982   -0.8938   -4.4277 C   0  0  0  0  0  0  0  0  0  0  0  0
    9.8608   -0.3619   -4.4324 H   0  0  0  0  0  0  0  0  0  0  0  0
    8.9426   -1.6717   -3.6551 H   0  0  0  0  0  0  0  0  0  0  0  0
    8.7989   -1.3918   -5.4030 H   0  0  0  0  0  0  0  0  0  0  0  0
   -2.1773   -1.1440   -2.5174 O   0  0  0  0  0  0  0  0  0  0  0  0
   -3.4706   -1.1939   -1.9234 C   0  0  0  0  0  0  0  0  0  0  0  0
   -3.9081   -2.1423   -2.2485 H   0  0  0  0  0  0  0  0  0  0  0  0
   -4.1013   -0.3618   -2.2720 H   0  0  0  0  0  0  0  0  0  0  0  0
   -3.4054   -1.1752   -0.8243 H   0  0  0  0  0  0  0  0  0  0  0  0
  1  2  2  0  0  0  0
  1  6  1  0  0  0  0
  2  3  1  0  0  0  0
  3  4  2  0  0  0  0
  4  9  1  0  0  0  0
  5  4  1  0  0  0  0
  5 10  1  0  0  0  0
  6  5  2  0  0  0  0
  7  1  1  0  0  0  0
 11 12  3  0  0  0  0
 13 19  1  0  0  0  0
 14 13  1  0  0  0  0
 14 20  1  0  0  0  0
 15 14  2  0  0  0  0
 16 17  2  0  0  0  0
 16 15  1  0  0  0  0
 17 18  1  0  0  0  0
 18 23  1  0  0  0  0
 18 13  2  0  0  0  0
 21 16  1  0  0  0  0
 22 17  1  0  0  0  0
 23 24  2  0  0  0  0
 25  8  1  0  0  0  0
 25 23  1  0  0  0  0
 26 23  2  0  0  0  0
 27 15  1  0  0  0  0
 27 29  1  0  0  0  0
 28 27  1  0  0  0  0
 30 27  1  0  0  0  0
 31  6  1  0  0  0  0
 31 32  1  0  0  0  0
 32 35  1  0  0  0  0
 33 32  1  0  0  0  0
 34 32  1  0  0  0  0
M  RAD  2   2   2   3   2
M  END
