Coordinates from ORCA-job p-CH3O-Ph-N2-OTs-B3LYPG-aug-cc-pVDZ-scan-d09-49-n400
 OpenBabel07022015293D

 35 34  0  0  0  0  0  0  0  0999 V2000
   -0.2437    0.2844   -2.9554 C   0  0  0  0  0  0  0  0  0  0  0  0
    0.5014    1.4278   -2.6478 C   0  0  0  0  0  0  0  0  0  0  0  0
    0.0222    2.2548   -1.8253 C   0  0  0  0  0  0  0  0  0  0  0  0
   -1.1290    2.3459   -1.0917 C   0  0  0  0  0  0  0  0  0  0  0  0
   -1.9201    1.2051   -1.3718 C   0  0  0  0  0  0  0  0  0  0  0  0
   -1.4894    0.2036   -2.2781 C   0  0  0  0  0  0  0  0  0  0  0  0
    0.0525   -0.5055   -3.6441 H   0  0  0  0  0  0  0  0  0  0  0  0
    2.2865    1.7258   -3.5814 H   0  0  0  0  0  0  0  0  0  0  0  0
   -1.4275    3.1326   -0.4048 H   0  0  0  0  0  0  0  0  0  0  0  0
   -2.8795    1.1209   -0.8663 H   0  0  0  0  0  0  0  0  0  0  0  0
    1.1738    4.6575   -0.9176 N   0  0  0  0  0  0  0  0  0  0  0  0
    2.0012    5.3880   -0.9174 N   0  0  0  0  0  0  0  0  0  0  0  0
    5.9888    0.7723   -2.8790 C   0  0  0  0  0  0  0  0  0  0  0  0
    7.1241   -0.0205   -3.0616 C   0  0  0  0  0  0  0  0  0  0  0  0
    7.9395    0.1271   -4.1946 C   0  0  0  0  0  0  0  0  0  0  0  0
    7.5907    1.0953   -5.1511 C   0  0  0  0  0  0  0  0  0  0  0  0
    6.4605    1.8979   -4.9899 C   0  0  0  0  0  0  0  0  0  0  0  0
    5.6711    1.7209   -3.8515 C   0  0  0  0  0  0  0  0  0  0  0  0
    5.3640    0.6654   -1.9942 H   0  0  0  0  0  0  0  0  0  0  0  0
    7.3822   -0.7616   -2.3038 H   0  0  0  0  0  0  0  0  0  0  0  0
    8.2179    1.2264   -6.0342 H   0  0  0  0  0  0  0  0  0  0  0  0
    6.1942    2.6546   -5.7252 H   0  0  0  0  0  0  0  0  0  0  0  0
    4.2139    2.7493   -3.6302 S   0  0  0  0  0  0  0  0  0  0  0  0
    3.9480    2.9478   -2.1828 O   0  0  0  0  0  0  0  0  0  0  0  0
    3.0480    1.7281   -4.2127 O   0  0  0  0  0  0  0  0  0  0  0  0
    4.3050    3.9076   -4.5449 O   0  0  0  0  0  0  0  0  0  0  0  0
    9.1745   -0.7201   -4.3814 C   0  0  0  0  0  0  0  0  0  0  0  0
   10.0852   -0.1096   -4.2903 H   0  0  0  0  0  0  0  0  0  0  0  0
    9.2291   -1.5231   -3.6358 H   0  0  0  0  0  0  0  0  0  0  0  0
    9.1915   -1.1798   -5.3796 H   0  0  0  0  0  0  0  0  0  0  0  0
   -2.2259   -0.9082   -2.5746 O   0  0  0  0  0  0  0  0  0  0  0  0
   -3.5011   -1.0736   -1.9636 C   0  0  0  0  0  0  0  0  0  0  0  0
   -3.9038   -2.0052   -2.3714 H   0  0  0  0  0  0  0  0  0  0  0  0
   -4.1750   -0.2407   -2.2166 H   0  0  0  0  0  0  0  0  0  0  0  0
   -3.4107   -1.1596   -0.8693 H   0  0  0  0  0  0  0  0  0  0  0  0
  1  2  2  0  0  0  0
  1  6  1  0  0  0  0
  2  3  1  0  0  0  0
  3  4  2  0  0  0  0
  4  9  1  0  0  0  0
  5  4  1  0  0  0  0
  5 10  1  0  0  0  0
  6  5  2  0  0  0  0
  7  1  1  0  0  0  0
 11 12  3  0  0  0  0
 13 19  1  0  0  0  0
 14 13  1  0  0  0  0
 14 20  1  0  0  0  0
 15 14  2  0  0  0  0
 16 17  2  0  0  0  0
 16 15  1  0  0  0  0
 17 18  1  0  0  0  0
 18 23  1  0  0  0  0
 18 13  2  0  0  0  0
 21 16  1  0  0  0  0
 22 17  1  0  0  0  0
 23 24  2  0  0  0  0
 25 23  1  0  0  0  0
 25  8  1  0  0  0  0
 26 23  2  0  0  0  0
 27 28  1  0  0  0  0
 27 15  1  0  0  0  0
 27 29  1  0  0  0  0
 30 27  1  0  0  0  0
 31  6  1  0  0  0  0
 31 32  1  0  0  0  0
 32 35  1  0  0  0  0
 33 32  1  0  0  0  0
 34 32  1  0  0  0  0
M  RAD  2   2   2   3   2
M  END
