Coordinates from ORCA-job p-CH3O-Ph-N2-OTs-B3LYPG-aug-cc-pVDZ-scan-d09-49-n400
 OpenBabel07022015293D

 35 36  0  0  1  0  0  0  0  0999 V2000
    1.3119    0.6664   -2.7660 C   0  0  0  0  0  0  0  0  0  0  0  0
    1.3421    1.8269   -3.6890 C   0  0  1  0  0  0  0  0  0  0  0  0
   -0.0031    2.5907   -3.7553 C   0  0  0  0  0  0  0  0  0  0  0  0
   -0.8964    2.4582   -2.5863 C   0  0  0  0  0  0  0  0  0  0  0  0
   -0.7058    1.5056   -1.6487 C   0  0  0  0  0  0  0  0  0  0  0  0
    0.3896    0.5508   -1.7798 C   0  0  0  0  0  0  0  0  0  0  0  0
    2.1074   -0.0724   -2.8478 H   0  0  0  0  0  0  0  0  0  0  0  0
    1.6288    1.5516   -4.7097 H   0  0  0  0  0  0  0  0  0  0  0  0
   -1.7237    3.1658   -2.5265 H   0  0  0  0  0  0  0  0  0  0  0  0
   -1.3841    1.4452   -0.8019 H   0  0  0  0  0  0  0  0  0  0  0  0
   -0.2212    3.1890   -4.5653 N   0  0  0  0  0  0  0  0  0  0  0  0
   -0.4638    3.8633   -5.4828 N   0  0  0  0  0  0  0  0  0  0  0  0
    5.0464    0.9649   -4.9700 C   0  0  0  0  0  0  0  0  0  0  0  0
    5.9818   -0.0482   -4.7489 C   0  0  0  0  0  0  0  0  0  0  0  0
    6.6725   -0.1493   -3.5306 C   0  0  0  0  0  0  0  0  0  0  0  0
    6.4115    0.8052   -2.5329 C   0  0  0  0  0  0  0  0  0  0  0  0
    5.4850    1.8290   -2.7337 C   0  0  0  0  0  0  0  0  0  0  0  0
    4.8073    1.8907   -3.9529 C   0  0  0  0  0  0  0  0  0  0  0  0
    4.5231    1.0519   -5.9200 H   0  0  0  0  0  0  0  0  0  0  0  0
    6.1824   -0.7684   -5.5438 H   0  0  0  0  0  0  0  0  0  0  0  0
    6.9466    0.7546   -1.5839 H   0  0  0  0  0  0  0  0  0  0  0  0
    5.2979    2.5757   -1.9638 H   0  0  0  0  0  0  0  0  0  0  0  0
    3.6238    3.2185   -4.2262 S   0  0  0  0  0  0  0  0  0  0  0  0
    2.3612    2.8094   -3.2123 O   0  0  0  0  0  0  0  0  0  0  0  0
    3.1503    3.1403   -5.6300 O   0  0  0  0  0  0  0  0  0  0  0  0
    4.1472    4.4697   -3.6463 O   0  0  0  0  0  0  0  0  0  0  0  0
    7.6632   -1.2648   -3.3015 C   0  0  0  0  0  0  0  0  0  0  0  0
    7.1424   -2.2163   -3.1154 H   0  0  0  0  0  0  0  0  0  0  0  0
    8.3069   -1.4130   -4.1794 H   0  0  0  0  0  0  0  0  0  0  0  0
    8.3028   -1.0582   -2.4345 H   0  0  0  0  0  0  0  0  0  0  0  0
    0.5273   -0.4921   -0.9074 O   0  0  0  0  0  0  0  0  0  0  0  0
   -0.5738   -0.8640   -0.0773 C   0  0  0  0  0  0  0  0  0  0  0  0
   -0.2723   -1.7993    0.4041 H   0  0  0  0  0  0  0  0  0  0  0  0
   -1.4826   -1.0369   -0.6717 H   0  0  0  0  0  0  0  0  0  0  0  0
   -0.7724   -0.1087    0.6972 H   0  0  0  0  0  0  0  0  0  0  0  0
  1  6  1  0  0  0  0
  2  8  1  6  0  0  0
  2 24  1  0  0  0  0
  2  1  1  0  0  0  0
  3  2  1  0  0  0  0
  3  4  2  0  0  0  0
  4  9  1  0  0  0  0
  4  5  1  0  0  0  0
  5 10  1  0  0  0  0
  6  5  2  0  0  0  0
  6 31  1  0  0  0  0
  7  1  1  0  0  0  0
 11  3  1  0  0  0  0
 12 11  1  0  0  0  0
 13 14  2  0  0  0  0
 13 18  1  0  0  0  0
 14 15  1  0  0  0  0
 15 27  1  0  0  0  0
 15 16  2  0  0  0  0
 16 21  1  0  0  0  0
 17 16  1  0  0  0  0
 17 22  1  0  0  0  0
 18 17  2  0  0  0  0
 19 13  1  0  0  0  0
 20 14  1  0  0  0  0
 23 18  1  0  0  0  0
 23 26  2  0  0  0  0
 23 24  1  0  0  0  0
 25 23  2  0  0  0  0
 27 28  1  0  0  0  0
 27 30  1  0  0  0  0
 29 27  1  0  0  0  0
 31 32  1  0  0  0  0
 32 33  1  0  0  0  0
 32 35  1  0  0  0  0
 34 32  1  0  0  0  0
M  RAD  3   1   2  11   2  12   3
M  END
