Coordinates from ORCA-job p-CH3O-Ph-N2-OTs-B3LYPG-aug-cc-pVDZ-scan-d09-49-n400
 OpenBabel07022015293D

 35 34  0  0  0  0  0  0  0  0999 V2000
   -0.1478    0.3951   -2.8322 C   0  0  0  0  0  0  0  0  0  0  0  0
    0.5460    1.5720   -2.5111 C   0  0  0  0  0  0  0  0  0  0  0  0
   -0.0441    2.3787   -1.7336 C   0  0  0  0  0  0  0  0  0  0  0  0
   -1.2427    2.4362   -1.0816 C   0  0  0  0  0  0  0  0  0  0  0  0
   -1.9678    1.2602   -1.3878 C   0  0  0  0  0  0  0  0  0  0  0  0
   -1.4316    0.2650   -2.2424 C   0  0  0  0  0  0  0  0  0  0  0  0
    0.2269   -0.3939   -3.4836 H   0  0  0  0  0  0  0  0  0  0  0  0
    2.2758    1.7697   -3.4441 H   0  0  0  0  0  0  0  0  0  0  0  0
   -1.6157    3.2241   -0.4332 H   0  0  0  0  0  0  0  0  0  0  0  0
   -2.9555    1.1460   -0.9473 H   0  0  0  0  0  0  0  0  0  0  0  0
    1.0204    4.4880   -1.0348 N   0  0  0  0  0  0  0  0  0  0  0  0
    1.8731    5.1889   -1.0640 N   0  0  0  0  0  0  0  0  0  0  0  0
    6.0179    0.7675   -2.8555 C   0  0  0  0  0  0  0  0  0  0  0  0
    7.1424   -0.0331   -3.0667 C   0  0  0  0  0  0  0  0  0  0  0  0
    7.9213    0.0988   -4.2271 C   0  0  0  0  0  0  0  0  0  0  0  0
    7.5455    1.0585   -5.1818 C   0  0  0  0  0  0  0  0  0  0  0  0
    6.4249    1.8685   -4.9922 C   0  0  0  0  0  0  0  0  0  0  0  0
    5.6728    1.7076   -3.8268 C   0  0  0  0  0  0  0  0  0  0  0  0
    5.4220    0.6732   -1.9497 H   0  0  0  0  0  0  0  0  0  0  0  0
    7.4201   -0.7683   -2.3101 H   0  0  0  0  0  0  0  0  0  0  0  0
    8.1437    1.1765   -6.0865 H   0  0  0  0  0  0  0  0  0  0  0  0
    6.1379    2.6179   -5.7273 H   0  0  0  0  0  0  0  0  0  0  0  0
    4.2291    2.7466   -3.5636 S   0  0  0  0  0  0  0  0  0  0  0  0
    4.0264    2.9733   -2.1095 O   0  0  0  0  0  0  0  0  0  0  0  0
    3.0409    1.7203   -4.0773 O   0  0  0  0  0  0  0  0  0  0  0  0
    4.2901    3.8924   -4.4976 O   0  0  0  0  0  0  0  0  0  0  0  0
    9.1477   -0.7544   -4.4419 C   0  0  0  0  0  0  0  0  0  0  0  0
   10.0643   -0.1558   -4.3308 H   0  0  0  0  0  0  0  0  0  0  0  0
    9.1945   -1.5803   -3.7213 H   0  0  0  0  0  0  0  0  0  0  0  0
    9.1611   -1.1822   -5.4540 H   0  0  0  0  0  0  0  0  0  0  0  0
   -2.0949   -0.8835   -2.5679 O   0  0  0  0  0  0  0  0  0  0  0  0
   -3.3958   -1.1034   -2.0331 C   0  0  0  0  0  0  0  0  0  0  0  0
   -3.7256   -2.0607   -2.4467 H   0  0  0  0  0  0  0  0  0  0  0  0
   -4.0939   -0.3105   -2.3429 H   0  0  0  0  0  0  0  0  0  0  0  0
   -3.3693   -1.1670   -0.9340 H   0  0  0  0  0  0  0  0  0  0  0  0
  1  2  2  0  0  0  0
  1  6  1  0  0  0  0
  2  3  1  0  0  0  0
  3  4  2  0  0  0  0
  4  9  1  0  0  0  0
  5  4  1  0  0  0  0
  5 10  1  0  0  0  0
  6  5  2  0  0  0  0
  7  1  1  0  0  0  0
 12 11  3  0  0  0  0
 13 19  1  0  0  0  0
 14 13  1  0  0  0  0
 14 20  1  0  0  0  0
 15 14  2  0  0  0  0
 16 17  2  0  0  0  0
 16 15  1  0  0  0  0
 17 18  1  0  0  0  0
 18 23  1  0  0  0  0
 18 13  2  0  0  0  0
 21 16  1  0  0  0  0
 22 17  1  0  0  0  0
 23 24  2  0  0  0  0
 25 23  1  0  0  0  0
 25  8  1  0  0  0  0
 26 23  2  0  0  0  0
 27 28  1  0  0  0  0
 27 15  1  0  0  0  0
 27 29  1  0  0  0  0
 30 27  1  0  0  0  0
 31  6  1  0  0  0  0
 31 32  1  0  0  0  0
 32 35  1  0  0  0  0
 33 32  1  0  0  0  0
 34 32  1  0  0  0  0
M  RAD  2   2   2   3   2
M  END
