Coordinates from ORCA-job p-CH3O-Ph-N2-OTs-B3LYPG-aug-cc-pVDZ-scan-d09-49-n400
 OpenBabel07022015293D

 35 34  0  0  0  0  0  0  0  0999 V2000
   -0.1620   -1.1414   -2.8129 C   0  0  0  0  0  0  0  0  0  0  0  0
    0.9632   -0.3624   -2.6999 C   0  0  0  0  0  0  0  0  0  0  0  0
    1.1187    0.8282   -2.3340 C   0  0  0  0  0  0  0  0  0  0  0  0
    0.0697    1.6076   -1.8383 C   0  0  0  0  0  0  0  0  0  0  0  0
   -1.1659    0.9320   -1.8752 C   0  0  0  0  0  0  0  0  0  0  0  0
   -1.2868   -0.4023   -2.3442 C   0  0  0  0  0  0  0  0  0  0  0  0
   -0.2587   -2.1703   -3.1493 H   0  0  0  0  0  0  0  0  0  0  0  0
    2.3860    1.9505   -3.6210 H   0  0  0  0  0  0  0  0  0  0  0  0
    0.1553    2.6358   -1.4942 H   0  0  0  0  0  0  0  0  0  0  0  0
   -2.0514    1.4669   -1.5398 H   0  0  0  0  0  0  0  0  0  0  0  0
    1.2067    5.0503   -0.7536 N   0  0  0  0  0  0  0  0  0  0  0  0
    1.8339    5.9019   -0.4382 N   0  0  0  0  0  0  0  0  0  0  0  0
    5.7307    1.0443   -2.7439 C   0  0  0  0  0  0  0  0  0  0  0  0
    6.7710    0.1414   -2.9871 C   0  0  0  0  0  0  0  0  0  0  0  0
    7.5569    0.2336   -4.1448 C   0  0  0  0  0  0  0  0  0  0  0  0
    7.2802    1.2606   -5.0649 C   0  0  0  0  0  0  0  0  0  0  0  0
    6.2479    2.1709   -4.8442 C   0  0  0  0  0  0  0  0  0  0  0  0
    5.4828    2.0469   -3.6810 C   0  0  0  0  0  0  0  0  0  0  0  0
    5.1322    0.9848   -1.8371 H   0  0  0  0  0  0  0  0  0  0  0  0
    6.9771   -0.6410   -2.2554 H   0  0  0  0  0  0  0  0  0  0  0  0
    7.8879    1.3508   -5.9664 H   0  0  0  0  0  0  0  0  0  0  0  0
    6.0444    2.9751   -5.5488 H   0  0  0  0  0  0  0  0  0  0  0  0
    4.1425    3.2136   -3.3977 S   0  0  0  0  0  0  0  0  0  0  0  0
    3.7844    3.1990   -1.9578 O   0  0  0  0  0  0  0  0  0  0  0  0
    2.8828    2.5361   -4.2347 O   0  0  0  0  0  0  0  0  0  0  0  0
    4.4400    4.4688   -4.1145 O   0  0  0  0  0  0  0  0  0  0  0  0
    8.6870   -0.7324   -4.4042 C   0  0  0  0  0  0  0  0  0  0  0  0
    9.6536   -0.2085   -4.4289 H   0  0  0  0  0  0  0  0  0  0  0  0
    8.7407   -1.5098   -3.6318 H   0  0  0  0  0  0  0  0  0  0  0  0
    8.5640   -1.2305   -5.3768 H   0  0  0  0  0  0  0  0  0  0  0  0
   -2.4629   -1.0927   -2.3730 O   0  0  0  0  0  0  0  0  0  0  0  0
   -3.6392   -0.4727   -1.8566 C   0  0  0  0  0  0  0  0  0  0  0  0
   -4.4311   -1.2226   -1.9492 H   0  0  0  0  0  0  0  0  0  0  0  0
   -3.9088    0.4191   -2.4422 H   0  0  0  0  0  0  0  0  0  0  0  0
   -3.5126   -0.1996   -0.7984 H   0  0  0  0  0  0  0  0  0  0  0  0
  1  2  2  0  0  0  0
  1  6  1  0  0  0  0
  2  3  1  0  0  0  0
  3  4  2  0  0  0  0
  4  9  1  0  0  0  0
  5  4  1  0  0  0  0
  5 10  1  0  0  0  0
  6  5  2  0  0  0  0
  7  1  1  0  0  0  0
 11 12  3  0  0  0  0
 13 19  1  0  0  0  0
 14 13  1  0  0  0  0
 14 20  1  0  0  0  0
 15 14  2  0  0  0  0
 16 17  2  0  0  0  0
 16 15  1  0  0  0  0
 17 18  1  0  0  0  0
 18 23  1  0  0  0  0
 18 13  2  0  0  0  0
 21 16  1  0  0  0  0
 22 17  1  0  0  0  0
 23 24  2  0  0  0  0
 25  8  1  0  0  0  0
 25 23  1  0  0  0  0
 26 23  2  0  0  0  0
 27 15  1  0  0  0  0
 27 29  1  0  0  0  0
 28 27  1  0  0  0  0
 30 27  1  0  0  0  0
 31  6  1  0  0  0  0
 31 32  1  0  0  0  0
 32 35  1  0  0  0  0
 33 32  1  0  0  0  0
 34 32  1  0  0  0  0
M  RAD  2   2   2   3   2
M  END
