Coordinates from ORCA-job p-CH3O-Ph-N2-OTs-B3LYPG-aug-cc-pVDZ-scan-d09-49-n400
 OpenBabel07022015293D

 35 36  0  0  1  0  0  0  0  0999 V2000
    1.1515    0.6061   -2.8463 C   0  0  0  0  0  0  0  0  0  0  0  0
    1.2345    1.8116   -3.7008 C   0  0  1  0  0  0  0  0  0  0  0  0
   -0.0125    2.6493   -3.6079 C   0  0  0  0  0  0  0  0  0  0  0  0
   -0.9086    2.5325   -2.4828 C   0  0  0  0  0  0  0  0  0  0  0  0
   -0.7742    1.5035   -1.6057 C   0  0  0  0  0  0  0  0  0  0  0  0
    0.2505    0.4966   -1.8332 C   0  0  0  0  0  0  0  0  0  0  0  0
    1.8844   -0.1838   -2.9985 H   0  0  0  0  0  0  0  0  0  0  0  0
    1.4854    1.5902   -4.7417 H   0  0  0  0  0  0  0  0  0  0  0  0
   -1.6890    3.2829   -2.3595 H   0  0  0  0  0  0  0  0  0  0  0  0
   -1.4422    1.4307   -0.7527 H   0  0  0  0  0  0  0  0  0  0  0  0
   -0.2155    3.5150   -4.4877 N   0  0  0  0  0  0  0  0  0  0  0  0
   -0.3861    4.3013   -5.2975 N   0  0  0  0  0  0  0  0  0  0  0  0
    5.0424    0.8185   -4.9198 C   0  0  0  0  0  0  0  0  0  0  0  0
    6.0224   -0.1525   -4.6826 C   0  0  0  0  0  0  0  0  0  0  0  0
    6.7996   -0.1299   -3.5168 C   0  0  0  0  0  0  0  0  0  0  0  0
    6.5759    0.8971   -2.5809 C   0  0  0  0  0  0  0  0  0  0  0  0
    5.6082    1.8749   -2.7976 C   0  0  0  0  0  0  0  0  0  0  0  0
    4.8470    1.8191   -3.9694 C   0  0  0  0  0  0  0  0  0  0  0  0
    4.4535    0.8133   -5.8347 H   0  0  0  0  0  0  0  0  0  0  0  0
    6.1884   -0.9325   -5.4270 H   0  0  0  0  0  0  0  0  0  0  0  0
    7.1767    0.9350   -1.6709 H   0  0  0  0  0  0  0  0  0  0  0  0
    5.4489    2.6781   -2.0804 H   0  0  0  0  0  0  0  0  0  0  0  0
    3.6092    3.0947   -4.2532 S   0  0  0  0  0  0  0  0  0  0  0  0
    2.3965    2.6840   -3.2029 O   0  0  0  0  0  0  0  0  0  0  0  0
    3.1033    2.9609   -5.6453 O   0  0  0  0  0  0  0  0  0  0  0  0
    4.1278    4.3817   -3.7464 O   0  0  0  0  0  0  0  0  0  0  0  0
    7.8639   -1.1689   -3.2623 C   0  0  0  0  0  0  0  0  0  0  0  0
    7.6788   -1.6991   -2.3165 H   0  0  0  0  0  0  0  0  0  0  0  0
    7.9010   -1.9160   -4.0651 H   0  0  0  0  0  0  0  0  0  0  0  0
    8.8567   -0.7029   -3.1835 H   0  0  0  0  0  0  0  0  0  0  0  0
    0.3452   -0.6127   -1.0387 O   0  0  0  0  0  0  0  0  0  0  0  0
   -0.7407   -0.9536   -0.1780 C   0  0  0  0  0  0  0  0  0  0  0  0
   -0.4937   -1.9403    0.2255 H   0  0  0  0  0  0  0  0  0  0  0  0
   -1.6882   -1.0125   -0.7330 H   0  0  0  0  0  0  0  0  0  0  0  0
   -0.8409   -0.2402    0.6535 H   0  0  0  0  0  0  0  0  0  0  0  0
  1  6  1  0  0  0  0
  2  8  1  6  0  0  0
  2  3  1  0  0  0  0
  2 24  1  0  0  0  0
  2  1  1  0  0  0  0
  3  4  2  0  0  0  0
  4  9  1  0  0  0  0
  4  5  1  0  0  0  0
  5 10  1  0  0  0  0
  6  5  2  0  0  0  0
  6 31  1  0  0  0  0
  7  1  1  0  0  0  0
 11  3  1  0  0  0  0
 12 11  1  0  0  0  0
 13 14  2  0  0  0  0
 13 18  1  0  0  0  0
 14 15  1  0  0  0  0
 15 27  1  0  0  0  0
 15 16  2  0  0  0  0
 16 21  1  0  0  0  0
 17 16  1  0  0  0  0
 17 22  1  0  0  0  0
 18 17  2  0  0  0  0
 19 13  1  0  0  0  0
 20 14  1  0  0  0  0
 23 18  1  0  0  0  0
 23 26  2  0  0  0  0
 23 24  1  0  0  0  0
 25 23  2  0  0  0  0
 27 30  1  0  0  0  0
 27 28  1  0  0  0  0
 29 27  1  0  0  0  0
 31 32  1  0  0  0  0
 32 33  1  0  0  0  0
 32 35  1  0  0  0  0
 34 32  1  0  0  0  0
M  RAD  3   1   2  11   2  12   3
M  END
