Coordinates from ORCA-job p-CH3O-Ph-N2-OTs-B3LYPG-aug-cc-pVDZ-scan-d09-49-n400
 OpenBabel07022015293D

 35 36  0  0  1  0  0  0  0  0999 V2000
    0.4495    0.2768   -3.0478 C   0  0  0  0  0  0  0  0  0  0  0  0
    0.9343    1.4795   -3.7415 C   0  0  1  0  0  0  0  0  0  0  0  0
    0.1086    2.6510   -3.3858 C   0  0  1  0  0  0  0  0  0  0  0  0
   -0.6615    2.7450   -2.1930 C   0  0  0  0  0  0  0  0  0  0  0  0
   -0.8558    1.6175   -1.4463 C   0  0  0  0  0  0  0  0  0  0  0  0
   -0.3327    0.3562   -1.9296 C   0  0  0  0  0  0  0  0  0  0  0  0
    0.7925   -0.6957   -3.3926 H   0  0  0  0  0  0  0  0  0  0  0  0
    1.0866    1.3570   -4.8147 H   0  0  0  0  0  0  0  0  0  0  0  0
   -1.0886    3.7014   -1.8969 H   0  0  0  0  0  0  0  0  0  0  0  0
   -1.4231    1.6750   -0.5228 H   0  0  0  0  0  0  0  0  0  0  0  0
    0.1682    3.7810   -4.2292 N   0  0  0  0  0  0  0  0  0  0  0  0
    0.2128    4.6779   -4.9135 N   0  0  0  0  0  0  0  0  0  0  0  0
    5.1941    0.5148   -4.7919 C   0  0  0  0  0  0  0  0  0  0  0  0
    6.3607   -0.2364   -4.6290 C   0  0  0  0  0  0  0  0  0  0  0  0
    7.2979    0.0851   -3.6353 C   0  0  0  0  0  0  0  0  0  0  0  0
    7.0426    1.1880   -2.8024 C   0  0  0  0  0  0  0  0  0  0  0  0
    5.8838    1.9517   -2.9476 C   0  0  0  0  0  0  0  0  0  0  0  0
    4.9703    1.5990   -3.9433 C   0  0  0  0  0  0  0  0  0  0  0  0
    4.4735    0.2764   -5.5718 H   0  0  0  0  0  0  0  0  0  0  0  0
    6.5471   -1.0812   -5.2933 H   0  0  0  0  0  0  0  0  0  0  0  0
    7.7674    1.4548   -2.0316 H   0  0  0  0  0  0  0  0  0  0  0  0
    5.6914    2.8141   -2.3125 H   0  0  0  0  0  0  0  0  0  0  0  0
    3.4633    2.5622   -4.1325 S   0  0  0  0  0  0  0  0  0  0  0  0
    2.4304    1.6785   -3.2138 O   0  0  0  0  0  0  0  0  0  0  0  0
    3.0048    2.4977   -5.5510 O   0  0  0  0  0  0  0  0  0  0  0  0
    3.6601    3.8913   -3.5022 O   0  0  0  0  0  0  0  0  0  0  0  0
    8.5598   -0.7249   -3.4612 C   0  0  0  0  0  0  0  0  0  0  0  0
    8.6207   -1.1454   -2.4470 H   0  0  0  0  0  0  0  0  0  0  0  0
    8.6053   -1.5568   -4.1748 H   0  0  0  0  0  0  0  0  0  0  0  0
    9.4528   -0.0997   -3.6066 H   0  0  0  0  0  0  0  0  0  0  0  0
   -0.6241   -0.8241   -1.3066 O   0  0  0  0  0  0  0  0  0  0  0  0
   -1.5555   -0.8364   -0.2272 C   0  0  0  0  0  0  0  0  0  0  0  0
   -1.6848   -1.8907    0.0355 H   0  0  0  0  0  0  0  0  0  0  0  0
   -2.5269   -0.4158   -0.5270 H   0  0  0  0  0  0  0  0  0  0  0  0
   -1.1651   -0.2930    0.6465 H   0  0  0  0  0  0  0  0  0  0  0  0
  1  6  2  0  0  0  0
  2  8  1  6  0  0  0
  2  3  1  0  0  0  0
  2 24  1  0  0  0  0
  2  1  1  0  0  0  0
  3 11  1  1  0  0  0
  3  4  1  0  0  0  0
  4  9  1  0  0  0  0
  4  5  2  0  0  0  0
  5 10  1  0  0  0  0
  6  5  1  0  0  0  0
  6 31  1  0  0  0  0
  7  1  1  0  0  0  0
 12 11  1  0  0  0  0
 13 14  2  0  0  0  0
 13 18  1  0  0  0  0
 14 15  1  0  0  0  0
 15 27  1  0  0  0  0
 15 16  2  0  0  0  0
 16 21  1  0  0  0  0
 17 16  1  0  0  0  0
 17 22  1  0  0  0  0
 18 17  2  0  0  0  0
 19 13  1  0  0  0  0
 20 14  1  0  0  0  0
 23 18  1  0  0  0  0
 23 26  2  0  0  0  0
 23 24  1  0  0  0  0
 25 23  2  0  0  0  0
 27 28  1  0  0  0  0
 29 27  1  0  0  0  0
 30 27  1  0  0  0  0
 31 32  1  0  0  0  0
 32 33  1  0  0  0  0
 32 35  1  0  0  0  0
 34 32  1  0  0  0  0
M  RAD  3   3   2  11   2  12   3
M  END
