Coordinates from ORCA-job p-CH3O-Ph-N2-OTs-B3LYPG-aug-cc-pVDZ-scan-d09-49-n400
 OpenBabel07022015293D

 35 35  0  0  0  0  0  0  0  0999 V2000
   -0.5925    0.0586   -2.4174 C   0  0  0  0  0  0  0  0  0  0  0  0
    0.4790    0.9387   -2.5534 C   0  0  0  0  0  0  0  0  0  0  0  0
    0.1919    2.2405   -2.1932 C   0  0  0  0  0  0  0  0  0  0  0  0
   -0.9913    2.7550   -1.7106 C   0  0  0  0  0  0  0  0  0  0  0  0
   -2.0462    1.8451   -1.5874 C   0  0  0  0  0  0  0  0  0  0  0  0
   -1.8448    0.4969   -1.9405 C   0  0  0  0  0  0  0  0  0  0  0  0
   -0.4610   -0.9916   -2.6728 H   0  0  0  0  0  0  0  0  0  0  0  0
    1.4575    0.5948   -2.8963 H   0  0  0  0  0  0  0  0  0  0  0  0
   -1.1008    3.8021   -1.4413 H   0  0  0  0  0  0  0  0  0  0  0  0
   -3.0026    2.1992   -1.2143 H   0  0  0  0  0  0  0  0  0  0  0  0
    1.4432    3.3876   -2.3177 N   0  0  0  0  0  0  0  0  0  0  0  0
    2.4715    3.6593   -2.6813 N   0  0  0  0  0  0  0  0  0  0  0  0
    6.0889   -0.2303   -4.2952 C   0  0  0  0  0  0  0  0  0  0  0  0
    7.3987   -0.3137   -4.7815 C   0  0  0  0  0  0  0  0  0  0  0  0
    8.3299    0.7060   -4.5431 C   0  0  0  0  0  0  0  0  0  0  0  0
    7.9161    1.8257   -3.7993 C   0  0  0  0  0  0  0  0  0  0  0  0
    6.6159    1.9252   -3.3067 C   0  0  0  0  0  0  0  0  0  0  0  0
    5.7106    0.8905   -3.5593 C   0  0  0  0  0  0  0  0  0  0  0  0
    5.3664   -1.0247   -4.4740 H   0  0  0  0  0  0  0  0  0  0  0  0
    7.7006   -1.1920   -5.3543 H   0  0  0  0  0  0  0  0  0  0  0  0
    8.6261    2.6307   -3.5994 H   0  0  0  0  0  0  0  0  0  0  0  0
    6.3044    2.7888   -2.7216 H   0  0  0  0  0  0  0  0  0  0  0  0
    4.0225    1.0341   -2.9276 S   0  0  0  0  0  0  0  0  0  0  0  0
    4.1033    1.5783   -1.5300 O   0  0  0  0  0  0  0  0  0  0  0  0
    3.3802   -0.3205   -3.0680 O   0  0  0  0  0  0  0  0  0  0  0  0
    3.3239    2.0538   -3.8687 O   0  0  0  0  0  0  0  0  0  0  0  0
    9.7480    0.6070   -5.0530 C   0  0  0  0  0  0  0  0  0  0  0  0
   10.4604    0.5016   -4.2208 H   0  0  0  0  0  0  0  0  0  0  0  0
    9.8751   -0.2591   -5.7149 H   0  0  0  0  0  0  0  0  0  0  0  0
   10.0345    1.5090   -5.6129 H   0  0  0  0  0  0  0  0  0  0  0  0
   -2.7977   -0.4602   -1.8496 O   0  0  0  0  0  0  0  0  0  0  0  0
   -4.0886   -0.1024   -1.3516 C   0  0  0  0  0  0  0  0  0  0  0  0
   -4.6676   -1.0300   -1.3434 H   0  0  0  0  0  0  0  0  0  0  0  0
   -4.5752    0.6321   -2.0104 H   0  0  0  0  0  0  0  0  0  0  0  0
   -4.0198    0.2957   -0.3286 H   0  0  0  0  0  0  0  0  0  0  0  0
  1  6  1  0  0  0  0
  2  1  2  0  0  0  0
  2  3  1  0  0  0  0
  3  4  2  0  0  0  0
  4  5  1  0  0  0  0
  4  9  1  0  0  0  0
  5 10  1  0  0  0  0
  6 31  1  0  0  0  0
  6  5  2  0  0  0  0
  7  1  1  0  0  0  0
  8  2  1  0  0  0  0
 11  3  1  0  0  0  0
 12 11  2  0  0  0  0
 13 18  2  0  0  0  0
 14 15  2  0  0  0  0
 14 13  1  0  0  0  0
 15 16  1  0  0  0  0
 16 21  1  0  0  0  0
 16 17  2  0  0  0  0
 17 22  1  0  0  0  0
 18 17  1  0  0  0  0
 18 23  1  0  0  0  0
 19 13  1  0  0  0  0
 20 14  1  0  0  0  0
 23 24  1  0  0  0  0
 25 23  2  0  0  0  0
 26 23  2  0  0  0  0
 27 15  1  0  0  0  0
 27 28  1  0  0  0  0
 29 27  1  0  0  0  0
 30 27  1  0  0  0  0
 31 32  1  0  0  0  0
 32 33  1  0  0  0  0
 32 35  1  0  0  0  0
 34 32  1  0  0  0  0
M  RAD  2  12   2  24   2
M  END
