Coordinates from ORCA-job p-CH3O-Ph-N2-OTs-B3LYPG-aug-cc-pVDZ-scan-d09-49-n400
 OpenBabel07022015293D

 35 35  0  0  0  0  0  0  0  0999 V2000
   -0.5770    0.0656   -2.4144 C   0  0  0  0  0  0  0  0  0  0  0  0
    0.4868    0.9582   -2.5458 C   0  0  0  0  0  0  0  0  0  0  0  0
    0.1739    2.2493   -2.1833 C   0  0  0  0  0  0  0  0  0  0  0  0
   -1.0099    2.7580   -1.7035 C   0  0  0  0  0  0  0  0  0  0  0  0
   -2.0543    1.8336   -1.5855 C   0  0  0  0  0  0  0  0  0  0  0  0
   -1.8355    0.4886   -1.9403 C   0  0  0  0  0  0  0  0  0  0  0  0
   -0.4314   -0.9822   -2.6718 H   0  0  0  0  0  0  0  0  0  0  0  0
    1.4713    0.6240   -2.8856 H   0  0  0  0  0  0  0  0  0  0  0  0
   -1.1304    3.8033   -1.4330 H   0  0  0  0  0  0  0  0  0  0  0  0
   -3.0159    2.1762   -1.2149 H   0  0  0  0  0  0  0  0  0  0  0  0
    1.4417    3.4380   -2.3039 N   0  0  0  0  0  0  0  0  0  0  0  0
    2.4637    3.7224   -2.6692 N   0  0  0  0  0  0  0  0  0  0  0  0
    6.0715   -0.2163   -4.3032 C   0  0  0  0  0  0  0  0  0  0  0  0
    7.3824   -0.3190   -4.7827 C   0  0  0  0  0  0  0  0  0  0  0  0
    8.3272    0.6870   -4.5398 C   0  0  0  0  0  0  0  0  0  0  0  0
    7.9257    1.8129   -3.7985 C   0  0  0  0  0  0  0  0  0  0  0  0
    6.6246    1.9315   -3.3128 C   0  0  0  0  0  0  0  0  0  0  0  0
    5.7056    0.9099   -3.5695 C   0  0  0  0  0  0  0  0  0  0  0  0
    5.3388   -1.0006   -4.4855 H   0  0  0  0  0  0  0  0  0  0  0  0
    7.6744   -1.2019   -5.3537 H   0  0  0  0  0  0  0  0  0  0  0  0
    8.6459    2.6081   -3.5954 H   0  0  0  0  0  0  0  0  0  0  0  0
    6.3225    2.7997   -2.7298 H   0  0  0  0  0  0  0  0  0  0  0  0
    4.0172    1.0805   -2.9450 S   0  0  0  0  0  0  0  0  0  0  0  0
    4.1021    1.6123   -1.5426 O   0  0  0  0  0  0  0  0  0  0  0  0
    3.3545   -0.2652   -3.0924 O   0  0  0  0  0  0  0  0  0  0  0  0
    3.3402    2.1144   -3.8815 O   0  0  0  0  0  0  0  0  0  0  0  0
    9.7463    0.5673   -5.0423 C   0  0  0  0  0  0  0  0  0  0  0  0
   10.4536    0.4593   -4.2060 H   0  0  0  0  0  0  0  0  0  0  0  0
    9.8659   -0.3051   -5.6972 H   0  0  0  0  0  0  0  0  0  0  0  0
   10.0464    1.4617   -5.6075 H   0  0  0  0  0  0  0  0  0  0  0  0
   -2.7775   -0.4801   -1.8535 O   0  0  0  0  0  0  0  0  0  0  0  0
   -4.0727   -0.1381   -1.3556 C   0  0  0  0  0  0  0  0  0  0  0  0
   -4.6409   -1.0724   -1.3486 H   0  0  0  0  0  0  0  0  0  0  0  0
   -4.5678    0.5913   -2.0138 H   0  0  0  0  0  0  0  0  0  0  0  0
   -4.0089    0.2596   -0.3321 H   0  0  0  0  0  0  0  0  0  0  0  0
  1  6  1  0  0  0  0
  2  1  2  0  0  0  0
  2  3  1  0  0  0  0
  3  4  2  0  0  0  0
  4  5  1  0  0  0  0
  4  9  1  0  0  0  0
  5 10  1  0  0  0  0
  6 31  1  0  0  0  0
  6  5  2  0  0  0  0
  7  1  1  0  0  0  0
  8  2  1  0  0  0  0
 11  3  1  0  0  0  0
 12 11  2  0  0  0  0
 13 18  2  0  0  0  0
 14 15  2  0  0  0  0
 14 13  1  0  0  0  0
 15 16  1  0  0  0  0
 16 21  1  0  0  0  0
 16 17  2  0  0  0  0
 17 22  1  0  0  0  0
 18 17  1  0  0  0  0
 18 23  1  0  0  0  0
 19 13  1  0  0  0  0
 20 14  1  0  0  0  0
 23 24  1  0  0  0  0
 25 23  2  0  0  0  0
 26 23  2  0  0  0  0
 27 15  1  0  0  0  0
 27 28  1  0  0  0  0
 29 27  1  0  0  0  0
 30 27  1  0  0  0  0
 31 32  1  0  0  0  0
 32 33  1  0  0  0  0
 32 35  1  0  0  0  0
 34 32  1  0  0  0  0
M  RAD  2  12   2  24   2
M  END
