Coordinates from ORCA-job p-CH3O-Ph-N2-OTs-B3LYPG-aug-cc-pVDZ-scan-d09-49-n400
 OpenBabel07022015293D

 35 34  0  0  0  0  0  0  0  0999 V2000
   -0.1969    0.3422   -2.8719 C   0  0  0  0  0  0  0  0  0  0  0  0
    0.5166    1.5067   -2.5576 C   0  0  0  0  0  0  0  0  0  0  0  0
   -0.0301    2.3276   -1.7682 C   0  0  0  0  0  0  0  0  0  0  0  0
   -1.2136    2.4056   -1.0886 C   0  0  0  0  0  0  0  0  0  0  0  0
   -1.9661    1.2429   -1.3829 C   0  0  0  0  0  0  0  0  0  0  0  0
   -1.4698    0.2389   -2.2517 C   0  0  0  0  0  0  0  0  0  0  0  0
    0.1478   -0.4520   -3.5330 H   0  0  0  0  0  0  0  0  0  0  0  0
    2.2869    1.7398   -3.4916 H   0  0  0  0  0  0  0  0  0  0  0  0
   -1.5585    3.1972   -0.4296 H   0  0  0  0  0  0  0  0  0  0  0  0
   -2.9455    1.1454   -0.9201 H   0  0  0  0  0  0  0  0  0  0  0  0
    1.0789    4.5730   -0.9837 N   0  0  0  0  0  0  0  0  0  0  0  0
    1.9272    5.2791   -1.0060 N   0  0  0  0  0  0  0  0  0  0  0  0
    6.0186    0.7606   -2.8692 C   0  0  0  0  0  0  0  0  0  0  0  0
    7.1505   -0.0319   -3.0713 C   0  0  0  0  0  0  0  0  0  0  0  0
    7.9445    0.1138   -4.2198 C   0  0  0  0  0  0  0  0  0  0  0  0
    7.5766    1.0794   -5.1718 C   0  0  0  0  0  0  0  0  0  0  0  0
    6.4488    1.8813   -4.9913 C   0  0  0  0  0  0  0  0  0  0  0  0
    5.6816    1.7065   -3.8377 C   0  0  0  0  0  0  0  0  0  0  0  0
    5.4110    0.6557   -1.9723 H   0  0  0  0  0  0  0  0  0  0  0  0
    7.4227   -0.7713   -2.3168 H   0  0  0  0  0  0  0  0  0  0  0  0
    8.1868    1.2084   -6.0669 H   0  0  0  0  0  0  0  0  0  0  0  0
    6.1677    2.6353   -5.7239 H   0  0  0  0  0  0  0  0  0  0  0  0
    4.2292    2.7357   -3.5862 S   0  0  0  0  0  0  0  0  0  0  0  0
    4.0053    2.9515   -2.1340 O   0  0  0  0  0  0  0  0  0  0  0  0
    3.0517    1.7043   -4.1213 O   0  0  0  0  0  0  0  0  0  0  0  0
    4.2933    3.8860   -4.5139 O   0  0  0  0  0  0  0  0  0  0  0  0
    9.1773   -0.7319   -4.4263 C   0  0  0  0  0  0  0  0  0  0  0  0
   10.0893   -0.1238   -4.3303 H   0  0  0  0  0  0  0  0  0  0  0  0
    9.2348   -1.5458   -3.6929 H   0  0  0  0  0  0  0  0  0  0  0  0
    9.1890   -1.1763   -5.4313 H   0  0  0  0  0  0  0  0  0  0  0  0
   -2.1641   -0.8954   -2.5635 O   0  0  0  0  0  0  0  0  0  0  0  0
   -3.4583   -1.0876   -2.0025 C   0  0  0  0  0  0  0  0  0  0  0  0
   -3.8181   -2.0359   -2.4119 H   0  0  0  0  0  0  0  0  0  0  0  0
   -4.1442   -0.2780   -2.2959 H   0  0  0  0  0  0  0  0  0  0  0  0
   -3.4107   -1.1551   -0.9043 H   0  0  0  0  0  0  0  0  0  0  0  0
  1  2  2  0  0  0  0
  1  6  1  0  0  0  0
  2  3  1  0  0  0  0
  3  4  2  0  0  0  0
  4  9  1  0  0  0  0
  5  4  1  0  0  0  0
  5 10  1  0  0  0  0
  6  5  2  0  0  0  0
  7  1  1  0  0  0  0
 12 11  3  0  0  0  0
 13 19  1  0  0  0  0
 14 13  1  0  0  0  0
 14 20  1  0  0  0  0
 15 14  2  0  0  0  0
 16 17  2  0  0  0  0
 16 15  1  0  0  0  0
 17 18  1  0  0  0  0
 18 23  1  0  0  0  0
 18 13  2  0  0  0  0
 21 16  1  0  0  0  0
 22 17  1  0  0  0  0
 23 24  2  0  0  0  0
 25 23  1  0  0  0  0
 25  8  1  0  0  0  0
 26 23  2  0  0  0  0
 27 28  1  0  0  0  0
 27 15  1  0  0  0  0
 27 29  1  0  0  0  0
 30 27  1  0  0  0  0
 31  6  1  0  0  0  0
 31 32  1  0  0  0  0
 32 35  1  0  0  0  0
 33 32  1  0  0  0  0
 34 32  1  0  0  0  0
M  RAD  2   2   2   3   2
M  END
