Coordinates from ORCA-job p-CH3O-Ph-N2-OTs-B3LYPG-aug-cc-pVDZ-scan-d09-49-n400
 OpenBabel07022015293D

 35 35  0  0  0  0  0  0  0  0999 V2000
   -0.6236    0.0409   -2.4357 C   0  0  0  0  0  0  0  0  0  0  0  0
    0.4558    0.9013   -2.5923 C   0  0  0  0  0  0  0  0  0  0  0  0
    0.2285    2.2244   -2.2216 C   0  0  0  0  0  0  0  0  0  0  0  0
   -0.9534    2.7352   -1.7068 C   0  0  0  0  0  0  0  0  0  0  0  0
   -2.0216    1.8510   -1.5616 C   0  0  0  0  0  0  0  0  0  0  0  0
   -1.8562    0.5003   -1.9265 C   0  0  0  0  0  0  0  0  0  0  0  0
   -0.5213   -1.0106   -2.6983 H   0  0  0  0  0  0  0  0  0  0  0  0
    1.4189    0.5404   -2.9591 H   0  0  0  0  0  0  0  0  0  0  0  0
   -1.0425    3.7828   -1.4292 H   0  0  0  0  0  0  0  0  0  0  0  0
   -2.9617    2.2203   -1.1631 H   0  0  0  0  0  0  0  0  0  0  0  0
    1.4022    3.2590   -2.3703 N   0  0  0  0  0  0  0  0  0  0  0  0
    2.4174    3.5980   -2.7182 N   0  0  0  0  0  0  0  0  0  0  0  0
    6.1067   -0.2248   -4.3215 C   0  0  0  0  0  0  0  0  0  0  0  0
    7.4263   -0.3011   -4.7806 C   0  0  0  0  0  0  0  0  0  0  0  0
    8.3482    0.7217   -4.5199 C   0  0  0  0  0  0  0  0  0  0  0  0
    7.9141    1.8373   -3.7814 C   0  0  0  0  0  0  0  0  0  0  0  0
    6.6033    1.9298   -3.3161 C   0  0  0  0  0  0  0  0  0  0  0  0
    5.7078    0.8920   -3.5905 C   0  0  0  0  0  0  0  0  0  0  0  0
    5.3909   -1.0212   -4.5173 H   0  0  0  0  0  0  0  0  0  0  0  0
    7.7439   -1.1760   -5.3502 H   0  0  0  0  0  0  0  0  0  0  0  0
    8.6163    2.6449   -3.5648 H   0  0  0  0  0  0  0  0  0  0  0  0
    6.2761    2.7911   -2.7361 H   0  0  0  0  0  0  0  0  0  0  0  0
    4.0034    1.0222   -3.0010 S   0  0  0  0  0  0  0  0  0  0  0  0
    4.0452    1.5479   -1.5929 O   0  0  0  0  0  0  0  0  0  0  0  0
    3.3729   -0.3340   -3.1716 O   0  0  0  0  0  0  0  0  0  0  0  0
    3.3270    2.0541   -3.9427 O   0  0  0  0  0  0  0  0  0  0  0  0
    9.7770    0.6297   -5.0002 C   0  0  0  0  0  0  0  0  0  0  0  0
   10.4711    0.5083   -4.1547 H   0  0  0  0  0  0  0  0  0  0  0  0
    9.9174   -0.2247   -5.6745 H   0  0  0  0  0  0  0  0  0  0  0  0
   10.0770    1.5412   -5.5371 H   0  0  0  0  0  0  0  0  0  0  0  0
   -2.8240   -0.4368   -1.8183 O   0  0  0  0  0  0  0  0  0  0  0  0
   -4.0996   -0.0582   -1.2942 C   0  0  0  0  0  0  0  0  0  0  0  0
   -4.6948   -0.9754   -1.2817 H   0  0  0  0  0  0  0  0  0  0  0  0
   -4.5834    0.6893   -1.9399 H   0  0  0  0  0  0  0  0  0  0  0  0
   -4.0049    0.3316   -0.2703 H   0  0  0  0  0  0  0  0  0  0  0  0
  1  6  1  0  0  0  0
  2  1  2  0  0  0  0
  2  3  1  0  0  0  0
  3  4  2  0  0  0  0
  4  5  1  0  0  0  0
  4  9  1  0  0  0  0
  5 10  1  0  0  0  0
  6 31  1  0  0  0  0
  6  5  2  0  0  0  0
  7  1  1  0  0  0  0
  8  2  1  0  0  0  0
 11  3  1  0  0  0  0
 12 11  2  0  0  0  0
 13 18  2  0  0  0  0
 14 15  2  0  0  0  0
 14 13  1  0  0  0  0
 15 16  1  0  0  0  0
 16 21  1  0  0  0  0
 16 17  2  0  0  0  0
 17 22  1  0  0  0  0
 18 17  1  0  0  0  0
 18 23  1  0  0  0  0
 19 13  1  0  0  0  0
 20 14  1  0  0  0  0
 23 24  1  0  0  0  0
 25 23  2  0  0  0  0
 26 23  2  0  0  0  0
 27 15  1  0  0  0  0
 27 28  1  0  0  0  0
 29 27  1  0  0  0  0
 30 27  1  0  0  0  0
 31 32  1  0  0  0  0
 32 33  1  0  0  0  0
 32 35  1  0  0  0  0
 34 32  1  0  0  0  0
M  RAD  2  12   2  24   2
M  END
