Coordinates from ORCA-job p-CH3O-Ph-N2-OTs-B3LYPG-aug-cc-pVDZ-scan-d09-49-n400
 OpenBabel07022015293D

 35 34  0  0  0  0  0  0  0  0999 V2000
   -0.1038   -1.0852   -2.7687 C   0  0  0  0  0  0  0  0  0  0  0  0
    0.9808   -0.2512   -2.6470 C   0  0  0  0  0  0  0  0  0  0  0  0
    1.0718    0.9490   -2.2912 C   0  0  0  0  0  0  0  0  0  0  0  0
   -0.0221    1.6840   -1.8268 C   0  0  0  0  0  0  0  0  0  0  0  0
   -1.2225    0.9485   -1.8749 C   0  0  0  0  0  0  0  0  0  0  0  0
   -1.2707   -0.3959   -2.3288 C   0  0  0  0  0  0  0  0  0  0  0  0
   -0.1461   -2.1201   -3.0979 H   0  0  0  0  0  0  0  0  0  0  0  0
    2.4063    2.0368   -3.5741 H   0  0  0  0  0  0  0  0  0  0  0  0
    0.0083    2.7191   -1.4941 H   0  0  0  0  0  0  0  0  0  0  0  0
   -2.1387    1.4427   -1.5606 H   0  0  0  0  0  0  0  0  0  0  0  0
    1.2163    5.0696   -0.8171 N   0  0  0  0  0  0  0  0  0  0  0  0
    1.8484    5.9150   -0.4949 N   0  0  0  0  0  0  0  0  0  0  0  0
    5.7496    1.0460   -2.7333 C   0  0  0  0  0  0  0  0  0  0  0  0
    6.7673    0.1226   -2.9942 C   0  0  0  0  0  0  0  0  0  0  0  0
    7.5393    0.2033   -4.1620 C   0  0  0  0  0  0  0  0  0  0  0  0
    7.2720    1.2402   -5.0739 C   0  0  0  0  0  0  0  0  0  0  0  0
    6.2624    2.1711   -4.8354 C   0  0  0  0  0  0  0  0  0  0  0  0
    5.5102    2.0578   -3.6626 C   0  0  0  0  0  0  0  0  0  0  0  0
    5.1629    0.9958   -1.8181 H   0  0  0  0  0  0  0  0  0  0  0  0
    6.9667   -0.6672   -2.2686 H   0  0  0  0  0  0  0  0  0  0  0  0
    7.8692    1.3216   -5.9833 H   0  0  0  0  0  0  0  0  0  0  0  0
    6.0666    2.9829   -5.5335 H   0  0  0  0  0  0  0  0  0  0  0  0
    4.1998    3.2521   -3.3550 S   0  0  0  0  0  0  0  0  0  0  0  0
    3.8562    3.2327   -1.9118 O   0  0  0  0  0  0  0  0  0  0  0  0
    2.9164    2.6118   -4.1860 O   0  0  0  0  0  0  0  0  0  0  0  0
    4.5189    4.5064   -4.0643 O   0  0  0  0  0  0  0  0  0  0  0  0
    8.6446   -0.7854   -4.4416 C   0  0  0  0  0  0  0  0  0  0  0  0
    9.6206   -0.2809   -4.4877 H   0  0  0  0  0  0  0  0  0  0  0  0
    8.6987   -1.5620   -3.6683 H   0  0  0  0  0  0  0  0  0  0  0  0
    8.4919   -1.2836   -5.4101 H   0  0  0  0  0  0  0  0  0  0  0  0
   -2.4119   -1.1425   -2.3695 O   0  0  0  0  0  0  0  0  0  0  0  0
   -3.6270   -0.5701   -1.8894 C   0  0  0  0  0  0  0  0  0  0  0  0
   -4.3812   -1.3574   -1.9862 H   0  0  0  0  0  0  0  0  0  0  0  0
   -3.9241    0.2989   -2.4956 H   0  0  0  0  0  0  0  0  0  0  0  0
   -3.5368   -0.2748   -0.8335 H   0  0  0  0  0  0  0  0  0  0  0  0
  1  2  2  0  0  0  0
  1  6  1  0  0  0  0
  2  3  1  0  0  0  0
  3  4  2  0  0  0  0
  4  9  1  0  0  0  0
  5  4  1  0  0  0  0
  5 10  1  0  0  0  0
  6  5  2  0  0  0  0
  7  1  1  0  0  0  0
 11 12  3  0  0  0  0
 13 19  1  0  0  0  0
 14 13  1  0  0  0  0
 14 20  1  0  0  0  0
 15 14  2  0  0  0  0
 16 17  2  0  0  0  0
 16 15  1  0  0  0  0
 17 18  1  0  0  0  0
 18 23  1  0  0  0  0
 18 13  2  0  0  0  0
 21 16  1  0  0  0  0
 22 17  1  0  0  0  0
 23 24  2  0  0  0  0
 25  8  1  0  0  0  0
 25 23  1  0  0  0  0
 26 23  2  0  0  0  0
 27 15  1  0  0  0  0
 27 29  1  0  0  0  0
 28 27  1  0  0  0  0
 30 27  1  0  0  0  0
 31  6  1  0  0  0  0
 31 32  1  0  0  0  0
 32 35  1  0  0  0  0
 33 32  1  0  0  0  0
 34 32  1  0  0  0  0
M  RAD  2   2   2   3   2
M  END
