Coordinates from ORCA-job p-CH3O-Ph-N2-OTs-B3LYPG-aug-cc-pVDZ-scan-d09-49-n400
 OpenBabel07022015293D

 35 34  0  0  0  0  0  0  0  0999 V2000
   -0.1322   -1.0215   -2.7600 C   0  0  0  0  0  0  0  0  0  0  0  0
    0.9285   -0.1561   -2.6362 C   0  0  0  0  0  0  0  0  0  0  0  0
    0.9770    1.0419   -2.2658 C   0  0  0  0  0  0  0  0  0  0  0  0
   -0.1359    1.7434   -1.7996 C   0  0  0  0  0  0  0  0  0  0  0  0
   -1.3124    0.9697   -1.8497 C   0  0  0  0  0  0  0  0  0  0  0  0
   -1.3188   -0.3725   -2.3128 C   0  0  0  0  0  0  0  0  0  0  0  0
   -0.1446   -2.0531   -3.1019 H   0  0  0  0  0  0  0  0  0  0  0  0
    2.4292    2.0309   -3.5679 H   0  0  0  0  0  0  0  0  0  0  0  0
   -0.1360    2.7761   -1.4595 H   0  0  0  0  0  0  0  0  0  0  0  0
   -2.2429    1.4323   -1.5294 H   0  0  0  0  0  0  0  0  0  0  0  0
    1.2475    5.0275   -0.8198 N   0  0  0  0  0  0  0  0  0  0  0  0
    1.8942    5.8569   -0.4849 N   0  0  0  0  0  0  0  0  0  0  0  0
    5.7925    1.0377   -2.7471 C   0  0  0  0  0  0  0  0  0  0  0  0
    6.8152    0.1191   -3.0053 C   0  0  0  0  0  0  0  0  0  0  0  0
    7.5881    0.2019   -4.1724 C   0  0  0  0  0  0  0  0  0  0  0  0
    7.3167    1.2360   -5.0862 C   0  0  0  0  0  0  0  0  0  0  0  0
    6.3022    2.1623   -4.8503 C   0  0  0  0  0  0  0  0  0  0  0  0
    5.5494    2.0471   -3.6782 C   0  0  0  0  0  0  0  0  0  0  0  0
    5.2049    0.9858   -1.8326 H   0  0  0  0  0  0  0  0  0  0  0  0
    7.0176   -0.6685   -2.2783 H   0  0  0  0  0  0  0  0  0  0  0  0
    7.9146    1.3188   -5.9950 H   0  0  0  0  0  0  0  0  0  0  0  0
    6.1032    2.9719   -5.5500 H   0  0  0  0  0  0  0  0  0  0  0  0
    4.2319    3.2342   -3.3737 S   0  0  0  0  0  0  0  0  0  0  0  0
    3.8915    3.2207   -1.9298 O   0  0  0  0  0  0  0  0  0  0  0  0
    2.9503    2.5768   -4.1954 O   0  0  0  0  0  0  0  0  0  0  0  0
    4.5410    4.4860   -4.0917 O   0  0  0  0  0  0  0  0  0  0  0  0
    8.6989   -0.7816   -4.4487 C   0  0  0  0  0  0  0  0  0  0  0  0
    9.6730   -0.2728   -4.4886 H   0  0  0  0  0  0  0  0  0  0  0  0
    8.7523   -1.5597   -3.6769 H   0  0  0  0  0  0  0  0  0  0  0  0
    8.5532   -1.2780   -5.4191 H   0  0  0  0  0  0  0  0  0  0  0  0
   -2.4370   -1.1535   -2.3589 O   0  0  0  0  0  0  0  0  0  0  0  0
   -3.6700   -0.6190   -1.8815 C   0  0  0  0  0  0  0  0  0  0  0  0
   -4.4010   -1.4272   -1.9845 H   0  0  0  0  0  0  0  0  0  0  0  0
   -3.9894    0.2441   -2.4849 H   0  0  0  0  0  0  0  0  0  0  0  0
   -3.5924   -0.3258   -0.8239 H   0  0  0  0  0  0  0  0  0  0  0  0
  1  2  2  0  0  0  0
  1  6  1  0  0  0  0
  2  3  1  0  0  0  0
  3  4  2  0  0  0  0
  4  9  1  0  0  0  0
  5  4  1  0  0  0  0
  5 10  1  0  0  0  0
  6  5  2  0  0  0  0
  7  1  1  0  0  0  0
 11 12  3  0  0  0  0
 13 19  1  0  0  0  0
 14 13  1  0  0  0  0
 14 20  1  0  0  0  0
 15 14  2  0  0  0  0
 16 17  2  0  0  0  0
 16 15  1  0  0  0  0
 17 18  1  0  0  0  0
 18 23  1  0  0  0  0
 18 13  2  0  0  0  0
 21 16  1  0  0  0  0
 22 17  1  0  0  0  0
 23 24  2  0  0  0  0
 25  8  1  0  0  0  0
 25 23  1  0  0  0  0
 26 23  2  0  0  0  0
 27 15  1  0  0  0  0
 27 29  1  0  0  0  0
 28 27  1  0  0  0  0
 30 27  1  0  0  0  0
 31  6  1  0  0  0  0
 31 32  1  0  0  0  0
 32 35  1  0  0  0  0
 33 32  1  0  0  0  0
 34 32  1  0  0  0  0
M  RAD  2   2   2   3   2
M  END
