Coordinates from ORCA-job p-CH3O-Ph-N2-OTs-B3LYPG-aug-cc-pVDZ-scan-d09-49-n400
 OpenBabel07022015293D

 35 34  0  0  0  0  0  0  0  0999 V2000
   -0.2640    0.2528   -2.9917 C   0  0  0  0  0  0  0  0  0  0  0  0
    0.4933    1.3870   -2.6848 C   0  0  0  0  0  0  0  0  0  0  0  0
    0.0424    2.2153   -1.8494 C   0  0  0  0  0  0  0  0  0  0  0  0
   -1.0960    2.3105   -1.0950 C   0  0  0  0  0  0  0  0  0  0  0  0
   -1.9025    1.1792   -1.3709 C   0  0  0  0  0  0  0  0  0  0  0  0
   -1.4983    0.1803   -2.2923 C   0  0  0  0  0  0  0  0  0  0  0  0
    0.0124   -0.5340   -3.6919 H   0  0  0  0  0  0  0  0  0  0  0  0
    2.2931    1.7281   -3.6182 H   0  0  0  0  0  0  0  0  0  0  0  0
   -1.3760    3.0939   -0.3966 H   0  0  0  0  0  0  0  0  0  0  0  0
   -2.8537    1.0994   -0.8495 H   0  0  0  0  0  0  0  0  0  0  0  0
    1.2214    4.7561   -0.8462 N   0  0  0  0  0  0  0  0  0  0  0  0
    2.0369    5.4998   -0.8338 N   0  0  0  0  0  0  0  0  0  0  0  0
    5.9789    0.7862   -2.8821 C   0  0  0  0  0  0  0  0  0  0  0  0
    7.1128   -0.0112   -3.0549 C   0  0  0  0  0  0  0  0  0  0  0  0
    7.9341    0.1276   -4.1845 C   0  0  0  0  0  0  0  0  0  0  0  0
    7.5933    1.0921   -5.1478 C   0  0  0  0  0  0  0  0  0  0  0  0
    6.4652    1.8993   -4.9964 C   0  0  0  0  0  0  0  0  0  0  0  0
    5.6695    1.7308   -3.8610 C   0  0  0  0  0  0  0  0  0  0  0  0
    5.3493    0.6856   -1.9999 H   0  0  0  0  0  0  0  0  0  0  0  0
    7.3649   -0.7491   -2.2920 H   0  0  0  0  0  0  0  0  0  0  0  0
    8.2252    1.2167   -6.0285 H   0  0  0  0  0  0  0  0  0  0  0  0
    6.2052    2.6532   -5.7367 H   0  0  0  0  0  0  0  0  0  0  0  0
    4.2132    2.7640   -3.6552 S   0  0  0  0  0  0  0  0  0  0  0  0
    3.9299    2.9602   -2.2110 O   0  0  0  0  0  0  0  0  0  0  0  0
    3.0484    1.7500   -4.2546 O   0  0  0  0  0  0  0  0  0  0  0  0
    4.3188    3.9220   -4.5683 O   0  0  0  0  0  0  0  0  0  0  0  0
    9.1670   -0.7248   -4.3615 C   0  0  0  0  0  0  0  0  0  0  0  0
   10.0793   -0.1158   -4.2772 H   0  0  0  0  0  0  0  0  0  0  0  0
    9.2194   -1.5197   -3.6071 H   0  0  0  0  0  0  0  0  0  0  0  0
    9.1828   -1.1957   -5.3545 H   0  0  0  0  0  0  0  0  0  0  0  0
   -2.2515   -0.9217   -2.5837 O   0  0  0  0  0  0  0  0  0  0  0  0
   -3.5183   -1.0774   -1.9528 C   0  0  0  0  0  0  0  0  0  0  0  0
   -3.9379   -2.0018   -2.3600 H   0  0  0  0  0  0  0  0  0  0  0  0
   -4.1871   -0.2354   -2.1893 H   0  0  0  0  0  0  0  0  0  0  0  0
   -3.4111   -1.1718   -0.8608 H   0  0  0  0  0  0  0  0  0  0  0  0
  1  2  2  0  0  0  0
  1  6  1  0  0  0  0
  2  3  1  0  0  0  0
  3  4  2  0  0  0  0
  4  9  1  0  0  0  0
  5  4  1  0  0  0  0
  5 10  1  0  0  0  0
  6  5  2  0  0  0  0
  7  1  1  0  0  0  0
 11 12  3  0  0  0  0
 13 19  1  0  0  0  0
 14 13  1  0  0  0  0
 14 20  1  0  0  0  0
 15 14  2  0  0  0  0
 16 17  2  0  0  0  0
 16 15  1  0  0  0  0
 17 18  1  0  0  0  0
 18 23  1  0  0  0  0
 18 13  2  0  0  0  0
 21 16  1  0  0  0  0
 22 17  1  0  0  0  0
 23 24  2  0  0  0  0
 25 23  1  0  0  0  0
 25  8  1  0  0  0  0
 26 23  2  0  0  0  0
 27 28  1  0  0  0  0
 27 15  1  0  0  0  0
 27 29  1  0  0  0  0
 30 27  1  0  0  0  0
 31  6  1  0  0  0  0
 31 32  1  0  0  0  0
 32 35  1  0  0  0  0
 33 32  1  0  0  0  0
 34 32  1  0  0  0  0
M  RAD  2   2   2   3   2
M  END
