Coordinates from ORCA-job p-CH3O-Ph-N2-OTs-B3LYPG-aug-cc-pVDZ-scan-d09-49-n400
 OpenBabel07022015293D

 35 36  0  0  1  0  0  0  0  0999 V2000
    1.3192    0.6715   -2.7640 C   0  0  0  0  0  0  0  0  0  0  0  0
    1.3370    1.8271   -3.6917 C   0  0  1  0  0  0  0  0  0  0  0  0
    0.0044    2.5617   -3.7333 C   0  0  0  0  0  0  0  0  0  0  0  0
   -0.9155    2.4261   -2.6112 C   0  0  0  0  0  0  0  0  0  0  0  0
   -0.7252    1.4763   -1.6642 C   0  0  0  0  0  0  0  0  0  0  0  0
    0.3910    0.5478   -1.7809 C   0  0  0  0  0  0  0  0  0  0  0  0
    2.1253   -0.0563   -2.8351 H   0  0  0  0  0  0  0  0  0  0  0  0
    1.6441    1.5561   -4.7066 H   0  0  0  0  0  0  0  0  0  0  0  0
   -1.7630    3.1099   -2.5670 H   0  0  0  0  0  0  0  0  0  0  0  0
   -1.4200    1.3985   -0.8329 H   0  0  0  0  0  0  0  0  0  0  0  0
   -0.2280    3.2564   -4.6207 N   0  0  0  0  0  0  0  0  0  0  0  0
   -0.4507    3.9479   -5.5124 N   0  0  0  0  0  0  0  0  0  0  0  0
    5.0547    0.9806   -4.9759 C   0  0  0  0  0  0  0  0  0  0  0  0
    5.9852   -0.0379   -4.7562 C   0  0  0  0  0  0  0  0  0  0  0  0
    6.6623   -0.1549   -3.5320 C   0  0  0  0  0  0  0  0  0  0  0  0
    6.3938    0.7903   -2.5270 C   0  0  0  0  0  0  0  0  0  0  0  0
    5.4724    1.8184   -2.7264 C   0  0  0  0  0  0  0  0  0  0  0  0
    4.8072    1.8957   -3.9518 C   0  0  0  0  0  0  0  0  0  0  0  0
    4.5409    1.0787   -5.9300 H   0  0  0  0  0  0  0  0  0  0  0  0
    6.1915   -0.7509   -5.5562 H   0  0  0  0  0  0  0  0  0  0  0  0
    6.9193    0.7283   -1.5732 H   0  0  0  0  0  0  0  0  0  0  0  0
    5.2791    2.5568   -1.9500 H   0  0  0  0  0  0  0  0  0  0  0  0
    3.6260    3.2284   -4.2175 S   0  0  0  0  0  0  0  0  0  0  0  0
    2.3700    2.8245   -3.2080 O   0  0  0  0  0  0  0  0  0  0  0  0
    3.1519    3.1574   -5.6233 O   0  0  0  0  0  0  0  0  0  0  0  0
    4.1622    4.4777   -3.6429 O   0  0  0  0  0  0  0  0  0  0  0  0
    7.6441   -1.2774   -3.2994 C   0  0  0  0  0  0  0  0  0  0  0  0
    7.1166   -2.2089   -3.0428 H   0  0  0  0  0  0  0  0  0  0  0  0
    8.2415   -1.4789   -4.1987 H   0  0  0  0  0  0  0  0  0  0  0  0
    8.3276   -1.0441   -2.4735 H   0  0  0  0  0  0  0  0  0  0  0  0
    0.5449   -0.4909   -0.9052 O   0  0  0  0  0  0  0  0  0  0  0  0
   -0.5392   -0.8586   -0.0527 C   0  0  0  0  0  0  0  0  0  0  0  0
   -0.2193   -1.7799    0.4437 H   0  0  0  0  0  0  0  0  0  0  0  0
   -1.4543   -1.0560   -0.6299 H   0  0  0  0  0  0  0  0  0  0  0  0
   -0.7370   -0.0899    0.7088 H   0  0  0  0  0  0  0  0  0  0  0  0
  1  6  1  0  0  0  0
  2  8  1  6  0  0  0
  2 24  1  0  0  0  0
  2  1  1  0  0  0  0
  3  2  1  0  0  0  0
  3  4  2  0  0  0  0
  4  9  1  0  0  0  0
  4  5  1  0  0  0  0
  5 10  1  0  0  0  0
  6  5  2  0  0  0  0
  6 31  1  0  0  0  0
  7  1  1  0  0  0  0
 11  3  1  0  0  0  0
 12 11  1  0  0  0  0
 13 14  2  0  0  0  0
 13 18  1  0  0  0  0
 14 15  1  0  0  0  0
 15 27  1  0  0  0  0
 15 16  2  0  0  0  0
 16 21  1  0  0  0  0
 17 16  1  0  0  0  0
 17 22  1  0  0  0  0
 18 17  2  0  0  0  0
 19 13  1  0  0  0  0
 20 14  1  0  0  0  0
 23 18  1  0  0  0  0
 23 26  2  0  0  0  0
 23 24  1  0  0  0  0
 25 23  2  0  0  0  0
 27 28  1  0  0  0  0
 27 30  1  0  0  0  0
 29 27  1  0  0  0  0
 31 32  1  0  0  0  0
 32 33  1  0  0  0  0
 32 35  1  0  0  0  0
 34 32  1  0  0  0  0
M  RAD  3   1   2  11   2  12   3
M  END
