Coordinates from ORCA-job p-CH3O-Ph-N2-OTs-B3LYPG-aug-cc-pVDZ-scan-d09-49-n400
 OpenBabel07022015293D

 35 34  0  0  0  0  0  0  0  0999 V2000
   -0.2900    0.1594   -3.0333 C   0  0  0  0  0  0  0  0  0  0  0  0
    0.4892    1.2780   -2.7339 C   0  0  0  0  0  0  0  0  0  0  0  0
    0.0804    2.1232   -1.8960 C   0  0  0  0  0  0  0  0  0  0  0  0
   -1.0482    2.2429   -1.1272 C   0  0  0  0  0  0  0  0  0  0  0  0
   -1.8826    1.1289   -1.3904 C   0  0  0  0  0  0  0  0  0  0  0  0
   -1.5151    0.1185   -2.3149 C   0  0  0  0  0  0  0  0  0  0  0  0
   -0.0411   -0.6332   -3.7371 H   0  0  0  0  0  0  0  0  0  0  0  0
    2.3162    1.7266   -3.6697 H   0  0  0  0  0  0  0  0  0  0  0  0
   -1.3037    3.0327   -0.4264 H   0  0  0  0  0  0  0  0  0  0  0  0
   -2.8282    1.0695   -0.8563 H   0  0  0  0  0  0  0  0  0  0  0  0
    1.3189    5.0428   -0.6531 N   0  0  0  0  0  0  0  0  0  0  0  0
    2.1224    5.7992   -0.6273 N   0  0  0  0  0  0  0  0  0  0  0  0
    5.9718    0.8150   -2.8836 C   0  0  0  0  0  0  0  0  0  0  0  0
    7.1010    0.0079   -3.0443 C   0  0  0  0  0  0  0  0  0  0  0  0
    7.9239    0.1255   -4.1750 C   0  0  0  0  0  0  0  0  0  0  0  0
    7.5900    1.0790   -5.1517 C   0  0  0  0  0  0  0  0  0  0  0  0
    6.4676    1.8958   -5.0123 C   0  0  0  0  0  0  0  0  0  0  0  0
    5.6695    1.7484   -3.8754 C   0  0  0  0  0  0  0  0  0  0  0  0
    5.3410    0.7302   -2.0006 H   0  0  0  0  0  0  0  0  0  0  0  0
    7.3480   -0.7208   -2.2710 H   0  0  0  0  0  0  0  0  0  0  0  0
    8.2232    1.1879   -6.0336 H   0  0  0  0  0  0  0  0  0  0  0  0
    6.2141    2.6420   -5.7626 H   0  0  0  0  0  0  0  0  0  0  0  0
    4.2180    2.7929   -3.6900 S   0  0  0  0  0  0  0  0  0  0  0  0
    3.9069    2.9779   -2.2503 O   0  0  0  0  0  0  0  0  0  0  0  0
    3.0493    1.8026   -4.3241 O   0  0  0  0  0  0  0  0  0  0  0  0
    4.3521    3.9540   -4.5943 O   0  0  0  0  0  0  0  0  0  0  0  0
    9.1512   -0.7372   -4.3399 C   0  0  0  0  0  0  0  0  0  0  0  0
   10.0673   -0.1325   -4.2677 H   0  0  0  0  0  0  0  0  0  0  0  0
    9.2006   -1.5198   -3.5724 H   0  0  0  0  0  0  0  0  0  0  0  0
    9.1619   -1.2249   -5.3248 H   0  0  0  0  0  0  0  0  0  0  0  0
   -2.2981   -0.9666   -2.5918 O   0  0  0  0  0  0  0  0  0  0  0  0
   -3.5595   -1.0904   -1.9429 C   0  0  0  0  0  0  0  0  0  0  0  0
   -4.0066   -2.0057   -2.3413 H   0  0  0  0  0  0  0  0  0  0  0  0
   -4.2114   -0.2335   -2.1728 H   0  0  0  0  0  0  0  0  0  0  0  0
   -3.4396   -1.1841   -0.8522 H   0  0  0  0  0  0  0  0  0  0  0  0
  1  2  2  0  0  0  0
  1  6  1  0  0  0  0
  2  3  1  0  0  0  0
  3  4  2  0  0  0  0
  4  9  1  0  0  0  0
  5  4  1  0  0  0  0
  5 10  1  0  0  0  0
  6  5  2  0  0  0  0
  7  1  1  0  0  0  0
 11 12  3  0  0  0  0
 13 19  1  0  0  0  0
 14 13  1  0  0  0  0
 14 20  1  0  0  0  0
 15 14  2  0  0  0  0
 16 17  2  0  0  0  0
 16 15  1  0  0  0  0
 17 18  1  0  0  0  0
 18 23  1  0  0  0  0
 18 13  2  0  0  0  0
 21 16  1  0  0  0  0
 22 17  1  0  0  0  0
 23 24  2  0  0  0  0
 25 23  1  0  0  0  0
 25  8  1  0  0  0  0
 26 23  2  0  0  0  0
 27 28  1  0  0  0  0
 27 15  1  0  0  0  0
 27 29  1  0  0  0  0
 30 27  1  0  0  0  0
 31  6  1  0  0  0  0
 31 32  1  0  0  0  0
 32 35  1  0  0  0  0
 33 32  1  0  0  0  0
 34 32  1  0  0  0  0
M  RAD  2   2   2   3   2
M  END
