Coordinates from ORCA-job p-CH3O-Ph-N2-OTs-B3LYPG-aug-cc-pVDZ-scan-d09-49-n400
 OpenBabel07022015293D

 35 34  0  0  0  0  0  0  0  0999 V2000
   -0.0982   -1.0861   -2.7724 C   0  0  0  0  0  0  0  0  0  0  0  0
    0.9871   -0.2532   -2.6497 C   0  0  0  0  0  0  0  0  0  0  0  0
    1.0783    0.9467   -2.2929 C   0  0  0  0  0  0  0  0  0  0  0  0
   -0.0150    1.6823   -1.8281 C   0  0  0  0  0  0  0  0  0  0  0  0
   -1.2160    0.9476   -1.8771 C   0  0  0  0  0  0  0  0  0  0  0  0
   -1.2648   -0.3963   -2.3321 C   0  0  0  0  0  0  0  0  0  0  0  0
   -0.1411   -2.1207   -3.1023 H   0  0  0  0  0  0  0  0  0  0  0  0
    2.4056    2.0373   -3.5731 H   0  0  0  0  0  0  0  0  0  0  0  0
    0.0163    2.7174   -1.4945 H   0  0  0  0  0  0  0  0  0  0  0  0
   -2.1320    1.4422   -1.5627 H   0  0  0  0  0  0  0  0  0  0  0  0
    1.2165    5.0758   -0.8123 N   0  0  0  0  0  0  0  0  0  0  0  0
    1.8478    5.9218   -0.4896 N   0  0  0  0  0  0  0  0  0  0  0  0
    5.7478    1.0493   -2.7296 C   0  0  0  0  0  0  0  0  0  0  0  0
    6.7647    0.1248   -2.9906 C   0  0  0  0  0  0  0  0  0  0  0  0
    7.5336    0.2022   -4.1607 C   0  0  0  0  0  0  0  0  0  0  0  0
    7.2643    1.2367   -5.0747 C   0  0  0  0  0  0  0  0  0  0  0  0
    6.2556    2.1685   -4.8361 C   0  0  0  0  0  0  0  0  0  0  0  0
    5.5065    2.0588   -3.6610 C   0  0  0  0  0  0  0  0  0  0  0  0
    5.1634    1.0016   -1.8129 H   0  0  0  0  0  0  0  0  0  0  0  0
    6.9655   -0.6631   -2.2635 H   0  0  0  0  0  0  0  0  0  0  0  0
    7.8591    1.3154   -5.9858 H   0  0  0  0  0  0  0  0  0  0  0  0
    6.0582    2.9785   -5.5359 H   0  0  0  0  0  0  0  0  0  0  0  0
    4.1970    3.2541   -3.3534 S   0  0  0  0  0  0  0  0  0  0  0  0
    3.8531    3.2341   -1.9103 O   0  0  0  0  0  0  0  0  0  0  0  0
    2.9131    2.6151   -4.1846 O   0  0  0  0  0  0  0  0  0  0  0  0
    4.5171    4.5082   -4.0625 O   0  0  0  0  0  0  0  0  0  0  0  0
    8.6379   -0.7877   -4.4404 C   0  0  0  0  0  0  0  0  0  0  0  0
    9.6140   -0.2836   -4.4899 H   0  0  0  0  0  0  0  0  0  0  0  0
    8.6935   -1.5625   -3.6655 H   0  0  0  0  0  0  0  0  0  0  0  0
    8.4828   -1.2880   -5.4074 H   0  0  0  0  0  0  0  0  0  0  0  0
   -2.4065   -1.1421   -2.3739 O   0  0  0  0  0  0  0  0  0  0  0  0
   -3.6210   -0.5700   -1.8922 C   0  0  0  0  0  0  0  0  0  0  0  0
   -4.3756   -1.3570   -1.9894 H   0  0  0  0  0  0  0  0  0  0  0  0
   -3.9183    0.2999   -2.4971 H   0  0  0  0  0  0  0  0  0  0  0  0
   -3.5299   -0.2760   -0.8359 H   0  0  0  0  0  0  0  0  0  0  0  0
  1  2  2  0  0  0  0
  1  6  1  0  0  0  0
  2  3  1  0  0  0  0
  3  4  2  0  0  0  0
  4  9  1  0  0  0  0
  5  4  1  0  0  0  0
  5 10  1  0  0  0  0
  6  5  2  0  0  0  0
  7  1  1  0  0  0  0
 11 12  3  0  0  0  0
 13 19  1  0  0  0  0
 14 13  1  0  0  0  0
 14 20  1  0  0  0  0
 15 14  2  0  0  0  0
 16 17  2  0  0  0  0
 16 15  1  0  0  0  0
 17 18  1  0  0  0  0
 18 23  1  0  0  0  0
 18 13  2  0  0  0  0
 21 16  1  0  0  0  0
 22 17  1  0  0  0  0
 23 24  2  0  0  0  0
 25  8  1  0  0  0  0
 25 23  1  0  0  0  0
 26 23  2  0  0  0  0
 27 15  1  0  0  0  0
 27 29  1  0  0  0  0
 28 27  1  0  0  0  0
 30 27  1  0  0  0  0
 31  6  1  0  0  0  0
 31 32  1  0  0  0  0
 32 35  1  0  0  0  0
 33 32  1  0  0  0  0
 34 32  1  0  0  0  0
M  RAD  2   2   2   3   2
M  END
