Coordinates from ORCA-job p-CH3O-Ph-N2-OTs-B3LYPG-aug-cc-pVDZ-scan-d09-49-n400
 OpenBabel07022015293D

 35 35  0  0  0  0  0  0  0  0999 V2000
   -0.6492    0.0562   -2.5791 C   0  0  0  0  0  0  0  0  0  0  0  0
    0.3991    0.9311   -2.8163 C   0  0  0  0  0  0  0  0  0  0  0  0
    0.2424    2.2362   -2.3257 C   0  0  0  0  0  0  0  0  0  0  0  0
   -0.8744    2.6871   -1.6200 C   0  0  0  0  0  0  0  0  0  0  0  0
   -1.9117    1.7901   -1.3932 C   0  0  0  0  0  0  0  0  0  0  0  0
   -1.8002    0.4680   -1.8736 C   0  0  0  0  0  0  0  0  0  0  0  0
   -0.5904   -0.9724   -2.9304 H   0  0  0  0  0  0  0  0  0  0  0  0
    1.3035    0.6074   -3.3416 H   0  0  0  0  0  0  0  0  0  0  0  0
   -0.9287    3.7118   -1.2588 H   0  0  0  0  0  0  0  0  0  0  0  0
   -2.7875    2.1233   -0.8446 H   0  0  0  0  0  0  0  0  0  0  0  0
    1.3107    3.2209   -2.5584 N   0  0  0  0  0  0  0  0  0  0  0  0
    2.2097    3.8073   -2.8742 N   0  0  0  0  0  0  0  0  0  0  0  0
    6.0582   -0.1489   -4.5004 C   0  0  0  0  0  0  0  0  0  0  0  0
    7.4278   -0.3156   -4.7344 C   0  0  0  0  0  0  0  0  0  0  0  0
    8.3585    0.6533   -4.3362 C   0  0  0  0  0  0  0  0  0  0  0  0
    7.8810    1.8110   -3.6955 C   0  0  0  0  0  0  0  0  0  0  0  0
    6.5200    1.9932   -3.4560 C   0  0  0  0  0  0  0  0  0  0  0  0
    5.6161    1.0057   -3.8597 C   0  0  0  0  0  0  0  0  0  0  0  0
    5.3355   -0.9033   -4.8054 H   0  0  0  0  0  0  0  0  0  0  0  0
    7.7779   -1.2187   -5.2372 H   0  0  0  0  0  0  0  0  0  0  0  0
    8.5866    2.5821   -3.3795 H   0  0  0  0  0  0  0  0  0  0  0  0
    6.1574    2.8917   -2.9593 H   0  0  0  0  0  0  0  0  0  0  0  0
    3.8514    1.2412   -3.5379 S   0  0  0  0  0  0  0  0  0  0  0  0
    3.6859    1.4550   -2.0509 O   0  0  0  0  0  0  0  0  0  0  0  0
    3.1483    0.0107   -4.0600 O   0  0  0  0  0  0  0  0  0  0  0  0
    3.4532    2.5042   -4.3150 O   0  0  0  0  0  0  0  0  0  0  0  0
    9.8383    0.4591   -4.5678 C   0  0  0  0  0  0  0  0  0  0  0  0
   10.3633    0.2563   -3.6219 H   0  0  0  0  0  0  0  0  0  0  0  0
   10.0280   -0.3853   -5.2431 H   0  0  0  0  0  0  0  0  0  0  0  0
   10.2964    1.3574   -5.0057 H   0  0  0  0  0  0  0  0  0  0  0  0
   -2.7453   -0.4776   -1.7039 O   0  0  0  0  0  0  0  0  0  0  0  0
   -3.9443   -0.1473   -0.9946 C   0  0  0  0  0  0  0  0  0  0  0  0
   -4.5351   -1.0672   -0.9764 H   0  0  0  0  0  0  0  0  0  0  0  0
   -4.5025    0.6419   -1.5182 H   0  0  0  0  0  0  0  0  0  0  0  0
   -3.7196    0.1658    0.0348 H   0  0  0  0  0  0  0  0  0  0  0  0
  1  6  1  0  0  0  0
  2  1  2  0  0  0  0
  2  3  1  0  0  0  0
  3  4  2  0  0  0  0
  4  5  1  0  0  0  0
  4  9  1  0  0  0  0
  5 10  1  0  0  0  0
  6 31  1  0  0  0  0
  6  5  2  0  0  0  0
  7  1  1  0  0  0  0
  8  2  1  0  0  0  0
 11  3  1  0  0  0  0
 12 11  1  0  0  0  0
 13 18  1  0  0  0  0
 14 13  2  0  0  0  0
 14 15  1  0  0  0  0
 15 16  2  0  0  0  0
 16 17  1  0  0  0  0
 16 21  1  0  0  0  0
 17 22  1  0  0  0  0
 18 23  1  0  0  0  0
 18 17  2  0  0  0  0
 19 13  1  0  0  0  0
 20 14  1  0  0  0  0
 23 24  1  0  0  0  0
 25 23  2  0  0  0  0
 26 23  2  0  0  0  0
 27 15  1  0  0  0  0
 27 28  1  0  0  0  0
 29 27  1  0  0  0  0
 30 27  1  0  0  0  0
 31 32  1  0  0  0  0
 32 33  1  0  0  0  0
 32 35  1  0  0  0  0
 34 32  1  0  0  0  0
M  RAD  3  11   2  12   3  24   2
M  END
