Coordinates from ORCA-job p-CH3O-Ph-N2-OTs-B3LYPG-aug-cc-pVDZ-scan-d09-49-n400
 OpenBabel07022015293D

 35 34  0  0  0  0  0  0  0  0999 V2000
   -0.1505    0.3917   -2.8349 C   0  0  0  0  0  0  0  0  0  0  0  0
    0.5443    1.5680   -2.5143 C   0  0  0  0  0  0  0  0  0  0  0  0
   -0.0429    2.3755   -1.7360 C   0  0  0  0  0  0  0  0  0  0  0  0
   -1.2406    2.4344   -1.0821 C   0  0  0  0  0  0  0  0  0  0  0  0
   -1.9673    1.2592   -1.3875 C   0  0  0  0  0  0  0  0  0  0  0  0
   -1.4336    0.2634   -2.2430 C   0  0  0  0  0  0  0  0  0  0  0  0
    0.2223   -0.3975   -3.4869 H   0  0  0  0  0  0  0  0  0  0  0  0
    2.2763    1.7678   -3.4475 H   0  0  0  0  0  0  0  0  0  0  0  0
   -1.6118    3.2226   -0.4330 H   0  0  0  0  0  0  0  0  0  0  0  0
   -2.9545    1.1460   -0.9455 H   0  0  0  0  0  0  0  0  0  0  0  0
    1.0242    4.4936   -1.0321 N   0  0  0  0  0  0  0  0  0  0  0  0
    1.8757    5.1957   -1.0604 N   0  0  0  0  0  0  0  0  0  0  0  0
    6.0173    0.7665   -2.8566 C   0  0  0  0  0  0  0  0  0  0  0  0
    7.1423   -0.0335   -3.0672 C   0  0  0  0  0  0  0  0  0  0  0  0
    7.9226    0.0997   -4.2266 C   0  0  0  0  0  0  0  0  0  0  0  0
    7.5475    1.0601   -5.1809 C   0  0  0  0  0  0  0  0  0  0  0  0
    6.4264    1.8695   -4.9918 C   0  0  0  0  0  0  0  0  0  0  0  0
    5.6731    1.7074   -3.8275 C   0  0  0  0  0  0  0  0  0  0  0  0
    5.4205    0.6713   -1.9515 H   0  0  0  0  0  0  0  0  0  0  0  0
    7.4195   -0.7692   -2.3109 H   0  0  0  0  0  0  0  0  0  0  0  0
    8.1468    1.1791   -6.0848 H   0  0  0  0  0  0  0  0  0  0  0  0
    6.1401    2.6195   -5.7266 H   0  0  0  0  0  0  0  0  0  0  0  0
    4.2289    2.7458   -3.5650 S   0  0  0  0  0  0  0  0  0  0  0  0
    4.0247    2.9716   -2.1110 O   0  0  0  0  0  0  0  0  0  0  0  0
    3.0414    1.7193   -4.0804 O   0  0  0  0  0  0  0  0  0  0  0  0
    4.2903    3.8921   -4.4982 O   0  0  0  0  0  0  0  0  0  0  0  0
    9.1494   -0.7529   -4.4409 C   0  0  0  0  0  0  0  0  0  0  0  0
   10.0657   -0.1536   -4.3314 H   0  0  0  0  0  0  0  0  0  0  0  0
    9.1973   -1.5778   -3.7191 H   0  0  0  0  0  0  0  0  0  0  0  0
    9.1624   -1.1823   -5.4523 H   0  0  0  0  0  0  0  0  0  0  0  0
   -2.0989   -0.8843   -2.5675 O   0  0  0  0  0  0  0  0  0  0  0  0
   -3.3994   -1.1025   -2.0310 C   0  0  0  0  0  0  0  0  0  0  0  0
   -3.7310   -2.0593   -2.4443 H   0  0  0  0  0  0  0  0  0  0  0  0
   -4.0968   -0.3086   -2.3399 H   0  0  0  0  0  0  0  0  0  0  0  0
   -3.3715   -1.1662   -0.9319 H   0  0  0  0  0  0  0  0  0  0  0  0
  1  2  2  0  0  0  0
  1  6  1  0  0  0  0
  2  3  1  0  0  0  0
  3  4  2  0  0  0  0
  4  9  1  0  0  0  0
  5  4  1  0  0  0  0
  5 10  1  0  0  0  0
  6  5  2  0  0  0  0
  7  1  1  0  0  0  0
 12 11  3  0  0  0  0
 13 19  1  0  0  0  0
 14 13  1  0  0  0  0
 14 20  1  0  0  0  0
 15 14  2  0  0  0  0
 16 17  2  0  0  0  0
 16 15  1  0  0  0  0
 17 18  1  0  0  0  0
 18 23  1  0  0  0  0
 18 13  2  0  0  0  0
 21 16  1  0  0  0  0
 22 17  1  0  0  0  0
 23 24  2  0  0  0  0
 25 23  1  0  0  0  0
 25  8  1  0  0  0  0
 26 23  2  0  0  0  0
 27 28  1  0  0  0  0
 27 15  1  0  0  0  0
 27 29  1  0  0  0  0
 30 27  1  0  0  0  0
 31  6  1  0  0  0  0
 31 32  1  0  0  0  0
 32 35  1  0  0  0  0
 33 32  1  0  0  0  0
 34 32  1  0  0  0  0
M  RAD  2   2   2   3   2
M  END
