Coordinates from ORCA-job p-CH3O-Ph-N2-OTs-B3LYPG-aug-cc-pVDZ-scan-d09-49-n400
 OpenBabel07022015293D

 35 34  0  0  0  0  0  0  0  0999 V2000
   -0.2679    0.2460   -2.9990 C   0  0  0  0  0  0  0  0  0  0  0  0
    0.4915    1.3781   -2.6916 C   0  0  0  0  0  0  0  0  0  0  0  0
    0.0471    2.2071   -1.8537 C   0  0  0  0  0  0  0  0  0  0  0  0
   -1.0893    2.3023   -1.0957 C   0  0  0  0  0  0  0  0  0  0  0  0
   -1.8989    1.1732   -1.3711 C   0  0  0  0  0  0  0  0  0  0  0  0
   -1.5000    0.1750   -2.2956 C   0  0  0  0  0  0  0  0  0  0  0  0
    0.0047   -0.5400   -3.7016 H   0  0  0  0  0  0  0  0  0  0  0  0
    2.2946    1.7291   -3.6262 H   0  0  0  0  0  0  0  0  0  0  0  0
   -1.3658    3.0848   -0.3950 H   0  0  0  0  0  0  0  0  0  0  0  0
   -2.8486    1.0943   -0.8467 H   0  0  0  0  0  0  0  0  0  0  0  0
    1.2326    4.7821   -0.8262 N   0  0  0  0  0  0  0  0  0  0  0  0
    2.0450    5.5292   -0.8103 N   0  0  0  0  0  0  0  0  0  0  0  0
    5.9769    0.7896   -2.8827 C   0  0  0  0  0  0  0  0  0  0  0  0
    7.1105   -0.0088   -3.0531 C   0  0  0  0  0  0  0  0  0  0  0  0
    7.9328    0.1273   -4.1824 C   0  0  0  0  0  0  0  0  0  0  0  0
    7.5931    1.0900   -5.1479 C   0  0  0  0  0  0  0  0  0  0  0  0
    6.4654    1.8981   -4.9989 C   0  0  0  0  0  0  0  0  0  0  0  0
    5.6687    1.7324   -3.8638 C   0  0  0  0  0  0  0  0  0  0  0  0
    5.3467    0.6911   -2.0007 H   0  0  0  0  0  0  0  0  0  0  0  0
    7.3619   -0.7451   -2.2885 H   0  0  0  0  0  0  0  0  0  0  0  0
    8.2257    1.2126   -6.0284 H   0  0  0  0  0  0  0  0  0  0  0  0
    6.2064    2.6508   -5.7408 H   0  0  0  0  0  0  0  0  0  0  0  0
    4.2129    2.7671   -3.6616 S   0  0  0  0  0  0  0  0  0  0  0  0
    3.9256    2.9628   -2.2182 O   0  0  0  0  0  0  0  0  0  0  0  0
    3.0476    1.7555   -4.2646 O   0  0  0  0  0  0  0  0  0  0  0  0
    4.3223    3.9248   -4.5744 O   0  0  0  0  0  0  0  0  0  0  0  0
    9.1653   -0.7260   -4.3569 C   0  0  0  0  0  0  0  0  0  0  0  0
   10.0778   -0.1171   -4.2741 H   0  0  0  0  0  0  0  0  0  0  0  0
    9.2174   -1.5189   -3.6004 H   0  0  0  0  0  0  0  0  0  0  0  0
    9.1810   -1.1996   -5.3486 H   0  0  0  0  0  0  0  0  0  0  0  0
   -2.2565   -0.9250   -2.5863 O   0  0  0  0  0  0  0  0  0  0  0  0
   -3.5216   -1.0789   -1.9516 C   0  0  0  0  0  0  0  0  0  0  0  0
   -3.9444   -2.0018   -2.3588 H   0  0  0  0  0  0  0  0  0  0  0  0
   -4.1893   -0.2351   -2.1847 H   0  0  0  0  0  0  0  0  0  0  0  0
   -3.4112   -1.1752   -0.8601 H   0  0  0  0  0  0  0  0  0  0  0  0
  1  2  2  0  0  0  0
  1  6  1  0  0  0  0
  2  3  1  0  0  0  0
  3  4  2  0  0  0  0
  4  9  1  0  0  0  0
  5  4  1  0  0  0  0
  5 10  1  0  0  0  0
  6  5  2  0  0  0  0
  7  1  1  0  0  0  0
 11 12  3  0  0  0  0
 13 19  1  0  0  0  0
 14 13  1  0  0  0  0
 14 20  1  0  0  0  0
 15 14  2  0  0  0  0
 16 17  2  0  0  0  0
 16 15  1  0  0  0  0
 17 18  1  0  0  0  0
 18 23  1  0  0  0  0
 18 13  2  0  0  0  0
 21 16  1  0  0  0  0
 22 17  1  0  0  0  0
 23 24  2  0  0  0  0
 25 23  1  0  0  0  0
 25  8  1  0  0  0  0
 26 23  2  0  0  0  0
 27 28  1  0  0  0  0
 27 15  1  0  0  0  0
 27 29  1  0  0  0  0
 30 27  1  0  0  0  0
 31  6  1  0  0  0  0
 31 32  1  0  0  0  0
 32 35  1  0  0  0  0
 33 32  1  0  0  0  0
 34 32  1  0  0  0  0
M  RAD  2   2   2   3   2
M  END
