Coordinates from ORCA-job p-CH3O-Ph-N2-OTs-B3LYPG-aug-cc-pVDZ-scan-d09-49-n400
 OpenBabel07022015293D

 35 35  0  0  0  0  0  0  0  0999 V2000
   -0.6281    0.0392   -2.4395 C   0  0  0  0  0  0  0  0  0  0  0  0
    0.4520    0.8968   -2.5997 C   0  0  0  0  0  0  0  0  0  0  0  0
    0.2342    2.2232   -2.2274 C   0  0  0  0  0  0  0  0  0  0  0  0
   -0.9474    2.7328   -1.7066 C   0  0  0  0  0  0  0  0  0  0  0  0
   -2.0172    1.8523   -1.5575 C   0  0  0  0  0  0  0  0  0  0  0  0
   -1.8573    0.5014   -1.9245 C   0  0  0  0  0  0  0  0  0  0  0  0
   -0.5301   -1.0123   -2.7035 H   0  0  0  0  0  0  0  0  0  0  0  0
    1.4124    0.5334   -2.9711 H   0  0  0  0  0  0  0  0  0  0  0  0
   -1.0334    3.7804   -1.4274 H   0  0  0  0  0  0  0  0  0  0  0  0
   -2.9546    2.2237   -1.1543 H   0  0  0  0  0  0  0  0  0  0  0  0
    1.3953    3.2412   -2.3798 N   0  0  0  0  0  0  0  0  0  0  0  0
    2.4083    3.5890   -2.7263 N   0  0  0  0  0  0  0  0  0  0  0  0
    6.1095   -0.2245   -4.3263 C   0  0  0  0  0  0  0  0  0  0  0  0
    7.4306   -0.2991   -4.7810 C   0  0  0  0  0  0  0  0  0  0  0  0
    8.3506    0.7243   -4.5159 C   0  0  0  0  0  0  0  0  0  0  0  0
    7.9130    1.8386   -3.7775 C   0  0  0  0  0  0  0  0  0  0  0  0
    6.6005    1.9292   -3.3166 C   0  0  0  0  0  0  0  0  0  0  0  0
    5.7069    0.8910   -3.5953 C   0  0  0  0  0  0  0  0  0  0  0  0
    5.3950   -1.0213   -4.5255 H   0  0  0  0  0  0  0  0  0  0  0  0
    7.7510   -1.1730   -5.3506 H   0  0  0  0  0  0  0  0  0  0  0  0
    8.6137    2.6465   -3.5575 H   0  0  0  0  0  0  0  0  0  0  0  0
    6.2706    2.7896   -2.7367 H   0  0  0  0  0  0  0  0  0  0  0  0
    4.0000    1.0181   -3.0122 S   0  0  0  0  0  0  0  0  0  0  0  0
    4.0357    1.5403   -1.6023 O   0  0  0  0  0  0  0  0  0  0  0  0
    3.3717   -0.3384   -3.1882 O   0  0  0  0  0  0  0  0  0  0  0  0
    3.3263    2.0519   -3.9534 O   0  0  0  0  0  0  0  0  0  0  0  0
    9.7812    0.6342   -4.9913 C   0  0  0  0  0  0  0  0  0  0  0  0
   10.4724    0.5111   -4.1438 H   0  0  0  0  0  0  0  0  0  0  0  0
    9.9244   -0.2185   -5.6673 H   0  0  0  0  0  0  0  0  0  0  0  0
   10.0826    1.5471   -5.5250 H   0  0  0  0  0  0  0  0  0  0  0  0
   -2.8271   -0.4327   -1.8133 O   0  0  0  0  0  0  0  0  0  0  0  0
   -4.1000   -0.0514   -1.2843 C   0  0  0  0  0  0  0  0  0  0  0  0
   -4.6975   -0.9671   -1.2710 H   0  0  0  0  0  0  0  0  0  0  0  0
   -4.5840    0.6982   -1.9274 H   0  0  0  0  0  0  0  0  0  0  0  0
   -4.0008    0.3367   -0.2603 H   0  0  0  0  0  0  0  0  0  0  0  0
  1  6  1  0  0  0  0
  2  1  2  0  0  0  0
  2  3  1  0  0  0  0
  3  4  2  0  0  0  0
  4  5  1  0  0  0  0
  4  9  1  0  0  0  0
  5 10  1  0  0  0  0
  6 31  1  0  0  0  0
  6  5  2  0  0  0  0
  7  1  1  0  0  0  0
  8  2  1  0  0  0  0
 11  3  1  0  0  0  0
 12 11  1  0  0  0  0
 13 18  2  0  0  0  0
 14 15  2  0  0  0  0
 14 13  1  0  0  0  0
 15 16  1  0  0  0  0
 16 21  1  0  0  0  0
 16 17  2  0  0  0  0
 17 22  1  0  0  0  0
 18 17  1  0  0  0  0
 18 23  1  0  0  0  0
 19 13  1  0  0  0  0
 20 14  1  0  0  0  0
 23 24  1  0  0  0  0
 25 23  2  0  0  0  0
 26 23  2  0  0  0  0
 27 15  1  0  0  0  0
 27 28  1  0  0  0  0
 29 27  1  0  0  0  0
 30 27  1  0  0  0  0
 31 32  1  0  0  0  0
 32 33  1  0  0  0  0
 32 35  1  0  0  0  0
 34 32  1  0  0  0  0
M  RAD  3  11   2  12   3  24   2
M  END
