Coordinates from ORCA-job p-CH3O-Ph-N2-OTs-B3LYPG-aug-cc-pVDZ-scan-d09-49-n400
 OpenBabel07022015293D

 35 34  0  0  0  0  0  0  0  0999 V2000
   -0.2967    0.1217   -3.0435 C   0  0  0  0  0  0  0  0  0  0  0  0
    0.4907    1.2341   -2.7455 C   0  0  0  0  0  0  0  0  0  0  0  0
    0.0953    2.0847   -1.9071 C   0  0  0  0  0  0  0  0  0  0  0  0
   -1.0313    2.2135   -1.1357 C   0  0  0  0  0  0  0  0  0  0  0  0
   -1.8754    1.1064   -1.3957 C   0  0  0  0  0  0  0  0  0  0  0  0
   -1.5196    0.0920   -2.3207 C   0  0  0  0  0  0  0  0  0  0  0  0
   -0.0567   -0.6727   -3.7482 H   0  0  0  0  0  0  0  0  0  0  0  0
    2.3259    1.7354   -3.6834 H   0  0  0  0  0  0  0  0  0  0  0  0
   -1.2786    3.0059   -0.4346 H   0  0  0  0  0  0  0  0  0  0  0  0
   -2.8199    1.0544   -0.8589 H   0  0  0  0  0  0  0  0  0  0  0  0
    1.3794    5.1426   -0.6226 N   0  0  0  0  0  0  0  0  0  0  0  0
    2.1883    5.8937   -0.6110 N   0  0  0  0  0  0  0  0  0  0  0  0
    5.9642    0.8259   -2.8810 C   0  0  0  0  0  0  0  0  0  0  0  0
    7.0896    0.0131   -3.0403 C   0  0  0  0  0  0  0  0  0  0  0  0
    7.9135    0.1252   -4.1708 C   0  0  0  0  0  0  0  0  0  0  0  0
    7.5845    1.0791   -5.1489 C   0  0  0  0  0  0  0  0  0  0  0  0
    6.4662    1.9016   -5.0107 C   0  0  0  0  0  0  0  0  0  0  0  0
    5.6669    1.7597   -3.8739 C   0  0  0  0  0  0  0  0  0  0  0  0
    5.3329    0.7455   -1.9979 H   0  0  0  0  0  0  0  0  0  0  0  0
    7.3330   -0.7157   -2.2659 H   0  0  0  0  0  0  0  0  0  0  0  0
    8.2184    1.1841   -6.0307 H   0  0  0  0  0  0  0  0  0  0  0  0
    6.2173    2.6487   -5.7617 H   0  0  0  0  0  0  0  0  0  0  0  0
    4.2210    2.8128   -3.6911 S   0  0  0  0  0  0  0  0  0  0  0  0
    3.8993    2.9854   -2.2523 O   0  0  0  0  0  0  0  0  0  0  0  0
    3.0464    1.8426   -4.3461 O   0  0  0  0  0  0  0  0  0  0  0  0
    4.3714    3.9800   -4.5845 O   0  0  0  0  0  0  0  0  0  0  0  0
    9.1369   -0.7433   -4.3343 C   0  0  0  0  0  0  0  0  0  0  0  0
   10.0556   -0.1423   -4.2652 H   0  0  0  0  0  0  0  0  0  0  0  0
    9.1840   -1.5236   -3.5644 H   0  0  0  0  0  0  0  0  0  0  0  0
    9.1443   -1.2343   -5.3176 H   0  0  0  0  0  0  0  0  0  0  0  0
   -2.3129   -0.9865   -2.5943 O   0  0  0  0  0  0  0  0  0  0  0  0
   -3.5735   -1.0987   -1.9418 C   0  0  0  0  0  0  0  0  0  0  0  0
   -4.0299   -2.0102   -2.3383 H   0  0  0  0  0  0  0  0  0  0  0  0
   -4.2186   -0.2363   -2.1703 H   0  0  0  0  0  0  0  0  0  0  0  0
   -3.4514   -1.1928   -0.8513 H   0  0  0  0  0  0  0  0  0  0  0  0
  1  2  2  0  0  0  0
  1  6  1  0  0  0  0
  2  3  1  0  0  0  0
  3  4  2  0  0  0  0
  4  9  1  0  0  0  0
  5  4  1  0  0  0  0
  5 10  1  0  0  0  0
  6  5  2  0  0  0  0
  7  1  1  0  0  0  0
 11 12  3  0  0  0  0
 13 19  1  0  0  0  0
 14 13  1  0  0  0  0
 14 20  1  0  0  0  0
 15 14  2  0  0  0  0
 16 17  2  0  0  0  0
 16 15  1  0  0  0  0
 17 18  1  0  0  0  0
 18 23  1  0  0  0  0
 18 13  2  0  0  0  0
 21 16  1  0  0  0  0
 22 17  1  0  0  0  0
 23 24  2  0  0  0  0
 25 23  1  0  0  0  0
 25  8  1  0  0  0  0
 26 23  2  0  0  0  0
 27 28  1  0  0  0  0
 27 15  1  0  0  0  0
 27 29  1  0  0  0  0
 30 27  1  0  0  0  0
 31  6  1  0  0  0  0
 31 32  1  0  0  0  0
 32 35  1  0  0  0  0
 33 32  1  0  0  0  0
 34 32  1  0  0  0  0
M  RAD  2   2   2   3   2
M  END
