Coordinates from ORCA-job p-CH3O-Ph-N2-OTs-B3LYPG-aug-cc-pVDZ-scan-d09-49-n400
 OpenBabel07022015293D

 35 34  0  0  0  0  0  0  0  0999 V2000
   -0.2685    0.2443   -3.0006 C   0  0  0  0  0  0  0  0  0  0  0  0
    0.4913    1.3761   -2.6933 C   0  0  0  0  0  0  0  0  0  0  0  0
    0.0481    2.2052   -1.8550 C   0  0  0  0  0  0  0  0  0  0  0  0
   -1.0878    2.3005   -1.0962 C   0  0  0  0  0  0  0  0  0  0  0  0
   -1.8980    1.1717   -1.3713 C   0  0  0  0  0  0  0  0  0  0  0  0
   -1.5001    0.1736   -2.2963 C   0  0  0  0  0  0  0  0  0  0  0  0
    0.0034   -0.5416   -3.7037 H   0  0  0  0  0  0  0  0  0  0  0  0
    2.2951    1.7297   -3.6280 H   0  0  0  0  0  0  0  0  0  0  0  0
   -1.3636    3.0829   -0.3950 H   0  0  0  0  0  0  0  0  0  0  0  0
   -2.8473    1.0930   -0.8464 H   0  0  0  0  0  0  0  0  0  0  0  0
    1.2345    4.7890   -0.8212 N   0  0  0  0  0  0  0  0  0  0  0  0
    2.0462    5.5369   -0.8046 N   0  0  0  0  0  0  0  0  0  0  0  0
    5.9764    0.7905   -2.8828 C   0  0  0  0  0  0  0  0  0  0  0  0
    7.1098   -0.0083   -3.0526 C   0  0  0  0  0  0  0  0  0  0  0  0
    7.9322    0.1270   -4.1820 C   0  0  0  0  0  0  0  0  0  0  0  0
    7.5929    1.0894   -5.1479 C   0  0  0  0  0  0  0  0  0  0  0  0
    6.4655    1.8980   -4.9994 C   0  0  0  0  0  0  0  0  0  0  0  0
    5.6686    1.7331   -3.8642 C   0  0  0  0  0  0  0  0  0  0  0  0
    5.3461    0.6925   -2.0008 H   0  0  0  0  0  0  0  0  0  0  0  0
    7.3608   -0.7444   -2.2877 H   0  0  0  0  0  0  0  0  0  0  0  0
    8.2256    1.2114   -6.0284 H   0  0  0  0  0  0  0  0  0  0  0  0
    6.2068    2.6505   -5.7416 H   0  0  0  0  0  0  0  0  0  0  0  0
    4.2131    2.7682   -3.6629 S   0  0  0  0  0  0  0  0  0  0  0  0
    3.9249    2.9638   -2.2196 O   0  0  0  0  0  0  0  0  0  0  0  0
    3.0476    1.7575   -4.2669 O   0  0  0  0  0  0  0  0  0  0  0  0
    4.3235    3.9260   -4.5755 O   0  0  0  0  0  0  0  0  0  0  0  0
    9.1645   -0.7268   -4.3560 C   0  0  0  0  0  0  0  0  0  0  0  0
   10.0771   -0.1182   -4.2737 H   0  0  0  0  0  0  0  0  0  0  0  0
    9.2164   -1.5193   -3.5991 H   0  0  0  0  0  0  0  0  0  0  0  0
    9.1800   -1.2010   -5.3474 H   0  0  0  0  0  0  0  0  0  0  0  0
   -2.2572   -0.9260   -2.5868 O   0  0  0  0  0  0  0  0  0  0  0  0
   -3.5220   -1.0795   -1.9513 C   0  0  0  0  0  0  0  0  0  0  0  0
   -3.9454   -2.0022   -2.3584 H   0  0  0  0  0  0  0  0  0  0  0  0
   -4.1895   -0.2355   -2.1838 H   0  0  0  0  0  0  0  0  0  0  0  0
   -3.4108   -1.1761   -0.8598 H   0  0  0  0  0  0  0  0  0  0  0  0
  1  2  2  0  0  0  0
  1  6  1  0  0  0  0
  2  3  1  0  0  0  0
  3  4  2  0  0  0  0
  4  9  1  0  0  0  0
  5  4  1  0  0  0  0
  5 10  1  0  0  0  0
  6  5  2  0  0  0  0
  7  1  1  0  0  0  0
 11 12  3  0  0  0  0
 13 19  1  0  0  0  0
 14 13  1  0  0  0  0
 14 20  1  0  0  0  0
 15 14  2  0  0  0  0
 16 17  2  0  0  0  0
 16 15  1  0  0  0  0
 17 18  1  0  0  0  0
 18 23  1  0  0  0  0
 18 13  2  0  0  0  0
 21 16  1  0  0  0  0
 22 17  1  0  0  0  0
 23 24  2  0  0  0  0
 25 23  1  0  0  0  0
 25  8  1  0  0  0  0
 26 23  2  0  0  0  0
 27 28  1  0  0  0  0
 27 15  1  0  0  0  0
 27 29  1  0  0  0  0
 30 27  1  0  0  0  0
 31  6  1  0  0  0  0
 31 32  1  0  0  0  0
 32 35  1  0  0  0  0
 33 32  1  0  0  0  0
 34 32  1  0  0  0  0
M  RAD  2   2   2   3   2
M  END
