Coordinates from ORCA-job p-CH3O-Ph-N2-OTs-B3LYPG-aug-cc-pVDZ-scan-d09-49-n400
 OpenBabel07022015293D

 35 34  0  0  0  0  0  0  0  0999 V2000
   -0.1611    0.2067   -2.7986 C   0  0  0  0  0  0  0  0  0  0  0  0
    0.6466    1.3472   -3.0115 C   0  0  0  0  0  0  0  0  0  0  0  0
    0.1307    2.3596   -2.3295 C   0  0  0  0  0  0  0  0  0  0  0  0
   -0.9090    2.6301   -1.5054 C   0  0  0  0  0  0  0  0  0  0  0  0
   -1.6788    1.4576   -1.3284 C   0  0  0  0  0  0  0  0  0  0  0  0
   -1.3002    0.2584   -1.9675 C   0  0  0  0  0  0  0  0  0  0  0  0
    0.1074   -0.7309   -3.2844 H   0  0  0  0  0  0  0  0  0  0  0  0
    1.6063    1.3397   -3.6764 H   0  0  0  0  0  0  0  0  0  0  0  0
   -1.1447    3.5801   -1.0377 H   0  0  0  0  0  0  0  0  0  0  0  0
   -2.5615    1.5217   -0.6974 H   0  0  0  0  0  0  0  0  0  0  0  0
    1.2305    4.2263   -2.5981 N   0  0  0  0  0  0  0  0  0  0  0  0
    1.5725    5.2708   -2.6886 N   0  0  0  0  0  0  0  0  0  0  0  0
    5.4954    0.2012   -4.4666 C   0  0  0  0  0  0  0  0  0  0  0  0
    6.7357   -0.4474   -4.4776 C   0  0  0  0  0  0  0  0  0  0  0  0
    7.9023    0.2072   -4.0639 C   0  0  0  0  0  0  0  0  0  0  0  0
    7.7986    1.5441   -3.6388 C   0  0  0  0  0  0  0  0  0  0  0  0
    6.5711    2.2046   -3.6226 C   0  0  0  0  0  0  0  0  0  0  0  0
    5.4223    1.5233   -4.0362 C   0  0  0  0  0  0  0  0  0  0  0  0
    4.5912   -0.3070   -4.7944 H   0  0  0  0  0  0  0  0  0  0  0  0
    6.7904   -1.4838   -4.8150 H   0  0  0  0  0  0  0  0  0  0  0  0
    8.6941    2.0772   -3.3148 H   0  0  0  0  0  0  0  0  0  0  0  0
    6.5048    3.2419   -3.2973 H   0  0  0  0  0  0  0  0  0  0  0  0
    3.8397    2.4078   -4.0026 S   0  0  0  0  0  0  0  0  0  0  0  0
    3.5157    2.6837   -2.5518 O   0  0  0  0  0  0  0  0  0  0  0  0
    2.8225    1.3987   -4.5960 O   0  0  0  0  0  0  0  0  0  0  0  0
    3.9971    3.6303   -4.8483 O   0  0  0  0  0  0  0  0  0  0  0  0
    9.2411   -0.4925   -4.0666 C   0  0  0  0  0  0  0  0  0  0  0  0
    9.6432   -0.5841   -3.0466 H   0  0  0  0  0  0  0  0  0  0  0  0
    9.1625   -1.5016   -4.4901 H   0  0  0  0  0  0  0  0  0  0  0  0
    9.9804    0.0668   -4.6589 H   0  0  0  0  0  0  0  0  0  0  0  0
   -1.9769   -0.9104   -1.8421 O   0  0  0  0  0  0  0  0  0  0  0  0
   -3.1315   -0.9495   -1.0026 C   0  0  0  0  0  0  0  0  0  0  0  0
   -3.4740   -1.9876   -1.0218 H   0  0  0  0  0  0  0  0  0  0  0  0
   -3.9236   -0.2928   -1.3927 H   0  0  0  0  0  0  0  0  0  0  0  0
   -2.8805   -0.6660    0.0306 H   0  0  0  0  0  0  0  0  0  0  0  0
  1  6  1  0  0  0  0
  2  1  2  0  0  0  0
  2  3  1  0  0  0  0
  3  4  2  0  0  0  0
  4  5  1  0  0  0  0
  4  9  1  0  0  0  0
  5 10  1  0  0  0  0
  6 31  1  0  0  0  0
  6  5  2  0  0  0  0
  7  1  1  0  0  0  0
  8  2  1  0  0  0  0
 12 11  3  0  0  0  0
 13 18  1  0  0  0  0
 14 13  2  0  0  0  0
 14 15  1  0  0  0  0
 15 16  2  0  0  0  0
 16 17  1  0  0  0  0
 16 21  1  0  0  0  0
 17 22  1  0  0  0  0
 18 23  1  0  0  0  0
 18 17  2  0  0  0  0
 19 13  1  0  0  0  0
 20 14  1  0  0  0  0
 23 24  1  0  0  0  0
 25 23  2  0  0  0  0
 26 23  2  0  0  0  0
 27 15  1  0  0  0  0
 27 28  1  0  0  0  0
 29 27  1  0  0  0  0
 30 27  1  0  0  0  0
 31 32  1  0  0  0  0
 32 35  1  0  0  0  0
 33 32  1  0  0  0  0
 34 32  1  0  0  0  0
M  RAD  2   3   2  24   2
M  END
