Coordinates from ORCA-job p-CH3O-Ph-N2-OTs-B3LYPG-aug-cc-pVDZ-scan-d09-49-n400
 OpenBabel07022015293D

 35 34  0  0  0  0  0  0  0  0999 V2000
   -0.1910    0.3484   -2.8665 C   0  0  0  0  0  0  0  0  0  0  0  0
    0.5200    1.5147   -2.5518 C   0  0  0  0  0  0  0  0  0  0  0  0
   -0.0324    2.3340   -1.7642 C   0  0  0  0  0  0  0  0  0  0  0  0
   -1.2178    2.4099   -1.0881 C   0  0  0  0  0  0  0  0  0  0  0  0
   -1.9668    1.2453   -1.3835 C   0  0  0  0  0  0  0  0  0  0  0  0
   -1.4654    0.2420   -2.2501 C   0  0  0  0  0  0  0  0  0  0  0  0
    0.1575   -0.4454   -3.5261 H   0  0  0  0  0  0  0  0  0  0  0  0
    2.2856    1.7433   -3.4859 H   0  0  0  0  0  0  0  0  0  0  0  0
   -1.5663    3.2014   -0.4307 H   0  0  0  0  0  0  0  0  0  0  0  0
   -2.9473    1.1459   -0.9235 H   0  0  0  0  0  0  0  0  0  0  0  0
    1.0715    4.5627   -0.9917 N   0  0  0  0  0  0  0  0  0  0  0  0
    1.9200    5.2686   -1.0143 N   0  0  0  0  0  0  0  0  0  0  0  0
    6.0181    0.7602   -2.8682 C   0  0  0  0  0  0  0  0  0  0  0  0
    7.1492   -0.0331   -3.0715 C   0  0  0  0  0  0  0  0  0  0  0  0
    7.9421    0.1120   -4.2208 C   0  0  0  0  0  0  0  0  0  0  0  0
    7.5738    1.0778   -5.1725 C   0  0  0  0  0  0  0  0  0  0  0  0
    6.4468    1.8806   -4.9907 C   0  0  0  0  0  0  0  0  0  0  0  0
    5.6807    1.7063   -3.8363 C   0  0  0  0  0  0  0  0  0  0  0  0
    5.4114    0.6558   -1.9706 H   0  0  0  0  0  0  0  0  0  0  0  0
    7.4216   -0.7727   -2.3173 H   0  0  0  0  0  0  0  0  0  0  0  0
    8.1832    1.2064   -6.0683 H   0  0  0  0  0  0  0  0  0  0  0  0
    6.1655    2.6348   -5.7231 H   0  0  0  0  0  0  0  0  0  0  0  0
    4.2294    2.7368   -3.5831 S   0  0  0  0  0  0  0  0  0  0  0  0
    4.0082    2.9536   -2.1306 O   0  0  0  0  0  0  0  0  0  0  0  0
    3.0505    1.7062   -4.1159 O   0  0  0  0  0  0  0  0  0  0  0  0
    4.2933    3.8867   -4.5114 O   0  0  0  0  0  0  0  0  0  0  0  0
    9.1742   -0.7345   -4.4286 C   0  0  0  0  0  0  0  0  0  0  0  0
   10.0866   -0.1273   -4.3317 H   0  0  0  0  0  0  0  0  0  0  0  0
    9.2310   -1.5494   -3.6963 H   0  0  0  0  0  0  0  0  0  0  0  0
    9.1855   -1.1775   -5.4342 H   0  0  0  0  0  0  0  0  0  0  0  0
   -2.1558   -0.8942   -2.5633 O   0  0  0  0  0  0  0  0  0  0  0  0
   -3.4510   -1.0897   -2.0056 C   0  0  0  0  0  0  0  0  0  0  0  0
   -3.8070   -2.0393   -2.4152 H   0  0  0  0  0  0  0  0  0  0  0  0
   -4.1385   -0.2822   -2.3014 H   0  0  0  0  0  0  0  0  0  0  0  0
   -3.4061   -1.1562   -0.9072 H   0  0  0  0  0  0  0  0  0  0  0  0
  1  2  2  0  0  0  0
  1  6  1  0  0  0  0
  2  3  1  0  0  0  0
  3  4  2  0  0  0  0
  4  9  1  0  0  0  0
  5  4  1  0  0  0  0
  5 10  1  0  0  0  0
  6  5  2  0  0  0  0
  7  1  1  0  0  0  0
 12 11  3  0  0  0  0
 13 19  1  0  0  0  0
 14 13  1  0  0  0  0
 14 20  1  0  0  0  0
 15 14  2  0  0  0  0
 16 17  2  0  0  0  0
 16 15  1  0  0  0  0
 17 18  1  0  0  0  0
 18 23  1  0  0  0  0
 18 13  2  0  0  0  0
 21 16  1  0  0  0  0
 22 17  1  0  0  0  0
 23 24  2  0  0  0  0
 25 23  1  0  0  0  0
 25  8  1  0  0  0  0
 26 23  2  0  0  0  0
 27 28  1  0  0  0  0
 27 15  1  0  0  0  0
 27 29  1  0  0  0  0
 30 27  1  0  0  0  0
 31  6  1  0  0  0  0
 31 32  1  0  0  0  0
 32 35  1  0  0  0  0
 33 32  1  0  0  0  0
 34 32  1  0  0  0  0
M  RAD  2   2   2   3   2
M  END
