Coordinates from ORCA-job p-CH3O-Ph-N2-OTs-B3LYPG-aug-cc-pVDZ-scan-d09-49-n400
 OpenBabel07022015293D

 35 34  0  0  0  0  0  0  0  0999 V2000
   -0.1177    0.4268   -2.8158 C   0  0  0  0  0  0  0  0  0  0  0  0
    0.5645    1.6112   -2.4921 C   0  0  0  0  0  0  0  0  0  0  0  0
   -0.0490    2.4072   -1.7181 C   0  0  0  0  0  0  0  0  0  0  0  0
   -1.2541    2.4491   -1.0776 C   0  0  0  0  0  0  0  0  0  0  0  0
   -1.9625    1.2652   -1.3895 C   0  0  0  0  0  0  0  0  0  0  0  0
   -1.4049    0.2780   -2.2392 C   0  0  0  0  0  0  0  0  0  0  0  0
    0.2728   -0.3572   -3.4642 H   0  0  0  0  0  0  0  0  0  0  0  0
    2.2693    1.7967   -3.4218 H   0  0  0  0  0  0  0  0  0  0  0  0
   -1.6420    3.2329   -0.4328 H   0  0  0  0  0  0  0  0  0  0  0  0
   -2.9529    1.1386   -0.9585 H   0  0  0  0  0  0  0  0  0  0  0  0
    0.9843    4.4514   -1.0579 N   0  0  0  0  0  0  0  0  0  0  0  0
    1.8404    5.1479   -1.0933 N   0  0  0  0  0  0  0  0  0  0  0  0
    6.0114    0.7746   -2.8485 C   0  0  0  0  0  0  0  0  0  0  0  0
    7.1291   -0.0343   -3.0632 C   0  0  0  0  0  0  0  0  0  0  0  0
    7.9011    0.0868   -4.2295 C   0  0  0  0  0  0  0  0  0  0  0  0
    7.5249    1.0438   -5.1865 C   0  0  0  0  0  0  0  0  0  0  0  0
    6.4109    1.8623   -4.9932 C   0  0  0  0  0  0  0  0  0  0  0  0
    5.6659    1.7124   -3.8220 C   0  0  0  0  0  0  0  0  0  0  0  0
    5.4209    0.6884   -1.9383 H   0  0  0  0  0  0  0  0  0  0  0  0
    7.4069   -0.7679   -2.3051 H   0  0  0  0  0  0  0  0  0  0  0  0
    8.1171    1.1529   -6.0962 H   0  0  0  0  0  0  0  0  0  0  0  0
    6.1238    2.6097   -5.7302 H   0  0  0  0  0  0  0  0  0  0  0  0
    4.2300    2.7615   -3.5546 S   0  0  0  0  0  0  0  0  0  0  0  0
    4.0374    2.9942   -2.0998 O   0  0  0  0  0  0  0  0  0  0  0  0
    3.0333    1.7434   -4.0594 O   0  0  0  0  0  0  0  0  0  0  0  0
    4.2951    3.9051   -4.4912 O   0  0  0  0  0  0  0  0  0  0  0  0
    9.1219   -0.7740   -4.4463 C   0  0  0  0  0  0  0  0  0  0  0  0
   10.0426   -0.1879   -4.3052 H   0  0  0  0  0  0  0  0  0  0  0  0
    9.1492   -1.6173   -3.7449 H   0  0  0  0  0  0  0  0  0  0  0  0
    9.1478   -1.1769   -5.4681 H   0  0  0  0  0  0  0  0  0  0  0  0
   -2.0494   -0.8791   -2.5717 O   0  0  0  0  0  0  0  0  0  0  0  0
   -3.3516   -1.1178   -2.0482 C   0  0  0  0  0  0  0  0  0  0  0  0
   -3.6638   -2.0799   -2.4642 H   0  0  0  0  0  0  0  0  0  0  0  0
   -4.0586   -0.3353   -2.3643 H   0  0  0  0  0  0  0  0  0  0  0  0
   -3.3338   -1.1808   -0.9488 H   0  0  0  0  0  0  0  0  0  0  0  0
  1  2  2  0  0  0  0
  1  6  1  0  0  0  0
  2  3  1  0  0  0  0
  3  4  2  0  0  0  0
  4  9  1  0  0  0  0
  5  4  1  0  0  0  0
  5 10  1  0  0  0  0
  6  5  2  0  0  0  0
  7  1  1  0  0  0  0
 12 11  3  0  0  0  0
 13 19  1  0  0  0  0
 14 13  1  0  0  0  0
 14 20  1  0  0  0  0
 15 14  2  0  0  0  0
 16 17  2  0  0  0  0
 16 15  1  0  0  0  0
 17 18  1  0  0  0  0
 18 23  1  0  0  0  0
 18 13  2  0  0  0  0
 21 16  1  0  0  0  0
 22 17  1  0  0  0  0
 23 24  2  0  0  0  0
 25 23  1  0  0  0  0
 25  8  1  0  0  0  0
 26 23  2  0  0  0  0
 27 28  1  0  0  0  0
 27 15  1  0  0  0  0
 27 29  1  0  0  0  0
 30 27  1  0  0  0  0
 31  6  1  0  0  0  0
 31 32  1  0  0  0  0
 32 35  1  0  0  0  0
 33 32  1  0  0  0  0
 34 32  1  0  0  0  0
M  RAD  2   2   2   3   2
M  END
