Coordinates from ORCA-job p-CH3O-Ph-N2-OTs-B3LYPG-aug-cc-pVDZ-scan-d09-49-n400
 OpenBabel07022015293D

 35 34  0  0  0  0  0  0  0  0999 V2000
   -0.2628    0.2564   -2.9882 C   0  0  0  0  0  0  0  0  0  0  0  0
    0.4932    1.3913   -2.6808 C   0  0  0  0  0  0  0  0  0  0  0  0
    0.0403    2.2196   -1.8464 C   0  0  0  0  0  0  0  0  0  0  0  0
   -1.0993    2.3143   -1.0940 C   0  0  0  0  0  0  0  0  0  0  0  0
   -1.9046    1.1823   -1.3705 C   0  0  0  0  0  0  0  0  0  0  0  0
   -1.4981    0.1833   -2.2908 C   0  0  0  0  0  0  0  0  0  0  0  0
    0.0154   -0.5305   -3.6876 H   0  0  0  0  0  0  0  0  0  0  0  0
    2.2922    1.7267   -3.6149 H   0  0  0  0  0  0  0  0  0  0  0  0
   -1.3808    3.0980   -0.3965 H   0  0  0  0  0  0  0  0  0  0  0  0
   -2.8565    1.1022   -0.8505 H   0  0  0  0  0  0  0  0  0  0  0  0
    1.2160    4.7428   -0.8544 N   0  0  0  0  0  0  0  0  0  0  0  0
    2.0327    5.4854   -0.8429 N   0  0  0  0  0  0  0  0  0  0  0  0
    5.9805    0.7842   -2.8819 C   0  0  0  0  0  0  0  0  0  0  0  0
    7.1150   -0.0121   -3.0556 C   0  0  0  0  0  0  0  0  0  0  0  0
    7.9357    0.1281   -4.1856 C   0  0  0  0  0  0  0  0  0  0  0  0
    7.5935    1.0927   -5.1482 C   0  0  0  0  0  0  0  0  0  0  0  0
    6.4647    1.8987   -4.9960 C   0  0  0  0  0  0  0  0  0  0  0  0
    5.6697    1.7290   -3.8603 C   0  0  0  0  0  0  0  0  0  0  0  0
    5.3514    0.6827   -1.9995 H   0  0  0  0  0  0  0  0  0  0  0  0
    7.3682   -0.7500   -2.2931 H   0  0  0  0  0  0  0  0  0  0  0  0
    8.2250    1.2182   -6.0291 H   0  0  0  0  0  0  0  0  0  0  0  0
    6.2037    2.6528   -5.7358 H   0  0  0  0  0  0  0  0  0  0  0  0
    4.2129    2.7612   -3.6530 S   0  0  0  0  0  0  0  0  0  0  0  0
    3.9312    2.9574   -2.2084 O   0  0  0  0  0  0  0  0  0  0  0  0
    3.0482    1.7460   -4.2506 O   0  0  0  0  0  0  0  0  0  0  0  0
    4.3167    3.9193   -4.5661 O   0  0  0  0  0  0  0  0  0  0  0  0
    9.1693   -0.7230   -4.3634 C   0  0  0  0  0  0  0  0  0  0  0  0
   10.0810   -0.1132   -4.2789 H   0  0  0  0  0  0  0  0  0  0  0  0
    9.2227   -1.5184   -3.6095 H   0  0  0  0  0  0  0  0  0  0  0  0
    9.1853   -1.1933   -5.3566 H   0  0  0  0  0  0  0  0  0  0  0  0
   -2.2501   -0.9195   -2.5829 O   0  0  0  0  0  0  0  0  0  0  0  0
   -3.5176   -1.0759   -1.9538 C   0  0  0  0  0  0  0  0  0  0  0  0
   -3.9359   -2.0008   -2.3612 H   0  0  0  0  0  0  0  0  0  0  0  0
   -4.1867   -0.2345   -2.1916 H   0  0  0  0  0  0  0  0  0  0  0  0
   -3.4119   -1.1698   -0.8616 H   0  0  0  0  0  0  0  0  0  0  0  0
  1  2  2  0  0  0  0
  1  6  1  0  0  0  0
  2  3  1  0  0  0  0
  3  4  2  0  0  0  0
  4  9  1  0  0  0  0
  5  4  1  0  0  0  0
  5 10  1  0  0  0  0
  6  5  2  0  0  0  0
  7  1  1  0  0  0  0
 11 12  3  0  0  0  0
 13 19  1  0  0  0  0
 14 13  1  0  0  0  0
 14 20  1  0  0  0  0
 15 14  2  0  0  0  0
 16 17  2  0  0  0  0
 16 15  1  0  0  0  0
 17 18  1  0  0  0  0
 18 23  1  0  0  0  0
 18 13  2  0  0  0  0
 21 16  1  0  0  0  0
 22 17  1  0  0  0  0
 23 24  2  0  0  0  0
 25 23  1  0  0  0  0
 25  8  1  0  0  0  0
 26 23  2  0  0  0  0
 27 28  1  0  0  0  0
 27 15  1  0  0  0  0
 27 29  1  0  0  0  0
 30 27  1  0  0  0  0
 31  6  1  0  0  0  0
 31 32  1  0  0  0  0
 32 35  1  0  0  0  0
 33 32  1  0  0  0  0
 34 32  1  0  0  0  0
M  RAD  2   2   2   3   2
M  END
