Coordinates from ORCA-job p-CH3O-Ph-N2-OTs-B3LYPG-aug-cc-pVDZ-scan-d09-49-n400
 OpenBabel07022015293D

 35 34  0  0  0  0  0  0  0  0999 V2000
   -0.1191   -0.0274   -2.9640 C   0  0  0  0  0  0  0  0  0  0  0  0
    0.6221    1.1260   -2.7212 C   0  0  0  0  0  0  0  0  0  0  0  0
    0.1817    2.0470   -1.9886 C   0  0  0  0  0  0  0  0  0  0  0  0
   -0.9945    2.2168   -1.3004 C   0  0  0  0  0  0  0  0  0  0  0  0
   -1.8030    1.0723   -1.5019 C   0  0  0  0  0  0  0  0  0  0  0  0
   -1.3799   -0.0160   -2.3076 C   0  0  0  0  0  0  0  0  0  0  0  0
    0.1731   -0.8753   -3.5806 H   0  0  0  0  0  0  0  0  0  0  0  0
    2.4319    1.9828   -3.6310 H   0  0  0  0  0  0  0  0  0  0  0  0
   -1.2961    3.0637   -0.6900 H   0  0  0  0  0  0  0  0  0  0  0  0
   -2.7750    1.0500   -1.0144 H   0  0  0  0  0  0  0  0  0  0  0  0
    1.2507    5.3665   -0.8881 N   0  0  0  0  0  0  0  0  0  0  0  0
    2.0028    6.1740   -0.8613 N   0  0  0  0  0  0  0  0  0  0  0  0
    5.8995    0.8490   -2.8187 C   0  0  0  0  0  0  0  0  0  0  0  0
    6.9414   -0.0540   -3.0532 C   0  0  0  0  0  0  0  0  0  0  0  0
    7.7460    0.0464   -4.1977 C   0  0  0  0  0  0  0  0  0  0  0  0
    7.4871    1.0827   -5.1121 C   0  0  0  0  0  0  0  0  0  0  0  0
    6.4549    1.9952   -4.8984 C   0  0  0  0  0  0  0  0  0  0  0  0
    5.6701    1.8619   -3.7496 C   0  0  0  0  0  0  0  0  0  0  0  0
    5.2879    0.7826   -1.9209 H   0  0  0  0  0  0  0  0  0  0  0  0
    7.1343   -0.8436   -2.3257 H   0  0  0  0  0  0  0  0  0  0  0  0
    8.1090    1.1794   -6.0032 H   0  0  0  0  0  0  0  0  0  0  0  0
    6.2654    2.8078   -5.5971 H   0  0  0  0  0  0  0  0  0  0  0  0
    4.3329    3.0336   -3.4740 S   0  0  0  0  0  0  0  0  0  0  0  0
    3.9760    3.0477   -2.0335 O   0  0  0  0  0  0  0  0  0  0  0  0
    3.0763    2.3225   -4.2894 O   0  0  0  0  0  0  0  0  0  0  0  0
    4.6379    4.2771   -4.2092 O   0  0  0  0  0  0  0  0  0  0  0  0
    8.8769   -0.9210   -4.4482 C   0  0  0  0  0  0  0  0  0  0  0  0
    9.8447   -0.3989   -4.4620 H   0  0  0  0  0  0  0  0  0  0  0  0
    8.9213   -1.7007   -3.6775 H   0  0  0  0  0  0  0  0  0  0  0  0
    8.7627   -1.4163   -5.4233 H   0  0  0  0  0  0  0  0  0  0  0  0
   -2.1392   -1.1319   -2.5215 O   0  0  0  0  0  0  0  0  0  0  0  0
   -3.4300   -1.2119   -1.9256 C   0  0  0  0  0  0  0  0  0  0  0  0
   -3.8474   -2.1680   -2.2544 H   0  0  0  0  0  0  0  0  0  0  0  0
   -4.0788   -0.3918   -2.2692 H   0  0  0  0  0  0  0  0  0  0  0  0
   -3.3632   -1.1968   -0.8265 H   0  0  0  0  0  0  0  0  0  0  0  0
  1  2  2  0  0  0  0
  1  6  1  0  0  0  0
  2  3  1  0  0  0  0
  3  4  2  0  0  0  0
  4  9  1  0  0  0  0
  5  4  1  0  0  0  0
  5 10  1  0  0  0  0
  6  5  2  0  0  0  0
  7  1  1  0  0  0  0
 11 12  3  0  0  0  0
 13 19  1  0  0  0  0
 14 13  1  0  0  0  0
 14 20  1  0  0  0  0
 15 14  2  0  0  0  0
 16 17  2  0  0  0  0
 16 15  1  0  0  0  0
 17 18  1  0  0  0  0
 18 23  1  0  0  0  0
 18 13  2  0  0  0  0
 21 16  1  0  0  0  0
 22 17  1  0  0  0  0
 23 24  2  0  0  0  0
 25  8  1  0  0  0  0
 25 23  1  0  0  0  0
 26 23  2  0  0  0  0
 27 15  1  0  0  0  0
 27 29  1  0  0  0  0
 28 27  1  0  0  0  0
 30 27  1  0  0  0  0
 31  6  1  0  0  0  0
 31 32  1  0  0  0  0
 32 35  1  0  0  0  0
 33 32  1  0  0  0  0
 34 32  1  0  0  0  0
M  RAD  2   2   2   3   2
M  END
