Coordinates from ORCA-job p-CH3O-Ph-N2-OTs-B3LYPG-aug-cc-pVDZ-scan-d09-49-n400
 OpenBabel07022015293D

 35 34  0  0  0  0  0  0  0  0999 V2000
   -0.2133    0.3244   -2.8895 C   0  0  0  0  0  0  0  0  0  0  0  0
    0.5080    1.4834   -2.5765 C   0  0  0  0  0  0  0  0  0  0  0  0
   -0.0216    2.3082   -1.7808 C   0  0  0  0  0  0  0  0  0  0  0  0
   -1.1987    2.3918   -1.0901 C   0  0  0  0  0  0  0  0  0  0  0  0
   -1.9616    1.2349   -1.3810 C   0  0  0  0  0  0  0  0  0  0  0  0
   -1.4811    0.2294   -2.2571 C   0  0  0  0  0  0  0  0  0  0  0  0
    0.1198   -0.4702   -3.5559 H   0  0  0  0  0  0  0  0  0  0  0  0
    2.2898    1.7306   -3.5104 H   0  0  0  0  0  0  0  0  0  0  0  0
   -1.5327    3.1834   -0.4255 H   0  0  0  0  0  0  0  0  0  0  0  0
   -2.9372    1.1426   -0.9092 H   0  0  0  0  0  0  0  0  0  0  0  0
    1.1015    4.6037   -0.9587 N   0  0  0  0  0  0  0  0  0  0  0  0
    1.9475    5.3126   -0.9781 N   0  0  0  0  0  0  0  0  0  0  0  0
    6.0184    0.7626   -2.8719 C   0  0  0  0  0  0  0  0  0  0  0  0
    7.1524   -0.0279   -3.0699 C   0  0  0  0  0  0  0  0  0  0  0  0
    7.9498    0.1186   -4.2159 C   0  0  0  0  0  0  0  0  0  0  0  0
    7.5834    1.0831   -5.1695 C   0  0  0  0  0  0  0  0  0  0  0  0
    6.4537    1.8833   -4.9930 C   0  0  0  0  0  0  0  0  0  0  0  0
    5.6830    1.7075   -3.8420 C   0  0  0  0  0  0  0  0  0  0  0  0
    5.4079    0.6571   -1.9770 H   0  0  0  0  0  0  0  0  0  0  0  0
    7.4234   -0.7664   -2.3142 H   0  0  0  0  0  0  0  0  0  0  0  0
    8.1965    1.2129   -6.0626 H   0  0  0  0  0  0  0  0  0  0  0  0
    6.1739    2.6365   -5.7269 H   0  0  0  0  0  0  0  0  0  0  0  0
    4.2276    2.7339   -3.5964 S   0  0  0  0  0  0  0  0  0  0  0  0
    3.9952    2.9467   -2.1452 O   0  0  0  0  0  0  0  0  0  0  0  0
    3.0541    1.7012   -4.1396 O   0  0  0  0  0  0  0  0  0  0  0  0
    4.2942    3.8852   -4.5226 O   0  0  0  0  0  0  0  0  0  0  0  0
    9.1845   -0.7254   -4.4183 C   0  0  0  0  0  0  0  0  0  0  0  0
   10.0952   -0.1152   -4.3239 H   0  0  0  0  0  0  0  0  0  0  0  0
    9.2430   -1.5365   -3.6819 H   0  0  0  0  0  0  0  0  0  0  0  0
    9.1977   -1.1736   -5.4216 H   0  0  0  0  0  0  0  0  0  0  0  0
   -2.1869   -0.8989   -2.5651 O   0  0  0  0  0  0  0  0  0  0  0  0
   -3.4777   -1.0821   -1.9934 C   0  0  0  0  0  0  0  0  0  0  0  0
   -3.8488   -2.0263   -2.4022 H   0  0  0  0  0  0  0  0  0  0  0  0
   -4.1594   -0.2660   -2.2786 H   0  0  0  0  0  0  0  0  0  0  0  0
   -3.4211   -1.1531   -0.8958 H   0  0  0  0  0  0  0  0  0  0  0  0
  1  2  2  0  0  0  0
  1  6  1  0  0  0  0
  2  3  1  0  0  0  0
  3  4  2  0  0  0  0
  4  9  1  0  0  0  0
  5  4  1  0  0  0  0
  5 10  1  0  0  0  0
  6  5  2  0  0  0  0
  7  1  1  0  0  0  0
 12 11  3  0  0  0  0
 13 19  1  0  0  0  0
 14 13  1  0  0  0  0
 14 20  1  0  0  0  0
 15 14  2  0  0  0  0
 16 17  2  0  0  0  0
 16 15  1  0  0  0  0
 17 18  1  0  0  0  0
 18 23  1  0  0  0  0
 18 13  2  0  0  0  0
 21 16  1  0  0  0  0
 22 17  1  0  0  0  0
 23 24  2  0  0  0  0
 25 23  1  0  0  0  0
 25  8  1  0  0  0  0
 26 23  2  0  0  0  0
 27 28  1  0  0  0  0
 27 15  1  0  0  0  0
 27 29  1  0  0  0  0
 30 27  1  0  0  0  0
 31  6  1  0  0  0  0
 31 32  1  0  0  0  0
 32 35  1  0  0  0  0
 33 32  1  0  0  0  0
 34 32  1  0  0  0  0
M  RAD  2   2   2   3   2
M  END
