Coordinates from ORCA-job p-CH3O-Ph-N2-OTs-B3LYPG-aug-cc-pVDZ-scan-d09-49-n400
 OpenBabel07022015293D

 35 34  0  0  0  0  0  0  0  0999 V2000
   -0.4640    0.0366   -2.6036 C   0  0  0  0  0  0  0  0  0  0  0  0
    0.5746    0.9685   -2.7755 C   0  0  0  0  0  0  0  0  0  0  0  0
    0.2590    2.1311   -2.1717 C   0  0  0  0  0  0  0  0  0  0  0  0
   -0.7897    2.6039   -1.4457 C   0  0  0  0  0  0  0  0  0  0  0  0
   -1.7972    1.6293   -1.3013 C   0  0  0  0  0  0  0  0  0  0  0  0
   -1.6304    0.3548   -1.8780 C   0  0  0  0  0  0  0  0  0  0  0  0
   -0.3628   -0.9549   -3.0430 H   0  0  0  0  0  0  0  0  0  0  0  0
    1.5065    0.7403   -3.3500 H   0  0  0  0  0  0  0  0  0  0  0  0
   -0.8661    3.5997   -1.0208 H   0  0  0  0  0  0  0  0  0  0  0  0
   -2.6868    1.8977   -0.7384 H   0  0  0  0  0  0  0  0  0  0  0  0
    1.6334    3.5888   -2.3652 N   0  0  0  0  0  0  0  0  0  0  0  0
    1.9708    4.6413   -2.3680 N   0  0  0  0  0  0  0  0  0  0  0  0
    5.8482   -0.0204   -4.5975 C   0  0  0  0  0  0  0  0  0  0  0  0
    7.2014   -0.3653   -4.6945 C   0  0  0  0  0  0  0  0  0  0  0  0
    8.2086    0.4954   -4.2375 C   0  0  0  0  0  0  0  0  0  0  0  0
    7.8263    1.7286   -3.6810 C   0  0  0  0  0  0  0  0  0  0  0  0
    6.4839    2.0896   -3.5808 C   0  0  0  0  0  0  0  0  0  0  0  0
    5.5011    1.2073   -4.0397 C   0  0  0  0  0  0  0  0  0  0  0  0
    5.0689   -0.6937   -4.9494 H   0  0  0  0  0  0  0  0  0  0  0  0
    7.4759   -1.3248   -5.1353 H   0  0  0  0  0  0  0  0  0  0  0  0
    8.5915    2.4205   -3.3232 H   0  0  0  0  0  0  0  0  0  0  0  0
    6.1966    3.0486   -3.1530 H   0  0  0  0  0  0  0  0  0  0  0  0
    3.7674    1.7194   -3.9308 S   0  0  0  0  0  0  0  0  0  0  0  0
    3.5313    2.0510   -2.4576 O   0  0  0  0  0  0  0  0  0  0  0  0
    2.9458    0.5048   -4.3522 O   0  0  0  0  0  0  0  0  0  0  0  0
    3.5922    2.9133   -4.8217 O   0  0  0  0  0  0  0  0  0  0  0  0
    9.6653    0.1046   -4.3187 C   0  0  0  0  0  0  0  0  0  0  0  0
   10.0517   -0.1884   -3.3305 H   0  0  0  0  0  0  0  0  0  0  0  0
    9.8115   -0.7446   -4.9987 H   0  0  0  0  0  0  0  0  0  0  0  0
   10.2856    0.9394   -4.6747 H   0  0  0  0  0  0  0  0  0  0  0  0
   -2.5460   -0.6403   -1.7902 O   0  0  0  0  0  0  0  0  0  0  0  0
   -3.7626   -0.3935   -1.0833 C   0  0  0  0  0  0  0  0  0  0  0  0
   -4.3328   -1.3245   -1.1447 H   0  0  0  0  0  0  0  0  0  0  0  0
   -4.3331    0.4199   -1.5559 H   0  0  0  0  0  0  0  0  0  0  0  0
   -3.5659   -0.1523   -0.0281 H   0  0  0  0  0  0  0  0  0  0  0  0
  1  6  1  0  0  0  0
  2  1  2  0  0  0  0
  2  3  1  0  0  0  0
  3  4  2  0  0  0  0
  4  5  1  0  0  0  0
  4  9  1  0  0  0  0
  5 10  1  0  0  0  0
  6 31  1  0  0  0  0
  6  5  2  0  0  0  0
  7  1  1  0  0  0  0
  8  2  1  0  0  0  0
 12 11  3  0  0  0  0
 13 18  1  0  0  0  0
 14 13  2  0  0  0  0
 14 15  1  0  0  0  0
 15 16  2  0  0  0  0
 16 17  1  0  0  0  0
 16 21  1  0  0  0  0
 17 22  1  0  0  0  0
 18 23  1  0  0  0  0
 18 17  2  0  0  0  0
 19 13  1  0  0  0  0
 20 14  1  0  0  0  0
 23 24  1  0  0  0  0
 25 23  2  0  0  0  0
 26 23  2  0  0  0  0
 27 15  1  0  0  0  0
 27 28  1  0  0  0  0
 29 27  1  0  0  0  0
 30 27  1  0  0  0  0
 31 32  1  0  0  0  0
 32 35  1  0  0  0  0
 33 32  1  0  0  0  0
 34 32  1  0  0  0  0
M  RAD  2   3   2  24   2
M  END
