Coordinates from ORCA-job p-CH3O-Ph-N2-OTs-B3LYPG-aug-cc-pVDZ-scan-d09-49-n400
 OpenBabel07022015293D

 35 34  0  0  0  0  0  0  0  0999 V2000
   -0.0740    0.4698   -2.7994 C   0  0  0  0  0  0  0  0  0  0  0  0
    0.5949    1.6630   -2.4737 C   0  0  0  0  0  0  0  0  0  0  0  0
   -0.0476    2.4445   -1.7013 C   0  0  0  0  0  0  0  0  0  0  0  0
   -1.2599    2.4617   -1.0731 C   0  0  0  0  0  0  0  0  0  0  0  0
   -1.9470    1.2682   -1.3911 C   0  0  0  0  0  0  0  0  0  0  0  0
   -1.3633    0.2938   -2.2374 C   0  0  0  0  0  0  0  0  0  0  0  0
    0.3355   -0.3062   -3.4461 H   0  0  0  0  0  0  0  0  0  0  0  0
    2.2575    1.8403   -3.3949 H   0  0  0  0  0  0  0  0  0  0  0  0
   -1.6659    3.2391   -0.4315 H   0  0  0  0  0  0  0  0  0  0  0  0
   -2.9389    1.1241   -0.9698 H   0  0  0  0  0  0  0  0  0  0  0  0
    0.9381    4.3905   -1.0975 N   0  0  0  0  0  0  0  0  0  0  0  0
    1.8086    5.0700   -1.1201 N   0  0  0  0  0  0  0  0  0  0  0  0
    6.0036    0.7968   -2.8314 C   0  0  0  0  0  0  0  0  0  0  0  0
    7.1105   -0.0256   -3.0503 C   0  0  0  0  0  0  0  0  0  0  0  0
    7.8662    0.0703   -4.2298 C   0  0  0  0  0  0  0  0  0  0  0  0
    7.4848    1.0165   -5.1952 C   0  0  0  0  0  0  0  0  0  0  0  0
    6.3823    1.8495   -4.9969 C   0  0  0  0  0  0  0  0  0  0  0  0
    5.6532    1.7242   -3.8132 C   0  0  0  0  0  0  0  0  0  0  0  0
    5.4251    0.7292   -1.9120 H   0  0  0  0  0  0  0  0  0  0  0  0
    7.3919   -0.7514   -2.2860 H   0  0  0  0  0  0  0  0  0  0  0  0
    8.0632    1.1056   -6.1158 H   0  0  0  0  0  0  0  0  0  0  0  0
    6.0924    2.5897   -5.7402 H   0  0  0  0  0  0  0  0  0  0  0  0
    4.2295    2.7897   -3.5425 S   0  0  0  0  0  0  0  0  0  0  0  0
    4.0483    3.0285   -2.0865 O   0  0  0  0  0  0  0  0  0  0  0  0
    3.0202    1.7885   -4.0408 O   0  0  0  0  0  0  0  0  0  0  0  0
    4.3063    3.9317   -4.4805 O   0  0  0  0  0  0  0  0  0  0  0  0
    9.0768   -0.8042   -4.4489 C   0  0  0  0  0  0  0  0  0  0  0  0
   10.0037   -0.2413   -4.2592 H   0  0  0  0  0  0  0  0  0  0  0  0
    9.0712   -1.6733   -3.7791 H   0  0  0  0  0  0  0  0  0  0  0  0
    9.1237   -1.1675   -5.4843 H   0  0  0  0  0  0  0  0  0  0  0  0
   -1.9829   -0.8735   -2.5798 O   0  0  0  0  0  0  0  0  0  0  0  0
   -3.2867   -1.1371   -2.0719 C   0  0  0  0  0  0  0  0  0  0  0  0
   -3.5765   -2.1038   -2.4932 H   0  0  0  0  0  0  0  0  0  0  0  0
   -4.0042   -0.3672   -2.3948 H   0  0  0  0  0  0  0  0  0  0  0  0
   -3.2805   -1.2022   -0.9724 H   0  0  0  0  0  0  0  0  0  0  0  0
  1  2  2  0  0  0  0
  1  6  1  0  0  0  0
  2  3  1  0  0  0  0
  3  4  2  0  0  0  0
  4  9  1  0  0  0  0
  5  4  1  0  0  0  0
  5 10  1  0  0  0  0
  6  5  2  0  0  0  0
  7  1  1  0  0  0  0
 12 11  3  0  0  0  0
 13 19  1  0  0  0  0
 14 13  1  0  0  0  0
 14 20  1  0  0  0  0
 15 14  2  0  0  0  0
 16 17  2  0  0  0  0
 16 15  1  0  0  0  0
 17 18  1  0  0  0  0
 18 23  1  0  0  0  0
 18 13  2  0  0  0  0
 21 16  1  0  0  0  0
 22 17  1  0  0  0  0
 23 24  2  0  0  0  0
 25 23  1  0  0  0  0
 25  8  1  0  0  0  0
 26 23  2  0  0  0  0
 27 28  1  0  0  0  0
 27 15  1  0  0  0  0
 27 29  1  0  0  0  0
 30 27  1  0  0  0  0
 31  6  1  0  0  0  0
 31 32  1  0  0  0  0
 32 35  1  0  0  0  0
 33 32  1  0  0  0  0
 34 32  1  0  0  0  0
M  RAD  2   2   2   3   2
M  END
