Coordinates from ORCA-job p-CH3O-Ph-N2-OTs-B3LYPG-aug-cc-pVDZ-scan-d09-49-n400
 OpenBabel07022015293D

 35 35  0  0  0  0  0  0  0  0999 V2000
   -0.6389    0.0148   -2.4174 C   0  0  0  0  0  0  0  0  0  0  0  0
    0.4453    0.8643   -2.5835 C   0  0  0  0  0  0  0  0  0  0  0  0
    0.2448    2.1978   -2.2076 C   0  0  0  0  0  0  0  0  0  0  0  0
   -0.9376    2.7067   -1.6756 C   0  0  0  0  0  0  0  0  0  0  0  0
   -2.0103    1.8344   -1.5195 C   0  0  0  0  0  0  0  0  0  0  0  0
   -1.8616    0.4827   -1.8918 C   0  0  0  0  0  0  0  0  0  0  0  0
   -0.5512   -1.0366   -2.6857 H   0  0  0  0  0  0  0  0  0  0  0  0
    1.4002    0.4891   -2.9648 H   0  0  0  0  0  0  0  0  0  0  0  0
   -1.0182    3.7543   -1.3942 H   0  0  0  0  0  0  0  0  0  0  0  0
   -2.9422    2.2104   -1.1083 H   0  0  0  0  0  0  0  0  0  0  0  0
    1.3713    3.1769   -2.3719 N   0  0  0  0  0  0  0  0  0  0  0  0
    2.3434    3.6408   -2.6847 N   0  0  0  0  0  0  0  0  0  0  0  0
    6.1054   -0.1900   -4.3893 C   0  0  0  0  0  0  0  0  0  0  0  0
    7.4442   -0.2981   -4.7821 C   0  0  0  0  0  0  0  0  0  0  0  0
    8.3748    0.7053   -4.4813 C   0  0  0  0  0  0  0  0  0  0  0  0
    7.9297    1.8345   -3.7701 C   0  0  0  0  0  0  0  0  0  0  0  0
    6.5998    1.9584   -3.3716 C   0  0  0  0  0  0  0  0  0  0  0  0
    5.6952    0.9392   -3.6848 C   0  0  0  0  0  0  0  0  0  0  0  0
    5.3827   -0.9716   -4.6163 H   0  0  0  0  0  0  0  0  0  0  0  0
    7.7697   -1.1827   -5.3319 H   0  0  0  0  0  0  0  0  0  0  0  0
    8.6372    2.6287   -3.5234 H   0  0  0  0  0  0  0  0  0  0  0  0
    6.2635    2.8315   -2.8150 H   0  0  0  0  0  0  0  0  0  0  0  0
    3.9669    1.1096   -3.1814 S   0  0  0  0  0  0  0  0  0  0  0  0
    3.9535    1.5372   -1.7354 O   0  0  0  0  0  0  0  0  0  0  0  0
    3.3015   -0.2165   -3.4523 O   0  0  0  0  0  0  0  0  0  0  0  0
    3.3840    2.2201   -4.0784 O   0  0  0  0  0  0  0  0  0  0  0  0
    9.8225    0.5814   -4.8931 C   0  0  0  0  0  0  0  0  0  0  0  0
   10.4783    0.4929   -4.0138 H   0  0  0  0  0  0  0  0  0  0  0  0
    9.9837   -0.3027   -5.5229 H   0  0  0  0  0  0  0  0  0  0  0  0
   10.1537    1.4657   -5.4570 H   0  0  0  0  0  0  0  0  0  0  0  0
   -2.8355   -0.4441   -1.7760 O   0  0  0  0  0  0  0  0  0  0  0  0
   -4.1045   -0.0570   -1.2395 C   0  0  0  0  0  0  0  0  0  0  0  0
   -4.7063   -0.9698   -1.2261 H   0  0  0  0  0  0  0  0  0  0  0  0
   -4.5869    0.6966   -1.8788 H   0  0  0  0  0  0  0  0  0  0  0  0
   -3.9978    0.3275   -0.2151 H   0  0  0  0  0  0  0  0  0  0  0  0
  1  6  1  0  0  0  0
  2  1  2  0  0  0  0
  2  3  1  0  0  0  0
  3  4  2  0  0  0  0
  4  5  1  0  0  0  0
  4  9  1  0  0  0  0
  5 10  1  0  0  0  0
  6 31  1  0  0  0  0
  6  5  2  0  0  0  0
  7  1  1  0  0  0  0
  8  2  1  0  0  0  0
 11  3  1  0  0  0  0
 12 11  1  0  0  0  0
 13 18  2  0  0  0  0
 14 15  2  0  0  0  0
 14 13  1  0  0  0  0
 15 16  1  0  0  0  0
 16 21  1  0  0  0  0
 16 17  2  0  0  0  0
 17 22  1  0  0  0  0
 18 17  1  0  0  0  0
 18 23  1  0  0  0  0
 19 13  1  0  0  0  0
 20 14  1  0  0  0  0
 23 24  1  0  0  0  0
 25 23  2  0  0  0  0
 26 23  2  0  0  0  0
 27 15  1  0  0  0  0
 27 28  1  0  0  0  0
 29 27  1  0  0  0  0
 30 27  1  0  0  0  0
 31 32  1  0  0  0  0
 32 33  1  0  0  0  0
 32 35  1  0  0  0  0
 34 32  1  0  0  0  0
M  RAD  3  11   2  12   3  24   2
M  END
