Coordinates from ORCA-job p-CH3O-Ph-N2-OTs-B3LYPG-aug-cc-pVDZ-scan-d09-49-n400
 OpenBabel07022015293D

 35 35  0  0  0  0  0  0  0  0999 V2000
   -0.5545    0.0756   -2.4149 C   0  0  0  0  0  0  0  0  0  0  0  0
    0.4944    0.9892   -2.5431 C   0  0  0  0  0  0  0  0  0  0  0  0
    0.1427    2.2621   -2.1720 C   0  0  0  0  0  0  0  0  0  0  0  0
   -1.0412    2.7581   -1.6882 C   0  0  0  0  0  0  0  0  0  0  0  0
   -2.0661    1.8097   -1.5742 C   0  0  0  0  0  0  0  0  0  0  0  0
   -1.8203    0.4710   -1.9367 C   0  0  0  0  0  0  0  0  0  0  0  0
   -0.3871   -0.9673   -2.6790 H   0  0  0  0  0  0  0  0  0  0  0  0
    1.4880    0.6711   -2.8840 H   0  0  0  0  0  0  0  0  0  0  0  0
   -1.1794    3.7996   -1.4129 H   0  0  0  0  0  0  0  0  0  0  0  0
   -3.0339    2.1318   -1.2012 H   0  0  0  0  0  0  0  0  0  0  0  0
    1.4250    3.5081   -2.2951 N   0  0  0  0  0  0  0  0  0  0  0  0
    2.4293    3.8410   -2.6566 N   0  0  0  0  0  0  0  0  0  0  0  0
    6.0390   -0.1806   -4.3294 C   0  0  0  0  0  0  0  0  0  0  0  0
    7.3535   -0.3236   -4.7887 C   0  0  0  0  0  0  0  0  0  0  0  0
    8.3265    0.6502   -4.5266 C   0  0  0  0  0  0  0  0  0  0  0  0
    7.9496    1.7852   -3.7863 C   0  0  0  0  0  0  0  0  0  0  0  0
    6.6453    1.9435   -3.3208 C   0  0  0  0  0  0  0  0  0  0  0  0
    5.6976    0.9535   -3.5962 C   0  0  0  0  0  0  0  0  0  0  0  0
    5.2856   -0.9413   -4.5263 H   0  0  0  0  0  0  0  0  0  0  0  0
    7.6255   -1.2133   -5.3590 H   0  0  0  0  0  0  0  0  0  0  0  0
    8.6910    2.5568   -3.5687 H   0  0  0  0  0  0  0  0  0  0  0  0
    6.3618    2.8187   -2.7386 H   0  0  0  0  0  0  0  0  0  0  0  0
    4.0060    1.1806   -2.9980 S   0  0  0  0  0  0  0  0  0  0  0  0
    4.0884    1.6880   -1.5851 O   0  0  0  0  0  0  0  0  0  0  0  0
    3.3051   -0.1480   -3.1608 O   0  0  0  0  0  0  0  0  0  0  0  0
    3.3799    2.2405   -3.9292 O   0  0  0  0  0  0  0  0  0  0  0  0
    9.7485    0.4873   -5.0083 C   0  0  0  0  0  0  0  0  0  0  0  0
   10.4426    0.3778   -4.1614 H   0  0  0  0  0  0  0  0  0  0  0  0
    9.8545   -0.3997   -5.6457 H   0  0  0  0  0  0  0  0  0  0  0  0
   10.0771    1.3635   -5.5860 H   0  0  0  0  0  0  0  0  0  0  0  0
   -2.7430   -0.5164   -1.8535 O   0  0  0  0  0  0  0  0  0  0  0  0
   -4.0424   -0.2029   -1.3479 C   0  0  0  0  0  0  0  0  0  0  0  0
   -4.5918   -1.1483   -1.3425 H   0  0  0  0  0  0  0  0  0  0  0  0
   -4.5553    0.5193   -2.0006 H   0  0  0  0  0  0  0  0  0  0  0  0
   -3.9815    0.1912   -0.3228 H   0  0  0  0  0  0  0  0  0  0  0  0
  1  6  1  0  0  0  0
  2  1  2  0  0  0  0
  2  3  1  0  0  0  0
  3  4  2  0  0  0  0
  4  5  1  0  0  0  0
  4  9  1  0  0  0  0
  5 10  1  0  0  0  0
  6 31  1  0  0  0  0
  6  5  2  0  0  0  0
  7  1  1  0  0  0  0
  8  2  1  0  0  0  0
 11  3  1  0  0  0  0
 12 11  2  0  0  0  0
 13 18  2  0  0  0  0
 14 15  2  0  0  0  0
 14 13  1  0  0  0  0
 15 16  1  0  0  0  0
 16 21  1  0  0  0  0
 16 17  2  0  0  0  0
 17 22  1  0  0  0  0
 18 17  1  0  0  0  0
 18 23  1  0  0  0  0
 19 13  1  0  0  0  0
 20 14  1  0  0  0  0
 23 24  1  0  0  0  0
 25 23  2  0  0  0  0
 26 23  2  0  0  0  0
 27 15  1  0  0  0  0
 27 28  1  0  0  0  0
 29 27  1  0  0  0  0
 30 27  1  0  0  0  0
 31 32  1  0  0  0  0
 32 33  1  0  0  0  0
 32 35  1  0  0  0  0
 34 32  1  0  0  0  0
M  RAD  2  12   2  24   2
M  END
