Coordinates from ORCA-job p-CH3O-Ph-N2-OTs-B3LYPG-aug-cc-pVDZ-scan-d09-49-n400
 OpenBabel07022015293D

 35 36  0  0  1  0  0  0  0  0999 V2000
    1.2968    0.6579   -2.7773 C   0  0  0  0  0  0  0  0  0  0  0  0
    1.3380    1.8258   -3.6908 C   0  0  1  0  0  0  0  0  0  0  0  0
   -0.0112    2.6169   -3.7576 C   0  0  1  0  0  0  0  0  0  0  0  0
   -0.8847    2.4833   -2.5597 C   0  0  0  0  0  0  0  0  0  0  0  0
   -0.6957    1.5208   -1.6352 C   0  0  0  0  0  0  0  0  0  0  0  0
    0.3812    0.5465   -1.7860 C   0  0  0  0  0  0  0  0  0  0  0  0
    2.0807   -0.0919   -2.8732 H   0  0  0  0  0  0  0  0  0  0  0  0
    1.6050    1.5553   -4.7185 H   0  0  0  0  0  0  0  0  0  0  0  0
   -1.6947    3.2093   -2.4838 H   0  0  0  0  0  0  0  0  0  0  0  0
   -1.3611    1.4678   -0.7773 H   0  0  0  0  0  0  0  0  0  0  0  0
   -0.2186    3.1785   -4.5211 N   0  0  0  0  0  0  0  0  0  0  0  0
   -0.4685    3.8568   -5.4451 N   0  0  0  0  0  0  0  0  0  0  0  0
    5.0363    0.9396   -4.9608 C   0  0  0  0  0  0  0  0  0  0  0  0
    5.9768   -0.0672   -4.7347 C   0  0  0  0  0  0  0  0  0  0  0  0
    6.6857   -0.1442   -3.5249 C   0  0  0  0  0  0  0  0  0  0  0  0
    6.4366    0.8272   -2.5409 C   0  0  0  0  0  0  0  0  0  0  0  0
    5.5049    1.8455   -2.7468 C   0  0  0  0  0  0  0  0  0  0  0  0
    4.8100    1.8835   -3.9571 C   0  0  0  0  0  0  0  0  0  0  0  0
    4.5000    1.0090   -5.9049 H   0  0  0  0  0  0  0  0  0  0  0  0
    6.1682   -0.8008   -5.5196 H   0  0  0  0  0  0  0  0  0  0  0  0
    6.9850    0.7943   -1.5987 H   0  0  0  0  0  0  0  0  0  0  0  0
    5.3271    2.6059   -1.9882 H   0  0  0  0  0  0  0  0  0  0  0  0
    3.6210    3.2037   -4.2391 S   0  0  0  0  0  0  0  0  0  0  0  0
    2.3584    2.7927   -3.2179 O   0  0  0  0  0  0  0  0  0  0  0  0
    3.1445    3.1129   -5.6403 O   0  0  0  0  0  0  0  0  0  0  0  0
    4.1361    4.4603   -3.6646 O   0  0  0  0  0  0  0  0  0  0  0  0
    7.6849   -1.2517   -3.2934 C   0  0  0  0  0  0  0  0  0  0  0  0
    7.1725   -2.2117   -3.1305 H   0  0  0  0  0  0  0  0  0  0  0  0
    8.3455   -1.3794   -4.1622 H   0  0  0  0  0  0  0  0  0  0  0  0
    8.3076   -1.0497   -2.4133 H   0  0  0  0  0  0  0  0  0  0  0  0
    0.5073   -0.5055   -0.9233 O   0  0  0  0  0  0  0  0  0  0  0  0
   -0.6008   -0.8767   -0.1016 C   0  0  0  0  0  0  0  0  0  0  0  0
   -0.3135   -1.8246    0.3634 H   0  0  0  0  0  0  0  0  0  0  0  0
   -1.5105   -1.0257   -0.7009 H   0  0  0  0  0  0  0  0  0  0  0  0
   -0.7903   -0.1327    0.6858 H   0  0  0  0  0  0  0  0  0  0  0  0
  1  6  2  0  0  0  0
  2  8  1  6  0  0  0
  2 24  1  0  0  0  0
  2  1  1  0  0  0  0
  3 11  1  1  0  0  0
  3  2  1  0  0  0  0
  3  4  1  0  0  0  0
  4  9  1  0  0  0  0
  4  5  2  0  0  0  0
  5 10  1  0  0  0  0
  6  5  1  0  0  0  0
  6 31  1  0  0  0  0
  7  1  1  0  0  0  0
 12 11  1  0  0  0  0
 13 14  2  0  0  0  0
 13 18  1  0  0  0  0
 14 15  1  0  0  0  0
 15 27  1  0  0  0  0
 15 16  2  0  0  0  0
 16 21  1  0  0  0  0
 17 16  1  0  0  0  0
 17 22  1  0  0  0  0
 18 17  2  0  0  0  0
 19 13  1  0  0  0  0
 20 14  1  0  0  0  0
 23 18  1  0  0  0  0
 23 26  2  0  0  0  0
 23 24  1  0  0  0  0
 25 23  2  0  0  0  0
 27 28  1  0  0  0  0
 27 30  1  0  0  0  0
 29 27  1  0  0  0  0
 31 32  1  0  0  0  0
 32 33  1  0  0  0  0
 32 35  1  0  0  0  0
 34 32  1  0  0  0  0
M  RAD  3   3   2  11   2  12   3
M  END
