Coordinates from ORCA-job p-CH3O-Ph-N2-OTs-B3LYPG-aug-cc-pVDZ-scan-d09-49-n400
 OpenBabel07022015293D

 35 34  0  0  0  0  0  0  0  0999 V2000
   -0.2770    0.1973   -3.0271 C   0  0  0  0  0  0  0  0  0  0  0  0
    0.4921    1.3221   -2.7226 C   0  0  0  0  0  0  0  0  0  0  0  0
    0.0712    2.1573   -1.8804 C   0  0  0  0  0  0  0  0  0  0  0  0
   -1.0580    2.2627   -1.1115 C   0  0  0  0  0  0  0  0  0  0  0  0
   -1.8810    1.1416   -1.3807 C   0  0  0  0  0  0  0  0  0  0  0  0
   -1.5023    0.1398   -2.3101 C   0  0  0  0  0  0  0  0  0  0  0  0
   -0.0197   -0.5896   -3.7342 H   0  0  0  0  0  0  0  0  0  0  0  0
    2.3049    1.7342   -3.6632 H   0  0  0  0  0  0  0  0  0  0  0  0
   -1.3212    3.0465   -0.4069 H   0  0  0  0  0  0  0  0  0  0  0  0
   -2.8262    1.0705   -0.8473 H   0  0  0  0  0  0  0  0  0  0  0  0
    1.2915    4.9526   -0.7127 N   0  0  0  0  0  0  0  0  0  0  0  0
    2.0939    5.7101   -0.6868 N   0  0  0  0  0  0  0  0  0  0  0  0
    5.9641    0.8068   -2.8851 C   0  0  0  0  0  0  0  0  0  0  0  0
    7.0936    0.0004   -3.0464 C   0  0  0  0  0  0  0  0  0  0  0  0
    7.9197    0.1233   -4.1744 C   0  0  0  0  0  0  0  0  0  0  0  0
    7.5886    1.0811   -5.1476 C   0  0  0  0  0  0  0  0  0  0  0  0
    6.4657    1.8972   -5.0076 C   0  0  0  0  0  0  0  0  0  0  0  0
    5.6647    1.7447   -3.8736 C   0  0  0  0  0  0  0  0  0  0  0  0
    5.3309    0.7181   -2.0042 H   0  0  0  0  0  0  0  0  0  0  0  0
    7.3386   -0.7318   -2.2758 H   0  0  0  0  0  0  0  0  0  0  0  0
    8.2242    1.1939   -6.0273 H   0  0  0  0  0  0  0  0  0  0  0  0
    6.2138    2.6467   -5.7552 H   0  0  0  0  0  0  0  0  0  0  0  0
    4.2135    2.7889   -3.6860 S   0  0  0  0  0  0  0  0  0  0  0  0
    3.9076    2.9781   -2.2456 O   0  0  0  0  0  0  0  0  0  0  0  0
    3.0449    1.7940   -4.3125 O   0  0  0  0  0  0  0  0  0  0  0  0
    4.3439    3.9484   -4.5932 O   0  0  0  0  0  0  0  0  0  0  0  0
    9.1476   -0.7386   -4.3397 C   0  0  0  0  0  0  0  0  0  0  0  0
   10.0634   -0.1339   -4.2636 H   0  0  0  0  0  0  0  0  0  0  0  0
    9.1957   -1.5237   -3.5748 H   0  0  0  0  0  0  0  0  0  0  0  0
    9.1604   -1.2230   -5.3262 H   0  0  0  0  0  0  0  0  0  0  0  0
   -2.2738   -0.9518   -2.5933 O   0  0  0  0  0  0  0  0  0  0  0  0
   -3.5344   -1.0918   -1.9463 C   0  0  0  0  0  0  0  0  0  0  0  0
   -3.9713   -2.0100   -2.3494 H   0  0  0  0  0  0  0  0  0  0  0  0
   -4.1950   -0.2408   -2.1729 H   0  0  0  0  0  0  0  0  0  0  0  0
   -3.4145   -1.1895   -0.8559 H   0  0  0  0  0  0  0  0  0  0  0  0
  1  2  2  0  0  0  0
  1  6  1  0  0  0  0
  2  3  1  0  0  0  0
  3  4  2  0  0  0  0
  4  9  1  0  0  0  0
  5  4  1  0  0  0  0
  5 10  1  0  0  0  0
  6  5  2  0  0  0  0
  7  1  1  0  0  0  0
 11 12  3  0  0  0  0
 13 19  1  0  0  0  0
 14 13  1  0  0  0  0
 14 20  1  0  0  0  0
 15 14  2  0  0  0  0
 16 17  2  0  0  0  0
 16 15  1  0  0  0  0
 17 18  1  0  0  0  0
 18 23  1  0  0  0  0
 18 13  2  0  0  0  0
 21 16  1  0  0  0  0
 22 17  1  0  0  0  0
 23 24  2  0  0  0  0
 25 23  1  0  0  0  0
 25  8  1  0  0  0  0
 26 23  2  0  0  0  0
 27 28  1  0  0  0  0
 27 15  1  0  0  0  0
 27 29  1  0  0  0  0
 30 27  1  0  0  0  0
 31  6  1  0  0  0  0
 31 32  1  0  0  0  0
 32 35  1  0  0  0  0
 33 32  1  0  0  0  0
 34 32  1  0  0  0  0
M  RAD  2   2   2   3   2
M  END
