Coordinates from ORCA-job p-CH3O-Ph-N2-OTs-B3LYPG-aug-cc-pVDZ-scan-d09-49-n400
 OpenBabel07022015293D

 35 34  0  0  0  0  0  0  0  0999 V2000
   -0.1591    0.3823   -2.8438 C   0  0  0  0  0  0  0  0  0  0  0  0
    0.5392    1.5563   -2.5244 C   0  0  0  0  0  0  0  0  0  0  0  0
   -0.0392    2.3659   -1.7428 C   0  0  0  0  0  0  0  0  0  0  0  0
   -1.2332    2.4280   -1.0824 C   0  0  0  0  0  0  0  0  0  0  0  0
   -1.9651    1.2552   -1.3854 C   0  0  0  0  0  0  0  0  0  0  0  0
   -1.4395    0.2583   -2.2448 C   0  0  0  0  0  0  0  0  0  0  0  0
    0.2076   -0.4076   -3.4985 H   0  0  0  0  0  0  0  0  0  0  0  0
    2.2780    1.7633   -3.4601 H   0  0  0  0  0  0  0  0  0  0  0  0
   -1.5989    3.2165   -0.4304 H   0  0  0  0  0  0  0  0  0  0  0  0
   -2.9503    1.1446   -0.9382 H   0  0  0  0  0  0  0  0  0  0  0  0
    1.0369    4.5094   -1.0231 N   0  0  0  0  0  0  0  0  0  0  0  0
    1.8859    5.2146   -1.0481 N   0  0  0  0  0  0  0  0  0  0  0  0
    6.0136    0.7642   -2.8611 C   0  0  0  0  0  0  0  0  0  0  0  0
    7.1399   -0.0348   -3.0688 C   0  0  0  0  0  0  0  0  0  0  0  0
    7.9255    0.1022   -4.2241 C   0  0  0  0  0  0  0  0  0  0  0  0
    7.5546    1.0653   -5.1773 C   0  0  0  0  0  0  0  0  0  0  0  0
    6.4323    1.8738   -4.9911 C   0  0  0  0  0  0  0  0  0  0  0  0
    5.6736    1.7078   -3.8307 C   0  0  0  0  0  0  0  0  0  0  0  0
    5.4126    0.6660   -1.9590 H   0  0  0  0  0  0  0  0  0  0  0  0
    7.4140   -0.7726   -2.3135 H   0  0  0  0  0  0  0  0  0  0  0  0
    8.1581    1.1873   -6.0780 H   0  0  0  0  0  0  0  0  0  0  0  0
    6.1491    2.6259   -5.7249 H   0  0  0  0  0  0  0  0  0  0  0  0
    4.2281    2.7452   -3.5719 S   0  0  0  0  0  0  0  0  0  0  0  0
    4.0184    2.9688   -2.1185 O   0  0  0  0  0  0  0  0  0  0  0  0
    3.0426    1.7184   -4.0929 O   0  0  0  0  0  0  0  0  0  0  0  0
    4.2919    3.8924   -4.5039 O   0  0  0  0  0  0  0  0  0  0  0  0
    9.1533   -0.7496   -4.4357 C   0  0  0  0  0  0  0  0  0  0  0  0
   10.0689   -0.1488   -4.3288 H   0  0  0  0  0  0  0  0  0  0  0  0
    9.2025   -1.5719   -3.7111 H   0  0  0  0  0  0  0  0  0  0  0  0
    9.1664   -1.1826   -5.4456 H   0  0  0  0  0  0  0  0  0  0  0  0
   -2.1105   -0.8869   -2.5666 O   0  0  0  0  0  0  0  0  0  0  0  0
   -3.4092   -1.1005   -2.0241 C   0  0  0  0  0  0  0  0  0  0  0  0
   -3.7466   -2.0556   -2.4367 H   0  0  0  0  0  0  0  0  0  0  0  0
   -4.1049   -0.3035   -2.3287 H   0  0  0  0  0  0  0  0  0  0  0  0
   -3.3763   -1.1655   -0.9251 H   0  0  0  0  0  0  0  0  0  0  0  0
  1  2  2  0  0  0  0
  1  6  1  0  0  0  0
  2  3  1  0  0  0  0
  3  4  2  0  0  0  0
  4  9  1  0  0  0  0
  5  4  1  0  0  0  0
  5 10  1  0  0  0  0
  6  5  2  0  0  0  0
  7  1  1  0  0  0  0
 12 11  3  0  0  0  0
 13 19  1  0  0  0  0
 14 13  1  0  0  0  0
 14 20  1  0  0  0  0
 15 14  2  0  0  0  0
 16 17  2  0  0  0  0
 16 15  1  0  0  0  0
 17 18  1  0  0  0  0
 18 23  1  0  0  0  0
 18 13  2  0  0  0  0
 21 16  1  0  0  0  0
 22 17  1  0  0  0  0
 23 24  2  0  0  0  0
 25 23  1  0  0  0  0
 25  8  1  0  0  0  0
 26 23  2  0  0  0  0
 27 28  1  0  0  0  0
 27 15  1  0  0  0  0
 27 29  1  0  0  0  0
 30 27  1  0  0  0  0
 31  6  1  0  0  0  0
 31 32  1  0  0  0  0
 32 35  1  0  0  0  0
 33 32  1  0  0  0  0
 34 32  1  0  0  0  0
M  RAD  2   2   2   3   2
M  END
