Coordinates from ORCA-job p-CH3O-Ph-N2-OTs-B3LYPG-aug-cc-pVDZ-scan-d09-49-n400
 OpenBabel07022015293D

 35 34  0  0  0  0  0  0  0  0999 V2000
   -0.2727    0.2243   -3.0124 C   0  0  0  0  0  0  0  0  0  0  0  0
    0.4912    1.3531   -2.7066 C   0  0  0  0  0  0  0  0  0  0  0  0
    0.0579    2.1853   -1.8667 C   0  0  0  0  0  0  0  0  0  0  0  0
   -1.0751    2.2848   -1.1034 C   0  0  0  0  0  0  0  0  0  0  0  0
   -1.8909    1.1593   -1.3757 C   0  0  0  0  0  0  0  0  0  0  0  0
   -1.5014    0.1594   -2.3024 C   0  0  0  0  0  0  0  0  0  0  0  0
   -0.0071   -0.5621   -3.7171 H   0  0  0  0  0  0  0  0  0  0  0  0
    2.3007    1.7326   -3.6421 H   0  0  0  0  0  0  0  0  0  0  0  0
   -1.3455    3.0679   -0.4009 H   0  0  0  0  0  0  0  0  0  0  0  0
   -2.8384    1.0841   -0.8469 H   0  0  0  0  0  0  0  0  0  0  0  0
    1.2498    4.8592   -0.7718 N   0  0  0  0  0  0  0  0  0  0  0  0
    2.0551    5.6137   -0.7483 N   0  0  0  0  0  0  0  0  0  0  0  0
    5.9731    0.7978   -2.8837 C   0  0  0  0  0  0  0  0  0  0  0  0
    7.1045   -0.0047   -3.0502 C   0  0  0  0  0  0  0  0  0  0  0  0
    7.9279    0.1246   -4.1794 C   0  0  0  0  0  0  0  0  0  0  0  0
    7.5919    1.0848   -5.1487 C   0  0  0  0  0  0  0  0  0  0  0  0
    6.4667    1.8970   -5.0036 C   0  0  0  0  0  0  0  0  0  0  0  0
    5.6686    1.7380   -3.8684 C   0  0  0  0  0  0  0  0  0  0  0  0
    5.3419    0.7043   -2.0018 H   0  0  0  0  0  0  0  0  0  0  0  0
    7.3531   -0.7389   -2.2826 H   0  0  0  0  0  0  0  0  0  0  0  0
    8.2254    1.2023   -6.0292 H   0  0  0  0  0  0  0  0  0  0  0  0
    6.2107    2.6479   -5.7483 H   0  0  0  0  0  0  0  0  0  0  0  0
    4.2150    2.7773   -3.6728 S   0  0  0  0  0  0  0  0  0  0  0  0
    3.9197    2.9709   -2.2308 O   0  0  0  0  0  0  0  0  0  0  0  0
    3.0481    1.7729   -4.2854 O   0  0  0  0  0  0  0  0  0  0  0  0
    4.3337    3.9354   -4.5837 O   0  0  0  0  0  0  0  0  0  0  0  0
    9.1580   -0.7331   -4.3500 C   0  0  0  0  0  0  0  0  0  0  0  0
   10.0722   -0.1264   -4.2708 H   0  0  0  0  0  0  0  0  0  0  0  0
    9.2083   -1.5223   -3.5895 H   0  0  0  0  0  0  0  0  0  0  0  0
    9.1718   -1.2119   -5.3392 H   0  0  0  0  0  0  0  0  0  0  0  0
   -2.2648   -0.9369   -2.5895 O   0  0  0  0  0  0  0  0  0  0  0  0
   -3.5275   -1.0846   -1.9485 C   0  0  0  0  0  0  0  0  0  0  0  0
   -3.9568   -2.0055   -2.3535 H   0  0  0  0  0  0  0  0  0  0  0  0
   -4.1923   -0.2376   -2.1785 H   0  0  0  0  0  0  0  0  0  0  0  0
   -3.4123   -1.1813   -0.8575 H   0  0  0  0  0  0  0  0  0  0  0  0
  1  2  2  0  0  0  0
  1  6  1  0  0  0  0
  2  3  1  0  0  0  0
  3  4  2  0  0  0  0
  4  9  1  0  0  0  0
  5  4  1  0  0  0  0
  5 10  1  0  0  0  0
  6  5  2  0  0  0  0
  7  1  1  0  0  0  0
 11 12  3  0  0  0  0
 13 19  1  0  0  0  0
 14 13  1  0  0  0  0
 14 20  1  0  0  0  0
 15 14  2  0  0  0  0
 16 17  2  0  0  0  0
 16 15  1  0  0  0  0
 17 18  1  0  0  0  0
 18 23  1  0  0  0  0
 18 13  2  0  0  0  0
 21 16  1  0  0  0  0
 22 17  1  0  0  0  0
 23 24  2  0  0  0  0
 25 23  1  0  0  0  0
 25  8  1  0  0  0  0
 26 23  2  0  0  0  0
 27 28  1  0  0  0  0
 27 15  1  0  0  0  0
 27 29  1  0  0  0  0
 30 27  1  0  0  0  0
 31  6  1  0  0  0  0
 31 32  1  0  0  0  0
 32 35  1  0  0  0  0
 33 32  1  0  0  0  0
 34 32  1  0  0  0  0
M  RAD  2   2   2   3   2
M  END
