Coordinates from ORCA-job p-CH3O-Ph-N2-OTs-B3LYPG-aug-cc-pVDZ-scan-d09-49-n400
 OpenBabel07022015293D

 35 34  0  0  0  0  0  0  0  0999 V2000
   -0.2903    0.1480   -3.0391 C   0  0  0  0  0  0  0  0  0  0  0  0
    0.4915    1.2645   -2.7400 C   0  0  0  0  0  0  0  0  0  0  0  0
    0.0878    2.1105   -1.9005 C   0  0  0  0  0  0  0  0  0  0  0  0
   -1.0392    2.2320   -1.1293 C   0  0  0  0  0  0  0  0  0  0  0  0
   -1.8767    1.1202   -1.3916 C   0  0  0  0  0  0  0  0  0  0  0  0
   -1.5139    0.1095   -2.3177 C   0  0  0  0  0  0  0  0  0  0  0  0
   -0.0450   -0.6443   -3.7443 H   0  0  0  0  0  0  0  0  0  0  0  0
    2.3187    1.7322   -3.6776 H   0  0  0  0  0  0  0  0  0  0  0  0
   -1.2914    3.0218   -0.4272 H   0  0  0  0  0  0  0  0  0  0  0  0
   -2.8213    1.0623   -0.8555 H   0  0  0  0  0  0  0  0  0  0  0  0
    1.3381    5.0759   -0.6397 N   0  0  0  0  0  0  0  0  0  0  0  0
    2.1428    5.8312   -0.6186 N   0  0  0  0  0  0  0  0  0  0  0  0
    5.9663    0.8202   -2.8829 C   0  0  0  0  0  0  0  0  0  0  0  0
    7.0935    0.0100   -3.0421 C   0  0  0  0  0  0  0  0  0  0  0  0
    7.9175    0.1244   -4.1724 C   0  0  0  0  0  0  0  0  0  0  0  0
    7.5867    1.0779   -5.1502 C   0  0  0  0  0  0  0  0  0  0  0  0
    6.4664    1.8978   -5.0122 C   0  0  0  0  0  0  0  0  0  0  0  0
    5.6672    1.7536   -3.8757 C   0  0  0  0  0  0  0  0  0  0  0  0
    5.3347    0.7380   -2.0002 H   0  0  0  0  0  0  0  0  0  0  0  0
    7.3382   -0.7185   -2.2679 H   0  0  0  0  0  0  0  0  0  0  0  0
    8.2207    1.1844   -6.0318 H   0  0  0  0  0  0  0  0  0  0  0  0
    6.2156    2.6442   -5.7633 H   0  0  0  0  0  0  0  0  0  0  0  0
    4.2182    2.8023   -3.6928 S   0  0  0  0  0  0  0  0  0  0  0  0
    3.9023    2.9834   -2.2537 O   0  0  0  0  0  0  0  0  0  0  0  0
    3.0473    1.8199   -4.3352 O   0  0  0  0  0  0  0  0  0  0  0  0
    4.3598    3.9653   -4.5934 O   0  0  0  0  0  0  0  0  0  0  0  0
    9.1428   -0.7414   -4.3356 C   0  0  0  0  0  0  0  0  0  0  0  0
   10.0603   -0.1388   -4.2637 H   0  0  0  0  0  0  0  0  0  0  0  0
    9.1900   -1.5232   -3.5672 H   0  0  0  0  0  0  0  0  0  0  0  0
    9.1529   -1.2303   -5.3199 H   0  0  0  0  0  0  0  0  0  0  0  0
   -2.3002   -0.9734   -2.5938 O   0  0  0  0  0  0  0  0  0  0  0  0
   -3.5605   -1.0944   -1.9424 C   0  0  0  0  0  0  0  0  0  0  0  0
   -4.0108   -2.0083   -2.3405 H   0  0  0  0  0  0  0  0  0  0  0  0
   -4.2108   -0.2357   -2.1703 H   0  0  0  0  0  0  0  0  0  0  0  0
   -3.4387   -1.1892   -0.8520 H   0  0  0  0  0  0  0  0  0  0  0  0
  1  2  2  0  0  0  0
  1  6  1  0  0  0  0
  2  3  1  0  0  0  0
  3  4  2  0  0  0  0
  4  9  1  0  0  0  0
  5  4  1  0  0  0  0
  5 10  1  0  0  0  0
  6  5  2  0  0  0  0
  7  1  1  0  0  0  0
 11 12  3  0  0  0  0
 13 19  1  0  0  0  0
 14 13  1  0  0  0  0
 14 20  1  0  0  0  0
 15 14  2  0  0  0  0
 16 17  2  0  0  0  0
 16 15  1  0  0  0  0
 17 18  1  0  0  0  0
 18 23  1  0  0  0  0
 18 13  2  0  0  0  0
 21 16  1  0  0  0  0
 22 17  1  0  0  0  0
 23 24  2  0  0  0  0
 25 23  1  0  0  0  0
 25  8  1  0  0  0  0
 26 23  2  0  0  0  0
 27 28  1  0  0  0  0
 27 15  1  0  0  0  0
 27 29  1  0  0  0  0
 30 27  1  0  0  0  0
 31  6  1  0  0  0  0
 31 32  1  0  0  0  0
 32 35  1  0  0  0  0
 33 32  1  0  0  0  0
 34 32  1  0  0  0  0
M  RAD  2   2   2   3   2
M  END
