Coordinates from ORCA-job p-CH3O-Ph-N2-OTs-B3LYPG-aug-cc-pVDZ-scan-d09-49-n400
 OpenBabel07022015293D

 35 36  0  0  1  0  0  0  0  0999 V2000
    1.1430    0.5984   -2.8434 C   0  0  0  0  0  0  0  0  0  0  0  0
    1.2274    1.7990   -3.7010 C   0  0  1  0  0  0  0  0  0  0  0  0
   -0.0127    2.6255   -3.5989 C   0  0  0  0  0  0  0  0  0  0  0  0
   -0.9222    2.5200   -2.4951 C   0  0  0  0  0  0  0  0  0  0  0  0
   -0.7931    1.4914   -1.6120 C   0  0  0  0  0  0  0  0  0  0  0  0
    0.2373    0.4915   -1.8313 C   0  0  0  0  0  0  0  0  0  0  0  0
    1.8767   -0.1919   -2.9890 H   0  0  0  0  0  0  0  0  0  0  0  0
    1.4927    1.5823   -4.7385 H   0  0  0  0  0  0  0  0  0  0  0  0
   -1.7073    3.2667   -2.3828 H   0  0  0  0  0  0  0  0  0  0  0  0
   -1.4698    1.4160   -0.7666 H   0  0  0  0  0  0  0  0  0  0  0  0
   -0.2100    3.5568   -4.5149 N   0  0  0  0  0  0  0  0  0  0  0  0
   -0.3623    4.3530   -5.3111 N   0  0  0  0  0  0  0  0  0  0  0  0
    5.0462    0.8216   -4.9199 C   0  0  0  0  0  0  0  0  0  0  0  0
    6.0271   -0.1495   -4.6864 C   0  0  0  0  0  0  0  0  0  0  0  0
    6.8057   -0.1295   -3.5215 C   0  0  0  0  0  0  0  0  0  0  0  0
    6.5827    0.8953   -2.5830 C   0  0  0  0  0  0  0  0  0  0  0  0
    5.6140    1.8729   -2.7962 C   0  0  0  0  0  0  0  0  0  0  0  0
    4.8510    1.8197   -3.9670 C   0  0  0  0  0  0  0  0  0  0  0  0
    4.4560    0.8181   -5.8341 H   0  0  0  0  0  0  0  0  0  0  0  0
    6.1926   -0.9277   -5.4328 H   0  0  0  0  0  0  0  0  0  0  0  0
    7.1845    0.9314   -1.6736 H   0  0  0  0  0  0  0  0  0  0  0  0
    5.4548    2.6741   -2.0768 H   0  0  0  0  0  0  0  0  0  0  0  0
    3.6093    3.0941   -4.2431 S   0  0  0  0  0  0  0  0  0  0  0  0
    2.4027    2.6807   -3.1955 O   0  0  0  0  0  0  0  0  0  0  0  0
    3.1018    2.9639   -5.6363 O   0  0  0  0  0  0  0  0  0  0  0  0
    4.1317    4.3818   -3.7400 O   0  0  0  0  0  0  0  0  0  0  0  0
    7.8705   -1.1689   -3.2705 C   0  0  0  0  0  0  0  0  0  0  0  0
    7.6871   -1.7006   -2.3253 H   0  0  0  0  0  0  0  0  0  0  0  0
    7.9062   -1.9147   -4.0746 H   0  0  0  0  0  0  0  0  0  0  0  0
    8.8636   -0.7032   -3.1927 H   0  0  0  0  0  0  0  0  0  0  0  0
    0.3353   -0.6160   -1.0345 O   0  0  0  0  0  0  0  0  0  0  0  0
   -0.7421   -0.9488   -0.1606 C   0  0  0  0  0  0  0  0  0  0  0  0
   -0.4891   -1.9299    0.2527 H   0  0  0  0  0  0  0  0  0  0  0  0
   -1.6942   -1.0167   -0.7067 H   0  0  0  0  0  0  0  0  0  0  0  0
   -0.8372   -0.2252    0.6627 H   0  0  0  0  0  0  0  0  0  0  0  0
  1  6  1  0  0  0  0
  2  8  1  6  0  0  0
  2  3  1  0  0  0  0
  2 24  1  0  0  0  0
  2  1  1  0  0  0  0
  3  4  2  0  0  0  0
  4  9  1  0  0  0  0
  4  5  1  0  0  0  0
  5 10  1  0  0  0  0
  6  5  2  0  0  0  0
  6 31  1  0  0  0  0
  7  1  1  0  0  0  0
 11  3  1  0  0  0  0
 12 11  1  0  0  0  0
 13 14  2  0  0  0  0
 13 18  1  0  0  0  0
 14 15  1  0  0  0  0
 15 27  1  0  0  0  0
 15 16  2  0  0  0  0
 16 21  1  0  0  0  0
 17 16  1  0  0  0  0
 17 22  1  0  0  0  0
 18 17  2  0  0  0  0
 19 13  1  0  0  0  0
 20 14  1  0  0  0  0
 23 18  1  0  0  0  0
 23 26  2  0  0  0  0
 23 24  1  0  0  0  0
 25 23  2  0  0  0  0
 27 30  1  0  0  0  0
 27 28  1  0  0  0  0
 29 27  1  0  0  0  0
 31 32  1  0  0  0  0
 32 33  1  0  0  0  0
 32 35  1  0  0  0  0
 34 32  1  0  0  0  0
M  RAD  3   1   2  11   2  12   3
M  END
