Coordinates from ORCA-job p-CH3O-Ph-N2-OTs-B3LYPG-aug-cc-pVDZ-scan-d09-49-n400
 OpenBabel07022015293D

 35 34  0  0  0  0  0  0  0  0999 V2000
   -0.2466    0.2769   -2.9659 C   0  0  0  0  0  0  0  0  0  0  0  0
    0.5012    1.4186   -2.6595 C   0  0  0  0  0  0  0  0  0  0  0  0
    0.0288    2.2454   -1.8334 C   0  0  0  0  0  0  0  0  0  0  0  0
   -1.1185    2.3370   -1.0934 C   0  0  0  0  0  0  0  0  0  0  0  0
   -1.9129    1.1979   -1.3716 C   0  0  0  0  0  0  0  0  0  0  0  0
   -1.4888    0.1972   -2.2820 C   0  0  0  0  0  0  0  0  0  0  0  0
    0.0446   -0.5121   -3.6578 H   0  0  0  0  0  0  0  0  0  0  0  0
    2.2875    1.7293   -3.5929 H   0  0  0  0  0  0  0  0  0  0  0  0
   -1.4123    3.1228   -0.4035 H   0  0  0  0  0  0  0  0  0  0  0  0
   -2.8697    1.1142   -0.8612 H   0  0  0  0  0  0  0  0  0  0  0  0
    1.1855    4.6839   -0.9026 N   0  0  0  0  0  0  0  0  0  0  0  0
    2.0105    5.4173   -0.9005 N   0  0  0  0  0  0  0  0  0  0  0  0
    5.9821    0.7750   -2.8807 C   0  0  0  0  0  0  0  0  0  0  0  0
    7.1162   -0.0202   -3.0606 C   0  0  0  0  0  0  0  0  0  0  0  0
    7.9350    0.1262   -4.1912 C   0  0  0  0  0  0  0  0  0  0  0  0
    7.5910    1.0958   -5.1481 C   0  0  0  0  0  0  0  0  0  0  0  0
    6.4622    1.9008   -4.9896 C   0  0  0  0  0  0  0  0  0  0  0  0
    5.6692    1.7248   -3.8535 C   0  0  0  0  0  0  0  0  0  0  0  0
    5.3546    0.6689   -1.9977 H   0  0  0  0  0  0  0  0  0  0  0  0
    7.3707   -0.7622   -2.3025 H   0  0  0  0  0  0  0  0  0  0  0  0
    8.2209    1.2260   -6.0294 H   0  0  0  0  0  0  0  0  0  0  0  0
    6.1996    2.6585   -5.7252 H   0  0  0  0  0  0  0  0  0  0  0  0
    4.2132    2.7557   -3.6365 S   0  0  0  0  0  0  0  0  0  0  0  0
    3.9416    2.9519   -2.1899 O   0  0  0  0  0  0  0  0  0  0  0  0
    3.0472    1.7383   -4.2258 O   0  0  0  0  0  0  0  0  0  0  0  0
    4.3100    3.9151   -4.5491 O   0  0  0  0  0  0  0  0  0  0  0  0
    9.1687   -0.7235   -4.3753 C   0  0  0  0  0  0  0  0  0  0  0  0
   10.0804   -0.1147   -4.2838 H   0  0  0  0  0  0  0  0  0  0  0  0
    9.2207   -1.5257   -3.6287 H   0  0  0  0  0  0  0  0  0  0  0  0
    9.1861   -1.1845   -5.3728 H   0  0  0  0  0  0  0  0  0  0  0  0
   -2.2289   -0.9128   -2.5765 O   0  0  0  0  0  0  0  0  0  0  0  0
   -3.5013   -1.0766   -1.9593 C   0  0  0  0  0  0  0  0  0  0  0  0
   -3.9078   -2.0069   -2.3664 H   0  0  0  0  0  0  0  0  0  0  0  0
   -4.1749   -0.2420   -2.2078 H   0  0  0  0  0  0  0  0  0  0  0  0
   -3.4057   -1.1644   -0.8656 H   0  0  0  0  0  0  0  0  0  0  0  0
  1  2  2  0  0  0  0
  1  6  1  0  0  0  0
  2  3  1  0  0  0  0
  3  4  2  0  0  0  0
  4  9  1  0  0  0  0
  5  4  1  0  0  0  0
  5 10  1  0  0  0  0
  6  5  2  0  0  0  0
  7  1  1  0  0  0  0
 11 12  3  0  0  0  0
 13 19  1  0  0  0  0
 14 13  1  0  0  0  0
 14 20  1  0  0  0  0
 15 14  2  0  0  0  0
 16 17  2  0  0  0  0
 16 15  1  0  0  0  0
 17 18  1  0  0  0  0
 18 23  1  0  0  0  0
 18 13  2  0  0  0  0
 21 16  1  0  0  0  0
 22 17  1  0  0  0  0
 23 24  2  0  0  0  0
 25 23  1  0  0  0  0
 25  8  1  0  0  0  0
 26 23  2  0  0  0  0
 27 28  1  0  0  0  0
 27 15  1  0  0  0  0
 27 29  1  0  0  0  0
 30 27  1  0  0  0  0
 31  6  1  0  0  0  0
 31 32  1  0  0  0  0
 32 35  1  0  0  0  0
 33 32  1  0  0  0  0
 34 32  1  0  0  0  0
M  RAD  2   2   2   3   2
M  END
