Coordinates from ORCA-job p-CH3O-Ph-N2-OTs-B3LYPG-aug-cc-pVDZ-scan-d09-49-n400
 OpenBabel07022015293D

 35 34  0  0  0  0  0  0  0  0999 V2000
   -0.1303   -0.9578   -2.7312 C   0  0  0  0  0  0  0  0  0  0  0  0
    0.9020   -0.0579   -2.6012 C   0  0  0  0  0  0  0  0  0  0  0  0
    0.8989    1.1390   -2.2256 C   0  0  0  0  0  0  0  0  0  0  0  0
   -0.2386    1.8064   -1.7735 C   0  0  0  0  0  0  0  0  0  0  0  0
   -1.3869    0.9915   -1.8322 C   0  0  0  0  0  0  0  0  0  0  0  0
   -1.3421   -0.3503   -2.2943 C   0  0  0  0  0  0  0  0  0  0  0  0
   -0.1063   -1.9880   -3.0768 H   0  0  0  0  0  0  0  0  0  0  0  0
    2.4414    2.0486   -3.5522 H   0  0  0  0  0  0  0  0  0  0  0  0
   -0.2761    2.8385   -1.4335 H   0  0  0  0  0  0  0  0  0  0  0  0
   -2.3351    1.4220   -1.5192 H   0  0  0  0  0  0  0  0  0  0  0  0
    1.2635    5.0049   -0.8246 N   0  0  0  0  0  0  0  0  0  0  0  0
    1.9204    5.8189   -0.4723 N   0  0  0  0  0  0  0  0  0  0  0  0
    5.8215    1.0261   -2.7589 C   0  0  0  0  0  0  0  0  0  0  0  0
    6.8445    0.1082   -3.0180 C   0  0  0  0  0  0  0  0  0  0  0  0
    7.6168    0.1919   -4.1856 C   0  0  0  0  0  0  0  0  0  0  0  0
    7.3441    1.2258   -5.0990 C   0  0  0  0  0  0  0  0  0  0  0  0
    6.3293    2.1517   -4.8621 C   0  0  0  0  0  0  0  0  0  0  0  0
    5.5773    2.0357   -3.6895 C   0  0  0  0  0  0  0  0  0  0  0  0
    5.2355    0.9740   -1.8434 H   0  0  0  0  0  0  0  0  0  0  0  0
    7.0481   -0.6793   -2.2912 H   0  0  0  0  0  0  0  0  0  0  0  0
    7.9413    1.3094   -6.0081 H   0  0  0  0  0  0  0  0  0  0  0  0
    6.1297    2.9617   -5.5611 H   0  0  0  0  0  0  0  0  0  0  0  0
    4.2633    3.2255   -3.3811 S   0  0  0  0  0  0  0  0  0  0  0  0
    3.9312    3.2176   -1.9352 O   0  0  0  0  0  0  0  0  0  0  0  0
    2.9750    2.5661   -4.1917 O   0  0  0  0  0  0  0  0  0  0  0  0
    4.5710    4.4739   -4.1055 O   0  0  0  0  0  0  0  0  0  0  0  0
    8.7287   -0.7903   -4.4622 C   0  0  0  0  0  0  0  0  0  0  0  0
    9.7022   -0.2803   -4.5014 H   0  0  0  0  0  0  0  0  0  0  0  0
    8.7827   -1.5688   -3.6910 H   0  0  0  0  0  0  0  0  0  0  0  0
    8.5840   -1.2861   -5.4331 H   0  0  0  0  0  0  0  0  0  0  0  0
   -2.4328   -1.1692   -2.3510 O   0  0  0  0  0  0  0  0  0  0  0  0
   -3.6890   -0.6739   -1.8929 C   0  0  0  0  0  0  0  0  0  0  0  0
   -4.3921   -1.5057   -2.0022 H   0  0  0  0  0  0  0  0  0  0  0  0
   -4.0274    0.1765   -2.5040 H   0  0  0  0  0  0  0  0  0  0  0  0
   -3.6352   -0.3744   -0.8355 H   0  0  0  0  0  0  0  0  0  0  0  0
  1  2  2  0  0  0  0
  1  6  1  0  0  0  0
  2  3  1  0  0  0  0
  3  4  2  0  0  0  0
  4  9  1  0  0  0  0
  5  4  1  0  0  0  0
  5 10  1  0  0  0  0
  6  5  2  0  0  0  0
  7  1  1  0  0  0  0
 11 12  3  0  0  0  0
 13 19  1  0  0  0  0
 14 13  1  0  0  0  0
 14 20  1  0  0  0  0
 15 14  2  0  0  0  0
 16 17  2  0  0  0  0
 16 15  1  0  0  0  0
 17 18  1  0  0  0  0
 18 23  1  0  0  0  0
 18 13  2  0  0  0  0
 21 16  1  0  0  0  0
 22 17  1  0  0  0  0
 23 24  2  0  0  0  0
 25  8  1  0  0  0  0
 25 23  1  0  0  0  0
 26 23  2  0  0  0  0
 27 15  1  0  0  0  0
 27 29  1  0  0  0  0
 28 27  1  0  0  0  0
 30 27  1  0  0  0  0
 31  6  1  0  0  0  0
 31 32  1  0  0  0  0
 32 35  1  0  0  0  0
 33 32  1  0  0  0  0
 34 32  1  0  0  0  0
M  RAD  2   2   2   3   2
M  END
