Coordinates from ORCA-job p-CH3O-Ph-N2-OTs-B3LYPG-aug-cc-pVDZ-scan-d09-49-n400
 OpenBabel07022015293D

 35 34  0  0  0  0  0  0  0  0999 V2000
   -0.2759    0.2091   -3.0199 C   0  0  0  0  0  0  0  0  0  0  0  0
    0.4914    1.3356   -2.7156 C   0  0  0  0  0  0  0  0  0  0  0  0
    0.0651    2.1704   -1.8753 C   0  0  0  0  0  0  0  0  0  0  0  0
   -1.0662    2.2739   -1.1094 C   0  0  0  0  0  0  0  0  0  0  0  0
   -1.8863    1.1510   -1.3791 C   0  0  0  0  0  0  0  0  0  0  0  0
   -1.5030    0.1492   -2.3064 C   0  0  0  0  0  0  0  0  0  0  0  0
   -0.0150   -0.5783   -3.7251 H   0  0  0  0  0  0  0  0  0  0  0  0
    2.3048    1.7337   -3.6519 H   0  0  0  0  0  0  0  0  0  0  0  0
   -1.3325    3.0581   -0.4065 H   0  0  0  0  0  0  0  0  0  0  0  0
   -2.8328    1.0790   -0.8480 H   0  0  0  0  0  0  0  0  0  0  0  0
    1.2613    4.9067   -0.7376 N   0  0  0  0  0  0  0  0  0  0  0  0
    2.0633    5.6646   -0.7104 N   0  0  0  0  0  0  0  0  0  0  0  0
    5.9711    0.8028   -2.8843 C   0  0  0  0  0  0  0  0  0  0  0  0
    7.1014   -0.0019   -3.0485 C   0  0  0  0  0  0  0  0  0  0  0  0
    7.9254    0.1235   -4.1777 C   0  0  0  0  0  0  0  0  0  0  0  0
    7.5912    1.0821   -5.1493 C   0  0  0  0  0  0  0  0  0  0  0  0
    6.4674    1.8964   -5.0063 C   0  0  0  0  0  0  0  0  0  0  0  0
    5.6685    1.7413   -3.8711 C   0  0  0  0  0  0  0  0  0  0  0  0
    5.3395    0.7122   -2.0024 H   0  0  0  0  0  0  0  0  0  0  0  0
    7.3486   -0.7347   -2.2792 H   0  0  0  0  0  0  0  0  0  0  0  0
    8.2252    1.1967   -6.0299 H   0  0  0  0  0  0  0  0  0  0  0  0
    6.2130    2.6462   -5.7528 H   0  0  0  0  0  0  0  0  0  0  0  0
    4.2163    2.7833   -3.6792 S   0  0  0  0  0  0  0  0  0  0  0  0
    3.9160    2.9747   -2.2379 O   0  0  0  0  0  0  0  0  0  0  0  0
    3.0483    1.7837   -4.2984 O   0  0  0  0  0  0  0  0  0  0  0  0
    4.3407    3.9420   -4.5883 O   0  0  0  0  0  0  0  0  0  0  0  0
    9.1541   -0.7365   -4.3461 C   0  0  0  0  0  0  0  0  0  0  0  0
   10.0692   -0.1310   -4.2692 H   0  0  0  0  0  0  0  0  0  0  0  0
    9.2036   -1.5235   -3.5832 H   0  0  0  0  0  0  0  0  0  0  0  0
    9.1668   -1.2184   -5.3339 H   0  0  0  0  0  0  0  0  0  0  0  0
   -2.2711   -0.9445   -2.5906 O   0  0  0  0  0  0  0  0  0  0  0  0
   -3.5327   -1.0872   -1.9463 C   0  0  0  0  0  0  0  0  0  0  0  0
   -3.9664   -2.0068   -2.3496 H   0  0  0  0  0  0  0  0  0  0  0  0
   -4.1950   -0.2380   -2.1751 H   0  0  0  0  0  0  0  0  0  0  0  0
   -3.4150   -1.1836   -0.8556 H   0  0  0  0  0  0  0  0  0  0  0  0
  1  2  2  0  0  0  0
  1  6  1  0  0  0  0
  2  3  1  0  0  0  0
  3  4  2  0  0  0  0
  4  9  1  0  0  0  0
  5  4  1  0  0  0  0
  5 10  1  0  0  0  0
  6  5  2  0  0  0  0
  7  1  1  0  0  0  0
 11 12  3  0  0  0  0
 13 19  1  0  0  0  0
 14 13  1  0  0  0  0
 14 20  1  0  0  0  0
 15 14  2  0  0  0  0
 16 17  2  0  0  0  0
 16 15  1  0  0  0  0
 17 18  1  0  0  0  0
 18 23  1  0  0  0  0
 18 13  2  0  0  0  0
 21 16  1  0  0  0  0
 22 17  1  0  0  0  0
 23 24  2  0  0  0  0
 25 23  1  0  0  0  0
 25  8  1  0  0  0  0
 26 23  2  0  0  0  0
 27 28  1  0  0  0  0
 27 15  1  0  0  0  0
 27 29  1  0  0  0  0
 30 27  1  0  0  0  0
 31  6  1  0  0  0  0
 31 32  1  0  0  0  0
 32 35  1  0  0  0  0
 33 32  1  0  0  0  0
 34 32  1  0  0  0  0
M  RAD  2   2   2   3   2
M  END
