Coordinates from ORCA-job p-CH3O-Ph-N2-OTs-B3LYPG-aug-cc-pVDZ-scan-d09-49-n400
 OpenBabel07022015293D

 35 34  0  0  0  0  0  0  0  0999 V2000
   -0.2840    0.1803   -3.0303 C   0  0  0  0  0  0  0  0  0  0  0  0
    0.4903    1.3024   -2.7291 C   0  0  0  0  0  0  0  0  0  0  0  0
    0.0742    2.1423   -1.8891 C   0  0  0  0  0  0  0  0  0  0  0  0
   -1.0542    2.2554   -1.1200 C   0  0  0  0  0  0  0  0  0  0  0  0
   -1.8826    1.1373   -1.3857 C   0  0  0  0  0  0  0  0  0  0  0  0
   -1.5092    0.1310   -2.3123 C   0  0  0  0  0  0  0  0  0  0  0  0
   -0.0308   -0.6097   -3.7354 H   0  0  0  0  0  0  0  0  0  0  0  0
    2.3104    1.7289   -3.6652 H   0  0  0  0  0  0  0  0  0  0  0  0
   -1.3138    3.0423   -0.4175 H   0  0  0  0  0  0  0  0  0  0  0  0
   -2.8280    1.0719   -0.8519 H   0  0  0  0  0  0  0  0  0  0  0  0
    1.2972    4.9910   -0.6843 N   0  0  0  0  0  0  0  0  0  0  0  0
    2.0990    5.7492   -0.6563 N   0  0  0  0  0  0  0  0  0  0  0  0
    5.9697    0.8097   -2.8844 C   0  0  0  0  0  0  0  0  0  0  0  0
    7.0993    0.0035   -3.0459 C   0  0  0  0  0  0  0  0  0  0  0  0
    7.9236    0.1244   -4.1754 C   0  0  0  0  0  0  0  0  0  0  0  0
    7.5905    1.0804   -5.1500 C   0  0  0  0  0  0  0  0  0  0  0  0
    6.4675    1.8963   -5.0097 C   0  0  0  0  0  0  0  0  0  0  0  0
    5.6682    1.7456   -3.8741 C   0  0  0  0  0  0  0  0  0  0  0  0
    5.3378    0.7223   -2.0024 H   0  0  0  0  0  0  0  0  0  0  0  0
    7.3457   -0.7272   -2.2743 H   0  0  0  0  0  0  0  0  0  0  0  0
    8.2247    1.1918   -6.0308 H   0  0  0  0  0  0  0  0  0  0  0  0
    6.2143    2.6442   -5.7584 H   0  0  0  0  0  0  0  0  0  0  0  0
    4.2163    2.7891   -3.6871 S   0  0  0  0  0  0  0  0  0  0  0  0
    3.9091    2.9773   -2.2469 O   0  0  0  0  0  0  0  0  0  0  0  0
    3.0486    1.7942   -4.3155 O   0  0  0  0  0  0  0  0  0  0  0  0
    4.3467    3.9489   -4.5938 O   0  0  0  0  0  0  0  0  0  0  0  0
    9.1513   -0.7375   -4.3411 C   0  0  0  0  0  0  0  0  0  0  0  0
   10.0671   -0.1324   -4.2674 H   0  0  0  0  0  0  0  0  0  0  0  0
    9.2007   -1.5213   -3.5750 H   0  0  0  0  0  0  0  0  0  0  0  0
    9.1628   -1.2234   -5.3269 H   0  0  0  0  0  0  0  0  0  0  0  0
   -2.2862   -0.9578   -2.5918 O   0  0  0  0  0  0  0  0  0  0  0  0
   -3.5470   -1.0899   -1.9435 C   0  0  0  0  0  0  0  0  0  0  0  0
   -3.9888   -2.0070   -2.3439 H   0  0  0  0  0  0  0  0  0  0  0  0
   -4.2036   -0.2362   -2.1719 H   0  0  0  0  0  0  0  0  0  0  0  0
   -3.4268   -1.1852   -0.8530 H   0  0  0  0  0  0  0  0  0  0  0  0
  1  2  2  0  0  0  0
  1  6  1  0  0  0  0
  2  3  1  0  0  0  0
  3  4  2  0  0  0  0
  4  9  1  0  0  0  0
  5  4  1  0  0  0  0
  5 10  1  0  0  0  0
  6  5  2  0  0  0  0
  7  1  1  0  0  0  0
 11 12  3  0  0  0  0
 13 19  1  0  0  0  0
 14 13  1  0  0  0  0
 14 20  1  0  0  0  0
 15 14  2  0  0  0  0
 16 17  2  0  0  0  0
 16 15  1  0  0  0  0
 17 18  1  0  0  0  0
 18 23  1  0  0  0  0
 18 13  2  0  0  0  0
 21 16  1  0  0  0  0
 22 17  1  0  0  0  0
 23 24  2  0  0  0  0
 25 23  1  0  0  0  0
 25  8  1  0  0  0  0
 26 23  2  0  0  0  0
 27 28  1  0  0  0  0
 27 15  1  0  0  0  0
 27 29  1  0  0  0  0
 30 27  1  0  0  0  0
 31  6  1  0  0  0  0
 31 32  1  0  0  0  0
 32 35  1  0  0  0  0
 33 32  1  0  0  0  0
 34 32  1  0  0  0  0
M  RAD  2   2   2   3   2
M  END
