Coordinates from ORCA-job p-CH3O-Ph-N2-OTs-B3LYPG-aug-cc-pVDZ-scan-d09-49-n400
 OpenBabel07022015293D

 35 36  0  0  1  0  0  0  0  0999 V2000
    1.3120    0.6671   -2.7620 C   0  0  0  0  0  0  0  0  0  0  0  0
    1.3307    1.8207   -3.6903 C   0  0  1  0  0  0  0  0  0  0  0  0
    0.0070    2.5502   -3.7181 C   0  0  0  0  0  0  0  0  0  0  0  0
   -0.9253    2.4168   -2.6173 C   0  0  0  0  0  0  0  0  0  0  0  0
   -0.7408    1.4645   -1.6682 C   0  0  0  0  0  0  0  0  0  0  0  0
    0.3798    0.5428   -1.7807 C   0  0  0  0  0  0  0  0  0  0  0  0
    2.1184   -0.0605   -2.8291 H   0  0  0  0  0  0  0  0  0  0  0  0
    1.6453    1.5538   -4.7035 H   0  0  0  0  0  0  0  0  0  0  0  0
   -1.7771    3.0954   -2.5794 H   0  0  0  0  0  0  0  0  0  0  0  0
   -1.4431    1.3805   -0.8444 H   0  0  0  0  0  0  0  0  0  0  0  0
   -0.2264    3.2998   -4.6398 N   0  0  0  0  0  0  0  0  0  0  0  0
   -0.4345    4.0050   -5.5172 N   0  0  0  0  0  0  0  0  0  0  0  0
    5.0592    0.9804   -4.9774 C   0  0  0  0  0  0  0  0  0  0  0  0
    5.9917   -0.0371   -4.7590 C   0  0  0  0  0  0  0  0  0  0  0  0
    6.6690   -0.1545   -3.5353 C   0  0  0  0  0  0  0  0  0  0  0  0
    6.3992    0.7895   -2.5293 C   0  0  0  0  0  0  0  0  0  0  0  0
    5.4762    1.8159   -2.7273 C   0  0  0  0  0  0  0  0  0  0  0  0
    4.8103    1.8938   -3.9526 C   0  0  0  0  0  0  0  0  0  0  0  0
    4.5451    1.0786   -5.9313 H   0  0  0  0  0  0  0  0  0  0  0  0
    6.1990   -0.7490   -5.5598 H   0  0  0  0  0  0  0  0  0  0  0  0
    6.9251    0.7272   -1.5755 H   0  0  0  0  0  0  0  0  0  0  0  0
    5.2818    2.5531   -1.9500 H   0  0  0  0  0  0  0  0  0  0  0  0
    3.6258    3.2248   -4.2141 S   0  0  0  0  0  0  0  0  0  0  0  0
    2.3764    2.8216   -3.2030 O   0  0  0  0  0  0  0  0  0  0  0  0
    3.1479    3.1533   -5.6196 O   0  0  0  0  0  0  0  0  0  0  0  0
    4.1666    4.4759   -3.6463 O   0  0  0  0  0  0  0  0  0  0  0  0
    7.6519   -1.2759   -3.3017 C   0  0  0  0  0  0  0  0  0  0  0  0
    7.1290   -2.1933   -2.9903 H   0  0  0  0  0  0  0  0  0  0  0  0
    8.2116   -1.5143   -4.2157 H   0  0  0  0  0  0  0  0  0  0  0  0
    8.3686   -1.0190   -2.5116 H   0  0  0  0  0  0  0  0  0  0  0  0
    0.5359   -0.4966   -0.9057 O   0  0  0  0  0  0  0  0  0  0  0  0
   -0.5419   -0.8583   -0.0433 C   0  0  0  0  0  0  0  0  0  0  0  0
   -0.2180   -1.7754    0.4580 H   0  0  0  0  0  0  0  0  0  0  0  0
   -1.4609   -1.0610   -0.6127 H   0  0  0  0  0  0  0  0  0  0  0  0
   -0.7353   -0.0837    0.7134 H   0  0  0  0  0  0  0  0  0  0  0  0
  1  6  1  0  0  0  0
  2  8  1  6  0  0  0
  2 24  1  0  0  0  0
  2  1  1  0  0  0  0
  3  2  1  0  0  0  0
  3  4  2  0  0  0  0
  4  9  1  0  0  0  0
  4  5  1  0  0  0  0
  5 10  1  0  0  0  0
  6  5  2  0  0  0  0
  6 31  1  0  0  0  0
  7  1  1  0  0  0  0
 11  3  1  0  0  0  0
 12 11  1  0  0  0  0
 13 14  2  0  0  0  0
 13 18  1  0  0  0  0
 14 15  1  0  0  0  0
 15 27  1  0  0  0  0
 15 16  2  0  0  0  0
 16 21  1  0  0  0  0
 17 16  1  0  0  0  0
 17 22  1  0  0  0  0
 18 17  2  0  0  0  0
 19 13  1  0  0  0  0
 20 14  1  0  0  0  0
 23 18  1  0  0  0  0
 23 26  2  0  0  0  0
 23 24  1  0  0  0  0
 25 23  2  0  0  0  0
 27 28  1  0  0  0  0
 27 30  1  0  0  0  0
 29 27  1  0  0  0  0
 31 32  1  0  0  0  0
 32 33  1  0  0  0  0
 32 35  1  0  0  0  0
 34 32  1  0  0  0  0
M  RAD  3   1   2  11   2  12   3
M  END
