Coordinates from ORCA-job p-CH3O-Ph-N2-OTs-B3LYPG-aug-cc-pVDZ-scan-d09-49-n400
 OpenBabel07022015293D

 35 34  0  0  0  0  0  0  0  0999 V2000
   -0.1214   -0.0396   -2.9707 C   0  0  0  0  0  0  0  0  0  0  0  0
    0.6257    1.1101   -2.7283 C   0  0  0  0  0  0  0  0  0  0  0  0
    0.1913    2.0317   -1.9929 C   0  0  0  0  0  0  0  0  0  0  0  0
   -0.9827    2.2063   -1.3018 C   0  0  0  0  0  0  0  0  0  0  0  0
   -1.7968    1.0658   -1.5029 C   0  0  0  0  0  0  0  0  0  0  0  0
   -1.3805   -0.0233   -2.3111 C   0  0  0  0  0  0  0  0  0  0  0  0
    0.1652   -0.8880   -3.5893 H   0  0  0  0  0  0  0  0  0  0  0  0
    2.4299    1.9733   -3.6470 H   0  0  0  0  0  0  0  0  0  0  0  0
   -1.2788    3.0540   -0.6897 H   0  0  0  0  0  0  0  0  0  0  0  0
   -2.7677    1.0469   -1.0132 H   0  0  0  0  0  0  0  0  0  0  0  0
    1.2645    5.4101   -0.8416 N   0  0  0  0  0  0  0  0  0  0  0  0
    2.0237    6.2112   -0.8171 N   0  0  0  0  0  0  0  0  0  0  0  0
    5.8950    0.8531   -2.8211 C   0  0  0  0  0  0  0  0  0  0  0  0
    6.9388   -0.0492   -3.0504 C   0  0  0  0  0  0  0  0  0  0  0  0
    7.7450    0.0480   -4.1939 C   0  0  0  0  0  0  0  0  0  0  0  0
    7.4859    1.0803   -5.1128 C   0  0  0  0  0  0  0  0  0  0  0  0
    6.4520    1.9919   -4.9043 C   0  0  0  0  0  0  0  0  0  0  0  0
    5.6656    1.8619   -3.7563 C   0  0  0  0  0  0  0  0  0  0  0  0
    5.2821    0.7891   -1.9239 H   0  0  0  0  0  0  0  0  0  0  0  0
    7.1319   -0.8356   -2.3194 H   0  0  0  0  0  0  0  0  0  0  0  0
    8.1092    1.1748   -6.0033 H   0  0  0  0  0  0  0  0  0  0  0  0
    6.2623    2.8015   -5.6065 H   0  0  0  0  0  0  0  0  0  0  0  0
    4.3262    3.0330   -3.4884 S   0  0  0  0  0  0  0  0  0  0  0  0
    3.9656    3.0525   -2.0491 O   0  0  0  0  0  0  0  0  0  0  0  0
    3.0725    2.3175   -4.3048 O   0  0  0  0  0  0  0  0  0  0  0  0
    4.6313    4.2740   -4.2279 O   0  0  0  0  0  0  0  0  0  0  0  0
    8.8779   -0.9186   -4.4389 C   0  0  0  0  0  0  0  0  0  0  0  0
    9.8448   -0.3948   -4.4539 H   0  0  0  0  0  0  0  0  0  0  0  0
    8.9228   -1.6948   -3.6648 H   0  0  0  0  0  0  0  0  0  0  0  0
    8.7655   -1.4183   -5.4120 H   0  0  0  0  0  0  0  0  0  0  0  0
   -2.1454   -1.1355   -2.5248 O   0  0  0  0  0  0  0  0  0  0  0  0
   -3.4355   -1.2102   -1.9266 C   0  0  0  0  0  0  0  0  0  0  0  0
   -3.8581   -2.1639   -2.2557 H   0  0  0  0  0  0  0  0  0  0  0  0
   -4.0810   -0.3866   -2.2680 H   0  0  0  0  0  0  0  0  0  0  0  0
   -3.3665   -1.1968   -0.8276 H   0  0  0  0  0  0  0  0  0  0  0  0
  1  2  2  0  0  0  0
  1  6  1  0  0  0  0
  2  3  1  0  0  0  0
  3  4  2  0  0  0  0
  4  9  1  0  0  0  0
  5  4  1  0  0  0  0
  5 10  1  0  0  0  0
  6  5  2  0  0  0  0
  7  1  1  0  0  0  0
 11 12  3  0  0  0  0
 13 19  1  0  0  0  0
 14 13  1  0  0  0  0
 14 20  1  0  0  0  0
 15 14  2  0  0  0  0
 16 17  2  0  0  0  0
 16 15  1  0  0  0  0
 17 18  1  0  0  0  0
 18 23  1  0  0  0  0
 18 13  2  0  0  0  0
 21 16  1  0  0  0  0
 22 17  1  0  0  0  0
 23 24  2  0  0  0  0
 25  8  1  0  0  0  0
 25 23  1  0  0  0  0
 26 23  2  0  0  0  0
 27 15  1  0  0  0  0
 27 29  1  0  0  0  0
 28 27  1  0  0  0  0
 30 27  1  0  0  0  0
 31  6  1  0  0  0  0
 31 32  1  0  0  0  0
 32 35  1  0  0  0  0
 33 32  1  0  0  0  0
 34 32  1  0  0  0  0
M  RAD  2   2   2   3   2
M  END
