Coordinates from ORCA-job p-CH3O-Ph-N2-OTs-B3LYPG-aug-cc-pVDZ-scan-d09-49-n400
 OpenBabel07022015293D

 35 34  0  0  0  0  0  0  0  0999 V2000
   -0.1470   -0.1015   -2.9691 C   0  0  0  0  0  0  0  0  0  0  0  0
    0.6252    1.0326   -2.7340 C   0  0  0  0  0  0  0  0  0  0  0  0
    0.2159    1.9697   -2.0041 C   0  0  0  0  0  0  0  0  0  0  0  0
   -0.9551    2.1764   -1.3159 C   0  0  0  0  0  0  0  0  0  0  0  0
   -1.7953    1.0537   -1.5087 C   0  0  0  0  0  0  0  0  0  0  0  0
   -1.4050   -0.0507   -2.3093 C   0  0  0  0  0  0  0  0  0  0  0  0
    0.1195   -0.9597   -3.5831 H   0  0  0  0  0  0  0  0  0  0  0  0
    2.4213    1.9225   -3.6776 H   0  0  0  0  0  0  0  0  0  0  0  0
   -1.2319    3.0348   -0.7096 H   0  0  0  0  0  0  0  0  0  0  0  0
   -2.7660    1.0589   -1.0182 H   0  0  0  0  0  0  0  0  0  0  0  0
    1.3539    5.4942   -0.7585 N   0  0  0  0  0  0  0  0  0  0  0  0
    2.1422    6.2670   -0.7470 N   0  0  0  0  0  0  0  0  0  0  0  0
    5.8906    0.8529   -2.8330 C   0  0  0  0  0  0  0  0  0  0  0  0
    6.9477   -0.0362   -3.0518 C   0  0  0  0  0  0  0  0  0  0  0  0
    7.7625    0.0694   -4.1885 C   0  0  0  0  0  0  0  0  0  0  0  0
    7.4977    1.0962   -5.1118 C   0  0  0  0  0  0  0  0  0  0  0  0
    6.4502    1.9947   -4.9140 C   0  0  0  0  0  0  0  0  0  0  0  0
    5.6560    1.8568   -3.7723 C   0  0  0  0  0  0  0  0  0  0  0  0
    5.2707    0.7824   -1.9412 H   0  0  0  0  0  0  0  0  0  0  0  0
    7.1448   -0.8186   -2.3176 H   0  0  0  0  0  0  0  0  0  0  0  0
    8.1274    1.1971   -5.9971 H   0  0  0  0  0  0  0  0  0  0  0  0
    6.2559    2.8003   -5.6195 H   0  0  0  0  0  0  0  0  0  0  0  0
    4.3001    3.0118   -3.5178 S   0  0  0  0  0  0  0  0  0  0  0  0
    3.9329    3.0354   -2.0803 O   0  0  0  0  0  0  0  0  0  0  0  0
    3.0590    2.2754   -4.3351 O   0  0  0  0  0  0  0  0  0  0  0  0
    4.5924    4.2520   -4.2636 O   0  0  0  0  0  0  0  0  0  0  0  0
    8.9106   -0.8823   -4.4211 C   0  0  0  0  0  0  0  0  0  0  0  0
    9.8709   -0.3463   -4.4212 H   0  0  0  0  0  0  0  0  0  0  0  0
    8.9547   -1.6602   -3.6486 H   0  0  0  0  0  0  0  0  0  0  0  0
    8.8178   -1.3802   -5.3971 H   0  0  0  0  0  0  0  0  0  0  0  0
   -2.1960   -1.1461   -2.5150 O   0  0  0  0  0  0  0  0  0  0  0  0
   -3.4897   -1.1833   -1.9210 C   0  0  0  0  0  0  0  0  0  0  0  0
   -3.9362   -2.1279   -2.2450 H   0  0  0  0  0  0  0  0  0  0  0  0
   -4.1126   -0.3457   -2.2704 H   0  0  0  0  0  0  0  0  0  0  0  0
   -3.4244   -1.1640   -0.8219 H   0  0  0  0  0  0  0  0  0  0  0  0
  1  2  2  0  0  0  0
  1  6  1  0  0  0  0
  2  3  1  0  0  0  0
  3  4  2  0  0  0  0
  4  9  1  0  0  0  0
  5  4  1  0  0  0  0
  5 10  1  0  0  0  0
  6  5  2  0  0  0  0
  7  1  1  0  0  0  0
 11 12  3  0  0  0  0
 13 19  1  0  0  0  0
 14 13  1  0  0  0  0
 14 20  1  0  0  0  0
 15 14  2  0  0  0  0
 16 17  2  0  0  0  0
 16 15  1  0  0  0  0
 17 18  1  0  0  0  0
 18 23  1  0  0  0  0
 18 13  2  0  0  0  0
 21 16  1  0  0  0  0
 22 17  1  0  0  0  0
 23 24  2  0  0  0  0
 25  8  1  0  0  0  0
 25 23  1  0  0  0  0
 26 23  2  0  0  0  0
 27 15  1  0  0  0  0
 27 29  1  0  0  0  0
 28 27  1  0  0  0  0
 30 27  1  0  0  0  0
 31  6  1  0  0  0  0
 31 32  1  0  0  0  0
 32 35  1  0  0  0  0
 33 32  1  0  0  0  0
 34 32  1  0  0  0  0
M  RAD  2   2   2   3   2
M  END
