Coordinates from ORCA-job p-CH3O-Ph-N2-OTs-B3LYPG-aug-cc-pVDZ-scan-d09-49-n400
 OpenBabel07022015293D

 35 34  0  0  0  0  0  0  0  0999 V2000
   -0.1074    0.2261   -2.7947 C   0  0  0  0  0  0  0  0  0  0  0  0
    0.6635    1.3931   -3.0111 C   0  0  0  0  0  0  0  0  0  0  0  0
    0.1124    2.3846   -2.3368 C   0  0  0  0  0  0  0  0  0  0  0  0
   -0.9356    2.6356   -1.5183 C   0  0  0  0  0  0  0  0  0  0  0  0
   -1.6688    1.4397   -1.3370 C   0  0  0  0  0  0  0  0  0  0  0  0
   -1.2504    0.2484   -1.9673 C   0  0  0  0  0  0  0  0  0  0  0  0
    0.1913   -0.7059   -3.2740 H   0  0  0  0  0  0  0  0  0  0  0  0
    1.6399    1.4097   -3.6855 H   0  0  0  0  0  0  0  0  0  0  0  0
   -1.2011    3.5813   -1.0579 H   0  0  0  0  0  0  0  0  0  0  0  0
   -2.5560    1.4799   -0.7103 H   0  0  0  0  0  0  0  0  0  0  0  0
    1.1745    4.3289   -2.6187 N   0  0  0  0  0  0  0  0  0  0  0  0
    1.5315    5.3667   -2.7257 N   0  0  0  0  0  0  0  0  0  0  0  0
    5.4559    0.2259   -4.4713 C   0  0  0  0  0  0  0  0  0  0  0  0
    6.6812   -0.4509   -4.4749 C   0  0  0  0  0  0  0  0  0  0  0  0
    7.8587    0.1751   -4.0488 C   0  0  0  0  0  0  0  0  0  0  0  0
    7.7822    1.5121   -3.6181 C   0  0  0  0  0  0  0  0  0  0  0  0
    6.5704    2.2008   -3.6092 C   0  0  0  0  0  0  0  0  0  0  0  0
    5.4098    1.5477   -4.0356 C   0  0  0  0  0  0  0  0  0  0  0  0
    4.5430   -0.2605   -4.8075 H   0  0  0  0  0  0  0  0  0  0  0  0
    6.7148   -1.4869   -4.8162 H   0  0  0  0  0  0  0  0  0  0  0  0
    8.6869    2.0225   -3.2833 H   0  0  0  0  0  0  0  0  0  0  0  0
    6.5251    3.2371   -3.2774 H   0  0  0  0  0  0  0  0  0  0  0  0
    3.8518    2.4743   -4.0156 S   0  0  0  0  0  0  0  0  0  0  0  0
    3.5386    2.7956   -2.5749 O   0  0  0  0  0  0  0  0  0  0  0  0
    2.8053    1.4692   -4.5801 O   0  0  0  0  0  0  0  0  0  0  0  0
    4.0316    3.6616   -4.9036 O   0  0  0  0  0  0  0  0  0  0  0  0
    9.1817   -0.5540   -4.0436 C   0  0  0  0  0  0  0  0  0  0  0  0
    9.5753   -0.6544   -3.0211 H   0  0  0  0  0  0  0  0  0  0  0  0
    9.0840   -1.5611   -4.4679 H   0  0  0  0  0  0  0  0  0  0  0  0
    9.9365   -0.0107   -4.6310 H   0  0  0  0  0  0  0  0  0  0  0  0
   -1.8913   -0.9405   -1.8363 O   0  0  0  0  0  0  0  0  0  0  0  0
   -3.0479   -1.0095   -1.0019 C   0  0  0  0  0  0  0  0  0  0  0  0
   -3.3568   -2.0582   -1.0131 H   0  0  0  0  0  0  0  0  0  0  0  0
   -3.8590   -0.3823   -1.4015 H   0  0  0  0  0  0  0  0  0  0  0  0
   -2.8115   -0.7091    0.0300 H   0  0  0  0  0  0  0  0  0  0  0  0
  1  6  1  0  0  0  0
  2  1  2  0  0  0  0
  2  3  1  0  0  0  0
  3  4  2  0  0  0  0
  4  5  1  0  0  0  0
  4  9  1  0  0  0  0
  5 10  1  0  0  0  0
  6 31  1  0  0  0  0
  6  5  2  0  0  0  0
  7  1  1  0  0  0  0
  8  2  1  0  0  0  0
 12 11  3  0  0  0  0
 13 18  1  0  0  0  0
 14 13  2  0  0  0  0
 14 15  1  0  0  0  0
 15 27  1  0  0  0  0
 15 16  2  0  0  0  0
 16 17  1  0  0  0  0
 16 21  1  0  0  0  0
 17 22  1  0  0  0  0
 18 23  1  0  0  0  0
 18 17  2  0  0  0  0
 19 13  1  0  0  0  0
 20 14  1  0  0  0  0
 23 24  1  0  0  0  0
 25 23  2  0  0  0  0
 26 23  2  0  0  0  0
 27 28  1  0  0  0  0
 29 27  1  0  0  0  0
 30 27  1  0  0  0  0
 31 32  1  0  0  0  0
 32 35  1  0  0  0  0
 33 32  1  0  0  0  0
 34 32  1  0  0  0  0
M  RAD  2   3   2  24   2
M  END
