Coordinates from ORCA-job p-CH3O-Ph-N2-OTs-B3LYPG-aug-cc-pVDZ-scan-d09-49-n400
 OpenBabel07022015293D

 35 34  0  0  0  0  0  0  0  0999 V2000
   -0.1229   -0.0422   -2.9710 C   0  0  0  0  0  0  0  0  0  0  0  0
    0.6256    1.1066   -2.7288 C   0  0  0  0  0  0  0  0  0  0  0  0
    0.1924    2.0288   -1.9933 C   0  0  0  0  0  0  0  0  0  0  0  0
   -0.9813    2.2047   -1.3020 C   0  0  0  0  0  0  0  0  0  0  0  0
   -1.7967    1.0651   -1.5030 C   0  0  0  0  0  0  0  0  0  0  0  0
   -1.3818   -0.0245   -2.3112 C   0  0  0  0  0  0  0  0  0  0  0  0
    0.1627   -0.8909   -3.5897 H   0  0  0  0  0  0  0  0  0  0  0  0
    2.4293    1.9704   -3.6488 H   0  0  0  0  0  0  0  0  0  0  0  0
   -1.2764    3.0527   -0.6899 H   0  0  0  0  0  0  0  0  0  0  0  0
   -2.7675    1.0472   -1.0130 H   0  0  0  0  0  0  0  0  0  0  0  0
    1.2683    5.4154   -0.8360 N   0  0  0  0  0  0  0  0  0  0  0  0
    2.0289    6.2151   -0.8120 N   0  0  0  0  0  0  0  0  0  0  0  0
    5.8949    0.8531   -2.8218 C   0  0  0  0  0  0  0  0  0  0  0  0
    6.9394   -0.0485   -3.0504 C   0  0  0  0  0  0  0  0  0  0  0  0
    7.7461    0.0490   -4.1936 C   0  0  0  0  0  0  0  0  0  0  0  0
    7.4866    1.0808   -5.1129 C   0  0  0  0  0  0  0  0  0  0  0  0
    6.4519    1.9917   -4.9052 C   0  0  0  0  0  0  0  0  0  0  0  0
    5.6651    1.8614   -3.7574 C   0  0  0  0  0  0  0  0  0  0  0  0
    5.2817    0.7889   -1.9249 H   0  0  0  0  0  0  0  0  0  0  0  0
    7.1328   -0.8345   -2.3191 H   0  0  0  0  0  0  0  0  0  0  0  0
    8.1101    1.1755   -6.0031 H   0  0  0  0  0  0  0  0  0  0  0  0
    6.2619    2.8009   -5.6077 H   0  0  0  0  0  0  0  0  0  0  0  0
    4.3247    3.0317   -3.4905 S   0  0  0  0  0  0  0  0  0  0  0  0
    3.9639    3.0518   -2.0513 O   0  0  0  0  0  0  0  0  0  0  0  0
    3.0718    2.3148   -4.3066 O   0  0  0  0  0  0  0  0  0  0  0  0
    4.6291    4.2724   -4.2307 O   0  0  0  0  0  0  0  0  0  0  0  0
    8.8798   -0.9168   -4.4377 C   0  0  0  0  0  0  0  0  0  0  0  0
    9.8463   -0.3923   -4.4523 H   0  0  0  0  0  0  0  0  0  0  0  0
    8.9249   -1.6929   -3.6634 H   0  0  0  0  0  0  0  0  0  0  0  0
    8.7684   -1.4168   -5.4108 H   0  0  0  0  0  0  0  0  0  0  0  0
   -2.1479   -1.1358   -2.5247 O   0  0  0  0  0  0  0  0  0  0  0  0
   -3.4381   -1.2089   -1.9265 C   0  0  0  0  0  0  0  0  0  0  0  0
   -3.8619   -2.1621   -2.2556 H   0  0  0  0  0  0  0  0  0  0  0  0
   -4.0826   -0.3845   -2.2678 H   0  0  0  0  0  0  0  0  0  0  0  0
   -3.3692   -1.1956   -0.8275 H   0  0  0  0  0  0  0  0  0  0  0  0
  1  2  2  0  0  0  0
  1  6  1  0  0  0  0
  2  3  1  0  0  0  0
  3  4  2  0  0  0  0
  4  9  1  0  0  0  0
  5  4  1  0  0  0  0
  5 10  1  0  0  0  0
  6  5  2  0  0  0  0
  7  1  1  0  0  0  0
 11 12  3  0  0  0  0
 13 19  1  0  0  0  0
 14 13  1  0  0  0  0
 14 20  1  0  0  0  0
 15 14  2  0  0  0  0
 16 17  2  0  0  0  0
 16 15  1  0  0  0  0
 17 18  1  0  0  0  0
 18 23  1  0  0  0  0
 18 13  2  0  0  0  0
 21 16  1  0  0  0  0
 22 17  1  0  0  0  0
 23 24  2  0  0  0  0
 25  8  1  0  0  0  0
 25 23  1  0  0  0  0
 26 23  2  0  0  0  0
 27 15  1  0  0  0  0
 27 29  1  0  0  0  0
 28 27  1  0  0  0  0
 30 27  1  0  0  0  0
 31  6  1  0  0  0  0
 31 32  1  0  0  0  0
 32 35  1  0  0  0  0
 33 32  1  0  0  0  0
 34 32  1  0  0  0  0
M  RAD  2   2   2   3   2
M  END
