Coordinates from ORCA-job p-CH3O-Ph-N2-OTs-B3LYPG-aug-cc-pVDZ-scan-d09-49-n400
 OpenBabel07022015293D

 35 34  0  0  0  0  0  0  0  0999 V2000
   -0.1177   -0.0308   -2.9681 C   0  0  0  0  0  0  0  0  0  0  0  0
    0.6250    1.1216   -2.7253 C   0  0  0  0  0  0  0  0  0  0  0  0
    0.1863    2.0419   -1.9909 C   0  0  0  0  0  0  0  0  0  0  0  0
   -0.9889    2.2124   -1.3009 C   0  0  0  0  0  0  0  0  0  0  0  0
   -1.7987    1.0688   -1.5025 C   0  0  0  0  0  0  0  0  0  0  0  0
   -1.3776   -0.0190   -2.3100 C   0  0  0  0  0  0  0  0  0  0  0  0
    0.1727   -0.8785   -3.5861 H   0  0  0  0  0  0  0  0  0  0  0  0
    2.4318    1.9824   -3.6392 H   0  0  0  0  0  0  0  0  0  0  0  0
   -1.2887    3.0591   -0.6894 H   0  0  0  0  0  0  0  0  0  0  0  0
   -2.7701    1.0468   -1.0139 H   0  0  0  0  0  0  0  0  0  0  0  0
    1.2536    5.3872   -0.8666 N   0  0  0  0  0  0  0  0  0  0  0  0
    2.0080    6.1927   -0.8404 N   0  0  0  0  0  0  0  0  0  0  0  0
    5.8963    0.8522   -2.8189 C   0  0  0  0  0  0  0  0  0  0  0  0
    6.9378   -0.0520   -3.0512 C   0  0  0  0  0  0  0  0  0  0  0  0
    7.7427    0.0455   -4.1956 C   0  0  0  0  0  0  0  0  0  0  0  0
    7.4847    1.0800   -5.1123 C   0  0  0  0  0  0  0  0  0  0  0  0
    6.4531    1.9936   -4.9008 C   0  0  0  0  0  0  0  0  0  0  0  0
    5.6678    1.8632   -3.7520 C   0  0  0  0  0  0  0  0  0  0  0  0
    5.2844    0.7880   -1.9211 H   0  0  0  0  0  0  0  0  0  0  0  0
    7.1301   -0.8401   -2.3219 H   0  0  0  0  0  0  0  0  0  0  0  0
    8.1070    1.1747   -6.0034 H   0  0  0  0  0  0  0  0  0  0  0  0
    6.2643    2.8048   -5.6013 H   0  0  0  0  0  0  0  0  0  0  0  0
    4.3311    3.0364   -3.4801 S   0  0  0  0  0  0  0  0  0  0  0  0
    3.9719    3.0529   -2.0404 O   0  0  0  0  0  0  0  0  0  0  0  0
    3.0754    2.3250   -4.2969 O   0  0  0  0  0  0  0  0  0  0  0  0
    4.6380    4.2786   -4.2167 O   0  0  0  0  0  0  0  0  0  0  0  0
    8.8731   -0.9231   -4.4438 C   0  0  0  0  0  0  0  0  0  0  0  0
    9.8411   -0.4015   -4.4593 H   0  0  0  0  0  0  0  0  0  0  0  0
    8.9174   -1.7008   -3.6711 H   0  0  0  0  0  0  0  0  0  0  0  0
    8.7583   -1.4210   -5.4176 H   0  0  0  0  0  0  0  0  0  0  0  0
   -2.1381   -1.1340   -2.5242 O   0  0  0  0  0  0  0  0  0  0  0  0
   -3.4282   -1.2136   -1.9265 C   0  0  0  0  0  0  0  0  0  0  0  0
   -3.8467   -2.1692   -2.2555 H   0  0  0  0  0  0  0  0  0  0  0  0
   -4.0769   -0.3927   -2.2686 H   0  0  0  0  0  0  0  0  0  0  0  0
   -3.3599   -1.1995   -0.8275 H   0  0  0  0  0  0  0  0  0  0  0  0
  1  2  2  0  0  0  0
  1  6  1  0  0  0  0
  2  3  1  0  0  0  0
  3  4  2  0  0  0  0
  4  9  1  0  0  0  0
  5  4  1  0  0  0  0
  5 10  1  0  0  0  0
  6  5  2  0  0  0  0
  7  1  1  0  0  0  0
 11 12  3  0  0  0  0
 13 19  1  0  0  0  0
 14 13  1  0  0  0  0
 14 20  1  0  0  0  0
 15 14  2  0  0  0  0
 16 17  2  0  0  0  0
 16 15  1  0  0  0  0
 17 18  1  0  0  0  0
 18 23  1  0  0  0  0
 18 13  2  0  0  0  0
 21 16  1  0  0  0  0
 22 17  1  0  0  0  0
 23 24  2  0  0  0  0
 25  8  1  0  0  0  0
 25 23  1  0  0  0  0
 26 23  2  0  0  0  0
 27 15  1  0  0  0  0
 27 29  1  0  0  0  0
 28 27  1  0  0  0  0
 30 27  1  0  0  0  0
 31  6  1  0  0  0  0
 31 32  1  0  0  0  0
 32 35  1  0  0  0  0
 33 32  1  0  0  0  0
 34 32  1  0  0  0  0
M  RAD  2   2   2   3   2
M  END
