Coordinates from ORCA-job p-CH3O-Ph-N2-OTs-B3LYPG-aug-cc-pVDZ-scan-d09-49-n400
 OpenBabel07022015293D

 35 34  0  0  0  0  0  0  0  0999 V2000
   -0.2757    0.2113   -3.0189 C   0  0  0  0  0  0  0  0  0  0  0  0
    0.4912    1.3381   -2.7144 C   0  0  0  0  0  0  0  0  0  0  0  0
    0.0639    2.1725   -1.8740 C   0  0  0  0  0  0  0  0  0  0  0  0
   -1.0675    2.2755   -1.1084 C   0  0  0  0  0  0  0  0  0  0  0  0
   -1.8871    1.1522   -1.3786 C   0  0  0  0  0  0  0  0  0  0  0  0
   -1.5030    0.1507   -2.3058 C   0  0  0  0  0  0  0  0  0  0  0  0
   -0.0142   -0.5759   -3.7241 H   0  0  0  0  0  0  0  0  0  0  0  0
    2.3042    1.7333   -3.6505 H   0  0  0  0  0  0  0  0  0  0  0  0
   -1.3344    3.0595   -0.4055 H   0  0  0  0  0  0  0  0  0  0  0  0
   -2.8337    1.0797   -0.8478 H   0  0  0  0  0  0  0  0  0  0  0  0
    1.2596    4.8998   -0.7422 N   0  0  0  0  0  0  0  0  0  0  0  0
    2.0620    5.6573   -0.7155 N   0  0  0  0  0  0  0  0  0  0  0  0
    5.9717    0.8021   -2.8841 C   0  0  0  0  0  0  0  0  0  0  0  0
    7.1022   -0.0021   -3.0487 C   0  0  0  0  0  0  0  0  0  0  0  0
    7.9260    0.1237   -4.1780 C   0  0  0  0  0  0  0  0  0  0  0  0
    7.5914    1.0824   -5.1493 C   0  0  0  0  0  0  0  0  0  0  0  0
    6.4672    1.8963   -5.0061 C   0  0  0  0  0  0  0  0  0  0  0  0
    5.6686    1.7408   -3.8707 C   0  0  0  0  0  0  0  0  0  0  0  0
    5.3403    0.7112   -2.0021 H   0  0  0  0  0  0  0  0  0  0  0  0
    7.3497   -0.7350   -2.2795 H   0  0  0  0  0  0  0  0  0  0  0  0
    8.2251    1.1973   -6.0300 H   0  0  0  0  0  0  0  0  0  0  0  0
    6.2125    2.6462   -5.7523 H   0  0  0  0  0  0  0  0  0  0  0  0
    4.2161    2.7822   -3.6783 S   0  0  0  0  0  0  0  0  0  0  0  0
    3.9165    2.9740   -2.2369 O   0  0  0  0  0  0  0  0  0  0  0  0
    3.0483    1.7818   -4.2965 O   0  0  0  0  0  0  0  0  0  0  0  0
    4.3396    3.9409   -4.5877 O   0  0  0  0  0  0  0  0  0  0  0  0
    9.1549   -0.7359   -4.3467 C   0  0  0  0  0  0  0  0  0  0  0  0
   10.0699   -0.1301   -4.2697 H   0  0  0  0  0  0  0  0  0  0  0  0
    9.2047   -1.5231   -3.5840 H   0  0  0  0  0  0  0  0  0  0  0  0
    9.1677   -1.2175   -5.3346 H   0  0  0  0  0  0  0  0  0  0  0  0
   -2.2705   -0.9433   -2.5905 O   0  0  0  0  0  0  0  0  0  0  0  0
   -3.5322   -1.0867   -1.9467 C   0  0  0  0  0  0  0  0  0  0  0  0
   -3.9654   -2.0064   -2.3502 H   0  0  0  0  0  0  0  0  0  0  0  0
   -4.1948   -0.2377   -2.1756 H   0  0  0  0  0  0  0  0  0  0  0  0
   -3.4149   -1.1832   -0.8559 H   0  0  0  0  0  0  0  0  0  0  0  0
  1  2  2  0  0  0  0
  1  6  1  0  0  0  0
  2  3  1  0  0  0  0
  3  4  2  0  0  0  0
  4  9  1  0  0  0  0
  5  4  1  0  0  0  0
  5 10  1  0  0  0  0
  6  5  2  0  0  0  0
  7  1  1  0  0  0  0
 11 12  3  0  0  0  0
 13 19  1  0  0  0  0
 14 13  1  0  0  0  0
 14 20  1  0  0  0  0
 15 14  2  0  0  0  0
 16 17  2  0  0  0  0
 16 15  1  0  0  0  0
 17 18  1  0  0  0  0
 18 23  1  0  0  0  0
 18 13  2  0  0  0  0
 21 16  1  0  0  0  0
 22 17  1  0  0  0  0
 23 24  2  0  0  0  0
 25 23  1  0  0  0  0
 25  8  1  0  0  0  0
 26 23  2  0  0  0  0
 27 28  1  0  0  0  0
 27 15  1  0  0  0  0
 27 29  1  0  0  0  0
 30 27  1  0  0  0  0
 31  6  1  0  0  0  0
 31 32  1  0  0  0  0
 32 35  1  0  0  0  0
 33 32  1  0  0  0  0
 34 32  1  0  0  0  0
M  RAD  2   2   2   3   2
M  END
