Coordinates from ORCA-job p-CH3O-Ph-N2-OTs-B3LYPG-aug-cc-pVDZ-scan-d09-49-n400
 OpenBabel07022015293D

 35 34  0  0  0  0  0  0  0  0999 V2000
   -0.2788    0.1942   -3.0277 C   0  0  0  0  0  0  0  0  0  0  0  0
    0.4920    1.3183   -2.7242 C   0  0  0  0  0  0  0  0  0  0  0  0
    0.0714    2.1542   -1.8823 C   0  0  0  0  0  0  0  0  0  0  0  0
   -1.0574    2.2615   -1.1132 C   0  0  0  0  0  0  0  0  0  0  0  0
   -1.8816    1.1410   -1.3817 C   0  0  0  0  0  0  0  0  0  0  0  0
   -1.5041    0.1383   -2.3105 C   0  0  0  0  0  0  0  0  0  0  0  0
   -0.0225   -0.5934   -3.7344 H   0  0  0  0  0  0  0  0  0  0  0  0
    2.3060    1.7326   -3.6629 H   0  0  0  0  0  0  0  0  0  0  0  0
   -1.3199    3.0458   -0.4091 H   0  0  0  0  0  0  0  0  0  0  0  0
   -2.8269    1.0711   -0.8483 H   0  0  0  0  0  0  0  0  0  0  0  0
    1.2922    4.9582   -0.7081 N   0  0  0  0  0  0  0  0  0  0  0  0
    2.0945    5.7159   -0.6816 N   0  0  0  0  0  0  0  0  0  0  0  0
    5.9660    0.8077   -2.8845 C   0  0  0  0  0  0  0  0  0  0  0  0
    7.0955    0.0014   -3.0461 C   0  0  0  0  0  0  0  0  0  0  0  0
    7.9209    0.1237   -4.1747 C   0  0  0  0  0  0  0  0  0  0  0  0
    7.5890    1.0810   -5.1483 C   0  0  0  0  0  0  0  0  0  0  0  0
    6.4660    1.8969   -5.0080 C   0  0  0  0  0  0  0  0  0  0  0  0
    5.6657    1.7449   -3.8733 C   0  0  0  0  0  0  0  0  0  0  0  0
    5.3333    0.7193   -2.0032 H   0  0  0  0  0  0  0  0  0  0  0  0
    7.3411   -0.7304   -2.2753 H   0  0  0  0  0  0  0  0  0  0  0  0
    8.2240    1.1934   -6.0284 H   0  0  0  0  0  0  0  0  0  0  0  0
    6.2135    2.6459   -5.7559 H   0  0  0  0  0  0  0  0  0  0  0  0
    4.2142    2.7888   -3.6857 S   0  0  0  0  0  0  0  0  0  0  0  0
    3.9088    2.9783   -2.2453 O   0  0  0  0  0  0  0  0  0  0  0  0
    3.0462    1.7931   -4.3118 O   0  0  0  0  0  0  0  0  0  0  0  0
    4.3439    3.9481   -4.5931 O   0  0  0  0  0  0  0  0  0  0  0  0
    9.1487   -0.7382   -4.3403 C   0  0  0  0  0  0  0  0  0  0  0  0
   10.0645   -0.1333   -4.2653 H   0  0  0  0  0  0  0  0  0  0  0  0
    9.1973   -1.5229   -3.5750 H   0  0  0  0  0  0  0  0  0  0  0  0
    9.1609   -1.2231   -5.3266 H   0  0  0  0  0  0  0  0  0  0  0  0
   -2.2768   -0.9527   -2.5931 O   0  0  0  0  0  0  0  0  0  0  0  0
   -3.5374   -1.0911   -1.9458 C   0  0  0  0  0  0  0  0  0  0  0  0
   -3.9753   -2.0090   -2.3484 H   0  0  0  0  0  0  0  0  0  0  0  0
   -4.1972   -0.2394   -2.1726 H   0  0  0  0  0  0  0  0  0  0  0  0
   -3.4174   -1.1884   -0.8553 H   0  0  0  0  0  0  0  0  0  0  0  0
  1  2  2  0  0  0  0
  1  6  1  0  0  0  0
  2  3  1  0  0  0  0
  3  4  2  0  0  0  0
  4  9  1  0  0  0  0
  5  4  1  0  0  0  0
  5 10  1  0  0  0  0
  6  5  2  0  0  0  0
  7  1  1  0  0  0  0
 11 12  3  0  0  0  0
 13 19  1  0  0  0  0
 14 13  1  0  0  0  0
 14 20  1  0  0  0  0
 15 14  2  0  0  0  0
 16 17  2  0  0  0  0
 16 15  1  0  0  0  0
 17 18  1  0  0  0  0
 18 23  1  0  0  0  0
 18 13  2  0  0  0  0
 21 16  1  0  0  0  0
 22 17  1  0  0  0  0
 23 24  2  0  0  0  0
 25 23  1  0  0  0  0
 25  8  1  0  0  0  0
 26 23  2  0  0  0  0
 27 28  1  0  0  0  0
 27 15  1  0  0  0  0
 27 29  1  0  0  0  0
 30 27  1  0  0  0  0
 31  6  1  0  0  0  0
 31 32  1  0  0  0  0
 32 35  1  0  0  0  0
 33 32  1  0  0  0  0
 34 32  1  0  0  0  0
M  RAD  2   2   2   3   2
M  END
