Coordinates from ORCA-job p-CH3O-Ph-N2-OTs-B3LYPG-aug-cc-pVDZ-scan-d09-49-n400
 OpenBabel07022015293D

 35 34  0  0  0  0  0  0  0  0999 V2000
   -0.4978   -1.2911   -2.8036 C   0  0  0  0  0  0  0  0  0  0  0  0
    0.7602   -0.7381   -2.7529 C   0  0  0  0  0  0  0  0  0  0  0  0
    1.1348    0.4121   -2.4181 C   0  0  0  0  0  0  0  0  0  0  0  0
    0.2753    1.3864   -1.9070 C   0  0  0  0  0  0  0  0  0  0  0  0
   -1.0643    0.9509   -1.8860 C   0  0  0  0  0  0  0  0  0  0  0  0
   -1.4474   -0.3472   -2.3153 C   0  0  0  0  0  0  0  0  0  0  0  0
   -0.7968   -2.2901   -3.1099 H   0  0  0  0  0  0  0  0  0  0  0  0
    2.2850    1.3855   -3.9717 H   0  0  0  0  0  0  0  0  0  0  0  0
    0.5707    2.3837   -1.5933 H   0  0  0  0  0  0  0  0  0  0  0  0
   -1.8209    1.6499   -1.5355 H   0  0  0  0  0  0  0  0  0  0  0  0
    1.5025    4.3465   -0.1241 N   0  0  0  0  0  0  0  0  0  0  0  0
    2.3004    4.9744    0.3086 N   0  0  0  0  0  0  0  0  0  0  0  0
    5.6597    1.0576   -2.8804 C   0  0  0  0  0  0  0  0  0  0  0  0
    6.8420    0.3172   -2.9648 C   0  0  0  0  0  0  0  0  0  0  0  0
    7.7182    0.4666   -4.0503 C   0  0  0  0  0  0  0  0  0  0  0  0
    7.3835    1.3836   -5.0618 C   0  0  0  0  0  0  0  0  0  0  0  0
    6.2087    2.1324   -4.9998 C   0  0  0  0  0  0  0  0  0  0  0  0
    5.3587    1.9556   -3.9047 C   0  0  0  0  0  0  0  0  0  0  0  0
    4.9873    0.9483   -2.0315 H   0  0  0  0  0  0  0  0  0  0  0  0
    7.0888   -0.3837   -2.1662 H   0  0  0  0  0  0  0  0  0  0  0  0
    8.0576    1.5174   -5.9094 H   0  0  0  0  0  0  0  0  0  0  0  0
    5.9543    2.8504   -5.7769 H   0  0  0  0  0  0  0  0  0  0  0  0
    3.8313    2.9026   -3.8305 S   0  0  0  0  0  0  0  0  0  0  0  0
    3.3790    2.9844   -2.4189 O   0  0  0  0  0  0  0  0  0  0  0  0
    2.7597    1.9297   -4.6375 O   0  0  0  0  0  0  0  0  0  0  0  0
    3.9714    4.1055   -4.6730 O   0  0  0  0  0  0  0  0  0  0  0  0
    9.0024   -0.3222   -4.1291 C   0  0  0  0  0  0  0  0  0  0  0  0
    9.8730    0.3322   -3.9731 H   0  0  0  0  0  0  0  0  0  0  0  0
    9.0353   -1.1145   -3.3709 H   0  0  0  0  0  0  0  0  0  0  0  0
    9.1207   -0.7887   -5.1169 H   0  0  0  0  0  0  0  0  0  0  0  0
   -2.7314   -0.8073   -2.2856 O   0  0  0  0  0  0  0  0  0  0  0  0
   -3.7538    0.0371   -1.7603 C   0  0  0  0  0  0  0  0  0  0  0  0
   -4.6741   -0.5533   -1.8047 H   0  0  0  0  0  0  0  0  0  0  0  0
   -3.8695    0.9460   -2.3693 H   0  0  0  0  0  0  0  0  0  0  0  0
   -3.5440    0.3119   -0.7159 H   0  0  0  0  0  0  0  0  0  0  0  0
  1  2  2  0  0  0  0
  1  6  1  0  0  0  0
  2  3  1  0  0  0  0
  3  4  2  0  0  0  0
  4  5  1  0  0  0  0
  4  9  1  0  0  0  0
  5 10  1  0  0  0  0
  6 31  1  0  0  0  0
  6  5  2  0  0  0  0
  7  1  1  0  0  0  0
 11 12  3  0  0  0  0
 13 19  1  0  0  0  0
 14 13  1  0  0  0  0
 14 20  1  0  0  0  0
 15 14  2  0  0  0  0
 16 17  2  0  0  0  0
 16 15  1  0  0  0  0
 17 18  1  0  0  0  0
 18 23  1  0  0  0  0
 18 13  2  0  0  0  0
 21 16  1  0  0  0  0
 22 17  1  0  0  0  0
 23 24  2  0  0  0  0
 25  8  1  0  0  0  0
 25 23  1  0  0  0  0
 26 23  2  0  0  0  0
 27 15  1  0  0  0  0
 27 28  1  0  0  0  0
 27 29  1  0  0  0  0
 30 27  1  0  0  0  0
 31 32  1  0  0  0  0
 32 35  1  0  0  0  0
 33 32  1  0  0  0  0
 34 32  1  0  0  0  0
M  RAD  2   2   2   3   2
M  END
