Coordinates from ORCA-job p-CH3O-Ph-N2-OTs-B3LYPG-aug-cc-pVDZ-scan-d09-49-n400
 OpenBabel07022015293D

 35 34  0  0  0  0  0  0  0  0999 V2000
   -0.1701    0.3702   -2.8521 C   0  0  0  0  0  0  0  0  0  0  0  0
    0.5322    1.5418   -2.5352 C   0  0  0  0  0  0  0  0  0  0  0  0
   -0.0361    2.3556   -1.7515 C   0  0  0  0  0  0  0  0  0  0  0  0
   -1.2268    2.4226   -1.0851 C   0  0  0  0  0  0  0  0  0  0  0  0
   -1.9647    1.2524   -1.3845 C   0  0  0  0  0  0  0  0  0  0  0  0
   -1.4480    0.2527   -2.2462 C   0  0  0  0  0  0  0  0  0  0  0  0
    0.1900   -0.4213   -3.5084 H   0  0  0  0  0  0  0  0  0  0  0  0
    2.2800    1.7558   -3.4710 H   0  0  0  0  0  0  0  0  0  0  0  0
   -1.5862    3.2123   -0.4314 H   0  0  0  0  0  0  0  0  0  0  0  0
   -2.9480    1.1459   -0.9321 H   0  0  0  0  0  0  0  0  0  0  0  0
    1.0497    4.5245   -1.0177 N   0  0  0  0  0  0  0  0  0  0  0  0
    1.8966    5.2325   -1.0393 N   0  0  0  0  0  0  0  0  0  0  0  0
    6.0122    0.7597   -2.8656 C   0  0  0  0  0  0  0  0  0  0  0  0
    7.1405   -0.0369   -3.0715 C   0  0  0  0  0  0  0  0  0  0  0  0
    7.9312    0.1060   -4.2226 C   0  0  0  0  0  0  0  0  0  0  0  0
    7.5635    1.0727   -5.1734 C   0  0  0  0  0  0  0  0  0  0  0  0
    6.4393    1.8788   -4.9891 C   0  0  0  0  0  0  0  0  0  0  0  0
    5.6754    1.7069   -3.8329 C   0  0  0  0  0  0  0  0  0  0  0  0
    5.4073    0.6571   -1.9666 H   0  0  0  0  0  0  0  0  0  0  0  0
    7.4123   -0.7774   -2.3180 H   0  0  0  0  0  0  0  0  0  0  0  0
    8.1711    1.1993   -6.0707 H   0  0  0  0  0  0  0  0  0  0  0  0
    6.1584    2.6337   -5.7209 H   0  0  0  0  0  0  0  0  0  0  0  0
    4.2277    2.7417   -3.5762 S   0  0  0  0  0  0  0  0  0  0  0  0
    4.0130    2.9618   -2.1230 O   0  0  0  0  0  0  0  0  0  0  0  0
    3.0448    1.7138   -4.1026 O   0  0  0  0  0  0  0  0  0  0  0  0
    4.2920    3.8905   -4.5059 O   0  0  0  0  0  0  0  0  0  0  0  0
    9.1608   -0.7437   -4.4326 C   0  0  0  0  0  0  0  0  0  0  0  0
   10.0751   -0.1405   -4.3287 H   0  0  0  0  0  0  0  0  0  0  0  0
    9.2124   -1.5637   -3.7056 H   0  0  0  0  0  0  0  0  0  0  0  0
    9.1736   -1.1799   -5.4412 H   0  0  0  0  0  0  0  0  0  0  0  0
   -2.1262   -0.8896   -2.5639 O   0  0  0  0  0  0  0  0  0  0  0  0
   -3.4234   -1.0965   -2.0152 C   0  0  0  0  0  0  0  0  0  0  0  0
   -3.7675   -2.0498   -2.4261 H   0  0  0  0  0  0  0  0  0  0  0  0
   -4.1163   -0.2959   -2.3168 H   0  0  0  0  0  0  0  0  0  0  0  0
   -3.3856   -1.1613   -0.9164 H   0  0  0  0  0  0  0  0  0  0  0  0
  1  2  2  0  0  0  0
  1  6  1  0  0  0  0
  2  3  1  0  0  0  0
  3  4  2  0  0  0  0
  4  9  1  0  0  0  0
  5  4  1  0  0  0  0
  5 10  1  0  0  0  0
  6  5  2  0  0  0  0
  7  1  1  0  0  0  0
 12 11  3  0  0  0  0
 13 19  1  0  0  0  0
 14 13  1  0  0  0  0
 14 20  1  0  0  0  0
 15 14  2  0  0  0  0
 16 17  2  0  0  0  0
 16 15  1  0  0  0  0
 17 18  1  0  0  0  0
 18 23  1  0  0  0  0
 18 13  2  0  0  0  0
 21 16  1  0  0  0  0
 22 17  1  0  0  0  0
 23 24  2  0  0  0  0
 25 23  1  0  0  0  0
 25  8  1  0  0  0  0
 26 23  2  0  0  0  0
 27 28  1  0  0  0  0
 27 15  1  0  0  0  0
 27 29  1  0  0  0  0
 30 27  1  0  0  0  0
 31  6  1  0  0  0  0
 31 32  1  0  0  0  0
 32 35  1  0  0  0  0
 33 32  1  0  0  0  0
 34 32  1  0  0  0  0
M  RAD  2   2   2   3   2
M  END
