Coordinates from ORCA-job p-CH3O-Ph-N2-OTs-B3LYPG-aug-cc-pVDZ-scan-d09-49-n400
 OpenBabel07022015293D

 35 36  0  0  1  0  0  0  0  0999 V2000
    1.1505    0.6041   -2.8446 C   0  0  0  0  0  0  0  0  0  0  0  0
    1.2320    1.8067   -3.7013 C   0  0  1  0  0  0  0  0  0  0  0  0
   -0.0126    2.6356   -3.6035 C   0  0  0  0  0  0  0  0  0  0  0  0
   -0.9163    2.5238   -2.4908 C   0  0  0  0  0  0  0  0  0  0  0  0
   -0.7828    1.4958   -1.6097 C   0  0  0  0  0  0  0  0  0  0  0  0
    0.2471    0.4948   -1.8320 C   0  0  0  0  0  0  0  0  0  0  0  0
    1.8854   -0.1847   -2.9927 H   0  0  0  0  0  0  0  0  0  0  0  0
    1.4909    1.5876   -4.7403 H   0  0  0  0  0  0  0  0  0  0  0  0
   -1.7009    3.2706   -2.3742 H   0  0  0  0  0  0  0  0  0  0  0  0
   -1.4557    1.4206   -0.7611 H   0  0  0  0  0  0  0  0  0  0  0  0
   -0.2144    3.5378   -4.5046 N   0  0  0  0  0  0  0  0  0  0  0  0
   -0.3763    4.3290   -5.3069 N   0  0  0  0  0  0  0  0  0  0  0  0
    5.0435    0.8217   -4.9202 C   0  0  0  0  0  0  0  0  0  0  0  0
    6.0227   -0.1506   -4.6844 C   0  0  0  0  0  0  0  0  0  0  0  0
    6.7994   -0.1307   -3.5183 C   0  0  0  0  0  0  0  0  0  0  0  0
    6.5763    0.8950   -2.5807 C   0  0  0  0  0  0  0  0  0  0  0  0
    5.6093    1.8738   -2.7962 C   0  0  0  0  0  0  0  0  0  0  0  0
    4.8483    1.8208   -3.9683 C   0  0  0  0  0  0  0  0  0  0  0  0
    4.4547    0.8183   -5.8353 H   0  0  0  0  0  0  0  0  0  0  0  0
    6.1882   -0.9295   -5.4300 H   0  0  0  0  0  0  0  0  0  0  0  0
    7.1767    0.9309   -1.6705 H   0  0  0  0  0  0  0  0  0  0  0  0
    5.4502    2.6757   -2.0775 H   0  0  0  0  0  0  0  0  0  0  0  0
    3.6098    3.0970   -4.2484 S   0  0  0  0  0  0  0  0  0  0  0  0
    2.3996    2.6862   -3.1999 O   0  0  0  0  0  0  0  0  0  0  0  0
    3.1034    2.9656   -5.6413 O   0  0  0  0  0  0  0  0  0  0  0  0
    4.1315    4.3839   -3.7433 O   0  0  0  0  0  0  0  0  0  0  0  0
    7.8624   -1.1714   -3.2649 C   0  0  0  0  0  0  0  0  0  0  0  0
    7.6767   -1.7023   -2.3197 H   0  0  0  0  0  0  0  0  0  0  0  0
    7.8986   -1.9176   -4.0686 H   0  0  0  0  0  0  0  0  0  0  0  0
    8.8559   -0.7068   -3.1856 H   0  0  0  0  0  0  0  0  0  0  0  0
    0.3459   -0.6127   -1.0355 O   0  0  0  0  0  0  0  0  0  0  0  0
   -0.7356   -0.9517   -0.1686 C   0  0  0  0  0  0  0  0  0  0  0  0
   -0.4834   -1.9346    0.2409 H   0  0  0  0  0  0  0  0  0  0  0  0
   -1.6848   -1.0182   -0.7200 H   0  0  0  0  0  0  0  0  0  0  0  0
   -0.8359   -0.2326    0.6579 H   0  0  0  0  0  0  0  0  0  0  0  0
  1  6  1  0  0  0  0
  2  8  1  6  0  0  0
  2  3  1  0  0  0  0
  2 24  1  0  0  0  0
  2  1  1  0  0  0  0
  3  4  2  0  0  0  0
  4  9  1  0  0  0  0
  4  5  1  0  0  0  0
  5 10  1  0  0  0  0
  6  5  2  0  0  0  0
  6 31  1  0  0  0  0
  7  1  1  0  0  0  0
 11  3  1  0  0  0  0
 12 11  1  0  0  0  0
 13 14  2  0  0  0  0
 13 18  1  0  0  0  0
 14 15  1  0  0  0  0
 15 27  1  0  0  0  0
 15 16  2  0  0  0  0
 16 21  1  0  0  0  0
 17 16  1  0  0  0  0
 17 22  1  0  0  0  0
 18 17  2  0  0  0  0
 19 13  1  0  0  0  0
 20 14  1  0  0  0  0
 23 18  1  0  0  0  0
 23 26  2  0  0  0  0
 23 24  1  0  0  0  0
 25 23  2  0  0  0  0
 27 30  1  0  0  0  0
 27 28  1  0  0  0  0
 29 27  1  0  0  0  0
 31 32  1  0  0  0  0
 32 33  1  0  0  0  0
 32 35  1  0  0  0  0
 34 32  1  0  0  0  0
M  RAD  3   1   2  11   2  12   3
M  END
