Coordinates from ORCA-job p-CH3O-Ph-N2-OTs-B3LYPG-aug-cc-pVDZ-scan-d09-49-n400
 OpenBabel07022015293D

 35 34  0  0  0  0  0  0  0  0999 V2000
   -0.1778    0.2015   -2.8022 C   0  0  0  0  0  0  0  0  0  0  0  0
    0.6409    1.3333   -3.0140 C   0  0  0  0  0  0  0  0  0  0  0  0
    0.1389    2.3525   -2.3271 C   0  0  0  0  0  0  0  0  0  0  0  0
   -0.8970    2.6267   -1.4988 C   0  0  0  0  0  0  0  0  0  0  0  0
   -1.6781    1.4619   -1.3231 C   0  0  0  0  0  0  0  0  0  0  0  0
   -1.3138    0.2613   -1.9675 C   0  0  0  0  0  0  0  0  0  0  0  0
    0.0797   -0.7372   -3.2920 H   0  0  0  0  0  0  0  0  0  0  0  0
    1.5930    1.3198   -3.6777 H   0  0  0  0  0  0  0  0  0  0  0  0
   -1.1223    3.5771   -1.0267 H   0  0  0  0  0  0  0  0  0  0  0  0
   -2.5578    1.5328   -0.6888 H   0  0  0  0  0  0  0  0  0  0  0  0
    1.2496    4.1898   -2.5913 N   0  0  0  0  0  0  0  0  0  0  0  0
    1.5885    5.2356   -2.6786 N   0  0  0  0  0  0  0  0  0  0  0  0
    5.5063    0.1959   -4.4707 C   0  0  0  0  0  0  0  0  0  0  0  0
    6.7506   -0.4450   -4.4804 C   0  0  0  0  0  0  0  0  0  0  0  0
    7.9127    0.2170   -4.0657 C   0  0  0  0  0  0  0  0  0  0  0  0
    7.8003    1.5532   -3.6411 C   0  0  0  0  0  0  0  0  0  0  0  0
    6.5687    2.2060   -3.6261 C   0  0  0  0  0  0  0  0  0  0  0  0
    5.4245    1.5175   -4.0405 C   0  0  0  0  0  0  0  0  0  0  0  0
    4.6055   -0.3178   -4.7994 H   0  0  0  0  0  0  0  0  0  0  0  0
    6.8121   -1.4810   -4.8176 H   0  0  0  0  0  0  0  0  0  0  0  0
    8.6922    2.0922   -3.3167 H   0  0  0  0  0  0  0  0  0  0  0  0
    6.4955    3.2431   -3.3017 H   0  0  0  0  0  0  0  0  0  0  0  0
    3.8352    2.3902   -4.0069 S   0  0  0  0  0  0  0  0  0  0  0  0
    3.5066    2.6539   -2.5535 O   0  0  0  0  0  0  0  0  0  0  0  0
    2.8271    1.3814   -4.6093 O   0  0  0  0  0  0  0  0  0  0  0  0
    3.9886    3.6227   -4.8394 O   0  0  0  0  0  0  0  0  0  0  0  0
    9.2558   -0.4747   -4.0671 C   0  0  0  0  0  0  0  0  0  0  0  0
    9.6564   -0.5660   -3.0464 H   0  0  0  0  0  0  0  0  0  0  0  0
    9.1839   -1.4834   -4.4927 H   0  0  0  0  0  0  0  0  0  0  0  0
    9.9929    0.0900   -4.6568 H   0  0  0  0  0  0  0  0  0  0  0  0
   -2.0016   -0.9009   -1.8441 O   0  0  0  0  0  0  0  0  0  0  0  0
   -3.1537   -0.9316   -1.0008 C   0  0  0  0  0  0  0  0  0  0  0  0
   -3.5074   -1.9658   -1.0238 H   0  0  0  0  0  0  0  0  0  0  0  0
   -3.9400   -0.2644   -1.3849 H   0  0  0  0  0  0  0  0  0  0  0  0
   -2.8960   -0.6558    0.0328 H   0  0  0  0  0  0  0  0  0  0  0  0
  1  6  1  0  0  0  0
  2  1  2  0  0  0  0
  2  3  1  0  0  0  0
  3  4  2  0  0  0  0
  4  5  1  0  0  0  0
  4  9  1  0  0  0  0
  5 10  1  0  0  0  0
  6 31  1  0  0  0  0
  6  5  2  0  0  0  0
  7  1  1  0  0  0  0
  8  2  1  0  0  0  0
 12 11  3  0  0  0  0
 13 18  1  0  0  0  0
 14 13  2  0  0  0  0
 14 15  1  0  0  0  0
 15 16  2  0  0  0  0
 16 17  1  0  0  0  0
 16 21  1  0  0  0  0
 17 22  1  0  0  0  0
 18 23  1  0  0  0  0
 18 17  2  0  0  0  0
 19 13  1  0  0  0  0
 20 14  1  0  0  0  0
 23 24  1  0  0  0  0
 25 23  2  0  0  0  0
 26 23  2  0  0  0  0
 27 15  1  0  0  0  0
 27 28  1  0  0  0  0
 29 27  1  0  0  0  0
 30 27  1  0  0  0  0
 31 32  1  0  0  0  0
 32 35  1  0  0  0  0
 33 32  1  0  0  0  0
 34 32  1  0  0  0  0
M  RAD  2   3   2  24   2
M  END
