Coordinates from ORCA-job p-CH3O-Ph-N2-OTs-B3LYPG-aug-cc-pVDZ-scan-d09-49-n400
 OpenBabel07022015293D

 35 34  0  0  0  0  0  0  0  0999 V2000
   -0.2973    0.1023   -3.0526 C   0  0  0  0  0  0  0  0  0  0  0  0
    0.4915    1.2143   -2.7584 C   0  0  0  0  0  0  0  0  0  0  0  0
    0.1022    2.0682   -1.9209 C   0  0  0  0  0  0  0  0  0  0  0  0
   -1.0222    2.2003   -1.1465 C   0  0  0  0  0  0  0  0  0  0  0  0
   -1.8689    1.0939   -1.4015 C   0  0  0  0  0  0  0  0  0  0  0  0
   -1.5179    0.0767   -2.3253 C   0  0  0  0  0  0  0  0  0  0  0  0
   -0.0610   -0.6938   -3.7565 H   0  0  0  0  0  0  0  0  0  0  0  0
    2.3313    1.7496   -3.6961 H   0  0  0  0  0  0  0  0  0  0  0  0
   -1.2666    2.9945   -0.4463 H   0  0  0  0  0  0  0  0  0  0  0  0
   -2.8119    1.0442   -0.8619 H   0  0  0  0  0  0  0  0  0  0  0  0
    1.4141    5.2000   -0.6182 N   0  0  0  0  0  0  0  0  0  0  0  0
    2.2270    5.9469   -0.6149 N   0  0  0  0  0  0  0  0  0  0  0  0
    5.9548    0.8299   -2.8784 C   0  0  0  0  0  0  0  0  0  0  0  0
    7.0761    0.0113   -3.0388 C   0  0  0  0  0  0  0  0  0  0  0  0
    7.9017    0.1222   -4.1680 C   0  0  0  0  0  0  0  0  0  0  0  0
    7.5790    1.0807   -5.1437 C   0  0  0  0  0  0  0  0  0  0  0  0
    6.4653    1.9091   -5.0044 C   0  0  0  0  0  0  0  0  0  0  0  0
    5.6640    1.7684   -3.8687 C   0  0  0  0  0  0  0  0  0  0  0  0
    5.3224    0.7509   -1.9960 H   0  0  0  0  0  0  0  0  0  0  0  0
    7.3147   -0.7208   -2.2661 H   0  0  0  0  0  0  0  0  0  0  0  0
    8.2145    1.1848   -6.0245 H   0  0  0  0  0  0  0  0  0  0  0  0
    6.2220    2.6604   -5.7531 H   0  0  0  0  0  0  0  0  0  0  0  0
    4.2244    2.8301   -3.6845 S   0  0  0  0  0  0  0  0  0  0  0  0
    3.8934    2.9871   -2.2460 O   0  0  0  0  0  0  0  0  0  0  0  0
    3.0451    1.8802   -4.3612 O   0  0  0  0  0  0  0  0  0  0  0  0
    4.3903    4.0061   -4.5632 O   0  0  0  0  0  0  0  0  0  0  0  0
    9.1208   -0.7521   -4.3326 C   0  0  0  0  0  0  0  0  0  0  0  0
   10.0424   -0.1555   -4.2636 H   0  0  0  0  0  0  0  0  0  0  0  0
    9.1646   -1.5332   -3.5633 H   0  0  0  0  0  0  0  0  0  0  0  0
    9.1255   -1.2425   -5.3163 H   0  0  0  0  0  0  0  0  0  0  0  0
   -2.3140   -1.0011   -2.5936 O   0  0  0  0  0  0  0  0  0  0  0  0
   -3.5723   -1.1100   -1.9360 C   0  0  0  0  0  0  0  0  0  0  0  0
   -4.0312   -2.0222   -2.3284 H   0  0  0  0  0  0  0  0  0  0  0  0
   -4.2173   -0.2476   -2.1646 H   0  0  0  0  0  0  0  0  0  0  0  0
   -3.4463   -1.2013   -0.8458 H   0  0  0  0  0  0  0  0  0  0  0  0
  1  2  2  0  0  0  0
  1  6  1  0  0  0  0
  2  3  1  0  0  0  0
  3  4  2  0  0  0  0
  4  9  1  0  0  0  0
  5  4  1  0  0  0  0
  5 10  1  0  0  0  0
  6  5  2  0  0  0  0
  7  1  1  0  0  0  0
 11 12  3  0  0  0  0
 13 19  1  0  0  0  0
 14 13  1  0  0  0  0
 14 20  1  0  0  0  0
 15 14  2  0  0  0  0
 16 17  2  0  0  0  0
 16 15  1  0  0  0  0
 17 18  1  0  0  0  0
 18 23  1  0  0  0  0
 18 13  2  0  0  0  0
 21 16  1  0  0  0  0
 22 17  1  0  0  0  0
 23 24  2  0  0  0  0
 25  8  1  0  0  0  0
 25 23  1  0  0  0  0
 26 23  2  0  0  0  0
 27 28  1  0  0  0  0
 27 15  1  0  0  0  0
 27 29  1  0  0  0  0
 30 27  1  0  0  0  0
 31  6  1  0  0  0  0
 31 32  1  0  0  0  0
 32 35  1  0  0  0  0
 33 32  1  0  0  0  0
 34 32  1  0  0  0  0
M  RAD  2   2   2   3   2
M  END
