Coordinates from ORCA-job p-CH3O-Ph-N2-OTs-B3LYPG-aug-cc-pVDZ-scan-d09-49-n400
 OpenBabel07022015293D

 35 34  0  0  0  0  0  0  0  0999 V2000
   -0.1581   -1.1332   -2.8081 C   0  0  0  0  0  0  0  0  0  0  0  0
    0.9623   -0.3475   -2.6946 C   0  0  0  0  0  0  0  0  0  0  0  0
    1.1118    0.8444   -2.3303 C   0  0  0  0  0  0  0  0  0  0  0  0
    0.0574    1.6184   -1.8372 C   0  0  0  0  0  0  0  0  0  0  0  0
   -1.1744    0.9360   -1.8746 C   0  0  0  0  0  0  0  0  0  0  0  0
   -1.2874   -0.3996   -2.3419 C   0  0  0  0  0  0  0  0  0  0  0  0
   -0.2486   -2.1630   -3.1435 H   0  0  0  0  0  0  0  0  0  0  0  0
    2.3884    1.9585   -3.6155 H   0  0  0  0  0  0  0  0  0  0  0  0
    0.1373    2.6474   -1.4942 H   0  0  0  0  0  0  0  0  0  0  0  0
   -2.0632    1.4664   -1.5409 H   0  0  0  0  0  0  0  0  0  0  0  0
    1.2038    5.0403   -0.7661 N   0  0  0  0  0  0  0  0  0  0  0  0
    1.8318    5.8918   -0.4516 N   0  0  0  0  0  0  0  0  0  0  0  0
    5.7343    1.0430   -2.7435 C   0  0  0  0  0  0  0  0  0  0  0  0
    6.7728    0.1386   -2.9888 C   0  0  0  0  0  0  0  0  0  0  0  0
    7.5579    0.2311   -4.1470 C   0  0  0  0  0  0  0  0  0  0  0  0
    7.2823    1.2598   -5.0655 C   0  0  0  0  0  0  0  0  0  0  0  0
    6.2518    2.1717   -4.8426 C   0  0  0  0  0  0  0  0  0  0  0  0
    5.4874    2.0474   -3.6790 C   0  0  0  0  0  0  0  0  0  0  0  0
    5.1364    0.9835   -1.8363 H   0  0  0  0  0  0  0  0  0  0  0  0
    6.9781   -0.6451   -2.2584 H   0  0  0  0  0  0  0  0  0  0  0  0
    7.8894    1.3502   -5.9673 H   0  0  0  0  0  0  0  0  0  0  0  0
    6.0492    2.9772   -5.5459 H   0  0  0  0  0  0  0  0  0  0  0  0
    4.1492    3.2159   -3.3928 S   0  0  0  0  0  0  0  0  0  0  0  0
    3.7921    3.1997   -1.9527 O   0  0  0  0  0  0  0  0  0  0  0  0
    2.8878    2.5414   -4.2297 O   0  0  0  0  0  0  0  0  0  0  0  0
    4.4484    4.4716   -4.1081 O   0  0  0  0  0  0  0  0  0  0  0  0
    8.6860   -0.7367   -4.4087 C   0  0  0  0  0  0  0  0  0  0  0  0
    9.6534   -0.2144   -4.4344 H   0  0  0  0  0  0  0  0  0  0  0  0
    8.7393   -1.5148   -3.6370 H   0  0  0  0  0  0  0  0  0  0  0  0
    8.5608   -1.2338   -5.3816 H   0  0  0  0  0  0  0  0  0  0  0  0
   -2.4598   -1.0964   -2.3714 O   0  0  0  0  0  0  0  0  0  0  0  0
   -3.6400   -0.4821   -1.8574 C   0  0  0  0  0  0  0  0  0  0  0  0
   -4.4277   -1.2364   -1.9497 H   0  0  0  0  0  0  0  0  0  0  0  0
   -3.9138    0.4073   -2.4445 H   0  0  0  0  0  0  0  0  0  0  0  0
   -3.5162   -0.2067   -0.7994 H   0  0  0  0  0  0  0  0  0  0  0  0
  1  2  2  0  0  0  0
  1  6  1  0  0  0  0
  2  3  1  0  0  0  0
  3  4  2  0  0  0  0
  4  9  1  0  0  0  0
  5  4  1  0  0  0  0
  5 10  1  0  0  0  0
  6  5  2  0  0  0  0
  7  1  1  0  0  0  0
 11 12  3  0  0  0  0
 13 19  1  0  0  0  0
 14 13  1  0  0  0  0
 14 20  1  0  0  0  0
 15 14  2  0  0  0  0
 16 17  2  0  0  0  0
 16 15  1  0  0  0  0
 17 18  1  0  0  0  0
 18 23  1  0  0  0  0
 18 13  2  0  0  0  0
 21 16  1  0  0  0  0
 22 17  1  0  0  0  0
 23 24  2  0  0  0  0
 25  8  1  0  0  0  0
 25 23  1  0  0  0  0
 26 23  2  0  0  0  0
 27 15  1  0  0  0  0
 27 29  1  0  0  0  0
 28 27  1  0  0  0  0
 30 27  1  0  0  0  0
 31  6  1  0  0  0  0
 31 32  1  0  0  0  0
 32 35  1  0  0  0  0
 33 32  1  0  0  0  0
 34 32  1  0  0  0  0
M  RAD  2   2   2   3   2
M  END
