Coordinates from ORCA-job p-CH3O-Ph-N2-OTs-B3LYPG-aug-cc-pVDZ-scan-d09-49-n400
 OpenBabel07022015293D

 35 35  0  0  0  0  0  0  0  0999 V2000
   -0.6048    0.0522   -2.4260 C   0  0  0  0  0  0  0  0  0  0  0  0
    0.4710    0.9228   -2.5706 C   0  0  0  0  0  0  0  0  0  0  0  0
    0.2099    2.2351   -2.2108 C   0  0  0  0  0  0  0  0  0  0  0  0
   -0.9734    2.7503   -1.7195 C   0  0  0  0  0  0  0  0  0  0  0  0
   -2.0356    1.8527   -1.5869 C   0  0  0  0  0  0  0  0  0  0  0  0
   -1.8498    0.5022   -1.9401 C   0  0  0  0  0  0  0  0  0  0  0  0
   -0.4859   -0.9996   -2.6806 H   0  0  0  0  0  0  0  0  0  0  0  0
    1.4432    0.5712   -2.9207 H   0  0  0  0  0  0  0  0  0  0  0  0
   -1.0737    3.7985   -1.4501 H   0  0  0  0  0  0  0  0  0  0  0  0
   -2.9858    2.2154   -1.2066 H   0  0  0  0  0  0  0  0  0  0  0  0
    1.4335    3.3368   -2.3440 N   0  0  0  0  0  0  0  0  0  0  0  0
    2.4643    3.6109   -2.7043 N   0  0  0  0  0  0  0  0  0  0  0  0
    6.0980   -0.2338   -4.2953 C   0  0  0  0  0  0  0  0  0  0  0  0
    7.4074   -0.3055   -4.7835 C   0  0  0  0  0  0  0  0  0  0  0  0
    8.3319    0.7194   -4.5406 C   0  0  0  0  0  0  0  0  0  0  0  0
    7.9114    1.8320   -3.7899 C   0  0  0  0  0  0  0  0  0  0  0  0
    6.6111    1.9199   -3.2952 C   0  0  0  0  0  0  0  0  0  0  0  0
    5.7129    0.8803   -3.5528 C   0  0  0  0  0  0  0  0  0  0  0  0
    5.3805   -1.0321   -4.4772 H   0  0  0  0  0  0  0  0  0  0  0  0
    7.7149   -1.1784   -5.3616 H   0  0  0  0  0  0  0  0  0  0  0  0
    8.6163    2.6406   -3.5863 H   0  0  0  0  0  0  0  0  0  0  0  0
    6.2944    2.7778   -2.7047 H   0  0  0  0  0  0  0  0  0  0  0  0
    4.0232    1.0061   -2.9220 S   0  0  0  0  0  0  0  0  0  0  0  0
    4.0953    1.5623   -1.5288 O   0  0  0  0  0  0  0  0  0  0  0  0
    3.3971   -0.3554   -3.0566 O   0  0  0  0  0  0  0  0  0  0  0  0
    3.3125    2.0132   -3.8712 O   0  0  0  0  0  0  0  0  0  0  0  0
    9.7499    0.6331   -5.0529 C   0  0  0  0  0  0  0  0  0  0  0  0
   10.4638    0.5229   -4.2225 H   0  0  0  0  0  0  0  0  0  0  0  0
    9.8809   -0.2255   -5.7237 H   0  0  0  0  0  0  0  0  0  0  0  0
   10.0312    1.5423   -5.6037 H   0  0  0  0  0  0  0  0  0  0  0  0
   -2.8103   -0.4457   -1.8415 O   0  0  0  0  0  0  0  0  0  0  0  0
   -4.0956   -0.0760   -1.3368 C   0  0  0  0  0  0  0  0  0  0  0  0
   -4.6826   -0.9985   -1.3255 H   0  0  0  0  0  0  0  0  0  0  0  0
   -4.5787    0.6627   -1.9935 H   0  0  0  0  0  0  0  0  0  0  0  0
   -4.0181    0.3217   -0.3144 H   0  0  0  0  0  0  0  0  0  0  0  0
  1  6  1  0  0  0  0
  2  1  2  0  0  0  0
  2  3  1  0  0  0  0
  3  4  2  0  0  0  0
  4  5  1  0  0  0  0
  4  9  1  0  0  0  0
  5 10  1  0  0  0  0
  6 31  1  0  0  0  0
  6  5  2  0  0  0  0
  7  1  1  0  0  0  0
  8  2  1  0  0  0  0
 11  3  1  0  0  0  0
 12 11  2  0  0  0  0
 13 18  2  0  0  0  0
 14 15  2  0  0  0  0
 14 13  1  0  0  0  0
 15 16  1  0  0  0  0
 16 21  1  0  0  0  0
 16 17  2  0  0  0  0
 17 22  1  0  0  0  0
 18 17  1  0  0  0  0
 18 23  1  0  0  0  0
 19 13  1  0  0  0  0
 20 14  1  0  0  0  0
 23 24  1  0  0  0  0
 25 23  2  0  0  0  0
 26 23  2  0  0  0  0
 27 15  1  0  0  0  0
 27 28  1  0  0  0  0
 29 27  1  0  0  0  0
 30 27  1  0  0  0  0
 31 32  1  0  0  0  0
 32 33  1  0  0  0  0
 32 35  1  0  0  0  0
 34 32  1  0  0  0  0
M  RAD  2  12   2  24   2
M  END
