20
Coordinates from ORCA-job Ph-N2-OAc-B3LYPG-6-31G_dp-MTMO-d009-169-n800
  C   11.16489007099454      7.18940210934825      2.98769979930661
  C   10.70004073161110      5.92395759905462      2.63093094684111
  C   11.41570142862117      4.79404648369769      3.02555144663112
  C   12.58718090406945      4.90612910748453      3.77550275914791
  C   13.04192394719192      6.17987194653594      4.12150030811654
  C   12.33887541473396      7.32123253711706      3.73182666888487
  H   10.60842049895310      8.07027302605778      2.68209150244335
  H   9.78812173849936      5.79573702562363      2.05716882720188
  N   7.40999180683915    -10.51324761894714     -2.91170692178911
  N   7.66959617581995     -9.53333920278141     -2.47124514194778
  H   12.70224838391665      8.30614769938745      4.00824502639861
  H   13.95587484684917      6.27572615315547      4.70020493239402
  H   13.13544020301568      4.02190568007673      4.07128324180173
  O   10.83618566368578      3.56803251237799      2.69000749106243
  C   11.58954548607641      2.51767698048409      2.23459804465247
  O   12.78775953699281      2.54039663261339      2.09831141057280
  C   10.68615784457560      1.34745485094104      1.93097827667550
  H   10.11645755008677      1.07101370519029      2.82299989761550
  H   9.96440502837471      1.62300328394464      1.15624852553818
  H   11.28858273909182      0.50417948863804      1.59530295845244
