20
Coordinates from ORCA-job Ph-N2-OAc-B3LYPG-6-31G_dp-MTMO-d009-169-n800
  C   11.14149841932307      6.74827404743234      2.81021906089349
  C   10.59444510251505      5.50687374766710      2.48680303236251
  C   11.26668064620284      4.34351484528816      2.85974784075452
  C   12.47555698786325      4.39850175533461      3.55466245486180
  C   13.01259442650127      5.64852706406600      3.86759048168390
  C   12.35349201106169      6.82283189484410      3.49927595089649
  H   10.61912797973986      7.65537443106116      2.52163634200590
  H   9.65195099837353      5.42336716746815      1.95605986734222
  N   8.96129030395088     -6.39146696805499     -1.33449545528190
  N   9.11592103935877     -5.36800695337532     -0.94693428831329
  H   12.78032426714015      7.78906832417152      3.74972979829176
  H   13.95561846169215      5.69964249294097      4.40351215878239
  H   12.98886539889092      3.48827710356603      3.83394557880852
  O   10.60921047769860      3.14682191084403      2.56445486038802
  C   11.28493308352120      2.05851342060935      2.07671180044786
  O   12.47338470361699      2.02294072145180      1.87414973923182
  C   10.31075841404796      0.93181133334147      1.83350254110848
  H   9.77538454022802      0.69226764398957      2.75677526943910
  H   9.56428355883461      1.23592719983374      1.09363226446309
  H   10.85207917943812      0.05653881752018      1.47652070183340
