20
Coordinates from ORCA-job Ph-N2-OAc-B3LYPG-6-31G_dp-MTMO-d009-169-n800
  C   12.07528390950477      5.61158782233945      2.09967997267497
  C   10.97554070460796      4.76445071126945      1.95876544161241
  C   10.94234491530344      3.56273236170176      2.66456847683689
  C   11.98677041510821      3.19265611375625      3.51245558440867
  C   13.08326289940672      4.04763262076198      3.63896012637802
  C   13.13347533931212      5.25416569954833      2.93754354796883
  H   12.10220949534830      6.54972414689379      1.55357051709307
  H   10.14040970965011      5.02142945437392      1.31543485956837
  N   12.68447297729098      1.91140878286901     -0.12937867864403
  N   13.70689152139854      1.72228837877355      0.24502406972600
  H   13.99093912097455      5.91171618253000      3.04528735674623
  H   13.90313344696824      3.76434770497925      4.29262310452842
  H   11.94880063656613      2.25427497638694      4.04989092938136
  O   9.77408680000147      2.80832730153124      2.52915428011447
  C   9.82701186978895      1.45426898273460      2.32618081847284
  O   10.84564232113081      0.81047407693251      2.26396708047283
  C   8.42704819793011      0.90992693276119      2.18622856131275
  H   7.82424598010339      1.18650006791379      3.05638686042838
  H   7.94602150015339      1.34584275106120      1.30523212528098
  H   8.46980823945184     -0.17415506911817      2.08592496563857
