20
Coordinates from ORCA-job Ph-N2-OAc-B3LYPG-6-31G_dp-MTMO-d009-169-n800
  C   12.54558174277465      5.98476519574906      2.23469652453136
  C   12.24785677885413      5.12360985669220      1.18071813678385
  C   12.03362521278286      3.76997464685951      1.45350445748827
  C   12.17822873764992      3.24575168526721      2.74320817213965
  C   12.50849315572616      4.11752110597700      3.77844537703441
  C   12.67819575727012      5.48300387489426      3.53193154785685
  H   12.69187679128189      7.04251968643234      2.03933696852378
  H   12.16279719438251      5.48486029635741      0.16137128389209
  N   11.78474880010699      2.91407091349528      0.34727750737551
  N   10.99740557873277      2.03916396396731      0.18928282289466
  H   12.92863465904712      6.15330924284749      4.34848129819230
  H   12.63415901316666      3.72634866360465      4.78341312283612
  H   12.06319977817972      2.17984463329759      2.90686513433324
  O   9.83823460029885      1.96767811731107      1.39043931158427
  C   9.93983168888411      0.82728088072959      2.07547118371472
  O   10.95227825244614      0.15068939027503      2.13724793054242
  C   8.64259961223750      0.48747205251324      2.78760149101036
  H   8.23033676282012      1.36830849844713      3.28678475146121
  H   7.90458532980555      0.15243405679458      2.05171561692035
  H   8.82473055355201     -0.30900676151191      3.50970736088461
