17
Coordinates from ORCA-job 4-MeO-Ph-N2+-B3LYPG-6-31G_dp-MTMO-d009-169-n900
  C   -2.22163218056851     -0.18155061733424      0.14473491591358
  C   -0.87046950875817     -0.22063101515446     -0.28179032219755
  C   -0.44330753480706      1.04687567185379     -0.32806436743834
  C   -0.67948594526870      2.26056592545705      0.19354803914779
  C   -2.02453392285872      2.22703037179224      0.61802848156799
  C   -2.78769494202126      1.02710129168625      0.61479495710579
  H   -2.78768972526044     -1.10479963880052      0.08649778574479
  H   -0.34822736399524     -1.12337146595565     -0.57681115135600
  H   -0.07242176003141      3.15754439228414      0.16331560233029
  H   -2.50028639684608      3.16437250026808      0.89371381043355
  N   3.34091485587307      0.72985665387044     -1.08504900119631
  N   4.41413164482868      0.67381144477363     -1.34230724039045
  O   -4.03050772884383      1.15588822856339      1.06211609644355
  C   -4.88536905644257      0.00040660858150      1.17167823237241
  H   -5.82925686449915      0.37825488967517      1.55896218227756
  H   -4.46005374694264     -0.72699843279840      1.86941163942136
  H   -5.04360982355799     -0.45095680876240      0.18692033982001
