17
Coordinates from ORCA-job 4-MeO-Ph-N2+-B3LYPG-6-31G_dp-MTMO-d009-169-n900
  C   -1.72864761803354      0.35340222476840      0.12942825900434
  C   -0.41981080487846      0.82661699547310     -0.15288222685077
  C   -0.47245724837815      2.15745887160935     -0.05088307199021
  C   -1.15838713377471      3.15237219416981      0.53367281375695
  C   -2.43223614985616      2.61244362459671      0.80956338140998
  C   -2.71822084106027      1.23115194959769      0.63041289204721
  H   -1.92478734073318     -0.69567662540145     -0.06150937676988
  H   0.40480714755568      0.18915605376096     -0.46259676781519
  H   -0.90462944664669      4.20037953784000      0.63975465622615
  H   -3.22629040836653      3.29128534583996      1.10911395345512
  N   2.12108112402770     -1.23768843807603     -1.12810567820655
  N   2.94248946385444     -1.89733732495873     -1.45964795489735
  O   -3.95491328731682      0.87114585591051      0.95358101243960
  C   -4.35055635277410     -0.51247024385958      0.87498838738573
  H   -5.39210871505635     -0.53064724043682      1.18944696125153
  H   -3.74619437651668     -1.12412853341795      1.55074466921573
  H   -4.26863801204622     -0.87406424741589     -0.15538190966237
