17
Coordinates from ORCA-job 4-MeO-Ph-N2+-B3LYPG-6-31G_dp-MTMO-d009-169-n900
  C   -1.95564364903869     -0.21993417097736      0.15476574247401
  C   -0.64227437545886     -0.27250682512329     -0.25602485885405
  C   0.11318478729261      0.92438159278313     -0.26268425102849
  C   -0.43087926427865      2.17411802322364      0.13812450190316
  C   -1.73968080819078      2.20589033118626      0.54398714062749
  C   -2.52242630462741      1.01751652222406      0.55970217786831
  H   -2.54381797086004     -1.12880075764040      0.16298425838619
  H   -0.19183187024534     -1.20783412464050     -0.56954497900672
  H   0.17751608329437      3.07160374815726      0.12074775732888
  H   -2.20607578559819      3.13168200835250      0.86060664811080
  N   1.41288092651728      0.87379696881248     -0.66923260868360
  N   2.48206041492303      0.83661322834540     -1.00290275228154
  O   -3.76759916497780      1.17150269276996      0.96687054785208
  C   -4.67634127727947      0.05045023275745      1.03264170007826
  H   -5.61586646778261      0.46888526978053      1.38716067828021
  H   -4.30927539527387     -0.69643549226086      1.74201826627360
  H   -4.81342987841559     -0.38752924775026      0.04048003067141
