Coordinates from ORCA-job Ph-N2-OTs-B3LYPG-6-31G_dp-MTMO-d009-169-n800
 OpenBabel09051907503D

 31 31  0  0  0  0  0  0  0  0999 V2000
   -0.7841   -1.0705   -1.3861 C   0  0  0  0  0  0  0  0  0  0  0  0
    0.5183   -0.8577   -1.8396 C   0  0  0  0  0  0  0  0  0  0  0  0
    0.8583    0.3969   -2.3420 C   0  0  0  0  0  0  0  0  0  0  0  0
   -0.0642    1.4402   -2.3943 C   0  0  0  0  0  0  0  0  0  0  0  0
   -1.3632    1.2134   -1.9380 C   0  0  0  0  0  0  0  0  0  0  0  0
   -1.7245   -0.0387   -1.4349 C   0  0  0  0  0  0  0  0  0  0  0  0
   -1.0623   -2.0435   -0.9927 H   0  0  0  0  0  0  0  0  0  0  0  0
    1.2670   -1.6413   -1.8082 H   0  0  0  0  0  0  0  0  0  0  0  0
    0.2418    2.4036   -2.7855 H   0  0  0  0  0  0  0  0  0  0  0  0
   -2.0921    2.0176   -1.9750 H   0  0  0  0  0  0  0  0  0  0  0  0
   13.5028    5.5676   -7.9241 N   0  0  0  0  0  0  0  0  0  0  0  0
   12.5314    5.0941   -7.6922 N   0  0  0  0  0  0  0  0  0  0  0  0
    4.9186    2.4299   -3.6055 C   0  0  0  0  0  0  0  0  0  0  0  0
    5.9794    2.4891   -4.5065 C   0  0  0  0  0  0  0  0  0  0  0  0
    6.7759    1.3642   -4.7650 C   0  0  0  0  0  0  0  0  0  0  0  0
    6.4915    0.1696   -4.0854 C   0  0  0  0  0  0  0  0  0  0  0  0
    5.4371    0.0895   -3.1800 C   0  0  0  0  0  0  0  0  0  0  0  0
    4.6558    1.2242   -2.9548 C   0  0  0  0  0  0  0  0  0  0  0  0
    4.3105    3.3025   -3.3946 H   0  0  0  0  0  0  0  0  0  0  0  0
    6.1963    3.4254   -5.0129 H   0  0  0  0  0  0  0  0  0  0  0  0
    7.1082   -0.7073   -4.2637 H   0  0  0  0  0  0  0  0  0  0  0  0
    5.2273   -0.8292   -2.6434 H   0  0  0  0  0  0  0  0  0  0  0  0
    3.3105    1.1387   -1.7930 S   0  0  0  0  0  0  0  0  0  0  0  0
    3.5596    0.0802   -0.8173 O   0  0  0  0  0  0  0  0  0  0  0  0
    2.1463    0.5976   -2.8671 O   0  0  0  0  0  0  0  0  0  0  0  0
    2.9437    2.4836   -1.3555 O   0  0  0  0  0  0  0  0  0  0  0  0
    7.9029    1.4300   -5.7665 C   0  0  0  0  0  0  0  0  0  0  0  0
    8.2814    2.4495   -5.8784 H   0  0  0  0  0  0  0  0  0  0  0  0
    8.7366    0.7850   -5.4743 H   0  0  0  0  0  0  0  0  0  0  0  0
    7.5649    1.0960   -6.7554 H   0  0  0  0  0  0  0  0  0  0  0  0
   -2.7363   -0.2095   -1.0799 H   0  0  0  0  0  0  0  0  0  0  0  0
  1  7  1  0  0  0  0
  2  8  1  0  0  0  0
  2  1  2  0  0  0  0
  3  2  1  0  0  0  0
  4  3  2  0  0  0  0
  4  5  1  0  0  0  0
  5  6  2  0  0  0  0
  6  1  1  0  0  0  0
  6 31  1  0  0  0  0
  9  4  1  0  0  0  0
 10  5  1  0  0  0  0
 11 12  3  0  0  0  0
 13 19  1  0  0  0  0
 13 18  2  0  0  0  0
 14 13  1  0  0  0  0
 15 14  2  0  0  0  0
 15 16  1  0  0  0  0
 16 17  2  0  0  0  0
 17 18  1  0  0  0  0
 17 22  1  0  0  0  0
 18 23  1  0  0  0  0
 20 14  1  0  0  0  0
 21 16  1  0  0  0  0
 23 26  2  0  0  0  0
 23 24  2  0  0  0  0
 25  3  1  0  0  0  0
 25 23  1  0  0  0  0
 27 29  1  0  0  0  0
 27 15  1  0  0  0  0
 28 27  1  0  0  0  0
 30 27  1  0  0  0  0
M  END
