Coordinates from ORCA-job Ph-N2-OTs-B3LYPG-6-31G_dp-MTMO-d009-169-n800
 OpenBabel09051907503D

 31 31  0  0  0  0  0  0  0  0999 V2000
   -0.7369   -0.6422   -1.6693 C   0  0  0  0  0  0  0  0  0  0  0  0
    0.6025   -0.5853   -2.0568 C   0  0  0  0  0  0  0  0  0  0  0  0
    1.1160    0.6246   -2.5212 C   0  0  0  0  0  0  0  0  0  0  0  0
    0.3292    1.7720   -2.6012 C   0  0  0  0  0  0  0  0  0  0  0  0
   -1.0094    1.6996   -2.2142 C   0  0  0  0  0  0  0  0  0  0  0  0
   -1.5434    0.4957   -1.7482 C   0  0  0  0  0  0  0  0  0  0  0  0
   -1.1492   -1.5784   -1.3049 H   0  0  0  0  0  0  0  0  0  0  0  0
    1.2488   -1.4537   -2.0011 H   0  0  0  0  0  0  0  0  0  0  0  0
    0.7687    2.6950   -2.9619 H   0  0  0  0  0  0  0  0  0  0  0  0
   -1.6335    2.5863   -2.2750 H   0  0  0  0  0  0  0  0  0  0  0  0
    8.3930    5.9847   -7.3171 N   0  0  0  0  0  0  0  0  0  0  0  0
    8.1309    5.0981   -6.7117 N   0  0  0  0  0  0  0  0  0  0  0  0
    5.4489    2.2056   -3.4233 C   0  0  0  0  0  0  0  0  0  0  0  0
    6.5403    2.2360   -4.2890 C   0  0  0  0  0  0  0  0  0  0  0  0
    7.2002    1.0572   -4.6647 C   0  0  0  0  0  0  0  0  0  0  0  0
    6.7394   -0.1646   -4.1500 C   0  0  0  0  0  0  0  0  0  0  0  0
    5.6520   -0.2165   -3.2829 C   0  0  0  0  0  0  0  0  0  0  0  0
    5.0140    0.9748   -2.9321 C   0  0  0  0  0  0  0  0  0  0  0  0
    4.9445    3.1173   -3.1230 H   0  0  0  0  0  0  0  0  0  0  0  0
    6.8869    3.1885   -4.6793 H   0  0  0  0  0  0  0  0  0  0  0  0
    7.2414   -1.0865   -4.4307 H   0  0  0  0  0  0  0  0  0  0  0  0
    5.3040   -1.1587   -2.8746 H   0  0  0  0  0  0  0  0  0  0  0  0
    3.6240    0.9232   -1.8224 S   0  0  0  0  0  0  0  0  0  0  0  0
    3.6977   -0.2747   -0.9885 O   0  0  0  0  0  0  0  0  0  0  0  0
    2.4421    0.6826   -2.9823 O   0  0  0  0  0  0  0  0  0  0  0  0
    3.4154    2.2376   -1.2198 O   0  0  0  0  0  0  0  0  0  0  0  0
    8.3992    1.1003   -5.5798 C   0  0  0  0  0  0  0  0  0  0  0  0
    8.4262    2.0254   -6.1615 H   0  0  0  0  0  0  0  0  0  0  0  0
    9.3310    1.0462   -5.0037 H   0  0  0  0  0  0  0  0  0  0  0  0
    8.4005    0.2556   -6.2759 H   0  0  0  0  0  0  0  0  0  0  0  0
   -2.5848    0.4449   -1.4455 H   0  0  0  0  0  0  0  0  0  0  0  0
  1  7  1  0  0  0  0
  2  8  1  0  0  0  0
  2  1  2  0  0  0  0
  3  2  1  0  0  0  0
  4  3  2  0  0  0  0
  4  5  1  0  0  0  0
  5  6  2  0  0  0  0
  6  1  1  0  0  0  0
  6 31  1  0  0  0  0
  9  4  1  0  0  0  0
 10  5  1  0  0  0  0
 11 12  3  0  0  0  0
 13 19  1  0  0  0  0
 13 18  2  0  0  0  0
 14 13  1  0  0  0  0
 15 14  2  0  0  0  0
 15 16  1  0  0  0  0
 16 17  2  0  0  0  0
 17 18  1  0  0  0  0
 17 22  1  0  0  0  0
 18 23  1  0  0  0  0
 20 14  1  0  0  0  0
 21 16  1  0  0  0  0
 23 26  2  0  0  0  0
 23 24  2  0  0  0  0
 25  3  1  0  0  0  0
 25 23  1  0  0  0  0
 27 29  1  0  0  0  0
 27 15  1  0  0  0  0
 28 27  1  0  0  0  0
 30 27  1  0  0  0  0
M  END
