Coordinates from ORCA-job Ph-N2-OTs-B3LYPG-6-31G_dp-MTMO-d009-169-n800
 OpenBabel09051907503D

 31 31  0  0  0  0  0  0  0  0999 V2000
   -0.4107    0.0068   -1.1630 C   0  0  0  0  0  0  0  0  0  0  0  0
    0.9218   -0.0616   -1.5723 C   0  0  0  0  0  0  0  0  0  0  0  0
    1.3311    0.7172   -2.6539 C   0  0  0  0  0  0  0  0  0  0  0  0
    0.4466    1.5551   -3.3294 C   0  0  0  0  0  0  0  0  0  0  0  0
   -0.8846    1.6066   -2.9146 C   0  0  0  0  0  0  0  0  0  0  0  0
   -1.3139    0.8361   -1.8315 C   0  0  0  0  0  0  0  0  0  0  0  0
   -0.7421   -0.5909   -0.3190 H   0  0  0  0  0  0  0  0  0  0  0  0
    1.6402   -0.6964   -1.0672 H   0  0  0  0  0  0  0  0  0  0  0  0
    0.8068    2.1467   -4.1639 H   0  0  0  0  0  0  0  0  0  0  0  0
   -1.5842    2.2531   -3.4360 H   0  0  0  0  0  0  0  0  0  0  0  0
    5.5274    6.6010   -2.7735 N   0  0  0  0  0  0  0  0  0  0  0  0
    5.4626    5.7625   -3.4904 N   0  0  0  0  0  0  0  0  0  0  0  0
    5.6216    2.0407   -4.2447 C   0  0  0  0  0  0  0  0  0  0  0  0
    6.7034    1.7489   -5.0736 C   0  0  0  0  0  0  0  0  0  0  0  0
    7.3563    0.5099   -5.0077 C   0  0  0  0  0  0  0  0  0  0  0  0
    6.8983   -0.4420   -4.0833 C   0  0  0  0  0  0  0  0  0  0  0  0
    5.8232   -0.1697   -3.2425 C   0  0  0  0  0  0  0  0  0  0  0  0
    5.1915    1.0721   -3.3379 C   0  0  0  0  0  0  0  0  0  0  0  0
    5.1262    3.0039   -4.2879 H   0  0  0  0  0  0  0  0  0  0  0  0
    7.0475    2.4984   -5.7811 H   0  0  0  0  0  0  0  0  0  0  0  0
    7.3939   -1.4068   -4.0198 H   0  0  0  0  0  0  0  0  0  0  0  0
    5.4812   -0.9012   -2.5185 H   0  0  0  0  0  0  0  0  0  0  0  0
    3.8236    1.4368   -2.2597 S   0  0  0  0  0  0  0  0  0  0  0  0
    4.0020    0.7492   -0.9820 O   0  0  0  0  0  0  0  0  0  0  0  0
    2.6501    0.6211   -3.1295 O   0  0  0  0  0  0  0  0  0  0  0  0
    3.5224    2.8657   -2.2978 O   0  0  0  0  0  0  0  0  0  0  0  0
    8.5478    0.2171   -5.8871 C   0  0  0  0  0  0  0  0  0  0  0  0
    8.5149    0.7972   -6.8129 H   0  0  0  0  0  0  0  0  0  0  0  0
    9.4827    0.4736   -5.3732 H   0  0  0  0  0  0  0  0  0  0  0  0
    8.6018   -0.8433   -6.1491 H   0  0  0  0  0  0  0  0  0  0  0  0
   -2.3496    0.8830   -1.5086 H   0  0  0  0  0  0  0  0  0  0  0  0
  1  7  1  0  0  0  0
  2  1  1  0  0  0  0
  2  8  1  0  0  0  0
  3  2  2  0  0  0  0
  4  5  2  0  0  0  0
  4  3  1  0  0  0  0
  5  6  1  0  0  0  0
  6 31  1  0  0  0  0
  6  1  2  0  0  0  0
  9  4  1  0  0  0  0
 10  5  1  0  0  0  0
 12 11  3  0  0  0  0
 13 18  2  0  0  0  0
 14 15  2  0  0  0  0
 14 13  1  0  0  0  0
 15 16  1  0  0  0  0
 16 21  1  0  0  0  0
 16 17  2  0  0  0  0
 17 22  1  0  0  0  0
 18 17  1  0  0  0  0
 18 23  1  0  0  0  0
 19 13  1  0  0  0  0
 20 14  1  0  0  0  0
 23 24  2  0  0  0  0
 25  3  1  0  0  0  0
 25 23  1  0  0  0  0
 26 23  2  0  0  0  0
 27 29  1  0  0  0  0
 27 15  1  0  0  0  0
 28 27  1  0  0  0  0
 30 27  1  0  0  0  0
M  END
