Coordinates from ORCA-job Ph-N2-OTs-B3LYPG-6-31G_dp-MTMO-d009-169-n800
 OpenBabel09051907493D

 31 32  0  0  1  0  0  0  0  0999 V2000
    0.2895    0.5383   -2.3455 C   0  0  0  0  0  0  0  0  0  0  0  0
    1.2113    1.1332   -3.3580 C   0  0  1  0  0  0  0  0  0  0  0  0
    1.3636    2.6559   -3.2141 C   0  0  0  0  0  0  0  0  0  0  0  0
    0.9401    3.2951   -1.9600 C   0  0  0  0  0  0  0  0  0  0  0  0
    0.2306    2.6092   -1.0404 C   0  0  0  0  0  0  0  0  0  0  0  0
   -0.1345    1.2213   -1.2663 C   0  0  0  0  0  0  0  0  0  0  0  0
    0.0114   -0.4983   -2.5066 H   0  0  0  0  0  0  0  0  0  0  0  0
    0.9173    0.8935   -4.3831 H   0  0  0  0  0  0  0  0  0  0  0  0
    1.2150    4.3364   -1.8225 H   0  0  0  0  0  0  0  0  0  0  0  0
   -0.0837    3.0973   -0.1238 H   0  0  0  0  0  0  0  0  0  0  0  0
    1.8464    3.2130   -4.0309 N   0  0  0  0  0  0  0  0  0  0  0  0
    2.3632    3.7820   -4.8982 N   0  0  0  0  0  0  0  0  0  0  0  0
    5.3388    1.3229   -4.7177 C   0  0  0  0  0  0  0  0  0  0  0  0
    6.6772    1.6778   -4.5850 C   0  0  0  0  0  0  0  0  0  0  0  0
    7.5970    0.8271   -3.9496 C   0  0  0  0  0  0  0  0  0  0  0  0
    7.1388   -0.3957   -3.4427 C   0  0  0  0  0  0  0  0  0  0  0  0
    5.8006   -0.7705   -3.5615 C   0  0  0  0  0  0  0  0  0  0  0  0
    4.9137    0.0960   -4.1983 C   0  0  0  0  0  0  0  0  0  0  0  0
    4.6362    1.9854   -5.2121 H   0  0  0  0  0  0  0  0  0  0  0  0
    7.0160    2.6305   -4.9826 H   0  0  0  0  0  0  0  0  0  0  0  0
    7.8374   -1.0664   -2.9503 H   0  0  0  0  0  0  0  0  0  0  0  0
    5.4440   -1.7184   -3.1754 H   0  0  0  0  0  0  0  0  0  0  0  0
    3.2054   -0.3788   -4.3653 S   0  0  0  0  0  0  0  0  0  0  0  0
    3.0566   -1.7850   -3.9986 O   0  0  0  0  0  0  0  0  0  0  0  0
    2.6711    0.1118   -5.6390 O   0  0  0  0  0  0  0  0  0  0  0  0
    2.5653    0.5487   -3.1572 O   0  0  0  0  0  0  0  0  0  0  0  0
    9.0502    1.2199   -3.8384 C   0  0  0  0  0  0  0  0  0  0  0  0
    9.5583    1.1217   -4.8055 H   0  0  0  0  0  0  0  0  0  0  0  0
    9.1574    2.2632   -3.5240 H   0  0  0  0  0  0  0  0  0  0  0  0
    9.5822    0.5914   -3.1197 H   0  0  0  0  0  0  0  0  0  0  0  0
   -0.7770    0.7318   -0.5395 H   0  0  0  0  0  0  0  0  0  0  0  0
  1  6  2  0  0  0  0
  2  8  1  6  0  0  0
  2  3  1  0  0  0  0
  2 26  1  0  0  0  0
  2  1  1  0  0  0  0
  3  4  2  0  0  0  0
  4  9  1  0  0  0  0
  4  5  1  0  0  0  0
  5 10  1  0  0  0  0
  6  5  1  0  0  0  0
  6 31  1  0  0  0  0
  7  1  1  0  0  0  0
 11  3  1  0  0  0  0
 12 11  1  0  0  0  0
 13 14  2  0  0  0  0
 13 18  1  0  0  0  0
 14 15  1  0  0  0  0
 15 27  1  0  0  0  0
 15 16  2  0  0  0  0
 16 21  1  0  0  0  0
 17 16  1  0  0  0  0
 17 22  1  0  0  0  0
 18 17  2  0  0  0  0
 19 13  1  0  0  0  0
 20 14  1  0  0  0  0
 23 18  1  0  0  0  0
 23 24  2  0  0  0  0
 23 26  1  0  0  0  0
 25 23  2  0  0  0  0
 27 29  1  0  0  0  0
 27 30  1  0  0  0  0
 28 27  1  0  0  0  0
M  RAD  3   5   2  11   2  12   3
M  END
