Coordinates from ORCA-job Ph-N2-OTs-B3LYPG-6-31G_dp-MTMO-d009-169-n800
 OpenBabel09051907503D

 31 31  0  0  0  0  0  0  0  0999 V2000
   -0.5993   -0.2614   -1.2997 C   0  0  0  0  0  0  0  0  0  0  0  0
    0.7402   -0.3286   -1.6856 C   0  0  0  0  0  0  0  0  0  0  0  0
    1.2296    0.6258   -2.5766 C   0  0  0  0  0  0  0  0  0  0  0  0
    0.4171    1.6364   -3.0858 C   0  0  0  0  0  0  0  0  0  0  0  0
   -0.9223    1.6856   -2.6986 C   0  0  0  0  0  0  0  0  0  0  0  0
   -1.4313    0.7404   -1.8047 C   0  0  0  0  0  0  0  0  0  0  0  0
   -0.9924   -0.9968   -0.6036 H   0  0  0  0  0  0  0  0  0  0  0  0
    1.4036   -1.0969   -1.3057 H   0  0  0  0  0  0  0  0  0  0  0  0
    0.8385    2.3624   -3.7726 H   0  0  0  0  0  0  0  0  0  0  0  0
   -1.5660    2.4668   -3.0920 H   0  0  0  0  0  0  0  0  0  0  0  0
    6.8534    6.8408   -5.0171 N   0  0  0  0  0  0  0  0  0  0  0  0
    6.8131    5.7394   -5.0976 N   0  0  0  0  0  0  0  0  0  0  0  0
    5.5475    2.0770   -3.7927 C   0  0  0  0  0  0  0  0  0  0  0  0
    6.6268    1.9653   -4.6654 C   0  0  0  0  0  0  0  0  0  0  0  0
    7.2766    0.7372   -4.8609 C   0  0  0  0  0  0  0  0  0  0  0  0
    6.8185   -0.3850   -4.1549 C   0  0  0  0  0  0  0  0  0  0  0  0
    5.7437   -0.2935   -3.2736 C   0  0  0  0  0  0  0  0  0  0  0  0
    5.1148    0.9410   -3.1070 C   0  0  0  0  0  0  0  0  0  0  0  0
    5.0500    3.0273   -3.6343 H   0  0  0  0  0  0  0  0  0  0  0  0
    6.9693    2.8474   -5.1986 H   0  0  0  0  0  0  0  0  0  0  0  0
    7.3124   -1.3427   -4.2944 H   0  0  0  0  0  0  0  0  0  0  0  0
    5.4004   -1.1591   -2.7183 H   0  0  0  0  0  0  0  0  0  0  0  0
    3.7437    1.0780   -1.9814 S   0  0  0  0  0  0  0  0  0  0  0  0
    3.8803    0.0911   -0.9117 O   0  0  0  0  0  0  0  0  0  0  0  0
    2.5559    0.5460   -3.0336 O   0  0  0  0  0  0  0  0  0  0  0  0
    3.4896    2.4822   -1.6694 O   0  0  0  0  0  0  0  0  0  0  0  0
    8.4623    0.6362   -5.7896 C   0  0  0  0  0  0  0  0  0  0  0  0
    8.3351    1.2723   -6.6705 H   0  0  0  0  0  0  0  0  0  0  0  0
    9.3811    0.9608   -5.2857 H   0  0  0  0  0  0  0  0  0  0  0  0
    8.6200   -0.3907   -6.1290 H   0  0  0  0  0  0  0  0  0  0  0  0
   -2.4727    0.7857   -1.5009 H   0  0  0  0  0  0  0  0  0  0  0  0
  1  7  1  0  0  0  0
  2  8  1  0  0  0  0
  2  1  1  0  0  0  0
  3  2  2  0  0  0  0
  4  5  2  0  0  0  0
  4  3  1  0  0  0  0
  5  6  1  0  0  0  0
  6 31  1  0  0  0  0
  6  1  2  0  0  0  0
  9  4  1  0  0  0  0
 10  5  1  0  0  0  0
 12 11  3  0  0  0  0
 13 19  1  0  0  0  0
 13 18  2  0  0  0  0
 14 13  1  0  0  0  0
 15 14  2  0  0  0  0
 15 16  1  0  0  0  0
 16 17  2  0  0  0  0
 17 18  1  0  0  0  0
 17 22  1  0  0  0  0
 18 23  1  0  0  0  0
 20 14  1  0  0  0  0
 21 16  1  0  0  0  0
 23 26  2  0  0  0  0
 23 24  2  0  0  0  0
 25  3  1  0  0  0  0
 25 23  1  0  0  0  0
 27 29  1  0  0  0  0
 27 15  1  0  0  0  0
 28 27  1  0  0  0  0
 30 27  1  0  0  0  0
M  END
