Coordinates from ORCA-job Ph-N2-OTs-B3LYPG-6-31G_dp-MTMO-d009-169-n800
 OpenBabel09051907493D

 31 32  0  0  1  0  0  0  0  0999 V2000
    0.8189    0.4389   -1.9165 C   0  0  0  0  0  0  0  0  0  0  0  0
    1.1628    1.0334   -3.2397 C   0  0  1  0  0  0  0  0  0  0  0  0
    0.7189    2.4626   -3.3263 C   0  0  0  0  0  0  0  0  0  0  0  0
    0.3983    3.2450   -2.1584 C   0  0  0  0  0  0  0  0  0  0  0  0
    0.2852    2.6308   -0.9541 C   0  0  0  0  0  0  0  0  0  0  0  0
    0.4570    1.1970   -0.8586 C   0  0  0  0  0  0  0  0  0  0  0  0
    0.9316   -0.6371   -1.8322 H   0  0  0  0  0  0  0  0  0  0  0  0
    0.7825    0.4336   -4.0700 H   0  0  0  0  0  0  0  0  0  0  0  0
    0.2384    4.3121   -2.2776 H   0  0  0  0  0  0  0  0  0  0  0  0
    0.0395    3.2034   -0.0668 H   0  0  0  0  0  0  0  0  0  0  0  0
    0.6815    3.0199   -4.5008 N   0  0  0  0  0  0  0  0  0  0  0  0
    0.6524    3.5031   -5.5324 N   0  0  0  0  0  0  0  0  0  0  0  0
    5.6937    1.5804   -4.7917 C   0  0  0  0  0  0  0  0  0  0  0  0
    7.0554    1.6695   -4.5136 C   0  0  0  0  0  0  0  0  0  0  0  0
    7.7289    0.6370   -3.8438 C   0  0  0  0  0  0  0  0  0  0  0  0
    7.0009   -0.4974   -3.4557 C   0  0  0  0  0  0  0  0  0  0  0  0
    5.6387   -0.6064   -3.7248 C   0  0  0  0  0  0  0  0  0  0  0  0
    4.9972    0.4402   -4.3883 C   0  0  0  0  0  0  0  0  0  0  0  0
    5.1745    2.3727   -5.3196 H   0  0  0  0  0  0  0  0  0  0  0  0
    7.6055    2.5536   -4.8240 H   0  0  0  0  0  0  0  0  0  0  0  0
    7.5084   -1.3077   -2.9392 H   0  0  0  0  0  0  0  0  0  0  0  0
    5.0779   -1.4883   -3.4357 H   0  0  0  0  0  0  0  0  0  0  0  0
    3.2555    0.3137   -4.7349 S   0  0  0  0  0  0  0  0  0  0  0  0
    2.8612   -1.0966   -4.7881 O   0  0  0  0  0  0  0  0  0  0  0  0
    2.9047    1.2006   -5.8492 O   0  0  0  0  0  0  0  0  0  0  0  0
    2.6840    0.9671   -3.3489 O   0  0  0  0  0  0  0  0  0  0  0  0
    9.2114    0.7315   -3.5766 C   0  0  0  0  0  0  0  0  0  0  0  0
    9.7874    0.3649   -4.4356 H   0  0  0  0  0  0  0  0  0  0  0  0
    9.5210    1.7650   -3.3962 H   0  0  0  0  0  0  0  0  0  0  0  0
    9.5018    0.1314   -2.7097 H   0  0  0  0  0  0  0  0  0  0  0  0
    0.2647    0.7167    0.0973 H   0  0  0  0  0  0  0  0  0  0  0  0
  1  7  1  0  0  0  0
  1  6  2  0  0  0  0
  2  8  1  6  0  0  0
  2  1  1  0  0  0  0
  3  2  1  0  0  0  0
  3  4  2  0  0  0  0
  4  5  1  0  0  0  0
  5  6  1  0  0  0  0
  5 10  1  0  0  0  0
  6 31  1  0  0  0  0
  9  4  1  0  0  0  0
 11  3  1  0  0  0  0
 12 11  1  0  0  0  0
 13 14  2  0  0  0  0
 13 18  1  0  0  0  0
 14 15  1  0  0  0  0
 15 27  1  0  0  0  0
 15 16  2  0  0  0  0
 16 21  1  0  0  0  0
 17 16  1  0  0  0  0
 17 22  1  0  0  0  0
 18 17  2  0  0  0  0
 19 13  1  0  0  0  0
 20 14  1  0  0  0  0
 23 18  1  0  0  0  0
 23 26  1  0  0  0  0
 24 23  2  0  0  0  0
 25 23  2  0  0  0  0
 26  2  1  0  0  0  0
 27 29  1  0  0  0  0
 27 30  1  0  0  0  0
 28 27  1  0  0  0  0
M  RAD  3   5   2  11   2  12   3
M  END
