Coordinates from ORCA-job Ph-N2-OTs-B3LYPG-6-31G_dp-MTMO-d009-169-n800
 OpenBabel09051907503D

 31 31  0  0  0  0  0  0  0  0999 V2000
   -0.5509    0.1910   -1.5820 C   0  0  0  0  0  0  0  0  0  0  0  0
    0.7641   -0.0027   -2.0073 C   0  0  0  0  0  0  0  0  0  0  0  0
    1.4721    1.0872   -2.5119 C   0  0  0  0  0  0  0  0  0  0  0  0
    0.9029    2.3556   -2.5993 C   0  0  0  0  0  0  0  0  0  0  0  0
   -0.4151    2.5321   -2.1773 C   0  0  0  0  0  0  0  0  0  0  0  0
   -1.1420    1.4536   -1.6676 C   0  0  0  0  0  0  0  0  0  0  0  0
   -1.1137   -0.6488   -1.1857 H   0  0  0  0  0  0  0  0  0  0  0  0
    1.2437   -0.9731   -1.9500 H   0  0  0  0  0  0  0  0  0  0  0  0
    1.4902    3.1751   -2.9975 H   0  0  0  0  0  0  0  0  0  0  0  0
   -0.8723    3.5151   -2.2441 H   0  0  0  0  0  0  0  0  0  0  0  0
    3.5895    3.6005   -6.4449 N   0  0  0  0  0  0  0  0  0  0  0  0
    3.2196    3.7469   -5.4138 N   0  0  0  0  0  0  0  0  0  0  0  0
    5.9405    1.9759   -3.4257 C   0  0  0  0  0  0  0  0  0  0  0  0
    7.0022    1.9497   -4.3253 C   0  0  0  0  0  0  0  0  0  0  0  0
    7.4864    0.7377   -4.8423 C   0  0  0  0  0  0  0  0  0  0  0  0
    6.8848   -0.4575   -4.4247 C   0  0  0  0  0  0  0  0  0  0  0  0
    5.8212   -0.4537   -3.5242 C   0  0  0  0  0  0  0  0  0  0  0  0
    5.3561    0.7681   -3.0389 C   0  0  0  0  0  0  0  0  0  0  0  0
    5.5751    2.9102   -3.0142 H   0  0  0  0  0  0  0  0  0  0  0  0
    7.4675    2.8839   -4.6276 H   0  0  0  0  0  0  0  0  0  0  0  0
    7.2569   -1.4044   -4.8050 H   0  0  0  0  0  0  0  0  0  0  0  0
    5.3654   -1.3789   -3.1897 H   0  0  0  0  0  0  0  0  0  0  0  0
    4.0018    0.7893   -1.8840 S   0  0  0  0  0  0  0  0  0  0  0  0
    3.8964   -0.5098   -1.2223 O   0  0  0  0  0  0  0  0  0  0  0  0
    2.7733    0.9070   -3.0130 O   0  0  0  0  0  0  0  0  0  0  0  0
    4.0277    2.0227   -1.1025 O   0  0  0  0  0  0  0  0  0  0  0  0
    8.6204    0.7286   -5.8379 C   0  0  0  0  0  0  0  0  0  0  0  0
    8.2634    1.0018   -6.8385 H   0  0  0  0  0  0  0  0  0  0  0  0
    9.3969    1.4498   -5.5648 H   0  0  0  0  0  0  0  0  0  0  0  0
    9.0820   -0.2594   -5.9118 H   0  0  0  0  0  0  0  0  0  0  0  0
   -2.1664    1.5970   -1.3378 H   0  0  0  0  0  0  0  0  0  0  0  0
  1  7  1  0  0  0  0
  2  8  1  0  0  0  0
  2  1  2  0  0  0  0
  3  2  1  0  0  0  0
  4  3  2  0  0  0  0
  4  5  1  0  0  0  0
  5  6  2  0  0  0  0
  6  1  1  0  0  0  0
  6 31  1  0  0  0  0
  9  4  1  0  0  0  0
 10  5  1  0  0  0  0
 11 12  3  0  0  0  0
 13 18  1  0  0  0  0
 13 19  1  0  0  0  0
 14 13  2  0  0  0  0
 15 16  2  0  0  0  0
 15 14  1  0  0  0  0
 16 17  1  0  0  0  0
 17 22  1  0  0  0  0
 17 18  2  0  0  0  0
 18 23  1  0  0  0  0
 20 14  1  0  0  0  0
 21 16  1  0  0  0  0
 23 24  2  0  0  0  0
 23 26  2  0  0  0  0
 25  3  1  0  0  0  0
 25 23  1  0  0  0  0
 27 29  1  0  0  0  0
 27 15  1  0  0  0  0
 28 27  1  0  0  0  0
 30 27  1  0  0  0  0
M  END
