Coordinates from ORCA-job Ph-N2-OTs-B3LYPG-6-31G_dp-MTMO-d009-169-n800
 OpenBabel09051907503D

 31 31  0  0  0  0  0  0  0  0999 V2000
   -0.4363   -0.1939   -1.5981 C   0  0  0  0  0  0  0  0  0  0  0  0
    0.8856   -0.2282   -2.0434 C   0  0  0  0  0  0  0  0  0  0  0  0
    1.4131    0.8991   -2.6696 C   0  0  0  0  0  0  0  0  0  0  0  0
    0.6602    2.0582   -2.8516 C   0  0  0  0  0  0  0  0  0  0  0  0
   -0.6596    2.0791   -2.3989 C   0  0  0  0  0  0  0  0  0  0  0  0
   -1.2092    0.9564   -1.7748 C   0  0  0  0  0  0  0  0  0  0  0  0
   -0.8603   -1.0666   -1.1104 H   0  0  0  0  0  0  0  0  0  0  0  0
    1.5081   -1.1063   -1.9133 H   0  0  0  0  0  0  0  0  0  0  0  0
    1.1107    2.9179   -3.3344 H   0  0  0  0  0  0  0  0  0  0  0  0
   -1.2583    2.9749   -2.5354 H   0  0  0  0  0  0  0  0  0  0  0  0
    4.6413    6.0915   -3.7372 N   0  0  0  0  0  0  0  0  0  0  0  0
    3.6031    5.7195   -3.8121 N   0  0  0  0  0  0  0  0  0  0  0  0
    5.7775    2.0062   -4.1580 C   0  0  0  0  0  0  0  0  0  0  0  0
    6.8549    1.6893   -4.9817 C   0  0  0  0  0  0  0  0  0  0  0  0
    7.4580    0.4235   -4.9342 C   0  0  0  0  0  0  0  0  0  0  0  0
    6.9599   -0.5233   -4.0267 C   0  0  0  0  0  0  0  0  0  0  0  0
    5.8846   -0.2263   -3.1932 C   0  0  0  0  0  0  0  0  0  0  0  0
    5.2999    1.0383   -3.2736 C   0  0  0  0  0  0  0  0  0  0  0  0
    5.3212    2.9890   -4.1838 H   0  0  0  0  0  0  0  0  0  0  0  0
    7.2384    2.4398   -5.6675 H   0  0  0  0  0  0  0  0  0  0  0  0
    7.4252   -1.5032   -3.9670 H   0  0  0  0  0  0  0  0  0  0  0  0
    5.5114   -0.9531   -2.4800 H   0  0  0  0  0  0  0  0  0  0  0  0
    3.9354    1.4344   -2.2015 S   0  0  0  0  0  0  0  0  0  0  0  0
    3.9906    0.6126   -0.9950 O   0  0  0  0  0  0  0  0  0  0  0  0
    2.7201    0.8391   -3.1844 O   0  0  0  0  0  0  0  0  0  0  0  0
    3.7856    2.8857   -2.1069 O   0  0  0  0  0  0  0  0  0  0  0  0
    8.6064    0.0832   -5.8529 C   0  0  0  0  0  0  0  0  0  0  0  0
    8.2374   -0.2977   -6.8130 H   0  0  0  0  0  0  0  0  0  0  0  0
    9.2213    0.9620   -6.0668 H   0  0  0  0  0  0  0  0  0  0  0  0
    9.2501   -0.6887   -5.4213 H   0  0  0  0  0  0  0  0  0  0  0  0
   -2.2367    0.9783   -1.4251 H   0  0  0  0  0  0  0  0  0  0  0  0
  1  7  1  0  0  0  0
  2  8  1  0  0  0  0
  2  1  2  0  0  0  0
  3  2  1  0  0  0  0
  4  3  2  0  0  0  0
  4  5  1  0  0  0  0
  5  6  2  0  0  0  0
  6  1  1  0  0  0  0
  6 31  1  0  0  0  0
  9  4  1  0  0  0  0
 10  5  1  0  0  0  0
 12 11  3  0  0  0  0
 13 18  2  0  0  0  0
 14 15  2  0  0  0  0
 14 13  1  0  0  0  0
 15 16  1  0  0  0  0
 16 21  1  0  0  0  0
 16 17  2  0  0  0  0
 17 22  1  0  0  0  0
 18 17  1  0  0  0  0
 18 23  1  0  0  0  0
 19 13  1  0  0  0  0
 20 14  1  0  0  0  0
 23 26  2  0  0  0  0
 23 24  2  0  0  0  0
 25  3  1  0  0  0  0
 25 23  1  0  0  0  0
 27 30  1  0  0  0  0
 27 15  1  0  0  0  0
 28 27  1  0  0  0  0
 29 27  1  0  0  0  0
M  END
