Coordinates from ORCA-job Ph-N2-OTs-B3LYPG-6-31G_dp-MTMO-d009-169-n800
 OpenBabel09051907503D

 31 30  0  0  0  0  0  0  0  0999 V2000
   -0.2726   -0.0054   -1.1254 C   0  0  0  0  0  0  0  0  0  0  0  0
    0.7496    0.6368   -1.8489 C   0  0  0  0  0  0  0  0  0  0  0  0
    0.4198    1.6353   -2.5408 C   0  0  0  0  0  0  0  0  0  0  0  0
   -0.7219    2.3324   -2.8183 C   0  0  0  0  0  0  0  0  0  0  0  0
   -1.7658    1.6994   -2.0995 C   0  0  0  0  0  0  0  0  0  0  0  0
   -1.5461    0.5729   -1.2858 C   0  0  0  0  0  0  0  0  0  0  0  0
   -0.1188   -0.8745   -0.4932 H   0  0  0  0  0  0  0  0  0  0  0  0
    2.7361    0.3985   -2.0698 H   0  0  0  0  0  0  0  0  0  0  0  0
   -0.8486    3.2014   -3.4492 H   0  0  0  0  0  0  0  0  0  0  0  0
   -2.7684    2.1103   -2.1879 H   0  0  0  0  0  0  0  0  0  0  0  0
    1.2821    4.5554   -4.6494 N   0  0  0  0  0  0  0  0  0  0  0  0
    2.2200    5.0287   -4.9910 N   0  0  0  0  0  0  0  0  0  0  0  0
    6.9588    1.2988   -2.8612 C   0  0  0  0  0  0  0  0  0  0  0  0
    8.1312    0.8608   -3.4749 C   0  0  0  0  0  0  0  0  0  0  0  0
    8.1160    0.3299   -4.7721 C   0  0  0  0  0  0  0  0  0  0  0  0
    6.8887    0.2449   -5.4486 C   0  0  0  0  0  0  0  0  0  0  0  0
    5.7076    0.6771   -4.8528 C   0  0  0  0  0  0  0  0  0  0  0  0
    5.7553    1.1980   -3.5580 C   0  0  0  0  0  0  0  0  0  0  0  0
    6.9684    1.7192   -1.8622 H   0  0  0  0  0  0  0  0  0  0  0  0
    9.0736    0.9346   -2.9390 H   0  0  0  0  0  0  0  0  0  0  0  0
    6.8608   -0.1631   -6.4551 H   0  0  0  0  0  0  0  0  0  0  0  0
    4.7614    0.6227   -5.3804 H   0  0  0  0  0  0  0  0  0  0  0  0
    4.2505    1.7548   -2.7838 S   0  0  0  0  0  0  0  0  0  0  0  0
    3.7143    0.3249   -2.2195 O   0  0  0  0  0  0  0  0  0  0  0  0
    3.3096    2.2186   -3.8107 O   0  0  0  0  0  0  0  0  0  0  0  0
    4.5864    2.6285   -1.6616 O   0  0  0  0  0  0  0  0  0  0  0  0
    9.3941   -0.1136   -5.4419 C   0  0  0  0  0  0  0  0  0  0  0  0
    9.7829    0.6723   -6.1015 H   0  0  0  0  0  0  0  0  0  0  0  0
   10.1722   -0.3413   -4.7083 H   0  0  0  0  0  0  0  0  0  0  0  0
    9.2345   -1.0034   -6.0587 H   0  0  0  0  0  0  0  0  0  0  0  0
   -2.3921    0.1355   -0.7624 H   0  0  0  0  0  0  0  0  0  0  0  0
  1  7  1  0  0  0  0
  2  1  2  0  0  0  0
  3  2  1  0  0  0  0
  4  3  2  0  0  0  0
  4  5  1  0  0  0  0
  5  6  2  0  0  0  0
  6  1  1  0  0  0  0
  6 31  1  0  0  0  0
  9  4  1  0  0  0  0
 10  5  1  0  0  0  0
 12 11  3  0  0  0  0
 13 19  1  0  0  0  0
 14 20  1  0  0  0  0
 14 13  1  0  0  0  0
 15 14  2  0  0  0  0
 16 17  2  0  0  0  0
 16 15  1  0  0  0  0
 17 18  1  0  0  0  0
 18 13  2  0  0  0  0
 18 23  1  0  0  0  0
 21 16  1  0  0  0  0
 22 17  1  0  0  0  0
 23 24  1  0  0  0  0
 23 26  2  0  0  0  0
 24  8  1  0  0  0  0
 25 23  2  0  0  0  0
 27 15  1  0  0  0  0
 27 29  1  0  0  0  0
 28 27  1  0  0  0  0
 30 27  1  0  0  0  0
M  RAD  2   2   2   3   2
M  END
