Coordinates from ORCA-job Ph-N2-OTs-B3LYPG-6-31G_dp-MTMO-d009-169-n800
 OpenBabel09051907503D

 31 31  0  0  0  0  0  0  0  0999 V2000
   -0.7014   -0.5358   -1.6135 C   0  0  0  0  0  0  0  0  0  0  0  0
    0.6386   -0.5170   -2.0027 C   0  0  0  0  0  0  0  0  0  0  0  0
    1.1619    0.6529   -2.5511 C   0  0  0  0  0  0  0  0  0  0  0  0
    0.3842    1.7979   -2.7131 C   0  0  0  0  0  0  0  0  0  0  0  0
   -0.9553    1.7636   -2.3239 C   0  0  0  0  0  0  0  0  0  0  0  0
   -1.4989    0.5999   -1.7743 C   0  0  0  0  0  0  0  0  0  0  0  0
   -1.1213   -1.4407   -1.1845 H   0  0  0  0  0  0  0  0  0  0  0  0
    1.2781   -1.3842   -1.8849 H   0  0  0  0  0  0  0  0  0  0  0  0
    0.8314    2.6898   -3.1374 H   0  0  0  0  0  0  0  0  0  0  0  0
   -1.5726    2.6484   -2.4484 H   0  0  0  0  0  0  0  0  0  0  0  0
    7.6926    6.5459   -6.5214 N   0  0  0  0  0  0  0  0  0  0  0  0
    7.5431    5.5169   -6.1474 N   0  0  0  0  0  0  0  0  0  0  0  0
    5.4811    2.1226   -3.5908 C   0  0  0  0  0  0  0  0  0  0  0  0
    6.5681    2.0865   -4.4596 C   0  0  0  0  0  0  0  0  0  0  0  0
    7.2422    0.8844   -4.7263 C   0  0  0  0  0  0  0  0  0  0  0  0
    6.7994   -0.2885   -4.0984 C   0  0  0  0  0  0  0  0  0  0  0  0
    5.7135   -0.2734   -3.2257 C   0  0  0  0  0  0  0  0  0  0  0  0
    5.0622    0.9365   -2.9852 C   0  0  0  0  0  0  0  0  0  0  0  0
    4.9661    3.0520   -3.3742 H   0  0  0  0  0  0  0  0  0  0  0  0
    6.8997    3.0041   -4.9373 H   0  0  0  0  0  0  0  0  0  0  0  0
    7.3126   -1.2260   -4.2938 H   0  0  0  0  0  0  0  0  0  0  0  0
    5.3778   -1.1780   -2.7315 H   0  0  0  0  0  0  0  0  0  0  0  0
    3.6735    0.9717   -1.8733 S   0  0  0  0  0  0  0  0  0  0  0  0
    3.7369   -0.1691   -0.9620 O   0  0  0  0  0  0  0  0  0  0  0  0
    2.4883    0.6678   -3.0145 O   0  0  0  0  0  0  0  0  0  0  0  0
    3.4778    2.3250   -1.3589 O   0  0  0  0  0  0  0  0  0  0  0  0
    8.4365    0.8650   -5.6491 C   0  0  0  0  0  0  0  0  0  0  0  0
    8.2932    1.5363   -6.5010 H   0  0  0  0  0  0  0  0  0  0  0  0
    9.3406    1.1971   -5.1241 H   0  0  0  0  0  0  0  0  0  0  0  0
    8.6306   -0.1395   -6.0333 H   0  0  0  0  0  0  0  0  0  0  0  0
   -2.5410    0.5785   -1.4703 H   0  0  0  0  0  0  0  0  0  0  0  0
  1  7  1  0  0  0  0
  2  8  1  0  0  0  0
  2  1  2  0  0  0  0
  3  2  1  0  0  0  0
  4  3  2  0  0  0  0
  4  5  1  0  0  0  0
  5  6  2  0  0  0  0
  6  1  1  0  0  0  0
  6 31  1  0  0  0  0
  9  4  1  0  0  0  0
 10  5  1  0  0  0  0
 11 12  3  0  0  0  0
 13 19  1  0  0  0  0
 13 18  2  0  0  0  0
 14 13  1  0  0  0  0
 15 14  2  0  0  0  0
 15 16  1  0  0  0  0
 16 17  2  0  0  0  0
 17 18  1  0  0  0  0
 17 22  1  0  0  0  0
 18 23  1  0  0  0  0
 20 14  1  0  0  0  0
 21 16  1  0  0  0  0
 23 26  2  0  0  0  0
 23 24  2  0  0  0  0
 25  3  1  0  0  0  0
 25 23  1  0  0  0  0
 27 29  1  0  0  0  0
 27 15  1  0  0  0  0
 28 27  1  0  0  0  0
 30 27  1  0  0  0  0
M  END
