Coordinates from ORCA-job Ph-N2-OTs-B3LYPG-6-31G_dp-MTMO-d009-169-n800
 OpenBabel09051907503D

 31 31  0  0  0  0  0  0  0  0999 V2000
   -0.7270   -0.5995   -1.6538 C   0  0  0  0  0  0  0  0  0  0  0  0
    0.6140   -0.5592   -2.0377 C   0  0  0  0  0  0  0  0  0  0  0  0
    1.1346    0.6354   -2.5332 C   0  0  0  0  0  0  0  0  0  0  0  0
    0.3531    1.7834   -2.6478 C   0  0  0  0  0  0  0  0  0  0  0  0
   -0.9873    1.7275   -2.2645 C   0  0  0  0  0  0  0  0  0  0  0  0
   -1.5283    0.5392   -1.7675 C   0  0  0  0  0  0  0  0  0  0  0  0
   -1.1448   -1.5235   -1.2655 H   0  0  0  0  0  0  0  0  0  0  0  0
    1.2562   -1.4285   -1.9556 H   0  0  0  0  0  0  0  0  0  0  0  0
    0.7982    2.6943   -3.0320 H   0  0  0  0  0  0  0  0  0  0  0  0
   -1.6074    2.6148   -2.3524 H   0  0  0  0  0  0  0  0  0  0  0  0
    8.0600    6.1042   -7.1331 N   0  0  0  0  0  0  0  0  0  0  0  0
    7.9118    5.1773   -6.5500 N   0  0  0  0  0  0  0  0  0  0  0  0
    5.4708    2.1809   -3.4490 C   0  0  0  0  0  0  0  0  0  0  0  0
    6.5619    2.1985   -4.3151 C   0  0  0  0  0  0  0  0  0  0  0  0
    7.2208    1.0138   -4.6742 C   0  0  0  0  0  0  0  0  0  0  0  0
    6.7593   -0.2003   -4.1426 C   0  0  0  0  0  0  0  0  0  0  0  0
    5.6717   -0.2393   -3.2748 C   0  0  0  0  0  0  0  0  0  0  0  0
    5.0348    0.9573   -2.9406 C   0  0  0  0  0  0  0  0  0  0  0  0
    4.9670    3.0969   -3.1614 H   0  0  0  0  0  0  0  0  0  0  0  0
    6.9087    3.1450   -4.7192 H   0  0  0  0  0  0  0  0  0  0  0  0
    7.2604   -1.1264   -4.4106 H   0  0  0  0  0  0  0  0  0  0  0  0
    5.3228   -1.1755   -2.8538 H   0  0  0  0  0  0  0  0  0  0  0  0
    3.6437    0.9229   -1.8318 S   0  0  0  0  0  0  0  0  0  0  0  0
    3.7112   -0.2669   -0.9859 O   0  0  0  0  0  0  0  0  0  0  0  0
    2.4625    0.6762   -2.9909 O   0  0  0  0  0  0  0  0  0  0  0  0
    3.4400    2.2441   -1.2425 O   0  0  0  0  0  0  0  0  0  0  0  0
    8.4201    1.0445   -5.5892 C   0  0  0  0  0  0  0  0  0  0  0  0
    8.4317    1.9480   -6.2047 H   0  0  0  0  0  0  0  0  0  0  0  0
    9.3520    1.0292   -5.0108 H   0  0  0  0  0  0  0  0  0  0  0  0
    8.4383    0.1752   -6.2539 H   0  0  0  0  0  0  0  0  0  0  0  0
   -2.5710    0.5011   -1.4676 H   0  0  0  0  0  0  0  0  0  0  0  0
  1  7  1  0  0  0  0
  2  8  1  0  0  0  0
  2  1  2  0  0  0  0
  3  2  1  0  0  0  0
  4  3  2  0  0  0  0
  4  5  1  0  0  0  0
  5  6  2  0  0  0  0
  6  1  1  0  0  0  0
  6 31  1  0  0  0  0
  9  4  1  0  0  0  0
 10  5  1  0  0  0  0
 11 12  3  0  0  0  0
 13 19  1  0  0  0  0
 13 18  2  0  0  0  0
 14 13  1  0  0  0  0
 15 14  2  0  0  0  0
 15 16  1  0  0  0  0
 16 17  2  0  0  0  0
 17 18  1  0  0  0  0
 17 22  1  0  0  0  0
 18 23  1  0  0  0  0
 20 14  1  0  0  0  0
 21 16  1  0  0  0  0
 23 26  2  0  0  0  0
 23 24  2  0  0  0  0
 25  3  1  0  0  0  0
 25 23  1  0  0  0  0
 27 29  1  0  0  0  0
 27 15  1  0  0  0  0
 28 27  1  0  0  0  0
 30 27  1  0  0  0  0
M  END
