Coordinates from ORCA-job Ph-N2-OTs-B3LYPG-6-31G_dp-MTMO-d009-169-n800
 OpenBabel09051907503D

 31 31  0  0  0  0  0  0  0  0999 V2000
   -0.7376   -1.0590   -1.4092 C   0  0  0  0  0  0  0  0  0  0  0  0
    0.5641   -0.8422   -1.8627 C   0  0  0  0  0  0  0  0  0  0  0  0
    0.9008    0.4141   -2.3634 C   0  0  0  0  0  0  0  0  0  0  0  0
   -0.0245    1.4550   -2.4138 C   0  0  0  0  0  0  0  0  0  0  0  0
   -1.3227    1.2242   -1.9574 C   0  0  0  0  0  0  0  0  0  0  0  0
   -1.6806   -0.0296   -1.4561 C   0  0  0  0  0  0  0  0  0  0  0  0
   -1.0131   -2.0333   -1.0170 H   0  0  0  0  0  0  0  0  0  0  0  0
    1.3149   -1.6238   -1.8327 H   0  0  0  0  0  0  0  0  0  0  0  0
    0.2789    2.4198   -2.8038 H   0  0  0  0  0  0  0  0  0  0  0  0
   -2.0537    2.0266   -1.9931 H   0  0  0  0  0  0  0  0  0  0  0  0
   12.8906    5.2352   -7.6340 N   0  0  0  0  0  0  0  0  0  0  0  0
   11.9166    4.7697   -7.3967 N   0  0  0  0  0  0  0  0  0  0  0  0
    4.9598    2.4580   -3.6226 C   0  0  0  0  0  0  0  0  0  0  0  0
    6.0213    2.5199   -4.5226 C   0  0  0  0  0  0  0  0  0  0  0  0
    6.8182    1.3959   -4.7837 C   0  0  0  0  0  0  0  0  0  0  0  0
    6.5335    0.1994   -4.1076 C   0  0  0  0  0  0  0  0  0  0  0  0
    5.4785    0.1166   -3.2031 C   0  0  0  0  0  0  0  0  0  0  0  0
    4.6967    1.2505   -2.9754 C   0  0  0  0  0  0  0  0  0  0  0  0
    4.3513    3.3299   -3.4099 H   0  0  0  0  0  0  0  0  0  0  0  0
    6.2384    3.4576   -5.0262 H   0  0  0  0  0  0  0  0  0  0  0  0
    7.1504   -0.6769   -4.2878 H   0  0  0  0  0  0  0  0  0  0  0  0
    5.2686   -0.8036   -2.6691 H   0  0  0  0  0  0  0  0  0  0  0  0
    3.3511    1.1617   -1.8141 S   0  0  0  0  0  0  0  0  0  0  0  0
    3.6019    0.1030   -0.8389 O   0  0  0  0  0  0  0  0  0  0  0  0
    2.1881    0.6188   -2.8886 O   0  0  0  0  0  0  0  0  0  0  0  0
    2.9817    2.5056   -1.3759 O   0  0  0  0  0  0  0  0  0  0  0  0
    7.9459    1.4646   -5.7843 C   0  0  0  0  0  0  0  0  0  0  0  0
    8.3292    2.4831   -5.8885 H   0  0  0  0  0  0  0  0  0  0  0  0
    8.7766    0.8136   -5.4968 H   0  0  0  0  0  0  0  0  0  0  0  0
    7.6066    1.1397   -6.7757 H   0  0  0  0  0  0  0  0  0  0  0  0
   -2.6919   -0.2035   -1.1010 H   0  0  0  0  0  0  0  0  0  0  0  0
  1  7  1  0  0  0  0
  2  8  1  0  0  0  0
  2  1  2  0  0  0  0
  3  2  1  0  0  0  0
  4  3  2  0  0  0  0
  4  5  1  0  0  0  0
  5  6  2  0  0  0  0
  6  1  1  0  0  0  0
  6 31  1  0  0  0  0
  9  4  1  0  0  0  0
 10  5  1  0  0  0  0
 11 12  3  0  0  0  0
 13 19  1  0  0  0  0
 13 18  2  0  0  0  0
 14 13  1  0  0  0  0
 15 14  2  0  0  0  0
 15 16  1  0  0  0  0
 16 17  2  0  0  0  0
 17 18  1  0  0  0  0
 17 22  1  0  0  0  0
 18 23  1  0  0  0  0
 20 14  1  0  0  0  0
 21 16  1  0  0  0  0
 23 26  2  0  0  0  0
 23 24  2  0  0  0  0
 25  3  1  0  0  0  0
 25 23  1  0  0  0  0
 27 29  1  0  0  0  0
 27 15  1  0  0  0  0
 28 27  1  0  0  0  0
 30 27  1  0  0  0  0
M  END
