Coordinates from ORCA-job Ph-N2-OTs-B3LYPG-6-31G_dp-MTMO-d009-169-n800
 OpenBabel09051907493D

 31 30  0  0  0  0  0  0  0  0999 V2000
   -0.0288    0.1939   -1.8052 C   0  0  0  0  0  0  0  0  0  0  0  0
    0.9749    1.1318   -2.1436 C   0  0  0  0  0  0  0  0  0  0  0  0
    0.4112    2.2410   -2.6492 C   0  0  0  0  0  0  0  0  0  0  0  0
   -0.8544    2.6686   -2.9159 C   0  0  0  0  0  0  0  0  0  0  0  0
   -1.7980    1.6848   -2.5643 C   0  0  0  0  0  0  0  0  0  0  0  0
   -1.3824    0.4668   -2.0164 C   0  0  0  0  0  0  0  0  0  0  0  0
    0.2895   -0.7515   -1.3768 H   0  0  0  0  0  0  0  0  0  0  0  0
    2.0645    0.9549   -1.9903 H   0  0  0  0  0  0  0  0  0  0  0  0
   -1.1177    3.6274   -3.3404 H   0  0  0  0  0  0  0  0  0  0  0  0
   -2.8501    1.8952   -2.7299 H   0  0  0  0  0  0  0  0  0  0  0  0
    1.7249    3.6772   -3.1152 N   0  0  0  0  0  0  0  0  0  0  0  0
    1.9654    4.7521   -3.2434 N   0  0  0  0  0  0  0  0  0  0  0  0
    6.8790    2.0535   -3.7235 C   0  0  0  0  0  0  0  0  0  0  0  0
    7.9961    1.5182   -4.3649 C   0  0  0  0  0  0  0  0  0  0  0  0
    8.0479    0.1642   -4.7218 C   0  0  0  0  0  0  0  0  0  0  0  0
    6.9491   -0.6493   -4.4072 C   0  0  0  0  0  0  0  0  0  0  0  0
    5.8269   -0.1283   -3.7665 C   0  0  0  0  0  0  0  0  0  0  0  0
    5.7960    1.2258   -3.4295 C   0  0  0  0  0  0  0  0  0  0  0  0
    6.8446    3.0967   -3.4297 H   0  0  0  0  0  0  0  0  0  0  0  0
    8.8445    2.1614   -4.5859 H   0  0  0  0  0  0  0  0  0  0  0  0
    6.9770   -1.7059   -4.6627 H   0  0  0  0  0  0  0  0  0  0  0  0
    4.9881   -0.7648   -3.5058 H   0  0  0  0  0  0  0  0  0  0  0  0
    4.3403    1.9273   -2.6425 S   0  0  0  0  0  0  0  0  0  0  0  0
    3.8131    0.8486   -1.7378 O   0  0  0  0  0  0  0  0  0  0  0  0
    3.3684    2.1723   -3.7770 O   0  0  0  0  0  0  0  0  0  0  0  0
    4.7582    3.1666   -1.9591 O   0  0  0  0  0  0  0  0  0  0  0  0
    9.2484   -0.4031   -5.4424 C   0  0  0  0  0  0  0  0  0  0  0  0
    9.1078   -0.3734   -6.5308 H   0  0  0  0  0  0  0  0  0  0  0  0
   10.1559    0.1645   -5.2162 H   0  0  0  0  0  0  0  0  0  0  0  0
    9.4246   -1.4476   -5.1670 H   0  0  0  0  0  0  0  0  0  0  0  0
   -2.1251   -0.2782   -1.7509 H   0  0  0  0  0  0  0  0  0  0  0  0
  1  7  1  0  0  0  0
  2  8  1  0  0  0  0
  2  1  2  0  0  0  0
  3  2  1  0  0  0  0
  4  3  2  0  0  0  0
  4  5  1  0  0  0  0
  5  6  2  0  0  0  0
  6  1  1  0  0  0  0
  6 31  1  0  0  0  0
  9  4  1  0  0  0  0
 10  5  1  0  0  0  0
 12 11  3  0  0  0  0
 13 19  1  0  0  0  0
 13 18  1  0  0  0  0
 14 13  2  0  0  0  0
 15 16  2  0  0  0  0
 15 14  1  0  0  0  0
 16 17  1  0  0  0  0
 17 22  1  0  0  0  0
 17 18  2  0  0  0  0
 18 23  1  0  0  0  0
 20 14  1  0  0  0  0
 21 16  1  0  0  0  0
 23 26  2  0  0  0  0
 23 24  1  0  0  0  0
 25 23  2  0  0  0  0
 27 29  1  0  0  0  0
 27 30  1  0  0  0  0
 27 15  1  0  0  0  0
 28 27  1  0  0  0  0
M  RAD  2   3   2  24   2
M  END
