Coordinates from ORCA-job Ph-N2-OTs-B3LYPG-6-31G_dp-MTMO-d009-169-n800
 OpenBabel09051907503D

 31 31  0  0  0  0  0  0  0  0999 V2000
   -0.6481   -1.0142   -1.4143 C   0  0  0  0  0  0  0  0  0  0  0  0
    0.6494   -0.7984   -1.8802 C   0  0  0  0  0  0  0  0  0  0  0  0
    0.9796    0.4547   -2.3929 C   0  0  0  0  0  0  0  0  0  0  0  0
    0.0521    1.4937   -2.4433 C   0  0  0  0  0  0  0  0  0  0  0  0
   -1.2418    1.2639   -1.9744 C   0  0  0  0  0  0  0  0  0  0  0  0
   -1.5934    0.0132   -1.4610 C   0  0  0  0  0  0  0  0  0  0  0  0
   -0.9185   -1.9861   -1.0128 H   0  0  0  0  0  0  0  0  0  0  0  0
    1.4019   -1.5783   -1.8506 H   0  0  0  0  0  0  0  0  0  0  0  0
    0.3505    2.4561   -2.8429 H   0  0  0  0  0  0  0  0  0  0  0  0
   -1.9746    2.0647   -2.0098 H   0  0  0  0  0  0  0  0  0  0  0  0
   11.7402    4.9143   -6.9685 N   0  0  0  0  0  0  0  0  0  0  0  0
   10.7938    4.4108   -6.6994 N   0  0  0  0  0  0  0  0  0  0  0  0
    5.0384    2.4758   -3.7093 C   0  0  0  0  0  0  0  0  0  0  0  0
    6.0979    2.5183   -4.6122 C   0  0  0  0  0  0  0  0  0  0  0  0
    6.8919    1.3872   -4.8542 C   0  0  0  0  0  0  0  0  0  0  0  0
    6.6055    0.2049   -4.1551 C   0  0  0  0  0  0  0  0  0  0  0  0
    5.5520    0.1415   -3.2466 C   0  0  0  0  0  0  0  0  0  0  0  0
    4.7736    1.2810   -3.0386 C   0  0  0  0  0  0  0  0  0  0  0  0
    4.4326    3.3530   -3.5114 H   0  0  0  0  0  0  0  0  0  0  0  0
    6.3162    3.4460   -5.1338 H   0  0  0  0  0  0  0  0  0  0  0  0
    7.2197   -0.6763   -4.3201 H   0  0  0  0  0  0  0  0  0  0  0  0
    5.3415   -0.7681   -2.6949 H   0  0  0  0  0  0  0  0  0  0  0  0
    3.4316    1.2172   -1.8712 S   0  0  0  0  0  0  0  0  0  0  0  0
    3.6831    0.1763   -0.8773 O   0  0  0  0  0  0  0  0  0  0  0  0
    2.2623    0.6574   -2.9304 O   0  0  0  0  0  0  0  0  0  0  0  0
    3.0675    2.5702   -1.4568 O   0  0  0  0  0  0  0  0  0  0  0  0
    8.0162    1.4356   -5.8597 C   0  0  0  0  0  0  0  0  0  0  0  0
    8.4688    2.4299   -5.9127 H   0  0  0  0  0  0  0  0  0  0  0  0
    8.8018    0.7147   -5.6165 H   0  0  0  0  0  0  0  0  0  0  0  0
    7.6491    1.1911   -6.8644 H   0  0  0  0  0  0  0  0  0  0  0  0
   -2.6013   -0.1599   -1.0963 H   0  0  0  0  0  0  0  0  0  0  0  0
  1  7  1  0  0  0  0
  2  8  1  0  0  0  0
  2  1  2  0  0  0  0
  3  2  1  0  0  0  0
  4  3  2  0  0  0  0
  4  5  1  0  0  0  0
  5  6  2  0  0  0  0
  6  1  1  0  0  0  0
  6 31  1  0  0  0  0
  9  4  1  0  0  0  0
 10  5  1  0  0  0  0
 11 12  3  0  0  0  0
 13 19  1  0  0  0  0
 13 18  2  0  0  0  0
 14 13  1  0  0  0  0
 15 14  2  0  0  0  0
 15 16  1  0  0  0  0
 16 17  2  0  0  0  0
 17 18  1  0  0  0  0
 17 22  1  0  0  0  0
 18 23  1  0  0  0  0
 20 14  1  0  0  0  0
 21 16  1  0  0  0  0
 23 26  2  0  0  0  0
 23 24  2  0  0  0  0
 25  3  1  0  0  0  0
 25 23  1  0  0  0  0
 27 29  1  0  0  0  0
 27 15  1  0  0  0  0
 28 27  1  0  0  0  0
 30 27  1  0  0  0  0
M  END
