Coordinates from ORCA-job Ph-N2-OTs-B3LYPG-6-31G_dp-MTMO-d009-169-n800
 OpenBabel09051907503D

 31 31  0  0  0  0  0  0  0  0999 V2000
   -0.7521   -1.0636   -1.4017 C   0  0  0  0  0  0  0  0  0  0  0  0
    0.5497   -0.8477   -1.8552 C   0  0  0  0  0  0  0  0  0  0  0  0
    0.8872    0.4082   -2.3563 C   0  0  0  0  0  0  0  0  0  0  0  0
   -0.0375    1.4497   -2.4071 C   0  0  0  0  0  0  0  0  0  0  0  0
   -1.3359    1.2198   -1.9507 C   0  0  0  0  0  0  0  0  0  0  0  0
   -1.6946   -0.0336   -1.4490 C   0  0  0  0  0  0  0  0  0  0  0  0
   -1.0282   -2.0376   -1.0092 H   0  0  0  0  0  0  0  0  0  0  0  0
    1.3000   -1.6297   -1.8249 H   0  0  0  0  0  0  0  0  0  0  0  0
    0.2665    2.4142   -2.7973 H   0  0  0  0  0  0  0  0  0  0  0  0
   -2.0664    2.0226   -1.9866 H   0  0  0  0  0  0  0  0  0  0  0  0
   13.0931    5.3361   -7.7269 N   0  0  0  0  0  0  0  0  0  0  0  0
   12.1187    4.8711   -7.4902 N   0  0  0  0  0  0  0  0  0  0  0  0
    4.9452    2.4495   -3.6177 C   0  0  0  0  0  0  0  0  0  0  0  0
    6.0062    2.5108   -4.5183 C   0  0  0  0  0  0  0  0  0  0  0  0
    6.8038    1.3869   -4.7781 C   0  0  0  0  0  0  0  0  0  0  0  0
    6.5202    0.1912   -4.1002 C   0  0  0  0  0  0  0  0  0  0  0  0
    5.4656    0.1090   -3.1952 C   0  0  0  0  0  0  0  0  0  0  0  0
    4.6833    1.2427   -2.9687 C   0  0  0  0  0  0  0  0  0  0  0  0
    4.3363    3.3213   -3.4059 H   0  0  0  0  0  0  0  0  0  0  0  0
    6.2225    3.4480   -5.0234 H   0  0  0  0  0  0  0  0  0  0  0  0
    7.1377   -0.6849   -4.2795 H   0  0  0  0  0  0  0  0  0  0  0  0
    5.2566   -0.8106   -2.6598 H   0  0  0  0  0  0  0  0  0  0  0  0
    3.3379    1.1545   -1.8071 S   0  0  0  0  0  0  0  0  0  0  0  0
    3.5885    0.0959   -0.8319 O   0  0  0  0  0  0  0  0  0  0  0  0
    2.1746    0.6120   -2.8815 O   0  0  0  0  0  0  0  0  0  0  0  0
    2.9690    2.4986   -1.3690 O   0  0  0  0  0  0  0  0  0  0  0  0
    7.9309    1.4552   -5.7794 C   0  0  0  0  0  0  0  0  0  0  0  0
    8.3137    2.4738   -5.8844 H   0  0  0  0  0  0  0  0  0  0  0  0
    8.7620    0.8047   -5.4919 H   0  0  0  0  0  0  0  0  0  0  0  0
    7.5912    1.1295   -6.7705 H   0  0  0  0  0  0  0  0  0  0  0  0
   -2.7059   -0.2069   -1.0939 H   0  0  0  0  0  0  0  0  0  0  0  0
  1  7  1  0  0  0  0
  2  8  1  0  0  0  0
  2  1  2  0  0  0  0
  3  2  1  0  0  0  0
  4  3  2  0  0  0  0
  4  5  1  0  0  0  0
  5  6  2  0  0  0  0
  6  1  1  0  0  0  0
  6 31  1  0  0  0  0
  9  4  1  0  0  0  0
 10  5  1  0  0  0  0
 11 12  3  0  0  0  0
 13 19  1  0  0  0  0
 13 18  2  0  0  0  0
 14 13  1  0  0  0  0
 15 14  2  0  0  0  0
 15 16  1  0  0  0  0
 16 17  2  0  0  0  0
 17 18  1  0  0  0  0
 17 22  1  0  0  0  0
 18 23  1  0  0  0  0
 20 14  1  0  0  0  0
 21 16  1  0  0  0  0
 23 26  2  0  0  0  0
 23 24  2  0  0  0  0
 25  3  1  0  0  0  0
 25 23  1  0  0  0  0
 27 29  1  0  0  0  0
 27 15  1  0  0  0  0
 28 27  1  0  0  0  0
 30 27  1  0  0  0  0
M  END
