Coordinates from ORCA-job Ph-N2-OTs-B3LYPG-6-31G_dp-MTMO-d009-169-n800
 OpenBabel09051907503D

 31 31  0  0  0  0  0  0  0  0999 V2000
   -0.8786   -1.0922   -1.2918 C   0  0  0  0  0  0  0  0  0  0  0  0
    0.4213   -0.8877   -1.7561 C   0  0  0  0  0  0  0  0  0  0  0  0
    0.7594    0.3586   -2.2802 C   0  0  0  0  0  0  0  0  0  0  0  0
   -0.1626    1.4017   -2.3434 C   0  0  0  0  0  0  0  0  0  0  0  0
   -1.4591    1.1833   -1.8762 C   0  0  0  0  0  0  0  0  0  0  0  0
   -1.8185   -0.0605   -1.3514 C   0  0  0  0  0  0  0  0  0  0  0  0
   -1.1552   -2.0587   -0.8816 H   0  0  0  0  0  0  0  0  0  0  0  0
    1.1696   -1.6713   -1.7167 H   0  0  0  0  0  0  0  0  0  0  0  0
    0.1419    2.3587   -2.7514 H   0  0  0  0  0  0  0  0  0  0  0  0
   -2.1876    1.9874   -1.9218 H   0  0  0  0  0  0  0  0  0  0  0  0
   14.9878    6.4032   -8.4901 N   0  0  0  0  0  0  0  0  0  0  0  0
   14.0446    5.8686   -8.2751 N   0  0  0  0  0  0  0  0  0  0  0  0
    4.8118    2.3619   -3.6028 C   0  0  0  0  0  0  0  0  0  0  0  0
    5.8661    2.4051   -4.5124 C   0  0  0  0  0  0  0  0  0  0  0  0
    6.6616    1.2762   -4.7557 C   0  0  0  0  0  0  0  0  0  0  0  0
    6.3832    0.0942   -4.0519 C   0  0  0  0  0  0  0  0  0  0  0  0
    5.3353    0.0301   -3.1378 C   0  0  0  0  0  0  0  0  0  0  0  0
    4.5546    1.1683   -2.9282 C   0  0  0  0  0  0  0  0  0  0  0  0
    4.2046    3.2379   -3.4039 H   0  0  0  0  0  0  0  0  0  0  0  0
    6.0785    3.3320   -5.0377 H   0  0  0  0  0  0  0  0  0  0  0  0
    6.9993   -0.7855   -4.2183 H   0  0  0  0  0  0  0  0  0  0  0  0
    5.1298   -0.8786   -2.5829 H   0  0  0  0  0  0  0  0  0  0  0  0
    3.2165    1.1028   -1.7566 S   0  0  0  0  0  0  0  0  0  0  0  0
    3.4691    0.0573   -0.7678 O   0  0  0  0  0  0  0  0  0  0  0  0
    2.0444    0.5500   -2.8160 O   0  0  0  0  0  0  0  0  0  0  0  0
    2.8559    2.4546   -1.3358 O   0  0  0  0  0  0  0  0  0  0  0  0
    7.7814    1.3235   -5.7663 C   0  0  0  0  0  0  0  0  0  0  0  0
    8.1427    2.3439   -5.9177 H   0  0  0  0  0  0  0  0  0  0  0  0
    8.6271    0.7029   -5.4561 H   0  0  0  0  0  0  0  0  0  0  0  0
    7.4431    0.9478   -6.7399 H   0  0  0  0  0  0  0  0  0  0  0  0
   -2.8284   -0.2249   -0.9881 H   0  0  0  0  0  0  0  0  0  0  0  0
  1  7  1  0  0  0  0
  2  8  1  0  0  0  0
  2  1  2  0  0  0  0
  3  2  1  0  0  0  0
  4  3  2  0  0  0  0
  4  5  1  0  0  0  0
  5  6  2  0  0  0  0
  6  1  1  0  0  0  0
  6 31  1  0  0  0  0
  9  4  1  0  0  0  0
 10  5  1  0  0  0  0
 11 12  3  0  0  0  0
 13 19  1  0  0  0  0
 13 18  2  0  0  0  0
 14 13  1  0  0  0  0
 15 14  2  0  0  0  0
 15 16  1  0  0  0  0
 16 17  2  0  0  0  0
 17 18  1  0  0  0  0
 17 22  1  0  0  0  0
 18 23  1  0  0  0  0
 20 14  1  0  0  0  0
 21 16  1  0  0  0  0
 23 26  2  0  0  0  0
 23 24  2  0  0  0  0
 25  3  1  0  0  0  0
 25 23  1  0  0  0  0
 27 29  1  0  0  0  0
 27 15  1  0  0  0  0
 28 27  1  0  0  0  0
 30 27  1  0  0  0  0
M  END
