Coordinates from ORCA-job Ph-N2-OTs-B3LYPG-6-31G_dp-MTMO-d009-169-n800
 OpenBabel09051907503D

 31 31  0  0  0  0  0  0  0  0999 V2000
   -0.8654   -1.0995   -1.3420 C   0  0  0  0  0  0  0  0  0  0  0  0
    0.4372   -0.8900   -1.7964 C   0  0  0  0  0  0  0  0  0  0  0  0
    0.7791    0.3628   -2.3022 C   0  0  0  0  0  0  0  0  0  0  0  0
   -0.1418    1.4074   -2.3568 C   0  0  0  0  0  0  0  0  0  0  0  0
   -1.4410    1.1839   -1.8995 C   0  0  0  0  0  0  0  0  0  0  0  0
   -1.8041   -0.0664   -1.3931 C   0  0  0  0  0  0  0  0  0  0  0  0
   -1.1449   -2.0711   -0.9460 H   0  0  0  0  0  0  0  0  0  0  0  0
    1.1847   -1.6747   -1.7634 H   0  0  0  0  0  0  0  0  0  0  0  0
    0.1656    2.3694   -2.7506 H   0  0  0  0  0  0  0  0  0  0  0  0
   -2.1686    1.9892   -1.9383 H   0  0  0  0  0  0  0  0  0  0  0  0
   14.6469    6.1465   -8.4621 N   0  0  0  0  0  0  0  0  0  0  0  0
   13.6834    5.6546   -8.2354 N   0  0  0  0  0  0  0  0  0  0  0  0
    4.8410    2.3866   -3.5726 C   0  0  0  0  0  0  0  0  0  0  0  0
    5.9011    2.4424   -4.4746 C   0  0  0  0  0  0  0  0  0  0  0  0
    6.6962    1.3161   -4.7311 C   0  0  0  0  0  0  0  0  0  0  0  0
    6.4110    0.1234   -4.0485 C   0  0  0  0  0  0  0  0  0  0  0  0
    5.3573    0.0466   -3.1420 C   0  0  0  0  0  0  0  0  0  0  0  0
    4.5775    1.1828   -2.9189 C   0  0  0  0  0  0  0  0  0  0  0  0
    4.2340    3.2603   -3.3633 H   0  0  0  0  0  0  0  0  0  0  0  0
    6.1186    3.3773   -4.9835 H   0  0  0  0  0  0  0  0  0  0  0  0
    7.0266   -0.7546   -4.2252 H   0  0  0  0  0  0  0  0  0  0  0  0
    5.1470   -0.8706   -2.6031 H   0  0  0  0  0  0  0  0  0  0  0  0
    3.2328    1.1014   -1.7559 S   0  0  0  0  0  0  0  0  0  0  0  0
    3.4810    0.0443   -0.7784 O   0  0  0  0  0  0  0  0  0  0  0  0
    2.0672    0.5601   -2.8283 O   0  0  0  0  0  0  0  0  0  0  0  0
    2.8683    2.4476   -1.3207 O   0  0  0  0  0  0  0  0  0  0  0  0
    7.8227    1.3782   -5.7335 C   0  0  0  0  0  0  0  0  0  0  0  0
    8.1955    2.3985   -5.8554 H   0  0  0  0  0  0  0  0  0  0  0  0
    8.6599    0.7407   -5.4349 H   0  0  0  0  0  0  0  0  0  0  0  0
    7.4866    1.0323   -6.7189 H   0  0  0  0  0  0  0  0  0  0  0  0
   -2.8160   -0.2347   -1.0373 H   0  0  0  0  0  0  0  0  0  0  0  0
  1  7  1  0  0  0  0
  2  8  1  0  0  0  0
  2  1  2  0  0  0  0
  3  2  1  0  0  0  0
  4  3  2  0  0  0  0
  4  5  1  0  0  0  0
  5  6  2  0  0  0  0
  6  1  1  0  0  0  0
  6 31  1  0  0  0  0
  9  4  1  0  0  0  0
 10  5  1  0  0  0  0
 11 12  3  0  0  0  0
 13 19  1  0  0  0  0
 13 18  2  0  0  0  0
 14 13  1  0  0  0  0
 15 14  2  0  0  0  0
 15 16  1  0  0  0  0
 16 17  2  0  0  0  0
 17 18  1  0  0  0  0
 17 22  1  0  0  0  0
 18 23  1  0  0  0  0
 20 14  1  0  0  0  0
 21 16  1  0  0  0  0
 23 26  2  0  0  0  0
 23 24  2  0  0  0  0
 25  3  1  0  0  0  0
 25 23  1  0  0  0  0
 27 29  1  0  0  0  0
 27 15  1  0  0  0  0
 28 27  1  0  0  0  0
 30 27  1  0  0  0  0
M  END
