Coordinates from ORCA-job Ph-N2-OTs-B3LYPG-6-31G_dp-MTMO-d009-169-n800
 OpenBabel09051907503D

 31 31  0  0  0  0  0  0  0  0999 V2000
   -0.5359   -0.1335   -1.2976 C   0  0  0  0  0  0  0  0  0  0  0  0
    0.8006   -0.2270   -1.6883 C   0  0  0  0  0  0  0  0  0  0  0  0
    1.2949    0.6937   -2.6114 C   0  0  0  0  0  0  0  0  0  0  0  0
    0.4902    1.6964   -3.1478 C   0  0  0  0  0  0  0  0  0  0  0  0
   -0.8464    1.7722   -2.7549 C   0  0  0  0  0  0  0  0  0  0  0  0
   -1.3601    0.8610   -1.8291 C   0  0  0  0  0  0  0  0  0  0  0  0
   -0.9327   -0.8422   -0.5764 H   0  0  0  0  0  0  0  0  0  0  0  0
    1.4581   -0.9899   -1.2879 H   0  0  0  0  0  0  0  0  0  0  0  0
    0.9154    2.3958   -3.8594 H   0  0  0  0  0  0  0  0  0  0  0  0
   -1.4840    2.5477   -3.1690 H   0  0  0  0  0  0  0  0  0  0  0  0
    5.8451    6.7524   -4.3256 N   0  0  0  0  0  0  0  0  0  0  0  0
    5.8701    5.6684   -4.5388 N   0  0  0  0  0  0  0  0  0  0  0  0
    5.6240    2.0378   -3.9083 C   0  0  0  0  0  0  0  0  0  0  0  0
    6.7015    1.8710   -4.7745 C   0  0  0  0  0  0  0  0  0  0  0  0
    7.3407    0.6292   -4.9076 C   0  0  0  0  0  0  0  0  0  0  0  0
    6.8728   -0.4515   -4.1452 C   0  0  0  0  0  0  0  0  0  0  0  0
    5.7996   -0.3052   -3.2694 C   0  0  0  0  0  0  0  0  0  0  0  0
    5.1823    0.9421   -3.1654 C   0  0  0  0  0  0  0  0  0  0  0  0
    5.1383    3.0008   -3.8008 H   0  0  0  0  0  0  0  0  0  0  0  0
    7.0520    2.7209   -5.3532 H   0  0  0  0  0  0  0  0  0  0  0  0
    7.3578   -1.4195   -4.2357 H   0  0  0  0  0  0  0  0  0  0  0  0
    5.4486   -1.1380   -2.6704 H   0  0  0  0  0  0  0  0  0  0  0  0
    3.8147    1.1488   -2.0461 S   0  0  0  0  0  0  0  0  0  0  0  0
    3.9397    0.2105   -0.9322 O   0  0  0  0  0  0  0  0  0  0  0  0
    2.6180    0.5854   -3.0718 O   0  0  0  0  0  0  0  0  0  0  0  0
    3.5797    2.5692   -1.7988 O   0  0  0  0  0  0  0  0  0  0  0  0
    8.5260    0.4700   -5.8288 C   0  0  0  0  0  0  0  0  0  0  0  0
    8.4163    1.0788   -6.7308 H   0  0  0  0  0  0  0  0  0  0  0  0
    9.4507    0.7896   -5.3325 H   0  0  0  0  0  0  0  0  0  0  0  0
    8.6607   -0.5711   -6.1330 H   0  0  0  0  0  0  0  0  0  0  0  0
   -2.3992    0.9269   -1.5211 H   0  0  0  0  0  0  0  0  0  0  0  0
  1  7  1  0  0  0  0
  2  1  1  0  0  0  0
  2  8  1  0  0  0  0
  3  2  2  0  0  0  0
  4  5  2  0  0  0  0
  4  3  1  0  0  0  0
  5  6  1  0  0  0  0
  6 31  1  0  0  0  0
  6  1  2  0  0  0  0
  9  4  1  0  0  0  0
 10  5  1  0  0  0  0
 12 11  3  0  0  0  0
 13 19  1  0  0  0  0
 13 18  2  0  0  0  0
 14 13  1  0  0  0  0
 15 14  2  0  0  0  0
 15 16  1  0  0  0  0
 16 17  2  0  0  0  0
 17 18  1  0  0  0  0
 17 22  1  0  0  0  0
 18 23  1  0  0  0  0
 20 14  1  0  0  0  0
 21 16  1  0  0  0  0
 23 26  2  0  0  0  0
 23 24  2  0  0  0  0
 25  3  1  0  0  0  0
 25 23  1  0  0  0  0
 27 29  1  0  0  0  0
 27 15  1  0  0  0  0
 28 27  1  0  0  0  0
 30 27  1  0  0  0  0
M  END
