Coordinates from ORCA-job Ph-N2-OTs-B3LYPG-6-31G_dp-MTMO-d009-169-n800
 OpenBabel09051907503D

 31 31  0  0  0  0  0  0  0  0999 V2000
   -0.7371   -0.6852   -1.6789 C   0  0  0  0  0  0  0  0  0  0  0  0
    0.5994   -0.6069   -2.0723 C   0  0  0  0  0  0  0  0  0  0  0  0
    1.0993    0.6180   -2.5116 C   0  0  0  0  0  0  0  0  0  0  0  0
    0.3019    1.7598   -2.5604 C   0  0  0  0  0  0  0  0  0  0  0  0
   -1.0336    1.6662   -2.1672 C   0  0  0  0  0  0  0  0  0  0  0  0
   -1.5540    0.4470   -1.7265 C   0  0  0  0  0  0  0  0  0  0  0  0
   -1.1389   -1.6333   -1.3340 H   0  0  0  0  0  0  0  0  0  0  0  0
    1.2540   -1.4704   -2.0404 H   0  0  0  0  0  0  0  0  0  0  0  0
    0.7310    2.6948   -2.9021 H   0  0  0  0  0  0  0  0  0  0  0  0
   -1.6659    2.5484   -2.2034 H   0  0  0  0  0  0  0  0  0  0  0  0
    8.6839    5.9045   -7.4298 N   0  0  0  0  0  0  0  0  0  0  0  0
    8.3247    5.0695   -6.8013 N   0  0  0  0  0  0  0  0  0  0  0  0
    5.4320    2.2318   -3.4193 C   0  0  0  0  0  0  0  0  0  0  0  0
    6.5245    2.2623   -4.2840 C   0  0  0  0  0  0  0  0  0  0  0  0
    7.1817    1.0835   -4.6634 C   0  0  0  0  0  0  0  0  0  0  0  0
    6.7172   -0.1391   -4.1534 C   0  0  0  0  0  0  0  0  0  0  0  0
    5.6294   -0.1913   -3.2871 C   0  0  0  0  0  0  0  0  0  0  0  0
    4.9939    1.0005   -2.9326 C   0  0  0  0  0  0  0  0  0  0  0  0
    4.9298    3.1435   -3.1160 H   0  0  0  0  0  0  0  0  0  0  0  0
    6.8744    3.2156   -4.6697 H   0  0  0  0  0  0  0  0  0  0  0  0
    7.2172   -1.0613   -4.4367 H   0  0  0  0  0  0  0  0  0  0  0  0
    5.2795   -1.1341   -2.8819 H   0  0  0  0  0  0  0  0  0  0  0  0
    3.6052    0.9481   -1.8211 S   0  0  0  0  0  0  0  0  0  0  0  0
    3.6844   -0.2455   -0.9818 O   0  0  0  0  0  0  0  0  0  0  0  0
    2.4226    0.6971   -2.9780 O   0  0  0  0  0  0  0  0  0  0  0  0
    3.3926    2.2647   -1.2243 O   0  0  0  0  0  0  0  0  0  0  0  0
    8.3809    1.1252   -5.5783 C   0  0  0  0  0  0  0  0  0  0  0  0
    8.4335    2.0682   -6.1282 H   0  0  0  0  0  0  0  0  0  0  0  0
    9.3111    1.0244   -5.0059 H   0  0  0  0  0  0  0  0  0  0  0  0
    8.3580    0.3050   -6.3030 H   0  0  0  0  0  0  0  0  0  0  0  0
   -2.5931    0.3797   -1.4191 H   0  0  0  0  0  0  0  0  0  0  0  0
  1  7  1  0  0  0  0
  2  8  1  0  0  0  0
  2  1  2  0  0  0  0
  3  2  1  0  0  0  0
  4  3  2  0  0  0  0
  4  5  1  0  0  0  0
  5  6  2  0  0  0  0
  6  1  1  0  0  0  0
  6 31  1  0  0  0  0
  9  4  1  0  0  0  0
 10  5  1  0  0  0  0
 11 12  3  0  0  0  0
 13 19  1  0  0  0  0
 13 18  2  0  0  0  0
 14 13  1  0  0  0  0
 15 14  2  0  0  0  0
 15 16  1  0  0  0  0
 16 17  2  0  0  0  0
 17 18  1  0  0  0  0
 17 22  1  0  0  0  0
 18 23  1  0  0  0  0
 20 14  1  0  0  0  0
 21 16  1  0  0  0  0
 23 26  2  0  0  0  0
 23 24  2  0  0  0  0
 25  3  1  0  0  0  0
 25 23  1  0  0  0  0
 27 29  1  0  0  0  0
 27 15  1  0  0  0  0
 28 27  1  0  0  0  0
 30 27  1  0  0  0  0
M  END
