Coordinates from ORCA-job Ph-N2-OTs-B3LYPG-6-31G_dp-MTMO-d009-169-n800
 OpenBabel09051907503D

 31 31  0  0  0  0  0  0  0  0999 V2000
   -0.8079   -1.0775   -1.3737 C   0  0  0  0  0  0  0  0  0  0  0  0
    0.4947   -0.8663   -1.8273 C   0  0  0  0  0  0  0  0  0  0  0  0
    0.8359    0.3877   -2.3308 C   0  0  0  0  0  0  0  0  0  0  0  0
   -0.0858    1.4317   -2.3839 C   0  0  0  0  0  0  0  0  0  0  0  0
   -1.3849    1.2065   -1.9274 C   0  0  0  0  0  0  0  0  0  0  0  0
   -1.7474   -0.0449   -1.4233 C   0  0  0  0  0  0  0  0  0  0  0  0
   -1.0869   -2.0500   -0.9795 H   0  0  0  0  0  0  0  0  0  0  0  0
    1.2427   -1.6504   -1.7954 H   0  0  0  0  0  0  0  0  0  0  0  0
    0.2211    2.3946   -2.7758 H   0  0  0  0  0  0  0  0  0  0  0  0
   -2.1131    2.0113   -1.9651 H   0  0  0  0  0  0  0  0  0  0  0  0
   13.8248    5.7391   -8.0767 N   0  0  0  0  0  0  0  0  0  0  0  0
   12.8558    5.2595   -7.8473 N   0  0  0  0  0  0  0  0  0  0  0  0
    4.8973    2.4164   -3.5961 C   0  0  0  0  0  0  0  0  0  0  0  0
    5.9580    2.4742   -4.4974 C   0  0  0  0  0  0  0  0  0  0  0  0
    6.7537    1.3486   -4.7552 C   0  0  0  0  0  0  0  0  0  0  0  0
    6.4687    0.1547   -4.0746 C   0  0  0  0  0  0  0  0  0  0  0  0
    5.4145    0.0760   -3.1689 C   0  0  0  0  0  0  0  0  0  0  0  0
    4.6339    1.2114   -2.9445 C   0  0  0  0  0  0  0  0  0  0  0  0
    4.2898    3.2895   -3.3859 H   0  0  0  0  0  0  0  0  0  0  0  0
    6.1753    3.4100   -5.0046 H   0  0  0  0  0  0  0  0  0  0  0  0
    7.0848   -0.7227   -4.2523 H   0  0  0  0  0  0  0  0  0  0  0  0
    5.2042   -0.8421   -2.6316 H   0  0  0  0  0  0  0  0  0  0  0  0
    3.2887    1.1276   -1.7824 S   0  0  0  0  0  0  0  0  0  0  0  0
    3.5371    0.0695   -0.8061 O   0  0  0  0  0  0  0  0  0  0  0  0
    2.1240    0.5868   -2.8561 O   0  0  0  0  0  0  0  0  0  0  0  0
    2.9230    2.4731   -1.3457 O   0  0  0  0  0  0  0  0  0  0  0  0
    7.8807    1.4129   -5.7569 C   0  0  0  0  0  0  0  0  0  0  0  0
    8.2570    2.4327   -5.8726 H   0  0  0  0  0  0  0  0  0  0  0  0
    8.7157    0.7708   -5.4621 H   0  0  0  0  0  0  0  0  0  0  0  0
    7.5435    1.0743   -6.7444 H   0  0  0  0  0  0  0  0  0  0  0  0
   -2.7593   -0.2146   -1.0682 H   0  0  0  0  0  0  0  0  0  0  0  0
  1  7  1  0  0  0  0
  2  8  1  0  0  0  0
  2  1  2  0  0  0  0
  3  2  1  0  0  0  0
  4  3  2  0  0  0  0
  4  5  1  0  0  0  0
  5  6  2  0  0  0  0
  6  1  1  0  0  0  0
  6 31  1  0  0  0  0
  9  4  1  0  0  0  0
 10  5  1  0  0  0  0
 11 12  3  0  0  0  0
 13 19  1  0  0  0  0
 13 18  2  0  0  0  0
 14 13  1  0  0  0  0
 15 14  2  0  0  0  0
 15 16  1  0  0  0  0
 16 17  2  0  0  0  0
 17 18  1  0  0  0  0
 17 22  1  0  0  0  0
 18 23  1  0  0  0  0
 20 14  1  0  0  0  0
 21 16  1  0  0  0  0
 23 26  2  0  0  0  0
 23 24  2  0  0  0  0
 25  3  1  0  0  0  0
 25 23  1  0  0  0  0
 27 29  1  0  0  0  0
 27 15  1  0  0  0  0
 28 27  1  0  0  0  0
 30 27  1  0  0  0  0
M  END
