Coordinates from ORCA-job Ph-N2-OTs-B3LYPG-6-31G_dp-MTMO-d009-169-n800
 OpenBabel09051907503D

 31 31  0  0  0  0  0  0  0  0999 V2000
   -0.7796   -1.0692   -1.3885 C   0  0  0  0  0  0  0  0  0  0  0  0
    0.5228   -0.8562   -1.8419 C   0  0  0  0  0  0  0  0  0  0  0  0
    0.8626    0.3986   -2.3441 C   0  0  0  0  0  0  0  0  0  0  0  0
   -0.0601    1.4417   -2.3963 C   0  0  0  0  0  0  0  0  0  0  0  0
   -1.3591    1.2146   -1.9400 C   0  0  0  0  0  0  0  0  0  0  0  0
   -1.7202   -0.0376   -1.4371 C   0  0  0  0  0  0  0  0  0  0  0  0
   -1.0575   -2.0424   -0.9951 H   0  0  0  0  0  0  0  0  0  0  0  0
    1.2717   -1.6395   -1.8106 H   0  0  0  0  0  0  0  0  0  0  0  0
    0.2457    2.4053   -2.7873 H   0  0  0  0  0  0  0  0  0  0  0  0
   -2.0881    2.0187   -1.9770 H   0  0  0  0  0  0  0  0  0  0  0  0
   13.4417    5.5342   -7.8950 N   0  0  0  0  0  0  0  0  0  0  0  0
   12.4699    5.0620   -7.6625 N   0  0  0  0  0  0  0  0  0  0  0  0
    4.9226    2.4326   -3.6073 C   0  0  0  0  0  0  0  0  0  0  0  0
    5.9834    2.4920   -4.5082 C   0  0  0  0  0  0  0  0  0  0  0  0
    6.7801    1.3673   -4.7669 C   0  0  0  0  0  0  0  0  0  0  0  0
    6.4959    0.1726   -4.0875 C   0  0  0  0  0  0  0  0  0  0  0  0
    5.4415    0.0922   -3.1821 C   0  0  0  0  0  0  0  0  0  0  0  0
    4.6600    1.2268   -2.9568 C   0  0  0  0  0  0  0  0  0  0  0  0
    4.3143    3.3050   -3.3963 H   0  0  0  0  0  0  0  0  0  0  0  0
    6.2001    3.4285   -5.0145 H   0  0  0  0  0  0  0  0  0  0  0  0
    7.1127   -0.7042   -4.2659 H   0  0  0  0  0  0  0  0  0  0  0  0
    5.2318   -0.8266   -2.6457 H   0  0  0  0  0  0  0  0  0  0  0  0
    3.3146    1.1408   -1.7950 S   0  0  0  0  0  0  0  0  0  0  0  0
    3.5639    0.0822   -0.8194 O   0  0  0  0  0  0  0  0  0  0  0  0
    2.1506    0.5996   -2.8692 O   0  0  0  0  0  0  0  0  0  0  0  0
    2.9476    2.4856   -1.3573 O   0  0  0  0  0  0  0  0  0  0  0  0
    7.9071    1.4335   -5.7684 C   0  0  0  0  0  0  0  0  0  0  0  0
    8.2861    2.4529   -5.8794 H   0  0  0  0  0  0  0  0  0  0  0  0
    8.7405    0.7879   -5.4768 H   0  0  0  0  0  0  0  0  0  0  0  0
    7.5689    1.1006   -6.7575 H   0  0  0  0  0  0  0  0  0  0  0  0
   -2.7319   -0.2087   -1.0822 H   0  0  0  0  0  0  0  0  0  0  0  0
  1  7  1  0  0  0  0
  2  8  1  0  0  0  0
  2  1  2  0  0  0  0
  3  2  1  0  0  0  0
  4  3  2  0  0  0  0
  4  5  1  0  0  0  0
  5  6  2  0  0  0  0
  6  1  1  0  0  0  0
  6 31  1  0  0  0  0
  9  4  1  0  0  0  0
 10  5  1  0  0  0  0
 11 12  3  0  0  0  0
 13 19  1  0  0  0  0
 13 18  2  0  0  0  0
 14 13  1  0  0  0  0
 15 14  2  0  0  0  0
 15 16  1  0  0  0  0
 16 17  2  0  0  0  0
 17 18  1  0  0  0  0
 17 22  1  0  0  0  0
 18 23  1  0  0  0  0
 20 14  1  0  0  0  0
 21 16  1  0  0  0  0
 23 26  2  0  0  0  0
 23 24  2  0  0  0  0
 25  3  1  0  0  0  0
 25 23  1  0  0  0  0
 27 29  1  0  0  0  0
 27 15  1  0  0  0  0
 28 27  1  0  0  0  0
 30 27  1  0  0  0  0
M  END
