Coordinates from ORCA-job Ph-N2-OTs-B3LYPG-6-31G_dp-MTMO-d009-169-n800
 OpenBabel09051907503D

 31 31  0  0  0  0  0  0  0  0999 V2000
   -0.7272   -0.7559   -1.6250 C   0  0  0  0  0  0  0  0  0  0  0  0
    0.6036   -0.6467   -2.0305 C   0  0  0  0  0  0  0  0  0  0  0  0
    1.0680    0.5866   -2.4848 C   0  0  0  0  0  0  0  0  0  0  0  0
    0.2411    1.7071   -2.5367 C   0  0  0  0  0  0  0  0  0  0  0  0
   -1.0882    1.5828   -2.1313 C   0  0  0  0  0  0  0  0  0  0  0  0
   -1.5733    0.3545   -1.6755 C   0  0  0  0  0  0  0  0  0  0  0  0
   -1.1015   -1.7107   -1.2683 H   0  0  0  0  0  0  0  0  0  0  0  0
    1.2804   -1.4927   -1.9967 H   0  0  0  0  0  0  0  0  0  0  0  0
    0.6433    2.6497   -2.8901 H   0  0  0  0  0  0  0  0  0  0  0  0
   -1.7434    2.4480   -2.1699 H   0  0  0  0  0  0  0  0  0  0  0  0
    9.3776    5.7855   -7.4606 N   0  0  0  0  0  0  0  0  0  0  0  0
    8.8422    5.0286   -6.8592 N   0  0  0  0  0  0  0  0  0  0  0  0
    5.3654    2.2797   -3.4514 C   0  0  0  0  0  0  0  0  0  0  0  0
    6.4527    2.3129   -4.3236 C   0  0  0  0  0  0  0  0  0  0  0  0
    7.1249    1.1390   -4.6889 C   0  0  0  0  0  0  0  0  0  0  0  0
    6.6838   -0.0825   -4.1542 C   0  0  0  0  0  0  0  0  0  0  0  0
    5.6027   -0.1374   -3.2807 C   0  0  0  0  0  0  0  0  0  0  0  0
    4.9496    1.0503   -2.9424 C   0  0  0  0  0  0  0  0  0  0  0  0
    4.8516    3.1886   -3.1589 H   0  0  0  0  0  0  0  0  0  0  0  0
    6.7869    3.2654   -4.7244 H   0  0  0  0  0  0  0  0  0  0  0  0
    7.1982   -1.0011   -4.4233 H   0  0  0  0  0  0  0  0  0  0  0  0
    5.2716   -1.0784   -2.8561 H   0  0  0  0  0  0  0  0  0  0  0  0
    3.5696    0.9941   -1.8202 S   0  0  0  0  0  0  0  0  0  0  0  0
    3.6778   -0.1796   -0.9564 O   0  0  0  0  0  0  0  0  0  0  0  0
    2.3848    0.6949   -2.9634 O   0  0  0  0  0  0  0  0  0  0  0  0
    3.3346    2.3186   -1.2501 O   0  0  0  0  0  0  0  0  0  0  0  0
    8.3079    1.1789   -5.6253 C   0  0  0  0  0  0  0  0  0  0  0  0
    8.4633    2.1801   -6.0331 H   0  0  0  0  0  0  0  0  0  0  0  0
    9.2273    0.8802   -5.1084 H   0  0  0  0  0  0  0  0  0  0  0  0
    8.1724    0.4867   -6.4634 H   0  0  0  0  0  0  0  0  0  0  0  0
   -2.6078    0.2634   -1.3587 H   0  0  0  0  0  0  0  0  0  0  0  0
  1  7  1  0  0  0  0
  2  8  1  0  0  0  0
  2  1  2  0  0  0  0
  3  2  1  0  0  0  0
  4  3  2  0  0  0  0
  4  5  1  0  0  0  0
  5  6  2  0  0  0  0
  6  1  1  0  0  0  0
  6 31  1  0  0  0  0
  9  4  1  0  0  0  0
 10  5  1  0  0  0  0
 11 12  3  0  0  0  0
 13 19  1  0  0  0  0
 13 18  2  0  0  0  0
 14 13  1  0  0  0  0
 15 14  2  0  0  0  0
 15 16  1  0  0  0  0
 16 17  2  0  0  0  0
 17 18  1  0  0  0  0
 17 22  1  0  0  0  0
 18 23  1  0  0  0  0
 20 14  1  0  0  0  0
 21 16  1  0  0  0  0
 23 26  2  0  0  0  0
 23 24  2  0  0  0  0
 25  3  1  0  0  0  0
 25 23  1  0  0  0  0
 27 29  1  0  0  0  0
 27 15  1  0  0  0  0
 28 27  1  0  0  0  0
 30 27  1  0  0  0  0
M  END
