Coordinates from ORCA-job Ph-N2-OTs-B3LYPG-6-31G_dp-MTMO-d009-169-n800
 OpenBabel09051907503D

 31 31  0  0  0  0  0  0  0  0999 V2000
   -0.8057   -1.0768   -1.3749 C   0  0  0  0  0  0  0  0  0  0  0  0
    0.4969   -0.8654   -1.8285 C   0  0  0  0  0  0  0  0  0  0  0  0
    0.8380    0.3886   -2.3318 C   0  0  0  0  0  0  0  0  0  0  0  0
   -0.0837    1.4325   -2.3849 C   0  0  0  0  0  0  0  0  0  0  0  0
   -1.3829    1.2072   -1.9284 C   0  0  0  0  0  0  0  0  0  0  0  0
   -1.7452   -0.0443   -1.4244 C   0  0  0  0  0  0  0  0  0  0  0  0
   -1.0846   -2.0493   -0.9807 H   0  0  0  0  0  0  0  0  0  0  0  0
    1.2450   -1.6495   -1.7966 H   0  0  0  0  0  0  0  0  0  0  0  0
    0.2231    2.3955   -2.7767 H   0  0  0  0  0  0  0  0  0  0  0  0
   -2.1111    2.0120   -1.9660 H   0  0  0  0  0  0  0  0  0  0  0  0
   13.7941    5.7231   -8.0622 N   0  0  0  0  0  0  0  0  0  0  0  0
   12.8248    5.2440   -7.8326 N   0  0  0  0  0  0  0  0  0  0  0  0
    4.8994    2.4176   -3.5970 C   0  0  0  0  0  0  0  0  0  0  0  0
    5.9600    2.4756   -4.4983 C   0  0  0  0  0  0  0  0  0  0  0  0
    6.7558    1.3500   -4.7561 C   0  0  0  0  0  0  0  0  0  0  0  0
    6.4709    0.1561   -4.0756 C   0  0  0  0  0  0  0  0  0  0  0  0
    5.4166    0.0773   -3.1700 C   0  0  0  0  0  0  0  0  0  0  0  0
    4.6360    1.2126   -2.9455 C   0  0  0  0  0  0  0  0  0  0  0  0
    4.2918    3.2907   -3.3867 H   0  0  0  0  0  0  0  0  0  0  0  0
    6.1773    3.4114   -5.0054 H   0  0  0  0  0  0  0  0  0  0  0  0
    7.0870   -0.7213   -4.2534 H   0  0  0  0  0  0  0  0  0  0  0  0
    5.2064   -0.8409   -2.6327 H   0  0  0  0  0  0  0  0  0  0  0  0
    3.2907    1.1287   -1.7834 S   0  0  0  0  0  0  0  0  0  0  0  0
    3.5392    0.0705   -0.8071 O   0  0  0  0  0  0  0  0  0  0  0  0
    2.1261    0.5878   -2.8571 O   0  0  0  0  0  0  0  0  0  0  0  0
    2.9250    2.4740   -1.3466 O   0  0  0  0  0  0  0  0  0  0  0  0
    7.8828    1.4145   -5.7578 C   0  0  0  0  0  0  0  0  0  0  0  0
    8.2594    2.4343   -5.8732 H   0  0  0  0  0  0  0  0  0  0  0  0
    8.7177    0.7721   -5.4632 H   0  0  0  0  0  0  0  0  0  0  0  0
    7.5456    1.0762   -6.7455 H   0  0  0  0  0  0  0  0  0  0  0  0
   -2.7571   -0.2140   -1.0693 H   0  0  0  0  0  0  0  0  0  0  0  0
  1  7  1  0  0  0  0
  2  8  1  0  0  0  0
  2  1  2  0  0  0  0
  3  2  1  0  0  0  0
  4  3  2  0  0  0  0
  4  5  1  0  0  0  0
  5  6  2  0  0  0  0
  6  1  1  0  0  0  0
  6 31  1  0  0  0  0
  9  4  1  0  0  0  0
 10  5  1  0  0  0  0
 11 12  3  0  0  0  0
 13 19  1  0  0  0  0
 13 18  2  0  0  0  0
 14 13  1  0  0  0  0
 15 14  2  0  0  0  0
 15 16  1  0  0  0  0
 16 17  2  0  0  0  0
 17 18  1  0  0  0  0
 17 22  1  0  0  0  0
 18 23  1  0  0  0  0
 20 14  1  0  0  0  0
 21 16  1  0  0  0  0
 23 26  2  0  0  0  0
 23 24  2  0  0  0  0
 25  3  1  0  0  0  0
 25 23  1  0  0  0  0
 27 29  1  0  0  0  0
 27 15  1  0  0  0  0
 28 27  1  0  0  0  0
 30 27  1  0  0  0  0
M  END
