Coordinates from ORCA-job Ph-N2-OTs-B3LYPG-6-31G_dp-MTMO-d009-169-n800
 OpenBabel09051907503D

 31 31  0  0  0  0  0  0  0  0999 V2000
   -0.8884   -1.0967   -1.2906 C   0  0  0  0  0  0  0  0  0  0  0  0
    0.4118   -0.8923   -1.7542 C   0  0  0  0  0  0  0  0  0  0  0  0
    0.7506    0.3544   -2.2770 C   0  0  0  0  0  0  0  0  0  0  0  0
   -0.1711    1.3979   -2.3396 C   0  0  0  0  0  0  0  0  0  0  0  0
   -1.4678    1.1795   -1.8730 C   0  0  0  0  0  0  0  0  0  0  0  0
   -1.8279   -0.0647   -1.3496 C   0  0  0  0  0  0  0  0  0  0  0  0
   -1.1655   -2.0635   -0.8814 H   0  0  0  0  0  0  0  0  0  0  0  0
    1.1598   -1.6762   -1.7152 H   0  0  0  0  0  0  0  0  0  0  0  0
    0.1339    2.3551   -2.7466 H   0  0  0  0  0  0  0  0  0  0  0  0
   -2.1960    1.9839   -1.9181 H   0  0  0  0  0  0  0  0  0  0  0  0
   15.1100    6.4574   -8.5594 N   0  0  0  0  0  0  0  0  0  0  0  0
   14.1659    5.9260   -8.3405 N   0  0  0  0  0  0  0  0  0  0  0  0
    4.8044    2.3584   -3.5955 C   0  0  0  0  0  0  0  0  0  0  0  0
    5.8591    2.4023   -4.5046 C   0  0  0  0  0  0  0  0  0  0  0  0
    6.6540    1.2733   -4.7492 C   0  0  0  0  0  0  0  0  0  0  0  0
    6.3746    0.0904   -4.0473 C   0  0  0  0  0  0  0  0  0  0  0  0
    5.3263    0.0256   -3.1338 C   0  0  0  0  0  0  0  0  0  0  0  0
    4.5462    1.1640   -2.9228 C   0  0  0  0  0  0  0  0  0  0  0  0
    4.1976    3.2345   -3.3956 H   0  0  0  0  0  0  0  0  0  0  0  0
    6.0722    3.3298   -5.0284 H   0  0  0  0  0  0  0  0  0  0  0  0
    6.9903   -0.7894   -4.2147 H   0  0  0  0  0  0  0  0  0  0  0  0
    5.1200   -0.8839   -2.5803 H   0  0  0  0  0  0  0  0  0  0  0  0
    3.2076    1.0975   -1.7519 S   0  0  0  0  0  0  0  0  0  0  0  0
    3.4596    0.0512   -0.7638 O   0  0  0  0  0  0  0  0  0  0  0  0
    2.0358    0.5458   -2.8122 O   0  0  0  0  0  0  0  0  0  0  0  0
    2.8470    2.4491   -1.3299 O   0  0  0  0  0  0  0  0  0  0  0  0
    7.7746    1.3214   -5.7590 C   0  0  0  0  0  0  0  0  0  0  0  0
    8.1336    2.3424   -5.9120 H   0  0  0  0  0  0  0  0  0  0  0  0
    8.6216    0.7035   -5.4468 H   0  0  0  0  0  0  0  0  0  0  0  0
    7.4380    0.9430   -6.7321 H   0  0  0  0  0  0  0  0  0  0  0  0
   -2.8379   -0.2290   -0.9868 H   0  0  0  0  0  0  0  0  0  0  0  0
  1  7  1  0  0  0  0
  2  8  1  0  0  0  0
  2  1  2  0  0  0  0
  3  2  1  0  0  0  0
  4  3  2  0  0  0  0
  4  5  1  0  0  0  0
  5  6  2  0  0  0  0
  6  1  1  0  0  0  0
  6 31  1  0  0  0  0
  9  4  1  0  0  0  0
 10  5  1  0  0  0  0
 11 12  3  0  0  0  0
 13 19  1  0  0  0  0
 13 18  2  0  0  0  0
 14 13  1  0  0  0  0
 15 14  2  0  0  0  0
 15 16  1  0  0  0  0
 16 17  2  0  0  0  0
 17 18  1  0  0  0  0
 17 22  1  0  0  0  0
 18 23  1  0  0  0  0
 20 14  1  0  0  0  0
 21 16  1  0  0  0  0
 23 26  2  0  0  0  0
 23 24  2  0  0  0  0
 25  3  1  0  0  0  0
 25 23  1  0  0  0  0
 27 29  1  0  0  0  0
 27 15  1  0  0  0  0
 28 27  1  0  0  0  0
 30 27  1  0  0  0  0
M  END
