Coordinates from ORCA-job Ph-N2-OTs-B3LYPG-6-31G_dp-MTMO-d009-169-n800
 OpenBabel09051907503D

 31 31  0  0  0  0  0  0  0  0999 V2000
   -0.7356   -1.0580   -1.4106 C   0  0  0  0  0  0  0  0  0  0  0  0
    0.5662   -0.8413   -1.8640 C   0  0  0  0  0  0  0  0  0  0  0  0
    0.9029    0.4150   -2.3646 C   0  0  0  0  0  0  0  0  0  0  0  0
   -0.0223    1.4560   -2.4150 C   0  0  0  0  0  0  0  0  0  0  0  0
   -1.3206    1.2252   -1.9587 C   0  0  0  0  0  0  0  0  0  0  0  0
   -1.6786   -0.0286   -1.4575 C   0  0  0  0  0  0  0  0  0  0  0  0
   -1.0112   -2.0324   -1.0185 H   0  0  0  0  0  0  0  0  0  0  0  0
    1.3169   -1.6229   -1.8341 H   0  0  0  0  0  0  0  0  0  0  0  0
    0.2812    2.4209   -2.8048 H   0  0  0  0  0  0  0  0  0  0  0  0
   -2.0515    2.0277   -1.9943 H   0  0  0  0  0  0  0  0  0  0  0  0
   12.8585    5.2213   -7.6207 N   0  0  0  0  0  0  0  0  0  0  0  0
   11.8848    4.7552   -7.3835 N   0  0  0  0  0  0  0  0  0  0  0  0
    4.9622    2.4591   -3.6230 C   0  0  0  0  0  0  0  0  0  0  0  0
    6.0238    2.5210   -4.5229 C   0  0  0  0  0  0  0  0  0  0  0  0
    6.8206    1.3969   -4.7842 C   0  0  0  0  0  0  0  0  0  0  0  0
    6.5356    0.2003   -4.1085 C   0  0  0  0  0  0  0  0  0  0  0  0
    5.4805    0.1174   -3.2042 C   0  0  0  0  0  0  0  0  0  0  0  0
    4.6989    1.2515   -2.9762 C   0  0  0  0  0  0  0  0  0  0  0  0
    4.3539    3.3310   -3.4101 H   0  0  0  0  0  0  0  0  0  0  0  0
    6.2411    3.4589   -5.0263 H   0  0  0  0  0  0  0  0  0  0  0  0
    7.1524   -0.6761   -4.2890 H   0  0  0  0  0  0  0  0  0  0  0  0
    5.2705   -0.8029   -2.6704 H   0  0  0  0  0  0  0  0  0  0  0  0
    3.3532    1.1625   -1.8150 S   0  0  0  0  0  0  0  0  0  0  0  0
    3.6039    0.1037   -0.8399 O   0  0  0  0  0  0  0  0  0  0  0  0
    2.1903    0.6198   -2.8897 O   0  0  0  0  0  0  0  0  0  0  0  0
    2.9838    2.5064   -1.3767 O   0  0  0  0  0  0  0  0  0  0  0  0
    7.9484    1.4657   -5.7847 C   0  0  0  0  0  0  0  0  0  0  0  0
    8.3313    2.4844   -5.8893 H   0  0  0  0  0  0  0  0  0  0  0  0
    8.7793    0.8152   -5.4969 H   0  0  0  0  0  0  0  0  0  0  0  0
    7.6094    1.1402   -6.7761 H   0  0  0  0  0  0  0  0  0  0  0  0
   -2.6899   -0.2025   -1.1025 H   0  0  0  0  0  0  0  0  0  0  0  0
  1  7  1  0  0  0  0
  2  8  1  0  0  0  0
  2  1  2  0  0  0  0
  3  2  1  0  0  0  0
  4  3  2  0  0  0  0
  4  5  1  0  0  0  0
  5  6  2  0  0  0  0
  6  1  1  0  0  0  0
  6 31  1  0  0  0  0
  9  4  1  0  0  0  0
 10  5  1  0  0  0  0
 11 12  3  0  0  0  0
 13 19  1  0  0  0  0
 13 18  2  0  0  0  0
 14 13  1  0  0  0  0
 15 14  2  0  0  0  0
 15 16  1  0  0  0  0
 16 17  2  0  0  0  0
 17 18  1  0  0  0  0
 17 22  1  0  0  0  0
 18 23  1  0  0  0  0
 20 14  1  0  0  0  0
 21 16  1  0  0  0  0
 23 26  2  0  0  0  0
 23 24  2  0  0  0  0
 25  3  1  0  0  0  0
 25 23  1  0  0  0  0
 27 29  1  0  0  0  0
 27 15  1  0  0  0  0
 28 27  1  0  0  0  0
 30 27  1  0  0  0  0
M  END
