Coordinates from ORCA-job Ph-N2-OTs-B3LYPG-6-31G_dp-MTMO-d009-169-n800
 OpenBabel09051907493D

 31 30  0  0  0  0  0  0  0  0999 V2000
    0.1211    0.1926   -1.5447 C   0  0  0  0  0  0  0  0  0  0  0  0
    0.7274    1.2413   -2.2747 C   0  0  0  0  0  0  0  0  0  0  0  0
   -0.0146    2.2472   -2.4674 C   0  0  0  0  0  0  0  0  0  0  0  0
   -1.2856    2.6479   -2.1768 C   0  0  0  0  0  0  0  0  0  0  0  0
   -1.8943    1.5999   -1.4471 C   0  0  0  0  0  0  0  0  0  0  0  0
   -1.2077    0.4111   -1.1433 C   0  0  0  0  0  0  0  0  0  0  0  0
    0.6369   -0.7319   -1.3025 H   0  0  0  0  0  0  0  0  0  0  0  0
    2.4953    0.9541   -2.8520 H   0  0  0  0  0  0  0  0  0  0  0  0
   -1.7724    3.5791   -2.4334 H   0  0  0  0  0  0  0  0  0  0  0  0
   -2.9211    1.7319   -1.1172 H   0  0  0  0  0  0  0  0  0  0  0  0
    0.8838    4.2426   -3.6803 N   0  0  0  0  0  0  0  0  0  0  0  0
    1.7434    4.8177   -4.0701 N   0  0  0  0  0  0  0  0  0  0  0  0
    6.7383    1.3788   -3.1279 C   0  0  0  0  0  0  0  0  0  0  0  0
    7.9888    0.8108   -3.3629 C   0  0  0  0  0  0  0  0  0  0  0  0
    8.2621    0.1267   -4.5560 C   0  0  0  0  0  0  0  0  0  0  0  0
    7.2454    0.0229   -5.5174 C   0  0  0  0  0  0  0  0  0  0  0  0
    5.9894    0.5841   -5.3010 C   0  0  0  0  0  0  0  0  0  0  0  0
    5.7474    1.2548   -4.1014 C   0  0  0  0  0  0  0  0  0  0  0  0
    6.5292    1.9182   -2.2108 H   0  0  0  0  0  0  0  0  0  0  0  0
    8.7662    0.9034   -2.6089 H   0  0  0  0  0  0  0  0  0  0  0  0
    7.4416   -0.5016   -6.4488 H   0  0  0  0  0  0  0  0  0  0  0  0
    5.2062    0.5153   -6.0482 H   0  0  0  0  0  0  0  0  0  0  0  0
    4.1445    1.9781   -3.8134 S   0  0  0  0  0  0  0  0  0  0  0  0
    3.4314    0.7019   -3.1057 O   0  0  0  0  0  0  0  0  0  0  0  0
    3.4906    2.2405   -5.0974 O   0  0  0  0  0  0  0  0  0  0  0  0
    4.2665    3.0611   -2.8348 O   0  0  0  0  0  0  0  0  0  0  0  0
    9.6296   -0.4579   -4.8168 C   0  0  0  0  0  0  0  0  0  0  0  0
   10.2514    0.2421   -5.3893 H   0  0  0  0  0  0  0  0  0  0  0  0
   10.1568   -0.6758   -3.8840 H   0  0  0  0  0  0  0  0  0  0  0  0
    9.5655   -1.3836   -5.3966 H   0  0  0  0  0  0  0  0  0  0  0  0
   -1.7236   -0.3627   -0.5809 H   0  0  0  0  0  0  0  0  0  0  0  0
  1  7  1  0  0  0  0
  1  6  2  0  0  0  0
  2  1  1  0  0  0  0
  3  2  2  0  0  0  0
  3  4  1  0  0  0  0
  4  5  2  0  0  0  0
  5  6  1  0  0  0  0
  5 10  1  0  0  0  0
  6 31  1  0  0  0  0
  9  4  1  0  0  0  0
 12 11  3  0  0  0  0
 13 19  1  0  0  0  0
 14 13  1  0  0  0  0
 14 20  1  0  0  0  0
 15 14  2  0  0  0  0
 16 17  2  0  0  0  0
 16 15  1  0  0  0  0
 17 18  1  0  0  0  0
 18 23  1  0  0  0  0
 18 13  2  0  0  0  0
 21 16  1  0  0  0  0
 22 17  1  0  0  0  0
 23 24  1  0  0  0  0
 23 26  2  0  0  0  0
 24  8  1  0  0  0  0
 25 23  2  0  0  0  0
 27 15  1  0  0  0  0
 27 29  1  0  0  0  0
 28 27  1  0  0  0  0
 30 27  1  0  0  0  0
M  RAD  2   2   2   3   2
M  END
