Coordinates from ORCA-job Ph-N2-OTs-B3LYPG-6-31G_dp-MTMO-d009-169-n800
 OpenBabel09051907493D

 31 30  0  0  0  0  0  0  0  0999 V2000
    0.0793    0.1496   -1.5154 C   0  0  0  0  0  0  0  0  0  0  0  0
    0.7090    1.1805   -2.2475 C   0  0  0  0  0  0  0  0  0  0  0  0
    0.0022    2.2049   -2.4574 C   0  0  0  0  0  0  0  0  0  0  0  0
   -1.2598    2.6419   -2.1789 C   0  0  0  0  0  0  0  0  0  0  0  0
   -1.8989    1.6138   -1.4453 C   0  0  0  0  0  0  0  0  0  0  0  0
   -1.2466    0.4094   -1.1267 C   0  0  0  0  0  0  0  0  0  0  0  0
    0.5691   -0.7857   -1.2621 H   0  0  0  0  0  0  0  0  0  0  0  0
    2.5007    0.9020   -2.8393 H   0  0  0  0  0  0  0  0  0  0  0  0
   -1.7225    3.5826   -2.4449 H   0  0  0  0  0  0  0  0  0  0  0  0
   -2.9242    1.7747   -1.1235 H   0  0  0  0  0  0  0  0  0  0  0  0
    0.9608    4.3297   -3.7433 N   0  0  0  0  0  0  0  0  0  0  0  0
    1.8121    4.9155   -4.1349 N   0  0  0  0  0  0  0  0  0  0  0  0
    6.7349    1.3731   -3.1256 C   0  0  0  0  0  0  0  0  0  0  0  0
    7.9905    0.8189   -3.3664 C   0  0  0  0  0  0  0  0  0  0  0  0
    8.2670    0.1413   -4.5626 C   0  0  0  0  0  0  0  0  0  0  0  0
    7.2483    0.0298   -5.5210 C   0  0  0  0  0  0  0  0  0  0  0  0
    5.9872    0.5772   -5.2989 C   0  0  0  0  0  0  0  0  0  0  0  0
    5.7423    1.2418   -4.0965 C   0  0  0  0  0  0  0  0  0  0  0  0
    6.5232    1.9075   -2.2062 H   0  0  0  0  0  0  0  0  0  0  0  0
    8.7694    0.9174   -2.6147 H   0  0  0  0  0  0  0  0  0  0  0  0
    7.4469   -0.4899   -6.4546 H   0  0  0  0  0  0  0  0  0  0  0  0
    5.2024    0.5024   -6.0438 H   0  0  0  0  0  0  0  0  0  0  0  0
    4.1333    1.9479   -3.8012 S   0  0  0  0  0  0  0  0  0  0  0  0
    3.4348    0.6589   -3.0979 O   0  0  0  0  0  0  0  0  0  0  0  0
    3.4730    2.2092   -5.0818 O   0  0  0  0  0  0  0  0  0  0  0  0
    4.2458    3.0259   -2.8164 O   0  0  0  0  0  0  0  0  0  0  0  0
    9.6396   -0.4281   -4.8296 C   0  0  0  0  0  0  0  0  0  0  0  0
   10.2511    0.2788   -5.4047 H   0  0  0  0  0  0  0  0  0  0  0  0
   10.1733   -0.6405   -3.8992 H   0  0  0  0  0  0  0  0  0  0  0  0
    9.5831   -1.3543   -5.4094 H   0  0  0  0  0  0  0  0  0  0  0  0
   -1.7878   -0.3452   -0.5620 H   0  0  0  0  0  0  0  0  0  0  0  0
  1  7  1  0  0  0  0
  1  6  2  0  0  0  0
  2  1  1  0  0  0  0
  3  2  2  0  0  0  0
  3  4  1  0  0  0  0
  4  5  2  0  0  0  0
  5  6  1  0  0  0  0
  5 10  1  0  0  0  0
  6 31  1  0  0  0  0
  9  4  1  0  0  0  0
 12 11  3  0  0  0  0
 13 19  1  0  0  0  0
 14 13  1  0  0  0  0
 14 20  1  0  0  0  0
 15 14  2  0  0  0  0
 16 17  2  0  0  0  0
 16 15  1  0  0  0  0
 17 18  1  0  0  0  0
 18 23  1  0  0  0  0
 18 13  2  0  0  0  0
 21 16  1  0  0  0  0
 22 17  1  0  0  0  0
 23 24  1  0  0  0  0
 23 26  2  0  0  0  0
 24  8  1  0  0  0  0
 25 23  2  0  0  0  0
 27 15  1  0  0  0  0
 27 29  1  0  0  0  0
 28 27  1  0  0  0  0
 30 27  1  0  0  0  0
M  RAD  2   2   2   3   2
M  END
