Coordinates from ORCA-job Ph-N2-OTs-B3LYPG-6-31G_dp-MTMO-d009-169-n800
 OpenBabel09051907503D

 31 31  0  0  0  0  0  0  0  0999 V2000
   -0.7784   -1.0689   -1.3890 C   0  0  0  0  0  0  0  0  0  0  0  0
    0.5240   -0.8558   -1.8424 C   0  0  0  0  0  0  0  0  0  0  0  0
    0.8637    0.3991   -2.3446 C   0  0  0  0  0  0  0  0  0  0  0  0
   -0.0591    1.4421   -2.3968 C   0  0  0  0  0  0  0  0  0  0  0  0
   -1.3580    1.2149   -1.9405 C   0  0  0  0  0  0  0  0  0  0  0  0
   -1.7191   -0.0374   -1.4377 C   0  0  0  0  0  0  0  0  0  0  0  0
   -1.0563   -2.0421   -0.9957 H   0  0  0  0  0  0  0  0  0  0  0  0
    1.2729   -1.6391   -1.8112 H   0  0  0  0  0  0  0  0  0  0  0  0
    0.2467    2.4057   -2.7878 H   0  0  0  0  0  0  0  0  0  0  0  0
   -2.0871    2.0189   -1.9774 H   0  0  0  0  0  0  0  0  0  0  0  0
   13.4265    5.5258   -7.8877 N   0  0  0  0  0  0  0  0  0  0  0  0
   12.4545    5.0539   -7.6550 N   0  0  0  0  0  0  0  0  0  0  0  0
    4.9236    2.4332   -3.6077 C   0  0  0  0  0  0  0  0  0  0  0  0
    5.9844    2.4928   -4.5086 C   0  0  0  0  0  0  0  0  0  0  0  0
    6.7811    1.3681   -4.7674 C   0  0  0  0  0  0  0  0  0  0  0  0
    6.4969    0.1734   -4.0881 C   0  0  0  0  0  0  0  0  0  0  0  0
    5.4425    0.0929   -3.1827 C   0  0  0  0  0  0  0  0  0  0  0  0
    4.6610    1.2274   -2.9573 C   0  0  0  0  0  0  0  0  0  0  0  0
    4.3153    3.3056   -3.3967 H   0  0  0  0  0  0  0  0  0  0  0  0
    6.2011    3.4293   -5.0149 H   0  0  0  0  0  0  0  0  0  0  0  0
    7.1138   -0.7034   -4.2665 H   0  0  0  0  0  0  0  0  0  0  0  0
    5.2330   -0.8260   -2.6462 H   0  0  0  0  0  0  0  0  0  0  0  0
    3.3156    1.1413   -1.7955 S   0  0  0  0  0  0  0  0  0  0  0  0
    3.5650    0.0827   -0.8199 O   0  0  0  0  0  0  0  0  0  0  0  0
    2.1516    0.6001   -2.8697 O   0  0  0  0  0  0  0  0  0  0  0  0
    2.9485    2.4861   -1.3578 O   0  0  0  0  0  0  0  0  0  0  0  0
    7.9081    1.4344   -5.7689 C   0  0  0  0  0  0  0  0  0  0  0  0
    8.2872    2.4538   -5.8796 H   0  0  0  0  0  0  0  0  0  0  0  0
    8.7415    0.7886   -5.4775 H   0  0  0  0  0  0  0  0  0  0  0  0
    7.5699    1.1018   -6.7581 H   0  0  0  0  0  0  0  0  0  0  0  0
   -2.7308   -0.2085   -1.0827 H   0  0  0  0  0  0  0  0  0  0  0  0
  1  7  1  0  0  0  0
  2  8  1  0  0  0  0
  2  1  2  0  0  0  0
  3  2  1  0  0  0  0
  4  3  2  0  0  0  0
  4  5  1  0  0  0  0
  5  6  2  0  0  0  0
  6  1  1  0  0  0  0
  6 31  1  0  0  0  0
  9  4  1  0  0  0  0
 10  5  1  0  0  0  0
 11 12  3  0  0  0  0
 13 19  1  0  0  0  0
 13 18  2  0  0  0  0
 14 13  1  0  0  0  0
 15 14  2  0  0  0  0
 15 16  1  0  0  0  0
 16 17  2  0  0  0  0
 17 18  1  0  0  0  0
 17 22  1  0  0  0  0
 18 23  1  0  0  0  0
 20 14  1  0  0  0  0
 21 16  1  0  0  0  0
 23 26  2  0  0  0  0
 23 24  2  0  0  0  0
 25  3  1  0  0  0  0
 25 23  1  0  0  0  0
 27 29  1  0  0  0  0
 27 15  1  0  0  0  0
 28 27  1  0  0  0  0
 30 27  1  0  0  0  0
M  END
