Coordinates from ORCA-job Ph-N2-OTs-B3LYPG-6-31G_dp-MTMO-d009-169-n800
 OpenBabel09051907503D

 31 31  0  0  0  0  0  0  0  0999 V2000
   -0.7408   -1.0602   -1.4073 C   0  0  0  0  0  0  0  0  0  0  0  0
    0.5609   -0.8436   -1.8609 C   0  0  0  0  0  0  0  0  0  0  0  0
    0.8976    0.4127   -2.3617 C   0  0  0  0  0  0  0  0  0  0  0  0
   -0.0276    1.4536   -2.4122 C   0  0  0  0  0  0  0  0  0  0  0  0
   -1.3258    1.2230   -1.9558 C   0  0  0  0  0  0  0  0  0  0  0  0
   -1.6838   -0.0307   -1.4543 C   0  0  0  0  0  0  0  0  0  0  0  0
   -1.0164   -2.0344   -1.0150 H   0  0  0  0  0  0  0  0  0  0  0  0
    1.3116   -1.6252   -1.8309 H   0  0  0  0  0  0  0  0  0  0  0  0
    0.2759    2.4184   -2.8023 H   0  0  0  0  0  0  0  0  0  0  0  0
   -2.0567    2.0254   -1.9914 H   0  0  0  0  0  0  0  0  0  0  0  0
   12.9381    5.2573   -7.6548 N   0  0  0  0  0  0  0  0  0  0  0  0
   11.9638    4.7924   -7.4175 N   0  0  0  0  0  0  0  0  0  0  0  0
    4.9562    2.4562   -3.6218 C   0  0  0  0  0  0  0  0  0  0  0  0
    6.0175    2.5180   -4.5219 C   0  0  0  0  0  0  0  0  0  0  0  0
    6.8148    1.3940   -4.7826 C   0  0  0  0  0  0  0  0  0  0  0  0
    6.5305    0.1978   -4.1059 C   0  0  0  0  0  0  0  0  0  0  0  0
    5.4756    0.1151   -3.2013 C   0  0  0  0  0  0  0  0  0  0  0  0
    4.6936    1.2489   -2.9740 C   0  0  0  0  0  0  0  0  0  0  0  0
    4.3475    3.3279   -3.4093 H   0  0  0  0  0  0  0  0  0  0  0  0
    6.2343    3.4555   -5.0260 H   0  0  0  0  0  0  0  0  0  0  0  0
    7.1476   -0.6784   -4.2858 H   0  0  0  0  0  0  0  0  0  0  0  0
    5.2660   -0.8050   -2.6669 H   0  0  0  0  0  0  0  0  0  0  0  0
    3.3480    1.1601   -1.8126 S   0  0  0  0  0  0  0  0  0  0  0  0
    3.5989    0.1015   -0.8374 O   0  0  0  0  0  0  0  0  0  0  0  0
    2.1849    0.6172   -2.8870 O   0  0  0  0  0  0  0  0  0  0  0  0
    2.9786    2.5041   -1.3744 O   0  0  0  0  0  0  0  0  0  0  0  0
    7.9423    1.4627   -5.7834 C   0  0  0  0  0  0  0  0  0  0  0  0
    8.3258    2.4812   -5.8874 H   0  0  0  0  0  0  0  0  0  0  0  0
    8.7728    0.8114   -5.4963 H   0  0  0  0  0  0  0  0  0  0  0  0
    7.6027    1.1381   -6.7749 H   0  0  0  0  0  0  0  0  0  0  0  0
   -2.6950   -0.2045   -1.0991 H   0  0  0  0  0  0  0  0  0  0  0  0
  1  7  1  0  0  0  0
  2  8  1  0  0  0  0
  2  1  2  0  0  0  0
  3  2  1  0  0  0  0
  4  3  2  0  0  0  0
  4  5  1  0  0  0  0
  5  6  2  0  0  0  0
  6  1  1  0  0  0  0
  6 31  1  0  0  0  0
  9  4  1  0  0  0  0
 10  5  1  0  0  0  0
 11 12  3  0  0  0  0
 13 19  1  0  0  0  0
 13 18  2  0  0  0  0
 14 13  1  0  0  0  0
 15 14  2  0  0  0  0
 15 16  1  0  0  0  0
 16 17  2  0  0  0  0
 17 18  1  0  0  0  0
 17 22  1  0  0  0  0
 18 23  1  0  0  0  0
 20 14  1  0  0  0  0
 21 16  1  0  0  0  0
 23 26  2  0  0  0  0
 23 24  2  0  0  0  0
 25  3  1  0  0  0  0
 25 23  1  0  0  0  0
 27 29  1  0  0  0  0
 27 15  1  0  0  0  0
 28 27  1  0  0  0  0
 30 27  1  0  0  0  0
M  END
