Coordinates from ORCA-job Ph-N2-OTs-B3LYPG-6-31G_dp-MTMO-d009-169-n800
 OpenBabel09051907503D

 31 31  0  0  0  0  0  0  0  0999 V2000
   -0.7365   -0.6700   -1.6731 C   0  0  0  0  0  0  0  0  0  0  0  0
    0.6011   -0.5991   -2.0645 C   0  0  0  0  0  0  0  0  0  0  0  0
    1.1051    0.6201   -2.5148 C   0  0  0  0  0  0  0  0  0  0  0  0
    0.3106    1.7633   -2.5767 C   0  0  0  0  0  0  0  0  0  0  0  0
   -1.0260    1.6772   -2.1856 C   0  0  0  0  0  0  0  0  0  0  0  0
   -1.5504    0.4637   -1.7338 C   0  0  0  0  0  0  0  0  0  0  0  0
   -1.1414   -1.6135   -1.3196 H   0  0  0  0  0  0  0  0  0  0  0  0
    1.2532   -1.4639   -2.0226 H   0  0  0  0  0  0  0  0  0  0  0  0
    0.7429    2.6938   -2.9268 H   0  0  0  0  0  0  0  0  0  0  0  0
   -1.6560    2.5605   -2.2321 H   0  0  0  0  0  0  0  0  0  0  0  0
    8.5811    5.9465   -7.3860 N   0  0  0  0  0  0  0  0  0  0  0  0
    8.2574    5.0863   -6.7724 N   0  0  0  0  0  0  0  0  0  0  0  0
    5.4394    2.2223   -3.4205 C   0  0  0  0  0  0  0  0  0  0  0  0
    6.5317    2.2518   -4.2855 C   0  0  0  0  0  0  0  0  0  0  0  0
    7.1883    1.0723   -4.6641 C   0  0  0  0  0  0  0  0  0  0  0  0
    6.7234   -0.1497   -4.1533 C   0  0  0  0  0  0  0  0  0  0  0  0
    5.6357   -0.2008   -3.2867 C   0  0  0  0  0  0  0  0  0  0  0  0
    5.0008    0.9915   -2.9329 C   0  0  0  0  0  0  0  0  0  0  0  0
    4.9376    3.1345   -3.1178 H   0  0  0  0  0  0  0  0  0  0  0  0
    6.8818    3.2045   -4.6722 H   0  0  0  0  0  0  0  0  0  0  0  0
    7.2229   -1.0723   -4.4361 H   0  0  0  0  0  0  0  0  0  0  0  0
    5.2852   -1.1432   -2.8810 H   0  0  0  0  0  0  0  0  0  0  0  0
    3.6117    0.9407   -1.8219 S   0  0  0  0  0  0  0  0  0  0  0  0
    3.6889   -0.2533   -0.9829 O   0  0  0  0  0  0  0  0  0  0  0  0
    2.4293    0.6919   -2.9795 O   0  0  0  0  0  0  0  0  0  0  0  0
    3.4006    2.2573   -1.2247 O   0  0  0  0  0  0  0  0  0  0  0  0
    8.3877    1.1134   -5.5787 C   0  0  0  0  0  0  0  0  0  0  0  0
    8.4315    2.0494   -6.1414 H   0  0  0  0  0  0  0  0  0  0  0  0
    9.3185    1.0301   -5.0043 H   0  0  0  0  0  0  0  0  0  0  0  0
    8.3738    0.2833   -6.2921 H   0  0  0  0  0  0  0  0  0  0  0  0
   -2.5903    0.4022   -1.4279 H   0  0  0  0  0  0  0  0  0  0  0  0
  1  7  1  0  0  0  0
  2  8  1  0  0  0  0
  2  1  2  0  0  0  0
  3  2  1  0  0  0  0
  4  3  2  0  0  0  0
  4  5  1  0  0  0  0
  5  6  2  0  0  0  0
  6  1  1  0  0  0  0
  6 31  1  0  0  0  0
  9  4  1  0  0  0  0
 10  5  1  0  0  0  0
 11 12  3  0  0  0  0
 13 19  1  0  0  0  0
 13 18  2  0  0  0  0
 14 13  1  0  0  0  0
 15 14  2  0  0  0  0
 15 16  1  0  0  0  0
 16 17  2  0  0  0  0
 17 18  1  0  0  0  0
 17 22  1  0  0  0  0
 18 23  1  0  0  0  0
 20 14  1  0  0  0  0
 21 16  1  0  0  0  0
 23 26  2  0  0  0  0
 23 24  2  0  0  0  0
 25  3  1  0  0  0  0
 25 23  1  0  0  0  0
 27 29  1  0  0  0  0
 27 15  1  0  0  0  0
 28 27  1  0  0  0  0
 30 27  1  0  0  0  0
M  END
