Coordinates from ORCA-job Ph-N2-OTs-B3LYPG-6-31G_dp-MTMO-d009-169-n800
 OpenBabel09051907503D

 31 31  0  0  0  0  0  0  0  0999 V2000
   -0.4026    0.0443   -1.1804 C   0  0  0  0  0  0  0  0  0  0  0  0
    0.9305   -0.0346   -1.5860 C   0  0  0  0  0  0  0  0  0  0  0  0
    1.3500    0.7447   -2.6632 C   0  0  0  0  0  0  0  0  0  0  0  0
    0.4753    1.5935   -3.3380 C   0  0  0  0  0  0  0  0  0  0  0  0
   -0.8565    1.6555   -2.9269 C   0  0  0  0  0  0  0  0  0  0  0  0
   -1.2962    0.8845   -1.8484 C   0  0  0  0  0  0  0  0  0  0  0  0
   -0.7421   -0.5539   -0.3400 H   0  0  0  0  0  0  0  0  0  0  0  0
    1.6416   -0.6780   -1.0814 H   0  0  0  0  0  0  0  0  0  0  0  0
    0.8435    2.1851   -4.1691 H   0  0  0  0  0  0  0  0  0  0  0  0
   -1.5486    2.3105   -3.4477 H   0  0  0  0  0  0  0  0  0  0  0  0
    5.2768    6.4263   -2.5488 N   0  0  0  0  0  0  0  0  0  0  0  0
    5.2541    5.6621   -3.3467 N   0  0  0  0  0  0  0  0  0  0  0  0
    5.6349    2.0262   -4.2661 C   0  0  0  0  0  0  0  0  0  0  0  0
    6.7117    1.7274   -5.0962 C   0  0  0  0  0  0  0  0  0  0  0  0
    7.3702    0.4903   -5.0168 C   0  0  0  0  0  0  0  0  0  0  0  0
    6.9242   -0.4475   -4.0747 C   0  0  0  0  0  0  0  0  0  0  0  0
    5.8516   -0.1675   -3.2307 C   0  0  0  0  0  0  0  0  0  0  0  0
    5.2138    1.0682   -3.3417 C   0  0  0  0  0  0  0  0  0  0  0  0
    5.1349    2.9866   -4.3175 H   0  0  0  0  0  0  0  0  0  0  0  0
    7.0488    2.4686   -5.8161 H   0  0  0  0  0  0  0  0  0  0  0  0
    7.4258   -1.4082   -3.9984 H   0  0  0  0  0  0  0  0  0  0  0  0
    5.5186   -0.8890   -2.4925 H   0  0  0  0  0  0  0  0  0  0  0  0
    3.8487    1.4427   -2.2634 S   0  0  0  0  0  0  0  0  0  0  0  0
    4.0203    0.7529   -0.9861 O   0  0  0  0  0  0  0  0  0  0  0  0
    2.6694    0.6375   -3.1352 O   0  0  0  0  0  0  0  0  0  0  0  0
    3.5590    2.8744   -2.3006 O   0  0  0  0  0  0  0  0  0  0  0  0
    8.5454    0.1909   -5.9156 C   0  0  0  0  0  0  0  0  0  0  0  0
    8.3153    0.4240   -6.9608 H   0  0  0  0  0  0  0  0  0  0  0  0
    9.4168    0.7943   -5.6358 H   0  0  0  0  0  0  0  0  0  0  0  0
    8.8370   -0.8608   -5.8586 H   0  0  0  0  0  0  0  0  0  0  0  0
   -2.3324    0.9395   -1.5284 H   0  0  0  0  0  0  0  0  0  0  0  0
  1  7  1  0  0  0  0
  2  1  1  0  0  0  0
  2  8  1  0  0  0  0
  3  2  2  0  0  0  0
  4  5  2  0  0  0  0
  4  3  1  0  0  0  0
  5  6  1  0  0  0  0
  6 31  1  0  0  0  0
  6  1  2  0  0  0  0
  9  4  1  0  0  0  0
 10  5  1  0  0  0  0
 12 11  3  0  0  0  0
 13 18  2  0  0  0  0
 14 15  2  0  0  0  0
 14 13  1  0  0  0  0
 15 16  1  0  0  0  0
 16 21  1  0  0  0  0
 16 17  2  0  0  0  0
 17 22  1  0  0  0  0
 18 17  1  0  0  0  0
 18 23  1  0  0  0  0
 19 13  1  0  0  0  0
 20 14  1  0  0  0  0
 23 24  2  0  0  0  0
 25  3  1  0  0  0  0
 25 23  1  0  0  0  0
 26 23  2  0  0  0  0
 27 30  1  0  0  0  0
 27 29  1  0  0  0  0
 27 15  1  0  0  0  0
 28 27  1  0  0  0  0
M  END
