Coordinates from ORCA-job Ph-N2-OTs-B3LYPG-6-31G_dp-MTMO-d009-169-n800
 OpenBabel09051907493D

 31 30  0  0  0  0  0  0  0  0999 V2000
    0.2787    0.3764   -1.4885 C   0  0  0  0  0  0  0  0  0  0  0  0
    0.8057    1.3952   -2.3242 C   0  0  0  0  0  0  0  0  0  0  0  0
   -0.0782    2.2482   -2.6716 C   0  0  0  0  0  0  0  0  0  0  0  0
   -1.4120    2.4761   -2.4854 C   0  0  0  0  0  0  0  0  0  0  0  0
   -1.9182    1.4545   -1.6556 C   0  0  0  0  0  0  0  0  0  0  0  0
   -1.0863    0.4304   -1.1714 C   0  0  0  0  0  0  0  0  0  0  0  0
    0.9054   -0.4240   -1.1041 H   0  0  0  0  0  0  0  0  0  0  0  0
    2.5566    1.1951   -2.6650 H   0  0  0  0  0  0  0  0  0  0  0  0
   -2.0048    3.2888   -2.8844 H   0  0  0  0  0  0  0  0  0  0  0  0
   -2.9717    1.4741   -1.3912 H   0  0  0  0  0  0  0  0  0  0  0  0
    0.6083    3.9057   -3.8773 N   0  0  0  0  0  0  0  0  0  0  0  0
    1.4322    4.5585   -4.2220 N   0  0  0  0  0  0  0  0  0  0  0  0
    6.8926    1.3669   -3.0137 C   0  0  0  0  0  0  0  0  0  0  0  0
    8.0715    0.7129   -3.3667 C   0  0  0  0  0  0  0  0  0  0  0  0
    8.1996    0.0649   -4.6035 C   0  0  0  0  0  0  0  0  0  0  0  0
    7.1095    0.0858   -5.4869 C   0  0  0  0  0  0  0  0  0  0  0  0
    5.9229    0.7332   -5.1512 C   0  0  0  0  0  0  0  0  0  0  0  0
    5.8251    1.3658   -3.9113 C   0  0  0  0  0  0  0  0  0  0  0  0
    6.7974    1.8789   -2.0626 H   0  0  0  0  0  0  0  0  0  0  0  0
    8.9075    0.7083   -2.6718 H   0  0  0  0  0  0  0  0  0  0  0  0
    7.1925   -0.4086   -6.4512 H   0  0  0  0  0  0  0  0  0  0  0  0
    5.0840    0.7603   -5.8381 H   0  0  0  0  0  0  0  0  0  0  0  0
    4.3111    2.1975   -3.4680 S   0  0  0  0  0  0  0  0  0  0  0  0
    3.5370    0.9575   -2.7793 O   0  0  0  0  0  0  0  0  0  0  0  0
    3.5915    2.5812   -4.6885 O   0  0  0  0  0  0  0  0  0  0  0  0
    4.6044    3.2172   -2.4599 O   0  0  0  0  0  0  0  0  0  0  0  0
    9.4916   -0.6133   -4.9911 C   0  0  0  0  0  0  0  0  0  0  0  0
   10.1341    0.0666   -5.5653 H   0  0  0  0  0  0  0  0  0  0  0  0
   10.0569   -0.9313   -4.1105 H   0  0  0  0  0  0  0  0  0  0  0  0
    9.3101   -1.4929   -5.6159 H   0  0  0  0  0  0  0  0  0  0  0  0
   -1.5156   -0.3394   -0.5353 H   0  0  0  0  0  0  0  0  0  0  0  0
  1  6  1  0  0  0  0
  1  7  1  0  0  0  0
  2  1  2  0  0  0  0
  3  4  2  0  0  0  0
  3  2  1  0  0  0  0
  4  5  1  0  0  0  0
  5 10  1  0  0  0  0
  5  6  2  0  0  0  0
  6 31  1  0  0  0  0
  9  4  1  0  0  0  0
 12 11  3  0  0  0  0
 13 19  1  0  0  0  0
 14 13  1  0  0  0  0
 14 20  1  0  0  0  0
 15 14  2  0  0  0  0
 16 17  2  0  0  0  0
 16 15  1  0  0  0  0
 17 18  1  0  0  0  0
 18 23  1  0  0  0  0
 18 13  2  0  0  0  0
 21 16  1  0  0  0  0
 22 17  1  0  0  0  0
 23 24  1  0  0  0  0
 23 26  2  0  0  0  0
 24  8  1  0  0  0  0
 25 23  2  0  0  0  0
 27 15  1  0  0  0  0
 27 29  1  0  0  0  0
 28 27  1  0  0  0  0
 30 27  1  0  0  0  0
M  RAD  2   2   2   3   2
M  END
