Coordinates from ORCA-job Ph-N2-OTs-B3LYPG-6-31G_dp-MTMO-d009-169-n800
 OpenBabel09051907503D

 31 31  0  0  0  0  0  0  0  0999 V2000
   -0.6596   -0.9884   -1.4335 C   0  0  0  0  0  0  0  0  0  0  0  0
    0.6419   -0.7854   -1.8939 C   0  0  0  0  0  0  0  0  0  0  0  0
    0.9882    0.4660   -2.4000 C   0  0  0  0  0  0  0  0  0  0  0  0
    0.0728    1.5157   -2.4491 C   0  0  0  0  0  0  0  0  0  0  0  0
   -1.2253    1.2988   -1.9854 C   0  0  0  0  0  0  0  0  0  0  0  0
   -1.5929    0.0499   -1.4787 C   0  0  0  0  0  0  0  0  0  0  0  0
   -0.9425   -1.9589   -1.0372 H   0  0  0  0  0  0  0  0  0  0  0  0
    1.3853   -1.5741   -1.8653 H   0  0  0  0  0  0  0  0  0  0  0  0
    0.3835    2.4764   -2.8433 H   0  0  0  0  0  0  0  0  0  0  0  0
   -1.9486    2.1081   -2.0198 H   0  0  0  0  0  0  0  0  0  0  0  0
   11.4954    5.0976   -7.0123 N   0  0  0  0  0  0  0  0  0  0  0  0
   10.6389    4.4901   -6.6676 N   0  0  0  0  0  0  0  0  0  0  0  0
    5.0690    2.4518   -3.6981 C   0  0  0  0  0  0  0  0  0  0  0  0
    6.1308    2.4870   -4.5989 C   0  0  0  0  0  0  0  0  0  0  0  0
    6.9143    1.3492   -4.8427 C   0  0  0  0  0  0  0  0  0  0  0  0
    6.6152    0.1674   -4.1476 C   0  0  0  0  0  0  0  0  0  0  0  0
    5.5595    0.1114   -3.2416 C   0  0  0  0  0  0  0  0  0  0  0  0
    4.7914    1.2577   -3.0318 C   0  0  0  0  0  0  0  0  0  0  0  0
    4.4711    3.3342   -3.4989 H   0  0  0  0  0  0  0  0  0  0  0  0
    6.3592    3.4141   -5.1171 H   0  0  0  0  0  0  0  0  0  0  0  0
    7.2215   -0.7190   -4.3142 H   0  0  0  0  0  0  0  0  0  0  0  0
    5.3391   -0.7978   -2.6931 H   0  0  0  0  0  0  0  0  0  0  0  0
    3.4458    1.2033   -1.8683 S   0  0  0  0  0  0  0  0  0  0  0  0
    3.6852    0.1582   -0.8758 O   0  0  0  0  0  0  0  0  0  0  0  0
    2.2750    0.6560   -2.9323 O   0  0  0  0  0  0  0  0  0  0  0  0
    3.0923    2.5586   -1.4521 O   0  0  0  0  0  0  0  0  0  0  0  0
    8.0411    1.3891   -5.8457 C   0  0  0  0  0  0  0  0  0  0  0  0
    8.4790    2.3882   -5.9221 H   0  0  0  0  0  0  0  0  0  0  0  0
    8.8362    0.6859   -5.5822 H   0  0  0  0  0  0  0  0  0  0  0  0
    7.6810    1.1132   -6.8449 H   0  0  0  0  0  0  0  0  0  0  0  0
   -2.6040   -0.1132   -1.1183 H   0  0  0  0  0  0  0  0  0  0  0  0
  1  7  1  0  0  0  0
  2  8  1  0  0  0  0
  2  1  2  0  0  0  0
  3  2  1  0  0  0  0
  4  3  2  0  0  0  0
  4  5  1  0  0  0  0
  5  6  2  0  0  0  0
  6  1  1  0  0  0  0
  6 31  1  0  0  0  0
  9  4  1  0  0  0  0
 10  5  1  0  0  0  0
 11 12  3  0  0  0  0
 13 19  1  0  0  0  0
 13 18  2  0  0  0  0
 14 13  1  0  0  0  0
 15 14  2  0  0  0  0
 15 16  1  0  0  0  0
 16 17  2  0  0  0  0
 17 18  1  0  0  0  0
 17 22  1  0  0  0  0
 18 23  1  0  0  0  0
 20 14  1  0  0  0  0
 21 16  1  0  0  0  0
 23 26  2  0  0  0  0
 23 24  2  0  0  0  0
 25  3  1  0  0  0  0
 25 23  1  0  0  0  0
 27 29  1  0  0  0  0
 27 15  1  0  0  0  0
 28 27  1  0  0  0  0
 30 27  1  0  0  0  0
M  END
