Coordinates from ORCA-job Ph-N2-OTs-B3LYPG-6-31G_dp-MTMO-d009-169-n800
 OpenBabel09051907503D

 31 31  0  0  0  0  0  0  0  0999 V2000
   -0.5707    0.1388   -2.0927 C   0  0  0  0  0  0  0  0  0  0  0  0
    0.7572    0.0659   -2.5146 C   0  0  0  0  0  0  0  0  0  0  0  0
    1.5140    1.2351   -2.5601 C   0  0  0  0  0  0  0  0  0  0  0  0
    0.9813    2.4680   -2.1865 C   0  0  0  0  0  0  0  0  0  0  0  0
   -0.3473    2.5256   -1.7635 C   0  0  0  0  0  0  0  0  0  0  0  0
   -1.1239    1.3654   -1.7170 C   0  0  0  0  0  0  0  0  0  0  0  0
   -1.1713   -0.7651   -2.0551 H   0  0  0  0  0  0  0  0  0  0  0  0
    1.2109   -0.8742   -2.8071 H   0  0  0  0  0  0  0  0  0  0  0  0
    1.6048    3.3538   -2.2272 H   0  0  0  0  0  0  0  0  0  0  0  0
   -0.7742    3.4796   -1.4690 H   0  0  0  0  0  0  0  0  0  0  0  0
    2.3078    3.0207   -6.0088 N   0  0  0  0  0  0  0  0  0  0  0  0
    3.1708    3.4099   -5.4386 N   0  0  0  0  0  0  0  0  0  0  0  0
    6.0035    2.0663   -3.5426 C   0  0  0  0  0  0  0  0  0  0  0  0
    7.0730    1.9448   -4.4266 C   0  0  0  0  0  0  0  0  0  0  0  0
    7.5513    0.6860   -4.8189 C   0  0  0  0  0  0  0  0  0  0  0  0
    6.9353   -0.4597   -4.2937 C   0  0  0  0  0  0  0  0  0  0  0  0
    5.8634   -0.3609   -3.4103 C   0  0  0  0  0  0  0  0  0  0  0  0
    5.4055    0.9066   -3.0479 C   0  0  0  0  0  0  0  0  0  0  0  0
    5.6433    3.0397   -3.2297 H   0  0  0  0  0  0  0  0  0  0  0  0
    7.5479    2.8418   -4.8136 H   0  0  0  0  0  0  0  0  0  0  0  0
    7.3034   -1.4421   -4.5762 H   0  0  0  0  0  0  0  0  0  0  0  0
    5.3951   -1.2452   -2.9930 H   0  0  0  0  0  0  0  0  0  0  0  0
    4.0456    1.0452   -1.9088 S   0  0  0  0  0  0  0  0  0  0  0  0
    3.8682   -0.2121   -1.1865 O   0  0  0  0  0  0  0  0  0  0  0  0
    2.8283    1.1705   -3.0536 O   0  0  0  0  0  0  0  0  0  0  0  0
    4.1256    2.3137   -1.1884 O   0  0  0  0  0  0  0  0  0  0  0  0
    8.6911    0.5643   -5.8003 C   0  0  0  0  0  0  0  0  0  0  0  0
    8.3133    0.4570   -6.8247 H   0  0  0  0  0  0  0  0  0  0  0  0
    9.3343    1.4487   -5.7809 H   0  0  0  0  0  0  0  0  0  0  0  0
    9.3088   -0.3137   -5.5890 H   0  0  0  0  0  0  0  0  0  0  0  0
   -2.1569    1.4166   -1.3871 H   0  0  0  0  0  0  0  0  0  0  0  0
  1  7  1  0  0  0  0
  1  6  2  0  0  0  0
  2  1  1  0  0  0  0
  3  2  2  0  0  0  0
  3  4  1  0  0  0  0
  4  5  2  0  0  0  0
  5  6  1  0  0  0  0
  5 10  1  0  0  0  0
  6 31  1  0  0  0  0
  8  2  1  0  0  0  0
  9  4  1  0  0  0  0
 11 12  3  0  0  0  0
 13 19  1  0  0  0  0
 13 18  2  0  0  0  0
 14 13  1  0  0  0  0
 15 14  2  0  0  0  0
 15 16  1  0  0  0  0
 16 17  2  0  0  0  0
 17 18  1  0  0  0  0
 17 22  1  0  0  0  0
 18 23  1  0  0  0  0
 20 14  1  0  0  0  0
 21 16  1  0  0  0  0
 23 26  2  0  0  0  0
 23 24  2  0  0  0  0
 25  3  1  0  0  0  0
 25 23  1  0  0  0  0
 27 29  1  0  0  0  0
 27 30  1  0  0  0  0
 27 15  1  0  0  0  0
 28 27  1  0  0  0  0
M  END
