Coordinates from ORCA-job Ph-N2-OTs-B3LYPG-6-31G_dp-MTMO-d009-169-n800
 OpenBabel09051907503D

 31 31  0  0  0  0  0  0  0  0999 V2000
   -0.5728    0.1532   -2.1141 C   0  0  0  0  0  0  0  0  0  0  0  0
    0.7561    0.0770   -2.5325 C   0  0  0  0  0  0  0  0  0  0  0  0
    1.5203    1.2418   -2.5619 C   0  0  0  0  0  0  0  0  0  0  0  0
    0.9939    2.4736   -2.1758 C   0  0  0  0  0  0  0  0  0  0  0  0
   -0.3356    2.5346   -1.7563 C   0  0  0  0  0  0  0  0  0  0  0  0
   -1.1195    1.3787   -1.7258 C   0  0  0  0  0  0  0  0  0  0  0  0
   -1.1792   -0.7473   -2.0891 H   0  0  0  0  0  0  0  0  0  0  0  0
    1.2049   -0.8624   -2.8346 H   0  0  0  0  0  0  0  0  0  0  0  0
    1.6231    3.3559   -2.2041 H   0  0  0  0  0  0  0  0  0  0  0  0
   -0.7577    3.4877   -1.4522 H   0  0  0  0  0  0  0  0  0  0  0  0
    2.2223    2.9249   -5.9682 N   0  0  0  0  0  0  0  0  0  0  0  0
    3.0878    3.3854   -5.4583 N   0  0  0  0  0  0  0  0  0  0  0  0
    6.0077    2.0654   -3.5402 C   0  0  0  0  0  0  0  0  0  0  0  0
    7.0775    1.9456   -4.4237 C   0  0  0  0  0  0  0  0  0  0  0  0
    7.5581    0.6875   -4.8159 C   0  0  0  0  0  0  0  0  0  0  0  0
    6.9439   -0.4591   -4.2908 C   0  0  0  0  0  0  0  0  0  0  0  0
    5.8713   -0.3620   -3.4078 C   0  0  0  0  0  0  0  0  0  0  0  0
    5.4113    0.9046   -3.0457 C   0  0  0  0  0  0  0  0  0  0  0  0
    5.6462    3.0383   -3.2269 H   0  0  0  0  0  0  0  0  0  0  0  0
    7.5511    2.8435   -4.8105 H   0  0  0  0  0  0  0  0  0  0  0  0
    7.3138   -1.4409   -4.5732 H   0  0  0  0  0  0  0  0  0  0  0  0
    5.4041   -1.2470   -2.9909 H   0  0  0  0  0  0  0  0  0  0  0  0
    4.0507    1.0411   -1.9071 S   0  0  0  0  0  0  0  0  0  0  0  0
    3.8700   -0.2189   -1.1903 O   0  0  0  0  0  0  0  0  0  0  0  0
    2.8354    1.1739   -3.0527 O   0  0  0  0  0  0  0  0  0  0  0  0
    4.1328    2.3064   -1.1812 O   0  0  0  0  0  0  0  0  0  0  0  0
    8.6981    0.5684   -5.7973 C   0  0  0  0  0  0  0  0  0  0  0  0
    8.3209    0.4893   -6.8245 H   0  0  0  0  0  0  0  0  0  0  0  0
    9.3550    1.4422   -5.7579 H   0  0  0  0  0  0  0  0  0  0  0  0
    9.3015   -0.3232   -5.6035 H   0  0  0  0  0  0  0  0  0  0  0  0
   -2.1532    1.4325   -1.3986 H   0  0  0  0  0  0  0  0  0  0  0  0
  1  7  1  0  0  0  0
  1  6  2  0  0  0  0
  2  1  1  0  0  0  0
  3  2  2  0  0  0  0
  3  4  1  0  0  0  0
  4  5  2  0  0  0  0
  5  6  1  0  0  0  0
  5 10  1  0  0  0  0
  6 31  1  0  0  0  0
  8  2  1  0  0  0  0
  9  4  1  0  0  0  0
 11 12  3  0  0  0  0
 13 19  1  0  0  0  0
 13 18  2  0  0  0  0
 14 13  1  0  0  0  0
 15 14  2  0  0  0  0
 15 16  1  0  0  0  0
 16 17  2  0  0  0  0
 17 18  1  0  0  0  0
 17 22  1  0  0  0  0
 18 23  1  0  0  0  0
 20 14  1  0  0  0  0
 21 16  1  0  0  0  0
 23 24  2  0  0  0  0
 23 26  2  0  0  0  0
 25  3  1  0  0  0  0
 25 23  1  0  0  0  0
 27 29  1  0  0  0  0
 27 30  1  0  0  0  0
 27 15  1  0  0  0  0
 28 27  1  0  0  0  0
M  END
