Coordinates from ORCA-job Ph-N2-OTs-B3LYPG-6-31G_dp-MTMO-d009-169-n800
 OpenBabel09051907503D

 31 31  0  0  0  0  0  0  0  0999 V2000
   -0.6981   -0.5065   -1.6271 C   0  0  0  0  0  0  0  0  0  0  0  0
    0.6430   -0.4981   -2.0130 C   0  0  0  0  0  0  0  0  0  0  0  0
    1.1764    0.6674   -2.5611 C   0  0  0  0  0  0  0  0  0  0  0  0
    0.4077    1.8180   -2.7258 C   0  0  0  0  0  0  0  0  0  0  0  0
   -0.9329    1.7941   -2.3399 C   0  0  0  0  0  0  0  0  0  0  0  0
   -1.4866    0.6350   -1.7907 C   0  0  0  0  0  0  0  0  0  0  0  0
   -1.1258   -1.4079   -1.1984 H   0  0  0  0  0  0  0  0  0  0  0  0
    1.2756   -1.3700   -1.8930 H   0  0  0  0  0  0  0  0  0  0  0  0
    0.8626    2.7062   -3.1497 H   0  0  0  0  0  0  0  0  0  0  0  0
   -1.5433    2.6834   -2.4666 H   0  0  0  0  0  0  0  0  0  0  0  0
    7.3944    6.5918   -6.4567 N   0  0  0  0  0  0  0  0  0  0  0  0
    7.3597    5.5503   -6.0888 N   0  0  0  0  0  0  0  0  0  0  0  0
    5.5052    2.1049   -3.5919 C   0  0  0  0  0  0  0  0  0  0  0  0
    6.5935    2.0626   -4.4587 C   0  0  0  0  0  0  0  0  0  0  0  0
    7.2627    0.8570   -4.7223 C   0  0  0  0  0  0  0  0  0  0  0  0
    6.8134   -0.3129   -4.0936 C   0  0  0  0  0  0  0  0  0  0  0  0
    5.7258   -0.2916   -3.2230 C   0  0  0  0  0  0  0  0  0  0  0  0
    5.0796    0.9216   -2.9854 C   0  0  0  0  0  0  0  0  0  0  0  0
    4.9942    3.0370   -3.3776 H   0  0  0  0  0  0  0  0  0  0  0  0
    6.9295    2.9782   -4.9368 H   0  0  0  0  0  0  0  0  0  0  0  0
    7.3226   -1.2529   -4.2865 H   0  0  0  0  0  0  0  0  0  0  0  0
    5.3848   -1.1940   -2.7282 H   0  0  0  0  0  0  0  0  0  0  0  0
    3.6888    0.9649   -1.8766 S   0  0  0  0  0  0  0  0  0  0  0  0
    3.7418   -0.1781   -0.9673 O   0  0  0  0  0  0  0  0  0  0  0  0
    2.5040    0.6721   -3.0211 O   0  0  0  0  0  0  0  0  0  0  0  0
    3.5018    2.3186   -1.3599 O   0  0  0  0  0  0  0  0  0  0  0  0
    8.4583    0.8310   -5.6432 C   0  0  0  0  0  0  0  0  0  0  0  0
    8.3155    1.4950   -6.5010 H   0  0  0  0  0  0  0  0  0  0  0  0
    9.3613    1.1685   -5.1199 H   0  0  0  0  0  0  0  0  0  0  0  0
    8.6538   -0.1765   -6.0189 H   0  0  0  0  0  0  0  0  0  0  0  0
   -2.5295    0.6217   -1.4891 H   0  0  0  0  0  0  0  0  0  0  0  0
  1  7  1  0  0  0  0
  2  8  1  0  0  0  0
  2  1  2  0  0  0  0
  3  2  1  0  0  0  0
  4  3  2  0  0  0  0
  4  5  1  0  0  0  0
  5  6  2  0  0  0  0
  6  1  1  0  0  0  0
  6 31  1  0  0  0  0
  9  4  1  0  0  0  0
 10  5  1  0  0  0  0
 11 12  3  0  0  0  0
 13 19  1  0  0  0  0
 13 18  2  0  0  0  0
 14 13  1  0  0  0  0
 15 14  2  0  0  0  0
 15 16  1  0  0  0  0
 16 17  2  0  0  0  0
 17 18  1  0  0  0  0
 17 22  1  0  0  0  0
 18 23  1  0  0  0  0
 20 14  1  0  0  0  0
 21 16  1  0  0  0  0
 23 26  2  0  0  0  0
 23 24  2  0  0  0  0
 25  3  1  0  0  0  0
 25 23  1  0  0  0  0
 27 29  1  0  0  0  0
 27 15  1  0  0  0  0
 28 27  1  0  0  0  0
 30 27  1  0  0  0  0
M  END
