Coordinates from ORCA-job Ph-N2-OTs-B3LYPG-6-31G_dp-MTMO-d009-169-n800
 OpenBabel09051907503D

 31 31  0  0  0  0  0  0  0  0999 V2000
   -0.7037   -0.5450   -1.6141 C   0  0  0  0  0  0  0  0  0  0  0  0
    0.6362   -0.5232   -2.0036 C   0  0  0  0  0  0  0  0  0  0  0  0
    1.1578    0.6492   -2.5483 C   0  0  0  0  0  0  0  0  0  0  0  0
    0.3786    1.7938   -2.7060 C   0  0  0  0  0  0  0  0  0  0  0  0
   -0.9607    1.7565   -2.3164 C   0  0  0  0  0  0  0  0  0  0  0  0
   -1.5027    0.5902   -1.7707 C   0  0  0  0  0  0  0  0  0  0  0  0
   -1.1223   -1.4519   -1.1881 H   0  0  0  0  0  0  0  0  0  0  0  0
    1.2767   -1.3900   -1.8890 H   0  0  0  0  0  0  0  0  0  0  0  0
    0.8246    2.6876   -3.1273 H   0  0  0  0  0  0  0  0  0  0  0  0
   -1.5791    2.6409   -2.4377 H   0  0  0  0  0  0  0  0  0  0  0  0
    7.7764    6.5143   -6.5605 N   0  0  0  0  0  0  0  0  0  0  0  0
    7.5953    5.4959   -6.1718 N   0  0  0  0  0  0  0  0  0  0  0  0
    5.4747    2.1286   -3.5855 C   0  0  0  0  0  0  0  0  0  0  0  0
    6.5613    2.0961   -4.4551 C   0  0  0  0  0  0  0  0  0  0  0  0
    7.2367    0.8956   -4.7255 C   0  0  0  0  0  0  0  0  0  0  0  0
    6.7955   -0.2795   -4.1006 C   0  0  0  0  0  0  0  0  0  0  0  0
    5.7100   -0.2682   -3.2273 C   0  0  0  0  0  0  0  0  0  0  0  0
    5.0575    0.9402   -2.9830 C   0  0  0  0  0  0  0  0  0  0  0  0
    4.9587    3.0567   -3.3661 H   0  0  0  0  0  0  0  0  0  0  0  0
    6.8913    3.0155   -4.9303 H   0  0  0  0  0  0  0  0  0  0  0  0
    7.3095   -1.2159   -4.2989 H   0  0  0  0  0  0  0  0  0  0  0  0
    5.3757   -1.1746   -2.7355 H   0  0  0  0  0  0  0  0  0  0  0  0
    3.6692    0.9710   -1.8705 S   0  0  0  0  0  0  0  0  0  0  0  0
    3.7346   -0.1713   -0.9613 O   0  0  0  0  0  0  0  0  0  0  0  0
    2.4840    0.6672   -3.0119 O   0  0  0  0  0  0  0  0  0  0  0  0
    3.4714    2.3230   -1.3534 O   0  0  0  0  0  0  0  0  0  0  0  0
    8.4305    0.8800   -5.6488 C   0  0  0  0  0  0  0  0  0  0  0  0
    8.2871    1.5553   -6.4975 H   0  0  0  0  0  0  0  0  0  0  0  0
    9.3350    1.2092   -5.1226 H   0  0  0  0  0  0  0  0  0  0  0  0
    8.6241   -0.1228   -6.0378 H   0  0  0  0  0  0  0  0  0  0  0  0
   -2.5446    0.5665   -1.4664 H   0  0  0  0  0  0  0  0  0  0  0  0
  1  7  1  0  0  0  0
  2  8  1  0  0  0  0
  2  1  2  0  0  0  0
  3  2  1  0  0  0  0
  4  3  2  0  0  0  0
  4  5  1  0  0  0  0
  5  6  2  0  0  0  0
  6  1  1  0  0  0  0
  6 31  1  0  0  0  0
  9  4  1  0  0  0  0
 10  5  1  0  0  0  0
 11 12  3  0  0  0  0
 13 19  1  0  0  0  0
 13 18  2  0  0  0  0
 14 13  1  0  0  0  0
 15 14  2  0  0  0  0
 15 16  1  0  0  0  0
 16 17  2  0  0  0  0
 17 18  1  0  0  0  0
 17 22  1  0  0  0  0
 18 23  1  0  0  0  0
 20 14  1  0  0  0  0
 21 16  1  0  0  0  0
 23 26  2  0  0  0  0
 23 24  2  0  0  0  0
 25  3  1  0  0  0  0
 25 23  1  0  0  0  0
 27 29  1  0  0  0  0
 27 15  1  0  0  0  0
 28 27  1  0  0  0  0
 30 27  1  0  0  0  0
M  END
