Coordinates from ORCA-job Ph-N2-OTs-B3LYPG-6-31G_dp-MTMO-d009-169-n800
 OpenBabel09051907503D

 31 31  0  0  0  0  0  0  0  0999 V2000
   -0.4262   -0.0145   -1.1693 C   0  0  0  0  0  0  0  0  0  0  0  0
    0.9071   -0.0828   -1.5763 C   0  0  0  0  0  0  0  0  0  0  0  0
    1.3213    0.7062   -2.6484 C   0  0  0  0  0  0  0  0  0  0  0  0
    0.4410    1.5541   -3.3170 C   0  0  0  0  0  0  0  0  0  0  0  0
   -0.8909    1.6053   -2.9048 C   0  0  0  0  0  0  0  0  0  0  0  0
   -1.3252    0.8247   -1.8310 C   0  0  0  0  0  0  0  0  0  0  0  0
   -0.7614   -0.6203   -0.3325 H   0  0  0  0  0  0  0  0  0  0  0  0
    1.6223   -0.7252   -1.0763 H   0  0  0  0  0  0  0  0  0  0  0  0
    0.8051    2.1536   -4.1443 H   0  0  0  0  0  0  0  0  0  0  0  0
   -1.5873    2.2596   -3.4209 H   0  0  0  0  0  0  0  0  0  0  0  0
    5.6640    6.6514   -2.9398 N   0  0  0  0  0  0  0  0  0  0  0  0
    5.5571    5.7807   -3.6119 N   0  0  0  0  0  0  0  0  0  0  0  0
    5.6185    2.0466   -4.2082 C   0  0  0  0  0  0  0  0  0  0  0  0
    6.7016    1.7681   -5.0398 C   0  0  0  0  0  0  0  0  0  0  0  0
    7.3511    0.5262   -4.9961 C   0  0  0  0  0  0  0  0  0  0  0  0
    6.8882   -0.4421   -4.0914 C   0  0  0  0  0  0  0  0  0  0  0  0
    5.8118   -0.1830   -3.2479 C   0  0  0  0  0  0  0  0  0  0  0  0
    5.1836    1.0620   -3.3211 C   0  0  0  0  0  0  0  0  0  0  0  0
    5.1252    3.0115   -4.2343 H   0  0  0  0  0  0  0  0  0  0  0  0
    7.0494    2.5302   -5.7318 H   0  0  0  0  0  0  0  0  0  0  0  0
    7.3810   -1.4092   -4.0451 H   0  0  0  0  0  0  0  0  0  0  0  0
    5.4660   -0.9273   -2.5390 H   0  0  0  0  0  0  0  0  0  0  0  0
    3.8152    1.4113   -2.2385 S   0  0  0  0  0  0  0  0  0  0  0  0
    3.9914    0.7030   -0.9719 O   0  0  0  0  0  0  0  0  0  0  0  0
    2.6411    0.6110   -3.1219 O   0  0  0  0  0  0  0  0  0  0  0  0
    3.5162    2.8411   -2.2542 O   0  0  0  0  0  0  0  0  0  0  0  0
    8.5442    0.2475   -5.8780 C   0  0  0  0  0  0  0  0  0  0  0  0
    8.5095    0.8374   -6.7976 H   0  0  0  0  0  0  0  0  0  0  0  0
    9.4778    0.5021   -5.3609 H   0  0  0  0  0  0  0  0  0  0  0  0
    8.6024   -0.8098   -6.1514 H   0  0  0  0  0  0  0  0  0  0  0  0
   -2.3615    0.8714   -1.5100 H   0  0  0  0  0  0  0  0  0  0  0  0
  1  7  1  0  0  0  0
  2  1  1  0  0  0  0
  2  8  1  0  0  0  0
  3  2  2  0  0  0  0
  4  5  2  0  0  0  0
  4  3  1  0  0  0  0
  5  6  1  0  0  0  0
  6 31  1  0  0  0  0
  6  1  2  0  0  0  0
  9  4  1  0  0  0  0
 10  5  1  0  0  0  0
 12 11  3  0  0  0  0
 13 18  2  0  0  0  0
 14 15  2  0  0  0  0
 14 13  1  0  0  0  0
 15 16  1  0  0  0  0
 16 21  1  0  0  0  0
 16 17  2  0  0  0  0
 17 22  1  0  0  0  0
 18 17  1  0  0  0  0
 18 23  1  0  0  0  0
 19 13  1  0  0  0  0
 20 14  1  0  0  0  0
 23 24  2  0  0  0  0
 25  3  1  0  0  0  0
 25 23  1  0  0  0  0
 26 23  2  0  0  0  0
 27 29  1  0  0  0  0
 27 15  1  0  0  0  0
 28 27  1  0  0  0  0
 30 27  1  0  0  0  0
M  END
