Coordinates from ORCA-job Ph-N2-OTs-B3LYPG-6-31G_dp-MTMO-d009-169-n800
 OpenBabel09051907503D

 31 30  0  0  0  0  0  0  0  0999 V2000
   -0.1891    0.0132   -1.1986 C   0  0  0  0  0  0  0  0  0  0  0  0
    0.6982    0.7272   -2.0250 C   0  0  0  0  0  0  0  0  0  0  0  0
    0.2498    1.7484   -2.6075 C   0  0  0  0  0  0  0  0  0  0  0  0
   -0.9379    2.4215   -2.6721 C   0  0  0  0  0  0  0  0  0  0  0  0
   -1.8493    1.7190   -1.8458 C   0  0  0  0  0  0  0  0  0  0  0  0
   -1.4854    0.5588   -1.1384 C   0  0  0  0  0  0  0  0  0  0  0  0
    0.0780   -0.8816   -0.6453 H   0  0  0  0  0  0  0  0  0  0  0  0
    2.6466    0.4593   -2.3676 H   0  0  0  0  0  0  0  0  0  0  0  0
   -1.1785    3.3178   -3.2269 H   0  0  0  0  0  0  0  0  0  0  0  0
   -2.8635    2.1017   -1.7632 H   0  0  0  0  0  0  0  0  0  0  0  0
    1.1561    4.5567   -4.5324 N   0  0  0  0  0  0  0  0  0  0  0  0
    2.0183    5.1216   -4.9301 N   0  0  0  0  0  0  0  0  0  0  0  0
    6.9084    1.2625   -2.9024 C   0  0  0  0  0  0  0  0  0  0  0  0
    8.1199    0.8045   -3.4179 C   0  0  0  0  0  0  0  0  0  0  0  0
    8.2045    0.2806   -4.7152 C   0  0  0  0  0  0  0  0  0  0  0  0
    7.0376    0.2240   -5.4936 C   0  0  0  0  0  0  0  0  0  0  0  0
    5.8187    0.6771   -4.9969 C   0  0  0  0  0  0  0  0  0  0  0  0
    5.7665    1.1896   -3.6992 C   0  0  0  0  0  0  0  0  0  0  0  0
    6.8424    1.6772   -1.9030 H   0  0  0  0  0  0  0  0  0  0  0  0
    9.0147    0.8571   -2.8034 H   0  0  0  0  0  0  0  0  0  0  0  0
    7.0863   -0.1779   -6.5019 H   0  0  0  0  0  0  0  0  0  0  0  0
    4.9197    0.6445   -5.6029 H   0  0  0  0  0  0  0  0  0  0  0  0
    4.2127    1.7724   -3.0510 S   0  0  0  0  0  0  0  0  0  0  0  0
    3.6202    0.3484   -2.5260 O   0  0  0  0  0  0  0  0  0  0  0  0
    3.3634    2.2439   -4.1496 O   0  0  0  0  0  0  0  0  0  0  0  0
    4.4683    2.6458   -1.9069 O   0  0  0  0  0  0  0  0  0  0  0  0
    9.5259   -0.1854   -5.2772 C   0  0  0  0  0  0  0  0  0  0  0  0
    9.9876    0.5978   -5.8918 H   0  0  0  0  0  0  0  0  0  0  0  0
   10.2329   -0.4373   -4.4820 H   0  0  0  0  0  0  0  0  0  0  0  0
    9.4006   -1.0657   -5.9151 H   0  0  0  0  0  0  0  0  0  0  0  0
   -2.2342    0.0678   -0.5224 H   0  0  0  0  0  0  0  0  0  0  0  0
  1  6  1  0  0  0  0
  1  7  1  0  0  0  0
  2  1  2  0  0  0  0
  3  2  1  0  0  0  0
  4  3  2  0  0  0  0
  4  5  1  0  0  0  0
  5 10  1  0  0  0  0
  5  6  2  0  0  0  0
  6 31  1  0  0  0  0
  9  4  1  0  0  0  0
 12 11  3  0  0  0  0
 13 19  1  0  0  0  0
 14 13  1  0  0  0  0
 14 20  1  0  0  0  0
 15 14  2  0  0  0  0
 16 17  2  0  0  0  0
 16 15  1  0  0  0  0
 17 18  1  0  0  0  0
 18 23  1  0  0  0  0
 18 13  2  0  0  0  0
 21 16  1  0  0  0  0
 22 17  1  0  0  0  0
 23 24  1  0  0  0  0
 23 26  2  0  0  0  0
 24  8  1  0  0  0  0
 25 23  2  0  0  0  0
 27 15  1  0  0  0  0
 27 29  1  0  0  0  0
 28 27  1  0  0  0  0
 30 27  1  0  0  0  0
M  RAD  2   2   2   3   2
M  END
