Coordinates from ORCA-job Ph-N2-OTs-B3LYPG-6-31G_dp-MTMO-d009-169-n800
 OpenBabel09051907503D

 31 31  0  0  0  0  0  0  0  0999 V2000
   -0.6956   -0.4922   -1.6345 C   0  0  0  0  0  0  0  0  0  0  0  0
    0.6458   -0.4885   -2.0191 C   0  0  0  0  0  0  0  0  0  0  0  0
    1.1840    0.6751   -2.5665 C   0  0  0  0  0  0  0  0  0  0  0  0
    0.4196    1.8285   -2.7319 C   0  0  0  0  0  0  0  0  0  0  0  0
   -0.9215    1.8093   -2.3473 C   0  0  0  0  0  0  0  0  0  0  0  0
   -1.4799    0.6521   -1.7988 C   0  0  0  0  0  0  0  0  0  0  0  0
   -1.1269   -1.3921   -1.2063 H   0  0  0  0  0  0  0  0  0  0  0  0
    1.2753   -1.3627   -1.8985 H   0  0  0  0  0  0  0  0  0  0  0  0
    0.8780    2.7151   -3.1553 H   0  0  0  0  0  0  0  0  0  0  0  0
   -1.5286    2.7008   -2.4745 H   0  0  0  0  0  0  0  0  0  0  0  0
    7.2344    6.6116   -6.4183 N   0  0  0  0  0  0  0  0  0  0  0  0
    7.2618    5.5684   -6.0550 N   0  0  0  0  0  0  0  0  0  0  0  0
    5.5190    2.0969   -3.5934 C   0  0  0  0  0  0  0  0  0  0  0  0
    6.6083    2.0502   -4.4587 C   0  0  0  0  0  0  0  0  0  0  0  0
    7.2738    0.8422   -4.7205 C   0  0  0  0  0  0  0  0  0  0  0  0
    6.8196   -0.3257   -4.0915 C   0  0  0  0  0  0  0  0  0  0  0  0
    5.7309   -0.3000   -3.2224 C   0  0  0  0  0  0  0  0  0  0  0  0
    5.0886    0.9155   -2.9866 C   0  0  0  0  0  0  0  0  0  0  0  0
    5.0110    3.0310   -3.3804 H   0  0  0  0  0  0  0  0  0  0  0  0
    6.9479    2.9644   -4.9370 H   0  0  0  0  0  0  0  0  0  0  0  0
    7.3259   -1.2676   -4.2830 H   0  0  0  0  0  0  0  0  0  0  0  0
    5.3863   -1.2008   -2.7273 H   0  0  0  0  0  0  0  0  0  0  0  0
    3.6966    0.9645   -1.8794 S   0  0  0  0  0  0  0  0  0  0  0  0
    3.7445   -0.1780   -0.9693 O   0  0  0  0  0  0  0  0  0  0  0  0
    2.5120    0.6750   -3.0251 O   0  0  0  0  0  0  0  0  0  0  0  0
    3.5137    2.3192   -1.3640 O   0  0  0  0  0  0  0  0  0  0  0  0
    8.4704    0.8113   -5.6400 C   0  0  0  0  0  0  0  0  0  0  0  0
    8.3292    1.4721   -6.5005 H   0  0  0  0  0  0  0  0  0  0  0  0
    9.3732    1.1501   -5.1170 H   0  0  0  0  0  0  0  0  0  0  0  0
    8.6653   -0.1977   -6.0115 H   0  0  0  0  0  0  0  0  0  0  0  0
   -2.5231    0.6426   -1.4982 H   0  0  0  0  0  0  0  0  0  0  0  0
  1  7  1  0  0  0  0
  2  8  1  0  0  0  0
  2  1  2  0  0  0  0
  3  2  1  0  0  0  0
  4  3  2  0  0  0  0
  4  5  1  0  0  0  0
  5  6  2  0  0  0  0
  6  1  1  0  0  0  0
  6 31  1  0  0  0  0
  9  4  1  0  0  0  0
 10  5  1  0  0  0  0
 11 12  3  0  0  0  0
 13 19  1  0  0  0  0
 13 18  2  0  0  0  0
 14 13  1  0  0  0  0
 15 14  2  0  0  0  0
 15 16  1  0  0  0  0
 16 17  2  0  0  0  0
 17 18  1  0  0  0  0
 17 22  1  0  0  0  0
 18 23  1  0  0  0  0
 20 14  1  0  0  0  0
 21 16  1  0  0  0  0
 23 26  2  0  0  0  0
 23 24  2  0  0  0  0
 25  3  1  0  0  0  0
 25 23  1  0  0  0  0
 27 29  1  0  0  0  0
 27 15  1  0  0  0  0
 28 27  1  0  0  0  0
 30 27  1  0  0  0  0
M  END
