Coordinates from ORCA-job Ph-N2-OTs-B3LYPG-6-31G_dp-MTMO-d009-169-n800
 OpenBabel09051907503D

 31 31  0  0  0  0  0  0  0  0999 V2000
   -0.7315   -0.6984   -1.6502 C   0  0  0  0  0  0  0  0  0  0  0  0
    0.6035   -0.6147   -2.0480 C   0  0  0  0  0  0  0  0  0  0  0  0
    1.0927    0.6083   -2.5040 C   0  0  0  0  0  0  0  0  0  0  0  0
    0.2862    1.7432   -2.5654 C   0  0  0  0  0  0  0  0  0  0  0  0
   -1.0476    1.6443   -2.1678 C   0  0  0  0  0  0  0  0  0  0  0  0
   -1.5574    0.4267   -1.7103 C   0  0  0  0  0  0  0  0  0  0  0  0
   -1.1250   -1.6450   -1.2923 H   0  0  0  0  0  0  0  0  0  0  0  0
    1.2648   -1.4726   -2.0067 H   0  0  0  0  0  0  0  0  0  0  0  0
    0.7073    2.6771   -2.9199 H   0  0  0  0  0  0  0  0  0  0  0  0
   -1.6869    2.5209   -2.2138 H   0  0  0  0  0  0  0  0  0  0  0  0
    8.8812    5.8845   -7.3717 N   0  0  0  0  0  0  0  0  0  0  0  0
    8.4477    5.0776   -6.7535 N   0  0  0  0  0  0  0  0  0  0  0  0
    5.4073    2.2414   -3.4463 C   0  0  0  0  0  0  0  0  0  0  0  0
    6.4965    2.2706   -4.3156 C   0  0  0  0  0  0  0  0  0  0  0  0
    7.1638    1.0932   -4.6808 C   0  0  0  0  0  0  0  0  0  0  0  0
    6.7138   -0.1268   -4.1513 C   0  0  0  0  0  0  0  0  0  0  0  0
    5.6296   -0.1775   -3.2807 C   0  0  0  0  0  0  0  0  0  0  0  0
    4.9832    1.0129   -2.9408 C   0  0  0  0  0  0  0  0  0  0  0  0
    4.8973    3.1524   -3.1538 H   0  0  0  0  0  0  0  0  0  0  0  0
    6.8356    3.2217   -4.7159 H   0  0  0  0  0  0  0  0  0  0  0  0
    7.2224   -1.0478   -4.4227 H   0  0  0  0  0  0  0  0  0  0  0  0
    5.2906   -1.1177   -2.8606 H   0  0  0  0  0  0  0  0  0  0  0  0
    3.5984    0.9621   -1.8244 S   0  0  0  0  0  0  0  0  0  0  0  0
    3.6884   -0.2228   -0.9738 O   0  0  0  0  0  0  0  0  0  0  0  0
    2.4140    0.6920   -2.9751 O   0  0  0  0  0  0  0  0  0  0  0  0
    3.3786    2.2829   -1.2398 O   0  0  0  0  0  0  0  0  0  0  0  0
    8.3569    1.1324   -5.6040 C   0  0  0  0  0  0  0  0  0  0  0  0
    8.4319    2.0918   -6.1215 H   0  0  0  0  0  0  0  0  0  0  0  0
    9.2882    0.9835   -5.0444 H   0  0  0  0  0  0  0  0  0  0  0  0
    8.3035    0.3393   -6.3570 H   0  0  0  0  0  0  0  0  0  0  0  0
   -2.5952    0.3553   -1.3995 H   0  0  0  0  0  0  0  0  0  0  0  0
  1  7  1  0  0  0  0
  2  8  1  0  0  0  0
  2  1  2  0  0  0  0
  3  2  1  0  0  0  0
  4  3  2  0  0  0  0
  4  5  1  0  0  0  0
  5  6  2  0  0  0  0
  6  1  1  0  0  0  0
  6 31  1  0  0  0  0
  9  4  1  0  0  0  0
 10  5  1  0  0  0  0
 11 12  3  0  0  0  0
 13 19  1  0  0  0  0
 13 18  2  0  0  0  0
 14 13  1  0  0  0  0
 15 14  2  0  0  0  0
 15 16  1  0  0  0  0
 16 17  2  0  0  0  0
 17 18  1  0  0  0  0
 17 22  1  0  0  0  0
 18 23  1  0  0  0  0
 20 14  1  0  0  0  0
 21 16  1  0  0  0  0
 23 26  2  0  0  0  0
 23 24  2  0  0  0  0
 25  3  1  0  0  0  0
 25 23  1  0  0  0  0
 27 29  1  0  0  0  0
 27 15  1  0  0  0  0
 28 27  1  0  0  0  0
 30 27  1  0  0  0  0
M  END
