Coordinates from ORCA-job Ph-N2-OTs-B3LYPG-6-31G_dp-MTMO-d009-169-n800
 OpenBabel09051907503D

 31 31  0  0  0  0  0  0  0  0999 V2000
   -0.3963    0.0816   -1.1934 C   0  0  0  0  0  0  0  0  0  0  0  0
    0.9361   -0.0171   -1.5967 C   0  0  0  0  0  0  0  0  0  0  0  0
    1.3735    0.7688   -2.6619 C   0  0  0  0  0  0  0  0  0  0  0  0
    0.5169    1.6431   -3.3273 C   0  0  0  0  0  0  0  0  0  0  0  0
   -0.8147    1.7247   -2.9189 C   0  0  0  0  0  0  0  0  0  0  0  0
   -1.2719    0.9477   -1.8520 C   0  0  0  0  0  0  0  0  0  0  0  0
   -0.7495   -0.5215   -0.3622 H   0  0  0  0  0  0  0  0  0  0  0  0
    1.6336   -0.6809   -1.0993 H   0  0  0  0  0  0  0  0  0  0  0  0
    0.8985    2.2389   -4.1492 H   0  0  0  0  0  0  0  0  0  0  0  0
   -1.4928    2.4000   -3.4324 H   0  0  0  0  0  0  0  0  0  0  0  0
    4.8697    6.3504   -2.5493 N   0  0  0  0  0  0  0  0  0  0  0  0
    4.9824    5.6293   -3.3790 N   0  0  0  0  0  0  0  0  0  0  0  0
    5.6650    2.0082   -4.2435 C   0  0  0  0  0  0  0  0  0  0  0  0
    6.7368    1.7146   -5.0817 C   0  0  0  0  0  0  0  0  0  0  0  0
    7.3893    0.4730   -5.0211 C   0  0  0  0  0  0  0  0  0  0  0  0
    6.9426   -0.4744   -4.0892 C   0  0  0  0  0  0  0  0  0  0  0  0
    5.8746   -0.1999   -3.2373 C   0  0  0  0  0  0  0  0  0  0  0  0
    5.2428    1.0403   -3.3297 C   0  0  0  0  0  0  0  0  0  0  0  0
    5.1698    2.9717   -4.2807 H   0  0  0  0  0  0  0  0  0  0  0  0
    7.0753    2.4635   -5.7929 H   0  0  0  0  0  0  0  0  0  0  0  0
    7.4401   -1.4381   -4.0266 H   0  0  0  0  0  0  0  0  0  0  0  0
    5.5411   -0.9287   -2.5067 H   0  0  0  0  0  0  0  0  0  0  0  0
    3.8839    1.4070   -2.2409 S   0  0  0  0  0  0  0  0  0  0  0  0
    4.0462    0.6817   -0.9822 O   0  0  0  0  0  0  0  0  0  0  0  0
    2.6919    0.6434   -3.1323 O   0  0  0  0  0  0  0  0  0  0  0  0
    3.6149    2.8432   -2.2403 O   0  0  0  0  0  0  0  0  0  0  0  0
    8.5560    0.1785   -5.9324 C   0  0  0  0  0  0  0  0  0  0  0  0
    8.2989    0.3706   -6.9799 H   0  0  0  0  0  0  0  0  0  0  0  0
    9.4145    0.8155   -5.6901 H   0  0  0  0  0  0  0  0  0  0  0  0
    8.8785   -0.8624   -5.8485 H   0  0  0  0  0  0  0  0  0  0  0  0
   -2.3078    1.0180   -1.5339 H   0  0  0  0  0  0  0  0  0  0  0  0
  1  7  1  0  0  0  0
  2  1  1  0  0  0  0
  2  8  1  0  0  0  0
  3  2  2  0  0  0  0
  4  5  2  0  0  0  0
  4  3  1  0  0  0  0
  5  6  1  0  0  0  0
  6 31  1  0  0  0  0
  6  1  2  0  0  0  0
  9  4  1  0  0  0  0
 10  5  1  0  0  0  0
 12 11  3  0  0  0  0
 13 18  2  0  0  0  0
 14 15  2  0  0  0  0
 14 13  1  0  0  0  0
 15 16  1  0  0  0  0
 16 21  1  0  0  0  0
 16 17  2  0  0  0  0
 17 22  1  0  0  0  0
 18 17  1  0  0  0  0
 18 23  1  0  0  0  0
 19 13  1  0  0  0  0
 20 14  1  0  0  0  0
 23 26  2  0  0  0  0
 23 24  2  0  0  0  0
 25  3  1  0  0  0  0
 25 23  1  0  0  0  0
 27 30  1  0  0  0  0
 27 29  1  0  0  0  0
 27 15  1  0  0  0  0
 28 27  1  0  0  0  0
M  END
