Coordinates from ORCA-job Ph-N2-OTs-B3LYPG-6-31G_dp-MTMO-d009-169-n800
 OpenBabel09051907503D

 31 31  0  0  0  0  0  0  0  0999 V2000
   -0.7120   -0.5675   -1.6239 C   0  0  0  0  0  0  0  0  0  0  0  0
    0.6275   -0.5384   -2.0144 C   0  0  0  0  0  0  0  0  0  0  0  0
    1.1473    0.6426   -2.5419 C   0  0  0  0  0  0  0  0  0  0  0  0
    0.3668    1.7886   -2.6817 C   0  0  0  0  0  0  0  0  0  0  0  0
   -0.9721    1.7440   -2.2913 C   0  0  0  0  0  0  0  0  0  0  0  0
   -1.5123    0.5691   -1.7626 C   0  0  0  0  0  0  0  0  0  0  0  0
   -1.1292   -1.4811   -1.2111 H   0  0  0  0  0  0  0  0  0  0  0  0
    1.2691   -1.4061   -1.9134 H   0  0  0  0  0  0  0  0  0  0  0  0
    0.8113    2.6891   -3.0901 H   0  0  0  0  0  0  0  0  0  0  0  0
   -1.5915    2.6296   -2.3985 H   0  0  0  0  0  0  0  0  0  0  0  0
    7.9646    6.4146   -6.6957 N   0  0  0  0  0  0  0  0  0  0  0  0
    7.7215    5.4310   -6.2546 N   0  0  0  0  0  0  0  0  0  0  0  0
    5.4585    2.1422   -3.5662 C   0  0  0  0  0  0  0  0  0  0  0  0
    6.5449    2.1223   -4.4364 C   0  0  0  0  0  0  0  0  0  0  0  0
    7.2249    0.9272   -4.7185 C   0  0  0  0  0  0  0  0  0  0  0  0
    6.7885   -0.2557   -4.1050 C   0  0  0  0  0  0  0  0  0  0  0  0
    5.7033   -0.2569   -3.2314 C   0  0  0  0  0  0  0  0  0  0  0  0
    5.0462    0.9466   -2.9752 C   0  0  0  0  0  0  0  0  0  0  0  0
    4.9390    3.0663   -3.3378 H   0  0  0  0  0  0  0  0  0  0  0  0
    6.8714    3.0471   -4.9036 H   0  0  0  0  0  0  0  0  0  0  0  0
    7.3061   -1.1881   -4.3126 H   0  0  0  0  0  0  0  0  0  0  0  0
    5.3724   -1.1693   -2.7483 H   0  0  0  0  0  0  0  0  0  0  0  0
    3.6583    0.9606   -1.8619 S   0  0  0  0  0  0  0  0  0  0  0  0
    3.7265   -0.1929   -0.9671 O   0  0  0  0  0  0  0  0  0  0  0  0
    2.4731    0.6687   -3.0064 O   0  0  0  0  0  0  0  0  0  0  0  0
    3.4579    2.3057   -1.3279 O   0  0  0  0  0  0  0  0  0  0  0  0
    8.4190    0.9250   -5.6415 C   0  0  0  0  0  0  0  0  0  0  0  0
    8.2808    1.6209   -6.4743 H   0  0  0  0  0  0  0  0  0  0  0  0
    9.3254    1.2354   -5.1072 H   0  0  0  0  0  0  0  0  0  0  0  0
    8.6062   -0.0699   -6.0535 H   0  0  0  0  0  0  0  0  0  0  0  0
   -2.5538    0.5398   -1.4575 H   0  0  0  0  0  0  0  0  0  0  0  0
  1  7  1  0  0  0  0
  2  8  1  0  0  0  0
  2  1  2  0  0  0  0
  3  2  1  0  0  0  0
  4  3  2  0  0  0  0
  4  5  1  0  0  0  0
  5  6  2  0  0  0  0
  6  1  1  0  0  0  0
  6 31  1  0  0  0  0
  9  4  1  0  0  0  0
 10  5  1  0  0  0  0
 11 12  3  0  0  0  0
 13 19  1  0  0  0  0
 13 18  2  0  0  0  0
 14 13  1  0  0  0  0
 15 14  2  0  0  0  0
 15 16  1  0  0  0  0
 16 17  2  0  0  0  0
 17 18  1  0  0  0  0
 17 22  1  0  0  0  0
 18 23  1  0  0  0  0
 20 14  1  0  0  0  0
 21 16  1  0  0  0  0
 23 26  2  0  0  0  0
 23 24  2  0  0  0  0
 25  3  1  0  0  0  0
 25 23  1  0  0  0  0
 27 29  1  0  0  0  0
 27 15  1  0  0  0  0
 28 27  1  0  0  0  0
 30 27  1  0  0  0  0
M  END
