Coordinates from ORCA-job Ph-N2-OTs-B3LYPG-6-31G_dp-MTMO-d009-169-n800
 OpenBabel09051907503D

 31 31  0  0  0  0  0  0  0  0999 V2000
   -0.7255   -0.7859   -1.6162 C   0  0  0  0  0  0  0  0  0  0  0  0
    0.6024   -0.6639   -2.0275 C   0  0  0  0  0  0  0  0  0  0  0  0
    1.0555    0.5758   -2.4753 C   0  0  0  0  0  0  0  0  0  0  0  0
    0.2203    1.6906   -2.5151 C   0  0  0  0  0  0  0  0  0  0  0  0
   -1.1060    1.5537   -2.1037 C   0  0  0  0  0  0  0  0  0  0  0  0
   -1.5798    0.3187   -1.6544 C   0  0  0  0  0  0  0  0  0  0  0  0
   -1.0911   -1.7459   -1.2644 H   0  0  0  0  0  0  0  0  0  0  0  0
    1.2856   -1.5052   -2.0031 H   0  0  0  0  0  0  0  0  0  0  0  0
    0.6139    2.6386   -2.8638 H   0  0  0  0  0  0  0  0  0  0  0  0
   -1.7675    2.4144   -2.1326 H   0  0  0  0  0  0  0  0  0  0  0  0
    9.6490    5.7384   -7.4532 N   0  0  0  0  0  0  0  0  0  0  0  0
    9.0352    4.9964   -6.9109 N   0  0  0  0  0  0  0  0  0  0  0  0
    5.3360    2.2977   -3.4686 C   0  0  0  0  0  0  0  0  0  0  0  0
    6.4215    2.3317   -4.3430 C   0  0  0  0  0  0  0  0  0  0  0  0
    7.1031    1.1601   -4.6982 C   0  0  0  0  0  0  0  0  0  0  0  0
    6.6738   -0.0598   -4.1504 C   0  0  0  0  0  0  0  0  0  0  0  0
    5.5946   -0.1154   -3.2747 C   0  0  0  0  0  0  0  0  0  0  0  0
    4.9316    1.0698   -2.9470 C   0  0  0  0  0  0  0  0  0  0  0  0
    4.8153    3.2050   -3.1837 H   0  0  0  0  0  0  0  0  0  0  0  0
    6.7473    3.2832   -4.7531 H   0  0  0  0  0  0  0  0  0  0  0  0
    7.1962   -0.9763   -4.4107 H   0  0  0  0  0  0  0  0  0  0  0  0
    5.2727   -1.0549   -2.8398 H   0  0  0  0  0  0  0  0  0  0  0  0
    3.5545    1.0129   -1.8213 S   0  0  0  0  0  0  0  0  0  0  0  0
    3.6729   -0.1528   -0.9481 O   0  0  0  0  0  0  0  0  0  0  0  0
    2.3694    0.6960   -2.9593 O   0  0  0  0  0  0  0  0  0  0  0  0
    3.3114    2.3404   -1.2616 O   0  0  0  0  0  0  0  0  0  0  0  0
    8.2814    1.2002   -5.6406 C   0  0  0  0  0  0  0  0  0  0  0  0
    8.4590    2.2093   -6.0188 H   0  0  0  0  0  0  0  0  0  0  0  0
    9.1960    0.8616   -5.1406 H   0  0  0  0  0  0  0  0  0  0  0  0
    8.1226    0.5386   -6.4993 H   0  0  0  0  0  0  0  0  0  0  0  0
   -2.6119    0.2178   -1.3329 H   0  0  0  0  0  0  0  0  0  0  0  0
  1  7  1  0  0  0  0
  2  8  1  0  0  0  0
  2  1  2  0  0  0  0
  3  2  1  0  0  0  0
  4  3  2  0  0  0  0
  4  5  1  0  0  0  0
  5  6  2  0  0  0  0
  6  1  1  0  0  0  0
  6 31  1  0  0  0  0
  9  4  1  0  0  0  0
 10  5  1  0  0  0  0
 11 12  3  0  0  0  0
 13 19  1  0  0  0  0
 13 18  2  0  0  0  0
 14 13  1  0  0  0  0
 15 14  2  0  0  0  0
 15 16  1  0  0  0  0
 16 17  2  0  0  0  0
 17 18  1  0  0  0  0
 17 22  1  0  0  0  0
 18 23  1  0  0  0  0
 20 14  1  0  0  0  0
 21 16  1  0  0  0  0
 23 26  2  0  0  0  0
 23 24  2  0  0  0  0
 25  3  1  0  0  0  0
 25 23  1  0  0  0  0
 27 29  1  0  0  0  0
 27 15  1  0  0  0  0
 28 27  1  0  0  0  0
 30 27  1  0  0  0  0
M  END
