Coordinates from ORCA-job Ph-N2-OTs-B3LYPG-6-31G_dp-MTMO-d009-169-n800
 OpenBabel09051907503D

 31 31  0  0  0  0  0  0  0  0999 V2000
   -0.8034   -1.0761   -1.3761 C   0  0  0  0  0  0  0  0  0  0  0  0
    0.4991   -0.8646   -1.8297 C   0  0  0  0  0  0  0  0  0  0  0  0
    0.8401    0.3895   -2.3329 C   0  0  0  0  0  0  0  0  0  0  0  0
   -0.0816    1.4334   -2.3859 C   0  0  0  0  0  0  0  0  0  0  0  0
   -1.3808    1.2079   -1.9294 C   0  0  0  0  0  0  0  0  0  0  0  0
   -1.7431   -0.0436   -1.4255 C   0  0  0  0  0  0  0  0  0  0  0  0
   -1.0823   -2.0486   -0.9820 H   0  0  0  0  0  0  0  0  0  0  0  0
    1.2472   -1.6487   -1.7978 H   0  0  0  0  0  0  0  0  0  0  0  0
    0.2251    2.3964   -2.7777 H   0  0  0  0  0  0  0  0  0  0  0  0
   -2.1090    2.0126   -1.9670 H   0  0  0  0  0  0  0  0  0  0  0  0
   13.7633    5.7069   -8.0477 N   0  0  0  0  0  0  0  0  0  0  0  0
   12.7938    5.2284   -7.8179 N   0  0  0  0  0  0  0  0  0  0  0  0
    4.9014    2.4189   -3.5979 C   0  0  0  0  0  0  0  0  0  0  0  0
    5.9621    2.4769   -4.4991 C   0  0  0  0  0  0  0  0  0  0  0  0
    6.7580    1.3515   -4.7570 C   0  0  0  0  0  0  0  0  0  0  0  0
    6.4731    0.1575   -4.0767 C   0  0  0  0  0  0  0  0  0  0  0  0
    5.4188    0.0785   -3.1710 C   0  0  0  0  0  0  0  0  0  0  0  0
    4.6381    1.2138   -2.9464 C   0  0  0  0  0  0  0  0  0  0  0  0
    4.2938    3.2919   -3.3876 H   0  0  0  0  0  0  0  0  0  0  0  0
    6.1794    3.4128   -5.0062 H   0  0  0  0  0  0  0  0  0  0  0  0
    7.0893   -0.7199   -4.2545 H   0  0  0  0  0  0  0  0  0  0  0  0
    5.2086   -0.8397   -2.6338 H   0  0  0  0  0  0  0  0  0  0  0  0
    3.2928    1.1297   -1.7844 S   0  0  0  0  0  0  0  0  0  0  0  0
    3.5414    0.0715   -0.8082 O   0  0  0  0  0  0  0  0  0  0  0  0
    2.1283    0.5888   -2.8582 O   0  0  0  0  0  0  0  0  0  0  0  0
    2.9270    2.4750   -1.3475 O   0  0  0  0  0  0  0  0  0  0  0  0
    7.8850    1.4161   -5.7587 C   0  0  0  0  0  0  0  0  0  0  0  0
    8.2617    2.4358   -5.8738 H   0  0  0  0  0  0  0  0  0  0  0  0
    8.7197    0.7735   -5.4643 H   0  0  0  0  0  0  0  0  0  0  0  0
    7.5477    1.0782   -6.7465 H   0  0  0  0  0  0  0  0  0  0  0  0
   -2.7550   -0.2135   -1.0704 H   0  0  0  0  0  0  0  0  0  0  0  0
  1  7  1  0  0  0  0
  2  8  1  0  0  0  0
  2  1  2  0  0  0  0
  3  2  1  0  0  0  0
  4  3  2  0  0  0  0
  4  5  1  0  0  0  0
  5  6  2  0  0  0  0
  6  1  1  0  0  0  0
  6 31  1  0  0  0  0
  9  4  1  0  0  0  0
 10  5  1  0  0  0  0
 11 12  3  0  0  0  0
 13 19  1  0  0  0  0
 13 18  2  0  0  0  0
 14 13  1  0  0  0  0
 15 14  2  0  0  0  0
 15 16  1  0  0  0  0
 16 17  2  0  0  0  0
 17 18  1  0  0  0  0
 17 22  1  0  0  0  0
 18 23  1  0  0  0  0
 20 14  1  0  0  0  0
 21 16  1  0  0  0  0
 23 26  2  0  0  0  0
 23 24  2  0  0  0  0
 25  3  1  0  0  0  0
 25 23  1  0  0  0  0
 27 29  1  0  0  0  0
 27 15  1  0  0  0  0
 28 27  1  0  0  0  0
 30 27  1  0  0  0  0
M  END
