Coordinates from ORCA-job Ph-N2-OTs-B3LYPG-6-31G_dp-MTMO-d009-169-n800
 OpenBabel09051907503D

 31 31  0  0  0  0  0  0  0  0999 V2000
   -0.6286   -0.3049   -1.3338 C   0  0  0  0  0  0  0  0  0  0  0  0
    0.7120   -0.3680   -1.7166 C   0  0  0  0  0  0  0  0  0  0  0  0
    1.2131    0.6166   -2.5674 C   0  0  0  0  0  0  0  0  0  0  0  0
    0.4110    1.6531   -3.0399 C   0  0  0  0  0  0  0  0  0  0  0  0
   -0.9297    1.6981   -2.6565 C   0  0  0  0  0  0  0  0  0  0  0  0
   -1.4502    0.7228   -1.8025 C   0  0  0  0  0  0  0  0  0  0  0  0
   -1.0307   -1.0640   -0.6691 H   0  0  0  0  0  0  0  0  0  0  0  0
    1.3673   -1.1563   -1.3649 H   0  0  0  0  0  0  0  0  0  0  0  0
    0.8411    2.4021   -3.6960 H   0  0  0  0  0  0  0  0  0  0  0  0
   -1.5653    2.4994   -3.0217 H   0  0  0  0  0  0  0  0  0  0  0  0
    7.0814    6.8504   -5.3755 N   0  0  0  0  0  0  0  0  0  0  0  0
    7.0174    5.7473   -5.3585 N   0  0  0  0  0  0  0  0  0  0  0  0
    5.5301    2.0767   -3.7267 C   0  0  0  0  0  0  0  0  0  0  0  0
    6.6095    1.9937   -4.6022 C   0  0  0  0  0  0  0  0  0  0  0  0
    7.2644    0.7739   -4.8309 C   0  0  0  0  0  0  0  0  0  0  0  0
    6.8113   -0.3691   -4.1561 C   0  0  0  0  0  0  0  0  0  0  0  0
    5.7358   -0.3065   -3.2730 C   0  0  0  0  0  0  0  0  0  0  0  0
    5.1020    0.9203   -3.0727 C   0  0  0  0  0  0  0  0  0  0  0  0
    5.0281    3.0198   -3.5416 H   0  0  0  0  0  0  0  0  0  0  0  0
    6.9489    2.8910   -5.1116 H   0  0  0  0  0  0  0  0  0  0  0  0
    7.3093   -1.3204   -4.3218 H   0  0  0  0  0  0  0  0  0  0  0  0
    5.3955   -1.1881   -2.7416 H   0  0  0  0  0  0  0  0  0  0  0  0
    3.7290    1.0208   -1.9457 S   0  0  0  0  0  0  0  0  0  0  0  0
    3.8551   -0.0110   -0.9178 O   0  0  0  0  0  0  0  0  0  0  0  0
    2.5404    0.5434   -3.0224 O   0  0  0  0  0  0  0  0  0  0  0  0
    3.4845    2.4125   -1.5758 O   0  0  0  0  0  0  0  0  0  0  0  0
    8.4501    0.7035   -5.7624 C   0  0  0  0  0  0  0  0  0  0  0  0
    8.3152    1.3555   -6.6305 H   0  0  0  0  0  0  0  0  0  0  0  0
    9.3660    1.0280   -5.2531 H   0  0  0  0  0  0  0  0  0  0  0  0
    8.6182   -0.3147   -6.1219 H   0  0  0  0  0  0  0  0  0  0  0  0
   -2.4926    0.7647   -1.5015 H   0  0  0  0  0  0  0  0  0  0  0  0
  1  7  1  0  0  0  0
  2  8  1  0  0  0  0
  2  1  1  0  0  0  0
  3  2  2  0  0  0  0
  4  5  2  0  0  0  0
  4  3  1  0  0  0  0
  5  6  1  0  0  0  0
  6 31  1  0  0  0  0
  6  1  2  0  0  0  0
  9  4  1  0  0  0  0
 10  5  1  0  0  0  0
 11 12  3  0  0  0  0
 13 19  1  0  0  0  0
 13 18  2  0  0  0  0
 14 13  1  0  0  0  0
 15 14  2  0  0  0  0
 15 16  1  0  0  0  0
 16 17  2  0  0  0  0
 17 18  1  0  0  0  0
 17 22  1  0  0  0  0
 18 23  1  0  0  0  0
 20 14  1  0  0  0  0
 21 16  1  0  0  0  0
 23 26  2  0  0  0  0
 23 24  2  0  0  0  0
 25  3  1  0  0  0  0
 25 23  1  0  0  0  0
 27 29  1  0  0  0  0
 27 15  1  0  0  0  0
 28 27  1  0  0  0  0
 30 27  1  0  0  0  0
M  END
