Coordinates from ORCA-job Ph-N2-OTs-B3LYPG-6-31G_dp-MTMO-d009-169-n800
 OpenBabel09051907493D

 31 30  0  0  0  0  0  0  0  0999 V2000
    0.0580    0.1280   -1.5007 C   0  0  0  0  0  0  0  0  0  0  0  0
    0.7002    1.1483   -2.2349 C   0  0  0  0  0  0  0  0  0  0  0  0
    0.0124    2.1827   -2.4532 C   0  0  0  0  0  0  0  0  0  0  0  0
   -1.2440    2.6392   -2.1796 C   0  0  0  0  0  0  0  0  0  0  0  0
   -1.8989    1.6227   -1.4429 C   0  0  0  0  0  0  0  0  0  0  0  0
   -1.2652    0.4102   -1.1172 C   0  0  0  0  0  0  0  0  0  0  0  0
    0.5336   -0.8130   -1.2419 H   0  0  0  0  0  0  0  0  0  0  0  0
    2.5018    0.8716   -2.8350 H   0  0  0  0  0  0  0  0  0  0  0  0
   -1.6935    3.5850   -2.4503 H   0  0  0  0  0  0  0  0  0  0  0  0
   -2.9226    1.7994   -1.1243 H   0  0  0  0  0  0  0  0  0  0  0  0
    1.0028    4.3710   -3.7764 N   0  0  0  0  0  0  0  0  0  0  0  0
    1.8502    4.9616   -4.1688 N   0  0  0  0  0  0  0  0  0  0  0  0
    6.7309    1.3693   -3.1241 C   0  0  0  0  0  0  0  0  0  0  0  0
    7.9895    0.8229   -3.3674 C   0  0  0  0  0  0  0  0  0  0  0  0
    8.2688    0.1498   -4.5654 C   0  0  0  0  0  0  0  0  0  0  0  0
    7.2499    0.0348   -5.5232 C   0  0  0  0  0  0  0  0  0  0  0  0
    5.9860    0.5745   -5.2988 C   0  0  0  0  0  0  0  0  0  0  0  0
    5.7383    1.2346   -4.0945 C   0  0  0  0  0  0  0  0  0  0  0  0
    6.5169    1.9000   -2.2032 H   0  0  0  0  0  0  0  0  0  0  0  0
    8.7684    0.9241   -2.6161 H   0  0  0  0  0  0  0  0  0  0  0  0
    7.4507   -0.4815   -6.4582 H   0  0  0  0  0  0  0  0  0  0  0  0
    5.2010    0.4969   -6.0433 H   0  0  0  0  0  0  0  0  0  0  0  0
    4.1255    1.9306   -3.7960 S   0  0  0  0  0  0  0  0  0  0  0  0
    3.4348    0.6335   -3.0980 O   0  0  0  0  0  0  0  0  0  0  0  0
    3.4633    2.1934   -5.0752 O   0  0  0  0  0  0  0  0  0  0  0  0
    4.2316    3.0044   -2.8061 O   0  0  0  0  0  0  0  0  0  0  0  0
    9.6444   -0.4111   -4.8350 C   0  0  0  0  0  0  0  0  0  0  0  0
   10.2505    0.2996   -5.4110 H   0  0  0  0  0  0  0  0  0  0  0  0
   10.1810   -0.6204   -3.9056 H   0  0  0  0  0  0  0  0  0  0  0  0
    9.5925   -1.3375   -5.4149 H   0  0  0  0  0  0  0  0  0  0  0  0
   -1.8193   -0.3335   -0.5504 H   0  0  0  0  0  0  0  0  0  0  0  0
  1  7  1  0  0  0  0
  1  6  2  0  0  0  0
  2  1  1  0  0  0  0
  3  2  2  0  0  0  0
  3  4  1  0  0  0  0
  4  5  2  0  0  0  0
  5 10  1  0  0  0  0
  5  6  1  0  0  0  0
  6 31  1  0  0  0  0
  9  4  1  0  0  0  0
 12 11  3  0  0  0  0
 13 19  1  0  0  0  0
 14 13  1  0  0  0  0
 14 20  1  0  0  0  0
 15 14  2  0  0  0  0
 16 17  2  0  0  0  0
 16 15  1  0  0  0  0
 17 18  1  0  0  0  0
 18 23  1  0  0  0  0
 18 13  2  0  0  0  0
 21 16  1  0  0  0  0
 22 17  1  0  0  0  0
 23 24  1  0  0  0  0
 23 26  2  0  0  0  0
 24  8  1  0  0  0  0
 25 23  2  0  0  0  0
 27 15  1  0  0  0  0
 27 29  1  0  0  0  0
 28 27  1  0  0  0  0
 30 27  1  0  0  0  0
M  RAD  2   2   2   3   2
M  END
