Coordinates from ORCA-job Ph-N2-OTs-B3LYPG-6-31G_dp-MTMO-d009-169-n800
 OpenBabel09051907503D

 31 31  0  0  0  0  0  0  0  0999 V2000
   -0.8727   -1.1028   -1.3378 C   0  0  0  0  0  0  0  0  0  0  0  0
    0.4298   -0.8934   -1.7924 C   0  0  0  0  0  0  0  0  0  0  0  0
    0.7716    0.3594   -2.2984 C   0  0  0  0  0  0  0  0  0  0  0  0
   -0.1493    1.4039   -2.3532 C   0  0  0  0  0  0  0  0  0  0  0  0
   -1.4485    1.1804   -1.8957 C   0  0  0  0  0  0  0  0  0  0  0  0
   -1.8115   -0.0697   -1.3890 C   0  0  0  0  0  0  0  0  0  0  0  0
   -1.1522   -2.0743   -0.9415 H   0  0  0  0  0  0  0  0  0  0  0  0
    1.1773   -1.6780   -1.7592 H   0  0  0  0  0  0  0  0  0  0  0  0
    0.1580    2.3658   -2.7471 H   0  0  0  0  0  0  0  0  0  0  0  0
   -2.1761    1.9857   -1.9347 H   0  0  0  0  0  0  0  0  0  0  0  0
   14.7564    6.1980   -8.5130 N   0  0  0  0  0  0  0  0  0  0  0  0
   13.7935    5.7048   -8.2865 N   0  0  0  0  0  0  0  0  0  0  0  0
    4.8333    2.3830   -3.5694 C   0  0  0  0  0  0  0  0  0  0  0  0
    5.8934    2.4388   -4.4716 C   0  0  0  0  0  0  0  0  0  0  0  0
    6.6884    1.3124   -4.7280 C   0  0  0  0  0  0  0  0  0  0  0  0
    6.4034    0.1198   -4.0451 C   0  0  0  0  0  0  0  0  0  0  0  0
    5.3498    0.0431   -3.1386 C   0  0  0  0  0  0  0  0  0  0  0  0
    4.5699    1.1793   -2.9155 C   0  0  0  0  0  0  0  0  0  0  0  0
    4.2264    3.2568   -3.3603 H   0  0  0  0  0  0  0  0  0  0  0  0
    6.1107    3.3736   -4.9806 H   0  0  0  0  0  0  0  0  0  0  0  0
    7.0190   -0.7582   -4.2218 H   0  0  0  0  0  0  0  0  0  0  0  0
    5.1395   -0.8740   -2.5995 H   0  0  0  0  0  0  0  0  0  0  0  0
    3.2253    1.0981   -1.7525 S   0  0  0  0  0  0  0  0  0  0  0  0
    3.4737    0.0411   -0.7748 O   0  0  0  0  0  0  0  0  0  0  0  0
    2.0597    0.5566   -2.8247 O   0  0  0  0  0  0  0  0  0  0  0  0
    2.8609    2.4444   -1.3173 O   0  0  0  0  0  0  0  0  0  0  0  0
    7.8148    1.3744   -5.7304 C   0  0  0  0  0  0  0  0  0  0  0  0
    8.1873    2.3948   -5.8529 H   0  0  0  0  0  0  0  0  0  0  0  0
    8.6524    0.7374   -5.4315 H   0  0  0  0  0  0  0  0  0  0  0  0
    7.4788    1.0279   -6.7156 H   0  0  0  0  0  0  0  0  0  0  0  0
   -2.8234   -0.2380   -1.0331 H   0  0  0  0  0  0  0  0  0  0  0  0
  1  7  1  0  0  0  0
  2  8  1  0  0  0  0
  2  1  2  0  0  0  0
  3  2  1  0  0  0  0
  4  3  2  0  0  0  0
  4  5  1  0  0  0  0
  5  6  2  0  0  0  0
  6  1  1  0  0  0  0
  6 31  1  0  0  0  0
  9  4  1  0  0  0  0
 10  5  1  0  0  0  0
 11 12  3  0  0  0  0
 13 19  1  0  0  0  0
 13 18  2  0  0  0  0
 14 13  1  0  0  0  0
 15 14  2  0  0  0  0
 15 16  1  0  0  0  0
 16 17  2  0  0  0  0
 17 18  1  0  0  0  0
 17 22  1  0  0  0  0
 18 23  1  0  0  0  0
 20 14  1  0  0  0  0
 21 16  1  0  0  0  0
 23 26  2  0  0  0  0
 23 24  2  0  0  0  0
 25  3  1  0  0  0  0
 25 23  1  0  0  0  0
 27 29  1  0  0  0  0
 27 15  1  0  0  0  0
 28 27  1  0  0  0  0
 30 27  1  0  0  0  0
M  END
