Coordinates from ORCA-job Ph-N2-OTs-B3LYPG-6-31G_dp-MTMO-d009-169-n800
 OpenBabel09051907493D

 31 30  0  0  0  0  0  0  0  0999 V2000
    0.1396    0.2134   -1.5585 C   0  0  0  0  0  0  0  0  0  0  0  0
    0.7380    1.2683   -2.2883 C   0  0  0  0  0  0  0  0  0  0  0  0
   -0.0205    2.2656   -2.4737 C   0  0  0  0  0  0  0  0  0  0  0  0
   -1.2954    2.6500   -2.1783 C   0  0  0  0  0  0  0  0  0  0  0  0
   -1.8915    1.5946   -1.4502 C   0  0  0  0  0  0  0  0  0  0  0  0
   -1.1899    0.4133   -1.1520 C   0  0  0  0  0  0  0  0  0  0  0  0
    0.6666   -0.7061   -1.3203 H   0  0  0  0  0  0  0  0  0  0  0  0
    2.4915    0.9778   -2.8559 H   0  0  0  0  0  0  0  0  0  0  0  0
   -1.7922    3.5768   -2.4318 H   0  0  0  0  0  0  0  0  0  0  0  0
   -2.9188    1.7145   -1.1175 H   0  0  0  0  0  0  0  0  0  0  0  0
    0.8521    4.1944   -3.6503 N   0  0  0  0  0  0  0  0  0  0  0  0
    1.7161    4.7646   -4.0377 N   0  0  0  0  0  0  0  0  0  0  0  0
    6.7400    1.3821   -3.1283 C   0  0  0  0  0  0  0  0  0  0  0  0
    7.9880    0.8081   -3.3616 C   0  0  0  0  0  0  0  0  0  0  0  0
    8.2589    0.1208   -4.5535 C   0  0  0  0  0  0  0  0  0  0  0  0
    7.2423    0.0201   -5.5152 C   0  0  0  0  0  0  0  0  0  0  0  0
    5.9887    0.5874   -5.3004 C   0  0  0  0  0  0  0  0  0  0  0  0
    5.7490    1.2611   -4.1022 C   0  0  0  0  0  0  0  0  0  0  0  0
    6.5328    1.9241   -2.2122 H   0  0  0  0  0  0  0  0  0  0  0  0
    8.7655    0.8984   -2.6073 H   0  0  0  0  0  0  0  0  0  0  0  0
    7.4366   -0.5067   -6.4457 H   0  0  0  0  0  0  0  0  0  0  0  0
    5.2056    0.5209   -6.0480 H   0  0  0  0  0  0  0  0  0  0  0  0
    4.1490    1.9919   -3.8159 S   0  0  0  0  0  0  0  0  0  0  0  0
    3.4295    0.7218   -3.1068 O   0  0  0  0  0  0  0  0  0  0  0  0
    3.4975    2.2558   -5.1010 O   0  0  0  0  0  0  0  0  0  0  0  0
    4.2762    3.0769   -2.8400 O   0  0  0  0  0  0  0  0  0  0  0  0
    9.6239   -0.4703   -4.8126 C   0  0  0  0  0  0  0  0  0  0  0  0
   10.2497    0.2263   -5.3848 H   0  0  0  0  0  0  0  0  0  0  0  0
   10.1491   -0.6903   -3.8790 H   0  0  0  0  0  0  0  0  0  0  0  0
    9.5561   -1.3961   -5.3919 H   0  0  0  0  0  0  0  0  0  0  0  0
   -1.6944   -0.3687   -0.5905 H   0  0  0  0  0  0  0  0  0  0  0  0
  1  7  1  0  0  0  0
  1  6  2  0  0  0  0
  2  1  1  0  0  0  0
  3  2  2  0  0  0  0
  3  4  1  0  0  0  0
  4  5  2  0  0  0  0
  5  6  1  0  0  0  0
  5 10  1  0  0  0  0
  6 31  1  0  0  0  0
  9  4  1  0  0  0  0
 12 11  3  0  0  0  0
 13 19  1  0  0  0  0
 14 13  1  0  0  0  0
 14 20  1  0  0  0  0
 15 14  2  0  0  0  0
 16 17  2  0  0  0  0
 16 15  1  0  0  0  0
 17 18  1  0  0  0  0
 18 23  1  0  0  0  0
 18 13  2  0  0  0  0
 21 16  1  0  0  0  0
 22 17  1  0  0  0  0
 23 24  1  0  0  0  0
 23 26  2  0  0  0  0
 24  8  1  0  0  0  0
 25 23  2  0  0  0  0
 27 15  1  0  0  0  0
 27 29  1  0  0  0  0
 28 27  1  0  0  0  0
 30 27  1  0  0  0  0
M  RAD  2   2   2   3   2
M  END
