Coordinates from ORCA-job Ph-N2-OTs-B3LYPG-6-31G_dp-MTMO-d009-169-n800
 OpenBabel09051907493D

 31 32  0  0  1  0  0  0  0  0999 V2000
    0.8435    0.4510   -1.8550 C   0  0  0  0  0  0  0  0  0  0  0  0
    1.1517    0.9996   -3.2045 C   0  0  1  0  0  0  0  0  0  0  0  0
    0.6664    2.3951   -3.3066 C   0  0  1  0  0  0  0  0  0  0  0  0
    0.3420    3.2304   -2.1957 C   0  0  0  0  0  0  0  0  0  0  0  0
    0.2713    2.6646   -0.9590 C   0  0  0  0  0  0  0  0  0  0  0  0
    0.4855    1.2442   -0.8173 C   0  0  0  0  0  0  0  0  0  0  0  0
    0.9775   -0.6182   -1.7293 H   0  0  0  0  0  0  0  0  0  0  0  0
    0.7971    0.3541   -4.0103 H   0  0  0  0  0  0  0  0  0  0  0  0
    0.1454    4.2845   -2.3610 H   0  0  0  0  0  0  0  0  0  0  0  0
    0.0252    3.2655   -0.0913 H   0  0  0  0  0  0  0  0  0  0  0  0
    0.6002    2.9628   -4.6072 N   0  0  0  0  0  0  0  0  0  0  0  0
    0.5518    3.4074   -5.6466 N   0  0  0  0  0  0  0  0  0  0  0  0
    5.7138    1.6281   -4.7313 C   0  0  0  0  0  0  0  0  0  0  0  0
    7.0768    1.6923   -4.4517 C   0  0  0  0  0  0  0  0  0  0  0  0
    7.7442    0.6196   -3.8420 C   0  0  0  0  0  0  0  0  0  0  0  0
    7.0085   -0.5294   -3.5159 C   0  0  0  0  0  0  0  0  0  0  0  0
    5.6451   -0.6134   -3.7873 C   0  0  0  0  0  0  0  0  0  0  0  0
    5.0094    0.4727   -4.3905 C   0  0  0  0  0  0  0  0  0  0  0  0
    5.1997    2.4520   -5.2140 H   0  0  0  0  0  0  0  0  0  0  0  0
    7.6328    2.5884   -4.7139 H   0  0  0  0  0  0  0  0  0  0  0  0
    7.5110   -1.3706   -3.0459 H   0  0  0  0  0  0  0  0  0  0  0  0
    5.0782   -1.5056   -3.5462 H   0  0  0  0  0  0  0  0  0  0  0  0
    3.2648    0.3771   -4.7372 S   0  0  0  0  0  0  0  0  0  0  0  0
    2.8646   -1.0273   -4.8692 O   0  0  0  0  0  0  0  0  0  0  0  0
    2.9229    1.3197   -5.8098 O   0  0  0  0  0  0  0  0  0  0  0  0
    2.6971    0.9594   -3.3273 O   0  0  0  0  0  0  0  0  0  0  0  0
    9.2280    0.6873   -3.5735 C   0  0  0  0  0  0  0  0  0  0  0  0
    9.7987    0.3285   -4.4394 H   0  0  0  0  0  0  0  0  0  0  0  0
    9.5530    1.7121   -3.3728 H   0  0  0  0  0  0  0  0  0  0  0  0
    9.5092    0.0657   -2.7187 H   0  0  0  0  0  0  0  0  0  0  0  0
    0.3243    0.7932    0.1585 H   0  0  0  0  0  0  0  0  0  0  0  0
  1  7  1  0  0  0  0
  1  6  2  0  0  0  0
  2  8  1  6  0  0  0
  2  1  1  0  0  0  0
  3 11  1  1  0  0  0
  3  2  1  0  0  0  0
  3  4  1  0  0  0  0
  4  5  2  0  0  0  0
  5  6  1  0  0  0  0
  5 10  1  0  0  0  0
  6 31  1  0  0  0  0
  9  4  1  0  0  0  0
 12 11  1  0  0  0  0
 13 14  2  0  0  0  0
 13 18  1  0  0  0  0
 14 15  1  0  0  0  0
 15 27  1  0  0  0  0
 15 16  2  0  0  0  0
 16 21  1  0  0  0  0
 17 22  1  0  0  0  0
 17 16  1  0  0  0  0
 18 17  2  0  0  0  0
 19 13  1  0  0  0  0
 20 14  1  0  0  0  0
 23 18  1  0  0  0  0
 23 26  1  0  0  0  0
 24 23  2  0  0  0  0
 25 23  2  0  0  0  0
 26  2  1  0  0  0  0
 27 29  1  0  0  0  0
 27 30  1  0  0  0  0
 28 27  1  0  0  0  0
M  RAD  3   3   2  11   2  12   3
M  END
