Coordinates from ORCA-job Ph-N2-OTs-B3LYPG-6-31G_dp-MTMO-d009-169-n800
 OpenBabel09051907503D

 31 31  0  0  0  0  0  0  0  0999 V2000
   -0.7430   -1.0609   -1.4061 C   0  0  0  0  0  0  0  0  0  0  0  0
    0.5587   -0.8444   -1.8597 C   0  0  0  0  0  0  0  0  0  0  0  0
    0.8955    0.4117   -2.3606 C   0  0  0  0  0  0  0  0  0  0  0  0
   -0.0296    1.4528   -2.4112 C   0  0  0  0  0  0  0  0  0  0  0  0
   -1.3278    1.2223   -1.9547 C   0  0  0  0  0  0  0  0  0  0  0  0
   -1.6859   -0.0314   -1.4532 C   0  0  0  0  0  0  0  0  0  0  0  0
   -1.0187   -2.0351   -1.0138 H   0  0  0  0  0  0  0  0  0  0  0  0
    1.3093   -1.6261   -1.8297 H   0  0  0  0  0  0  0  0  0  0  0  0
    0.2740    2.4175   -2.8012 H   0  0  0  0  0  0  0  0  0  0  0  0
   -2.0586    2.0248   -1.9904 H   0  0  0  0  0  0  0  0  0  0  0  0
   12.9693    5.2726   -7.6690 N   0  0  0  0  0  0  0  0  0  0  0  0
   11.9950    4.8079   -7.4317 N   0  0  0  0  0  0  0  0  0  0  0  0
    4.9539    2.4549   -3.6211 C   0  0  0  0  0  0  0  0  0  0  0  0
    6.0151    2.5166   -4.5213 C   0  0  0  0  0  0  0  0  0  0  0  0
    6.8125    1.3927   -4.7817 C   0  0  0  0  0  0  0  0  0  0  0  0
    6.5285    0.1966   -4.1048 C   0  0  0  0  0  0  0  0  0  0  0  0
    5.4736    0.1140   -3.2000 C   0  0  0  0  0  0  0  0  0  0  0  0
    4.6915    1.2477   -2.9730 C   0  0  0  0  0  0  0  0  0  0  0  0
    4.3451    3.3266   -3.4088 H   0  0  0  0  0  0  0  0  0  0  0  0
    6.2318    3.4541   -5.0256 H   0  0  0  0  0  0  0  0  0  0  0  0
    7.1457   -0.6796   -4.2845 H   0  0  0  0  0  0  0  0  0  0  0  0
    5.2643   -0.8060   -2.6654 H   0  0  0  0  0  0  0  0  0  0  0  0
    3.3460    1.1590   -1.8115 S   0  0  0  0  0  0  0  0  0  0  0  0
    3.5969    0.1004   -0.8363 O   0  0  0  0  0  0  0  0  0  0  0  0
    2.1829    0.6162   -2.8859 O   0  0  0  0  0  0  0  0  0  0  0  0
    2.9767    2.5030   -1.3733 O   0  0  0  0  0  0  0  0  0  0  0  0
    7.9399    1.4613   -5.7827 C   0  0  0  0  0  0  0  0  0  0  0  0
    8.3234    2.4798   -5.8867 H   0  0  0  0  0  0  0  0  0  0  0  0
    8.7705    0.8101   -5.4956 H   0  0  0  0  0  0  0  0  0  0  0  0
    7.6003    1.1367   -6.7741 H   0  0  0  0  0  0  0  0  0  0  0  0
   -2.6972   -0.2051   -1.0980 H   0  0  0  0  0  0  0  0  0  0  0  0
  1  7  1  0  0  0  0
  2  8  1  0  0  0  0
  2  1  2  0  0  0  0
  3  2  1  0  0  0  0
  4  3  2  0  0  0  0
  4  5  1  0  0  0  0
  5  6  2  0  0  0  0
  6  1  1  0  0  0  0
  6 31  1  0  0  0  0
  9  4  1  0  0  0  0
 10  5  1  0  0  0  0
 11 12  3  0  0  0  0
 13 19  1  0  0  0  0
 13 18  2  0  0  0  0
 14 13  1  0  0  0  0
 15 14  2  0  0  0  0
 15 16  1  0  0  0  0
 16 17  2  0  0  0  0
 17 18  1  0  0  0  0
 17 22  1  0  0  0  0
 18 23  1  0  0  0  0
 20 14  1  0  0  0  0
 21 16  1  0  0  0  0
 23 26  2  0  0  0  0
 23 24  2  0  0  0  0
 25  3  1  0  0  0  0
 25 23  1  0  0  0  0
 27 29  1  0  0  0  0
 27 15  1  0  0  0  0
 28 27  1  0  0  0  0
 30 27  1  0  0  0  0
M  END
