Coordinates from ORCA-job Ph-N2-OTs-B3LYPG-6-31G_dp-MTMO-d009-169-n800
 OpenBabel09051907503D

 31 31  0  0  0  0  0  0  0  0999 V2000
   -0.6389   -0.9561   -1.3947 C   0  0  0  0  0  0  0  0  0  0  0  0
    0.6605   -0.7635   -1.8653 C   0  0  0  0  0  0  0  0  0  0  0  0
    1.0055    0.4775   -2.3974 C   0  0  0  0  0  0  0  0  0  0  0  0
    0.0908    1.5270   -2.4624 C   0  0  0  0  0  0  0  0  0  0  0  0
   -1.2053    1.3204   -1.9886 C   0  0  0  0  0  0  0  0  0  0  0  0
   -1.5716    0.0820   -1.4559 C   0  0  0  0  0  0  0  0  0  0  0  0
   -0.9209   -1.9185   -0.9784 H   0  0  0  0  0  0  0  0  0  0  0  0
    1.4033   -1.5522   -1.8247 H   0  0  0  0  0  0  0  0  0  0  0  0
    0.4006    2.4795   -2.8766 H   0  0  0  0  0  0  0  0  0  0  0  0
   -1.9281    2.1296   -2.0355 H   0  0  0  0  0  0  0  0  0  0  0  0
   11.3492    5.1795   -6.6559 N   0  0  0  0  0  0  0  0  0  0  0  0
   10.4362    4.5935   -6.4454 N   0  0  0  0  0  0  0  0  0  0  0  0
    5.0789    2.4314   -3.7524 C   0  0  0  0  0  0  0  0  0  0  0  0
    6.1334    2.4509   -4.6623 C   0  0  0  0  0  0  0  0  0  0  0  0
    6.9146    1.3090   -4.8929 C   0  0  0  0  0  0  0  0  0  0  0  0
    6.6215    0.1394   -4.1749 C   0  0  0  0  0  0  0  0  0  0  0  0
    5.5731    0.0990   -3.2597 C   0  0  0  0  0  0  0  0  0  0  0  0
    4.8067    1.2490   -3.0636 C   0  0  0  0  0  0  0  0  0  0  0  0
    4.4826    3.3172   -3.5637 H   0  0  0  0  0  0  0  0  0  0  0  0
    6.3577    3.3688   -5.1983 H   0  0  0  0  0  0  0  0  0  0  0  0
    7.2264   -0.7499   -4.3311 H   0  0  0  0  0  0  0  0  0  0  0  0
    5.3569   -0.8006   -2.6940 H   0  0  0  0  0  0  0  0  0  0  0  0
    3.4688    1.2138   -1.8904 S   0  0  0  0  0  0  0  0  0  0  0  0
    3.7118    0.1809   -0.8859 O   0  0  0  0  0  0  0  0  0  0  0  0
    2.2897    0.6562   -2.9398 O   0  0  0  0  0  0  0  0  0  0  0  0
    3.1218    2.5753   -1.4895 O   0  0  0  0  0  0  0  0  0  0  0  0
    8.0326    1.3305   -5.9063 C   0  0  0  0  0  0  0  0  0  0  0  0
    8.4511    2.3334   -6.0252 H   0  0  0  0  0  0  0  0  0  0  0  0
    8.8424    0.6521   -5.6227 H   0  0  0  0  0  0  0  0  0  0  0  0
    7.6696    1.0089   -6.8906 H   0  0  0  0  0  0  0  0  0  0  0  0
   -2.5812   -0.0731   -1.0877 H   0  0  0  0  0  0  0  0  0  0  0  0
  1  7  1  0  0  0  0
  2  8  1  0  0  0  0
  2  1  2  0  0  0  0
  3  2  1  0  0  0  0
  4  3  2  0  0  0  0
  4  5  1  0  0  0  0
  5  6  2  0  0  0  0
  6  1  1  0  0  0  0
  6 31  1  0  0  0  0
  9  4  1  0  0  0  0
 10  5  1  0  0  0  0
 11 12  3  0  0  0  0
 13 19  1  0  0  0  0
 13 18  2  0  0  0  0
 14 13  1  0  0  0  0
 15 14  2  0  0  0  0
 15 16  1  0  0  0  0
 16 17  2  0  0  0  0
 17 18  1  0  0  0  0
 17 22  1  0  0  0  0
 18 23  1  0  0  0  0
 20 14  1  0  0  0  0
 21 16  1  0  0  0  0
 23 26  2  0  0  0  0
 23 24  2  0  0  0  0
 25  3  1  0  0  0  0
 25 23  1  0  0  0  0
 27 29  1  0  0  0  0
 27 15  1  0  0  0  0
 28 27  1  0  0  0  0
 30 27  1  0  0  0  0
M  END
