Coordinates from ORCA-job Ph-N2-OTs-B3LYPG-6-31G_dp-MTMO-d009-169-n800
 OpenBabel09051907503D

 31 30  0  0  0  0  0  0  0  0999 V2000
   -0.3213   -0.0245   -1.1041 C   0  0  0  0  0  0  0  0  0  0  0  0
    0.7869    0.5620   -1.7454 C   0  0  0  0  0  0  0  0  0  0  0  0
    0.5454    1.5479   -2.4918 C   0  0  0  0  0  0  0  0  0  0  0  0
   -0.5409    2.2680   -2.8979 C   0  0  0  0  0  0  0  0  0  0  0  0
   -1.6664    1.6875   -2.2625 C   0  0  0  0  0  0  0  0  0  0  0  0
   -1.5568    0.5819   -1.3990 C   0  0  0  0  0  0  0  0  0  0  0  0
   -0.2543   -0.8774   -0.4353 H   0  0  0  0  0  0  0  0  0  0  0  0
    2.7838    0.3470   -1.8825 H   0  0  0  0  0  0  0  0  0  0  0  0
   -0.5804    3.1198   -3.5628 H   0  0  0  0  0  0  0  0  0  0  0  0
   -2.6433    2.1225   -2.4571 H   0  0  0  0  0  0  0  0  0  0  0  0
    1.4296    4.5656   -4.6671 N   0  0  0  0  0  0  0  0  0  0  0  0
    2.3990    4.9981   -4.9729 N   0  0  0  0  0  0  0  0  0  0  0  0
    6.9608    1.3396   -2.8460 C   0  0  0  0  0  0  0  0  0  0  0  0
    8.1099    0.9194   -3.5149 C   0  0  0  0  0  0  0  0  0  0  0  0
    8.0396    0.3697   -4.8017 C   0  0  0  0  0  0  0  0  0  0  0  0
    6.7806    0.2481   -5.4124 C   0  0  0  0  0  0  0  0  0  0  0  0
    5.6228    0.6614   -4.7613 C   0  0  0  0  0  0  0  0  0  0  0  0
    5.7257    1.2018   -3.4771 C   0  0  0  0  0  0  0  0  0  0  0  0
    7.0130    1.7746   -1.8546 H   0  0  0  0  0  0  0  0  0  0  0  0
    9.0768    1.0229   -3.0303 H   0  0  0  0  0  0  0  0  0  0  0  0
    6.7098   -0.1730   -6.4113 H   0  0  0  0  0  0  0  0  0  0  0  0
    4.6523    0.5787   -5.2385 H   0  0  0  0  0  0  0  0  0  0  0  0
    4.2510    1.7357   -2.6327 S   0  0  0  0  0  0  0  0  0  0  0  0
    3.7644    0.3047   -2.0331 O   0  0  0  0  0  0  0  0  0  0  0  0
    3.2538    2.1770   -3.6178 O   0  0  0  0  0  0  0  0  0  0  0  0
    4.6259    2.6251   -1.5361 O   0  0  0  0  0  0  0  0  0  0  0  0
    9.2884   -0.0619   -5.5319 C   0  0  0  0  0  0  0  0  0  0  0  0
    9.5441    0.6503   -6.3257 H   0  0  0  0  0  0  0  0  0  0  0  0
   10.1453   -0.1276   -4.8564 H   0  0  0  0  0  0  0  0  0  0  0  0
    9.1544   -1.0391   -6.0070 H   0  0  0  0  0  0  0  0  0  0  0  0
   -2.4604    0.1848   -0.9445 H   0  0  0  0  0  0  0  0  0  0  0  0
  1  7  1  0  0  0  0
  2  1  2  0  0  0  0
  3  2  1  0  0  0  0
  4  3  2  0  0  0  0
  4  5  1  0  0  0  0
  5  6  2  0  0  0  0
  6  1  1  0  0  0  0
  6 31  1  0  0  0  0
  9  4  1  0  0  0  0
 10  5  1  0  0  0  0
 12 11  3  0  0  0  0
 13 19  1  0  0  0  0
 14 20  1  0  0  0  0
 14 13  2  0  0  0  0
 15 14  1  0  0  0  0
 16 15  2  0  0  0  0
 16 17  1  0  0  0  0
 17 18  2  0  0  0  0
 18 13  1  0  0  0  0
 18 23  1  0  0  0  0
 21 16  1  0  0  0  0
 22 17  1  0  0  0  0
 23 24  1  0  0  0  0
 23 26  2  0  0  0  0
 24  8  1  0  0  0  0
 25 23  2  0  0  0  0
 27 29  1  0  0  0  0
 27 15  1  0  0  0  0
 28 27  1  0  0  0  0
 30 27  1  0  0  0  0
M  RAD  2   2   2   3   2
M  END
