Coordinates from ORCA-job Ph-N2-OTs-B3LYPG-6-31G_dp-MTMO-d009-169-n800
 OpenBabel09051907503D

 31 31  0  0  0  0  0  0  0  0999 V2000
   -0.5499    0.1894   -1.5693 C   0  0  0  0  0  0  0  0  0  0  0  0
    0.7649   -0.0055   -1.9945 C   0  0  0  0  0  0  0  0  0  0  0  0
    1.4703    1.0816   -2.5090 C   0  0  0  0  0  0  0  0  0  0  0  0
    0.8985    2.3481   -2.6064 C   0  0  0  0  0  0  0  0  0  0  0  0
   -0.4194    2.5257   -2.1845 C   0  0  0  0  0  0  0  0  0  0  0  0
   -1.1436    1.4501   -1.6648 C   0  0  0  0  0  0  0  0  0  0  0  0
   -1.1107   -0.6481   -1.1654 H   0  0  0  0  0  0  0  0  0  0  0  0
    1.2463   -0.9745   -1.9298 H   0  0  0  0  0  0  0  0  0  0  0  0
    1.4839    3.1653   -3.0122 H   0  0  0  0  0  0  0  0  0  0  0  0
   -0.8786    3.5072   -2.2592 H   0  0  0  0  0  0  0  0  0  0  0  0
    3.6232    3.6530   -6.4639 N   0  0  0  0  0  0  0  0  0  0  0  0
    3.2424    3.7738   -5.4334 N   0  0  0  0  0  0  0  0  0  0  0  0
    5.9386    1.9740   -3.4244 C   0  0  0  0  0  0  0  0  0  0  0  0
    7.0000    1.9483   -4.3243 C   0  0  0  0  0  0  0  0  0  0  0  0
    7.4838    0.7367   -4.8425 C   0  0  0  0  0  0  0  0  0  0  0  0
    6.8821   -0.4587   -4.4256 C   0  0  0  0  0  0  0  0  0  0  0  0
    5.8189   -0.4555   -3.5247 C   0  0  0  0  0  0  0  0  0  0  0  0
    5.3542    0.7660   -3.0383 C   0  0  0  0  0  0  0  0  0  0  0  0
    5.5735    2.9080   -3.0120 H   0  0  0  0  0  0  0  0  0  0  0  0
    7.4654    2.8827   -4.6259 H   0  0  0  0  0  0  0  0  0  0  0  0
    7.2539   -1.4054   -4.8068 H   0  0  0  0  0  0  0  0  0  0  0  0
    5.3633   -1.3809   -3.1906 H   0  0  0  0  0  0  0  0  0  0  0  0
    4.0008    0.7864   -1.8823 S   0  0  0  0  0  0  0  0  0  0  0  0
    3.8983   -0.5119   -1.2186 O   0  0  0  0  0  0  0  0  0  0  0  0
    2.7712    0.9002   -3.0104 O   0  0  0  0  0  0  0  0  0  0  0  0
    4.0252    2.0209   -1.1025 O   0  0  0  0  0  0  0  0  0  0  0  0
    8.6175    0.7282   -5.8385 C   0  0  0  0  0  0  0  0  0  0  0  0
    8.2602    1.0023   -6.8387 H   0  0  0  0  0  0  0  0  0  0  0  0
    9.3943    1.4490   -5.5649 H   0  0  0  0  0  0  0  0  0  0  0  0
    9.0789   -0.2598   -5.9133 H   0  0  0  0  0  0  0  0  0  0  0  0
   -2.1678    1.5943   -1.3351 H   0  0  0  0  0  0  0  0  0  0  0  0
  1  7  1  0  0  0  0
  2  8  1  0  0  0  0
  2  1  2  0  0  0  0
  3  2  1  0  0  0  0
  4  3  2  0  0  0  0
  4  5  1  0  0  0  0
  5  6  2  0  0  0  0
  6  1  1  0  0  0  0
  6 31  1  0  0  0  0
  9  4  1  0  0  0  0
 10  5  1  0  0  0  0
 11 12  3  0  0  0  0
 13 18  1  0  0  0  0
 13 19  1  0  0  0  0
 14 13  2  0  0  0  0
 15 16  2  0  0  0  0
 15 14  1  0  0  0  0
 16 17  1  0  0  0  0
 17 22  1  0  0  0  0
 17 18  2  0  0  0  0
 18 23  1  0  0  0  0
 20 14  1  0  0  0  0
 21 16  1  0  0  0  0
 23 24  2  0  0  0  0
 23 26  2  0  0  0  0
 25  3  1  0  0  0  0
 25 23  1  0  0  0  0
 27 29  1  0  0  0  0
 27 15  1  0  0  0  0
 28 27  1  0  0  0  0
 30 27  1  0  0  0  0
M  END
