Coordinates from ORCA-job Ph-N2-OTs-B3LYPG-6-31G_dp-MTMO-d009-169-n800
 OpenBabel09051907503D

 31 31  0  0  0  0  0  0  0  0999 V2000
   -0.5758    0.2007   -1.7203 C   0  0  0  0  0  0  0  0  0  0  0  0
    0.7391    0.0258   -2.1540 C   0  0  0  0  0  0  0  0  0  0  0  0
    1.4788    1.1487   -2.5213 C   0  0  0  0  0  0  0  0  0  0  0  0
    0.9416    2.4328   -2.4618 C   0  0  0  0  0  0  0  0  0  0  0  0
   -0.3758    2.5920   -2.0311 C   0  0  0  0  0  0  0  0  0  0  0  0
   -1.1345    1.4795   -1.6596 C   0  0  0  0  0  0  0  0  0  0  0  0
   -1.1631   -0.6652   -1.4302 H   0  0  0  0  0  0  0  0  0  0  0  0
    1.1952   -0.9561   -2.2080 H   0  0  0  0  0  0  0  0  0  0  0  0
    1.5534    3.2789   -2.7534 H   0  0  0  0  0  0  0  0  0  0  0  0
   -0.8077    3.5874   -1.9824 H   0  0  0  0  0  0  0  0  0  0  0  0
    3.1986    3.0174   -6.4818 N   0  0  0  0  0  0  0  0  0  0  0  0
    3.2903    3.3825   -5.4426 N   0  0  0  0  0  0  0  0  0  0  0  0
    5.9553    2.0033   -3.4224 C   0  0  0  0  0  0  0  0  0  0  0  0
    7.0234    1.9751   -4.3141 C   0  0  0  0  0  0  0  0  0  0  0  0
    7.5060    0.7627   -4.8318 C   0  0  0  0  0  0  0  0  0  0  0  0
    6.8954   -0.4311   -4.4236 C   0  0  0  0  0  0  0  0  0  0  0  0
    5.8248   -0.4255   -3.5313 C   0  0  0  0  0  0  0  0  0  0  0  0
    5.3623    0.7966   -3.0446 C   0  0  0  0  0  0  0  0  0  0  0  0
    5.5910    2.9380   -3.0116 H   0  0  0  0  0  0  0  0  0  0  0  0
    7.4952    2.9083   -4.6095 H   0  0  0  0  0  0  0  0  0  0  0  0
    7.2658   -1.3784   -4.8047 H   0  0  0  0  0  0  0  0  0  0  0  0
    5.3617   -1.3495   -3.2038 H   0  0  0  0  0  0  0  0  0  0  0  0
    4.0024    0.8182   -1.8967 S   0  0  0  0  0  0  0  0  0  0  0  0
    3.8661   -0.4933   -1.2661 O   0  0  0  0  0  0  0  0  0  0  0  0
    2.7803    0.9880   -3.0279 O   0  0  0  0  0  0  0  0  0  0  0  0
    4.0485    2.0326   -1.0866 O   0  0  0  0  0  0  0  0  0  0  0  0
    8.6480    0.7518   -5.8184 C   0  0  0  0  0  0  0  0  0  0  0  0
    8.3007    1.0315   -6.8206 H   0  0  0  0  0  0  0  0  0  0  0  0
    9.4262    1.4674   -5.5356 H   0  0  0  0  0  0  0  0  0  0  0  0
    9.1047   -0.2384   -5.8930 H   0  0  0  0  0  0  0  0  0  0  0  0
   -2.1583    1.6090   -1.3226 H   0  0  0  0  0  0  0  0  0  0  0  0
  1  6  1  0  0  0  0
  1  7  1  0  0  0  0
  2  1  2  0  0  0  0
  3  4  2  0  0  0  0
  3  2  1  0  0  0  0
  4  5  1  0  0  0  0
  5 10  1  0  0  0  0
  5  6  2  0  0  0  0
  6 31  1  0  0  0  0
  8  2  1  0  0  0  0
  9  4  1  0  0  0  0
 11 12  3  0  0  0  0
 13 18  1  0  0  0  0
 13 19  1  0  0  0  0
 14 13  2  0  0  0  0
 15 16  2  0  0  0  0
 15 14  1  0  0  0  0
 16 17  1  0  0  0  0
 17 22  1  0  0  0  0
 17 18  2  0  0  0  0
 18 23  1  0  0  0  0
 20 14  1  0  0  0  0
 21 16  1  0  0  0  0
 23 24  2  0  0  0  0
 23 26  2  0  0  0  0
 25  3  1  0  0  0  0
 25 23  1  0  0  0  0
 27 29  1  0  0  0  0
 27 15  1  0  0  0  0
 28 27  1  0  0  0  0
 30 27  1  0  0  0  0
M  END
