Coordinates from ORCA-job Ph-N2-OTs-B3LYPG-6-31G_dp-MTMO-d009-169-n800
 OpenBabel09051907493D

 31 30  0  0  0  0  0  0  0  0999 V2000
   -0.0976    0.0409   -1.2912 C   0  0  0  0  0  0  0  0  0  0  0  0
    0.6859    0.8836   -2.1024 C   0  0  0  0  0  0  0  0  0  0  0  0
    0.1300    1.9112   -2.5699 C   0  0  0  0  0  0  0  0  0  0  0  0
   -1.1050    2.4933   -2.5124 C   0  0  0  0  0  0  0  0  0  0  0  0
   -1.9126    1.6600   -1.7002 C   0  0  0  0  0  0  0  0  0  0  0  0
   -1.4236    0.4786   -1.1140 C   0  0  0  0  0  0  0  0  0  0  0  0
    0.2667   -0.8721   -0.8312 H   0  0  0  0  0  0  0  0  0  0  0  0
    2.6027    0.6295   -2.5248 H   0  0  0  0  0  0  0  0  0  0  0  0
   -1.4444    3.4095   -2.9758 H   0  0  0  0  0  0  0  0  0  0  0  0
   -2.9444    1.9566   -1.5299 H   0  0  0  0  0  0  0  0  0  0  0  0
    1.1153    4.5193   -4.3410 N   0  0  0  0  0  0  0  0  0  0  0  0
    1.8624    5.1820   -4.8134 N   0  0  0  0  0  0  0  0  0  0  0  0
    6.8771    1.2774   -2.9541 C   0  0  0  0  0  0  0  0  0  0  0  0
    8.1018    0.7741   -3.3898 C   0  0  0  0  0  0  0  0  0  0  0  0
    8.2440    0.2181   -4.6686 C   0  0  0  0  0  0  0  0  0  0  0  0
    7.1216    0.1755   -5.5104 C   0  0  0  0  0  0  0  0  0  0  0  0
    5.8902    0.6734   -5.0936 C   0  0  0  0  0  0  0  0  0  0  0  0
    5.7800    1.2173   -3.8127 C   0  0  0  0  0  0  0  0  0  0  0  0
    6.7680    1.7179   -1.9694 H   0  0  0  0  0  0  0  0  0  0  0  0
    8.9619    0.8169   -2.7267 H   0  0  0  0  0  0  0  0  0  0  0  0
    7.2150   -0.2504   -6.5057 H   0  0  0  0  0  0  0  0  0  0  0  0
    5.0257    0.6521   -5.7483 H   0  0  0  0  0  0  0  0  0  0  0  0
    4.2105    1.8612   -3.2685 S   0  0  0  0  0  0  0  0  0  0  0  0
    3.5679    0.4751   -2.7020 O   0  0  0  0  0  0  0  0  0  0  0  0
    3.4259    2.2940   -4.4284 O   0  0  0  0  0  0  0  0  0  0  0  0
    4.4285    2.7851   -2.1561 O   0  0  0  0  0  0  0  0  0  0  0  0
    9.5812   -0.2963   -5.1450 C   0  0  0  0  0  0  0  0  0  0  0  0
   10.0997    0.4611   -5.7465 H   0  0  0  0  0  0  0  0  0  0  0  0
   10.2343   -0.5522   -4.3062 H   0  0  0  0  0  0  0  0  0  0  0  0
    9.4664   -1.1854   -5.7726 H   0  0  0  0  0  0  0  0  0  0  0  0
   -2.0955   -0.1166   -0.5010 H   0  0  0  0  0  0  0  0  0  0  0  0
  1  6  1  0  0  0  0
  1  7  1  0  0  0  0
  2  1  2  0  0  0  0
  3  4  2  0  0  0  0
  3  2  1  0  0  0  0
  4  5  1  0  0  0  0
  5 10  1  0  0  0  0
  5  6  2  0  0  0  0
  6 31  1  0  0  0  0
  9  4  1  0  0  0  0
 12 11  3  0  0  0  0
 13 19  1  0  0  0  0
 14 13  1  0  0  0  0
 14 20  1  0  0  0  0
 15 14  2  0  0  0  0
 16 17  2  0  0  0  0
 16 15  1  0  0  0  0
 17 18  1  0  0  0  0
 18 23  1  0  0  0  0
 18 13  2  0  0  0  0
 21 16  1  0  0  0  0
 22 17  1  0  0  0  0
 23 24  1  0  0  0  0
 23 26  2  0  0  0  0
 24  8  1  0  0  0  0
 25 23  2  0  0  0  0
 27 15  1  0  0  0  0
 27 29  1  0  0  0  0
 28 27  1  0  0  0  0
 30 27  1  0  0  0  0
M  RAD  2   2   2   3   2
M  END
