Coordinates from ORCA-job Ph-N2-OTs-B3LYPG-6-31G_dp-MTMO-d009-169-n800
 OpenBabel09051907503D

 31 31  0  0  0  0  0  0  0  0999 V2000
   -0.7348   -0.6351   -1.6633 C   0  0  0  0  0  0  0  0  0  0  0  0
    0.6049   -0.5809   -2.0503 C   0  0  0  0  0  0  0  0  0  0  0  0
    1.1187    0.6257   -2.5228 C   0  0  0  0  0  0  0  0  0  0  0  0
    0.3319    1.7725   -2.6114 C   0  0  0  0  0  0  0  0  0  0  0  0
   -1.0070    1.7028   -2.2250 C   0  0  0  0  0  0  0  0  0  0  0  0
   -1.5412    0.5022   -1.7509 C   0  0  0  0  0  0  0  0  0  0  0  0
   -1.1474   -1.5687   -1.2927 H   0  0  0  0  0  0  0  0  0  0  0  0
    1.2511   -1.4489   -1.9879 H   0  0  0  0  0  0  0  0  0  0  0  0
    0.7717    2.6930   -2.9783 H   0  0  0  0  0  0  0  0  0  0  0  0
   -1.6311    2.5891   -2.2925 H   0  0  0  0  0  0  0  0  0  0  0  0
    8.3423    6.0109   -7.2860 N   0  0  0  0  0  0  0  0  0  0  0  0
    8.0968    5.1168   -6.6847 N   0  0  0  0  0  0  0  0  0  0  0  0
    5.4540    2.2018   -3.4266 C   0  0  0  0  0  0  0  0  0  0  0  0
    6.5456    2.2295   -4.2922 C   0  0  0  0  0  0  0  0  0  0  0  0
    7.2035    1.0492   -4.6666 C   0  0  0  0  0  0  0  0  0  0  0  0
    6.7407   -0.1713   -4.1508 C   0  0  0  0  0  0  0  0  0  0  0  0
    5.6533   -0.2206   -3.2836 C   0  0  0  0  0  0  0  0  0  0  0  0
    5.0171    0.9721   -2.9341 C   0  0  0  0  0  0  0  0  0  0  0  0
    4.9510    3.1145   -3.1272 H   0  0  0  0  0  0  0  0  0  0  0  0
    6.8937    3.1810   -4.6834 H   0  0  0  0  0  0  0  0  0  0  0  0
    7.2412   -1.0943   -4.4305 H   0  0  0  0  0  0  0  0  0  0  0  0
    5.3039   -1.1619   -2.8745 H   0  0  0  0  0  0  0  0  0  0  0  0
    3.6271    0.9240   -1.8242 S   0  0  0  0  0  0  0  0  0  0  0  0
    3.7000   -0.2715   -0.9871 O   0  0  0  0  0  0  0  0  0  0  0  0
    2.4451    0.6809   -2.9834 O   0  0  0  0  0  0  0  0  0  0  0  0
    3.4192    2.2402   -1.2250 O   0  0  0  0  0  0  0  0  0  0  0  0
    8.4026    1.0898   -5.5817 C   0  0  0  0  0  0  0  0  0  0  0  0
    8.4275    2.0118   -6.1685 H   0  0  0  0  0  0  0  0  0  0  0  0
    9.3345    1.0414   -5.0050 H   0  0  0  0  0  0  0  0  0  0  0  0
    8.4064    0.2413   -6.2730 H   0  0  0  0  0  0  0  0  0  0  0  0
   -2.5829    0.4535   -1.4486 H   0  0  0  0  0  0  0  0  0  0  0  0
  1  7  1  0  0  0  0
  2  8  1  0  0  0  0
  2  1  2  0  0  0  0
  3  2  1  0  0  0  0
  4  3  2  0  0  0  0
  4  5  1  0  0  0  0
  5  6  2  0  0  0  0
  6  1  1  0  0  0  0
  6 31  1  0  0  0  0
  9  4  1  0  0  0  0
 10  5  1  0  0  0  0
 11 12  3  0  0  0  0
 13 19  1  0  0  0  0
 13 18  2  0  0  0  0
 14 13  1  0  0  0  0
 15 14  2  0  0  0  0
 15 16  1  0  0  0  0
 16 17  2  0  0  0  0
 17 18  1  0  0  0  0
 17 22  1  0  0  0  0
 18 23  1  0  0  0  0
 20 14  1  0  0  0  0
 21 16  1  0  0  0  0
 23 26  2  0  0  0  0
 23 24  2  0  0  0  0
 25  3  1  0  0  0  0
 25 23  1  0  0  0  0
 27 29  1  0  0  0  0
 27 15  1  0  0  0  0
 28 27  1  0  0  0  0
 30 27  1  0  0  0  0
M  END
