Coordinates from ORCA-job Ph-N2-OTs-B3LYPG-6-31G_dp-MTMO-d009-169-n800
 OpenBabel09051907503D

 31 31  0  0  0  0  0  0  0  0999 V2000
   -0.6326   -0.3076   -1.3385 C   0  0  0  0  0  0  0  0  0  0  0  0
    0.7081   -0.3717   -1.7209 C   0  0  0  0  0  0  0  0  0  0  0  0
    1.2117    0.6159   -2.5667 C   0  0  0  0  0  0  0  0  0  0  0  0
    0.4121    1.6564   -3.0347 C   0  0  0  0  0  0  0  0  0  0  0  0
   -0.9287    1.7023   -2.6518 C   0  0  0  0  0  0  0  0  0  0  0  0
   -1.4518    0.7240   -1.8027 C   0  0  0  0  0  0  0  0  0  0  0  0
   -1.0367   -1.0691   -0.6777 H   0  0  0  0  0  0  0  0  0  0  0  0
    1.3616   -1.1631   -1.3727 H   0  0  0  0  0  0  0  0  0  0  0  0
    0.8441    2.4075   -3.6870 H   0  0  0  0  0  0  0  0  0  0  0  0
   -1.5624    2.5067   -3.0135 H   0  0  0  0  0  0  0  0  0  0  0  0
    7.1002    6.8444   -5.4084 N   0  0  0  0  0  0  0  0  0  0  0  0
    7.0319    5.7417   -5.3865 N   0  0  0  0  0  0  0  0  0  0  0  0
    5.5260    2.0752   -3.7215 C   0  0  0  0  0  0  0  0  0  0  0  0
    6.6054    1.9963   -4.5975 C   0  0  0  0  0  0  0  0  0  0  0  0
    7.2635    0.7785   -4.8279 C   0  0  0  0  0  0  0  0  0  0  0  0
    6.8136   -0.3666   -4.1545 C   0  0  0  0  0  0  0  0  0  0  0  0
    5.7382   -0.3081   -3.2711 C   0  0  0  0  0  0  0  0  0  0  0  0
    5.1012    0.9168   -3.0688 C   0  0  0  0  0  0  0  0  0  0  0  0
    5.0216    3.0167   -3.5348 H   0  0  0  0  0  0  0  0  0  0  0  0
    6.9417    2.8953   -5.1058 H   0  0  0  0  0  0  0  0  0  0  0  0
    7.3142   -1.3163   -4.3216 H   0  0  0  0  0  0  0  0  0  0  0  0
    5.4004   -1.1914   -2.7408 H   0  0  0  0  0  0  0  0  0  0  0  0
    3.7280    1.0117   -1.9415 S   0  0  0  0  0  0  0  0  0  0  0  0
    3.8531   -0.0265   -0.9200 O   0  0  0  0  0  0  0  0  0  0  0  0
    2.5391    0.5420   -3.0213 O   0  0  0  0  0  0  0  0  0  0  0  0
    3.4848    2.4014   -1.5633 O   0  0  0  0  0  0  0  0  0  0  0  0
    8.4491    0.7125   -5.7598 C   0  0  0  0  0  0  0  0  0  0  0  0
    8.3118    1.3646   -6.6274 H   0  0  0  0  0  0  0  0  0  0  0  0
    9.3641    1.0395   -5.2507 H   0  0  0  0  0  0  0  0  0  0  0  0
    8.6202   -0.3050   -6.1201 H   0  0  0  0  0  0  0  0  0  0  0  0
   -2.4943    0.7666   -1.5022 H   0  0  0  0  0  0  0  0  0  0  0  0
  1  7  1  0  0  0  0
  2  8  1  0  0  0  0
  2  1  1  0  0  0  0
  3  2  2  0  0  0  0
  4  5  2  0  0  0  0
  4  3  1  0  0  0  0
  5  6  1  0  0  0  0
  6 31  1  0  0  0  0
  6  1  2  0  0  0  0
  9  4  1  0  0  0  0
 10  5  1  0  0  0  0
 11 12  3  0  0  0  0
 13 19  1  0  0  0  0
 13 18  2  0  0  0  0
 14 13  1  0  0  0  0
 15 14  2  0  0  0  0
 15 16  1  0  0  0  0
 16 17  2  0  0  0  0
 17 18  1  0  0  0  0
 17 22  1  0  0  0  0
 18 23  1  0  0  0  0
 20 14  1  0  0  0  0
 21 16  1  0  0  0  0
 23 26  2  0  0  0  0
 23 24  2  0  0  0  0
 25  3  1  0  0  0  0
 25 23  1  0  0  0  0
 27 29  1  0  0  0  0
 27 15  1  0  0  0  0
 28 27  1  0  0  0  0
 30 27  1  0  0  0  0
M  END
