Coordinates from ORCA-job Ph-N2-OTs-B3LYPG-6-31G_dp-MTMO-d009-169-n800
 OpenBabel09051907493D

 31 30  0  0  0  0  0  0  0  0999 V2000
    0.0372    0.1068   -1.4868 C   0  0  0  0  0  0  0  0  0  0  0  0
    0.6925    1.1169   -2.2221 C   0  0  0  0  0  0  0  0  0  0  0  0
    0.0223    2.1601   -2.4491 C   0  0  0  0  0  0  0  0  0  0  0  0
   -1.2291    2.6345   -2.1818 C   0  0  0  0  0  0  0  0  0  0  0  0
   -1.8996    1.6292   -1.4434 C   0  0  0  0  0  0  0  0  0  0  0  0
   -1.2838    0.4095   -1.1101 C   0  0  0  0  0  0  0  0  0  0  0  0
    0.4992   -0.8392   -1.2223 H   0  0  0  0  0  0  0  0  0  0  0  0
    2.5037    0.8452   -2.8273 H   0  0  0  0  0  0  0  0  0  0  0  0
   -1.6658    3.5848   -2.4576 H   0  0  0  0  0  0  0  0  0  0  0  0
   -2.9221    1.8206   -1.1293 H   0  0  0  0  0  0  0  0  0  0  0  0
    1.0459    4.4119   -3.8083 N   0  0  0  0  0  0  0  0  0  0  0  0
    1.8893    5.0074   -4.2019 N   0  0  0  0  0  0  0  0  0  0  0  0
    6.7289    1.3675   -3.1225 C   0  0  0  0  0  0  0  0  0  0  0  0
    7.9897    0.8279   -3.3692 C   0  0  0  0  0  0  0  0  0  0  0  0
    8.2698    0.1577   -4.5687 C   0  0  0  0  0  0  0  0  0  0  0  0
    7.2494    0.0387   -5.5244 C   0  0  0  0  0  0  0  0  0  0  0  0
    5.9832    0.5716   -5.2966 C   0  0  0  0  0  0  0  0  0  0  0  0
    5.7349    1.2289   -4.0908 C   0  0  0  0  0  0  0  0  0  0  0  0
    6.5141    1.8959   -2.2004 H   0  0  0  0  0  0  0  0  0  0  0  0
    8.7698    0.9321   -2.6196 H   0  0  0  0  0  0  0  0  0  0  0  0
    7.4508   -0.4755   -6.4605 H   0  0  0  0  0  0  0  0  0  0  0  0
    5.1970    0.4909   -6.0394 H   0  0  0  0  0  0  0  0  0  0  0  0
    4.1193    1.9160   -3.7878 S   0  0  0  0  0  0  0  0  0  0  0  0
    3.4364    0.6126   -3.0924 O   0  0  0  0  0  0  0  0  0  0  0  0
    3.4532    2.1790   -5.0649 O   0  0  0  0  0  0  0  0  0  0  0  0
    4.2212    2.9870   -2.7945 O   0  0  0  0  0  0  0  0  0  0  0  0
    9.6476   -0.3960   -4.8420 C   0  0  0  0  0  0  0  0  0  0  0  0
   10.2477    0.3170   -5.4213 H   0  0  0  0  0  0  0  0  0  0  0  0
   10.1885   -0.6008   -3.9140 H   0  0  0  0  0  0  0  0  0  0  0  0
    9.5988   -1.3237   -5.4202 H   0  0  0  0  0  0  0  0  0  0  0  0
   -1.8503   -0.3240   -0.5424 H   0  0  0  0  0  0  0  0  0  0  0  0
  1  7  1  0  0  0  0
  1  6  2  0  0  0  0
  2  1  1  0  0  0  0
  3  2  2  0  0  0  0
  3  4  1  0  0  0  0
  4  5  2  0  0  0  0
  5 10  1  0  0  0  0
  5  6  1  0  0  0  0
  6 31  1  0  0  0  0
  9  4  1  0  0  0  0
 12 11  3  0  0  0  0
 13 19  1  0  0  0  0
 14 13  1  0  0  0  0
 14 20  1  0  0  0  0
 15 14  2  0  0  0  0
 16 17  2  0  0  0  0
 16 15  1  0  0  0  0
 17 18  1  0  0  0  0
 18 23  1  0  0  0  0
 18 13  2  0  0  0  0
 21 16  1  0  0  0  0
 22 17  1  0  0  0  0
 23 24  1  0  0  0  0
 23 26  2  0  0  0  0
 24  8  1  0  0  0  0
 25 23  2  0  0  0  0
 27 15  1  0  0  0  0
 27 29  1  0  0  0  0
 28 27  1  0  0  0  0
 30 27  1  0  0  0  0
M  RAD  2   2   2   3   2
M  END
