Coordinates from ORCA-job Ph-N2-OTs-B3LYPG-6-31G_dp-MTMO-d009-169-n800
 OpenBabel09051907503D

 31 31  0  0  0  0  0  0  0  0999 V2000
   -0.7087   -0.5644   -1.6187 C   0  0  0  0  0  0  0  0  0  0  0  0
    0.6307   -0.5356   -2.0092 C   0  0  0  0  0  0  0  0  0  0  0  0
    1.1491    0.6434   -2.5428 C   0  0  0  0  0  0  0  0  0  0  0  0
    0.3671    1.7876   -2.6885 C   0  0  0  0  0  0  0  0  0  0  0  0
   -0.9717    1.7433   -2.2978 C   0  0  0  0  0  0  0  0  0  0  0  0
   -1.5105    0.5704   -1.7632 C   0  0  0  0  0  0  0  0  0  0  0  0
   -1.1248   -1.4764   -1.2011 H   0  0  0  0  0  0  0  0  0  0  0  0
    1.2734   -1.4020   -1.9038 H   0  0  0  0  0  0  0  0  0  0  0  0
    0.8105    2.6866   -3.1014 H   0  0  0  0  0  0  0  0  0  0  0  0
   -1.5923    2.6275   -2.4097 H   0  0  0  0  0  0  0  0  0  0  0  0
    7.9358    6.4443   -6.6587 N   0  0  0  0  0  0  0  0  0  0  0  0
    7.7014    5.4524   -6.2318 N   0  0  0  0  0  0  0  0  0  0  0  0
    5.4632    2.1408   -3.5717 C   0  0  0  0  0  0  0  0  0  0  0  0
    6.5496    2.1164   -4.4418 C   0  0  0  0  0  0  0  0  0  0  0  0
    7.2265    0.9189   -4.7214 C   0  0  0  0  0  0  0  0  0  0  0  0
    6.7871   -0.2616   -4.1054 C   0  0  0  0  0  0  0  0  0  0  0  0
    5.7019   -0.2582   -3.2317 C   0  0  0  0  0  0  0  0  0  0  0  0
    5.0478    0.9474   -2.9781 C   0  0  0  0  0  0  0  0  0  0  0  0
    4.9459    3.0666   -3.3452 H   0  0  0  0  0  0  0  0  0  0  0  0
    6.8786    3.0395   -4.9105 H   0  0  0  0  0  0  0  0  0  0  0  0
    7.3023   -1.1957   -4.3110 H   0  0  0  0  0  0  0  0  0  0  0  0
    5.3689   -1.1688   -2.7467 H   0  0  0  0  0  0  0  0  0  0  0  0
    3.6599    0.9676   -1.8648 S   0  0  0  0  0  0  0  0  0  0  0  0
    3.7283   -0.1807   -0.9633 O   0  0  0  0  0  0  0  0  0  0  0  0
    2.4748    0.6689   -3.0075 O   0  0  0  0  0  0  0  0  0  0  0  0
    3.4595    2.3157   -1.3385 O   0  0  0  0  0  0  0  0  0  0  0  0
    8.4205    0.9119   -5.6447 C   0  0  0  0  0  0  0  0  0  0  0  0
    8.2808    1.6012   -6.4826 H   0  0  0  0  0  0  0  0  0  0  0  0
    9.3265    1.2280   -5.1130 H   0  0  0  0  0  0  0  0  0  0  0  0
    8.6093   -0.0857   -6.0492 H   0  0  0  0  0  0  0  0  0  0  0  0
   -2.5520    0.5413   -1.4580 H   0  0  0  0  0  0  0  0  0  0  0  0
  1  7  1  0  0  0  0
  2  8  1  0  0  0  0
  2  1  2  0  0  0  0
  3  2  1  0  0  0  0
  4  3  2  0  0  0  0
  4  5  1  0  0  0  0
  5  6  2  0  0  0  0
  6  1  1  0  0  0  0
  6 31  1  0  0  0  0
  9  4  1  0  0  0  0
 10  5  1  0  0  0  0
 11 12  3  0  0  0  0
 13 19  1  0  0  0  0
 13 18  2  0  0  0  0
 14 13  1  0  0  0  0
 15 14  2  0  0  0  0
 15 16  1  0  0  0  0
 16 17  2  0  0  0  0
 17 18  1  0  0  0  0
 17 22  1  0  0  0  0
 18 23  1  0  0  0  0
 20 14  1  0  0  0  0
 21 16  1  0  0  0  0
 23 26  2  0  0  0  0
 23 24  2  0  0  0  0
 25  3  1  0  0  0  0
 25 23  1  0  0  0  0
 27 29  1  0  0  0  0
 27 15  1  0  0  0  0
 28 27  1  0  0  0  0
 30 27  1  0  0  0  0
M  END
