Coordinates from ORCA-job Ph-N2-OTs-B3LYPG-6-31G_dp-MTMO-d009-169-n800
 OpenBabel09051907503D

 31 31  0  0  0  0  0  0  0  0999 V2000
   -0.6438   -0.9275   -1.4020 C   0  0  0  0  0  0  0  0  0  0  0  0
    0.6583   -0.7483   -1.8705 C   0  0  0  0  0  0  0  0  0  0  0  0
    1.0167    0.4888   -2.4031 C   0  0  0  0  0  0  0  0  0  0  0  0
    0.1126    1.5473   -2.4706 C   0  0  0  0  0  0  0  0  0  0  0  0
   -1.1863    1.3541   -1.9988 C   0  0  0  0  0  0  0  0  0  0  0  0
   -1.5659    0.1199   -1.4658 C   0  0  0  0  0  0  0  0  0  0  0  0
   -0.9361   -1.8867   -0.9855 H   0  0  0  0  0  0  0  0  0  0  0  0
    1.3931   -1.5444   -1.8280 H   0  0  0  0  0  0  0  0  0  0  0  0
    0.4327    2.4963   -2.8850 H   0  0  0  0  0  0  0  0  0  0  0  0
   -1.9009    2.1704   -2.0477 H   0  0  0  0  0  0  0  0  0  0  0  0
   11.1105    5.3339   -6.5904 N   0  0  0  0  0  0  0  0  0  0  0  0
   10.2442    4.6710   -6.4129 N   0  0  0  0  0  0  0  0  0  0  0  0
    5.1060    2.4071   -3.7541 C   0  0  0  0  0  0  0  0  0  0  0  0
    6.1612    2.4187   -4.6632 C   0  0  0  0  0  0  0  0  0  0  0  0
    6.9345    1.2712   -4.8927 C   0  0  0  0  0  0  0  0  0  0  0  0
    6.6326    0.1040   -4.1744 C   0  0  0  0  0  0  0  0  0  0  0  0
    5.5833    0.0715   -3.2599 C   0  0  0  0  0  0  0  0  0  0  0  0
    4.8250    1.2270   -3.0648 C   0  0  0  0  0  0  0  0  0  0  0  0
    4.5160    3.2972   -3.5661 H   0  0  0  0  0  0  0  0  0  0  0  0
    6.3926    3.3347   -5.1995 H   0  0  0  0  0  0  0  0  0  0  0  0
    7.2313   -0.7896   -4.3297 H   0  0  0  0  0  0  0  0  0  0  0  0
    5.3602   -0.8262   -2.6939 H   0  0  0  0  0  0  0  0  0  0  0  0
    3.4860    1.2022   -1.8928 S   0  0  0  0  0  0  0  0  0  0  0  0
    3.7200    0.1673   -0.8882 O   0  0  0  0  0  0  0  0  0  0  0  0
    2.3035    0.6540   -2.9433 O   0  0  0  0  0  0  0  0  0  0  0  0
    3.1491    2.5663   -1.4920 O   0  0  0  0  0  0  0  0  0  0  0  0
    8.0537    1.2846   -5.9049 C   0  0  0  0  0  0  0  0  0  0  0  0
    8.4744    2.2861   -6.0281 H   0  0  0  0  0  0  0  0  0  0  0  0
    8.8614    0.6056   -5.6167 H   0  0  0  0  0  0  0  0  0  0  0  0
    7.6912    0.9587   -6.8879 H   0  0  0  0  0  0  0  0  0  0  0  0
   -2.5777   -0.0248   -1.0992 H   0  0  0  0  0  0  0  0  0  0  0  0
  1  7  1  0  0  0  0
  2  8  1  0  0  0  0
  2  1  2  0  0  0  0
  3  2  1  0  0  0  0
  4  3  2  0  0  0  0
  4  5  1  0  0  0  0
  5  6  2  0  0  0  0
  6  1  1  0  0  0  0
  6 31  1  0  0  0  0
  9  4  1  0  0  0  0
 10  5  1  0  0  0  0
 11 12  3  0  0  0  0
 13 19  1  0  0  0  0
 13 18  2  0  0  0  0
 14 13  1  0  0  0  0
 15 14  2  0  0  0  0
 15 16  1  0  0  0  0
 16 17  2  0  0  0  0
 17 18  1  0  0  0  0
 17 22  1  0  0  0  0
 18 23  1  0  0  0  0
 20 14  1  0  0  0  0
 21 16  1  0  0  0  0
 23 26  2  0  0  0  0
 23 24  2  0  0  0  0
 25  3  1  0  0  0  0
 25 23  1  0  0  0  0
 27 29  1  0  0  0  0
 27 15  1  0  0  0  0
 28 27  1  0  0  0  0
 30 27  1  0  0  0  0
M  END
