Coordinates from ORCA-job Ph-N2-OTs-B3LYPG-6-31G_dp-MTMO-d009-169-n800
 OpenBabel09051907503D

 31 31  0  0  0  0  0  0  0  0999 V2000
   -0.5420   -0.1426   -1.2997 C   0  0  0  0  0  0  0  0  0  0  0  0
    0.7948   -0.2351   -1.6898 C   0  0  0  0  0  0  0  0  0  0  0  0
    1.2902    0.6893   -2.6086 C   0  0  0  0  0  0  0  0  0  0  0  0
    0.4864    1.6948   -3.1413 C   0  0  0  0  0  0  0  0  0  0  0  0
   -0.8504    1.7695   -2.7492 C   0  0  0  0  0  0  0  0  0  0  0  0
   -1.3653    0.8545   -1.8277 C   0  0  0  0  0  0  0  0  0  0  0  0
   -0.9397   -0.8543   -0.5820 H   0  0  0  0  0  0  0  0  0  0  0  0
    1.4516   -1.0000   -1.2922 H   0  0  0  0  0  0  0  0  0  0  0  0
    0.9125    2.3970   -3.8496 H   0  0  0  0  0  0  0  0  0  0  0  0
   -1.4873    2.5471   -3.1605 H   0  0  0  0  0  0  0  0  0  0  0  0
    5.9228    6.7434   -4.3907 N   0  0  0  0  0  0  0  0  0  0  0  0
    5.9298    5.6551   -4.5821 N   0  0  0  0  0  0  0  0  0  0  0  0
    5.6170    2.0407   -3.8982 C   0  0  0  0  0  0  0  0  0  0  0  0
    6.6945    1.8797   -4.7654 C   0  0  0  0  0  0  0  0  0  0  0  0
    7.3362    0.6397   -4.9036 C   0  0  0  0  0  0  0  0  0  0  0  0
    6.8708   -0.4450   -4.1454 C   0  0  0  0  0  0  0  0  0  0  0  0
    5.7976   -0.3044   -3.2688 C   0  0  0  0  0  0  0  0  0  0  0  0
    5.1777    0.9412   -3.1596 C   0  0  0  0  0  0  0  0  0  0  0  0
    5.1293    3.0022   -3.7865 H   0  0  0  0  0  0  0  0  0  0  0  0
    7.0429    2.7328   -5.3405 H   0  0  0  0  0  0  0  0  0  0  0  0
    7.3578   -1.4116   -4.2400 H   0  0  0  0  0  0  0  0  0  0  0  0
    5.4485   -1.1403   -2.6730 H   0  0  0  0  0  0  0  0  0  0  0  0
    3.8099    1.1406   -2.0393 S   0  0  0  0  0  0  0  0  0  0  0  0
    3.9353    0.1960   -0.9308 O   0  0  0  0  0  0  0  0  0  0  0  0
    2.6137    0.5824   -3.0684 O   0  0  0  0  0  0  0  0  0  0  0  0
    3.5739    2.5594   -1.7839 O   0  0  0  0  0  0  0  0  0  0  0  0
    8.5215    0.4867   -5.8259 C   0  0  0  0  0  0  0  0  0  0  0  0
    8.4102    1.0992   -6.7253 H   0  0  0  0  0  0  0  0  0  0  0  0
    9.4458    0.8059   -5.3287 H   0  0  0  0  0  0  0  0  0  0  0  0
    8.6580   -0.5528   -6.1347 H   0  0  0  0  0  0  0  0  0  0  0  0
   -2.4046    0.9197   -1.5203 H   0  0  0  0  0  0  0  0  0  0  0  0
  1  7  1  0  0  0  0
  2  1  1  0  0  0  0
  2  8  1  0  0  0  0
  3  2  2  0  0  0  0
  4  5  2  0  0  0  0
  4  3  1  0  0  0  0
  5  6  1  0  0  0  0
  6 31  1  0  0  0  0
  6  1  2  0  0  0  0
  9  4  1  0  0  0  0
 10  5  1  0  0  0  0
 12 11  3  0  0  0  0
 13 19  1  0  0  0  0
 13 18  2  0  0  0  0
 14 13  1  0  0  0  0
 15 14  2  0  0  0  0
 15 16  1  0  0  0  0
 16 17  2  0  0  0  0
 17 18  1  0  0  0  0
 17 22  1  0  0  0  0
 18 23  1  0  0  0  0
 20 14  1  0  0  0  0
 21 16  1  0  0  0  0
 23 26  2  0  0  0  0
 23 24  2  0  0  0  0
 25  3  1  0  0  0  0
 25 23  1  0  0  0  0
 27 29  1  0  0  0  0
 27 15  1  0  0  0  0
 28 27  1  0  0  0  0
 30 27  1  0  0  0  0
M  END
