Coordinates from ORCA-job Ph-N2-OTs-B3LYPG-6-31G_dp-MTMO-d009-169-n800
 OpenBabel09051907503D

 31 31  0  0  0  0  0  0  0  0999 V2000
   -0.6490   -1.0455   -1.4006 C   0  0  0  0  0  0  0  0  0  0  0  0
    0.6455   -0.8170   -1.8688 C   0  0  0  0  0  0  0  0  0  0  0  0
    0.9617    0.4386   -2.3842 C   0  0  0  0  0  0  0  0  0  0  0  0
    0.0232    1.4676   -2.4352 C   0  0  0  0  0  0  0  0  0  0  0  0
   -1.2676    1.2251   -1.9641 C   0  0  0  0  0  0  0  0  0  0  0  0
   -1.6052   -0.0282   -1.4479 C   0  0  0  0  0  0  0  0  0  0  0  0
   -0.9087   -2.0194   -0.9969 H   0  0  0  0  0  0  0  0  0  0  0  0
    1.4062   -1.5889   -1.8388 H   0  0  0  0  0  0  0  0  0  0  0  0
    0.3109    2.4324   -2.8370 H   0  0  0  0  0  0  0  0  0  0  0  0
   -2.0088    2.0181   -2.0000 H   0  0  0  0  0  0  0  0  0  0  0  0
   12.0643    4.7862   -7.0801 N   0  0  0  0  0  0  0  0  0  0  0  0
   11.0885    4.3507   -6.7979 N   0  0  0  0  0  0  0  0  0  0  0  0
    5.0051    2.4992   -3.6997 C   0  0  0  0  0  0  0  0  0  0  0  0
    6.0642    2.5526   -4.6024 C   0  0  0  0  0  0  0  0  0  0  0  0
    6.8656    1.4278   -4.8496 C   0  0  0  0  0  0  0  0  0  0  0  0
    6.5866    0.2405   -4.1561 C   0  0  0  0  0  0  0  0  0  0  0  0
    5.5336    0.1662   -3.2478 C   0  0  0  0  0  0  0  0  0  0  0  0
    4.7478    1.2996   -3.0345 C   0  0  0  0  0  0  0  0  0  0  0  0
    4.3937    3.3716   -3.4978 H   0  0  0  0  0  0  0  0  0  0  0  0
    6.2763    3.4843   -5.1196 H   0  0  0  0  0  0  0  0  0  0  0  0
    7.2063   -0.6360   -4.3253 H   0  0  0  0  0  0  0  0  0  0  0  0
    5.3291   -0.7473   -2.7004 H   0  0  0  0  0  0  0  0  0  0  0  0
    3.4077    1.2223   -1.8657 S   0  0  0  0  0  0  0  0  0  0  0  0
    3.6695    0.1818   -0.8739 O   0  0  0  0  0  0  0  0  0  0  0  0
    2.2415    0.6543   -2.9239 O   0  0  0  0  0  0  0  0  0  0  0  0
    3.0328    2.5714   -1.4483 O   0  0  0  0  0  0  0  0  0  0  0  0
    7.9896    1.4885   -5.8547 C   0  0  0  0  0  0  0  0  0  0  0  0
    8.4530    2.4789   -5.8845 H   0  0  0  0  0  0  0  0  0  0  0  0
    8.7680    0.7539   -5.6298 H   0  0  0  0  0  0  0  0  0  0  0  0
    7.6191    1.2728   -6.8648 H   0  0  0  0  0  0  0  0  0  0  0  0
   -2.6107   -0.2113   -1.0815 H   0  0  0  0  0  0  0  0  0  0  0  0
  1  7  1  0  0  0  0
  2  8  1  0  0  0  0
  2  1  2  0  0  0  0
  3  2  1  0  0  0  0
  4  3  2  0  0  0  0
  4  5  1  0  0  0  0
  5  6  2  0  0  0  0
  6  1  1  0  0  0  0
  6 31  1  0  0  0  0
  9  4  1  0  0  0  0
 10  5  1  0  0  0  0
 11 12  3  0  0  0  0
 13 19  1  0  0  0  0
 13 18  2  0  0  0  0
 14 13  1  0  0  0  0
 15 14  2  0  0  0  0
 15 16  1  0  0  0  0
 16 17  2  0  0  0  0
 17 18  1  0  0  0  0
 17 22  1  0  0  0  0
 18 23  1  0  0  0  0
 20 14  1  0  0  0  0
 21 16  1  0  0  0  0
 23 26  2  0  0  0  0
 23 24  2  0  0  0  0
 25  3  1  0  0  0  0
 25 23  1  0  0  0  0
 27 29  1  0  0  0  0
 27 15  1  0  0  0  0
 28 27  1  0  0  0  0
 30 27  1  0  0  0  0
M  END
