Coordinates from ORCA-job Ph-N2-OTs-B3LYPG-6-31G_dp-MTMO-d009-169-n800
 OpenBabel09051907503D

 31 31  0  0  0  0  0  0  0  0999 V2000
   -0.5485   -0.1661   -1.2977 C   0  0  0  0  0  0  0  0  0  0  0  0
    0.7888   -0.2506   -1.6880 C   0  0  0  0  0  0  0  0  0  0  0  0
    1.2799    0.6799   -2.6029 C   0  0  0  0  0  0  0  0  0  0  0  0
    0.4713    1.6836   -3.1317 C   0  0  0  0  0  0  0  0  0  0  0  0
   -0.8660    1.7503   -2.7395 C   0  0  0  0  0  0  0  0  0  0  0  0
   -1.3765    0.8292   -1.8218 C   0  0  0  0  0  0  0  0  0  0  0  0
   -0.9428   -0.8825   -0.5828 H   0  0  0  0  0  0  0  0  0  0  0  0
    1.4492   -1.0139   -1.2932 H   0  0  0  0  0  0  0  0  0  0  0  0
    0.8941    2.3908   -3.8371 H   0  0  0  0  0  0  0  0  0  0  0  0
   -1.5065    2.5264   -3.1478 H   0  0  0  0  0  0  0  0  0  0  0  0
    6.0770    6.7522   -4.5046 N   0  0  0  0  0  0  0  0  0  0  0  0
    6.0774    5.6595   -4.6698 N   0  0  0  0  0  0  0  0  0  0  0  0
    5.6145    2.0538   -3.8745 C   0  0  0  0  0  0  0  0  0  0  0  0
    6.6929    1.8982   -4.7417 C   0  0  0  0  0  0  0  0  0  0  0  0
    7.3270    0.6562   -4.8958 C   0  0  0  0  0  0  0  0  0  0  0  0
    6.8534   -0.4359   -4.1535 C   0  0  0  0  0  0  0  0  0  0  0  0
    5.7794   -0.3008   -3.2771 C   0  0  0  0  0  0  0  0  0  0  0  0
    5.1667    0.9469   -3.1521 C   0  0  0  0  0  0  0  0  0  0  0  0
    5.1318    3.0164   -3.7502 H   0  0  0  0  0  0  0  0  0  0  0  0
    7.0473    2.7572   -5.3040 H   0  0  0  0  0  0  0  0  0  0  0  0
    7.3347   -1.4041   -4.2604 H   0  0  0  0  0  0  0  0  0  0  0  0
    5.4242   -1.1428   -2.6936 H   0  0  0  0  0  0  0  0  0  0  0  0
    3.7979    1.1392   -2.0318 S   0  0  0  0  0  0  0  0  0  0  0  0
    3.9249    0.1909   -0.9265 O   0  0  0  0  0  0  0  0  0  0  0  0
    2.6038    0.5812   -3.0634 O   0  0  0  0  0  0  0  0  0  0  0  0
    3.5586    2.5565   -1.7714 O   0  0  0  0  0  0  0  0  0  0  0  0
    8.5128    0.5086   -5.8183 C   0  0  0  0  0  0  0  0  0  0  0  0
    8.4021    1.1268   -6.7139 H   0  0  0  0  0  0  0  0  0  0  0  0
    9.4369    0.8246   -5.3186 H   0  0  0  0  0  0  0  0  0  0  0  0
    8.6492   -0.5289   -6.1336 H   0  0  0  0  0  0  0  0  0  0  0  0
   -2.4162    0.8880   -1.5143 H   0  0  0  0  0  0  0  0  0  0  0  0
  1  7  1  0  0  0  0
  2  1  1  0  0  0  0
  2  8  1  0  0  0  0
  3  2  2  0  0  0  0
  4  5  2  0  0  0  0
  4  3  1  0  0  0  0
  5  6  1  0  0  0  0
  6 31  1  0  0  0  0
  6  1  2  0  0  0  0
  9  4  1  0  0  0  0
 10  5  1  0  0  0  0
 12 11  3  0  0  0  0
 13 19  1  0  0  0  0
 13 18  2  0  0  0  0
 14 13  1  0  0  0  0
 15 14  2  0  0  0  0
 15 16  1  0  0  0  0
 16 17  2  0  0  0  0
 17 18  1  0  0  0  0
 17 22  1  0  0  0  0
 18 23  1  0  0  0  0
 20 14  1  0  0  0  0
 21 16  1  0  0  0  0
 23 26  2  0  0  0  0
 23 24  2  0  0  0  0
 25  3  1  0  0  0  0
 25 23  1  0  0  0  0
 27 29  1  0  0  0  0
 27 15  1  0  0  0  0
 28 27  1  0  0  0  0
 30 27  1  0  0  0  0
M  END
