Coordinates from ORCA-job Ph-N2-OTs-B3LYPG-6-31G_dp-MTMO-d009-169-n800
 OpenBabel09051907493D

 31 30  0  0  0  0  0  0  0  0999 V2000
    0.1302    0.2034   -1.5512 C   0  0  0  0  0  0  0  0  0  0  0  0
    0.7330    1.2549   -2.2815 C   0  0  0  0  0  0  0  0  0  0  0  0
   -0.0177    2.2562   -2.4708 C   0  0  0  0  0  0  0  0  0  0  0  0
   -1.2906    2.6489   -2.1782 C   0  0  0  0  0  0  0  0  0  0  0  0
   -1.8932    1.5975   -1.4491 C   0  0  0  0  0  0  0  0  0  0  0  0
   -1.1989    0.4125   -1.1475 C   0  0  0  0  0  0  0  0  0  0  0  0
    0.6516   -0.7185   -1.3106 H   0  0  0  0  0  0  0  0  0  0  0  0
    2.4936    0.9653   -2.8534 H   0  0  0  0  0  0  0  0  0  0  0  0
   -1.7825    3.5779   -2.4336 H   0  0  0  0  0  0  0  0  0  0  0  0
   -2.9203    1.7236   -1.1180 H   0  0  0  0  0  0  0  0  0  0  0  0
    0.8677    4.2179   -3.6662 N   0  0  0  0  0  0  0  0  0  0  0  0
    1.7298    4.7905   -4.0543 N   0  0  0  0  0  0  0  0  0  0  0  0
    6.7393    1.3801   -3.1278 C   0  0  0  0  0  0  0  0  0  0  0  0
    7.9886    0.8092   -3.3623 C   0  0  0  0  0  0  0  0  0  0  0  0
    8.2606    0.1239   -4.5550 C   0  0  0  0  0  0  0  0  0  0  0  0
    7.2438    0.0218   -5.5164 C   0  0  0  0  0  0  0  0  0  0  0  0
    5.9890    0.5859   -5.3005 C   0  0  0  0  0  0  0  0  0  0  0  0
    5.7483    1.2579   -4.1014 C   0  0  0  0  0  0  0  0  0  0  0  0
    6.5313    1.9206   -2.2111 H   0  0  0  0  0  0  0  0  0  0  0  0
    8.7661    0.9006   -2.6082 H   0  0  0  0  0  0  0  0  0  0  0  0
    7.4390   -0.5036   -6.4475 H   0  0  0  0  0  0  0  0  0  0  0  0
    5.2058    0.5185   -6.0479 H   0  0  0  0  0  0  0  0  0  0  0  0
    4.1468    1.9847   -3.8138 S   0  0  0  0  0  0  0  0  0  0  0  0
    3.4307    0.7113   -3.1057 O   0  0  0  0  0  0  0  0  0  0  0  0
    3.4940    2.2482   -5.0983 O   0  0  0  0  0  0  0  0  0  0  0  0
    4.2715    3.0685   -2.8363 O   0  0  0  0  0  0  0  0  0  0  0  0
    9.6268   -0.4639   -4.8152 C   0  0  0  0  0  0  0  0  0  0  0  0
   10.2506    0.2346   -5.3875 H   0  0  0  0  0  0  0  0  0  0  0  0
   10.1531   -0.6831   -3.8822 H   0  0  0  0  0  0  0  0  0  0  0  0
    9.5608   -1.3894   -5.3951 H   0  0  0  0  0  0  0  0  0  0  0  0
   -1.7091   -0.3653   -0.5854 H   0  0  0  0  0  0  0  0  0  0  0  0
  1  7  1  0  0  0  0
  1  6  2  0  0  0  0
  2  1  1  0  0  0  0
  3  2  2  0  0  0  0
  3  4  1  0  0  0  0
  4  5  2  0  0  0  0
  5  6  1  0  0  0  0
  5 10  1  0  0  0  0
  6 31  1  0  0  0  0
  9  4  1  0  0  0  0
 12 11  3  0  0  0  0
 13 19  1  0  0  0  0
 14 13  1  0  0  0  0
 14 20  1  0  0  0  0
 15 14  2  0  0  0  0
 16 17  2  0  0  0  0
 16 15  1  0  0  0  0
 17 18  1  0  0  0  0
 18 23  1  0  0  0  0
 18 13  2  0  0  0  0
 21 16  1  0  0  0  0
 22 17  1  0  0  0  0
 23 24  1  0  0  0  0
 23 26  2  0  0  0  0
 24  8  1  0  0  0  0
 25 23  2  0  0  0  0
 27 15  1  0  0  0  0
 27 29  1  0  0  0  0
 28 27  1  0  0  0  0
 30 27  1  0  0  0  0
M  RAD  2   2   2   3   2
M  END
