Coordinates from ORCA-job Ph-N2-OTs-B3LYPG-6-31G_dp-MTMO-d009-169-n800
 OpenBabel09051907503D

 31 31  0  0  0  0  0  0  0  0999 V2000
   -0.4343   -0.1469   -1.6290 C   0  0  0  0  0  0  0  0  0  0  0  0
    0.8882   -0.1954   -2.0712 C   0  0  0  0  0  0  0  0  0  0  0  0
    1.4388    0.9365   -2.6684 C   0  0  0  0  0  0  0  0  0  0  0  0
    0.7087    2.1138   -2.8246 C   0  0  0  0  0  0  0  0  0  0  0  0
   -0.6120    2.1485   -2.3752 C   0  0  0  0  0  0  0  0  0  0  0  0
   -1.1847    1.0217   -1.7800 C   0  0  0  0  0  0  0  0  0  0  0  0
   -0.8763   -1.0230   -1.1638 H   0  0  0  0  0  0  0  0  0  0  0  0
    1.4937   -1.0879   -1.9605 H   0  0  0  0  0  0  0  0  0  0  0  0
    1.1764    2.9768   -3.2848 H   0  0  0  0  0  0  0  0  0  0  0  0
   -1.1933    3.0585   -2.4915 H   0  0  0  0  0  0  0  0  0  0  0  0
    4.2572    5.9137   -3.8776 N   0  0  0  0  0  0  0  0  0  0  0  0
    3.2149    5.5516   -3.8141 N   0  0  0  0  0  0  0  0  0  0  0  0
    5.8280    2.0035   -4.1120 C   0  0  0  0  0  0  0  0  0  0  0  0
    6.9025    1.6921   -4.9416 C   0  0  0  0  0  0  0  0  0  0  0  0
    7.4827    0.4149   -4.9306 C   0  0  0  0  0  0  0  0  0  0  0  0
    6.9644   -0.5497   -4.0536 C   0  0  0  0  0  0  0  0  0  0  0  0
    5.8916   -0.2586   -3.2148 C   0  0  0  0  0  0  0  0  0  0  0  0
    5.3300    1.0182   -3.2587 C   0  0  0  0  0  0  0  0  0  0  0  0
    5.3894    2.9948   -4.1101 H   0  0  0  0  0  0  0  0  0  0  0  0
    7.3020    2.4559   -5.6032 H   0  0  0  0  0  0  0  0  0  0  0  0
    7.4120   -1.5392   -4.0218 H   0  0  0  0  0  0  0  0  0  0  0  0
    5.5030   -0.9998   -2.5251 H   0  0  0  0  0  0  0  0  0  0  0  0
    3.9696    1.4071   -2.1787 S   0  0  0  0  0  0  0  0  0  0  0  0
    4.0067    0.5495   -0.9965 O   0  0  0  0  0  0  0  0  0  0  0  0
    2.7462    0.8640   -3.1811 O   0  0  0  0  0  0  0  0  0  0  0  0
    3.8464    2.8574   -2.0417 O   0  0  0  0  0  0  0  0  0  0  0  0
    8.6283    0.0816   -5.8553 C   0  0  0  0  0  0  0  0  0  0  0  0
    8.2563   -0.2818   -6.8210 H   0  0  0  0  0  0  0  0  0  0  0  0
    9.2490    0.9596   -6.0557 H   0  0  0  0  0  0  0  0  0  0  0  0
    9.2670   -0.7014   -5.4365 H   0  0  0  0  0  0  0  0  0  0  0  0
   -2.2128    1.0545   -1.4330 H   0  0  0  0  0  0  0  0  0  0  0  0
  1  7  1  0  0  0  0
  2  8  1  0  0  0  0
  2  1  2  0  0  0  0
  3  2  1  0  0  0  0
  4  3  2  0  0  0  0
  4  5  1  0  0  0  0
  5  6  2  0  0  0  0
  6  1  1  0  0  0  0
  6 31  1  0  0  0  0
  9  4  1  0  0  0  0
 10  5  1  0  0  0  0
 11 12  3  0  0  0  0
 13 19  1  0  0  0  0
 13 18  2  0  0  0  0
 14 15  2  0  0  0  0
 14 13  1  0  0  0  0
 15 16  1  0  0  0  0
 16 21  1  0  0  0  0
 16 17  2  0  0  0  0
 17 22  1  0  0  0  0
 18 17  1  0  0  0  0
 18 23  1  0  0  0  0
 20 14  1  0  0  0  0
 23 26  2  0  0  0  0
 23 24  2  0  0  0  0
 25  3  1  0  0  0  0
 25 23  1  0  0  0  0
 27 30  1  0  0  0  0
 27 15  1  0  0  0  0
 28 27  1  0  0  0  0
 29 27  1  0  0  0  0
M  END
