Coordinates from ORCA-job Ph-N2-OTs-B3LYPG-6-31G_dp-MTMO-d009-169-n800
 OpenBabel09051907503D

 31 31  0  0  0  0  0  0  0  0999 V2000
   -0.5188   -0.1079   -1.3003 C   0  0  0  0  0  0  0  0  0  0  0  0
    0.8167   -0.2057   -1.6935 C   0  0  0  0  0  0  0  0  0  0  0  0
    1.3111    0.7108   -2.6206 C   0  0  0  0  0  0  0  0  0  0  0  0
    0.5077    1.7137   -3.1587 C   0  0  0  0  0  0  0  0  0  0  0  0
   -0.8279    1.7939   -2.7632 C   0  0  0  0  0  0  0  0  0  0  0  0
   -1.3417    0.8868   -1.8334 C   0  0  0  0  0  0  0  0  0  0  0  0
   -0.9158   -0.8133   -0.5760 H   0  0  0  0  0  0  0  0  0  0  0  0
    1.4734   -0.9686   -1.2918 H   0  0  0  0  0  0  0  0  0  0  0  0
    0.9331    2.4097   -3.8735 H   0  0  0  0  0  0  0  0  0  0  0  0
   -1.4645    2.5696   -3.1784 H   0  0  0  0  0  0  0  0  0  0  0  0
    5.5576    6.7644   -4.1370 N   0  0  0  0  0  0  0  0  0  0  0  0
    5.6619    5.7075   -4.4424 N   0  0  0  0  0  0  0  0  0  0  0  0
    5.6468    2.0259   -3.9367 C   0  0  0  0  0  0  0  0  0  0  0  0
    6.7241    1.8424   -4.7999 C   0  0  0  0  0  0  0  0  0  0  0  0
    7.3571    0.5959   -4.9170 C   0  0  0  0  0  0  0  0  0  0  0  0
    6.8829   -0.4729   -4.1415 C   0  0  0  0  0  0  0  0  0  0  0  0
    5.8099   -0.3099   -3.2687 C   0  0  0  0  0  0  0  0  0  0  0  0
    5.1990    0.9419   -3.1807 C   0  0  0  0  0  0  0  0  0  0  0  0
    5.1662    2.9927   -3.8416 H   0  0  0  0  0  0  0  0  0  0  0  0
    7.0799    2.6827   -5.3895 H   0  0  0  0  0  0  0  0  0  0  0  0
    7.3630   -1.4444   -4.2195 H   0  0  0  0  0  0  0  0  0  0  0  0
    5.4540   -1.1333   -2.6596 H   0  0  0  0  0  0  0  0  0  0  0  0
    3.8322    1.1691   -2.0644 S   0  0  0  0  0  0  0  0  0  0  0  0
    3.9528    0.2448   -0.9384 O   0  0  0  0  0  0  0  0  0  0  0  0
    2.6332    0.5976   -3.0830 O   0  0  0  0  0  0  0  0  0  0  0  0
    3.6035    2.5936   -1.8356 O   0  0  0  0  0  0  0  0  0  0  0  0
    8.5430    0.4189   -5.8342 C   0  0  0  0  0  0  0  0  0  0  0  0
    8.4473    1.0317   -6.7350 H   0  0  0  0  0  0  0  0  0  0  0  0
    9.4711    0.7209   -5.3333 H   0  0  0  0  0  0  0  0  0  0  0  0
    8.6610   -0.6237   -6.1406 H   0  0  0  0  0  0  0  0  0  0  0  0
   -2.3801    0.9562   -1.5235 H   0  0  0  0  0  0  0  0  0  0  0  0
  1  7  1  0  0  0  0
  2  1  1  0  0  0  0
  2  8  1  0  0  0  0
  3  2  2  0  0  0  0
  4  5  2  0  0  0  0
  4  3  1  0  0  0  0
  5  6  1  0  0  0  0
  6 31  1  0  0  0  0
  6  1  2  0  0  0  0
  9  4  1  0  0  0  0
 10  5  1  0  0  0  0
 12 11  3  0  0  0  0
 13 19  1  0  0  0  0
 13 18  2  0  0  0  0
 14 13  1  0  0  0  0
 15 14  2  0  0  0  0
 15 16  1  0  0  0  0
 16 17  2  0  0  0  0
 17 18  1  0  0  0  0
 17 22  1  0  0  0  0
 18 23  1  0  0  0  0
 20 14  1  0  0  0  0
 21 16  1  0  0  0  0
 23 26  2  0  0  0  0
 23 24  2  0  0  0  0
 25  3  1  0  0  0  0
 25 23  1  0  0  0  0
 27 29  1  0  0  0  0
 27 15  1  0  0  0  0
 28 27  1  0  0  0  0
 30 27  1  0  0  0  0
M  END
