Coordinates from ORCA-job Ph-N2-OTs-B3LYPG-6-31G_dp-MTMO-d009-169-n800
 OpenBabel09051907503D

 31 31  0  0  0  0  0  0  0  0999 V2000
   -0.6355   -0.9816   -1.3862 C   0  0  0  0  0  0  0  0  0  0  0  0
    0.6614   -0.7773   -1.8591 C   0  0  0  0  0  0  0  0  0  0  0  0
    0.9942    0.4667   -2.3920 C   0  0  0  0  0  0  0  0  0  0  0  0
    0.0699    1.5078   -2.4556 C   0  0  0  0  0  0  0  0  0  0  0  0
   -1.2234    1.2896   -1.9795 C   0  0  0  0  0  0  0  0  0  0  0  0
   -1.5776    0.0481   -1.4460 C   0  0  0  0  0  0  0  0  0  0  0  0
   -0.9079   -1.9464   -0.9692 H   0  0  0  0  0  0  0  0  0  0  0  0
    1.4113   -1.5593   -1.8197 H   0  0  0  0  0  0  0  0  0  0  0  0
    0.3703    2.4631   -2.8706 H   0  0  0  0  0  0  0  0  0  0  0  0
   -1.9536    2.0922   -2.0253 H   0  0  0  0  0  0  0  0  0  0  0  0
   11.5721    5.0546   -6.7163 N   0  0  0  0  0  0  0  0  0  0  0  0
   10.6289    4.5261   -6.4874 N   0  0  0  0  0  0  0  0  0  0  0  0
    5.0534    2.4521   -3.7507 C   0  0  0  0  0  0  0  0  0  0  0  0
    6.1076    2.4790   -4.6608 C   0  0  0  0  0  0  0  0  0  0  0  0
    6.8960    1.3422   -4.8924 C   0  0  0  0  0  0  0  0  0  0  0  0
    6.6104    0.1702   -4.1753 C   0  0  0  0  0  0  0  0  0  0  0  0
    5.5625    0.1226   -3.2598 C   0  0  0  0  0  0  0  0  0  0  0  0
    4.7888    1.2675   -3.0627 C   0  0  0  0  0  0  0  0  0  0  0  0
    4.4517    3.3340   -3.5612 H   0  0  0  0  0  0  0  0  0  0  0  0
    6.3258    3.3987   -5.1962 H   0  0  0  0  0  0  0  0  0  0  0  0
    7.2209   -0.7151   -4.3322 H   0  0  0  0  0  0  0  0  0  0  0  0
    5.3521   -0.7787   -2.6947 H   0  0  0  0  0  0  0  0  0  0  0  0
    3.4521    1.2232   -1.8884 S   0  0  0  0  0  0  0  0  0  0  0  0
    3.7032    0.1923   -0.8840 O   0  0  0  0  0  0  0  0  0  0  0  0
    2.2758    0.6571   -2.9365 O   0  0  0  0  0  0  0  0  0  0  0  0
    3.0959    2.5823   -1.4875 O   0  0  0  0  0  0  0  0  0  0  0  0
    8.0134    1.3715   -5.9064 C   0  0  0  0  0  0  0  0  0  0  0  0
    8.4327    2.3751   -6.0174 H   0  0  0  0  0  0  0  0  0  0  0  0
    8.8230    0.6904   -5.6293 H   0  0  0  0  0  0  0  0  0  0  0  0
    7.6494    1.0587   -6.8932 H   0  0  0  0  0  0  0  0  0  0  0  0
   -2.5851   -0.1161   -1.0760 H   0  0  0  0  0  0  0  0  0  0  0  0
  1  7  1  0  0  0  0
  2  8  1  0  0  0  0
  2  1  2  0  0  0  0
  3  2  1  0  0  0  0
  4  3  2  0  0  0  0
  4  5  1  0  0  0  0
  5  6  2  0  0  0  0
  6  1  1  0  0  0  0
  6 31  1  0  0  0  0
  9  4  1  0  0  0  0
 10  5  1  0  0  0  0
 11 12  3  0  0  0  0
 13 19  1  0  0  0  0
 13 18  2  0  0  0  0
 14 13  1  0  0  0  0
 15 14  2  0  0  0  0
 15 16  1  0  0  0  0
 16 17  2  0  0  0  0
 17 18  1  0  0  0  0
 17 22  1  0  0  0  0
 18 23  1  0  0  0  0
 20 14  1  0  0  0  0
 21 16  1  0  0  0  0
 23 26  2  0  0  0  0
 23 24  2  0  0  0  0
 25  3  1  0  0  0  0
 25 23  1  0  0  0  0
 27 29  1  0  0  0  0
 27 15  1  0  0  0  0
 28 27  1  0  0  0  0
 30 27  1  0  0  0  0
M  END
