Coordinates from ORCA-job Ph-N2-OTs-B3LYPG-6-31G_dp-MTMO-d009-169-n800
 OpenBabel09051907503D

 31 30  0  0  0  0  0  0  0  0999 V2000
   -0.1413    0.0283   -1.2467 C   0  0  0  0  0  0  0  0  0  0  0  0
    0.6916    0.7985   -2.0802 C   0  0  0  0  0  0  0  0  0  0  0  0
    0.1886    1.8252   -2.6059 C   0  0  0  0  0  0  0  0  0  0  0  0
   -1.0203    2.4623   -2.5986 C   0  0  0  0  0  0  0  0  0  0  0  0
   -1.8767    1.7027   -1.7643 C   0  0  0  0  0  0  0  0  0  0  0  0
   -1.4497    0.5300   -1.1153 C   0  0  0  0  0  0  0  0  0  0  0  0
    0.1748   -0.8769   -0.7380 H   0  0  0  0  0  0  0  0  0  0  0  0
    2.6199    0.5255   -2.4574 H   0  0  0  0  0  0  0  0  0  0  0  0
   -1.3105    3.3698   -3.1098 H   0  0  0  0  0  0  0  0  0  0  0  0
   -2.8976    2.0501   -1.6277 H   0  0  0  0  0  0  0  0  0  0  0  0
    1.1122    4.5337   -4.4477 N   0  0  0  0  0  0  0  0  0  0  0  0
    1.9296    5.1386   -4.8796 N   0  0  0  0  0  0  0  0  0  0  0  0
    6.8898    1.2615   -2.9240 C   0  0  0  0  0  0  0  0  0  0  0  0
    8.1103    0.7850   -3.3999 C   0  0  0  0  0  0  0  0  0  0  0  0
    8.2275    0.2524   -4.6911 C   0  0  0  0  0  0  0  0  0  0  0  0
    7.0841    0.2061   -5.5042 C   0  0  0  0  0  0  0  0  0  0  0  0
    5.8566    0.6776   -5.0473 C   0  0  0  0  0  0  0  0  0  0  0  0
    5.7716    1.1983   -3.7547 C   0  0  0  0  0  0  0  0  0  0  0  0
    6.7994    1.6833   -1.9294 H   0  0  0  0  0  0  0  0  0  0  0  0
    8.9866    0.8301   -2.7586 H   0  0  0  0  0  0  0  0  0  0  0  0
    7.1580   -0.2021   -6.5085 H   0  0  0  0  0  0  0  0  0  0  0  0
    4.9760    0.6531   -5.6799 H   0  0  0  0  0  0  0  0  0  0  0  0
    4.2068    1.8057   -3.1578 S   0  0  0  0  0  0  0  0  0  0  0  0
    3.5904    0.3953   -2.6234 O   0  0  0  0  0  0  0  0  0  0  0  0
    3.3914    2.2653   -4.2862 O   0  0  0  0  0  0  0  0  0  0  0  0
    4.4391    2.6967   -2.0219 O   0  0  0  0  0  0  0  0  0  0  0  0
    9.5593   -0.2335   -5.2103 C   0  0  0  0  0  0  0  0  0  0  0  0
   10.0491    0.5400   -5.8152 H   0  0  0  0  0  0  0  0  0  0  0  0
   10.2389   -0.4895   -4.3929 H   0  0  0  0  0  0  0  0  0  0  0  0
    9.4419   -1.1161   -5.8466 H   0  0  0  0  0  0  0  0  0  0  0  0
   -2.1577   -0.0063   -0.4887 H   0  0  0  0  0  0  0  0  0  0  0  0
  1  6  1  0  0  0  0
  1  7  1  0  0  0  0
  2  1  2  0  0  0  0
  3  4  2  0  0  0  0
  3  2  1  0  0  0  0
  4  5  1  0  0  0  0
  5 10  1  0  0  0  0
  5  6  2  0  0  0  0
  6 31  1  0  0  0  0
  9  4  1  0  0  0  0
 12 11  3  0  0  0  0
 13 19  1  0  0  0  0
 14 13  1  0  0  0  0
 14 20  1  0  0  0  0
 15 14  2  0  0  0  0
 16 17  2  0  0  0  0
 16 15  1  0  0  0  0
 17 18  1  0  0  0  0
 18 23  1  0  0  0  0
 18 13  2  0  0  0  0
 21 16  1  0  0  0  0
 22 17  1  0  0  0  0
 23 24  1  0  0  0  0
 23 26  2  0  0  0  0
 24  8  1  0  0  0  0
 25 23  2  0  0  0  0
 27 15  1  0  0  0  0
 27 29  1  0  0  0  0
 28 27  1  0  0  0  0
 30 27  1  0  0  0  0
M  RAD  2   2   2   3   2
M  END
