Coordinates from ORCA-job Ph-N2-OTs-B3LYPG-6-31G_dp-MTMO-d009-169-n800
 OpenBabel09051907493D

 31 30  0  0  0  0  0  0  0  0999 V2000
    0.3843    0.2650   -1.5195 C   0  0  0  0  0  0  0  0  0  0  0  0
    1.1693    1.3478   -2.0006 C   0  0  0  0  0  0  0  0  0  0  0  0
    0.3669    2.2076   -2.6093 C   0  0  0  0  0  0  0  0  0  0  0  0
   -0.9490    2.3536   -2.9106 C   0  0  0  0  0  0  0  0  0  0  0  0
   -1.6619    1.2436   -2.4112 C   0  0  0  0  0  0  0  0  0  0  0  0
   -0.9968    0.2201   -1.7258 C   0  0  0  0  0  0  0  0  0  0  0  0
    0.8990   -0.5339   -0.9932 H   0  0  0  0  0  0  0  0  0  0  0  0
    2.3204    1.4153   -1.8835 H   0  0  0  0  0  0  0  0  0  0  0  0
   -1.4034    3.1747   -3.4472 H   0  0  0  0  0  0  0  0  0  0  0  0
   -2.7347    1.2062   -2.5749 H   0  0  0  0  0  0  0  0  0  0  0  0
    1.3716    3.9270   -3.2804 N   0  0  0  0  0  0  0  0  0  0  0  0
    1.6903    4.9637   -3.4892 N   0  0  0  0  0  0  0  0  0  0  0  0
    6.9868    1.7880   -3.2337 C   0  0  0  0  0  0  0  0  0  0  0  0
    8.0872    1.0703   -3.7009 C   0  0  0  0  0  0  0  0  0  0  0  0
    7.9358    0.0377   -4.6361 C   0  0  0  0  0  0  0  0  0  0  0  0
    6.6442   -0.2602   -5.0944 C   0  0  0  0  0  0  0  0  0  0  0  0
    5.5355    0.4478   -4.6352 C   0  0  0  0  0  0  0  0  0  0  0  0
    5.7121    1.4705   -3.7020 C   0  0  0  0  0  0  0  0  0  0  0  0
    7.1077    2.5984   -2.5225 H   0  0  0  0  0  0  0  0  0  0  0  0
    9.0807    1.3181   -3.3354 H   0  0  0  0  0  0  0  0  0  0  0  0
    6.5061   -1.0552   -5.8241 H   0  0  0  0  0  0  0  0  0  0  0  0
    4.5392    0.2284   -5.0030 H   0  0  0  0  0  0  0  0  0  0  0  0
    4.2889    2.3611   -3.0635 S   0  0  0  0  0  0  0  0  0  0  0  0
    3.8541    1.5576   -1.8398 O   0  0  0  0  0  0  0  0  0  0  0  0
    3.2374    2.2912   -4.1201 O   0  0  0  0  0  0  0  0  0  0  0  0
    4.7462    3.7191   -2.7134 O   0  0  0  0  0  0  0  0  0  0  0  0
    9.1346   -0.7151   -5.1642 C   0  0  0  0  0  0  0  0  0  0  0  0
    9.4599   -0.3125   -6.1314 H   0  0  0  0  0  0  0  0  0  0  0  0
    9.9849   -0.6453   -4.4793 H   0  0  0  0  0  0  0  0  0  0  0  0
    8.9072   -1.7750   -5.3167 H   0  0  0  0  0  0  0  0  0  0  0  0
   -1.5651   -0.6248   -1.3506 H   0  0  0  0  0  0  0  0  0  0  0  0
  1  7  1  0  0  0  0
  2  8  1  0  0  0  0
  2  1  2  0  0  0  0
  3  2  1  0  0  0  0
  4  3  2  0  0  0  0
  4  5  1  0  0  0  0
  5  6  2  0  0  0  0
  6  1  1  0  0  0  0
  6 31  1  0  0  0  0
  9  4  1  0  0  0  0
 10  5  1  0  0  0  0
 12 11  3  0  0  0  0
 13 19  1  0  0  0  0
 14 20  1  0  0  0  0
 14 13  2  0  0  0  0
 15 14  1  0  0  0  0
 16 15  2  0  0  0  0
 16 17  1  0  0  0  0
 17 18  2  0  0  0  0
 18 13  1  0  0  0  0
 18 23  1  0  0  0  0
 21 16  1  0  0  0  0
 22 17  1  0  0  0  0
 23 26  2  0  0  0  0
 23 24  1  0  0  0  0
 25 23  2  0  0  0  0
 27 15  1  0  0  0  0
 27 29  1  0  0  0  0
 28 27  1  0  0  0  0
 30 27  1  0  0  0  0
M  RAD  2   3   2  24   2
M  END
