Coordinates from ORCA-job Ph-N2-OTs-B3LYPG-6-31G_dp-MTMO-d009-169-n800
 OpenBabel09051907503D

 31 31  0  0  0  0  0  0  0  0999 V2000
   -0.3994    0.0302   -1.1663 C   0  0  0  0  0  0  0  0  0  0  0  0
    0.9321   -0.0449   -1.5776 C   0  0  0  0  0  0  0  0  0  0  0  0
    1.3449    0.7355   -2.6566 C   0  0  0  0  0  0  0  0  0  0  0  0
    0.4649    1.5818   -3.3277 C   0  0  0  0  0  0  0  0  0  0  0  0
   -0.8653    1.6400   -2.9109 C   0  0  0  0  0  0  0  0  0  0  0  0
   -1.2982    0.8679   -1.8305 C   0  0  0  0  0  0  0  0  0  0  0  0
   -0.7335   -0.5688   -0.3243 H   0  0  0  0  0  0  0  0  0  0  0  0
    1.6472   -0.6861   -1.0759 H   0  0  0  0  0  0  0  0  0  0  0  0
    0.8278    2.1744   -4.1603 H   0  0  0  0  0  0  0  0  0  0  0  0
   -1.5615    2.2931   -3.4288 H   0  0  0  0  0  0  0  0  0  0  0  0
    5.2963    6.4986   -2.6847 N   0  0  0  0  0  0  0  0  0  0  0  0
    5.2828    5.6962   -3.4444 N   0  0  0  0  0  0  0  0  0  0  0  0
    5.6345    2.0324   -4.2603 C   0  0  0  0  0  0  0  0  0  0  0  0
    6.7149    1.7350   -5.0889 C   0  0  0  0  0  0  0  0  0  0  0  0
    7.3683    0.4966   -5.0150 C   0  0  0  0  0  0  0  0  0  0  0  0
    6.9122   -0.4487   -4.0829 C   0  0  0  0  0  0  0  0  0  0  0  0
    5.8385   -0.1705   -3.2420 C   0  0  0  0  0  0  0  0  0  0  0  0
    5.2065    1.0704   -3.3455 C   0  0  0  0  0  0  0  0  0  0  0  0
    5.1381    2.9948   -4.3085 H   0  0  0  0  0  0  0  0  0  0  0  0
    7.0574    2.4792   -5.8027 H   0  0  0  0  0  0  0  0  0  0  0  0
    7.4082   -1.4128   -4.0132 H   0  0  0  0  0  0  0  0  0  0  0  0
    5.4981   -0.8966   -2.5119 H   0  0  0  0  0  0  0  0  0  0  0  0
    3.8414    1.4441   -2.2669 S   0  0  0  0  0  0  0  0  0  0  0  0
    4.0174    0.7586   -0.9878 O   0  0  0  0  0  0  0  0  0  0  0  0
    2.6629    0.6324   -3.1338 O   0  0  0  0  0  0  0  0  0  0  0  0
    3.5474    2.8747   -2.3079 O   0  0  0  0  0  0  0  0  0  0  0  0
    8.5584    0.1978   -5.8941 C   0  0  0  0  0  0  0  0  0  0  0  0
    8.5229    0.7698   -6.8249 H   0  0  0  0  0  0  0  0  0  0  0  0
    9.4939    0.4602   -5.3844 H   0  0  0  0  0  0  0  0  0  0  0  0
    8.6135   -0.8648   -6.1470 H   0  0  0  0  0  0  0  0  0  0  0  0
   -2.3331    0.9200   -1.5060 H   0  0  0  0  0  0  0  0  0  0  0  0
  1  7  1  0  0  0  0
  2  1  1  0  0  0  0
  2  8  1  0  0  0  0
  3  2  2  0  0  0  0
  4  5  2  0  0  0  0
  4  3  1  0  0  0  0
  5  6  1  0  0  0  0
  6 31  1  0  0  0  0
  6  1  2  0  0  0  0
  9  4  1  0  0  0  0
 10  5  1  0  0  0  0
 12 11  3  0  0  0  0
 13 18  2  0  0  0  0
 14 15  2  0  0  0  0
 14 13  1  0  0  0  0
 15 16  1  0  0  0  0
 16 21  1  0  0  0  0
 16 17  2  0  0  0  0
 17 22  1  0  0  0  0
 18 17  1  0  0  0  0
 18 23  1  0  0  0  0
 19 13  1  0  0  0  0
 20 14  1  0  0  0  0
 23 24  2  0  0  0  0
 25  3  1  0  0  0  0
 25 23  1  0  0  0  0
 26 23  2  0  0  0  0
 27 29  1  0  0  0  0
 27 15  1  0  0  0  0
 28 27  1  0  0  0  0
 30 27  1  0  0  0  0
M  END
