Coordinates from ORCA-job Ph-N2-OTs-B3LYPG-6-31G_dp-MTMO-d009-169-n800
 OpenBabel09051907503D

 31 31  0  0  0  0  0  0  0  0999 V2000
   -0.7034   -1.0718   -1.4014 C   0  0  0  0  0  0  0  0  0  0  0  0
    0.5940   -0.8433   -1.8616 C   0  0  0  0  0  0  0  0  0  0  0  0
    0.9161    0.4152   -2.3662 C   0  0  0  0  0  0  0  0  0  0  0  0
   -0.0194    1.4470   -2.4141 C   0  0  0  0  0  0  0  0  0  0  0  0
   -1.3132    1.2046   -1.9510 C   0  0  0  0  0  0  0  0  0  0  0  0
   -1.6566   -0.0517   -1.4457 C   0  0  0  0  0  0  0  0  0  0  0  0
   -0.9676   -2.0480   -1.0061 H   0  0  0  0  0  0  0  0  0  0  0  0
    1.3524   -1.6175   -1.8337 H   0  0  0  0  0  0  0  0  0  0  0  0
    0.2727    2.4140   -2.8073 H   0  0  0  0  0  0  0  0  0  0  0  0
   -2.0521    1.9998   -1.9846 H   0  0  0  0  0  0  0  0  0  0  0  0
   12.7489    4.9852   -7.4780 N   0  0  0  0  0  0  0  0  0  0  0  0
   11.7558    4.5921   -7.1936 N   0  0  0  0  0  0  0  0  0  0  0  0
    4.9543    2.4838   -3.6541 C   0  0  0  0  0  0  0  0  0  0  0  0
    6.0131    2.5476   -4.5566 C   0  0  0  0  0  0  0  0  0  0  0  0
    6.8203    1.4284   -4.8095 C   0  0  0  0  0  0  0  0  0  0  0  0
    6.5479    0.2358   -4.1225 C   0  0  0  0  0  0  0  0  0  0  0  0
    5.4951    0.1511   -3.2150 C   0  0  0  0  0  0  0  0  0  0  0  0
    4.7035    1.2793   -2.9957 C   0  0  0  0  0  0  0  0  0  0  0  0
    4.3384    3.3519   -3.4475 H   0  0  0  0  0  0  0  0  0  0  0  0
    6.2206    3.4830   -5.0687 H   0  0  0  0  0  0  0  0  0  0  0  0
    7.1725   -0.6364   -4.2962 H   0  0  0  0  0  0  0  0  0  0  0  0
    5.2949   -0.7664   -2.6727 H   0  0  0  0  0  0  0  0  0  0  0  0
    3.3616    1.1881   -1.8301 S   0  0  0  0  0  0  0  0  0  0  0  0
    3.6223    0.1369   -0.8495 O   0  0  0  0  0  0  0  0  0  0  0  0
    2.1989    0.6313   -2.8979 O   0  0  0  0  0  0  0  0  0  0  0  0
    2.9845    2.5321   -1.3985 O   0  0  0  0  0  0  0  0  0  0  0  0
    7.9443    1.5008   -5.8139 C   0  0  0  0  0  0  0  0  0  0  0  0
    8.3742    2.5052   -5.8646 H   0  0  0  0  0  0  0  0  0  0  0  0
    8.7456    0.7975   -5.5704 H   0  0  0  0  0  0  0  0  0  0  0  0
    7.5842    1.2497   -6.8195 H   0  0  0  0  0  0  0  0  0  0  0  0
   -2.6644   -0.2347   -1.0855 H   0  0  0  0  0  0  0  0  0  0  0  0
  1  7  1  0  0  0  0
  2  8  1  0  0  0  0
  2  1  2  0  0  0  0
  3  2  1  0  0  0  0
  4  3  2  0  0  0  0
  4  5  1  0  0  0  0
  5  6  2  0  0  0  0
  6  1  1  0  0  0  0
  6 31  1  0  0  0  0
  9  4  1  0  0  0  0
 10  5  1  0  0  0  0
 11 12  3  0  0  0  0
 13 19  1  0  0  0  0
 13 18  2  0  0  0  0
 14 13  1  0  0  0  0
 15 14  2  0  0  0  0
 15 16  1  0  0  0  0
 16 17  2  0  0  0  0
 17 18  1  0  0  0  0
 17 22  1  0  0  0  0
 18 23  1  0  0  0  0
 20 14  1  0  0  0  0
 21 16  1  0  0  0  0
 23 26  2  0  0  0  0
 23 24  2  0  0  0  0
 25  3  1  0  0  0  0
 25 23  1  0  0  0  0
 27 29  1  0  0  0  0
 27 15  1  0  0  0  0
 28 27  1  0  0  0  0
 30 27  1  0  0  0  0
M  END
