Coordinates from ORCA-job Ph-N2-OTs-B3LYPG-6-31G_dp-MTMO-d009-169-n800
 OpenBabel09051907503D

 31 30  0  0  0  0  0  0  0  0999 V2000
   -0.3085   -0.0166   -1.1067 C   0  0  0  0  0  0  0  0  0  0  0  0
    0.7774    0.5889   -1.7676 C   0  0  0  0  0  0  0  0  0  0  0  0
    0.5115    1.5770   -2.5022 C   0  0  0  0  0  0  0  0  0  0  0  0
   -0.5926    2.2862   -2.8796 C   0  0  0  0  0  0  0  0  0  0  0  0
   -1.6972    1.6877   -2.2245 C   0  0  0  0  0  0  0  0  0  0  0  0
   -1.5567    0.5776   -1.3715 C   0  0  0  0  0  0  0  0  0  0  0  0
   -0.2170   -0.8733   -0.4457 H   0  0  0  0  0  0  0  0  0  0  0  0
    2.7740    0.3662   -1.9256 H   0  0  0  0  0  0  0  0  0  0  0  0
   -0.6569    3.1418   -3.5376 H   0  0  0  0  0  0  0  0  0  0  0  0
   -2.6831    2.1125   -2.3952 H   0  0  0  0  0  0  0  0  0  0  0  0
    1.3873    4.5564   -4.6635 N   0  0  0  0  0  0  0  0  0  0  0  0
    2.3501    4.9986   -4.9765 N   0  0  0  0  0  0  0  0  0  0  0  0
    6.9646    1.3311   -2.8507 C   0  0  0  0  0  0  0  0  0  0  0  0
    8.1186    0.9046   -3.5065 C   0  0  0  0  0  0  0  0  0  0  0  0
    8.0600    0.3570   -4.7951 C   0  0  0  0  0  0  0  0  0  0  0  0
    6.8077    0.2432   -5.4202 C   0  0  0  0  0  0  0  0  0  0  0  0
    5.6447    0.6633   -4.7823 C   0  0  0  0  0  0  0  0  0  0  0  0
    5.7359    1.2016   -3.4966 C   0  0  0  0  0  0  0  0  0  0  0  0
    7.0076    1.7642   -1.8581 H   0  0  0  0  0  0  0  0  0  0  0  0
    9.0804    1.0011   -3.0103 H   0  0  0  0  0  0  0  0  0  0  0  0
    6.7459   -0.1773   -6.4200 H   0  0  0  0  0  0  0  0  0  0  0  0
    4.6792    0.5866   -5.2706 H   0  0  0  0  0  0  0  0  0  0  0  0
    4.2547    1.7437   -2.6690 S   0  0  0  0  0  0  0  0  0  0  0  0
    3.7537    0.3138   -2.0767 O   0  0  0  0  0  0  0  0  0  0  0  0
    3.2709    2.1912   -3.6640 O   0  0  0  0  0  0  0  0  0  0  0  0
    4.6220    2.6292   -1.5664 O   0  0  0  0  0  0  0  0  0  0  0  0
    9.3161   -0.0763   -5.5115 C   0  0  0  0  0  0  0  0  0  0  0  0
    9.6305    0.6797   -6.2416 H   0  0  0  0  0  0  0  0  0  0  0  0
   10.1442   -0.2257   -4.8135 H   0  0  0  0  0  0  0  0  0  0  0  0
    9.1606   -1.0100   -6.0611 H   0  0  0  0  0  0  0  0  0  0  0  0
   -2.4458    0.1665   -0.9011 H   0  0  0  0  0  0  0  0  0  0  0  0
  1  7  1  0  0  0  0
  2  1  2  0  0  0  0
  3  2  1  0  0  0  0
  4  3  2  0  0  0  0
  4  5  1  0  0  0  0
  5  6  2  0  0  0  0
  6  1  1  0  0  0  0
  6 31  1  0  0  0  0
  9  4  1  0  0  0  0
 10  5  1  0  0  0  0
 12 11  3  0  0  0  0
 13 19  1  0  0  0  0
 14 20  1  0  0  0  0
 14 13  2  0  0  0  0
 15 14  1  0  0  0  0
 16 15  2  0  0  0  0
 16 17  1  0  0  0  0
 17 18  2  0  0  0  0
 18 13  1  0  0  0  0
 18 23  1  0  0  0  0
 21 16  1  0  0  0  0
 22 17  1  0  0  0  0
 23 24  1  0  0  0  0
 23 26  2  0  0  0  0
 24  8  1  0  0  0  0
 25 23  2  0  0  0  0
 27 29  1  0  0  0  0
 27 15  1  0  0  0  0
 28 27  1  0  0  0  0
 30 27  1  0  0  0  0
M  RAD  2   2   2   3   2
M  END
