Coordinates from ORCA-job Ph-N2-OTs-B3LYPG-6-31G_dp-MTMO-d009-169-n800
 OpenBabel09051907493D

 31 30  0  0  0  0  0  0  0  0999 V2000
    0.1715    0.2503   -1.5876 C   0  0  0  0  0  0  0  0  0  0  0  0
    0.7624    1.3141   -2.3151 C   0  0  0  0  0  0  0  0  0  0  0  0
   -0.0232    2.2999   -2.4852 C   0  0  0  0  0  0  0  0  0  0  0  0
   -1.3043    2.6560   -2.1787 C   0  0  0  0  0  0  0  0  0  0  0  0
   -1.8823    1.5895   -1.4561 C   0  0  0  0  0  0  0  0  0  0  0  0
   -1.1578    0.4191   -1.1709 C   0  0  0  0  0  0  0  0  0  0  0  0
    0.7149   -0.6623   -1.3589 H   0  0  0  0  0  0  0  0  0  0  0  0
    2.4798    1.0173   -2.8625 H   0  0  0  0  0  0  0  0  0  0  0  0
   -1.8155    3.5773   -2.4247 H   0  0  0  0  0  0  0  0  0  0  0  0
   -2.9097    1.6905   -1.1181 H   0  0  0  0  0  0  0  0  0  0  0  0
    0.8035    4.0956   -3.5841 N   0  0  0  0  0  0  0  0  0  0  0  0
    1.6734    4.6562   -3.9736 N   0  0  0  0  0  0  0  0  0  0  0  0
    6.7395    1.3903   -3.1304 C   0  0  0  0  0  0  0  0  0  0  0  0
    7.9841    0.8072   -3.3599 C   0  0  0  0  0  0  0  0  0  0  0  0
    8.2517    0.1126   -4.5483 C   0  0  0  0  0  0  0  0  0  0  0  0
    7.2352    0.0141   -5.5104 C   0  0  0  0  0  0  0  0  0  0  0  0
    5.9851    0.5905   -5.2992 C   0  0  0  0  0  0  0  0  0  0  0  0
    5.7486    1.2713   -4.1044 C   0  0  0  0  0  0  0  0  0  0  0  0
    6.5350    1.9378   -2.2171 H   0  0  0  0  0  0  0  0  0  0  0  0
    8.7614    0.8960   -2.6052 H   0  0  0  0  0  0  0  0  0  0  0  0
    7.4270   -0.5182   -6.4383 H   0  0  0  0  0  0  0  0  0  0  0  0
    5.2023    0.5257   -6.0473 H   0  0  0  0  0  0  0  0  0  0  0  0
    4.1523    2.0126   -3.8222 S   0  0  0  0  0  0  0  0  0  0  0  0
    3.4232    0.7547   -3.1097 O   0  0  0  0  0  0  0  0  0  0  0  0
    3.5053    2.2779   -5.1101 O   0  0  0  0  0  0  0  0  0  0  0  0
    4.2875    3.1034   -2.8530 O   0  0  0  0  0  0  0  0  0  0  0  0
    9.6131   -0.4886   -4.8033 C   0  0  0  0  0  0  0  0  0  0  0  0
   10.2449    0.2022   -5.3760 H   0  0  0  0  0  0  0  0  0  0  0  0
   10.1349   -0.7099   -3.8682 H   0  0  0  0  0  0  0  0  0  0  0  0
    9.5399   -1.4153   -5.3803 H   0  0  0  0  0  0  0  0  0  0  0  0
   -1.6439   -0.3770   -0.6130 H   0  0  0  0  0  0  0  0  0  0  0  0
  1  7  1  0  0  0  0
  1  6  2  0  0  0  0
  2  1  1  0  0  0  0
  3  2  2  0  0  0  0
  3  4  1  0  0  0  0
  4  5  2  0  0  0  0
  5  6  1  0  0  0  0
  5 10  1  0  0  0  0
  6 31  1  0  0  0  0
  9  4  1  0  0  0  0
 12 11  3  0  0  0  0
 13 19  1  0  0  0  0
 14 13  1  0  0  0  0
 14 20  1  0  0  0  0
 15 14  2  0  0  0  0
 16 17  2  0  0  0  0
 16 15  1  0  0  0  0
 17 18  1  0  0  0  0
 18 23  1  0  0  0  0
 18 13  2  0  0  0  0
 21 16  1  0  0  0  0
 22 17  1  0  0  0  0
 23 24  1  0  0  0  0
 23 26  2  0  0  0  0
 24  8  1  0  0  0  0
 25 23  2  0  0  0  0
 27 15  1  0  0  0  0
 27 29  1  0  0  0  0
 28 27  1  0  0  0  0
 30 27  1  0  0  0  0
M  RAD  2   2   2   3   2
M  END
