Coordinates from ORCA-job Ph-N2-OTs-B3LYPG-6-31G_dp-MTMO-d009-169-n800
 OpenBabel09051907503D

 31 31  0  0  0  0  0  0  0  0999 V2000
   -0.7819   -1.0698   -1.3873 C   0  0  0  0  0  0  0  0  0  0  0  0
    0.5205   -0.8569   -1.8407 C   0  0  0  0  0  0  0  0  0  0  0  0
    0.8605    0.3978   -2.3431 C   0  0  0  0  0  0  0  0  0  0  0  0
   -0.0622    1.4409   -2.3953 C   0  0  0  0  0  0  0  0  0  0  0  0
   -1.3611    1.2140   -1.9390 C   0  0  0  0  0  0  0  0  0  0  0  0
   -1.7223   -0.0382   -1.4360 C   0  0  0  0  0  0  0  0  0  0  0  0
   -1.0599   -2.0429   -0.9939 H   0  0  0  0  0  0  0  0  0  0  0  0
    1.2693   -1.6404   -1.8094 H   0  0  0  0  0  0  0  0  0  0  0  0
    0.2438    2.4045   -2.7864 H   0  0  0  0  0  0  0  0  0  0  0  0
   -2.0901    2.0182   -1.9760 H   0  0  0  0  0  0  0  0  0  0  0  0
   13.4722    5.5510   -7.9096 N   0  0  0  0  0  0  0  0  0  0  0  0
   12.5006    5.0781   -7.6774 N   0  0  0  0  0  0  0  0  0  0  0  0
    4.9206    2.4312   -3.6064 C   0  0  0  0  0  0  0  0  0  0  0  0
    5.9814    2.4905   -4.5073 C   0  0  0  0  0  0  0  0  0  0  0  0
    6.7780    1.3657   -4.7659 C   0  0  0  0  0  0  0  0  0  0  0  0
    6.4937    0.1711   -4.0865 C   0  0  0  0  0  0  0  0  0  0  0  0
    5.4393    0.0908   -3.1811 C   0  0  0  0  0  0  0  0  0  0  0  0
    4.6579    1.2255   -2.9558 C   0  0  0  0  0  0  0  0  0  0  0  0
    4.3124    3.3037   -3.3955 H   0  0  0  0  0  0  0  0  0  0  0  0
    6.1982    3.4269   -5.0137 H   0  0  0  0  0  0  0  0  0  0  0  0
    7.1104   -0.7058   -4.2648 H   0  0  0  0  0  0  0  0  0  0  0  0
    5.2296   -0.8279   -2.6445 H   0  0  0  0  0  0  0  0  0  0  0  0
    3.3125    1.1397   -1.7940 S   0  0  0  0  0  0  0  0  0  0  0  0
    3.5617    0.0812   -0.8183 O   0  0  0  0  0  0  0  0  0  0  0  0
    2.1485    0.5986   -2.8681 O   0  0  0  0  0  0  0  0  0  0  0  0
    2.9456    2.4846   -1.3564 O   0  0  0  0  0  0  0  0  0  0  0  0
    7.9050    1.4318   -5.7674 C   0  0  0  0  0  0  0  0  0  0  0  0
    8.2838    2.4512   -5.8789 H   0  0  0  0  0  0  0  0  0  0  0  0
    8.7386    0.7865   -5.4755 H   0  0  0  0  0  0  0  0  0  0  0  0
    7.5669    1.0982   -6.7564 H   0  0  0  0  0  0  0  0  0  0  0  0
   -2.7341   -0.2091   -1.0811 H   0  0  0  0  0  0  0  0  0  0  0  0
  1  7  1  0  0  0  0
  2  8  1  0  0  0  0
  2  1  2  0  0  0  0
  3  2  1  0  0  0  0
  4  3  2  0  0  0  0
  4  5  1  0  0  0  0
  5  6  2  0  0  0  0
  6  1  1  0  0  0  0
  6 31  1  0  0  0  0
  9  4  1  0  0  0  0
 10  5  1  0  0  0  0
 11 12  3  0  0  0  0
 13 19  1  0  0  0  0
 13 18  2  0  0  0  0
 14 13  1  0  0  0  0
 15 14  2  0  0  0  0
 15 16  1  0  0  0  0
 16 17  2  0  0  0  0
 17 18  1  0  0  0  0
 17 22  1  0  0  0  0
 18 23  1  0  0  0  0
 20 14  1  0  0  0  0
 21 16  1  0  0  0  0
 23 26  2  0  0  0  0
 23 24  2  0  0  0  0
 25  3  1  0  0  0  0
 25 23  1  0  0  0  0
 27 29  1  0  0  0  0
 27 15  1  0  0  0  0
 28 27  1  0  0  0  0
 30 27  1  0  0  0  0
M  END
