Coordinates from ORCA-job Ph-N2-OTs-B3LYPG-6-31G_dp-MTMO-d009-169-n800
 OpenBabel09051907503D

 31 31  0  0  0  0  0  0  0  0999 V2000
   -0.7876   -1.0715   -1.3844 C   0  0  0  0  0  0  0  0  0  0  0  0
    0.5149   -0.8589   -1.8378 C   0  0  0  0  0  0  0  0  0  0  0  0
    0.8551    0.3956   -2.3404 C   0  0  0  0  0  0  0  0  0  0  0  0
   -0.0673    1.4390   -2.3928 C   0  0  0  0  0  0  0  0  0  0  0  0
   -1.3663    1.2124   -1.9365 C   0  0  0  0  0  0  0  0  0  0  0  0
   -1.7278   -0.0396   -1.4333 C   0  0  0  0  0  0  0  0  0  0  0  0
   -1.0658   -2.0444   -0.9908 H   0  0  0  0  0  0  0  0  0  0  0  0
    1.2635   -1.6426   -1.8064 H   0  0  0  0  0  0  0  0  0  0  0  0
    0.2389    2.4024   -2.7841 H   0  0  0  0  0  0  0  0  0  0  0  0
   -2.0951    2.0168   -1.9736 H   0  0  0  0  0  0  0  0  0  0  0  0
   13.5487    5.5923   -7.9459 N   0  0  0  0  0  0  0  0  0  0  0  0
   12.5777    5.1180   -7.7144 N   0  0  0  0  0  0  0  0  0  0  0  0
    4.9156    2.4280   -3.6041 C   0  0  0  0  0  0  0  0  0  0  0  0
    5.9764    2.4869   -4.5051 C   0  0  0  0  0  0  0  0  0  0  0  0
    6.7728    1.3619   -4.7636 C   0  0  0  0  0  0  0  0  0  0  0  0
    6.4882    0.1674   -4.0839 C   0  0  0  0  0  0  0  0  0  0  0  0
    5.4339    0.0875   -3.1784 C   0  0  0  0  0  0  0  0  0  0  0  0
    4.6527    1.2224   -2.9533 C   0  0  0  0  0  0  0  0  0  0  0  0
    4.3076    3.3006   -3.3934 H   0  0  0  0  0  0  0  0  0  0  0  0
    6.1934    3.4231   -5.0117 H   0  0  0  0  0  0  0  0  0  0  0  0
    7.1048   -0.7096   -4.2621 H   0  0  0  0  0  0  0  0  0  0  0  0
    5.2240   -0.8311   -2.6417 H   0  0  0  0  0  0  0  0  0  0  0  0
    3.3073    1.1371   -1.7915 S   0  0  0  0  0  0  0  0  0  0  0  0
    3.5563    0.0787   -0.8156 O   0  0  0  0  0  0  0  0  0  0  0  0
    2.1431    0.5960   -2.8655 O   0  0  0  0  0  0  0  0  0  0  0  0
    2.9407    2.4821   -1.3541 O   0  0  0  0  0  0  0  0  0  0  0  0
    7.8998    1.4275   -5.7651 C   0  0  0  0  0  0  0  0  0  0  0  0
    8.2780    2.4470   -5.8776 H   0  0  0  0  0  0  0  0  0  0  0  0
    8.7337    0.7829   -5.4725 H   0  0  0  0  0  0  0  0  0  0  0  0
    7.5619    1.0927   -6.7538 H   0  0  0  0  0  0  0  0  0  0  0  0
   -2.7396   -0.2102   -1.0783 H   0  0  0  0  0  0  0  0  0  0  0  0
  1  7  1  0  0  0  0
  2  8  1  0  0  0  0
  2  1  2  0  0  0  0
  3  2  1  0  0  0  0
  4  3  2  0  0  0  0
  4  5  1  0  0  0  0
  5  6  2  0  0  0  0
  6  1  1  0  0  0  0
  6 31  1  0  0  0  0
  9  4  1  0  0  0  0
 10  5  1  0  0  0  0
 11 12  3  0  0  0  0
 13 19  1  0  0  0  0
 13 18  2  0  0  0  0
 14 13  1  0  0  0  0
 15 14  2  0  0  0  0
 15 16  1  0  0  0  0
 16 17  2  0  0  0  0
 17 18  1  0  0  0  0
 17 22  1  0  0  0  0
 18 23  1  0  0  0  0
 20 14  1  0  0  0  0
 21 16  1  0  0  0  0
 23 26  2  0  0  0  0
 23 24  2  0  0  0  0
 25  3  1  0  0  0  0
 25 23  1  0  0  0  0
 27 29  1  0  0  0  0
 27 15  1  0  0  0  0
 28 27  1  0  0  0  0
 30 27  1  0  0  0  0
M  END
