Coordinates from ORCA-job Ph-N2-OTs-B3LYPG-6-31G_dp-MTMO-d009-169-n800
 OpenBabel09051907493D

 31 32  0  0  1  0  0  0  0  0999 V2000
    0.2776    0.5460   -2.3518 C   0  0  0  0  0  0  0  0  0  0  0  0
    1.2148    1.1268   -3.3586 C   0  0  1  0  0  0  0  0  0  0  0  0
    1.3877    2.6524   -3.2196 C   0  0  0  0  0  0  0  0  0  0  0  0
    0.9631    3.2949   -1.9639 C   0  0  0  0  0  0  0  0  0  0  0  0
    0.2377    2.6190   -1.0501 C   0  0  0  0  0  0  0  0  0  0  0  0
   -0.1457    1.2359   -1.2772 C   0  0  0  0  0  0  0  0  0  0  0  0
   -0.0130   -0.4870   -2.5139 H   0  0  0  0  0  0  0  0  0  0  0  0
    0.9228    0.8918   -4.3854 H   0  0  0  0  0  0  0  0  0  0  0  0
    1.2525    4.3321   -1.8247 H   0  0  0  0  0  0  0  0  0  0  0  0
   -0.0755    3.1119   -0.1356 H   0  0  0  0  0  0  0  0  0  0  0  0
    1.8716    3.1917   -4.0209 N   0  0  0  0  0  0  0  0  0  0  0  0
    2.3995    3.7539   -4.8891 N   0  0  0  0  0  0  0  0  0  0  0  0
    5.3237    1.3259   -4.6966 C   0  0  0  0  0  0  0  0  0  0  0  0
    6.6606    1.6874   -4.5671 C   0  0  0  0  0  0  0  0  0  0  0  0
    7.5900    0.8338   -3.9497 C   0  0  0  0  0  0  0  0  0  0  0  0
    7.1429   -0.3988   -3.4569 C   0  0  0  0  0  0  0  0  0  0  0  0
    5.8063   -0.7805   -3.5725 C   0  0  0  0  0  0  0  0  0  0  0  0
    4.9099    0.0889   -4.1916 C   0  0  0  0  0  0  0  0  0  0  0  0
    4.6143    1.9922   -5.1759 H   0  0  0  0  0  0  0  0  0  0  0  0
    6.9905    2.6479   -4.9532 H   0  0  0  0  0  0  0  0  0  0  0  0
    7.8488   -1.0717   -2.9782 H   0  0  0  0  0  0  0  0  0  0  0  0
    5.4580   -1.7357   -3.1968 H   0  0  0  0  0  0  0  0  0  0  0  0
    3.2046   -0.3972   -4.3569 S   0  0  0  0  0  0  0  0  0  0  0  0
    3.0654   -1.8033   -3.9869 O   0  0  0  0  0  0  0  0  0  0  0  0
    2.6651    0.0884   -5.6300 O   0  0  0  0  0  0  0  0  0  0  0  0
    2.5564    0.5265   -3.1478 O   0  0  0  0  0  0  0  0  0  0  0  0
    9.0413    1.2345   -3.8423 C   0  0  0  0  0  0  0  0  0  0  0  0
    9.5436    1.1535   -4.8140 H   0  0  0  0  0  0  0  0  0  0  0  0
    9.1438    2.2738   -3.5136 H   0  0  0  0  0  0  0  0  0  0  0  0
    9.5820    0.5991   -3.1362 H   0  0  0  0  0  0  0  0  0  0  0  0
   -0.8008    0.7567   -0.5547 H   0  0  0  0  0  0  0  0  0  0  0  0
  1  6  2  0  0  0  0
  2  8  1  6  0  0  0
  2  3  1  0  0  0  0
  2 26  1  0  0  0  0
  2  1  1  0  0  0  0
  3  4  2  0  0  0  0
  4  9  1  0  0  0  0
  4  5  1  0  0  0  0
  5 10  1  0  0  0  0
  6  5  1  0  0  0  0
  6 31  1  0  0  0  0
  7  1  1  0  0  0  0
 11  3  1  0  0  0  0
 12 11  1  0  0  0  0
 13 14  2  0  0  0  0
 13 18  1  0  0  0  0
 14 15  1  0  0  0  0
 15 27  1  0  0  0  0
 15 16  2  0  0  0  0
 16 21  1  0  0  0  0
 17 16  1  0  0  0  0
 17 22  1  0  0  0  0
 18 17  2  0  0  0  0
 19 13  1  0  0  0  0
 20 14  1  0  0  0  0
 23 18  1  0  0  0  0
 23 24  2  0  0  0  0
 23 26  1  0  0  0  0
 25 23  2  0  0  0  0
 27 29  1  0  0  0  0
 27 30  1  0  0  0  0
 28 27  1  0  0  0  0
M  RAD  3   5   2  11   2  12   3
M  END
