Coordinates from ORCA-job Ph-N2-OTs-B3LYPG-6-31G_dp-MTMO-d009-169-n800
 OpenBabel09051907493D

 31 30  0  0  0  0  0  0  0  0999 V2000
    0.0902    0.1604   -1.5226 C   0  0  0  0  0  0  0  0  0  0  0  0
    0.7133    1.1962   -2.2543 C   0  0  0  0  0  0  0  0  0  0  0  0
   -0.0027    2.2158   -2.4597 C   0  0  0  0  0  0  0  0  0  0  0  0
   -1.2671    2.6433   -2.1777 C   0  0  0  0  0  0  0  0  0  0  0  0
   -1.8980    1.6099   -1.4449 C   0  0  0  0  0  0  0  0  0  0  0  0
   -1.2364    0.4094   -1.1303 C   0  0  0  0  0  0  0  0  0  0  0  0
    0.5871   -0.7720   -1.2724 H   0  0  0  0  0  0  0  0  0  0  0  0
    2.4994    0.9165   -2.8435 H   0  0  0  0  0  0  0  0  0  0  0  0
   -1.7364    3.5815   -2.4412 H   0  0  0  0  0  0  0  0  0  0  0  0
   -2.9237    1.7632   -1.1207 H   0  0  0  0  0  0  0  0  0  0  0  0
    0.9399    4.3083   -3.7280 N   0  0  0  0  0  0  0  0  0  0  0  0
    1.7928    4.8914   -4.1199 N   0  0  0  0  0  0  0  0  0  0  0  0
    6.7358    1.3741   -3.1262 C   0  0  0  0  0  0  0  0  0  0  0  0
    7.9900    0.8161   -3.3652 C   0  0  0  0  0  0  0  0  0  0  0  0
    8.2659    0.1372   -4.5607 C   0  0  0  0  0  0  0  0  0  0  0  0
    7.2481    0.0283   -5.5203 C   0  0  0  0  0  0  0  0  0  0  0  0
    5.9884    0.5796   -5.3000 C   0  0  0  0  0  0  0  0  0  0  0  0
    5.7439    1.2453   -4.0981 C   0  0  0  0  0  0  0  0  0  0  0  0
    6.5245    1.9095   -2.2072 H   0  0  0  0  0  0  0  0  0  0  0  0
    8.7682    0.9126   -2.6126 H   0  0  0  0  0  0  0  0  0  0  0  0
    7.4463   -0.4923   -6.4535 H   0  0  0  0  0  0  0  0  0  0  0  0
    5.2042    0.5069   -6.0459 H   0  0  0  0  0  0  0  0  0  0  0  0
    4.1365    1.9563   -3.8052 S   0  0  0  0  0  0  0  0  0  0  0  0
    3.4339    0.6707   -3.1007 O   0  0  0  0  0  0  0  0  0  0  0  0
    3.4782    2.2178   -5.0868 O   0  0  0  0  0  0  0  0  0  0  0  0
    4.2515    3.0356   -2.8220 O   0  0  0  0  0  0  0  0  0  0  0  0
    9.6372   -0.4364   -4.8258 C   0  0  0  0  0  0  0  0  0  0  0  0
   10.2518    0.2688   -5.3997 H   0  0  0  0  0  0  0  0  0  0  0  0
   10.1688   -0.6508   -3.8946 H   0  0  0  0  0  0  0  0  0  0  0  0
    9.5787   -1.3622   -5.4061 H   0  0  0  0  0  0  0  0  0  0  0  0
   -1.7709   -0.3503   -0.5659 H   0  0  0  0  0  0  0  0  0  0  0  0
  1  7  1  0  0  0  0
  1  6  2  0  0  0  0
  2  1  1  0  0  0  0
  3  2  2  0  0  0  0
  3  4  1  0  0  0  0
  4  5  2  0  0  0  0
  5  6  1  0  0  0  0
  5 10  1  0  0  0  0
  6 31  1  0  0  0  0
  9  4  1  0  0  0  0
 12 11  3  0  0  0  0
 13 19  1  0  0  0  0
 14 13  1  0  0  0  0
 14 20  1  0  0  0  0
 15 14  2  0  0  0  0
 16 17  2  0  0  0  0
 16 15  1  0  0  0  0
 17 18  1  0  0  0  0
 18 23  1  0  0  0  0
 18 13  2  0  0  0  0
 21 16  1  0  0  0  0
 22 17  1  0  0  0  0
 23 24  1  0  0  0  0
 23 26  2  0  0  0  0
 24  8  1  0  0  0  0
 25 23  2  0  0  0  0
 27 15  1  0  0  0  0
 27 29  1  0  0  0  0
 28 27  1  0  0  0  0
 30 27  1  0  0  0  0
M  RAD  2   2   2   3   2
M  END
