Coordinates from ORCA-job Ph-N2-OTs-B3LYPG-6-31G_dp-MTMO-d009-169-n800
 OpenBabel09051907503D

 31 31  0  0  0  0  0  0  0  0999 V2000
   -0.7195   -0.8552   -1.5701 C   0  0  0  0  0  0  0  0  0  0  0  0
    0.6005   -0.7085   -1.9982 C   0  0  0  0  0  0  0  0  0  0  0  0
    1.0262    0.5404   -2.4471 C   0  0  0  0  0  0  0  0  0  0  0  0
    0.1716    1.6409   -2.4713 C   0  0  0  0  0  0  0  0  0  0  0  0
   -1.1463    1.4795   -2.0423 C   0  0  0  0  0  0  0  0  0  0  0  0
   -1.5929    0.2347   -1.5921 C   0  0  0  0  0  0  0  0  0  0  0  0
   -1.0639   -1.8228   -1.2176 H   0  0  0  0  0  0  0  0  0  0  0  0
    1.2984   -1.5380   -1.9866 H   0  0  0  0  0  0  0  0  0  0  0  0
    0.5440    2.5969   -2.8211 H   0  0  0  0  0  0  0  0  0  0  0  0
   -1.8228    2.3289   -2.0584 H   0  0  0  0  0  0  0  0  0  0  0  0
   10.3447    5.5446   -7.3862 N   0  0  0  0  0  0  0  0  0  0  0  0
    9.5739    4.8882   -6.9430 N   0  0  0  0  0  0  0  0  0  0  0  0
    5.2538    2.3447   -3.5175 C   0  0  0  0  0  0  0  0  0  0  0  0
    6.3305    2.3873   -4.4024 C   0  0  0  0  0  0  0  0  0  0  0  0
    7.0376    1.2258   -4.7405 C   0  0  0  0  0  0  0  0  0  0  0  0
    6.6436    0.0073   -4.1636 C   0  0  0  0  0  0  0  0  0  0  0  0
    5.5738   -0.0569   -3.2771 C   0  0  0  0  0  0  0  0  0  0  0  0
    4.8845    1.1182   -2.9674 C   0  0  0  0  0  0  0  0  0  0  0  0
    4.7135    3.2446   -3.2459 H   0  0  0  0  0  0  0  0  0  0  0  0
    6.6288    3.3382   -4.8341 H   0  0  0  0  0  0  0  0  0  0  0  0
    7.1866   -0.9012   -4.4097 H   0  0  0  0  0  0  0  0  0  0  0  0
    5.2794   -0.9949   -2.8200 H   0  0  0  0  0  0  0  0  0  0  0  0
    3.5196    1.0509   -1.8275 S   0  0  0  0  0  0  0  0  0  0  0  0
    3.6739   -0.0938   -0.9325 O   0  0  0  0  0  0  0  0  0  0  0  0
    2.3317    0.6829   -2.9473 O   0  0  0  0  0  0  0  0  0  0  0  0
    3.2501    2.3835   -1.2924 O   0  0  0  0  0  0  0  0  0  0  0  0
    8.2036    1.2741   -5.6977 C   0  0  0  0  0  0  0  0  0  0  0  0
    8.3831    2.2874   -6.0636 H   0  0  0  0  0  0  0  0  0  0  0  0
    9.1226    0.9210   -5.2163 H   0  0  0  0  0  0  0  0  0  0  0  0
    8.0282    0.6272   -6.5646 H   0  0  0  0  0  0  0  0  0  0  0  0
   -2.6188    0.1148   -1.2575 H   0  0  0  0  0  0  0  0  0  0  0  0
  1  7  1  0  0  0  0
  2  8  1  0  0  0  0
  2  1  2  0  0  0  0
  3  2  1  0  0  0  0
  4  3  2  0  0  0  0
  4  5  1  0  0  0  0
  5  6  2  0  0  0  0
  6  1  1  0  0  0  0
  6 31  1  0  0  0  0
  9  4  1  0  0  0  0
 10  5  1  0  0  0  0
 11 12  3  0  0  0  0
 13 19  1  0  0  0  0
 13 18  2  0  0  0  0
 14 13  1  0  0  0  0
 15 14  2  0  0  0  0
 15 16  1  0  0  0  0
 16 17  2  0  0  0  0
 17 18  1  0  0  0  0
 17 22  1  0  0  0  0
 18 23  1  0  0  0  0
 20 14  1  0  0  0  0
 21 16  1  0  0  0  0
 23 26  2  0  0  0  0
 23 24  2  0  0  0  0
 25  3  1  0  0  0  0
 25 23  1  0  0  0  0
 27 29  1  0  0  0  0
 27 15  1  0  0  0  0
 28 27  1  0  0  0  0
 30 27  1  0  0  0  0
M  END
