Coordinates from ORCA-job Ph-N2-OTs-B3LYPG-6-31G_dp-MTMO-d009-169-n800
 OpenBabel09051907503D

 31 31  0  0  0  0  0  0  0  0999 V2000
   -0.5659    0.1196   -2.0475 C   0  0  0  0  0  0  0  0  0  0  0  0
    0.7606    0.0439   -2.4733 C   0  0  0  0  0  0  0  0  0  0  0  0
    1.5071    1.2174   -2.5610 C   0  0  0  0  0  0  0  0  0  0  0  0
    0.9651    2.4573   -2.2262 C   0  0  0  0  0  0  0  0  0  0  0  0
   -0.3623    2.5180   -1.7998 C   0  0  0  0  0  0  0  0  0  0  0  0
   -1.1283    1.3533   -1.7107 C   0  0  0  0  0  0  0  0  0  0  0  0
   -1.1584   -0.7877   -1.9765 H   0  0  0  0  0  0  0  0  0  0  0  0
    1.2211   -0.9016   -2.7362 H   0  0  0  0  0  0  0  0  0  0  0  0
    1.5809    3.3464   -2.2994 H   0  0  0  0  0  0  0  0  0  0  0  0
   -0.7963    3.4776   -1.5357 H   0  0  0  0  0  0  0  0  0  0  0  0
    2.4060    3.1737   -6.0314 N   0  0  0  0  0  0  0  0  0  0  0  0
    3.2161    3.5237   -5.3660 N   0  0  0  0  0  0  0  0  0  0  0  0
    5.9955    2.0608   -3.5518 C   0  0  0  0  0  0  0  0  0  0  0  0
    7.0661    1.9390   -4.4343 C   0  0  0  0  0  0  0  0  0  0  0  0
    7.5474    0.6802   -4.8230 C   0  0  0  0  0  0  0  0  0  0  0  0
    6.9330   -0.4654   -4.2955 C   0  0  0  0  0  0  0  0  0  0  0  0
    5.8603   -0.3664   -3.4132 C   0  0  0  0  0  0  0  0  0  0  0  0
    5.3994    0.9012   -3.0546 C   0  0  0  0  0  0  0  0  0  0  0  0
    5.6324    3.0341   -3.2422 H   0  0  0  0  0  0  0  0  0  0  0  0
    7.5398    2.8360   -4.8230 H   0  0  0  0  0  0  0  0  0  0  0  0
    7.3033   -1.4478   -4.5752 H   0  0  0  0  0  0  0  0  0  0  0  0
    5.3936   -1.2505   -2.9939 H   0  0  0  0  0  0  0  0  0  0  0  0
    4.0400    1.0399   -1.9149 S   0  0  0  0  0  0  0  0  0  0  0  0
    3.8714   -0.2138   -1.1840 O   0  0  0  0  0  0  0  0  0  0  0  0
    2.8199    1.1499   -3.0582 O   0  0  0  0  0  0  0  0  0  0  0  0
    4.1136    2.3135   -1.2030 O   0  0  0  0  0  0  0  0  0  0  0  0
    8.6886    0.5582   -5.8027 C   0  0  0  0  0  0  0  0  0  0  0  0
    8.3122    0.4469   -6.8272 H   0  0  0  0  0  0  0  0  0  0  0  0
    9.3297    1.4442   -5.7852 H   0  0  0  0  0  0  0  0  0  0  0  0
    9.3081   -0.3176   -5.5881 H   0  0  0  0  0  0  0  0  0  0  0  0
   -2.1603    1.4065   -1.3780 H   0  0  0  0  0  0  0  0  0  0  0  0
  1  7  1  0  0  0  0
  1  6  2  0  0  0  0
  2  1  1  0  0  0  0
  3  2  2  0  0  0  0
  3  4  1  0  0  0  0
  4  5  2  0  0  0  0
  5  6  1  0  0  0  0
  5 10  1  0  0  0  0
  6 31  1  0  0  0  0
  8  2  1  0  0  0  0
  9  4  1  0  0  0  0
 11 12  3  0  0  0  0
 13 19  1  0  0  0  0
 13 18  2  0  0  0  0
 14 13  1  0  0  0  0
 15 14  2  0  0  0  0
 15 16  1  0  0  0  0
 16 17  2  0  0  0  0
 17 18  1  0  0  0  0
 17 22  1  0  0  0  0
 18 23  1  0  0  0  0
 20 14  1  0  0  0  0
 21 16  1  0  0  0  0
 23 26  2  0  0  0  0
 23 24  2  0  0  0  0
 25  3  1  0  0  0  0
 25 23  1  0  0  0  0
 27 29  1  0  0  0  0
 27 30  1  0  0  0  0
 27 15  1  0  0  0  0
 28 27  1  0  0  0  0
M  END
