Coordinates from ORCA-job Ph-N2-OTs-B3LYPG-6-31G_dp-MTMO-d009-169-n800
 OpenBabel09051907503D

 31 31  0  0  0  0  0  0  0  0999 V2000
   -0.8735   -1.0902   -1.2923 C   0  0  0  0  0  0  0  0  0  0  0  0
    0.4263   -0.8856   -1.7571 C   0  0  0  0  0  0  0  0  0  0  0  0
    0.7639    0.3607   -2.2817 C   0  0  0  0  0  0  0  0  0  0  0  0
   -0.1584    1.4035   -2.3450 C   0  0  0  0  0  0  0  0  0  0  0  0
   -1.4547    1.1849   -1.8772 C   0  0  0  0  0  0  0  0  0  0  0  0
   -1.8136   -0.0588   -1.3520 C   0  0  0  0  0  0  0  0  0  0  0  0
   -1.1497   -2.0567   -0.8817 H   0  0  0  0  0  0  0  0  0  0  0  0
    1.1747   -1.6690   -1.7177 H   0  0  0  0  0  0  0  0  0  0  0  0
    0.1457    2.3604   -2.7533 H   0  0  0  0  0  0  0  0  0  0  0  0
   -2.1834    1.9888   -1.9229 H   0  0  0  0  0  0  0  0  0  0  0  0
   14.9277    6.3751   -8.4540 N   0  0  0  0  0  0  0  0  0  0  0  0
   13.9848    5.8390   -8.2415 N   0  0  0  0  0  0  0  0  0  0  0  0
    4.8152    2.3638   -3.6070 C   0  0  0  0  0  0  0  0  0  0  0  0
    5.8691    2.4066   -4.5170 C   0  0  0  0  0  0  0  0  0  0  0  0
    6.6651    1.2778   -4.7593 C   0  0  0  0  0  0  0  0  0  0  0  0
    6.3876    0.0965   -4.0541 C   0  0  0  0  0  0  0  0  0  0  0  0
    5.3399    0.0328   -3.1397 C   0  0  0  0  0  0  0  0  0  0  0  0
    4.5587    1.1708   -2.9311 C   0  0  0  0  0  0  0  0  0  0  0  0
    4.2076    3.2398   -3.4089 H   0  0  0  0  0  0  0  0  0  0  0  0
    6.0809    3.3330   -5.0433 H   0  0  0  0  0  0  0  0  0  0  0  0
    7.0041   -0.7831   -4.2197 H   0  0  0  0  0  0  0  0  0  0  0  0
    5.1350   -0.8755   -2.5838 H   0  0  0  0  0  0  0  0  0  0  0  0
    3.2209    1.1058   -1.7592 S   0  0  0  0  0  0  0  0  0  0  0  0
    3.4739    0.0609   -0.7698 O   0  0  0  0  0  0  0  0  0  0  0  0
    2.0486    0.5522   -2.8180 O   0  0  0  0  0  0  0  0  0  0  0  0
    2.8602    2.4578   -1.3390 O   0  0  0  0  0  0  0  0  0  0  0  0
    7.7845    1.3246   -5.7704 C   0  0  0  0  0  0  0  0  0  0  0  0
    8.1474    2.3447   -5.9207 H   0  0  0  0  0  0  0  0  0  0  0  0
    8.6294    0.7024   -5.4615 H   0  0  0  0  0  0  0  0  0  0  0  0
    7.4451    0.9509   -6.7444 H   0  0  0  0  0  0  0  0  0  0  0  0
   -2.8234   -0.2233   -0.9883 H   0  0  0  0  0  0  0  0  0  0  0  0
  1  7  1  0  0  0  0
  2  8  1  0  0  0  0
  2  1  2  0  0  0  0
  3  2  1  0  0  0  0
  4  3  2  0  0  0  0
  4  5  1  0  0  0  0
  5  6  2  0  0  0  0
  6  1  1  0  0  0  0
  6 31  1  0  0  0  0
  9  4  1  0  0  0  0
 10  5  1  0  0  0  0
 11 12  3  0  0  0  0
 13 19  1  0  0  0  0
 13 18  2  0  0  0  0
 14 13  1  0  0  0  0
 15 14  2  0  0  0  0
 15 16  1  0  0  0  0
 16 17  2  0  0  0  0
 17 18  1  0  0  0  0
 17 22  1  0  0  0  0
 18 23  1  0  0  0  0
 20 14  1  0  0  0  0
 21 16  1  0  0  0  0
 23 26  2  0  0  0  0
 23 24  2  0  0  0  0
 25  3  1  0  0  0  0
 25 23  1  0  0  0  0
 27 29  1  0  0  0  0
 27 15  1  0  0  0  0
 28 27  1  0  0  0  0
 30 27  1  0  0  0  0
M  END
