Coordinates from ORCA-job Ph-N2-OTs-B3LYPG-6-31G_dp-MTMO-d009-169-n800
 OpenBabel09051907503D

 31 31  0  0  0  0  0  0  0  0999 V2000
   -0.5736    0.1549   -2.1199 C   0  0  0  0  0  0  0  0  0  0  0  0
    0.7555    0.0785   -2.5377 C   0  0  0  0  0  0  0  0  0  0  0  0
    1.5210    1.2426   -2.5630 C   0  0  0  0  0  0  0  0  0  0  0  0
    0.9958    2.4738   -2.1733 C   0  0  0  0  0  0  0  0  0  0  0  0
   -0.3339    2.5348   -1.7543 C   0  0  0  0  0  0  0  0  0  0  0  0
   -1.1191    1.3798   -1.7280 C   0  0  0  0  0  0  0  0  0  0  0  0
   -1.1810   -0.7450   -2.0982 H   0  0  0  0  0  0  0  0  0  0  0  0
    1.2035   -0.8605   -2.8424 H   0  0  0  0  0  0  0  0  0  0  0  0
    1.6259    3.3555   -2.1985 H   0  0  0  0  0  0  0  0  0  0  0  0
   -0.7550    3.4875   -1.4474 H   0  0  0  0  0  0  0  0  0  0  0  0
    2.2154    2.9122   -5.9547 N   0  0  0  0  0  0  0  0  0  0  0  0
    3.0823    3.3785   -5.4522 N   0  0  0  0  0  0  0  0  0  0  0  0
    6.0076    2.0661   -3.5414 C   0  0  0  0  0  0  0  0  0  0  0  0
    7.0771    1.9459   -4.4253 C   0  0  0  0  0  0  0  0  0  0  0  0
    7.5583    0.6876   -4.8161 C   0  0  0  0  0  0  0  0  0  0  0  0
    6.9450   -0.4588   -4.2893 C   0  0  0  0  0  0  0  0  0  0  0  0
    5.8728   -0.3613   -3.4059 C   0  0  0  0  0  0  0  0  0  0  0  0
    5.4121    0.9056   -3.0452 C   0  0  0  0  0  0  0  0  0  0  0  0
    5.6457    3.0391   -3.2292 H   0  0  0  0  0  0  0  0  0  0  0  0
    7.5499    2.8435   -4.8135 H   0  0  0  0  0  0  0  0  0  0  0  0
    7.3154   -1.4407   -4.5705 H   0  0  0  0  0  0  0  0  0  0  0  0
    5.4063   -1.2460   -2.9877 H   0  0  0  0  0  0  0  0  0  0  0  0
    4.0514    1.0426   -1.9068 S   0  0  0  0  0  0  0  0  0  0  0  0
    3.8707   -0.2167   -1.1889 O   0  0  0  0  0  0  0  0  0  0  0  0
    2.8364    1.1742   -3.0530 O   0  0  0  0  0  0  0  0  0  0  0  0
    4.1331    2.3086   -1.1820 O   0  0  0  0  0  0  0  0  0  0  0  0
    8.6978    0.5680   -5.7979 C   0  0  0  0  0  0  0  0  0  0  0  0
    8.3202    0.4888   -6.8250 H   0  0  0  0  0  0  0  0  0  0  0  0
    9.3550    1.4416   -5.7590 H   0  0  0  0  0  0  0  0  0  0  0  0
    9.3011   -0.3238   -5.6042 H   0  0  0  0  0  0  0  0  0  0  0  0
   -2.1530    1.4337   -1.4012 H   0  0  0  0  0  0  0  0  0  0  0  0
  1  7  1  0  0  0  0
  1  6  2  0  0  0  0
  2  1  1  0  0  0  0
  3  2  2  0  0  0  0
  3  4  1  0  0  0  0
  4  5  2  0  0  0  0
  5  6  1  0  0  0  0
  5 10  1  0  0  0  0
  6 31  1  0  0  0  0
  8  2  1  0  0  0  0
  9  4  1  0  0  0  0
 11 12  3  0  0  0  0
 13 19  1  0  0  0  0
 13 18  2  0  0  0  0
 14 13  1  0  0  0  0
 15 14  2  0  0  0  0
 15 16  1  0  0  0  0
 16 17  2  0  0  0  0
 17 18  1  0  0  0  0
 17 22  1  0  0  0  0
 18 23  1  0  0  0  0
 20 14  1  0  0  0  0
 21 16  1  0  0  0  0
 23 24  2  0  0  0  0
 23 26  2  0  0  0  0
 25  3  1  0  0  0  0
 25 23  1  0  0  0  0
 27 29  1  0  0  0  0
 27 30  1  0  0  0  0
 27 15  1  0  0  0  0
 28 27  1  0  0  0  0
M  END
