Coordinates from ORCA-job Ph-N2-OTs-B3LYPG-6-31G_dp-MTMO-d009-169-n800
 OpenBabel09051907503D

 31 31  0  0  0  0  0  0  0  0999 V2000
   -0.7955   -1.0737   -1.3803 C   0  0  0  0  0  0  0  0  0  0  0  0
    0.5070   -0.8618   -1.8338 C   0  0  0  0  0  0  0  0  0  0  0  0
    0.8476    0.3926   -2.3367 C   0  0  0  0  0  0  0  0  0  0  0  0
   -0.0744    1.4362   -2.3893 C   0  0  0  0  0  0  0  0  0  0  0  0
   -1.3735    1.2102   -1.9329 C   0  0  0  0  0  0  0  0  0  0  0  0
   -1.7354   -0.0416   -1.4294 C   0  0  0  0  0  0  0  0  0  0  0  0
   -1.0741   -2.0465   -0.9865 H   0  0  0  0  0  0  0  0  0  0  0  0
    1.2553   -1.6456   -1.8022 H   0  0  0  0  0  0  0  0  0  0  0  0
    0.2320    2.3994   -2.7809 H   0  0  0  0  0  0  0  0  0  0  0  0
   -2.1020    2.0148   -1.9703 H   0  0  0  0  0  0  0  0  0  0  0  0
   13.6560    5.6497   -7.9968 N   0  0  0  0  0  0  0  0  0  0  0  0
   12.6857    5.1733   -7.7662 N   0  0  0  0  0  0  0  0  0  0  0  0
    4.9085    2.4234   -3.6010 C   0  0  0  0  0  0  0  0  0  0  0  0
    5.9692    2.4819   -4.5021 C   0  0  0  0  0  0  0  0  0  0  0  0
    6.7654    1.3566   -4.7603 C   0  0  0  0  0  0  0  0  0  0  0  0
    6.4807    0.1624   -4.0802 C   0  0  0  0  0  0  0  0  0  0  0  0
    5.4264    0.0830   -3.1747 C   0  0  0  0  0  0  0  0  0  0  0  0
    4.6454    1.2181   -2.9499 C   0  0  0  0  0  0  0  0  0  0  0  0
    4.3007    3.2962   -3.3905 H   0  0  0  0  0  0  0  0  0  0  0  0
    6.1864    3.4179   -5.0089 H   0  0  0  0  0  0  0  0  0  0  0  0
    7.0971   -0.7148   -4.2582 H   0  0  0  0  0  0  0  0  0  0  0  0
    5.2163   -0.8354   -2.6377 H   0  0  0  0  0  0  0  0  0  0  0  0
    3.3001    1.1334   -1.7879 S   0  0  0  0  0  0  0  0  0  0  0  0
    3.5489    0.0750   -0.8119 O   0  0  0  0  0  0  0  0  0  0  0  0
    2.1357    0.5924   -2.8618 O   0  0  0  0  0  0  0  0  0  0  0  0
    2.9339    2.4785   -1.3508 O   0  0  0  0  0  0  0  0  0  0  0  0
    7.8924    1.4217   -5.7619 C   0  0  0  0  0  0  0  0  0  0  0  0
    8.2698    2.4414   -5.8757 H   0  0  0  0  0  0  0  0  0  0  0  0
    8.7267    0.7782   -5.4684 H   0  0  0  0  0  0  0  0  0  0  0  0
    7.5548    1.0854   -6.7501 H   0  0  0  0  0  0  0  0  0  0  0  0
   -2.7473   -0.2118   -1.0744 H   0  0  0  0  0  0  0  0  0  0  0  0
  1  7  1  0  0  0  0
  2  8  1  0  0  0  0
  2  1  2  0  0  0  0
  3  2  1  0  0  0  0
  4  3  2  0  0  0  0
  4  5  1  0  0  0  0
  5  6  2  0  0  0  0
  6  1  1  0  0  0  0
  6 31  1  0  0  0  0
  9  4  1  0  0  0  0
 10  5  1  0  0  0  0
 11 12  3  0  0  0  0
 13 19  1  0  0  0  0
 13 18  2  0  0  0  0
 14 13  1  0  0  0  0
 15 14  2  0  0  0  0
 15 16  1  0  0  0  0
 16 17  2  0  0  0  0
 17 18  1  0  0  0  0
 17 22  1  0  0  0  0
 18 23  1  0  0  0  0
 20 14  1  0  0  0  0
 21 16  1  0  0  0  0
 23 26  2  0  0  0  0
 23 24  2  0  0  0  0
 25  3  1  0  0  0  0
 25 23  1  0  0  0  0
 27 29  1  0  0  0  0
 27 15  1  0  0  0  0
 28 27  1  0  0  0  0
 30 27  1  0  0  0  0
M  END
