Coordinates from ORCA-job Ph-N2-OTs-B3LYPG-6-31G_dp-MTMO-d009-169-n800
 OpenBabel09051907503D

 31 31  0  0  0  0  0  0  0  0999 V2000
   -0.8245   -1.0831   -1.3648 C   0  0  0  0  0  0  0  0  0  0  0  0
    0.4781   -0.8727   -1.8186 C   0  0  0  0  0  0  0  0  0  0  0  0
    0.8198    0.3809   -2.3227 C   0  0  0  0  0  0  0  0  0  0  0  0
   -0.1014    1.4252   -2.3763 C   0  0  0  0  0  0  0  0  0  0  0  0
   -1.4007    1.2007   -1.9196 C   0  0  0  0  0  0  0  0  0  0  0  0
   -1.7636   -0.0502   -1.4148 C   0  0  0  0  0  0  0  0  0  0  0  0
   -1.1039   -2.0553   -0.9700 H   0  0  0  0  0  0  0  0  0  0  0  0
    1.2258   -1.6571   -1.7863 H   0  0  0  0  0  0  0  0  0  0  0  0
    0.2058    2.3878   -2.7688 H   0  0  0  0  0  0  0  0  0  0  0  0
   -2.1285    2.0059   -1.9576 H   0  0  0  0  0  0  0  0  0  0  0  0
   14.0562    5.8578   -8.1858 N   0  0  0  0  0  0  0  0  0  0  0  0
   13.0889    5.3742   -7.9575 N   0  0  0  0  0  0  0  0  0  0  0  0
    4.8817    2.4074   -3.5895 C   0  0  0  0  0  0  0  0  0  0  0  0
    5.9422    2.4645   -4.4910 C   0  0  0  0  0  0  0  0  0  0  0  0
    6.7376    1.3385   -4.7483 C   0  0  0  0  0  0  0  0  0  0  0  0
    6.4524    0.1451   -4.0671 C   0  0  0  0  0  0  0  0  0  0  0  0
    5.3983    0.0671   -3.1612 C   0  0  0  0  0  0  0  0  0  0  0  0
    4.6181    1.2029   -2.9372 C   0  0  0  0  0  0  0  0  0  0  0  0
    4.2745    3.2808   -3.3796 H   0  0  0  0  0  0  0  0  0  0  0  0
    6.1598    3.3999   -4.9987 H   0  0  0  0  0  0  0  0  0  0  0  0
    7.0682   -0.7326   -4.2444 H   0  0  0  0  0  0  0  0  0  0  0  0
    5.1879   -0.8507   -2.6233 H   0  0  0  0  0  0  0  0  0  0  0  0
    3.2729    1.1200   -1.7749 S   0  0  0  0  0  0  0  0  0  0  0  0
    3.5211    0.0622   -0.7982 O   0  0  0  0  0  0  0  0  0  0  0  0
    2.1080    0.5792   -2.8482 O   0  0  0  0  0  0  0  0  0  0  0  0
    2.9078    2.4658   -1.3386 O   0  0  0  0  0  0  0  0  0  0  0  0
    7.8645    1.4019   -5.7501 C   0  0  0  0  0  0  0  0  0  0  0  0
    8.2397    2.4219   -5.8681 H   0  0  0  0  0  0  0  0  0  0  0  0
    8.7003    0.7614   -5.4539 H   0  0  0  0  0  0  0  0  0  0  0  0
    7.5278    1.0608   -6.7370 H   0  0  0  0  0  0  0  0  0  0  0  0
   -2.7755   -0.2193   -1.0595 H   0  0  0  0  0  0  0  0  0  0  0  0
  1  7  1  0  0  0  0
  2  8  1  0  0  0  0
  2  1  2  0  0  0  0
  3  2  1  0  0  0  0
  4  3  2  0  0  0  0
  4  5  1  0  0  0  0
  5  6  2  0  0  0  0
  6  1  1  0  0  0  0
  6 31  1  0  0  0  0
  9  4  1  0  0  0  0
 10  5  1  0  0  0  0
 11 12  3  0  0  0  0
 13 19  1  0  0  0  0
 13 18  2  0  0  0  0
 14 13  1  0  0  0  0
 15 14  2  0  0  0  0
 15 16  1  0  0  0  0
 16 17  2  0  0  0  0
 17 18  1  0  0  0  0
 17 22  1  0  0  0  0
 18 23  1  0  0  0  0
 20 14  1  0  0  0  0
 21 16  1  0  0  0  0
 23 26  2  0  0  0  0
 23 24  2  0  0  0  0
 25  3  1  0  0  0  0
 25 23  1  0  0  0  0
 27 29  1  0  0  0  0
 27 15  1  0  0  0  0
 28 27  1  0  0  0  0
 30 27  1  0  0  0  0
M  END
