Coordinates from ORCA-job Ph-N2-OTs-B3LYPG-6-31G_dp-MTMO-d009-169-n800
 OpenBabel09051907503D

 31 31  0  0  0  0  0  0  0  0999 V2000
   -0.5516   -0.1839   -1.2881 C   0  0  0  0  0  0  0  0  0  0  0  0
    0.7860   -0.2609   -1.6792 C   0  0  0  0  0  0  0  0  0  0  0  0
    1.2698    0.6688   -2.5987 C   0  0  0  0  0  0  0  0  0  0  0  0
    0.4538    1.6645   -3.1314 C   0  0  0  0  0  0  0  0  0  0  0  0
   -0.8836    1.7235   -2.7384 C   0  0  0  0  0  0  0  0  0  0  0  0
   -1.3870    0.8031   -1.8161 C   0  0  0  0  0  0  0  0  0  0  0  0
   -0.9403   -0.8998   -0.5696 H   0  0  0  0  0  0  0  0  0  0  0  0
    1.4520   -1.0177   -1.2815 H   0  0  0  0  0  0  0  0  0  0  0  0
    0.8711    2.3714   -3.8403 H   0  0  0  0  0  0  0  0  0  0  0  0
   -1.5299    2.4933   -3.1498 H   0  0  0  0  0  0  0  0  0  0  0  0
    6.2578    6.7803   -4.5611 N   0  0  0  0  0  0  0  0  0  0  0  0
    6.2069    5.6855   -4.7029 N   0  0  0  0  0  0  0  0  0  0  0  0
    5.6053    2.0637   -3.8685 C   0  0  0  0  0  0  0  0  0  0  0  0
    6.6844    1.9097   -4.7351 C   0  0  0  0  0  0  0  0  0  0  0  0
    7.3166    0.6674   -4.8936 C   0  0  0  0  0  0  0  0  0  0  0  0
    6.8406   -0.4269   -4.1560 C   0  0  0  0  0  0  0  0  0  0  0  0
    5.7660   -0.2935   -3.2800 C   0  0  0  0  0  0  0  0  0  0  0  0
    5.1551    0.9547   -3.1509 C   0  0  0  0  0  0  0  0  0  0  0  0
    5.1235    3.0263   -3.7409 H   0  0  0  0  0  0  0  0  0  0  0  0
    7.0410    2.7704   -5.2936 H   0  0  0  0  0  0  0  0  0  0  0  0
    7.3205   -1.3954   -4.2663 H   0  0  0  0  0  0  0  0  0  0  0  0
    5.4092   -1.1372   -2.7001 H   0  0  0  0  0  0  0  0  0  0  0  0
    3.7857    1.1443   -2.0306 S   0  0  0  0  0  0  0  0  0  0  0  0
    3.9173    0.1999   -0.9226 O   0  0  0  0  0  0  0  0  0  0  0  0
    2.5939    0.5775   -3.0602 O   0  0  0  0  0  0  0  0  0  0  0  0
    3.5403    2.5613   -1.7744 O   0  0  0  0  0  0  0  0  0  0  0  0
    8.5030    0.5216   -5.8157 C   0  0  0  0  0  0  0  0  0  0  0  0
    8.3924    1.1411   -6.7104 H   0  0  0  0  0  0  0  0  0  0  0  0
    9.4267    0.8372   -5.3152 H   0  0  0  0  0  0  0  0  0  0  0  0
    8.6399   -0.5154   -6.1325 H   0  0  0  0  0  0  0  0  0  0  0  0
   -2.4268    0.8561   -1.5080 H   0  0  0  0  0  0  0  0  0  0  0  0
  1  7  1  0  0  0  0
  2  1  1  0  0  0  0
  2  8  1  0  0  0  0
  3  2  2  0  0  0  0
  4  5  2  0  0  0  0
  4  3  1  0  0  0  0
  5  6  1  0  0  0  0
  6 31  1  0  0  0  0
  6  1  2  0  0  0  0
  9  4  1  0  0  0  0
 10  5  1  0  0  0  0
 12 11  3  0  0  0  0
 13 19  1  0  0  0  0
 13 18  2  0  0  0  0
 14 13  1  0  0  0  0
 15 14  2  0  0  0  0
 15 16  1  0  0  0  0
 16 17  2  0  0  0  0
 17 18  1  0  0  0  0
 17 22  1  0  0  0  0
 18 23  1  0  0  0  0
 20 14  1  0  0  0  0
 21 16  1  0  0  0  0
 23 26  2  0  0  0  0
 23 24  2  0  0  0  0
 25  3  1  0  0  0  0
 25 23  1  0  0  0  0
 27 29  1  0  0  0  0
 27 15  1  0  0  0  0
 28 27  1  0  0  0  0
 30 27  1  0  0  0  0
M  END
