Coordinates from ORCA-job Ph-N2-OTs-B3LYPG-6-31G_dp-MTMO-d009-169-n800
 OpenBabel09051907503D

 31 31  0  0  0  0  0  0  0  0999 V2000
   -0.4353   -0.1332   -1.6302 C   0  0  0  0  0  0  0  0  0  0  0  0
    0.8875   -0.1869   -2.0705 C   0  0  0  0  0  0  0  0  0  0  0  0
    1.4435    0.9425   -2.6679 C   0  0  0  0  0  0  0  0  0  0  0  0
    0.7179    2.1223   -2.8260 C   0  0  0  0  0  0  0  0  0  0  0  0
   -0.6033    2.1621   -2.3785 C   0  0  0  0  0  0  0  0  0  0  0  0
   -1.1812    1.0382   -1.7833 C   0  0  0  0  0  0  0  0  0  0  0  0
   -0.8811   -1.0073   -1.1649 H   0  0  0  0  0  0  0  0  0  0  0  0
    1.4896   -1.0815   -1.9584 H   0  0  0  0  0  0  0  0  0  0  0  0
    1.1888    2.9835   -3.2863 H   0  0  0  0  0  0  0  0  0  0  0  0
   -1.1809    3.0743   -2.4965 H   0  0  0  0  0  0  0  0  0  0  0  0
    4.1930    5.8629   -3.8835 N   0  0  0  0  0  0  0  0  0  0  0  0
    3.1498    5.5043   -3.8149 N   0  0  0  0  0  0  0  0  0  0  0  0
    5.8342    2.0023   -4.1040 C   0  0  0  0  0  0  0  0  0  0  0  0
    6.9080    1.6939   -4.9357 C   0  0  0  0  0  0  0  0  0  0  0  0
    7.4868    0.4160   -4.9312 C   0  0  0  0  0  0  0  0  0  0  0  0
    6.9678   -0.5524   -4.0588 C   0  0  0  0  0  0  0  0  0  0  0  0
    5.8958   -0.2643   -3.2180 C   0  0  0  0  0  0  0  0  0  0  0  0
    5.3355    1.0134   -3.2554 C   0  0  0  0  0  0  0  0  0  0  0  0
    5.3968    2.9941   -4.0971 H   0  0  0  0  0  0  0  0  0  0  0  0
    7.3080    2.4605   -5.5936 H   0  0  0  0  0  0  0  0  0  0  0  0
    7.4143   -1.5425   -4.0320 H   0  0  0  0  0  0  0  0  0  0  0  0
    5.5066   -1.0084   -2.5318 H   0  0  0  0  0  0  0  0  0  0  0  0
    3.9760    1.3984   -2.1728 S   0  0  0  0  0  0  0  0  0  0  0  0
    4.0119    0.5330   -0.9963 O   0  0  0  0  0  0  0  0  0  0  0  0
    2.7512    0.8646   -3.1787 O   0  0  0  0  0  0  0  0  0  0  0  0
    3.8554    2.8481   -2.0262 O   0  0  0  0  0  0  0  0  0  0  0  0
    8.6315    0.0859   -5.8581 C   0  0  0  0  0  0  0  0  0  0  0  0
    8.2586   -0.2770   -6.8237 H   0  0  0  0  0  0  0  0  0  0  0  0
    9.2504    0.9651   -6.0583 H   0  0  0  0  0  0  0  0  0  0  0  0
    9.2722   -0.6966   -5.4413 H   0  0  0  0  0  0  0  0  0  0  0  0
   -2.2097    1.0752   -1.4377 H   0  0  0  0  0  0  0  0  0  0  0  0
  1  7  1  0  0  0  0
  2  8  1  0  0  0  0
  2  1  2  0  0  0  0
  3  2  1  0  0  0  0
  4  3  2  0  0  0  0
  4  5  1  0  0  0  0
  5  6  2  0  0  0  0
  6  1  1  0  0  0  0
  6 31  1  0  0  0  0
  9  4  1  0  0  0  0
 10  5  1  0  0  0  0
 11 12  3  0  0  0  0
 13 19  1  0  0  0  0
 13 18  2  0  0  0  0
 14 15  2  0  0  0  0
 14 13  1  0  0  0  0
 15 16  1  0  0  0  0
 16 21  1  0  0  0  0
 16 17  2  0  0  0  0
 17 22  1  0  0  0  0
 18 17  1  0  0  0  0
 18 23  1  0  0  0  0
 20 14  1  0  0  0  0
 23 26  2  0  0  0  0
 23 24  2  0  0  0  0
 25  3  1  0  0  0  0
 25 23  1  0  0  0  0
 27 30  1  0  0  0  0
 27 15  1  0  0  0  0
 28 27  1  0  0  0  0
 29 27  1  0  0  0  0
M  END
