Coordinates from ORCA-job Ph-N2-OTs-B3LYPG-6-31G_dp-MTMO-d009-169-n800
 OpenBabel09051907503D

 31 31  0  0  0  0  0  0  0  0999 V2000
   -0.6999   -0.5218   -1.6190 C   0  0  0  0  0  0  0  0  0  0  0  0
    0.6406   -0.5081   -2.0066 C   0  0  0  0  0  0  0  0  0  0  0  0
    1.1686    0.6595   -2.5557 C   0  0  0  0  0  0  0  0  0  0  0  0
    0.3951    1.8069   -2.7198 C   0  0  0  0  0  0  0  0  0  0  0  0
   -0.9450    1.7776   -2.3321 C   0  0  0  0  0  0  0  0  0  0  0  0
   -1.4933    0.6164   -1.7819 C   0  0  0  0  0  0  0  0  0  0  0  0
   -1.1234   -1.4248   -1.1895 H   0  0  0  0  0  0  0  0  0  0  0  0
    1.2770   -1.3774   -1.8871 H   0  0  0  0  0  0  0  0  0  0  0  0
    0.8458    2.6968   -3.1445 H   0  0  0  0  0  0  0  0  0  0  0  0
   -1.5591    2.6644   -2.4583 H   0  0  0  0  0  0  0  0  0  0  0  0
    7.5554    6.5712   -6.4898 N   0  0  0  0  0  0  0  0  0  0  0  0
    7.4570    5.5342   -6.1211 N   0  0  0  0  0  0  0  0  0  0  0  0
    5.4923    2.1140   -3.5914 C   0  0  0  0  0  0  0  0  0  0  0  0
    6.5799    2.0750   -4.4593 C   0  0  0  0  0  0  0  0  0  0  0  0
    7.2517    0.8713   -4.7245 C   0  0  0  0  0  0  0  0  0  0  0  0
    6.8059   -0.3001   -4.0962 C   0  0  0  0  0  0  0  0  0  0  0  0
    5.7192   -0.2822   -3.2244 C   0  0  0  0  0  0  0  0  0  0  0  0
    5.0703    0.9292   -2.9853 C   0  0  0  0  0  0  0  0  0  0  0  0
    4.9791    3.0447   -3.3759 H   0  0  0  0  0  0  0  0  0  0  0  0
    6.9135    2.9917   -4.9372 H   0  0  0  0  0  0  0  0  0  0  0  0
    7.3173   -1.2388   -4.2905 H   0  0  0  0  0  0  0  0  0  0  0  0
    5.3811   -1.1858   -2.7300 H   0  0  0  0  0  0  0  0  0  0  0  0
    3.6807    0.9682   -1.8748 S   0  0  0  0  0  0  0  0  0  0  0  0
    3.7393   -0.1736   -0.9644 O   0  0  0  0  0  0  0  0  0  0  0  0
    2.4955    0.6693   -3.0175 O   0  0  0  0  0  0  0  0  0  0  0  0
    3.4890    2.3217   -1.3594 O   0  0  0  0  0  0  0  0  0  0  0  0
    8.4466    0.8489   -5.6465 C   0  0  0  0  0  0  0  0  0  0  0  0
    8.3036    1.5169   -6.5011 H   0  0  0  0  0  0  0  0  0  0  0  0
    9.3502    1.1833   -5.1222 H   0  0  0  0  0  0  0  0  0  0  0  0
    8.6413   -0.1570   -6.0268 H   0  0  0  0  0  0  0  0  0  0  0  0
   -2.5357    0.5990   -1.4790 H   0  0  0  0  0  0  0  0  0  0  0  0
  1  7  1  0  0  0  0
  2  8  1  0  0  0  0
  2  1  2  0  0  0  0
  3  2  1  0  0  0  0
  4  3  2  0  0  0  0
  4  5  1  0  0  0  0
  5  6  2  0  0  0  0
  6  1  1  0  0  0  0
  6 31  1  0  0  0  0
  9  4  1  0  0  0  0
 10  5  1  0  0  0  0
 11 12  3  0  0  0  0
 13 19  1  0  0  0  0
 13 18  2  0  0  0  0
 14 13  1  0  0  0  0
 15 14  2  0  0  0  0
 15 16  1  0  0  0  0
 16 17  2  0  0  0  0
 17 18  1  0  0  0  0
 17 22  1  0  0  0  0
 18 23  1  0  0  0  0
 20 14  1  0  0  0  0
 21 16  1  0  0  0  0
 23 26  2  0  0  0  0
 23 24  2  0  0  0  0
 25  3  1  0  0  0  0
 25 23  1  0  0  0  0
 27 29  1  0  0  0  0
 27 15  1  0  0  0  0
 28 27  1  0  0  0  0
 30 27  1  0  0  0  0
M  END
