Coordinates from ORCA-job Ph-N2-OTs-B3LYPG-6-31G_dp-MTMO-d009-169-n800
 OpenBabel09051907503D

 31 31  0  0  0  0  0  0  0  0999 V2000
   -0.8101   -1.0782   -1.3725 C   0  0  0  0  0  0  0  0  0  0  0  0
    0.4925   -0.8671   -1.8262 C   0  0  0  0  0  0  0  0  0  0  0  0
    0.8337    0.3868   -2.3297 C   0  0  0  0  0  0  0  0  0  0  0  0
   -0.0879    1.4309   -2.3829 C   0  0  0  0  0  0  0  0  0  0  0  0
   -1.3870    1.2057   -1.9263 C   0  0  0  0  0  0  0  0  0  0  0  0
   -1.7496   -0.0456   -1.4222 C   0  0  0  0  0  0  0  0  0  0  0  0
   -1.0892   -2.0506   -0.9782 H   0  0  0  0  0  0  0  0  0  0  0  0
    1.2404   -1.6513   -1.7942 H   0  0  0  0  0  0  0  0  0  0  0  0
    0.2191    2.3937   -2.7749 H   0  0  0  0  0  0  0  0  0  0  0  0
   -2.1151    2.0106   -1.9641 H   0  0  0  0  0  0  0  0  0  0  0  0
   13.8556    5.7552   -8.0913 N   0  0  0  0  0  0  0  0  0  0  0  0
   12.8868    5.2749   -7.8620 N   0  0  0  0  0  0  0  0  0  0  0  0
    4.8953    2.4152   -3.5953 C   0  0  0  0  0  0  0  0  0  0  0  0
    5.9559    2.4729   -4.4965 C   0  0  0  0  0  0  0  0  0  0  0  0
    6.7516    1.3472   -4.7543 C   0  0  0  0  0  0  0  0  0  0  0  0
    6.4666    0.1534   -4.0736 C   0  0  0  0  0  0  0  0  0  0  0  0
    5.4123    0.0748   -3.1679 C   0  0  0  0  0  0  0  0  0  0  0  0
    4.6318    1.2103   -2.9435 C   0  0  0  0  0  0  0  0  0  0  0  0
    4.2878    3.2883   -3.3851 H   0  0  0  0  0  0  0  0  0  0  0  0
    6.1733    3.4086   -5.0038 H   0  0  0  0  0  0  0  0  0  0  0  0
    7.0826   -0.7241   -4.2513 H   0  0  0  0  0  0  0  0  0  0  0  0
    5.2020   -0.8433   -2.6304 H   0  0  0  0  0  0  0  0  0  0  0  0
    3.2866    1.1266   -1.7814 S   0  0  0  0  0  0  0  0  0  0  0  0
    3.5350    0.0685   -0.8050 O   0  0  0  0  0  0  0  0  0  0  0  0
    2.1219    0.5858   -2.8550 O   0  0  0  0  0  0  0  0  0  0  0  0
    2.9210    2.4721   -1.3447 O   0  0  0  0  0  0  0  0  0  0  0  0
    7.8785    1.4114   -5.7560 C   0  0  0  0  0  0  0  0  0  0  0  0
    8.2547    2.4312   -5.8720 H   0  0  0  0  0  0  0  0  0  0  0  0
    8.7137    0.7695   -5.4609 H   0  0  0  0  0  0  0  0  0  0  0  0
    7.5414    1.0724   -6.7434 H   0  0  0  0  0  0  0  0  0  0  0  0
   -2.7615   -0.2151   -1.0670 H   0  0  0  0  0  0  0  0  0  0  0  0
  1  7  1  0  0  0  0
  2  8  1  0  0  0  0
  2  1  2  0  0  0  0
  3  2  1  0  0  0  0
  4  3  2  0  0  0  0
  4  5  1  0  0  0  0
  5  6  2  0  0  0  0
  6  1  1  0  0  0  0
  6 31  1  0  0  0  0
  9  4  1  0  0  0  0
 10  5  1  0  0  0  0
 11 12  3  0  0  0  0
 13 19  1  0  0  0  0
 13 18  2  0  0  0  0
 14 13  1  0  0  0  0
 15 14  2  0  0  0  0
 15 16  1  0  0  0  0
 16 17  2  0  0  0  0
 17 18  1  0  0  0  0
 17 22  1  0  0  0  0
 18 23  1  0  0  0  0
 20 14  1  0  0  0  0
 21 16  1  0  0  0  0
 23 26  2  0  0  0  0
 23 24  2  0  0  0  0
 25  3  1  0  0  0  0
 25 23  1  0  0  0  0
 27 29  1  0  0  0  0
 27 15  1  0  0  0  0
 28 27  1  0  0  0  0
 30 27  1  0  0  0  0
M  END
