Coordinates from ORCA-job Ph-N2-OTs-B3LYPG-6-31G_dp-MTMO-d009-169-n800
 OpenBabel09051907503D

 31 31  0  0  0  0  0  0  0  0999 V2000
   -0.5395   -0.1488   -1.2946 C   0  0  0  0  0  0  0  0  0  0  0  0
    0.7973   -0.2367   -1.6858 C   0  0  0  0  0  0  0  0  0  0  0  0
    1.2877    0.6870   -2.6080 C   0  0  0  0  0  0  0  0  0  0  0  0
    0.4789    1.6871   -3.1431 C   0  0  0  0  0  0  0  0  0  0  0  0
   -0.8579    1.7572   -2.7499 C   0  0  0  0  0  0  0  0  0  0  0  0
   -1.3677    0.8429   -1.8250 C   0  0  0  0  0  0  0  0  0  0  0  0
   -0.9333   -0.8599   -0.5742 H   0  0  0  0  0  0  0  0  0  0  0  0
    1.4579   -0.9973   -1.2862 H   0  0  0  0  0  0  0  0  0  0  0  0
    0.9013    2.3890   -3.8540 H   0  0  0  0  0  0  0  0  0  0  0  0
   -1.4986    2.5306   -3.1631 H   0  0  0  0  0  0  0  0  0  0  0  0
    5.9644    6.7585   -4.3919 N   0  0  0  0  0  0  0  0  0  0  0  0
    5.9624    5.6700   -4.5832 N   0  0  0  0  0  0  0  0  0  0  0  0
    5.6200    2.0465   -3.8970 C   0  0  0  0  0  0  0  0  0  0  0  0
    6.6981    1.8826   -4.7630 C   0  0  0  0  0  0  0  0  0  0  0  0
    7.3340    0.6400   -4.9036 C   0  0  0  0  0  0  0  0  0  0  0  0
    6.8623   -0.4445   -4.1489 C   0  0  0  0  0  0  0  0  0  0  0  0
    5.7886   -0.3010   -3.2733 C   0  0  0  0  0  0  0  0  0  0  0  0
    5.1744    0.9472   -3.1619 C   0  0  0  0  0  0  0  0  0  0  0  0
    5.1366    3.0100   -3.7837 H   0  0  0  0  0  0  0  0  0  0  0  0
    7.0514    2.7356   -5.3353 H   0  0  0  0  0  0  0  0  0  0  0  0
    7.3449   -1.4132   -4.2453 H   0  0  0  0  0  0  0  0  0  0  0  0
    5.4349   -1.1369   -2.6802 H   0  0  0  0  0  0  0  0  0  0  0  0
    3.8062    1.1503   -2.0427 S   0  0  0  0  0  0  0  0  0  0  0  0
    3.9329    0.2116   -0.9292 O   0  0  0  0  0  0  0  0  0  0  0  0
    2.6111    0.5845   -3.0690 O   0  0  0  0  0  0  0  0  0  0  0  0
    3.5681    2.5700   -1.7946 O   0  0  0  0  0  0  0  0  0  0  0  0
    8.5199    0.4836   -5.8246 C   0  0  0  0  0  0  0  0  0  0  0  0
    8.4126    1.0984   -6.7229 H   0  0  0  0  0  0  0  0  0  0  0  0
    9.4450    0.7976   -5.3254 H   0  0  0  0  0  0  0  0  0  0  0  0
    8.6522   -0.5558   -6.1354 H   0  0  0  0  0  0  0  0  0  0  0  0
   -2.4071    0.9044   -1.5168 H   0  0  0  0  0  0  0  0  0  0  0  0
  1  7  1  0  0  0  0
  2  1  1  0  0  0  0
  2  8  1  0  0  0  0
  3  2  2  0  0  0  0
  4  5  2  0  0  0  0
  4  3  1  0  0  0  0
  5  6  1  0  0  0  0
  6 31  1  0  0  0  0
  6  1  2  0  0  0  0
  9  4  1  0  0  0  0
 10  5  1  0  0  0  0
 12 11  3  0  0  0  0
 13 19  1  0  0  0  0
 13 18  2  0  0  0  0
 14 13  1  0  0  0  0
 15 14  2  0  0  0  0
 15 16  1  0  0  0  0
 16 17  2  0  0  0  0
 17 18  1  0  0  0  0
 17 22  1  0  0  0  0
 18 23  1  0  0  0  0
 20 14  1  0  0  0  0
 21 16  1  0  0  0  0
 23 26  2  0  0  0  0
 23 24  2  0  0  0  0
 25  3  1  0  0  0  0
 25 23  1  0  0  0  0
 27 29  1  0  0  0  0
 27 15  1  0  0  0  0
 28 27  1  0  0  0  0
 30 27  1  0  0  0  0
M  END
