Coordinates from ORCA-job Ph-N2-OTs-B3LYPG-6-31G_dp-MTMO-d009-169-n800
 OpenBabel09051907493D

 31 32  0  0  1  0  0  0  0  0999 V2000
    0.2521    0.5676   -2.3527 C   0  0  0  0  0  0  0  0  0  0  0  0
    1.2361    1.0888   -3.3456 C   0  0  1  0  0  0  0  0  0  0  0  0
    1.4940    2.6669   -3.2704 C   0  0  0  0  0  0  0  0  0  0  0  0
    1.0054    3.3159   -2.0024 C   0  0  0  0  0  0  0  0  0  0  0  0
    0.2154    2.6804   -1.1223 C   0  0  0  0  0  0  0  0  0  0  0  0
   -0.2037    1.3011   -1.3251 C   0  0  0  0  0  0  0  0  0  0  0  0
   -0.0552   -0.4644   -2.4949 H   0  0  0  0  0  0  0  0  0  0  0  0
    0.9437    0.8800   -4.3794 H   0  0  0  0  0  0  0  0  0  0  0  0
    1.3309    4.3439   -1.8711 H   0  0  0  0  0  0  0  0  0  0  0  0
   -0.1215    3.2045   -0.2330 H   0  0  0  0  0  0  0  0  0  0  0  0
    1.9416    3.0733   -3.9370 N   0  0  0  0  0  0  0  0  0  0  0  0
    2.5376    3.5967   -4.8225 N   0  0  0  0  0  0  0  0  0  0  0  0
    5.2706    1.3546   -4.5701 C   0  0  0  0  0  0  0  0  0  0  0  0
    6.6051    1.7318   -4.4613 C   0  0  0  0  0  0  0  0  0  0  0  0
    7.5765    0.8503   -3.9583 C   0  0  0  0  0  0  0  0  0  0  0  0
    7.1745   -0.4289   -3.5531 C   0  0  0  0  0  0  0  0  0  0  0  0
    5.8419   -0.8295   -3.6471 C   0  0  0  0  0  0  0  0  0  0  0  0
    4.9046    0.0687   -4.1559 C   0  0  0  0  0  0  0  0  0  0  0  0
    4.5311    2.0525   -4.9505 H   0  0  0  0  0  0  0  0  0  0  0  0
    6.8988    2.7298   -4.7747 H   0  0  0  0  0  0  0  0  0  0  0  0
    7.9119   -1.1226   -3.1592 H   0  0  0  0  0  0  0  0  0  0  0  0
    5.5274   -1.8187   -3.3355 H   0  0  0  0  0  0  0  0  0  0  0  0
    3.2125   -0.4595   -4.3125 S   0  0  0  0  0  0  0  0  0  0  0  0
    3.1004   -1.8565   -3.9049 O   0  0  0  0  0  0  0  0  0  0  0  0
    2.6473   -0.0104   -5.5858 O   0  0  0  0  0  0  0  0  0  0  0  0
    2.5322    0.4729   -3.1063 O   0  0  0  0  0  0  0  0  0  0  0  0
    9.0230    1.2733   -3.8764 C   0  0  0  0  0  0  0  0  0  0  0  0
    9.4837    1.2868   -4.8715 H   0  0  0  0  0  0  0  0  0  0  0  0
    9.1191    2.2830   -3.4641 H   0  0  0  0  0  0  0  0  0  0  0  0
    9.6059    0.5926   -3.2506 H   0  0  0  0  0  0  0  0  0  0  0  0
   -0.9035    0.8655   -0.6175 H   0  0  0  0  0  0  0  0  0  0  0  0
  1  6  2  0  0  0  0
  2  8  1  6  0  0  0
  2  3  1  0  0  0  0
  2 26  1  0  0  0  0
  2  1  1  0  0  0  0
  3  4  2  0  0  0  0
  4  9  1  0  0  0  0
  4  5  1  0  0  0  0
  5 10  1  0  0  0  0
  6  5  1  0  0  0  0
  6 31  1  0  0  0  0
  7  1  1  0  0  0  0
 11  3  1  0  0  0  0
 12 11  1  0  0  0  0
 13 14  2  0  0  0  0
 13 18  1  0  0  0  0
 14 15  1  0  0  0  0
 15 27  1  0  0  0  0
 15 16  2  0  0  0  0
 16 21  1  0  0  0  0
 17 16  1  0  0  0  0
 17 22  1  0  0  0  0
 18 17  2  0  0  0  0
 19 13  1  0  0  0  0
 20 14  1  0  0  0  0
 23 18  1  0  0  0  0
 23 24  2  0  0  0  0
 23 26  1  0  0  0  0
 25 23  2  0  0  0  0
 27 29  1  0  0  0  0
 27 30  1  0  0  0  0
 28 27  1  0  0  0  0
M  RAD  3   5   2  11   2  12   3
M  END
