Coordinates from ORCA-job Ph-N2-OTs-B3LYPG-6-31G_dp-MTMO-d009-169-n800
 OpenBabel09051907503D

 31 31  0  0  0  0  0  0  0  0999 V2000
   -0.7091   -0.5609   -1.6199 C   0  0  0  0  0  0  0  0  0  0  0  0
    0.6304   -0.5338   -2.0103 C   0  0  0  0  0  0  0  0  0  0  0  0
    1.1504    0.6444   -2.5438 C   0  0  0  0  0  0  0  0  0  0  0  0
    0.3700    1.7897   -2.6896 C   0  0  0  0  0  0  0  0  0  0  0  0
   -0.9689    1.7472   -2.2993 C   0  0  0  0  0  0  0  0  0  0  0  0
   -1.5094    0.5751   -1.7647 C   0  0  0  0  0  0  0  0  0  0  0  0
   -1.1265   -1.4723   -1.2025 H   0  0  0  0  0  0  0  0  0  0  0  0
    1.2719   -1.4011   -1.9047 H   0  0  0  0  0  0  0  0  0  0  0  0
    0.8147    2.6881   -3.1026 H   0  0  0  0  0  0  0  0  0  0  0  0
   -1.5883    2.6323   -2.4113 H   0  0  0  0  0  0  0  0  0  0  0  0
    7.9119    6.4480   -6.6497 N   0  0  0  0  0  0  0  0  0  0  0  0
    7.6835    5.4532   -6.2261 N   0  0  0  0  0  0  0  0  0  0  0  0
    5.4632    2.1382   -3.5734 C   0  0  0  0  0  0  0  0  0  0  0  0
    6.5496    2.1139   -4.4435 C   0  0  0  0  0  0  0  0  0  0  0  0
    7.2282    0.9170   -4.7213 C   0  0  0  0  0  0  0  0  0  0  0  0
    6.7904   -0.2632   -4.1035 C   0  0  0  0  0  0  0  0  0  0  0  0
    5.7052   -0.2601   -3.2299 C   0  0  0  0  0  0  0  0  0  0  0  0
    5.0494    0.9451   -2.9781 C   0  0  0  0  0  0  0  0  0  0  0  0
    4.9447    3.0636   -3.3483 H   0  0  0  0  0  0  0  0  0  0  0  0
    6.8771    3.0368   -4.9136 H   0  0  0  0  0  0  0  0  0  0  0  0
    7.3070   -1.1969   -4.3077 H   0  0  0  0  0  0  0  0  0  0  0  0
    5.3733   -1.1704   -2.7436 H   0  0  0  0  0  0  0  0  0  0  0  0
    3.6614    0.9647   -1.8650 S   0  0  0  0  0  0  0  0  0  0  0  0
    3.7292   -0.1847   -0.9649 O   0  0  0  0  0  0  0  0  0  0  0  0
    2.4763    0.6680   -3.0082 O   0  0  0  0  0  0  0  0  0  0  0  0
    3.4617    2.3123   -1.3372 O   0  0  0  0  0  0  0  0  0  0  0  0
    8.4221    0.9102   -5.6446 C   0  0  0  0  0  0  0  0  0  0  0  0
    8.2809    1.5972   -6.4843 H   0  0  0  0  0  0  0  0  0  0  0  0
    9.3274    1.2296   -5.1138 H   0  0  0  0  0  0  0  0  0  0  0  0
    8.6130   -0.0880   -6.0467 H   0  0  0  0  0  0  0  0  0  0  0  0
   -2.5510    0.5474   -1.4597 H   0  0  0  0  0  0  0  0  0  0  0  0
  1  7  1  0  0  0  0
  2  8  1  0  0  0  0
  2  1  2  0  0  0  0
  3  2  1  0  0  0  0
  4  3  2  0  0  0  0
  4  5  1  0  0  0  0
  5  6  2  0  0  0  0
  6  1  1  0  0  0  0
  6 31  1  0  0  0  0
  9  4  1  0  0  0  0
 10  5  1  0  0  0  0
 11 12  3  0  0  0  0
 13 19  1  0  0  0  0
 13 18  2  0  0  0  0
 14 13  1  0  0  0  0
 15 14  2  0  0  0  0
 15 16  1  0  0  0  0
 16 17  2  0  0  0  0
 17 18  1  0  0  0  0
 17 22  1  0  0  0  0
 18 23  1  0  0  0  0
 20 14  1  0  0  0  0
 21 16  1  0  0  0  0
 23 26  2  0  0  0  0
 23 24  2  0  0  0  0
 25  3  1  0  0  0  0
 25 23  1  0  0  0  0
 27 29  1  0  0  0  0
 27 15  1  0  0  0  0
 28 27  1  0  0  0  0
 30 27  1  0  0  0  0
M  END
