Coordinates from ORCA-job Ph-N2-OTs-B3LYPG-6-31G_dp-MTMO-d009-169-n800
 OpenBabel09051907503D

 31 31  0  0  0  0  0  0  0  0999 V2000
   -0.8135   -1.0793   -1.3708 C   0  0  0  0  0  0  0  0  0  0  0  0
    0.4891   -0.8684   -1.8244 C   0  0  0  0  0  0  0  0  0  0  0  0
    0.8305    0.3855   -2.3281 C   0  0  0  0  0  0  0  0  0  0  0  0
   -0.0910    1.4296   -2.3814 C   0  0  0  0  0  0  0  0  0  0  0  0
   -1.3902    1.2046   -1.9248 C   0  0  0  0  0  0  0  0  0  0  0  0
   -1.7528   -0.0466   -1.4205 C   0  0  0  0  0  0  0  0  0  0  0  0
   -1.0926   -2.0517   -0.9763 H   0  0  0  0  0  0  0  0  0  0  0  0
    1.2370   -1.6526   -1.7924 H   0  0  0  0  0  0  0  0  0  0  0  0
    0.2161    2.3924   -2.7735 H   0  0  0  0  0  0  0  0  0  0  0  0
   -2.1182    2.0096   -1.9626 H   0  0  0  0  0  0  0  0  0  0  0  0
   13.9018    5.7791   -8.1131 N   0  0  0  0  0  0  0  0  0  0  0  0
   12.9334    5.2981   -7.8841 N   0  0  0  0  0  0  0  0  0  0  0  0
    4.8922    2.4133   -3.5939 C   0  0  0  0  0  0  0  0  0  0  0  0
    5.9528    2.4709   -4.4953 C   0  0  0  0  0  0  0  0  0  0  0  0
    6.7484    1.3452   -4.7529 C   0  0  0  0  0  0  0  0  0  0  0  0
    6.4633    0.1514   -4.0721 C   0  0  0  0  0  0  0  0  0  0  0  0
    5.4091    0.0730   -3.1663 C   0  0  0  0  0  0  0  0  0  0  0  0
    4.6287    1.2085   -2.9421 C   0  0  0  0  0  0  0  0  0  0  0  0
    4.2847    3.2866   -3.3838 H   0  0  0  0  0  0  0  0  0  0  0  0
    6.1702    3.4065   -5.0026 H   0  0  0  0  0  0  0  0  0  0  0  0
    7.0793   -0.7261   -4.2497 H   0  0  0  0  0  0  0  0  0  0  0  0
    5.1988   -0.8451   -2.6288 H   0  0  0  0  0  0  0  0  0  0  0  0
    3.2834    1.1250   -1.7799 S   0  0  0  0  0  0  0  0  0  0  0  0
    3.5318    0.0670   -0.8035 O   0  0  0  0  0  0  0  0  0  0  0  0
    2.1187    0.5842   -2.8534 O   0  0  0  0  0  0  0  0  0  0  0  0
    2.9180    2.4706   -1.3433 O   0  0  0  0  0  0  0  0  0  0  0  0
    7.8753    1.4092   -5.7546 C   0  0  0  0  0  0  0  0  0  0  0  0
    8.2513    2.4290   -5.8711 H   0  0  0  0  0  0  0  0  0  0  0  0
    8.7106    0.7676   -5.4593 H   0  0  0  0  0  0  0  0  0  0  0  0
    7.5383    1.0696   -6.7419 H   0  0  0  0  0  0  0  0  0  0  0  0
   -2.7647   -0.2160   -1.0653 H   0  0  0  0  0  0  0  0  0  0  0  0
  1  7  1  0  0  0  0
  2  8  1  0  0  0  0
  2  1  2  0  0  0  0
  3  2  1  0  0  0  0
  4  3  2  0  0  0  0
  4  5  1  0  0  0  0
  5  6  2  0  0  0  0
  6  1  1  0  0  0  0
  6 31  1  0  0  0  0
  9  4  1  0  0  0  0
 10  5  1  0  0  0  0
 11 12  3  0  0  0  0
 13 19  1  0  0  0  0
 13 18  2  0  0  0  0
 14 13  1  0  0  0  0
 15 14  2  0  0  0  0
 15 16  1  0  0  0  0
 16 17  2  0  0  0  0
 17 18  1  0  0  0  0
 17 22  1  0  0  0  0
 18 23  1  0  0  0  0
 20 14  1  0  0  0  0
 21 16  1  0  0  0  0
 23 26  2  0  0  0  0
 23 24  2  0  0  0  0
 25  3  1  0  0  0  0
 25 23  1  0  0  0  0
 27 29  1  0  0  0  0
 27 15  1  0  0  0  0
 28 27  1  0  0  0  0
 30 27  1  0  0  0  0
M  END
