Coordinates from ORCA-job Ph-N2-OTs-B3LYPG-6-31G_dp-MTMO-d009-169-n800
 OpenBabel09051907503D

 31 30  0  0  0  0  0  0  0  0999 V2000
   -0.2437    0.0007   -1.1469 C   0  0  0  0  0  0  0  0  0  0  0  0
    0.7253    0.6732   -1.9138 C   0  0  0  0  0  0  0  0  0  0  0  0
    0.3477    1.6817   -2.5648 C   0  0  0  0  0  0  0  0  0  0  0  0
   -0.8174    2.3691   -2.7588 C   0  0  0  0  0  0  0  0  0  0  0  0
   -1.8104    1.7073   -1.9952 C   0  0  0  0  0  0  0  0  0  0  0  0
   -1.5309    0.5663   -1.2209 C   0  0  0  0  0  0  0  0  0  0  0  0
   -0.0430   -0.8795   -0.5441 H   0  0  0  0  0  0  0  0  0  0  0  0
    2.7015    0.4247   -2.1913 H   0  0  0  0  0  0  0  0  0  0  0  0
   -0.9915    3.2498   -3.3615 H   0  0  0  0  0  0  0  0  0  0  0  0
   -2.8212    2.1070   -2.0159 H   0  0  0  0  0  0  0  0  0  0  0  0
    1.2204    4.5634   -4.6164 N   0  0  0  0  0  0  0  0  0  0  0  0
    2.1311    5.0646   -4.9906 N   0  0  0  0  0  0  0  0  0  0  0  0
    6.9447    1.2784   -2.8746 C   0  0  0  0  0  0  0  0  0  0  0  0
    8.1331    0.8319   -3.4505 C   0  0  0  0  0  0  0  0  0  0  0  0
    8.1573    0.3093   -4.7509 C   0  0  0  0  0  0  0  0  0  0  0  0
    6.9534    0.2415   -5.4699 C   0  0  0  0  0  0  0  0  0  0  0  0
    5.7568    0.6827   -4.9124 C   0  0  0  0  0  0  0  0  0  0  0  0
    5.7650    1.1947   -3.6133 C   0  0  0  0  0  0  0  0  0  0  0  0
    6.9243    1.6923   -1.8731 H   0  0  0  0  0  0  0  0  0  0  0  0
    9.0571    0.8924   -2.8818 H   0  0  0  0  0  0  0  0  0  0  0  0
    6.9559   -0.1598   -6.4795 H   0  0  0  0  0  0  0  0  0  0  0  0
    4.8289    0.6417   -5.4726 H   0  0  0  0  0  0  0  0  0  0  0  0
    4.2402    1.7627   -2.8880 S   0  0  0  0  0  0  0  0  0  0  0  0
    3.6773    0.3337   -2.3458 O   0  0  0  0  0  0  0  0  0  0  0  0
    3.3372    2.2365   -3.9430 O   0  0  0  0  0  0  0  0  0  0  0  0
    4.5454    2.6302   -1.7520 O   0  0  0  0  0  0  0  0  0  0  0  0
    9.4533   -0.1436   -5.3788 C   0  0  0  0  0  0  0  0  0  0  0  0
    9.8755    0.6441   -6.0154 H   0  0  0  0  0  0  0  0  0  0  0  0
   10.2015   -0.3883   -4.6201 H   0  0  0  0  0  0  0  0  0  0  0  0
    9.3051   -1.0251   -6.0103 H   0  0  0  0  0  0  0  0  0  0  0  0
   -2.3402    0.1070   -0.6596 H   0  0  0  0  0  0  0  0  0  0  0  0
  1  7  1  0  0  0  0
  2  1  2  0  0  0  0
  3  2  1  0  0  0  0
  4  3  2  0  0  0  0
  4  5  1  0  0  0  0
  5  6  2  0  0  0  0
  6  1  1  0  0  0  0
  6 31  1  0  0  0  0
  9  4  1  0  0  0  0
 10  5  1  0  0  0  0
 12 11  3  0  0  0  0
 13 19  1  0  0  0  0
 14 20  1  0  0  0  0
 14 13  1  0  0  0  0
 15 14  2  0  0  0  0
 16 17  2  0  0  0  0
 16 15  1  0  0  0  0
 17 18  1  0  0  0  0
 18 23  1  0  0  0  0
 18 13  2  0  0  0  0
 21 16  1  0  0  0  0
 22 17  1  0  0  0  0
 23 24  1  0  0  0  0
 23 26  2  0  0  0  0
 24  8  1  0  0  0  0
 25 23  2  0  0  0  0
 27 15  1  0  0  0  0
 27 29  1  0  0  0  0
 28 27  1  0  0  0  0
 30 27  1  0  0  0  0
M  RAD  2   2   2   3   2
M  END
