Coordinates from ORCA-job Ph-N2-OTs-B3LYPG-6-31G_dp-MTMO-d009-169-n800
 OpenBabel09051907503D

 31 31  0  0  0  0  0  0  0  0999 V2000
   -0.7582   -1.0647   -1.3988 C   0  0  0  0  0  0  0  0  0  0  0  0
    0.5438   -0.8496   -1.8522 C   0  0  0  0  0  0  0  0  0  0  0  0
    0.8819    0.4061   -2.3536 C   0  0  0  0  0  0  0  0  0  0  0  0
   -0.0423    1.4479   -2.4048 C   0  0  0  0  0  0  0  0  0  0  0  0
   -1.3408    1.2187   -1.9485 C   0  0  0  0  0  0  0  0  0  0  0  0
   -1.7002   -0.0344   -1.4465 C   0  0  0  0  0  0  0  0  0  0  0  0
   -1.0347   -2.0386   -1.0061 H   0  0  0  0  0  0  0  0  0  0  0  0
    1.2938   -1.6320   -1.8217 H   0  0  0  0  0  0  0  0  0  0  0  0
    0.2622    2.4122   -2.7952 H   0  0  0  0  0  0  0  0  0  0  0  0
   -2.0710    2.0218   -1.9847 H   0  0  0  0  0  0  0  0  0  0  0  0
   13.1693    5.3783   -7.7635 N   0  0  0  0  0  0  0  0  0  0  0  0
   12.1953    4.9122   -7.5275 N   0  0  0  0  0  0  0  0  0  0  0  0
    4.9400    2.4457   -3.6155 C   0  0  0  0  0  0  0  0  0  0  0  0
    6.0009    2.5068   -4.5162 C   0  0  0  0  0  0  0  0  0  0  0  0
    6.7985    1.3828   -4.7757 C   0  0  0  0  0  0  0  0  0  0  0  0
    6.5151    0.1874   -4.0973 C   0  0  0  0  0  0  0  0  0  0  0  0
    5.4607    0.1054   -3.1921 C   0  0  0  0  0  0  0  0  0  0  0  0
    4.6783    1.2392   -2.9660 C   0  0  0  0  0  0  0  0  0  0  0  0
    4.3310    3.3175   -3.4040 H   0  0  0  0  0  0  0  0  0  0  0  0
    6.2170    3.4438   -5.0217 H   0  0  0  0  0  0  0  0  0  0  0  0
    7.1327   -0.6888   -4.2763 H   0  0  0  0  0  0  0  0  0  0  0  0
    5.2517   -0.8140   -2.6564 H   0  0  0  0  0  0  0  0  0  0  0  0
    3.3329    1.1513   -1.8044 S   0  0  0  0  0  0  0  0  0  0  0  0
    3.5833    0.0925   -0.8292 O   0  0  0  0  0  0  0  0  0  0  0  0
    2.1695    0.6092   -2.8787 O   0  0  0  0  0  0  0  0  0  0  0  0
    2.9644    2.4954   -1.3661 O   0  0  0  0  0  0  0  0  0  0  0  0
    7.9255    1.4508   -5.7771 C   0  0  0  0  0  0  0  0  0  0  0  0
    8.3074    2.4697   -5.8832 H   0  0  0  0  0  0  0  0  0  0  0  0
    8.7572    0.8014   -5.4890 H   0  0  0  0  0  0  0  0  0  0  0  0
    7.5861    1.1238   -6.7678 H   0  0  0  0  0  0  0  0  0  0  0  0
   -2.7116   -0.2071   -1.0915 H   0  0  0  0  0  0  0  0  0  0  0  0
  1  7  1  0  0  0  0
  2  8  1  0  0  0  0
  2  1  2  0  0  0  0
  3  2  1  0  0  0  0
  4  3  2  0  0  0  0
  4  5  1  0  0  0  0
  5  6  2  0  0  0  0
  6  1  1  0  0  0  0
  6 31  1  0  0  0  0
  9  4  1  0  0  0  0
 10  5  1  0  0  0  0
 11 12  3  0  0  0  0
 13 19  1  0  0  0  0
 13 18  2  0  0  0  0
 14 13  1  0  0  0  0
 15 14  2  0  0  0  0
 15 16  1  0  0  0  0
 16 17  2  0  0  0  0
 17 18  1  0  0  0  0
 17 22  1  0  0  0  0
 18 23  1  0  0  0  0
 20 14  1  0  0  0  0
 21 16  1  0  0  0  0
 23 26  2  0  0  0  0
 23 24  2  0  0  0  0
 25  3  1  0  0  0  0
 25 23  1  0  0  0  0
 27 29  1  0  0  0  0
 27 15  1  0  0  0  0
 28 27  1  0  0  0  0
 30 27  1  0  0  0  0
M  END
