Coordinates from ORCA-job Ph-N2-OTs-B3LYPG-6-31G_dp-MTMO-d009-169-n800
 OpenBabel09051907503D

 31 31  0  0  0  0  0  0  0  0999 V2000
   -0.6437   -0.9185   -1.4002 C   0  0  0  0  0  0  0  0  0  0  0  0
    0.6590   -0.7434   -1.8685 C   0  0  0  0  0  0  0  0  0  0  0  0
    1.0204    0.4914   -2.4042 C   0  0  0  0  0  0  0  0  0  0  0  0
    0.1187    1.5517   -2.4750 C   0  0  0  0  0  0  0  0  0  0  0  0
   -1.1809    1.3627   -2.0034 C   0  0  0  0  0  0  0  0  0  0  0  0
   -1.5635    0.1308   -1.4672 C   0  0  0  0  0  0  0  0  0  0  0  0
   -0.9384   -1.8759   -0.9812 H   0  0  0  0  0  0  0  0  0  0  0  0
    1.3920   -1.5410   -1.8235 H   0  0  0  0  0  0  0  0  0  0  0  0
    0.4411    2.4990   -2.8917 H   0  0  0  0  0  0  0  0  0  0  0  0
   -1.8937    2.1805   -2.0549 H   0  0  0  0  0  0  0  0  0  0  0  0
   11.0450    5.3702   -6.5473 N   0  0  0  0  0  0  0  0  0  0  0  0
   10.1886    4.6864   -6.4045 N   0  0  0  0  0  0  0  0  0  0  0  0
    5.1123    2.4006   -3.7569 C   0  0  0  0  0  0  0  0  0  0  0  0
    6.1673    2.4103   -4.6664 C   0  0  0  0  0  0  0  0  0  0  0  0
    6.9392    1.2617   -4.8951 C   0  0  0  0  0  0  0  0  0  0  0  0
    6.6361    0.0953   -4.1759 C   0  0  0  0  0  0  0  0  0  0  0  0
    5.5870    0.0648   -3.2611 C   0  0  0  0  0  0  0  0  0  0  0  0
    4.8301    1.2213   -3.0667 C   0  0  0  0  0  0  0  0  0  0  0  0
    4.5234    3.2915   -3.5695 H   0  0  0  0  0  0  0  0  0  0  0  0
    6.3997    3.3256   -5.2033 H   0  0  0  0  0  0  0  0  0  0  0  0
    7.2337   -0.7990   -4.3307 H   0  0  0  0  0  0  0  0  0  0  0  0
    5.3630   -0.8322   -2.6944 H   0  0  0  0  0  0  0  0  0  0  0  0
    3.4914    1.1990   -1.8943 S   0  0  0  0  0  0  0  0  0  0  0  0
    3.7240    0.1641   -0.8895 O   0  0  0  0  0  0  0  0  0  0  0  0
    2.3077    0.6525   -2.9444 O   0  0  0  0  0  0  0  0  0  0  0  0
    3.1568    2.5638   -1.4939 O   0  0  0  0  0  0  0  0  0  0  0  0
    8.0584    1.2733   -5.9074 C   0  0  0  0  0  0  0  0  0  0  0  0
    8.4806    2.2741   -6.0302 H   0  0  0  0  0  0  0  0  0  0  0  0
    8.8649    0.5928   -5.6193 H   0  0  0  0  0  0  0  0  0  0  0  0
    7.6953    0.9483   -6.8905 H   0  0  0  0  0  0  0  0  0  0  0  0
   -2.5758   -0.0107   -1.1008 H   0  0  0  0  0  0  0  0  0  0  0  0
  1  7  1  0  0  0  0
  2  8  1  0  0  0  0
  2  1  2  0  0  0  0
  3  2  1  0  0  0  0
  4  3  2  0  0  0  0
  4  5  1  0  0  0  0
  5  6  2  0  0  0  0
  6  1  1  0  0  0  0
  6 31  1  0  0  0  0
  9  4  1  0  0  0  0
 10  5  1  0  0  0  0
 11 12  3  0  0  0  0
 13 19  1  0  0  0  0
 13 18  2  0  0  0  0
 14 13  1  0  0  0  0
 15 14  2  0  0  0  0
 15 16  1  0  0  0  0
 16 17  2  0  0  0  0
 17 18  1  0  0  0  0
 17 22  1  0  0  0  0
 18 23  1  0  0  0  0
 20 14  1  0  0  0  0
 21 16  1  0  0  0  0
 23 26  2  0  0  0  0
 23 24  2  0  0  0  0
 25  3  1  0  0  0  0
 25 23  1  0  0  0  0
 27 29  1  0  0  0  0
 27 15  1  0  0  0  0
 28 27  1  0  0  0  0
 30 27  1  0  0  0  0
M  END
