Coordinates from ORCA-job Ph-N2-OTs-B3LYPG-6-31G_dp-MTMO-d009-169-n800
 OpenBabel09051907503D

 31 31  0  0  0  0  0  0  0  0999 V2000
   -0.3990    0.0622   -1.1843 C   0  0  0  0  0  0  0  0  0  0  0  0
    0.9339   -0.0249   -1.5887 C   0  0  0  0  0  0  0  0  0  0  0  0
    1.3601    0.7549   -2.6629 C   0  0  0  0  0  0  0  0  0  0  0  0
    0.4921    1.6120   -3.3359 C   0  0  0  0  0  0  0  0  0  0  0  0
   -0.8397    1.6821   -2.9260 C   0  0  0  0  0  0  0  0  0  0  0  0
   -1.2859    0.9109   -1.8504 C   0  0  0  0  0  0  0  0  0  0  0  0
   -0.7436   -0.5363   -0.3461 H   0  0  0  0  0  0  0  0  0  0  0  0
    1.6399   -0.6750   -1.0855 H   0  0  0  0  0  0  0  0  0  0  0  0
    0.8653    2.2036   -4.1647 H   0  0  0  0  0  0  0  0  0  0  0  0
   -1.5265    2.3438   -3.4455 H   0  0  0  0  0  0  0  0  0  0  0  0
    5.1005    6.3932   -2.5358 N   0  0  0  0  0  0  0  0  0  0  0  0
    5.1431    5.6468   -3.3495 N   0  0  0  0  0  0  0  0  0  0  0  0
    5.6483    2.0192   -4.2580 C   0  0  0  0  0  0  0  0  0  0  0  0
    6.7230    1.7218   -5.0913 C   0  0  0  0  0  0  0  0  0  0  0  0
    7.3783    0.4824   -5.0193 C   0  0  0  0  0  0  0  0  0  0  0  0
    6.9314   -0.4589   -4.0813 C   0  0  0  0  0  0  0  0  0  0  0  0
    5.8608   -0.1804   -3.2341 C   0  0  0  0  0  0  0  0  0  0  0  0
    5.2261    1.0575   -3.3379 C   0  0  0  0  0  0  0  0  0  0  0  0
    5.1510    2.9813   -4.3037 H   0  0  0  0  0  0  0  0  0  0  0  0
    7.0613    2.4659   -5.8076 H   0  0  0  0  0  0  0  0  0  0  0  0
    7.4308   -1.4211   -4.0103 H   0  0  0  0  0  0  0  0  0  0  0  0
    5.5272   -0.9045   -2.4989 H   0  0  0  0  0  0  0  0  0  0  0  0
    3.8636    1.4299   -2.2555 S   0  0  0  0  0  0  0  0  0  0  0  0
    4.0322    0.7270   -0.9849 O   0  0  0  0  0  0  0  0  0  0  0  0
    2.6792    0.6401   -3.1342 O   0  0  0  0  0  0  0  0  0  0  0  0
    3.5817    2.8634   -2.2788 O   0  0  0  0  0  0  0  0  0  0  0  0
    8.5495    0.1840   -5.9237 C   0  0  0  0  0  0  0  0  0  0  0  0
    8.3051    0.3928   -6.9709 H   0  0  0  0  0  0  0  0  0  0  0  0
    9.4138    0.8066   -5.6650 H   0  0  0  0  0  0  0  0  0  0  0  0
    8.8580   -0.8618   -5.8496 H   0  0  0  0  0  0  0  0  0  0  0  0
   -2.3220    0.9722   -1.5313 H   0  0  0  0  0  0  0  0  0  0  0  0
  1  7  1  0  0  0  0
  2  1  1  0  0  0  0
  2  8  1  0  0  0  0
  3  2  2  0  0  0  0
  4  5  2  0  0  0  0
  4  3  1  0  0  0  0
  5  6  1  0  0  0  0
  6 31  1  0  0  0  0
  6  1  2  0  0  0  0
  9  4  1  0  0  0  0
 10  5  1  0  0  0  0
 12 11  3  0  0  0  0
 13 18  2  0  0  0  0
 14 15  2  0  0  0  0
 14 13  1  0  0  0  0
 15 16  1  0  0  0  0
 16 21  1  0  0  0  0
 16 17  2  0  0  0  0
 17 22  1  0  0  0  0
 18 17  1  0  0  0  0
 18 23  1  0  0  0  0
 19 13  1  0  0  0  0
 20 14  1  0  0  0  0
 23 24  2  0  0  0  0
 25  3  1  0  0  0  0
 25 23  1  0  0  0  0
 26 23  2  0  0  0  0
 27 30  1  0  0  0  0
 27 29  1  0  0  0  0
 27 15  1  0  0  0  0
 28 27  1  0  0  0  0
M  END
