Coordinates from ORCA-job Ph-N2-OTs-B3LYPG-6-31G_dp-MTMO-d009-169-n800
 OpenBabel09051907503D

 31 31  0  0  0  0  0  0  0  0999 V2000
   -0.5640   -0.2110   -1.2874 C   0  0  0  0  0  0  0  0  0  0  0  0
    0.7741   -0.2818   -1.6775 C   0  0  0  0  0  0  0  0  0  0  0  0
    1.2559    0.6543   -2.5917 C   0  0  0  0  0  0  0  0  0  0  0  0
    0.4372    1.6502   -3.1199 C   0  0  0  0  0  0  0  0  0  0  0  0
   -0.9008    1.7029   -2.7280 C   0  0  0  0  0  0  0  0  0  0  0  0
   -1.4021    0.7760   -1.8110 C   0  0  0  0  0  0  0  0  0  0  0  0
   -0.9512   -0.9320   -0.5731 H   0  0  0  0  0  0  0  0  0  0  0  0
    1.4422   -1.0386   -1.2832 H   0  0  0  0  0  0  0  0  0  0  0  0
    0.8530    2.3621   -3.8247 H   0  0  0  0  0  0  0  0  0  0  0  0
   -1.5491    2.4727   -3.1360 H   0  0  0  0  0  0  0  0  0  0  0  0
    6.5005    6.7980   -4.7035 N   0  0  0  0  0  0  0  0  0  0  0  0
    6.3895    5.7021   -4.7926 N   0  0  0  0  0  0  0  0  0  0  0  0
    5.5860    2.0719   -3.8500 C   0  0  0  0  0  0  0  0  0  0  0  0
    6.6653    1.9285   -4.7181 C   0  0  0  0  0  0  0  0  0  0  0  0
    7.3022    0.6897   -4.8855 C   0  0  0  0  0  0  0  0  0  0  0  0
    6.8309   -0.4116   -4.1555 C   0  0  0  0  0  0  0  0  0  0  0  0
    5.7562   -0.2886   -3.2781 C   0  0  0  0  0  0  0  0  0  0  0  0
    5.1404    0.9561   -3.1400 C   0  0  0  0  0  0  0  0  0  0  0  0
    5.1000    3.0315   -3.7149 H   0  0  0  0  0  0  0  0  0  0  0  0
    7.0182    2.7947   -5.2701 H   0  0  0  0  0  0  0  0  0  0  0  0
    7.3145   -1.3775   -4.2728 H   0  0  0  0  0  0  0  0  0  0  0  0
    5.4029   -1.1378   -2.7041 H   0  0  0  0  0  0  0  0  0  0  0  0
    3.7703    1.1322   -2.0184 S   0  0  0  0  0  0  0  0  0  0  0  0
    3.9050    0.1794   -0.9180 O   0  0  0  0  0  0  0  0  0  0  0  0
    2.5806    0.5696   -3.0526 O   0  0  0  0  0  0  0  0  0  0  0  0
    3.5201    2.5462   -1.7508 O   0  0  0  0  0  0  0  0  0  0  0  0
    8.4885    0.5551   -5.8094 C   0  0  0  0  0  0  0  0  0  0  0  0
    8.3734    1.1782   -6.7011 H   0  0  0  0  0  0  0  0  0  0  0  0
    9.4109    0.8738   -5.3084 H   0  0  0  0  0  0  0  0  0  0  0  0
    8.6311   -0.4796   -6.1312 H   0  0  0  0  0  0  0  0  0  0  0  0
   -2.4424    0.8240   -1.5037 H   0  0  0  0  0  0  0  0  0  0  0  0
  1  7  1  0  0  0  0
  2  1  1  0  0  0  0
  2  8  1  0  0  0  0
  3  2  2  0  0  0  0
  4  5  2  0  0  0  0
  4  3  1  0  0  0  0
  5  6  1  0  0  0  0
  6 31  1  0  0  0  0
  6  1  2  0  0  0  0
  9  4  1  0  0  0  0
 10  5  1  0  0  0  0
 12 11  3  0  0  0  0
 13 19  1  0  0  0  0
 13 18  2  0  0  0  0
 14 13  1  0  0  0  0
 15 14  2  0  0  0  0
 15 16  1  0  0  0  0
 16 17  2  0  0  0  0
 17 18  1  0  0  0  0
 17 22  1  0  0  0  0
 18 23  1  0  0  0  0
 20 14  1  0  0  0  0
 21 16  1  0  0  0  0
 23 26  2  0  0  0  0
 23 24  2  0  0  0  0
 25  3  1  0  0  0  0
 25 23  1  0  0  0  0
 27 29  1  0  0  0  0
 27 15  1  0  0  0  0
 28 27  1  0  0  0  0
 30 27  1  0  0  0  0
M  END
