Coordinates from ORCA-job Ph-N2-OTs-B3LYPG-6-31G_dp-MTMO-d009-169-n800
 OpenBabel09051907503D

 31 31  0  0  0  0  0  0  0  0999 V2000
   -0.5405    0.1652   -1.5388 C   0  0  0  0  0  0  0  0  0  0  0  0
    0.7758   -0.0299   -1.9591 C   0  0  0  0  0  0  0  0  0  0  0  0
    1.4684    1.0460   -2.5127 C   0  0  0  0  0  0  0  0  0  0  0  0
    0.8826    2.3021   -2.6535 C   0  0  0  0  0  0  0  0  0  0  0  0
   -0.4366    2.4798   -2.2357 C   0  0  0  0  0  0  0  0  0  0  0  0
   -1.1483    1.4152   -1.6775 C   0  0  0  0  0  0  0  0  0  0  0  0
   -1.0916   -0.6639   -1.1051 H   0  0  0  0  0  0  0  0  0  0  0  0
    1.2680   -0.9906   -1.8612 H   0  0  0  0  0  0  0  0  0  0  0  0
    1.4586    3.1113   -3.0880 H   0  0  0  0  0  0  0  0  0  0  0  0
   -0.9067    3.4530   -2.3440 H   0  0  0  0  0  0  0  0  0  0  0  0
    3.6819    4.0864   -6.3677 N   0  0  0  0  0  0  0  0  0  0  0  0
    3.2629    4.0143   -5.3476 N   0  0  0  0  0  0  0  0  0  0  0  0
    5.9261    1.9692   -3.4662 C   0  0  0  0  0  0  0  0  0  0  0  0
    6.9847    1.9255   -4.3686 C   0  0  0  0  0  0  0  0  0  0  0  0
    7.4786    0.7028   -4.8501 C   0  0  0  0  0  0  0  0  0  0  0  0
    6.8899   -0.4846   -4.3937 C   0  0  0  0  0  0  0  0  0  0  0  0
    5.8297   -0.4633   -3.4894 C   0  0  0  0  0  0  0  0  0  0  0  0
    5.3549    0.7684   -3.0400 C   0  0  0  0  0  0  0  0  0  0  0  0
    5.5529    2.9119   -3.0818 H   0  0  0  0  0  0  0  0  0  0  0  0
    7.4400    2.8543   -4.7012 H   0  0  0  0  0  0  0  0  0  0  0  0
    7.2696   -1.4392   -4.7465 H   0  0  0  0  0  0  0  0  0  0  0  0
    5.3843   -1.3821   -3.1250 H   0  0  0  0  0  0  0  0  0  0  0  0
    4.0043    0.8129   -1.8814 S   0  0  0  0  0  0  0  0  0  0  0  0
    3.9244   -0.4591   -1.1660 O   0  0  0  0  0  0  0  0  0  0  0  0
    2.7703    0.8611   -3.0095 O   0  0  0  0  0  0  0  0  0  0  0  0
    4.0109    2.0780   -1.1518 O   0  0  0  0  0  0  0  0  0  0  0  0
    8.6097    0.6740   -5.8486 C   0  0  0  0  0  0  0  0  0  0  0  0
    8.2503    0.9286   -6.8532 H   0  0  0  0  0  0  0  0  0  0  0  0
    9.3877    1.3995   -5.5913 H   0  0  0  0  0  0  0  0  0  0  0  0
    9.0705   -0.3156   -5.9048 H   0  0  0  0  0  0  0  0  0  0  0  0
   -2.1736    1.5595   -1.3514 H   0  0  0  0  0  0  0  0  0  0  0  0
  1  7  1  0  0  0  0
  2  8  1  0  0  0  0
  2  1  2  0  0  0  0
  3  2  1  0  0  0  0
  4  3  2  0  0  0  0
  4  5  1  0  0  0  0
  5  6  2  0  0  0  0
  6  1  1  0  0  0  0
  6 31  1  0  0  0  0
  9  4  1  0  0  0  0
 10  5  1  0  0  0  0
 11 12  3  0  0  0  0
 13 19  1  0  0  0  0
 13 18  1  0  0  0  0
 14 13  2  0  0  0  0
 15 16  2  0  0  0  0
 15 14  1  0  0  0  0
 16 17  1  0  0  0  0
 17 22  1  0  0  0  0
 17 18  2  0  0  0  0
 18 23  1  0  0  0  0
 20 14  1  0  0  0  0
 21 16  1  0  0  0  0
 23 24  2  0  0  0  0
 23 26  2  0  0  0  0
 25  3  1  0  0  0  0
 25 23  1  0  0  0  0
 27 29  1  0  0  0  0
 27 15  1  0  0  0  0
 28 27  1  0  0  0  0
 30 27  1  0  0  0  0
M  END
