Coordinates from ORCA-job Ph-N2-OTs-B3LYPG-6-31G_dp-MTMO-d009-169-n800
 OpenBabel09051907503D

 31 31  0  0  0  0  0  0  0  0999 V2000
   -0.3938    0.0982   -1.2018 C   0  0  0  0  0  0  0  0  0  0  0  0
    0.9379   -0.0111   -1.6048 C   0  0  0  0  0  0  0  0  0  0  0  0
    1.3852    0.7818   -2.6606 C   0  0  0  0  0  0  0  0  0  0  0  0
    0.5393    1.6730   -3.3171 C   0  0  0  0  0  0  0  0  0  0  0  0
   -0.7918    1.7650   -2.9093 C   0  0  0  0  0  0  0  0  0  0  0  0
   -1.2589    0.9813   -1.8516 C   0  0  0  0  0  0  0  0  0  0  0  0
   -0.7547   -0.5103   -0.3778 H   0  0  0  0  0  0  0  0  0  0  0  0
    1.6271   -0.6884   -1.1141 H   0  0  0  0  0  0  0  0  0  0  0  0
    0.9287    2.2737   -4.1318 H   0  0  0  0  0  0  0  0  0  0  0  0
   -1.4616    2.4536   -3.4159 H   0  0  0  0  0  0  0  0  0  0  0  0
    4.6409    6.3227   -2.5950 N   0  0  0  0  0  0  0  0  0  0  0  0
    4.8487    5.6129   -3.4159 N   0  0  0  0  0  0  0  0  0  0  0  0
    5.6832    1.9989   -4.2237 C   0  0  0  0  0  0  0  0  0  0  0  0
    6.7525    1.7103   -5.0668 C   0  0  0  0  0  0  0  0  0  0  0  0
    7.3996    0.4652   -5.0215 C   0  0  0  0  0  0  0  0  0  0  0  0
    6.9503   -0.4907   -4.0998 C   0  0  0  0  0  0  0  0  0  0  0  0
    5.8845   -0.2215   -3.2432 C   0  0  0  0  0  0  0  0  0  0  0  0
    5.2581    1.0224   -3.3205 C   0  0  0  0  0  0  0  0  0  0  0  0
    5.1921    2.9649   -4.2496 H   0  0  0  0  0  0  0  0  0  0  0  0
    7.0933    2.4659   -5.7698 H   0  0  0  0  0  0  0  0  0  0  0  0
    7.4438   -1.4572   -4.0487 H   0  0  0  0  0  0  0  0  0  0  0  0
    5.5488   -0.9569   -2.5204 H   0  0  0  0  0  0  0  0  0  0  0  0
    3.9023    1.3823   -2.2255 S   0  0  0  0  0  0  0  0  0  0  0  0
    4.0574    0.6321   -0.9806 O   0  0  0  0  0  0  0  0  0  0  0  0
    2.7028    0.6474   -3.1311 O   0  0  0  0  0  0  0  0  0  0  0  0
    3.6469    2.8208   -2.1983 O   0  0  0  0  0  0  0  0  0  0  0  0
    8.5627    0.1756   -5.9390 C   0  0  0  0  0  0  0  0  0  0  0  0
    8.2981    0.3638   -6.9854 H   0  0  0  0  0  0  0  0  0  0  0  0
    9.4188    0.8183   -5.7034 H   0  0  0  0  0  0  0  0  0  0  0  0
    8.8917   -0.8632   -5.8551 H   0  0  0  0  0  0  0  0  0  0  0  0
   -2.2942    1.0598   -1.5337 H   0  0  0  0  0  0  0  0  0  0  0  0
  1  7  1  0  0  0  0
  2  1  1  0  0  0  0
  2  8  1  0  0  0  0
  3  2  2  0  0  0  0
  4  5  2  0  0  0  0
  4  3  1  0  0  0  0
  5  6  1  0  0  0  0
  6 31  1  0  0  0  0
  6  1  2  0  0  0  0
  9  4  1  0  0  0  0
 10  5  1  0  0  0  0
 12 11  3  0  0  0  0
 13 18  2  0  0  0  0
 14 15  2  0  0  0  0
 14 13  1  0  0  0  0
 15 16  1  0  0  0  0
 16 21  1  0  0  0  0
 16 17  2  0  0  0  0
 17 22  1  0  0  0  0
 18 17  1  0  0  0  0
 18 23  1  0  0  0  0
 19 13  1  0  0  0  0
 20 14  1  0  0  0  0
 23 26  2  0  0  0  0
 23 24  2  0  0  0  0
 25  3  1  0  0  0  0
 25 23  1  0  0  0  0
 27 30  1  0  0  0  0
 27 29  1  0  0  0  0
 27 15  1  0  0  0  0
 28 27  1  0  0  0  0
M  END
