Coordinates from ORCA-job Ph-N2-OTs-B3LYPG-6-31G_dp-MTMO-d009-169-n800
 OpenBabel09051907503D

 31 31  0  0  0  0  0  0  0  0999 V2000
   -0.6494   -1.0065   -1.4158 C   0  0  0  0  0  0  0  0  0  0  0  0
    0.6488   -0.7940   -1.8812 C   0  0  0  0  0  0  0  0  0  0  0  0
    0.9822    0.4582   -2.3942 C   0  0  0  0  0  0  0  0  0  0  0  0
    0.0572    1.4993   -2.4453 C   0  0  0  0  0  0  0  0  0  0  0  0
   -1.2375    1.2728   -1.9767 C   0  0  0  0  0  0  0  0  0  0  0  0
   -1.5922    0.0231   -1.4631 C   0  0  0  0  0  0  0  0  0  0  0  0
   -0.9223   -1.9777   -1.0142 H   0  0  0  0  0  0  0  0  0  0  0  0
    1.3994   -1.5757   -1.8512 H   0  0  0  0  0  0  0  0  0  0  0  0
    0.3580    2.4609   -2.8450 H   0  0  0  0  0  0  0  0  0  0  0  0
   -1.9683    2.0753   -2.0127 H   0  0  0  0  0  0  0  0  0  0  0  0
   11.6821    4.9694   -6.9519 N   0  0  0  0  0  0  0  0  0  0  0  0
   10.7465    4.4436   -6.6882 N   0  0  0  0  0  0  0  0  0  0  0  0
    5.0471    2.4691   -3.7098 C   0  0  0  0  0  0  0  0  0  0  0  0
    6.1069    2.5080   -4.6126 C   0  0  0  0  0  0  0  0  0  0  0  0
    6.8970    1.3743   -4.8544 C   0  0  0  0  0  0  0  0  0  0  0  0
    6.6066    0.1929   -4.1552 C   0  0  0  0  0  0  0  0  0  0  0  0
    5.5529    0.1332   -3.2469 C   0  0  0  0  0  0  0  0  0  0  0  0
    4.7781    1.2753   -3.0392 C   0  0  0  0  0  0  0  0  0  0  0  0
    4.4441    3.3483   -3.5122 H   0  0  0  0  0  0  0  0  0  0  0  0
    6.3284    3.4349   -5.1342 H   0  0  0  0  0  0  0  0  0  0  0  0
    7.2179   -0.6903   -4.3201 H   0  0  0  0  0  0  0  0  0  0  0  0
    5.3393   -0.7757   -2.6952 H   0  0  0  0  0  0  0  0  0  0  0  0
    3.4356    1.2161   -1.8722 S   0  0  0  0  0  0  0  0  0  0  0  0
    3.6842    0.1759   -0.8768 O   0  0  0  0  0  0  0  0  0  0  0  0
    2.2656    0.6576   -2.9313 O   0  0  0  0  0  0  0  0  0  0  0  0
    3.0745    2.5705   -1.4596 O   0  0  0  0  0  0  0  0  0  0  0  0
    8.0216    1.4186   -5.8598 C   0  0  0  0  0  0  0  0  0  0  0  0
    8.4717    2.4135   -5.9194 H   0  0  0  0  0  0  0  0  0  0  0  0
    8.8088    0.7012   -5.6114 H   0  0  0  0  0  0  0  0  0  0  0  0
    7.6555    1.1661   -6.8629 H   0  0  0  0  0  0  0  0  0  0  0  0
   -2.6007   -0.1476   -1.0988 H   0  0  0  0  0  0  0  0  0  0  0  0
  1  7  1  0  0  0  0
  2  8  1  0  0  0  0
  2  1  2  0  0  0  0
  3  2  1  0  0  0  0
  4  3  2  0  0  0  0
  4  5  1  0  0  0  0
  5  6  2  0  0  0  0
  6  1  1  0  0  0  0
  6 31  1  0  0  0  0
  9  4  1  0  0  0  0
 10  5  1  0  0  0  0
 11 12  3  0  0  0  0
 13 19  1  0  0  0  0
 13 18  2  0  0  0  0
 14 13  1  0  0  0  0
 15 14  2  0  0  0  0
 15 16  1  0  0  0  0
 16 17  2  0  0  0  0
 17 18  1  0  0  0  0
 17 22  1  0  0  0  0
 18 23  1  0  0  0  0
 20 14  1  0  0  0  0
 21 16  1  0  0  0  0
 23 26  2  0  0  0  0
 23 24  2  0  0  0  0
 25  3  1  0  0  0  0
 25 23  1  0  0  0  0
 27 29  1  0  0  0  0
 27 15  1  0  0  0  0
 28 27  1  0  0  0  0
 30 27  1  0  0  0  0
M  END
