Coordinates from ORCA-job Ph-N2-OTs-B3LYPG-6-31G_dp-MTMO-d009-169-n800
 OpenBabel09051907503D

 31 31  0  0  0  0  0  0  0  0999 V2000
   -0.5500   -0.1480   -1.2997 C   0  0  0  0  0  0  0  0  0  0  0  0
    0.7874   -0.2416   -1.6875 C   0  0  0  0  0  0  0  0  0  0  0  0
    1.2856    0.6837   -2.6039 C   0  0  0  0  0  0  0  0  0  0  0  0
    0.4839    1.6908   -3.1366 C   0  0  0  0  0  0  0  0  0  0  0  0
   -0.8536    1.7665   -2.7469 C   0  0  0  0  0  0  0  0  0  0  0  0
   -1.3712    0.8508   -1.8277 C   0  0  0  0  0  0  0  0  0  0  0  0
   -0.9499   -0.8603   -0.5838 H   0  0  0  0  0  0  0  0  0  0  0  0
    1.4424   -1.0081   -1.2899 H   0  0  0  0  0  0  0  0  0  0  0  0
    0.9122    2.3936   -3.8430 H   0  0  0  0  0  0  0  0  0  0  0  0
   -1.4888    2.5454   -3.1583 H   0  0  0  0  0  0  0  0  0  0  0  0
    5.9822    6.7361   -4.4864 N   0  0  0  0  0  0  0  0  0  0  0  0
    6.0120    5.6444   -4.6555 N   0  0  0  0  0  0  0  0  0  0  0  0
    5.6134    2.0435   -3.8752 C   0  0  0  0  0  0  0  0  0  0  0  0
    6.6904    1.8921   -4.7446 C   0  0  0  0  0  0  0  0  0  0  0  0
    7.3314    0.6535   -4.8975 C   0  0  0  0  0  0  0  0  0  0  0  0
    6.8657   -0.4397   -4.1517 C   0  0  0  0  0  0  0  0  0  0  0  0
    5.7928   -0.3088   -3.2731 C   0  0  0  0  0  0  0  0  0  0  0  0
    5.1736    0.9357   -3.1493 C   0  0  0  0  0  0  0  0  0  0  0  0
    5.1258    3.0037   -3.7519 H   0  0  0  0  0  0  0  0  0  0  0  0
    7.0384    2.7520   -5.3097 H   0  0  0  0  0  0  0  0  0  0  0  0
    7.3523   -1.4053   -4.2576 H   0  0  0  0  0  0  0  0  0  0  0  0
    5.4435   -1.1514   -2.6870 H   0  0  0  0  0  0  0  0  0  0  0  0
    3.8059    1.1228   -2.0268 S   0  0  0  0  0  0  0  0  0  0  0  0
    3.9315    0.1655   -0.9291 O   0  0  0  0  0  0  0  0  0  0  0  0
    2.6096    0.5765   -3.0620 O   0  0  0  0  0  0  0  0  0  0  0  0
    3.5702    2.5386   -1.7552 O   0  0  0  0  0  0  0  0  0  0  0  0
    8.5162    0.5106   -5.8219 C   0  0  0  0  0  0  0  0  0  0  0  0
    8.4074    1.1376   -6.7116 H   0  0  0  0  0  0  0  0  0  0  0  0
    9.4417    0.8182   -5.3195 H   0  0  0  0  0  0  0  0  0  0  0  0
    8.6489   -0.5245   -6.1470 H   0  0  0  0  0  0  0  0  0  0  0  0
   -2.4110    0.9167   -1.5221 H   0  0  0  0  0  0  0  0  0  0  0  0
  1  7  1  0  0  0  0
  2  1  1  0  0  0  0
  2  8  1  0  0  0  0
  3  2  2  0  0  0  0
  4  5  2  0  0  0  0
  4  3  1  0  0  0  0
  5  6  1  0  0  0  0
  6 31  1  0  0  0  0
  6  1  2  0  0  0  0
  9  4  1  0  0  0  0
 10  5  1  0  0  0  0
 12 11  3  0  0  0  0
 13 19  1  0  0  0  0
 13 18  2  0  0  0  0
 14 13  1  0  0  0  0
 15 14  2  0  0  0  0
 15 16  1  0  0  0  0
 16 17  2  0  0  0  0
 17 18  1  0  0  0  0
 17 22  1  0  0  0  0
 18 23  1  0  0  0  0
 20 14  1  0  0  0  0
 21 16  1  0  0  0  0
 23 26  2  0  0  0  0
 23 24  2  0  0  0  0
 25  3  1  0  0  0  0
 25 23  1  0  0  0  0
 27 29  1  0  0  0  0
 27 15  1  0  0  0  0
 28 27  1  0  0  0  0
 30 27  1  0  0  0  0
M  END
