Coordinates from ORCA-job Ph-N2-OTs-B3LYPG-6-31G_dp-MTMO-d009-169-n800
 OpenBabel09051907503D

 31 31  0  0  0  0  0  0  0  0999 V2000
   -0.8761   -1.0911   -1.2920 C   0  0  0  0  0  0  0  0  0  0  0  0
    0.4238   -0.8866   -1.7565 C   0  0  0  0  0  0  0  0  0  0  0  0
    0.7617    0.3596   -2.2809 C   0  0  0  0  0  0  0  0  0  0  0  0
   -0.1605    1.4026   -2.3443 C   0  0  0  0  0  0  0  0  0  0  0  0
   -1.4569    1.1841   -1.8768 C   0  0  0  0  0  0  0  0  0  0  0  0
   -1.8161   -0.0596   -1.3517 C   0  0  0  0  0  0  0  0  0  0  0  0
   -1.1525   -2.0576   -0.8815 H   0  0  0  0  0  0  0  0  0  0  0  0
    1.1721   -1.6701   -1.7170 H   0  0  0  0  0  0  0  0  0  0  0  0
    0.1438    2.3595   -2.7525 H   0  0  0  0  0  0  0  0  0  0  0  0
   -2.1855    1.9881   -1.9226 H   0  0  0  0  0  0  0  0  0  0  0  0
   14.9576    6.3893   -8.4721 N   0  0  0  0  0  0  0  0  0  0  0  0
   14.0146    5.8539   -8.2584 N   0  0  0  0  0  0  0  0  0  0  0  0
    4.8136    2.3629   -3.6048 C   0  0  0  0  0  0  0  0  0  0  0  0
    5.8677    2.4058   -4.5146 C   0  0  0  0  0  0  0  0  0  0  0  0
    6.6634    1.2770   -4.7575 C   0  0  0  0  0  0  0  0  0  0  0  0
    6.3853    0.0953   -4.0531 C   0  0  0  0  0  0  0  0  0  0  0  0
    5.3376    0.0314   -3.1388 C   0  0  0  0  0  0  0  0  0  0  0  0
    4.5567    1.1695   -2.9296 C   0  0  0  0  0  0  0  0  0  0  0  0
    4.2062    3.2389   -3.4062 H   0  0  0  0  0  0  0  0  0  0  0  0
    6.0798    3.3325   -5.0404 H   0  0  0  0  0  0  0  0  0  0  0  0
    7.0016   -0.7843   -4.2191 H   0  0  0  0  0  0  0  0  0  0  0  0
    5.1323   -0.8771   -2.5835 H   0  0  0  0  0  0  0  0  0  0  0  0
    3.2187    1.1042   -1.7579 S   0  0  0  0  0  0  0  0  0  0  0  0
    3.4715    0.0591   -0.7688 O   0  0  0  0  0  0  0  0  0  0  0  0
    2.0465    0.5511   -2.8170 O   0  0  0  0  0  0  0  0  0  0  0  0
    2.8581    2.4562   -1.3374 O   0  0  0  0  0  0  0  0  0  0  0  0
    7.7830    1.3240   -5.7684 C   0  0  0  0  0  0  0  0  0  0  0  0
    8.1451    2.3443   -5.9192 H   0  0  0  0  0  0  0  0  0  0  0  0
    8.6283    0.7026   -5.4588 H   0  0  0  0  0  0  0  0  0  0  0  0
    7.4441    0.9493   -6.7421 H   0  0  0  0  0  0  0  0  0  0  0  0
   -2.8259   -0.2240   -0.9883 H   0  0  0  0  0  0  0  0  0  0  0  0
  1  7  1  0  0  0  0
  2  8  1  0  0  0  0
  2  1  2  0  0  0  0
  3  2  1  0  0  0  0
  4  3  2  0  0  0  0
  4  5  1  0  0  0  0
  5  6  2  0  0  0  0
  6  1  1  0  0  0  0
  6 31  1  0  0  0  0
  9  4  1  0  0  0  0
 10  5  1  0  0  0  0
 11 12  3  0  0  0  0
 13 19  1  0  0  0  0
 13 18  2  0  0  0  0
 14 13  1  0  0  0  0
 15 14  2  0  0  0  0
 15 16  1  0  0  0  0
 16 17  2  0  0  0  0
 17 18  1  0  0  0  0
 17 22  1  0  0  0  0
 18 23  1  0  0  0  0
 20 14  1  0  0  0  0
 21 16  1  0  0  0  0
 23 26  2  0  0  0  0
 23 24  2  0  0  0  0
 25  3  1  0  0  0  0
 25 23  1  0  0  0  0
 27 29  1  0  0  0  0
 27 15  1  0  0  0  0
 28 27  1  0  0  0  0
 30 27  1  0  0  0  0
M  END
