Coordinates from ORCA-job Ph-N2-OTs-B3LYPG-6-31G_dp-MTMO-d009-169-n800
 OpenBabel09051907493D

 31 30  0  0  0  0  0  0  0  0999 V2000
   -0.0873    0.2026   -1.8022 C   0  0  0  0  0  0  0  0  0  0  0  0
    0.9455    1.1037   -2.1441 C   0  0  0  0  0  0  0  0  0  0  0  0
    0.4297    2.2384   -2.6574 C   0  0  0  0  0  0  0  0  0  0  0  0
   -0.8274    2.6982   -2.9211 C   0  0  0  0  0  0  0  0  0  0  0  0
   -1.8042    1.7502   -2.5668 C   0  0  0  0  0  0  0  0  0  0  0  0
   -1.4309    0.5208   -2.0147 C   0  0  0  0  0  0  0  0  0  0  0  0
    0.1968   -0.7515   -1.3694 H   0  0  0  0  0  0  0  0  0  0  0  0
    2.0217    0.8934   -1.9890 H   0  0  0  0  0  0  0  0  0  0  0  0
   -1.0594    3.6640   -3.3485 H   0  0  0  0  0  0  0  0  0  0  0  0
   -2.8487    1.9951   -2.7328 H   0  0  0  0  0  0  0  0  0  0  0  0
    1.7684    3.5938   -3.1239 N   0  0  0  0  0  0  0  0  0  0  0  0
    2.0065    4.6699   -3.2583 N   0  0  0  0  0  0  0  0  0  0  0  0
    6.8445    2.0545   -3.7546 C   0  0  0  0  0  0  0  0  0  0  0  0
    7.9668    1.5453   -4.4073 C   0  0  0  0  0  0  0  0  0  0  0  0
    8.0627    0.1850   -4.7311 C   0  0  0  0  0  0  0  0  0  0  0  0
    7.0035   -0.6610   -4.3711 C   0  0  0  0  0  0  0  0  0  0  0  0
    5.8760   -0.1665   -3.7183 C   0  0  0  0  0  0  0  0  0  0  0  0
    5.8007    1.1938   -3.4153 C   0  0  0  0  0  0  0  0  0  0  0  0
    6.7778    3.1030   -3.4859 H   0  0  0  0  0  0  0  0  0  0  0  0
    8.7850    2.2140   -4.6635 H   0  0  0  0  0  0  0  0  0  0  0  0
    7.0664   -1.7222   -4.6000 H   0  0  0  0  0  0  0  0  0  0  0  0
    5.0677   -0.8262   -3.4219 H   0  0  0  0  0  0  0  0  0  0  0  0
    4.3375    1.8584   -2.6117 S   0  0  0  0  0  0  0  0  0  0  0  0
    3.8284    0.7670   -1.7198 O   0  0  0  0  0  0  0  0  0  0  0  0
    3.3609    2.0981   -3.7513 O   0  0  0  0  0  0  0  0  0  0  0  0
    4.7302    3.1052   -1.9271 O   0  0  0  0  0  0  0  0  0  0  0  0
    9.2682   -0.3537   -5.4650 C   0  0  0  0  0  0  0  0  0  0  0  0
    9.1115   -0.3346   -6.5515 H   0  0  0  0  0  0  0  0  0  0  0  0
   10.1628    0.2405   -5.2556 H   0  0  0  0  0  0  0  0  0  0  0  0
    9.4771   -1.3910   -5.1859 H   0  0  0  0  0  0  0  0  0  0  0  0
   -2.1987   -0.1974   -1.7466 H   0  0  0  0  0  0  0  0  0  0  0  0
  1  7  1  0  0  0  0
  2  8  1  0  0  0  0
  2  1  2  0  0  0  0
  3  2  1  0  0  0  0
  4  3  2  0  0  0  0
  4  5  1  0  0  0  0
  5  6  2  0  0  0  0
  6  1  1  0  0  0  0
  6 31  1  0  0  0  0
  9  4  1  0  0  0  0
 10  5  1  0  0  0  0
 12 11  3  0  0  0  0
 13 19  1  0  0  0  0
 13 18  2  0  0  0  0
 14 13  1  0  0  0  0
 15 14  2  0  0  0  0
 15 16  1  0  0  0  0
 16 17  2  0  0  0  0
 17 22  1  0  0  0  0
 17 18  1  0  0  0  0
 18 23  1  0  0  0  0
 20 14  1  0  0  0  0
 21 16  1  0  0  0  0
 23 26  2  0  0  0  0
 23 24  1  0  0  0  0
 25 23  2  0  0  0  0
 27 29  1  0  0  0  0
 27 30  1  0  0  0  0
 27 15  1  0  0  0  0
 28 27  1  0  0  0  0
M  RAD  2   3   2  24   2
M  END
