Coordinates from ORCA-job Ph-N2-OTs-B3LYPG-6-31G_dp-MTMO-d009-169-n800
 OpenBabel09051907493D

 31 30  0  0  0  0  0  0  0  0999 V2000
    0.1348    0.2085   -1.5545 C   0  0  0  0  0  0  0  0  0  0  0  0
    0.7356    1.2615   -2.2848 C   0  0  0  0  0  0  0  0  0  0  0  0
   -0.0191    2.2607   -2.4724 C   0  0  0  0  0  0  0  0  0  0  0  0
   -1.2930    2.6494   -2.1786 C   0  0  0  0  0  0  0  0  0  0  0  0
   -1.8925    1.5962   -1.4499 C   0  0  0  0  0  0  0  0  0  0  0  0
   -1.1946    0.4131   -1.1496 C   0  0  0  0  0  0  0  0  0  0  0  0
    0.6589   -0.7121   -1.3149 H   0  0  0  0  0  0  0  0  0  0  0  0
    2.4926    0.9712   -2.8543 H   0  0  0  0  0  0  0  0  0  0  0  0
   -1.7874    3.5772   -2.4333 H   0  0  0  0  0  0  0  0  0  0  0  0
   -2.9197    1.7193   -1.1181 H   0  0  0  0  0  0  0  0  0  0  0  0
    0.8600    4.2057   -3.6588 N   0  0  0  0  0  0  0  0  0  0  0  0
    1.7232    4.7769   -4.0465 N   0  0  0  0  0  0  0  0  0  0  0  0
    6.7397    1.3809   -3.1278 C   0  0  0  0  0  0  0  0  0  0  0  0
    7.9884    0.8085   -3.3619 C   0  0  0  0  0  0  0  0  0  0  0  0
    8.2598    0.1224   -4.5544 C   0  0  0  0  0  0  0  0  0  0  0  0
    7.2430    0.0212   -5.5159 C   0  0  0  0  0  0  0  0  0  0  0  0
    5.9888    0.5869   -5.3004 C   0  0  0  0  0  0  0  0  0  0  0  0
    5.7487    1.2595   -4.1015 C   0  0  0  0  0  0  0  0  0  0  0  0
    6.5322    1.9219   -2.2113 H   0  0  0  0  0  0  0  0  0  0  0  0
    8.7659    0.8992   -2.6078 H   0  0  0  0  0  0  0  0  0  0  0  0
    7.4377   -0.5047   -6.4468 H   0  0  0  0  0  0  0  0  0  0  0  0
    5.2056    0.5200   -6.0478 H   0  0  0  0  0  0  0  0  0  0  0  0
    4.1479    1.9882   -3.8144 S   0  0  0  0  0  0  0  0  0  0  0  0
    3.4302    0.7163   -3.1060 O   0  0  0  0  0  0  0  0  0  0  0  0
    3.4957    2.2521   -5.0991 O   0  0  0  0  0  0  0  0  0  0  0  0
    4.2740    3.0724   -2.8376 O   0  0  0  0  0  0  0  0  0  0  0  0
    9.6254   -0.4669   -4.8142 C   0  0  0  0  0  0  0  0  0  0  0  0
   10.2501    0.2307   -5.3864 H   0  0  0  0  0  0  0  0  0  0  0  0
   10.1512   -0.6867   -3.8810 H   0  0  0  0  0  0  0  0  0  0  0  0
    9.5584   -1.3925   -5.3940 H   0  0  0  0  0  0  0  0  0  0  0  0
   -1.7020   -0.3666   -0.5877 H   0  0  0  0  0  0  0  0  0  0  0  0
  1  7  1  0  0  0  0
  1  6  2  0  0  0  0
  2  1  1  0  0  0  0
  3  2  2  0  0  0  0
  3  4  1  0  0  0  0
  4  5  2  0  0  0  0
  5  6  1  0  0  0  0
  5 10  1  0  0  0  0
  6 31  1  0  0  0  0
  9  4  1  0  0  0  0
 12 11  3  0  0  0  0
 13 19  1  0  0  0  0
 14 13  1  0  0  0  0
 14 20  1  0  0  0  0
 15 14  2  0  0  0  0
 16 17  2  0  0  0  0
 16 15  1  0  0  0  0
 17 18  1  0  0  0  0
 18 23  1  0  0  0  0
 18 13  2  0  0  0  0
 21 16  1  0  0  0  0
 22 17  1  0  0  0  0
 23 24  1  0  0  0  0
 23 26  2  0  0  0  0
 24  8  1  0  0  0  0
 25 23  2  0  0  0  0
 27 15  1  0  0  0  0
 27 29  1  0  0  0  0
 28 27  1  0  0  0  0
 30 27  1  0  0  0  0
M  RAD  2   2   2   3   2
M  END
