Coordinates from ORCA-job Ph-N2-OTs-B3LYPG-6-31G_dp-MTMO-d009-169-n800
 OpenBabel09051907503D

 31 31  0  0  0  0  0  0  0  0999 V2000
   -0.7336   -1.0571   -1.4121 C   0  0  0  0  0  0  0  0  0  0  0  0
    0.5682   -0.8403   -1.8654 C   0  0  0  0  0  0  0  0  0  0  0  0
    0.9050    0.4160   -2.3657 C   0  0  0  0  0  0  0  0  0  0  0  0
   -0.0202    1.4570   -2.4161 C   0  0  0  0  0  0  0  0  0  0  0  0
   -1.3185    1.2263   -1.9599 C   0  0  0  0  0  0  0  0  0  0  0  0
   -1.6766   -0.0276   -1.4589 C   0  0  0  0  0  0  0  0  0  0  0  0
   -1.0093   -2.0315   -1.0202 H   0  0  0  0  0  0  0  0  0  0  0  0
    1.3188   -1.6220   -1.8355 H   0  0  0  0  0  0  0  0  0  0  0  0
    0.2834    2.4219   -2.8057 H   0  0  0  0  0  0  0  0  0  0  0  0
   -2.0494    2.0287   -1.9955 H   0  0  0  0  0  0  0  0  0  0  0  0
   12.8262    5.2074   -7.6076 N   0  0  0  0  0  0  0  0  0  0  0  0
   11.8528    4.7405   -7.3705 N   0  0  0  0  0  0  0  0  0  0  0  0
    4.9647    2.4601   -3.6234 C   0  0  0  0  0  0  0  0  0  0  0  0
    6.0264    2.5222   -4.5231 C   0  0  0  0  0  0  0  0  0  0  0  0
    6.8230    1.3980   -4.7848 C   0  0  0  0  0  0  0  0  0  0  0  0
    6.5377    0.2012   -4.1095 C   0  0  0  0  0  0  0  0  0  0  0  0
    5.4825    0.1183   -3.2052 C   0  0  0  0  0  0  0  0  0  0  0  0
    4.7011    1.2524   -2.9770 C   0  0  0  0  0  0  0  0  0  0  0  0
    4.3565    3.3321   -3.4102 H   0  0  0  0  0  0  0  0  0  0  0  0
    6.2440    3.4601   -5.0262 H   0  0  0  0  0  0  0  0  0  0  0  0
    7.1543   -0.6752   -4.2901 H   0  0  0  0  0  0  0  0  0  0  0  0
    5.2722   -0.8022   -2.6718 H   0  0  0  0  0  0  0  0  0  0  0  0
    3.3553    1.1633   -1.8159 S   0  0  0  0  0  0  0  0  0  0  0  0
    3.6059    0.1044   -0.8409 O   0  0  0  0  0  0  0  0  0  0  0  0
    2.1924    0.6208   -2.8907 O   0  0  0  0  0  0  0  0  0  0  0  0
    2.9859    2.5072   -1.3774 O   0  0  0  0  0  0  0  0  0  0  0  0
    7.9509    1.4669   -5.7851 C   0  0  0  0  0  0  0  0  0  0  0  0
    8.3334    2.4856   -5.8901 H   0  0  0  0  0  0  0  0  0  0  0  0
    8.7820    0.8169   -5.4968 H   0  0  0  0  0  0  0  0  0  0  0  0
    7.6122    1.1408   -6.7763 H   0  0  0  0  0  0  0  0  0  0  0  0
   -2.6879   -0.2015   -1.1040 H   0  0  0  0  0  0  0  0  0  0  0  0
  1  7  1  0  0  0  0
  2  8  1  0  0  0  0
  2  1  2  0  0  0  0
  3  2  1  0  0  0  0
  4  3  2  0  0  0  0
  4  5  1  0  0  0  0
  5  6  2  0  0  0  0
  6  1  1  0  0  0  0
  6 31  1  0  0  0  0
  9  4  1  0  0  0  0
 10  5  1  0  0  0  0
 11 12  3  0  0  0  0
 13 19  1  0  0  0  0
 13 18  2  0  0  0  0
 14 13  1  0  0  0  0
 15 14  2  0  0  0  0
 15 16  1  0  0  0  0
 16 17  2  0  0  0  0
 17 18  1  0  0  0  0
 17 22  1  0  0  0  0
 18 23  1  0  0  0  0
 20 14  1  0  0  0  0
 21 16  1  0  0  0  0
 23 26  2  0  0  0  0
 23 24  2  0  0  0  0
 25  3  1  0  0  0  0
 25 23  1  0  0  0  0
 27 29  1  0  0  0  0
 27 15  1  0  0  0  0
 28 27  1  0  0  0  0
 30 27  1  0  0  0  0
M  END
