Coordinates from ORCA-job Ph-N2-OTs-B3LYPG-6-31G_dp-MTMO-d009-169-n800
 OpenBabel09051907503D

 31 31  0  0  0  0  0  0  0  0999 V2000
   -0.8289   -1.0847   -1.3624 C   0  0  0  0  0  0  0  0  0  0  0  0
    0.4738   -0.8745   -1.8163 C   0  0  0  0  0  0  0  0  0  0  0  0
    0.8155    0.3790   -2.3206 C   0  0  0  0  0  0  0  0  0  0  0  0
   -0.1057    1.4234   -2.3743 C   0  0  0  0  0  0  0  0  0  0  0  0
   -1.4049    1.1991   -1.9175 C   0  0  0  0  0  0  0  0  0  0  0  0
   -1.7679   -0.0518   -1.4126 C   0  0  0  0  0  0  0  0  0  0  0  0
   -1.1083   -2.0568   -0.9675 H   0  0  0  0  0  0  0  0  0  0  0  0
    1.2214   -1.6589   -1.7839 H   0  0  0  0  0  0  0  0  0  0  0  0
    0.2017    2.3859   -2.7669 H   0  0  0  0  0  0  0  0  0  0  0  0
   -2.1327    2.0043   -1.9556 H   0  0  0  0  0  0  0  0  0  0  0  0
   14.1181    5.8889   -8.2148 N   0  0  0  0  0  0  0  0  0  0  0  0
   13.1513    5.4043   -7.9868 N   0  0  0  0  0  0  0  0  0  0  0  0
    4.8775    2.4051   -3.5877 C   0  0  0  0  0  0  0  0  0  0  0  0
    5.9380    2.4620   -4.4893 C   0  0  0  0  0  0  0  0  0  0  0  0
    6.7333    1.3360   -4.7465 C   0  0  0  0  0  0  0  0  0  0  0  0
    6.4481    0.1426   -4.0651 C   0  0  0  0  0  0  0  0  0  0  0  0
    5.3940    0.0648   -3.1591 C   0  0  0  0  0  0  0  0  0  0  0  0
    4.6139    1.2006   -2.9353 C   0  0  0  0  0  0  0  0  0  0  0  0
    4.2703    3.2786   -3.3779 H   0  0  0  0  0  0  0  0  0  0  0  0
    6.1555    3.3973   -4.9971 H   0  0  0  0  0  0  0  0  0  0  0  0
    7.0638   -0.7351   -4.2424 H   0  0  0  0  0  0  0  0  0  0  0  0
    5.1835   -0.8529   -2.6211 H   0  0  0  0  0  0  0  0  0  0  0  0
    3.2687    1.1180   -1.7729 S   0  0  0  0  0  0  0  0  0  0  0  0
    3.5169    0.0602   -0.7961 O   0  0  0  0  0  0  0  0  0  0  0  0
    2.1037    0.5772   -2.8461 O   0  0  0  0  0  0  0  0  0  0  0  0
    2.9038    2.4638   -1.3368 O   0  0  0  0  0  0  0  0  0  0  0  0
    7.8602    1.3992   -5.7484 C   0  0  0  0  0  0  0  0  0  0  0  0
    8.2351    2.4192   -5.8668 H   0  0  0  0  0  0  0  0  0  0  0  0
    8.6961    0.7591   -5.4518 H   0  0  0  0  0  0  0  0  0  0  0  0
    7.5235    1.0574   -6.7350 H   0  0  0  0  0  0  0  0  0  0  0  0
   -2.7798   -0.2207   -1.0572 H   0  0  0  0  0  0  0  0  0  0  0  0
  1  7  1  0  0  0  0
  2  8  1  0  0  0  0
  2  1  2  0  0  0  0
  3  2  1  0  0  0  0
  4  3  2  0  0  0  0
  4  5  1  0  0  0  0
  5  6  2  0  0  0  0
  6  1  1  0  0  0  0
  6 31  1  0  0  0  0
  9  4  1  0  0  0  0
 10  5  1  0  0  0  0
 11 12  3  0  0  0  0
 13 19  1  0  0  0  0
 13 18  2  0  0  0  0
 14 13  1  0  0  0  0
 15 14  2  0  0  0  0
 15 16  1  0  0  0  0
 16 17  2  0  0  0  0
 17 18  1  0  0  0  0
 17 22  1  0  0  0  0
 18 23  1  0  0  0  0
 20 14  1  0  0  0  0
 21 16  1  0  0  0  0
 23 26  2  0  0  0  0
 23 24  2  0  0  0  0
 25  3  1  0  0  0  0
 25 23  1  0  0  0  0
 27 29  1  0  0  0  0
 27 15  1  0  0  0  0
 28 27  1  0  0  0  0
 30 27  1  0  0  0  0
M  END
