Coordinates from ORCA-job Ph-N2-OTs-B3LYPG-6-31G_dp-MTMO-d009-169-n800
 OpenBabel09051907503D

 31 31  0  0  0  0  0  0  0  0999 V2000
   -0.8769   -1.1048   -1.3354 C   0  0  0  0  0  0  0  0  0  0  0  0
    0.4256   -0.8953   -1.7901 C   0  0  0  0  0  0  0  0  0  0  0  0
    0.7673    0.3574   -2.2963 C   0  0  0  0  0  0  0  0  0  0  0  0
   -0.1537    1.4019   -2.3511 C   0  0  0  0  0  0  0  0  0  0  0  0
   -1.4527    1.1784   -1.8935 C   0  0  0  0  0  0  0  0  0  0  0  0
   -1.8157   -0.0717   -1.3867 C   0  0  0  0  0  0  0  0  0  0  0  0
   -1.1563   -2.0762   -0.9390 H   0  0  0  0  0  0  0  0  0  0  0  0
    1.1731   -1.6799   -1.7568 H   0  0  0  0  0  0  0  0  0  0  0  0
    0.1537    2.3638   -2.7452 H   0  0  0  0  0  0  0  0  0  0  0  0
   -2.1804    1.9836   -1.9326 H   0  0  0  0  0  0  0  0  0  0  0  0
   14.8190    6.2272   -8.5421 N   0  0  0  0  0  0  0  0  0  0  0  0
   13.8564    5.7334   -8.3157 N   0  0  0  0  0  0  0  0  0  0  0  0
    4.8289    2.3810   -3.5676 C   0  0  0  0  0  0  0  0  0  0  0  0
    5.8889    2.4367   -4.4698 C   0  0  0  0  0  0  0  0  0  0  0  0
    6.6840    1.3104   -4.7262 C   0  0  0  0  0  0  0  0  0  0  0  0
    6.3990    0.1178   -4.0432 C   0  0  0  0  0  0  0  0  0  0  0  0
    5.3455    0.0412   -3.1366 C   0  0  0  0  0  0  0  0  0  0  0  0
    4.5656    1.1773   -2.9136 C   0  0  0  0  0  0  0  0  0  0  0  0
    4.2220    3.2548   -3.3585 H   0  0  0  0  0  0  0  0  0  0  0  0
    6.1062    3.3715   -4.9789 H   0  0  0  0  0  0  0  0  0  0  0  0
    7.0146   -0.7602   -4.2198 H   0  0  0  0  0  0  0  0  0  0  0  0
    5.1352   -0.8759   -2.5974 H   0  0  0  0  0  0  0  0  0  0  0  0
    3.2211    1.0962   -1.7505 S   0  0  0  0  0  0  0  0  0  0  0  0
    3.4695    0.0393   -0.7728 O   0  0  0  0  0  0  0  0  0  0  0  0
    2.0554    0.5546   -2.8226 O   0  0  0  0  0  0  0  0  0  0  0  0
    2.8566    2.4425   -1.3154 O   0  0  0  0  0  0  0  0  0  0  0  0
    7.8104    1.3723   -5.7287 C   0  0  0  0  0  0  0  0  0  0  0  0
    8.1826    2.3927   -5.8515 H   0  0  0  0  0  0  0  0  0  0  0  0
    8.6480    0.7355   -5.4297 H   0  0  0  0  0  0  0  0  0  0  0  0
    7.4744    1.0254   -6.7138 H   0  0  0  0  0  0  0  0  0  0  0  0
   -2.8276   -0.2400   -1.0307 H   0  0  0  0  0  0  0  0  0  0  0  0
  1  7  1  0  0  0  0
  2  8  1  0  0  0  0
  2  1  2  0  0  0  0
  3  2  1  0  0  0  0
  4  3  2  0  0  0  0
  4  5  1  0  0  0  0
  5  6  2  0  0  0  0
  6  1  1  0  0  0  0
  6 31  1  0  0  0  0
  9  4  1  0  0  0  0
 10  5  1  0  0  0  0
 11 12  3  0  0  0  0
 13 19  1  0  0  0  0
 13 18  2  0  0  0  0
 14 13  1  0  0  0  0
 15 14  2  0  0  0  0
 15 16  1  0  0  0  0
 16 17  2  0  0  0  0
 17 18  1  0  0  0  0
 17 22  1  0  0  0  0
 18 23  1  0  0  0  0
 20 14  1  0  0  0  0
 21 16  1  0  0  0  0
 23 26  2  0  0  0  0
 23 24  2  0  0  0  0
 25  3  1  0  0  0  0
 25 23  1  0  0  0  0
 27 29  1  0  0  0  0
 27 15  1  0  0  0  0
 28 27  1  0  0  0  0
 30 27  1  0  0  0  0
M  END
