Coordinates from ORCA-job Ph-N2-OTs-B3LYPG-6-31G_dp-MTMO-d009-169-n800
 OpenBabel09051907503D

 31 31  0  0  0  0  0  0  0  0999 V2000
   -0.6942   -0.4796   -1.6359 C   0  0  0  0  0  0  0  0  0  0  0  0
    0.6476   -0.4808   -2.0192 C   0  0  0  0  0  0  0  0  0  0  0  0
    1.1893    0.6797   -2.5699 C   0  0  0  0  0  0  0  0  0  0  0  0
    0.4280    1.8345   -2.7399 C   0  0  0  0  0  0  0  0  0  0  0  0
   -0.9135    1.8200   -2.3566 C   0  0  0  0  0  0  0  0  0  0  0  0
   -1.4754    0.6661   -1.8048 C   0  0  0  0  0  0  0  0  0  0  0  0
   -1.1283   -1.3770   -1.2052 H   0  0  0  0  0  0  0  0  0  0  0  0
    1.2746   -1.3562   -1.8952 H   0  0  0  0  0  0  0  0  0  0  0  0
    0.8892    2.7185   -3.1658 H   0  0  0  0  0  0  0  0  0  0  0  0
   -1.5181    2.7127   -2.4874 H   0  0  0  0  0  0  0  0  0  0  0  0
    7.1359    6.6221   -6.3813 N   0  0  0  0  0  0  0  0  0  0  0  0
    7.1915    5.5742   -6.0350 N   0  0  0  0  0  0  0  0  0  0  0  0
    5.5258    2.0902   -3.5949 C   0  0  0  0  0  0  0  0  0  0  0  0
    6.6154    2.0423   -4.4598 C   0  0  0  0  0  0  0  0  0  0  0  0
    7.2806    0.8338   -4.7202 C   0  0  0  0  0  0  0  0  0  0  0  0
    6.8258   -0.3332   -4.0901 C   0  0  0  0  0  0  0  0  0  0  0  0
    5.7368   -0.3064   -3.2214 C   0  0  0  0  0  0  0  0  0  0  0  0
    5.0948    0.9096   -2.9870 C   0  0  0  0  0  0  0  0  0  0  0  0
    5.0181    3.0247   -3.3831 H   0  0  0  0  0  0  0  0  0  0  0  0
    6.9550    2.9561   -4.9389 H   0  0  0  0  0  0  0  0  0  0  0  0
    7.3319   -1.2756   -4.2805 H   0  0  0  0  0  0  0  0  0  0  0  0
    5.3916   -1.2066   -2.7257 H   0  0  0  0  0  0  0  0  0  0  0  0
    3.7023    0.9600   -1.8806 S   0  0  0  0  0  0  0  0  0  0  0  0
    3.7474   -0.1840   -0.9721 O   0  0  0  0  0  0  0  0  0  0  0  0
    2.5177    0.6749   -3.0273 O   0  0  0  0  0  0  0  0  0  0  0  0
    3.5221    2.3144   -1.3632 O   0  0  0  0  0  0  0  0  0  0  0  0
    8.4775    0.8017   -5.6392 C   0  0  0  0  0  0  0  0  0  0  0  0
    8.3367    1.4613   -6.5007 H   0  0  0  0  0  0  0  0  0  0  0  0
    9.3801    1.1409   -5.1164 H   0  0  0  0  0  0  0  0  0  0  0  0
    8.6723   -0.2079   -6.0094 H   0  0  0  0  0  0  0  0  0  0  0  0
   -2.5190    0.6603   -1.5052 H   0  0  0  0  0  0  0  0  0  0  0  0
  1  7  1  0  0  0  0
  2  8  1  0  0  0  0
  2  1  2  0  0  0  0
  3  2  1  0  0  0  0
  4  3  2  0  0  0  0
  4  5  1  0  0  0  0
  5  6  2  0  0  0  0
  6  1  1  0  0  0  0
  6 31  1  0  0  0  0
  9  4  1  0  0  0  0
 10  5  1  0  0  0  0
 11 12  3  0  0  0  0
 13 19  1  0  0  0  0
 13 18  2  0  0  0  0
 14 13  1  0  0  0  0
 15 14  2  0  0  0  0
 15 16  1  0  0  0  0
 16 17  2  0  0  0  0
 17 18  1  0  0  0  0
 17 22  1  0  0  0  0
 18 23  1  0  0  0  0
 20 14  1  0  0  0  0
 21 16  1  0  0  0  0
 23 26  2  0  0  0  0
 23 24  2  0  0  0  0
 25  3  1  0  0  0  0
 25 23  1  0  0  0  0
 27 29  1  0  0  0  0
 27 15  1  0  0  0  0
 28 27  1  0  0  0  0
 30 27  1  0  0  0  0
M  END
