Coordinates from ORCA-job Ph-N2-OTs-B3LYPG-6-31G_dp-MTMO-d009-169-n800
 OpenBabel09051907493D

 31 31  0  0  0  0  0  0  0  0999 V2000
   -0.1667    0.2200   -1.7923 C   0  0  0  0  0  0  0  0  0  0  0  0
    0.9067    1.0634   -2.1413 C   0  0  0  0  0  0  0  0  0  0  0  0
    0.4691    2.2316   -2.6733 C   0  0  0  0  0  0  0  0  0  0  0  0
   -0.7764    2.7351   -2.9357 C   0  0  0  0  0  0  0  0  0  0  0  0
   -1.8007    1.8448   -2.5763 C   0  0  0  0  0  0  0  0  0  0  0  0
   -1.4923    0.6034   -2.0114 C   0  0  0  0  0  0  0  0  0  0  0  0
    0.0646   -0.7429   -1.3485 H   0  0  0  0  0  0  0  0  0  0  0  0
    1.9625    0.8032   -1.9809 H   0  0  0  0  0  0  0  0  0  0  0  0
   -0.9613    3.7074   -3.3718 H   0  0  0  0  0  0  0  0  0  0  0  0
   -2.8316    2.1393   -2.7462 H   0  0  0  0  0  0  0  0  0  0  0  0
    1.8186    3.4588   -3.1335 N   0  0  0  0  0  0  0  0  0  0  0  0
    2.0612    4.5350   -3.2807 N   0  0  0  0  0  0  0  0  0  0  0  0
    6.7910    2.0519   -3.7916 C   0  0  0  0  0  0  0  0  0  0  0  0
    7.9200    1.5807   -4.4601 C   0  0  0  0  0  0  0  0  0  0  0  0
    8.0787    0.2169   -4.7440 C   0  0  0  0  0  0  0  0  0  0  0  0
    7.0765   -0.6708   -4.3268 C   0  0  0  0  0  0  0  0  0  0  0  0
    5.9422   -0.2147   -3.6574 C   0  0  0  0  0  0  0  0  0  0  0  0
    5.8039    1.1489   -3.3956 C   0  0  0  0  0  0  0  0  0  0  0  0
    6.6778    3.1040   -3.5537 H   0  0  0  0  0  0  0  0  0  0  0  0
    8.6946    2.2821   -4.7605 H   0  0  0  0  0  0  0  0  0  0  0  0
    7.1893   -1.7343   -4.5239 H   0  0  0  0  0  0  0  0  0  0  0  0
    5.1775   -0.9044   -3.3172 H   0  0  0  0  0  0  0  0  0  0  0  0
    4.3325    1.7600   -2.5672 S   0  0  0  0  0  0  0  0  0  0  0  0
    3.8580    0.6545   -1.6841 O   0  0  0  0  0  0  0  0  0  0  0  0
    3.3421    1.9803   -3.7110 O   0  0  0  0  0  0  0  0  0  0  0  0
    4.6863    3.0223   -1.8900 O   0  0  0  0  0  0  0  0  0  0  0  0
    9.2902   -0.2807   -5.4964 C   0  0  0  0  0  0  0  0  0  0  0  0
    9.1099   -0.2825   -6.5793 H   0  0  0  0  0  0  0  0  0  0  0  0
   10.1632    0.3535   -5.3140 H   0  0  0  0  0  0  0  0  0  0  0  0
    9.5485   -1.3043   -5.2090 H   0  0  0  0  0  0  0  0  0  0  0  0
   -2.2963   -0.0720   -1.7381 H   0  0  0  0  0  0  0  0  0  0  0  0
  1  7  1  0  0  0  0
  2  8  1  0  0  0  0
  2  1  2  0  0  0  0
  3  2  1  0  0  0  0
  4  3  2  0  0  0  0
  4  5  1  0  0  0  0
  5  6  2  0  0  0  0
  6  1  1  0  0  0  0
  6 31  1  0  0  0  0
  9  4  1  0  0  0  0
 10  5  1  0  0  0  0
 11  3  1  0  0  0  0
 12 11  2  0  0  0  0
 13 19  1  0  0  0  0
 13 18  2  0  0  0  0
 14 13  1  0  0  0  0
 15 14  2  0  0  0  0
 15 16  1  0  0  0  0
 16 17  2  0  0  0  0
 17 18  1  0  0  0  0
 17 22  1  0  0  0  0
 18 23  1  0  0  0  0
 20 14  1  0  0  0  0
 21 16  1  0  0  0  0
 23 26  2  0  0  0  0
 23 24  1  0  0  0  0
 25 23  2  0  0  0  0
 27 29  1  0  0  0  0
 27 30  1  0  0  0  0
 27 15  1  0  0  0  0
 28 27  1  0  0  0  0
M  RAD  2  12   2  24   2
M  END
