Coordinates from ORCA-job Ph-N2-OTs-B3LYPG-6-31G_dp-MTMO-d009-169-n800
 OpenBabel09051907503D

 31 31  0  0  0  0  0  0  0  0999 V2000
   -0.6371   -0.9696   -1.3900 C   0  0  0  0  0  0  0  0  0  0  0  0
    0.6609   -0.7707   -1.8620 C   0  0  0  0  0  0  0  0  0  0  0  0
    0.9993    0.4720   -2.3944 C   0  0  0  0  0  0  0  0  0  0  0  0
    0.0795    1.5170   -2.4584 C   0  0  0  0  0  0  0  0  0  0  0  0
   -1.2151    1.3042   -1.9832 C   0  0  0  0  0  0  0  0  0  0  0  0
   -1.5748    0.0640   -1.4501 C   0  0  0  0  0  0  0  0  0  0  0  0
   -0.9139   -1.9333   -0.9734 H   0  0  0  0  0  0  0  0  0  0  0  0
    1.4075   -1.5558   -1.8223 H   0  0  0  0  0  0  0  0  0  0  0  0
    0.3842    2.4711   -2.8730 H   0  0  0  0  0  0  0  0  0  0  0  0
   -1.9419    2.1099   -2.0293 H   0  0  0  0  0  0  0  0  0  0  0  0
   11.4704    5.1196   -6.6877 N   0  0  0  0  0  0  0  0  0  0  0  0
   10.5394    4.5665   -6.4666 N   0  0  0  0  0  0  0  0  0  0  0  0
    5.0660    2.4420   -3.7519 C   0  0  0  0  0  0  0  0  0  0  0  0
    6.1204    2.4646   -4.6618 C   0  0  0  0  0  0  0  0  0  0  0  0
    6.9046    1.3250   -4.8929 C   0  0  0  0  0  0  0  0  0  0  0  0
    6.6147    0.1543   -4.1753 C   0  0  0  0  0  0  0  0  0  0  0  0
    5.5666    0.1108   -3.2600 C   0  0  0  0  0  0  0  0  0  0  0  0
    4.7970    1.2586   -3.0634 C   0  0  0  0  0  0  0  0  0  0  0  0
    4.4674    3.3261   -3.5628 H   0  0  0  0  0  0  0  0  0  0  0  0
    6.3421    3.3834   -5.1975 H   0  0  0  0  0  0  0  0  0  0  0  0
    7.2220   -0.7333   -4.3318 H   0  0  0  0  0  0  0  0  0  0  0  0
    5.3529   -0.7895   -2.6945 H   0  0  0  0  0  0  0  0  0  0  0  0
    3.4597    1.2195   -1.8897 S   0  0  0  0  0  0  0  0  0  0  0  0
    3.7067    0.1883   -0.8846 O   0  0  0  0  0  0  0  0  0  0  0  0
    2.2820    0.6570   -2.9381 O   0  0  0  0  0  0  0  0  0  0  0  0
    3.1080    2.5801   -1.4896 O   0  0  0  0  0  0  0  0  0  0  0  0
    8.0223    1.3497   -5.9066 C   0  0  0  0  0  0  0  0  0  0  0  0
    8.4412    2.3530   -6.0222 H   0  0  0  0  0  0  0  0  0  0  0  0
    8.8321    0.6702   -5.6258 H   0  0  0  0  0  0  0  0  0  0  0  0
    7.6589    1.0319   -6.8919 H   0  0  0  0  0  0  0  0  0  0  0  0
   -2.5832   -0.0960   -1.0809 H   0  0  0  0  0  0  0  0  0  0  0  0
  1  7  1  0  0  0  0
  2  8  1  0  0  0  0
  2  1  2  0  0  0  0
  3  2  1  0  0  0  0
  4  3  2  0  0  0  0
  4  5  1  0  0  0  0
  5  6  2  0  0  0  0
  6  1  1  0  0  0  0
  6 31  1  0  0  0  0
  9  4  1  0  0  0  0
 10  5  1  0  0  0  0
 11 12  3  0  0  0  0
 13 19  1  0  0  0  0
 13 18  2  0  0  0  0
 14 13  1  0  0  0  0
 15 14  2  0  0  0  0
 15 16  1  0  0  0  0
 16 17  2  0  0  0  0
 17 18  1  0  0  0  0
 17 22  1  0  0  0  0
 18 23  1  0  0  0  0
 20 14  1  0  0  0  0
 21 16  1  0  0  0  0
 23 26  2  0  0  0  0
 23 24  2  0  0  0  0
 25  3  1  0  0  0  0
 25 23  1  0  0  0  0
 27 29  1  0  0  0  0
 27 15  1  0  0  0  0
 28 27  1  0  0  0  0
 30 27  1  0  0  0  0
M  END
