Coordinates from ORCA-job Ph-N2-OTs-B3LYPG-6-31G_dp-MTMO-d009-169-n800
 OpenBabel09051907503D

 31 31  0  0  0  0  0  0  0  0999 V2000
   -0.7275   -0.7897   -1.6218 C   0  0  0  0  0  0  0  0  0  0  0  0
    0.6002   -0.6665   -2.0332 C   0  0  0  0  0  0  0  0  0  0  0  0
    1.0540    0.5754   -2.4745 C   0  0  0  0  0  0  0  0  0  0  0  0
    0.2196    1.6910   -2.5077 C   0  0  0  0  0  0  0  0  0  0  0  0
   -1.1065    1.5528   -2.0962 C   0  0  0  0  0  0  0  0  0  0  0  0
   -1.5810    0.3158   -1.6534 C   0  0  0  0  0  0  0  0  0  0  0  0
   -1.0937   -1.7514   -1.2751 H   0  0  0  0  0  0  0  0  0  0  0  0
    1.2827   -1.5083   -2.0138 H   0  0  0  0  0  0  0  0  0  0  0  0
    0.6137    2.6406   -2.8514 H   0  0  0  0  0  0  0  0  0  0  0  0
   -1.7674    2.4142   -2.1199 H   0  0  0  0  0  0  0  0  0  0  0  0
    9.6873    5.7071   -7.4604 N   0  0  0  0  0  0  0  0  0  0  0  0
    9.0564    4.9720   -6.9286 N   0  0  0  0  0  0  0  0  0  0  0  0
    5.3280    2.2994   -3.4699 C   0  0  0  0  0  0  0  0  0  0  0  0
    6.4128    2.3367   -4.3448 C   0  0  0  0  0  0  0  0  0  0  0  0
    7.1002    1.1676   -4.6977 C   0  0  0  0  0  0  0  0  0  0  0  0
    6.6775   -0.0531   -4.1466 C   0  0  0  0  0  0  0  0  0  0  0  0
    5.5988   -0.1120   -3.2705 C   0  0  0  0  0  0  0  0  0  0  0  0
    4.9301    1.0706   -2.9452 C   0  0  0  0  0  0  0  0  0  0  0  0
    4.8030    3.2048   -3.1867 H   0  0  0  0  0  0  0  0  0  0  0  0
    6.7336    3.2886   -4.7578 H   0  0  0  0  0  0  0  0  0  0  0  0
    7.2044   -0.9676   -4.4050 H   0  0  0  0  0  0  0  0  0  0  0  0
    5.2816   -1.0521   -2.8333 H   0  0  0  0  0  0  0  0  0  0  0  0
    3.5532    1.0088   -1.8195 S   0  0  0  0  0  0  0  0  0  0  0  0
    3.6720   -0.1606   -0.9514 O   0  0  0  0  0  0  0  0  0  0  0  0
    2.3677    0.6969   -2.9585 O   0  0  0  0  0  0  0  0  0  0  0  0
    3.3102    2.3340   -1.2542 O   0  0  0  0  0  0  0  0  0  0  0  0
    8.2774    1.2122   -5.6413 C   0  0  0  0  0  0  0  0  0  0  0  0
    8.4504    2.2223   -6.0187 H   0  0  0  0  0  0  0  0  0  0  0  0
    9.1939    0.8766   -5.1426 H   0  0  0  0  0  0  0  0  0  0  0  0
    8.1200    0.5506   -6.5003 H   0  0  0  0  0  0  0  0  0  0  0  0
   -2.6131    0.2139   -1.3319 H   0  0  0  0  0  0  0  0  0  0  0  0
  1  7  1  0  0  0  0
  2  8  1  0  0  0  0
  2  1  2  0  0  0  0
  3  2  1  0  0  0  0
  4  3  2  0  0  0  0
  4  5  1  0  0  0  0
  5  6  2  0  0  0  0
  6  1  1  0  0  0  0
  6 31  1  0  0  0  0
  9  4  1  0  0  0  0
 10  5  1  0  0  0  0
 11 12  3  0  0  0  0
 13 19  1  0  0  0  0
 13 18  2  0  0  0  0
 14 13  1  0  0  0  0
 15 14  2  0  0  0  0
 15 16  1  0  0  0  0
 16 17  2  0  0  0  0
 17 18  1  0  0  0  0
 17 22  1  0  0  0  0
 18 23  1  0  0  0  0
 20 14  1  0  0  0  0
 21 16  1  0  0  0  0
 23 26  2  0  0  0  0
 23 24  2  0  0  0  0
 25  3  1  0  0  0  0
 25 23  1  0  0  0  0
 27 29  1  0  0  0  0
 27 15  1  0  0  0  0
 28 27  1  0  0  0  0
 30 27  1  0  0  0  0
M  END
