Coordinates from ORCA-job Ph-N2-OTs-B3LYPG-6-31G_dp-MTMO-d009-169-n800
 OpenBabel09051907503D

 31 31  0  0  0  0  0  0  0  0999 V2000
   -0.7498   -1.0629   -1.4027 C   0  0  0  0  0  0  0  0  0  0  0  0
    0.5520   -0.8469   -1.8563 C   0  0  0  0  0  0  0  0  0  0  0  0
    0.8892    0.4091   -2.3574 C   0  0  0  0  0  0  0  0  0  0  0  0
   -0.0356    1.4504   -2.4081 C   0  0  0  0  0  0  0  0  0  0  0  0
   -1.3339    1.2204   -1.9516 C   0  0  0  0  0  0  0  0  0  0  0  0
   -1.6924   -0.0331   -1.4500 C   0  0  0  0  0  0  0  0  0  0  0  0
   -1.0258   -2.0370   -1.0103 H   0  0  0  0  0  0  0  0  0  0  0  0
    1.3024   -1.6289   -1.8262 H   0  0  0  0  0  0  0  0  0  0  0  0
    0.2683    2.4150   -2.7983 H   0  0  0  0  0  0  0  0  0  0  0  0
   -2.0645    2.0231   -1.9875 H   0  0  0  0  0  0  0  0  0  0  0  0
   13.0623    5.3199   -7.7123 N   0  0  0  0  0  0  0  0  0  0  0  0
   12.0879    4.8551   -7.4754 N   0  0  0  0  0  0  0  0  0  0  0  0
    4.9473    2.4509   -3.6187 C   0  0  0  0  0  0  0  0  0  0  0  0
    6.0084    2.5123   -4.5191 C   0  0  0  0  0  0  0  0  0  0  0  0
    6.8060    1.3884   -4.7791 C   0  0  0  0  0  0  0  0  0  0  0  0
    6.5223    0.1926   -4.1014 C   0  0  0  0  0  0  0  0  0  0  0  0
    5.4676    0.1103   -3.1964 C   0  0  0  0  0  0  0  0  0  0  0  0
    4.6853    1.2440   -2.9698 C   0  0  0  0  0  0  0  0  0  0  0  0
    4.3384    3.3226   -3.4067 H   0  0  0  0  0  0  0  0  0  0  0  0
    6.2247    3.4495   -5.0240 H   0  0  0  0  0  0  0  0  0  0  0  0
    7.1397   -0.6835   -4.2807 H   0  0  0  0  0  0  0  0  0  0  0  0
    5.2585   -0.8094   -2.6612 H   0  0  0  0  0  0  0  0  0  0  0  0
    3.3399    1.1557   -1.8083 S   0  0  0  0  0  0  0  0  0  0  0  0
    3.5906    0.0971   -0.8330 O   0  0  0  0  0  0  0  0  0  0  0  0
    2.1766    0.6131   -2.8826 O   0  0  0  0  0  0  0  0  0  0  0  0
    2.9709    2.4998   -1.3701 O   0  0  0  0  0  0  0  0  0  0  0  0
    7.9331    1.4568   -5.7802 C   0  0  0  0  0  0  0  0  0  0  0  0
    8.3162    2.4753   -5.8850 H   0  0  0  0  0  0  0  0  0  0  0  0
    8.7640    0.8060   -5.4930 H   0  0  0  0  0  0  0  0  0  0  0  0
    7.5934    1.1314   -6.7714 H   0  0  0  0  0  0  0  0  0  0  0  0
   -2.7037   -0.2065   -1.0948 H   0  0  0  0  0  0  0  0  0  0  0  0
  1  7  1  0  0  0  0
  2  8  1  0  0  0  0
  2  1  2  0  0  0  0
  3  2  1  0  0  0  0
  4  3  2  0  0  0  0
  4  5  1  0  0  0  0
  5  6  2  0  0  0  0
  6  1  1  0  0  0  0
  6 31  1  0  0  0  0
  9  4  1  0  0  0  0
 10  5  1  0  0  0  0
 11 12  3  0  0  0  0
 13 19  1  0  0  0  0
 13 18  2  0  0  0  0
 14 13  1  0  0  0  0
 15 14  2  0  0  0  0
 15 16  1  0  0  0  0
 16 17  2  0  0  0  0
 17 18  1  0  0  0  0
 17 22  1  0  0  0  0
 18 23  1  0  0  0  0
 20 14  1  0  0  0  0
 21 16  1  0  0  0  0
 23 26  2  0  0  0  0
 23 24  2  0  0  0  0
 25  3  1  0  0  0  0
 25 23  1  0  0  0  0
 27 29  1  0  0  0  0
 27 15  1  0  0  0  0
 28 27  1  0  0  0  0
 30 27  1  0  0  0  0
M  END
