Coordinates from ORCA-job Ph-N2-OTs-B3LYPG-6-31G_dp-MTMO-d009-169-n800
 OpenBabel09051907503D

 31 31  0  0  0  0  0  0  0  0999 V2000
   -0.4018    0.0342   -1.1816 C   0  0  0  0  0  0  0  0  0  0  0  0
    0.9312   -0.0393   -1.5884 C   0  0  0  0  0  0  0  0  0  0  0  0
    1.3470    0.7431   -2.6648 C   0  0  0  0  0  0  0  0  0  0  0  0
    0.4685    1.5896   -3.3377 C   0  0  0  0  0  0  0  0  0  0  0  0
   -0.8632    1.6461   -2.9254 C   0  0  0  0  0  0  0  0  0  0  0  0
   -1.2991    0.8721   -1.8476 C   0  0  0  0  0  0  0  0  0  0  0  0
   -0.7383   -0.5664   -0.3417 H   0  0  0  0  0  0  0  0  0  0  0  0
    1.6451   -0.6807   -1.0852 H   0  0  0  0  0  0  0  0  0  0  0  0
    0.8338    2.1837   -4.1682 H   0  0  0  0  0  0  0  0  0  0  0  0
   -1.5581    2.2993   -3.4448 H   0  0  0  0  0  0  0  0  0  0  0  0
    5.3289    6.4598   -2.5563 N   0  0  0  0  0  0  0  0  0  0  0  0
    5.2932    5.6882   -3.3467 N   0  0  0  0  0  0  0  0  0  0  0  0
    5.6333    2.0289   -4.2666 C   0  0  0  0  0  0  0  0  0  0  0  0
    6.7100    1.7278   -5.0961 C   0  0  0  0  0  0  0  0  0  0  0  0
    7.3672    0.4901   -5.0152 C   0  0  0  0  0  0  0  0  0  0  0  0
    6.9198   -0.4462   -4.0723 C   0  0  0  0  0  0  0  0  0  0  0  0
    5.8471   -0.1641   -3.2291 C   0  0  0  0  0  0  0  0  0  0  0  0
    5.2107    1.0722   -3.3415 C   0  0  0  0  0  0  0  0  0  0  0  0
    5.1354    2.9902   -4.3202 H   0  0  0  0  0  0  0  0  0  0  0  0
    7.0481    2.4678   -5.8167 H   0  0  0  0  0  0  0  0  0  0  0  0
    7.4202   -1.4074   -3.9947 H   0  0  0  0  0  0  0  0  0  0  0  0
    5.5129   -0.8845   -2.4905 H   0  0  0  0  0  0  0  0  0  0  0  0
    3.8440    1.4474   -2.2652 S   0  0  0  0  0  0  0  0  0  0  0  0
    4.0142    0.7581   -0.9874 O   0  0  0  0  0  0  0  0  0  0  0  0
    2.6663    0.6419   -3.1387 O   0  0  0  0  0  0  0  0  0  0  0  0
    3.5544    2.8789   -2.3033 O   0  0  0  0  0  0  0  0  0  0  0  0
    8.5426    0.1885   -5.9130 C   0  0  0  0  0  0  0  0  0  0  0  0
    8.3164    0.4284   -6.9574 H   0  0  0  0  0  0  0  0  0  0  0  0
    9.4169    0.7853   -5.6279 H   0  0  0  0  0  0  0  0  0  0  0  0
    8.8281   -0.8652   -5.8606 H   0  0  0  0  0  0  0  0  0  0  0  0
   -2.3352    0.9227   -1.5266 H   0  0  0  0  0  0  0  0  0  0  0  0
  1  7  1  0  0  0  0
  2  1  1  0  0  0  0
  2  8  1  0  0  0  0
  3  2  2  0  0  0  0
  4  5  2  0  0  0  0
  4  3  1  0  0  0  0
  5  6  1  0  0  0  0
  6 31  1  0  0  0  0
  6  1  2  0  0  0  0
  9  4  1  0  0  0  0
 10  5  1  0  0  0  0
 12 11  3  0  0  0  0
 13 18  2  0  0  0  0
 14 15  2  0  0  0  0
 14 13  1  0  0  0  0
 15 16  1  0  0  0  0
 16 21  1  0  0  0  0
 16 17  2  0  0  0  0
 17 22  1  0  0  0  0
 18 17  1  0  0  0  0
 18 23  1  0  0  0  0
 19 13  1  0  0  0  0
 20 14  1  0  0  0  0
 23 24  2  0  0  0  0
 25  3  1  0  0  0  0
 25 23  1  0  0  0  0
 26 23  2  0  0  0  0
 27 30  1  0  0  0  0
 27 29  1  0  0  0  0
 27 15  1  0  0  0  0
 28 27  1  0  0  0  0
M  END
