Coordinates from ORCA-job Ph-N2-OTs-B3LYPG-6-31G_dp-MTMO-d009-169-n800
 OpenBabel09051907503D

 31 31  0  0  0  0  0  0  0  0999 V2000
   -0.8779   -1.1052   -1.3348 C   0  0  0  0  0  0  0  0  0  0  0  0
    0.4246   -0.8958   -1.7895 C   0  0  0  0  0  0  0  0  0  0  0  0
    0.7663    0.3569   -2.2957 C   0  0  0  0  0  0  0  0  0  0  0  0
   -0.1547    1.4014   -2.3506 C   0  0  0  0  0  0  0  0  0  0  0  0
   -1.4538    1.1779   -1.8930 C   0  0  0  0  0  0  0  0  0  0  0  0
   -1.8168   -0.0722   -1.3861 C   0  0  0  0  0  0  0  0  0  0  0  0
   -1.1574   -2.0767   -0.9384 H   0  0  0  0  0  0  0  0  0  0  0  0
    1.1721   -1.6804   -1.7562 H   0  0  0  0  0  0  0  0  0  0  0  0
    0.1526    2.3632   -2.7447 H   0  0  0  0  0  0  0  0  0  0  0  0
   -2.1815    1.9831   -1.9320 H   0  0  0  0  0  0  0  0  0  0  0  0
   14.8346    6.2345   -8.5494 N   0  0  0  0  0  0  0  0  0  0  0  0
   13.8722    5.7405   -8.3230 N   0  0  0  0  0  0  0  0  0  0  0  0
    4.8278    2.3805   -3.5672 C   0  0  0  0  0  0  0  0  0  0  0  0
    5.8878    2.4362   -4.4694 C   0  0  0  0  0  0  0  0  0  0  0  0
    6.6829    1.3099   -4.7257 C   0  0  0  0  0  0  0  0  0  0  0  0
    6.3980    0.1173   -4.0427 C   0  0  0  0  0  0  0  0  0  0  0  0
    5.3444    0.0407   -3.1361 C   0  0  0  0  0  0  0  0  0  0  0  0
    4.5645    1.1769   -2.9131 C   0  0  0  0  0  0  0  0  0  0  0  0
    4.2208    3.2543   -3.3581 H   0  0  0  0  0  0  0  0  0  0  0  0
    6.1051    3.3710   -4.9785 H   0  0  0  0  0  0  0  0  0  0  0  0
    7.0136   -0.7607   -4.2193 H   0  0  0  0  0  0  0  0  0  0  0  0
    5.1342   -0.8764   -2.5969 H   0  0  0  0  0  0  0  0  0  0  0  0
    3.2200    1.0957   -1.7500 S   0  0  0  0  0  0  0  0  0  0  0  0
    3.4684    0.0388   -0.7723 O   0  0  0  0  0  0  0  0  0  0  0  0
    2.0543    0.5541   -2.8221 O   0  0  0  0  0  0  0  0  0  0  0  0
    2.8556    2.4420   -1.3149 O   0  0  0  0  0  0  0  0  0  0  0  0
    7.8092    1.3717   -5.7283 C   0  0  0  0  0  0  0  0  0  0  0  0
    8.1814    2.3922   -5.8511 H   0  0  0  0  0  0  0  0  0  0  0  0
    8.6469    0.7351   -5.4292 H   0  0  0  0  0  0  0  0  0  0  0  0
    7.4732    1.0248   -6.7133 H   0  0  0  0  0  0  0  0  0  0  0  0
   -2.8287   -0.2405   -1.0301 H   0  0  0  0  0  0  0  0  0  0  0  0
  1  7  1  0  0  0  0
  2  8  1  0  0  0  0
  2  1  2  0  0  0  0
  3  2  1  0  0  0  0
  4  3  2  0  0  0  0
  4  5  1  0  0  0  0
  5  6  2  0  0  0  0
  6  1  1  0  0  0  0
  6 31  1  0  0  0  0
  9  4  1  0  0  0  0
 10  5  1  0  0  0  0
 11 12  3  0  0  0  0
 13 19  1  0  0  0  0
 13 18  2  0  0  0  0
 14 13  1  0  0  0  0
 15 14  2  0  0  0  0
 15 16  1  0  0  0  0
 16 17  2  0  0  0  0
 17 18  1  0  0  0  0
 17 22  1  0  0  0  0
 18 23  1  0  0  0  0
 20 14  1  0  0  0  0
 21 16  1  0  0  0  0
 23 26  2  0  0  0  0
 23 24  2  0  0  0  0
 25  3  1  0  0  0  0
 25 23  1  0  0  0  0
 27 29  1  0  0  0  0
 27 15  1  0  0  0  0
 28 27  1  0  0  0  0
 30 27  1  0  0  0  0
M  END
