Coordinates from ORCA-job Ph-N2-OTs-B3LYPG-6-31G_dp-MTMO-d009-169-n800
 OpenBabel09051907503D

 31 31  0  0  0  0  0  0  0  0999 V2000
   -0.4102    0.0092   -1.1630 C   0  0  0  0  0  0  0  0  0  0  0  0
    0.9223   -0.0602   -1.5722 C   0  0  0  0  0  0  0  0  0  0  0  0
    1.3321    0.7183   -2.6537 C   0  0  0  0  0  0  0  0  0  0  0  0
    0.4482    1.5569   -3.3294 C   0  0  0  0  0  0  0  0  0  0  0  0
   -0.8829    1.6092   -2.9146 C   0  0  0  0  0  0  0  0  0  0  0  0
   -1.3128    0.8391   -1.8316 C   0  0  0  0  0  0  0  0  0  0  0  0
   -0.7421   -0.5883   -0.3190 H   0  0  0  0  0  0  0  0  0  0  0  0
    1.6402   -0.6954   -1.0670 H   0  0  0  0  0  0  0  0  0  0  0  0
    0.8089    2.1482   -4.1638 H   0  0  0  0  0  0  0  0  0  0  0  0
   -1.5821    2.2562   -3.4361 H   0  0  0  0  0  0  0  0  0  0  0  0
    5.5088    6.5916   -2.7702 N   0  0  0  0  0  0  0  0  0  0  0  0
    5.4508    5.7543   -3.4890 N   0  0  0  0  0  0  0  0  0  0  0  0
    5.6226    2.0403   -4.2449 C   0  0  0  0  0  0  0  0  0  0  0  0
    6.7043    1.7486   -5.0739 C   0  0  0  0  0  0  0  0  0  0  0  0
    7.3572    0.5095   -5.0082 C   0  0  0  0  0  0  0  0  0  0  0  0
    6.8992   -0.4425   -4.0838 C   0  0  0  0  0  0  0  0  0  0  0  0
    5.8242   -0.1702   -3.2428 C   0  0  0  0  0  0  0  0  0  0  0  0
    5.1926    1.0716   -3.3381 C   0  0  0  0  0  0  0  0  0  0  0  0
    5.1272    3.0035   -4.2879 H   0  0  0  0  0  0  0  0  0  0  0  0
    7.0484    2.4981   -5.7814 H   0  0  0  0  0  0  0  0  0  0  0  0
    7.3948   -1.4072   -4.0204 H   0  0  0  0  0  0  0  0  0  0  0  0
    5.4823   -0.9017   -2.5189 H   0  0  0  0  0  0  0  0  0  0  0  0
    3.8250    1.4365   -2.2596 S   0  0  0  0  0  0  0  0  0  0  0  0
    4.0035    0.7487   -0.9820 O   0  0  0  0  0  0  0  0  0  0  0  0
    2.6511    0.6213   -3.1293 O   0  0  0  0  0  0  0  0  0  0  0  0
    3.5242    2.8655   -2.2973 O   0  0  0  0  0  0  0  0  0  0  0  0
    8.5486    0.2167   -5.8877 C   0  0  0  0  0  0  0  0  0  0  0  0
    8.5157    0.7969   -6.8134 H   0  0  0  0  0  0  0  0  0  0  0  0
    9.4835    0.4730   -5.3738 H   0  0  0  0  0  0  0  0  0  0  0  0
    8.6025   -0.8437   -6.1498 H   0  0  0  0  0  0  0  0  0  0  0  0
   -2.3485    0.8866   -1.5087 H   0  0  0  0  0  0  0  0  0  0  0  0
  1  7  1  0  0  0  0
  2  1  1  0  0  0  0
  2  8  1  0  0  0  0
  3  2  2  0  0  0  0
  4  5  2  0  0  0  0
  4  3  1  0  0  0  0
  5  6  1  0  0  0  0
  6 31  1  0  0  0  0
  6  1  2  0  0  0  0
  9  4  1  0  0  0  0
 10  5  1  0  0  0  0
 12 11  3  0  0  0  0
 13 18  2  0  0  0  0
 14 15  2  0  0  0  0
 14 13  1  0  0  0  0
 15 16  1  0  0  0  0
 16 21  1  0  0  0  0
 16 17  2  0  0  0  0
 17 22  1  0  0  0  0
 18 17  1  0  0  0  0
 18 23  1  0  0  0  0
 19 13  1  0  0  0  0
 20 14  1  0  0  0  0
 23 24  2  0  0  0  0
 25  3  1  0  0  0  0
 25 23  1  0  0  0  0
 26 23  2  0  0  0  0
 27 29  1  0  0  0  0
 27 15  1  0  0  0  0
 28 27  1  0  0  0  0
 30 27  1  0  0  0  0
M  END
