Coordinates from ORCA-job Ph-N2-OTs-B3LYPG-6-31G_dp-MTMO-d009-169-n800
 OpenBabel09051907503D

 31 31  0  0  0  0  0  0  0  0999 V2000
   -0.4288   -0.1223   -1.6470 C   0  0  0  0  0  0  0  0  0  0  0  0
    0.8932   -0.1707   -2.0904 C   0  0  0  0  0  0  0  0  0  0  0  0
    1.4510    0.9682   -2.6678 C   0  0  0  0  0  0  0  0  0  0  0  0
    0.7276    2.1521   -2.8030 C   0  0  0  0  0  0  0  0  0  0  0  0
   -0.5929    2.1867   -2.3526 C   0  0  0  0  0  0  0  0  0  0  0  0
   -1.1723    1.0533   -1.7772 C   0  0  0  0  0  0  0  0  0  0  0  0
   -0.8758   -1.0038   -1.1973 H   0  0  0  0  0  0  0  0  0  0  0  0
    1.4934   -1.0686   -1.9957 H   0  0  0  0  0  0  0  0  0  0  0  0
    1.1985    3.0208   -3.2485 H   0  0  0  0  0  0  0  0  0  0  0  0
   -1.1684    3.1023   -2.4529 H   0  0  0  0  0  0  0  0  0  0  0  0
    4.0884    5.5598   -4.0225 N   0  0  0  0  0  0  0  0  0  0  0  0
    3.0082    5.4789   -3.8043 N   0  0  0  0  0  0  0  0  0  0  0  0
    5.8643    2.0181   -4.0763 C   0  0  0  0  0  0  0  0  0  0  0  0
    6.9378    1.7081   -4.9080 C   0  0  0  0  0  0  0  0  0  0  0  0
    7.4952    0.4211   -4.9262 C   0  0  0  0  0  0  0  0  0  0  0  0
    6.9550   -0.5559   -4.0763 C   0  0  0  0  0  0  0  0  0  0  0  0
    5.8832   -0.2668   -3.2359 C   0  0  0  0  0  0  0  0  0  0  0  0
    5.3443    1.0208   -3.2507 C   0  0  0  0  0  0  0  0  0  0  0  0
    5.4441    3.0172   -4.0527 H   0  0  0  0  0  0  0  0  0  0  0  0
    7.3544    2.4811   -5.5480 H   0  0  0  0  0  0  0  0  0  0  0  0
    7.3850   -1.5536   -4.0668 H   0  0  0  0  0  0  0  0  0  0  0  0
    5.4780   -1.0179   -2.5669 H   0  0  0  0  0  0  0  0  0  0  0  0
    3.9856    1.4058   -2.1672 S   0  0  0  0  0  0  0  0  0  0  0  0
    4.0097    0.5262   -1.0010 O   0  0  0  0  0  0  0  0  0  0  0  0
    2.7576    0.8960   -3.1820 O   0  0  0  0  0  0  0  0  0  0  0  0
    3.8777    2.8547   -2.0039 O   0  0  0  0  0  0  0  0  0  0  0  0
    8.6397    0.0900   -5.8530 C   0  0  0  0  0  0  0  0  0  0  0  0
    8.2666   -0.2665   -6.8209 H   0  0  0  0  0  0  0  0  0  0  0  0
    9.2634    0.9671   -6.0478 H   0  0  0  0  0  0  0  0  0  0  0  0
    9.2758   -0.6979   -5.4392 H   0  0  0  0  0  0  0  0  0  0  0  0
   -2.2001    1.0863   -1.4294 H   0  0  0  0  0  0  0  0  0  0  0  0
  1  7  1  0  0  0  0
  2  8  1  0  0  0  0
  2  1  2  0  0  0  0
  3  2  1  0  0  0  0
  4  3  2  0  0  0  0
  4  5  1  0  0  0  0
  5  6  2  0  0  0  0
  6  1  1  0  0  0  0
  6 31  1  0  0  0  0
  9  4  1  0  0  0  0
 10  5  1  0  0  0  0
 11 12  3  0  0  0  0
 13 19  1  0  0  0  0
 13 18  2  0  0  0  0
 14 13  1  0  0  0  0
 15 14  2  0  0  0  0
 15 16  1  0  0  0  0
 16 21  1  0  0  0  0
 16 17  2  0  0  0  0
 17 22  1  0  0  0  0
 18 17  1  0  0  0  0
 18 23  1  0  0  0  0
 20 14  1  0  0  0  0
 23 26  2  0  0  0  0
 23 24  2  0  0  0  0
 25  3  1  0  0  0  0
 25 23  1  0  0  0  0
 27 30  1  0  0  0  0
 27 15  1  0  0  0  0
 28 27  1  0  0  0  0
 29 27  1  0  0  0  0
M  END
