Coordinates from ORCA-job Ph-N2-OTs-B3LYPG-6-31G_dp-MTMO-d009-169-n800
 OpenBabel09051907503D

 31 31  0  0  0  0  0  0  0  0999 V2000
   -0.5735    0.2060   -1.7042 C   0  0  0  0  0  0  0  0  0  0  0  0
    0.7411    0.0252   -2.1361 C   0  0  0  0  0  0  0  0  0  0  0  0
    1.4797    1.1429   -2.5213 C   0  0  0  0  0  0  0  0  0  0  0  0
    0.9417    2.4274   -2.4817 C   0  0  0  0  0  0  0  0  0  0  0  0
   -0.3757    2.5922   -2.0529 C   0  0  0  0  0  0  0  0  0  0  0  0
   -1.1333    1.4851   -1.6634 C   0  0  0  0  0  0  0  0  0  0  0  0
   -1.1600   -0.6557   -1.4002 H   0  0  0  0  0  0  0  0  0  0  0  0
    1.1979   -0.9570   -2.1749 H   0  0  0  0  0  0  0  0  0  0  0  0
    1.5525    3.2692   -2.7872 H   0  0  0  0  0  0  0  0  0  0  0  0
   -0.8084    3.5879   -2.0198 H   0  0  0  0  0  0  0  0  0  0  0  0
    3.2199    3.0573   -6.4749 N   0  0  0  0  0  0  0  0  0  0  0  0
    3.2742    3.4000   -5.4255 N   0  0  0  0  0  0  0  0  0  0  0  0
    5.9523    1.9975   -3.4191 C   0  0  0  0  0  0  0  0  0  0  0  0
    7.0195    1.9736   -4.3121 C   0  0  0  0  0  0  0  0  0  0  0  0
    7.5044    0.7633   -4.8326 C   0  0  0  0  0  0  0  0  0  0  0  0
    6.8973   -0.4327   -4.4258 C   0  0  0  0  0  0  0  0  0  0  0  0
    5.8276   -0.4314   -3.5324 C   0  0  0  0  0  0  0  0  0  0  0  0
    5.3626    0.7887   -3.0430 C   0  0  0  0  0  0  0  0  0  0  0  0
    5.5862    2.9306   -3.0061 H   0  0  0  0  0  0  0  0  0  0  0  0
    7.4885    2.9085   -4.6064 H   0  0  0  0  0  0  0  0  0  0  0  0
    7.2696   -1.3784   -4.8090 H   0  0  0  0  0  0  0  0  0  0  0  0
    5.3669   -1.3571   -3.2062 H   0  0  0  0  0  0  0  0  0  0  0  0
    4.0026    0.8053   -1.8951 S   0  0  0  0  0  0  0  0  0  0  0  0
    3.8680   -0.5082   -1.2683 O   0  0  0  0  0  0  0  0  0  0  0  0
    2.7811    0.9766   -3.0265 O   0  0  0  0  0  0  0  0  0  0  0  0
    4.0466    2.0174   -1.0816 O   0  0  0  0  0  0  0  0  0  0  0  0
    8.6452    0.7571   -5.8206 C   0  0  0  0  0  0  0  0  0  0  0  0
    8.2957    1.0367   -6.8220 H   0  0  0  0  0  0  0  0  0  0  0  0
    9.4215    1.4750   -5.5381 H   0  0  0  0  0  0  0  0  0  0  0  0
    9.1050   -0.2315   -5.8968 H   0  0  0  0  0  0  0  0  0  0  0  0
   -2.1570    1.6191   -1.3278 H   0  0  0  0  0  0  0  0  0  0  0  0
  1  6  1  0  0  0  0
  1  7  1  0  0  0  0
  2  1  2  0  0  0  0
  3  4  2  0  0  0  0
  3  2  1  0  0  0  0
  4  5  1  0  0  0  0
  5 10  1  0  0  0  0
  5  6  2  0  0  0  0
  6 31  1  0  0  0  0
  8  2  1  0  0  0  0
  9  4  1  0  0  0  0
 11 12  3  0  0  0  0
 13 18  1  0  0  0  0
 13 19  1  0  0  0  0
 14 13  2  0  0  0  0
 15 16  2  0  0  0  0
 15 14  1  0  0  0  0
 16 17  1  0  0  0  0
 17 22  1  0  0  0  0
 17 18  2  0  0  0  0
 18 23  1  0  0  0  0
 20 14  1  0  0  0  0
 21 16  1  0  0  0  0
 23 24  2  0  0  0  0
 23 26  2  0  0  0  0
 25  3  1  0  0  0  0
 25 23  1  0  0  0  0
 27 29  1  0  0  0  0
 27 15  1  0  0  0  0
 28 27  1  0  0  0  0
 30 27  1  0  0  0  0
M  END
