Coordinates from ORCA-job Ph-N2-OTs-B3LYPG-6-31G_dp-MTMO-d009-169-n800
 OpenBabel09051907503D

 31 31  0  0  0  0  0  0  0  0999 V2000
   -0.7887   -1.0718   -1.3838 C   0  0  0  0  0  0  0  0  0  0  0  0
    0.5138   -0.8593   -1.8373 C   0  0  0  0  0  0  0  0  0  0  0  0
    0.8541    0.3952   -2.3399 C   0  0  0  0  0  0  0  0  0  0  0  0
   -0.0683    1.4386   -2.3923 C   0  0  0  0  0  0  0  0  0  0  0  0
   -1.3673    1.2121   -1.9359 C   0  0  0  0  0  0  0  0  0  0  0  0
   -1.7289   -0.0399   -1.4327 C   0  0  0  0  0  0  0  0  0  0  0  0
   -1.0670   -2.0447   -0.9902 H   0  0  0  0  0  0  0  0  0  0  0  0
    1.2623   -1.6430   -1.8058 H   0  0  0  0  0  0  0  0  0  0  0  0
    0.2379    2.4019   -2.7836 H   0  0  0  0  0  0  0  0  0  0  0  0
   -2.0961    2.0165   -1.9731 H   0  0  0  0  0  0  0  0  0  0  0  0
   13.5641    5.6005   -7.9532 N   0  0  0  0  0  0  0  0  0  0  0  0
   12.5931    5.1259   -7.7218 N   0  0  0  0  0  0  0  0  0  0  0  0
    4.9146    2.4273   -3.6037 C   0  0  0  0  0  0  0  0  0  0  0  0
    5.9754    2.4862   -4.5047 C   0  0  0  0  0  0  0  0  0  0  0  0
    6.7717    1.3611   -4.7631 C   0  0  0  0  0  0  0  0  0  0  0  0
    6.4871    0.1667   -4.0834 C   0  0  0  0  0  0  0  0  0  0  0  0
    5.4328    0.0869   -3.1779 C   0  0  0  0  0  0  0  0  0  0  0  0
    4.6517    1.2218   -2.9529 C   0  0  0  0  0  0  0  0  0  0  0  0
    4.3067    3.3000   -3.3930 H   0  0  0  0  0  0  0  0  0  0  0  0
    6.1924    3.4224   -5.0113 H   0  0  0  0  0  0  0  0  0  0  0  0
    7.1037   -0.7103   -4.2615 H   0  0  0  0  0  0  0  0  0  0  0  0
    5.2229   -0.8317   -2.6411 H   0  0  0  0  0  0  0  0  0  0  0  0
    3.3063    1.1366   -1.7910 S   0  0  0  0  0  0  0  0  0  0  0  0
    3.5553    0.0782   -0.8151 O   0  0  0  0  0  0  0  0  0  0  0  0
    2.1421    0.5955   -2.8650 O   0  0  0  0  0  0  0  0  0  0  0  0
    2.9398    2.4816   -1.3536 O   0  0  0  0  0  0  0  0  0  0  0  0
    7.8987    1.4267   -5.7647 C   0  0  0  0  0  0  0  0  0  0  0  0
    8.2768    2.4462   -5.8773 H   0  0  0  0  0  0  0  0  0  0  0  0
    8.7327    0.7823   -5.4719 H   0  0  0  0  0  0  0  0  0  0  0  0
    7.5609    1.0917   -6.7533 H   0  0  0  0  0  0  0  0  0  0  0  0
   -2.7407   -0.2104   -1.0777 H   0  0  0  0  0  0  0  0  0  0  0  0
  1  7  1  0  0  0  0
  2  8  1  0  0  0  0
  2  1  2  0  0  0  0
  3  2  1  0  0  0  0
  4  3  2  0  0  0  0
  4  5  1  0  0  0  0
  5  6  2  0  0  0  0
  6  1  1  0  0  0  0
  6 31  1  0  0  0  0
  9  4  1  0  0  0  0
 10  5  1  0  0  0  0
 11 12  3  0  0  0  0
 13 19  1  0  0  0  0
 13 18  2  0  0  0  0
 14 13  1  0  0  0  0
 15 14  2  0  0  0  0
 15 16  1  0  0  0  0
 16 17  2  0  0  0  0
 17 18  1  0  0  0  0
 17 22  1  0  0  0  0
 18 23  1  0  0  0  0
 20 14  1  0  0  0  0
 21 16  1  0  0  0  0
 23 26  2  0  0  0  0
 23 24  2  0  0  0  0
 25  3  1  0  0  0  0
 25 23  1  0  0  0  0
 27 29  1  0  0  0  0
 27 15  1  0  0  0  0
 28 27  1  0  0  0  0
 30 27  1  0  0  0  0
M  END
