Coordinates from ORCA-job Ph-N2-OTs-B3LYPG-6-31G_dp-MTMO-d009-169-n800
 OpenBabel09051907503D

 31 31  0  0  0  0  0  0  0  0999 V2000
   -0.5483    0.1913   -1.5605 C   0  0  0  0  0  0  0  0  0  0  0  0
    0.7663   -0.0067   -1.9847 C   0  0  0  0  0  0  0  0  0  0  0  0
    1.4705    1.0759   -2.5101 C   0  0  0  0  0  0  0  0  0  0  0  0
    0.8976    2.3409   -2.6195 C   0  0  0  0  0  0  0  0  0  0  0  0
   -0.4202    2.5215   -2.1986 C   0  0  0  0  0  0  0  0  0  0  0  0
   -1.1432    1.4505   -1.6679 C   0  0  0  0  0  0  0  0  0  0  0  0
   -1.1082   -0.6428   -1.1482 H   0  0  0  0  0  0  0  0  0  0  0  0
    1.2484   -0.9747   -1.9109 H   0  0  0  0  0  0  0  0  0  0  0  0
    1.4821    3.1547   -3.0335 H   0  0  0  0  0  0  0  0  0  0  0  0
   -0.8802    3.5019   -2.2826 H   0  0  0  0  0  0  0  0  0  0  0  0
    3.6212    3.7158   -6.4473 N   0  0  0  0  0  0  0  0  0  0  0  0
    3.2444    3.7986   -5.4116 N   0  0  0  0  0  0  0  0  0  0  0  0
    5.9348    1.9708   -3.4291 C   0  0  0  0  0  0  0  0  0  0  0  0
    6.9957    1.9454   -4.3295 C   0  0  0  0  0  0  0  0  0  0  0  0
    7.4833    0.7335   -4.8436 C   0  0  0  0  0  0  0  0  0  0  0  0
    6.8857   -0.4624   -4.4221 C   0  0  0  0  0  0  0  0  0  0  0  0
    5.8229   -0.4595   -3.5207 C   0  0  0  0  0  0  0  0  0  0  0  0
    5.3545    0.7622   -3.0384 C   0  0  0  0  0  0  0  0  0  0  0  0
    5.5667    2.9050   -3.0199 H   0  0  0  0  0  0  0  0  0  0  0  0
    7.4579    2.8802   -4.6348 H   0  0  0  0  0  0  0  0  0  0  0  0
    7.2605   -1.4092   -4.8002 H   0  0  0  0  0  0  0  0  0  0  0  0
    5.3703   -1.3851   -3.1833 H   0  0  0  0  0  0  0  0  0  0  0  0
    4.0012    0.7825   -1.8823 S   0  0  0  0  0  0  0  0  0  0  0  0
    3.9015   -0.5145   -1.2157 O   0  0  0  0  0  0  0  0  0  0  0  0
    2.7713    0.8914   -3.0105 O   0  0  0  0  0  0  0  0  0  0  0  0
    4.0232    2.0189   -1.1053 O   0  0  0  0  0  0  0  0  0  0  0  0
    8.6167    0.7252   -5.8400 C   0  0  0  0  0  0  0  0  0  0  0  0
    8.2586    0.9968   -6.8405 H   0  0  0  0  0  0  0  0  0  0  0  0
    9.3922    1.4478   -5.5680 H   0  0  0  0  0  0  0  0  0  0  0  0
    9.0798   -0.2622   -5.9131 H   0  0  0  0  0  0  0  0  0  0  0  0
   -2.1674    1.5970   -1.3390 H   0  0  0  0  0  0  0  0  0  0  0  0
  1  7  1  0  0  0  0
  2  8  1  0  0  0  0
  2  1  2  0  0  0  0
  3  2  1  0  0  0  0
  4  3  2  0  0  0  0
  4  5  1  0  0  0  0
  5  6  2  0  0  0  0
  6  1  1  0  0  0  0
  6 31  1  0  0  0  0
  9  4  1  0  0  0  0
 10  5  1  0  0  0  0
 11 12  3  0  0  0  0
 13 18  1  0  0  0  0
 13 19  1  0  0  0  0
 14 13  2  0  0  0  0
 15 16  2  0  0  0  0
 15 14  1  0  0  0  0
 16 17  1  0  0  0  0
 17 22  1  0  0  0  0
 17 18  2  0  0  0  0
 18 23  1  0  0  0  0
 20 14  1  0  0  0  0
 21 16  1  0  0  0  0
 23 24  2  0  0  0  0
 23 26  2  0  0  0  0
 25  3  1  0  0  0  0
 25 23  1  0  0  0  0
 27 29  1  0  0  0  0
 27 15  1  0  0  0  0
 28 27  1  0  0  0  0
 30 27  1  0  0  0  0
M  END
