Coordinates from ORCA-job Ph-N2-OTs-B3LYPG-6-31G_dp-MTMO-d009-169-n800
 OpenBabel09051907493D

 31 32  0  0  1  0  0  0  0  0999 V2000
    0.2702    0.5513   -2.3563 C   0  0  0  0  0  0  0  0  0  0  0  0
    1.2179    1.1226   -3.3588 C   0  0  1  0  0  0  0  0  0  0  0  0
    1.4051    2.6519   -3.2247 C   0  0  0  0  0  0  0  0  0  0  0  0
    0.9772    3.2954   -1.9667 C   0  0  0  0  0  0  0  0  0  0  0  0
    0.2405    2.6261   -1.0581 C   0  0  0  0  0  0  0  0  0  0  0  0
   -0.1544    1.2460   -1.2858 C   0  0  0  0  0  0  0  0  0  0  0  0
   -0.0277   -0.4796   -2.5190 H   0  0  0  0  0  0  0  0  0  0  0  0
    0.9273    0.8916   -4.3871 H   0  0  0  0  0  0  0  0  0  0  0  0
    1.2760    4.3297   -1.8261 H   0  0  0  0  0  0  0  0  0  0  0  0
   -0.0731    3.1222   -0.1454 H   0  0  0  0  0  0  0  0  0  0  0  0
    1.8870    3.1756   -4.0105 N   0  0  0  0  0  0  0  0  0  0  0  0
    2.4232    3.7334   -4.8796 N   0  0  0  0  0  0  0  0  0  0  0  0
    5.3136    1.3282   -4.6811 C   0  0  0  0  0  0  0  0  0  0  0  0
    6.6496    1.6938   -4.5543 C   0  0  0  0  0  0  0  0  0  0  0  0
    7.5858    0.8380   -3.9504 C   0  0  0  0  0  0  0  0  0  0  0  0
    7.1463   -0.4014   -3.4676 C   0  0  0  0  0  0  0  0  0  0  0  0
    5.8108   -0.7875   -3.5803 C   0  0  0  0  0  0  0  0  0  0  0  0
    4.9077    0.0843   -4.1864 C   0  0  0  0  0  0  0  0  0  0  0  0
    4.5994    1.9974   -5.1489 H   0  0  0  0  0  0  0  0  0  0  0  0
    6.9734    2.6596   -4.9322 H   0  0  0  0  0  0  0  0  0  0  0  0
    7.8574   -1.0759   -2.9990 H   0  0  0  0  0  0  0  0  0  0  0  0
    5.4683   -1.7476   -3.2121 H   0  0  0  0  0  0  0  0  0  0  0  0
    3.2046   -0.4096   -4.3500 S   0  0  0  0  0  0  0  0  0  0  0  0
    3.0714   -1.8148   -3.9753 O   0  0  0  0  0  0  0  0  0  0  0  0
    2.6613    0.0708   -5.6232 O   0  0  0  0  0  0  0  0  0  0  0  0
    2.5508    0.5137   -3.1412 O   0  0  0  0  0  0  0  0  0  0  0  0
    9.0359    1.2437   -3.8462 C   0  0  0  0  0  0  0  0  0  0  0  0
    9.5334    1.1751   -4.8214 H   0  0  0  0  0  0  0  0  0  0  0  0
    9.1357    2.2799   -3.5071 H   0  0  0  0  0  0  0  0  0  0  0  0
    9.5830    0.6032   -3.1498 H   0  0  0  0  0  0  0  0  0  0  0  0
   -0.8181    0.7738   -0.5667 H   0  0  0  0  0  0  0  0  0  0  0  0
  1  6  2  0  0  0  0
  2  8  1  6  0  0  0
  2  3  1  0  0  0  0
  2 26  1  0  0  0  0
  2  1  1  0  0  0  0
  3  4  2  0  0  0  0
  4  9  1  0  0  0  0
  4  5  1  0  0  0  0
  5 10  1  0  0  0  0
  6  5  1  0  0  0  0
  6 31  1  0  0  0  0
  7  1  1  0  0  0  0
 11  3  1  0  0  0  0
 12 11  1  0  0  0  0
 13 14  2  0  0  0  0
 13 18  1  0  0  0  0
 14 15  1  0  0  0  0
 15 27  1  0  0  0  0
 15 16  2  0  0  0  0
 16 21  1  0  0  0  0
 17 16  1  0  0  0  0
 17 22  1  0  0  0  0
 18 17  2  0  0  0  0
 19 13  1  0  0  0  0
 20 14  1  0  0  0  0
 23 18  1  0  0  0  0
 23 24  2  0  0  0  0
 23 26  1  0  0  0  0
 25 23  2  0  0  0  0
 27 29  1  0  0  0  0
 27 30  1  0  0  0  0
 28 27  1  0  0  0  0
M  RAD  3   5   2  11   2  12   3
M  END
