Coordinates from ORCA-job Ph-N2-OTs-B3LYPG-6-31G_dp-MTMO-d009-169-n800
 OpenBabel09051907503D

 31 31  0  0  0  0  0  0  0  0999 V2000
   -0.7261   -0.8310   -1.5993 C   0  0  0  0  0  0  0  0  0  0  0  0
    0.5974   -0.6912   -2.0187 C   0  0  0  0  0  0  0  0  0  0  0  0
    1.0342    0.5572   -2.4586 C   0  0  0  0  0  0  0  0  0  0  0  0
    0.1871    1.6634   -2.4825 C   0  0  0  0  0  0  0  0  0  0  0  0
   -1.1346    1.5087   -2.0627 C   0  0  0  0  0  0  0  0  0  0  0  0
   -1.5922    0.2648   -1.6213 C   0  0  0  0  0  0  0  0  0  0  0  0
   -1.0791   -1.7980   -1.2536 H   0  0  0  0  0  0  0  0  0  0  0  0
    1.2896   -1.5254   -2.0069 H   0  0  0  0  0  0  0  0  0  0  0  0
    0.5681    2.6186   -2.8253 H   0  0  0  0  0  0  0  0  0  0  0  0
   -1.8054    2.3626   -2.0790 H   0  0  0  0  0  0  0  0  0  0  0  0
   10.0952    5.6166   -7.4902 N   0  0  0  0  0  0  0  0  0  0  0  0
    9.3718    4.9344   -7.0078 N   0  0  0  0  0  0  0  0  0  0  0  0
    5.2917    2.3264   -3.4765 C   0  0  0  0  0  0  0  0  0  0  0  0
    6.3730    2.3697   -4.3557 C   0  0  0  0  0  0  0  0  0  0  0  0
    7.0648    1.2046   -4.7122 C   0  0  0  0  0  0  0  0  0  0  0  0
    6.6500   -0.0187   -4.1603 C   0  0  0  0  0  0  0  0  0  0  0  0
    5.5754   -0.0836   -3.2797 C   0  0  0  0  0  0  0  0  0  0  0  0
    4.9019    1.0955   -2.9510 C   0  0  0  0  0  0  0  0  0  0  0  0
    4.7631    3.2290   -3.1909 H   0  0  0  0  0  0  0  0  0  0  0  0
    6.6872    3.3240   -4.7683 H   0  0  0  0  0  0  0  0  0  0  0  0
    7.1804   -0.9304   -4.4216 H   0  0  0  0  0  0  0  0  0  0  0  0
    5.2649   -1.0256   -2.8418 H   0  0  0  0  0  0  0  0  0  0  0  0
    3.5308    1.0265   -1.8187 S   0  0  0  0  0  0  0  0  0  0  0  0
    3.6655   -0.1359   -0.9437 O   0  0  0  0  0  0  0  0  0  0  0  0
    2.3435    0.6948   -2.9503 O   0  0  0  0  0  0  0  0  0  0  0  0
    3.2767    2.3527   -1.2609 O   0  0  0  0  0  0  0  0  0  0  0  0
    8.2385    1.2539   -5.6598 C   0  0  0  0  0  0  0  0  0  0  0  0
    8.4026    2.2621   -6.0466 H   0  0  0  0  0  0  0  0  0  0  0  0
    9.1595    0.9305   -5.1612 H   0  0  0  0  0  0  0  0  0  0  0  0
    8.0849    0.5840   -6.5129 H   0  0  0  0  0  0  0  0  0  0  0  0
   -2.6209    0.1501   -1.2935 H   0  0  0  0  0  0  0  0  0  0  0  0
  1  7  1  0  0  0  0
  2  8  1  0  0  0  0
  2  1  2  0  0  0  0
  3  2  1  0  0  0  0
  4  3  2  0  0  0  0
  4  5  1  0  0  0  0
  5  6  2  0  0  0  0
  6  1  1  0  0  0  0
  6 31  1  0  0  0  0
  9  4  1  0  0  0  0
 10  5  1  0  0  0  0
 11 12  3  0  0  0  0
 13 19  1  0  0  0  0
 13 18  2  0  0  0  0
 14 13  1  0  0  0  0
 15 14  2  0  0  0  0
 15 16  1  0  0  0  0
 16 17  2  0  0  0  0
 17 18  1  0  0  0  0
 17 22  1  0  0  0  0
 18 23  1  0  0  0  0
 20 14  1  0  0  0  0
 21 16  1  0  0  0  0
 23 26  2  0  0  0  0
 23 24  2  0  0  0  0
 25  3  1  0  0  0  0
 25 23  1  0  0  0  0
 27 29  1  0  0  0  0
 27 15  1  0  0  0  0
 28 27  1  0  0  0  0
 30 27  1  0  0  0  0
M  END
