Coordinates from ORCA-job Ph-N2-OTs-B3LYPG-6-31G_dp-MTMO-d009-169-n800
 OpenBabel09051907503D

 31 31  0  0  0  0  0  0  0  0999 V2000
   -0.7323   -0.6234   -1.6600 C   0  0  0  0  0  0  0  0  0  0  0  0
    0.6079   -0.5739   -2.0459 C   0  0  0  0  0  0  0  0  0  0  0  0
    1.1239    0.6288   -2.5262 C   0  0  0  0  0  0  0  0  0  0  0  0
    0.3389    1.7760   -2.6236 C   0  0  0  0  0  0  0  0  0  0  0  0
   -1.0006    1.7109   -2.2383 C   0  0  0  0  0  0  0  0  0  0  0  0
   -1.5370    0.5144   -1.7564 C   0  0  0  0  0  0  0  0  0  0  0  0
   -1.1466   -1.5539   -1.2834 H   0  0  0  0  0  0  0  0  0  0  0  0
    1.2528   -1.4423   -1.9769 H   0  0  0  0  0  0  0  0  0  0  0  0
    0.7804    2.6933   -2.9963 H   0  0  0  0  0  0  0  0  0  0  0  0
   -1.6234    2.5975   -2.3127 H   0  0  0  0  0  0  0  0  0  0  0  0
    8.2523    6.0356   -7.2375 N   0  0  0  0  0  0  0  0  0  0  0  0
    8.0306    5.1319   -6.6413 N   0  0  0  0  0  0  0  0  0  0  0  0
    5.4604    2.1955   -3.4323 C   0  0  0  0  0  0  0  0  0  0  0  0
    6.5520    2.2204   -4.2979 C   0  0  0  0  0  0  0  0  0  0  0  0
    7.2093    1.0387   -4.6689 C   0  0  0  0  0  0  0  0  0  0  0  0
    6.7461   -0.1801   -4.1497 C   0  0  0  0  0  0  0  0  0  0  0  0
    5.6586   -0.2265   -3.2823 C   0  0  0  0  0  0  0  0  0  0  0  0
    5.0230    0.9674   -2.9362 C   0  0  0  0  0  0  0  0  0  0  0  0
    4.9577    3.1092   -3.1355 H   0  0  0  0  0  0  0  0  0  0  0  0
    6.9003    3.1706   -4.6920 H   0  0  0  0  0  0  0  0  0  0  0  0
    7.2462   -1.1042   -4.4268 H   0  0  0  0  0  0  0  0  0  0  0  0
    5.3087   -1.1665   -2.8706 H   0  0  0  0  0  0  0  0  0  0  0  0
    3.6326    0.9233   -1.8267 S   0  0  0  0  0  0  0  0  0  0  0  0
    3.7038   -0.2707   -0.9871 O   0  0  0  0  0  0  0  0  0  0  0  0
    2.4508    0.6792   -2.9859 O   0  0  0  0  0  0  0  0  0  0  0  0
    3.4260    2.2408   -1.2303 O   0  0  0  0  0  0  0  0  0  0  0  0
    8.4088    1.0765   -5.5837 C   0  0  0  0  0  0  0  0  0  0  0  0
    8.4282    1.9918   -6.1812 H   0  0  0  0  0  0  0  0  0  0  0  0
    9.3405    1.0411   -5.0060 H   0  0  0  0  0  0  0  0  0  0  0  0
    8.4187    0.2201   -6.2652 H   0  0  0  0  0  0  0  0  0  0  0  0
   -2.5791    0.4692   -1.4549 H   0  0  0  0  0  0  0  0  0  0  0  0
  1  7  1  0  0  0  0
  2  8  1  0  0  0  0
  2  1  2  0  0  0  0
  3  2  1  0  0  0  0
  4  3  2  0  0  0  0
  4  5  1  0  0  0  0
  5  6  2  0  0  0  0
  6  1  1  0  0  0  0
  6 31  1  0  0  0  0
  9  4  1  0  0  0  0
 10  5  1  0  0  0  0
 11 12  3  0  0  0  0
 13 19  1  0  0  0  0
 13 18  2  0  0  0  0
 14 13  1  0  0  0  0
 15 14  2  0  0  0  0
 15 16  1  0  0  0  0
 16 17  2  0  0  0  0
 17 18  1  0  0  0  0
 17 22  1  0  0  0  0
 18 23  1  0  0  0  0
 20 14  1  0  0  0  0
 21 16  1  0  0  0  0
 23 26  2  0  0  0  0
 23 24  2  0  0  0  0
 25  3  1  0  0  0  0
 25 23  1  0  0  0  0
 27 29  1  0  0  0  0
 27 15  1  0  0  0  0
 28 27  1  0  0  0  0
 30 27  1  0  0  0  0
M  END
