Coordinates from ORCA-job Ph-N2-OTs-B3LYPG-6-31G_dp-MTMO-d009-169-n800
 OpenBabel09051907493D

 31 30  0  0  0  0  0  0  0  0999 V2000
   -0.0398    0.0508   -1.3756 C   0  0  0  0  0  0  0  0  0  0  0  0
    0.6777    0.9828   -2.1506 C   0  0  0  0  0  0  0  0  0  0  0  0
    0.0647    2.0236   -2.5047 C   0  0  0  0  0  0  0  0  0  0  0  0
   -1.1842    2.5536   -2.3453 C   0  0  0  0  0  0  0  0  0  0  0  0
   -1.9246    1.6295   -1.5677 C   0  0  0  0  0  0  0  0  0  0  0  0
   -1.3691    0.4239   -1.1026 C   0  0  0  0  0  0  0  0  0  0  0  0
    0.3758   -0.8821   -1.0088 H   0  0  0  0  0  0  0  0  0  0  0  0
    2.5541    0.7363   -2.6739 H   0  0  0  0  0  0  0  0  0  0  0  0
   -1.5759    3.4903   -2.7177 H   0  0  0  0  0  0  0  0  0  0  0  0
   -2.9558    1.8741   -1.3270 H   0  0  0  0  0  0  0  0  0  0  0  0
    1.1437    4.5425   -4.0841 N   0  0  0  0  0  0  0  0  0  0  0  0
    1.9319    5.1844   -4.5169 N   0  0  0  0  0  0  0  0  0  0  0  0
    6.8038    1.3326   -3.0429 C   0  0  0  0  0  0  0  0  0  0  0  0
    8.0495    0.8076   -3.3820 C   0  0  0  0  0  0  0  0  0  0  0  0
    8.2617    0.1853   -4.6201 C   0  0  0  0  0  0  0  0  0  0  0  0
    7.1885    0.0991   -5.5205 C   0  0  0  0  0  0  0  0  0  0  0  0
    5.9368    0.6179   -5.2003 C   0  0  0  0  0  0  0  0  0  0  0  0
    5.7566    1.2274   -3.9577 C   0  0  0  0  0  0  0  0  0  0  0  0
    6.6405    1.8242   -2.0903 H   0  0  0  0  0  0  0  0  0  0  0  0
    8.8710    0.8855   -2.6746 H   0  0  0  0  0  0  0  0  0  0  0  0
    7.3370   -0.3780   -6.4856 H   0  0  0  0  0  0  0  0  0  0  0  0
    5.1098    0.5628   -5.9000 H   0  0  0  0  0  0  0  0  0  0  0  0
    4.1602    1.8961   -3.5355 S   0  0  0  0  0  0  0  0  0  0  0  0
    3.5052    0.5489   -2.8948 O   0  0  0  0  0  0  0  0  0  0  0  0
    3.4301    2.2366   -4.7588 O   0  0  0  0  0  0  0  0  0  0  0  0
    4.3174    2.9018   -2.4844 O   0  0  0  0  0  0  0  0  0  0  0  0
    9.6219   -0.3539   -4.9926 C   0  0  0  0  0  0  0  0  0  0  0  0
   10.1754    0.3698   -5.6043 H   0  0  0  0  0  0  0  0  0  0  0  0
   10.2263   -0.5637   -4.1059 H   0  0  0  0  0  0  0  0  0  0  0  0
    9.5404   -1.2760   -5.5762 H   0  0  0  0  0  0  0  0  0  0  0  0
   -1.9907   -0.2428   -0.5105 H   0  0  0  0  0  0  0  0  0  0  0  0
  1  6  1  0  0  0  0
  1  7  1  0  0  0  0
  2  1  2  0  0  0  0
  3  4  2  0  0  0  0
  3  2  1  0  0  0  0
  4  5  1  0  0  0  0
  5 10  1  0  0  0  0
  5  6  2  0  0  0  0
  6 31  1  0  0  0  0
  9  4  1  0  0  0  0
 12 11  3  0  0  0  0
 13 19  1  0  0  0  0
 14 13  1  0  0  0  0
 14 20  1  0  0  0  0
 15 14  2  0  0  0  0
 16 17  2  0  0  0  0
 16 15  1  0  0  0  0
 17 18  1  0  0  0  0
 18 23  1  0  0  0  0
 18 13  2  0  0  0  0
 21 16  1  0  0  0  0
 22 17  1  0  0  0  0
 23 24  1  0  0  0  0
 23 26  2  0  0  0  0
 24  8  1  0  0  0  0
 25 23  2  0  0  0  0
 27 15  1  0  0  0  0
 27 29  1  0  0  0  0
 28 27  1  0  0  0  0
 30 27  1  0  0  0  0
M  RAD  2   2   2   3   2
M  END
