Coordinates from ORCA-job Ph-N2-OTs-B3LYPG-6-31G_dp-MTMO-d009-169-n800
 OpenBabel09051907503D

 31 31  0  0  0  0  0  0  0  0999 V2000
   -0.5713    0.2021   -1.6902 C   0  0  0  0  0  0  0  0  0  0  0  0
    0.7432    0.0225   -2.1232 C   0  0  0  0  0  0  0  0  0  0  0  0
    1.4772    1.1398   -2.5184 C   0  0  0  0  0  0  0  0  0  0  0  0
    0.9344    2.4226   -2.4879 C   0  0  0  0  0  0  0  0  0  0  0  0
   -0.3828    2.5862   -2.0581 C   0  0  0  0  0  0  0  0  0  0  0  0
   -1.1356    1.4794   -1.6584 C   0  0  0  0  0  0  0  0  0  0  0  0
   -1.1542   -0.6593   -1.3784 H   0  0  0  0  0  0  0  0  0  0  0  0
    1.2033   -0.9584   -2.1552 H   0  0  0  0  0  0  0  0  0  0  0  0
    1.5418    3.2640   -2.8013 H   0  0  0  0  0  0  0  0  0  0  0  0
   -0.8190    3.5805   -2.0323 H   0  0  0  0  0  0  0  0  0  0  0  0
    3.2597    3.1009   -6.5023 N   0  0  0  0  0  0  0  0  0  0  0  0
    3.2966    3.4228   -5.4457 N   0  0  0  0  0  0  0  0  0  0  0  0
    5.9529    1.9967   -3.4167 C   0  0  0  0  0  0  0  0  0  0  0  0
    7.0203    1.9723   -4.3095 C   0  0  0  0  0  0  0  0  0  0  0  0
    7.5024    0.7620   -4.8326 C   0  0  0  0  0  0  0  0  0  0  0  0
    6.8922   -0.4335   -4.4286 C   0  0  0  0  0  0  0  0  0  0  0  0
    5.8224   -0.4316   -3.5354 C   0  0  0  0  0  0  0  0  0  0  0  0
    5.3602    0.7885   -3.0434 C   0  0  0  0  0  0  0  0  0  0  0  0
    5.5889    2.9298   -3.0017 H   0  0  0  0  0  0  0  0  0  0  0  0
    7.4918    2.9067   -4.6014 H   0  0  0  0  0  0  0  0  0  0  0  0
    7.2623   -1.3792   -4.8140 H   0  0  0  0  0  0  0  0  0  0  0  0
    5.3596   -1.3569   -3.2113 H   0  0  0  0  0  0  0  0  0  0  0  0
    4.0010    0.8056   -1.8945 S   0  0  0  0  0  0  0  0  0  0  0  0
    3.8679   -0.5074   -1.2663 O   0  0  0  0  0  0  0  0  0  0  0  0
    2.7783    0.9750   -3.0247 O   0  0  0  0  0  0  0  0  0  0  0  0
    4.0452    2.0184   -1.0821 O   0  0  0  0  0  0  0  0  0  0  0  0
    8.6434    0.7552   -5.8203 C   0  0  0  0  0  0  0  0  0  0  0  0
    8.2948    1.0376   -6.8213 H   0  0  0  0  0  0  0  0  0  0  0  0
    9.4212    1.4707   -5.5362 H   0  0  0  0  0  0  0  0  0  0  0  0
    9.1009   -0.2343   -5.8984 H   0  0  0  0  0  0  0  0  0  0  0  0
   -2.1592    1.6124   -1.3220 H   0  0  0  0  0  0  0  0  0  0  0  0
  1  6  1  0  0  0  0
  1  7  1  0  0  0  0
  2  1  2  0  0  0  0
  3  4  2  0  0  0  0
  3  2  1  0  0  0  0
  4  5  1  0  0  0  0
  5 10  1  0  0  0  0
  5  6  2  0  0  0  0
  6 31  1  0  0  0  0
  8  2  1  0  0  0  0
  9  4  1  0  0  0  0
 11 12  3  0  0  0  0
 13 18  1  0  0  0  0
 13 19  1  0  0  0  0
 14 13  2  0  0  0  0
 15 16  2  0  0  0  0
 15 14  1  0  0  0  0
 16 17  1  0  0  0  0
 17 22  1  0  0  0  0
 17 18  2  0  0  0  0
 18 23  1  0  0  0  0
 20 14  1  0  0  0  0
 21 16  1  0  0  0  0
 23 24  2  0  0  0  0
 23 26  2  0  0  0  0
 25  3  1  0  0  0  0
 25 23  1  0  0  0  0
 27 29  1  0  0  0  0
 27 15  1  0  0  0  0
 28 27  1  0  0  0  0
 30 27  1  0  0  0  0
M  END
