Coordinates from ORCA-job Ph-N2-OTs-B3LYPG-6-31G_dp-MTMO-d009-169-n800
 OpenBabel09051907503D

 31 31  0  0  0  0  0  0  0  0999 V2000
   -0.4352   -0.1288   -1.6271 C   0  0  0  0  0  0  0  0  0  0  0  0
    0.8878   -0.1844   -2.0670 C   0  0  0  0  0  0  0  0  0  0  0  0
    1.4444    0.9429   -2.6675 C   0  0  0  0  0  0  0  0  0  0  0  0
    0.7196    2.1227   -2.8293 C   0  0  0  0  0  0  0  0  0  0  0  0
   -0.6018    2.1645   -2.3823 C   0  0  0  0  0  0  0  0  0  0  0  0
   -1.1803    1.0425   -1.7839 C   0  0  0  0  0  0  0  0  0  0  0  0
   -0.8816   -1.0012   -1.1595 H   0  0  0  0  0  0  0  0  0  0  0  0
    1.4894   -1.0791   -1.9521 H   0  0  0  0  0  0  0  0  0  0  0  0
    1.1912    2.9822   -3.2918 H   0  0  0  0  0  0  0  0  0  0  0  0
   -1.1789    3.0766   -2.5030 H   0  0  0  0  0  0  0  0  0  0  0  0
    4.1804    5.8464   -3.8868 N   0  0  0  0  0  0  0  0  0  0  0  0
    3.1365    5.4911   -3.8130 N   0  0  0  0  0  0  0  0  0  0  0  0
    5.8368    2.0031   -4.1003 C   0  0  0  0  0  0  0  0  0  0  0  0
    6.9106    1.6957   -4.9324 C   0  0  0  0  0  0  0  0  0  0  0  0
    7.4876    0.4171   -4.9315 C   0  0  0  0  0  0  0  0  0  0  0  0
    6.9669   -0.5532   -4.0622 C   0  0  0  0  0  0  0  0  0  0  0  0
    5.8950   -0.2661   -3.2210 C   0  0  0  0  0  0  0  0  0  0  0  0
    5.3364    1.0124   -3.2548 C   0  0  0  0  0  0  0  0  0  0  0  0
    5.4006    2.9955   -4.0907 H   0  0  0  0  0  0  0  0  0  0  0  0
    7.3119    2.4638   -5.5879 H   0  0  0  0  0  0  0  0  0  0  0  0
    7.4121   -1.5440   -4.0381 H   0  0  0  0  0  0  0  0  0  0  0  0
    5.5046   -1.0117   -2.5371 H   0  0  0  0  0  0  0  0  0  0  0  0
    3.9771    1.3960   -2.1715 S   0  0  0  0  0  0  0  0  0  0  0  0
    4.0133    0.5294   -0.9959 O   0  0  0  0  0  0  0  0  0  0  0  0
    2.7523    0.8629   -3.1776 O   0  0  0  0  0  0  0  0  0  0  0  0
    3.8560    2.8454   -2.0235 O   0  0  0  0  0  0  0  0  0  0  0  0
    8.6323    0.0882   -5.8589 C   0  0  0  0  0  0  0  0  0  0  0  0
    8.2593   -0.2718   -6.8255 H   0  0  0  0  0  0  0  0  0  0  0  0
    9.2521    0.9674   -6.0567 H   0  0  0  0  0  0  0  0  0  0  0  0
    9.2721   -0.6960   -5.4440 H   0  0  0  0  0  0  0  0  0  0  0  0
   -2.2089    1.0811   -1.4387 H   0  0  0  0  0  0  0  0  0  0  0  0
  1  7  1  0  0  0  0
  2  8  1  0  0  0  0
  2  1  2  0  0  0  0
  3  2  1  0  0  0  0
  4  3  2  0  0  0  0
  4  5  1  0  0  0  0
  5  6  2  0  0  0  0
  6  1  1  0  0  0  0
  6 31  1  0  0  0  0
  9  4  1  0  0  0  0
 10  5  1  0  0  0  0
 11 12  3  0  0  0  0
 13 19  1  0  0  0  0
 13 18  2  0  0  0  0
 14 15  2  0  0  0  0
 14 13  1  0  0  0  0
 15 16  1  0  0  0  0
 16 21  1  0  0  0  0
 16 17  2  0  0  0  0
 17 22  1  0  0  0  0
 18 17  1  0  0  0  0
 18 23  1  0  0  0  0
 20 14  1  0  0  0  0
 23 26  2  0  0  0  0
 23 24  2  0  0  0  0
 25  3  1  0  0  0  0
 25 23  1  0  0  0  0
 27 30  1  0  0  0  0
 27 15  1  0  0  0  0
 28 27  1  0  0  0  0
 29 27  1  0  0  0  0
M  END
