Coordinates from ORCA-job Ph-N2-OTs-B3LYPG-6-31G_dp-MTMO-d009-169-n800
 OpenBabel09051907503D

 31 31  0  0  0  0  0  0  0  0999 V2000
   -0.7054   -1.0717   -1.4021 C   0  0  0  0  0  0  0  0  0  0  0  0
    0.5922   -0.8436   -1.8618 C   0  0  0  0  0  0  0  0  0  0  0  0
    0.9150    0.4149   -2.3659 C   0  0  0  0  0  0  0  0  0  0  0  0
   -0.0200    1.4472   -2.4137 C   0  0  0  0  0  0  0  0  0  0  0  0
   -1.3140    1.2051   -1.9511 C   0  0  0  0  0  0  0  0  0  0  0  0
   -1.6581   -0.0511   -1.4463 C   0  0  0  0  0  0  0  0  0  0  0  0
   -0.9701   -2.0479   -1.0072 H   0  0  0  0  0  0  0  0  0  0  0  0
    1.3503   -1.6182   -1.8341 H   0  0  0  0  0  0  0  0  0  0  0  0
    0.2727    2.4142   -2.8065 H   0  0  0  0  0  0  0  0  0  0  0  0
   -2.0525    2.0007   -1.9846 H   0  0  0  0  0  0  0  0  0  0  0  0
   12.7618    4.9960   -7.4892 N   0  0  0  0  0  0  0  0  0  0  0  0
   11.7689    4.6017   -7.2059 N   0  0  0  0  0  0  0  0  0  0  0  0
    4.9539    2.4827   -3.6523 C   0  0  0  0  0  0  0  0  0  0  0  0
    6.0128    2.5466   -4.5547 C   0  0  0  0  0  0  0  0  0  0  0  0
    6.8197    1.4273   -4.8079 C   0  0  0  0  0  0  0  0  0  0  0  0
    6.5471    0.2345   -4.1213 C   0  0  0  0  0  0  0  0  0  0  0  0
    5.4942    0.1497   -3.2139 C   0  0  0  0  0  0  0  0  0  0  0  0
    4.7028    1.2780   -2.9943 C   0  0  0  0  0  0  0  0  0  0  0  0
    4.3381    3.3508   -3.4454 H   0  0  0  0  0  0  0  0  0  0  0  0
    6.2204    3.4821   -5.0666 H   0  0  0  0  0  0  0  0  0  0  0  0
    7.1716   -0.6378   -4.2952 H   0  0  0  0  0  0  0  0  0  0  0  0
    5.2938   -0.7679   -2.6718 H   0  0  0  0  0  0  0  0  0  0  0  0
    3.3607    1.1867   -1.8289 S   0  0  0  0  0  0  0  0  0  0  0  0
    3.6210    0.1350   -0.8487 O   0  0  0  0  0  0  0  0  0  0  0  0
    2.1981    0.6307   -2.8972 O   0  0  0  0  0  0  0  0  0  0  0  0
    2.9839    2.5305   -1.3968 O   0  0  0  0  0  0  0  0  0  0  0  0
    7.9438    1.4997   -5.8122 C   0  0  0  0  0  0  0  0  0  0  0  0
    8.3716    2.5048   -5.8651 H   0  0  0  0  0  0  0  0  0  0  0  0
    8.7465    0.7986   -5.5669 H   0  0  0  0  0  0  0  0  0  0  0  0
    7.5845    1.2455   -6.8173 H   0  0  0  0  0  0  0  0  0  0  0  0
   -2.6660   -0.2339   -1.0864 H   0  0  0  0  0  0  0  0  0  0  0  0
  1  7  1  0  0  0  0
  2  8  1  0  0  0  0
  2  1  2  0  0  0  0
  3  2  1  0  0  0  0
  4  3  2  0  0  0  0
  4  5  1  0  0  0  0
  5  6  2  0  0  0  0
  6  1  1  0  0  0  0
  6 31  1  0  0  0  0
  9  4  1  0  0  0  0
 10  5  1  0  0  0  0
 11 12  3  0  0  0  0
 13 19  1  0  0  0  0
 13 18  2  0  0  0  0
 14 13  1  0  0  0  0
 15 14  2  0  0  0  0
 15 16  1  0  0  0  0
 16 17  2  0  0  0  0
 17 18  1  0  0  0  0
 17 22  1  0  0  0  0
 18 23  1  0  0  0  0
 20 14  1  0  0  0  0
 21 16  1  0  0  0  0
 23 26  2  0  0  0  0
 23 24  2  0  0  0  0
 25  3  1  0  0  0  0
 25 23  1  0  0  0  0
 27 29  1  0  0  0  0
 27 15  1  0  0  0  0
 28 27  1  0  0  0  0
 30 27  1  0  0  0  0
M  END
