Coordinates from ORCA-job Ph-N2-OTs-B3LYPG-6-31G_dp-MTMO-d009-169-n800
 OpenBabel09051907493D

 31 30  0  0  0  0  0  0  0  0999 V2000
    0.0626    0.1333   -1.5044 C   0  0  0  0  0  0  0  0  0  0  0  0
    0.7030    1.1563   -2.2372 C   0  0  0  0  0  0  0  0  0  0  0  0
    0.0103    2.1880   -2.4541 C   0  0  0  0  0  0  0  0  0  0  0  0
   -1.2479    2.6395   -2.1811 C   0  0  0  0  0  0  0  0  0  0  0  0
   -1.8998    1.6201   -1.4462 C   0  0  0  0  0  0  0  0  0  0  0  0
   -1.2618    0.4096   -1.1215 C   0  0  0  0  0  0  0  0  0  0  0  0
    0.5416   -0.8062   -1.2464 H   0  0  0  0  0  0  0  0  0  0  0  0
    2.5025    0.8793   -2.8328 H   0  0  0  0  0  0  0  0  0  0  0  0
   -1.7003    3.5841   -2.4513 H   0  0  0  0  0  0  0  0  0  0  0  0
   -2.9245    1.7928   -1.1283 H   0  0  0  0  0  0  0  0  0  0  0  0
    0.9932    4.3612   -3.7664 N   0  0  0  0  0  0  0  0  0  0  0  0
    1.8417    4.9509   -4.1579 N   0  0  0  0  0  0  0  0  0  0  0  0
    6.7335    1.3716   -3.1246 C   0  0  0  0  0  0  0  0  0  0  0  0
    7.9911    0.8233   -3.3683 C   0  0  0  0  0  0  0  0  0  0  0  0
    8.2683    0.1478   -4.5654 C   0  0  0  0  0  0  0  0  0  0  0  0
    7.2482    0.0322   -5.5219 C   0  0  0  0  0  0  0  0  0  0  0  0
    5.9852    0.5738   -5.2970 C   0  0  0  0  0  0  0  0  0  0  0  0
    5.7396    1.2364   -4.0936 C   0  0  0  0  0  0  0  0  0  0  0  0
    6.5211    1.9043   -2.2044 H   0  0  0  0  0  0  0  0  0  0  0  0
    8.7710    0.9248   -2.6181 H   0  0  0  0  0  0  0  0  0  0  0  0
    7.4474   -0.4859   -6.4562 H   0  0  0  0  0  0  0  0  0  0  0  0
    5.1992    0.4959   -6.0405 H   0  0  0  0  0  0  0  0  0  0  0  0
    4.1280    1.9349   -3.7947 S   0  0  0  0  0  0  0  0  0  0  0  0
    3.4363    0.6405   -3.0934 O   0  0  0  0  0  0  0  0  0  0  0  0
    3.4646    2.1961   -5.0736 O   0  0  0  0  0  0  0  0  0  0  0  0
    4.2369    3.0107   -2.8072 O   0  0  0  0  0  0  0  0  0  0  0  0
    9.6429   -0.4153   -4.8355 C   0  0  0  0  0  0  0  0  0  0  0  0
   10.2495    0.2941   -5.4128 H   0  0  0  0  0  0  0  0  0  0  0  0
   10.1800   -0.6243   -3.9063 H   0  0  0  0  0  0  0  0  0  0  0  0
    9.5894   -1.3422   -5.4145 H   0  0  0  0  0  0  0  0  0  0  0  0
   -1.8133   -0.3370   -0.5560 H   0  0  0  0  0  0  0  0  0  0  0  0
  1  7  1  0  0  0  0
  1  6  2  0  0  0  0
  2  1  1  0  0  0  0
  3  2  2  0  0  0  0
  3  4  1  0  0  0  0
  4  5  2  0  0  0  0
  5 10  1  0  0  0  0
  5  6  1  0  0  0  0
  6 31  1  0  0  0  0
  9  4  1  0  0  0  0
 12 11  3  0  0  0  0
 13 19  1  0  0  0  0
 14 13  1  0  0  0  0
 14 20  1  0  0  0  0
 15 14  2  0  0  0  0
 16 17  2  0  0  0  0
 16 15  1  0  0  0  0
 17 18  1  0  0  0  0
 18 23  1  0  0  0  0
 18 13  2  0  0  0  0
 21 16  1  0  0  0  0
 22 17  1  0  0  0  0
 23 24  1  0  0  0  0
 23 26  2  0  0  0  0
 24  8  1  0  0  0  0
 25 23  2  0  0  0  0
 27 15  1  0  0  0  0
 27 29  1  0  0  0  0
 28 27  1  0  0  0  0
 30 27  1  0  0  0  0
M  RAD  2   2   2   3   2
M  END
