Coordinates from ORCA-job Ph-N2-OTs-B3LYPG-6-31G_dp-MTMO-d009-169-n800
 OpenBabel09051907493D

 31 30  0  0  0  0  0  0  0  0999 V2000
    0.1749    0.2549   -1.5910 C   0  0  0  0  0  0  0  0  0  0  0  0
    0.7663    1.3193   -2.3181 C   0  0  0  0  0  0  0  0  0  0  0  0
   -0.0227    2.3038   -2.4869 C   0  0  0  0  0  0  0  0  0  0  0  0
   -1.3047    2.6566   -2.1799 C   0  0  0  0  0  0  0  0  0  0  0  0
   -1.8814    1.5893   -1.4581 C   0  0  0  0  0  0  0  0  0  0  0  0
   -1.1545    0.4201   -1.1738 C   0  0  0  0  0  0  0  0  0  0  0  0
    0.7200   -0.6569   -1.3628 H   0  0  0  0  0  0  0  0  0  0  0  0
    2.4781    1.0213   -2.8619 H   0  0  0  0  0  0  0  0  0  0  0  0
   -1.8174    3.5772   -2.4254 H   0  0  0  0  0  0  0  0  0  0  0  0
   -2.9089    1.6883   -1.1201 H   0  0  0  0  0  0  0  0  0  0  0  0
    0.7991    4.0829   -3.5753 N   0  0  0  0  0  0  0  0  0  0  0  0
    1.6702    4.6421   -3.9645 N   0  0  0  0  0  0  0  0  0  0  0  0
    6.7397    1.3917   -3.1306 C   0  0  0  0  0  0  0  0  0  0  0  0
    7.9839    0.8077   -3.3601 C   0  0  0  0  0  0  0  0  0  0  0  0
    8.2507    0.1120   -4.5480 C   0  0  0  0  0  0  0  0  0  0  0  0
    7.2338    0.0132   -5.5096 C   0  0  0  0  0  0  0  0  0  0  0  0
    5.9840    0.5903   -5.2984 C   0  0  0  0  0  0  0  0  0  0  0  0
    5.7483    1.2723   -4.1041 C   0  0  0  0  0  0  0  0  0  0  0  0
    6.5358    1.9401   -2.2177 H   0  0  0  0  0  0  0  0  0  0  0  0
    8.7616    0.8968   -2.6058 H   0  0  0  0  0  0  0  0  0  0  0  0
    7.4249   -0.5201   -6.4371 H   0  0  0  0  0  0  0  0  0  0  0  0
    5.2008    0.5252   -6.0460 H   0  0  0  0  0  0  0  0  0  0  0  0
    4.1523    2.0145   -3.8217 S   0  0  0  0  0  0  0  0  0  0  0  0
    3.4226    0.7581   -3.1085 O   0  0  0  0  0  0  0  0  0  0  0  0
    3.5054    2.2799   -5.1097 O   0  0  0  0  0  0  0  0  0  0  0  0
    4.2888    3.1061   -2.8535 O   0  0  0  0  0  0  0  0  0  0  0  0
    9.6117   -0.4901   -4.8030 C   0  0  0  0  0  0  0  0  0  0  0  0
   10.2438    0.2000   -5.3762 H   0  0  0  0  0  0  0  0  0  0  0  0
   10.1336   -0.7113   -3.8679 H   0  0  0  0  0  0  0  0  0  0  0  0
    9.5379   -1.4171   -5.3796 H   0  0  0  0  0  0  0  0  0  0  0  0
   -1.6387   -0.3775   -0.6165 H   0  0  0  0  0  0  0  0  0  0  0  0
  1  7  1  0  0  0  0
  1  6  2  0  0  0  0
  2  1  1  0  0  0  0
  3  2  2  0  0  0  0
  3  4  1  0  0  0  0
  4  5  2  0  0  0  0
  5  6  1  0  0  0  0
  5 10  1  0  0  0  0
  6 31  1  0  0  0  0
  9  4  1  0  0  0  0
 12 11  3  0  0  0  0
 13 19  1  0  0  0  0
 14 13  1  0  0  0  0
 14 20  1  0  0  0  0
 15 14  2  0  0  0  0
 16 17  2  0  0  0  0
 16 15  1  0  0  0  0
 17 18  1  0  0  0  0
 18 23  1  0  0  0  0
 18 13  2  0  0  0  0
 21 16  1  0  0  0  0
 22 17  1  0  0  0  0
 23 24  1  0  0  0  0
 23 26  2  0  0  0  0
 24  8  1  0  0  0  0
 25 23  2  0  0  0  0
 27 15  1  0  0  0  0
 27 29  1  0  0  0  0
 28 27  1  0  0  0  0
 30 27  1  0  0  0  0
M  RAD  2   2   2   3   2
M  END
