Coordinates from ORCA-job Ph-N2-OTs-B3LYPG-6-31G_dp-MTMO-d009-169-n800
 OpenBabel09051907503D

 31 31  0  0  0  0  0  0  0  0999 V2000
   -0.6359   -0.3180   -1.3468 C   0  0  0  0  0  0  0  0  0  0  0  0
    0.7049   -0.3786   -1.7295 C   0  0  0  0  0  0  0  0  0  0  0  0
    1.2088    0.6168   -2.5659 C   0  0  0  0  0  0  0  0  0  0  0  0
    0.4094    1.6617   -3.0243 C   0  0  0  0  0  0  0  0  0  0  0  0
   -0.9315    1.7042   -2.6413 C   0  0  0  0  0  0  0  0  0  0  0  0
   -1.4549    0.7180   -1.8016 C   0  0  0  0  0  0  0  0  0  0  0  0
   -1.0402   -1.0857   -0.6933 H   0  0  0  0  0  0  0  0  0  0  0  0
    1.3582   -1.1733   -1.3886 H   0  0  0  0  0  0  0  0  0  0  0  0
    0.8416    2.4189   -3.6695 H   0  0  0  0  0  0  0  0  0  0  0  0
   -1.5651    2.5119   -2.9956 H   0  0  0  0  0  0  0  0  0  0  0  0
    7.1422    6.8391   -5.4549 N   0  0  0  0  0  0  0  0  0  0  0  0
    7.0655    5.7370   -5.4285 N   0  0  0  0  0  0  0  0  0  0  0  0
    5.5219    2.0761   -3.7150 C   0  0  0  0  0  0  0  0  0  0  0  0
    6.6013    2.0003   -4.5911 C   0  0  0  0  0  0  0  0  0  0  0  0
    7.2614    0.7839   -4.8234 C   0  0  0  0  0  0  0  0  0  0  0  0
    6.8134   -0.3630   -4.1518 C   0  0  0  0  0  0  0  0  0  0  0  0
    5.7377   -0.3075   -3.2684 C   0  0  0  0  0  0  0  0  0  0  0  0
    5.0989    0.9161   -3.0643 C   0  0  0  0  0  0  0  0  0  0  0  0
    5.0162    3.0166   -3.5268 H   0  0  0  0  0  0  0  0  0  0  0  0
    6.9365    2.9004   -5.0983 H   0  0  0  0  0  0  0  0  0  0  0  0
    7.3155   -1.3116   -4.3204 H   0  0  0  0  0  0  0  0  0  0  0  0
    5.4009   -1.1920   -2.7395 H   0  0  0  0  0  0  0  0  0  0  0  0
    3.7252    1.0071   -1.9374 S   0  0  0  0  0  0  0  0  0  0  0  0
    3.8473   -0.0374   -0.9220 O   0  0  0  0  0  0  0  0  0  0  0  0
    2.5362    0.5468   -3.0211 O   0  0  0  0  0  0  0  0  0  0  0  0
    3.4844    2.3950   -1.5512 O   0  0  0  0  0  0  0  0  0  0  0  0
    8.4471    0.7214   -5.7554 C   0  0  0  0  0  0  0  0  0  0  0  0
    8.3084    1.3741   -6.6223 H   0  0  0  0  0  0  0  0  0  0  0  0
    9.3615    1.0497   -5.2460 H   0  0  0  0  0  0  0  0  0  0  0  0
    8.6203   -0.2954   -6.1168 H   0  0  0  0  0  0  0  0  0  0  0  0
   -2.4974    0.7579   -1.5009 H   0  0  0  0  0  0  0  0  0  0  0  0
  1  7  1  0  0  0  0
  2  8  1  0  0  0  0
  2  1  1  0  0  0  0
  3  2  2  0  0  0  0
  4  5  2  0  0  0  0
  4  3  1  0  0  0  0
  5  6  1  0  0  0  0
  6 31  1  0  0  0  0
  6  1  2  0  0  0  0
  9  4  1  0  0  0  0
 10  5  1  0  0  0  0
 11 12  3  0  0  0  0
 13 19  1  0  0  0  0
 13 18  2  0  0  0  0
 14 13  1  0  0  0  0
 15 14  2  0  0  0  0
 15 16  1  0  0  0  0
 16 17  2  0  0  0  0
 17 18  1  0  0  0  0
 17 22  1  0  0  0  0
 18 23  1  0  0  0  0
 20 14  1  0  0  0  0
 21 16  1  0  0  0  0
 23 26  2  0  0  0  0
 23 24  2  0  0  0  0
 25  3  1  0  0  0  0
 25 23  1  0  0  0  0
 27 29  1  0  0  0  0
 27 15  1  0  0  0  0
 28 27  1  0  0  0  0
 30 27  1  0  0  0  0
M  END
