Coordinates from ORCA-job Ph-N2-OTs-B3LYPG-6-31G_dp-MTMO-d009-169-n800
 OpenBabel09051907503D

 31 31  0  0  0  0  0  0  0  0999 V2000
   -0.7113   -0.8694   -1.5502 C   0  0  0  0  0  0  0  0  0  0  0  0
    0.6060   -0.7187   -1.9848 C   0  0  0  0  0  0  0  0  0  0  0  0
    1.0243    0.5301   -2.4410 C   0  0  0  0  0  0  0  0  0  0  0  0
    0.1649    1.6269   -2.4656 C   0  0  0  0  0  0  0  0  0  0  0  0
   -1.1500    1.4618   -2.0291 C   0  0  0  0  0  0  0  0  0  0  0  0
   -1.5893    0.2169   -1.5720 C   0  0  0  0  0  0  0  0  0  0  0  0
   -1.0501   -1.8370   -1.1923 H   0  0  0  0  0  0  0  0  0  0  0  0
    1.3074   -1.5452   -1.9734 H   0  0  0  0  0  0  0  0  0  0  0  0
    0.5316    2.5831   -2.8209 H   0  0  0  0  0  0  0  0  0  0  0  0
   -1.8301    2.3083   -2.0451 H   0  0  0  0  0  0  0  0  0  0  0  0
   10.4349    5.5610   -7.2719 N   0  0  0  0  0  0  0  0  0  0  0  0
    9.6735    4.8696   -6.8674 N   0  0  0  0  0  0  0  0  0  0  0  0
    5.2374    2.3559   -3.5559 C   0  0  0  0  0  0  0  0  0  0  0  0
    6.3131    2.3886   -4.4424 C   0  0  0  0  0  0  0  0  0  0  0  0
    7.0256    1.2250   -4.7614 C   0  0  0  0  0  0  0  0  0  0  0  0
    6.6387    0.0147   -4.1626 C   0  0  0  0  0  0  0  0  0  0  0  0
    5.5701   -0.0394   -3.2739 C   0  0  0  0  0  0  0  0  0  0  0  0
    4.8750    1.1373   -2.9841 C   0  0  0  0  0  0  0  0  0  0  0  0
    4.6930    3.2576   -3.2989 H   0  0  0  0  0  0  0  0  0  0  0  0
    6.6068    3.3335   -4.8900 H   0  0  0  0  0  0  0  0  0  0  0  0
    7.1868   -0.8949   -4.3928 H   0  0  0  0  0  0  0  0  0  0  0  0
    5.2819   -0.9707   -2.7994 H   0  0  0  0  0  0  0  0  0  0  0  0
    3.5129    1.0840   -1.8401 S   0  0  0  0  0  0  0  0  0  0  0  0
    3.6809   -0.0354   -0.9162 O   0  0  0  0  0  0  0  0  0  0  0  0
    2.3272    0.6741   -2.9476 O   0  0  0  0  0  0  0  0  0  0  0  0
    3.2301    2.4269   -1.3388 O   0  0  0  0  0  0  0  0  0  0  0  0
    8.1864    1.2620   -5.7253 C   0  0  0  0  0  0  0  0  0  0  0  0
    8.4055    2.2804   -6.0537 H   0  0  0  0  0  0  0  0  0  0  0  0
    9.0928    0.8511   -5.2672 H   0  0  0  0  0  0  0  0  0  0  0  0
    7.9767    0.6585   -6.6159 H   0  0  0  0  0  0  0  0  0  0  0  0
   -2.6131    0.0941   -1.2319 H   0  0  0  0  0  0  0  0  0  0  0  0
  1  7  1  0  0  0  0
  2  8  1  0  0  0  0
  2  1  2  0  0  0  0
  3  2  1  0  0  0  0
  4  3  2  0  0  0  0
  4  5  1  0  0  0  0
  5  6  2  0  0  0  0
  6  1  1  0  0  0  0
  6 31  1  0  0  0  0
  9  4  1  0  0  0  0
 10  5  1  0  0  0  0
 11 12  3  0  0  0  0
 13 19  1  0  0  0  0
 13 18  2  0  0  0  0
 14 13  1  0  0  0  0
 15 14  2  0  0  0  0
 15 16  1  0  0  0  0
 16 17  2  0  0  0  0
 17 18  1  0  0  0  0
 17 22  1  0  0  0  0
 18 23  1  0  0  0  0
 20 14  1  0  0  0  0
 21 16  1  0  0  0  0
 23 26  2  0  0  0  0
 23 24  2  0  0  0  0
 25  3  1  0  0  0  0
 25 23  1  0  0  0  0
 27 29  1  0  0  0  0
 27 15  1  0  0  0  0
 28 27  1  0  0  0  0
 30 27  1  0  0  0  0
M  END
