Coordinates from ORCA-job Ph-N2-OTs-B3LYPG-6-31G_dp-MTMO-d009-169-n800
 OpenBabel09051907493D

 31 30  0  0  0  0  0  0  0  0999 V2000
    0.0694    0.1912   -1.7754 C   0  0  0  0  0  0  0  0  0  0  0  0
    1.0263    1.1840   -2.1035 C   0  0  0  0  0  0  0  0  0  0  0  0
    0.4006    2.2414   -2.6296 C   0  0  0  0  0  0  0  0  0  0  0  0
   -0.8750    2.6031   -2.9338 C   0  0  0  0  0  0  0  0  0  0  0  0
   -1.7670    1.5679   -2.5901 C   0  0  0  0  0  0  0  0  0  0  0  0
   -1.2928    0.3823   -2.0186 C   0  0  0  0  0  0  0  0  0  0  0  0
    0.4344   -0.7299   -1.3310 H   0  0  0  0  0  0  0  0  0  0  0  0
    2.1334    1.0671   -1.9301 H   0  0  0  0  0  0  0  0  0  0  0  0
   -1.1822    3.5403   -3.3762 H   0  0  0  0  0  0  0  0  0  0  0  0
   -2.8255    1.7151   -2.7818 H   0  0  0  0  0  0  0  0  0  0  0  0
    1.6528    3.7886   -3.0828 N   0  0  0  0  0  0  0  0  0  0  0  0
    1.9097    4.8596   -3.1965 N   0  0  0  0  0  0  0  0  0  0  0  0
    6.9341    2.0430   -3.6510 C   0  0  0  0  0  0  0  0  0  0  0  0
    8.0418    1.4634   -4.2722 C   0  0  0  0  0  0  0  0  0  0  0  0
    8.0140    0.1338   -4.7100 C   0  0  0  0  0  0  0  0  0  0  0  0
    6.8432   -0.6117   -4.5000 C   0  0  0  0  0  0  0  0  0  0  0  0
    5.7313   -0.0466   -3.8813 C   0  0  0  0  0  0  0  0  0  0  0  0
    5.7811    1.2843   -3.4606 C   0  0  0  0  0  0  0  0  0  0  0  0
    6.9570    3.0677   -3.2975 H   0  0  0  0  0  0  0  0  0  0  0  0
    8.9442    2.0533   -4.4135 H   0  0  0  0  0  0  0  0  0  0  0  0
    6.8072   -1.6499   -4.8210 H   0  0  0  0  0  0  0  0  0  0  0  0
    4.8361   -0.6336   -3.7052 H   0  0  0  0  0  0  0  0  0  0  0  0
    4.3419    2.0442   -2.6972 S   0  0  0  0  0  0  0  0  0  0  0  0
    3.8097    1.0004   -1.7436 O   0  0  0  0  0  0  0  0  0  0  0  0
    3.3599    2.2648   -3.8170 O   0  0  0  0  0  0  0  0  0  0  0  0
    4.7936    3.2899   -2.0478 O   0  0  0  0  0  0  0  0  0  0  0  0
    9.2053   -0.4829   -5.4047 C   0  0  0  0  0  0  0  0  0  0  0  0
    9.0714   -0.4865   -6.4942 H   0  0  0  0  0  0  0  0  0  0  0  0
   10.1241    0.0705   -5.1900 H   0  0  0  0  0  0  0  0  0  0  0  0
    9.3561   -1.5221   -5.0950 H   0  0  0  0  0  0  0  0  0  0  0  0
   -1.9964   -0.4022   -1.7603 H   0  0  0  0  0  0  0  0  0  0  0  0
  1  7  1  0  0  0  0
  2  8  1  0  0  0  0
  2  1  2  0  0  0  0
  3  2  1  0  0  0  0
  4  3  2  0  0  0  0
  4  5  1  0  0  0  0
  5  6  2  0  0  0  0
  6  1  1  0  0  0  0
  6 31  1  0  0  0  0
  9  4  1  0  0  0  0
 10  5  1  0  0  0  0
 12 11  3  0  0  0  0
 13 18  1  0  0  0  0
 13 19  1  0  0  0  0
 14 13  2  0  0  0  0
 15 16  2  0  0  0  0
 15 14  1  0  0  0  0
 16 17  1  0  0  0  0
 17 22  1  0  0  0  0
 17 18  2  0  0  0  0
 18 23  1  0  0  0  0
 20 14  1  0  0  0  0
 21 16  1  0  0  0  0
 23 26  2  0  0  0  0
 23 24  1  0  0  0  0
 25 23  2  0  0  0  0
 27 29  1  0  0  0  0
 27 30  1  0  0  0  0
 27 15  1  0  0  0  0
 28 27  1  0  0  0  0
M  RAD  2   3   2  24   2
M  END
