Coordinates from ORCA-job Ph-N2-OTs-B3LYPG-6-31G_dp-MTMO-d009-169-n800
 OpenBabel09051907503D

 31 31  0  0  0  0  0  0  0  0999 V2000
   -0.7568   -1.0646   -1.3993 C   0  0  0  0  0  0  0  0  0  0  0  0
    0.5451   -0.8493   -1.8528 C   0  0  0  0  0  0  0  0  0  0  0  0
    0.8829    0.4065   -2.3541 C   0  0  0  0  0  0  0  0  0  0  0  0
   -0.0414    1.4482   -2.4052 C   0  0  0  0  0  0  0  0  0  0  0  0
   -1.3399    1.2188   -1.9489 C   0  0  0  0  0  0  0  0  0  0  0  0
   -1.6990   -0.0344   -1.4469 C   0  0  0  0  0  0  0  0  0  0  0  0
   -1.0333   -2.0385   -1.0067 H   0  0  0  0  0  0  0  0  0  0  0  0
    1.2952   -1.6315   -1.8224 H   0  0  0  0  0  0  0  0  0  0  0  0
    0.2629    2.4125   -2.7956 H   0  0  0  0  0  0  0  0  0  0  0  0
   -2.0702    2.0218   -1.9850 H   0  0  0  0  0  0  0  0  0  0  0  0
   13.1544    5.3693   -7.7560 N   0  0  0  0  0  0  0  0  0  0  0  0
   12.1802    4.9035   -7.5199 N   0  0  0  0  0  0  0  0  0  0  0  0
    4.9410    2.4466   -3.6160 C   0  0  0  0  0  0  0  0  0  0  0  0
    6.0019    2.5077   -4.5167 C   0  0  0  0  0  0  0  0  0  0  0  0
    6.7995    1.3838   -4.7763 C   0  0  0  0  0  0  0  0  0  0  0  0
    6.5161    0.1883   -4.0980 C   0  0  0  0  0  0  0  0  0  0  0  0
    5.4616    0.1063   -3.1928 C   0  0  0  0  0  0  0  0  0  0  0  0
    4.6792    1.2400   -2.9666 C   0  0  0  0  0  0  0  0  0  0  0  0
    4.3321    3.3184   -3.4044 H   0  0  0  0  0  0  0  0  0  0  0  0
    6.2181    3.4448   -5.0220 H   0  0  0  0  0  0  0  0  0  0  0  0
    7.1336   -0.6879   -4.2771 H   0  0  0  0  0  0  0  0  0  0  0  0
    5.2526   -0.8132   -2.6572 H   0  0  0  0  0  0  0  0  0  0  0  0
    3.3338    1.1521   -1.8050 S   0  0  0  0  0  0  0  0  0  0  0  0
    3.5843    0.0934   -0.8297 O   0  0  0  0  0  0  0  0  0  0  0  0
    2.1705    0.6098   -2.8793 O   0  0  0  0  0  0  0  0  0  0  0  0
    2.9652    2.4962   -1.3668 O   0  0  0  0  0  0  0  0  0  0  0  0
    7.9266    1.4518   -5.7776 C   0  0  0  0  0  0  0  0  0  0  0  0
    8.3087    2.4706   -5.8834 H   0  0  0  0  0  0  0  0  0  0  0  0
    8.7580    0.8021   -5.4897 H   0  0  0  0  0  0  0  0  0  0  0  0
    7.5871    1.1251   -6.7684 H   0  0  0  0  0  0  0  0  0  0  0  0
   -2.7104   -0.2073   -1.0919 H   0  0  0  0  0  0  0  0  0  0  0  0
  1  7  1  0  0  0  0
  2  8  1  0  0  0  0
  2  1  2  0  0  0  0
  3  2  1  0  0  0  0
  4  3  2  0  0  0  0
  4  5  1  0  0  0  0
  5  6  2  0  0  0  0
  6  1  1  0  0  0  0
  6 31  1  0  0  0  0
  9  4  1  0  0  0  0
 10  5  1  0  0  0  0
 11 12  3  0  0  0  0
 13 19  1  0  0  0  0
 13 18  2  0  0  0  0
 14 13  1  0  0  0  0
 15 14  2  0  0  0  0
 15 16  1  0  0  0  0
 16 17  2  0  0  0  0
 17 18  1  0  0  0  0
 17 22  1  0  0  0  0
 18 23  1  0  0  0  0
 20 14  1  0  0  0  0
 21 16  1  0  0  0  0
 23 26  2  0  0  0  0
 23 24  2  0  0  0  0
 25  3  1  0  0  0  0
 25 23  1  0  0  0  0
 27 29  1  0  0  0  0
 27 15  1  0  0  0  0
 28 27  1  0  0  0  0
 30 27  1  0  0  0  0
M  END
