Coordinates from ORCA-job Ph-N2-OTs-B3LYPG-6-31G_dp-MTMO-d009-169-n800
 OpenBabel09051907503D

 31 31  0  0  0  0  0  0  0  0999 V2000
   -0.4309   -0.1879   -1.5645 C   0  0  0  0  0  0  0  0  0  0  0  0
    0.8910   -0.2237   -2.0099 C   0  0  0  0  0  0  0  0  0  0  0  0
    1.4073    0.8884   -2.6718 C   0  0  0  0  0  0  0  0  0  0  0  0
    0.6430    2.0336   -2.8897 C   0  0  0  0  0  0  0  0  0  0  0  0
   -0.6770    2.0561   -2.4375 C   0  0  0  0  0  0  0  0  0  0  0  0
   -1.2151    0.9486   -1.7773 C   0  0  0  0  0  0  0  0  0  0  0  0
   -0.8462   -1.0487   -1.0489 H   0  0  0  0  0  0  0  0  0  0  0  0
    1.5218   -1.0912   -1.8524 H   0  0  0  0  0  0  0  0  0  0  0  0
    1.0851    2.8820   -3.3997 H   0  0  0  0  0  0  0  0  0  0  0  0
   -1.2845    2.9411   -2.6022 H   0  0  0  0  0  0  0  0  0  0  0  0
    4.7304    6.1113   -3.6466 N   0  0  0  0  0  0  0  0  0  0  0  0
    3.6926    5.7540   -3.7777 N   0  0  0  0  0  0  0  0  0  0  0  0
    5.7669    2.0067   -4.1671 C   0  0  0  0  0  0  0  0  0  0  0  0
    6.8450    1.6909   -4.9903 C   0  0  0  0  0  0  0  0  0  0  0  0
    7.4523    0.4272   -4.9394 C   0  0  0  0  0  0  0  0  0  0  0  0
    6.9577   -0.5185   -4.0289 C   0  0  0  0  0  0  0  0  0  0  0  0
    5.8820   -0.2224   -3.1955 C   0  0  0  0  0  0  0  0  0  0  0  0
    5.2931    1.0400   -3.2794 C   0  0  0  0  0  0  0  0  0  0  0  0
    5.3074    2.9879   -4.1954 H   0  0  0  0  0  0  0  0  0  0  0  0
    7.2257    2.4406   -5.6786 H   0  0  0  0  0  0  0  0  0  0  0  0
    7.4262   -1.4967   -3.9666 H   0  0  0  0  0  0  0  0  0  0  0  0
    5.5116   -0.9484   -2.4800 H   0  0  0  0  0  0  0  0  0  0  0  0
    3.9278    1.4348   -2.2078 S   0  0  0  0  0  0  0  0  0  0  0  0
    3.9894    0.6200   -0.9969 O   0  0  0  0  0  0  0  0  0  0  0  0
    2.7145    0.8269   -3.1858 O   0  0  0  0  0  0  0  0  0  0  0  0
    3.7696    2.8856   -2.1212 O   0  0  0  0  0  0  0  0  0  0  0  0
    8.6013    0.0883   -5.8577 C   0  0  0  0  0  0  0  0  0  0  0  0
    8.2331   -0.2876   -6.8200 H   0  0  0  0  0  0  0  0  0  0  0  0
    9.2185    0.9668   -6.0669 H   0  0  0  0  0  0  0  0  0  0  0  0
    9.2427   -0.6868   -5.4283 H   0  0  0  0  0  0  0  0  0  0  0  0
   -2.2427    0.9715   -1.4277 H   0  0  0  0  0  0  0  0  0  0  0  0
  1  7  1  0  0  0  0
  2  8  1  0  0  0  0
  2  1  2  0  0  0  0
  3  2  1  0  0  0  0
  4  3  2  0  0  0  0
  4  5  1  0  0  0  0
  5  6  2  0  0  0  0
  6  1  1  0  0  0  0
  6 31  1  0  0  0  0
  9  4  1  0  0  0  0
 10  5  1  0  0  0  0
 12 11  3  0  0  0  0
 13 18  2  0  0  0  0
 14 15  2  0  0  0  0
 14 13  1  0  0  0  0
 15 16  1  0  0  0  0
 16 21  1  0  0  0  0
 16 17  2  0  0  0  0
 17 22  1  0  0  0  0
 18 17  1  0  0  0  0
 18 23  1  0  0  0  0
 19 13  1  0  0  0  0
 20 14  1  0  0  0  0
 23 26  2  0  0  0  0
 23 24  2  0  0  0  0
 25  3  1  0  0  0  0
 25 23  1  0  0  0  0
 27 30  1  0  0  0  0
 27 15  1  0  0  0  0
 28 27  1  0  0  0  0
 29 27  1  0  0  0  0
M  END
