Coordinates from ORCA-job Ph-N2-OTs-B3LYPG-6-31G_dp-MTMO-d009-169-n800
 OpenBabel09051907503D

 31 31  0  0  0  0  0  0  0  0999 V2000
   -0.8848   -1.0950   -1.2911 C   0  0  0  0  0  0  0  0  0  0  0  0
    0.4153   -0.8906   -1.7550 C   0  0  0  0  0  0  0  0  0  0  0  0
    0.7539    0.3560   -2.2782 C   0  0  0  0  0  0  0  0  0  0  0  0
   -0.1679    1.3994   -2.3411 C   0  0  0  0  0  0  0  0  0  0  0  0
   -1.4645    1.1810   -1.8743 C   0  0  0  0  0  0  0  0  0  0  0  0
   -1.8244   -0.0630   -1.3503 C   0  0  0  0  0  0  0  0  0  0  0  0
   -1.1617   -2.0617   -0.8816 H   0  0  0  0  0  0  0  0  0  0  0  0
    1.1634   -1.6744   -1.7159 H   0  0  0  0  0  0  0  0  0  0  0  0
    0.1370    2.3565   -2.7484 H   0  0  0  0  0  0  0  0  0  0  0  0
   -2.1928    1.9853   -1.9196 H   0  0  0  0  0  0  0  0  0  0  0  0
   15.0639    6.4373   -8.5338 N   0  0  0  0  0  0  0  0  0  0  0  0
   14.1202    5.9047   -8.3162 N   0  0  0  0  0  0  0  0  0  0  0  0
    4.8072    2.3597   -3.5981 C   0  0  0  0  0  0  0  0  0  0  0  0
    5.8618    2.4033   -4.5074 C   0  0  0  0  0  0  0  0  0  0  0  0
    6.6569    1.2743   -4.7515 C   0  0  0  0  0  0  0  0  0  0  0  0
    6.3778    0.0917   -4.0490 C   0  0  0  0  0  0  0  0  0  0  0  0
    5.3296    0.0272   -3.1353 C   0  0  0  0  0  0  0  0  0  0  0  0
    4.5493    1.1656   -2.9248 C   0  0  0  0  0  0  0  0  0  0  0  0
    4.2003    3.2357   -3.3986 H   0  0  0  0  0  0  0  0  0  0  0  0
    6.0747    3.3306   -5.0317 H   0  0  0  0  0  0  0  0  0  0  0  0
    6.9936   -0.7880   -4.2161 H   0  0  0  0  0  0  0  0  0  0  0  0
    5.1236   -0.8820   -2.5813 H   0  0  0  0  0  0  0  0  0  0  0  0
    3.2109    1.0994   -1.7536 S   0  0  0  0  0  0  0  0  0  0  0  0
    3.4631    0.0534   -0.7653 O   0  0  0  0  0  0  0  0  0  0  0  0
    2.0390    0.5474   -2.8136 O   0  0  0  0  0  0  0  0  0  0  0  0
    2.8504    2.4511   -1.3320 O   0  0  0  0  0  0  0  0  0  0  0  0
    7.7772    1.3221   -5.7616 C   0  0  0  0  0  0  0  0  0  0  0  0
    8.1370    2.3429   -5.9141 H   0  0  0  0  0  0  0  0  0  0  0  0
    8.6238    0.7033   -5.4501 H   0  0  0  0  0  0  0  0  0  0  0  0
    7.4401    0.9446   -6.7349 H   0  0  0  0  0  0  0  0  0  0  0  0
   -2.8344   -0.2274   -0.9874 H   0  0  0  0  0  0  0  0  0  0  0  0
  1  7  1  0  0  0  0
  2  8  1  0  0  0  0
  2  1  2  0  0  0  0
  3  2  1  0  0  0  0
  4  3  2  0  0  0  0
  4  5  1  0  0  0  0
  5  6  2  0  0  0  0
  6  1  1  0  0  0  0
  6 31  1  0  0  0  0
  9  4  1  0  0  0  0
 10  5  1  0  0  0  0
 11 12  3  0  0  0  0
 13 19  1  0  0  0  0
 13 18  2  0  0  0  0
 14 13  1  0  0  0  0
 15 14  2  0  0  0  0
 15 16  1  0  0  0  0
 16 17  2  0  0  0  0
 17 18  1  0  0  0  0
 17 22  1  0  0  0  0
 18 23  1  0  0  0  0
 20 14  1  0  0  0  0
 21 16  1  0  0  0  0
 23 26  2  0  0  0  0
 23 24  2  0  0  0  0
 25  3  1  0  0  0  0
 25 23  1  0  0  0  0
 27 29  1  0  0  0  0
 27 15  1  0  0  0  0
 28 27  1  0  0  0  0
 30 27  1  0  0  0  0
M  END
