Coordinates from ORCA-job Ph-N2-OTs-B3LYPG-6-31G_dp-MTMO-d009-169-n800
 OpenBabel09051907503D

 31 31  0  0  0  0  0  0  0  0999 V2000
   -0.6541   -1.0539   -1.3983 C   0  0  0  0  0  0  0  0  0  0  0  0
    0.6401   -0.8229   -1.8660 C   0  0  0  0  0  0  0  0  0  0  0  0
    0.9542    0.4336   -2.3808 C   0  0  0  0  0  0  0  0  0  0  0  0
    0.0139    1.4609   -2.4315 C   0  0  0  0  0  0  0  0  0  0  0  0
   -1.2767    1.2158   -1.9609 C   0  0  0  0  0  0  0  0  0  0  0  0
   -1.6121   -0.0384   -1.4453 C   0  0  0  0  0  0  0  0  0  0  0  0
   -0.9120   -2.0285   -0.9950 H   0  0  0  0  0  0  0  0  0  0  0  0
    1.4022   -1.5934   -1.8362 H   0  0  0  0  0  0  0  0  0  0  0  0
    0.2999    2.4264   -2.8328 H   0  0  0  0  0  0  0  0  0  0  0  0
   -2.0193    2.0074   -1.9966 H   0  0  0  0  0  0  0  0  0  0  0  0
   12.1904    4.7847   -7.1400 N   0  0  0  0  0  0  0  0  0  0  0  0
   11.2089    4.3658   -6.8519 N   0  0  0  0  0  0  0  0  0  0  0  0
    4.9940    2.5018   -3.6938 C   0  0  0  0  0  0  0  0  0  0  0  0
    6.0528    2.5579   -4.5966 C   0  0  0  0  0  0  0  0  0  0  0  0
    6.8559    1.4347   -4.8451 C   0  0  0  0  0  0  0  0  0  0  0  0
    6.5791    0.2462   -4.1529 C   0  0  0  0  0  0  0  0  0  0  0  0
    5.5263    0.1693   -3.2444 C   0  0  0  0  0  0  0  0  0  0  0  0
    4.7388    1.3012   -3.0298 C   0  0  0  0  0  0  0  0  0  0  0  0
    4.3812    3.3730   -3.4909 H   0  0  0  0  0  0  0  0  0  0  0  0
    6.2633    3.4904   -5.1129 H   0  0  0  0  0  0  0  0  0  0  0  0
    7.2002   -0.6292   -4.3231 H   0  0  0  0  0  0  0  0  0  0  0  0
    5.3234   -0.7452   -2.6979 H   0  0  0  0  0  0  0  0  0  0  0  0
    3.3989    1.2204   -1.8610 S   0  0  0  0  0  0  0  0  0  0  0  0
    3.6623    0.1792   -0.8705 O   0  0  0  0  0  0  0  0  0  0  0  0
    2.2337    0.6518   -2.9200 O   0  0  0  0  0  0  0  0  0  0  0  0
    3.0219    2.5685   -1.4421 O   0  0  0  0  0  0  0  0  0  0  0  0
    7.9797    1.4983   -5.8504 C   0  0  0  0  0  0  0  0  0  0  0  0
    8.4436    2.4887   -5.8761 H   0  0  0  0  0  0  0  0  0  0  0  0
    8.7577    0.7625   -5.6286 H   0  0  0  0  0  0  0  0  0  0  0  0
    7.6088    1.2872   -6.8613 H   0  0  0  0  0  0  0  0  0  0  0  0
   -2.6174   -0.2235   -1.0793 H   0  0  0  0  0  0  0  0  0  0  0  0
  1  7  1  0  0  0  0
  2  8  1  0  0  0  0
  2  1  2  0  0  0  0
  3  2  1  0  0  0  0
  4  3  2  0  0  0  0
  4  5  1  0  0  0  0
  5  6  2  0  0  0  0
  6  1  1  0  0  0  0
  6 31  1  0  0  0  0
  9  4  1  0  0  0  0
 10  5  1  0  0  0  0
 11 12  3  0  0  0  0
 13 19  1  0  0  0  0
 13 18  2  0  0  0  0
 14 13  1  0  0  0  0
 15 14  2  0  0  0  0
 15 16  1  0  0  0  0
 16 17  2  0  0  0  0
 17 18  1  0  0  0  0
 17 22  1  0  0  0  0
 18 23  1  0  0  0  0
 20 14  1  0  0  0  0
 21 16  1  0  0  0  0
 23 26  2  0  0  0  0
 23 24  2  0  0  0  0
 25  3  1  0  0  0  0
 25 23  1  0  0  0  0
 27 29  1  0  0  0  0
 27 15  1  0  0  0  0
 28 27  1  0  0  0  0
 30 27  1  0  0  0  0
M  END
