Coordinates from ORCA-job Ph-N2-OTs-B3LYPG-6-31G_dp-MTMO-d009-169-n800
 OpenBabel09051907503D

 31 31  0  0  0  0  0  0  0  0999 V2000
   -0.7288   -1.0547   -1.4156 C   0  0  0  0  0  0  0  0  0  0  0  0
    0.5731   -0.8380   -1.8686 C   0  0  0  0  0  0  0  0  0  0  0  0
    0.9102    0.4184   -2.3686 C   0  0  0  0  0  0  0  0  0  0  0  0
   -0.0149    1.4595   -2.4190 C   0  0  0  0  0  0  0  0  0  0  0  0
   -1.3133    1.2288   -1.9632 C   0  0  0  0  0  0  0  0  0  0  0  0
   -1.6717   -0.0251   -1.4626 C   0  0  0  0  0  0  0  0  0  0  0  0
   -1.0046   -2.0291   -1.0240 H   0  0  0  0  0  0  0  0  0  0  0  0
    1.3237   -1.6197   -1.8386 H   0  0  0  0  0  0  0  0  0  0  0  0
    0.2889    2.4245   -2.8084 H   0  0  0  0  0  0  0  0  0  0  0  0
   -2.0441    2.0313   -1.9988 H   0  0  0  0  0  0  0  0  0  0  0  0
   12.7453    5.1728   -7.5751 N   0  0  0  0  0  0  0  0  0  0  0  0
   11.7728    4.7038   -7.3386 N   0  0  0  0  0  0  0  0  0  0  0  0
    4.9712    2.4629   -3.6240 C   0  0  0  0  0  0  0  0  0  0  0  0
    6.0332    2.5252   -4.5234 C   0  0  0  0  0  0  0  0  0  0  0  0
    6.8291    1.4008   -4.7860 C   0  0  0  0  0  0  0  0  0  0  0  0
    6.5428    0.2035   -4.1121 C   0  0  0  0  0  0  0  0  0  0  0  0
    5.4873    0.1203   -3.2082 C   0  0  0  0  0  0  0  0  0  0  0  0
    4.7067    1.2546   -2.9789 C   0  0  0  0  0  0  0  0  0  0  0  0
    4.3635    3.3350   -3.4101 H   0  0  0  0  0  0  0  0  0  0  0  0
    6.2515    3.4635   -5.0254 H   0  0  0  0  0  0  0  0  0  0  0  0
    7.1589   -0.6732   -4.2936 H   0  0  0  0  0  0  0  0  0  0  0  0
    5.2763   -0.8006   -2.6758 H   0  0  0  0  0  0  0  0  0  0  0  0
    3.3605    1.1652   -1.8182 S   0  0  0  0  0  0  0  0  0  0  0  0
    3.6109    0.1059   -0.8435 O   0  0  0  0  0  0  0  0  0  0  0  0
    2.1977    0.6232   -2.8933 O   0  0  0  0  0  0  0  0  0  0  0  0
    2.9912    2.5089   -1.3792 O   0  0  0  0  0  0  0  0  0  0  0  0
    7.9575    1.4699   -5.7859 C   0  0  0  0  0  0  0  0  0  0  0  0
    8.3385    2.4890   -5.8923 H   0  0  0  0  0  0  0  0  0  0  0  0
    8.7895    0.8217   -5.4960 H   0  0  0  0  0  0  0  0  0  0  0  0
    7.6199    1.1414   -6.7768 H   0  0  0  0  0  0  0  0  0  0  0  0
   -2.6831   -0.1990   -1.1080 H   0  0  0  0  0  0  0  0  0  0  0  0
  1  7  1  0  0  0  0
  2  8  1  0  0  0  0
  2  1  2  0  0  0  0
  3  2  1  0  0  0  0
  4  3  2  0  0  0  0
  4  5  1  0  0  0  0
  5  6  2  0  0  0  0
  6  1  1  0  0  0  0
  6 31  1  0  0  0  0
  9  4  1  0  0  0  0
 10  5  1  0  0  0  0
 11 12  3  0  0  0  0
 13 19  1  0  0  0  0
 13 18  2  0  0  0  0
 14 13  1  0  0  0  0
 15 14  2  0  0  0  0
 15 16  1  0  0  0  0
 16 17  2  0  0  0  0
 17 18  1  0  0  0  0
 17 22  1  0  0  0  0
 18 23  1  0  0  0  0
 20 14  1  0  0  0  0
 21 16  1  0  0  0  0
 23 26  2  0  0  0  0
 23 24  2  0  0  0  0
 25  3  1  0  0  0  0
 25 23  1  0  0  0  0
 27 29  1  0  0  0  0
 27 15  1  0  0  0  0
 28 27  1  0  0  0  0
 30 27  1  0  0  0  0
M  END
