Coordinates from ORCA-job Ph-N2-OTs-B3LYPG-6-31G_dp-MTMO-d009-169-n800
 OpenBabel09051907503D

 31 31  0  0  0  0  0  0  0  0999 V2000
   -0.7373   -0.6666   -1.6739 C   0  0  0  0  0  0  0  0  0  0  0  0
    0.6006   -0.5977   -2.0647 C   0  0  0  0  0  0  0  0  0  0  0  0
    1.1064    0.6205   -2.5156 C   0  0  0  0  0  0  0  0  0  0  0  0
    0.3135    1.7648   -2.5786 C   0  0  0  0  0  0  0  0  0  0  0  0
   -1.0235    1.6806   -2.1882 C   0  0  0  0  0  0  0  0  0  0  0  0
   -1.5497    0.4682   -1.7358 C   0  0  0  0  0  0  0  0  0  0  0  0
   -1.1436   -1.6094   -1.3201 H   0  0  0  0  0  0  0  0  0  0  0  0
    1.2515   -1.4633   -2.0219 H   0  0  0  0  0  0  0  0  0  0  0  0
    0.7471    2.6945   -2.9290 H   0  0  0  0  0  0  0  0  0  0  0  0
   -1.6523    2.5648   -2.2356 H   0  0  0  0  0  0  0  0  0  0  0  0
    8.5609    5.9427   -7.3818 N   0  0  0  0  0  0  0  0  0  0  0  0
    8.2435    5.0807   -6.7674 N   0  0  0  0  0  0  0  0  0  0  0  0
    5.4393    2.2202   -3.4201 C   0  0  0  0  0  0  0  0  0  0  0  0
    6.5313    2.2511   -4.2853 C   0  0  0  0  0  0  0  0  0  0  0  0
    7.1894    1.0725   -4.6638 C   0  0  0  0  0  0  0  0  0  0  0  0
    6.7265   -0.1501   -4.1525 C   0  0  0  0  0  0  0  0  0  0  0  0
    5.6389   -0.2025   -3.2858 C   0  0  0  0  0  0  0  0  0  0  0  0
    5.0024    0.9889   -2.9321 C   0  0  0  0  0  0  0  0  0  0  0  0
    4.9362    3.1318   -3.1176 H   0  0  0  0  0  0  0  0  0  0  0  0
    6.8796    3.2043   -4.6725 H   0  0  0  0  0  0  0  0  0  0  0  0
    7.2272   -1.0720   -4.4352 H   0  0  0  0  0  0  0  0  0  0  0  0
    5.2898   -1.1453   -2.8798 H   0  0  0  0  0  0  0  0  0  0  0  0
    3.6133    0.9365   -1.8214 S   0  0  0  0  0  0  0  0  0  0  0  0
    3.6901   -0.2593   -0.9848 O   0  0  0  0  0  0  0  0  0  0  0  0
    2.4310    0.6904   -2.9796 O   0  0  0  0  0  0  0  0  0  0  0  0
    3.4025    2.2519   -1.2216 O   0  0  0  0  0  0  0  0  0  0  0  0
    8.3887    1.1151   -5.5787 C   0  0  0  0  0  0  0  0  0  0  0  0
    8.4298    2.0502   -6.1430 H   0  0  0  0  0  0  0  0  0  0  0  0
    9.3197    1.0354   -5.0043 H   0  0  0  0  0  0  0  0  0  0  0  0
    8.3769    0.2836   -6.2905 H   0  0  0  0  0  0  0  0  0  0  0  0
   -2.5899    0.4082   -1.4305 H   0  0  0  0  0  0  0  0  0  0  0  0
  1  7  1  0  0  0  0
  2  8  1  0  0  0  0
  2  1  2  0  0  0  0
  3  2  1  0  0  0  0
  4  3  2  0  0  0  0
  4  5  1  0  0  0  0
  5  6  2  0  0  0  0
  6  1  1  0  0  0  0
  6 31  1  0  0  0  0
  9  4  1  0  0  0  0
 10  5  1  0  0  0  0
 11 12  3  0  0  0  0
 13 19  1  0  0  0  0
 13 18  2  0  0  0  0
 14 13  1  0  0  0  0
 15 14  2  0  0  0  0
 15 16  1  0  0  0  0
 16 17  2  0  0  0  0
 17 18  1  0  0  0  0
 17 22  1  0  0  0  0
 18 23  1  0  0  0  0
 20 14  1  0  0  0  0
 21 16  1  0  0  0  0
 23 26  2  0  0  0  0
 23 24  2  0  0  0  0
 25  3  1  0  0  0  0
 25 23  1  0  0  0  0
 27 29  1  0  0  0  0
 27 15  1  0  0  0  0
 28 27  1  0  0  0  0
 30 27  1  0  0  0  0
M  END
