Coordinates from ORCA-job Ph-N2-OTs-B3LYPG-6-31G_dp-MTMO-d009-169-n800
 OpenBabel09051907503D

 31 31  0  0  0  0  0  0  0  0999 V2000
   -0.8068   -1.0771   -1.3743 C   0  0  0  0  0  0  0  0  0  0  0  0
    0.4958   -0.8659   -1.8279 C   0  0  0  0  0  0  0  0  0  0  0  0
    0.8369    0.3881   -2.3313 C   0  0  0  0  0  0  0  0  0  0  0  0
   -0.0847    1.4321   -2.3844 C   0  0  0  0  0  0  0  0  0  0  0  0
   -1.3839    1.2068   -1.9279 C   0  0  0  0  0  0  0  0  0  0  0  0
   -1.7463   -0.0446   -1.4239 C   0  0  0  0  0  0  0  0  0  0  0  0
   -1.0858   -2.0496   -0.9801 H   0  0  0  0  0  0  0  0  0  0  0  0
    1.2438   -1.6500   -1.7960 H   0  0  0  0  0  0  0  0  0  0  0  0
    0.2221    2.3950   -2.7763 H   0  0  0  0  0  0  0  0  0  0  0  0
   -2.1121    2.0116   -1.9655 H   0  0  0  0  0  0  0  0  0  0  0  0
   13.8094    5.7311   -8.0695 N   0  0  0  0  0  0  0  0  0  0  0  0
   12.8403    5.2517   -7.8400 N   0  0  0  0  0  0  0  0  0  0  0  0
    4.8984    2.4170   -3.5966 C   0  0  0  0  0  0  0  0  0  0  0  0
    5.9590    2.4749   -4.4978 C   0  0  0  0  0  0  0  0  0  0  0  0
    6.7548    1.3493   -4.7556 C   0  0  0  0  0  0  0  0  0  0  0  0
    6.4698    0.1554   -4.0751 C   0  0  0  0  0  0  0  0  0  0  0  0
    5.4156    0.0766   -3.1694 C   0  0  0  0  0  0  0  0  0  0  0  0
    4.6350    1.2120   -2.9450 C   0  0  0  0  0  0  0  0  0  0  0  0
    4.2908    3.2901   -3.3863 H   0  0  0  0  0  0  0  0  0  0  0  0
    6.1763    3.4107   -5.0050 H   0  0  0  0  0  0  0  0  0  0  0  0
    7.0859   -0.7220   -4.2529 H   0  0  0  0  0  0  0  0  0  0  0  0
    5.2053   -0.8415   -2.6321 H   0  0  0  0  0  0  0  0  0  0  0  0
    3.2897    1.1281   -1.7829 S   0  0  0  0  0  0  0  0  0  0  0  0
    3.5382    0.0700   -0.8066 O   0  0  0  0  0  0  0  0  0  0  0  0
    2.1251    0.5873   -2.8566 O   0  0  0  0  0  0  0  0  0  0  0  0
    2.9240    2.4736   -1.3461 O   0  0  0  0  0  0  0  0  0  0  0  0
    7.8818    1.4137   -5.7573 C   0  0  0  0  0  0  0  0  0  0  0  0
    8.2582    2.4335   -5.8729 H   0  0  0  0  0  0  0  0  0  0  0  0
    8.7167    0.7715   -5.4626 H   0  0  0  0  0  0  0  0  0  0  0  0
    7.5446    1.0753   -6.7450 H   0  0  0  0  0  0  0  0  0  0  0  0
   -2.7582   -0.2143   -1.0687 H   0  0  0  0  0  0  0  0  0  0  0  0
  1  7  1  0  0  0  0
  2  8  1  0  0  0  0
  2  1  2  0  0  0  0
  3  2  1  0  0  0  0
  4  3  2  0  0  0  0
  4  5  1  0  0  0  0
  5  6  2  0  0  0  0
  6  1  1  0  0  0  0
  6 31  1  0  0  0  0
  9  4  1  0  0  0  0
 10  5  1  0  0  0  0
 11 12  3  0  0  0  0
 13 19  1  0  0  0  0
 13 18  2  0  0  0  0
 14 13  1  0  0  0  0
 15 14  2  0  0  0  0
 15 16  1  0  0  0  0
 16 17  2  0  0  0  0
 17 18  1  0  0  0  0
 17 22  1  0  0  0  0
 18 23  1  0  0  0  0
 20 14  1  0  0  0  0
 21 16  1  0  0  0  0
 23 26  2  0  0  0  0
 23 24  2  0  0  0  0
 25  3  1  0  0  0  0
 25 23  1  0  0  0  0
 27 29  1  0  0  0  0
 27 15  1  0  0  0  0
 28 27  1  0  0  0  0
 30 27  1  0  0  0  0
M  END
