Coordinates from ORCA-job Ph-N2-OTs-B3LYPG-6-31G_dp-MTMO-d009-169-n800
 OpenBabel09051907503D

 31 31  0  0  0  0  0  0  0  0999 V2000
   -0.8419   -1.0897   -1.3552 C   0  0  0  0  0  0  0  0  0  0  0  0
    0.4608   -0.8798   -1.8093 C   0  0  0  0  0  0  0  0  0  0  0  0
    0.8027    0.3734   -2.3141 C   0  0  0  0  0  0  0  0  0  0  0  0
   -0.1183    1.4180   -2.3682 C   0  0  0  0  0  0  0  0  0  0  0  0
   -1.4175    1.1940   -1.9112 C   0  0  0  0  0  0  0  0  0  0  0  0
   -1.7807   -0.0566   -1.4057 C   0  0  0  0  0  0  0  0  0  0  0  0
   -1.1215   -2.0616   -0.9599 H   0  0  0  0  0  0  0  0  0  0  0  0
    1.2083   -1.6644   -1.7766 H   0  0  0  0  0  0  0  0  0  0  0  0
    0.1891    2.3802   -2.7612 H   0  0  0  0  0  0  0  0  0  0  0  0
   -2.1452    1.9993   -1.9497 H   0  0  0  0  0  0  0  0  0  0  0  0
   14.3042    5.9813   -8.3021 N   0  0  0  0  0  0  0  0  0  0  0  0
   13.3386    5.4939   -8.0747 N   0  0  0  0  0  0  0  0  0  0  0  0
    4.8648    2.3983   -3.5824 C   0  0  0  0  0  0  0  0  0  0  0  0
    5.9251    2.4547   -4.4841 C   0  0  0  0  0  0  0  0  0  0  0  0
    6.7203    1.3286   -4.7410 C   0  0  0  0  0  0  0  0  0  0  0  0
    6.4350    0.1355   -4.0592 C   0  0  0  0  0  0  0  0  0  0  0  0
    5.3811    0.0581   -3.1530 C   0  0  0  0  0  0  0  0  0  0  0  0
    4.6011    1.1941   -2.9295 C   0  0  0  0  0  0  0  0  0  0  0  0
    4.2577    3.2719   -3.3728 H   0  0  0  0  0  0  0  0  0  0  0  0
    6.1427    3.3899   -4.9923 H   0  0  0  0  0  0  0  0  0  0  0  0
    7.0507   -0.7424   -4.2362 H   0  0  0  0  0  0  0  0  0  0  0  0
    5.1706   -0.8594   -2.6147 H   0  0  0  0  0  0  0  0  0  0  0  0
    3.2561    1.1120   -1.7669 S   0  0  0  0  0  0  0  0  0  0  0  0
    3.5042    0.0545   -0.7898 O   0  0  0  0  0  0  0  0  0  0  0  0
    2.0908    0.5711   -2.8398 O   0  0  0  0  0  0  0  0  0  0  0  0
    2.8914    2.4580   -1.3311 O   0  0  0  0  0  0  0  0  0  0  0  0
    7.8470    1.3913   -5.7431 C   0  0  0  0  0  0  0  0  0  0  0  0
    8.2211    2.4114   -5.8629 H   0  0  0  0  0  0  0  0  0  0  0  0
    8.6835    0.7522   -5.4457 H   0  0  0  0  0  0  0  0  0  0  0  0
    7.5106    1.0479   -6.7292 H   0  0  0  0  0  0  0  0  0  0  0  0
   -2.7927   -0.2252   -1.0503 H   0  0  0  0  0  0  0  0  0  0  0  0
  1  7  1  0  0  0  0
  2  8  1  0  0  0  0
  2  1  2  0  0  0  0
  3  2  1  0  0  0  0
  4  3  2  0  0  0  0
  4  5  1  0  0  0  0
  5  6  2  0  0  0  0
  6  1  1  0  0  0  0
  6 31  1  0  0  0  0
  9  4  1  0  0  0  0
 10  5  1  0  0  0  0
 11 12  3  0  0  0  0
 13 19  1  0  0  0  0
 13 18  2  0  0  0  0
 14 13  1  0  0  0  0
 15 14  2  0  0  0  0
 15 16  1  0  0  0  0
 16 17  2  0  0  0  0
 17 18  1  0  0  0  0
 17 22  1  0  0  0  0
 18 23  1  0  0  0  0
 20 14  1  0  0  0  0
 21 16  1  0  0  0  0
 23 26  2  0  0  0  0
 23 24  2  0  0  0  0
 25  3  1  0  0  0  0
 25 23  1  0  0  0  0
 27 29  1  0  0  0  0
 27 15  1  0  0  0  0
 28 27  1  0  0  0  0
 30 27  1  0  0  0  0
M  END
