Coordinates from ORCA-job Ph-N2-OTs-B3LYPG-6-31G_dp-MTMO-d009-169-n800
 OpenBabel09051907503D

 31 31  0  0  0  0  0  0  0  0999 V2000
   -0.7232   -0.5890   -1.6487 C   0  0  0  0  0  0  0  0  0  0  0  0
    0.6178   -0.5533   -2.0334 C   0  0  0  0  0  0  0  0  0  0  0  0
    1.1404    0.6370   -2.5369 C   0  0  0  0  0  0  0  0  0  0  0  0
    0.3609    1.7857   -2.6584 C   0  0  0  0  0  0  0  0  0  0  0  0
   -0.9795    1.7346   -2.2742 C   0  0  0  0  0  0  0  0  0  0  0  0
   -1.5224    0.5505   -1.7694 C   0  0  0  0  0  0  0  0  0  0  0  0
   -1.1424   -1.5097   -1.2544 H   0  0  0  0  0  0  0  0  0  0  0  0
    1.2586   -1.4232   -1.9460 H   0  0  0  0  0  0  0  0  0  0  0  0
    0.8073    2.6934   -3.0485 H   0  0  0  0  0  0  0  0  0  0  0  0
   -1.5980    2.6224   -2.3674 H   0  0  0  0  0  0  0  0  0  0  0  0
    8.0012    6.1798   -7.0138 N   0  0  0  0  0  0  0  0  0  0  0  0
    7.8443    5.2381   -6.4572 N   0  0  0  0  0  0  0  0  0  0  0  0
    5.4621    2.1700   -3.4881 C   0  0  0  0  0  0  0  0  0  0  0  0
    6.5519    2.1777   -4.3561 C   0  0  0  0  0  0  0  0  0  0  0  0
    7.2234    0.9916   -4.6855 C   0  0  0  0  0  0  0  0  0  0  0  0
    6.7762   -0.2137   -4.1225 C   0  0  0  0  0  0  0  0  0  0  0  0
    5.6897   -0.2427   -3.2530 C   0  0  0  0  0  0  0  0  0  0  0  0
    5.0401    0.9549   -2.9484 C   0  0  0  0  0  0  0  0  0  0  0  0
    4.9487    3.0876   -3.2232 H   0  0  0  0  0  0  0  0  0  0  0  0
    6.8870    3.1173   -4.7853 H   0  0  0  0  0  0  0  0  0  0  0  0
    7.2873   -1.1409   -4.3672 H   0  0  0  0  0  0  0  0  0  0  0  0
    5.3508   -1.1716   -2.8082 H   0  0  0  0  0  0  0  0  0  0  0  0
    3.6492    0.9332   -1.8391 S   0  0  0  0  0  0  0  0  0  0  0  0
    3.7176   -0.2458   -0.9782 O   0  0  0  0  0  0  0  0  0  0  0  0
    2.4681    0.6713   -2.9951 O   0  0  0  0  0  0  0  0  0  0  0  0
    3.4441    2.2615   -1.2665 O   0  0  0  0  0  0  0  0  0  0  0  0
    8.4209    1.0118   -5.6034 C   0  0  0  0  0  0  0  0  0  0  0  0
    8.4344    1.9115   -6.2244 H   0  0  0  0  0  0  0  0  0  0  0  0
    9.3541    0.9959   -5.0271 H   0  0  0  0  0  0  0  0  0  0  0  0
    8.4340    0.1386   -6.2631 H   0  0  0  0  0  0  0  0  0  0  0  0
   -2.5651    0.5162   -1.4688 H   0  0  0  0  0  0  0  0  0  0  0  0
  1  7  1  0  0  0  0
  2  8  1  0  0  0  0
  2  1  2  0  0  0  0
  3  2  1  0  0  0  0
  4  3  2  0  0  0  0
  4  5  1  0  0  0  0
  5  6  2  0  0  0  0
  6  1  1  0  0  0  0
  6 31  1  0  0  0  0
  9  4  1  0  0  0  0
 10  5  1  0  0  0  0
 11 12  3  0  0  0  0
 13 19  1  0  0  0  0
 13 18  2  0  0  0  0
 14 13  1  0  0  0  0
 15 14  2  0  0  0  0
 15 16  1  0  0  0  0
 16 17  2  0  0  0  0
 17 18  1  0  0  0  0
 17 22  1  0  0  0  0
 18 23  1  0  0  0  0
 20 14  1  0  0  0  0
 21 16  1  0  0  0  0
 23 26  2  0  0  0  0
 23 24  2  0  0  0  0
 25  3  1  0  0  0  0
 25 23  1  0  0  0  0
 27 29  1  0  0  0  0
 27 15  1  0  0  0  0
 28 27  1  0  0  0  0
 30 27  1  0  0  0  0
M  END
