Coordinates from ORCA-job Ph-N2-OTs-B3LYPG-6-31G_dp-MTMO-d009-169-n800
 OpenBabel09051907493D

 31 30  0  0  0  0  0  0  0  0999 V2000
    0.1258    0.1985   -1.5471 C   0  0  0  0  0  0  0  0  0  0  0  0
    0.7306    1.2481   -2.2782 C   0  0  0  0  0  0  0  0  0  0  0  0
   -0.0162    2.2513   -2.4696 C   0  0  0  0  0  0  0  0  0  0  0  0
   -1.2881    2.6483   -2.1782 C   0  0  0  0  0  0  0  0  0  0  0  0
   -1.8936    1.5990   -1.4481 C   0  0  0  0  0  0  0  0  0  0  0  0
   -1.2030    0.4124   -1.1447 C   0  0  0  0  0  0  0  0  0  0  0  0
    0.6446   -0.7245   -1.3051 H   0  0  0  0  0  0  0  0  0  0  0  0
    2.4944    0.9589   -2.8524 H   0  0  0  0  0  0  0  0  0  0  0  0
   -1.7775    3.5782   -2.4349 H   0  0  0  0  0  0  0  0  0  0  0  0
   -2.9205    1.7284   -1.1177 H   0  0  0  0  0  0  0  0  0  0  0  0
    0.8753    4.2292   -3.6753 N   0  0  0  0  0  0  0  0  0  0  0  0
    1.7360    4.8029   -4.0645 N   0  0  0  0  0  0  0  0  0  0  0  0
    6.7386    1.3784   -3.1271 C   0  0  0  0  0  0  0  0  0  0  0  0
    7.9885    0.8091   -3.3621 C   0  0  0  0  0  0  0  0  0  0  0  0
    8.2613    0.1254   -4.5557 C   0  0  0  0  0  0  0  0  0  0  0  0
    7.2447    0.0234   -5.5173 C   0  0  0  0  0  0  0  0  0  0  0  0
    5.9893    0.5860   -5.3009 C   0  0  0  0  0  0  0  0  0  0  0  0
    5.7478    1.2563   -4.1010 C   0  0  0  0  0  0  0  0  0  0  0  0
    6.5299    1.9176   -2.2098 H   0  0  0  0  0  0  0  0  0  0  0  0
    8.7658    0.9003   -2.6079 H   0  0  0  0  0  0  0  0  0  0  0  0
    7.4406   -0.5007   -6.4490 H   0  0  0  0  0  0  0  0  0  0  0  0
    5.2063    0.5186   -6.0484 H   0  0  0  0  0  0  0  0  0  0  0  0
    4.1456    1.9812   -3.8129 S   0  0  0  0  0  0  0  0  0  0  0  0
    3.4310    0.7060   -3.1056 O   0  0  0  0  0  0  0  0  0  0  0  0
    3.4923    2.2448   -5.0970 O   0  0  0  0  0  0  0  0  0  0  0  0
    4.2689    3.0641   -2.8343 O   0  0  0  0  0  0  0  0  0  0  0  0
    9.6282   -0.4606   -4.8164 C   0  0  0  0  0  0  0  0  0  0  0  0
   10.2512    0.2391   -5.3879 H   0  0  0  0  0  0  0  0  0  0  0  0
   10.1547   -0.6802   -3.8835 H   0  0  0  0  0  0  0  0  0  0  0  0
    9.5632   -1.3857   -5.3971 H   0  0  0  0  0  0  0  0  0  0  0  0
   -1.7159   -0.3631   -0.5818 H   0  0  0  0  0  0  0  0  0  0  0  0
  1  7  1  0  0  0  0
  1  6  2  0  0  0  0
  2  1  1  0  0  0  0
  3  2  2  0  0  0  0
  3  4  1  0  0  0  0
  4  5  2  0  0  0  0
  5  6  1  0  0  0  0
  5 10  1  0  0  0  0
  6 31  1  0  0  0  0
  9  4  1  0  0  0  0
 12 11  3  0  0  0  0
 13 19  1  0  0  0  0
 14 13  1  0  0  0  0
 14 20  1  0  0  0  0
 15 14  2  0  0  0  0
 16 17  2  0  0  0  0
 16 15  1  0  0  0  0
 17 18  1  0  0  0  0
 18 23  1  0  0  0  0
 18 13  2  0  0  0  0
 21 16  1  0  0  0  0
 22 17  1  0  0  0  0
 23 24  1  0  0  0  0
 23 26  2  0  0  0  0
 24  8  1  0  0  0  0
 25 23  2  0  0  0  0
 27 15  1  0  0  0  0
 27 29  1  0  0  0  0
 28 27  1  0  0  0  0
 30 27  1  0  0  0  0
M  RAD  2   2   2   3   2
M  END
