Coordinates from ORCA-job Ph-N2-OTs-B3LYPG-6-31G_dp-MTMO-d009-169-n800
 OpenBabel09051907503D

 31 31  0  0  0  0  0  0  0  0999 V2000
   -0.7300   -0.7022   -1.6478 C   0  0  0  0  0  0  0  0  0  0  0  0
    0.6045   -0.6161   -2.0465 C   0  0  0  0  0  0  0  0  0  0  0  0
    1.0912    0.6076   -2.5032 C   0  0  0  0  0  0  0  0  0  0  0  0
    0.2826    1.7410   -2.5644 C   0  0  0  0  0  0  0  0  0  0  0  0
   -1.0508    1.6398   -2.1659 C   0  0  0  0  0  0  0  0  0  0  0  0
   -1.5580    0.4214   -1.7077 C   0  0  0  0  0  0  0  0  0  0  0  0
   -1.1216   -1.6494   -1.2893 H   0  0  0  0  0  0  0  0  0  0  0  0
    1.2674   -1.4728   -2.0054 H   0  0  0  0  0  0  0  0  0  0  0  0
    0.7018    2.6756   -2.9194 H   0  0  0  0  0  0  0  0  0  0  0  0
   -1.6917    2.5152   -2.2117 H   0  0  0  0  0  0  0  0  0  0  0  0
    8.9023    5.8879   -7.3738 N   0  0  0  0  0  0  0  0  0  0  0  0
    8.4642    5.0828   -6.7563 N   0  0  0  0  0  0  0  0  0  0  0  0
    5.4082    2.2442   -3.4465 C   0  0  0  0  0  0  0  0  0  0  0  0
    6.4978    2.2718   -4.3154 C   0  0  0  0  0  0  0  0  0  0  0  0
    7.1624    1.0933   -4.6816 C   0  0  0  0  0  0  0  0  0  0  0  0
    6.7093   -0.1262   -4.1535 C   0  0  0  0  0  0  0  0  0  0  0  0
    5.6249   -0.1753   -3.2832 C   0  0  0  0  0  0  0  0  0  0  0  0
    4.9811    1.0163   -2.9423 C   0  0  0  0  0  0  0  0  0  0  0  0
    4.9002    3.1561   -3.1533 H   0  0  0  0  0  0  0  0  0  0  0  0
    6.8393    3.2226   -4.7144 H   0  0  0  0  0  0  0  0  0  0  0  0
    7.2159   -1.0482   -4.4258 H   0  0  0  0  0  0  0  0  0  0  0  0
    5.2838   -1.1152   -2.8641 H   0  0  0  0  0  0  0  0  0  0  0  0
    3.5966    0.9677   -1.8255 S   0  0  0  0  0  0  0  0  0  0  0  0
    3.6874   -0.2148   -0.9717 O   0  0  0  0  0  0  0  0  0  0  0  0
    2.4121    0.6936   -2.9752 O   0  0  0  0  0  0  0  0  0  0  0  0
    3.3761    2.2899   -1.2445 O   0  0  0  0  0  0  0  0  0  0  0  0
    8.3560    1.1302   -5.6042 C   0  0  0  0  0  0  0  0  0  0  0  0
    8.4349    2.0901   -6.1202 H   0  0  0  0  0  0  0  0  0  0  0  0
    9.2866    0.9771   -5.0444 H   0  0  0  0  0  0  0  0  0  0  0  0
    8.3003    0.3385   -6.3586 H   0  0  0  0  0  0  0  0  0  0  0  0
   -2.5955    0.3482   -1.3961 H   0  0  0  0  0  0  0  0  0  0  0  0
  1  7  1  0  0  0  0
  2  8  1  0  0  0  0
  2  1  2  0  0  0  0
  3  2  1  0  0  0  0
  4  3  2  0  0  0  0
  4  5  1  0  0  0  0
  5  6  2  0  0  0  0
  6  1  1  0  0  0  0
  6 31  1  0  0  0  0
  9  4  1  0  0  0  0
 10  5  1  0  0  0  0
 11 12  3  0  0  0  0
 13 19  1  0  0  0  0
 13 18  2  0  0  0  0
 14 13  1  0  0  0  0
 15 14  2  0  0  0  0
 15 16  1  0  0  0  0
 16 17  2  0  0  0  0
 17 18  1  0  0  0  0
 17 22  1  0  0  0  0
 18 23  1  0  0  0  0
 20 14  1  0  0  0  0
 21 16  1  0  0  0  0
 23 26  2  0  0  0  0
 23 24  2  0  0  0  0
 25  3  1  0  0  0  0
 25 23  1  0  0  0  0
 27 29  1  0  0  0  0
 27 15  1  0  0  0  0
 28 27  1  0  0  0  0
 30 27  1  0  0  0  0
M  END
