Coordinates from ORCA-job Ph-N2-OTs-B3LYPG-6-31G_dp-MTMO-d009-169-n800
 OpenBabel09051907493D

 31 32  0  0  1  0  0  0  0  0999 V2000
    0.8467    0.4654   -1.8007 C   0  0  0  0  0  0  0  0  0  0  0  0
    1.1222    0.9682   -3.1689 C   0  0  1  0  0  0  0  0  0  0  0  0
    0.5982    2.3255   -3.2792 C   0  0  1  0  0  0  0  0  0  0  0  0
    0.2788    3.2147   -2.2282 C   0  0  0  0  0  0  0  0  0  0  0  0
    0.2440    2.6955   -0.9631 C   0  0  0  0  0  0  0  0  0  0  0  0
    0.4938    1.2914   -0.7804 C   0  0  0  0  0  0  0  0  0  0  0  0
    0.9990   -0.5962   -1.6381 H   0  0  0  0  0  0  0  0  0  0  0  0
    0.8142    0.2822   -3.9578 H   0  0  0  0  0  0  0  0  0  0  0  0
    0.0561    4.2549   -2.4380 H   0  0  0  0  0  0  0  0  0  0  0  0
   -0.0003    3.3246   -0.1154 H   0  0  0  0  0  0  0  0  0  0  0  0
    0.5326    2.9066   -4.7047 N   0  0  0  0  0  0  0  0  0  0  0  0
    0.4854    3.3171   -5.7493 N   0  0  0  0  0  0  0  0  0  0  0  0
    5.7388    1.6681   -4.6729 C   0  0  0  0  0  0  0  0  0  0  0  0
    7.1036    1.7087   -4.3975 C   0  0  0  0  0  0  0  0  0  0  0  0
    7.7660    0.6019   -3.8461 C   0  0  0  0  0  0  0  0  0  0  0  0
    7.0231   -0.5565   -3.5745 C   0  0  0  0  0  0  0  0  0  0  0  0
    5.6576   -0.6163   -3.8425 C   0  0  0  0  0  0  0  0  0  0  0  0
    5.0263    0.5027   -4.3872 C   0  0  0  0  0  0  0  0  0  0  0  0
    5.2289    2.5188   -5.1116 H   0  0  0  0  0  0  0  0  0  0  0  0
    7.6652    2.6127   -4.6173 H   0  0  0  0  0  0  0  0  0  0  0  0
    7.5213   -1.4239   -3.1499 H   0  0  0  0  0  0  0  0  0  0  0  0
    5.0847   -1.5152   -3.6436 H   0  0  0  0  0  0  0  0  0  0  0  0
    3.2769    0.4380   -4.7240 S   0  0  0  0  0  0  0  0  0  0  0  0
    2.8685   -0.9583   -4.9203 O   0  0  0  0  0  0  0  0  0  0  0  0
    2.9453    1.4215   -5.7656 O   0  0  0  0  0  0  0  0  0  0  0  0
    2.7150    0.9642   -3.3041 O   0  0  0  0  0  0  0  0  0  0  0  0
    9.2517    0.6450   -3.5822 C   0  0  0  0  0  0  0  0  0  0  0  0
    9.8159    0.3240   -4.4670 H   0  0  0  0  0  0  0  0  0  0  0  0
    9.5859    1.6563   -3.3340 H   0  0  0  0  0  0  0  0  0  0  0  0
    9.5316   -0.0195   -2.7597 H   0  0  0  0  0  0  0  0  0  0  0  0
    0.3627    0.8684    0.2122 H   0  0  0  0  0  0  0  0  0  0  0  0
  1  7  1  0  0  0  0
  1  6  2  0  0  0  0
  2  8  1  6  0  0  0
  2  1  1  0  0  0  0
  3 11  1  6  0  0  0
  3  2  1  0  0  0  0
  3  4  1  0  0  0  0
  4  5  2  0  0  0  0
  5  6  1  0  0  0  0
  5 10  1  0  0  0  0
  6 31  1  0  0  0  0
  9  4  1  0  0  0  0
 12 11  1  0  0  0  0
 13 14  2  0  0  0  0
 13 18  1  0  0  0  0
 14 15  1  0  0  0  0
 15 27  1  0  0  0  0
 15 16  2  0  0  0  0
 16 21  1  0  0  0  0
 17 22  1  0  0  0  0
 17 16  1  0  0  0  0
 18 17  2  0  0  0  0
 19 13  1  0  0  0  0
 20 14  1  0  0  0  0
 23 18  1  0  0  0  0
 23 26  1  0  0  0  0
 24 23  2  0  0  0  0
 25 23  2  0  0  0  0
 26  2  1  0  0  0  0
 27 29  1  0  0  0  0
 27 30  1  0  0  0  0
 28 27  1  0  0  0  0
M  RAD  3   3   2  11   2  12   3
M  END
