Coordinates from ORCA-job Ph-N2-OTs-B3LYPG-6-31G_dp-MTMO-d009-169-n800
 OpenBabel09051907503D

 31 31  0  0  0  0  0  0  0  0999 V2000
   -0.5855    0.1915   -1.9230 C   0  0  0  0  0  0  0  0  0  0  0  0
    0.7352    0.0560   -2.3525 C   0  0  0  0  0  0  0  0  0  0  0  0
    1.5002    1.2050   -2.5446 C   0  0  0  0  0  0  0  0  0  0  0  0
    0.9827    2.4779   -2.3117 C   0  0  0  0  0  0  0  0  0  0  0  0
   -0.3399    2.5986   -1.8838 C   0  0  0  0  0  0  0  0  0  0  0  0
   -1.1242    1.4591   -1.6893 C   0  0  0  0  0  0  0  0  0  0  0  0
   -1.1926   -0.6956   -1.7697 H   0  0  0  0  0  0  0  0  0  0  0  0
    1.1770   -0.9163   -2.5381 H   0  0  0  0  0  0  0  0  0  0  0  0
    1.6135    3.3459   -2.4658 H   0  0  0  0  0  0  0  0  0  0  0  0
   -0.7557    3.5846   -1.6991 H   0  0  0  0  0  0  0  0  0  0  0  0
    2.6940    2.6972   -6.2443 N   0  0  0  0  0  0  0  0  0  0  0  0
    3.1456    3.3091   -5.4424 N   0  0  0  0  0  0  0  0  0  0  0  0
    5.9855    2.0350   -3.4597 C   0  0  0  0  0  0  0  0  0  0  0  0
    7.0572    1.9743   -4.3461 C   0  0  0  0  0  0  0  0  0  0  0  0
    7.5373    0.7445   -4.8221 C   0  0  0  0  0  0  0  0  0  0  0  0
    6.9209   -0.4339   -4.3774 C   0  0  0  0  0  0  0  0  0  0  0  0
    5.8467   -0.3956   -3.4912 C   0  0  0  0  0  0  0  0  0  0  0  0
    5.3868    0.8437   -3.0459 C   0  0  0  0  0  0  0  0  0  0  0  0
    5.6236    2.9843   -3.0813 H   0  0  0  0  0  0  0  0  0  0  0  0
    7.5333    2.8957   -4.6697 H   0  0  0  0  0  0  0  0  0  0  0  0
    7.2902   -1.3945   -4.7253 H   0  0  0  0  0  0  0  0  0  0  0  0
    5.3784   -1.3066   -3.1359 H   0  0  0  0  0  0  0  0  0  0  0  0
    4.0230    0.9062   -1.9044 S   0  0  0  0  0  0  0  0  0  0  0  0
    3.8584   -0.3920   -1.2542 O   0  0  0  0  0  0  0  0  0  0  0  0
    2.8081    1.0816   -3.0443 O   0  0  0  0  0  0  0  0  0  0  0  0
    4.0874    2.1327   -1.1138 O   0  0  0  0  0  0  0  0  0  0  0  0
    8.6798    0.6945   -5.8065 C   0  0  0  0  0  0  0  0  0  0  0  0
    8.3136    0.8084   -6.8345 H   0  0  0  0  0  0  0  0  0  0  0  0
    9.3984    1.4998   -5.6269 H   0  0  0  0  0  0  0  0  0  0  0  0
    9.2129   -0.2588   -5.7538 H   0  0  0  0  0  0  0  0  0  0  0  0
   -2.1521    1.5584   -1.3545 H   0  0  0  0  0  0  0  0  0  0  0  0
  1  7  1  0  0  0  0
  1  6  2  0  0  0  0
  2  1  1  0  0  0  0
  3  2  2  0  0  0  0
  3  4  1  0  0  0  0
  4  5  2  0  0  0  0
  5 10  1  0  0  0  0
  5  6  1  0  0  0  0
  6 31  1  0  0  0  0
  8  2  1  0  0  0  0
  9  4  1  0  0  0  0
 11 12  3  0  0  0  0
 13 19  1  0  0  0  0
 13 18  1  0  0  0  0
 14 13  2  0  0  0  0
 15 16  2  0  0  0  0
 15 14  1  0  0  0  0
 16 17  1  0  0  0  0
 17 22  1  0  0  0  0
 17 18  2  0  0  0  0
 18 23  1  0  0  0  0
 20 14  1  0  0  0  0
 21 16  1  0  0  0  0
 23 24  2  0  0  0  0
 23 26  2  0  0  0  0
 25  3  1  0  0  0  0
 25 23  1  0  0  0  0
 27 30  1  0  0  0  0
 27 29  1  0  0  0  0
 27 15  1  0  0  0  0
 28 27  1  0  0  0  0
M  END
