Coordinates from ORCA-job Ph-N2-OTs-B3LYPG-6-31G_dp-MTMO-d009-169-n800
 OpenBabel09051907493D

 31 32  0  0  1  0  0  0  0  0999 V2000
    0.8488    0.4630   -1.8102 C   0  0  0  0  0  0  0  0  0  0  0  0
    1.1307    0.9742   -3.1756 C   0  0  1  0  0  0  0  0  0  0  0  0
    0.6137    2.3391   -3.2840 C   0  0  1  0  0  0  0  0  0  0  0  0
    0.2912    3.2179   -2.2222 C   0  0  0  0  0  0  0  0  0  0  0  0
    0.2500    2.6901   -0.9621 C   0  0  0  0  0  0  0  0  0  0  0  0
    0.4941    1.2829   -0.7869 C   0  0  0  0  0  0  0  0  0  0  0  0
    0.9976   -0.6001   -1.6541 H   0  0  0  0  0  0  0  0  0  0  0  0
    0.8110    0.2956   -3.9668 H   0  0  0  0  0  0  0  0  0  0  0  0
    0.0722    4.2606   -2.4239 H   0  0  0  0  0  0  0  0  0  0  0  0
    0.0047    3.3137   -0.1106 H   0  0  0  0  0  0  0  0  0  0  0  0
    0.5448    2.9184   -4.6884 N   0  0  0  0  0  0  0  0  0  0  0  0
    0.4966    3.3353   -5.7321 N   0  0  0  0  0  0  0  0  0  0  0  0
    5.7330    1.6608   -4.6833 C   0  0  0  0  0  0  0  0  0  0  0  0
    7.0973    1.7061   -4.4066 C   0  0  0  0  0  0  0  0  0  0  0  0
    7.7610    0.6053   -3.8448 C   0  0  0  0  0  0  0  0  0  0  0  0
    7.0199   -0.5521   -3.5641 C   0  0  0  0  0  0  0  0  0  0  0  0
    5.6549   -0.6167   -3.8332 C   0  0  0  0  0  0  0  0  0  0  0  0
    5.0225    0.4965   -4.3884 C   0  0  0  0  0  0  0  0  0  0  0  0
    5.2221    2.5068   -5.1299 H   0  0  0  0  0  0  0  0  0  0  0  0
    7.6576    2.6092   -4.6335 H   0  0  0  0  0  0  0  0  0  0  0  0
    7.5191   -1.4149   -3.1314 H   0  0  0  0  0  0  0  0  0  0  0  0
    5.0834   -1.5149   -3.6272 H   0  0  0  0  0  0  0  0  0  0  0  0
    3.2742    0.4255   -4.7279 S   0  0  0  0  0  0  0  0  0  0  0  0
    2.8677   -0.9725   -4.9122 O   0  0  0  0  0  0  0  0  0  0  0  0
    2.9403    1.4018   -5.7750 O   0  0  0  0  0  0  0  0  0  0  0  0
    2.7111    0.9620   -3.3090 O   0  0  0  0  0  0  0  0  0  0  0  0
    9.2462    0.6533   -3.5795 C   0  0  0  0  0  0  0  0  0  0  0  0
    9.8119    0.3239   -4.4602 H   0  0  0  0  0  0  0  0  0  0  0  0
    9.5786    1.6677   -3.3413 H   0  0  0  0  0  0  0  0  0  0  0  0
    9.5261   -0.0022   -2.7498 H   0  0  0  0  0  0  0  0  0  0  0  0
    0.3572    0.8544    0.2026 H   0  0  0  0  0  0  0  0  0  0  0  0
  1  7  1  0  0  0  0
  1  6  2  0  0  0  0
  2  8  1  6  0  0  0
  2  1  1  0  0  0  0
  3 11  1  6  0  0  0
  3  2  1  0  0  0  0
  3  4  1  0  0  0  0
  4  5  2  0  0  0  0
  5  6  1  0  0  0  0
  5 10  1  0  0  0  0
  6 31  1  0  0  0  0
  9  4  1  0  0  0  0
 12 11  1  0  0  0  0
 13 14  2  0  0  0  0
 13 18  1  0  0  0  0
 14 15  1  0  0  0  0
 15 27  1  0  0  0  0
 15 16  2  0  0  0  0
 16 21  1  0  0  0  0
 17 22  1  0  0  0  0
 17 16  1  0  0  0  0
 18 17  2  0  0  0  0
 19 13  1  0  0  0  0
 20 14  1  0  0  0  0
 23 18  1  0  0  0  0
 23 26  1  0  0  0  0
 24 23  2  0  0  0  0
 25 23  2  0  0  0  0
 26  2  1  0  0  0  0
 27 29  1  0  0  0  0
 27 30  1  0  0  0  0
 28 27  1  0  0  0  0
M  RAD  3   3   2  11   2  12   3
M  END
