Coordinates from ORCA-job Ph-N2-OTs-B3LYPG-6-31G_dp-MTMO-d009-169-n800
 OpenBabel09051907503D

 31 31  0  0  0  0  0  0  0  0999 V2000
   -0.3882    0.0923   -1.2119 C   0  0  0  0  0  0  0  0  0  0  0  0
    0.9426   -0.0148   -1.6182 C   0  0  0  0  0  0  0  0  0  0  0  0
    1.3909    0.7924   -2.6628 C   0  0  0  0  0  0  0  0  0  0  0  0
    0.5465    1.6956   -3.3048 C   0  0  0  0  0  0  0  0  0  0  0  0
   -0.7837    1.7854   -2.8939 C   0  0  0  0  0  0  0  0  0  0  0  0
   -1.2517    0.9875   -1.8473 C   0  0  0  0  0  0  0  0  0  0  0  0
   -0.7497   -0.5273   -0.3964 H   0  0  0  0  0  0  0  0  0  0  0  0
    1.6305   -0.7011   -1.1384 H   0  0  0  0  0  0  0  0  0  0  0  0
    0.9366    2.3072   -4.1110 H   0  0  0  0  0  0  0  0  0  0  0  0
   -1.4521    2.4833   -3.3893 H   0  0  0  0  0  0  0  0  0  0  0  0
    4.5113    6.3190   -2.6211 N   0  0  0  0  0  0  0  0  0  0  0  0
    4.7966    5.6249   -3.4321 N   0  0  0  0  0  0  0  0  0  0  0  0
    5.6965    1.9974   -4.2180 C   0  0  0  0  0  0  0  0  0  0  0  0
    6.7644    1.7055   -5.0617 C   0  0  0  0  0  0  0  0  0  0  0  0
    7.4047    0.4568   -5.0202 C   0  0  0  0  0  0  0  0  0  0  0  0
    6.9499   -0.4996   -4.1017 C   0  0  0  0  0  0  0  0  0  0  0  0
    5.8852   -0.2272   -3.2448 C   0  0  0  0  0  0  0  0  0  0  0  0
    5.2655    1.0203   -3.3182 C   0  0  0  0  0  0  0  0  0  0  0  0
    5.2118    2.9668   -4.2420 H   0  0  0  0  0  0  0  0  0  0  0  0
    7.1096    2.4615   -5.7621 H   0  0  0  0  0  0  0  0  0  0  0  0
    7.4381   -1.4689   -4.0533 H   0  0  0  0  0  0  0  0  0  0  0  0
    5.5449   -0.9631   -2.5247 H   0  0  0  0  0  0  0  0  0  0  0  0
    3.9099    1.3821   -2.2236 S   0  0  0  0  0  0  0  0  0  0  0  0
    4.0577    0.6225   -0.9836 O   0  0  0  0  0  0  0  0  0  0  0  0
    2.7076    0.6615   -3.1371 O   0  0  0  0  0  0  0  0  0  0  0  0
    3.6642    2.8220   -2.1871 O   0  0  0  0  0  0  0  0  0  0  0  0
    8.5667    0.1638   -5.9382 C   0  0  0  0  0  0  0  0  0  0  0  0
    8.3042    0.3591   -6.9838 H   0  0  0  0  0  0  0  0  0  0  0  0
    9.4269    0.7994   -5.6987 H   0  0  0  0  0  0  0  0  0  0  0  0
    8.8885   -0.8777   -5.8592 H   0  0  0  0  0  0  0  0  0  0  0  0
   -2.2863    1.0643   -1.5267 H   0  0  0  0  0  0  0  0  0  0  0  0
  1  7  1  0  0  0  0
  2  1  1  0  0  0  0
  2  8  1  0  0  0  0
  3  2  2  0  0  0  0
  4  5  2  0  0  0  0
  4  3  1  0  0  0  0
  5  6  1  0  0  0  0
  6 31  1  0  0  0  0
  6  1  2  0  0  0  0
  9  4  1  0  0  0  0
 10  5  1  0  0  0  0
 12 11  3  0  0  0  0
 13 18  2  0  0  0  0
 14 15  2  0  0  0  0
 14 13  1  0  0  0  0
 15 16  1  0  0  0  0
 16 21  1  0  0  0  0
 16 17  2  0  0  0  0
 17 22  1  0  0  0  0
 18 17  1  0  0  0  0
 18 23  1  0  0  0  0
 19 13  1  0  0  0  0
 20 14  1  0  0  0  0
 23 26  2  0  0  0  0
 23 24  2  0  0  0  0
 25  3  1  0  0  0  0
 25 23  1  0  0  0  0
 27 30  1  0  0  0  0
 27 29  1  0  0  0  0
 27 15  1  0  0  0  0
 28 27  1  0  0  0  0
M  END
