Coordinates from ORCA-job Ph-N2-OTs-B3LYPG-6-31G_dp-MTMO-d009-169-n800
 OpenBabel09051907503D

 31 31  0  0  0  0  0  0  0  0999 V2000
   -0.5857    0.1931   -1.8847 C   0  0  0  0  0  0  0  0  0  0  0  0
    0.7335    0.0518   -2.3175 C   0  0  0  0  0  0  0  0  0  0  0  0
    1.4938    1.1988   -2.5381 C   0  0  0  0  0  0  0  0  0  0  0  0
    0.9734    2.4749   -2.3314 C   0  0  0  0  0  0  0  0  0  0  0  0
   -0.3477    2.6013   -1.9007 C   0  0  0  0  0  0  0  0  0  0  0  0
   -1.1273    1.4639   -1.6770 C   0  0  0  0  0  0  0  0  0  0  0  0
   -1.1893   -0.6922   -1.7087 H   0  0  0  0  0  0  0  0  0  0  0  0
    1.1774   -0.9231   -2.4834 H   0  0  0  0  0  0  0  0  0  0  0  0
    1.6011    3.3408   -2.5083 H   0  0  0  0  0  0  0  0  0  0  0  0
   -0.7660    3.5899   -1.7364 H   0  0  0  0  0  0  0  0  0  0  0  0
    2.8024    2.6946   -6.3108 N   0  0  0  0  0  0  0  0  0  0  0  0
    3.1964    3.2817   -5.4614 N   0  0  0  0  0  0  0  0  0  0  0  0
    5.9760    2.0329   -3.4569 C   0  0  0  0  0  0  0  0  0  0  0  0
    7.0473    1.9783   -4.3435 C   0  0  0  0  0  0  0  0  0  0  0  0
    7.5301    0.7511   -4.8249 C   0  0  0  0  0  0  0  0  0  0  0  0
    6.9159   -0.4300   -4.3860 C   0  0  0  0  0  0  0  0  0  0  0  0
    5.8416   -0.3979   -3.4988 C   0  0  0  0  0  0  0  0  0  0  0  0
    5.3797    0.8381   -3.0478 C   0  0  0  0  0  0  0  0  0  0  0  0
    5.6120    2.9797   -3.0745 H   0  0  0  0  0  0  0  0  0  0  0  0
    7.5211    2.9022   -4.6634 H   0  0  0  0  0  0  0  0  0  0  0  0
    7.2864   -1.3881   -4.7389 H   0  0  0  0  0  0  0  0  0  0  0  0
    5.3752   -1.3114   -3.1477 H   0  0  0  0  0  0  0  0  0  0  0  0
    4.0168    0.8929   -1.9047 S   0  0  0  0  0  0  0  0  0  0  0  0
    3.8566   -0.4085   -1.2596 O   0  0  0  0  0  0  0  0  0  0  0  0
    2.7998    1.0703   -3.0416 O   0  0  0  0  0  0  0  0  0  0  0  0
    4.0795    2.1161   -1.1088 O   0  0  0  0  0  0  0  0  0  0  0  0
    8.6758    0.7104   -5.8063 C   0  0  0  0  0  0  0  0  0  0  0  0
    8.3300    0.9480   -6.8199 H   0  0  0  0  0  0  0  0  0  0  0  0
    9.4478    1.4422   -5.5491 H   0  0  0  0  0  0  0  0  0  0  0  0
    9.1398   -0.2787   -5.8407 H   0  0  0  0  0  0  0  0  0  0  0  0
   -2.1540    1.5675   -1.3399 H   0  0  0  0  0  0  0  0  0  0  0  0
  1  7  1  0  0  0  0
  1  6  1  0  0  0  0
  2  1  2  0  0  0  0
  3  4  2  0  0  0  0
  3  2  1  0  0  0  0
  4  5  1  0  0  0  0
  5 10  1  0  0  0  0
  5  6  2  0  0  0  0
  6 31  1  0  0  0  0
  8  2  1  0  0  0  0
  9  4  1  0  0  0  0
 11 12  3  0  0  0  0
 13 19  1  0  0  0  0
 13 18  1  0  0  0  0
 14 13  2  0  0  0  0
 15 16  2  0  0  0  0
 15 14  1  0  0  0  0
 16 17  1  0  0  0  0
 17 22  1  0  0  0  0
 17 18  2  0  0  0  0
 18 23  1  0  0  0  0
 20 14  1  0  0  0  0
 21 16  1  0  0  0  0
 23 24  2  0  0  0  0
 23 26  2  0  0  0  0
 25  3  1  0  0  0  0
 25 23  1  0  0  0  0
 27 29  1  0  0  0  0
 27 15  1  0  0  0  0
 28 27  1  0  0  0  0
 30 27  1  0  0  0  0
M  END
