Coordinates from ORCA-job Ph-N2-OTs-B3LYPG-6-31G_dp-MTMO-d009-169-n800
 OpenBabel09051907493D

 31 30  0  0  0  0  0  0  0  0999 V2000
    0.0527    0.1226   -1.4971 C   0  0  0  0  0  0  0  0  0  0  0  0
    0.6982    1.1403   -2.2317 C   0  0  0  0  0  0  0  0  0  0  0  0
    0.0150    2.1771   -2.4521 C   0  0  0  0  0  0  0  0  0  0  0  0
   -1.2401    2.6383   -2.1797 C   0  0  0  0  0  0  0  0  0  0  0  0
   -1.8988    1.6247   -1.4425 C   0  0  0  0  0  0  0  0  0  0  0  0
   -1.2698    0.4102   -1.1151 C   0  0  0  0  0  0  0  0  0  0  0  0
    0.5249   -0.8198   -1.2371 H   0  0  0  0  0  0  0  0  0  0  0  0
    2.5021    0.8645   -2.8337 H   0  0  0  0  0  0  0  0  0  0  0  0
   -1.6862    3.5853   -2.4516 H   0  0  0  0  0  0  0  0  0  0  0  0
   -2.9222    1.8052   -1.1247 H   0  0  0  0  0  0  0  0  0  0  0  0
    1.0136    4.3812   -3.7845 N   0  0  0  0  0  0  0  0  0  0  0  0
    1.8600    4.9729   -4.1773 N   0  0  0  0  0  0  0  0  0  0  0  0
    6.7300    1.3685   -3.1238 C   0  0  0  0  0  0  0  0  0  0  0  0
    7.9892    0.8240   -3.3677 C   0  0  0  0  0  0  0  0  0  0  0  0
    8.2691    0.1519   -4.5661 C   0  0  0  0  0  0  0  0  0  0  0  0
    7.2501    0.0359   -5.5237 C   0  0  0  0  0  0  0  0  0  0  0  0
    5.9855    0.5738   -5.2986 C   0  0  0  0  0  0  0  0  0  0  0  0
    5.7373    1.2330   -4.0939 C   0  0  0  0  0  0  0  0  0  0  0  0
    6.5155    1.8986   -2.2025 H   0  0  0  0  0  0  0  0  0  0  0  0
    8.7683    0.9259   -2.6166 H   0  0  0  0  0  0  0  0  0  0  0  0
    7.4513   -0.4796   -6.4590 H   0  0  0  0  0  0  0  0  0  0  0  0
    5.2004    0.4955   -6.0429 H   0  0  0  0  0  0  0  0  0  0  0  0
    4.1237    1.9265   -3.7946 S   0  0  0  0  0  0  0  0  0  0  0  0
    3.4348    0.6276   -3.0977 O   0  0  0  0  0  0  0  0  0  0  0  0
    3.4609    2.1896   -5.0734 O   0  0  0  0  0  0  0  0  0  0  0  0
    4.2283    2.9994   -2.8035 O   0  0  0  0  0  0  0  0  0  0  0  0
    9.6454   -0.4071   -4.8364 C   0  0  0  0  0  0  0  0  0  0  0  0
   10.2501    0.3044   -5.4130 H   0  0  0  0  0  0  0  0  0  0  0  0
   10.1829   -0.6152   -3.9072 H   0  0  0  0  0  0  0  0  0  0  0  0
    9.5945   -1.3338   -5.4159 H   0  0  0  0  0  0  0  0  0  0  0  0
   -1.8270   -0.3309   -0.5480 H   0  0  0  0  0  0  0  0  0  0  0  0
  1  7  1  0  0  0  0
  1  6  2  0  0  0  0
  2  1  1  0  0  0  0
  3  2  2  0  0  0  0
  3  4  1  0  0  0  0
  4  5  2  0  0  0  0
  5 10  1  0  0  0  0
  5  6  1  0  0  0  0
  6 31  1  0  0  0  0
  9  4  1  0  0  0  0
 12 11  3  0  0  0  0
 13 19  1  0  0  0  0
 14 13  1  0  0  0  0
 14 20  1  0  0  0  0
 15 14  2  0  0  0  0
 16 17  2  0  0  0  0
 16 15  1  0  0  0  0
 17 18  1  0  0  0  0
 18 23  1  0  0  0  0
 18 13  2  0  0  0  0
 21 16  1  0  0  0  0
 22 17  1  0  0  0  0
 23 24  1  0  0  0  0
 23 26  2  0  0  0  0
 24  8  1  0  0  0  0
 25 23  2  0  0  0  0
 27 15  1  0  0  0  0
 27 29  1  0  0  0  0
 28 27  1  0  0  0  0
 30 27  1  0  0  0  0
M  RAD  2   2   2   3   2
M  END
