Coordinates from ORCA-job Ph-N2-OTs-B3LYPG-6-31G_dp-MTMO-d009-169-n800
 OpenBabel09051907503D

 31 30  0  0  0  0  0  0  0  0999 V2000
   -0.1849    0.0158   -1.2049 C   0  0  0  0  0  0  0  0  0  0  0  0
    0.7003    0.7330   -2.0308 C   0  0  0  0  0  0  0  0  0  0  0  0
    0.2479    1.7547   -2.6095 C   0  0  0  0  0  0  0  0  0  0  0  0
   -0.9404    2.4268   -2.6694 C   0  0  0  0  0  0  0  0  0  0  0  0
   -1.8492    1.7206   -1.8435 C   0  0  0  0  0  0  0  0  0  0  0  0
   -1.4820    0.5588   -1.1403 C   0  0  0  0  0  0  0  0  0  0  0  0
    0.0845   -0.8801   -0.6544 H   0  0  0  0  0  0  0  0  0  0  0  0
    2.6449    0.4602   -2.3718 H   0  0  0  0  0  0  0  0  0  0  0  0
   -1.1832    3.3245   -3.2211 H   0  0  0  0  0  0  0  0  0  0  0  0
   -2.8638    2.1014   -1.7575 H   0  0  0  0  0  0  0  0  0  0  0  0
    1.1467    4.5491   -4.5217 N   0  0  0  0  0  0  0  0  0  0  0  0
    2.0060    5.1158   -4.9229 N   0  0  0  0  0  0  0  0  0  0  0  0
    6.9083    1.2634   -2.9033 C   0  0  0  0  0  0  0  0  0  0  0  0
    8.1202    0.8051   -3.4175 C   0  0  0  0  0  0  0  0  0  0  0  0
    8.2055    0.2793   -4.7141 C   0  0  0  0  0  0  0  0  0  0  0  0
    7.0390    0.2213   -5.4929 C   0  0  0  0  0  0  0  0  0  0  0  0
    5.8198    0.6747   -4.9975 C   0  0  0  0  0  0  0  0  0  0  0  0
    5.7668    1.1891   -3.7005 C   0  0  0  0  0  0  0  0  0  0  0  0
    6.8417    1.6795   -1.9045 H   0  0  0  0  0  0  0  0  0  0  0  0
    9.0147    0.8587   -2.8027 H   0  0  0  0  0  0  0  0  0  0  0  0
    7.0883   -0.1820   -6.5006 H   0  0  0  0  0  0  0  0  0  0  0  0
    4.9211    0.6410   -5.6038 H   0  0  0  0  0  0  0  0  0  0  0  0
    4.2125    1.7726   -3.0540 S   0  0  0  0  0  0  0  0  0  0  0  0
    3.6189    0.3491   -2.5295 O   0  0  0  0  0  0  0  0  0  0  0  0
    3.3647    2.2445   -4.1535 O   0  0  0  0  0  0  0  0  0  0  0  0
    4.4674    2.6461   -1.9097 O   0  0  0  0  0  0  0  0  0  0  0  0
    9.5274   -0.1871   -5.2748 C   0  0  0  0  0  0  0  0  0  0  0  0
    9.9894    0.5957   -5.8896 H   0  0  0  0  0  0  0  0  0  0  0  0
   10.2337   -0.4383   -4.4789 H   0  0  0  0  0  0  0  0  0  0  0  0
    9.4025   -1.0679   -5.9121 H   0  0  0  0  0  0  0  0  0  0  0  0
   -2.2290    0.0652   -0.5241 H   0  0  0  0  0  0  0  0  0  0  0  0
  1  6  1  0  0  0  0
  1  7  1  0  0  0  0
  2  1  2  0  0  0  0
  3  2  1  0  0  0  0
  4  3  2  0  0  0  0
  4  5  1  0  0  0  0
  5 10  1  0  0  0  0
  5  6  2  0  0  0  0
  6 31  1  0  0  0  0
  9  4  1  0  0  0  0
 12 11  3  0  0  0  0
 13 19  1  0  0  0  0
 14 13  1  0  0  0  0
 14 20  1  0  0  0  0
 15 14  2  0  0  0  0
 16 17  2  0  0  0  0
 16 15  1  0  0  0  0
 17 18  1  0  0  0  0
 18 23  1  0  0  0  0
 18 13  2  0  0  0  0
 21 16  1  0  0  0  0
 22 17  1  0  0  0  0
 23 24  1  0  0  0  0
 23 26  2  0  0  0  0
 24  8  1  0  0  0  0
 25 23  2  0  0  0  0
 27 15  1  0  0  0  0
 27 29  1  0  0  0  0
 28 27  1  0  0  0  0
 30 27  1  0  0  0  0
M  RAD  2   2   2   3   2
M  END
