Coordinates from ORCA-job Ph-N2-OTs-B3LYPG-6-31G_dp-MTMO-d009-169-n800
 OpenBabel09051907503D

 31 31  0  0  0  0  0  0  0  0999 V2000
   -0.5602    0.2022   -1.6093 C   0  0  0  0  0  0  0  0  0  0  0  0
    0.7535    0.0059   -2.0373 C   0  0  0  0  0  0  0  0  0  0  0  0
    1.4746    1.1013   -2.5106 C   0  0  0  0  0  0  0  0  0  0  0  0
    0.9194    2.3779   -2.5637 C   0  0  0  0  0  0  0  0  0  0  0  0
   -0.3973    2.5575   -2.1391 C   0  0  0  0  0  0  0  0  0  0  0  0
   -1.1371    1.4733   -1.6609 C   0  0  0  0  0  0  0  0  0  0  0  0
   -1.1330   -0.6418   -1.2373 H   0  0  0  0  0  0  0  0  0  0  0  0
    1.2226   -0.9708   -2.0060 H   0  0  0  0  0  0  0  0  0  0  0  0
    1.5169    3.2017   -2.9372 H   0  0  0  0  0  0  0  0  0  0  0  0
   -0.8434    3.5469   -2.1790 H   0  0  0  0  0  0  0  0  0  0  0  0
    3.4195    3.4370   -6.5374 N   0  0  0  0  0  0  0  0  0  0  0  0
    3.2798    3.6317   -5.4585 N   0  0  0  0  0  0  0  0  0  0  0  0
    5.9412    1.9764   -3.4132 C   0  0  0  0  0  0  0  0  0  0  0  0
    7.0054    1.9580   -4.3099 C   0  0  0  0  0  0  0  0  0  0  0  0
    7.4925    0.7505   -4.8348 C   0  0  0  0  0  0  0  0  0  0  0  0
    6.8909   -0.4485   -4.4282 C   0  0  0  0  0  0  0  0  0  0  0  0
    5.8246   -0.4526   -3.5307 C   0  0  0  0  0  0  0  0  0  0  0  0
    5.3571    0.7649   -3.0373 C   0  0  0  0  0  0  0  0  0  0  0  0
    5.5736    2.9072   -2.9963 H   0  0  0  0  0  0  0  0  0  0  0  0
    7.4706    2.8950   -4.6037 H   0  0  0  0  0  0  0  0  0  0  0  0
    7.2651   -1.3921   -4.8147 H   0  0  0  0  0  0  0  0  0  0  0  0
    5.3687   -1.3807   -3.2046 H   0  0  0  0  0  0  0  0  0  0  0  0
    4.0006    0.7753   -1.8849 S   0  0  0  0  0  0  0  0  0  0  0  0
    3.8858   -0.5338   -1.2450 O   0  0  0  0  0  0  0  0  0  0  0  0
    2.7746    0.9195   -3.0137 O   0  0  0  0  0  0  0  0  0  0  0  0
    4.0321    1.9954   -1.0830 O   0  0  0  0  0  0  0  0  0  0  0  0
    8.6296    0.7503   -5.8270 C   0  0  0  0  0  0  0  0  0  0  0  0
    8.2754    1.0302   -6.8266 H   0  0  0  0  0  0  0  0  0  0  0  0
    9.4042    1.4705   -5.5461 H   0  0  0  0  0  0  0  0  0  0  0  0
    9.0928   -0.2365   -5.9066 H   0  0  0  0  0  0  0  0  0  0  0  0
   -2.1604    1.6189   -1.3289 H   0  0  0  0  0  0  0  0  0  0  0  0
  1  7  1  0  0  0  0
  2  8  1  0  0  0  0
  2  1  2  0  0  0  0
  3  2  1  0  0  0  0
  4  3  2  0  0  0  0
  4  5  1  0  0  0  0
  5  6  2  0  0  0  0
  6  1  1  0  0  0  0
  6 31  1  0  0  0  0
  9  4  1  0  0  0  0
 10  5  1  0  0  0  0
 11 12  3  0  0  0  0
 13 18  1  0  0  0  0
 13 19  1  0  0  0  0
 14 13  2  0  0  0  0
 15 16  2  0  0  0  0
 15 14  1  0  0  0  0
 16 17  1  0  0  0  0
 17 22  1  0  0  0  0
 17 18  2  0  0  0  0
 18 23  1  0  0  0  0
 20 14  1  0  0  0  0
 21 16  1  0  0  0  0
 23 24  2  0  0  0  0
 23 26  2  0  0  0  0
 25  3  1  0  0  0  0
 25 23  1  0  0  0  0
 27 29  1  0  0  0  0
 27 15  1  0  0  0  0
 28 27  1  0  0  0  0
 30 27  1  0  0  0  0
M  END
