Coordinates from ORCA-job Ph-N2-OTs-B3LYPG-6-31G_dp-MTMO-d009-169-n800
 OpenBabel09051907503D

 31 31  0  0  0  0  0  0  0  0999 V2000
   -0.8773   -1.0916   -1.2919 C   0  0  0  0  0  0  0  0  0  0  0  0
    0.4225   -0.8872   -1.7563 C   0  0  0  0  0  0  0  0  0  0  0  0
    0.7606    0.3591   -2.2805 C   0  0  0  0  0  0  0  0  0  0  0  0
   -0.1615    1.4022   -2.3439 C   0  0  0  0  0  0  0  0  0  0  0  0
   -1.4580    1.1837   -1.8765 C   0  0  0  0  0  0  0  0  0  0  0  0
   -1.8173   -0.0600   -1.3516 C   0  0  0  0  0  0  0  0  0  0  0  0
   -1.1539   -2.0581   -0.8816 H   0  0  0  0  0  0  0  0  0  0  0  0
    1.1708   -1.6707   -1.7169 H   0  0  0  0  0  0  0  0  0  0  0  0
    0.1429    2.3591   -2.7520 H   0  0  0  0  0  0  0  0  0  0  0  0
   -2.1865    1.9878   -1.9222 H   0  0  0  0  0  0  0  0  0  0  0  0
   14.9727    6.3963   -8.4811 N   0  0  0  0  0  0  0  0  0  0  0  0
   14.0295    5.8613   -8.2668 N   0  0  0  0  0  0  0  0  0  0  0  0
    4.8127    2.3624   -3.6038 C   0  0  0  0  0  0  0  0  0  0  0  0
    5.8669    2.4055   -4.5134 C   0  0  0  0  0  0  0  0  0  0  0  0
    6.6625    1.2766   -4.7566 C   0  0  0  0  0  0  0  0  0  0  0  0
    6.3842    0.0947   -4.0525 C   0  0  0  0  0  0  0  0  0  0  0  0
    5.3364    0.0308   -3.1383 C   0  0  0  0  0  0  0  0  0  0  0  0
    4.5557    1.1689   -2.9289 C   0  0  0  0  0  0  0  0  0  0  0  0
    4.2054    3.2384   -3.4050 H   0  0  0  0  0  0  0  0  0  0  0  0
    6.0791    3.3322   -5.0390 H   0  0  0  0  0  0  0  0  0  0  0  0
    7.0004   -0.7849   -4.2187 H   0  0  0  0  0  0  0  0  0  0  0  0
    5.1310   -0.8779   -2.5832 H   0  0  0  0  0  0  0  0  0  0  0  0
    3.2176    1.1035   -1.7573 S   0  0  0  0  0  0  0  0  0  0  0  0
    3.4703    0.0582   -0.7683 O   0  0  0  0  0  0  0  0  0  0  0  0
    2.0455    0.5505   -2.8165 O   0  0  0  0  0  0  0  0  0  0  0  0
    2.8570    2.4554   -1.3366 O   0  0  0  0  0  0  0  0  0  0  0  0
    7.7822    1.3237   -5.7673 C   0  0  0  0  0  0  0  0  0  0  0  0
    8.1439    2.3441   -5.9185 H   0  0  0  0  0  0  0  0  0  0  0  0
    8.6277    0.7028   -5.4575 H   0  0  0  0  0  0  0  0  0  0  0  0
    7.4436    0.9485   -6.7410 H   0  0  0  0  0  0  0  0  0  0  0  0
   -2.8272   -0.2244   -0.9882 H   0  0  0  0  0  0  0  0  0  0  0  0
  1  7  1  0  0  0  0
  2  8  1  0  0  0  0
  2  1  2  0  0  0  0
  3  2  1  0  0  0  0
  4  3  2  0  0  0  0
  4  5  1  0  0  0  0
  5  6  2  0  0  0  0
  6  1  1  0  0  0  0
  6 31  1  0  0  0  0
  9  4  1  0  0  0  0
 10  5  1  0  0  0  0
 11 12  3  0  0  0  0
 13 19  1  0  0  0  0
 13 18  2  0  0  0  0
 14 13  1  0  0  0  0
 15 14  2  0  0  0  0
 15 16  1  0  0  0  0
 16 17  2  0  0  0  0
 17 18  1  0  0  0  0
 17 22  1  0  0  0  0
 18 23  1  0  0  0  0
 20 14  1  0  0  0  0
 21 16  1  0  0  0  0
 23 26  2  0  0  0  0
 23 24  2  0  0  0  0
 25  3  1  0  0  0  0
 25 23  1  0  0  0  0
 27 29  1  0  0  0  0
 27 15  1  0  0  0  0
 28 27  1  0  0  0  0
 30 27  1  0  0  0  0
M  END
