Coordinates from ORCA-job Ph-N2-OTs-B3LYPG-6-31G_dp-MTMO-d009-169-n800
 OpenBabel09051907493D

 31 31  0  0  0  0  0  0  0  0999 V2000
   -0.2058    0.2301   -1.7905 C   0  0  0  0  0  0  0  0  0  0  0  0
    0.8891    1.0420   -2.1376 C   0  0  0  0  0  0  0  0  0  0  0  0
    0.5014    2.2281   -2.6823 C   0  0  0  0  0  0  0  0  0  0  0  0
   -0.7386    2.7525   -2.9489 C   0  0  0  0  0  0  0  0  0  0  0  0
   -1.7891    1.8949   -2.5929 C   0  0  0  0  0  0  0  0  0  0  0  0
   -1.5191    0.6483   -2.0199 C   0  0  0  0  0  0  0  0  0  0  0  0
   -0.0056   -0.7365   -1.3400 H   0  0  0  0  0  0  0  0  0  0  0  0
    1.9323    0.7541   -1.9696 H   0  0  0  0  0  0  0  0  0  0  0  0
   -0.8963    3.7275   -3.3903 H   0  0  0  0  0  0  0  0  0  0  0  0
   -2.8107    2.2158   -2.7702 H   0  0  0  0  0  0  0  0  0  0  0  0
    1.8406    3.3797   -3.1260 N   0  0  0  0  0  0  0  0  0  0  0  0
    2.0911    4.4553   -3.2774 N   0  0  0  0  0  0  0  0  0  0  0  0
    6.7564    2.0502   -3.8126 C   0  0  0  0  0  0  0  0  0  0  0  0
    7.8865    1.5992   -4.4926 C   0  0  0  0  0  0  0  0  0  0  0  0
    8.0807    0.2350   -4.7523 C   0  0  0  0  0  0  0  0  0  0  0  0
    7.1137   -0.6734   -4.2987 C   0  0  0  0  0  0  0  0  0  0  0  0
    5.9783   -0.2377   -3.6173 C   0  0  0  0  0  0  0  0  0  0  0  0
    5.8042    1.1263   -3.3805 C   0  0  0  0  0  0  0  0  0  0  0  0
    6.6167    3.1032   -3.5935 H   0  0  0  0  0  0  0  0  0  0  0  0
    8.6341    2.3170   -4.8213 H   0  0  0  0  0  0  0  0  0  0  0  0
    7.2549   -1.7369   -4.4765 H   0  0  0  0  0  0  0  0  0  0  0  0
    5.2404   -0.9422   -3.2494 H   0  0  0  0  0  0  0  0  0  0  0  0
    4.3321    1.7088   -2.5345 S   0  0  0  0  0  0  0  0  0  0  0  0
    3.8818    0.5983   -1.6503 O   0  0  0  0  0  0  0  0  0  0  0  0
    3.3283    1.9125   -3.6769 O   0  0  0  0  0  0  0  0  0  0  0  0
    4.6649    2.9818   -1.8671 O   0  0  0  0  0  0  0  0  0  0  0  0
    9.2925   -0.2413   -5.5176 C   0  0  0  0  0  0  0  0  0  0  0  0
    9.0954   -0.2604   -6.5974 H   0  0  0  0  0  0  0  0  0  0  0  0
   10.1522    0.4164   -5.3565 H   0  0  0  0  0  0  0  0  0  0  0  0
    9.5805   -1.2547   -5.2226 H   0  0  0  0  0  0  0  0  0  0  0  0
   -2.3433   -0.0032   -1.7484 H   0  0  0  0  0  0  0  0  0  0  0  0
  1  7  1  0  0  0  0
  2  8  1  0  0  0  0
  2  1  2  0  0  0  0
  3  2  1  0  0  0  0
  4  3  2  0  0  0  0
  4  5  1  0  0  0  0
  5  6  2  0  0  0  0
  6  1  1  0  0  0  0
  6 31  1  0  0  0  0
  9  4  1  0  0  0  0
 10  5  1  0  0  0  0
 11  3  1  0  0  0  0
 12 11  2  0  0  0  0
 13 19  1  0  0  0  0
 13 18  2  0  0  0  0
 14 13  1  0  0  0  0
 15 14  2  0  0  0  0
 15 16  1  0  0  0  0
 16 17  2  0  0  0  0
 17 18  1  0  0  0  0
 17 22  1  0  0  0  0
 18 23  1  0  0  0  0
 20 14  1  0  0  0  0
 21 16  1  0  0  0  0
 23 26  2  0  0  0  0
 23 24  1  0  0  0  0
 25 23  2  0  0  0  0
 27 29  1  0  0  0  0
 27 30  1  0  0  0  0
 27 15  1  0  0  0  0
 28 27  1  0  0  0  0
M  RAD  2  12   2  24   2
M  END
