Coordinates from ORCA-job Ph-N2-OTs-B3LYPG-6-31G_dp-MTMO-d009-169-n800
 OpenBabel09051907503D

 31 31  0  0  0  0  0  0  0  0999 V2000
   -0.6528   -1.0512   -1.3989 C   0  0  0  0  0  0  0  0  0  0  0  0
    0.6415   -0.8211   -1.8667 C   0  0  0  0  0  0  0  0  0  0  0  0
    0.9564    0.4351   -2.3817 C   0  0  0  0  0  0  0  0  0  0  0  0
    0.0167    1.4630   -2.4327 C   0  0  0  0  0  0  0  0  0  0  0  0
   -1.2739    1.2188   -1.9619 C   0  0  0  0  0  0  0  0  0  0  0  0
   -1.6101   -0.0351   -1.4461 C   0  0  0  0  0  0  0  0  0  0  0  0
   -0.9114   -2.0256   -0.9955 H   0  0  0  0  0  0  0  0  0  0  0  0
    1.4031   -1.5921   -1.8368 H   0  0  0  0  0  0  0  0  0  0  0  0
    0.3033    2.4282   -2.8341 H   0  0  0  0  0  0  0  0  0  0  0  0
   -2.0161    2.0109   -1.9977 H   0  0  0  0  0  0  0  0  0  0  0  0
   12.1538    4.7868   -7.1228 N   0  0  0  0  0  0  0  0  0  0  0  0
   11.1741    4.3630   -6.8361 N   0  0  0  0  0  0  0  0  0  0  0  0
    4.9972    2.5007   -3.6956 C   0  0  0  0  0  0  0  0  0  0  0  0
    6.0560    2.5560   -4.5985 C   0  0  0  0  0  0  0  0  0  0  0  0
    6.8587    1.4323   -4.8464 C   0  0  0  0  0  0  0  0  0  0  0  0
    6.5814    0.2442   -4.1537 C   0  0  0  0  0  0  0  0  0  0  0  0
    5.5286    0.1681   -3.2452 C   0  0  0  0  0  0  0  0  0  0  0  0
    4.7415    1.3004   -3.0311 C   0  0  0  0  0  0  0  0  0  0  0  0
    4.3847    3.3722   -3.4930 H   0  0  0  0  0  0  0  0  0  0  0  0
    6.2669    3.4882   -5.1151 H   0  0  0  0  0  0  0  0  0  0  0  0
    7.2021   -0.6314   -4.3235 H   0  0  0  0  0  0  0  0  0  0  0  0
    5.3253   -0.7460   -2.6983 H   0  0  0  0  0  0  0  0  0  0  0  0
    3.4015    1.2207   -1.8622 S   0  0  0  0  0  0  0  0  0  0  0  0
    3.6644    0.1796   -0.8714 O   0  0  0  0  0  0  0  0  0  0  0  0
    2.2360    0.6524   -2.9211 O   0  0  0  0  0  0  0  0  0  0  0  0
    3.0252    2.5690   -1.4437 O   0  0  0  0  0  0  0  0  0  0  0  0
    7.9825    1.4951   -5.8517 C   0  0  0  0  0  0  0  0  0  0  0  0
    8.4462    2.4855   -5.8786 H   0  0  0  0  0  0  0  0  0  0  0  0
    8.7606    0.7596   -5.6290 H   0  0  0  0  0  0  0  0  0  0  0  0
    7.6117    1.2827   -6.8624 H   0  0  0  0  0  0  0  0  0  0  0  0
   -2.6156   -0.2195   -1.0800 H   0  0  0  0  0  0  0  0  0  0  0  0
  1  7  1  0  0  0  0
  2  8  1  0  0  0  0
  2  1  2  0  0  0  0
  3  2  1  0  0  0  0
  4  3  2  0  0  0  0
  4  5  1  0  0  0  0
  5  6  2  0  0  0  0
  6  1  1  0  0  0  0
  6 31  1  0  0  0  0
  9  4  1  0  0  0  0
 10  5  1  0  0  0  0
 11 12  3  0  0  0  0
 13 19  1  0  0  0  0
 13 18  2  0  0  0  0
 14 13  1  0  0  0  0
 15 14  2  0  0  0  0
 15 16  1  0  0  0  0
 16 17  2  0  0  0  0
 17 18  1  0  0  0  0
 17 22  1  0  0  0  0
 18 23  1  0  0  0  0
 20 14  1  0  0  0  0
 21 16  1  0  0  0  0
 23 26  2  0  0  0  0
 23 24  2  0  0  0  0
 25  3  1  0  0  0  0
 25 23  1  0  0  0  0
 27 29  1  0  0  0  0
 27 15  1  0  0  0  0
 28 27  1  0  0  0  0
 30 27  1  0  0  0  0
M  END
