Coordinates from ORCA-job Ph-N2-OTs-B3LYPG-6-31G_dp-MTMO-d009-169-n800
 OpenBabel09051907503D

 31 31  0  0  0  0  0  0  0  0999 V2000
   -0.3997    0.0475   -1.1834 C   0  0  0  0  0  0  0  0  0  0  0  0
    0.9333   -0.0315   -1.5892 C   0  0  0  0  0  0  0  0  0  0  0  0
    1.3534    0.7500   -2.6647 C   0  0  0  0  0  0  0  0  0  0  0  0
    0.4791    1.6009   -3.3375 C   0  0  0  0  0  0  0  0  0  0  0  0
   -0.8527    1.6629   -2.9262 C   0  0  0  0  0  0  0  0  0  0  0  0
   -1.2927    0.8899   -1.8493 C   0  0  0  0  0  0  0  0  0  0  0  0
   -0.7395   -0.5523   -0.3442 H   0  0  0  0  0  0  0  0  0  0  0  0
    1.6439   -0.6766   -1.0861 H   0  0  0  0  0  0  0  0  0  0  0  0
    0.8476    2.1940   -4.1672 H   0  0  0  0  0  0  0  0  0  0  0  0
   -1.5443    2.3195   -3.4456 H   0  0  0  0  0  0  0  0  0  0  0  0
    5.2203    6.4239   -2.5381 N   0  0  0  0  0  0  0  0  0  0  0  0
    5.2211    5.6667   -3.3430 N   0  0  0  0  0  0  0  0  0  0  0  0
    5.6397    2.0240   -4.2646 C   0  0  0  0  0  0  0  0  0  0  0  0
    6.7152    1.7239   -5.0959 C   0  0  0  0  0  0  0  0  0  0  0  0
    7.3723    0.4860   -5.0175 C   0  0  0  0  0  0  0  0  0  0  0  0
    6.9263   -0.4514   -4.0750 C   0  0  0  0  0  0  0  0  0  0  0  0
    5.8547   -0.1702   -3.2300 C   0  0  0  0  0  0  0  0  0  0  0  0
    5.2183    1.0663   -3.3401 C   0  0  0  0  0  0  0  0  0  0  0  0
    5.1417    2.9854   -4.3160 H   0  0  0  0  0  0  0  0  0  0  0  0
    7.0526    2.4648   -5.8159 H   0  0  0  0  0  0  0  0  0  0  0  0
    7.4269   -1.4126   -3.9991 H   0  0  0  0  0  0  0  0  0  0  0  0
    5.5216   -0.8913   -2.4916 H   0  0  0  0  0  0  0  0  0  0  0  0
    3.8536    1.4407   -2.2611 S   0  0  0  0  0  0  0  0  0  0  0  0
    4.0224    0.7446   -0.9868 O   0  0  0  0  0  0  0  0  0  0  0  0
    2.6726    0.6434   -3.1376 O   0  0  0  0  0  0  0  0  0  0  0  0
    3.5684    2.8733   -2.2919 O   0  0  0  0  0  0  0  0  0  0  0  0
    8.5454    0.1851   -5.9186 C   0  0  0  0  0  0  0  0  0  0  0  0
    8.3091    0.4066   -6.9649 H   0  0  0  0  0  0  0  0  0  0  0  0
    9.4143    0.7965   -5.6487 H   0  0  0  0  0  0  0  0  0  0  0  0
    8.8436   -0.8643   -5.8529 H   0  0  0  0  0  0  0  0  0  0  0  0
   -2.3289    0.9448   -1.5291 H   0  0  0  0  0  0  0  0  0  0  0  0
  1  7  1  0  0  0  0
  2  1  1  0  0  0  0
  2  8  1  0  0  0  0
  3  2  2  0  0  0  0
  4  5  2  0  0  0  0
  4  3  1  0  0  0  0
  5  6  1  0  0  0  0
  6 31  1  0  0  0  0
  6  1  2  0  0  0  0
  9  4  1  0  0  0  0
 10  5  1  0  0  0  0
 12 11  3  0  0  0  0
 13 18  2  0  0  0  0
 14 15  2  0  0  0  0
 14 13  1  0  0  0  0
 15 16  1  0  0  0  0
 16 21  1  0  0  0  0
 16 17  2  0  0  0  0
 17 22  1  0  0  0  0
 18 17  1  0  0  0  0
 18 23  1  0  0  0  0
 19 13  1  0  0  0  0
 20 14  1  0  0  0  0
 23 24  2  0  0  0  0
 25  3  1  0  0  0  0
 25 23  1  0  0  0  0
 26 23  2  0  0  0  0
 27 30  1  0  0  0  0
 27 29  1  0  0  0  0
 27 15  1  0  0  0  0
 28 27  1  0  0  0  0
M  END
