Coordinates from ORCA-job Ph-N2-OTs-B3LYPG-6-31G_dp-MTMO-d009-169-n800
 OpenBabel09051907503D

 31 31  0  0  0  0  0  0  0  0999 V2000
   -0.4287   -0.1909   -1.5634 C   0  0  0  0  0  0  0  0  0  0  0  0
    0.8929   -0.2243   -2.0097 C   0  0  0  0  0  0  0  0  0  0  0  0
    1.4065    0.8887   -2.6724 C   0  0  0  0  0  0  0  0  0  0  0  0
    0.6396    2.0323   -2.8901 C   0  0  0  0  0  0  0  0  0  0  0  0
   -0.6801    2.0522   -2.4370 C   0  0  0  0  0  0  0  0  0  0  0  0
   -1.2154    0.9438   -1.7760 C   0  0  0  0  0  0  0  0  0  0  0  0
   -0.8418   -1.0524   -1.0471 H   0  0  0  0  0  0  0  0  0  0  0  0
    1.5256   -1.0904   -1.8523 H   0  0  0  0  0  0  0  0  0  0  0  0
    1.0798    2.8812   -3.4009 H   0  0  0  0  0  0  0  0  0  0  0  0
   -1.2896    2.9358   -2.6015 H   0  0  0  0  0  0  0  0  0  0  0  0
    4.7397    6.1291   -3.6475 N   0  0  0  0  0  0  0  0  0  0  0  0
    3.7029    5.7702   -3.7818 N   0  0  0  0  0  0  0  0  0  0  0  0
    5.7681    2.0073   -4.1664 C   0  0  0  0  0  0  0  0  0  0  0  0
    6.8462    1.6906   -4.9891 C   0  0  0  0  0  0  0  0  0  0  0  0
    7.4516    0.4260   -4.9390 C   0  0  0  0  0  0  0  0  0  0  0  0
    6.9550   -0.5198   -4.0295 C   0  0  0  0  0  0  0  0  0  0  0  0
    5.8791   -0.2229   -3.1967 C   0  0  0  0  0  0  0  0  0  0  0  0
    5.2922    1.0405   -3.2799 C   0  0  0  0  0  0  0  0  0  0  0  0
    5.3099    2.9892   -4.1941 H   0  0  0  0  0  0  0  0  0  0  0  0
    7.2285    2.4403   -5.6765 H   0  0  0  0  0  0  0  0  0  0  0  0
    7.4220   -1.4987   -3.9678 H   0  0  0  0  0  0  0  0  0  0  0  0
    5.5073   -0.9489   -2.4821 H   0  0  0  0  0  0  0  0  0  0  0  0
    3.9268    1.4366   -2.2089 S   0  0  0  0  0  0  0  0  0  0  0  0
    3.9866    0.6216   -0.9980 O   0  0  0  0  0  0  0  0  0  0  0  0
    2.7133    0.8302   -3.1875 O   0  0  0  0  0  0  0  0  0  0  0  0
    3.7706    2.8876   -2.1222 O   0  0  0  0  0  0  0  0  0  0  0  0
    8.6008    0.0861   -5.8567 C   0  0  0  0  0  0  0  0  0  0  0  0
    8.2327   -0.2884   -6.8196 H   0  0  0  0  0  0  0  0  0  0  0  0
    9.2194    0.9639   -6.0648 H   0  0  0  0  0  0  0  0  0  0  0  0
    9.2407   -0.6902   -5.4276 H   0  0  0  0  0  0  0  0  0  0  0  0
   -2.2427    0.9647   -1.4256 H   0  0  0  0  0  0  0  0  0  0  0  0
  1  7  1  0  0  0  0
  2  8  1  0  0  0  0
  2  1  2  0  0  0  0
  3  2  1  0  0  0  0
  4  3  2  0  0  0  0
  4  5  1  0  0  0  0
  5  6  2  0  0  0  0
  6  1  1  0  0  0  0
  6 31  1  0  0  0  0
  9  4  1  0  0  0  0
 10  5  1  0  0  0  0
 12 11  3  0  0  0  0
 13 18  2  0  0  0  0
 14 15  2  0  0  0  0
 14 13  1  0  0  0  0
 15 16  1  0  0  0  0
 16 21  1  0  0  0  0
 16 17  2  0  0  0  0
 17 22  1  0  0  0  0
 18 17  1  0  0  0  0
 18 23  1  0  0  0  0
 19 13  1  0  0  0  0
 20 14  1  0  0  0  0
 23 26  2  0  0  0  0
 23 24  2  0  0  0  0
 25  3  1  0  0  0  0
 25 23  1  0  0  0  0
 27 30  1  0  0  0  0
 27 15  1  0  0  0  0
 28 27  1  0  0  0  0
 29 27  1  0  0  0  0
M  END
