Coordinates from ORCA-job Ph-N2-OTs-B3LYPG-6-31G_dp-MTMO-d009-169-n800
 OpenBabel09051907503D

 31 31  0  0  0  0  0  0  0  0999 V2000
   -0.7257   -0.6085   -1.6510 C   0  0  0  0  0  0  0  0  0  0  0  0
    0.6147   -0.5635   -2.0366 C   0  0  0  0  0  0  0  0  0  0  0  0
    1.1309    0.6334   -2.5311 C   0  0  0  0  0  0  0  0  0  0  0  0
    0.3457    1.7792   -2.6431 C   0  0  0  0  0  0  0  0  0  0  0  0
   -0.9941    1.7186   -2.2581 C   0  0  0  0  0  0  0  0  0  0  0  0
   -1.5306    0.5279   -1.7619 C   0  0  0  0  0  0  0  0  0  0  0  0
   -1.1401   -1.5344   -1.2634 H   0  0  0  0  0  0  0  0  0  0  0  0
    1.2597   -1.4309   -1.9565 H   0  0  0  0  0  0  0  0  0  0  0  0
    0.7874    2.6919   -3.0266 H   0  0  0  0  0  0  0  0  0  0  0  0
   -1.6170    2.6040   -2.3438 H   0  0  0  0  0  0  0  0  0  0  0  0
    8.1230    6.1156   -7.1446 N   0  0  0  0  0  0  0  0  0  0  0  0
    7.9435    5.1881   -6.5711 N   0  0  0  0  0  0  0  0  0  0  0  0
    5.4708    2.1860   -3.4490 C   0  0  0  0  0  0  0  0  0  0  0  0
    6.5627    2.2010   -4.3143 C   0  0  0  0  0  0  0  0  0  0  0  0
    7.2176    1.0146   -4.6745 C   0  0  0  0  0  0  0  0  0  0  0  0
    6.7515   -0.1987   -4.1451 C   0  0  0  0  0  0  0  0  0  0  0  0
    5.6634   -0.2351   -3.2778 C   0  0  0  0  0  0  0  0  0  0  0  0
    5.0304    0.9633   -2.9425 C   0  0  0  0  0  0  0  0  0  0  0  0
    4.9699    3.1034   -3.1604 H   0  0  0  0  0  0  0  0  0  0  0  0
    6.9139    3.1468   -4.7164 H   0  0  0  0  0  0  0  0  0  0  0  0
    7.2495   -1.1262   -4.4140 H   0  0  0  0  0  0  0  0  0  0  0  0
    5.3113   -1.1706   -2.8581 H   0  0  0  0  0  0  0  0  0  0  0  0
    3.6395    0.9322   -1.8332 S   0  0  0  0  0  0  0  0  0  0  0  0
    3.7085   -0.2537   -0.9819 O   0  0  0  0  0  0  0  0  0  0  0  0
    2.4580    0.6787   -2.9906 O   0  0  0  0  0  0  0  0  0  0  0  0
    3.4347    2.2558   -1.2497 O   0  0  0  0  0  0  0  0  0  0  0  0
    8.4178    1.0423   -5.5887 C   0  0  0  0  0  0  0  0  0  0  0  0
    8.4343    1.9479   -6.2010 H   0  0  0  0  0  0  0  0  0  0  0  0
    9.3491    1.0202   -5.0096 H   0  0  0  0  0  0  0  0  0  0  0  0
    8.4319    0.1753   -6.2563 H   0  0  0  0  0  0  0  0  0  0  0  0
   -2.5728    0.4861   -1.4607 H   0  0  0  0  0  0  0  0  0  0  0  0
  1  7  1  0  0  0  0
  2  8  1  0  0  0  0
  2  1  2  0  0  0  0
  3  2  1  0  0  0  0
  4  3  2  0  0  0  0
  4  5  1  0  0  0  0
  5  6  2  0  0  0  0
  6  1  1  0  0  0  0
  6 31  1  0  0  0  0
  9  4  1  0  0  0  0
 10  5  1  0  0  0  0
 11 12  3  0  0  0  0
 13 19  1  0  0  0  0
 13 18  2  0  0  0  0
 14 13  1  0  0  0  0
 15 14  2  0  0  0  0
 15 16  1  0  0  0  0
 16 17  2  0  0  0  0
 17 18  1  0  0  0  0
 17 22  1  0  0  0  0
 18 23  1  0  0  0  0
 20 14  1  0  0  0  0
 21 16  1  0  0  0  0
 23 26  2  0  0  0  0
 23 24  2  0  0  0  0
 25  3  1  0  0  0  0
 25 23  1  0  0  0  0
 27 29  1  0  0  0  0
 27 15  1  0  0  0  0
 28 27  1  0  0  0  0
 30 27  1  0  0  0  0
M  END
