Coordinates from ORCA-job Ph-N2-OTs-B3LYPG-6-31G_dp-MTMO-d009-169-n800
 OpenBabel09051907503D

 31 31  0  0  0  0  0  0  0  0999 V2000
   -0.5723    0.1518   -2.1086 C   0  0  0  0  0  0  0  0  0  0  0  0
    0.7564    0.0753   -2.5276 C   0  0  0  0  0  0  0  0  0  0  0  0
    1.5197    1.2407   -2.5611 C   0  0  0  0  0  0  0  0  0  0  0  0
    0.9925    2.4732   -2.1784 C   0  0  0  0  0  0  0  0  0  0  0  0
   -0.3369    2.5345   -1.7585 C   0  0  0  0  0  0  0  0  0  0  0  0
   -1.1197    1.3781   -1.7239 C   0  0  0  0  0  0  0  0  0  0  0  0
   -1.1779   -0.7492   -2.0804 H   0  0  0  0  0  0  0  0  0  0  0  0
    1.2058   -0.8647   -2.8269 H   0  0  0  0  0  0  0  0  0  0  0  0
    1.6210    3.3559   -2.2099 H   0  0  0  0  0  0  0  0  0  0  0  0
   -0.7595    3.4882   -1.4572 H   0  0  0  0  0  0  0  0  0  0  0  0
    2.2308    2.9370   -5.9817 N   0  0  0  0  0  0  0  0  0  0  0  0
    3.0950    3.3913   -5.4639 N   0  0  0  0  0  0  0  0  0  0  0  0
    6.0074    2.0647   -3.5386 C   0  0  0  0  0  0  0  0  0  0  0  0
    7.0773    1.9456   -4.4221 C   0  0  0  0  0  0  0  0  0  0  0  0
    7.5575    0.6877   -4.8157 C   0  0  0  0  0  0  0  0  0  0  0  0
    6.9428   -0.4593   -4.2921 C   0  0  0  0  0  0  0  0  0  0  0  0
    5.8702   -0.3629   -3.4091 C   0  0  0  0  0  0  0  0  0  0  0  0
    5.4106    0.9035   -3.0456 C   0  0  0  0  0  0  0  0  0  0  0  0
    5.6462    3.0372   -3.2243 H   0  0  0  0  0  0  0  0  0  0  0  0
    7.5513    2.8437   -4.8078 H   0  0  0  0  0  0  0  0  0  0  0  0
    7.3124   -1.4409   -4.5756 H   0  0  0  0  0  0  0  0  0  0  0  0
    5.4027   -1.2482   -2.9933 H   0  0  0  0  0  0  0  0  0  0  0  0
    4.0500    1.0391   -1.9069 S   0  0  0  0  0  0  0  0  0  0  0  0
    3.8694   -0.2214   -1.1911 O   0  0  0  0  0  0  0  0  0  0  0  0
    2.8346    1.1728   -3.0523 O   0  0  0  0  0  0  0  0  0  0  0  0
    4.1320    2.3039   -1.1800 O   0  0  0  0  0  0  0  0  0  0  0  0
    8.6976    0.5694   -5.7972 C   0  0  0  0  0  0  0  0  0  0  0  0
    8.3205    0.4900   -6.8244 H   0  0  0  0  0  0  0  0  0  0  0  0
    9.3540    1.4435   -5.7577 H   0  0  0  0  0  0  0  0  0  0  0  0
    9.3015   -0.3220   -5.6034 H   0  0  0  0  0  0  0  0  0  0  0  0
   -2.1534    1.4320   -1.3963 H   0  0  0  0  0  0  0  0  0  0  0  0
  1  7  1  0  0  0  0
  1  6  2  0  0  0  0
  2  1  1  0  0  0  0
  3  2  2  0  0  0  0
  3  4  1  0  0  0  0
  4  5  2  0  0  0  0
  5  6  1  0  0  0  0
  5 10  1  0  0  0  0
  6 31  1  0  0  0  0
  8  2  1  0  0  0  0
  9  4  1  0  0  0  0
 11 12  3  0  0  0  0
 13 19  1  0  0  0  0
 13 18  2  0  0  0  0
 14 13  1  0  0  0  0
 15 14  2  0  0  0  0
 15 16  1  0  0  0  0
 16 17  2  0  0  0  0
 17 18  1  0  0  0  0
 17 22  1  0  0  0  0
 18 23  1  0  0  0  0
 20 14  1  0  0  0  0
 21 16  1  0  0  0  0
 23 24  2  0  0  0  0
 23 26  2  0  0  0  0
 25  3  1  0  0  0  0
 25 23  1  0  0  0  0
 27 29  1  0  0  0  0
 27 30  1  0  0  0  0
 27 15  1  0  0  0  0
 28 27  1  0  0  0  0
M  END
