Coordinates from ORCA-job Ph-N2-OTs-B3LYPG-6-31G_dp-MTMO-d009-169-n800
 OpenBabel09051907493D

 31 32  0  0  1  0  0  0  0  0999 V2000
    0.8407    0.4487   -1.8643 C   0  0  0  0  0  0  0  0  0  0  0  0
    1.1541    1.0045   -3.2101 C   0  0  1  0  0  0  0  0  0  0  0  0
    0.6749    2.4056   -3.3105 C   0  0  1  0  0  0  0  0  0  0  0  0
    0.3513    3.2326   -2.1902 C   0  0  0  0  0  0  0  0  0  0  0  0
    0.2745    2.6593   -0.9584 C   0  0  0  0  0  0  0  0  0  0  0  0
    0.4823    1.2366   -0.8235 C   0  0  0  0  0  0  0  0  0  0  0  0
    0.9717   -0.6216   -1.7448 H   0  0  0  0  0  0  0  0  0  0  0  0
    0.7945    0.3657   -4.0193 H   0  0  0  0  0  0  0  0  0  0  0  0
    0.1598    4.2889   -2.3483 H   0  0  0  0  0  0  0  0  0  0  0  0
    0.0285    3.2559   -0.0875 H   0  0  0  0  0  0  0  0  0  0  0  0
    0.6116    2.9710   -4.5904 N   0  0  0  0  0  0  0  0  0  0  0  0
    0.5646    3.4214   -5.6288 N   0  0  0  0  0  0  0  0  0  0  0  0
    5.7108    1.6212   -4.7411 C   0  0  0  0  0  0  0  0  0  0  0  0
    7.0735    1.6891   -4.4614 C   0  0  0  0  0  0  0  0  0  0  0  0
    7.7415    0.6223   -3.8419 C   0  0  0  0  0  0  0  0  0  0  0  0
    7.0067   -0.5244   -3.5061 C   0  0  0  0  0  0  0  0  0  0  0  0
    5.6435   -0.6120   -3.7775 C   0  0  0  0  0  0  0  0  0  0  0  0
    5.0072    0.4682   -4.3905 C   0  0  0  0  0  0  0  0  0  0  0  0
    5.1962    2.4405   -5.2311 H   0  0  0  0  0  0  0  0  0  0  0  0
    7.6288    2.5833   -4.7311 H   0  0  0  0  0  0  0  0  0  0  0  0
    7.5096   -1.3610   -3.0285 H   0  0  0  0  0  0  0  0  0  0  0  0
    5.0773   -1.5027   -3.5290 H   0  0  0  0  0  0  0  0  0  0  0  0
    3.2632    0.3681   -4.7379 S   0  0  0  0  0  0  0  0  0  0  0  0
    2.8640   -1.0374   -4.8592 O   0  0  0  0  0  0  0  0  0  0  0  0
    2.9201    1.3034   -5.8162 O   0  0  0  0  0  0  0  0  0  0  0  0
    2.6947    0.9600   -3.3307 O   0  0  0  0  0  0  0  0  0  0  0  0
    9.2251    0.6938   -3.5732 C   0  0  0  0  0  0  0  0  0  0  0  0
    9.7967    0.3311   -4.4369 H   0  0  0  0  0  0  0  0  0  0  0  0
    9.5484    1.7202   -3.3781 H   0  0  0  0  0  0  0  0  0  0  0  0
    9.5070    0.0774   -2.7148 H   0  0  0  0  0  0  0  0  0  0  0  0
    0.3166    0.7811    0.1495 H   0  0  0  0  0  0  0  0  0  0  0  0
  1  7  1  0  0  0  0
  1  6  2  0  0  0  0
  2  8  1  6  0  0  0
  2  1  1  0  0  0  0
  3 11  1  1  0  0  0
  3  2  1  0  0  0  0
  3  4  1  0  0  0  0
  4  5  2  0  0  0  0
  5  6  1  0  0  0  0
  5 10  1  0  0  0  0
  6 31  1  0  0  0  0
  9  4  1  0  0  0  0
 12 11  1  0  0  0  0
 13 14  2  0  0  0  0
 13 18  1  0  0  0  0
 14 15  1  0  0  0  0
 15 27  1  0  0  0  0
 15 16  2  0  0  0  0
 16 21  1  0  0  0  0
 17 22  1  0  0  0  0
 17 16  1  0  0  0  0
 18 17  2  0  0  0  0
 19 13  1  0  0  0  0
 20 14  1  0  0  0  0
 23 18  1  0  0  0  0
 23 26  1  0  0  0  0
 24 23  2  0  0  0  0
 25 23  2  0  0  0  0
 26  2  1  0  0  0  0
 27 29  1  0  0  0  0
 27 30  1  0  0  0  0
 28 27  1  0  0  0  0
M  RAD  3   3   2  11   2  12   3
M  END
