Coordinates from ORCA-job Ph-N2-OTs-B3LYPG-6-31G_dp-MTMO-d009-169-n800
 OpenBabel09051907503D

 31 31  0  0  0  0  0  0  0  0999 V2000
   -0.7260   -0.7831   -1.6180 C   0  0  0  0  0  0  0  0  0  0  0  0
    0.6021   -0.6625   -2.0287 C   0  0  0  0  0  0  0  0  0  0  0  0
    1.0567    0.5769   -2.4762 C   0  0  0  0  0  0  0  0  0  0  0  0
    0.2226    1.6926   -2.5162 C   0  0  0  0  0  0  0  0  0  0  0  0
   -1.1039    1.5569   -2.1054 C   0  0  0  0  0  0  0  0  0  0  0  0
   -1.5792    0.3224   -1.6564 C   0  0  0  0  0  0  0  0  0  0  0  0
   -1.0928   -1.7428   -1.2665 H   0  0  0  0  0  0  0  0  0  0  0  0
    1.2844   -1.5044   -2.0042 H   0  0  0  0  0  0  0  0  0  0  0  0
    0.6173    2.6402   -2.8646 H   0  0  0  0  0  0  0  0  0  0  0  0
   -1.7646    2.4183   -2.1344 H   0  0  0  0  0  0  0  0  0  0  0  0
    9.6274    5.7368   -7.4513 N   0  0  0  0  0  0  0  0  0  0  0  0
    9.0190    4.9927   -6.9058 N   0  0  0  0  0  0  0  0  0  0  0  0
    5.3364    2.2959   -3.4685 C   0  0  0  0  0  0  0  0  0  0  0  0
    6.4218    2.3306   -4.3429 C   0  0  0  0  0  0  0  0  0  0  0  0
    7.1047    1.1596   -4.6976 C   0  0  0  0  0  0  0  0  0  0  0  0
    6.6768   -0.0605   -4.1491 C   0  0  0  0  0  0  0  0  0  0  0  0
    5.5976   -0.1169   -3.2734 C   0  0  0  0  0  0  0  0  0  0  0  0
    4.9334    1.0678   -2.9462 C   0  0  0  0  0  0  0  0  0  0  0  0
    4.8147    3.2028   -3.1839 H   0  0  0  0  0  0  0  0  0  0  0  0
    6.7464    3.2823   -4.7536 H   0  0  0  0  0  0  0  0  0  0  0  0
    7.2003   -0.9766   -4.4090 H   0  0  0  0  0  0  0  0  0  0  0  0
    5.2767   -1.0565   -2.8380 H   0  0  0  0  0  0  0  0  0  0  0  0
    3.5561    1.0097   -1.8209 S   0  0  0  0  0  0  0  0  0  0  0  0
    3.6736   -0.1578   -0.9499 O   0  0  0  0  0  0  0  0  0  0  0  0
    2.3709    0.6958   -2.9597 O   0  0  0  0  0  0  0  0  0  0  0  0
    3.3138    2.3363   -1.2587 O   0  0  0  0  0  0  0  0  0  0  0  0
    8.2829    1.2006   -5.6401 C   0  0  0  0  0  0  0  0  0  0  0  0
    8.4588    2.2096   -6.0192 H   0  0  0  0  0  0  0  0  0  0  0  0
    9.1981    0.8639   -5.1398 H   0  0  0  0  0  0  0  0  0  0  0  0
    8.1251    0.5378   -6.4981 H   0  0  0  0  0  0  0  0  0  0  0  0
   -2.6116    0.2225   -1.3354 H   0  0  0  0  0  0  0  0  0  0  0  0
  1  7  1  0  0  0  0
  2  8  1  0  0  0  0
  2  1  2  0  0  0  0
  3  2  1  0  0  0  0
  4  3  2  0  0  0  0
  4  5  1  0  0  0  0
  5  6  2  0  0  0  0
  6  1  1  0  0  0  0
  6 31  1  0  0  0  0
  9  4  1  0  0  0  0
 10  5  1  0  0  0  0
 11 12  3  0  0  0  0
 13 19  1  0  0  0  0
 13 18  2  0  0  0  0
 14 13  1  0  0  0  0
 15 14  2  0  0  0  0
 15 16  1  0  0  0  0
 16 17  2  0  0  0  0
 17 18  1  0  0  0  0
 17 22  1  0  0  0  0
 18 23  1  0  0  0  0
 20 14  1  0  0  0  0
 21 16  1  0  0  0  0
 23 26  2  0  0  0  0
 23 24  2  0  0  0  0
 25  3  1  0  0  0  0
 25 23  1  0  0  0  0
 27 29  1  0  0  0  0
 27 15  1  0  0  0  0
 28 27  1  0  0  0  0
 30 27  1  0  0  0  0
M  END
