Coordinates from ORCA-job Ph-N2-OTs-B3LYPG-6-31G_dp-MTMO-d009-169-n800
 OpenBabel09051907493D

 31 32  0  0  1  0  0  0  0  0999 V2000
    0.7794    0.4360   -1.9692 C   0  0  0  0  0  0  0  0  0  0  0  0
    1.1665    1.0653   -3.2648 C   0  0  1  0  0  0  0  0  0  0  0  0
    0.7683    2.5188   -3.3260 C   0  0  0  0  0  0  0  0  0  0  0  0
    0.4388    3.2608   -2.1252 C   0  0  0  0  0  0  0  0  0  0  0  0
    0.2756    2.6076   -0.9502 C   0  0  0  0  0  0  0  0  0  0  0  0
    0.4080    1.1656   -0.8967 C   0  0  0  0  0  0  0  0  0  0  0  0
    0.8679   -0.6446   -1.9203 H   0  0  0  0  0  0  0  0  0  0  0  0
    0.7751    0.5103   -4.1212 H   0  0  0  0  0  0  0  0  0  0  0  0
    0.3147    4.3363   -2.2083 H   0  0  0  0  0  0  0  0  0  0  0  0
    0.0223    3.1562   -0.0497 H   0  0  0  0  0  0  0  0  0  0  0  0
    0.7807    3.0858   -4.4292 N   0  0  0  0  0  0  0  0  0  0  0  0
    0.7966    3.6038   -5.4493 N   0  0  0  0  0  0  0  0  0  0  0  0
    5.6688    1.5361   -4.8215 C   0  0  0  0  0  0  0  0  0  0  0  0
    7.0301    1.6526   -4.5539 C   0  0  0  0  0  0  0  0  0  0  0  0
    7.7208    0.6520   -3.8532 C   0  0  0  0  0  0  0  0  0  0  0  0
    7.0103   -0.4780   -3.4231 C   0  0  0  0  0  0  0  0  0  0  0  0
    5.6480   -0.6140   -3.6804 C   0  0  0  0  0  0  0  0  0  0  0  0
    4.9897    0.4009   -4.3754 C   0  0  0  0  0  0  0  0  0  0  0  0
    5.1363    2.3030   -5.3732 H   0  0  0  0  0  0  0  0  0  0  0  0
    7.5667    2.5330   -4.8968 H   0  0  0  0  0  0  0  0  0  0  0  0
    7.5315   -1.2635   -2.8827 H   0  0  0  0  0  0  0  0  0  0  0  0
    5.1004   -1.4928   -3.3584 H   0  0  0  0  0  0  0  0  0  0  0  0
    3.2486    0.2403   -4.7087 S   0  0  0  0  0  0  0  0  0  0  0  0
    2.8641   -1.1727   -4.6776 O   0  0  0  0  0  0  0  0  0  0  0  0
    2.8845    1.0623   -5.8669 O   0  0  0  0  0  0  0  0  0  0  0  0
    2.6772    0.9698   -3.3566 O   0  0  0  0  0  0  0  0  0  0  0  0
    9.2031    0.7767   -3.5976 C   0  0  0  0  0  0  0  0  0  0  0  0
    9.7796    0.4264   -4.4630 H   0  0  0  0  0  0  0  0  0  0  0  0
    9.4919    1.8161   -3.4156 H   0  0  0  0  0  0  0  0  0  0  0  0
    9.5133    0.1800   -2.7354 H   0  0  0  0  0  0  0  0  0  0  0  0
    0.1807    0.6606    0.0384 H   0  0  0  0  0  0  0  0  0  0  0  0
  1  7  1  0  0  0  0
  1  6  2  0  0  0  0
  2  8  1  6  0  0  0
  2  1  1  0  0  0  0
  3  2  1  0  0  0  0
  3  4  2  0  0  0  0
  4  5  1  0  0  0  0
  5  6  1  0  0  0  0
  5 10  1  0  0  0  0
  6 31  1  0  0  0  0
  9  4  1  0  0  0  0
 11  3  1  0  0  0  0
 12 11  1  0  0  0  0
 13 14  2  0  0  0  0
 13 18  1  0  0  0  0
 14 15  1  0  0  0  0
 15 27  1  0  0  0  0
 15 16  2  0  0  0  0
 16 21  1  0  0  0  0
 17 16  1  0  0  0  0
 17 22  1  0  0  0  0
 18 17  2  0  0  0  0
 19 13  1  0  0  0  0
 20 14  1  0  0  0  0
 23 24  2  0  0  0  0
 23 18  1  0  0  0  0
 23 26  1  0  0  0  0
 25 23  2  0  0  0  0
 26  2  1  0  0  0  0
 27 29  1  0  0  0  0
 27 30  1  0  0  0  0
 28 27  1  0  0  0  0
M  RAD  3   5   2  11   2  12   3
M  END
