Coordinates from ORCA-job Ph-N2-OTs-B3LYPG-6-31G_dp-MTMO-d009-169-n800
 OpenBabel09051907503D

 31 31  0  0  0  0  0  0  0  0999 V2000
   -0.4299   -0.1310   -1.6465 C   0  0  0  0  0  0  0  0  0  0  0  0
    0.8920   -0.1776   -2.0904 C   0  0  0  0  0  0  0  0  0  0  0  0
    1.4479    0.9621   -2.6679 C   0  0  0  0  0  0  0  0  0  0  0  0
    0.7229    2.1451   -2.8027 C   0  0  0  0  0  0  0  0  0  0  0  0
   -0.5974    2.1779   -2.3517 C   0  0  0  0  0  0  0  0  0  0  0  0
   -1.1750    1.0436   -1.7762 C   0  0  0  0  0  0  0  0  0  0  0  0
   -0.8756   -1.0131   -1.1966 H   0  0  0  0  0  0  0  0  0  0  0  0
    1.4936   -1.0747   -1.9959 H   0  0  0  0  0  0  0  0  0  0  0  0
    1.1928    3.0143   -3.2484 H   0  0  0  0  0  0  0  0  0  0  0  0
   -1.1742    3.0927   -2.4516 H   0  0  0  0  0  0  0  0  0  0  0  0
    4.1339    5.5998   -4.0138 N   0  0  0  0  0  0  0  0  0  0  0  0
    3.0540    5.5111   -3.7973 N   0  0  0  0  0  0  0  0  0  0  0  0
    5.8581    2.0181   -4.0834 C   0  0  0  0  0  0  0  0  0  0  0  0
    6.9321    1.7065   -4.9140 C   0  0  0  0  0  0  0  0  0  0  0  0
    7.4923    0.4206   -4.9263 C   0  0  0  0  0  0  0  0  0  0  0  0
    6.9546   -0.5536   -4.0716 C   0  0  0  0  0  0  0  0  0  0  0  0
    5.8824   -0.2628   -3.2322 C   0  0  0  0  0  0  0  0  0  0  0  0
    5.3406    1.0235   -3.2530 C   0  0  0  0  0  0  0  0  0  0  0  0
    5.4359    3.0163   -4.0644 H   0  0  0  0  0  0  0  0  0  0  0  0
    7.3468    2.4773   -5.5578 H   0  0  0  0  0  0  0  0  0  0  0  0
    7.3867   -1.5503   -4.0574 H   0  0  0  0  0  0  0  0  0  0  0  0
    5.4790   -1.0116   -2.5595 H   0  0  0  0  0  0  0  0  0  0  0  0
    3.9813    1.4106   -2.1711 S   0  0  0  0  0  0  0  0  0  0  0  0
    4.0080    0.5379   -0.9998 O   0  0  0  0  0  0  0  0  0  0  0  0
    2.7545    0.8915   -3.1825 O   0  0  0  0  0  0  0  0  0  0  0  0
    3.8695    2.8601   -2.0161 O   0  0  0  0  0  0  0  0  0  0  0  0
    8.6372    0.0875   -5.8519 C   0  0  0  0  0  0  0  0  0  0  0  0
    8.2645   -0.2748   -6.8177 H   0  0  0  0  0  0  0  0  0  0  0  0
    9.2587    0.9651   -6.0515 H   0  0  0  0  0  0  0  0  0  0  0  0
    9.2753   -0.6967   -5.4343 H   0  0  0  0  0  0  0  0  0  0  0  0
   -2.2027    1.0751   -1.4279 H   0  0  0  0  0  0  0  0  0  0  0  0
  1  7  1  0  0  0  0
  2  8  1  0  0  0  0
  2  1  2  0  0  0  0
  3  2  1  0  0  0  0
  4  3  2  0  0  0  0
  4  5  1  0  0  0  0
  5  6  2  0  0  0  0
  6  1  1  0  0  0  0
  6 31  1  0  0  0  0
  9  4  1  0  0  0  0
 10  5  1  0  0  0  0
 11 12  3  0  0  0  0
 13 19  1  0  0  0  0
 13 18  2  0  0  0  0
 14 13  1  0  0  0  0
 15 14  2  0  0  0  0
 15 16  1  0  0  0  0
 16 21  1  0  0  0  0
 16 17  2  0  0  0  0
 17 22  1  0  0  0  0
 18 17  1  0  0  0  0
 18 23  1  0  0  0  0
 20 14  1  0  0  0  0
 23 26  2  0  0  0  0
 23 24  2  0  0  0  0
 25  3  1  0  0  0  0
 25 23  1  0  0  0  0
 27 30  1  0  0  0  0
 27 15  1  0  0  0  0
 28 27  1  0  0  0  0
 29 27  1  0  0  0  0
M  END
