Coordinates from ORCA-job Ph-N2-OTs-B3LYPG-6-31G_dp-MTMO-d009-169-n800
 OpenBabel09051907493D

 31 30  0  0  0  0  0  0  0  0999 V2000
    0.0015    0.0744   -1.4575 C   0  0  0  0  0  0  0  0  0  0  0  0
    0.6809    1.0635   -2.1973 C   0  0  0  0  0  0  0  0  0  0  0  0
    0.0397    2.1185   -2.4476 C   0  0  0  0  0  0  0  0  0  0  0  0
   -1.2049    2.6221   -2.1994 C   0  0  0  0  0  0  0  0  0  0  0  0
   -1.9031    1.6393   -1.4557 C   0  0  0  0  0  0  0  0  0  0  0  0
   -1.3171    0.4112   -1.1002 C   0  0  0  0  0  0  0  0  0  0  0  0
    0.4405   -0.8773   -1.1757 H   0  0  0  0  0  0  0  0  0  0  0  0
    2.5102    0.7945   -2.8008 H   0  0  0  0  0  0  0  0  0  0  0  0
   -1.6200    3.5773   -2.4908 H   0  0  0  0  0  0  0  0  0  0  0  0
   -2.9248    1.8552   -1.1549 H   0  0  0  0  0  0  0  0  0  0  0  0
    1.1257    4.4781   -3.8722 N   0  0  0  0  0  0  0  0  0  0  0  0
    1.9614    5.0821   -4.2691 N   0  0  0  0  0  0  0  0  0  0  0  0
    6.7303    1.3625   -3.1142 C   0  0  0  0  0  0  0  0  0  0  0  0
    7.9938    0.8352   -3.3735 C   0  0  0  0  0  0  0  0  0  0  0  0
    8.2700    0.1726   -4.5780 C   0  0  0  0  0  0  0  0  0  0  0  0
    7.2430    0.0486   -5.5261 C   0  0  0  0  0  0  0  0  0  0  0  0
    5.9742    0.5693   -5.2858 C   0  0  0  0  0  0  0  0  0  0  0  0
    5.7298    1.2193   -4.0752 C   0  0  0  0  0  0  0  0  0  0  0  0
    6.5181    1.8850   -2.1881 H   0  0  0  0  0  0  0  0  0  0  0  0
    8.7790    0.9431   -2.6297 H   0  0  0  0  0  0  0  0  0  0  0  0
    7.4414   -0.4599   -6.4659 H   0  0  0  0  0  0  0  0  0  0  0  0
    5.1827    0.4848   -6.0227 H   0  0  0  0  0  0  0  0  0  0  0  0
    4.1107    1.8903   -3.7558 S   0  0  0  0  0  0  0  0  0  0  0  0
    3.4440    0.5739   -3.0671 O   0  0  0  0  0  0  0  0  0  0  0  0
    3.4331    2.1577   -5.0258 O   0  0  0  0  0  0  0  0  0  0  0  0
    4.2102    2.9533   -2.7540 O   0  0  0  0  0  0  0  0  0  0  0  0
    9.6502   -0.3681   -4.8647 C   0  0  0  0  0  0  0  0  0  0  0  0
   10.2375    0.3500   -5.4510 H   0  0  0  0  0  0  0  0  0  0  0  0
   10.2025   -0.5665   -3.9421 H   0  0  0  0  0  0  0  0  0  0  0  0
    9.6045   -1.2969   -5.4414 H   0  0  0  0  0  0  0  0  0  0  0  0
   -1.9057   -0.3024   -0.5294 H   0  0  0  0  0  0  0  0  0  0  0  0
  1  7  1  0  0  0  0
  1  6  1  0  0  0  0
  2  1  2  0  0  0  0
  3  4  2  0  0  0  0
  3  2  1  0  0  0  0
  4  5  1  0  0  0  0
  5 10  1  0  0  0  0
  5  6  2  0  0  0  0
  6 31  1  0  0  0  0
  9  4  1  0  0  0  0
 12 11  3  0  0  0  0
 13 19  1  0  0  0  0
 14 13  1  0  0  0  0
 14 20  1  0  0  0  0
 15 14  2  0  0  0  0
 16 17  2  0  0  0  0
 16 15  1  0  0  0  0
 17 18  1  0  0  0  0
 18 23  1  0  0  0  0
 18 13  2  0  0  0  0
 21 16  1  0  0  0  0
 22 17  1  0  0  0  0
 23 24  1  0  0  0  0
 23 26  2  0  0  0  0
 24  8  1  0  0  0  0
 25 23  2  0  0  0  0
 27 15  1  0  0  0  0
 27 29  1  0  0  0  0
 28 27  1  0  0  0  0
 30 27  1  0  0  0  0
M  RAD  2   2   2   3   2
M  END
