Coordinates from ORCA-job Ph-N2-OTs-B3LYPG-6-31G_dp-MTMO-d009-169-n800
 OpenBabel09051907503D

 31 31  0  0  0  0  0  0  0  0999 V2000
   -0.6071   -0.2712   -1.3035 C   0  0  0  0  0  0  0  0  0  0  0  0
    0.7328   -0.3381   -1.6881 C   0  0  0  0  0  0  0  0  0  0  0  0
    1.2245    0.6205   -2.5733 C   0  0  0  0  0  0  0  0  0  0  0  0
    0.4139    1.6348   -3.0782 C   0  0  0  0  0  0  0  0  0  0  0  0
   -0.9260    1.6835   -2.6924 C   0  0  0  0  0  0  0  0  0  0  0  0
   -1.4372    0.7342   -1.8042 C   0  0  0  0  0  0  0  0  0  0  0  0
   -1.0020   -1.0099   -0.6118 H   0  0  0  0  0  0  0  0  0  0  0  0
    1.3947   -1.1093   -1.3115 H   0  0  0  0  0  0  0  0  0  0  0  0
    0.8370    2.3639   -3.7606 H   0  0  0  0  0  0  0  0  0  0  0  0
   -1.5682    2.4676   -3.0825 H   0  0  0  0  0  0  0  0  0  0  0  0
    6.9422    6.8542   -5.1061 N   0  0  0  0  0  0  0  0  0  0  0  0
    6.8765    5.7524   -5.1589 N   0  0  0  0  0  0  0  0  0  0  0  0
    5.5405    2.0769   -3.7768 C   0  0  0  0  0  0  0  0  0  0  0  0
    6.6195    1.9729   -4.6507 C   0  0  0  0  0  0  0  0  0  0  0  0
    7.2714    0.7472   -4.8545 C   0  0  0  0  0  0  0  0  0  0  0  0
    6.8158   -0.3805   -4.1557 C   0  0  0  0  0  0  0  0  0  0  0  0
    5.7412   -0.2967   -3.2734 C   0  0  0  0  0  0  0  0  0  0  0  0
    5.1102    0.9356   -3.0984 C   0  0  0  0  0  0  0  0  0  0  0  0
    5.0411    3.0250   -3.6119 H   0  0  0  0  0  0  0  0  0  0  0  0
    6.9606    2.8590   -5.1782 H   0  0  0  0  0  0  0  0  0  0  0  0
    7.3113   -1.3363   -4.3018 H   0  0  0  0  0  0  0  0  0  0  0  0
    5.3995   -1.1664   -2.7234 H   0  0  0  0  0  0  0  0  0  0  0  0
    3.7390    1.0627   -1.9718 S   0  0  0  0  0  0  0  0  0  0  0  0
    3.8748    0.0655   -0.9115 O   0  0  0  0  0  0  0  0  0  0  0  0
    2.5512    0.5417   -3.0294 O   0  0  0  0  0  0  0  0  0  0  0  0
    3.4856    2.4639   -1.6464 O   0  0  0  0  0  0  0  0  0  0  0  0
    8.4568    0.6545   -5.7845 C   0  0  0  0  0  0  0  0  0  0  0  0
    8.3272    1.2950   -6.6619 H   0  0  0  0  0  0  0  0  0  0  0  0
    9.3750    0.9789   -5.2795 H   0  0  0  0  0  0  0  0  0  0  0  0
    8.6170   -0.3700   -6.1295 H   0  0  0  0  0  0  0  0  0  0  0  0
   -2.4790    0.7792   -1.5015 H   0  0  0  0  0  0  0  0  0  0  0  0
  1  7  1  0  0  0  0
  2  8  1  0  0  0  0
  2  1  1  0  0  0  0
  3  2  2  0  0  0  0
  4  5  2  0  0  0  0
  4  3  1  0  0  0  0
  5  6  1  0  0  0  0
  6 31  1  0  0  0  0
  6  1  2  0  0  0  0
  9  4  1  0  0  0  0
 10  5  1  0  0  0  0
 12 11  3  0  0  0  0
 13 19  1  0  0  0  0
 13 18  2  0  0  0  0
 14 13  1  0  0  0  0
 15 14  2  0  0  0  0
 15 16  1  0  0  0  0
 16 17  2  0  0  0  0
 17 18  1  0  0  0  0
 17 22  1  0  0  0  0
 18 23  1  0  0  0  0
 20 14  1  0  0  0  0
 21 16  1  0  0  0  0
 23 26  2  0  0  0  0
 23 24  2  0  0  0  0
 25  3  1  0  0  0  0
 25 23  1  0  0  0  0
 27 29  1  0  0  0  0
 27 15  1  0  0  0  0
 28 27  1  0  0  0  0
 30 27  1  0  0  0  0
M  END
