Coordinates from ORCA-job Ph-N2-OTs-B3LYPG-6-31G_dp-MTMO-d009-169-n800
 OpenBabel09051907503D

 31 31  0  0  0  0  0  0  0  0999 V2000
   -0.7289   -0.6101   -1.6540 C   0  0  0  0  0  0  0  0  0  0  0  0
    0.6117   -0.5656   -2.0389 C   0  0  0  0  0  0  0  0  0  0  0  0
    1.1298    0.6319   -2.5297 C   0  0  0  0  0  0  0  0  0  0  0  0
    0.3461    1.7791   -2.6387 C   0  0  0  0  0  0  0  0  0  0  0  0
   -0.9939    1.7191   -2.2545 C   0  0  0  0  0  0  0  0  0  0  0  0
   -1.5323    0.5277   -1.7621 C   0  0  0  0  0  0  0  0  0  0  0  0
   -1.1447   -1.5365   -1.2693 H   0  0  0  0  0  0  0  0  0  0  0  0
    1.2556   -1.4342   -1.9610 H   0  0  0  0  0  0  0  0  0  0  0  0
    0.7892    2.6923   -3.0194 H   0  0  0  0  0  0  0  0  0  0  0  0
   -1.6157    2.6056   -2.3380 H   0  0  0  0  0  0  0  0  0  0  0  0
    8.1650    6.0771   -7.1648 N   0  0  0  0  0  0  0  0  0  0  0  0
    7.9510    5.1537   -6.5968 N   0  0  0  0  0  0  0  0  0  0  0  0
    5.4662    2.1879   -3.4420 C   0  0  0  0  0  0  0  0  0  0  0  0
    6.5574    2.2086   -4.3082 C   0  0  0  0  0  0  0  0  0  0  0  0
    7.2152    1.0252   -4.6729 C   0  0  0  0  0  0  0  0  0  0  0  0
    6.7527   -0.1910   -4.1469 C   0  0  0  0  0  0  0  0  0  0  0  0
    5.6654   -0.2332   -3.2791 C   0  0  0  0  0  0  0  0  0  0  0  0
    5.0294    0.9622   -2.9393 C   0  0  0  0  0  0  0  0  0  0  0  0
    4.9631    3.1030   -3.1501 H   0  0  0  0  0  0  0  0  0  0  0  0
    6.9050    3.1569   -4.7076 H   0  0  0  0  0  0  0  0  0  0  0  0
    7.2531   -1.1163   -4.4193 H   0  0  0  0  0  0  0  0  0  0  0  0
    5.3159   -1.1711   -2.8623 H   0  0  0  0  0  0  0  0  0  0  0  0
    3.6388    0.9236   -1.8298 S   0  0  0  0  0  0  0  0  0  0  0  0
    3.7086   -0.2674   -0.9859 O   0  0  0  0  0  0  0  0  0  0  0  0
    2.4571    0.6769   -2.9885 O   0  0  0  0  0  0  0  0  0  0  0  0
    3.4335    2.2435   -1.2380 O   0  0  0  0  0  0  0  0  0  0  0  0
    8.4146    1.0586   -5.5879 C   0  0  0  0  0  0  0  0  0  0  0  0
    8.4279    1.9654   -6.1986 H   0  0  0  0  0  0  0  0  0  0  0  0
    9.3465    1.0384   -5.0095 H   0  0  0  0  0  0  0  0  0  0  0  0
    8.4310    0.1928   -6.2571 H   0  0  0  0  0  0  0  0  0  0  0  0
   -2.5747    0.4864   -1.4615 H   0  0  0  0  0  0  0  0  0  0  0  0
  1  7  1  0  0  0  0
  2  8  1  0  0  0  0
  2  1  2  0  0  0  0
  3  2  1  0  0  0  0
  4  3  2  0  0  0  0
  4  5  1  0  0  0  0
  5  6  2  0  0  0  0
  6  1  1  0  0  0  0
  6 31  1  0  0  0  0
  9  4  1  0  0  0  0
 10  5  1  0  0  0  0
 11 12  3  0  0  0  0
 13 19  1  0  0  0  0
 13 18  2  0  0  0  0
 14 13  1  0  0  0  0
 15 14  2  0  0  0  0
 15 16  1  0  0  0  0
 16 17  2  0  0  0  0
 17 18  1  0  0  0  0
 17 22  1  0  0  0  0
 18 23  1  0  0  0  0
 20 14  1  0  0  0  0
 21 16  1  0  0  0  0
 23 26  2  0  0  0  0
 23 24  2  0  0  0  0
 25  3  1  0  0  0  0
 25 23  1  0  0  0  0
 27 29  1  0  0  0  0
 27 15  1  0  0  0  0
 28 27  1  0  0  0  0
 30 27  1  0  0  0  0
M  END
