Coordinates from ORCA-job Ph-N2-OTs-B3LYPG-6-31G_dp-MTMO-d009-169-n800
 OpenBabel09051907503D

 31 31  0  0  0  0  0  0  0  0999 V2000
   -0.7270   -0.7996   -1.6153 C   0  0  0  0  0  0  0  0  0  0  0  0
    0.5998   -0.6724   -2.0285 C   0  0  0  0  0  0  0  0  0  0  0  0
    1.0491    0.5707   -2.4707 C   0  0  0  0  0  0  0  0  0  0  0  0
    0.2113    1.6838   -2.5030 C   0  0  0  0  0  0  0  0  0  0  0  0
   -1.1138    1.5417   -2.0896 C   0  0  0  0  0  0  0  0  0  0  0  0
   -1.5839    0.3032   -1.6459 C   0  0  0  0  0  0  0  0  0  0  0  0
   -1.0897   -1.7623   -1.2679 H   0  0  0  0  0  0  0  0  0  0  0  0
    1.2849   -1.5122   -2.0100 H   0  0  0  0  0  0  0  0  0  0  0  0
    0.6020    2.6345   -2.8474 H   0  0  0  0  0  0  0  0  0  0  0  0
   -1.7773    2.4010   -2.1126 H   0  0  0  0  0  0  0  0  0  0  0  0
    9.7872    5.6892   -7.4686 N   0  0  0  0  0  0  0  0  0  0  0  0
    9.1291    4.9654   -6.9544 N   0  0  0  0  0  0  0  0  0  0  0  0
    5.3203    2.3060   -3.4700 C   0  0  0  0  0  0  0  0  0  0  0  0
    6.4045    2.3446   -4.3458 C   0  0  0  0  0  0  0  0  0  0  0  0
    7.0921    1.1763   -4.7003 C   0  0  0  0  0  0  0  0  0  0  0  0
    6.6702   -0.0452   -4.1502 C   0  0  0  0  0  0  0  0  0  0  0  0
    5.5922   -0.1054   -3.2733 C   0  0  0  0  0  0  0  0  0  0  0  0
    4.9232    1.0766   -2.9463 C   0  0  0  0  0  0  0  0  0  0  0  0
    4.7951    3.2109   -3.1856 H   0  0  0  0  0  0  0  0  0  0  0  0
    6.7246    3.2974   -4.7576 H   0  0  0  0  0  0  0  0  0  0  0  0
    7.1974   -0.9592   -4.4099 H   0  0  0  0  0  0  0  0  0  0  0  0
    5.2759   -1.0461   -2.8367 H   0  0  0  0  0  0  0  0  0  0  0  0
    3.5477    1.0135   -1.8191 S   0  0  0  0  0  0  0  0  0  0  0  0
    3.6702   -0.1539   -0.9488 O   0  0  0  0  0  0  0  0  0  0  0  0
    2.3619    0.6962   -2.9564 O   0  0  0  0  0  0  0  0  0  0  0  0
    3.3018    2.3391   -1.2562 O   0  0  0  0  0  0  0  0  0  0  0  0
    8.2685    1.2215   -5.6449 C   0  0  0  0  0  0  0  0  0  0  0  0
    8.4452    2.2325   -6.0183 H   0  0  0  0  0  0  0  0  0  0  0  0
    9.1842    0.8801   -5.1487 H   0  0  0  0  0  0  0  0  0  0  0  0
    8.1078    0.5644   -6.5067 H   0  0  0  0  0  0  0  0  0  0  0  0
   -2.6152    0.1983   -1.3230 H   0  0  0  0  0  0  0  0  0  0  0  0
  1  7  1  0  0  0  0
  2  8  1  0  0  0  0
  2  1  2  0  0  0  0
  3  2  1  0  0  0  0
  4  3  2  0  0  0  0
  4  5  1  0  0  0  0
  5  6  2  0  0  0  0
  6  1  1  0  0  0  0
  6 31  1  0  0  0  0
  9  4  1  0  0  0  0
 10  5  1  0  0  0  0
 11 12  3  0  0  0  0
 13 19  1  0  0  0  0
 13 18  2  0  0  0  0
 14 13  1  0  0  0  0
 15 14  2  0  0  0  0
 15 16  1  0  0  0  0
 16 17  2  0  0  0  0
 17 18  1  0  0  0  0
 17 22  1  0  0  0  0
 18 23  1  0  0  0  0
 20 14  1  0  0  0  0
 21 16  1  0  0  0  0
 23 26  2  0  0  0  0
 23 24  2  0  0  0  0
 25  3  1  0  0  0  0
 25 23  1  0  0  0  0
 27 29  1  0  0  0  0
 27 15  1  0  0  0  0
 28 27  1  0  0  0  0
 30 27  1  0  0  0  0
M  END
