Coordinates from ORCA-job Ph-N2-OTs-B3LYPG-6-31G_dp-MTMO-d009-169-n800
 OpenBabel09051907503D

 31 31  0  0  0  0  0  0  0  0999 V2000
   -0.5650    0.2057   -1.6385 C   0  0  0  0  0  0  0  0  0  0  0  0
    0.7488    0.0124   -2.0674 C   0  0  0  0  0  0  0  0  0  0  0  0
    1.4771    1.1144   -2.5131 C   0  0  0  0  0  0  0  0  0  0  0  0
    0.9293    2.3950   -2.5374 C   0  0  0  0  0  0  0  0  0  0  0  0
   -0.3875    2.5719   -2.1118 C   0  0  0  0  0  0  0  0  0  0  0  0
   -1.1347    1.4809   -1.6614 C   0  0  0  0  0  0  0  0  0  0  0  0
   -1.1435   -0.6436   -1.2878 H   0  0  0  0  0  0  0  0  0  0  0  0
    1.2126   -0.9673   -2.0579 H   0  0  0  0  0  0  0  0  0  0  0  0
    1.5321    3.2242   -2.8899 H   0  0  0  0  0  0  0  0  0  0  0  0
   -0.8280    3.5646   -2.1291 H   0  0  0  0  0  0  0  0  0  0  0  0
    3.3578    3.2993   -6.5309 N   0  0  0  0  0  0  0  0  0  0  0  0
    3.2585    3.5576   -5.4609 N   0  0  0  0  0  0  0  0  0  0  0  0
    5.9452    1.9814   -3.4108 C   0  0  0  0  0  0  0  0  0  0  0  0
    7.0102    1.9636   -4.3065 C   0  0  0  0  0  0  0  0  0  0  0  0
    7.4966    0.7564   -4.8330 C   0  0  0  0  0  0  0  0  0  0  0  0
    6.8933   -0.4426   -4.4291 C   0  0  0  0  0  0  0  0  0  0  0  0
    5.8261   -0.4472   -3.5329 C   0  0  0  0  0  0  0  0  0  0  0  0
    5.3593    0.7699   -3.0377 C   0  0  0  0  0  0  0  0  0  0  0  0
    5.5782    2.9120   -2.9927 H   0  0  0  0  0  0  0  0  0  0  0  0
    7.4766    2.9006   -4.5982 H   0  0  0  0  0  0  0  0  0  0  0  0
    7.2669   -1.3859   -4.8169 H   0  0  0  0  0  0  0  0  0  0  0  0
    5.3686   -1.3753   -3.2090 H   0  0  0  0  0  0  0  0  0  0  0  0
    4.0015    0.7796   -1.8870 S   0  0  0  0  0  0  0  0  0  0  0  0
    3.8799   -0.5326   -1.2547 O   0  0  0  0  0  0  0  0  0  0  0  0
    2.7774    0.9357   -3.0167 O   0  0  0  0  0  0  0  0  0  0  0  0
    4.0370    1.9952   -1.0783 O   0  0  0  0  0  0  0  0  0  0  0  0
    8.6347    0.7567   -5.8240 C   0  0  0  0  0  0  0  0  0  0  0  0
    8.2817    1.0384   -6.8236 H   0  0  0  0  0  0  0  0  0  0  0  0
    9.4096    1.4760   -5.5414 H   0  0  0  0  0  0  0  0  0  0  0  0
    9.0973   -0.2303   -5.9046 H   0  0  0  0  0  0  0  0  0  0  0  0
   -2.1580    1.6244   -1.3285 H   0  0  0  0  0  0  0  0  0  0  0  0
  1  7  1  0  0  0  0
  2  8  1  0  0  0  0
  2  1  2  0  0  0  0
  3  2  1  0  0  0  0
  4  3  2  0  0  0  0
  4  5  1  0  0  0  0
  5  6  2  0  0  0  0
  6  1  1  0  0  0  0
  6 31  1  0  0  0  0
  9  4  1  0  0  0  0
 10  5  1  0  0  0  0
 11 12  3  0  0  0  0
 13 18  1  0  0  0  0
 13 19  1  0  0  0  0
 14 13  2  0  0  0  0
 15 16  2  0  0  0  0
 15 14  1  0  0  0  0
 16 17  1  0  0  0  0
 17 22  1  0  0  0  0
 17 18  2  0  0  0  0
 18 23  1  0  0  0  0
 20 14  1  0  0  0  0
 21 16  1  0  0  0  0
 23 24  2  0  0  0  0
 23 26  2  0  0  0  0
 25  3  1  0  0  0  0
 25 23  1  0  0  0  0
 27 29  1  0  0  0  0
 27 15  1  0  0  0  0
 28 27  1  0  0  0  0
 30 27  1  0  0  0  0
M  END
