Coordinates from ORCA-job Ph-N2-OTs-B3LYPG-6-31G_dp-MTMO-d009-169-n800
 OpenBabel09051907493D

 31 31  0  0  0  0  0  0  0  0999 V2000
   -0.2610    0.2539   -1.7851 C   0  0  0  0  0  0  0  0  0  0  0  0
    0.8691    1.0111   -2.1209 C   0  0  0  0  0  0  0  0  0  0  0  0
    0.5866    2.2253   -2.6996 C   0  0  0  0  0  0  0  0  0  0  0  0
   -0.6510    2.7726   -2.9865 C   0  0  0  0  0  0  0  0  0  0  0  0
   -1.7467    1.9753   -2.6468 C   0  0  0  0  0  0  0  0  0  0  0  0
   -1.5490    0.7262   -2.0502 C   0  0  0  0  0  0  0  0  0  0  0  0
   -0.1178   -0.7138   -1.3166 H   0  0  0  0  0  0  0  0  0  0  0  0
    1.8867    0.6751   -1.9267 H   0  0  0  0  0  0  0  0  0  0  0  0
   -0.7612    3.7477   -3.4434 H   0  0  0  0  0  0  0  0  0  0  0  0
   -2.7489    2.3378   -2.8511 H   0  0  0  0  0  0  0  0  0  0  0  0
    1.8552    3.2247   -3.0878 N   0  0  0  0  0  0  0  0  0  0  0  0
    2.1399    4.2954   -3.2476 N   0  0  0  0  0  0  0  0  0  0  0  0
    6.6902    2.0469   -3.8417 C   0  0  0  0  0  0  0  0  0  0  0  0
    7.8177    1.6290   -4.5460 C   0  0  0  0  0  0  0  0  0  0  0  0
    8.0702    0.2675   -4.7693 C   0  0  0  0  0  0  0  0  0  0  0  0
    7.1649   -0.6712   -4.2546 C   0  0  0  0  0  0  0  0  0  0  0  0
    6.0325   -0.2690   -3.5482 C   0  0  0  0  0  0  0  0  0  0  0  0
    5.7995    1.0922   -3.3486 C   0  0  0  0  0  0  0  0  0  0  0  0
    6.5061    3.0987   -3.6512 H   0  0  0  0  0  0  0  0  0  0  0  0
    8.5177    2.3708   -4.9223 H   0  0  0  0  0  0  0  0  0  0  0  0
    7.3530   -1.7317   -4.4037 H   0  0  0  0  0  0  0  0  0  0  0  0
    5.3423   -0.9954   -3.1336 H   0  0  0  0  0  0  0  0  0  0  0  0
    4.3327    1.6267   -2.4656 S   0  0  0  0  0  0  0  0  0  0  0  0
    3.9446    0.5192   -1.5574 O   0  0  0  0  0  0  0  0  0  0  0  0
    3.2903    1.7753   -3.5944 O   0  0  0  0  0  0  0  0  0  0  0  0
    4.6247    2.9294   -1.8377 O   0  0  0  0  0  0  0  0  0  0  0  0
    9.2782   -0.1744   -5.5605 C   0  0  0  0  0  0  0  0  0  0  0  0
    9.0530   -0.2167   -6.6340 H   0  0  0  0  0  0  0  0  0  0  0  0
   10.1168    0.5172   -5.4322 H   0  0  0  0  0  0  0  0  0  0  0  0
    9.6116   -1.1718   -5.2592 H   0  0  0  0  0  0  0  0  0  0  0  0
   -2.4083    0.1168   -1.7891 H   0  0  0  0  0  0  0  0  0  0  0  0
  1  7  1  0  0  0  0
  2  8  1  0  0  0  0
  2  1  2  0  0  0  0
  3  2  1  0  0  0  0
  4  3  2  0  0  0  0
  4  5  1  0  0  0  0
  5  6  2  0  0  0  0
  6 31  1  0  0  0  0
  6  1  1  0  0  0  0
  9  4  1  0  0  0  0
 10  5  1  0  0  0  0
 11  3  1  0  0  0  0
 12 11  2  0  0  0  0
 13 19  1  0  0  0  0
 13 18  2  0  0  0  0
 14 13  1  0  0  0  0
 15 14  2  0  0  0  0
 15 16  1  0  0  0  0
 16 17  2  0  0  0  0
 17 18  1  0  0  0  0
 17 22  1  0  0  0  0
 18 23  1  0  0  0  0
 20 14  1  0  0  0  0
 21 16  1  0  0  0  0
 23 26  2  0  0  0  0
 23 24  1  0  0  0  0
 25 23  2  0  0  0  0
 27 29  1  0  0  0  0
 27 30  1  0  0  0  0
 27 15  1  0  0  0  0
 28 27  1  0  0  0  0
M  RAD  2  12   2  24   2
M  END
