Coordinates from ORCA-job Ph-N2-OTs-B3LYPG-6-31G_dp-MTMO-d009-169-n800
 OpenBabel09051907503D

 31 31  0  0  0  0  0  0  0  0999 V2000
   -0.7978   -1.0744   -1.3791 C   0  0  0  0  0  0  0  0  0  0  0  0
    0.5047   -0.8626   -1.8326 C   0  0  0  0  0  0  0  0  0  0  0  0
    0.8455    0.3917   -2.3356 C   0  0  0  0  0  0  0  0  0  0  0  0
   -0.0765    1.4354   -2.3883 C   0  0  0  0  0  0  0  0  0  0  0  0
   -1.3756    1.2096   -1.9320 C   0  0  0  0  0  0  0  0  0  0  0  0
   -1.7376   -0.0421   -1.4283 C   0  0  0  0  0  0  0  0  0  0  0  0
   -1.0765   -2.0471   -0.9852 H   0  0  0  0  0  0  0  0  0  0  0  0
    1.2530   -1.6465   -1.8009 H   0  0  0  0  0  0  0  0  0  0  0  0
    0.2301    2.3985   -2.7800 H   0  0  0  0  0  0  0  0  0  0  0  0
   -2.1040    2.0142   -1.9694 H   0  0  0  0  0  0  0  0  0  0  0  0
   13.6866    5.6662   -8.0114 N   0  0  0  0  0  0  0  0  0  0  0  0
   12.7165    5.1892   -7.7810 N   0  0  0  0  0  0  0  0  0  0  0  0
    4.9065    2.4221   -3.6001 C   0  0  0  0  0  0  0  0  0  0  0  0
    5.9672    2.4804   -4.5013 C   0  0  0  0  0  0  0  0  0  0  0  0
    6.7633    1.3551   -4.7594 C   0  0  0  0  0  0  0  0  0  0  0  0
    6.4785    0.1610   -4.0792 C   0  0  0  0  0  0  0  0  0  0  0  0
    5.4242    0.0817   -3.1736 C   0  0  0  0  0  0  0  0  0  0  0  0
    4.6434    1.2168   -2.9489 C   0  0  0  0  0  0  0  0  0  0  0  0
    4.2987    3.2950   -3.3896 H   0  0  0  0  0  0  0  0  0  0  0  0
    6.1844    3.4164   -5.0081 H   0  0  0  0  0  0  0  0  0  0  0  0
    7.0948   -0.7163   -4.2571 H   0  0  0  0  0  0  0  0  0  0  0  0
    5.2142   -0.8367   -2.6366 H   0  0  0  0  0  0  0  0  0  0  0  0
    3.2980    1.1323   -1.7869 S   0  0  0  0  0  0  0  0  0  0  0  0
    3.5467    0.0740   -0.8109 O   0  0  0  0  0  0  0  0  0  0  0  0
    2.1336    0.5914   -2.8608 O   0  0  0  0  0  0  0  0  0  0  0  0
    2.9319    2.4775   -1.3498 O   0  0  0  0  0  0  0  0  0  0  0  0
    7.8903    1.4201   -5.7610 C   0  0  0  0  0  0  0  0  0  0  0  0
    8.2674    2.4398   -5.8752 H   0  0  0  0  0  0  0  0  0  0  0  0
    8.7248    0.7769   -5.4672 H   0  0  0  0  0  0  0  0  0  0  0  0
    7.5528    1.0833   -6.7491 H   0  0  0  0  0  0  0  0  0  0  0  0
   -2.7495   -0.2122   -1.0733 H   0  0  0  0  0  0  0  0  0  0  0  0
  1  7  1  0  0  0  0
  2  8  1  0  0  0  0
  2  1  2  0  0  0  0
  3  2  1  0  0  0  0
  4  3  2  0  0  0  0
  4  5  1  0  0  0  0
  5  6  2  0  0  0  0
  6  1  1  0  0  0  0
  6 31  1  0  0  0  0
  9  4  1  0  0  0  0
 10  5  1  0  0  0  0
 11 12  3  0  0  0  0
 13 19  1  0  0  0  0
 13 18  2  0  0  0  0
 14 13  1  0  0  0  0
 15 14  2  0  0  0  0
 15 16  1  0  0  0  0
 16 17  2  0  0  0  0
 17 18  1  0  0  0  0
 17 22  1  0  0  0  0
 18 23  1  0  0  0  0
 20 14  1  0  0  0  0
 21 16  1  0  0  0  0
 23 26  2  0  0  0  0
 23 24  2  0  0  0  0
 25  3  1  0  0  0  0
 25 23  1  0  0  0  0
 27 29  1  0  0  0  0
 27 15  1  0  0  0  0
 28 27  1  0  0  0  0
 30 27  1  0  0  0  0
M  END
