Coordinates from ORCA-job Ph-N2-OTs-B3LYPG-6-31G_dp-MTMO-d009-169-n800
 OpenBabel09051907503D

 31 31  0  0  0  0  0  0  0  0999 V2000
   -0.8622   -1.0981   -1.3438 C   0  0  0  0  0  0  0  0  0  0  0  0
    0.4404   -0.8886   -1.7982 C   0  0  0  0  0  0  0  0  0  0  0  0
    0.7823    0.3643   -2.3038 C   0  0  0  0  0  0  0  0  0  0  0  0
   -0.1386    1.4089   -2.3584 C   0  0  0  0  0  0  0  0  0  0  0  0
   -1.4378    1.1853   -1.9011 C   0  0  0  0  0  0  0  0  0  0  0  0
   -1.8009   -0.0650   -1.3948 C   0  0  0  0  0  0  0  0  0  0  0  0
   -1.1418   -2.0697   -0.9478 H   0  0  0  0  0  0  0  0  0  0  0  0
    1.1879   -1.6732   -1.7652 H   0  0  0  0  0  0  0  0  0  0  0  0
    0.1689    2.3709   -2.7520 H   0  0  0  0  0  0  0  0  0  0  0  0
   -2.1653    1.9906   -1.9399 H   0  0  0  0  0  0  0  0  0  0  0  0
   14.6001    6.1243   -8.4403 N   0  0  0  0  0  0  0  0  0  0  0  0
   13.6363    5.6329   -8.2135 N   0  0  0  0  0  0  0  0  0  0  0  0
    4.8443    2.3881   -3.5739 C   0  0  0  0  0  0  0  0  0  0  0  0
    5.9044    2.4440   -4.4759 C   0  0  0  0  0  0  0  0  0  0  0  0
    6.6995    1.3177   -4.7325 C   0  0  0  0  0  0  0  0  0  0  0  0
    6.4143    0.1250   -4.0499 C   0  0  0  0  0  0  0  0  0  0  0  0
    5.3606    0.0481   -3.1435 C   0  0  0  0  0  0  0  0  0  0  0  0
    4.5807    1.1843   -2.9203 C   0  0  0  0  0  0  0  0  0  0  0  0
    4.2373    3.2619   -3.3646 H   0  0  0  0  0  0  0  0  0  0  0  0
    6.1219    3.3789   -4.9847 H   0  0  0  0  0  0  0  0  0  0  0  0
    7.0299   -0.7530   -4.2267 H   0  0  0  0  0  0  0  0  0  0  0  0
    5.1502   -0.8691   -2.6046 H   0  0  0  0  0  0  0  0  0  0  0  0
    3.2360    1.1028   -1.7574 S   0  0  0  0  0  0  0  0  0  0  0  0
    3.4842    0.0457   -0.7800 O   0  0  0  0  0  0  0  0  0  0  0  0
    2.0704    0.5616   -2.8299 O   0  0  0  0  0  0  0  0  0  0  0  0
    2.8715    2.4491   -1.3221 O   0  0  0  0  0  0  0  0  0  0  0  0
    7.8260    1.3798   -5.7348 C   0  0  0  0  0  0  0  0  0  0  0  0
    8.1990    2.4002   -5.8564 H   0  0  0  0  0  0  0  0  0  0  0  0
    8.6632    0.7422   -5.4363 H   0  0  0  0  0  0  0  0  0  0  0  0
    7.4899    1.0343   -6.7203 H   0  0  0  0  0  0  0  0  0  0  0  0
   -2.8129   -0.2333   -1.0391 H   0  0  0  0  0  0  0  0  0  0  0  0
  1  7  1  0  0  0  0
  2  8  1  0  0  0  0
  2  1  2  0  0  0  0
  3  2  1  0  0  0  0
  4  3  2  0  0  0  0
  4  5  1  0  0  0  0
  5  6  2  0  0  0  0
  6  1  1  0  0  0  0
  6 31  1  0  0  0  0
  9  4  1  0  0  0  0
 10  5  1  0  0  0  0
 11 12  3  0  0  0  0
 13 19  1  0  0  0  0
 13 18  2  0  0  0  0
 14 13  1  0  0  0  0
 15 14  2  0  0  0  0
 15 16  1  0  0  0  0
 16 17  2  0  0  0  0
 17 18  1  0  0  0  0
 17 22  1  0  0  0  0
 18 23  1  0  0  0  0
 20 14  1  0  0  0  0
 21 16  1  0  0  0  0
 23 26  2  0  0  0  0
 23 24  2  0  0  0  0
 25  3  1  0  0  0  0
 25 23  1  0  0  0  0
 27 29  1  0  0  0  0
 27 15  1  0  0  0  0
 28 27  1  0  0  0  0
 30 27  1  0  0  0  0
M  END
