Coordinates from ORCA-job Ph-N2-OTs-B3LYPG-6-31G_dp-MTMO-d009-169-n800
 OpenBabel09051907503D

 31 31  0  0  0  0  0  0  0  0999 V2000
   -0.8365   -1.0876   -1.3582 C   0  0  0  0  0  0  0  0  0  0  0  0
    0.4662   -0.8776   -1.8122 C   0  0  0  0  0  0  0  0  0  0  0  0
    0.8080    0.3758   -2.3168 C   0  0  0  0  0  0  0  0  0  0  0  0
   -0.1130    1.4203   -2.3707 C   0  0  0  0  0  0  0  0  0  0  0  0
   -1.4123    1.1962   -1.9138 C   0  0  0  0  0  0  0  0  0  0  0  0
   -1.7754   -0.0546   -1.4086 C   0  0  0  0  0  0  0  0  0  0  0  0
   -1.1160   -2.0596   -0.9631 H   0  0  0  0  0  0  0  0  0  0  0  0
    1.2137   -1.6621   -1.7796 H   0  0  0  0  0  0  0  0  0  0  0  0
    0.1944    2.3826   -2.7635 H   0  0  0  0  0  0  0  0  0  0  0  0
   -2.1400    2.0014   -1.9521 H   0  0  0  0  0  0  0  0  0  0  0  0
   14.2267    5.9429   -8.2657 N   0  0  0  0  0  0  0  0  0  0  0  0
   13.2605    5.4567   -8.0381 N   0  0  0  0  0  0  0  0  0  0  0  0
    4.8701    2.4011   -3.5846 C   0  0  0  0  0  0  0  0  0  0  0  0
    5.9305    2.4577   -4.4863 C   0  0  0  0  0  0  0  0  0  0  0  0
    6.7257    1.3316   -4.7433 C   0  0  0  0  0  0  0  0  0  0  0  0
    6.4405    0.1384   -4.0616 C   0  0  0  0  0  0  0  0  0  0  0  0
    5.3864    0.0609   -3.1556 C   0  0  0  0  0  0  0  0  0  0  0  0
    4.6064    1.1968   -2.9319 C   0  0  0  0  0  0  0  0  0  0  0  0
    4.2630    3.2747   -3.3750 H   0  0  0  0  0  0  0  0  0  0  0  0
    6.1481    3.3930   -4.9943 H   0  0  0  0  0  0  0  0  0  0  0  0
    7.0562   -0.7394   -4.2388 H   0  0  0  0  0  0  0  0  0  0  0  0
    5.1760   -0.8567   -2.6174 H   0  0  0  0  0  0  0  0  0  0  0  0
    3.2614    1.1145   -1.7694 S   0  0  0  0  0  0  0  0  0  0  0  0
    3.5095    0.0569   -0.7924 O   0  0  0  0  0  0  0  0  0  0  0  0
    2.0962    0.5736   -2.8425 O   0  0  0  0  0  0  0  0  0  0  0  0
    2.8966    2.4605   -1.3335 O   0  0  0  0  0  0  0  0  0  0  0  0
    7.8525    1.3945   -5.7453 C   0  0  0  0  0  0  0  0  0  0  0  0
    8.2270    2.4146   -5.8645 H   0  0  0  0  0  0  0  0  0  0  0  0
    8.6887    0.7550   -5.4482 H   0  0  0  0  0  0  0  0  0  0  0  0
    7.5160    1.0518   -6.7316 H   0  0  0  0  0  0  0  0  0  0  0  0
   -2.7873   -0.2233   -1.0532 H   0  0  0  0  0  0  0  0  0  0  0  0
  1  7  1  0  0  0  0
  2  8  1  0  0  0  0
  2  1  2  0  0  0  0
  3  2  1  0  0  0  0
  4  3  2  0  0  0  0
  4  5  1  0  0  0  0
  5  6  2  0  0  0  0
  6  1  1  0  0  0  0
  6 31  1  0  0  0  0
  9  4  1  0  0  0  0
 10  5  1  0  0  0  0
 11 12  3  0  0  0  0
 13 19  1  0  0  0  0
 13 18  2  0  0  0  0
 14 13  1  0  0  0  0
 15 14  2  0  0  0  0
 15 16  1  0  0  0  0
 16 17  2  0  0  0  0
 17 18  1  0  0  0  0
 17 22  1  0  0  0  0
 18 23  1  0  0  0  0
 20 14  1  0  0  0  0
 21 16  1  0  0  0  0
 23 26  2  0  0  0  0
 23 24  2  0  0  0  0
 25  3  1  0  0  0  0
 25 23  1  0  0  0  0
 27 29  1  0  0  0  0
 27 15  1  0  0  0  0
 28 27  1  0  0  0  0
 30 27  1  0  0  0  0
M  END
