Coordinates from ORCA-job Ph-N2-OTs-B3LYPG-6-31G_dp-MTMO-d009-169-n800
 OpenBabel09051907503D

 31 31  0  0  0  0  0  0  0  0999 V2000
   -0.6480   -1.0183   -1.4124 C   0  0  0  0  0  0  0  0  0  0  0  0
    0.6491   -0.8007   -1.8787 C   0  0  0  0  0  0  0  0  0  0  0  0
    0.9772    0.4528   -2.3917 C   0  0  0  0  0  0  0  0  0  0  0  0
    0.0481    1.4903   -2.4420 C   0  0  0  0  0  0  0  0  0  0  0  0
   -1.2454    1.2587   -1.9726 C   0  0  0  0  0  0  0  0  0  0  0  0
   -1.5948    0.0076   -1.4589 C   0  0  0  0  0  0  0  0  0  0  0  0
   -0.9168   -1.9906   -1.0106 H   0  0  0  0  0  0  0  0  0  0  0  0
    1.4027   -1.5795   -1.8492 H   0  0  0  0  0  0  0  0  0  0  0  0
    0.3449    2.4532   -2.8419 H   0  0  0  0  0  0  0  0  0  0  0  0
   -1.9793    2.0584   -2.0080 H   0  0  0  0  0  0  0  0  0  0  0  0
   11.7827    4.9013   -6.9820 N   0  0  0  0  0  0  0  0  0  0  0  0
   10.8318    4.4071   -6.7116 N   0  0  0  0  0  0  0  0  0  0  0  0
    5.0349    2.4789   -3.7081 C   0  0  0  0  0  0  0  0  0  0  0  0
    6.0944    2.5223   -4.6109 C   0  0  0  0  0  0  0  0  0  0  0  0
    6.8885    1.3915   -4.8537 C   0  0  0  0  0  0  0  0  0  0  0  0
    6.6022    0.2086   -4.1556 C   0  0  0  0  0  0  0  0  0  0  0  0
    5.5487    0.1444   -3.2472 C   0  0  0  0  0  0  0  0  0  0  0  0
    4.7701    1.2836   -3.0384 C   0  0  0  0  0  0  0  0  0  0  0  0
    4.4289    3.3559   -3.5096 H   0  0  0  0  0  0  0  0  0  0  0  0
    6.3126    3.4505   -5.1317 H   0  0  0  0  0  0  0  0  0  0  0  0
    7.2166   -0.6724   -4.3214 H   0  0  0  0  0  0  0  0  0  0  0  0
    5.3384   -0.7657   -2.6963 H   0  0  0  0  0  0  0  0  0  0  0  0
    3.4283    1.2189   -1.8708 S   0  0  0  0  0  0  0  0  0  0  0  0
    3.6810    0.1786   -0.8765 O   0  0  0  0  0  0  0  0  0  0  0  0
    2.2595    0.6574   -2.9297 O   0  0  0  0  0  0  0  0  0  0  0  0
    3.0629    2.5716   -1.4568 O   0  0  0  0  0  0  0  0  0  0  0  0
    8.0129    1.4409   -5.8591 C   0  0  0  0  0  0  0  0  0  0  0  0
    8.4669    2.4346   -5.9099 H   0  0  0  0  0  0  0  0  0  0  0  0
    8.7976    0.7184   -5.6177 H   0  0  0  0  0  0  0  0  0  0  0  0
    7.6454    1.1993   -6.8645 H   0  0  0  0  0  0  0  0  0  0  0  0
   -2.6024   -0.1670   -1.0939 H   0  0  0  0  0  0  0  0  0  0  0  0
  1  7  1  0  0  0  0
  2  8  1  0  0  0  0
  2  1  2  0  0  0  0
  3  2  1  0  0  0  0
  4  3  2  0  0  0  0
  4  5  1  0  0  0  0
  5  6  2  0  0  0  0
  6  1  1  0  0  0  0
  6 31  1  0  0  0  0
  9  4  1  0  0  0  0
 10  5  1  0  0  0  0
 11 12  3  0  0  0  0
 13 19  1  0  0  0  0
 13 18  2  0  0  0  0
 14 13  1  0  0  0  0
 15 14  2  0  0  0  0
 15 16  1  0  0  0  0
 16 17  2  0  0  0  0
 17 18  1  0  0  0  0
 17 22  1  0  0  0  0
 18 23  1  0  0  0  0
 20 14  1  0  0  0  0
 21 16  1  0  0  0  0
 23 26  2  0  0  0  0
 23 24  2  0  0  0  0
 25  3  1  0  0  0  0
 25 23  1  0  0  0  0
 27 29  1  0  0  0  0
 27 15  1  0  0  0  0
 28 27  1  0  0  0  0
 30 27  1  0  0  0  0
M  END
