Coordinates from ORCA-job Ph-N2-OTs-B3LYPG-6-31G_dp-MTMO-d009-169-n800
 OpenBabel09051907503D

 31 31  0  0  0  0  0  0  0  0999 V2000
   -0.5666    0.1991   -1.6627 C   0  0  0  0  0  0  0  0  0  0  0  0
    0.7480    0.0139   -2.0929 C   0  0  0  0  0  0  0  0  0  0  0  0
    1.4773    1.1240   -2.5163 C   0  0  0  0  0  0  0  0  0  0  0  0
    0.9296    2.4051   -2.5168 C   0  0  0  0  0  0  0  0  0  0  0  0
   -0.3878    2.5740   -2.0898 C   0  0  0  0  0  0  0  0  0  0  0  0
   -1.1359    1.4746   -1.6618 C   0  0  0  0  0  0  0  0  0  0  0  0
   -1.1457   -0.6567   -1.3293 H   0  0  0  0  0  0  0  0  0  0  0  0
    1.2117   -0.9658   -2.1013 H   0  0  0  0  0  0  0  0  0  0  0  0
    1.5331    3.2408   -2.8520 H   0  0  0  0  0  0  0  0  0  0  0  0
   -0.8279    3.5669   -2.0883 H   0  0  0  0  0  0  0  0  0  0  0  0
    3.3337    3.2449   -6.5061 N   0  0  0  0  0  0  0  0  0  0  0  0
    3.2593    3.5268   -5.4401 N   0  0  0  0  0  0  0  0  0  0  0  0
    5.9483    1.9889   -3.4187 C   0  0  0  0  0  0  0  0  0  0  0  0
    7.0140    1.9651   -4.3136 C   0  0  0  0  0  0  0  0  0  0  0  0
    7.4989    0.7547   -4.8338 C   0  0  0  0  0  0  0  0  0  0  0  0
    6.8934   -0.4414   -4.4247 C   0  0  0  0  0  0  0  0  0  0  0  0
    5.8255   -0.4401   -3.5292 C   0  0  0  0  0  0  0  0  0  0  0  0
    5.3603    0.7801   -3.0402 C   0  0  0  0  0  0  0  0  0  0  0  0
    5.5823    2.9221   -3.0056 H   0  0  0  0  0  0  0  0  0  0  0  0
    7.4819    2.9000   -4.6095 H   0  0  0  0  0  0  0  0  0  0  0  0
    7.2658   -1.3872   -4.8076 H   0  0  0  0  0  0  0  0  0  0  0  0
    5.3664   -1.3659   -3.2012 H   0  0  0  0  0  0  0  0  0  0  0  0
    4.0021    0.7971   -1.8900 S   0  0  0  0  0  0  0  0  0  0  0  0
    3.8767   -0.5127   -1.2536 O   0  0  0  0  0  0  0  0  0  0  0  0
    2.7783    0.9530   -3.0205 O   0  0  0  0  0  0  0  0  0  0  0  0
    4.0408    2.0151   -1.0852 O   0  0  0  0  0  0  0  0  0  0  0  0
    8.6377    0.7484   -5.8240 C   0  0  0  0  0  0  0  0  0  0  0  0
    8.2857    1.0255   -6.8253 H   0  0  0  0  0  0  0  0  0  0  0  0
    9.4134    1.4680   -5.5444 H   0  0  0  0  0  0  0  0  0  0  0  0
    9.0988   -0.2397   -5.8993 H   0  0  0  0  0  0  0  0  0  0  0  0
   -2.1597    1.6119   -1.3278 H   0  0  0  0  0  0  0  0  0  0  0  0
  1  6  1  0  0  0  0
  1  7  1  0  0  0  0
  2  1  2  0  0  0  0
  3  2  1  0  0  0  0
  4  3  2  0  0  0  0
  4  5  1  0  0  0  0
  5 10  1  0  0  0  0
  5  6  2  0  0  0  0
  6 31  1  0  0  0  0
  8  2  1  0  0  0  0
  9  4  1  0  0  0  0
 11 12  3  0  0  0  0
 13 18  1  0  0  0  0
 13 19  1  0  0  0  0
 14 13  2  0  0  0  0
 15 16  2  0  0  0  0
 15 14  1  0  0  0  0
 16 17  1  0  0  0  0
 17 22  1  0  0  0  0
 17 18  2  0  0  0  0
 18 23  1  0  0  0  0
 20 14  1  0  0  0  0
 21 16  1  0  0  0  0
 23 24  2  0  0  0  0
 23 26  2  0  0  0  0
 25  3  1  0  0  0  0
 25 23  1  0  0  0  0
 27 29  1  0  0  0  0
 27 15  1  0  0  0  0
 28 27  1  0  0  0  0
 30 27  1  0  0  0  0
M  END
