Coordinates from ORCA-job Ph-N2-OTs-B3LYPG-6-31G_dp-MTMO-d009-169-n800
 OpenBabel09051907503D

 31 31  0  0  0  0  0  0  0  0999 V2000
   -0.4344   -0.1617   -1.6281 C   0  0  0  0  0  0  0  0  0  0  0  0
    0.8878   -0.2047   -2.0719 C   0  0  0  0  0  0  0  0  0  0  0  0
    1.4334    0.9298   -2.6688 C   0  0  0  0  0  0  0  0  0  0  0  0
    0.6985    2.1044   -2.8230 C   0  0  0  0  0  0  0  0  0  0  0  0
   -0.6217    2.1337   -2.3718 C   0  0  0  0  0  0  0  0  0  0  0  0
   -1.1894    1.0042   -1.7770 C   0  0  0  0  0  0  0  0  0  0  0  0
   -0.8724   -1.0399   -1.1631 H   0  0  0  0  0  0  0  0  0  0  0  0
    1.4968   -1.0950   -1.9628 H   0  0  0  0  0  0  0  0  0  0  0  0
    1.1625    2.9694   -3.2831 H   0  0  0  0  0  0  0  0  0  0  0  0
   -1.2066    3.0416   -2.4865 H   0  0  0  0  0  0  0  0  0  0  0  0
    4.3367    5.9542   -3.8717 N   0  0  0  0  0  0  0  0  0  0  0  0
    3.2917    5.5998   -3.8084 N   0  0  0  0  0  0  0  0  0  0  0  0
    5.8193    2.0050   -4.1220 C   0  0  0  0  0  0  0  0  0  0  0  0
    6.8947    1.6908   -4.9495 C   0  0  0  0  0  0  0  0  0  0  0  0
    7.4779    0.4151   -4.9301 C   0  0  0  0  0  0  0  0  0  0  0  0
    6.9618   -0.5451   -4.0469 C   0  0  0  0  0  0  0  0  0  0  0  0
    5.8883   -0.2510   -3.2101 C   0  0  0  0  0  0  0  0  0  0  0  0
    5.3236    1.0242   -3.2623 C   0  0  0  0  0  0  0  0  0  0  0  0
    5.3785    2.9953   -4.1264 H   0  0  0  0  0  0  0  0  0  0  0  0
    7.2924    2.4513   -5.6160 H   0  0  0  0  0  0  0  0  0  0  0  0
    7.4117   -1.5332   -4.0087 H   0  0  0  0  0  0  0  0  0  0  0  0
    5.5014   -0.9886   -2.5156 H   0  0  0  0  0  0  0  0  0  0  0  0
    3.9623    1.4168   -2.1849 S   0  0  0  0  0  0  0  0  0  0  0  0
    4.0020    0.5680   -0.9965 O   0  0  0  0  0  0  0  0  0  0  0  0
    2.7404    0.8625   -3.1831 O   0  0  0  0  0  0  0  0  0  0  0  0
    3.8347    2.8677   -2.0586 O   0  0  0  0  0  0  0  0  0  0  0  0
    8.6242    0.0786   -5.8526 C   0  0  0  0  0  0  0  0  0  0  0  0
    8.2531   -0.2881   -6.8174 H   0  0  0  0  0  0  0  0  0  0  0  0
    9.2452    0.9558   -6.0555 H   0  0  0  0  0  0  0  0  0  0  0  0
    9.2625   -0.7030   -5.4305 H   0  0  0  0  0  0  0  0  0  0  0  0
   -2.2172    1.0328   -1.4286 H   0  0  0  0  0  0  0  0  0  0  0  0
  1  7  1  0  0  0  0
  2  8  1  0  0  0  0
  2  1  2  0  0  0  0
  3  2  1  0  0  0  0
  4  3  2  0  0  0  0
  4  5  1  0  0  0  0
  5  6  2  0  0  0  0
  6  1  1  0  0  0  0
  6 31  1  0  0  0  0
  9  4  1  0  0  0  0
 10  5  1  0  0  0  0
 11 12  3  0  0  0  0
 13 18  2  0  0  0  0
 14 15  2  0  0  0  0
 14 13  1  0  0  0  0
 15 16  1  0  0  0  0
 16 21  1  0  0  0  0
 16 17  2  0  0  0  0
 17 22  1  0  0  0  0
 18 17  1  0  0  0  0
 18 23  1  0  0  0  0
 19 13  1  0  0  0  0
 20 14  1  0  0  0  0
 23 26  2  0  0  0  0
 23 24  2  0  0  0  0
 25  3  1  0  0  0  0
 25 23  1  0  0  0  0
 27 30  1  0  0  0  0
 27 15  1  0  0  0  0
 28 27  1  0  0  0  0
 29 27  1  0  0  0  0
M  END
