Coordinates from ORCA-job Ph-N2-OTs-B3LYPG-6-31G_dp-MTMO-d009-169-n800
 OpenBabel09051907503D

 31 31  0  0  0  0  0  0  0  0999 V2000
   -0.6440   -0.9151   -1.4011 C   0  0  0  0  0  0  0  0  0  0  0  0
    0.6589   -0.7413   -1.8697 C   0  0  0  0  0  0  0  0  0  0  0  0
    1.0214    0.4934   -2.4050 C   0  0  0  0  0  0  0  0  0  0  0  0
    0.1209    1.5547   -2.4751 C   0  0  0  0  0  0  0  0  0  0  0  0
   -1.1787    1.3669   -2.0032 C   0  0  0  0  0  0  0  0  0  0  0  0
   -1.5626    0.1352   -1.4674 C   0  0  0  0  0  0  0  0  0  0  0  0
   -0.9395   -1.8723   -0.9824 H   0  0  0  0  0  0  0  0  0  0  0  0
    1.3910   -1.5397   -1.8252 H   0  0  0  0  0  0  0  0  0  0  0  0
    0.4442    2.5018   -2.8915 H   0  0  0  0  0  0  0  0  0  0  0  0
   -1.8906    2.1856   -2.0541 H   0  0  0  0  0  0  0  0  0  0  0  0
   11.0137    5.4025   -6.5329 N   0  0  0  0  0  0  0  0  0  0  0  0
   10.1647    4.7066   -6.4054 N   0  0  0  0  0  0  0  0  0  0  0  0
    5.1175    2.3974   -3.7577 C   0  0  0  0  0  0  0  0  0  0  0  0
    6.1729    2.4046   -4.6666 C   0  0  0  0  0  0  0  0  0  0  0  0
    6.9421    1.2542   -4.8951 C   0  0  0  0  0  0  0  0  0  0  0  0
    6.6357    0.0885   -4.1763 C   0  0  0  0  0  0  0  0  0  0  0  0
    5.5862    0.0603   -3.2620 C   0  0  0  0  0  0  0  0  0  0  0  0
    4.8320    1.2187   -3.0678 C   0  0  0  0  0  0  0  0  0  0  0  0
    4.5306    3.2897   -3.5704 H   0  0  0  0  0  0  0  0  0  0  0  0
    6.4078    3.3195   -5.2033 H   0  0  0  0  0  0  0  0  0  0  0  0
    7.2313   -0.8073   -4.3309 H   0  0  0  0  0  0  0  0  0  0  0  0
    5.3598   -0.8362   -2.6955 H   0  0  0  0  0  0  0  0  0  0  0  0
    3.4929    1.1996   -1.8957 S   0  0  0  0  0  0  0  0  0  0  0  0
    3.7240    0.1657   -0.8895 O   0  0  0  0  0  0  0  0  0  0  0  0
    2.3089    0.6531   -2.9454 O   0  0  0  0  0  0  0  0  0  0  0  0
    3.1600    2.5654   -1.4972 O   0  0  0  0  0  0  0  0  0  0  0  0
    8.0618    1.2629   -5.9068 C   0  0  0  0  0  0  0  0  0  0  0  0
    8.4856    2.2629   -6.0310 H   0  0  0  0  0  0  0  0  0  0  0  0
    8.8671    0.5817   -5.6172 H   0  0  0  0  0  0  0  0  0  0  0  0
    7.6989    0.9369   -6.8897 H   0  0  0  0  0  0  0  0  0  0  0  0
   -2.5749   -0.0053   -1.1008 H   0  0  0  0  0  0  0  0  0  0  0  0
  1  7  1  0  0  0  0
  2  8  1  0  0  0  0
  2  1  2  0  0  0  0
  3  2  1  0  0  0  0
  4  3  2  0  0  0  0
  4  5  1  0  0  0  0
  5  6  2  0  0  0  0
  6  1  1  0  0  0  0
  6 31  1  0  0  0  0
  9  4  1  0  0  0  0
 10  5  1  0  0  0  0
 11 12  3  0  0  0  0
 13 19  1  0  0  0  0
 13 18  2  0  0  0  0
 14 13  1  0  0  0  0
 15 14  2  0  0  0  0
 15 16  1  0  0  0  0
 16 17  2  0  0  0  0
 17 18  1  0  0  0  0
 17 22  1  0  0  0  0
 18 23  1  0  0  0  0
 20 14  1  0  0  0  0
 21 16  1  0  0  0  0
 23 26  2  0  0  0  0
 23 24  2  0  0  0  0
 25  3  1  0  0  0  0
 25 23  1  0  0  0  0
 27 29  1  0  0  0  0
 27 15  1  0  0  0  0
 28 27  1  0  0  0  0
 30 27  1  0  0  0  0
M  END
