Coordinates from ORCA-job Ph-N2-OTs-B3LYPG-6-31G_dp-MTMO-d009-169-n800
 OpenBabel09051907503D

 31 31  0  0  0  0  0  0  0  0999 V2000
   -0.8090   -1.0778   -1.3731 C   0  0  0  0  0  0  0  0  0  0  0  0
    0.4936   -0.8667   -1.8268 C   0  0  0  0  0  0  0  0  0  0  0  0
    0.8348    0.3873   -2.3302 C   0  0  0  0  0  0  0  0  0  0  0  0
   -0.0868    1.4313   -2.3834 C   0  0  0  0  0  0  0  0  0  0  0  0
   -1.3860    1.2061   -1.9268 C   0  0  0  0  0  0  0  0  0  0  0  0
   -1.7485   -0.0453   -1.4227 C   0  0  0  0  0  0  0  0  0  0  0  0
   -1.0881   -2.0503   -0.9789 H   0  0  0  0  0  0  0  0  0  0  0  0
    1.2415   -1.6509   -1.7948 H   0  0  0  0  0  0  0  0  0  0  0  0
    0.2201    2.3942   -2.7753 H   0  0  0  0  0  0  0  0  0  0  0  0
   -2.1141    2.0110   -1.9646 H   0  0  0  0  0  0  0  0  0  0  0  0
   13.8402    5.7472   -8.0840 N   0  0  0  0  0  0  0  0  0  0  0  0
   12.8713    5.2672   -7.8547 N   0  0  0  0  0  0  0  0  0  0  0  0
    4.8963    2.4158   -3.5957 C   0  0  0  0  0  0  0  0  0  0  0  0
    5.9569    2.4735   -4.4970 C   0  0  0  0  0  0  0  0  0  0  0  0
    6.7527    1.3479   -4.7547 C   0  0  0  0  0  0  0  0  0  0  0  0
    6.4676    0.1541   -4.0741 C   0  0  0  0  0  0  0  0  0  0  0  0
    5.4134    0.0754   -3.1684 C   0  0  0  0  0  0  0  0  0  0  0  0
    4.6329    1.2108   -2.9440 C   0  0  0  0  0  0  0  0  0  0  0  0
    4.2888    3.2889   -3.3855 H   0  0  0  0  0  0  0  0  0  0  0  0
    6.1743    3.4093   -5.0042 H   0  0  0  0  0  0  0  0  0  0  0  0
    7.0837   -0.7234   -4.2518 H   0  0  0  0  0  0  0  0  0  0  0  0
    5.2031   -0.8427   -2.6310 H   0  0  0  0  0  0  0  0  0  0  0  0
    3.2876    1.1271   -1.7819 S   0  0  0  0  0  0  0  0  0  0  0  0
    3.5360    0.0690   -0.8056 O   0  0  0  0  0  0  0  0  0  0  0  0
    2.1229    0.5863   -2.8555 O   0  0  0  0  0  0  0  0  0  0  0  0
    2.9220    2.4726   -1.3452 O   0  0  0  0  0  0  0  0  0  0  0  0
    7.8796    1.4122   -5.7564 C   0  0  0  0  0  0  0  0  0  0  0  0
    8.2559    2.4320   -5.8723 H   0  0  0  0  0  0  0  0  0  0  0  0
    8.7147    0.7702   -5.4615 H   0  0  0  0  0  0  0  0  0  0  0  0
    7.5425    1.0733   -6.7439 H   0  0  0  0  0  0  0  0  0  0  0  0
   -2.7604   -0.2148   -1.0676 H   0  0  0  0  0  0  0  0  0  0  0  0
  1  7  1  0  0  0  0
  2  8  1  0  0  0  0
  2  1  2  0  0  0  0
  3  2  1  0  0  0  0
  4  3  2  0  0  0  0
  4  5  1  0  0  0  0
  5  6  2  0  0  0  0
  6  1  1  0  0  0  0
  6 31  1  0  0  0  0
  9  4  1  0  0  0  0
 10  5  1  0  0  0  0
 11 12  3  0  0  0  0
 13 19  1  0  0  0  0
 13 18  2  0  0  0  0
 14 13  1  0  0  0  0
 15 14  2  0  0  0  0
 15 16  1  0  0  0  0
 16 17  2  0  0  0  0
 17 18  1  0  0  0  0
 17 22  1  0  0  0  0
 18 23  1  0  0  0  0
 20 14  1  0  0  0  0
 21 16  1  0  0  0  0
 23 26  2  0  0  0  0
 23 24  2  0  0  0  0
 25  3  1  0  0  0  0
 25 23  1  0  0  0  0
 27 29  1  0  0  0  0
 27 15  1  0  0  0  0
 28 27  1  0  0  0  0
 30 27  1  0  0  0  0
M  END
