Coordinates from ORCA-job Ph-N2-OTs-B3LYPG-6-31G_dp-MTMO-d009-169-n800
 OpenBabel09051907503D

 31 31  0  0  0  0  0  0  0  0999 V2000
   -0.5495    0.1888   -1.5479 C   0  0  0  0  0  0  0  0  0  0  0  0
    0.7649   -0.0127   -1.9716 C   0  0  0  0  0  0  0  0  0  0  0  0
    1.4684    1.0654   -2.5070 C   0  0  0  0  0  0  0  0  0  0  0  0
    0.8953    2.3294   -2.6268 C   0  0  0  0  0  0  0  0  0  0  0  0
   -0.4221    2.5135   -2.2064 C   0  0  0  0  0  0  0  0  0  0  0  0
   -1.1445    1.4470   -1.6658 C   0  0  0  0  0  0  0  0  0  0  0  0
   -1.1089   -0.6417   -1.1281 H   0  0  0  0  0  0  0  0  0  0  0  0
    1.2472   -0.9799   -1.8900 H   0  0  0  0  0  0  0  0  0  0  0  0
    1.4794    3.1397   -3.0482 H   0  0  0  0  0  0  0  0  0  0  0  0
   -0.8822    3.4930   -2.2984 H   0  0  0  0  0  0  0  0  0  0  0  0
    3.6706    3.7931   -6.4625 N   0  0  0  0  0  0  0  0  0  0  0  0
    3.2781    3.8403   -5.4304 N   0  0  0  0  0  0  0  0  0  0  0  0
    5.9277    1.9682   -3.4320 C   0  0  0  0  0  0  0  0  0  0  0  0
    6.9874    1.9436   -4.3339 C   0  0  0  0  0  0  0  0  0  0  0  0
    7.4786    0.7317   -4.8446 C   0  0  0  0  0  0  0  0  0  0  0  0
    6.8859   -0.4649   -4.4183 C   0  0  0  0  0  0  0  0  0  0  0  0
    5.8243   -0.4627   -3.5154 C   0  0  0  0  0  0  0  0  0  0  0  0
    5.3523    0.7588   -3.0365 C   0  0  0  0  0  0  0  0  0  0  0  0
    5.5568    2.9023   -3.0252 H   0  0  0  0  0  0  0  0  0  0  0  0
    7.4458    2.8790   -4.6430 H   0  0  0  0  0  0  0  0  0  0  0  0
    7.2636   -1.4116   -4.7937 H   0  0  0  0  0  0  0  0  0  0  0  0
    5.3755   -1.3889   -3.1743 H   0  0  0  0  0  0  0  0  0  0  0  0
    3.9998    0.7787   -1.8794 S   0  0  0  0  0  0  0  0  0  0  0  0
    3.9061   -0.5156   -1.2067 O   0  0  0  0  0  0  0  0  0  0  0  0
    2.7686    0.8768   -3.0072 O   0  0  0  0  0  0  0  0  0  0  0  0
    4.0171    2.0188   -1.1082 O   0  0  0  0  0  0  0  0  0  0  0  0
    8.6106    0.7242   -5.8424 C   0  0  0  0  0  0  0  0  0  0  0  0
    8.2506    0.9928   -6.8431 H   0  0  0  0  0  0  0  0  0  0  0  0
    9.3847    1.4494   -5.5731 H   0  0  0  0  0  0  0  0  0  0  0  0
    9.0762   -0.2621   -5.9140 H   0  0  0  0  0  0  0  0  0  0  0  0
   -2.1685    1.5963   -1.3373 H   0  0  0  0  0  0  0  0  0  0  0  0
  1  7  1  0  0  0  0
  2  8  1  0  0  0  0
  2  1  2  0  0  0  0
  3  2  1  0  0  0  0
  4  3  2  0  0  0  0
  4  5  1  0  0  0  0
  5  6  2  0  0  0  0
  6  1  1  0  0  0  0
  6 31  1  0  0  0  0
  9  4  1  0  0  0  0
 10  5  1  0  0  0  0
 11 12  3  0  0  0  0
 13 18  1  0  0  0  0
 13 19  1  0  0  0  0
 14 13  2  0  0  0  0
 15 16  2  0  0  0  0
 15 14  1  0  0  0  0
 16 17  1  0  0  0  0
 17 22  1  0  0  0  0
 17 18  2  0  0  0  0
 18 23  1  0  0  0  0
 20 14  1  0  0  0  0
 21 16  1  0  0  0  0
 23 24  2  0  0  0  0
 23 26  2  0  0  0  0
 25  3  1  0  0  0  0
 25 23  1  0  0  0  0
 27 29  1  0  0  0  0
 27 15  1  0  0  0  0
 28 27  1  0  0  0  0
 30 27  1  0  0  0  0
M  END
