Coordinates from ORCA-job Ph-N2-OTs-B3LYPG-6-31G_dp-MTMO-d009-169-n800
 OpenBabel09051907503D

 31 31  0  0  0  0  0  0  0  0999 V2000
   -0.6506   -1.0477   -1.3998 C   0  0  0  0  0  0  0  0  0  0  0  0
    0.6439   -0.8186   -1.8678 C   0  0  0  0  0  0  0  0  0  0  0  0
    0.9596    0.4372   -2.3832 C   0  0  0  0  0  0  0  0  0  0  0  0
    0.0206    1.4658   -2.4343 C   0  0  0  0  0  0  0  0  0  0  0  0
   -1.2701    1.2227   -1.9632 C   0  0  0  0  0  0  0  0  0  0  0  0
   -1.6071   -0.0309   -1.4471 C   0  0  0  0  0  0  0  0  0  0  0  0
   -0.9098   -2.0218   -0.9961 H   0  0  0  0  0  0  0  0  0  0  0  0
    1.4049   -1.5901   -1.8378 H   0  0  0  0  0  0  0  0  0  0  0  0
    0.3079    2.4307   -2.8360 H   0  0  0  0  0  0  0  0  0  0  0  0
   -2.0117    2.0153   -1.9991 H   0  0  0  0  0  0  0  0  0  0  0  0
   12.1001    4.7868   -7.0969 N   0  0  0  0  0  0  0  0  0  0  0  0
   11.1227    4.3560   -6.8127 N   0  0  0  0  0  0  0  0  0  0  0  0
    5.0019    2.4997   -3.6982 C   0  0  0  0  0  0  0  0  0  0  0  0
    6.0609    2.5539   -4.6010 C   0  0  0  0  0  0  0  0  0  0  0  0
    6.8628    1.4295   -4.8484 C   0  0  0  0  0  0  0  0  0  0  0  0
    6.5845    0.2419   -4.1552 C   0  0  0  0  0  0  0  0  0  0  0  0
    5.5316    0.1669   -3.2469 C   0  0  0  0  0  0  0  0  0  0  0  0
    4.7453    1.2999   -3.0332 C   0  0  0  0  0  0  0  0  0  0  0  0
    4.3900    3.3717   -3.4960 H   0  0  0  0  0  0  0  0  0  0  0  0
    6.2725    3.4857   -5.1180 H   0  0  0  0  0  0  0  0  0  0  0  0
    7.2047   -0.6342   -4.3246 H   0  0  0  0  0  0  0  0  0  0  0  0
    5.3276   -0.7469   -2.6996 H   0  0  0  0  0  0  0  0  0  0  0  0
    3.4052    1.2216   -1.8643 S   0  0  0  0  0  0  0  0  0  0  0  0
    3.6675    0.1809   -0.8730 O   0  0  0  0  0  0  0  0  0  0  0  0
    2.2393    0.6535   -2.9228 O   0  0  0  0  0  0  0  0  0  0  0  0
    3.0298    2.5704   -1.4466 O   0  0  0  0  0  0  0  0  0  0  0  0
    7.9868    1.4910   -5.8536 C   0  0  0  0  0  0  0  0  0  0  0  0
    8.4504    2.4814   -5.8821 H   0  0  0  0  0  0  0  0  0  0  0  0
    8.7649    0.7560   -5.6297 H   0  0  0  0  0  0  0  0  0  0  0  0
    7.6161    1.2768   -6.8639 H   0  0  0  0  0  0  0  0  0  0  0  0
   -2.6127   -0.2144   -1.0808 H   0  0  0  0  0  0  0  0  0  0  0  0
  1  7  1  0  0  0  0
  2  8  1  0  0  0  0
  2  1  2  0  0  0  0
  3  2  1  0  0  0  0
  4  3  2  0  0  0  0
  4  5  1  0  0  0  0
  5  6  2  0  0  0  0
  6  1  1  0  0  0  0
  6 31  1  0  0  0  0
  9  4  1  0  0  0  0
 10  5  1  0  0  0  0
 11 12  3  0  0  0  0
 13 19  1  0  0  0  0
 13 18  2  0  0  0  0
 14 13  1  0  0  0  0
 15 14  2  0  0  0  0
 15 16  1  0  0  0  0
 16 17  2  0  0  0  0
 17 18  1  0  0  0  0
 17 22  1  0  0  0  0
 18 23  1  0  0  0  0
 20 14  1  0  0  0  0
 21 16  1  0  0  0  0
 23 26  2  0  0  0  0
 23 24  2  0  0  0  0
 25  3  1  0  0  0  0
 25 23  1  0  0  0  0
 27 29  1  0  0  0  0
 27 15  1  0  0  0  0
 28 27  1  0  0  0  0
 30 27  1  0  0  0  0
M  END
