Coordinates from ORCA-job Ph-N2-OTs-B3LYPG-6-31G_dp-MTMO-d009-169-n800
 OpenBabel09051907503D

 31 31  0  0  0  0  0  0  0  0999 V2000
   -0.7378   -0.6484   -1.6696 C   0  0  0  0  0  0  0  0  0  0  0  0
    0.6013   -0.5889   -2.0578 C   0  0  0  0  0  0  0  0  0  0  0  0
    1.1132    0.6228   -2.5193 C   0  0  0  0  0  0  0  0  0  0  0  0
    0.3251    1.7696   -2.5957 C   0  0  0  0  0  0  0  0  0  0  0  0
   -1.0132    1.6947   -2.2080 C   0  0  0  0  0  0  0  0  0  0  0  0
   -1.5455    0.4890   -1.7449 C   0  0  0  0  0  0  0  0  0  0  0  0
   -1.1489   -1.5859   -1.3076 H   0  0  0  0  0  0  0  0  0  0  0  0
    1.2486   -1.4567   -2.0049 H   0  0  0  0  0  0  0  0  0  0  0  0
    0.7635    2.6941   -2.9541 H   0  0  0  0  0  0  0  0  0  0  0  0
   -1.6382    2.5809   -2.2658 H   0  0  0  0  0  0  0  0  0  0  0  0
    8.4434    5.9668   -7.3379 N   0  0  0  0  0  0  0  0  0  0  0  0
    8.1699    5.0873   -6.7272 N   0  0  0  0  0  0  0  0  0  0  0  0
    5.4444    2.2094   -3.4218 C   0  0  0  0  0  0  0  0  0  0  0  0
    6.5357    2.2414   -4.2878 C   0  0  0  0  0  0  0  0  0  0  0  0
    7.1965    1.0635   -4.6646 C   0  0  0  0  0  0  0  0  0  0  0  0
    6.7369   -0.1591   -4.1508 C   0  0  0  0  0  0  0  0  0  0  0  0
    5.6498   -0.2127   -3.2835 C   0  0  0  0  0  0  0  0  0  0  0  0
    5.0107    0.9777   -2.9315 C   0  0  0  0  0  0  0  0  0  0  0  0
    4.9394    3.1203   -3.1205 H   0  0  0  0  0  0  0  0  0  0  0  0
    6.8810    3.1947   -4.6773 H   0  0  0  0  0  0  0  0  0  0  0  0
    7.2396   -1.0804   -4.4322 H   0  0  0  0  0  0  0  0  0  0  0  0
    5.3028   -1.1556   -2.8759 H   0  0  0  0  0  0  0  0  0  0  0  0
    3.6212    0.9240   -1.8214 S   0  0  0  0  0  0  0  0  0  0  0  0
    3.6960   -0.2743   -0.9884 O   0  0  0  0  0  0  0  0  0  0  0  0
    2.4391    0.6834   -2.9809 O   0  0  0  0  0  0  0  0  0  0  0  0
    3.4119    2.2379   -1.2176 O   0  0  0  0  0  0  0  0  0  0  0  0
    8.3950    1.1081   -5.5802 C   0  0  0  0  0  0  0  0  0  0  0  0
    8.4259    2.0373   -6.1550 H   0  0  0  0  0  0  0  0  0  0  0  0
    9.3270    1.0452   -5.0052 H   0  0  0  0  0  0  0  0  0  0  0  0
    8.3920    0.2685   -6.2826 H   0  0  0  0  0  0  0  0  0  0  0  0
   -2.5866    0.4362   -1.4416 H   0  0  0  0  0  0  0  0  0  0  0  0
  1  7  1  0  0  0  0
  2  8  1  0  0  0  0
  2  1  2  0  0  0  0
  3  2  1  0  0  0  0
  4  3  2  0  0  0  0
  4  5  1  0  0  0  0
  5  6  2  0  0  0  0
  6  1  1  0  0  0  0
  6 31  1  0  0  0  0
  9  4  1  0  0  0  0
 10  5  1  0  0  0  0
 11 12  3  0  0  0  0
 13 19  1  0  0  0  0
 13 18  2  0  0  0  0
 14 13  1  0  0  0  0
 15 14  2  0  0  0  0
 15 16  1  0  0  0  0
 16 17  2  0  0  0  0
 17 18  1  0  0  0  0
 17 22  1  0  0  0  0
 18 23  1  0  0  0  0
 20 14  1  0  0  0  0
 21 16  1  0  0  0  0
 23 26  2  0  0  0  0
 23 24  2  0  0  0  0
 25  3  1  0  0  0  0
 25 23  1  0  0  0  0
 27 29  1  0  0  0  0
 27 15  1  0  0  0  0
 28 27  1  0  0  0  0
 30 27  1  0  0  0  0
M  END
