Coordinates from ORCA-job Ph-N2-OTs-B3LYPG-6-31G_dp-MTMO-d009-169-n800
 OpenBabel09051907503D

 31 31  0  0  0  0  0  0  0  0999 V2000
   -0.4363   -0.1890   -1.6117 C   0  0  0  0  0  0  0  0  0  0  0  0
    0.8856   -0.2245   -2.0571 C   0  0  0  0  0  0  0  0  0  0  0  0
    1.4191    0.9078   -2.6691 C   0  0  0  0  0  0  0  0  0  0  0  0
    0.6722    2.0729   -2.8367 C   0  0  0  0  0  0  0  0  0  0  0  0
   -0.6475    2.0949   -2.3838 C   0  0  0  0  0  0  0  0  0  0  0  0
   -1.2031    0.9674   -1.7740 C   0  0  0  0  0  0  0  0  0  0  0  0
   -0.8648   -1.0656   -1.1351 H   0  0  0  0  0  0  0  0  0  0  0  0
    1.5036   -1.1073   -1.9379 H   0  0  0  0  0  0  0  0  0  0  0  0
    1.1268    2.9366   -3.3084 H   0  0  0  0  0  0  0  0  0  0  0  0
   -1.2414    2.9956   -2.5091 H   0  0  0  0  0  0  0  0  0  0  0  0
    4.5541    6.0471   -3.8066 N   0  0  0  0  0  0  0  0  0  0  0  0
    3.5045    5.7006   -3.7965 N   0  0  0  0  0  0  0  0  0  0  0  0
    5.7920    2.0073   -4.1475 C   0  0  0  0  0  0  0  0  0  0  0  0
    6.8690    1.6897   -4.9714 C   0  0  0  0  0  0  0  0  0  0  0  0
    7.4642    0.4200   -4.9319 C   0  0  0  0  0  0  0  0  0  0  0  0
    6.9586   -0.5302   -4.0322 C   0  0  0  0  0  0  0  0  0  0  0  0
    5.8836   -0.2326   -3.1985 C   0  0  0  0  0  0  0  0  0  0  0  0
    5.3068    1.0361   -3.2710 C   0  0  0  0  0  0  0  0  0  0  0  0
    5.3418    2.9932   -4.1671 H   0  0  0  0  0  0  0  0  0  0  0  0
    7.2585    2.4428   -5.6510 H   0  0  0  0  0  0  0  0  0  0  0  0
    7.4178   -1.5133   -3.9786 H   0  0  0  0  0  0  0  0  0  0  0  0
    5.5047   -0.9622   -2.4912 H   0  0  0  0  0  0  0  0  0  0  0  0
    3.9430    1.4332   -2.1982 S   0  0  0  0  0  0  0  0  0  0  0  0
    3.9940    0.6064   -0.9950 O   0  0  0  0  0  0  0  0  0  0  0  0
    2.7259    0.8467   -3.1843 O   0  0  0  0  0  0  0  0  0  0  0  0
    3.7991    2.8847   -2.0981 O   0  0  0  0  0  0  0  0  0  0  0  0
    8.6123    0.0791   -5.8508 C   0  0  0  0  0  0  0  0  0  0  0  0
    8.2429   -0.2977   -6.8123 H   0  0  0  0  0  0  0  0  0  0  0  0
    9.2300    0.9567   -6.0616 H   0  0  0  0  0  0  0  0  0  0  0  0
    9.2533   -0.6961   -5.4211 H   0  0  0  0  0  0  0  0  0  0  0  0
   -2.2306    0.9902   -1.4242 H   0  0  0  0  0  0  0  0  0  0  0  0
  1  7  1  0  0  0  0
  2  8  1  0  0  0  0
  2  1  2  0  0  0  0
  3  2  1  0  0  0  0
  4  3  2  0  0  0  0
  4  5  1  0  0  0  0
  5  6  2  0  0  0  0
  6  1  1  0  0  0  0
  6 31  1  0  0  0  0
  9  4  1  0  0  0  0
 10  5  1  0  0  0  0
 11 12  3  0  0  0  0
 13 18  2  0  0  0  0
 14 15  2  0  0  0  0
 14 13  1  0  0  0  0
 15 16  1  0  0  0  0
 16 21  1  0  0  0  0
 16 17  2  0  0  0  0
 17 22  1  0  0  0  0
 18 17  1  0  0  0  0
 18 23  1  0  0  0  0
 19 13  1  0  0  0  0
 20 14  1  0  0  0  0
 23 26  2  0  0  0  0
 23 24  2  0  0  0  0
 25  3  1  0  0  0  0
 25 23  1  0  0  0  0
 27 30  1  0  0  0  0
 27 15  1  0  0  0  0
 28 27  1  0  0  0  0
 29 27  1  0  0  0  0
M  END
