Coordinates from ORCA-job Ph-N2-OTs-B3LYPG-6-31G_dp-MTMO-d009-169-n800
 OpenBabel09051907503D

 31 31  0  0  0  0  0  0  0  0999 V2000
   -0.8012   -1.0754   -1.3773 C   0  0  0  0  0  0  0  0  0  0  0  0
    0.5014   -0.8638   -1.8308 C   0  0  0  0  0  0  0  0  0  0  0  0
    0.8423    0.3904   -2.3340 C   0  0  0  0  0  0  0  0  0  0  0  0
   -0.0796    1.4342   -2.3869 C   0  0  0  0  0  0  0  0  0  0  0  0
   -1.3787    1.2086   -1.9304 C   0  0  0  0  0  0  0  0  0  0  0  0
   -1.7409   -0.0430   -1.4267 C   0  0  0  0  0  0  0  0  0  0  0  0
   -1.0800   -2.0480   -0.9833 H   0  0  0  0  0  0  0  0  0  0  0  0
    1.2495   -1.6478   -1.7991 H   0  0  0  0  0  0  0  0  0  0  0  0
    0.2271    2.3972   -2.7786 H   0  0  0  0  0  0  0  0  0  0  0  0
   -2.1070    2.0133   -1.9680 H   0  0  0  0  0  0  0  0  0  0  0  0
   13.7326    5.6907   -8.0332 N   0  0  0  0  0  0  0  0  0  0  0  0
   12.7629    5.2128   -7.8032 N   0  0  0  0  0  0  0  0  0  0  0  0
    4.9035    2.4202   -3.5988 C   0  0  0  0  0  0  0  0  0  0  0  0
    5.9641    2.4783   -4.5000 C   0  0  0  0  0  0  0  0  0  0  0  0
    6.7601    1.3529   -4.7580 C   0  0  0  0  0  0  0  0  0  0  0  0
    6.4753    0.1588   -4.0777 C   0  0  0  0  0  0  0  0  0  0  0  0
    5.4210    0.0798   -3.1720 C   0  0  0  0  0  0  0  0  0  0  0  0
    4.6402    1.2150   -2.9474 C   0  0  0  0  0  0  0  0  0  0  0  0
    4.2958    3.2931   -3.3884 H   0  0  0  0  0  0  0  0  0  0  0  0
    6.1814    3.4142   -5.0070 H   0  0  0  0  0  0  0  0  0  0  0  0
    7.0915   -0.7184   -4.2555 H   0  0  0  0  0  0  0  0  0  0  0  0
    5.2108   -0.8385   -2.6349 H   0  0  0  0  0  0  0  0  0  0  0  0
    3.2949    1.1307   -1.7854 S   0  0  0  0  0  0  0  0  0  0  0  0
    3.5435    0.0724   -0.8093 O   0  0  0  0  0  0  0  0  0  0  0  0
    2.1304    0.5898   -2.8592 O   0  0  0  0  0  0  0  0  0  0  0  0
    2.9290    2.4760   -1.3484 O   0  0  0  0  0  0  0  0  0  0  0  0
    7.8871    1.4176   -5.7596 C   0  0  0  0  0  0  0  0  0  0  0  0
    8.2640    2.4374   -5.8743 H   0  0  0  0  0  0  0  0  0  0  0  0
    8.7218    0.7748   -5.4654 H   0  0  0  0  0  0  0  0  0  0  0  0
    7.5497    1.0802   -6.7475 H   0  0  0  0  0  0  0  0  0  0  0  0
   -2.7528   -0.2129   -1.0716 H   0  0  0  0  0  0  0  0  0  0  0  0
  1  7  1  0  0  0  0
  2  8  1  0  0  0  0
  2  1  2  0  0  0  0
  3  2  1  0  0  0  0
  4  3  2  0  0  0  0
  4  5  1  0  0  0  0
  5  6  2  0  0  0  0
  6  1  1  0  0  0  0
  6 31  1  0  0  0  0
  9  4  1  0  0  0  0
 10  5  1  0  0  0  0
 11 12  3  0  0  0  0
 13 19  1  0  0  0  0
 13 18  2  0  0  0  0
 14 13  1  0  0  0  0
 15 14  2  0  0  0  0
 15 16  1  0  0  0  0
 16 17  2  0  0  0  0
 17 18  1  0  0  0  0
 17 22  1  0  0  0  0
 18 23  1  0  0  0  0
 20 14  1  0  0  0  0
 21 16  1  0  0  0  0
 23 26  2  0  0  0  0
 23 24  2  0  0  0  0
 25  3  1  0  0  0  0
 25 23  1  0  0  0  0
 27 29  1  0  0  0  0
 27 15  1  0  0  0  0
 28 27  1  0  0  0  0
 30 27  1  0  0  0  0
M  END
