Coordinates from ORCA-job Ph-N2-OTs-B3LYPG-6-31G_dp-MTMO-d009-169-n800
 OpenBabel09051907503D

 31 31  0  0  0  0  0  0  0  0999 V2000
   -0.8168   -1.0804   -1.3690 C   0  0  0  0  0  0  0  0  0  0  0  0
    0.4858   -0.8697   -1.8227 C   0  0  0  0  0  0  0  0  0  0  0  0
    0.8273    0.3841   -2.3265 C   0  0  0  0  0  0  0  0  0  0  0  0
   -0.0941    1.4283   -2.3798 C   0  0  0  0  0  0  0  0  0  0  0  0
   -1.3933    1.2035   -1.9232 C   0  0  0  0  0  0  0  0  0  0  0  0
   -1.7560   -0.0477   -1.4188 C   0  0  0  0  0  0  0  0  0  0  0  0
   -1.0960   -2.0527   -0.9745 H   0  0  0  0  0  0  0  0  0  0  0  0
    1.2336   -1.6540   -1.7905 H   0  0  0  0  0  0  0  0  0  0  0  0
    0.2130    2.3910   -2.7721 H   0  0  0  0  0  0  0  0  0  0  0  0
   -2.1213    2.0085   -1.9611 H   0  0  0  0  0  0  0  0  0  0  0  0
   13.9481    5.8029   -8.1349 N   0  0  0  0  0  0  0  0  0  0  0  0
   12.9800    5.3210   -7.9062 N   0  0  0  0  0  0  0  0  0  0  0  0
    4.8891    2.4115   -3.5926 C   0  0  0  0  0  0  0  0  0  0  0  0
    5.9496    2.4689   -4.4940 C   0  0  0  0  0  0  0  0  0  0  0  0
    6.7452    1.3431   -4.7515 C   0  0  0  0  0  0  0  0  0  0  0  0
    6.4600    0.1495   -4.0706 C   0  0  0  0  0  0  0  0  0  0  0  0
    5.4058    0.0712   -3.1648 C   0  0  0  0  0  0  0  0  0  0  0  0
    4.6255    1.2068   -2.9406 C   0  0  0  0  0  0  0  0  0  0  0  0
    4.2817    3.2848   -3.3825 H   0  0  0  0  0  0  0  0  0  0  0  0
    6.1671    3.4045   -5.0014 H   0  0  0  0  0  0  0  0  0  0  0  0
    7.0760   -0.7281   -4.2481 H   0  0  0  0  0  0  0  0  0  0  0  0
    5.1955   -0.8468   -2.6271 H   0  0  0  0  0  0  0  0  0  0  0  0
    3.2803    1.1235   -1.7784 S   0  0  0  0  0  0  0  0  0  0  0  0
    3.5286    0.0655   -0.8019 O   0  0  0  0  0  0  0  0  0  0  0  0
    2.1155    0.5827   -2.8519 O   0  0  0  0  0  0  0  0  0  0  0  0
    2.9150    2.4692   -1.3419 O   0  0  0  0  0  0  0  0  0  0  0  0
    7.8721    1.4069   -5.7533 C   0  0  0  0  0  0  0  0  0  0  0  0
    8.2478    2.4268   -5.8702 H   0  0  0  0  0  0  0  0  0  0  0  0
    8.7075    0.7657   -5.4576 H   0  0  0  0  0  0  0  0  0  0  0  0
    7.5352    1.0669   -6.7404 H   0  0  0  0  0  0  0  0  0  0  0  0
   -2.7680   -0.2170   -1.0636 H   0  0  0  0  0  0  0  0  0  0  0  0
  1  7  1  0  0  0  0
  2  8  1  0  0  0  0
  2  1  2  0  0  0  0
  3  2  1  0  0  0  0
  4  3  2  0  0  0  0
  4  5  1  0  0  0  0
  5  6  2  0  0  0  0
  6  1  1  0  0  0  0
  6 31  1  0  0  0  0
  9  4  1  0  0  0  0
 10  5  1  0  0  0  0
 11 12  3  0  0  0  0
 13 19  1  0  0  0  0
 13 18  2  0  0  0  0
 14 13  1  0  0  0  0
 15 14  2  0  0  0  0
 15 16  1  0  0  0  0
 16 17  2  0  0  0  0
 17 18  1  0  0  0  0
 17 22  1  0  0  0  0
 18 23  1  0  0  0  0
 20 14  1  0  0  0  0
 21 16  1  0  0  0  0
 23 26  2  0  0  0  0
 23 24  2  0  0  0  0
 25  3  1  0  0  0  0
 25 23  1  0  0  0  0
 27 29  1  0  0  0  0
 27 15  1  0  0  0  0
 28 27  1  0  0  0  0
 30 27  1  0  0  0  0
M  END
