Coordinates from ORCA-job Ph-N2-OTs-B3LYPG-6-31G_dp-MTMO-d009-169-n800
 OpenBabel09051907503D

 31 31  0  0  0  0  0  0  0  0999 V2000
   -0.6990   -0.5168   -1.6212 C   0  0  0  0  0  0  0  0  0  0  0  0
    0.6416   -0.5047   -2.0082 C   0  0  0  0  0  0  0  0  0  0  0  0
    1.1713    0.6620   -2.5574 C   0  0  0  0  0  0  0  0  0  0  0  0
    0.3992    1.8103   -2.7223 C   0  0  0  0  0  0  0  0  0  0  0  0
   -0.9411    1.7827   -2.3352 C   0  0  0  0  0  0  0  0  0  0  0  0
   -1.4910    0.6224   -1.7849 C   0  0  0  0  0  0  0  0  0  0  0  0
   -1.1238   -1.4191   -1.1916 H   0  0  0  0  0  0  0  0  0  0  0  0
    1.2769   -1.3748   -1.8881 H   0  0  0  0  0  0  0  0  0  0  0  0
    0.8512    2.6995   -3.1471 H   0  0  0  0  0  0  0  0  0  0  0  0
   -1.5541    2.6702   -2.4621 H   0  0  0  0  0  0  0  0  0  0  0  0
    7.5015    6.5797   -6.4771 N   0  0  0  0  0  0  0  0  0  0  0  0
    7.4238    5.5405   -6.1092 N   0  0  0  0  0  0  0  0  0  0  0  0
    5.4971    2.1112   -3.5915 C   0  0  0  0  0  0  0  0  0  0  0  0
    6.5849    2.0707   -4.4591 C   0  0  0  0  0  0  0  0  0  0  0  0
    7.2554    0.8662   -4.7240 C   0  0  0  0  0  0  0  0  0  0  0  0
    6.8079   -0.3046   -4.0956 C   0  0  0  0  0  0  0  0  0  0  0  0
    5.7210   -0.2853   -3.2243 C   0  0  0  0  0  0  0  0  0  0  0  0
    5.0735    0.9269   -2.9855 C   0  0  0  0  0  0  0  0  0  0  0  0
    4.9850    3.0425   -3.3763 H   0  0  0  0  0  0  0  0  0  0  0  0
    6.9195    2.9871   -4.9369 H   0  0  0  0  0  0  0  0  0  0  0  0
    7.3182   -1.2439   -4.2896 H   0  0  0  0  0  0  0  0  0  0  0  0
    5.3817   -1.1884   -2.7298 H   0  0  0  0  0  0  0  0  0  0  0  0
    3.6835    0.9679   -1.8755 S   0  0  0  0  0  0  0  0  0  0  0  0
    3.7403   -0.1737   -0.9647 O   0  0  0  0  0  0  0  0  0  0  0  0
    2.4985    0.6701   -3.0186 O   0  0  0  0  0  0  0  0  0  0  0  0
    3.4932    2.3217   -1.3605 O   0  0  0  0  0  0  0  0  0  0  0  0
    8.4504    0.8422   -5.6456 C   0  0  0  0  0  0  0  0  0  0  0  0
    8.3077    1.5089   -6.5013 H   0  0  0  0  0  0  0  0  0  0  0  0
    9.3540    1.1774   -5.1217 H   0  0  0  0  0  0  0  0  0  0  0  0
    8.6451   -0.1643   -6.0244 H   0  0  0  0  0  0  0  0  0  0  0  0
   -2.5336    0.6063   -1.4825 H   0  0  0  0  0  0  0  0  0  0  0  0
  1  7  1  0  0  0  0
  2  8  1  0  0  0  0
  2  1  2  0  0  0  0
  3  2  1  0  0  0  0
  4  3  2  0  0  0  0
  4  5  1  0  0  0  0
  5  6  2  0  0  0  0
  6  1  1  0  0  0  0
  6 31  1  0  0  0  0
  9  4  1  0  0  0  0
 10  5  1  0  0  0  0
 11 12  3  0  0  0  0
 13 19  1  0  0  0  0
 13 18  2  0  0  0  0
 14 13  1  0  0  0  0
 15 14  2  0  0  0  0
 15 16  1  0  0  0  0
 16 17  2  0  0  0  0
 17 18  1  0  0  0  0
 17 22  1  0  0  0  0
 18 23  1  0  0  0  0
 20 14  1  0  0  0  0
 21 16  1  0  0  0  0
 23 26  2  0  0  0  0
 23 24  2  0  0  0  0
 25  3  1  0  0  0  0
 25 23  1  0  0  0  0
 27 29  1  0  0  0  0
 27 15  1  0  0  0  0
 28 27  1  0  0  0  0
 30 27  1  0  0  0  0
M  END
