Coordinates from ORCA-job Ph-N2-OTs-B3LYPG-6-31G_dp-MTMO-d009-169-n800
 OpenBabel09051907503D

 31 31  0  0  0  0  0  0  0  0999 V2000
   -0.8343   -1.0868   -1.3594 C   0  0  0  0  0  0  0  0  0  0  0  0
    0.4684   -0.8767   -1.8134 C   0  0  0  0  0  0  0  0  0  0  0  0
    0.8102    0.3767   -2.3179 C   0  0  0  0  0  0  0  0  0  0  0  0
   -0.1109    1.4212   -2.3717 C   0  0  0  0  0  0  0  0  0  0  0  0
   -1.4101    1.1970   -1.9149 C   0  0  0  0  0  0  0  0  0  0  0  0
   -1.7732   -0.0538   -1.4097 C   0  0  0  0  0  0  0  0  0  0  0  0
   -1.1138   -2.0588   -0.9643 H   0  0  0  0  0  0  0  0  0  0  0  0
    1.2159   -1.6612   -1.7809 H   0  0  0  0  0  0  0  0  0  0  0  0
    0.1965    2.3836   -2.7645 H   0  0  0  0  0  0  0  0  0  0  0  0
   -2.1379    2.0022   -1.9531 H   0  0  0  0  0  0  0  0  0  0  0  0
   14.1957    5.9275   -8.2511 N   0  0  0  0  0  0  0  0  0  0  0  0
   13.2293    5.4417   -8.0234 N   0  0  0  0  0  0  0  0  0  0  0  0
    4.8722    2.4023   -3.5855 C   0  0  0  0  0  0  0  0  0  0  0  0
    5.9326    2.4589   -4.4871 C   0  0  0  0  0  0  0  0  0  0  0  0
    6.7279    1.3329   -4.7442 C   0  0  0  0  0  0  0  0  0  0  0  0
    6.4426    0.1396   -4.0626 C   0  0  0  0  0  0  0  0  0  0  0  0
    5.3886    0.0620   -3.1566 C   0  0  0  0  0  0  0  0  0  0  0  0
    4.6085    1.1979   -2.9329 C   0  0  0  0  0  0  0  0  0  0  0  0
    4.2651    3.2758   -3.3758 H   0  0  0  0  0  0  0  0  0  0  0  0
    6.1502    3.3942   -4.9951 H   0  0  0  0  0  0  0  0  0  0  0  0
    7.0583   -0.7382   -4.2398 H   0  0  0  0  0  0  0  0  0  0  0  0
    5.1781   -0.8556   -2.6184 H   0  0  0  0  0  0  0  0  0  0  0  0
    3.2635    1.1156   -1.7704 S   0  0  0  0  0  0  0  0  0  0  0  0
    3.5116    0.0579   -0.7935 O   0  0  0  0  0  0  0  0  0  0  0  0
    2.0983    0.5746   -2.8435 O   0  0  0  0  0  0  0  0  0  0  0  0
    2.8986    2.4615   -1.3344 O   0  0  0  0  0  0  0  0  0  0  0  0
    7.8547    1.3959   -5.7462 C   0  0  0  0  0  0  0  0  0  0  0  0
    8.2293    2.4159   -5.8652 H   0  0  0  0  0  0  0  0  0  0  0  0
    8.6908    0.7562   -5.4493 H   0  0  0  0  0  0  0  0  0  0  0  0
    7.5181    1.0534   -6.7326 H   0  0  0  0  0  0  0  0  0  0  0  0
   -2.7852   -0.2226   -1.0543 H   0  0  0  0  0  0  0  0  0  0  0  0
  1  7  1  0  0  0  0
  2  8  1  0  0  0  0
  2  1  2  0  0  0  0
  3  2  1  0  0  0  0
  4  3  2  0  0  0  0
  4  5  1  0  0  0  0
  5  6  2  0  0  0  0
  6  1  1  0  0  0  0
  6 31  1  0  0  0  0
  9  4  1  0  0  0  0
 10  5  1  0  0  0  0
 11 12  3  0  0  0  0
 13 19  1  0  0  0  0
 13 18  2  0  0  0  0
 14 13  1  0  0  0  0
 15 14  2  0  0  0  0
 15 16  1  0  0  0  0
 16 17  2  0  0  0  0
 17 18  1  0  0  0  0
 17 22  1  0  0  0  0
 18 23  1  0  0  0  0
 20 14  1  0  0  0  0
 21 16  1  0  0  0  0
 23 26  2  0  0  0  0
 23 24  2  0  0  0  0
 25  3  1  0  0  0  0
 25 23  1  0  0  0  0
 27 29  1  0  0  0  0
 27 15  1  0  0  0  0
 28 27  1  0  0  0  0
 30 27  1  0  0  0  0
M  END
