Coordinates from ORCA-job Ph-N2-OTs-B3LYPG-6-31G_dp-MTMO-d009-169-n800
 OpenBabel09051907503D

 31 30  0  0  0  0  0  0  0  0999 V2000
   -0.2222    0.0031   -1.1766 C   0  0  0  0  0  0  0  0  0  0  0  0
    0.7139    0.6959   -1.9666 C   0  0  0  0  0  0  0  0  0  0  0  0
    0.3064    1.7161   -2.5802 C   0  0  0  0  0  0  0  0  0  0  0  0
   -0.8678    2.4025   -2.7123 C   0  0  0  0  0  0  0  0  0  0  0  0
   -1.8274    1.7207   -1.9242 C   0  0  0  0  0  0  0  0  0  0  0  0
   -1.5131    0.5646   -1.1867 C   0  0  0  0  0  0  0  0  0  0  0  0
    0.0057   -0.8887   -0.6012 H   0  0  0  0  0  0  0  0  0  0  0  0
    2.6769    0.4342   -2.2707 H   0  0  0  0  0  0  0  0  0  0  0  0
   -1.0689    3.2950   -3.2887 H   0  0  0  0  0  0  0  0  0  0  0  0
   -2.8395    2.1166   -1.8961 H   0  0  0  0  0  0  0  0  0  0  0  0
    1.1786    4.5565   -4.5831 N   0  0  0  0  0  0  0  0  0  0  0  0
    2.0751    5.0665   -4.9789 N   0  0  0  0  0  0  0  0  0  0  0  0
    6.9299    1.2718   -2.8862 C   0  0  0  0  0  0  0  0  0  0  0  0
    8.1293    0.8220   -3.4360 C   0  0  0  0  0  0  0  0  0  0  0  0
    8.1802    0.2980   -4.7351 C   0  0  0  0  0  0  0  0  0  0  0  0
    6.9919    0.2326   -5.4797 C   0  0  0  0  0  0  0  0  0  0  0  0
    5.7847    0.6773   -4.9484 C   0  0  0  0  0  0  0  0  0  0  0  0
    5.7662    1.1903   -3.6499 C   0  0  0  0  0  0  0  0  0  0  0  0
    6.8893    1.6866   -1.8856 H   0  0  0  0  0  0  0  0  0  0  0  0
    9.0410    0.8810   -2.8476 H   0  0  0  0  0  0  0  0  0  0  0  0
    7.0148   -0.1696   -6.4887 H   0  0  0  0  0  0  0  0  0  0  0  0
    4.8690    0.6380   -5.5284 H   0  0  0  0  0  0  0  0  0  0  0  0
    4.2275    1.7630   -2.9580 S   0  0  0  0  0  0  0  0  0  0  0  0
    3.6523    0.3353   -2.4247 O   0  0  0  0  0  0  0  0  0  0  0  0
    3.3475    2.2361   -4.0321 O   0  0  0  0  0  0  0  0  0  0  0  0
    4.5102    2.6323   -1.8174 O   0  0  0  0  0  0  0  0  0  0  0  0
    9.4883   -0.1587   -5.3346 C   0  0  0  0  0  0  0  0  0  0  0  0
    9.9266    0.6276   -5.9620 H   0  0  0  0  0  0  0  0  0  0  0  0
   10.2193   -0.4054   -4.5598 H   0  0  0  0  0  0  0  0  0  0  0  0
    9.3512   -1.0399   -5.9688 H   0  0  0  0  0  0  0  0  0  0  0  0
   -2.2974    0.0895   -0.6033 H   0  0  0  0  0  0  0  0  0  0  0  0
  1  7  1  0  0  0  0
  2  1  2  0  0  0  0
  3  2  1  0  0  0  0
  4  3  2  0  0  0  0
  4  5  1  0  0  0  0
  5 10  1  0  0  0  0
  5  6  2  0  0  0  0
  6  1  1  0  0  0  0
  6 31  1  0  0  0  0
  9  4  1  0  0  0  0
 12 11  3  0  0  0  0
 13 19  1  0  0  0  0
 14 13  1  0  0  0  0
 14 20  1  0  0  0  0
 15 14  2  0  0  0  0
 16 17  2  0  0  0  0
 16 15  1  0  0  0  0
 17 18  1  0  0  0  0
 18 23  1  0  0  0  0
 18 13  2  0  0  0  0
 21 16  1  0  0  0  0
 22 17  1  0  0  0  0
 23 24  1  0  0  0  0
 23 26  2  0  0  0  0
 24  8  1  0  0  0  0
 25 23  2  0  0  0  0
 27 15  1  0  0  0  0
 27 29  1  0  0  0  0
 28 27  1  0  0  0  0
 30 27  1  0  0  0  0
M  RAD  2   2   2   3   2
M  END
