Coordinates from ORCA-job Ph-N2-OTs-B3LYPG-6-31G_dp-MTMO-d009-169-n800
 OpenBabel09051907493D

 31 30  0  0  0  0  0  0  0  0999 V2000
   -0.0567    0.0723   -1.3124 C   0  0  0  0  0  0  0  0  0  0  0  0
    0.6896    0.9362   -2.1374 C   0  0  0  0  0  0  0  0  0  0  0  0
    0.0935    1.9463   -2.5943 C   0  0  0  0  0  0  0  0  0  0  0  0
   -1.1563    2.4920   -2.5151 C   0  0  0  0  0  0  0  0  0  0  0  0
   -1.9254    1.6366   -1.6887 C   0  0  0  0  0  0  0  0  0  0  0  0
   -1.3915    0.4704   -1.1114 C   0  0  0  0  0  0  0  0  0  0  0  0
    0.3423   -0.8292   -0.8585 H   0  0  0  0  0  0  0  0  0  0  0  0
    2.5922    0.6851   -2.5660 H   0  0  0  0  0  0  0  0  0  0  0  0
   -1.5299    3.3983   -2.9717 H   0  0  0  0  0  0  0  0  0  0  0  0
   -2.9619    1.9036   -1.4998 H   0  0  0  0  0  0  0  0  0  0  0  0
    1.0701    4.5005   -4.2230 N   0  0  0  0  0  0  0  0  0  0  0  0
    1.8285    5.1663   -4.6726 N   0  0  0  0  0  0  0  0  0  0  0  0
    6.8722    1.2871   -2.9700 C   0  0  0  0  0  0  0  0  0  0  0  0
    8.0970    0.7682   -3.3866 C   0  0  0  0  0  0  0  0  0  0  0  0
    8.2486    0.1984   -4.6583 C   0  0  0  0  0  0  0  0  0  0  0  0
    7.1356    0.1581   -5.5125 C   0  0  0  0  0  0  0  0  0  0  0  0
    5.9041    0.6714   -5.1148 C   0  0  0  0  0  0  0  0  0  0  0  0
    5.7844    1.2288   -3.8406 C   0  0  0  0  0  0  0  0  0  0  0  0
    6.7560    1.7382   -1.9910 H   0  0  0  0  0  0  0  0  0  0  0  0
    8.9498    0.8096   -2.7141 H   0  0  0  0  0  0  0  0  0  0  0  0
    7.2363   -0.2783   -6.5026 H   0  0  0  0  0  0  0  0  0  0  0  0
    5.0470    0.6519   -5.7791 H   0  0  0  0  0  0  0  0  0  0  0  0
    4.2148    1.8922   -3.3205 S   0  0  0  0  0  0  0  0  0  0  0  0
    3.5565    0.5189   -2.7422 O   0  0  0  0  0  0  0  0  0  0  0  0
    3.4454    2.3162   -4.4936 O   0  0  0  0  0  0  0  0  0  0  0  0
    4.4291    2.8291   -2.2180 O   0  0  0  0  0  0  0  0  0  0  0  0
    9.5862   -0.3331   -5.1142 C   0  0  0  0  0  0  0  0  0  0  0  0
   10.1209    0.4152   -5.7128 H   0  0  0  0  0  0  0  0  0  0  0  0
   10.2254   -0.5914   -4.2654 H   0  0  0  0  0  0  0  0  0  0  0  0
    9.4701   -1.2245   -5.7383 H   0  0  0  0  0  0  0  0  0  0  0  0
   -2.0344   -0.1438   -0.4861 H   0  0  0  0  0  0  0  0  0  0  0  0
  1  6  1  0  0  0  0
  1  7  1  0  0  0  0
  2  1  2  0  0  0  0
  3  4  2  0  0  0  0
  3  2  1  0  0  0  0
  4  5  1  0  0  0  0
  5 10  1  0  0  0  0
  5  6  2  0  0  0  0
  6 31  1  0  0  0  0
  9  4  1  0  0  0  0
 12 11  3  0  0  0  0
 13 19  1  0  0  0  0
 14 13  1  0  0  0  0
 14 20  1  0  0  0  0
 15 14  2  0  0  0  0
 16 17  2  0  0  0  0
 16 15  1  0  0  0  0
 17 18  1  0  0  0  0
 18 23  1  0  0  0  0
 18 13  2  0  0  0  0
 21 16  1  0  0  0  0
 22 17  1  0  0  0  0
 23 24  1  0  0  0  0
 23 26  2  0  0  0  0
 24  8  1  0  0  0  0
 25 23  2  0  0  0  0
 27 15  1  0  0  0  0
 27 29  1  0  0  0  0
 28 27  1  0  0  0  0
 30 27  1  0  0  0  0
M  RAD  2   2   2   3   2
M  END
