Coordinates from ORCA-job Ph-N2-OTs-B3LYPG-6-31G_dp-MTMO-d009-169-n800
 OpenBabel09051907503D

 31 31  0  0  0  0  0  0  0  0999 V2000
   -0.6435   -0.9296   -1.4010 C   0  0  0  0  0  0  0  0  0  0  0  0
    0.6584   -0.7493   -1.8698 C   0  0  0  0  0  0  0  0  0  0  0  0
    1.0155    0.4880   -2.4026 C   0  0  0  0  0  0  0  0  0  0  0  0
    0.1105    1.5458   -2.4698 C   0  0  0  0  0  0  0  0  0  0  0  0
   -1.1881    1.3515   -1.9977 C   0  0  0  0  0  0  0  0  0  0  0  0
   -1.5665    0.1170   -1.4645 C   0  0  0  0  0  0  0  0  0  0  0  0
   -0.9348   -1.8890   -0.9843 H   0  0  0  0  0  0  0  0  0  0  0  0
    1.3938   -1.5447   -1.8275 H   0  0  0  0  0  0  0  0  0  0  0  0
    0.4297    2.4951   -2.8844 H   0  0  0  0  0  0  0  0  0  0  0  0
   -1.9034    2.1672   -2.0464 H   0  0  0  0  0  0  0  0  0  0  0  0
   11.1311    5.3317   -6.5963 N   0  0  0  0  0  0  0  0  0  0  0  0
   10.2620    4.6733   -6.4159 N   0  0  0  0  0  0  0  0  0  0  0  0
    5.1048    2.4086   -3.7539 C   0  0  0  0  0  0  0  0  0  0  0  0
    6.1601    2.4201   -4.6630 C   0  0  0  0  0  0  0  0  0  0  0  0
    6.9329    1.2725   -4.8927 C   0  0  0  0  0  0  0  0  0  0  0  0
    6.6306    0.1051   -4.1747 C   0  0  0  0  0  0  0  0  0  0  0  0
    5.5812    0.0727   -3.2603 C   0  0  0  0  0  0  0  0  0  0  0  0
    4.8232    1.2284   -3.0650 C   0  0  0  0  0  0  0  0  0  0  0  0
    4.5150    3.2989   -3.5658 H   0  0  0  0  0  0  0  0  0  0  0  0
    6.3918    3.3362   -5.1989 H   0  0  0  0  0  0  0  0  0  0  0  0
    7.2290   -0.7886   -4.3303 H   0  0  0  0  0  0  0  0  0  0  0  0
    5.3578   -0.8251   -2.6946 H   0  0  0  0  0  0  0  0  0  0  0  0
    3.4843    1.2037   -1.8930 S   0  0  0  0  0  0  0  0  0  0  0  0
    3.7187    0.1695   -0.8879 O   0  0  0  0  0  0  0  0  0  0  0  0
    2.3020    0.6544   -2.9432 O   0  0  0  0  0  0  0  0  0  0  0  0
    3.1468    2.5679   -1.4931 O   0  0  0  0  0  0  0  0  0  0  0  0
    8.0522    1.2854   -5.9049 C   0  0  0  0  0  0  0  0  0  0  0  0
    8.4736    2.2865   -6.0281 H   0  0  0  0  0  0  0  0  0  0  0  0
    8.8594    0.6059   -5.6167 H   0  0  0  0  0  0  0  0  0  0  0  0
    7.6895    0.9598   -6.8879 H   0  0  0  0  0  0  0  0  0  0  0  0
   -2.5780   -0.0285   -1.0976 H   0  0  0  0  0  0  0  0  0  0  0  0
  1  7  1  0  0  0  0
  2  8  1  0  0  0  0
  2  1  2  0  0  0  0
  3  2  1  0  0  0  0
  4  3  2  0  0  0  0
  4  5  1  0  0  0  0
  5  6  2  0  0  0  0
  6  1  1  0  0  0  0
  6 31  1  0  0  0  0
  9  4  1  0  0  0  0
 10  5  1  0  0  0  0
 11 12  3  0  0  0  0
 13 19  1  0  0  0  0
 13 18  2  0  0  0  0
 14 13  1  0  0  0  0
 15 14  2  0  0  0  0
 15 16  1  0  0  0  0
 16 17  2  0  0  0  0
 17 18  1  0  0  0  0
 17 22  1  0  0  0  0
 18 23  1  0  0  0  0
 20 14  1  0  0  0  0
 21 16  1  0  0  0  0
 23 26  2  0  0  0  0
 23 24  2  0  0  0  0
 25  3  1  0  0  0  0
 25 23  1  0  0  0  0
 27 29  1  0  0  0  0
 27 15  1  0  0  0  0
 28 27  1  0  0  0  0
 30 27  1  0  0  0  0
M  END
