Coordinates from ORCA-job Ph-N2-OTs-B3LYPG-6-31G_dp-MTMO-d009-169-n800
 OpenBabel09051907503D

 31 31  0  0  0  0  0  0  0  0999 V2000
   -0.5661   -0.2143   -1.2859 C   0  0  0  0  0  0  0  0  0  0  0  0
    0.7722   -0.2846   -1.6757 C   0  0  0  0  0  0  0  0  0  0  0  0
    1.2538    0.6511   -2.5903 C   0  0  0  0  0  0  0  0  0  0  0  0
    0.4348    1.6462   -3.1194 C   0  0  0  0  0  0  0  0  0  0  0  0
   -0.9033    1.6985   -2.7279 C   0  0  0  0  0  0  0  0  0  0  0  0
   -1.4044    0.7720   -1.8104 C   0  0  0  0  0  0  0  0  0  0  0  0
   -0.9531   -0.9349   -0.5712 H   0  0  0  0  0  0  0  0  0  0  0  0
    1.4406   -1.0408   -1.2806 H   0  0  0  0  0  0  0  0  0  0  0  0
    0.8504    2.3579   -3.8245 H   0  0  0  0  0  0  0  0  0  0  0  0
   -1.5520    2.4677   -3.1365 H   0  0  0  0  0  0  0  0  0  0  0  0
    6.5401    6.8053   -4.7260 N   0  0  0  0  0  0  0  0  0  0  0  0
    6.4182    5.7099   -4.8071 N   0  0  0  0  0  0  0  0  0  0  0  0
    5.5836    2.0731   -3.8460 C   0  0  0  0  0  0  0  0  0  0  0  0
    6.6629    1.9314   -4.7144 C   0  0  0  0  0  0  0  0  0  0  0  0
    7.2998    0.6930   -4.8843 C   0  0  0  0  0  0  0  0  0  0  0  0
    6.8286   -0.4098   -4.1565 C   0  0  0  0  0  0  0  0  0  0  0  0
    5.7538   -0.2886   -3.2789 C   0  0  0  0  0  0  0  0  0  0  0  0
    5.1380    0.9559   -3.1383 C   0  0  0  0  0  0  0  0  0  0  0  0
    5.0973    3.0323   -3.7089 H   0  0  0  0  0  0  0  0  0  0  0  0
    7.0158    2.7988   -5.2646 H   0  0  0  0  0  0  0  0  0  0  0  0
    7.3122   -1.3754   -4.2758 H   0  0  0  0  0  0  0  0  0  0  0  0
    5.4006   -1.1390   -2.7066 H   0  0  0  0  0  0  0  0  0  0  0  0
    3.7680    1.1296   -2.0163 S   0  0  0  0  0  0  0  0  0  0  0  0
    3.9037    0.1759   -0.9168 O   0  0  0  0  0  0  0  0  0  0  0  0
    2.5787    0.5668   -3.0508 O   0  0  0  0  0  0  0  0  0  0  0  0
    3.5164    2.5431   -1.7474 O   0  0  0  0  0  0  0  0  0  0  0  0
    8.4860    0.5603   -5.8086 C   0  0  0  0  0  0  0  0  0  0  0  0
    8.3704    1.1844   -6.6995 H   0  0  0  0  0  0  0  0  0  0  0  0
    9.4083    0.8789   -5.3073 H   0  0  0  0  0  0  0  0  0  0  0  0
    8.6292   -0.4739   -6.1318 H   0  0  0  0  0  0  0  0  0  0  0  0
   -2.4449    0.8198   -1.5034 H   0  0  0  0  0  0  0  0  0  0  0  0
  1  7  1  0  0  0  0
  2  1  1  0  0  0  0
  2  8  1  0  0  0  0
  3  2  2  0  0  0  0
  4  5  2  0  0  0  0
  4  3  1  0  0  0  0
  5  6  1  0  0  0  0
  6 31  1  0  0  0  0
  6  1  2  0  0  0  0
  9  4  1  0  0  0  0
 10  5  1  0  0  0  0
 12 11  3  0  0  0  0
 13 19  1  0  0  0  0
 13 18  2  0  0  0  0
 14 13  1  0  0  0  0
 15 14  2  0  0  0  0
 15 16  1  0  0  0  0
 16 17  2  0  0  0  0
 17 18  1  0  0  0  0
 17 22  1  0  0  0  0
 18 23  1  0  0  0  0
 20 14  1  0  0  0  0
 21 16  1  0  0  0  0
 23 26  2  0  0  0  0
 23 24  2  0  0  0  0
 25  3  1  0  0  0  0
 25 23  1  0  0  0  0
 27 29  1  0  0  0  0
 27 15  1  0  0  0  0
 28 27  1  0  0  0  0
 30 27  1  0  0  0  0
M  END
