Coordinates from ORCA-job Ph-N2-OTs-B3LYPG-6-31G_dp-MTMO-d009-169-n800
 OpenBabel09051907503D

 31 31  0  0  0  0  0  0  0  0999 V2000
   -0.6483   -1.0444   -1.4012 C   0  0  0  0  0  0  0  0  0  0  0  0
    0.6462   -0.8162   -1.8693 C   0  0  0  0  0  0  0  0  0  0  0  0
    0.9628    0.4393   -2.3847 C   0  0  0  0  0  0  0  0  0  0  0  0
    0.0246    1.4686   -2.4357 C   0  0  0  0  0  0  0  0  0  0  0  0
   -1.2663    1.2265   -1.9646 C   0  0  0  0  0  0  0  0  0  0  0  0
   -1.6042   -0.0268   -1.4484 C   0  0  0  0  0  0  0  0  0  0  0  0
   -0.9082   -2.0182   -0.9975 H   0  0  0  0  0  0  0  0  0  0  0  0
    1.4067   -1.5883   -1.8393 H   0  0  0  0  0  0  0  0  0  0  0  0
    0.3126    2.4333   -2.8375 H   0  0  0  0  0  0  0  0  0  0  0  0
   -2.0073    2.0196   -2.0005 H   0  0  0  0  0  0  0  0  0  0  0  0
   12.0463    4.7857   -7.0722 N   0  0  0  0  0  0  0  0  0  0  0  0
   11.0713    4.3479   -6.7909 N   0  0  0  0  0  0  0  0  0  0  0  0
    5.0066    2.4988   -3.7003 C   0  0  0  0  0  0  0  0  0  0  0  0
    6.0658    2.5520   -4.6030 C   0  0  0  0  0  0  0  0  0  0  0  0
    6.8669    1.4270   -4.8500 C   0  0  0  0  0  0  0  0  0  0  0  0
    6.5877    0.2398   -4.1565 C   0  0  0  0  0  0  0  0  0  0  0  0
    5.5346    0.1658   -3.2482 C   0  0  0  0  0  0  0  0  0  0  0  0
    4.7492    1.2994   -3.0350 C   0  0  0  0  0  0  0  0  0  0  0  0
    4.3954    3.3714   -3.4985 H   0  0  0  0  0  0  0  0  0  0  0  0
    6.2781    3.4835   -5.1203 H   0  0  0  0  0  0  0  0  0  0  0  0
    7.2073   -0.6368   -4.3255 H   0  0  0  0  0  0  0  0  0  0  0  0
    5.3300   -0.7476   -2.7006 H   0  0  0  0  0  0  0  0  0  0  0  0
    3.4089    1.2225   -1.8662 S   0  0  0  0  0  0  0  0  0  0  0  0
    3.6705    0.1821   -0.8743 O   0  0  0  0  0  0  0  0  0  0  0  0
    2.2427    0.6546   -2.9244 O   0  0  0  0  0  0  0  0  0  0  0  0
    3.0344    2.5717   -1.4490 O   0  0  0  0  0  0  0  0  0  0  0  0
    7.9910    1.4873   -5.8552 C   0  0  0  0  0  0  0  0  0  0  0  0
    8.4541    2.4778   -5.8856 H   0  0  0  0  0  0  0  0  0  0  0  0
    8.7695    0.7531   -5.6297 H   0  0  0  0  0  0  0  0  0  0  0  0
    7.6206    1.2708   -6.8651 H   0  0  0  0  0  0  0  0  0  0  0  0
   -2.6098   -0.2097   -1.0821 H   0  0  0  0  0  0  0  0  0  0  0  0
  1  7  1  0  0  0  0
  2  8  1  0  0  0  0
  2  1  2  0  0  0  0
  3  2  1  0  0  0  0
  4  3  2  0  0  0  0
  4  5  1  0  0  0  0
  5  6  2  0  0  0  0
  6  1  1  0  0  0  0
  6 31  1  0  0  0  0
  9  4  1  0  0  0  0
 10  5  1  0  0  0  0
 11 12  3  0  0  0  0
 13 19  1  0  0  0  0
 13 18  2  0  0  0  0
 14 13  1  0  0  0  0
 15 14  2  0  0  0  0
 15 16  1  0  0  0  0
 16 17  2  0  0  0  0
 17 18  1  0  0  0  0
 17 22  1  0  0  0  0
 18 23  1  0  0  0  0
 20 14  1  0  0  0  0
 21 16  1  0  0  0  0
 23 26  2  0  0  0  0
 23 24  2  0  0  0  0
 25  3  1  0  0  0  0
 25 23  1  0  0  0  0
 27 29  1  0  0  0  0
 27 15  1  0  0  0  0
 28 27  1  0  0  0  0
 30 27  1  0  0  0  0
M  END
