Coordinates from ORCA-job Ph-N2-OTs-B3LYPG-6-31G_dp-MTMO-d009-169-n800
 OpenBabel09051907503D

 31 31  0  0  0  0  0  0  0  0999 V2000
   -0.8256   -1.0836   -1.3642 C   0  0  0  0  0  0  0  0  0  0  0  0
    0.4771   -0.8731   -1.8180 C   0  0  0  0  0  0  0  0  0  0  0  0
    0.8187    0.3804   -2.3222 C   0  0  0  0  0  0  0  0  0  0  0  0
   -0.1025    1.4248   -2.3758 C   0  0  0  0  0  0  0  0  0  0  0  0
   -1.4017    1.2003   -1.9191 C   0  0  0  0  0  0  0  0  0  0  0  0
   -1.7646   -0.0506   -1.4143 C   0  0  0  0  0  0  0  0  0  0  0  0
   -1.1050   -2.0557   -0.9694 H   0  0  0  0  0  0  0  0  0  0  0  0
    1.2247   -1.6576   -1.7857 H   0  0  0  0  0  0  0  0  0  0  0  0
    0.2048    2.3873   -2.7683 H   0  0  0  0  0  0  0  0  0  0  0  0
   -2.1295    2.0055   -1.9571 H   0  0  0  0  0  0  0  0  0  0  0  0
   14.0717    5.8656   -8.1930 N   0  0  0  0  0  0  0  0  0  0  0  0
   13.1045    5.3817   -7.9649 N   0  0  0  0  0  0  0  0  0  0  0  0
    4.8807    2.4068   -3.5891 C   0  0  0  0  0  0  0  0  0  0  0  0
    5.9412    2.4638   -4.4905 C   0  0  0  0  0  0  0  0  0  0  0  0
    6.7366    1.3379   -4.7478 C   0  0  0  0  0  0  0  0  0  0  0  0
    6.4513    0.1444   -4.0666 C   0  0  0  0  0  0  0  0  0  0  0  0
    5.3972    0.0665   -3.1607 C   0  0  0  0  0  0  0  0  0  0  0  0
    4.6171    1.2023   -2.9367 C   0  0  0  0  0  0  0  0  0  0  0  0
    4.2735    3.2803   -3.3792 H   0  0  0  0  0  0  0  0  0  0  0  0
    6.1587    3.3993   -4.9983 H   0  0  0  0  0  0  0  0  0  0  0  0
    7.0671   -0.7333   -4.2439 H   0  0  0  0  0  0  0  0  0  0  0  0
    5.1868   -0.8513   -2.6228 H   0  0  0  0  0  0  0  0  0  0  0  0
    3.2719    1.1195   -1.7744 S   0  0  0  0  0  0  0  0  0  0  0  0
    3.5201    0.0617   -0.7977 O   0  0  0  0  0  0  0  0  0  0  0  0
    2.1069    0.5787   -2.8477 O   0  0  0  0  0  0  0  0  0  0  0  0
    2.9068    2.4653   -1.3382 O   0  0  0  0  0  0  0  0  0  0  0  0
    7.8634    1.4013   -5.7497 C   0  0  0  0  0  0  0  0  0  0  0  0
    8.2385    2.4212   -5.8677 H   0  0  0  0  0  0  0  0  0  0  0  0
    8.6992    0.7608   -5.4534 H   0  0  0  0  0  0  0  0  0  0  0  0
    7.5267    1.0599   -6.7365 H   0  0  0  0  0  0  0  0  0  0  0  0
   -2.7766   -0.2197   -1.0590 H   0  0  0  0  0  0  0  0  0  0  0  0
  1  7  1  0  0  0  0
  2  8  1  0  0  0  0
  2  1  2  0  0  0  0
  3  2  1  0  0  0  0
  4  3  2  0  0  0  0
  4  5  1  0  0  0  0
  5  6  2  0  0  0  0
  6  1  1  0  0  0  0
  6 31  1  0  0  0  0
  9  4  1  0  0  0  0
 10  5  1  0  0  0  0
 11 12  3  0  0  0  0
 13 19  1  0  0  0  0
 13 18  2  0  0  0  0
 14 13  1  0  0  0  0
 15 14  2  0  0  0  0
 15 16  1  0  0  0  0
 16 17  2  0  0  0  0
 17 18  1  0  0  0  0
 17 22  1  0  0  0  0
 18 23  1  0  0  0  0
 20 14  1  0  0  0  0
 21 16  1  0  0  0  0
 23 26  2  0  0  0  0
 23 24  2  0  0  0  0
 25  3  1  0  0  0  0
 25 23  1  0  0  0  0
 27 29  1  0  0  0  0
 27 15  1  0  0  0  0
 28 27  1  0  0  0  0
 30 27  1  0  0  0  0
M  END
