Coordinates from ORCA-job Ph-N2-OTs-B3LYPG-6-31G_dp-MTMO-d009-169-n800
 OpenBabel09051907493D

 31 30  0  0  0  0  0  0  0  0999 V2000
    0.0318    0.1017   -1.4830 C   0  0  0  0  0  0  0  0  0  0  0  0
    0.6904    1.1091   -2.2185 C   0  0  0  0  0  0  0  0  0  0  0  0
    0.0250    2.1545   -2.4486 C   0  0  0  0  0  0  0  0  0  0  0  0
   -1.2255    2.6333   -2.1836 C   0  0  0  0  0  0  0  0  0  0  0  0
   -1.9000    1.6309   -1.4447 C   0  0  0  0  0  0  0  0  0  0  0  0
   -1.2888    0.4097   -1.1088 C   0  0  0  0  0  0  0  0  0  0  0  0
    0.4902   -0.8454   -1.2164 H   0  0  0  0  0  0  0  0  0  0  0  0
    2.5049    0.8375   -2.8238 H   0  0  0  0  0  0  0  0  0  0  0  0
   -1.6589    3.5845   -2.4611 H   0  0  0  0  0  0  0  0  0  0  0  0
   -2.9224    1.8258   -1.1322 H   0  0  0  0  0  0  0  0  0  0  0  0
    1.0572    4.4222   -3.8164 N   0  0  0  0  0  0  0  0  0  0  0  0
    1.8997    5.0190   -4.2101 N   0  0  0  0  0  0  0  0  0  0  0  0
    6.7289    1.3671   -3.1218 C   0  0  0  0  0  0  0  0  0  0  0  0
    7.9902    0.8294   -3.3700 C   0  0  0  0  0  0  0  0  0  0  0  0
    8.2700    0.1599   -4.5699 C   0  0  0  0  0  0  0  0  0  0  0  0
    7.2488    0.0396   -5.5246 C   0  0  0  0  0  0  0  0  0  0  0  0
    5.9821    0.5707   -5.2953 C   0  0  0  0  0  0  0  0  0  0  0  0
    5.7341    1.2274   -4.0892 C   0  0  0  0  0  0  0  0  0  0  0  0
    6.5143    1.8950   -2.1993 H   0  0  0  0  0  0  0  0  0  0  0  0
    8.7709    0.9345   -2.6211 H   0  0  0  0  0  0  0  0  0  0  0  0
    7.4499   -0.4740   -6.4610 H   0  0  0  0  0  0  0  0  0  0  0  0
    5.1952    0.4890   -6.0374 H   0  0  0  0  0  0  0  0  0  0  0  0
    4.1178    1.9119   -3.7842 S   0  0  0  0  0  0  0  0  0  0  0  0
    3.4376    0.6066   -3.0892 O   0  0  0  0  0  0  0  0  0  0  0  0
    3.4501    2.1747   -5.0604 O   0  0  0  0  0  0  0  0  0  0  0  0
    4.2190    2.9822   -2.7901 O   0  0  0  0  0  0  0  0  0  0  0  0
    9.6483   -0.3918   -4.8448 C   0  0  0  0  0  0  0  0  0  0  0  0
   10.2466    0.3219   -5.4252 H   0  0  0  0  0  0  0  0  0  0  0  0
   10.1907   -0.5954   -3.9174 H   0  0  0  0  0  0  0  0  0  0  0  0
    9.6002   -1.3198   -5.4226 H   0  0  0  0  0  0  0  0  0  0  0  0
   -1.8588   -0.3210   -0.5409 H   0  0  0  0  0  0  0  0  0  0  0  0
  1  7  1  0  0  0  0
  1  6  2  0  0  0  0
  2  1  1  0  0  0  0
  3  2  2  0  0  0  0
  3  4  1  0  0  0  0
  4  5  2  0  0  0  0
  5 10  1  0  0  0  0
  5  6  1  0  0  0  0
  6 31  1  0  0  0  0
  9  4  1  0  0  0  0
 12 11  3  0  0  0  0
 13 19  1  0  0  0  0
 14 13  1  0  0  0  0
 14 20  1  0  0  0  0
 15 14  2  0  0  0  0
 16 17  2  0  0  0  0
 16 15  1  0  0  0  0
 17 18  1  0  0  0  0
 18 23  1  0  0  0  0
 18 13  2  0  0  0  0
 21 16  1  0  0  0  0
 22 17  1  0  0  0  0
 23 24  1  0  0  0  0
 23 26  2  0  0  0  0
 24  8  1  0  0  0  0
 25 23  2  0  0  0  0
 27 15  1  0  0  0  0
 27 29  1  0  0  0  0
 28 27  1  0  0  0  0
 30 27  1  0  0  0  0
M  RAD  2   2   2   3   2
M  END
