Coordinates from ORCA-job Ph-N2-OTs-B3LYPG-6-31G_dp-MTMO-d009-169-n800
 OpenBabel09051907503D

 31 31  0  0  0  0  0  0  0  0999 V2000
   -0.6459   -1.0398   -1.4043 C   0  0  0  0  0  0  0  0  0  0  0  0
    0.6491   -0.8131   -1.8720 C   0  0  0  0  0  0  0  0  0  0  0  0
    0.9674    0.4422   -2.3869 C   0  0  0  0  0  0  0  0  0  0  0  0
    0.0305    1.4727   -2.4378 C   0  0  0  0  0  0  0  0  0  0  0  0
   -1.2608    1.2320   -1.9671 C   0  0  0  0  0  0  0  0  0  0  0  0
   -1.6004   -0.0211   -1.4514 C   0  0  0  0  0  0  0  0  0  0  0  0
   -0.9071   -2.0135   -1.0009 H   0  0  0  0  0  0  0  0  0  0  0  0
    1.4086   -1.5862   -1.8421 H   0  0  0  0  0  0  0  0  0  0  0  0
    0.3197    2.4371   -2.8391 H   0  0  0  0  0  0  0  0  0  0  0  0
   -2.0008    2.0261   -2.0029 H   0  0  0  0  0  0  0  0  0  0  0  0
   11.9741    4.7827   -7.0427 N   0  0  0  0  0  0  0  0  0  0  0  0
   11.0022    4.3354   -6.7653 N   0  0  0  0  0  0  0  0  0  0  0  0
    5.0125    2.4974   -3.7023 C   0  0  0  0  0  0  0  0  0  0  0  0
    6.0716    2.5496   -4.6051 C   0  0  0  0  0  0  0  0  0  0  0  0
    6.8723    1.4241   -4.8515 C   0  0  0  0  0  0  0  0  0  0  0  0
    6.5927    0.2375   -4.1572 C   0  0  0  0  0  0  0  0  0  0  0  0
    5.5397    0.1644   -3.2488 C   0  0  0  0  0  0  0  0  0  0  0  0
    4.7546    1.2984   -3.0362 C   0  0  0  0  0  0  0  0  0  0  0  0
    4.4016    3.3703   -3.5010 H   0  0  0  0  0  0  0  0  0  0  0  0
    6.2842    3.4807   -5.1231 H   0  0  0  0  0  0  0  0  0  0  0  0
    7.2119   -0.6395   -4.3257 H   0  0  0  0  0  0  0  0  0  0  0  0
    5.3347   -0.7486   -2.7007 H   0  0  0  0  0  0  0  0  0  0  0  0
    3.4142    1.2226   -1.8676 S   0  0  0  0  0  0  0  0  0  0  0  0
    3.6746    0.1818   -0.8759 O   0  0  0  0  0  0  0  0  0  0  0  0
    2.2476    0.6560   -2.9262 O   0  0  0  0  0  0  0  0  0  0  0  0
    3.0408    2.5721   -1.4503 O   0  0  0  0  0  0  0  0  0  0  0  0
    7.9963    1.4834   -5.8568 C   0  0  0  0  0  0  0  0  0  0  0  0
    8.4577    2.4745   -5.8902 H   0  0  0  0  0  0  0  0  0  0  0  0
    8.7760    0.7511   -5.6292 H   0  0  0  0  0  0  0  0  0  0  0  0
    7.6262    1.2632   -6.8661 H   0  0  0  0  0  0  0  0  0  0  0  0
   -2.6064   -0.2028   -1.0854 H   0  0  0  0  0  0  0  0  0  0  0  0
  1  7  1  0  0  0  0
  2  8  1  0  0  0  0
  2  1  2  0  0  0  0
  3  2  1  0  0  0  0
  4  3  2  0  0  0  0
  4  5  1  0  0  0  0
  5  6  2  0  0  0  0
  6  1  1  0  0  0  0
  6 31  1  0  0  0  0
  9  4  1  0  0  0  0
 10  5  1  0  0  0  0
 11 12  3  0  0  0  0
 13 19  1  0  0  0  0
 13 18  2  0  0  0  0
 14 13  1  0  0  0  0
 15 14  2  0  0  0  0
 15 16  1  0  0  0  0
 16 17  2  0  0  0  0
 17 18  1  0  0  0  0
 17 22  1  0  0  0  0
 18 23  1  0  0  0  0
 20 14  1  0  0  0  0
 21 16  1  0  0  0  0
 23 26  2  0  0  0  0
 23 24  2  0  0  0  0
 25  3  1  0  0  0  0
 25 23  1  0  0  0  0
 27 29  1  0  0  0  0
 27 15  1  0  0  0  0
 28 27  1  0  0  0  0
 30 27  1  0  0  0  0
M  END
