Coordinates from ORCA-job Ph-N2-OTs-B3LYPG-6-31G_dp-MTMO-d009-169-n800
 OpenBabel09051907503D

 31 31  0  0  0  0  0  0  0  0999 V2000
   -0.5471    0.1840   -1.5421 C   0  0  0  0  0  0  0  0  0  0  0  0
    0.7674   -0.0162   -1.9655 C   0  0  0  0  0  0  0  0  0  0  0  0
    1.4677    1.0610   -2.5072 C   0  0  0  0  0  0  0  0  0  0  0  0
    0.8910    2.3227   -2.6335 C   0  0  0  0  0  0  0  0  0  0  0  0
   -0.4267    2.5055   -2.2132 C   0  0  0  0  0  0  0  0  0  0  0  0
   -1.1458    1.4399   -1.6664 C   0  0  0  0  0  0  0  0  0  0  0  0
   -1.1040   -0.6458   -1.1175 H   0  0  0  0  0  0  0  0  0  0  0  0
    1.2524   -0.9816   -1.8789 H   0  0  0  0  0  0  0  0  0  0  0  0
    1.4727    3.1323   -3.0595 H   0  0  0  0  0  0  0  0  0  0  0  0
   -0.8897    3.4831   -2.3104 H   0  0  0  0  0  0  0  0  0  0  0  0
    3.6790    3.8701   -6.4544 N   0  0  0  0  0  0  0  0  0  0  0  0
    3.2809    3.8852   -5.4235 N   0  0  0  0  0  0  0  0  0  0  0  0
    5.9259    1.9671   -3.4393 C   0  0  0  0  0  0  0  0  0  0  0  0
    6.9857    1.9392   -4.3409 C   0  0  0  0  0  0  0  0  0  0  0  0
    7.4784    0.7253   -4.8453 C   0  0  0  0  0  0  0  0  0  0  0  0
    6.8872   -0.4698   -4.4130 C   0  0  0  0  0  0  0  0  0  0  0  0
    5.8256   -0.4643   -3.5101 C   0  0  0  0  0  0  0  0  0  0  0  0
    5.3520    0.7591   -3.0375 C   0  0  0  0  0  0  0  0  0  0  0  0
    5.5538    2.9029   -3.0373 H   0  0  0  0  0  0  0  0  0  0  0  0
    7.4430    2.8736   -4.6547 H   0  0  0  0  0  0  0  0  0  0  0  0
    7.2660   -1.4180   -4.7835 H   0  0  0  0  0  0  0  0  0  0  0  0
    5.3780   -1.3893   -3.1642 H   0  0  0  0  0  0  0  0  0  0  0  0
    4.0003    0.7830   -1.8796 S   0  0  0  0  0  0  0  0  0  0  0  0
    3.9090   -0.5079   -1.2001 O   0  0  0  0  0  0  0  0  0  0  0  0
    2.7682    0.8735   -3.0070 O   0  0  0  0  0  0  0  0  0  0  0  0
    4.0163    2.0270   -1.1148 O   0  0  0  0  0  0  0  0  0  0  0  0
    8.6107    0.7141   -5.8429 C   0  0  0  0  0  0  0  0  0  0  0  0
    8.2511    0.9800   -6.8445 H   0  0  0  0  0  0  0  0  0  0  0  0
    9.3852    1.4397   -5.5755 H   0  0  0  0  0  0  0  0  0  0  0  0
    9.0757   -0.2726   -5.9114 H   0  0  0  0  0  0  0  0  0  0  0  0
   -2.1699    1.5881   -1.3381 H   0  0  0  0  0  0  0  0  0  0  0  0
  1  7  1  0  0  0  0
  2  8  1  0  0  0  0
  2  1  2  0  0  0  0
  3  2  1  0  0  0  0
  4  3  2  0  0  0  0
  4  5  1  0  0  0  0
  5  6  2  0  0  0  0
  6  1  1  0  0  0  0
  6 31  1  0  0  0  0
  9  4  1  0  0  0  0
 10  5  1  0  0  0  0
 11 12  3  0  0  0  0
 13 18  1  0  0  0  0
 13 19  1  0  0  0  0
 14 13  2  0  0  0  0
 15 16  2  0  0  0  0
 15 14  1  0  0  0  0
 16 17  1  0  0  0  0
 17 22  1  0  0  0  0
 17 18  2  0  0  0  0
 18 23  1  0  0  0  0
 20 14  1  0  0  0  0
 21 16  1  0  0  0  0
 23 24  2  0  0  0  0
 23 26  2  0  0  0  0
 25  3  1  0  0  0  0
 25 23  1  0  0  0  0
 27 29  1  0  0  0  0
 27 15  1  0  0  0  0
 28 27  1  0  0  0  0
 30 27  1  0  0  0  0
M  END
