Coordinates from ORCA-job Ph-N2-OTs-B3LYPG-6-31G_dp-MTMO-d009-169-n800
 OpenBabel09051907493D

 31 30  0  0  0  0  0  0  0  0999 V2000
    0.0089    0.1909   -1.7999 C   0  0  0  0  0  0  0  0  0  0  0  0
    0.9933    1.1498   -2.1412 C   0  0  0  0  0  0  0  0  0  0  0  0
    0.4013    2.2409   -2.6460 C   0  0  0  0  0  0  0  0  0  0  0  0
   -0.8701    2.6468   -2.9140 C   0  0  0  0  0  0  0  0  0  0  0  0
   -1.7923    1.6433   -2.5591 C   0  0  0  0  0  0  0  0  0  0  0  0
   -1.3503    0.4352   -2.0096 C   0  0  0  0  0  0  0  0  0  0  0  0
    0.3484   -0.7469   -1.3710 H   0  0  0  0  0  0  0  0  0  0  0  0
    2.0915    0.9941   -1.9901 H   0  0  0  0  0  0  0  0  0  0  0  0
   -1.1531    3.5993   -3.3400 H   0  0  0  0  0  0  0  0  0  0  0  0
   -2.8488    1.8318   -2.7237 H   0  0  0  0  0  0  0  0  0  0  0  0
    1.6927    3.7230   -3.1168 N   0  0  0  0  0  0  0  0  0  0  0  0
    1.9359    4.7964   -3.2457 N   0  0  0  0  0  0  0  0  0  0  0  0
    6.9030    2.0499   -3.6958 C   0  0  0  0  0  0  0  0  0  0  0  0
    8.0177    1.4978   -4.3278 C   0  0  0  0  0  0  0  0  0  0  0  0
    8.0390    0.1517   -4.7149 C   0  0  0  0  0  0  0  0  0  0  0  0
    6.9116   -0.6373   -4.4412 C   0  0  0  0  0  0  0  0  0  0  0  0
    5.7919   -0.0996   -3.8105 C   0  0  0  0  0  0  0  0  0  0  0  0
    5.7919    1.2470   -3.4424 C   0  0  0  0  0  0  0  0  0  0  0  0
    6.8906    3.0869   -3.3793 H   0  0  0  0  0  0  0  0  0  0  0  0
    8.8879    2.1217   -4.5173 H   0  0  0  0  0  0  0  0  0  0  0  0
    6.9152   -1.6881   -4.7209 H   0  0  0  0  0  0  0  0  0  0  0  0
    4.9308   -0.7186   -3.5823 H   0  0  0  0  0  0  0  0  0  0  0  0
    4.3408    1.9714   -2.6672 S   0  0  0  0  0  0  0  0  0  0  0  0
    3.8056    0.9032   -1.7497 O   0  0  0  0  0  0  0  0  0  0  0  0
    3.3697    2.2130   -3.7985 O   0  0  0  0  0  0  0  0  0  0  0  0
    4.7721    3.2093   -1.9898 O   0  0  0  0  0  0  0  0  0  0  0  0
    9.2374   -0.4338   -5.4243 C   0  0  0  0  0  0  0  0  0  0  0  0
    9.1110   -0.3951   -6.5143 H   0  0  0  0  0  0  0  0  0  0  0  0
   10.1526    0.1149   -5.1832 H   0  0  0  0  0  0  0  0  0  0  0  0
    9.3905   -1.4832   -5.1534 H   0  0  0  0  0  0  0  0  0  0  0  0
   -2.0769   -0.3247   -1.7417 H   0  0  0  0  0  0  0  0  0  0  0  0
  1  7  1  0  0  0  0
  2  8  1  0  0  0  0
  2  1  2  0  0  0  0
  3  2  1  0  0  0  0
  4  3  2  0  0  0  0
  4  5  1  0  0  0  0
  5  6  2  0  0  0  0
  6  1  1  0  0  0  0
  6 31  1  0  0  0  0
  9  4  1  0  0  0  0
 10  5  1  0  0  0  0
 12 11  3  0  0  0  0
 13 18  1  0  0  0  0
 13 19  1  0  0  0  0
 14 13  2  0  0  0  0
 15 16  2  0  0  0  0
 15 14  1  0  0  0  0
 16 17  1  0  0  0  0
 17 22  1  0  0  0  0
 17 18  2  0  0  0  0
 18 23  1  0  0  0  0
 20 14  1  0  0  0  0
 21 16  1  0  0  0  0
 23 26  2  0  0  0  0
 23 24  1  0  0  0  0
 25 23  2  0  0  0  0
 27 29  1  0  0  0  0
 27 30  1  0  0  0  0
 27 15  1  0  0  0  0
 28 27  1  0  0  0  0
M  RAD  2   3   2  24   2
M  END
