Coordinates from ORCA-job Ph-N2-OTs-B3LYPG-6-31G_dp-MTMO-d009-169-n800
 OpenBabel09051907503D

 31 31  0  0  0  0  0  0  0  0999 V2000
   -0.5601   -0.2008   -1.2879 C   0  0  0  0  0  0  0  0  0  0  0  0
    0.7778   -0.2744   -1.6782 C   0  0  0  0  0  0  0  0  0  0  0  0
    1.2608    0.6593   -2.5943 C   0  0  0  0  0  0  0  0  0  0  0  0
    0.4436    1.6555   -3.1241 C   0  0  0  0  0  0  0  0  0  0  0  0
   -0.8941    1.7111   -2.7319 C   0  0  0  0  0  0  0  0  0  0  0  0
   -1.3967    0.7867   -1.8131 C   0  0  0  0  0  0  0  0  0  0  0  0
   -0.9483   -0.9198   -0.5721 H   0  0  0  0  0  0  0  0  0  0  0  0
    1.4448   -1.0315   -1.2827 H   0  0  0  0  0  0  0  0  0  0  0  0
    0.8603    2.3655   -3.8302 H   0  0  0  0  0  0  0  0  0  0  0  0
   -1.5414    2.4812   -3.1411 H   0  0  0  0  0  0  0  0  0  0  0  0
    6.4159    6.7890   -4.6513 N   0  0  0  0  0  0  0  0  0  0  0  0
    6.3256    5.6929   -4.7593 N   0  0  0  0  0  0  0  0  0  0  0  0
    5.5911    2.0683   -3.8579 C   0  0  0  0  0  0  0  0  0  0  0  0
    6.6702    1.9217   -4.7256 C   0  0  0  0  0  0  0  0  0  0  0  0
    7.3071    0.6823   -4.8886 C   0  0  0  0  0  0  0  0  0  0  0  0
    6.8359   -0.4164   -4.1546 C   0  0  0  0  0  0  0  0  0  0  0  0
    5.7613   -0.2902   -3.2775 C   0  0  0  0  0  0  0  0  0  0  0  0
    5.1456    0.9551   -3.1438 C   0  0  0  0  0  0  0  0  0  0  0  0
    5.1053    3.0285   -3.7262 H   0  0  0  0  0  0  0  0  0  0  0  0
    7.0231    2.7858   -5.2809 H   0  0  0  0  0  0  0  0  0  0  0  0
    7.3195   -1.3826   -4.2685 H   0  0  0  0  0  0  0  0  0  0  0  0
    5.4081   -1.1373   -2.7003 H   0  0  0  0  0  0  0  0  0  0  0  0
    3.7759    1.1353   -2.0224 S   0  0  0  0  0  0  0  0  0  0  0  0
    3.9097    0.1849   -0.9198 O   0  0  0  0  0  0  0  0  0  0  0  0
    2.5853    0.5716   -3.0551 O   0  0  0  0  0  0  0  0  0  0  0  0
    3.5271    2.5502   -1.7582 O   0  0  0  0  0  0  0  0  0  0  0  0
    8.4933    0.5444   -5.8121 C   0  0  0  0  0  0  0  0  0  0  0  0
    8.3788    1.1652   -6.7055 H   0  0  0  0  0  0  0  0  0  0  0  0
    9.4160    0.8636   -5.3119 H   0  0  0  0  0  0  0  0  0  0  0  0
    8.6351   -0.4912   -6.1313 H   0  0  0  0  0  0  0  0  0  0  0  0
   -2.4369    0.8370   -1.5056 H   0  0  0  0  0  0  0  0  0  0  0  0
  1  7  1  0  0  0  0
  2  1  1  0  0  0  0
  2  8  1  0  0  0  0
  3  2  2  0  0  0  0
  4  5  2  0  0  0  0
  4  3  1  0  0  0  0
  5  6  1  0  0  0  0
  6 31  1  0  0  0  0
  6  1  2  0  0  0  0
  9  4  1  0  0  0  0
 10  5  1  0  0  0  0
 12 11  3  0  0  0  0
 13 19  1  0  0  0  0
 13 18  2  0  0  0  0
 14 13  1  0  0  0  0
 15 14  2  0  0  0  0
 15 16  1  0  0  0  0
 16 17  2  0  0  0  0
 17 18  1  0  0  0  0
 17 22  1  0  0  0  0
 18 23  1  0  0  0  0
 20 14  1  0  0  0  0
 21 16  1  0  0  0  0
 23 26  2  0  0  0  0
 23 24  2  0  0  0  0
 25  3  1  0  0  0  0
 25 23  1  0  0  0  0
 27 29  1  0  0  0  0
 27 15  1  0  0  0  0
 28 27  1  0  0  0  0
 30 27  1  0  0  0  0
M  END
