Coordinates from ORCA-job Ph-N2-OTs-B3LYPG-6-31G_dp-MTMO-d009-169-n800
 OpenBabel09051907503D

 31 31  0  0  0  0  0  0  0  0999 V2000
   -0.7272   -0.7473   -1.6272 C   0  0  0  0  0  0  0  0  0  0  0  0
    0.6042   -0.6417   -2.0316 C   0  0  0  0  0  0  0  0  0  0  0  0
    1.0717    0.5898   -2.4875 C   0  0  0  0  0  0  0  0  0  0  0  0
    0.2472    1.7120   -2.5423 C   0  0  0  0  0  0  0  0  0  0  0  0
   -1.0828    1.5912   -2.1380 C   0  0  0  0  0  0  0  0  0  0  0  0
   -1.5710    0.3647   -1.6806 C   0  0  0  0  0  0  0  0  0  0  0  0
   -1.1039   -1.7008   -1.2693 H   0  0  0  0  0  0  0  0  0  0  0  0
    1.2792   -1.4891   -1.9955 H   0  0  0  0  0  0  0  0  0  0  0  0
    0.6518    2.6531   -2.8969 H   0  0  0  0  0  0  0  0  0  0  0  0
   -1.7361    2.4577   -2.1789 H   0  0  0  0  0  0  0  0  0  0  0  0
    9.3010    5.8038   -7.4486 N   0  0  0  0  0  0  0  0  0  0  0  0
    8.7859    5.0382   -6.8404 N   0  0  0  0  0  0  0  0  0  0  0  0
    5.3732    2.2744   -3.4496 C   0  0  0  0  0  0  0  0  0  0  0  0
    6.4607    2.3065   -4.3213 C   0  0  0  0  0  0  0  0  0  0  0  0
    7.1306    1.1316   -4.6881 C   0  0  0  0  0  0  0  0  0  0  0  0
    6.6865   -0.0897   -4.1555 C   0  0  0  0  0  0  0  0  0  0  0  0
    5.6050   -0.1435   -3.2823 C   0  0  0  0  0  0  0  0  0  0  0  0
    4.9545    1.0451   -2.9424 C   0  0  0  0  0  0  0  0  0  0  0  0
    4.8612    3.1839   -3.1560 H   0  0  0  0  0  0  0  0  0  0  0  0
    6.7970    3.2588   -4.7210 H   0  0  0  0  0  0  0  0  0  0  0  0
    7.1987   -1.0091   -4.4261 H   0  0  0  0  0  0  0  0  0  0  0  0
    5.2715   -1.0844   -2.8594 H   0  0  0  0  0  0  0  0  0  0  0  0
    3.5739    0.9904   -1.8209 S   0  0  0  0  0  0  0  0  0  0  0  0
    3.6795   -0.1844   -0.9583 O   0  0  0  0  0  0  0  0  0  0  0  0
    2.3892    0.6947   -2.9651 O   0  0  0  0  0  0  0  0  0  0  0  0
    3.3412    2.3147   -1.2495 O   0  0  0  0  0  0  0  0  0  0  0  0
    8.3153    1.1707   -5.6222 C   0  0  0  0  0  0  0  0  0  0  0  0
    8.4582    2.1665   -6.0477 H   0  0  0  0  0  0  0  0  0  0  0  0
    9.2374    0.8951   -5.0971 H   0  0  0  0  0  0  0  0  0  0  0  0
    8.1922    0.4613   -6.4476 H   0  0  0  0  0  0  0  0  0  0  0  0
   -2.6059    0.2763   -1.3647 H   0  0  0  0  0  0  0  0  0  0  0  0
  1  7  1  0  0  0  0
  2  8  1  0  0  0  0
  2  1  2  0  0  0  0
  3  2  1  0  0  0  0
  4  3  2  0  0  0  0
  4  5  1  0  0  0  0
  5  6  2  0  0  0  0
  6  1  1  0  0  0  0
  6 31  1  0  0  0  0
  9  4  1  0  0  0  0
 10  5  1  0  0  0  0
 11 12  3  0  0  0  0
 13 19  1  0  0  0  0
 13 18  2  0  0  0  0
 14 13  1  0  0  0  0
 15 14  2  0  0  0  0
 15 16  1  0  0  0  0
 16 17  2  0  0  0  0
 17 18  1  0  0  0  0
 17 22  1  0  0  0  0
 18 23  1  0  0  0  0
 20 14  1  0  0  0  0
 21 16  1  0  0  0  0
 23 26  2  0  0  0  0
 23 24  2  0  0  0  0
 25  3  1  0  0  0  0
 25 23  1  0  0  0  0
 27 29  1  0  0  0  0
 27 15  1  0  0  0  0
 28 27  1  0  0  0  0
 30 27  1  0  0  0  0
M  END
