Coordinates from ORCA-job Ph-N2-OTs-B3LYPG-6-31G_dp-MTMO-d009-169-n800
 OpenBabel09051907503D

 31 31  0  0  0  0  0  0  0  0999 V2000
   -0.8836   -1.0944   -1.2913 C   0  0  0  0  0  0  0  0  0  0  0  0
    0.4165   -0.8900   -1.7552 C   0  0  0  0  0  0  0  0  0  0  0  0
    0.7550    0.3565   -2.2786 C   0  0  0  0  0  0  0  0  0  0  0  0
   -0.1668    1.3998   -2.3415 C   0  0  0  0  0  0  0  0  0  0  0  0
   -1.4635    1.1814   -1.8747 C   0  0  0  0  0  0  0  0  0  0  0  0
   -1.8232   -0.0625   -1.3506 C   0  0  0  0  0  0  0  0  0  0  0  0
   -1.1605   -2.0611   -0.8816 H   0  0  0  0  0  0  0  0  0  0  0  0
    1.1646   -1.6737   -1.7160 H   0  0  0  0  0  0  0  0  0  0  0  0
    0.1380    2.3570   -2.7490 H   0  0  0  0  0  0  0  0  0  0  0  0
   -2.1918    1.9858   -1.9200 H   0  0  0  0  0  0  0  0  0  0  0  0
   15.0486    6.4306   -8.5251 N   0  0  0  0  0  0  0  0  0  0  0  0
   14.1050    5.8975   -8.3080 N   0  0  0  0  0  0  0  0  0  0  0  0
    4.8082    2.3601   -3.5990 C   0  0  0  0  0  0  0  0  0  0  0  0
    5.8627    2.4036   -4.5083 C   0  0  0  0  0  0  0  0  0  0  0  0
    6.6579    1.2747   -4.7523 C   0  0  0  0  0  0  0  0  0  0  0  0
    6.3789    0.0922   -4.0496 C   0  0  0  0  0  0  0  0  0  0  0  0
    5.3307    0.0278   -3.1358 C   0  0  0  0  0  0  0  0  0  0  0  0
    4.5504    1.1661   -2.9254 C   0  0  0  0  0  0  0  0  0  0  0  0
    4.2012    3.2362   -3.3996 H   0  0  0  0  0  0  0  0  0  0  0  0
    6.0755    3.3309   -5.0329 H   0  0  0  0  0  0  0  0  0  0  0  0
    6.9947   -0.7875   -4.2165 H   0  0  0  0  0  0  0  0  0  0  0  0
    5.1248   -0.8814   -2.5817 H   0  0  0  0  0  0  0  0  0  0  0  0
    3.2120    1.1001   -1.7542 S   0  0  0  0  0  0  0  0  0  0  0  0
    3.4643    0.0541   -0.7658 O   0  0  0  0  0  0  0  0  0  0  0  0
    2.0401    0.5479   -2.8141 O   0  0  0  0  0  0  0  0  0  0  0  0
    2.8515    2.4518   -1.3328 O   0  0  0  0  0  0  0  0  0  0  0  0
    7.7781    1.3224   -5.7625 C   0  0  0  0  0  0  0  0  0  0  0  0
    8.1382    2.3431   -5.9148 H   0  0  0  0  0  0  0  0  0  0  0  0
    8.6245    0.7033   -5.4512 H   0  0  0  0  0  0  0  0  0  0  0  0
    7.4407    0.9452   -6.7359 H   0  0  0  0  0  0  0  0  0  0  0  0
   -2.8332   -0.2268   -0.9875 H   0  0  0  0  0  0  0  0  0  0  0  0
  1  7  1  0  0  0  0
  2  8  1  0  0  0  0
  2  1  2  0  0  0  0
  3  2  1  0  0  0  0
  4  3  2  0  0  0  0
  4  5  1  0  0  0  0
  5  6  2  0  0  0  0
  6  1  1  0  0  0  0
  6 31  1  0  0  0  0
  9  4  1  0  0  0  0
 10  5  1  0  0  0  0
 11 12  3  0  0  0  0
 13 19  1  0  0  0  0
 13 18  2  0  0  0  0
 14 13  1  0  0  0  0
 15 14  2  0  0  0  0
 15 16  1  0  0  0  0
 16 17  2  0  0  0  0
 17 18  1  0  0  0  0
 17 22  1  0  0  0  0
 18 23  1  0  0  0  0
 20 14  1  0  0  0  0
 21 16  1  0  0  0  0
 23 26  2  0  0  0  0
 23 24  2  0  0  0  0
 25  3  1  0  0  0  0
 25 23  1  0  0  0  0
 27 29  1  0  0  0  0
 27 15  1  0  0  0  0
 28 27  1  0  0  0  0
 30 27  1  0  0  0  0
M  END
