Coordinates from ORCA-job Ph-N2-OTs-B3LYPG-6-31G_dp-MTMO-d009-169-n800
 OpenBabel09051907503D

 31 31  0  0  0  0  0  0  0  0999 V2000
   -0.5721    0.2034   -1.6951 C   0  0  0  0  0  0  0  0  0  0  0  0
    0.7424    0.0234   -2.1276 C   0  0  0  0  0  0  0  0  0  0  0  0
    1.4782    1.1408   -2.5195 C   0  0  0  0  0  0  0  0  0  0  0  0
    0.9370    2.4242   -2.4859 C   0  0  0  0  0  0  0  0  0  0  0  0
   -0.3802    2.5883   -2.0565 C   0  0  0  0  0  0  0  0  0  0  0  0
   -1.1348    1.4815   -1.6602 C   0  0  0  0  0  0  0  0  0  0  0  0
   -1.1562   -0.6580   -1.3860 H   0  0  0  0  0  0  0  0  0  0  0  0
    1.2013   -0.9580   -2.1619 H   0  0  0  0  0  0  0  0  0  0  0  0
    1.5455    3.2658   -2.7965 H   0  0  0  0  0  0  0  0  0  0  0  0
   -0.8151    3.5831   -2.0283 H   0  0  0  0  0  0  0  0  0  0  0  0
    3.2474    3.0857   -6.4933 N   0  0  0  0  0  0  0  0  0  0  0  0
    3.2897    3.4145   -5.4389 N   0  0  0  0  0  0  0  0  0  0  0  0
    5.9525    1.9969   -3.4173 C   0  0  0  0  0  0  0  0  0  0  0  0
    7.0197    1.9728   -4.3103 C   0  0  0  0  0  0  0  0  0  0  0  0
    7.5028    0.7626   -4.8326 C   0  0  0  0  0  0  0  0  0  0  0  0
    6.8939   -0.4332   -4.4276 C   0  0  0  0  0  0  0  0  0  0  0  0
    5.8243   -0.4316   -3.5341 C   0  0  0  0  0  0  0  0  0  0  0  0
    5.3611    0.7885   -3.0429 C   0  0  0  0  0  0  0  0  0  0  0  0
    5.5878    2.9299   -3.0028 H   0  0  0  0  0  0  0  0  0  0  0  0
    7.4902    2.9074   -4.6031 H   0  0  0  0  0  0  0  0  0  0  0  0
    7.2648   -1.3788   -4.8123 H   0  0  0  0  0  0  0  0  0  0  0  0
    5.3624   -1.3571   -3.2092 H   0  0  0  0  0  0  0  0  0  0  0  0
    4.0016    0.8053   -1.8943 S   0  0  0  0  0  0  0  0  0  0  0  0
    3.8680   -0.5079   -1.2667 O   0  0  0  0  0  0  0  0  0  0  0  0
    2.7794    0.9754   -3.0251 O   0  0  0  0  0  0  0  0  0  0  0  0
    4.0457    2.0179   -1.0816 O   0  0  0  0  0  0  0  0  0  0  0  0
    8.6436    0.7561   -5.8207 C   0  0  0  0  0  0  0  0  0  0  0  0
    8.2944    1.0375   -6.8217 H   0  0  0  0  0  0  0  0  0  0  0  0
    9.4208    1.4725   -5.5372 H   0  0  0  0  0  0  0  0  0  0  0  0
    9.1019   -0.2331   -5.8983 H   0  0  0  0  0  0  0  0  0  0  0  0
   -2.1584    1.6149   -1.3242 H   0  0  0  0  0  0  0  0  0  0  0  0
  1  6  1  0  0  0  0
  1  7  1  0  0  0  0
  2  1  2  0  0  0  0
  3  4  2  0  0  0  0
  3  2  1  0  0  0  0
  4  5  1  0  0  0  0
  5 10  1  0  0  0  0
  5  6  2  0  0  0  0
  6 31  1  0  0  0  0
  8  2  1  0  0  0  0
  9  4  1  0  0  0  0
 11 12  3  0  0  0  0
 13 18  1  0  0  0  0
 13 19  1  0  0  0  0
 14 13  2  0  0  0  0
 15 16  2  0  0  0  0
 15 14  1  0  0  0  0
 16 17  1  0  0  0  0
 17 22  1  0  0  0  0
 17 18  2  0  0  0  0
 18 23  1  0  0  0  0
 20 14  1  0  0  0  0
 21 16  1  0  0  0  0
 23 24  2  0  0  0  0
 23 26  2  0  0  0  0
 25  3  1  0  0  0  0
 25 23  1  0  0  0  0
 27 29  1  0  0  0  0
 27 15  1  0  0  0  0
 28 27  1  0  0  0  0
 30 27  1  0  0  0  0
M  END
