Coordinates from ORCA-job Ph-N2-OTs-B3LYPG-6-31G_dp-MTMO-d009-169-n800
 OpenBabel09051907503D

 31 31  0  0  0  0  0  0  0  0999 V2000
   -0.8473   -1.0918   -1.3522 C   0  0  0  0  0  0  0  0  0  0  0  0
    0.4554   -0.8821   -1.8063 C   0  0  0  0  0  0  0  0  0  0  0  0
    0.7973    0.3710   -2.3114 C   0  0  0  0  0  0  0  0  0  0  0  0
   -0.1236    1.4156   -2.3656 C   0  0  0  0  0  0  0  0  0  0  0  0
   -1.4228    1.1918   -1.9086 C   0  0  0  0  0  0  0  0  0  0  0  0
   -1.7861   -0.0587   -1.4029 C   0  0  0  0  0  0  0  0  0  0  0  0
   -1.1269   -2.0636   -0.9567 H   0  0  0  0  0  0  0  0  0  0  0  0
    1.2028   -1.6667   -1.7736 H   0  0  0  0  0  0  0  0  0  0  0  0
    0.1839    2.3778   -2.7588 H   0  0  0  0  0  0  0  0  0  0  0  0
   -2.1505    1.9971   -1.9471 H   0  0  0  0  0  0  0  0  0  0  0  0
   14.3819    6.0194   -8.3384 N   0  0  0  0  0  0  0  0  0  0  0  0
   13.4168    5.5308   -8.1113 N   0  0  0  0  0  0  0  0  0  0  0  0
    4.8594    2.3956   -3.5802 C   0  0  0  0  0  0  0  0  0  0  0  0
    5.9197    2.4518   -4.4819 C   0  0  0  0  0  0  0  0  0  0  0  0
    6.7148    1.3256   -4.7388 C   0  0  0  0  0  0  0  0  0  0  0  0
    6.4296    0.1326   -4.0567 C   0  0  0  0  0  0  0  0  0  0  0  0
    5.3757    0.0554   -3.1505 C   0  0  0  0  0  0  0  0  0  0  0  0
    4.5957    1.1915   -2.9271 C   0  0  0  0  0  0  0  0  0  0  0  0
    4.2524    3.2692   -3.3707 H   0  0  0  0  0  0  0  0  0  0  0  0
    6.1373    3.3869   -4.9903 H   0  0  0  0  0  0  0  0  0  0  0  0
    7.0452   -0.7453   -4.2337 H   0  0  0  0  0  0  0  0  0  0  0  0
    5.1652   -0.8620   -2.6120 H   0  0  0  0  0  0  0  0  0  0  0  0
    3.2508    1.1096   -1.7644 S   0  0  0  0  0  0  0  0  0  0  0  0
    3.4989    0.0522   -0.7872 O   0  0  0  0  0  0  0  0  0  0  0  0
    2.0855    0.5686   -2.8372 O   0  0  0  0  0  0  0  0  0  0  0  0
    2.8862    2.4557   -1.3287 O   0  0  0  0  0  0  0  0  0  0  0  0
    7.8415    1.3881   -5.7409 C   0  0  0  0  0  0  0  0  0  0  0  0
    8.2153    2.4083   -5.8612 H   0  0  0  0  0  0  0  0  0  0  0  0
    8.6782    0.7495   -5.4431 H   0  0  0  0  0  0  0  0  0  0  0  0
    7.5052    1.0441   -6.7268 H   0  0  0  0  0  0  0  0  0  0  0  0
   -2.7980   -0.2272   -1.0473 H   0  0  0  0  0  0  0  0  0  0  0  0
  1  7  1  0  0  0  0
  2  8  1  0  0  0  0
  2  1  2  0  0  0  0
  3  2  1  0  0  0  0
  4  3  2  0  0  0  0
  4  5  1  0  0  0  0
  5  6  2  0  0  0  0
  6  1  1  0  0  0  0
  6 31  1  0  0  0  0
  9  4  1  0  0  0  0
 10  5  1  0  0  0  0
 11 12  3  0  0  0  0
 13 19  1  0  0  0  0
 13 18  2  0  0  0  0
 14 13  1  0  0  0  0
 15 14  2  0  0  0  0
 15 16  1  0  0  0  0
 16 17  2  0  0  0  0
 17 18  1  0  0  0  0
 17 22  1  0  0  0  0
 18 23  1  0  0  0  0
 20 14  1  0  0  0  0
 21 16  1  0  0  0  0
 23 26  2  0  0  0  0
 23 24  2  0  0  0  0
 25  3  1  0  0  0  0
 25 23  1  0  0  0  0
 27 29  1  0  0  0  0
 27 15  1  0  0  0  0
 28 27  1  0  0  0  0
 30 27  1  0  0  0  0
M  END
