Coordinates from ORCA-job Ph-N2-OTs-B3LYPG-6-31G_dp-MTMO-d009-169-n800
 OpenBabel09051907503D

 31 31  0  0  0  0  0  0  0  0999 V2000
   -0.5673    0.2001   -1.6711 C   0  0  0  0  0  0  0  0  0  0  0  0
    0.7473    0.0157   -2.1016 C   0  0  0  0  0  0  0  0  0  0  0  0
    1.4779    1.1272   -2.5188 C   0  0  0  0  0  0  0  0  0  0  0  0
    0.9319    2.4089   -2.5127 C   0  0  0  0  0  0  0  0  0  0  0  0
   -0.3855    2.5771   -2.0854 C   0  0  0  0  0  0  0  0  0  0  0  0
   -1.1351    1.4763   -1.6637 C   0  0  0  0  0  0  0  0  0  0  0  0
   -1.1476   -0.6567   -1.3424 H   0  0  0  0  0  0  0  0  0  0  0  0
    1.2100   -0.9644   -2.1149 H   0  0  0  0  0  0  0  0  0  0  0  0
    1.5365    3.2457   -2.8431 H   0  0  0  0  0  0  0  0  0  0  0  0
   -0.8245    3.5705   -2.0788 H   0  0  0  0  0  0  0  0  0  0  0  0
    3.3137    3.2186   -6.4849 N   0  0  0  0  0  0  0  0  0  0  0  0
    3.2502    3.5116   -5.4211 N   0  0  0  0  0  0  0  0  0  0  0  0
    5.9481    1.9903   -3.4222 C   0  0  0  0  0  0  0  0  0  0  0  0
    7.0141    1.9658   -4.3166 C   0  0  0  0  0  0  0  0  0  0  0  0
    7.5005    0.7548   -4.8342 C   0  0  0  0  0  0  0  0  0  0  0  0
    6.8961   -0.4411   -4.4229 C   0  0  0  0  0  0  0  0  0  0  0  0
    5.8277   -0.4391   -3.5280 C   0  0  0  0  0  0  0  0  0  0  0  0
    5.3611    0.7816   -3.0416 C   0  0  0  0  0  0  0  0  0  0  0  0
    5.5809    2.9239   -3.0111 H   0  0  0  0  0  0  0  0  0  0  0  0
    7.4811    2.9006   -4.6143 H   0  0  0  0  0  0  0  0  0  0  0  0
    7.2697   -1.3872   -4.8038 H   0  0  0  0  0  0  0  0  0  0  0  0
    5.3694   -1.3647   -3.1983 H   0  0  0  0  0  0  0  0  0  0  0  0
    4.0024    0.7995   -1.8921 S   0  0  0  0  0  0  0  0  0  0  0  0
    3.8754   -0.5104   -1.2561 O   0  0  0  0  0  0  0  0  0  0  0  0
    2.7791    0.9569   -3.0231 O   0  0  0  0  0  0  0  0  0  0  0  0
    4.0417    2.0172   -1.0869 O   0  0  0  0  0  0  0  0  0  0  0  0
    8.6397    0.7478   -5.8239 C   0  0  0  0  0  0  0  0  0  0  0  0
    8.2878    1.0224   -6.8260 H   0  0  0  0  0  0  0  0  0  0  0  0
    9.4145    1.4688   -5.5455 H   0  0  0  0  0  0  0  0  0  0  0  0
    9.1020   -0.2400   -5.8970 H   0  0  0  0  0  0  0  0  0  0  0  0
   -2.1589    1.6130   -1.3294 H   0  0  0  0  0  0  0  0  0  0  0  0
  1  6  1  0  0  0  0
  1  7  1  0  0  0  0
  2  1  2  0  0  0  0
  3  4  2  0  0  0  0
  3  2  1  0  0  0  0
  4  5  1  0  0  0  0
  5 10  1  0  0  0  0
  5  6  2  0  0  0  0
  6 31  1  0  0  0  0
  8  2  1  0  0  0  0
  9  4  1  0  0  0  0
 11 12  3  0  0  0  0
 13 18  1  0  0  0  0
 13 19  1  0  0  0  0
 14 13  2  0  0  0  0
 15 16  2  0  0  0  0
 15 14  1  0  0  0  0
 16 17  1  0  0  0  0
 17 22  1  0  0  0  0
 17 18  2  0  0  0  0
 18 23  1  0  0  0  0
 20 14  1  0  0  0  0
 21 16  1  0  0  0  0
 23 24  2  0  0  0  0
 23 26  2  0  0  0  0
 25  3  1  0  0  0  0
 25 23  1  0  0  0  0
 27 29  1  0  0  0  0
 27 15  1  0  0  0  0
 28 27  1  0  0  0  0
 30 27  1  0  0  0  0
M  END
