Coordinates from ORCA-job Ph-N2-OTs-B3LYPG-6-31G_dp-MTMO-d009-169-n800
 OpenBabel09051907503D

 31 31  0  0  0  0  0  0  0  0999 V2000
   -0.4318   -0.0205   -1.1722 C   0  0  0  0  0  0  0  0  0  0  0  0
    0.9017   -0.0893   -1.5783 C   0  0  0  0  0  0  0  0  0  0  0  0
    1.3181    0.7029   -2.6473 C   0  0  0  0  0  0  0  0  0  0  0  0
    0.4397    1.5545   -3.3137 C   0  0  0  0  0  0  0  0  0  0  0  0
   -0.8926    1.6062   -2.9024 C   0  0  0  0  0  0  0  0  0  0  0  0
   -1.3290    0.8224   -1.8319 C   0  0  0  0  0  0  0  0  0  0  0  0
   -0.7687   -0.6288   -0.3379 H   0  0  0  0  0  0  0  0  0  0  0  0
    1.6156   -0.7345   -1.0800 H   0  0  0  0  0  0  0  0  0  0  0  0
    0.8054    2.1563   -4.1384 H   0  0  0  0  0  0  0  0  0  0  0  0
   -1.5874    2.2633   -3.4168 H   0  0  0  0  0  0  0  0  0  0  0  0
    5.7130    6.6572   -2.9812 N   0  0  0  0  0  0  0  0  0  0  0  0
    5.5897    5.7758   -3.6364 N   0  0  0  0  0  0  0  0  0  0  0  0
    5.6123    2.0464   -4.2030 C   0  0  0  0  0  0  0  0  0  0  0  0
    6.6958    1.7720   -5.0355 C   0  0  0  0  0  0  0  0  0  0  0  0
    7.3491    0.5320   -4.9933 C   0  0  0  0  0  0  0  0  0  0  0  0
    6.8895   -0.4385   -4.0894 C   0  0  0  0  0  0  0  0  0  0  0  0
    5.8128   -0.1836   -3.2450 C   0  0  0  0  0  0  0  0  0  0  0  0
    5.1809    1.0596   -3.3166 C   0  0  0  0  0  0  0  0  0  0  0  0
    5.1158    3.0097   -4.2279 H   0  0  0  0  0  0  0  0  0  0  0  0
    7.0409    2.5358   -5.7270 H   0  0  0  0  0  0  0  0  0  0  0  0
    7.3853   -1.4043   -4.0444 H   0  0  0  0  0  0  0  0  0  0  0  0
    5.4697   -0.9296   -2.5366 H   0  0  0  0  0  0  0  0  0  0  0  0
    3.8122    1.4037   -2.2327 S   0  0  0  0  0  0  0  0  0  0  0  0
    3.9885    0.6898   -0.9692 O   0  0  0  0  0  0  0  0  0  0  0  0
    2.6383    0.6072   -3.1197 O   0  0  0  0  0  0  0  0  0  0  0  0
    3.5128    2.8335   -2.2422 O   0  0  0  0  0  0  0  0  0  0  0  0
    8.5425    0.2577   -5.8761 C   0  0  0  0  0  0  0  0  0  0  0  0
    8.5051    0.8478   -6.7956 H   0  0  0  0  0  0  0  0  0  0  0  0
    9.4755    0.5157   -5.3597 H   0  0  0  0  0  0  0  0  0  0  0  0
    8.6043   -0.7992   -6.1498 H   0  0  0  0  0  0  0  0  0  0  0  0
   -2.3655    0.8694   -1.5116 H   0  0  0  0  0  0  0  0  0  0  0  0
  1  7  1  0  0  0  0
  2  1  1  0  0  0  0
  2  8  1  0  0  0  0
  3  2  2  0  0  0  0
  4  5  2  0  0  0  0
  4  3  1  0  0  0  0
  5  6  1  0  0  0  0
  6 31  1  0  0  0  0
  6  1  2  0  0  0  0
  9  4  1  0  0  0  0
 10  5  1  0  0  0  0
 12 11  3  0  0  0  0
 13 18  2  0  0  0  0
 14 15  2  0  0  0  0
 14 13  1  0  0  0  0
 15 16  1  0  0  0  0
 16 21  1  0  0  0  0
 16 17  2  0  0  0  0
 17 22  1  0  0  0  0
 18 17  1  0  0  0  0
 18 23  1  0  0  0  0
 19 13  1  0  0  0  0
 20 14  1  0  0  0  0
 23 24  2  0  0  0  0
 25  3  1  0  0  0  0
 25 23  1  0  0  0  0
 26 23  2  0  0  0  0
 27 29  1  0  0  0  0
 27 15  1  0  0  0  0
 28 27  1  0  0  0  0
 30 27  1  0  0  0  0
M  END
