Coordinates from ORCA-job Ph-N2-OTs-B3LYPG-6-31G_dp-MTMO-d009-169-n800
 OpenBabel09051907493D

 31 30  0  0  0  0  0  0  0  0999 V2000
    0.1479    0.2232   -1.5654 C   0  0  0  0  0  0  0  0  0  0  0  0
    0.7438    1.2806   -2.2950 C   0  0  0  0  0  0  0  0  0  0  0  0
   -0.0222    2.2742   -2.4768 C   0  0  0  0  0  0  0  0  0  0  0  0
   -1.2987    2.6513   -2.1791 C   0  0  0  0  0  0  0  0  0  0  0  0
   -1.8898    1.5930   -1.4520 C   0  0  0  0  0  0  0  0  0  0  0  0
   -1.1817    0.4148   -1.1566 C   0  0  0  0  0  0  0  0  0  0  0  0
    0.6795   -0.6942   -1.3293 H   0  0  0  0  0  0  0  0  0  0  0  0
    2.4892    0.9881   -2.8573 H   0  0  0  0  0  0  0  0  0  0  0  0
   -1.7998    3.5764   -2.4309 H   0  0  0  0  0  0  0  0  0  0  0  0
   -2.9171    1.7077   -1.1181 H   0  0  0  0  0  0  0  0  0  0  0  0
    0.8382    4.1695   -3.6349 N   0  0  0  0  0  0  0  0  0  0  0  0
    1.7038    4.7374   -4.0225 N   0  0  0  0  0  0  0  0  0  0  0  0
    6.7405    1.3839   -3.1284 C   0  0  0  0  0  0  0  0  0  0  0  0
    7.9875    0.8073   -3.3612 C   0  0  0  0  0  0  0  0  0  0  0  0
    8.2573    0.1185   -4.5524 C   0  0  0  0  0  0  0  0  0  0  0  0
    7.2405    0.0188   -5.5141 C   0  0  0  0  0  0  0  0  0  0  0  0
    5.9879    0.5885   -5.2998 C   0  0  0  0  0  0  0  0  0  0  0  0
    5.7494    1.2638   -4.1022 C   0  0  0  0  0  0  0  0  0  0  0  0
    6.5343    1.9270   -2.2129 H   0  0  0  0  0  0  0  0  0  0  0  0
    8.7651    0.8969   -2.6069 H   0  0  0  0  0  0  0  0  0  0  0  0
    7.4340   -0.5092   -6.4441 H   0  0  0  0  0  0  0  0  0  0  0  0
    5.2048    0.5229   -6.0474 H   0  0  0  0  0  0  0  0  0  0  0  0
    4.1505    1.9976   -3.8166 S   0  0  0  0  0  0  0  0  0  0  0  0
    3.4283    0.7304   -3.1070 O   0  0  0  0  0  0  0  0  0  0  0  0
    3.5001    2.2625   -5.1023 O   0  0  0  0  0  0  0  0  0  0  0  0
    4.2802    3.0836   -2.8420 O   0  0  0  0  0  0  0  0  0  0  0  0
    9.6212   -0.4754   -4.8108 C   0  0  0  0  0  0  0  0  0  0  0  0
   10.2486    0.2197   -5.3831 H   0  0  0  0  0  0  0  0  0  0  0  0
   10.1457   -0.6961   -3.8770 H   0  0  0  0  0  0  0  0  0  0  0  0
    9.5517   -1.4013   -5.3898 H   0  0  0  0  0  0  0  0  0  0  0  0
   -1.6813   -0.3708   -0.5958 H   0  0  0  0  0  0  0  0  0  0  0  0
  1  7  1  0  0  0  0
  1  6  2  0  0  0  0
  2  1  1  0  0  0  0
  3  2  2  0  0  0  0
  3  4  1  0  0  0  0
  4  5  2  0  0  0  0
  5  6  1  0  0  0  0
  5 10  1  0  0  0  0
  6 31  1  0  0  0  0
  9  4  1  0  0  0  0
 12 11  3  0  0  0  0
 13 19  1  0  0  0  0
 14 13  1  0  0  0  0
 14 20  1  0  0  0  0
 15 14  2  0  0  0  0
 16 17  2  0  0  0  0
 16 15  1  0  0  0  0
 17 18  1  0  0  0  0
 18 23  1  0  0  0  0
 18 13  2  0  0  0  0
 21 16  1  0  0  0  0
 22 17  1  0  0  0  0
 23 24  1  0  0  0  0
 23 26  2  0  0  0  0
 24  8  1  0  0  0  0
 25 23  2  0  0  0  0
 27 15  1  0  0  0  0
 27 29  1  0  0  0  0
 28 27  1  0  0  0  0
 30 27  1  0  0  0  0
M  RAD  2   2   2   3   2
M  END
