Coordinates from ORCA-job Ph-N2-OTs-B3LYPG-6-31G_dp-MTMO-d009-169-n800
 OpenBabel09051907503D

 31 31  0  0  0  0  0  0  0  0999 V2000
   -0.7316   -0.7101   -1.6538 C   0  0  0  0  0  0  0  0  0  0  0  0
    0.6026   -0.6206   -2.0527 C   0  0  0  0  0  0  0  0  0  0  0  0
    1.0884    0.6064   -2.5016 C   0  0  0  0  0  0  0  0  0  0  0  0
    0.2793    1.7397   -2.5546 C   0  0  0  0  0  0  0  0  0  0  0  0
   -1.0538    1.6352   -2.1559 C   0  0  0  0  0  0  0  0  0  0  0  0
   -1.5601    0.4135   -1.7055 C   0  0  0  0  0  0  0  0  0  0  0  0
   -1.1225   -1.6599   -1.3014 H   0  0  0  0  0  0  0  0  0  0  0  0
    1.2660   -1.4772   -2.0177 H   0  0  0  0  0  0  0  0  0  0  0  0
    0.6977    2.6768   -2.9037 H   0  0  0  0  0  0  0  0  0  0  0  0
   -1.6951    2.5106   -2.1954 H   0  0  0  0  0  0  0  0  0  0  0  0
    8.9557    5.8542   -7.4041 N   0  0  0  0  0  0  0  0  0  0  0  0
    8.5015    5.0630   -6.7804 N   0  0  0  0  0  0  0  0  0  0  0  0
    5.4029    2.2491   -3.4434 C   0  0  0  0  0  0  0  0  0  0  0  0
    6.4924    2.2791   -4.3124 C   0  0  0  0  0  0  0  0  0  0  0  0
    7.1589    1.1020   -4.6796 C   0  0  0  0  0  0  0  0  0  0  0  0
    6.7080   -0.1186   -4.1521 C   0  0  0  0  0  0  0  0  0  0  0  0
    5.6238   -0.1702   -3.2818 C   0  0  0  0  0  0  0  0  0  0  0  0
    4.9779    1.0201   -2.9401 C   0  0  0  0  0  0  0  0  0  0  0  0
    4.8935    3.1600   -3.1494 H   0  0  0  0  0  0  0  0  0  0  0  0
    6.8322    3.2308   -4.7107 H   0  0  0  0  0  0  0  0  0  0  0  0
    7.2163   -1.0396   -4.4249 H   0  0  0  0  0  0  0  0  0  0  0  0
    5.2844   -1.1109   -2.8632 H   0  0  0  0  0  0  0  0  0  0  0  0
    3.5934    0.9682   -1.8234 S   0  0  0  0  0  0  0  0  0  0  0  0
    3.6849   -0.2158   -0.9719 O   0  0  0  0  0  0  0  0  0  0  0  0
    2.4090    0.6956   -2.9737 O   0  0  0  0  0  0  0  0  0  0  0  0
    3.3720    2.2892   -1.2397 O   0  0  0  0  0  0  0  0  0  0  0  0
    8.3517    1.1414   -5.6032 C   0  0  0  0  0  0  0  0  0  0  0  0
    8.4355    2.1065   -6.1086 H   0  0  0  0  0  0  0  0  0  0  0  0
    9.2820    0.9760   -5.0466 H   0  0  0  0  0  0  0  0  0  0  0  0
    8.2899    0.3586   -6.3663 H   0  0  0  0  0  0  0  0  0  0  0  0
   -2.5974    0.3377   -1.3938 H   0  0  0  0  0  0  0  0  0  0  0  0
  1  7  1  0  0  0  0
  2  8  1  0  0  0  0
  2  1  2  0  0  0  0
  3  2  1  0  0  0  0
  4  3  2  0  0  0  0
  4  5  1  0  0  0  0
  5  6  2  0  0  0  0
  6  1  1  0  0  0  0
  6 31  1  0  0  0  0
  9  4  1  0  0  0  0
 10  5  1  0  0  0  0
 11 12  3  0  0  0  0
 13 19  1  0  0  0  0
 13 18  2  0  0  0  0
 14 13  1  0  0  0  0
 15 14  2  0  0  0  0
 15 16  1  0  0  0  0
 16 17  2  0  0  0  0
 17 18  1  0  0  0  0
 17 22  1  0  0  0  0
 18 23  1  0  0  0  0
 20 14  1  0  0  0  0
 21 16  1  0  0  0  0
 23 26  2  0  0  0  0
 23 24  2  0  0  0  0
 25  3  1  0  0  0  0
 25 23  1  0  0  0  0
 27 29  1  0  0  0  0
 27 15  1  0  0  0  0
 28 27  1  0  0  0  0
 30 27  1  0  0  0  0
M  END
