Coordinates from ORCA-job Ph-N2-OTs-B3LYPG-6-31G_dp-MTMO-d009-169-n800
 OpenBabel09051907503D

 31 31  0  0  0  0  0  0  0  0999 V2000
   -0.6464   -1.0410   -1.4034 C   0  0  0  0  0  0  0  0  0  0  0  0
    0.6484   -0.8138   -1.8712 C   0  0  0  0  0  0  0  0  0  0  0  0
    0.9662    0.4415   -2.3863 C   0  0  0  0  0  0  0  0  0  0  0  0
    0.0289    1.4716   -2.4372 C   0  0  0  0  0  0  0  0  0  0  0  0
   -1.2622    1.2305   -1.9664 C   0  0  0  0  0  0  0  0  0  0  0  0
   -1.6013   -0.0226   -1.4505 C   0  0  0  0  0  0  0  0  0  0  0  0
   -0.9072   -2.0147   -0.9999 H   0  0  0  0  0  0  0  0  0  0  0  0
    1.4082   -1.5866   -1.8413 H   0  0  0  0  0  0  0  0  0  0  0  0
    0.3178    2.4362   -2.8387 H   0  0  0  0  0  0  0  0  0  0  0  0
   -2.0025    2.0243   -2.0022 H   0  0  0  0  0  0  0  0  0  0  0  0
   11.9922    4.7838   -7.0497 N   0  0  0  0  0  0  0  0  0  0  0  0
   11.0195    4.3388   -6.7714 N   0  0  0  0  0  0  0  0  0  0  0  0
    5.0111    2.4978   -3.7019 C   0  0  0  0  0  0  0  0  0  0  0  0
    6.0703    2.5502   -4.6047 C   0  0  0  0  0  0  0  0  0  0  0  0
    6.8709    1.4248   -4.8512 C   0  0  0  0  0  0  0  0  0  0  0  0
    6.5913    0.2380   -4.1571 C   0  0  0  0  0  0  0  0  0  0  0  0
    5.5383    0.1648   -3.2488 C   0  0  0  0  0  0  0  0  0  0  0  0
    4.7532    1.2988   -3.0360 C   0  0  0  0  0  0  0  0  0  0  0  0
    4.4002    3.3707   -3.5005 H   0  0  0  0  0  0  0  0  0  0  0  0
    6.2830    3.4814   -5.1224 H   0  0  0  0  0  0  0  0  0  0  0  0
    7.2105   -0.6390   -4.3258 H   0  0  0  0  0  0  0  0  0  0  0  0
    5.3333   -0.7483   -2.7008 H   0  0  0  0  0  0  0  0  0  0  0  0
    3.4128    1.2228   -1.8674 S   0  0  0  0  0  0  0  0  0  0  0  0
    3.6736    0.1821   -0.8755 O   0  0  0  0  0  0  0  0  0  0  0  0
    2.2463    0.6558   -2.9258 O   0  0  0  0  0  0  0  0  0  0  0  0
    3.0392    2.5723   -1.4502 O   0  0  0  0  0  0  0  0  0  0  0  0
    7.9950    1.4841   -5.8565 C   0  0  0  0  0  0  0  0  0  0  0  0
    8.4570    2.4751   -5.8891 H   0  0  0  0  0  0  0  0  0  0  0  0
    8.7743    0.7513   -5.6294 H   0  0  0  0  0  0  0  0  0  0  0  0
    7.6249    1.2649   -6.8659 H   0  0  0  0  0  0  0  0  0  0  0  0
   -2.6072   -0.2046   -1.0843 H   0  0  0  0  0  0  0  0  0  0  0  0
  1  7  1  0  0  0  0
  2  8  1  0  0  0  0
  2  1  2  0  0  0  0
  3  2  1  0  0  0  0
  4  3  2  0  0  0  0
  4  5  1  0  0  0  0
  5  6  2  0  0  0  0
  6  1  1  0  0  0  0
  6 31  1  0  0  0  0
  9  4  1  0  0  0  0
 10  5  1  0  0  0  0
 11 12  3  0  0  0  0
 13 19  1  0  0  0  0
 13 18  2  0  0  0  0
 14 13  1  0  0  0  0
 15 14  2  0  0  0  0
 15 16  1  0  0  0  0
 16 17  2  0  0  0  0
 17 18  1  0  0  0  0
 17 22  1  0  0  0  0
 18 23  1  0  0  0  0
 20 14  1  0  0  0  0
 21 16  1  0  0  0  0
 23 26  2  0  0  0  0
 23 24  2  0  0  0  0
 25  3  1  0  0  0  0
 25 23  1  0  0  0  0
 27 29  1  0  0  0  0
 27 15  1  0  0  0  0
 28 27  1  0  0  0  0
 30 27  1  0  0  0  0
M  END
