Coordinates from ORCA-job Ph-N2-OTs-B3LYPG-6-31G_dp-MTMO-d009-169-n800
 OpenBabel09051907503D

 31 31  0  0  0  0  0  0  0  0999 V2000
   -0.5821    0.2030   -1.7659 C   0  0  0  0  0  0  0  0  0  0  0  0
    0.7333    0.0340   -2.2000 C   0  0  0  0  0  0  0  0  0  0  0  0
    1.4828    1.1635   -2.5245 C   0  0  0  0  0  0  0  0  0  0  0  0
    0.9549    2.4488   -2.4213 C   0  0  0  0  0  0  0  0  0  0  0  0
   -0.3630    2.6024   -1.9899 C   0  0  0  0  0  0  0  0  0  0  0  0
   -1.1315    1.4831   -1.6616 C   0  0  0  0  0  0  0  0  0  0  0  0
   -1.1771   -0.6681   -1.5090 H   0  0  0  0  0  0  0  0  0  0  0  0
    1.1826   -0.9486   -2.2872 H   0  0  0  0  0  0  0  0  0  0  0  0
    1.5741    3.3002   -2.6795 H   0  0  0  0  0  0  0  0  0  0  0  0
   -0.7875    3.5986   -1.9069 H   0  0  0  0  0  0  0  0  0  0  0  0
    3.0973    2.8763   -6.4588 N   0  0  0  0  0  0  0  0  0  0  0  0
    3.2628    3.3261   -5.4629 N   0  0  0  0  0  0  0  0  0  0  0  0
    5.9583    2.0108   -3.4280 C   0  0  0  0  0  0  0  0  0  0  0  0
    7.0273    1.9794   -4.3185 C   0  0  0  0  0  0  0  0  0  0  0  0
    7.5120    0.7648   -4.8293 C   0  0  0  0  0  0  0  0  0  0  0  0
    6.9023   -0.4276   -4.4157 C   0  0  0  0  0  0  0  0  0  0  0  0
    5.8306   -0.4187   -3.5247 C   0  0  0  0  0  0  0  0  0  0  0  0
    5.3664    0.8054   -3.0446 C   0  0  0  0  0  0  0  0  0  0  0  0
    5.5926    2.9474   -3.0226 H   0  0  0  0  0  0  0  0  0  0  0  0
    7.4980    2.9117   -4.6184 H   0  0  0  0  0  0  0  0  0  0  0  0
    7.2742   -1.3763   -4.7916 H   0  0  0  0  0  0  0  0  0  0  0  0
    5.3679   -1.3414   -3.1932 H   0  0  0  0  0  0  0  0  0  0  0  0
    4.0053    0.8312   -1.8983 S   0  0  0  0  0  0  0  0  0  0  0  0
    3.8620   -0.4803   -1.2695 O   0  0  0  0  0  0  0  0  0  0  0  0
    2.7850    1.0083   -3.0308 O   0  0  0  0  0  0  0  0  0  0  0  0
    4.0556    2.0445   -1.0868 O   0  0  0  0  0  0  0  0  0  0  0  0
    8.6556    0.7504   -5.8140 C   0  0  0  0  0  0  0  0  0  0  0  0
    8.3116    1.0349   -6.8160 H   0  0  0  0  0  0  0  0  0  0  0  0
    9.4371    1.4610   -5.5279 H   0  0  0  0  0  0  0  0  0  0  0  0
    9.1070   -0.2420   -5.8904 H   0  0  0  0  0  0  0  0  0  0  0  0
   -2.1557    1.6082   -1.3239 H   0  0  0  0  0  0  0  0  0  0  0  0
  1  6  1  0  0  0  0
  1  7  1  0  0  0  0
  2  1  2  0  0  0  0
  3  4  2  0  0  0  0
  3  2  1  0  0  0  0
  4  5  1  0  0  0  0
  5 10  1  0  0  0  0
  5  6  2  0  0  0  0
  6 31  1  0  0  0  0
  8  2  1  0  0  0  0
  9  4  1  0  0  0  0
 11 12  3  0  0  0  0
 13 18  1  0  0  0  0
 13 19  1  0  0  0  0
 14 13  2  0  0  0  0
 15 16  2  0  0  0  0
 15 14  1  0  0  0  0
 16 17  1  0  0  0  0
 17 22  1  0  0  0  0
 17 18  2  0  0  0  0
 18 23  1  0  0  0  0
 20 14  1  0  0  0  0
 21 16  1  0  0  0  0
 23 24  2  0  0  0  0
 23 26  2  0  0  0  0
 25  3  1  0  0  0  0
 25 23  1  0  0  0  0
 27 29  1  0  0  0  0
 27 15  1  0  0  0  0
 28 27  1  0  0  0  0
 30 27  1  0  0  0  0
M  END
