Coordinates from ORCA-job Ph-N2-OTs-B3LYPG-6-31G_dp-MTMO-d009-169-n800
 OpenBabel09051907503D

 31 31  0  0  0  0  0  0  0  0999 V2000
   -0.5546   -0.1855   -1.2895 C   0  0  0  0  0  0  0  0  0  0  0  0
    0.7831   -0.2635   -1.6799 C   0  0  0  0  0  0  0  0  0  0  0  0
    1.2684    0.6671   -2.5978 C   0  0  0  0  0  0  0  0  0  0  0  0
    0.4539    1.6645   -3.1294 C   0  0  0  0  0  0  0  0  0  0  0  0
   -0.8837    1.7245   -2.7371 C   0  0  0  0  0  0  0  0  0  0  0  0
   -1.3886    0.8032   -1.8164 C   0  0  0  0  0  0  0  0  0  0  0  0
   -0.9445   -0.9020   -0.5723 H   0  0  0  0  0  0  0  0  0  0  0  0
    1.4481   -1.0217   -1.2830 H   0  0  0  0  0  0  0  0  0  0  0  0
    0.8724    2.3720   -3.8370 H   0  0  0  0  0  0  0  0  0  0  0  0
   -1.5289    2.4956   -3.1476 H   0  0  0  0  0  0  0  0  0  0  0  0
    6.2831    6.7764   -4.5818 N   0  0  0  0  0  0  0  0  0  0  0  0
    6.2250    5.6810   -4.7156 N   0  0  0  0  0  0  0  0  0  0  0  0
    5.6005    2.0629   -3.8664 C   0  0  0  0  0  0  0  0  0  0  0  0
    6.6794    1.9118   -4.7337 C   0  0  0  0  0  0  0  0  0  0  0  0
    7.3150    0.6712   -4.8925 C   0  0  0  0  0  0  0  0  0  0  0  0
    6.8425   -0.4244   -4.1545 C   0  0  0  0  0  0  0  0  0  0  0  0
    5.7681   -0.2938   -3.2778 C   0  0  0  0  0  0  0  0  0  0  0  0
    5.1539    0.9527   -3.1483 C   0  0  0  0  0  0  0  0  0  0  0  0
    5.1162    3.0242   -3.7384 H   0  0  0  0  0  0  0  0  0  0  0  0
    7.0332    2.7735   -5.2924 H   0  0  0  0  0  0  0  0  0  0  0  0
    7.3249   -1.3915   -4.2650 H   0  0  0  0  0  0  0  0  0  0  0  0
    5.4139   -1.1384   -2.6975 H   0  0  0  0  0  0  0  0  0  0  0  0
    3.7846    1.1386   -2.0274 S   0  0  0  0  0  0  0  0  0  0  0  0
    3.9164    0.1906   -0.9224 O   0  0  0  0  0  0  0  0  0  0  0  0
    2.5927    0.5750   -3.0586 O   0  0  0  0  0  0  0  0  0  0  0  0
    3.5389    2.5547   -1.7667 O   0  0  0  0  0  0  0  0  0  0  0  0
    8.5010    0.5286   -5.8155 C   0  0  0  0  0  0  0  0  0  0  0  0
    8.3880    1.1475   -6.7103 H   0  0  0  0  0  0  0  0  0  0  0  0
    9.4242    0.8471   -5.3158 H   0  0  0  0  0  0  0  0  0  0  0  0
    8.6408   -0.5081   -6.1320 H   0  0  0  0  0  0  0  0  0  0  0  0
   -2.4285    0.8569   -1.5088 H   0  0  0  0  0  0  0  0  0  0  0  0
  1  7  1  0  0  0  0
  2  1  1  0  0  0  0
  2  8  1  0  0  0  0
  3  2  2  0  0  0  0
  4  5  2  0  0  0  0
  4  3  1  0  0  0  0
  5  6  1  0  0  0  0
  6 31  1  0  0  0  0
  6  1  2  0  0  0  0
  9  4  1  0  0  0  0
 10  5  1  0  0  0  0
 12 11  3  0  0  0  0
 13 19  1  0  0  0  0
 13 18  2  0  0  0  0
 14 13  1  0  0  0  0
 15 14  2  0  0  0  0
 15 16  1  0  0  0  0
 16 17  2  0  0  0  0
 17 18  1  0  0  0  0
 17 22  1  0  0  0  0
 18 23  1  0  0  0  0
 20 14  1  0  0  0  0
 21 16  1  0  0  0  0
 23 26  2  0  0  0  0
 23 24  2  0  0  0  0
 25  3  1  0  0  0  0
 25 23  1  0  0  0  0
 27 29  1  0  0  0  0
 27 15  1  0  0  0  0
 28 27  1  0  0  0  0
 30 27  1  0  0  0  0
M  END
