Coordinates from ORCA-job Ph-N2-OTs-B3LYPG-6-31G_dp-MTMO-d009-169-n800
 OpenBabel09051907493D

 31 30  0  0  0  0  0  0  0  0999 V2000
   -0.0058    0.0805   -1.3966 C   0  0  0  0  0  0  0  0  0  0  0  0
    0.6863    1.0301   -2.1746 C   0  0  0  0  0  0  0  0  0  0  0  0
    0.0440    2.0573   -2.5177 C   0  0  0  0  0  0  0  0  0  0  0  0
   -1.2148    2.5582   -2.3458 C   0  0  0  0  0  0  0  0  0  0  0  0
   -1.9277    1.6155   -1.5651 C   0  0  0  0  0  0  0  0  0  0  0  0
   -1.3406    0.4212   -1.1098 C   0  0  0  0  0  0  0  0  0  0  0  0
    0.4345   -0.8441   -1.0372 H   0  0  0  0  0  0  0  0  0  0  0  0
    2.5520    0.7839   -2.6913 H   0  0  0  0  0  0  0  0  0  0  0  0
   -1.6300    3.4874   -2.7114 H   0  0  0  0  0  0  0  0  0  0  0  0
   -2.9619    1.8363   -1.3144 H   0  0  0  0  0  0  0  0  0  0  0  0
    1.0715    4.4880   -4.0322 N   0  0  0  0  0  0  0  0  0  0  0  0
    1.8667    5.1270   -4.4565 N   0  0  0  0  0  0  0  0  0  0  0  0
    6.8082    1.3336   -3.0448 C   0  0  0  0  0  0  0  0  0  0  0  0
    8.0498    0.7950   -3.3773 C   0  0  0  0  0  0  0  0  0  0  0  0
    8.2618    0.1703   -4.6143 C   0  0  0  0  0  0  0  0  0  0  0  0
    7.1926    0.0959   -5.5204 C   0  0  0  0  0  0  0  0  0  0  0  0
    5.9449    0.6283   -5.2068 C   0  0  0  0  0  0  0  0  0  0  0  0
    5.7647    1.2398   -3.9651 C   0  0  0  0  0  0  0  0  0  0  0  0
    6.6453    1.8271   -2.0932 H   0  0  0  0  0  0  0  0  0  0  0  0
    8.8684    0.8640   -2.6656 H   0  0  0  0  0  0  0  0  0  0  0  0
    7.3409   -0.3827   -6.4847 H   0  0  0  0  0  0  0  0  0  0  0  0
    5.1210    0.5822   -5.9108 H   0  0  0  0  0  0  0  0  0  0  0  0
    4.1732    1.9251   -3.5509 S   0  0  0  0  0  0  0  0  0  0  0  0
    3.5029    0.5869   -2.9090 O   0  0  0  0  0  0  0  0  0  0  0  0
    3.4513    2.2694   -4.7781 O   0  0  0  0  0  0  0  0  0  0  0  0
    4.3363    2.9325   -2.5023 O   0  0  0  0  0  0  0  0  0  0  0  0
    9.6179   -0.3839   -4.9796 C   0  0  0  0  0  0  0  0  0  0  0  0
   10.1820    0.3328   -5.5898 H   0  0  0  0  0  0  0  0  0  0  0  0
   10.2159   -0.5989   -4.0897 H   0  0  0  0  0  0  0  0  0  0  0  0
    9.5292   -1.3060   -5.5621 H   0  0  0  0  0  0  0  0  0  0  0  0
   -1.9410   -0.2620   -0.5146 H   0  0  0  0  0  0  0  0  0  0  0  0
  1  6  1  0  0  0  0
  1  7  1  0  0  0  0
  2  1  2  0  0  0  0
  3  4  2  0  0  0  0
  3  2  1  0  0  0  0
  4  5  1  0  0  0  0
  5 10  1  0  0  0  0
  5  6  2  0  0  0  0
  6 31  1  0  0  0  0
  9  4  1  0  0  0  0
 12 11  3  0  0  0  0
 13 19  1  0  0  0  0
 14 13  1  0  0  0  0
 14 20  1  0  0  0  0
 15 14  2  0  0  0  0
 16 17  2  0  0  0  0
 16 15  1  0  0  0  0
 17 18  1  0  0  0  0
 18 23  1  0  0  0  0
 18 13  2  0  0  0  0
 21 16  1  0  0  0  0
 22 17  1  0  0  0  0
 23 24  1  0  0  0  0
 23 26  2  0  0  0  0
 24  8  1  0  0  0  0
 25 23  2  0  0  0  0
 27 15  1  0  0  0  0
 27 29  1  0  0  0  0
 28 27  1  0  0  0  0
 30 27  1  0  0  0  0
M  RAD  2   2   2   3   2
M  END
