Coordinates from ORCA-job Ph-N2-OTs-B3LYPG-6-31G_dp-MTMO-d009-169-n800
 OpenBabel09051907493D

 31 30  0  0  0  0  0  0  0  0999 V2000
    0.1673    0.2460   -1.5836 C   0  0  0  0  0  0  0  0  0  0  0  0
    0.7593    1.3085   -2.3118 C   0  0  0  0  0  0  0  0  0  0  0  0
   -0.0233    2.2953   -2.4839 C   0  0  0  0  0  0  0  0  0  0  0  0
   -1.3035    2.6554   -2.1791 C   0  0  0  0  0  0  0  0  0  0  0  0
   -1.8837    1.5904   -1.4554 C   0  0  0  0  0  0  0  0  0  0  0  0
   -1.1620    0.4187   -1.1682 C   0  0  0  0  0  0  0  0  0  0  0  0
    0.7088   -0.6674   -1.3533 H   0  0  0  0  0  0  0  0  0  0  0  0
    2.4816    1.0119   -2.8614 H   0  0  0  0  0  0  0  0  0  0  0  0
   -1.8131    3.5772   -2.4263 H   0  0  0  0  0  0  0  0  0  0  0  0
   -2.9111    1.6939   -1.1182 H   0  0  0  0  0  0  0  0  0  0  0  0
    0.8089    4.1071   -3.5935 N   0  0  0  0  0  0  0  0  0  0  0  0
    1.6779    4.6690   -3.9832 N   0  0  0  0  0  0  0  0  0  0  0  0
    6.7398    1.3888   -3.1297 C   0  0  0  0  0  0  0  0  0  0  0  0
    7.9848    0.8068   -3.3600 C   0  0  0  0  0  0  0  0  0  0  0  0
    8.2527    0.1137   -4.5491 C   0  0  0  0  0  0  0  0  0  0  0  0
    7.2363    0.0154   -5.5112 C   0  0  0  0  0  0  0  0  0  0  0  0
    5.9857    0.5905   -5.2993 C   0  0  0  0  0  0  0  0  0  0  0  0
    5.7488    1.2699   -4.1038 C   0  0  0  0  0  0  0  0  0  0  0  0
    6.5350    1.9352   -2.2158 H   0  0  0  0  0  0  0  0  0  0  0  0
    8.7622    0.8955   -2.6053 H   0  0  0  0  0  0  0  0  0  0  0  0
    7.4283   -0.5159   -6.4397 H   0  0  0  0  0  0  0  0  0  0  0  0
    5.2028    0.5258   -6.0473 H   0  0  0  0  0  0  0  0  0  0  0  0
    4.1521    2.0099   -3.8208 S   0  0  0  0  0  0  0  0  0  0  0  0
    3.4242    0.7502   -3.1090 O   0  0  0  0  0  0  0  0  0  0  0  0
    3.5045    2.2755   -5.1081 O   0  0  0  0  0  0  0  0  0  0  0  0
    4.2865    3.0996   -2.8503 O   0  0  0  0  0  0  0  0  0  0  0  0
    9.6146   -0.4862   -4.8049 C   0  0  0  0  0  0  0  0  0  0  0  0
   10.2457    0.2055   -5.3773 H   0  0  0  0  0  0  0  0  0  0  0  0
   10.1369   -0.7078   -3.8701 H   0  0  0  0  0  0  0  0  0  0  0  0
    9.5421   -1.4125   -5.3827 H   0  0  0  0  0  0  0  0  0  0  0  0
   -1.6503   -0.3754   -0.6096 H   0  0  0  0  0  0  0  0  0  0  0  0
  1  7  1  0  0  0  0
  1  6  2  0  0  0  0
  2  1  1  0  0  0  0
  3  2  2  0  0  0  0
  3  4  1  0  0  0  0
  4  5  2  0  0  0  0
  5  6  1  0  0  0  0
  5 10  1  0  0  0  0
  6 31  1  0  0  0  0
  9  4  1  0  0  0  0
 12 11  3  0  0  0  0
 13 19  1  0  0  0  0
 14 13  1  0  0  0  0
 14 20  1  0  0  0  0
 15 14  2  0  0  0  0
 16 17  2  0  0  0  0
 16 15  1  0  0  0  0
 17 18  1  0  0  0  0
 18 23  1  0  0  0  0
 18 13  2  0  0  0  0
 21 16  1  0  0  0  0
 22 17  1  0  0  0  0
 23 24  1  0  0  0  0
 23 26  2  0  0  0  0
 24  8  1  0  0  0  0
 25 23  2  0  0  0  0
 27 15  1  0  0  0  0
 27 29  1  0  0  0  0
 28 27  1  0  0  0  0
 30 27  1  0  0  0  0
M  RAD  2   2   2   3   2
M  END
