Coordinates from ORCA-job Ph-N2-OTs-B3LYPG-6-31G_dp-MTMO-d009-169-n800
 OpenBabel09051907493D

 31 32  0  0  1  0  0  0  0  0999 V2000
    0.8256    0.4407   -1.9043 C   0  0  0  0  0  0  0  0  0  0  0  0
    1.1613    1.0265   -3.2332 C   0  0  1  0  0  0  0  0  0  0  0  0
    0.7084    2.4494   -3.3241 C   0  0  0  0  0  0  0  0  0  0  0  0
    0.3879    3.2419   -2.1661 C   0  0  0  0  0  0  0  0  0  0  0  0
    0.2844    2.6372   -0.9552 C   0  0  0  0  0  0  0  0  0  0  0  0
    0.4649    1.2056   -0.8503 C   0  0  0  0  0  0  0  0  0  0  0  0
    0.9432   -0.6340   -1.8117 H   0  0  0  0  0  0  0  0  0  0  0  0
    0.7851    0.4171   -4.0581 H   0  0  0  0  0  0  0  0  0  0  0  0
    0.2201    4.3066   -2.2942 H   0  0  0  0  0  0  0  0  0  0  0  0
    0.0391    3.2154   -0.0715 H   0  0  0  0  0  0  0  0  0  0  0  0
    0.6626    3.0070   -4.5203 N   0  0  0  0  0  0  0  0  0  0  0  0
    0.6268    3.4823   -5.5539 N   0  0  0  0  0  0  0  0  0  0  0  0
    5.6983    1.5904   -4.7812 C   0  0  0  0  0  0  0  0  0  0  0  0
    7.0601    1.6741   -4.5020 C   0  0  0  0  0  0  0  0  0  0  0  0
    7.7314    0.6335   -3.8427 C   0  0  0  0  0  0  0  0  0  0  0  0
    7.0011   -0.5034   -3.4663 C   0  0  0  0  0  0  0  0  0  0  0  0
    5.6387   -0.6069   -3.7366 C   0  0  0  0  0  0  0  0  0  0  0  0
    4.9993    0.4477   -4.3895 C   0  0  0  0  0  0  0  0  0  0  0  0
    5.1807    2.3891   -5.3011 H   0  0  0  0  0  0  0  0  0  0  0  0
    7.6120    2.5602   -4.8033 H   0  0  0  0  0  0  0  0  0  0  0  0
    7.5068   -1.3198   -2.9579 H   0  0  0  0  0  0  0  0  0  0  0  0
    5.0762   -1.4905   -3.4566 H   0  0  0  0  0  0  0  0  0  0  0  0
    3.2572    0.3279   -4.7373 S   0  0  0  0  0  0  0  0  0  0  0  0
    2.8616   -1.0814   -4.8078 O   0  0  0  0  0  0  0  0  0  0  0  0
    2.9086    1.2275   -5.8425 O   0  0  0  0  0  0  0  0  0  0  0  0
    2.6862    0.9657   -3.3454 O   0  0  0  0  0  0  0  0  0  0  0  0
    9.2142    0.7220   -3.5745 C   0  0  0  0  0  0  0  0  0  0  0  0
    9.7893    0.3537   -4.4333 H   0  0  0  0  0  0  0  0  0  0  0  0
    9.5277    1.7540   -3.3928 H   0  0  0  0  0  0  0  0  0  0  0  0
    9.5015    0.1199   -2.7079 H   0  0  0  0  0  0  0  0  0  0  0  0
    0.2795    0.7312    0.1099 H   0  0  0  0  0  0  0  0  0  0  0  0
  1  7  1  0  0  0  0
  1  6  2  0  0  0  0
  2  8  1  6  0  0  0
  2  1  1  0  0  0  0
  3  2  1  0  0  0  0
  3  4  2  0  0  0  0
  4  5  1  0  0  0  0
  5  6  1  0  0  0  0
  5 10  1  0  0  0  0
  6 31  1  0  0  0  0
  9  4  1  0  0  0  0
 11  3  1  0  0  0  0
 12 11  1  0  0  0  0
 13 14  2  0  0  0  0
 13 18  1  0  0  0  0
 14 15  1  0  0  0  0
 15 27  1  0  0  0  0
 15 16  2  0  0  0  0
 16 21  1  0  0  0  0
 17 16  1  0  0  0  0
 17 22  1  0  0  0  0
 18 17  2  0  0  0  0
 19 13  1  0  0  0  0
 20 14  1  0  0  0  0
 23 18  1  0  0  0  0
 23 26  1  0  0  0  0
 24 23  2  0  0  0  0
 25 23  2  0  0  0  0
 26  2  1  0  0  0  0
 27 29  1  0  0  0  0
 27 30  1  0  0  0  0
 28 27  1  0  0  0  0
M  RAD  3   5   2  11   2  12   3
M  END
