Coordinates from ORCA-job Ph-N2-OTs-B3LYPG-6-31G_dp-MTMO-d009-169-n800
 OpenBabel09051907503D

 31 31  0  0  0  0  0  0  0  0999 V2000
   -0.4356   -0.1743   -1.6238 C   0  0  0  0  0  0  0  0  0  0  0  0
    0.8864   -0.2139   -2.0684 C   0  0  0  0  0  0  0  0  0  0  0  0
    1.4277    0.9208   -2.6688 C   0  0  0  0  0  0  0  0  0  0  0  0
    0.6886    2.0924   -2.8258 C   0  0  0  0  0  0  0  0  0  0  0  0
   -0.6314    2.1184   -2.3737 C   0  0  0  0  0  0  0  0  0  0  0  0
   -1.1948    0.9886   -1.7755 C   0  0  0  0  0  0  0  0  0  0  0  0
   -0.8702   -1.0527   -1.1562 H   0  0  0  0  0  0  0  0  0  0  0  0
    1.4987   -1.1018   -1.9572 H   0  0  0  0  0  0  0  0  0  0  0  0
    1.1492    2.9577   -3.2885 H   0  0  0  0  0  0  0  0  0  0  0  0
   -1.2194    3.0239   -2.4907 H   0  0  0  0  0  0  0  0  0  0  0  0
    4.4234    5.9902   -3.8535 N   0  0  0  0  0  0  0  0  0  0  0  0
    3.3747    5.6453   -3.7998 N   0  0  0  0  0  0  0  0  0  0  0  0
    5.8088    2.0063   -4.1328 C   0  0  0  0  0  0  0  0  0  0  0  0
    6.8848    1.6902   -4.9585 C   0  0  0  0  0  0  0  0  0  0  0  0
    7.4725    0.4166   -4.9305 C   0  0  0  0  0  0  0  0  0  0  0  0
    6.9602   -0.5391   -4.0403 C   0  0  0  0  0  0  0  0  0  0  0  0
    5.8862   -0.2430   -3.2050 C   0  0  0  0  0  0  0  0  0  0  0  0
    5.3169    1.0298   -3.2660 C   0  0  0  0  0  0  0  0  0  0  0  0
    5.3645    2.9950   -4.1437 H   0  0  0  0  0  0  0  0  0  0  0  0
    7.2795    2.4473   -5.6305 H   0  0  0  0  0  0  0  0  0  0  0  0
    7.4136   -1.5254   -3.9955 H   0  0  0  0  0  0  0  0  0  0  0  0
    5.5021   -0.9770   -2.5051 H   0  0  0  0  0  0  0  0  0  0  0  0
    3.9546    1.4249   -2.1908 S   0  0  0  0  0  0  0  0  0  0  0  0
    3.9992    0.5862   -0.9954 O   0  0  0  0  0  0  0  0  0  0  0  0
    2.7346    0.8561   -3.1835 O   0  0  0  0  0  0  0  0  0  0  0  0
    3.8200    2.8763   -2.0766 O   0  0  0  0  0  0  0  0  0  0  0  0
    8.6196    0.0776   -5.8513 C   0  0  0  0  0  0  0  0  0  0  0  0
    8.2491   -0.2932   -6.8147 H   0  0  0  0  0  0  0  0  0  0  0  0
    9.2397    0.9547   -6.0574 H   0  0  0  0  0  0  0  0  0  0  0  0
    9.2586   -0.7016   -5.4258 H   0  0  0  0  0  0  0  0  0  0  0  0
   -2.2224    1.0146   -1.4265 H   0  0  0  0  0  0  0  0  0  0  0  0
  1  7  1  0  0  0  0
  2  8  1  0  0  0  0
  2  1  2  0  0  0  0
  3  2  1  0  0  0  0
  4  3  2  0  0  0  0
  4  5  1  0  0  0  0
  5  6  2  0  0  0  0
  6  1  1  0  0  0  0
  6 31  1  0  0  0  0
  9  4  1  0  0  0  0
 10  5  1  0  0  0  0
 11 12  3  0  0  0  0
 13 18  2  0  0  0  0
 14 15  2  0  0  0  0
 14 13  1  0  0  0  0
 15 16  1  0  0  0  0
 16 21  1  0  0  0  0
 16 17  2  0  0  0  0
 17 22  1  0  0  0  0
 18 17  1  0  0  0  0
 18 23  1  0  0  0  0
 19 13  1  0  0  0  0
 20 14  1  0  0  0  0
 23 26  2  0  0  0  0
 23 24  2  0  0  0  0
 25  3  1  0  0  0  0
 25 23  1  0  0  0  0
 27 30  1  0  0  0  0
 27 15  1  0  0  0  0
 28 27  1  0  0  0  0
 29 27  1  0  0  0  0
M  END
