Coordinates from ORCA-job Ph-N2-OTs-B3LYPG-6-31G_dp-MTMO-d009-169-n800
 OpenBabel09051907503D

 31 31  0  0  0  0  0  0  0  0999 V2000
   -0.5631   -0.2127   -1.2848 C   0  0  0  0  0  0  0  0  0  0  0  0
    0.7750   -0.2821   -1.6753 C   0  0  0  0  0  0  0  0  0  0  0  0
    1.2549    0.6530   -2.5914 C   0  0  0  0  0  0  0  0  0  0  0  0
    0.4345    1.6465   -3.1212 C   0  0  0  0  0  0  0  0  0  0  0  0
   -0.9034    1.6979   -2.7289 C   0  0  0  0  0  0  0  0  0  0  0  0
   -1.4029    0.7720   -1.8099 C   0  0  0  0  0  0  0  0  0  0  0  0
   -0.9489   -0.9329   -0.5689 H   0  0  0  0  0  0  0  0  0  0  0  0
    1.4444   -1.0371   -1.2797 H   0  0  0  0  0  0  0  0  0  0  0  0
    0.8489    2.3578   -3.8274 H   0  0  0  0  0  0  0  0  0  0  0  0
   -1.5531    2.4659   -3.1381 H   0  0  0  0  0  0  0  0  0  0  0  0
    6.5162    6.8098   -4.7029 N   0  0  0  0  0  0  0  0  0  0  0  0
    6.4020    5.7142   -4.7923 N   0  0  0  0  0  0  0  0  0  0  0  0
    5.5871    2.0734   -3.8498 C   0  0  0  0  0  0  0  0  0  0  0  0
    6.6666    1.9288   -4.7175 C   0  0  0  0  0  0  0  0  0  0  0  0
    7.3014    0.6890   -4.8857 C   0  0  0  0  0  0  0  0  0  0  0  0
    6.8277   -0.4121   -4.1569 C   0  0  0  0  0  0  0  0  0  0  0  0
    5.7528   -0.2880   -3.2799 C   0  0  0  0  0  0  0  0  0  0  0  0
    5.1391    0.9578   -3.1410 C   0  0  0  0  0  0  0  0  0  0  0  0
    5.1026    3.0337   -3.7142 H   0  0  0  0  0  0  0  0  0  0  0  0
    7.0213    2.7948   -5.2686 H   0  0  0  0  0  0  0  0  0  0  0  0
    7.3096   -1.3787   -4.2749 H   0  0  0  0  0  0  0  0  0  0  0  0
    5.3978   -1.1371   -2.7068 H   0  0  0  0  0  0  0  0  0  0  0  0
    3.7690    1.1353   -2.0197 S   0  0  0  0  0  0  0  0  0  0  0  0
    3.9044    0.1848   -0.9173 O   0  0  0  0  0  0  0  0  0  0  0  0
    2.5797    0.5696   -3.0526 O   0  0  0  0  0  0  0  0  0  0  0  0
    3.5178    2.5496   -1.7550 O   0  0  0  0  0  0  0  0  0  0  0  0
    8.4878    0.5532   -5.8091 C   0  0  0  0  0  0  0  0  0  0  0  0
    8.3743    1.1772   -6.7004 H   0  0  0  0  0  0  0  0  0  0  0  0
    9.4106    0.8697   -5.3074 H   0  0  0  0  0  0  0  0  0  0  0  0
    8.6288   -0.4815   -6.1318 H   0  0  0  0  0  0  0  0  0  0  0  0
   -2.4432    0.8190   -1.5024 H   0  0  0  0  0  0  0  0  0  0  0  0
  1  7  1  0  0  0  0
  2  1  1  0  0  0  0
  2  8  1  0  0  0  0
  3  2  2  0  0  0  0
  4  5  2  0  0  0  0
  4  3  1  0  0  0  0
  5  6  1  0  0  0  0
  6 31  1  0  0  0  0
  6  1  2  0  0  0  0
  9  4  1  0  0  0  0
 10  5  1  0  0  0  0
 12 11  3  0  0  0  0
 13 19  1  0  0  0  0
 13 18  2  0  0  0  0
 14 13  1  0  0  0  0
 15 14  2  0  0  0  0
 15 16  1  0  0  0  0
 16 17  2  0  0  0  0
 17 18  1  0  0  0  0
 17 22  1  0  0  0  0
 18 23  1  0  0  0  0
 20 14  1  0  0  0  0
 21 16  1  0  0  0  0
 23 26  2  0  0  0  0
 23 24  2  0  0  0  0
 25  3  1  0  0  0  0
 25 23  1  0  0  0  0
 27 29  1  0  0  0  0
 27 15  1  0  0  0  0
 28 27  1  0  0  0  0
 30 27  1  0  0  0  0
M  END
