Coordinates from ORCA-job Ph-N2-OTs-B3LYPG-6-31G_dp-MTMO-d009-169-n800
 OpenBabel09051907503D

 31 31  0  0  0  0  0  0  0  0999 V2000
   -0.4061    0.0153   -1.1644 C   0  0  0  0  0  0  0  0  0  0  0  0
    0.9261   -0.0552   -1.5743 C   0  0  0  0  0  0  0  0  0  0  0  0
    1.3364    0.7238   -2.6553 C   0  0  0  0  0  0  0  0  0  0  0  0
    0.4531    1.5639   -3.3298 C   0  0  0  0  0  0  0  0  0  0  0  0
   -0.8778    1.6174   -2.9144 C   0  0  0  0  0  0  0  0  0  0  0  0
   -1.3081    0.8468   -1.8319 C   0  0  0  0  0  0  0  0  0  0  0  0
   -0.7382   -0.5826   -0.3207 H   0  0  0  0  0  0  0  0  0  0  0  0
    1.6436   -0.6917   -1.0699 H   0  0  0  0  0  0  0  0  0  0  0  0
    0.8141    2.1556   -4.1639 H   0  0  0  0  0  0  0  0  0  0  0  0
   -1.5764    2.2656   -3.4350 H   0  0  0  0  0  0  0  0  0  0  0  0
    5.4457    6.5718   -2.7352 N   0  0  0  0  0  0  0  0  0  0  0  0
    5.3975    5.7467   -3.4688 N   0  0  0  0  0  0  0  0  0  0  0  0
    5.6260    2.0373   -4.2513 C   0  0  0  0  0  0  0  0  0  0  0  0
    6.7068    1.7426   -5.0804 C   0  0  0  0  0  0  0  0  0  0  0  0
    7.3602    0.5040   -5.0107 C   0  0  0  0  0  0  0  0  0  0  0  0
    6.9035   -0.4446   -4.0823 C   0  0  0  0  0  0  0  0  0  0  0  0
    5.8293   -0.1695   -3.2412 C   0  0  0  0  0  0  0  0  0  0  0  0
    5.1972    1.0718   -3.3404 C   0  0  0  0  0  0  0  0  0  0  0  0
    5.1305    3.0003   -4.2974 H   0  0  0  0  0  0  0  0  0  0  0  0
    7.0499    2.4896   -5.7911 H   0  0  0  0  0  0  0  0  0  0  0  0
    7.3994   -1.4090   -4.0158 H   0  0  0  0  0  0  0  0  0  0  0  0
    5.4883   -0.8983   -2.5142 H   0  0  0  0  0  0  0  0  0  0  0  0
    3.8301    1.4396   -2.2622 S   0  0  0  0  0  0  0  0  0  0  0  0
    4.0075    0.7524   -0.9841 O   0  0  0  0  0  0  0  0  0  0  0  0
    2.6551    0.6257   -3.1315 O   0  0  0  0  0  0  0  0  0  0  0  0
    3.5314    2.8690   -2.3009 O   0  0  0  0  0  0  0  0  0  0  0  0
    8.5507    0.2083   -5.8905 C   0  0  0  0  0  0  0  0  0  0  0  0
    8.5167    0.7853   -6.8182 H   0  0  0  0  0  0  0  0  0  0  0  0
    9.4861    0.4665   -5.3785 H   0  0  0  0  0  0  0  0  0  0  0  0
    8.6044   -0.8530   -6.1490 H   0  0  0  0  0  0  0  0  0  0  0  0
   -2.3436    0.8952   -1.5085 H   0  0  0  0  0  0  0  0  0  0  0  0
  1  7  1  0  0  0  0
  2  1  1  0  0  0  0
  2  8  1  0  0  0  0
  3  2  2  0  0  0  0
  4  5  2  0  0  0  0
  4  3  1  0  0  0  0
  5  6  1  0  0  0  0
  6 31  1  0  0  0  0
  6  1  2  0  0  0  0
  9  4  1  0  0  0  0
 10  5  1  0  0  0  0
 12 11  3  0  0  0  0
 13 18  2  0  0  0  0
 14 15  2  0  0  0  0
 14 13  1  0  0  0  0
 15 16  1  0  0  0  0
 16 21  1  0  0  0  0
 16 17  2  0  0  0  0
 17 22  1  0  0  0  0
 18 17  1  0  0  0  0
 18 23  1  0  0  0  0
 19 13  1  0  0  0  0
 20 14  1  0  0  0  0
 23 24  2  0  0  0  0
 25  3  1  0  0  0  0
 25 23  1  0  0  0  0
 26 23  2  0  0  0  0
 27 29  1  0  0  0  0
 27 15  1  0  0  0  0
 28 27  1  0  0  0  0
 30 27  1  0  0  0  0
M  END
