Coordinates from ORCA-job Ph-N2-OTs-B3LYPG-6-31G_dp-MTMO-d009-169-n800
 OpenBabel09051907493D

 31 30  0  0  0  0  0  0  0  0999 V2000
   -0.0350    0.0584   -1.3802 C   0  0  0  0  0  0  0  0  0  0  0  0
    0.6828    0.9920   -2.1536 C   0  0  0  0  0  0  0  0  0  0  0  0
    0.0662    2.0311   -2.5069 C   0  0  0  0  0  0  0  0  0  0  0  0
   -1.1840    2.5578   -2.3491 C   0  0  0  0  0  0  0  0  0  0  0  0
   -1.9236    1.6319   -1.5733 C   0  0  0  0  0  0  0  0  0  0  0  0
   -1.3656    0.4273   -1.1084 C   0  0  0  0  0  0  0  0  0  0  0  0
    0.3826   -0.8739   -1.0137 H   0  0  0  0  0  0  0  0  0  0  0  0
    2.5547    0.7388   -2.6713 H   0  0  0  0  0  0  0  0  0  0  0  0
   -1.5769    3.4940   -2.7216 H   0  0  0  0  0  0  0  0  0  0  0  0
   -2.9557    1.8742   -1.3340 H   0  0  0  0  0  0  0  0  0  0  0  0
    1.1262    4.5218   -4.0639 N   0  0  0  0  0  0  0  0  0  0  0  0
    1.9163    5.1623   -4.4954 N   0  0  0  0  0  0  0  0  0  0  0  0
    6.8053    1.3337   -3.0433 C   0  0  0  0  0  0  0  0  0  0  0  0
    8.0506    0.8083   -3.3829 C   0  0  0  0  0  0  0  0  0  0  0  0
    8.2617    0.1844   -4.6205 C   0  0  0  0  0  0  0  0  0  0  0  0
    7.1876    0.0970   -5.5197 C   0  0  0  0  0  0  0  0  0  0  0  0
    5.9362    0.6162   -5.1990 C   0  0  0  0  0  0  0  0  0  0  0  0
    5.7572    1.2273   -3.9570 C   0  0  0  0  0  0  0  0  0  0  0  0
    6.6429    1.8265   -2.0912 H   0  0  0  0  0  0  0  0  0  0  0  0
    8.8729    0.8871   -2.6765 H   0  0  0  0  0  0  0  0  0  0  0  0
    7.3352   -0.3812   -6.4844 H   0  0  0  0  0  0  0  0  0  0  0  0
    5.1086    0.5602   -5.8978 H   0  0  0  0  0  0  0  0  0  0  0  0
    4.1612    1.8964   -3.5340 S   0  0  0  0  0  0  0  0  0  0  0  0
    3.5065    0.5508   -2.8909 O   0  0  0  0  0  0  0  0  0  0  0  0
    3.4298    2.2354   -4.7571 O   0  0  0  0  0  0  0  0  0  0  0  0
    4.3195    2.9040   -2.4847 O   0  0  0  0  0  0  0  0  0  0  0  0
    9.6216   -0.3551   -4.9936 C   0  0  0  0  0  0  0  0  0  0  0  0
   10.1746    0.3678   -5.6066 H   0  0  0  0  0  0  0  0  0  0  0  0
   10.2267   -0.5641   -4.1072 H   0  0  0  0  0  0  0  0  0  0  0  0
    9.5395   -1.2779   -5.5761 H   0  0  0  0  0  0  0  0  0  0  0  0
   -1.9860   -0.2418   -0.5177 H   0  0  0  0  0  0  0  0  0  0  0  0
  1  6  1  0  0  0  0
  1  7  1  0  0  0  0
  2  1  2  0  0  0  0
  3  4  2  0  0  0  0
  3  2  1  0  0  0  0
  4  5  1  0  0  0  0
  5 10  1  0  0  0  0
  5  6  2  0  0  0  0
  6 31  1  0  0  0  0
  9  4  1  0  0  0  0
 12 11  3  0  0  0  0
 13 19  1  0  0  0  0
 14 13  1  0  0  0  0
 14 20  1  0  0  0  0
 15 14  2  0  0  0  0
 16 17  2  0  0  0  0
 16 15  1  0  0  0  0
 17 18  1  0  0  0  0
 18 23  1  0  0  0  0
 18 13  2  0  0  0  0
 21 16  1  0  0  0  0
 22 17  1  0  0  0  0
 23 24  1  0  0  0  0
 23 26  2  0  0  0  0
 24  8  1  0  0  0  0
 25 23  2  0  0  0  0
 27 15  1  0  0  0  0
 27 29  1  0  0  0  0
 28 27  1  0  0  0  0
 30 27  1  0  0  0  0
M  RAD  2   2   2   3   2
M  END
