Coordinates from ORCA-job Ph-N2-OTs-B3LYPG-6-31G_dp-MTMO-d009-169-n800
 OpenBabel09051907493D

 31 30  0  0  0  0  0  0  0  0999 V2000
   -0.0370    0.0547   -1.3781 C   0  0  0  0  0  0  0  0  0  0  0  0
    0.6801    0.9877   -2.1525 C   0  0  0  0  0  0  0  0  0  0  0  0
    0.0650    2.0276   -2.5059 C   0  0  0  0  0  0  0  0  0  0  0  0
   -1.1846    2.5557   -2.3468 C   0  0  0  0  0  0  0  0  0  0  0  0
   -1.9241    1.6305   -1.5698 C   0  0  0  0  0  0  0  0  0  0  0  0
   -1.3669    0.4254   -1.1052 C   0  0  0  0  0  0  0  0  0  0  0  0
    0.3799   -0.8779   -1.0117 H   0  0  0  0  0  0  0  0  0  0  0  0
    2.5542    0.7381   -2.6734 H   0  0  0  0  0  0  0  0  0  0  0  0
   -1.5772    3.4921   -2.7189 H   0  0  0  0  0  0  0  0  0  0  0  0
   -2.9557    1.8737   -1.3294 H   0  0  0  0  0  0  0  0  0  0  0  0
    1.1347    4.5322   -4.0743 N   0  0  0  0  0  0  0  0  0  0  0  0
    1.9238    5.1733   -4.5065 N   0  0  0  0  0  0  0  0  0  0  0  0
    6.8043    1.3330   -3.0431 C   0  0  0  0  0  0  0  0  0  0  0  0
    8.0498    0.8076   -3.3822 C   0  0  0  0  0  0  0  0  0  0  0  0
    8.2617    0.1846   -4.6201 C   0  0  0  0  0  0  0  0  0  0  0  0
    7.1883    0.0982   -5.5202 C   0  0  0  0  0  0  0  0  0  0  0  0
    5.9367    0.6173   -5.2000 C   0  0  0  0  0  0  0  0  0  0  0  0
    5.7569    1.2275   -3.9576 C   0  0  0  0  0  0  0  0  0  0  0  0
    6.6413    1.8251   -2.0908 H   0  0  0  0  0  0  0  0  0  0  0  0
    8.8716    0.8857   -2.6751 H   0  0  0  0  0  0  0  0  0  0  0  0
    7.3365   -0.3793   -6.4851 H   0  0  0  0  0  0  0  0  0  0  0  0
    5.1096    0.5621   -5.8995 H   0  0  0  0  0  0  0  0  0  0  0  0
    4.1607    1.8966   -3.5354 S   0  0  0  0  0  0  0  0  0  0  0  0
    3.5056    0.5503   -2.8938 O   0  0  0  0  0  0  0  0  0  0  0  0
    3.4303    2.2366   -4.7588 O   0  0  0  0  0  0  0  0  0  0  0  0
    4.3184    2.9032   -2.4851 O   0  0  0  0  0  0  0  0  0  0  0  0
    9.6217   -0.3549   -4.9926 C   0  0  0  0  0  0  0  0  0  0  0  0
   10.1753    0.3685   -5.6047 H   0  0  0  0  0  0  0  0  0  0  0  0
   10.2262   -0.5646   -4.1059 H   0  0  0  0  0  0  0  0  0  0  0  0
    9.5400   -1.2772   -5.5759 H   0  0  0  0  0  0  0  0  0  0  0  0
   -1.9876   -0.2427   -0.5136 H   0  0  0  0  0  0  0  0  0  0  0  0
  1  6  1  0  0  0  0
  1  7  1  0  0  0  0
  2  1  2  0  0  0  0
  3  4  2  0  0  0  0
  3  2  1  0  0  0  0
  4  5  1  0  0  0  0
  5 10  1  0  0  0  0
  5  6  2  0  0  0  0
  6 31  1  0  0  0  0
  9  4  1  0  0  0  0
 12 11  3  0  0  0  0
 13 19  1  0  0  0  0
 14 13  1  0  0  0  0
 14 20  1  0  0  0  0
 15 14  2  0  0  0  0
 16 17  2  0  0  0  0
 16 15  1  0  0  0  0
 17 18  1  0  0  0  0
 18 23  1  0  0  0  0
 18 13  2  0  0  0  0
 21 16  1  0  0  0  0
 22 17  1  0  0  0  0
 23 24  1  0  0  0  0
 23 26  2  0  0  0  0
 24  8  1  0  0  0  0
 25 23  2  0  0  0  0
 27 15  1  0  0  0  0
 27 29  1  0  0  0  0
 28 27  1  0  0  0  0
 30 27  1  0  0  0  0
M  RAD  2   2   2   3   2
M  END
