Coordinates from ORCA-job Ph-N2-OTs-B3LYPG-6-31G_dp-MTMO-d009-169-n800
 OpenBabel09051907503D

 31 31  0  0  0  0  0  0  0  0999 V2000
   -0.6626   -1.0635   -1.3935 C   0  0  0  0  0  0  0  0  0  0  0  0
    0.6313   -0.8303   -1.8608 C   0  0  0  0  0  0  0  0  0  0  0  0
    0.9435    0.4266   -2.3756 C   0  0  0  0  0  0  0  0  0  0  0  0
    0.0014    1.4523   -2.4268 C   0  0  0  0  0  0  0  0  0  0  0  0
   -1.2888    1.2051   -1.9566 C   0  0  0  0  0  0  0  0  0  0  0  0
   -1.6223   -0.0496   -1.4410 C   0  0  0  0  0  0  0  0  0  0  0  0
   -0.9191   -2.0385   -0.9902 H   0  0  0  0  0  0  0  0  0  0  0  0
    1.3947   -1.5996   -1.8307 H   0  0  0  0  0  0  0  0  0  0  0  0
    0.2860    2.4182   -2.8281 H   0  0  0  0  0  0  0  0  0  0  0  0
   -2.0328    1.9955   -1.9926 H   0  0  0  0  0  0  0  0  0  0  0  0
   12.3669    4.7984   -7.2185 N   0  0  0  0  0  0  0  0  0  0  0  0
   11.3781    4.3997   -6.9269 N   0  0  0  0  0  0  0  0  0  0  0  0
    4.9783    2.5028   -3.6870 C   0  0  0  0  0  0  0  0  0  0  0  0
    6.0366    2.5622   -4.5902 C   0  0  0  0  0  0  0  0  0  0  0  0
    6.8426    1.4412   -4.8397 C   0  0  0  0  0  0  0  0  0  0  0  0
    6.5691    0.2516   -4.1482 C   0  0  0  0  0  0  0  0  0  0  0  0
    5.5169    0.1713   -3.2394 C   0  0  0  0  0  0  0  0  0  0  0  0
    4.7266    1.3010   -3.0237 C   0  0  0  0  0  0  0  0  0  0  0  0
    4.3634    3.3723   -3.4832 H   0  0  0  0  0  0  0  0  0  0  0  0
    6.2445    3.4956   -5.1060 H   0  0  0  0  0  0  0  0  0  0  0  0
    7.1924   -0.6220   -4.3192 H   0  0  0  0  0  0  0  0  0  0  0  0
    5.3165   -0.7440   -2.6935 H   0  0  0  0  0  0  0  0  0  0  0  0
    3.3871    1.2159   -1.8547 S   0  0  0  0  0  0  0  0  0  0  0  0
    3.6527    0.1735   -0.8660 O   0  0  0  0  0  0  0  0  0  0  0  0
    2.2227    0.6471   -2.9145 O   0  0  0  0  0  0  0  0  0  0  0  0
    3.0077    2.5625   -1.4334 O   0  0  0  0  0  0  0  0  0  0  0  0
    7.9658    1.5087   -5.8454 C   0  0  0  0  0  0  0  0  0  0  0  0
    8.4296    2.4992   -5.8670 H   0  0  0  0  0  0  0  0  0  0  0  0
    8.7438    0.7719   -5.6270 H   0  0  0  0  0  0  0  0  0  0  0  0
    7.5943    1.3020   -6.8569 H   0  0  0  0  0  0  0  0  0  0  0  0
   -2.6274   -0.2364   -1.0753 H   0  0  0  0  0  0  0  0  0  0  0  0
  1  7  1  0  0  0  0
  2  8  1  0  0  0  0
  2  1  2  0  0  0  0
  3  2  1  0  0  0  0
  4  3  2  0  0  0  0
  4  5  1  0  0  0  0
  5  6  2  0  0  0  0
  6  1  1  0  0  0  0
  6 31  1  0  0  0  0
  9  4  1  0  0  0  0
 10  5  1  0  0  0  0
 11 12  3  0  0  0  0
 13 19  1  0  0  0  0
 13 18  2  0  0  0  0
 14 13  1  0  0  0  0
 15 14  2  0  0  0  0
 15 16  1  0  0  0  0
 16 17  2  0  0  0  0
 17 18  1  0  0  0  0
 17 22  1  0  0  0  0
 18 23  1  0  0  0  0
 20 14  1  0  0  0  0
 21 16  1  0  0  0  0
 23 26  2  0  0  0  0
 23 24  2  0  0  0  0
 25  3  1  0  0  0  0
 25 23  1  0  0  0  0
 27 29  1  0  0  0  0
 27 15  1  0  0  0  0
 28 27  1  0  0  0  0
 30 27  1  0  0  0  0
M  END
