Coordinates from ORCA-job Ph-N2-OTs-B3LYPG-6-31G_dp-MTMO-d009-169-n800
 OpenBabel09051907503D

 31 31  0  0  0  0  0  0  0  0999 V2000
   -0.5790    0.2068   -1.7396 C   0  0  0  0  0  0  0  0  0  0  0  0
    0.7356    0.0308   -2.1734 C   0  0  0  0  0  0  0  0  0  0  0  0
    1.4815    1.1544   -2.5258 C   0  0  0  0  0  0  0  0  0  0  0  0
    0.9509    2.4404   -2.4509 C   0  0  0  0  0  0  0  0  0  0  0  0
   -0.3665    2.6007   -2.0200 C   0  0  0  0  0  0  0  0  0  0  0  0
   -1.1314    1.4876   -1.6637 C   0  0  0  0  0  0  0  0  0  0  0  0
   -1.1712   -0.6597   -1.4612 H   0  0  0  0  0  0  0  0  0  0  0  0
    1.1871   -0.9525   -2.2390 H   0  0  0  0  0  0  0  0  0  0  0  0
    1.5668    3.2874   -2.7306 H   0  0  0  0  0  0  0  0  0  0  0  0
   -0.7930    3.5977   -1.9593 H   0  0  0  0  0  0  0  0  0  0  0  0
    3.1454    2.9536   -6.4477 N   0  0  0  0  0  0  0  0  0  0  0  0
    3.2627    3.3486   -5.4222 N   0  0  0  0  0  0  0  0  0  0  0  0
    5.9529    2.0041   -3.4273 C   0  0  0  0  0  0  0  0  0  0  0  0
    7.0215    1.9771   -4.3185 C   0  0  0  0  0  0  0  0  0  0  0  0
    7.5095    0.7648   -4.8314 C   0  0  0  0  0  0  0  0  0  0  0  0
    6.9037   -0.4301   -4.4189 C   0  0  0  0  0  0  0  0  0  0  0  0
    5.8325   -0.4256   -3.5273 C   0  0  0  0  0  0  0  0  0  0  0  0
    5.3648    0.7963   -3.0453 C   0  0  0  0  0  0  0  0  0  0  0  0
    5.5845    2.9390   -3.0205 H   0  0  0  0  0  0  0  0  0  0  0  0
    7.4893    2.9112   -4.6174 H   0  0  0  0  0  0  0  0  0  0  0  0
    7.2783   -1.3772   -4.7962 H   0  0  0  0  0  0  0  0  0  0  0  0
    5.3728   -1.3502   -3.1968 H   0  0  0  0  0  0  0  0  0  0  0  0
    4.0034    0.8167   -1.8991 S   0  0  0  0  0  0  0  0  0  0  0  0
    3.8638   -0.4964   -1.2727 O   0  0  0  0  0  0  0  0  0  0  0  0
    2.7830    0.9923   -3.0319 O   0  0  0  0  0  0  0  0  0  0  0  0
    4.0500    2.0287   -1.0856 O   0  0  0  0  0  0  0  0  0  0  0  0
    8.6520    0.7550   -5.8173 C   0  0  0  0  0  0  0  0  0  0  0  0
    8.3040    1.0300   -6.8206 H   0  0  0  0  0  0  0  0  0  0  0  0
    9.4272    1.4746   -5.5366 H   0  0  0  0  0  0  0  0  0  0  0  0
    9.1126   -0.2336   -5.8884 H   0  0  0  0  0  0  0  0  0  0  0  0
   -2.1550    1.6181   -1.3264 H   0  0  0  0  0  0  0  0  0  0  0  0
  1  6  1  0  0  0  0
  1  7  1  0  0  0  0
  2  1  2  0  0  0  0
  3  4  2  0  0  0  0
  3  2  1  0  0  0  0
  4  5  1  0  0  0  0
  5 10  1  0  0  0  0
  5  6  2  0  0  0  0
  6 31  1  0  0  0  0
  8  2  1  0  0  0  0
  9  4  1  0  0  0  0
 11 12  3  0  0  0  0
 13 18  1  0  0  0  0
 13 19  1  0  0  0  0
 14 13  2  0  0  0  0
 15 16  2  0  0  0  0
 15 14  1  0  0  0  0
 16 17  1  0  0  0  0
 17 22  1  0  0  0  0
 17 18  2  0  0  0  0
 18 23  1  0  0  0  0
 20 14  1  0  0  0  0
 21 16  1  0  0  0  0
 23 24  2  0  0  0  0
 23 26  2  0  0  0  0
 25  3  1  0  0  0  0
 25 23  1  0  0  0  0
 27 29  1  0  0  0  0
 27 15  1  0  0  0  0
 28 27  1  0  0  0  0
 30 27  1  0  0  0  0
M  END
