Coordinates from ORCA-job Ph-N2-OTs-B3LYPG-6-31G_dp-MTMO-d009-169-n800
 OpenBabel09051907503D

 31 31  0  0  0  0  0  0  0  0999 V2000
   -0.4339   -0.1256   -1.6237 C   0  0  0  0  0  0  0  0  0  0  0  0
    0.8887   -0.1809   -2.0647 C   0  0  0  0  0  0  0  0  0  0  0  0
    1.4444    0.9464   -2.6662 C   0  0  0  0  0  0  0  0  0  0  0  0
    0.7186    2.1255   -2.8282 C   0  0  0  0  0  0  0  0  0  0  0  0
   -0.6024    2.1670   -2.3803 C   0  0  0  0  0  0  0  0  0  0  0  0
   -1.1799    1.0451   -1.7806 C   0  0  0  0  0  0  0  0  0  0  0  0
   -0.8795   -0.9981   -1.1551 H   0  0  0  0  0  0  0  0  0  0  0  0
    1.4908   -1.0752   -1.9495 H   0  0  0  0  0  0  0  0  0  0  0  0
    1.1892    2.9851   -3.2917 H   0  0  0  0  0  0  0  0  0  0  0  0
   -1.1801    3.0787   -2.5012 H   0  0  0  0  0  0  0  0  0  0  0  0
    4.1890    5.7382   -3.9347 N   0  0  0  0  0  0  0  0  0  0  0  0
    3.1182    5.4902   -3.8196 N   0  0  0  0  0  0  0  0  0  0  0  0
    5.8460    2.0116   -4.0871 C   0  0  0  0  0  0  0  0  0  0  0  0
    6.9201    1.7053   -4.9194 C   0  0  0  0  0  0  0  0  0  0  0  0
    7.4883    0.4228   -4.9302 C   0  0  0  0  0  0  0  0  0  0  0  0
    6.9586   -0.5528   -4.0722 C   0  0  0  0  0  0  0  0  0  0  0  0
    5.8865   -0.2670   -3.2309 C   0  0  0  0  0  0  0  0  0  0  0  0
    5.3365    1.0157   -3.2533 C   0  0  0  0  0  0  0  0  0  0  0  0
    5.4169    3.0069   -4.0688 H   0  0  0  0  0  0  0  0  0  0  0  0
    7.3285    2.4773   -5.5657 H   0  0  0  0  0  0  0  0  0  0  0  0
    7.3969   -1.5468   -4.0570 H   0  0  0  0  0  0  0  0  0  0  0  0
    5.4894   -1.0169   -2.5557 H   0  0  0  0  0  0  0  0  0  0  0  0
    3.9770    1.3972   -2.1695 S   0  0  0  0  0  0  0  0  0  0  0  0
    4.0125    0.5277   -0.9961 O   0  0  0  0  0  0  0  0  0  0  0  0
    2.7520    0.8670   -3.1771 O   0  0  0  0  0  0  0  0  0  0  0  0
    3.8558    2.8463   -2.0180 O   0  0  0  0  0  0  0  0  0  0  0  0
    8.6332    0.0952   -5.8578 C   0  0  0  0  0  0  0  0  0  0  0  0
    8.2604   -0.2643   -6.8247 H   0  0  0  0  0  0  0  0  0  0  0  0
    9.2527    0.9747   -6.0547 H   0  0  0  0  0  0  0  0  0  0  0  0
    9.2732   -0.6892   -5.4435 H   0  0  0  0  0  0  0  0  0  0  0  0
   -2.2081    1.0834   -1.4346 H   0  0  0  0  0  0  0  0  0  0  0  0
  1  7  1  0  0  0  0
  2  8  1  0  0  0  0
  2  1  2  0  0  0  0
  3  2  1  0  0  0  0
  4  3  2  0  0  0  0
  4  5  1  0  0  0  0
  5  6  2  0  0  0  0
  6  1  1  0  0  0  0
  6 31  1  0  0  0  0
  9  4  1  0  0  0  0
 10  5  1  0  0  0  0
 11 12  3  0  0  0  0
 13 19  1  0  0  0  0
 13 18  2  0  0  0  0
 14 13  1  0  0  0  0
 15 14  2  0  0  0  0
 15 16  1  0  0  0  0
 16 21  1  0  0  0  0
 16 17  2  0  0  0  0
 17 22  1  0  0  0  0
 18 17  1  0  0  0  0
 18 23  1  0  0  0  0
 20 14  1  0  0  0  0
 23 26  2  0  0  0  0
 23 24  2  0  0  0  0
 25  3  1  0  0  0  0
 25 23  1  0  0  0  0
 27 30  1  0  0  0  0
 27 15  1  0  0  0  0
 28 27  1  0  0  0  0
 29 27  1  0  0  0  0
M  END
