Coordinates from ORCA-job Ph-N2-OTs-B3LYPG-6-31G_dp-MTMO-d009-169-n800
 OpenBabel09051907503D

 31 31  0  0  0  0  0  0  0  0999 V2000
   -0.4264   -0.0125   -1.1699 C   0  0  0  0  0  0  0  0  0  0  0  0
    0.9068   -0.0822   -1.5768 C   0  0  0  0  0  0  0  0  0  0  0  0
    1.3222    0.7072   -2.6482 C   0  0  0  0  0  0  0  0  0  0  0  0
    0.4431    1.5569   -3.3163 C   0  0  0  0  0  0  0  0  0  0  0  0
   -0.8888    1.6094   -2.9042 C   0  0  0  0  0  0  0  0  0  0  0  0
   -1.3243    0.8285   -1.8311 C   0  0  0  0  0  0  0  0  0  0  0  0
   -0.7626   -0.6185   -0.3337 H   0  0  0  0  0  0  0  0  0  0  0  0
    1.6212   -0.7259   -1.0773 H   0  0  0  0  0  0  0  0  0  0  0  0
    0.8081    2.1565   -4.1429 H   0  0  0  0  0  0  0  0  0  0  0  0
   -1.5842    2.2651   -3.4198 H   0  0  0  0  0  0  0  0  0  0  0  0
    5.6443    6.6426   -2.9392 N   0  0  0  0  0  0  0  0  0  0  0  0
    5.5453    5.7719   -3.6124 N   0  0  0  0  0  0  0  0  0  0  0  0
    5.6188    2.0456   -4.2085 C   0  0  0  0  0  0  0  0  0  0  0  0
    6.7019    1.7676   -5.0402 C   0  0  0  0  0  0  0  0  0  0  0  0
    7.3522    0.5261   -4.9964 C   0  0  0  0  0  0  0  0  0  0  0  0
    6.8900   -0.4424   -4.0915 C   0  0  0  0  0  0  0  0  0  0  0  0
    5.8136   -0.1838   -3.2478 C   0  0  0  0  0  0  0  0  0  0  0  0
    5.1847    1.0608   -3.3211 C   0  0  0  0  0  0  0  0  0  0  0  0
    5.1245    3.0099   -4.2345 H   0  0  0  0  0  0  0  0  0  0  0  0
    7.0492    2.5297   -5.7325 H   0  0  0  0  0  0  0  0  0  0  0  0
    7.3834   -1.4092   -4.0452 H   0  0  0  0  0  0  0  0  0  0  0  0
    5.4685   -0.9283   -2.5387 H   0  0  0  0  0  0  0  0  0  0  0  0
    3.8167    1.4097   -2.2379 S   0  0  0  0  0  0  0  0  0  0  0  0
    3.9930    0.7004   -0.9718 O   0  0  0  0  0  0  0  0  0  0  0  0
    2.6420    0.6105   -3.1215 O   0  0  0  0  0  0  0  0  0  0  0  0
    3.5182    2.8397   -2.2524 O   0  0  0  0  0  0  0  0  0  0  0  0
    8.5453    0.2479   -5.8784 C   0  0  0  0  0  0  0  0  0  0  0  0
    8.5103    0.8377   -6.7980 H   0  0  0  0  0  0  0  0  0  0  0  0
    9.4788    0.5030   -5.3614 H   0  0  0  0  0  0  0  0  0  0  0  0
    8.6041   -0.8094   -6.1517 H   0  0  0  0  0  0  0  0  0  0  0  0
   -2.3605    0.8763   -1.5101 H   0  0  0  0  0  0  0  0  0  0  0  0
  1  7  1  0  0  0  0
  2  1  1  0  0  0  0
  2  8  1  0  0  0  0
  3  2  2  0  0  0  0
  4  5  2  0  0  0  0
  4  3  1  0  0  0  0
  5  6  1  0  0  0  0
  6 31  1  0  0  0  0
  6  1  2  0  0  0  0
  9  4  1  0  0  0  0
 10  5  1  0  0  0  0
 12 11  3  0  0  0  0
 13 18  2  0  0  0  0
 14 15  2  0  0  0  0
 14 13  1  0  0  0  0
 15 16  1  0  0  0  0
 16 21  1  0  0  0  0
 16 17  2  0  0  0  0
 17 22  1  0  0  0  0
 18 17  1  0  0  0  0
 18 23  1  0  0  0  0
 19 13  1  0  0  0  0
 20 14  1  0  0  0  0
 23 24  2  0  0  0  0
 25  3  1  0  0  0  0
 25 23  1  0  0  0  0
 26 23  2  0  0  0  0
 27 29  1  0  0  0  0
 27 15  1  0  0  0  0
 28 27  1  0  0  0  0
 30 27  1  0  0  0  0
M  END
