Coordinates from ORCA-job Ph-N2-OTs-B3LYPG-6-31G_dp-MTMO-d009-169-n800
 OpenBabel09051907493D

 31 30  0  0  0  0  0  0  0  0999 V2000
    0.0090    0.0857   -1.4643 C   0  0  0  0  0  0  0  0  0  0  0  0
    0.6879    1.0780   -2.2013 C   0  0  0  0  0  0  0  0  0  0  0  0
    0.0408    2.1305   -2.4485 C   0  0  0  0  0  0  0  0  0  0  0  0
   -1.2057    2.6288   -2.2013 C   0  0  0  0  0  0  0  0  0  0  0  0
   -1.9017    1.6422   -1.4609 C   0  0  0  0  0  0  0  0  0  0  0  0
   -1.3112    0.4156   -1.1075 C   0  0  0  0  0  0  0  0  0  0  0  0
    0.4513   -0.8652   -1.1842 H   0  0  0  0  0  0  0  0  0  0  0  0
    2.5108    0.8006   -2.8000 H   0  0  0  0  0  0  0  0  0  0  0  0
   -1.6233    3.5833   -2.4915 H   0  0  0  0  0  0  0  0  0  0  0  0
   -2.9245    1.8538   -1.1610 H   0  0  0  0  0  0  0  0  0  0  0  0
    1.0977    4.4475   -3.8409 N   0  0  0  0  0  0  0  0  0  0  0  0
    1.9362    5.0486   -4.2363 N   0  0  0  0  0  0  0  0  0  0  0  0
    6.7316    1.3646   -3.1164 C   0  0  0  0  0  0  0  0  0  0  0  0
    7.9948    0.8361   -3.3747 C   0  0  0  0  0  0  0  0  0  0  0  0
    8.2705    0.1706   -4.5777 C   0  0  0  0  0  0  0  0  0  0  0  0
    7.2433    0.0449   -5.5253 C   0  0  0  0  0  0  0  0  0  0  0  0
    5.9747    0.5667   -5.2860 C   0  0  0  0  0  0  0  0  0  0  0  0
    5.7309    1.2196   -4.0769 C   0  0  0  0  0  0  0  0  0  0  0  0
    6.5198    1.8893   -2.1915 H   0  0  0  0  0  0  0  0  0  0  0  0
    8.7801    0.9454   -2.6312 H   0  0  0  0  0  0  0  0  0  0  0  0
    7.4414   -0.4658   -6.4640 H   0  0  0  0  0  0  0  0  0  0  0  0
    5.1832    0.4809   -6.0226 H   0  0  0  0  0  0  0  0  0  0  0  0
    4.1121    1.8922   -3.7589 S   0  0  0  0  0  0  0  0  0  0  0  0
    3.4447    0.5786   -3.0667 O   0  0  0  0  0  0  0  0  0  0  0  0
    3.4345    2.1569   -5.0295 O   0  0  0  0  0  0  0  0  0  0  0  0
    4.2125    2.9581   -2.7601 O   0  0  0  0  0  0  0  0  0  0  0  0
    9.6505   -0.3713   -4.8634 C   0  0  0  0  0  0  0  0  0  0  0  0
   10.2385    0.3458   -5.4502 H   0  0  0  0  0  0  0  0  0  0  0  0
   10.2024   -0.5691   -3.9404 H   0  0  0  0  0  0  0  0  0  0  0  0
    9.6044   -1.3007   -5.4390 H   0  0  0  0  0  0  0  0  0  0  0  0
   -1.8975   -0.3019   -0.5394 H   0  0  0  0  0  0  0  0  0  0  0  0
  1  7  1  0  0  0  0
  1  6  1  0  0  0  0
  2  1  2  0  0  0  0
  3  4  2  0  0  0  0
  3  2  1  0  0  0  0
  4  5  1  0  0  0  0
  5 10  1  0  0  0  0
  5  6  2  0  0  0  0
  6 31  1  0  0  0  0
  9  4  1  0  0  0  0
 12 11  3  0  0  0  0
 13 19  1  0  0  0  0
 14 13  1  0  0  0  0
 14 20  1  0  0  0  0
 15 14  2  0  0  0  0
 16 17  2  0  0  0  0
 16 15  1  0  0  0  0
 17 18  1  0  0  0  0
 18 23  1  0  0  0  0
 18 13  2  0  0  0  0
 21 16  1  0  0  0  0
 22 17  1  0  0  0  0
 23 24  1  0  0  0  0
 23 26  2  0  0  0  0
 24  8  1  0  0  0  0
 25 23  2  0  0  0  0
 27 15  1  0  0  0  0
 27 29  1  0  0  0  0
 28 27  1  0  0  0  0
 30 27  1  0  0  0  0
M  RAD  2   2   2   3   2
M  END
