Coordinates from ORCA-job Ph-N2-OTs-B3LYPG-6-31G_dp-MTMO-d009-169-n800
 OpenBabel09051907503D

 31 31  0  0  0  0  0  0  0  0999 V2000
   -0.6874   -1.0705   -1.3965 C   0  0  0  0  0  0  0  0  0  0  0  0
    0.6084   -0.8395   -1.8599 C   0  0  0  0  0  0  0  0  0  0  0  0
    0.9256    0.4185   -2.3690 C   0  0  0  0  0  0  0  0  0  0  0  0
   -0.0132    1.4473   -2.4182 C   0  0  0  0  0  0  0  0  0  0  0  0
   -1.3052    1.2023   -1.9518 C   0  0  0  0  0  0  0  0  0  0  0  0
   -1.6437   -0.0535   -1.4420 C   0  0  0  0  0  0  0  0  0  0  0  0
   -0.9477   -2.0463   -0.9977 H   0  0  0  0  0  0  0  0  0  0  0  0
    1.3693   -1.6113   -1.8312 H   0  0  0  0  0  0  0  0  0  0  0  0
    0.2752    2.4140   -2.8150 H   0  0  0  0  0  0  0  0  0  0  0  0
   -2.0467    1.9951   -1.9863 H   0  0  0  0  0  0  0  0  0  0  0  0
   12.6249    4.9057   -7.3815 N   0  0  0  0  0  0  0  0  0  0  0  0
   11.6318    4.5169   -7.0912 N   0  0  0  0  0  0  0  0  0  0  0  0
    4.9603    2.4921   -3.6681 C   0  0  0  0  0  0  0  0  0  0  0  0
    6.0186    2.5548   -4.5711 C   0  0  0  0  0  0  0  0  0  0  0  0
    6.8265    1.4356   -4.8221 C   0  0  0  0  0  0  0  0  0  0  0  0
    6.5552    0.2443   -4.1325 C   0  0  0  0  0  0  0  0  0  0  0  0
    5.5029    0.1607   -3.2243 C   0  0  0  0  0  0  0  0  0  0  0  0
    4.7106    1.2888   -3.0069 C   0  0  0  0  0  0  0  0  0  0  0  0
    4.3438    3.3602   -3.4631 H   0  0  0  0  0  0  0  0  0  0  0  0
    6.2250    3.4893   -5.0854 H   0  0  0  0  0  0  0  0  0  0  0  0
    7.1802   -0.6279   -4.3047 H   0  0  0  0  0  0  0  0  0  0  0  0
    5.3037   -0.7558   -2.6799 H   0  0  0  0  0  0  0  0  0  0  0  0
    3.3700    1.1992   -1.8396 S   0  0  0  0  0  0  0  0  0  0  0  0
    3.6335    0.1516   -0.8559 O   0  0  0  0  0  0  0  0  0  0  0  0
    2.2067    0.6370   -2.9040 O   0  0  0  0  0  0  0  0  0  0  0  0
    2.9913    2.5440   -1.4121 O   0  0  0  0  0  0  0  0  0  0  0  0
    7.9500    1.5068   -5.8272 C   0  0  0  0  0  0  0  0  0  0  0  0
    8.3958    2.5049   -5.8628 H   0  0  0  0  0  0  0  0  0  0  0  0
    8.7405    0.7872   -5.5964 H   0  0  0  0  0  0  0  0  0  0  0  0
    7.5842    1.2779   -6.8360 H   0  0  0  0  0  0  0  0  0  0  0  0
   -2.6503   -0.2385   -1.0792 H   0  0  0  0  0  0  0  0  0  0  0  0
  1  7  1  0  0  0  0
  2  8  1  0  0  0  0
  2  1  2  0  0  0  0
  3  2  1  0  0  0  0
  4  3  2  0  0  0  0
  4  5  1  0  0  0  0
  5  6  2  0  0  0  0
  6  1  1  0  0  0  0
  6 31  1  0  0  0  0
  9  4  1  0  0  0  0
 10  5  1  0  0  0  0
 11 12  3  0  0  0  0
 13 19  1  0  0  0  0
 13 18  2  0  0  0  0
 14 13  1  0  0  0  0
 15 14  2  0  0  0  0
 15 16  1  0  0  0  0
 16 17  2  0  0  0  0
 17 18  1  0  0  0  0
 17 22  1  0  0  0  0
 18 23  1  0  0  0  0
 20 14  1  0  0  0  0
 21 16  1  0  0  0  0
 23 26  2  0  0  0  0
 23 24  2  0  0  0  0
 25  3  1  0  0  0  0
 25 23  1  0  0  0  0
 27 29  1  0  0  0  0
 27 15  1  0  0  0  0
 28 27  1  0  0  0  0
 30 27  1  0  0  0  0
M  END
