Coordinates from ORCA-job Ph-N2-OTs-B3LYPG-6-31G_dp-MTMO-d009-169-n800
 OpenBabel09051907503D

 31 31  0  0  0  0  0  0  0  0999 V2000
   -0.6253   -0.2939   -1.3292 C   0  0  0  0  0  0  0  0  0  0  0  0
    0.7152   -0.3605   -1.7118 C   0  0  0  0  0  0  0  0  0  0  0  0
    1.2169    0.6182   -2.5690 C   0  0  0  0  0  0  0  0  0  0  0  0
    0.4156    1.6522   -3.0482 C   0  0  0  0  0  0  0  0  0  0  0  0
   -0.9251    1.7007   -2.6649 C   0  0  0  0  0  0  0  0  0  0  0  0
   -1.4462    0.7314   -1.8044 C   0  0  0  0  0  0  0  0  0  0  0  0
   -1.0279   -1.0483   -0.6595 H   0  0  0  0  0  0  0  0  0  0  0  0
    1.3700   -1.1470   -1.3550 H   0  0  0  0  0  0  0  0  0  0  0  0
    0.8461    2.3965   -3.7092 H   0  0  0  0  0  0  0  0  0  0  0  0
   -1.5601    2.5001   -3.0351 H   0  0  0  0  0  0  0  0  0  0  0  0
    7.0206    6.8502   -5.3226 N   0  0  0  0  0  0  0  0  0  0  0  0
    6.9710    5.7463   -5.3183 N   0  0  0  0  0  0  0  0  0  0  0  0
    5.5337    2.0741   -3.7348 C   0  0  0  0  0  0  0  0  0  0  0  0
    6.6131    1.9881   -4.6102 C   0  0  0  0  0  0  0  0  0  0  0  0
    7.2678    0.7675   -4.8351 C   0  0  0  0  0  0  0  0  0  0  0  0
    6.8145   -0.3732   -4.1565 C   0  0  0  0  0  0  0  0  0  0  0  0
    5.7392   -0.3076   -3.2734 C   0  0  0  0  0  0  0  0  0  0  0  0
    5.1057    0.9200   -3.0769 C   0  0  0  0  0  0  0  0  0  0  0  0
    5.0321    3.0180   -3.5527 H   0  0  0  0  0  0  0  0  0  0  0  0
    6.9521    2.8840   -5.1223 H   0  0  0  0  0  0  0  0  0  0  0  0
    7.3123   -1.3251   -4.3192 H   0  0  0  0  0  0  0  0  0  0  0  0
    5.3991   -1.1875   -2.7391 H   0  0  0  0  0  0  0  0  0  0  0  0
    3.7331    1.0242   -1.9496 S   0  0  0  0  0  0  0  0  0  0  0  0
    3.8605   -0.0031   -0.9175 O   0  0  0  0  0  0  0  0  0  0  0  0
    2.5441    0.5411   -3.0236 O   0  0  0  0  0  0  0  0  0  0  0  0
    3.4878    2.4174   -1.5856 O   0  0  0  0  0  0  0  0  0  0  0  0
    8.4533    0.6938   -5.7665 C   0  0  0  0  0  0  0  0  0  0  0  0
    8.3187    1.3434   -6.6364 H   0  0  0  0  0  0  0  0  0  0  0  0
    9.3694    1.0192   -5.2582 H   0  0  0  0  0  0  0  0  0  0  0  0
    8.6208   -0.3255   -6.1232 H   0  0  0  0  0  0  0  0  0  0  0  0
   -2.4885    0.7760   -1.5036 H   0  0  0  0  0  0  0  0  0  0  0  0
  1  7  1  0  0  0  0
  2  8  1  0  0  0  0
  2  1  1  0  0  0  0
  3  2  2  0  0  0  0
  4  5  2  0  0  0  0
  4  3  1  0  0  0  0
  5  6  1  0  0  0  0
  6 31  1  0  0  0  0
  6  1  2  0  0  0  0
  9  4  1  0  0  0  0
 10  5  1  0  0  0  0
 11 12  3  0  0  0  0
 13 19  1  0  0  0  0
 13 18  2  0  0  0  0
 14 13  1  0  0  0  0
 15 14  2  0  0  0  0
 15 16  1  0  0  0  0
 16 17  2  0  0  0  0
 17 18  1  0  0  0  0
 17 22  1  0  0  0  0
 18 23  1  0  0  0  0
 20 14  1  0  0  0  0
 21 16  1  0  0  0  0
 23 26  2  0  0  0  0
 23 24  2  0  0  0  0
 25  3  1  0  0  0  0
 25 23  1  0  0  0  0
 27 29  1  0  0  0  0
 27 15  1  0  0  0  0
 28 27  1  0  0  0  0
 30 27  1  0  0  0  0
M  END
