Coordinates from ORCA-job Ph-N2-OTs-B3LYPG-6-31G_dp-MTMO-d009-169-n800
 OpenBabel09051907503D

 31 31  0  0  0  0  0  0  0  0999 V2000
   -0.5661    0.1987   -1.6582 C   0  0  0  0  0  0  0  0  0  0  0  0
    0.7484    0.0131   -2.0885 C   0  0  0  0  0  0  0  0  0  0  0  0
    1.4767    1.1226   -2.5152 C   0  0  0  0  0  0  0  0  0  0  0  0
    0.9283    2.4032   -2.5190 C   0  0  0  0  0  0  0  0  0  0  0  0
   -0.3890    2.5725   -2.0919 C   0  0  0  0  0  0  0  0  0  0  0  0
   -1.1362    1.4739   -1.6606 C   0  0  0  0  0  0  0  0  0  0  0  0
   -1.1446   -0.6565   -1.3221 H   0  0  0  0  0  0  0  0  0  0  0  0
    1.2128   -0.9663   -2.0944 H   0  0  0  0  0  0  0  0  0  0  0  0
    1.5312    3.2384   -2.8568 H   0  0  0  0  0  0  0  0  0  0  0  0
   -0.8298    3.5652   -2.0929 H   0  0  0  0  0  0  0  0  0  0  0  0
    3.3434    3.2591   -6.5164 N   0  0  0  0  0  0  0  0  0  0  0  0
    3.2638    3.5348   -5.4491 N   0  0  0  0  0  0  0  0  0  0  0  0
    5.9482    1.9881   -3.4174 C   0  0  0  0  0  0  0  0  0  0  0  0
    7.0138    1.9647   -4.3123 C   0  0  0  0  0  0  0  0  0  0  0  0
    7.4982    0.7546   -4.8336 C   0  0  0  0  0  0  0  0  0  0  0  0
    6.8924   -0.4417   -4.4254 C   0  0  0  0  0  0  0  0  0  0  0  0
    5.8245   -0.4408   -3.5299 C   0  0  0  0  0  0  0  0  0  0  0  0
    5.3597    0.7792   -3.0399 C   0  0  0  0  0  0  0  0  0  0  0  0
    5.5824    2.9211   -3.0035 H   0  0  0  0  0  0  0  0  0  0  0  0
    7.4821    2.8997   -4.6075 H   0  0  0  0  0  0  0  0  0  0  0  0
    7.2645   -1.3873   -4.8091 H   0  0  0  0  0  0  0  0  0  0  0  0
    5.3651   -1.3667   -3.2026 H   0  0  0  0  0  0  0  0  0  0  0  0
    4.0017    0.7956   -1.8895 S   0  0  0  0  0  0  0  0  0  0  0  0
    3.8769   -0.5142   -1.2530 O   0  0  0  0  0  0  0  0  0  0  0  0
    2.7777    0.9511   -3.0196 O   0  0  0  0  0  0  0  0  0  0  0  0
    4.0401    2.0136   -1.0846 O   0  0  0  0  0  0  0  0  0  0  0  0
    8.6371    0.7487   -5.8238 C   0  0  0  0  0  0  0  0  0  0  0  0
    8.2852    1.0267   -6.8248 H   0  0  0  0  0  0  0  0  0  0  0  0
    9.4130    1.4678   -5.5436 H   0  0  0  0  0  0  0  0  0  0  0  0
    9.0979   -0.2395   -5.8999 H   0  0  0  0  0  0  0  0  0  0  0  0
   -2.1599    1.6114   -1.3265 H   0  0  0  0  0  0  0  0  0  0  0  0
  1  7  1  0  0  0  0
  2  1  2  0  0  0  0
  3  2  1  0  0  0  0
  4  3  2  0  0  0  0
  4  5  1  0  0  0  0
  5  6  2  0  0  0  0
  6  1  1  0  0  0  0
  6 31  1  0  0  0  0
  8  2  1  0  0  0  0
  9  4  1  0  0  0  0
 10  5  1  0  0  0  0
 11 12  3  0  0  0  0
 13 18  1  0  0  0  0
 13 19  1  0  0  0  0
 14 13  2  0  0  0  0
 15 16  2  0  0  0  0
 15 14  1  0  0  0  0
 16 17  1  0  0  0  0
 17 22  1  0  0  0  0
 17 18  2  0  0  0  0
 18 23  1  0  0  0  0
 20 14  1  0  0  0  0
 21 16  1  0  0  0  0
 23 24  2  0  0  0  0
 23 26  2  0  0  0  0
 25  3  1  0  0  0  0
 25 23  1  0  0  0  0
 27 29  1  0  0  0  0
 27 15  1  0  0  0  0
 28 27  1  0  0  0  0
 30 27  1  0  0  0  0
M  END
