Coordinates from ORCA-job Ph-N2-OTs-B3LYPG-6-31G_dp-MTMO-d009-169-n800
 OpenBabel09051907503D

 31 31  0  0  0  0  0  0  0  0999 V2000
   -0.8494   -1.0927   -1.3510 C   0  0  0  0  0  0  0  0  0  0  0  0
    0.4532   -0.8830   -1.8052 C   0  0  0  0  0  0  0  0  0  0  0  0
    0.7952    0.3701   -2.3103 C   0  0  0  0  0  0  0  0  0  0  0  0
   -0.1257    1.4147   -2.3646 C   0  0  0  0  0  0  0  0  0  0  0  0
   -1.4250    1.1909   -1.9075 C   0  0  0  0  0  0  0  0  0  0  0  0
   -1.7882   -0.0596   -1.4017 C   0  0  0  0  0  0  0  0  0  0  0  0
   -1.1290   -2.0645   -0.9554 H   0  0  0  0  0  0  0  0  0  0  0  0
    1.2007   -1.6676   -1.7724 H   0  0  0  0  0  0  0  0  0  0  0  0
    0.1817    2.3768   -2.7578 H   0  0  0  0  0  0  0  0  0  0  0  0
   -2.1526    1.9962   -1.9461 H   0  0  0  0  0  0  0  0  0  0  0  0
   14.4130    6.0345   -8.3530 N   0  0  0  0  0  0  0  0  0  0  0  0
   13.4481    5.5455   -8.1259 N   0  0  0  0  0  0  0  0  0  0  0  0
    4.8573    2.3945   -3.5793 C   0  0  0  0  0  0  0  0  0  0  0  0
    5.9175    2.4507   -4.4811 C   0  0  0  0  0  0  0  0  0  0  0  0
    6.7126    1.3244   -4.7378 C   0  0  0  0  0  0  0  0  0  0  0  0
    6.4274    0.1315   -4.0557 C   0  0  0  0  0  0  0  0  0  0  0  0
    5.3735    0.0543   -3.1495 C   0  0  0  0  0  0  0  0  0  0  0  0
    4.5936    1.1904   -2.9261 C   0  0  0  0  0  0  0  0  0  0  0  0
    4.2503    3.2681   -3.3698 H   0  0  0  0  0  0  0  0  0  0  0  0
    6.1351    3.3857   -4.9895 H   0  0  0  0  0  0  0  0  0  0  0  0
    7.0430   -0.7465   -4.2327 H   0  0  0  0  0  0  0  0  0  0  0  0
    5.1630   -0.8631   -2.6110 H   0  0  0  0  0  0  0  0  0  0  0  0
    3.2487    1.1086   -1.7634 S   0  0  0  0  0  0  0  0  0  0  0  0
    3.4968    0.0512   -0.7862 O   0  0  0  0  0  0  0  0  0  0  0  0
    2.0833    0.5676   -2.8362 O   0  0  0  0  0  0  0  0  0  0  0  0
    2.8841    2.4547   -1.3278 O   0  0  0  0  0  0  0  0  0  0  0  0
    7.8393    1.3869   -5.7400 C   0  0  0  0  0  0  0  0  0  0  0  0
    8.2130    2.4071   -5.8605 H   0  0  0  0  0  0  0  0  0  0  0  0
    8.6760    0.7484   -5.4422 H   0  0  0  0  0  0  0  0  0  0  0  0
    7.5030    1.0426   -6.7259 H   0  0  0  0  0  0  0  0  0  0  0  0
   -2.8002   -0.2280   -1.0462 H   0  0  0  0  0  0  0  0  0  0  0  0
  1  7  1  0  0  0  0
  2  8  1  0  0  0  0
  2  1  2  0  0  0  0
  3  2  1  0  0  0  0
  4  3  2  0  0  0  0
  4  5  1  0  0  0  0
  5  6  2  0  0  0  0
  6  1  1  0  0  0  0
  6 31  1  0  0  0  0
  9  4  1  0  0  0  0
 10  5  1  0  0  0  0
 11 12  3  0  0  0  0
 13 19  1  0  0  0  0
 13 18  2  0  0  0  0
 14 13  1  0  0  0  0
 15 14  2  0  0  0  0
 15 16  1  0  0  0  0
 16 17  2  0  0  0  0
 17 18  1  0  0  0  0
 17 22  1  0  0  0  0
 18 23  1  0  0  0  0
 20 14  1  0  0  0  0
 21 16  1  0  0  0  0
 23 26  2  0  0  0  0
 23 24  2  0  0  0  0
 25  3  1  0  0  0  0
 25 23  1  0  0  0  0
 27 29  1  0  0  0  0
 27 15  1  0  0  0  0
 28 27  1  0  0  0  0
 30 27  1  0  0  0  0
M  END
