Coordinates from ORCA-job Ph-N2-OTs-B3LYPG-6-31G_dp-MTMO-d009-169-n800
 OpenBabel09051907503D

 31 30  0  0  0  0  0  0  0  0999 V2000
   -0.1178    0.0382   -1.2702 C   0  0  0  0  0  0  0  0  0  0  0  0
    0.6866    0.8430   -2.0991 C   0  0  0  0  0  0  0  0  0  0  0  0
    0.1529    1.8696   -2.5944 C   0  0  0  0  0  0  0  0  0  0  0  0
   -1.0687    2.4801   -2.5556 C   0  0  0  0  0  0  0  0  0  0  0  0
   -1.8964    1.6850   -1.7253 C   0  0  0  0  0  0  0  0  0  0  0  0
   -1.4346    0.5085   -1.1082 C   0  0  0  0  0  0  0  0  0  0  0  0
    0.2252   -0.8705   -0.7858 H   0  0  0  0  0  0  0  0  0  0  0  0
    2.6077    0.5770   -2.5037 H   0  0  0  0  0  0  0  0  0  0  0  0
   -1.3860    3.3918   -3.0428 H   0  0  0  0  0  0  0  0  0  0  0  0
   -2.9221    2.0073   -1.5657 H   0  0  0  0  0  0  0  0  0  0  0  0
    1.1204    4.5057   -4.3712 N   0  0  0  0  0  0  0  0  0  0  0  0
    1.8676    5.1743   -4.8353 N   0  0  0  0  0  0  0  0  0  0  0  0
    6.8809    1.2667   -2.9410 C   0  0  0  0  0  0  0  0  0  0  0  0
    8.1053    0.7771   -3.3928 C   0  0  0  0  0  0  0  0  0  0  0  0
    8.2397    0.2339   -4.6780 C   0  0  0  0  0  0  0  0  0  0  0  0
    7.1097    0.1904   -5.5097 C   0  0  0  0  0  0  0  0  0  0  0  0
    5.8785    0.6749   -5.0768 C   0  0  0  0  0  0  0  0  0  0  0  0
    5.7762    1.2061   -3.7898 C   0  0  0  0  0  0  0  0  0  0  0  0
    6.7775    1.6970   -1.9513 H   0  0  0  0  0  0  0  0  0  0  0  0
    8.9712    0.8202   -2.7374 H   0  0  0  0  0  0  0  0  0  0  0  0
    7.1970   -0.2258   -6.5097 H   0  0  0  0  0  0  0  0  0  0  0  0
    5.0082    0.6528   -5.7237 H   0  0  0  0  0  0  0  0  0  0  0  0
    4.2069    1.8320   -3.2245 S   0  0  0  0  0  0  0  0  0  0  0  0
    3.5754    0.4334   -2.6766 O   0  0  0  0  0  0  0  0  0  0  0  0
    3.4112    2.2787   -4.3715 O   0  0  0  0  0  0  0  0  0  0  0  0
    4.4280    2.7389   -2.0990 O   0  0  0  0  0  0  0  0  0  0  0  0
    9.5761   -0.2659   -5.1716 C   0  0  0  0  0  0  0  0  0  0  0  0
   10.0831    0.5007   -5.7711 H   0  0  0  0  0  0  0  0  0  0  0  0
   10.2391   -0.5240   -4.3412 H   0  0  0  0  0  0  0  0  0  0  0  0
    9.4622   -1.1503   -5.8059 H   0  0  0  0  0  0  0  0  0  0  0  0
   -2.1212   -0.0561   -0.4826 H   0  0  0  0  0  0  0  0  0  0  0  0
  1  6  1  0  0  0  0
  1  7  1  0  0  0  0
  2  1  2  0  0  0  0
  3  4  2  0  0  0  0
  3  2  1  0  0  0  0
  4  5  1  0  0  0  0
  5 10  1  0  0  0  0
  5  6  2  0  0  0  0
  6 31  1  0  0  0  0
  9  4  1  0  0  0  0
 12 11  3  0  0  0  0
 13 19  1  0  0  0  0
 14 13  1  0  0  0  0
 14 20  1  0  0  0  0
 15 14  2  0  0  0  0
 16 17  2  0  0  0  0
 16 15  1  0  0  0  0
 17 18  1  0  0  0  0
 18 23  1  0  0  0  0
 18 13  2  0  0  0  0
 21 16  1  0  0  0  0
 22 17  1  0  0  0  0
 23 24  1  0  0  0  0
 23 26  2  0  0  0  0
 24  8  1  0  0  0  0
 25 23  2  0  0  0  0
 27 15  1  0  0  0  0
 27 29  1  0  0  0  0
 28 27  1  0  0  0  0
 30 27  1  0  0  0  0
M  RAD  2   2   2   3   2
M  END
