Coordinates from ORCA-job Ph-N2-OTs-B3LYPG-6-31G_dp-MTMO-d009-169-n800
 OpenBabel09051907503D

 31 31  0  0  0  0  0  0  0  0999 V2000
   -0.4016    0.0398   -1.1816 C   0  0  0  0  0  0  0  0  0  0  0  0
    0.9314   -0.0363   -1.5878 C   0  0  0  0  0  0  0  0  0  0  0  0
    1.3491    0.7450   -2.6642 C   0  0  0  0  0  0  0  0  0  0  0  0
    0.4726    1.5931   -3.3376 C   0  0  0  0  0  0  0  0  0  0  0  0
   -0.8592    1.6522   -2.9259 C   0  0  0  0  0  0  0  0  0  0  0  0
   -1.2970    0.8792   -1.8481 C   0  0  0  0  0  0  0  0  0  0  0  0
   -0.7397   -0.5600   -0.3417 H   0  0  0  0  0  0  0  0  0  0  0  0
    1.6439   -0.6790   -1.0843 H   0  0  0  0  0  0  0  0  0  0  0  0
    0.8393    2.1863   -4.1681 H   0  0  0  0  0  0  0  0  0  0  0  0
   -1.5526    2.3067   -3.4457 H   0  0  0  0  0  0  0  0  0  0  0  0
    5.2911    6.4405   -2.5506 N   0  0  0  0  0  0  0  0  0  0  0  0
    5.2678    5.6737   -3.3460 N   0  0  0  0  0  0  0  0  0  0  0  0
    5.6351    2.0274   -4.2662 C   0  0  0  0  0  0  0  0  0  0  0  0
    6.7117    1.7271   -5.0962 C   0  0  0  0  0  0  0  0  0  0  0  0
    7.3691    0.4895   -5.0161 C   0  0  0  0  0  0  0  0  0  0  0  0
    6.9223   -0.4474   -4.0736 C   0  0  0  0  0  0  0  0  0  0  0  0
    5.8498   -0.1661   -3.2298 C   0  0  0  0  0  0  0  0  0  0  0  0
    5.2131    1.0701   -3.3415 C   0  0  0  0  0  0  0  0  0  0  0  0
    5.1365    2.9884   -4.3187 H   0  0  0  0  0  0  0  0  0  0  0  0
    7.0494    2.4676   -5.8165 H   0  0  0  0  0  0  0  0  0  0  0  0
    7.4230   -1.4085   -3.9967 H   0  0  0  0  0  0  0  0  0  0  0  0
    5.5161   -0.8869   -2.4914 H   0  0  0  0  0  0  0  0  0  0  0  0
    3.8473    1.4452   -2.2640 S   0  0  0  0  0  0  0  0  0  0  0  0
    4.0178    0.7548   -0.9869 O   0  0  0  0  0  0  0  0  0  0  0  0
    2.6685    0.6410   -3.1373 O   0  0  0  0  0  0  0  0  0  0  0  0
    3.5585    2.8770   -2.3007 O   0  0  0  0  0  0  0  0  0  0  0  0
    8.5441    0.1886   -5.9148 C   0  0  0  0  0  0  0  0  0  0  0  0
    8.3151    0.4236   -6.9597 H   0  0  0  0  0  0  0  0  0  0  0  0
    9.4167    0.7897   -5.6337 H   0  0  0  0  0  0  0  0  0  0  0  0
    8.8335   -0.8638   -5.8588 H   0  0  0  0  0  0  0  0  0  0  0  0
   -2.3332    0.9320   -1.5276 H   0  0  0  0  0  0  0  0  0  0  0  0
  1  7  1  0  0  0  0
  2  1  1  0  0  0  0
  2  8  1  0  0  0  0
  3  2  2  0  0  0  0
  4  5  2  0  0  0  0
  4  3  1  0  0  0  0
  5  6  1  0  0  0  0
  6 31  1  0  0  0  0
  6  1  2  0  0  0  0
  9  4  1  0  0  0  0
 10  5  1  0  0  0  0
 12 11  3  0  0  0  0
 13 18  2  0  0  0  0
 14 15  2  0  0  0  0
 14 13  1  0  0  0  0
 15 16  1  0  0  0  0
 16 21  1  0  0  0  0
 16 17  2  0  0  0  0
 17 22  1  0  0  0  0
 18 17  1  0  0  0  0
 18 23  1  0  0  0  0
 19 13  1  0  0  0  0
 20 14  1  0  0  0  0
 23 24  2  0  0  0  0
 25  3  1  0  0  0  0
 25 23  1  0  0  0  0
 26 23  2  0  0  0  0
 27 30  1  0  0  0  0
 27 29  1  0  0  0  0
 27 15  1  0  0  0  0
 28 27  1  0  0  0  0
M  END
