Coordinates from ORCA-job Ph-N2-OTs-B3LYPG-6-31G_dp-MTMO-d009-169-n800
 OpenBabel09051907503D

 31 31  0  0  0  0  0  0  0  0999 V2000
   -0.5247   -0.1134   -1.3004 C   0  0  0  0  0  0  0  0  0  0  0  0
    0.8111   -0.2115   -1.6924 C   0  0  0  0  0  0  0  0  0  0  0  0
    1.3069    0.7059   -2.6179 C   0  0  0  0  0  0  0  0  0  0  0  0
    0.5045    1.7099   -3.1555 C   0  0  0  0  0  0  0  0  0  0  0  0
   -0.8314    1.7902   -2.7613 C   0  0  0  0  0  0  0  0  0  0  0  0
   -1.3466    0.8823   -1.8331 C   0  0  0  0  0  0  0  0  0  0  0  0
   -0.9228   -0.8195   -0.5774 H   0  0  0  0  0  0  0  0  0  0  0  0
    1.4670   -0.9753   -1.2911 H   0  0  0  0  0  0  0  0  0  0  0  0
    0.9310    2.4065   -3.8691 H   0  0  0  0  0  0  0  0  0  0  0  0
   -1.4672    2.5668   -3.1762 H   0  0  0  0  0  0  0  0  0  0  0  0
    5.6331    6.7630   -4.1937 N   0  0  0  0  0  0  0  0  0  0  0  0
    5.7172    5.6954   -4.4661 N   0  0  0  0  0  0  0  0  0  0  0  0
    5.6393    2.0274   -3.9285 C   0  0  0  0  0  0  0  0  0  0  0  0
    6.7164    1.8497   -4.7930 C   0  0  0  0  0  0  0  0  0  0  0  0
    7.3527    0.6052   -4.9144 C   0  0  0  0  0  0  0  0  0  0  0  0
    6.8820   -0.4672   -4.1420 C   0  0  0  0  0  0  0  0  0  0  0  0
    5.8090   -0.3100   -3.2678 C   0  0  0  0  0  0  0  0  0  0  0  0
    5.1949    0.9398   -3.1755 C   0  0  0  0  0  0  0  0  0  0  0  0
    5.1559    2.9925   -3.8298 H   0  0  0  0  0  0  0  0  0  0  0  0
    7.0693    2.6930   -5.3800 H   0  0  0  0  0  0  0  0  0  0  0  0
    7.3647   -1.4371   -4.2234 H   0  0  0  0  0  0  0  0  0  0  0  0
    5.4559   -1.1364   -2.6612 H   0  0  0  0  0  0  0  0  0  0  0  0
    3.8279    1.1599   -2.0580 S   0  0  0  0  0  0  0  0  0  0  0  0
    3.9496    0.2299   -0.9367 O   0  0  0  0  0  0  0  0  0  0  0  0
    2.6293    0.5927   -3.0793 O   0  0  0  0  0  0  0  0  0  0  0  0
    3.5979    2.5830   -1.8218 O   0  0  0  0  0  0  0  0  0  0  0  0
    8.5381    0.4345   -5.8335 C   0  0  0  0  0  0  0  0  0  0  0  0
    8.4338    1.0407   -6.7379 H   0  0  0  0  0  0  0  0  0  0  0  0
    9.4643    0.7494   -5.3371 H   0  0  0  0  0  0  0  0  0  0  0  0
    8.6659   -0.6086   -6.1337 H   0  0  0  0  0  0  0  0  0  0  0  0
   -2.3852    0.9519   -1.5241 H   0  0  0  0  0  0  0  0  0  0  0  0
  1  7  1  0  0  0  0
  2  1  1  0  0  0  0
  2  8  1  0  0  0  0
  3  2  2  0  0  0  0
  4  5  2  0  0  0  0
  4  3  1  0  0  0  0
  5  6  1  0  0  0  0
  6 31  1  0  0  0  0
  6  1  2  0  0  0  0
  9  4  1  0  0  0  0
 10  5  1  0  0  0  0
 12 11  3  0  0  0  0
 13 19  1  0  0  0  0
 13 18  2  0  0  0  0
 14 13  1  0  0  0  0
 15 14  2  0  0  0  0
 15 16  1  0  0  0  0
 16 17  2  0  0  0  0
 17 18  1  0  0  0  0
 17 22  1  0  0  0  0
 18 23  1  0  0  0  0
 20 14  1  0  0  0  0
 21 16  1  0  0  0  0
 23 26  2  0  0  0  0
 23 24  2  0  0  0  0
 25  3  1  0  0  0  0
 25 23  1  0  0  0  0
 27 29  1  0  0  0  0
 27 15  1  0  0  0  0
 28 27  1  0  0  0  0
 30 27  1  0  0  0  0
M  END
