Coordinates from ORCA-job Ph-N2-OTs-B3LYPG-6-31G_dp-MTMO-d009-169-n800
 OpenBabel09051907503D

 31 31  0  0  0  0  0  0  0  0999 V2000
   -0.4370   -0.1574   -1.6282 C   0  0  0  0  0  0  0  0  0  0  0  0
    0.8855   -0.2037   -2.0706 C   0  0  0  0  0  0  0  0  0  0  0  0
    1.4344    0.9291   -2.6679 C   0  0  0  0  0  0  0  0  0  0  0  0
    0.7024    2.1053   -2.8238 C   0  0  0  0  0  0  0  0  0  0  0  0
   -0.6182    2.1379   -2.3739 C   0  0  0  0  0  0  0  0  0  0  0  0
   -1.1892    1.0102   -1.7788 C   0  0  0  0  0  0  0  0  0  0  0  0
   -0.8775   -1.0342   -1.1630 H   0  0  0  0  0  0  0  0  0  0  0  0
    1.4925   -1.0953   -1.9602 H   0  0  0  0  0  0  0  0  0  0  0  0
    1.1686    2.9690   -3.2839 H   0  0  0  0  0  0  0  0  0  0  0  0
   -1.2008    3.0471   -2.4899 H   0  0  0  0  0  0  0  0  0  0  0  0
    4.3253    5.9367   -3.8721 N   0  0  0  0  0  0  0  0  0  0  0  0
    3.2804    5.5826   -3.8054 N   0  0  0  0  0  0  0  0  0  0  0  0
    5.8188    2.0045   -4.1211 C   0  0  0  0  0  0  0  0  0  0  0  0
    6.8940    1.6918   -4.9494 C   0  0  0  0  0  0  0  0  0  0  0  0
    7.4786    0.4167   -4.9307 C   0  0  0  0  0  0  0  0  0  0  0  0
    6.9642   -0.5443   -4.0474 C   0  0  0  0  0  0  0  0  0  0  0  0
    5.8909   -0.2517   -3.2098 C   0  0  0  0  0  0  0  0  0  0  0  0
    5.3247    1.0229   -3.2614 C   0  0  0  0  0  0  0  0  0  0  0  0
    5.3768    2.9943   -4.1250 H   0  0  0  0  0  0  0  0  0  0  0  0
    7.2904    2.4529   -5.6159 H   0  0  0  0  0  0  0  0  0  0  0  0
    7.4153   -1.5319   -4.0097 H   0  0  0  0  0  0  0  0  0  0  0  0
    5.5053   -0.9899   -2.5152 H   0  0  0  0  0  0  0  0  0  0  0  0
    3.9636    1.4135   -2.1830 S   0  0  0  0  0  0  0  0  0  0  0  0
    4.0054    0.5644   -0.9949 O   0  0  0  0  0  0  0  0  0  0  0  0
    2.7418    0.8579   -3.1806 O   0  0  0  0  0  0  0  0  0  0  0  0
    3.8337    2.8642   -2.0562 O   0  0  0  0  0  0  0  0  0  0  0  0
    8.6248    0.0817   -5.8540 C   0  0  0  0  0  0  0  0  0  0  0  0
    8.2534   -0.2853   -6.8186 H   0  0  0  0  0  0  0  0  0  0  0  0
    9.2445    0.9597   -6.0572 H   0  0  0  0  0  0  0  0  0  0  0  0
    9.2643   -0.6992   -5.4325 H   0  0  0  0  0  0  0  0  0  0  0  0
   -2.2172    1.0415   -1.4315 H   0  0  0  0  0  0  0  0  0  0  0  0
  1  7  1  0  0  0  0
  2  8  1  0  0  0  0
  2  1  2  0  0  0  0
  3  2  1  0  0  0  0
  4  3  2  0  0  0  0
  4  5  1  0  0  0  0
  5  6  2  0  0  0  0
  6  1  1  0  0  0  0
  6 31  1  0  0  0  0
  9  4  1  0  0  0  0
 10  5  1  0  0  0  0
 11 12  3  0  0  0  0
 13 18  2  0  0  0  0
 14 15  2  0  0  0  0
 14 13  1  0  0  0  0
 15 16  1  0  0  0  0
 16 21  1  0  0  0  0
 16 17  2  0  0  0  0
 17 22  1  0  0  0  0
 18 17  1  0  0  0  0
 18 23  1  0  0  0  0
 19 13  1  0  0  0  0
 20 14  1  0  0  0  0
 23 26  2  0  0  0  0
 23 24  2  0  0  0  0
 25  3  1  0  0  0  0
 25 23  1  0  0  0  0
 27 30  1  0  0  0  0
 27 15  1  0  0  0  0
 28 27  1  0  0  0  0
 29 27  1  0  0  0  0
M  END
