Coordinates from ORCA-job Ph-N2-OTs-B3LYPG-6-31G_dp-MTMO-d009-169-n800
 OpenBabel09051907503D

 31 31  0  0  0  0  0  0  0  0999 V2000
   -0.4290   -0.1257   -1.6471 C   0  0  0  0  0  0  0  0  0  0  0  0
    0.8929   -0.1732   -2.0908 C   0  0  0  0  0  0  0  0  0  0  0  0
    1.4499    0.9662   -2.6678 C   0  0  0  0  0  0  0  0  0  0  0  0
    0.7258    2.1498   -2.8025 C   0  0  0  0  0  0  0  0  0  0  0  0
   -0.5945    2.1835   -2.3518 C   0  0  0  0  0  0  0  0  0  0  0  0
   -1.1732    1.0496   -1.7767 C   0  0  0  0  0  0  0  0  0  0  0  0
   -0.8755   -1.0076   -1.1975 H   0  0  0  0  0  0  0  0  0  0  0  0
    1.4936   -1.0708   -1.9964 H   0  0  0  0  0  0  0  0  0  0  0  0
    1.1963    3.0188   -3.2479 H   0  0  0  0  0  0  0  0  0  0  0  0
   -1.1706    3.0988   -2.4516 H   0  0  0  0  0  0  0  0  0  0  0  0
    4.1043    5.5721   -4.0216 N   0  0  0  0  0  0  0  0  0  0  0  0
    3.0245    5.4920   -3.8014 N   0  0  0  0  0  0  0  0  0  0  0  0
    5.8624    2.0183   -4.0786 C   0  0  0  0  0  0  0  0  0  0  0  0
    6.9361    1.7076   -4.9099 C   0  0  0  0  0  0  0  0  0  0  0  0
    7.4942    0.4209   -4.9262 C   0  0  0  0  0  0  0  0  0  0  0  0
    6.9546   -0.5551   -4.0747 C   0  0  0  0  0  0  0  0  0  0  0  0
    5.8826   -0.2653   -3.2348 C   0  0  0  0  0  0  0  0  0  0  0  0
    5.3430    1.0219   -3.2515 C   0  0  0  0  0  0  0  0  0  0  0  0
    5.4416    3.0172   -4.0566 H   0  0  0  0  0  0  0  0  0  0  0  0
    7.3522    2.4798   -5.5511 H   0  0  0  0  0  0  0  0  0  0  0  0
    7.3851   -1.5526   -4.0637 H   0  0  0  0  0  0  0  0  0  0  0  0
    5.4778   -1.0156   -2.5646 H   0  0  0  0  0  0  0  0  0  0  0  0
    3.9841    1.4079   -2.1687 S   0  0  0  0  0  0  0  0  0  0  0  0
    4.0089    0.5307   -1.0006 O   0  0  0  0  0  0  0  0  0  0  0  0
    2.7565    0.8948   -3.1823 O   0  0  0  0  0  0  0  0  0  0  0  0
    3.8749    2.8570   -2.0083 O   0  0  0  0  0  0  0  0  0  0  0  0
    8.6389    0.0890   -5.8525 C   0  0  0  0  0  0  0  0  0  0  0  0
    8.2659   -0.2696   -6.8196 H   0  0  0  0  0  0  0  0  0  0  0  0
    9.2618    0.9661   -6.0489 H   0  0  0  0  0  0  0  0  0  0  0  0
    9.2756   -0.6977   -5.4372 H   0  0  0  0  0  0  0  0  0  0  0  0
   -2.2010    1.0818   -1.4286 H   0  0  0  0  0  0  0  0  0  0  0  0
  1  7  1  0  0  0  0
  2  8  1  0  0  0  0
  2  1  2  0  0  0  0
  3  2  1  0  0  0  0
  4  3  2  0  0  0  0
  4  5  1  0  0  0  0
  5  6  2  0  0  0  0
  6  1  1  0  0  0  0
  6 31  1  0  0  0  0
  9  4  1  0  0  0  0
 10  5  1  0  0  0  0
 11 12  3  0  0  0  0
 13 19  1  0  0  0  0
 13 18  2  0  0  0  0
 14 13  1  0  0  0  0
 15 14  2  0  0  0  0
 15 16  1  0  0  0  0
 16 21  1  0  0  0  0
 16 17  2  0  0  0  0
 17 22  1  0  0  0  0
 18 17  1  0  0  0  0
 18 23  1  0  0  0  0
 20 14  1  0  0  0  0
 23 26  2  0  0  0  0
 23 24  2  0  0  0  0
 25  3  1  0  0  0  0
 25 23  1  0  0  0  0
 27 30  1  0  0  0  0
 27 15  1  0  0  0  0
 28 27  1  0  0  0  0
 29 27  1  0  0  0  0
M  END
