Coordinates from ORCA-job Ph-N2-OTs-B3LYPG-6-31G_dp-MTMO-d009-169-n800
 OpenBabel09051907503D

 31 30  0  0  0  0  0  0  0  0999 V2000
   -0.2074    0.0074   -1.1852 C   0  0  0  0  0  0  0  0  0  0  0  0
    0.7102    0.7185   -1.9800 C   0  0  0  0  0  0  0  0  0  0  0  0
    0.2856    1.7396   -2.5803 C   0  0  0  0  0  0  0  0  0  0  0  0
   -0.8982    2.4138   -2.6907 C   0  0  0  0  0  0  0  0  0  0  0  0
   -1.8402    1.7140   -1.8972 C   0  0  0  0  0  0  0  0  0  0  0  0
   -1.5044    0.5548   -1.1743 C   0  0  0  0  0  0  0  0  0  0  0  0
    0.0375   -0.8870   -0.6210 H   0  0  0  0  0  0  0  0  0  0  0  0
    2.6687    0.4553   -2.3006 H   0  0  0  0  0  0  0  0  0  0  0  0
   -1.1167    3.3091   -3.2562 H   0  0  0  0  0  0  0  0  0  0  0  0
   -2.8563    2.0982   -1.8526 H   0  0  0  0  0  0  0  0  0  0  0  0
    1.1543    4.5609   -4.5760 N   0  0  0  0  0  0  0  0  0  0  0  0
    2.0501    5.0699   -4.9748 N   0  0  0  0  0  0  0  0  0  0  0  0
    6.9258    1.2657   -2.8900 C   0  0  0  0  0  0  0  0  0  0  0  0
    8.1281    0.8097   -3.4283 C   0  0  0  0  0  0  0  0  0  0  0  0
    8.1896    0.2889   -4.7281 C   0  0  0  0  0  0  0  0  0  0  0  0
    7.0089    0.2333   -5.4856 C   0  0  0  0  0  0  0  0  0  0  0  0
    5.7989    0.6842   -4.9660 C   0  0  0  0  0  0  0  0  0  0  0  0
    5.7698    1.1938   -3.6663 C   0  0  0  0  0  0  0  0  0  0  0  0
    6.8773    1.6782   -1.8887 H   0  0  0  0  0  0  0  0  0  0  0  0
    9.0339    0.8613   -2.8300 H   0  0  0  0  0  0  0  0  0  0  0  0
    7.0399   -0.1663   -6.4954 H   0  0  0  0  0  0  0  0  0  0  0  0
    4.8892    0.6525   -5.5557 H   0  0  0  0  0  0  0  0  0  0  0  0
    4.2276    1.7742   -2.9891 S   0  0  0  0  0  0  0  0  0  0  0  0
    3.6425    0.3489   -2.4593 O   0  0  0  0  0  0  0  0  0  0  0  0
    3.3594    2.2498   -4.0713 O   0  0  0  0  0  0  0  0  0  0  0  0
    4.5034    2.6432   -1.8464 O   0  0  0  0  0  0  0  0  0  0  0  0
    9.5009   -0.1750   -5.3150 C   0  0  0  0  0  0  0  0  0  0  0  0
    9.9480    0.6078   -5.9408 H   0  0  0  0  0  0  0  0  0  0  0  0
   10.2241   -0.4227   -4.5332 H   0  0  0  0  0  0  0  0  0  0  0  0
    9.3656   -1.0574   -5.9480 H   0  0  0  0  0  0  0  0  0  0  0  0
   -2.2763    0.0660   -0.5858 H   0  0  0  0  0  0  0  0  0  0  0  0
  1  6  1  0  0  0  0
  1  7  1  0  0  0  0
  2  1  2  0  0  0  0
  3  2  1  0  0  0  0
  4  3  2  0  0  0  0
  4  5  1  0  0  0  0
  5 10  1  0  0  0  0
  5  6  2  0  0  0  0
  6 31  1  0  0  0  0
  9  4  1  0  0  0  0
 12 11  3  0  0  0  0
 13 19  1  0  0  0  0
 14 13  1  0  0  0  0
 14 20  1  0  0  0  0
 15 14  2  0  0  0  0
 16 17  2  0  0  0  0
 16 15  1  0  0  0  0
 17 18  1  0  0  0  0
 18 23  1  0  0  0  0
 18 13  2  0  0  0  0
 21 16  1  0  0  0  0
 22 17  1  0  0  0  0
 23 24  1  0  0  0  0
 23 26  2  0  0  0  0
 24  8  1  0  0  0  0
 25 23  2  0  0  0  0
 27 15  1  0  0  0  0
 27 29  1  0  0  0  0
 28 27  1  0  0  0  0
 30 27  1  0  0  0  0
M  RAD  2   2   2   3   2
M  END
