Coordinates from ORCA-job Ph-N2-OTs-B3LYPG-6-31G_dp-MTMO-d009-169-n800
 OpenBabel09051907503D

 31 31  0  0  0  0  0  0  0  0999 V2000
   -0.5346   -0.1366   -1.2950 C   0  0  0  0  0  0  0  0  0  0  0  0
    0.8019   -0.2278   -1.6863 C   0  0  0  0  0  0  0  0  0  0  0  0
    1.2936    0.6925   -2.6111 C   0  0  0  0  0  0  0  0  0  0  0  0
    0.4864    1.6926   -3.1487 C   0  0  0  0  0  0  0  0  0  0  0  0
   -0.8502    1.7660   -2.7553 C   0  0  0  0  0  0  0  0  0  0  0  0
   -1.3613    0.8551   -1.8277 C   0  0  0  0  0  0  0  0  0  0  0  0
   -0.9295   -0.8451   -0.5725 H   0  0  0  0  0  0  0  0  0  0  0  0
    1.4614   -0.9885   -1.2849 H   0  0  0  0  0  0  0  0  0  0  0  0
    0.9097    2.3918   -3.8617 H   0  0  0  0  0  0  0  0  0  0  0  0
   -1.4897    2.5394   -3.1703 H   0  0  0  0  0  0  0  0  0  0  0  0
    5.8658    6.7602   -4.3260 N   0  0  0  0  0  0  0  0  0  0  0  0
    5.8862    5.6761   -4.5391 N   0  0  0  0  0  0  0  0  0  0  0  0
    5.6256    2.0407   -3.9078 C   0  0  0  0  0  0  0  0  0  0  0  0
    6.7033    1.8724   -4.7734 C   0  0  0  0  0  0  0  0  0  0  0  0
    7.3396    0.6292   -4.9076 C   0  0  0  0  0  0  0  0  0  0  0  0
    6.8685   -0.4513   -4.1468 C   0  0  0  0  0  0  0  0  0  0  0  0
    5.7951   -0.3034   -3.2717 C   0  0  0  0  0  0  0  0  0  0  0  0
    5.1806    0.9452   -3.1666 C   0  0  0  0  0  0  0  0  0  0  0  0
    5.1421    3.0047   -3.7995 H   0  0  0  0  0  0  0  0  0  0  0  0
    7.0563    2.7222   -5.3507 H   0  0  0  0  0  0  0  0  0  0  0  0
    7.3513   -1.4203   -4.2382 H   0  0  0  0  0  0  0  0  0  0  0  0
    5.4418   -1.1362   -2.6739 H   0  0  0  0  0  0  0  0  0  0  0  0
    3.8129    1.1538   -2.0479 S   0  0  0  0  0  0  0  0  0  0  0  0
    3.9385    0.2185   -0.9315 O   0  0  0  0  0  0  0  0  0  0  0  0
    2.6167    0.5866   -3.0721 O   0  0  0  0  0  0  0  0  0  0  0  0
    3.5768    2.5746   -1.8042 O   0  0  0  0  0  0  0  0  0  0  0  0
    8.5253    0.4683   -5.8281 C   0  0  0  0  0  0  0  0  0  0  0  0
    8.4177    1.0786   -6.7294 H   0  0  0  0  0  0  0  0  0  0  0  0
    9.4504    0.7849   -5.3307 H   0  0  0  0  0  0  0  0  0  0  0  0
    8.6576   -0.5727   -6.1337 H   0  0  0  0  0  0  0  0  0  0  0  0
   -2.4004    0.9192   -1.5194 H   0  0  0  0  0  0  0  0  0  0  0  0
  1  7  1  0  0  0  0
  2  1  1  0  0  0  0
  2  8  1  0  0  0  0
  3  2  2  0  0  0  0
  4  5  2  0  0  0  0
  4  3  1  0  0  0  0
  5  6  1  0  0  0  0
  6 31  1  0  0  0  0
  6  1  2  0  0  0  0
  9  4  1  0  0  0  0
 10  5  1  0  0  0  0
 12 11  3  0  0  0  0
 13 19  1  0  0  0  0
 13 18  2  0  0  0  0
 14 13  1  0  0  0  0
 15 14  2  0  0  0  0
 15 16  1  0  0  0  0
 16 17  2  0  0  0  0
 17 18  1  0  0  0  0
 17 22  1  0  0  0  0
 18 23  1  0  0  0  0
 20 14  1  0  0  0  0
 21 16  1  0  0  0  0
 23 26  2  0  0  0  0
 23 24  2  0  0  0  0
 25  3  1  0  0  0  0
 25 23  1  0  0  0  0
 27 29  1  0  0  0  0
 27 15  1  0  0  0  0
 28 27  1  0  0  0  0
 30 27  1  0  0  0  0
M  END
