Coordinates from ORCA-job Ph-N2-OTs-B3LYPG-6-31G_dp-MTMO-d009-169-n800
 OpenBabel09051907503D

 31 31  0  0  0  0  0  0  0  0999 V2000
   -0.8223   -1.0824   -1.3660 C   0  0  0  0  0  0  0  0  0  0  0  0
    0.4803   -0.8718   -1.8198 C   0  0  0  0  0  0  0  0  0  0  0  0
    0.8219    0.3818   -2.3238 C   0  0  0  0  0  0  0  0  0  0  0  0
   -0.0993    1.4261   -2.3773 C   0  0  0  0  0  0  0  0  0  0  0  0
   -1.3986    1.2015   -1.9206 C   0  0  0  0  0  0  0  0  0  0  0  0
   -1.7614   -0.0495   -1.4160 C   0  0  0  0  0  0  0  0  0  0  0  0
   -1.1016   -2.0546   -0.9713 H   0  0  0  0  0  0  0  0  0  0  0  0
    1.2281   -1.6562   -1.7875 H   0  0  0  0  0  0  0  0  0  0  0  0
    0.2079    2.3887   -2.7697 H   0  0  0  0  0  0  0  0  0  0  0  0
   -2.1264    2.0066   -1.9586 H   0  0  0  0  0  0  0  0  0  0  0  0
   14.0253    5.8422   -8.1712 N   0  0  0  0  0  0  0  0  0  0  0  0
   13.0578    5.3591   -7.9429 N   0  0  0  0  0  0  0  0  0  0  0  0
    4.8838    2.4086   -3.5904 C   0  0  0  0  0  0  0  0  0  0  0  0
    5.9444    2.4657   -4.4918 C   0  0  0  0  0  0  0  0  0  0  0  0
    6.7398    1.3398   -4.7492 C   0  0  0  0  0  0  0  0  0  0  0  0
    6.4546    0.1463   -4.0681 C   0  0  0  0  0  0  0  0  0  0  0  0
    5.4005    0.0683   -3.1622 C   0  0  0  0  0  0  0  0  0  0  0  0
    4.6202    1.2040   -2.9382 C   0  0  0  0  0  0  0  0  0  0  0  0
    4.2766    3.2820   -3.3805 H   0  0  0  0  0  0  0  0  0  0  0  0
    6.1619    3.4012   -4.9995 H   0  0  0  0  0  0  0  0  0  0  0  0
    7.0704   -0.7314   -4.2455 H   0  0  0  0  0  0  0  0  0  0  0  0
    5.1900   -0.8496   -2.6244 H   0  0  0  0  0  0  0  0  0  0  0  0
    3.2751    1.1210   -1.7759 S   0  0  0  0  0  0  0  0  0  0  0  0
    3.5232    0.0631   -0.7993 O   0  0  0  0  0  0  0  0  0  0  0  0
    2.1101    0.5802   -2.8493 O   0  0  0  0  0  0  0  0  0  0  0  0
    2.9099    2.4667   -1.3396 O   0  0  0  0  0  0  0  0  0  0  0  0
    7.8667    1.4033   -5.7510 C   0  0  0  0  0  0  0  0  0  0  0  0
    8.2420    2.4233   -5.8687 H   0  0  0  0  0  0  0  0  0  0  0  0
    8.7023    0.7626   -5.4549 H   0  0  0  0  0  0  0  0  0  0  0  0
    7.5299    1.0625   -6.7379 H   0  0  0  0  0  0  0  0  0  0  0  0
   -2.7734   -0.2186   -1.0607 H   0  0  0  0  0  0  0  0  0  0  0  0
  1  7  1  0  0  0  0
  2  8  1  0  0  0  0
  2  1  2  0  0  0  0
  3  2  1  0  0  0  0
  4  3  2  0  0  0  0
  4  5  1  0  0  0  0
  5  6  2  0  0  0  0
  6  1  1  0  0  0  0
  6 31  1  0  0  0  0
  9  4  1  0  0  0  0
 10  5  1  0  0  0  0
 11 12  3  0  0  0  0
 13 19  1  0  0  0  0
 13 18  2  0  0  0  0
 14 13  1  0  0  0  0
 15 14  2  0  0  0  0
 15 16  1  0  0  0  0
 16 17  2  0  0  0  0
 17 18  1  0  0  0  0
 17 22  1  0  0  0  0
 18 23  1  0  0  0  0
 20 14  1  0  0  0  0
 21 16  1  0  0  0  0
 23 26  2  0  0  0  0
 23 24  2  0  0  0  0
 25  3  1  0  0  0  0
 25 23  1  0  0  0  0
 27 29  1  0  0  0  0
 27 15  1  0  0  0  0
 28 27  1  0  0  0  0
 30 27  1  0  0  0  0
M  END
