Coordinates from ORCA-job Ph-N2-OTs-B3LYPG-6-31G_dp-MTMO-d009-169-n800
 OpenBabel09051907503D

 31 31  0  0  0  0  0  0  0  0999 V2000
   -0.7267   -0.8122   -1.6092 C   0  0  0  0  0  0  0  0  0  0  0  0
    0.5988   -0.6798   -2.0247 C   0  0  0  0  0  0  0  0  0  0  0  0
    1.0430    0.5654   -2.4661 C   0  0  0  0  0  0  0  0  0  0  0  0
    0.2013    1.6757   -2.4953 C   0  0  0  0  0  0  0  0  0  0  0  0
   -1.1225    1.5283   -2.0795 C   0  0  0  0  0  0  0  0  0  0  0  0
   -1.5875    0.2877   -1.6367 C   0  0  0  0  0  0  0  0  0  0  0  0
   -1.0855   -1.7766   -1.2624 H   0  0  0  0  0  0  0  0  0  0  0  0
    1.2869   -1.5173   -2.0086 H   0  0  0  0  0  0  0  0  0  0  0  0
    0.5881    2.6282   -2.8392 H   0  0  0  0  0  0  0  0  0  0  0  0
   -1.7890    2.3854   -2.1001 H   0  0  0  0  0  0  0  0  0  0  0  0
    9.9052    5.6728   -7.4840 N   0  0  0  0  0  0  0  0  0  0  0  0
    9.2211    4.9631   -6.9843 N   0  0  0  0  0  0  0  0  0  0  0  0
    5.3113    2.3138   -3.4710 C   0  0  0  0  0  0  0  0  0  0  0  0
    6.3951    2.3532   -4.3473 C   0  0  0  0  0  0  0  0  0  0  0  0
    7.0826    1.1853   -4.7032 C   0  0  0  0  0  0  0  0  0  0  0  0
    6.6611   -0.0366   -4.1537 C   0  0  0  0  0  0  0  0  0  0  0  0
    5.5838   -0.0977   -3.2760 C   0  0  0  0  0  0  0  0  0  0  0  0
    4.9147    1.0840   -2.9479 C   0  0  0  0  0  0  0  0  0  0  0  0
    4.7862    3.2184   -3.1855 H   0  0  0  0  0  0  0  0  0  0  0  0
    6.7150    3.3065   -4.7579 H   0  0  0  0  0  0  0  0  0  0  0  0
    7.1882   -0.9504   -4.4143 H   0  0  0  0  0  0  0  0  0  0  0  0
    5.2681   -1.0387   -2.8398 H   0  0  0  0  0  0  0  0  0  0  0  0
    3.5405    1.0202   -1.8190 S   0  0  0  0  0  0  0  0  0  0  0  0
    3.6674   -0.1440   -0.9451 O   0  0  0  0  0  0  0  0  0  0  0  0
    2.3545    0.6959   -2.9540 O   0  0  0  0  0  0  0  0  0  0  0  0
    3.2914    2.3468   -1.2599 O   0  0  0  0  0  0  0  0  0  0  0  0
    8.2582    1.2307   -5.6486 C   0  0  0  0  0  0  0  0  0  0  0  0
    8.4371    2.2419   -6.0206 H   0  0  0  0  0  0  0  0  0  0  0  0
    9.1737    0.8863   -5.1541 H   0  0  0  0  0  0  0  0  0  0  0  0
    8.0955    0.5757   -6.5117 H   0  0  0  0  0  0  0  0  0  0  0  0
   -2.6178    0.1787   -1.3119 H   0  0  0  0  0  0  0  0  0  0  0  0
  1  7  1  0  0  0  0
  2  8  1  0  0  0  0
  2  1  2  0  0  0  0
  3  2  1  0  0  0  0
  4  3  2  0  0  0  0
  4  5  1  0  0  0  0
  5  6  2  0  0  0  0
  6  1  1  0  0  0  0
  6 31  1  0  0  0  0
  9  4  1  0  0  0  0
 10  5  1  0  0  0  0
 11 12  3  0  0  0  0
 13 19  1  0  0  0  0
 13 18  2  0  0  0  0
 14 13  1  0  0  0  0
 15 14  2  0  0  0  0
 15 16  1  0  0  0  0
 16 17  2  0  0  0  0
 17 18  1  0  0  0  0
 17 22  1  0  0  0  0
 18 23  1  0  0  0  0
 20 14  1  0  0  0  0
 21 16  1  0  0  0  0
 23 26  2  0  0  0  0
 23 24  2  0  0  0  0
 25  3  1  0  0  0  0
 25 23  1  0  0  0  0
 27 29  1  0  0  0  0
 27 15  1  0  0  0  0
 28 27  1  0  0  0  0
 30 27  1  0  0  0  0
M  END
