Coordinates from ORCA-job Ph-N2-OTs-B3LYPG-6-31G_dp-MTMO-d009-169-n800
 OpenBabel09051907503D

 31 31  0  0  0  0  0  0  0  0999 V2000
   -0.5869    0.1951   -1.8901 C   0  0  0  0  0  0  0  0  0  0  0  0
    0.7324    0.0529   -2.3222 C   0  0  0  0  0  0  0  0  0  0  0  0
    1.4947    1.1992   -2.5390 C   0  0  0  0  0  0  0  0  0  0  0  0
    0.9762    2.4757   -2.3292 C   0  0  0  0  0  0  0  0  0  0  0  0
   -0.3451    2.6029   -1.8991 C   0  0  0  0  0  0  0  0  0  0  0  0
   -1.1266    1.4662   -1.6793 C   0  0  0  0  0  0  0  0  0  0  0  0
   -1.1921   -0.6897   -1.7172 H   0  0  0  0  0  0  0  0  0  0  0  0
    1.1749   -0.9222   -2.4904 H   0  0  0  0  0  0  0  0  0  0  0  0
    1.6054    3.3411   -2.5031 H   0  0  0  0  0  0  0  0  0  0  0  0
   -0.7618    3.5917   -1.7324 H   0  0  0  0  0  0  0  0  0  0  0  0
    2.7922    2.6817   -6.2983 N   0  0  0  0  0  0  0  0  0  0  0  0
    3.1908    3.2745   -5.4550 N   0  0  0  0  0  0  0  0  0  0  0  0
    5.9752    2.0330   -3.4579 C   0  0  0  0  0  0  0  0  0  0  0  0
    7.0462    1.9788   -4.3449 C   0  0  0  0  0  0  0  0  0  0  0  0
    7.5304    0.7517   -4.8251 C   0  0  0  0  0  0  0  0  0  0  0  0
    6.9180   -0.4297   -4.3845 C   0  0  0  0  0  0  0  0  0  0  0  0
    5.8439   -0.3980   -3.4970 C   0  0  0  0  0  0  0  0  0  0  0  0
    5.3806    0.8379   -3.0472 C   0  0  0  0  0  0  0  0  0  0  0  0
    5.6101    2.9798   -3.0764 H   0  0  0  0  0  0  0  0  0  0  0  0
    7.5186    2.9030   -4.6662 H   0  0  0  0  0  0  0  0  0  0  0  0
    7.2897   -1.3878   -4.7364 H   0  0  0  0  0  0  0  0  0  0  0  0
    5.3787   -1.3117   -3.1448 H   0  0  0  0  0  0  0  0  0  0  0  0
    4.0175    0.8924   -1.9043 S   0  0  0  0  0  0  0  0  0  0  0  0
    3.8572   -0.4090   -1.2594 O   0  0  0  0  0  0  0  0  0  0  0  0
    2.8009    1.0697   -3.0418 O   0  0  0  0  0  0  0  0  0  0  0  0
    4.0797    2.1156   -1.1085 O   0  0  0  0  0  0  0  0  0  0  0  0
    8.6757    0.7113   -5.8070 C   0  0  0  0  0  0  0  0  0  0  0  0
    8.3288    0.9457   -6.8210 H   0  0  0  0  0  0  0  0  0  0  0  0
    9.4461    1.4455   -5.5519 H   0  0  0  0  0  0  0  0  0  0  0  0
    9.1419   -0.2768   -5.8394 H   0  0  0  0  0  0  0  0  0  0  0  0
   -2.1535    1.5705   -1.3428 H   0  0  0  0  0  0  0  0  0  0  0  0
  1  7  1  0  0  0  0
  1  6  1  0  0  0  0
  2  1  2  0  0  0  0
  3  4  2  0  0  0  0
  3  2  1  0  0  0  0
  4  5  1  0  0  0  0
  5 10  1  0  0  0  0
  5  6  2  0  0  0  0
  6 31  1  0  0  0  0
  8  2  1  0  0  0  0
  9  4  1  0  0  0  0
 11 12  3  0  0  0  0
 13 19  1  0  0  0  0
 13 18  1  0  0  0  0
 14 13  2  0  0  0  0
 15 16  2  0  0  0  0
 15 14  1  0  0  0  0
 16 17  1  0  0  0  0
 17 22  1  0  0  0  0
 17 18  2  0  0  0  0
 18 23  1  0  0  0  0
 20 14  1  0  0  0  0
 21 16  1  0  0  0  0
 23 24  2  0  0  0  0
 23 26  2  0  0  0  0
 25  3  1  0  0  0  0
 25 23  1  0  0  0  0
 27 29  1  0  0  0  0
 27 15  1  0  0  0  0
 28 27  1  0  0  0  0
 30 27  1  0  0  0  0
M  END
