Coordinates from ORCA-job Ph-N2-OTs-B3LYPG-6-31G_dp-MTMO-d009-169-n800
 OpenBabel09051907503D

 31 31  0  0  0  0  0  0  0  0999 V2000
   -0.6831   -1.0692   -1.3961 C   0  0  0  0  0  0  0  0  0  0  0  0
    0.6124   -0.8379   -1.8602 C   0  0  0  0  0  0  0  0  0  0  0  0
    0.9289    0.4198   -2.3701 C   0  0  0  0  0  0  0  0  0  0  0  0
   -0.0104    1.4482   -2.4197 C   0  0  0  0  0  0  0  0  0  0  0  0
   -1.3022    1.2029   -1.9528 C   0  0  0  0  0  0  0  0  0  0  0  0
   -1.6400   -0.0526   -1.4420 C   0  0  0  0  0  0  0  0  0  0  0  0
   -0.9429   -2.0449   -0.9966 H   0  0  0  0  0  0  0  0  0  0  0  0
    1.3736   -1.6093   -1.8312 H   0  0  0  0  0  0  0  0  0  0  0  0
    0.2775    2.4147   -2.8172 H   0  0  0  0  0  0  0  0  0  0  0  0
   -2.0439    1.9954   -1.9876 H   0  0  0  0  0  0  0  0  0  0  0  0
   12.5799    4.8853   -7.3530 N   0  0  0  0  0  0  0  0  0  0  0  0
   11.5875    4.4956   -7.0617 N   0  0  0  0  0  0  0  0  0  0  0  0
    4.9629    2.4937   -3.6717 C   0  0  0  0  0  0  0  0  0  0  0  0
    6.0210    2.5560   -4.5749 C   0  0  0  0  0  0  0  0  0  0  0  0
    6.8291    1.4368   -4.8253 C   0  0  0  0  0  0  0  0  0  0  0  0
    6.5581    0.2459   -4.1349 C   0  0  0  0  0  0  0  0  0  0  0  0
    5.5059    0.1627   -3.2264 C   0  0  0  0  0  0  0  0  0  0  0  0
    4.7135    1.2908   -3.0096 C   0  0  0  0  0  0  0  0  0  0  0  0
    4.3463    3.3618   -3.4671 H   0  0  0  0  0  0  0  0  0  0  0  0
    6.2271    3.4902   -5.0898 H   0  0  0  0  0  0  0  0  0  0  0  0
    7.1833   -0.6263   -4.3066 H   0  0  0  0  0  0  0  0  0  0  0  0
    5.3071   -0.7535   -2.6814 H   0  0  0  0  0  0  0  0  0  0  0  0
    3.3732    1.2017   -1.8420 S   0  0  0  0  0  0  0  0  0  0  0  0
    3.6371    0.1548   -0.8577 O   0  0  0  0  0  0  0  0  0  0  0  0
    2.2097    0.6386   -2.9057 O   0  0  0  0  0  0  0  0  0  0  0  0
    2.9944    2.5467   -1.4152 O   0  0  0  0  0  0  0  0  0  0  0  0
    7.9524    1.5077   -5.8306 C   0  0  0  0  0  0  0  0  0  0  0  0
    8.4016    2.5045   -5.8631 H   0  0  0  0  0  0  0  0  0  0  0  0
    8.7406    0.7847   -5.6026 H   0  0  0  0  0  0  0  0  0  0  0  0
    7.5854    1.2835   -6.8401 H   0  0  0  0  0  0  0  0  0  0  0  0
   -2.6463   -0.2378   -1.0788 H   0  0  0  0  0  0  0  0  0  0  0  0
  1  7  1  0  0  0  0
  2  8  1  0  0  0  0
  2  1  2  0  0  0  0
  3  2  1  0  0  0  0
  4  3  2  0  0  0  0
  4  5  1  0  0  0  0
  5  6  2  0  0  0  0
  6  1  1  0  0  0  0
  6 31  1  0  0  0  0
  9  4  1  0  0  0  0
 10  5  1  0  0  0  0
 11 12  3  0  0  0  0
 13 19  1  0  0  0  0
 13 18  2  0  0  0  0
 14 13  1  0  0  0  0
 15 14  2  0  0  0  0
 15 16  1  0  0  0  0
 16 17  2  0  0  0  0
 17 18  1  0  0  0  0
 17 22  1  0  0  0  0
 18 23  1  0  0  0  0
 20 14  1  0  0  0  0
 21 16  1  0  0  0  0
 23 26  2  0  0  0  0
 23 24  2  0  0  0  0
 25  3  1  0  0  0  0
 25 23  1  0  0  0  0
 27 29  1  0  0  0  0
 27 15  1  0  0  0  0
 28 27  1  0  0  0  0
 30 27  1  0  0  0  0
M  END
