Coordinates from ORCA-job Ph-N2-OTs-B3LYPG-6-31G_dp-MTMO-d009-169-n800
 OpenBabel09051907503D

 31 31  0  0  0  0  0  0  0  0999 V2000
   -0.5845    0.1894   -1.9128 C   0  0  0  0  0  0  0  0  0  0  0  0
    0.7359    0.0537   -2.3431 C   0  0  0  0  0  0  0  0  0  0  0  0
    1.4989    1.2028   -2.5426 C   0  0  0  0  0  0  0  0  0  0  0  0
    0.9795    2.4761   -2.3164 C   0  0  0  0  0  0  0  0  0  0  0  0
   -0.3429    2.5971   -1.8877 C   0  0  0  0  0  0  0  0  0  0  0  0
   -1.1250    1.4574   -1.6857 C   0  0  0  0  0  0  0  0  0  0  0  0
   -1.1898   -0.6978   -1.7537 H   0  0  0  0  0  0  0  0  0  0  0  0
    1.1790   -0.9190   -2.5236 H   0  0  0  0  0  0  0  0  0  0  0  0
    1.6086    3.3443   -2.4764 H   0  0  0  0  0  0  0  0  0  0  0  0
   -0.7600    3.5835   -1.7083 H   0  0  0  0  0  0  0  0  0  0  0  0
    2.7192    2.7164   -6.2702 N   0  0  0  0  0  0  0  0  0  0  0  0
    3.1611    3.3176   -5.4549 N   0  0  0  0  0  0  0  0  0  0  0  0
    5.9849    2.0341   -3.4569 C   0  0  0  0  0  0  0  0  0  0  0  0
    7.0565    1.9741   -4.3436 C   0  0  0  0  0  0  0  0  0  0  0  0
    7.5354    0.7448   -4.8220 C   0  0  0  0  0  0  0  0  0  0  0  0
    6.9180   -0.4339   -4.3796 C   0  0  0  0  0  0  0  0  0  0  0  0
    5.8439   -0.3964   -3.4932 C   0  0  0  0  0  0  0  0  0  0  0  0
    5.3853    0.8425   -3.0453 C   0  0  0  0  0  0  0  0  0  0  0  0
    5.6240    2.9829   -3.0766 H   0  0  0  0  0  0  0  0  0  0  0  0
    7.5334    2.8957   -4.6654 H   0  0  0  0  0  0  0  0  0  0  0  0
    7.2864   -1.3941   -4.7294 H   0  0  0  0  0  0  0  0  0  0  0  0
    5.3750   -1.3076   -3.1395 H   0  0  0  0  0  0  0  0  0  0  0  0
    4.0218    0.9041   -1.9035 S   0  0  0  0  0  0  0  0  0  0  0  0
    3.8579   -0.3944   -1.2538 O   0  0  0  0  0  0  0  0  0  0  0  0
    2.8066    1.0794   -3.0431 O   0  0  0  0  0  0  0  0  0  0  0  0
    4.0858    2.1303   -1.1125 O   0  0  0  0  0  0  0  0  0  0  0  0
    8.6780    0.6959   -5.8065 C   0  0  0  0  0  0  0  0  0  0  0  0
    8.3127    0.8189   -6.8337 H   0  0  0  0  0  0  0  0  0  0  0  0
    9.4005    1.4963   -5.6211 H   0  0  0  0  0  0  0  0  0  0  0  0
    9.2063   -0.2604   -5.7603 H   0  0  0  0  0  0  0  0  0  0  0  0
   -2.1527    1.5569   -1.3503 H   0  0  0  0  0  0  0  0  0  0  0  0
  1  7  1  0  0  0  0
  1  6  2  0  0  0  0
  2  1  1  0  0  0  0
  3  2  2  0  0  0  0
  3  4  1  0  0  0  0
  4  5  2  0  0  0  0
  5 10  1  0  0  0  0
  5  6  1  0  0  0  0
  6 31  1  0  0  0  0
  8  2  1  0  0  0  0
  9  4  1  0  0  0  0
 11 12  3  0  0  0  0
 13 19  1  0  0  0  0
 13 18  1  0  0  0  0
 14 13  2  0  0  0  0
 15 16  2  0  0  0  0
 15 14  1  0  0  0  0
 16 17  1  0  0  0  0
 17 22  1  0  0  0  0
 17 18  2  0  0  0  0
 18 23  1  0  0  0  0
 20 14  1  0  0  0  0
 21 16  1  0  0  0  0
 23 24  2  0  0  0  0
 23 26  2  0  0  0  0
 25  3  1  0  0  0  0
 25 23  1  0  0  0  0
 27 30  1  0  0  0  0
 27 29  1  0  0  0  0
 27 15  1  0  0  0  0
 28 27  1  0  0  0  0
M  END
