Coordinates from ORCA-job Ph-N2-OTs-B3LYPG-6-31G_dp-MTMO-d009-169-n800
 OpenBabel09051907493D

 31 30  0  0  0  0  0  0  0  0999 V2000
   -0.0148    0.0676   -1.4411 C   0  0  0  0  0  0  0  0  0  0  0  0
    0.6827    1.0419   -2.1836 C   0  0  0  0  0  0  0  0  0  0  0  0
    0.0548    2.1002   -2.4526 C   0  0  0  0  0  0  0  0  0  0  0  0
   -1.1874    2.6187   -2.2243 C   0  0  0  0  0  0  0  0  0  0  0  0
   -1.9037    1.6509   -1.4782 C   0  0  0  0  0  0  0  0  0  0  0  0
   -1.3340    0.4211   -1.1027 C   0  0  0  0  0  0  0  0  0  0  0  0
    0.4114   -0.8854   -1.1441 H   0  0  0  0  0  0  0  0  0  0  0  0
    2.5177    0.7652   -2.7742 H   0  0  0  0  0  0  0  0  0  0  0  0
   -1.5892    3.5748   -2.5307 H   0  0  0  0  0  0  0  0  0  0  0  0
   -2.9265    1.8801   -1.1912 H   0  0  0  0  0  0  0  0  0  0  0  0
    1.1385    4.4797   -3.8877 N   0  0  0  0  0  0  0  0  0  0  0  0
    1.9699    5.0877   -4.2873 N   0  0  0  0  0  0  0  0  0  0  0  0
    6.7372    1.3580   -3.1058 C   0  0  0  0  0  0  0  0  0  0  0  0
    8.0011    0.8378   -3.3775 C   0  0  0  0  0  0  0  0  0  0  0  0
    8.2704    0.1810   -4.5866 C   0  0  0  0  0  0  0  0  0  0  0  0
    7.2362    0.0554   -5.5267 C   0  0  0  0  0  0  0  0  0  0  0  0
    5.9669    0.5691   -5.2739 C   0  0  0  0  0  0  0  0  0  0  0  0
    5.7296    1.2135   -4.0589 C   0  0  0  0  0  0  0  0  0  0  0  0
    6.5301    1.8761   -2.1760 H   0  0  0  0  0  0  0  0  0  0  0  0
    8.7919    0.9467   -2.6399 H   0  0  0  0  0  0  0  0  0  0  0  0
    7.4293   -0.4486   -6.4700 H   0  0  0  0  0  0  0  0  0  0  0  0
    5.1698    0.4835   -6.0045 H   0  0  0  0  0  0  0  0  0  0  0  0
    4.1100    1.8755   -3.7235 S   0  0  0  0  0  0  0  0  0  0  0  0
    3.4534    0.5518   -3.0389 O   0  0  0  0  0  0  0  0  0  0  0  0
    3.4215    2.1481   -4.9866 O   0  0  0  0  0  0  0  0  0  0  0  0
    4.2126    2.9324   -2.7156 O   0  0  0  0  0  0  0  0  0  0  0  0
    9.6507   -0.3521   -4.8868 C   0  0  0  0  0  0  0  0  0  0  0  0
   10.2281    0.3688   -5.4795 H   0  0  0  0  0  0  0  0  0  0  0  0
   10.2133   -0.5468   -3.9696 H   0  0  0  0  0  0  0  0  0  0  0  0
    9.6044   -1.2816   -5.4624 H   0  0  0  0  0  0  0  0  0  0  0  0
   -1.9362   -0.2805   -0.5312 H   0  0  0  0  0  0  0  0  0  0  0  0
  1  7  1  0  0  0  0
  1  6  1  0  0  0  0
  2  1  2  0  0  0  0
  3  4  2  0  0  0  0
  3  2  1  0  0  0  0
  4  5  1  0  0  0  0
  5 10  1  0  0  0  0
  5  6  2  0  0  0  0
  6 31  1  0  0  0  0
  9  4  1  0  0  0  0
 12 11  3  0  0  0  0
 13 19  1  0  0  0  0
 14 13  1  0  0  0  0
 14 20  1  0  0  0  0
 15 14  2  0  0  0  0
 16 17  2  0  0  0  0
 16 15  1  0  0  0  0
 17 18  1  0  0  0  0
 18 23  1  0  0  0  0
 18 13  2  0  0  0  0
 21 16  1  0  0  0  0
 22 17  1  0  0  0  0
 23 24  1  0  0  0  0
 23 26  2  0  0  0  0
 24  8  1  0  0  0  0
 25 23  2  0  0  0  0
 27 15  1  0  0  0  0
 27 29  1  0  0  0  0
 28 27  1  0  0  0  0
 30 27  1  0  0  0  0
M  RAD  2   2   2   3   2
M  END
