Coordinates from ORCA-job Ph-N2-OTs-B3LYPG-6-31G_dp-MTMO-d009-169-n800
 OpenBabel09051907503D

 31 31  0  0  0  0  0  0  0  0999 V2000
   -0.7291   -0.7058   -1.6470 C   0  0  0  0  0  0  0  0  0  0  0  0
    0.6051   -0.6177   -2.0463 C   0  0  0  0  0  0  0  0  0  0  0  0
    1.0899    0.6070   -2.5024 C   0  0  0  0  0  0  0  0  0  0  0  0
    0.2798    1.7394   -2.5624 C   0  0  0  0  0  0  0  0  0  0  0  0
   -1.0532    1.6361   -2.1633 C   0  0  0  0  0  0  0  0  0  0  0  0
   -1.5586    0.4167   -1.7056 C   0  0  0  0  0  0  0  0  0  0  0  0
   -1.1193   -1.6538   -1.2889 H   0  0  0  0  0  0  0  0  0  0  0  0
    1.2691   -1.4735   -2.0060 H   0  0  0  0  0  0  0  0  0  0  0  0
    0.6976    2.6747   -2.9171 H   0  0  0  0  0  0  0  0  0  0  0  0
   -1.6954    2.5108   -2.2082 H   0  0  0  0  0  0  0  0  0  0  0  0
    8.9229    5.8900   -7.3786 N   0  0  0  0  0  0  0  0  0  0  0  0
    8.4795    5.0873   -6.7618 N   0  0  0  0  0  0  0  0  0  0  0  0
    5.4085    2.2466   -3.4464 C   0  0  0  0  0  0  0  0  0  0  0  0
    6.4983    2.2728   -4.3151 C   0  0  0  0  0  0  0  0  0  0  0  0
    7.1611    1.0935   -4.6819 C   0  0  0  0  0  0  0  0  0  0  0  0
    6.7059   -0.1256   -4.1546 C   0  0  0  0  0  0  0  0  0  0  0  0
    5.6213   -0.1734   -3.2845 C   0  0  0  0  0  0  0  0  0  0  0  0
    4.9794    1.0190   -2.9430 C   0  0  0  0  0  0  0  0  0  0  0  0
    4.9018    3.1591   -3.1528 H   0  0  0  0  0  0  0  0  0  0  0  0
    6.8416    3.2234   -4.7133 H   0  0  0  0  0  0  0  0  0  0  0  0
    7.2110   -1.0482   -4.4274 H   0  0  0  0  0  0  0  0  0  0  0  0
    5.2788   -1.1130   -2.8659 H   0  0  0  0  0  0  0  0  0  0  0  0
    3.5949    0.9721   -1.8260 S   0  0  0  0  0  0  0  0  0  0  0  0
    3.6862   -0.2084   -0.9696 O   0  0  0  0  0  0  0  0  0  0  0  0
    2.4104    0.6949   -2.9750 O   0  0  0  0  0  0  0  0  0  0  0  0
    3.3739    2.2955   -1.2478 O   0  0  0  0  0  0  0  0  0  0  0  0
    8.3550    1.1289   -5.6042 C   0  0  0  0  0  0  0  0  0  0  0  0
    8.4371    2.0896   -6.1182 H   0  0  0  0  0  0  0  0  0  0  0  0
    9.2850    0.9717   -5.0446 H   0  0  0  0  0  0  0  0  0  0  0  0
    8.2970    0.3390   -6.3603 H   0  0  0  0  0  0  0  0  0  0  0  0
   -2.5958    0.3419   -1.3936 H   0  0  0  0  0  0  0  0  0  0  0  0
  1  7  1  0  0  0  0
  2  8  1  0  0  0  0
  2  1  2  0  0  0  0
  3  2  1  0  0  0  0
  4  3  2  0  0  0  0
  4  5  1  0  0  0  0
  5  6  2  0  0  0  0
  6  1  1  0  0  0  0
  6 31  1  0  0  0  0
  9  4  1  0  0  0  0
 10  5  1  0  0  0  0
 11 12  3  0  0  0  0
 13 19  1  0  0  0  0
 13 18  2  0  0  0  0
 14 13  1  0  0  0  0
 15 14  2  0  0  0  0
 15 16  1  0  0  0  0
 16 17  2  0  0  0  0
 17 18  1  0  0  0  0
 17 22  1  0  0  0  0
 18 23  1  0  0  0  0
 20 14  1  0  0  0  0
 21 16  1  0  0  0  0
 23 26  2  0  0  0  0
 23 24  2  0  0  0  0
 25  3  1  0  0  0  0
 25 23  1  0  0  0  0
 27 29  1  0  0  0  0
 27 15  1  0  0  0  0
 28 27  1  0  0  0  0
 30 27  1  0  0  0  0
M  END
