Coordinates from ORCA-job Ph-N2-OTs-B3LYPG-6-31G_dp-MTMO-d009-169-n800
 OpenBabel09051907503D

 31 31  0  0  0  0  0  0  0  0999 V2000
   -0.4053    0.0198   -1.1644 C   0  0  0  0  0  0  0  0  0  0  0  0
    0.9269   -0.0523   -1.5741 C   0  0  0  0  0  0  0  0  0  0  0  0
    1.3383    0.7263   -2.6550 C   0  0  0  0  0  0  0  0  0  0  0  0
    0.4563    1.5676   -3.3295 C   0  0  0  0  0  0  0  0  0  0  0  0
   -0.8746    1.6228   -2.9143 C   0  0  0  0  0  0  0  0  0  0  0  0
   -1.3061    0.8525   -1.8320 C   0  0  0  0  0  0  0  0  0  0  0  0
   -0.7383   -0.5778   -0.3210 H   0  0  0  0  0  0  0  0  0  0  0  0
    1.6435   -0.6898   -1.0698 H   0  0  0  0  0  0  0  0  0  0  0  0
    0.8181    2.1589   -4.1635 H   0  0  0  0  0  0  0  0  0  0  0  0
   -1.5723    2.2719   -3.4349 H   0  0  0  0  0  0  0  0  0  0  0  0
    5.4101    6.5517   -2.7289 N   0  0  0  0  0  0  0  0  0  0  0  0
    5.3738    5.7298   -3.4668 N   0  0  0  0  0  0  0  0  0  0  0  0
    5.6278    2.0364   -4.2518 C   0  0  0  0  0  0  0  0  0  0  0  0
    6.7085    1.7419   -5.0811 C   0  0  0  0  0  0  0  0  0  0  0  0
    7.3619    0.5034   -5.0116 C   0  0  0  0  0  0  0  0  0  0  0  0
    6.9055   -0.4453   -4.0831 C   0  0  0  0  0  0  0  0  0  0  0  0
    5.8315   -0.1703   -3.2418 C   0  0  0  0  0  0  0  0  0  0  0  0
    5.1994    1.0709   -3.3408 C   0  0  0  0  0  0  0  0  0  0  0  0
    5.1320    2.9992   -4.2975 H   0  0  0  0  0  0  0  0  0  0  0  0
    7.0514    2.4889   -5.7920 H   0  0  0  0  0  0  0  0  0  0  0  0
    7.4015   -1.4097   -4.0168 H   0  0  0  0  0  0  0  0  0  0  0  0
    5.4907   -0.8992   -2.5146 H   0  0  0  0  0  0  0  0  0  0  0  0
    3.8330    1.4392   -2.2619 S   0  0  0  0  0  0  0  0  0  0  0  0
    4.0104    0.7514   -0.9841 O   0  0  0  0  0  0  0  0  0  0  0  0
    2.6570    0.6264   -3.1309 O   0  0  0  0  0  0  0  0  0  0  0  0
    3.5353    2.8690   -2.2999 O   0  0  0  0  0  0  0  0  0  0  0  0
    8.5523    0.2077   -5.8915 C   0  0  0  0  0  0  0  0  0  0  0  0
    8.5183    0.7848   -6.8192 H   0  0  0  0  0  0  0  0  0  0  0  0
    9.4878    0.4659   -5.3797 H   0  0  0  0  0  0  0  0  0  0  0  0
    8.6061   -0.8536   -6.1502 H   0  0  0  0  0  0  0  0  0  0  0  0
   -2.3416    0.9022   -1.5088 H   0  0  0  0  0  0  0  0  0  0  0  0
  1  7  1  0  0  0  0
  2  1  1  0  0  0  0
  2  8  1  0  0  0  0
  3  2  2  0  0  0  0
  4  5  2  0  0  0  0
  4  3  1  0  0  0  0
  5  6  1  0  0  0  0
  6 31  1  0  0  0  0
  6  1  2  0  0  0  0
  9  4  1  0  0  0  0
 10  5  1  0  0  0  0
 12 11  3  0  0  0  0
 13 18  2  0  0  0  0
 14 15  2  0  0  0  0
 14 13  1  0  0  0  0
 15 16  1  0  0  0  0
 16 21  1  0  0  0  0
 16 17  2  0  0  0  0
 17 22  1  0  0  0  0
 18 17  1  0  0  0  0
 18 23  1  0  0  0  0
 19 13  1  0  0  0  0
 20 14  1  0  0  0  0
 23 24  2  0  0  0  0
 25  3  1  0  0  0  0
 25 23  1  0  0  0  0
 26 23  2  0  0  0  0
 27 29  1  0  0  0  0
 27 15  1  0  0  0  0
 28 27  1  0  0  0  0
 30 27  1  0  0  0  0
M  END
