Coordinates from ORCA-job Ph-N2-OTs-B3LYPG-6-31G_dp-MTMO-d009-169-n800
 OpenBabel09051907503D

 31 31  0  0  0  0  0  0  0  0999 V2000
   -0.6552   -1.0566   -1.3971 C   0  0  0  0  0  0  0  0  0  0  0  0
    0.6388   -0.8246   -1.8648 C   0  0  0  0  0  0  0  0  0  0  0  0
    0.9520    0.4320   -2.3797 C   0  0  0  0  0  0  0  0  0  0  0  0
    0.0109    1.4586   -2.4306 C   0  0  0  0  0  0  0  0  0  0  0  0
   -1.2794    1.2126   -1.9599 C   0  0  0  0  0  0  0  0  0  0  0  0
   -1.6139   -0.0418   -1.4442 C   0  0  0  0  0  0  0  0  0  0  0  0
   -0.9124   -2.0314   -0.9937 H   0  0  0  0  0  0  0  0  0  0  0  0
    1.4015   -1.5946   -1.8349 H   0  0  0  0  0  0  0  0  0  0  0  0
    0.2962    2.4243   -2.8319 H   0  0  0  0  0  0  0  0  0  0  0  0
   -2.0227    2.0037   -1.9957 H   0  0  0  0  0  0  0  0  0  0  0  0
   12.2275    4.7825   -7.1555 N   0  0  0  0  0  0  0  0  0  0  0  0
   11.2442    4.3687   -6.8664 N   0  0  0  0  0  0  0  0  0  0  0  0
    4.9909    2.5031   -3.6922 C   0  0  0  0  0  0  0  0  0  0  0  0
    6.0496    2.5600   -4.5951 C   0  0  0  0  0  0  0  0  0  0  0  0
    6.8531    1.4370   -4.8441 C   0  0  0  0  0  0  0  0  0  0  0  0
    6.5766    0.2481   -4.1524 C   0  0  0  0  0  0  0  0  0  0  0  0
    5.5239    0.1705   -3.2440 C   0  0  0  0  0  0  0  0  0  0  0  0
    4.7361    1.3020   -3.0288 C   0  0  0  0  0  0  0  0  0  0  0  0
    4.3778    3.3740   -3.4889 H   0  0  0  0  0  0  0  0  0  0  0  0
    6.2598    3.4928   -5.1110 H   0  0  0  0  0  0  0  0  0  0  0  0
    7.1979   -0.6269   -4.3230 H   0  0  0  0  0  0  0  0  0  0  0  0
    5.3213   -0.7443   -2.6979 H   0  0  0  0  0  0  0  0  0  0  0  0
    3.3962    1.2203   -1.8599 S   0  0  0  0  0  0  0  0  0  0  0  0
    3.6603    0.1792   -0.8696 O   0  0  0  0  0  0  0  0  0  0  0  0
    2.2313    0.6512   -2.9190 O   0  0  0  0  0  0  0  0  0  0  0  0
    3.0184    2.5681   -1.4409 O   0  0  0  0  0  0  0  0  0  0  0  0
    7.9768    1.5015   -5.8494 C   0  0  0  0  0  0  0  0  0  0  0  0
    8.4413    2.4916   -5.8738 H   0  0  0  0  0  0  0  0  0  0  0  0
    8.7542    0.7647   -5.6288 H   0  0  0  0  0  0  0  0  0  0  0  0
    7.6056    1.2920   -6.8606 H   0  0  0  0  0  0  0  0  0  0  0  0
   -2.6191   -0.2276   -1.0782 H   0  0  0  0  0  0  0  0  0  0  0  0
  1  7  1  0  0  0  0
  2  8  1  0  0  0  0
  2  1  2  0  0  0  0
  3  2  1  0  0  0  0
  4  3  2  0  0  0  0
  4  5  1  0  0  0  0
  5  6  2  0  0  0  0
  6  1  1  0  0  0  0
  6 31  1  0  0  0  0
  9  4  1  0  0  0  0
 10  5  1  0  0  0  0
 11 12  3  0  0  0  0
 13 19  1  0  0  0  0
 13 18  2  0  0  0  0
 14 13  1  0  0  0  0
 15 14  2  0  0  0  0
 15 16  1  0  0  0  0
 16 17  2  0  0  0  0
 17 18  1  0  0  0  0
 17 22  1  0  0  0  0
 18 23  1  0  0  0  0
 20 14  1  0  0  0  0
 21 16  1  0  0  0  0
 23 26  2  0  0  0  0
 23 24  2  0  0  0  0
 25  3  1  0  0  0  0
 25 23  1  0  0  0  0
 27 29  1  0  0  0  0
 27 15  1  0  0  0  0
 28 27  1  0  0  0  0
 30 27  1  0  0  0  0
M  END
