Coordinates from ORCA-job Ph-N2-OTs-B3LYPG-6-31G_dp-MTMO-d009-169-n800
 OpenBabel09051907503D

 31 31  0  0  0  0  0  0  0  0999 V2000
   -0.6680   -1.0658   -1.3940 C   0  0  0  0  0  0  0  0  0  0  0  0
    0.6264   -0.8329   -1.8602 C   0  0  0  0  0  0  0  0  0  0  0  0
    0.9395    0.4243   -2.3738 C   0  0  0  0  0  0  0  0  0  0  0  0
   -0.0020    1.4505   -2.4248 C   0  0  0  0  0  0  0  0  0  0  0  0
   -1.2927    1.2036   -1.9557 C   0  0  0  0  0  0  0  0  0  0  0  0
   -1.6272   -0.0514   -1.4413 C   0  0  0  0  0  0  0  0  0  0  0  0
   -0.9252   -2.0410   -0.9916 H   0  0  0  0  0  0  0  0  0  0  0  0
    1.3893   -1.6025   -1.8302 H   0  0  0  0  0  0  0  0  0  0  0  0
    0.2833    2.4166   -2.8252 H   0  0  0  0  0  0  0  0  0  0  0  0
   -2.0363    1.9943   -1.9916 H   0  0  0  0  0  0  0  0  0  0  0  0
   12.4308    4.8160   -7.2562 N   0  0  0  0  0  0  0  0  0  0  0  0
   11.4405    4.4222   -6.9633 N   0  0  0  0  0  0  0  0  0  0  0  0
    4.9729    2.5009   -3.6829 C   0  0  0  0  0  0  0  0  0  0  0  0
    6.0309    2.5615   -4.5864 C   0  0  0  0  0  0  0  0  0  0  0  0
    6.8381    1.4414   -4.8360 C   0  0  0  0  0  0  0  0  0  0  0  0
    6.5663    0.2515   -4.1444 C   0  0  0  0  0  0  0  0  0  0  0  0
    5.5143    0.1700   -3.2354 C   0  0  0  0  0  0  0  0  0  0  0  0
    4.7227    1.2988   -3.0196 C   0  0  0  0  0  0  0  0  0  0  0  0
    4.3570    3.3697   -3.4790 H   0  0  0  0  0  0  0  0  0  0  0  0
    6.2376    3.4952   -5.1022 H   0  0  0  0  0  0  0  0  0  0  0  0
    7.1906   -0.6214   -4.3155 H   0  0  0  0  0  0  0  0  0  0  0  0
    5.3150   -0.7456   -2.6895 H   0  0  0  0  0  0  0  0  0  0  0  0
    3.3831    1.2120   -1.8508 S   0  0  0  0  0  0  0  0  0  0  0  0
    3.6487    0.1683   -0.8635 O   0  0  0  0  0  0  0  0  0  0  0  0
    2.2192    0.6445   -2.9117 O   0  0  0  0  0  0  0  0  0  0  0  0
    3.0035    2.5580   -1.4278 O   0  0  0  0  0  0  0  0  0  0  0  0
    7.9610    1.5104   -5.8419 C   0  0  0  0  0  0  0  0  0  0  0  0
    8.4220    2.5021   -5.8648 H   0  0  0  0  0  0  0  0  0  0  0  0
    8.7411    0.7760   -5.6227 H   0  0  0  0  0  0  0  0  0  0  0  0
    7.5900    1.3014   -6.8532 H   0  0  0  0  0  0  0  0  0  0  0  0
   -2.6326   -0.2379   -1.0765 H   0  0  0  0  0  0  0  0  0  0  0  0
  1  7  1  0  0  0  0
  2  8  1  0  0  0  0
  2  1  2  0  0  0  0
  3  2  1  0  0  0  0
  4  3  2  0  0  0  0
  4  5  1  0  0  0  0
  5  6  2  0  0  0  0
  6  1  1  0  0  0  0
  6 31  1  0  0  0  0
  9  4  1  0  0  0  0
 10  5  1  0  0  0  0
 11 12  3  0  0  0  0
 13 19  1  0  0  0  0
 13 18  2  0  0  0  0
 14 13  1  0  0  0  0
 15 14  2  0  0  0  0
 15 16  1  0  0  0  0
 16 17  2  0  0  0  0
 17 18  1  0  0  0  0
 17 22  1  0  0  0  0
 18 23  1  0  0  0  0
 20 14  1  0  0  0  0
 21 16  1  0  0  0  0
 23 26  2  0  0  0  0
 23 24  2  0  0  0  0
 25  3  1  0  0  0  0
 25 23  1  0  0  0  0
 27 29  1  0  0  0  0
 27 15  1  0  0  0  0
 28 27  1  0  0  0  0
 30 27  1  0  0  0  0
M  END
