Coordinates from ORCA-job Ph-N2-OTs-B3LYPG-6-31G_dp-MTMO-d009-169-n800
 OpenBabel09051907503D

 31 31  0  0  0  0  0  0  0  0999 V2000
   -0.7292   -0.7504   -1.6305 C   0  0  0  0  0  0  0  0  0  0  0  0
    0.6023   -0.6442   -2.0344 C   0  0  0  0  0  0  0  0  0  0  0  0
    1.0706    0.5885   -2.4863 C   0  0  0  0  0  0  0  0  0  0  0  0
    0.2467    1.7112   -2.5376 C   0  0  0  0  0  0  0  0  0  0  0  0
   -1.0834    1.5899   -2.1339 C   0  0  0  0  0  0  0  0  0  0  0  0
   -1.5723    0.3623   -1.6805 C   0  0  0  0  0  0  0  0  0  0  0  0
   -1.1065   -1.7048   -1.2756 H   0  0  0  0  0  0  0  0  0  0  0  0
    1.2768   -1.4921   -2.0009 H   0  0  0  0  0  0  0  0  0  0  0  0
    0.6519    2.6532   -2.8892 H   0  0  0  0  0  0  0  0  0  0  0  0
   -1.7362    2.4569   -2.1721 H   0  0  0  0  0  0  0  0  0  0  0  0
    9.3387    5.7723   -7.4588 N   0  0  0  0  0  0  0  0  0  0  0  0
    8.8110    5.0134   -6.8530 N   0  0  0  0  0  0  0  0  0  0  0  0
    5.3649    2.2760   -3.4500 C   0  0  0  0  0  0  0  0  0  0  0  0
    6.4516    2.3120   -4.3227 C   0  0  0  0  0  0  0  0  0  0  0  0
    7.1275    1.1399   -4.6874 C   0  0  0  0  0  0  0  0  0  0  0  0
    6.6907   -0.0825   -4.1513 C   0  0  0  0  0  0  0  0  0  0  0  0
    5.6100   -0.1401   -3.2775 C   0  0  0  0  0  0  0  0  0  0  0  0
    4.9533    1.0456   -2.9398 C   0  0  0  0  0  0  0  0  0  0  0  0
    4.8485    3.1835   -3.1579 H   0  0  0  0  0  0  0  0  0  0  0  0
    6.7821    3.2654   -4.7248 H   0  0  0  0  0  0  0  0  0  0  0  0
    7.2080   -0.9996   -4.4199 H   0  0  0  0  0  0  0  0  0  0  0  0
    5.2819   -1.0819   -2.8521 H   0  0  0  0  0  0  0  0  0  0  0  0
    3.5730    0.9858   -1.8182 S   0  0  0  0  0  0  0  0  0  0  0  0
    3.6795   -0.1921   -0.9601 O   0  0  0  0  0  0  0  0  0  0  0  0
    2.3882    0.6940   -2.9633 O   0  0  0  0  0  0  0  0  0  0  0  0
    3.3395    2.3078   -1.2417 O   0  0  0  0  0  0  0  0  0  0  0  0
    8.3098    1.1833   -5.6245 C   0  0  0  0  0  0  0  0  0  0  0  0
    8.4579    2.1840   -6.0362 H   0  0  0  0  0  0  0  0  0  0  0  0
    9.2315    0.8931   -5.1068 H   0  0  0  0  0  0  0  0  0  0  0  0
    8.1785    0.4868   -6.4596 H   0  0  0  0  0  0  0  0  0  0  0  0
   -2.6074    0.2734   -1.3649 H   0  0  0  0  0  0  0  0  0  0  0  0
  1  7  1  0  0  0  0
  2  8  1  0  0  0  0
  2  1  2  0  0  0  0
  3  2  1  0  0  0  0
  4  3  2  0  0  0  0
  4  5  1  0  0  0  0
  5  6  2  0  0  0  0
  6  1  1  0  0  0  0
  6 31  1  0  0  0  0
  9  4  1  0  0  0  0
 10  5  1  0  0  0  0
 11 12  3  0  0  0  0
 13 19  1  0  0  0  0
 13 18  2  0  0  0  0
 14 13  1  0  0  0  0
 15 14  2  0  0  0  0
 15 16  1  0  0  0  0
 16 17  2  0  0  0  0
 17 18  1  0  0  0  0
 17 22  1  0  0  0  0
 18 23  1  0  0  0  0
 20 14  1  0  0  0  0
 21 16  1  0  0  0  0
 23 26  2  0  0  0  0
 23 24  2  0  0  0  0
 25  3  1  0  0  0  0
 25 23  1  0  0  0  0
 27 29  1  0  0  0  0
 27 15  1  0  0  0  0
 28 27  1  0  0  0  0
 30 27  1  0  0  0  0
M  END
