Coordinates from ORCA-job Ph-N2-OTs-B3LYPG-6-31G_dp-MTMO-d009-169-n800
 OpenBabel09051907503D

 31 31  0  0  0  0  0  0  0  0999 V2000
   -0.5560   -0.1911   -1.2885 C   0  0  0  0  0  0  0  0  0  0  0  0
    0.7817   -0.2671   -1.6792 C   0  0  0  0  0  0  0  0  0  0  0  0
    1.2658    0.6645   -2.5967 C   0  0  0  0  0  0  0  0  0  0  0  0
    0.4498    1.6610   -3.1278 C   0  0  0  0  0  0  0  0  0  0  0  0
   -0.8878    1.7191   -2.7353 C   0  0  0  0  0  0  0  0  0  0  0  0
   -1.3914    0.7967   -1.8150 C   0  0  0  0  0  0  0  0  0  0  0  0
   -0.9449   -0.9084   -0.5716 H   0  0  0  0  0  0  0  0  0  0  0  0
    1.4478   -1.0245   -1.2826 H   0  0  0  0  0  0  0  0  0  0  0  0
    0.8673    2.3694   -3.8352 H   0  0  0  0  0  0  0  0  0  0  0  0
   -1.5341    2.4894   -3.1455 H   0  0  0  0  0  0  0  0  0  0  0  0
    6.3298    6.7796   -4.6024 N   0  0  0  0  0  0  0  0  0  0  0  0
    6.2602    5.6839   -4.7281 N   0  0  0  0  0  0  0  0  0  0  0  0
    5.5975    2.0653   -3.8643 C   0  0  0  0  0  0  0  0  0  0  0  0
    6.6766    1.9153   -4.7315 C   0  0  0  0  0  0  0  0  0  0  0  0
    7.3123    0.6749   -4.8914 C   0  0  0  0  0  0  0  0  0  0  0  0
    6.8398   -0.4215   -4.1546 C   0  0  0  0  0  0  0  0  0  0  0  0
    5.7653   -0.2918   -3.2779 C   0  0  0  0  0  0  0  0  0  0  0  0
    5.1509    0.9544   -3.1474 C   0  0  0  0  0  0  0  0  0  0  0  0
    5.1129    3.0264   -3.7353 H   0  0  0  0  0  0  0  0  0  0  0  0
    7.0304    2.7776   -5.2892 H   0  0  0  0  0  0  0  0  0  0  0  0
    7.3224   -1.3885   -4.2660 H   0  0  0  0  0  0  0  0  0  0  0  0
    5.4111   -1.1371   -2.6985 H   0  0  0  0  0  0  0  0  0  0  0  0
    3.7814    1.1390   -2.0265 S   0  0  0  0  0  0  0  0  0  0  0  0
    3.9140    0.1911   -0.9215 O   0  0  0  0  0  0  0  0  0  0  0  0
    2.5901    0.5744   -3.0577 O   0  0  0  0  0  0  0  0  0  0  0  0
    3.5344    2.5548   -1.7656 O   0  0  0  0  0  0  0  0  0  0  0  0
    8.4985    0.5334   -5.8144 C   0  0  0  0  0  0  0  0  0  0  0  0
    8.3851    1.1526   -6.7089 H   0  0  0  0  0  0  0  0  0  0  0  0
    9.4215    0.8521   -5.3145 H   0  0  0  0  0  0  0  0  0  0  0  0
    8.6387   -0.5031   -6.1315 H   0  0  0  0  0  0  0  0  0  0  0  0
   -2.4314    0.8489   -1.5073 H   0  0  0  0  0  0  0  0  0  0  0  0
  1  7  1  0  0  0  0
  2  1  1  0  0  0  0
  2  8  1  0  0  0  0
  3  2  2  0  0  0  0
  4  5  2  0  0  0  0
  4  3  1  0  0  0  0
  5  6  1  0  0  0  0
  6 31  1  0  0  0  0
  6  1  2  0  0  0  0
  9  4  1  0  0  0  0
 10  5  1  0  0  0  0
 12 11  3  0  0  0  0
 13 19  1  0  0  0  0
 13 18  2  0  0  0  0
 14 13  1  0  0  0  0
 15 14  2  0  0  0  0
 15 16  1  0  0  0  0
 16 17  2  0  0  0  0
 17 18  1  0  0  0  0
 17 22  1  0  0  0  0
 18 23  1  0  0  0  0
 20 14  1  0  0  0  0
 21 16  1  0  0  0  0
 23 26  2  0  0  0  0
 23 24  2  0  0  0  0
 25  3  1  0  0  0  0
 25 23  1  0  0  0  0
 27 29  1  0  0  0  0
 27 15  1  0  0  0  0
 28 27  1  0  0  0  0
 30 27  1  0  0  0  0
M  END
