Coordinates from ORCA-job Ph-N2-OTs-B3LYPG-6-31G_dp-MTMO-d009-169-n800
 OpenBabel09051907503D

 31 31  0  0  0  0  0  0  0  0999 V2000
   -0.8548   -1.0949   -1.3480 C   0  0  0  0  0  0  0  0  0  0  0  0
    0.4479   -0.8853   -1.8023 C   0  0  0  0  0  0  0  0  0  0  0  0
    0.7898    0.3677   -2.3076 C   0  0  0  0  0  0  0  0  0  0  0  0
   -0.1311    1.4123   -2.3620 C   0  0  0  0  0  0  0  0  0  0  0  0
   -1.4303    1.1886   -1.9048 C   0  0  0  0  0  0  0  0  0  0  0  0
   -1.7935   -0.0618   -1.3988 C   0  0  0  0  0  0  0  0  0  0  0  0
   -1.1344   -2.0666   -0.9523 H   0  0  0  0  0  0  0  0  0  0  0  0
    1.1953   -1.6700   -1.7694 H   0  0  0  0  0  0  0  0  0  0  0  0
    0.1764    2.3744   -2.7554 H   0  0  0  0  0  0  0  0  0  0  0  0
   -2.1579    1.9939   -1.9435 H   0  0  0  0  0  0  0  0  0  0  0  0
   14.4909    6.0721   -8.3893 N   0  0  0  0  0  0  0  0  0  0  0  0
   13.5265    5.5821   -8.1624 N   0  0  0  0  0  0  0  0  0  0  0  0
    4.8519    2.3918   -3.5770 C   0  0  0  0  0  0  0  0  0  0  0  0
    5.9121    2.4479   -4.4789 C   0  0  0  0  0  0  0  0  0  0  0  0
    6.7072    1.3216   -4.7356 C   0  0  0  0  0  0  0  0  0  0  0  0
    6.4219    0.1287   -4.0533 C   0  0  0  0  0  0  0  0  0  0  0  0
    5.3681    0.0517   -3.1470 C   0  0  0  0  0  0  0  0  0  0  0  0
    4.5882    1.1878   -2.9237 C   0  0  0  0  0  0  0  0  0  0  0  0
    4.2449    3.2655   -3.3677 H   0  0  0  0  0  0  0  0  0  0  0  0
    6.1296    3.3829   -4.9875 H   0  0  0  0  0  0  0  0  0  0  0  0
    7.0375   -0.7493   -4.2302 H   0  0  0  0  0  0  0  0  0  0  0  0
    5.1577   -0.8656   -2.6083 H   0  0  0  0  0  0  0  0  0  0  0  0
    3.2434    1.1062   -1.7609 S   0  0  0  0  0  0  0  0  0  0  0  0
    3.4915    0.0489   -0.7836 O   0  0  0  0  0  0  0  0  0  0  0  0
    2.0780    0.5651   -2.8336 O   0  0  0  0  0  0  0  0  0  0  0  0
    2.8789    2.4524   -1.3254 O   0  0  0  0  0  0  0  0  0  0  0  0
    7.8338    1.3839   -5.7378 C   0  0  0  0  0  0  0  0  0  0  0  0
    8.2072    2.4042   -5.8588 H   0  0  0  0  0  0  0  0  0  0  0  0
    8.6707    0.7457   -5.4397 H   0  0  0  0  0  0  0  0  0  0  0  0
    7.4976    1.0391   -6.7235 H   0  0  0  0  0  0  0  0  0  0  0  0
   -2.8055   -0.2301   -1.0432 H   0  0  0  0  0  0  0  0  0  0  0  0
  1  7  1  0  0  0  0
  2  8  1  0  0  0  0
  2  1  2  0  0  0  0
  3  2  1  0  0  0  0
  4  3  2  0  0  0  0
  4  5  1  0  0  0  0
  5  6  2  0  0  0  0
  6  1  1  0  0  0  0
  6 31  1  0  0  0  0
  9  4  1  0  0  0  0
 10  5  1  0  0  0  0
 11 12  3  0  0  0  0
 13 19  1  0  0  0  0
 13 18  2  0  0  0  0
 14 13  1  0  0  0  0
 15 14  2  0  0  0  0
 15 16  1  0  0  0  0
 16 17  2  0  0  0  0
 17 18  1  0  0  0  0
 17 22  1  0  0  0  0
 18 23  1  0  0  0  0
 20 14  1  0  0  0  0
 21 16  1  0  0  0  0
 23 26  2  0  0  0  0
 23 24  2  0  0  0  0
 25  3  1  0  0  0  0
 25 23  1  0  0  0  0
 27 29  1  0  0  0  0
 27 15  1  0  0  0  0
 28 27  1  0  0  0  0
 30 27  1  0  0  0  0
M  END
