Coordinates from ORCA-job Ph-N2-OTs-B3LYPG-6-31G_dp-MTMO-d009-169-n800
 OpenBabel09051907493D

 31 30  0  0  0  0  0  0  0  0999 V2000
    0.0848    0.1550   -1.5190 C   0  0  0  0  0  0  0  0  0  0  0  0
    0.7111    1.1884   -2.2509 C   0  0  0  0  0  0  0  0  0  0  0  0
   -0.0003    2.2104   -2.4585 C   0  0  0  0  0  0  0  0  0  0  0  0
   -1.2635    2.6426   -2.1783 C   0  0  0  0  0  0  0  0  0  0  0  0
   -1.8985    1.6118   -1.4450 C   0  0  0  0  0  0  0  0  0  0  0  0
   -1.2415    0.4094   -1.1285 C   0  0  0  0  0  0  0  0  0  0  0  0
    0.5782   -0.7789   -1.2673 H   0  0  0  0  0  0  0  0  0  0  0  0
    2.5001    0.9094   -2.8414 H   0  0  0  0  0  0  0  0  0  0  0  0
   -1.7296    3.5821   -2.4430 H   0  0  0  0  0  0  0  0  0  0  0  0
   -2.9240    1.7689   -1.1221 H   0  0  0  0  0  0  0  0  0  0  0  0
    0.9503    4.3190   -3.7356 N   0  0  0  0  0  0  0  0  0  0  0  0
    1.8024    4.9035   -4.1274 N   0  0  0  0  0  0  0  0  0  0  0  0
    6.7354    1.3736   -3.1259 C   0  0  0  0  0  0  0  0  0  0  0  0
    7.9902    0.8175   -3.3658 C   0  0  0  0  0  0  0  0  0  0  0  0
    8.2665    0.1392   -4.5617 C   0  0  0  0  0  0  0  0  0  0  0  0
    7.2482    0.0290   -5.5206 C   0  0  0  0  0  0  0  0  0  0  0  0
    5.9878    0.5784   -5.2994 C   0  0  0  0  0  0  0  0  0  0  0  0
    5.7432    1.2436   -4.0973 C   0  0  0  0  0  0  0  0  0  0  0  0
    6.5239    1.9085   -2.2067 H   0  0  0  0  0  0  0  0  0  0  0  0
    8.7688    0.9150   -2.6136 H   0  0  0  0  0  0  0  0  0  0  0  0
    7.4466   -0.4911   -6.4540 H   0  0  0  0  0  0  0  0  0  0  0  0
    5.2033    0.5046   -6.0449 H   0  0  0  0  0  0  0  0  0  0  0  0
    4.1349    1.9521   -3.8032 S   0  0  0  0  0  0  0  0  0  0  0  0
    3.4344    0.6649   -3.0993 O   0  0  0  0  0  0  0  0  0  0  0  0
    3.4757    2.2135   -5.0844 O   0  0  0  0  0  0  0  0  0  0  0  0
    4.2487    3.0308   -2.8193 O   0  0  0  0  0  0  0  0  0  0  0  0
    9.6384   -0.4323   -4.8277 C   0  0  0  0  0  0  0  0  0  0  0  0
   10.2515    0.2737   -5.4022 H   0  0  0  0  0  0  0  0  0  0  0  0
   10.1710   -0.6457   -3.8969 H   0  0  0  0  0  0  0  0  0  0  0  0
    9.5809   -1.3583   -5.4077 H   0  0  0  0  0  0  0  0  0  0  0  0
   -1.7793   -0.3478   -0.5640 H   0  0  0  0  0  0  0  0  0  0  0  0
  1  7  1  0  0  0  0
  1  6  2  0  0  0  0
  2  1  1  0  0  0  0
  3  2  2  0  0  0  0
  3  4  1  0  0  0  0
  4  5  2  0  0  0  0
  5  6  1  0  0  0  0
  5 10  1  0  0  0  0
  6 31  1  0  0  0  0
  9  4  1  0  0  0  0
 12 11  3  0  0  0  0
 13 19  1  0  0  0  0
 14 13  1  0  0  0  0
 14 20  1  0  0  0  0
 15 14  2  0  0  0  0
 16 17  2  0  0  0  0
 16 15  1  0  0  0  0
 17 18  1  0  0  0  0
 18 23  1  0  0  0  0
 18 13  2  0  0  0  0
 21 16  1  0  0  0  0
 22 17  1  0  0  0  0
 23 24  1  0  0  0  0
 23 26  2  0  0  0  0
 24  8  1  0  0  0  0
 25 23  2  0  0  0  0
 27 15  1  0  0  0  0
 27 29  1  0  0  0  0
 28 27  1  0  0  0  0
 30 27  1  0  0  0  0
M  RAD  2   2   2   3   2
M  END
