Coordinates from ORCA-job Ph-N2-OTs-B3LYPG-6-31G_dp-MTMO-d009-169-n800
 OpenBabel09051907503D

 31 31  0  0  0  0  0  0  0  0999 V2000
   -0.7279   -0.8169   -1.6126 C   0  0  0  0  0  0  0  0  0  0  0  0
    0.5973   -0.6829   -2.0288 C   0  0  0  0  0  0  0  0  0  0  0  0
    1.0414    0.5643   -2.4648 C   0  0  0  0  0  0  0  0  0  0  0  0
    0.1999    1.6749   -2.4881 C   0  0  0  0  0  0  0  0  0  0  0  0
   -1.1235    1.5259   -2.0717 C   0  0  0  0  0  0  0  0  0  0  0  0
   -1.5884    0.2833   -1.6342 C   0  0  0  0  0  0  0  0  0  0  0  0
   -1.0865   -1.7829   -1.2700 H   0  0  0  0  0  0  0  0  0  0  0  0
    1.2853   -1.5205   -2.0172 H   0  0  0  0  0  0  0  0  0  0  0  0
    0.5865    2.6289   -2.8279 H   0  0  0  0  0  0  0  0  0  0  0  0
   -1.7899    2.3832   -2.0876 H   0  0  0  0  0  0  0  0  0  0  0  0
    9.9496    5.6324   -7.4866 N   0  0  0  0  0  0  0  0  0  0  0  0
    9.2543    4.9319   -6.9893 N   0  0  0  0  0  0  0  0  0  0  0  0
    5.3025    2.3170   -3.4731 C   0  0  0  0  0  0  0  0  0  0  0  0
    6.3849    2.3599   -4.3508 C   0  0  0  0  0  0  0  0  0  0  0  0
    7.0778    1.1947   -4.7052 C   0  0  0  0  0  0  0  0  0  0  0  0
    6.6630   -0.0282   -4.1529 C   0  0  0  0  0  0  0  0  0  0  0  0
    5.5868   -0.0928   -3.2740 C   0  0  0  0  0  0  0  0  0  0  0  0
    4.9125    1.0862   -2.9473 C   0  0  0  0  0  0  0  0  0  0  0  0
    4.7732    3.2196   -3.1890 H   0  0  0  0  0  0  0  0  0  0  0  0
    6.6992    3.3136   -4.7646 H   0  0  0  0  0  0  0  0  0  0  0  0
    7.1942   -0.9400   -4.4124 H   0  0  0  0  0  0  0  0  0  0  0  0
    5.2758   -1.0345   -2.8359 H   0  0  0  0  0  0  0  0  0  0  0  0
    3.5390    1.0172   -1.8178 S   0  0  0  0  0  0  0  0  0  0  0  0
    3.6674   -0.1504   -0.9486 O   0  0  0  0  0  0  0  0  0  0  0  0
    2.3525    0.6964   -2.9533 O   0  0  0  0  0  0  0  0  0  0  0  0
    3.2893    2.3416   -1.2537 O   0  0  0  0  0  0  0  0  0  0  0  0
    8.2527    1.2448   -5.6514 C   0  0  0  0  0  0  0  0  0  0  0  0
    8.4195    2.2550   -6.0315 H   0  0  0  0  0  0  0  0  0  0  0  0
    9.1721    0.9155   -5.1539 H   0  0  0  0  0  0  0  0  0  0  0  0
    8.0975    0.5806   -6.5087 H   0  0  0  0  0  0  0  0  0  0  0  0
   -2.6184    0.1730   -1.3090 H   0  0  0  0  0  0  0  0  0  0  0  0
  1  7  1  0  0  0  0
  2  8  1  0  0  0  0
  2  1  2  0  0  0  0
  3  2  1  0  0  0  0
  4  3  2  0  0  0  0
  4  5  1  0  0  0  0
  5  6  2  0  0  0  0
  6  1  1  0  0  0  0
  6 31  1  0  0  0  0
  9  4  1  0  0  0  0
 10  5  1  0  0  0  0
 11 12  3  0  0  0  0
 13 19  1  0  0  0  0
 13 18  2  0  0  0  0
 14 13  1  0  0  0  0
 15 14  2  0  0  0  0
 15 16  1  0  0  0  0
 16 17  2  0  0  0  0
 17 18  1  0  0  0  0
 17 22  1  0  0  0  0
 18 23  1  0  0  0  0
 20 14  1  0  0  0  0
 21 16  1  0  0  0  0
 23 26  2  0  0  0  0
 23 24  2  0  0  0  0
 25  3  1  0  0  0  0
 25 23  1  0  0  0  0
 27 29  1  0  0  0  0
 27 15  1  0  0  0  0
 28 27  1  0  0  0  0
 30 27  1  0  0  0  0
M  END
