Coordinates from ORCA-job Ph-N2-OTs-B3LYPG-6-31G_dp-MTMO-d009-169-n800
 OpenBabel09051907503D

 31 30  0  0  0  0  0  0  0  0999 V2000
   -0.2390    0.0041   -1.1509 C   0  0  0  0  0  0  0  0  0  0  0  0
    0.7266    0.6796   -1.9195 C   0  0  0  0  0  0  0  0  0  0  0  0
    0.3441    1.6883   -2.5675 C   0  0  0  0  0  0  0  0  0  0  0  0
   -0.8226    2.3745   -2.7554 C   0  0  0  0  0  0  0  0  0  0  0  0
   -1.8119    1.7094   -1.9899 C   0  0  0  0  0  0  0  0  0  0  0  0
   -1.5275    0.5673   -1.2191 C   0  0  0  0  0  0  0  0  0  0  0  0
   -0.0347   -0.8769   -0.5503 H   0  0  0  0  0  0  0  0  0  0  0  0
    2.6990    0.4253   -2.1990 H   0  0  0  0  0  0  0  0  0  0  0  0
   -1.0000    3.2562   -3.3556 H   0  0  0  0  0  0  0  0  0  0  0  0
   -2.8235    2.1073   -2.0060 H   0  0  0  0  0  0  0  0  0  0  0  0
    1.2082    4.5571   -4.6053 N   0  0  0  0  0  0  0  0  0  0  0  0
    2.1149    5.0621   -4.9837 N   0  0  0  0  0  0  0  0  0  0  0  0
    6.9435    1.2771   -2.8758 C   0  0  0  0  0  0  0  0  0  0  0  0
    8.1331    0.8303   -3.4489 C   0  0  0  0  0  0  0  0  0  0  0  0
    8.1601    0.3076   -4.7492 C   0  0  0  0  0  0  0  0  0  0  0  0
    6.9578    0.2400   -5.4709 C   0  0  0  0  0  0  0  0  0  0  0  0
    5.7600    0.6814   -4.9161 C   0  0  0  0  0  0  0  0  0  0  0  0
    5.7655    1.1936   -3.6171 C   0  0  0  0  0  0  0  0  0  0  0  0
    6.9209    1.6912   -1.8744 H   0  0  0  0  0  0  0  0  0  0  0  0
    9.0558    0.8908   -2.8782 H   0  0  0  0  0  0  0  0  0  0  0  0
    6.9624   -0.1615   -6.4804 H   0  0  0  0  0  0  0  0  0  0  0  0
    4.8334    0.6405   -5.4784 H   0  0  0  0  0  0  0  0  0  0  0  0
    4.2391    1.7621   -2.8952 S   0  0  0  0  0  0  0  0  0  0  0  0
    3.6747    0.3332   -2.3545 O   0  0  0  0  0  0  0  0  0  0  0  0
    3.3388    2.2364   -3.9522 O   0  0  0  0  0  0  0  0  0  0  0  0
    4.5420    2.6294   -1.7584 O   0  0  0  0  0  0  0  0  0  0  0  0
    9.4574   -0.1456   -5.3742 C   0  0  0  0  0  0  0  0  0  0  0  0
    9.8820    0.6425   -6.0088 H   0  0  0  0  0  0  0  0  0  0  0  0
   10.2034   -0.3918   -4.6138 H   0  0  0  0  0  0  0  0  0  0  0  0
    9.3102   -1.0262   -6.0071 H   0  0  0  0  0  0  0  0  0  0  0  0
   -2.3341    0.1055   -0.6558 H   0  0  0  0  0  0  0  0  0  0  0  0
  1  7  1  0  0  0  0
  2  1  2  0  0  0  0
  3  2  1  0  0  0  0
  4  3  2  0  0  0  0
  4  5  1  0  0  0  0
  5  6  2  0  0  0  0
  6  1  1  0  0  0  0
  6 31  1  0  0  0  0
  9  4  1  0  0  0  0
 10  5  1  0  0  0  0
 12 11  3  0  0  0  0
 13 19  1  0  0  0  0
 14 20  1  0  0  0  0
 14 13  1  0  0  0  0
 15 14  2  0  0  0  0
 16 17  2  0  0  0  0
 16 15  1  0  0  0  0
 17 18  1  0  0  0  0
 18 23  1  0  0  0  0
 18 13  2  0  0  0  0
 21 16  1  0  0  0  0
 22 17  1  0  0  0  0
 23 24  1  0  0  0  0
 23 26  2  0  0  0  0
 24  8  1  0  0  0  0
 25 23  2  0  0  0  0
 27 15  1  0  0  0  0
 27 29  1  0  0  0  0
 28 27  1  0  0  0  0
 30 27  1  0  0  0  0
M  RAD  2   2   2   3   2
M  END
