Coordinates from ORCA-job Ph-N2-OTs-B3LYPG-6-31G_dp-MTMO-d009-169-n800
 OpenBabel09051907503D

 31 31  0  0  0  0  0  0  0  0999 V2000
   -0.7259   -0.7945   -1.6156 C   0  0  0  0  0  0  0  0  0  0  0  0
    0.6012   -0.6690   -2.0283 C   0  0  0  0  0  0  0  0  0  0  0  0
    1.0517    0.5729   -2.4727 C   0  0  0  0  0  0  0  0  0  0  0  0
    0.2147    1.6865   -2.5077 C   0  0  0  0  0  0  0  0  0  0  0  0
   -1.1108    1.5461   -2.0949 C   0  0  0  0  0  0  0  0  0  0  0  0
   -1.5821    0.3089   -1.6491 C   0  0  0  0  0  0  0  0  0  0  0  0
   -1.0896   -1.7563   -1.2666 H   0  0  0  0  0  0  0  0  0  0  0  0
    1.2857   -1.5093   -2.0075 H   0  0  0  0  0  0  0  0  0  0  0  0
    0.6063    2.6362   -2.8538 H   0  0  0  0  0  0  0  0  0  0  0  0
   -1.7737    2.4058   -2.1200 H   0  0  0  0  0  0  0  0  0  0  0  0
    9.7297    5.7141   -7.4616 N   0  0  0  0  0  0  0  0  0  0  0  0
    9.0895    4.9823   -6.9363 N   0  0  0  0  0  0  0  0  0  0  0  0
    5.3278    2.3029   -3.4697 C   0  0  0  0  0  0  0  0  0  0  0  0
    6.4128    2.3387   -4.3446 C   0  0  0  0  0  0  0  0  0  0  0  0
    7.0969    1.1685   -4.6995 C   0  0  0  0  0  0  0  0  0  0  0  0
    6.6706   -0.0520   -4.1506 C   0  0  0  0  0  0  0  0  0  0  0  0
    5.5919   -0.1095   -3.2743 C   0  0  0  0  0  0  0  0  0  0  0  0
    4.9265    1.0745   -2.9470 C   0  0  0  0  0  0  0  0  0  0  0  0
    4.8053    3.2093   -3.1850 H   0  0  0  0  0  0  0  0  0  0  0  0
    6.7363    3.2907   -4.7554 H   0  0  0  0  0  0  0  0  0  0  0  0
    7.1950   -0.9676   -4.4106 H   0  0  0  0  0  0  0  0  0  0  0  0
    5.2724   -1.0494   -2.8386 H   0  0  0  0  0  0  0  0  0  0  0  0
    3.5502    1.0152   -1.8205 S   0  0  0  0  0  0  0  0  0  0  0  0
    3.6710   -0.1503   -0.9475 O   0  0  0  0  0  0  0  0  0  0  0  0
    2.3648    0.6965   -2.9578 O   0  0  0  0  0  0  0  0  0  0  0  0
    3.3053    2.3423   -1.2606 O   0  0  0  0  0  0  0  0  0  0  0  0
    8.2743    1.2105   -5.6429 C   0  0  0  0  0  0  0  0  0  0  0  0
    8.4523    2.2204   -6.0185 H   0  0  0  0  0  0  0  0  0  0  0  0
    9.1892    0.8697   -5.1447 H   0  0  0  0  0  0  0  0  0  0  0  0
    8.1142    0.5514   -6.5032 H   0  0  0  0  0  0  0  0  0  0  0  0
   -2.6136    0.2052   -1.3266 H   0  0  0  0  0  0  0  0  0  0  0  0
  1  7  1  0  0  0  0
  2  8  1  0  0  0  0
  2  1  2  0  0  0  0
  3  2  1  0  0  0  0
  4  3  2  0  0  0  0
  4  5  1  0  0  0  0
  5  6  2  0  0  0  0
  6  1  1  0  0  0  0
  6 31  1  0  0  0  0
  9  4  1  0  0  0  0
 10  5  1  0  0  0  0
 11 12  3  0  0  0  0
 13 19  1  0  0  0  0
 13 18  2  0  0  0  0
 14 13  1  0  0  0  0
 15 14  2  0  0  0  0
 15 16  1  0  0  0  0
 16 17  2  0  0  0  0
 17 18  1  0  0  0  0
 17 22  1  0  0  0  0
 18 23  1  0  0  0  0
 20 14  1  0  0  0  0
 21 16  1  0  0  0  0
 23 26  2  0  0  0  0
 23 24  2  0  0  0  0
 25  3  1  0  0  0  0
 25 23  1  0  0  0  0
 27 29  1  0  0  0  0
 27 15  1  0  0  0  0
 28 27  1  0  0  0  0
 30 27  1  0  0  0  0
M  END
