Coordinates from ORCA-job Ph-N2-OTs-B3LYPG-6-31G_dp-MTMO-d009-169-n800
 OpenBabel09051907503D

 31 31  0  0  0  0  0  0  0  0999 V2000
   -0.7022   -0.5325   -1.6158 C   0  0  0  0  0  0  0  0  0  0  0  0
    0.6380   -0.5154   -2.0044 C   0  0  0  0  0  0  0  0  0  0  0  0
    1.1632    0.6541   -2.5520 C   0  0  0  0  0  0  0  0  0  0  0  0
    0.3873    1.8003   -2.7135 C   0  0  0  0  0  0  0  0  0  0  0  0
   -0.9524    1.7677   -2.3248 C   0  0  0  0  0  0  0  0  0  0  0  0
   -1.4980    0.6045   -1.7762 C   0  0  0  0  0  0  0  0  0  0  0  0
   -1.1236   -1.4370   -1.1875 H   0  0  0  0  0  0  0  0  0  0  0  0
    1.2761   -1.3837   -1.8869 H   0  0  0  0  0  0  0  0  0  0  0  0
    0.8360    2.6918   -3.1370 H   0  0  0  0  0  0  0  0  0  0  0  0
   -1.5683    2.6535   -2.4491 H   0  0  0  0  0  0  0  0  0  0  0  0
    7.6678    6.5459   -6.5182 N   0  0  0  0  0  0  0  0  0  0  0  0
    7.5257    5.5155   -6.1450 N   0  0  0  0  0  0  0  0  0  0  0  0
    5.4816    2.1203   -3.5908 C   0  0  0  0  0  0  0  0  0  0  0  0
    6.5686    2.0847   -4.4597 C   0  0  0  0  0  0  0  0  0  0  0  0
    7.2440    0.8832   -4.7256 C   0  0  0  0  0  0  0  0  0  0  0  0
    6.8024   -0.2897   -4.0970 C   0  0  0  0  0  0  0  0  0  0  0  0
    5.7165   -0.2753   -3.2244 C   0  0  0  0  0  0  0  0  0  0  0  0
    5.0639    0.9340   -2.9845 C   0  0  0  0  0  0  0  0  0  0  0  0
    4.9657    3.0493   -3.3748 H   0  0  0  0  0  0  0  0  0  0  0  0
    6.8988    3.0025   -4.9379 H   0  0  0  0  0  0  0  0  0  0  0  0
    7.3165   -1.2268   -4.2919 H   0  0  0  0  0  0  0  0  0  0  0  0
    5.3816   -1.1800   -2.7298 H   0  0  0  0  0  0  0  0  0  0  0  0
    3.6751    0.9683   -1.8728 S   0  0  0  0  0  0  0  0  0  0  0  0
    3.7374   -0.1741   -0.9635 O   0  0  0  0  0  0  0  0  0  0  0  0
    2.4898    0.6672   -3.0148 O   0  0  0  0  0  0  0  0  0  0  0  0
    3.4802    2.3208   -1.3560 O   0  0  0  0  0  0  0  0  0  0  0  0
    8.4382    0.8645   -5.6485 C   0  0  0  0  0  0  0  0  0  0  0  0
    8.2940    1.5348   -6.5010 H   0  0  0  0  0  0  0  0  0  0  0  0
    9.3419    1.1982   -5.1239 H   0  0  0  0  0  0  0  0  0  0  0  0
    8.6336   -0.1402   -6.0318 H   0  0  0  0  0  0  0  0  0  0  0  0
   -2.5401    0.5845   -1.4726 H   0  0  0  0  0  0  0  0  0  0  0  0
  1  7  1  0  0  0  0
  2  8  1  0  0  0  0
  2  1  2  0  0  0  0
  3  2  1  0  0  0  0
  4  3  2  0  0  0  0
  4  5  1  0  0  0  0
  5  6  2  0  0  0  0
  6  1  1  0  0  0  0
  6 31  1  0  0  0  0
  9  4  1  0  0  0  0
 10  5  1  0  0  0  0
 11 12  3  0  0  0  0
 13 19  1  0  0  0  0
 13 18  2  0  0  0  0
 14 13  1  0  0  0  0
 15 14  2  0  0  0  0
 15 16  1  0  0  0  0
 16 17  2  0  0  0  0
 17 18  1  0  0  0  0
 17 22  1  0  0  0  0
 18 23  1  0  0  0  0
 20 14  1  0  0  0  0
 21 16  1  0  0  0  0
 23 26  2  0  0  0  0
 23 24  2  0  0  0  0
 25  3  1  0  0  0  0
 25 23  1  0  0  0  0
 27 29  1  0  0  0  0
 27 15  1  0  0  0  0
 28 27  1  0  0  0  0
 30 27  1  0  0  0  0
M  END
