Coordinates from ORCA-job Ph-N2-OTs-B3LYPG-6-31G_dp-MTMO-d009-169-n800
 OpenBabel09051907503D

 31 31  0  0  0  0  0  0  0  0999 V2000
   -0.7318   -0.7240   -1.6492 C   0  0  0  0  0  0  0  0  0  0  0  0
    0.6017   -0.6288   -2.0493 C   0  0  0  0  0  0  0  0  0  0  0  0
    1.0823    0.6008   -2.4966 C   0  0  0  0  0  0  0  0  0  0  0  0
    0.2687    1.7311   -2.5470 C   0  0  0  0  0  0  0  0  0  0  0  0
   -1.0635    1.6207   -2.1471 C   0  0  0  0  0  0  0  0  0  0  0  0
   -1.5647    0.3964   -1.6982 C   0  0  0  0  0  0  0  0  0  0  0  0
   -1.1186   -1.6759   -1.2979 H   0  0  0  0  0  0  0  0  0  0  0  0
    1.2684   -1.4828   -2.0164 H   0  0  0  0  0  0  0  0  0  0  0  0
    0.6832    2.6704   -2.8949 H   0  0  0  0  0  0  0  0  0  0  0  0
   -1.7083    2.4938   -2.1845 H   0  0  0  0  0  0  0  0  0  0  0  0
    9.0815    5.8134   -7.4416 N   0  0  0  0  0  0  0  0  0  0  0  0
    8.6021    5.0411   -6.8131 N   0  0  0  0  0  0  0  0  0  0  0  0
    5.3918    2.2586   -3.4403 C   0  0  0  0  0  0  0  0  0  0  0  0
    6.4806    2.2921   -4.3104 C   0  0  0  0  0  0  0  0  0  0  0  0
    7.1490    1.1170   -4.6801 C   0  0  0  0  0  0  0  0  0  0  0  0
    6.7014   -0.1053   -4.1536 C   0  0  0  0  0  0  0  0  0  0  0  0
    5.6182   -0.1603   -3.2824 C   0  0  0  0  0  0  0  0  0  0  0  0
    4.9699    1.0281   -2.9385 C   0  0  0  0  0  0  0  0  0  0  0  0
    4.8809    3.1681   -3.1444 H   0  0  0  0  0  0  0  0  0  0  0  0
    6.8181    3.2453   -4.7070 H   0  0  0  0  0  0  0  0  0  0  0  0
    7.2116   -1.0247   -4.4277 H   0  0  0  0  0  0  0  0  0  0  0  0
    5.2814   -1.1024   -2.8644 H   0  0  0  0  0  0  0  0  0  0  0  0
    3.5865    0.9717   -1.8205 S   0  0  0  0  0  0  0  0  0  0  0  0
    3.6823   -0.2124   -0.9695 O   0  0  0  0  0  0  0  0  0  0  0  0
    2.4020    0.6959   -2.9699 O   0  0  0  0  0  0  0  0  0  0  0  0
    3.3618    2.2917   -1.2361 O   0  0  0  0  0  0  0  0  0  0  0  0
    8.3390    1.1594   -5.6073 C   0  0  0  0  0  0  0  0  0  0  0  0
    8.4410    2.1372   -6.0837 H   0  0  0  0  0  0  0  0  0  0  0  0
    9.2677    0.9565   -5.0607 H   0  0  0  0  0  0  0  0  0  0  0  0
    8.2569    0.4018   -6.3938 H   0  0  0  0  0  0  0  0  0  0  0  0
   -2.6013    0.3161   -1.3856 H   0  0  0  0  0  0  0  0  0  0  0  0
  1  7  1  0  0  0  0
  2  8  1  0  0  0  0
  2  1  2  0  0  0  0
  3  2  1  0  0  0  0
  4  3  2  0  0  0  0
  4  5  1  0  0  0  0
  5  6  2  0  0  0  0
  6  1  1  0  0  0  0
  6 31  1  0  0  0  0
  9  4  1  0  0  0  0
 10  5  1  0  0  0  0
 11 12  3  0  0  0  0
 13 19  1  0  0  0  0
 13 18  2  0  0  0  0
 14 13  1  0  0  0  0
 15 14  2  0  0  0  0
 15 16  1  0  0  0  0
 16 17  2  0  0  0  0
 17 18  1  0  0  0  0
 17 22  1  0  0  0  0
 18 23  1  0  0  0  0
 20 14  1  0  0  0  0
 21 16  1  0  0  0  0
 23 26  2  0  0  0  0
 23 24  2  0  0  0  0
 25  3  1  0  0  0  0
 25 23  1  0  0  0  0
 27 29  1  0  0  0  0
 27 15  1  0  0  0  0
 28 27  1  0  0  0  0
 30 27  1  0  0  0  0
M  END
