Coordinates from ORCA-job Ph-N2-OTs-B3LYPG-6-31G_dp-MTMO-d009-169-n800
 OpenBabel09051907503D

 31 31  0  0  0  0  0  0  0  0999 V2000
   -0.5835    0.2011   -1.8033 C   0  0  0  0  0  0  0  0  0  0  0  0
    0.7334    0.0381   -2.2354 C   0  0  0  0  0  0  0  0  0  0  0  0
    1.4882    1.1724   -2.5288 C   0  0  0  0  0  0  0  0  0  0  0  0
    0.9646    2.4569   -2.3962 C   0  0  0  0  0  0  0  0  0  0  0  0
   -0.3547    2.6045   -1.9666 C   0  0  0  0  0  0  0  0  0  0  0  0
   -1.1287    1.4802   -1.6697 C   0  0  0  0  0  0  0  0  0  0  0  0
   -1.1828   -0.6739   -1.5707 H   0  0  0  0  0  0  0  0  0  0  0  0
    1.1797   -0.9436   -2.3450 H   0  0  0  0  0  0  0  0  0  0  0  0
    1.5878    3.3123   -2.6301 H   0  0  0  0  0  0  0  0  0  0  0  0
   -0.7759    3.5999   -1.8604 H   0  0  0  0  0  0  0  0  0  0  0  0
    3.0042    2.8080   -6.4195 N   0  0  0  0  0  0  0  0  0  0  0  0
    3.2160    3.3052   -5.4554 N   0  0  0  0  0  0  0  0  0  0  0  0
    5.9666    2.0174   -3.4318 C   0  0  0  0  0  0  0  0  0  0  0  0
    7.0350    1.9798   -4.3227 C   0  0  0  0  0  0  0  0  0  0  0  0
    7.5173    0.7618   -4.8277 C   0  0  0  0  0  0  0  0  0  0  0  0
    6.9057   -0.4274   -4.4080 C   0  0  0  0  0  0  0  0  0  0  0  0
    5.8343   -0.4123   -3.5168 C   0  0  0  0  0  0  0  0  0  0  0  0
    5.3726    0.8149   -3.0424 C   0  0  0  0  0  0  0  0  0  0  0  0
    5.6027    2.9566   -3.0308 H   0  0  0  0  0  0  0  0  0  0  0  0
    7.5071    2.9098   -4.6274 H   0  0  0  0  0  0  0  0  0  0  0  0
    7.2758   -1.3787   -4.7795 H   0  0  0  0  0  0  0  0  0  0  0  0
    5.3699   -1.3326   -3.1808 H   0  0  0  0  0  0  0  0  0  0  0  0
    4.0103    0.8492   -1.8977 S   0  0  0  0  0  0  0  0  0  0  0  0
    3.8632   -0.4585   -1.2620 O   0  0  0  0  0  0  0  0  0  0  0  0
    2.7918    1.0226   -3.0330 O   0  0  0  0  0  0  0  0  0  0  0  0
    4.0621    2.0669   -1.0929 O   0  0  0  0  0  0  0  0  0  0  0  0
    8.6605    0.7406   -5.8128 C   0  0  0  0  0  0  0  0  0  0  0  0
    8.3172    1.0237   -6.8154 H   0  0  0  0  0  0  0  0  0  0  0  0
    9.4448    1.4490   -5.5288 H   0  0  0  0  0  0  0  0  0  0  0  0
    9.1082   -0.2537   -5.8867 H   0  0  0  0  0  0  0  0  0  0  0  0
   -2.1539    1.6007   -1.3335 H   0  0  0  0  0  0  0  0  0  0  0  0
  1  6  1  0  0  0  0
  1  7  1  0  0  0  0
  2  1  2  0  0  0  0
  3  4  2  0  0  0  0
  3  2  1  0  0  0  0
  4  5  1  0  0  0  0
  5 10  1  0  0  0  0
  5  6  2  0  0  0  0
  6 31  1  0  0  0  0
  8  2  1  0  0  0  0
  9  4  1  0  0  0  0
 11 12  3  0  0  0  0
 13 18  1  0  0  0  0
 13 19  1  0  0  0  0
 14 13  2  0  0  0  0
 15 16  2  0  0  0  0
 15 14  1  0  0  0  0
 16 17  1  0  0  0  0
 17 22  1  0  0  0  0
 17 18  2  0  0  0  0
 18 23  1  0  0  0  0
 20 14  1  0  0  0  0
 21 16  1  0  0  0  0
 23 24  2  0  0  0  0
 23 26  2  0  0  0  0
 25  3  1  0  0  0  0
 25 23  1  0  0  0  0
 27 29  1  0  0  0  0
 27 15  1  0  0  0  0
 28 27  1  0  0  0  0
 30 27  1  0  0  0  0
M  END
