Coordinates from ORCA-job Ph-N2-OTs-B3LYPG-6-31G_dp-MTMO-d009-169-n800
 OpenBabel09051907493D

 31 30  0  0  0  0  0  0  0  0999 V2000
    0.1797    0.2599   -1.5940 C   0  0  0  0  0  0  0  0  0  0  0  0
    0.7702    1.3252   -2.3209 C   0  0  0  0  0  0  0  0  0  0  0  0
   -0.0224    2.3080   -2.4889 C   0  0  0  0  0  0  0  0  0  0  0  0
   -1.3057    2.6566   -2.1814 C   0  0  0  0  0  0  0  0  0  0  0  0
   -1.8801    1.5879   -1.4601 C   0  0  0  0  0  0  0  0  0  0  0  0
   -1.1499    0.4207   -1.1764 C   0  0  0  0  0  0  0  0  0  0  0  0
    0.7271   -0.6508   -1.3662 H   0  0  0  0  0  0  0  0  0  0  0  0
    2.4767    1.0269   -2.8613 H   0  0  0  0  0  0  0  0  0  0  0  0
   -1.8207    3.5760   -2.4267 H   0  0  0  0  0  0  0  0  0  0  0  0
   -2.9078    1.6842   -1.1222 H   0  0  0  0  0  0  0  0  0  0  0  0
    0.7933    4.0709   -3.5672 N   0  0  0  0  0  0  0  0  0  0  0  0
    1.6656    4.6291   -3.9551 N   0  0  0  0  0  0  0  0  0  0  0  0
    6.7398    1.3929   -3.1307 C   0  0  0  0  0  0  0  0  0  0  0  0
    7.9833    0.8075   -3.3600 C   0  0  0  0  0  0  0  0  0  0  0  0
    8.2493    0.1109   -4.5475 C   0  0  0  0  0  0  0  0  0  0  0  0
    7.2323    0.0126   -5.5089 C   0  0  0  0  0  0  0  0  0  0  0  0
    5.9831    0.5910   -5.2979 C   0  0  0  0  0  0  0  0  0  0  0  0
    5.7481    1.2739   -4.1040 C   0  0  0  0  0  0  0  0  0  0  0  0
    6.5365    1.9420   -2.2181 H   0  0  0  0  0  0  0  0  0  0  0  0
    8.7612    0.8963   -2.6058 H   0  0  0  0  0  0  0  0  0  0  0  0
    7.4228   -0.5213   -6.4362 H   0  0  0  0  0  0  0  0  0  0  0  0
    5.1997    0.5263   -6.0454 H   0  0  0  0  0  0  0  0  0  0  0  0
    4.1527    2.0174   -3.8217 S   0  0  0  0  0  0  0  0  0  0  0  0
    3.4222    0.7629   -3.1070 O   0  0  0  0  0  0  0  0  0  0  0  0
    3.5056    2.2823   -5.1098 O   0  0  0  0  0  0  0  0  0  0  0  0
    4.2906    3.1103   -2.8550 O   0  0  0  0  0  0  0  0  0  0  0  0
    9.6097   -0.4928   -4.8022 C   0  0  0  0  0  0  0  0  0  0  0  0
   10.2426    0.1965   -5.3756 H   0  0  0  0  0  0  0  0  0  0  0  0
   10.1313   -0.7143   -3.8671 H   0  0  0  0  0  0  0  0  0  0  0  0
    9.5349   -1.4198   -5.3786 H   0  0  0  0  0  0  0  0  0  0  0  0
   -1.6319   -0.3785   -0.6195 H   0  0  0  0  0  0  0  0  0  0  0  0
  1  7  1  0  0  0  0
  1  6  2  0  0  0  0
  2  1  1  0  0  0  0
  3  2  2  0  0  0  0
  3  4  1  0  0  0  0
  4  5  2  0  0  0  0
  5  6  1  0  0  0  0
  5 10  1  0  0  0  0
  6 31  1  0  0  0  0
  9  4  1  0  0  0  0
 12 11  3  0  0  0  0
 13 19  1  0  0  0  0
 14 13  1  0  0  0  0
 14 20  1  0  0  0  0
 15 14  2  0  0  0  0
 16 17  2  0  0  0  0
 16 15  1  0  0  0  0
 17 18  1  0  0  0  0
 18 23  1  0  0  0  0
 18 13  2  0  0  0  0
 21 16  1  0  0  0  0
 22 17  1  0  0  0  0
 23 24  1  0  0  0  0
 23 26  2  0  0  0  0
 24  8  1  0  0  0  0
 25 23  2  0  0  0  0
 27 15  1  0  0  0  0
 27 29  1  0  0  0  0
 28 27  1  0  0  0  0
 30 27  1  0  0  0  0
M  RAD  2   2   2   3   2
M  END
