Coordinates from ORCA-job Ph-N2-OTs-B3LYPG-6-31G_dp-MTMO-d009-169-n800
 OpenBabel09051907503D

 31 31  0  0  0  0  0  0  0  0999 V2000
   -0.7853   -1.0708   -1.3856 C   0  0  0  0  0  0  0  0  0  0  0  0
    0.5171   -0.8581   -1.8390 C   0  0  0  0  0  0  0  0  0  0  0  0
    0.8573    0.3965   -2.3415 C   0  0  0  0  0  0  0  0  0  0  0  0
   -0.0652    1.4398   -2.3938 C   0  0  0  0  0  0  0  0  0  0  0  0
   -1.3642    1.2131   -1.9375 C   0  0  0  0  0  0  0  0  0  0  0  0
   -1.7256   -0.0390   -1.4344 C   0  0  0  0  0  0  0  0  0  0  0  0
   -1.0635   -2.0438   -0.9921 H   0  0  0  0  0  0  0  0  0  0  0  0
    1.2658   -1.6417   -1.8076 H   0  0  0  0  0  0  0  0  0  0  0  0
    0.2409    2.4032   -2.7850 H   0  0  0  0  0  0  0  0  0  0  0  0
   -2.0931    2.0173   -1.9746 H   0  0  0  0  0  0  0  0  0  0  0  0
   13.5181    5.5759   -7.9314 N   0  0  0  0  0  0  0  0  0  0  0  0
   12.5468    5.1021   -7.6996 N   0  0  0  0  0  0  0  0  0  0  0  0
    4.9176    2.4293   -3.6050 C   0  0  0  0  0  0  0  0  0  0  0  0
    5.9784    2.4883   -4.5060 C   0  0  0  0  0  0  0  0  0  0  0  0
    6.7749    1.3634   -4.7645 C   0  0  0  0  0  0  0  0  0  0  0  0
    6.4904    0.1689   -4.0849 C   0  0  0  0  0  0  0  0  0  0  0  0
    5.4360    0.0888   -3.1795 C   0  0  0  0  0  0  0  0  0  0  0  0
    4.6548    1.2236   -2.9543 C   0  0  0  0  0  0  0  0  0  0  0  0
    4.3096    3.3019   -3.3942 H   0  0  0  0  0  0  0  0  0  0  0  0
    6.1953    3.4246   -5.0125 H   0  0  0  0  0  0  0  0  0  0  0  0
    7.1070   -0.7081   -4.2632 H   0  0  0  0  0  0  0  0  0  0  0  0
    5.2262   -0.8298   -2.6428 H   0  0  0  0  0  0  0  0  0  0  0  0
    3.3094    1.1382   -1.7925 S   0  0  0  0  0  0  0  0  0  0  0  0
    3.5585    0.0797   -0.8167 O   0  0  0  0  0  0  0  0  0  0  0  0
    2.1453    0.5971   -2.8666 O   0  0  0  0  0  0  0  0  0  0  0  0
    2.9427    2.4831   -1.3550 O   0  0  0  0  0  0  0  0  0  0  0  0
    7.9019    1.4292   -5.7661 C   0  0  0  0  0  0  0  0  0  0  0  0
    8.2803    2.4487   -5.8781 H   0  0  0  0  0  0  0  0  0  0  0  0
    8.7356    0.7843   -5.4737 H   0  0  0  0  0  0  0  0  0  0  0  0
    7.5639    1.0949   -6.7548 H   0  0  0  0  0  0  0  0  0  0  0  0
   -2.7374   -0.2097   -1.0794 H   0  0  0  0  0  0  0  0  0  0  0  0
  1  7  1  0  0  0  0
  2  8  1  0  0  0  0
  2  1  2  0  0  0  0
  3  2  1  0  0  0  0
  4  3  2  0  0  0  0
  4  5  1  0  0  0  0
  5  6  2  0  0  0  0
  6  1  1  0  0  0  0
  6 31  1  0  0  0  0
  9  4  1  0  0  0  0
 10  5  1  0  0  0  0
 11 12  3  0  0  0  0
 13 19  1  0  0  0  0
 13 18  2  0  0  0  0
 14 13  1  0  0  0  0
 15 14  2  0  0  0  0
 15 16  1  0  0  0  0
 16 17  2  0  0  0  0
 17 18  1  0  0  0  0
 17 22  1  0  0  0  0
 18 23  1  0  0  0  0
 20 14  1  0  0  0  0
 21 16  1  0  0  0  0
 23 26  2  0  0  0  0
 23 24  2  0  0  0  0
 25  3  1  0  0  0  0
 25 23  1  0  0  0  0
 27 29  1  0  0  0  0
 27 15  1  0  0  0  0
 28 27  1  0  0  0  0
 30 27  1  0  0  0  0
M  END
