Coordinates from ORCA-job Ph-N2-OTs-B3LYPG-6-31G_dp-MTMO-d009-169-n800
 OpenBabel09051907503D

 31 31  0  0  0  0  0  0  0  0999 V2000
   -0.5531   -0.1812   -1.2911 C   0  0  0  0  0  0  0  0  0  0  0  0
    0.7845   -0.2606   -1.6816 C   0  0  0  0  0  0  0  0  0  0  0  0
    1.2710    0.6699   -2.5990 C   0  0  0  0  0  0  0  0  0  0  0  0
    0.4576    1.6686   -3.1301 C   0  0  0  0  0  0  0  0  0  0  0  0
   -0.8799    1.7300   -2.7377 C   0  0  0  0  0  0  0  0  0  0  0  0
   -1.3859    0.8088   -1.8175 C   0  0  0  0  0  0  0  0  0  0  0  0
   -0.9439   -0.8977   -0.5744 H   0  0  0  0  0  0  0  0  0  0  0  0
    1.4485   -1.0198   -1.2851 H   0  0  0  0  0  0  0  0  0  0  0  0
    0.8770    2.3759   -3.8373 H   0  0  0  0  0  0  0  0  0  0  0  0
   -1.5241    2.5021   -3.1478 H   0  0  0  0  0  0  0  0  0  0  0  0
    6.2385    6.7708   -4.5634 N   0  0  0  0  0  0  0  0  0  0  0  0
    6.1915    5.6758   -4.7046 N   0  0  0  0  0  0  0  0  0  0  0  0
    5.6037    2.0610   -3.8685 C   0  0  0  0  0  0  0  0  0  0  0  0
    6.6825    1.9088   -4.7357 C   0  0  0  0  0  0  0  0  0  0  0  0
    7.3176    0.6678   -4.8933 C   0  0  0  0  0  0  0  0  0  0  0  0
    6.8448   -0.4269   -4.1543 C   0  0  0  0  0  0  0  0  0  0  0  0
    5.7705   -0.2951   -3.2777 C   0  0  0  0  0  0  0  0  0  0  0  0
    5.1567    0.9517   -3.1494 C   0  0  0  0  0  0  0  0  0  0  0  0
    5.1198    3.0226   -3.7413 H   0  0  0  0  0  0  0  0  0  0  0  0
    7.0365    2.7698   -5.2952 H   0  0  0  0  0  0  0  0  0  0  0  0
    7.3269   -1.3943   -4.2640 H   0  0  0  0  0  0  0  0  0  0  0  0
    5.4160   -1.1392   -2.6967 H   0  0  0  0  0  0  0  0  0  0  0  0
    3.7875    1.1391   -2.0286 S   0  0  0  0  0  0  0  0  0  0  0  0
    3.9184    0.1914   -0.9233 O   0  0  0  0  0  0  0  0  0  0  0  0
    2.5951    0.5764   -3.0597 O   0  0  0  0  0  0  0  0  0  0  0  0
    3.5431    2.5555   -1.7683 O   0  0  0  0  0  0  0  0  0  0  0  0
    8.5037    0.5240   -5.8161 C   0  0  0  0  0  0  0  0  0  0  0  0
    8.3910    1.1423   -6.7114 H   0  0  0  0  0  0  0  0  0  0  0  0
    9.4270    0.8424   -5.3166 H   0  0  0  0  0  0  0  0  0  0  0  0
    8.6429   -0.5130   -6.1319 H   0  0  0  0  0  0  0  0  0  0  0  0
   -2.4258    0.8637   -1.5099 H   0  0  0  0  0  0  0  0  0  0  0  0
  1  7  1  0  0  0  0
  2  1  1  0  0  0  0
  2  8  1  0  0  0  0
  3  2  2  0  0  0  0
  4  5  2  0  0  0  0
  4  3  1  0  0  0  0
  5  6  1  0  0  0  0
  6 31  1  0  0  0  0
  6  1  2  0  0  0  0
  9  4  1  0  0  0  0
 10  5  1  0  0  0  0
 12 11  3  0  0  0  0
 13 19  1  0  0  0  0
 13 18  2  0  0  0  0
 14 13  1  0  0  0  0
 15 14  2  0  0  0  0
 15 16  1  0  0  0  0
 16 17  2  0  0  0  0
 17 18  1  0  0  0  0
 17 22  1  0  0  0  0
 18 23  1  0  0  0  0
 20 14  1  0  0  0  0
 21 16  1  0  0  0  0
 23 26  2  0  0  0  0
 23 24  2  0  0  0  0
 25  3  1  0  0  0  0
 25 23  1  0  0  0  0
 27 29  1  0  0  0  0
 27 15  1  0  0  0  0
 28 27  1  0  0  0  0
 30 27  1  0  0  0  0
M  END
