Coordinates from ORCA-job Ph-N2-OTs-B3LYPG-6-31G_dp-MTMO-d009-169-n800
 OpenBabel09051907493D

 31 30  0  0  0  0  0  0  0  0999 V2000
   -0.0930    0.0452   -1.2936 C   0  0  0  0  0  0  0  0  0  0  0  0
    0.6867    0.8904   -2.1060 C   0  0  0  0  0  0  0  0  0  0  0  0
    0.1262    1.9160   -2.5725 C   0  0  0  0  0  0  0  0  0  0  0  0
   -1.1107    2.4938   -2.5133 C   0  0  0  0  0  0  0  0  0  0  0  0
   -1.9142    1.6579   -1.6997 C   0  0  0  0  0  0  0  0  0  0  0  0
   -1.4201    0.4783   -1.1142 C   0  0  0  0  0  0  0  0  0  0  0  0
    0.2752   -0.8665   -0.8341 H   0  0  0  0  0  0  0  0  0  0  0  0
    2.6019    0.6368   -2.5292 H   0  0  0  0  0  0  0  0  0  0  0  0
   -1.4539    3.4088   -2.9762 H   0  0  0  0  0  0  0  0  0  0  0  0
   -2.9467    1.9510   -1.5277 H   0  0  0  0  0  0  0  0  0  0  0  0
    1.1058    4.5133   -4.3254 N   0  0  0  0  0  0  0  0  0  0  0  0
    1.8538    5.1761   -4.7962 N   0  0  0  0  0  0  0  0  0  0  0  0
    6.8772    1.2781   -2.9556 C   0  0  0  0  0  0  0  0  0  0  0  0
    8.1018    0.7728   -3.3894 C   0  0  0  0  0  0  0  0  0  0  0  0
    8.2449    0.2156   -4.6676 C   0  0  0  0  0  0  0  0  0  0  0  0
    7.1235    0.1738   -5.5108 C   0  0  0  0  0  0  0  0  0  0  0  0
    5.8922    0.6737   -5.0959 C   0  0  0  0  0  0  0  0  0  0  0  0
    5.7811    1.2188   -3.8156 C   0  0  0  0  0  0  0  0  0  0  0  0
    6.7675    1.7195   -1.9714 H   0  0  0  0  0  0  0  0  0  0  0  0
    8.9611    0.8150   -2.7253 H   0  0  0  0  0  0  0  0  0  0  0  0
    7.2175   -0.2530   -6.5057 H   0  0  0  0  0  0  0  0  0  0  0  0
    5.0285    0.6531   -5.7517 H   0  0  0  0  0  0  0  0  0  0  0  0
    4.2118    1.8654   -3.2740 S   0  0  0  0  0  0  0  0  0  0  0  0
    3.5670    0.4808   -2.7063 O   0  0  0  0  0  0  0  0  0  0  0  0
    3.4292    2.2977   -4.4352 O   0  0  0  0  0  0  0  0  0  0  0  0
    4.4297    2.7904   -2.1624 O   0  0  0  0  0  0  0  0  0  0  0  0
    9.5819   -0.3009   -5.1420 C   0  0  0  0  0  0  0  0  0  0  0  0
   10.1026    0.4556   -5.7428 H   0  0  0  0  0  0  0  0  0  0  0  0
   10.2334   -0.5576   -4.3021 H   0  0  0  0  0  0  0  0  0  0  0  0
    9.4668   -1.1900   -5.7695 H   0  0  0  0  0  0  0  0  0  0  0  0
   -2.0890   -0.1192   -0.5001 H   0  0  0  0  0  0  0  0  0  0  0  0
  1  6  1  0  0  0  0
  1  7  1  0  0  0  0
  2  1  2  0  0  0  0
  3  4  2  0  0  0  0
  3  2  1  0  0  0  0
  4  5  1  0  0  0  0
  5 10  1  0  0  0  0
  5  6  2  0  0  0  0
  6 31  1  0  0  0  0
  9  4  1  0  0  0  0
 12 11  3  0  0  0  0
 13 19  1  0  0  0  0
 14 13  1  0  0  0  0
 14 20  1  0  0  0  0
 15 14  2  0  0  0  0
 16 17  2  0  0  0  0
 16 15  1  0  0  0  0
 17 18  1  0  0  0  0
 18 23  1  0  0  0  0
 18 13  2  0  0  0  0
 21 16  1  0  0  0  0
 22 17  1  0  0  0  0
 23 24  1  0  0  0  0
 23 26  2  0  0  0  0
 24  8  1  0  0  0  0
 25 23  2  0  0  0  0
 27 15  1  0  0  0  0
 27 29  1  0  0  0  0
 28 27  1  0  0  0  0
 30 27  1  0  0  0  0
M  RAD  2   2   2   3   2
M  END
