Coordinates from ORCA-job Ph-N2-OTs-B3LYPG-6-31G_dp-MTMO-d009-169-n800
 OpenBabel09051907503D

 31 31  0  0  0  0  0  0  0  0999 V2000
   -0.7910   -1.0725   -1.3826 C   0  0  0  0  0  0  0  0  0  0  0  0
    0.5115   -0.8602   -1.8361 C   0  0  0  0  0  0  0  0  0  0  0  0
    0.8519    0.3943   -2.3388 C   0  0  0  0  0  0  0  0  0  0  0  0
   -0.0704    1.4378   -2.3913 C   0  0  0  0  0  0  0  0  0  0  0  0
   -1.3694    1.2115   -1.9349 C   0  0  0  0  0  0  0  0  0  0  0  0
   -1.7311   -0.0405   -1.4316 C   0  0  0  0  0  0  0  0  0  0  0  0
   -1.0694   -2.0453   -0.9890 H   0  0  0  0  0  0  0  0  0  0  0  0
    1.2600   -1.6439   -1.8046 H   0  0  0  0  0  0  0  0  0  0  0  0
    0.2359    2.4011   -2.7827 H   0  0  0  0  0  0  0  0  0  0  0  0
   -2.0981    2.0159   -1.9721 H   0  0  0  0  0  0  0  0  0  0  0  0
   13.5947    5.6169   -7.9677 N   0  0  0  0  0  0  0  0  0  0  0  0
   12.6240    5.1417   -7.7366 N   0  0  0  0  0  0  0  0  0  0  0  0
    4.9126    2.4260   -3.6028 C   0  0  0  0  0  0  0  0  0  0  0  0
    5.9733    2.4848   -4.5038 C   0  0  0  0  0  0  0  0  0  0  0  0
    6.7696    1.3597   -4.7622 C   0  0  0  0  0  0  0  0  0  0  0  0
    6.4850    0.1653   -4.0823 C   0  0  0  0  0  0  0  0  0  0  0  0
    5.4306    0.0856   -3.1768 C   0  0  0  0  0  0  0  0  0  0  0  0
    4.6496    1.2206   -2.9519 C   0  0  0  0  0  0  0  0  0  0  0  0
    4.3047    3.2988   -3.3921 H   0  0  0  0  0  0  0  0  0  0  0  0
    6.1904    3.4209   -5.0105 H   0  0  0  0  0  0  0  0  0  0  0  0
    7.1014   -0.7118   -4.2604 H   0  0  0  0  0  0  0  0  0  0  0  0
    5.2207   -0.8329   -2.6400 H   0  0  0  0  0  0  0  0  0  0  0  0
    3.3042    1.1356   -1.7900 S   0  0  0  0  0  0  0  0  0  0  0  0
    3.5531    0.0772   -0.8140 O   0  0  0  0  0  0  0  0  0  0  0  0
    2.1400    0.5945   -2.8639 O   0  0  0  0  0  0  0  0  0  0  0  0
    2.9378    2.4806   -1.3527 O   0  0  0  0  0  0  0  0  0  0  0  0
    7.8966    1.4250   -5.7637 C   0  0  0  0  0  0  0  0  0  0  0  0
    8.2745    2.4446   -5.8768 H   0  0  0  0  0  0  0  0  0  0  0  0
    8.7307    0.7809   -5.4707 H   0  0  0  0  0  0  0  0  0  0  0  0
    7.5589    1.0896   -6.7522 H   0  0  0  0  0  0  0  0  0  0  0  0
   -2.7429   -0.2109   -1.0766 H   0  0  0  0  0  0  0  0  0  0  0  0
  1  7  1  0  0  0  0
  2  8  1  0  0  0  0
  2  1  2  0  0  0  0
  3  2  1  0  0  0  0
  4  3  2  0  0  0  0
  4  5  1  0  0  0  0
  5  6  2  0  0  0  0
  6  1  1  0  0  0  0
  6 31  1  0  0  0  0
  9  4  1  0  0  0  0
 10  5  1  0  0  0  0
 11 12  3  0  0  0  0
 13 19  1  0  0  0  0
 13 18  2  0  0  0  0
 14 13  1  0  0  0  0
 15 14  2  0  0  0  0
 15 16  1  0  0  0  0
 16 17  2  0  0  0  0
 17 18  1  0  0  0  0
 17 22  1  0  0  0  0
 18 23  1  0  0  0  0
 20 14  1  0  0  0  0
 21 16  1  0  0  0  0
 23 26  2  0  0  0  0
 23 24  2  0  0  0  0
 25  3  1  0  0  0  0
 25 23  1  0  0  0  0
 27 29  1  0  0  0  0
 27 15  1  0  0  0  0
 28 27  1  0  0  0  0
 30 27  1  0  0  0  0
M  END
