Coordinates from ORCA-job Ph-N2-OTs-B3LYPG-6-31G_dp-MTMO-d009-169-n800
 OpenBabel09051907503D

 31 31  0  0  0  0  0  0  0  0999 V2000
   -0.6498   -1.0466   -1.4001 C   0  0  0  0  0  0  0  0  0  0  0  0
    0.6447   -0.8178   -1.8682 C   0  0  0  0  0  0  0  0  0  0  0  0
    0.9606    0.4379   -2.3837 C   0  0  0  0  0  0  0  0  0  0  0  0
    0.0219    1.4667   -2.4347 C   0  0  0  0  0  0  0  0  0  0  0  0
   -1.2689    1.2239   -1.9637 C   0  0  0  0  0  0  0  0  0  0  0  0
   -1.6061   -0.0296   -1.4474 C   0  0  0  0  0  0  0  0  0  0  0  0
   -0.9092   -2.0206   -0.9964 H   0  0  0  0  0  0  0  0  0  0  0  0
    1.4056   -1.5895   -1.8382 H   0  0  0  0  0  0  0  0  0  0  0  0
    0.3094    2.4315   -2.8365 H   0  0  0  0  0  0  0  0  0  0  0  0
   -2.0103    2.0166   -1.9996 H   0  0  0  0  0  0  0  0  0  0  0  0
   12.0823    4.7864   -7.0884 N   0  0  0  0  0  0  0  0  0  0  0  0
   11.1056    4.3533   -6.8051 N   0  0  0  0  0  0  0  0  0  0  0  0
    5.0035    2.4995   -3.6990 C   0  0  0  0  0  0  0  0  0  0  0  0
    6.0626    2.5533   -4.6017 C   0  0  0  0  0  0  0  0  0  0  0  0
    6.8642    1.4287   -4.8490 C   0  0  0  0  0  0  0  0  0  0  0  0
    6.5855    0.2412   -4.1557 C   0  0  0  0  0  0  0  0  0  0  0  0
    5.5325    0.1666   -3.2474 C   0  0  0  0  0  0  0  0  0  0  0  0
    4.7466    1.2997   -3.0339 C   0  0  0  0  0  0  0  0  0  0  0  0
    4.3919    3.3717   -3.4969 H   0  0  0  0  0  0  0  0  0  0  0  0
    6.2745    3.4850   -5.1188 H   0  0  0  0  0  0  0  0  0  0  0  0
    7.2054   -0.6351   -4.3250 H   0  0  0  0  0  0  0  0  0  0  0  0
    5.3283   -0.7471   -2.7000 H   0  0  0  0  0  0  0  0  0  0  0  0
    3.4064    1.2220   -1.8650 S   0  0  0  0  0  0  0  0  0  0  0  0
    3.6685    0.1814   -0.8734 O   0  0  0  0  0  0  0  0  0  0  0  0
    2.2404    0.6539   -2.9234 O   0  0  0  0  0  0  0  0  0  0  0  0
    3.0313    2.5710   -1.4475 O   0  0  0  0  0  0  0  0  0  0  0  0
    7.9882    1.4898   -5.8542 C   0  0  0  0  0  0  0  0  0  0  0  0
    8.4517    2.4801   -5.8833 H   0  0  0  0  0  0  0  0  0  0  0  0
    8.7664    0.7549   -5.6298 H   0  0  0  0  0  0  0  0  0  0  0  0
    7.6176    1.2749   -6.8644 H   0  0  0  0  0  0  0  0  0  0  0  0
   -2.6117   -0.2129   -1.0811 H   0  0  0  0  0  0  0  0  0  0  0  0
  1  7  1  0  0  0  0
  2  8  1  0  0  0  0
  2  1  2  0  0  0  0
  3  2  1  0  0  0  0
  4  3  2  0  0  0  0
  4  5  1  0  0  0  0
  5  6  2  0  0  0  0
  6  1  1  0  0  0  0
  6 31  1  0  0  0  0
  9  4  1  0  0  0  0
 10  5  1  0  0  0  0
 11 12  3  0  0  0  0
 13 19  1  0  0  0  0
 13 18  2  0  0  0  0
 14 13  1  0  0  0  0
 15 14  2  0  0  0  0
 15 16  1  0  0  0  0
 16 17  2  0  0  0  0
 17 18  1  0  0  0  0
 17 22  1  0  0  0  0
 18 23  1  0  0  0  0
 20 14  1  0  0  0  0
 21 16  1  0  0  0  0
 23 26  2  0  0  0  0
 23 24  2  0  0  0  0
 25  3  1  0  0  0  0
 25 23  1  0  0  0  0
 27 29  1  0  0  0  0
 27 15  1  0  0  0  0
 28 27  1  0  0  0  0
 30 27  1  0  0  0  0
M  END
