Coordinates from ORCA-job Ph-N2-OTs-B3LYPG-6-31G_dp-MTMO-d009-169-n800
 OpenBabel09051907503D

 31 31  0  0  0  0  0  0  0  0999 V2000
   -0.6989   -0.5033   -1.6297 C   0  0  0  0  0  0  0  0  0  0  0  0
    0.6423   -0.4966   -2.0152 C   0  0  0  0  0  0  0  0  0  0  0  0
    1.1777    0.6687   -2.5619 C   0  0  0  0  0  0  0  0  0  0  0  0
    0.4108    1.8206   -2.7258 C   0  0  0  0  0  0  0  0  0  0  0  0
   -0.9300    1.7983   -2.3403 C   0  0  0  0  0  0  0  0  0  0  0  0
   -1.4857    0.6395   -1.7925 C   0  0  0  0  0  0  0  0  0  0  0  0
   -1.1282   -1.4045   -1.2021 H   0  0  0  0  0  0  0  0  0  0  0  0
    1.2736   -1.3696   -1.8958 H   0  0  0  0  0  0  0  0  0  0  0  0
    0.8672    2.7085   -3.1486 H   0  0  0  0  0  0  0  0  0  0  0  0
   -1.5390    2.6887   -2.4664 H   0  0  0  0  0  0  0  0  0  0  0  0
    7.3698    6.5903   -6.4545 N   0  0  0  0  0  0  0  0  0  0  0  0
    7.3429    5.5486   -6.0867 N   0  0  0  0  0  0  0  0  0  0  0  0
    5.5055    2.1026   -3.5919 C   0  0  0  0  0  0  0  0  0  0  0  0
    6.5939    2.0609   -4.4587 C   0  0  0  0  0  0  0  0  0  0  0  0
    7.2644    0.8560   -4.7216 C   0  0  0  0  0  0  0  0  0  0  0  0
    6.8164   -0.3140   -4.0921 C   0  0  0  0  0  0  0  0  0  0  0  0
    5.7287   -0.2934   -3.2216 C   0  0  0  0  0  0  0  0  0  0  0  0
    5.0813    0.9191   -2.9847 C   0  0  0  0  0  0  0  0  0  0  0  0
    4.9936    3.0343   -3.3782 H   0  0  0  0  0  0  0  0  0  0  0  0
    6.9285    2.9768   -4.9375 H   0  0  0  0  0  0  0  0  0  0  0  0
    7.3268   -1.2536   -4.2845 H   0  0  0  0  0  0  0  0  0  0  0  0
    5.3888   -1.1959   -2.7264 H   0  0  0  0  0  0  0  0  0  0  0  0
    3.6903    0.9614   -1.8761 S   0  0  0  0  0  0  0  0  0  0  0  0
    3.7422   -0.1834   -0.9690 O   0  0  0  0  0  0  0  0  0  0  0  0
    2.5054    0.6717   -3.0214 O   0  0  0  0  0  0  0  0  0  0  0  0
    3.5041    2.3142   -1.3569 O   0  0  0  0  0  0  0  0  0  0  0  0
    8.4600    0.8306   -5.6425 C   0  0  0  0  0  0  0  0  0  0  0  0
    8.3164    1.4937   -6.5009 H   0  0  0  0  0  0  0  0  0  0  0  0
    9.3626    1.1698   -5.1196 H   0  0  0  0  0  0  0  0  0  0  0  0
    8.6568   -0.1769   -6.0172 H   0  0  0  0  0  0  0  0  0  0  0  0
   -2.5287    0.6275   -1.4913 H   0  0  0  0  0  0  0  0  0  0  0  0
  1  7  1  0  0  0  0
  2  8  1  0  0  0  0
  2  1  2  0  0  0  0
  3  2  1  0  0  0  0
  4  3  2  0  0  0  0
  4  5  1  0  0  0  0
  5  6  2  0  0  0  0
  6  1  1  0  0  0  0
  6 31  1  0  0  0  0
  9  4  1  0  0  0  0
 10  5  1  0  0  0  0
 11 12  3  0  0  0  0
 13 19  1  0  0  0  0
 13 18  2  0  0  0  0
 14 13  1  0  0  0  0
 15 14  2  0  0  0  0
 15 16  1  0  0  0  0
 16 17  2  0  0  0  0
 17 18  1  0  0  0  0
 17 22  1  0  0  0  0
 18 23  1  0  0  0  0
 20 14  1  0  0  0  0
 21 16  1  0  0  0  0
 23 26  2  0  0  0  0
 23 24  2  0  0  0  0
 25  3  1  0  0  0  0
 25 23  1  0  0  0  0
 27 29  1  0  0  0  0
 27 15  1  0  0  0  0
 28 27  1  0  0  0  0
 30 27  1  0  0  0  0
M  END
