Coordinates from ORCA-job Ph-N2-OTs-B3LYPG-6-31G_dp-MTMO-d009-169-n800
 OpenBabel09051907503D

 31 31  0  0  0  0  0  0  0  0999 V2000
   -0.5529   -0.1885   -1.2865 C   0  0  0  0  0  0  0  0  0  0  0  0
    0.7847   -0.2639   -1.6776 C   0  0  0  0  0  0  0  0  0  0  0  0
    1.2672    0.6661   -2.5976 C   0  0  0  0  0  0  0  0  0  0  0  0
    0.4498    1.6604   -3.1306 C   0  0  0  0  0  0  0  0  0  0  0  0
   -0.8876    1.7179   -2.7376 C   0  0  0  0  0  0  0  0  0  0  0  0
   -1.3897    0.7971   -1.8148 C   0  0  0  0  0  0  0  0  0  0  0  0
   -0.9407   -0.9046   -0.5677 H   0  0  0  0  0  0  0  0  0  0  0  0
    1.4518   -1.0197   -1.2796 H   0  0  0  0  0  0  0  0  0  0  0  0
    0.8662    2.3676   -3.8398 H   0  0  0  0  0  0  0  0  0  0  0  0
   -1.5350    2.4866   -3.1492 H   0  0  0  0  0  0  0  0  0  0  0  0
    6.3030    6.7854   -4.5795 N   0  0  0  0  0  0  0  0  0  0  0  0
    6.2409    5.6903   -4.7138 N   0  0  0  0  0  0  0  0  0  0  0  0
    5.6023    2.0657   -3.8666 C   0  0  0  0  0  0  0  0  0  0  0  0
    6.6815    1.9128   -4.7332 C   0  0  0  0  0  0  0  0  0  0  0  0
    7.3139    0.6707   -4.8928 C   0  0  0  0  0  0  0  0  0  0  0  0
    6.8381   -0.4243   -4.1563 C   0  0  0  0  0  0  0  0  0  0  0  0
    5.7634   -0.2919   -3.2802 C   0  0  0  0  0  0  0  0  0  0  0  0
    5.1522    0.9560   -3.1500 C   0  0  0  0  0  0  0  0  0  0  0  0
    5.1202    3.0281   -3.7381 H   0  0  0  0  0  0  0  0  0  0  0  0
    7.0379    2.7742   -5.2907 H   0  0  0  0  0  0  0  0  0  0  0  0
    7.3181   -1.3926   -4.2674 H   0  0  0  0  0  0  0  0  0  0  0  0
    5.4067   -1.1363   -2.7011 H   0  0  0  0  0  0  0  0  0  0  0  0
    3.7827    1.1442   -2.0297 S   0  0  0  0  0  0  0  0  0  0  0  0
    3.9152    0.1998   -0.9217 O   0  0  0  0  0  0  0  0  0  0  0  0
    2.5914    0.5764   -3.0591 O   0  0  0  0  0  0  0  0  0  0  0  0
    3.5360    2.5609   -1.7732 O   0  0  0  0  0  0  0  0  0  0  0  0
    8.5004    0.5261   -5.8149 C   0  0  0  0  0  0  0  0  0  0  0  0
    8.3896    1.1461   -6.7092 H   0  0  0  0  0  0  0  0  0  0  0  0
    9.4240    0.8417   -5.3141 H   0  0  0  0  0  0  0  0  0  0  0  0
    8.6377   -0.5106   -6.1324 H   0  0  0  0  0  0  0  0  0  0  0  0
   -2.4296    0.8489   -1.5067 H   0  0  0  0  0  0  0  0  0  0  0  0
  1  7  1  0  0  0  0
  2  1  1  0  0  0  0
  2  8  1  0  0  0  0
  3  2  2  0  0  0  0
  4  5  2  0  0  0  0
  4  3  1  0  0  0  0
  5  6  1  0  0  0  0
  6 31  1  0  0  0  0
  6  1  2  0  0  0  0
  9  4  1  0  0  0  0
 10  5  1  0  0  0  0
 12 11  3  0  0  0  0
 13 19  1  0  0  0  0
 13 18  2  0  0  0  0
 14 13  1  0  0  0  0
 15 14  2  0  0  0  0
 15 16  1  0  0  0  0
 16 17  2  0  0  0  0
 17 18  1  0  0  0  0
 17 22  1  0  0  0  0
 18 23  1  0  0  0  0
 20 14  1  0  0  0  0
 21 16  1  0  0  0  0
 23 26  2  0  0  0  0
 23 24  2  0  0  0  0
 25  3  1  0  0  0  0
 25 23  1  0  0  0  0
 27 29  1  0  0  0  0
 27 15  1  0  0  0  0
 28 27  1  0  0  0  0
 30 27  1  0  0  0  0
M  END
