Coordinates from ORCA-job Ph-N2-OTs-B3LYPG-6-31G_dp-MTMO-d009-169-n800
 OpenBabel09051907503D

 31 31  0  0  0  0  0  0  0  0999 V2000
   -0.4355   -0.1828   -1.5971 C   0  0  0  0  0  0  0  0  0  0  0  0
    0.8865   -0.2214   -2.0415 C   0  0  0  0  0  0  0  0  0  0  0  0
    1.4174    0.9034   -2.6696 C   0  0  0  0  0  0  0  0  0  0  0  0
    0.6677    2.0640   -2.8542 C   0  0  0  0  0  0  0  0  0  0  0  0
   -0.6524    2.0892   -2.4024 C   0  0  0  0  0  0  0  0  0  0  0  0
   -1.2053    0.9692   -1.7765 C   0  0  0  0  0  0  0  0  0  0  0  0
   -0.8620   -1.0535   -1.1079 H   0  0  0  0  0  0  0  0  0  0  0  0
    1.5066   -1.1008   -1.9093 H   0  0  0  0  0  0  0  0  0  0  0  0
    1.1207    2.9219   -3.3380 H   0  0  0  0  0  0  0  0  0  0  0  0
   -1.2486    2.9863   -2.5410 H   0  0  0  0  0  0  0  0  0  0  0  0
    4.5779    6.0617   -3.7573 N   0  0  0  0  0  0  0  0  0  0  0  0
    3.5350    5.6976   -3.7959 N   0  0  0  0  0  0  0  0  0  0  0  0
    5.7866    2.0056   -4.1498 C   0  0  0  0  0  0  0  0  0  0  0  0
    6.8637    1.6903   -4.9745 C   0  0  0  0  0  0  0  0  0  0  0  0
    7.4624    0.4222   -4.9346 C   0  0  0  0  0  0  0  0  0  0  0  0
    6.9603   -0.5286   -4.0335 C   0  0  0  0  0  0  0  0  0  0  0  0
    5.8854   -0.2332   -3.1989 C   0  0  0  0  0  0  0  0  0  0  0  0
    5.3050    1.0339   -3.2718 C   0  0  0  0  0  0  0  0  0  0  0  0
    5.3336    2.9902   -4.1697 H   0  0  0  0  0  0  0  0  0  0  0  0
    7.2503    2.4438   -5.6552 H   0  0  0  0  0  0  0  0  0  0  0  0
    7.4222   -1.5104   -3.9795 H   0  0  0  0  0  0  0  0  0  0  0  0
    5.5092   -0.9632   -2.4906 H   0  0  0  0  0  0  0  0  0  0  0  0
    3.9412    1.4282   -2.1982 S   0  0  0  0  0  0  0  0  0  0  0  0
    3.9951    0.6012   -0.9952 O   0  0  0  0  0  0  0  0  0  0  0  0
    2.7246    0.8394   -3.1835 O   0  0  0  0  0  0  0  0  0  0  0  0
    3.7939    2.8793   -2.0975 O   0  0  0  0  0  0  0  0  0  0  0  0
    8.6104    0.0838   -5.8543 C   0  0  0  0  0  0  0  0  0  0  0  0
    8.2410   -0.2924   -6.8161 H   0  0  0  0  0  0  0  0  0  0  0  0
    9.2270    0.9624   -6.0645 H   0  0  0  0  0  0  0  0  0  0  0  0
    9.2526   -0.6911   -5.4259 H   0  0  0  0  0  0  0  0  0  0  0  0
   -2.2330    0.9945   -1.4276 H   0  0  0  0  0  0  0  0  0  0  0  0
  1  7  1  0  0  0  0
  2  8  1  0  0  0  0
  2  1  2  0  0  0  0
  3  2  1  0  0  0  0
  4  3  2  0  0  0  0
  4  5  1  0  0  0  0
  5  6  2  0  0  0  0
  6  1  1  0  0  0  0
  6 31  1  0  0  0  0
  9  4  1  0  0  0  0
 10  5  1  0  0  0  0
 12 11  3  0  0  0  0
 13 18  2  0  0  0  0
 14 15  2  0  0  0  0
 14 13  1  0  0  0  0
 15 16  1  0  0  0  0
 16 21  1  0  0  0  0
 16 17  2  0  0  0  0
 17 22  1  0  0  0  0
 18 17  1  0  0  0  0
 18 23  1  0  0  0  0
 19 13  1  0  0  0  0
 20 14  1  0  0  0  0
 23 26  2  0  0  0  0
 23 24  2  0  0  0  0
 25  3  1  0  0  0  0
 25 23  1  0  0  0  0
 27 30  1  0  0  0  0
 27 15  1  0  0  0  0
 28 27  1  0  0  0  0
 29 27  1  0  0  0  0
M  END
