Coordinates from ORCA-job Ph-N2-OTs-B3LYPG-6-31G_dp-MTMO-d009-169-n800
 OpenBabel09051907503D

 31 31  0  0  0  0  0  0  0  0999 V2000
   -0.6969   -0.4940   -1.6341 C   0  0  0  0  0  0  0  0  0  0  0  0
    0.6445   -0.4902   -2.0187 C   0  0  0  0  0  0  0  0  0  0  0  0
    1.1827    0.6737   -2.5655 C   0  0  0  0  0  0  0  0  0  0  0  0
    0.4184    1.8272   -2.7303 C   0  0  0  0  0  0  0  0  0  0  0  0
   -0.9227    1.8079   -2.3456 C   0  0  0  0  0  0  0  0  0  0  0  0
   -1.4812    0.6504   -1.7978 C   0  0  0  0  0  0  0  0  0  0  0  0
   -1.1283   -1.3941   -1.2064 H   0  0  0  0  0  0  0  0  0  0  0  0
    1.2739   -1.3645   -1.8986 H   0  0  0  0  0  0  0  0  0  0  0  0
    0.8769    2.7140   -3.1532 H   0  0  0  0  0  0  0  0  0  0  0  0
   -1.5297    2.6995   -2.4724 H   0  0  0  0  0  0  0  0  0  0  0  0
    7.2623    6.6046   -6.4283 N   0  0  0  0  0  0  0  0  0  0  0  0
    7.2788    5.5620   -6.0624 N   0  0  0  0  0  0  0  0  0  0  0  0
    5.5155    2.0977   -3.5927 C   0  0  0  0  0  0  0  0  0  0  0  0
    6.6046    2.0527   -4.4585 C   0  0  0  0  0  0  0  0  0  0  0  0
    7.2718    0.8458   -4.7206 C   0  0  0  0  0  0  0  0  0  0  0  0
    6.8198   -0.3228   -4.0913 C   0  0  0  0  0  0  0  0  0  0  0  0
    5.7314   -0.2989   -3.2218 C   0  0  0  0  0  0  0  0  0  0  0  0
    5.0872    0.9156   -2.9857 C   0  0  0  0  0  0  0  0  0  0  0  0
    5.0061    3.0309   -3.3797 H   0  0  0  0  0  0  0  0  0  0  0  0
    6.9421    2.9676   -4.9370 H   0  0  0  0  0  0  0  0  0  0  0  0
    7.3276   -1.2639   -4.2830 H   0  0  0  0  0  0  0  0  0  0  0  0
    5.3884   -1.2003   -2.7267 H   0  0  0  0  0  0  0  0  0  0  0  0
    3.6954    0.9622   -1.8782 S   0  0  0  0  0  0  0  0  0  0  0  0
    3.7441   -0.1816   -0.9698 O   0  0  0  0  0  0  0  0  0  0  0  0
    2.5108    0.6737   -3.0241 O   0  0  0  0  0  0  0  0  0  0  0  0
    3.5119    2.3161   -1.3608 O   0  0  0  0  0  0  0  0  0  0  0  0
    8.4681    0.8167   -5.6405 C   0  0  0  0  0  0  0  0  0  0  0  0
    8.3258    1.4776   -6.5007 H   0  0  0  0  0  0  0  0  0  0  0  0
    9.3707    1.1564   -5.1177 H   0  0  0  0  0  0  0  0  0  0  0  0
    8.6641   -0.1920   -6.0124 H   0  0  0  0  0  0  0  0  0  0  0  0
   -2.5244    0.6407   -1.4972 H   0  0  0  0  0  0  0  0  0  0  0  0
  1  7  1  0  0  0  0
  2  8  1  0  0  0  0
  2  1  2  0  0  0  0
  3  2  1  0  0  0  0
  4  3  2  0  0  0  0
  4  5  1  0  0  0  0
  5  6  2  0  0  0  0
  6  1  1  0  0  0  0
  6 31  1  0  0  0  0
  9  4  1  0  0  0  0
 10  5  1  0  0  0  0
 11 12  3  0  0  0  0
 13 19  1  0  0  0  0
 13 18  2  0  0  0  0
 14 13  1  0  0  0  0
 15 14  2  0  0  0  0
 15 16  1  0  0  0  0
 16 17  2  0  0  0  0
 17 18  1  0  0  0  0
 17 22  1  0  0  0  0
 18 23  1  0  0  0  0
 20 14  1  0  0  0  0
 21 16  1  0  0  0  0
 23 26  2  0  0  0  0
 23 24  2  0  0  0  0
 25  3  1  0  0  0  0
 25 23  1  0  0  0  0
 27 29  1  0  0  0  0
 27 15  1  0  0  0  0
 28 27  1  0  0  0  0
 30 27  1  0  0  0  0
M  END
