Coordinates from ORCA-job Ph-N2-OTs-B3LYPG-6-31G_dp-MTMO-d009-169-n800
 OpenBabel09051907503D

 31 31  0  0  0  0  0  0  0  0999 V2000
   -0.5821    0.1985   -1.8092 C   0  0  0  0  0  0  0  0  0  0  0  0
    0.7348    0.0395   -2.2425 C   0  0  0  0  0  0  0  0  0  0  0  0
    1.4881    1.1763   -2.5304 C   0  0  0  0  0  0  0  0  0  0  0  0
    0.9627    2.4593   -2.3909 C   0  0  0  0  0  0  0  0  0  0  0  0
   -0.3565    2.6031   -1.9600 C   0  0  0  0  0  0  0  0  0  0  0  0
   -1.1290    1.4762   -1.6686 C   0  0  0  0  0  0  0  0  0  0  0  0
   -1.1802   -0.6785   -1.5808 H   0  0  0  0  0  0  0  0  0  0  0  0
    1.1823   -0.9410   -2.3573 H   0  0  0  0  0  0  0  0  0  0  0  0
    1.5848    3.3168   -2.6205 H   0  0  0  0  0  0  0  0  0  0  0  0
   -0.7790    3.5973   -1.8485 H   0  0  0  0  0  0  0  0  0  0  0  0
    2.9800    2.8027   -6.4112 N   0  0  0  0  0  0  0  0  0  0  0  0
    3.2036    3.3072   -5.4536 N   0  0  0  0  0  0  0  0  0  0  0  0
    5.9698    2.0195   -3.4351 C   0  0  0  0  0  0  0  0  0  0  0  0
    7.0396    1.9788   -4.3242 C   0  0  0  0  0  0  0  0  0  0  0  0
    7.5204    0.7593   -4.8271 C   0  0  0  0  0  0  0  0  0  0  0  0
    6.9057   -0.4283   -4.4072 C   0  0  0  0  0  0  0  0  0  0  0  0
    5.8330   -0.4100   -3.5175 C   0  0  0  0  0  0  0  0  0  0  0  0
    5.3729    0.8186   -3.0452 C   0  0  0  0  0  0  0  0  0  0  0  0
    5.6071    2.9599   -3.0358 H   0  0  0  0  0  0  0  0  0  0  0  0
    7.5141    2.9075   -4.6292 H   0  0  0  0  0  0  0  0  0  0  0  0
    7.2744   -1.3806   -4.7771 H   0  0  0  0  0  0  0  0  0  0  0  0
    5.3665   -1.3290   -3.1811 H   0  0  0  0  0  0  0  0  0  0  0  0
    4.0109    0.8562   -1.9004 S   0  0  0  0  0  0  0  0  0  0  0  0
    3.8619   -0.4507   -1.2636 O   0  0  0  0  0  0  0  0  0  0  0  0
    2.7920    1.0306   -3.0352 O   0  0  0  0  0  0  0  0  0  0  0  0
    4.0649    2.0745   -1.0966 O   0  0  0  0  0  0  0  0  0  0  0  0
    8.6652    0.7347   -5.8102 C   0  0  0  0  0  0  0  0  0  0  0  0
    8.3242    1.0172   -6.8137 H   0  0  0  0  0  0  0  0  0  0  0  0
    9.4503    1.4421   -5.5257 H   0  0  0  0  0  0  0  0  0  0  0  0
    9.1113   -0.2605   -5.8820 H   0  0  0  0  0  0  0  0  0  0  0  0
   -2.1542    1.5936   -1.3313 H   0  0  0  0  0  0  0  0  0  0  0  0
  1  6  1  0  0  0  0
  1  7  1  0  0  0  0
  2  1  2  0  0  0  0
  3  4  2  0  0  0  0
  3  2  1  0  0  0  0
  4  5  1  0  0  0  0
  5 10  1  0  0  0  0
  5  6  2  0  0  0  0
  6 31  1  0  0  0  0
  8  2  1  0  0  0  0
  9  4  1  0  0  0  0
 11 12  3  0  0  0  0
 13 18  1  0  0  0  0
 13 19  1  0  0  0  0
 14 13  2  0  0  0  0
 15 16  2  0  0  0  0
 15 14  1  0  0  0  0
 16 17  1  0  0  0  0
 17 22  1  0  0  0  0
 17 18  2  0  0  0  0
 18 23  1  0  0  0  0
 20 14  1  0  0  0  0
 21 16  1  0  0  0  0
 23 24  2  0  0  0  0
 23 26  2  0  0  0  0
 25  3  1  0  0  0  0
 25 23  1  0  0  0  0
 27 29  1  0  0  0  0
 27 15  1  0  0  0  0
 28 27  1  0  0  0  0
 30 27  1  0  0  0  0
M  END
