Coordinates from ORCA-job Ph-N2-OTs-B3LYPG-6-31G_dp-MTMO-d009-169-n800
 OpenBabel09051907503D

 31 31  0  0  0  0  0  0  0  0999 V2000
   -0.4331   -0.1211   -1.6289 C   0  0  0  0  0  0  0  0  0  0  0  0
    0.8898   -0.1778   -2.0688 C   0  0  0  0  0  0  0  0  0  0  0  0
    1.4478    0.9495   -2.6681 C   0  0  0  0  0  0  0  0  0  0  0  0
    0.7242    2.1302   -2.8289 C   0  0  0  0  0  0  0  0  0  0  0  0
   -0.5971    2.1730   -2.3820 C   0  0  0  0  0  0  0  0  0  0  0  0
   -1.1770    1.0511   -1.7847 C   0  0  0  0  0  0  0  0  0  0  0  0
   -0.8805   -0.9935   -1.1621 H   0  0  0  0  0  0  0  0  0  0  0  0
    1.4904   -1.0732   -1.9546 H   0  0  0  0  0  0  0  0  0  0  0  0
    1.1965    2.9897   -3.2907 H   0  0  0  0  0  0  0  0  0  0  0  0
   -1.1732    3.0858   -2.5021 H   0  0  0  0  0  0  0  0  0  0  0  0
    4.1313    5.8098   -3.8954 N   0  0  0  0  0  0  0  0  0  0  0  0
    3.0852    5.4638   -3.8105 N   0  0  0  0  0  0  0  0  0  0  0  0
    5.8441    2.0036   -4.0941 C   0  0  0  0  0  0  0  0  0  0  0  0
    6.9176    1.6967   -4.9269 C   0  0  0  0  0  0  0  0  0  0  0  0
    7.4908    0.4164   -4.9314 C   0  0  0  0  0  0  0  0  0  0  0  0
    6.9667   -0.5563   -4.0667 C   0  0  0  0  0  0  0  0  0  0  0  0
    5.8951   -0.2698   -3.2249 C   0  0  0  0  0  0  0  0  0  0  0  0
    5.3403    1.0106   -3.2533 C   0  0  0  0  0  0  0  0  0  0  0  0
    5.4110    2.9972   -4.0805 H   0  0  0  0  0  0  0  0  0  0  0  0
    7.3216    2.4664   -5.5787 H   0  0  0  0  0  0  0  0  0  0  0  0
    7.4090   -1.5484   -4.0467 H   0  0  0  0  0  0  0  0  0  0  0  0
    5.5020   -1.0172   -2.5446 H   0  0  0  0  0  0  0  0  0  0  0  0
    3.9815    1.3934   -2.1692 S   0  0  0  0  0  0  0  0  0  0  0  0
    4.0145    0.5215   -0.9974 O   0  0  0  0  0  0  0  0  0  0  0  0
    2.7556    0.8687   -3.1783 O   0  0  0  0  0  0  0  0  0  0  0  0
    3.8646    2.8425   -2.0148 O   0  0  0  0  0  0  0  0  0  0  0  0
    8.6350    0.0881   -5.8595 C   0  0  0  0  0  0  0  0  0  0  0  0
    8.2617   -0.2715   -6.8261 H   0  0  0  0  0  0  0  0  0  0  0  0
    9.2548    0.9673   -6.0571 H   0  0  0  0  0  0  0  0  0  0  0  0
    9.2751   -0.6964   -5.4453 H   0  0  0  0  0  0  0  0  0  0  0  0
   -2.2055    1.0905   -1.4396 H   0  0  0  0  0  0  0  0  0  0  0  0
  1  7  1  0  0  0  0
  2  8  1  0  0  0  0
  2  1  2  0  0  0  0
  3  2  1  0  0  0  0
  4  3  2  0  0  0  0
  4  5  1  0  0  0  0
  5  6  2  0  0  0  0
  6  1  1  0  0  0  0
  6 31  1  0  0  0  0
  9  4  1  0  0  0  0
 10  5  1  0  0  0  0
 11 12  3  0  0  0  0
 13 19  1  0  0  0  0
 13 18  2  0  0  0  0
 14 13  1  0  0  0  0
 15 14  2  0  0  0  0
 15 16  1  0  0  0  0
 16 21  1  0  0  0  0
 16 17  2  0  0  0  0
 17 22  1  0  0  0  0
 18 17  1  0  0  0  0
 18 23  1  0  0  0  0
 20 14  1  0  0  0  0
 23 26  2  0  0  0  0
 23 24  2  0  0  0  0
 25  3  1  0  0  0  0
 25 23  1  0  0  0  0
 27 30  1  0  0  0  0
 27 15  1  0  0  0  0
 28 27  1  0  0  0  0
 29 27  1  0  0  0  0
M  END
