Coordinates from ORCA-job Ph-N2-OTs-B3LYPG-6-31G_dp-MTMO-d009-169-n800
 OpenBabel09051907503D

 31 31  0  0  0  0  0  0  0  0999 V2000
   -0.5406   -0.1456   -1.2969 C   0  0  0  0  0  0  0  0  0  0  0  0
    0.7962   -0.2357   -1.6875 C   0  0  0  0  0  0  0  0  0  0  0  0
    1.2890    0.6882   -2.6083 C   0  0  0  0  0  0  0  0  0  0  0  0
    0.4825    1.6907   -3.1425 C   0  0  0  0  0  0  0  0  0  0  0  0
   -0.8543    1.7630   -2.7498 C   0  0  0  0  0  0  0  0  0  0  0  0
   -1.3665    0.8485   -1.8263 C   0  0  0  0  0  0  0  0  0  0  0  0
   -0.9362   -0.8568   -0.5776 H   0  0  0  0  0  0  0  0  0  0  0  0
    1.4551   -0.9983   -1.2887 H   0  0  0  0  0  0  0  0  0  0  0  0
    0.9066    2.3926   -3.8523 H   0  0  0  0  0  0  0  0  0  0  0  0
   -1.4932    2.5383   -3.1622 H   0  0  0  0  0  0  0  0  0  0  0  0
    5.9435    6.7513   -4.3904 N   0  0  0  0  0  0  0  0  0  0  0  0
    5.9462    5.6630   -4.5820 N   0  0  0  0  0  0  0  0  0  0  0  0
    5.6187    2.0438   -3.8976 C   0  0  0  0  0  0  0  0  0  0  0  0
    6.6965    1.8811   -4.7642 C   0  0  0  0  0  0  0  0  0  0  0  0
    7.3351    0.6397   -4.9037 C   0  0  0  0  0  0  0  0  0  0  0  0
    6.8663   -0.4448   -4.1473 C   0  0  0  0  0  0  0  0  0  0  0  0
    5.7929   -0.3027   -3.2712 C   0  0  0  0  0  0  0  0  0  0  0  0
    5.1761    0.9444   -3.1608 C   0  0  0  0  0  0  0  0  0  0  0  0
    5.1333    3.0063   -3.7851 H   0  0  0  0  0  0  0  0  0  0  0  0
    7.0476    2.7342   -5.3379 H   0  0  0  0  0  0  0  0  0  0  0  0
    7.3510   -1.4125   -4.2428 H   0  0  0  0  0  0  0  0  0  0  0  0
    5.4413   -1.1385   -2.6768 H   0  0  0  0  0  0  0  0  0  0  0  0
    3.8080    1.1458   -2.0411 S   0  0  0  0  0  0  0  0  0  0  0  0
    3.9342    0.2043   -0.9300 O   0  0  0  0  0  0  0  0  0  0  0  0
    2.6124    0.5836   -3.0687 O   0  0  0  0  0  0  0  0  0  0  0  0
    3.5710    2.5650   -1.7896 O   0  0  0  0  0  0  0  0  0  0  0  0
    8.5207    0.4849   -5.8253 C   0  0  0  0  0  0  0  0  0  0  0  0
    8.4116    1.0987   -6.7241 H   0  0  0  0  0  0  0  0  0  0  0  0
    9.4455    0.8012   -5.3270 H   0  0  0  0  0  0  0  0  0  0  0  0
    8.6549   -0.5546   -6.1352 H   0  0  0  0  0  0  0  0  0  0  0  0
   -2.4058    0.9118   -1.5185 H   0  0  0  0  0  0  0  0  0  0  0  0
  1  7  1  0  0  0  0
  2  1  1  0  0  0  0
  2  8  1  0  0  0  0
  3  2  2  0  0  0  0
  4  5  2  0  0  0  0
  4  3  1  0  0  0  0
  5  6  1  0  0  0  0
  6 31  1  0  0  0  0
  6  1  2  0  0  0  0
  9  4  1  0  0  0  0
 10  5  1  0  0  0  0
 12 11  3  0  0  0  0
 13 19  1  0  0  0  0
 13 18  2  0  0  0  0
 14 13  1  0  0  0  0
 15 14  2  0  0  0  0
 15 16  1  0  0  0  0
 16 17  2  0  0  0  0
 17 18  1  0  0  0  0
 17 22  1  0  0  0  0
 18 23  1  0  0  0  0
 20 14  1  0  0  0  0
 21 16  1  0  0  0  0
 23 26  2  0  0  0  0
 23 24  2  0  0  0  0
 25  3  1  0  0  0  0
 25 23  1  0  0  0  0
 27 29  1  0  0  0  0
 27 15  1  0  0  0  0
 28 27  1  0  0  0  0
 30 27  1  0  0  0  0
M  END
