Coordinates from ORCA-job Ph-N2-OTs-B3LYPG-6-31G_dp-MTMO-d009-169-n800
 OpenBabel09051907503D

 31 31  0  0  0  0  0  0  0  0999 V2000
   -0.6948   -0.4872   -1.6371 C   0  0  0  0  0  0  0  0  0  0  0  0
    0.6467   -0.4852   -2.0214 C   0  0  0  0  0  0  0  0  0  0  0  0
    1.1865    0.6779   -2.5684 C   0  0  0  0  0  0  0  0  0  0  0  0
    0.4237    1.8323   -2.7338 C   0  0  0  0  0  0  0  0  0  0  0  0
   -0.9176    1.8148   -2.3495 C   0  0  0  0  0  0  0  0  0  0  0  0
   -1.4776    0.6582   -1.8014 C   0  0  0  0  0  0  0  0  0  0  0  0
   -1.1275   -1.3866   -1.2092 H   0  0  0  0  0  0  0  0  0  0  0  0
    1.2750   -1.3602   -1.9008 H   0  0  0  0  0  0  0  0  0  0  0  0
    0.8834    2.7184   -3.1569 H   0  0  0  0  0  0  0  0  0  0  0  0
   -1.5234    2.7071   -2.4767 H   0  0  0  0  0  0  0  0  0  0  0  0
    7.1826    6.6180   -6.4029 N   0  0  0  0  0  0  0  0  0  0  0  0
    7.2266    5.5732   -6.0458 N   0  0  0  0  0  0  0  0  0  0  0  0
    5.5230    2.0939   -3.5945 C   0  0  0  0  0  0  0  0  0  0  0  0
    6.6127    2.0459   -4.4593 C   0  0  0  0  0  0  0  0  0  0  0  0
    7.2775    0.8373   -4.7199 C   0  0  0  0  0  0  0  0  0  0  0  0
    6.8224   -0.3298   -4.0902 C   0  0  0  0  0  0  0  0  0  0  0  0
    5.7332   -0.3028   -3.2216 C   0  0  0  0  0  0  0  0  0  0  0  0
    5.0916    0.9133   -2.9871 C   0  0  0  0  0  0  0  0  0  0  0  0
    5.0155    3.0285   -3.3825 H   0  0  0  0  0  0  0  0  0  0  0  0
    6.9530    2.9596   -4.9381 H   0  0  0  0  0  0  0  0  0  0  0  0
    7.3282   -1.2722   -4.2808 H   0  0  0  0  0  0  0  0  0  0  0  0
    5.3878   -1.2031   -2.7261 H   0  0  0  0  0  0  0  0  0  0  0  0
    3.6992    0.9638   -1.8805 S   0  0  0  0  0  0  0  0  0  0  0  0
    3.7453   -0.1790   -0.9706 O   0  0  0  0  0  0  0  0  0  0  0  0
    2.5147    0.6762   -3.0266 O   0  0  0  0  0  0  0  0  0  0  0  0
    3.5178    2.3186   -1.3647 O   0  0  0  0  0  0  0  0  0  0  0  0
    8.4745    0.8051   -5.6388 C   0  0  0  0  0  0  0  0  0  0  0  0
    8.3340    1.4651   -6.5001 H   0  0  0  0  0  0  0  0  0  0  0  0
    9.3772    1.1440   -5.1158 H   0  0  0  0  0  0  0  0  0  0  0  0
    8.6692   -0.2044   -6.0092 H   0  0  0  0  0  0  0  0  0  0  0  0
   -2.5209    0.6500   -1.5011 H   0  0  0  0  0  0  0  0  0  0  0  0
  1  7  1  0  0  0  0
  2  8  1  0  0  0  0
  2  1  2  0  0  0  0
  3  2  1  0  0  0  0
  4  3  2  0  0  0  0
  4  5  1  0  0  0  0
  5  6  2  0  0  0  0
  6  1  1  0  0  0  0
  6 31  1  0  0  0  0
  9  4  1  0  0  0  0
 10  5  1  0  0  0  0
 11 12  3  0  0  0  0
 13 19  1  0  0  0  0
 13 18  2  0  0  0  0
 14 13  1  0  0  0  0
 15 14  2  0  0  0  0
 15 16  1  0  0  0  0
 16 17  2  0  0  0  0
 17 18  1  0  0  0  0
 17 22  1  0  0  0  0
 18 23  1  0  0  0  0
 20 14  1  0  0  0  0
 21 16  1  0  0  0  0
 23 26  2  0  0  0  0
 23 24  2  0  0  0  0
 25  3  1  0  0  0  0
 25 23  1  0  0  0  0
 27 29  1  0  0  0  0
 27 15  1  0  0  0  0
 28 27  1  0  0  0  0
 30 27  1  0  0  0  0
M  END
