Coordinates from ORCA-job Ph-N2-OTs-B3LYPG-6-31G_dp-MTMO-d009-169-n800
 OpenBabel09051907503D

 31 31  0  0  0  0  0  0  0  0999 V2000
   -0.6931   -0.4765   -1.6383 C   0  0  0  0  0  0  0  0  0  0  0  0
    0.6487   -0.4783   -2.0214 C   0  0  0  0  0  0  0  0  0  0  0  0
    1.1912    0.6821   -2.5715 C   0  0  0  0  0  0  0  0  0  0  0  0
    0.4306    1.8375   -2.7410 C   0  0  0  0  0  0  0  0  0  0  0  0
   -0.9109    1.8237   -2.3577 C   0  0  0  0  0  0  0  0  0  0  0  0
   -1.4736    0.6698   -1.8066 C   0  0  0  0  0  0  0  0  0  0  0  0
   -1.1279   -1.3737   -1.2080 H   0  0  0  0  0  0  0  0  0  0  0  0
    1.2753   -1.3541   -1.8978 H   0  0  0  0  0  0  0  0  0  0  0  0
    0.8926    2.7213   -3.1663 H   0  0  0  0  0  0  0  0  0  0  0  0
   -1.5151    2.7167   -2.4881 H   0  0  0  0  0  0  0  0  0  0  0  0
    7.1015    6.6229   -6.3933 N   0  0  0  0  0  0  0  0  0  0  0  0
    7.1504    5.5882   -6.0085 N   0  0  0  0  0  0  0  0  0  0  0  0
    5.5317    2.0888   -3.5937 C   0  0  0  0  0  0  0  0  0  0  0  0
    6.6218    2.0392   -4.4578 C   0  0  0  0  0  0  0  0  0  0  0  0
    7.2840    0.8292   -4.7193 C   0  0  0  0  0  0  0  0  0  0  0  0
    6.8259   -0.3374   -4.0912 C   0  0  0  0  0  0  0  0  0  0  0  0
    5.7362   -0.3089   -3.2232 C   0  0  0  0  0  0  0  0  0  0  0  0
    5.0972    0.9083   -2.9877 C   0  0  0  0  0  0  0  0  0  0  0  0
    5.0262    3.0242   -3.3808 H   0  0  0  0  0  0  0  0  0  0  0  0
    6.9648    2.9528   -4.9349 H   0  0  0  0  0  0  0  0  0  0  0  0
    7.3297   -1.2808   -4.2823 H   0  0  0  0  0  0  0  0  0  0  0  0
    5.3885   -1.2088   -2.7288 H   0  0  0  0  0  0  0  0  0  0  0  0
    3.7044    0.9608   -1.8818 S   0  0  0  0  0  0  0  0  0  0  0  0
    3.7477   -0.1830   -0.9730 O   0  0  0  0  0  0  0  0  0  0  0  0
    2.5196    0.6770   -3.0288 O   0  0  0  0  0  0  0  0  0  0  0  0
    3.5256    2.3154   -1.3647 O   0  0  0  0  0  0  0  0  0  0  0  0
    8.4816    0.7954   -5.6374 C   0  0  0  0  0  0  0  0  0  0  0  0
    8.3416    1.4538   -6.5000 H   0  0  0  0  0  0  0  0  0  0  0  0
    9.3840    1.1353   -5.1145 H   0  0  0  0  0  0  0  0  0  0  0  0
    8.6765   -0.2147   -6.0060 H   0  0  0  0  0  0  0  0  0  0  0  0
   -2.5171    0.6645   -1.5071 H   0  0  0  0  0  0  0  0  0  0  0  0
  1  7  1  0  0  0  0
  2  8  1  0  0  0  0
  2  1  2  0  0  0  0
  3  2  1  0  0  0  0
  4  3  2  0  0  0  0
  4  5  1  0  0  0  0
  5  6  2  0  0  0  0
  6  1  1  0  0  0  0
  6 31  1  0  0  0  0
  9  4  1  0  0  0  0
 10  5  1  0  0  0  0
 11 12  3  0  0  0  0
 13 19  1  0  0  0  0
 13 18  2  0  0  0  0
 14 13  1  0  0  0  0
 15 14  2  0  0  0  0
 15 16  1  0  0  0  0
 16 17  2  0  0  0  0
 17 18  1  0  0  0  0
 17 22  1  0  0  0  0
 18 23  1  0  0  0  0
 20 14  1  0  0  0  0
 21 16  1  0  0  0  0
 23 26  2  0  0  0  0
 23 24  2  0  0  0  0
 25  3  1  0  0  0  0
 25 23  1  0  0  0  0
 27 29  1  0  0  0  0
 27 15  1  0  0  0  0
 28 27  1  0  0  0  0
 30 27  1  0  0  0  0
M  END
