Coordinates from ORCA-job Ph-N2-OTs-B3LYPG-6-31G_dp-MTMO-d009-169-n800
 OpenBabel09051907493D

 31 30  0  0  0  0  0  0  0  0999 V2000
    0.2627    0.3547   -1.5021 C   0  0  0  0  0  0  0  0  0  0  0  0
    0.7981    1.3829   -2.3202 C   0  0  0  0  0  0  0  0  0  0  0  0
   -0.0734    2.2550   -2.6465 C   0  0  0  0  0  0  0  0  0  0  0  0
   -1.4025    2.5000   -2.4502 C   0  0  0  0  0  0  0  0  0  0  0  0
   -1.9190    1.4690   -1.6378 C   0  0  0  0  0  0  0  0  0  0  0  0
   -1.1001    0.4233   -1.1777 C   0  0  0  0  0  0  0  0  0  0  0  0
    0.8794   -0.4622   -1.1369 H   0  0  0  0  0  0  0  0  0  0  0  0
    2.5500    1.1730   -2.6834 H   0  0  0  0  0  0  0  0  0  0  0  0
   -1.9853    3.3288   -2.8301 H   0  0  0  0  0  0  0  0  0  0  0  0
   -2.9708    1.4986   -1.3677 H   0  0  0  0  0  0  0  0  0  0  0  0
    0.6366    3.9430   -3.8323 N   0  0  0  0  0  0  0  0  0  0  0  0
    1.4727    4.5882   -4.1611 N   0  0  0  0  0  0  0  0  0  0  0  0
    6.8793    1.3795   -3.0323 C   0  0  0  0  0  0  0  0  0  0  0  0
    8.0668    0.7333   -3.3707 C   0  0  0  0  0  0  0  0  0  0  0  0
    8.2079    0.0701   -4.5979 C   0  0  0  0  0  0  0  0  0  0  0  0
    7.1223    0.0677   -5.4870 C   0  0  0  0  0  0  0  0  0  0  0  0
    5.9274    0.7071   -5.1661 C   0  0  0  0  0  0  0  0  0  0  0  0
    5.8166    1.3550   -3.9353 C   0  0  0  0  0  0  0  0  0  0  0  0
    6.7734    1.9031   -2.0887 H   0  0  0  0  0  0  0  0  0  0  0  0
    8.8991    0.7470   -2.6716 H   0  0  0  0  0  0  0  0  0  0  0  0
    7.2154   -0.4387   -6.4441 H   0  0  0  0  0  0  0  0  0  0  0  0
    5.0917    0.7162   -5.8575 H   0  0  0  0  0  0  0  0  0  0  0  0
    4.2917    2.1763   -3.5108 S   0  0  0  0  0  0  0  0  0  0  0  0
    3.5273    0.9350   -2.8122 O   0  0  0  0  0  0  0  0  0  0  0  0
    3.5755    2.5392   -4.7392 O   0  0  0  0  0  0  0  0  0  0  0  0
    4.5672    3.2101   -2.5118 O   0  0  0  0  0  0  0  0  0  0  0  0
    9.5087   -0.6000   -4.9698 C   0  0  0  0  0  0  0  0  0  0  0  0
   10.1452    0.0769   -5.5540 H   0  0  0  0  0  0  0  0  0  0  0  0
   10.0748   -0.8964   -4.0823 H   0  0  0  0  0  0  0  0  0  0  0  0
    9.3389   -1.4924   -5.5797 H   0  0  0  0  0  0  0  0  0  0  0  0
   -1.5380   -0.3524   -0.5548 H   0  0  0  0  0  0  0  0  0  0  0  0
  1  6  1  0  0  0  0
  1  7  1  0  0  0  0
  2  1  2  0  0  0  0
  3  4  2  0  0  0  0
  3  2  1  0  0  0  0
  4  5  1  0  0  0  0
  5 10  1  0  0  0  0
  5  6  2  0  0  0  0
  6 31  1  0  0  0  0
  9  4  1  0  0  0  0
 12 11  3  0  0  0  0
 13 19  1  0  0  0  0
 14 13  1  0  0  0  0
 14 20  1  0  0  0  0
 15 14  2  0  0  0  0
 16 17  2  0  0  0  0
 16 15  1  0  0  0  0
 17 18  1  0  0  0  0
 18 23  1  0  0  0  0
 18 13  2  0  0  0  0
 21 16  1  0  0  0  0
 22 17  1  0  0  0  0
 23 24  1  0  0  0  0
 23 26  2  0  0  0  0
 24  8  1  0  0  0  0
 25 23  2  0  0  0  0
 27 15  1  0  0  0  0
 27 29  1  0  0  0  0
 28 27  1  0  0  0  0
 30 27  1  0  0  0  0
M  RAD  2   2   2   3   2
M  END
