Coordinates from ORCA-job Ph-N2-OTs-B3LYPG-6-31G_dp-MTMO-d009-169-n800
 OpenBabel09051907503D

 31 31  0  0  0  0  0  0  0  0999 V2000
   -0.6432   -0.9351   -1.4031 C   0  0  0  0  0  0  0  0  0  0  0  0
    0.6586   -0.7525   -1.8712 C   0  0  0  0  0  0  0  0  0  0  0  0
    1.0143    0.4861   -2.4020 C   0  0  0  0  0  0  0  0  0  0  0  0
    0.1080    1.5428   -2.4680 C   0  0  0  0  0  0  0  0  0  0  0  0
   -1.1905    1.3462   -1.9966 C   0  0  0  0  0  0  0  0  0  0  0  0
   -1.5675    0.1104   -1.4653 C   0  0  0  0  0  0  0  0  0  0  0  0
   -0.9335   -1.8955   -0.9879 H   0  0  0  0  0  0  0  0  0  0  0  0
    1.3950   -1.5471   -1.8298 H   0  0  0  0  0  0  0  0  0  0  0  0
    0.4261    2.4931   -2.8811 H   0  0  0  0  0  0  0  0  0  0  0  0
   -1.9068    2.1611   -2.0444 H   0  0  0  0  0  0  0  0  0  0  0  0
   11.1660    5.2844   -6.6179 N   0  0  0  0  0  0  0  0  0  0  0  0
   10.2880    4.6424   -6.4221 N   0  0  0  0  0  0  0  0  0  0  0  0
    5.0988    2.4136   -3.7516 C   0  0  0  0  0  0  0  0  0  0  0  0
    6.1537    2.4282   -4.6612 C   0  0  0  0  0  0  0  0  0  0  0  0
    6.9299    1.2828   -4.8913 C   0  0  0  0  0  0  0  0  0  0  0  0
    6.6313    0.1146   -4.1732 C   0  0  0  0  0  0  0  0  0  0  0  0
    5.5824    0.0791   -3.2584 C   0  0  0  0  0  0  0  0  0  0  0  0
    4.8211    1.2325   -3.0627 C   0  0  0  0  0  0  0  0  0  0  0  0
    4.5066    3.3021   -3.5633 H   0  0  0  0  0  0  0  0  0  0  0  0
    6.3824    3.3450   -5.1972 H   0  0  0  0  0  0  0  0  0  0  0  0
    7.2323   -0.7774   -4.3290 H   0  0  0  0  0  0  0  0  0  0  0  0
    5.3618   -0.8194   -2.6926 H   0  0  0  0  0  0  0  0  0  0  0  0
    3.4822    1.2036   -1.8907 S   0  0  0  0  0  0  0  0  0  0  0  0
    3.7182    0.1678   -0.8876 O   0  0  0  0  0  0  0  0  0  0  0  0
    2.3008    0.6548   -2.9420 O   0  0  0  0  0  0  0  0  0  0  0  0
    3.1428    2.5665   -1.4880 O   0  0  0  0  0  0  0  0  0  0  0  0
    8.0486    1.2995   -5.9040 C   0  0  0  0  0  0  0  0  0  0  0  0
    8.4662    2.3022   -6.0272 H   0  0  0  0  0  0  0  0  0  0  0  0
    8.8584    0.6229   -5.6163 H   0  0  0  0  0  0  0  0  0  0  0  0
    7.6866    0.9728   -6.8869 H   0  0  0  0  0  0  0  0  0  0  0  0
   -2.5790   -0.0369   -1.0990 H   0  0  0  0  0  0  0  0  0  0  0  0
  1  7  1  0  0  0  0
  2  8  1  0  0  0  0
  2  1  2  0  0  0  0
  3  2  1  0  0  0  0
  4  3  2  0  0  0  0
  4  5  1  0  0  0  0
  5  6  2  0  0  0  0
  6  1  1  0  0  0  0
  6 31  1  0  0  0  0
  9  4  1  0  0  0  0
 10  5  1  0  0  0  0
 11 12  3  0  0  0  0
 13 19  1  0  0  0  0
 13 18  2  0  0  0  0
 14 13  1  0  0  0  0
 15 14  2  0  0  0  0
 15 16  1  0  0  0  0
 16 17  2  0  0  0  0
 17 18  1  0  0  0  0
 17 22  1  0  0  0  0
 18 23  1  0  0  0  0
 20 14  1  0  0  0  0
 21 16  1  0  0  0  0
 23 26  2  0  0  0  0
 23 24  2  0  0  0  0
 25  3  1  0  0  0  0
 25 23  1  0  0  0  0
 27 29  1  0  0  0  0
 27 15  1  0  0  0  0
 28 27  1  0  0  0  0
 30 27  1  0  0  0  0
M  END
