Coordinates from ORCA-job Ph-N2-OTs-B3LYPG-6-31G_dp-MTMO-d009-169-n800
 OpenBabel09051907503D

 31 31  0  0  0  0  0  0  0  0999 V2000
   -0.7275   -0.7347   -1.6275 C   0  0  0  0  0  0  0  0  0  0  0  0
    0.6048   -0.6348   -2.0303 C   0  0  0  0  0  0  0  0  0  0  0  0
    1.0766    0.5933   -2.4908 C   0  0  0  0  0  0  0  0  0  0  0  0
    0.2555    1.7176   -2.5519 C   0  0  0  0  0  0  0  0  0  0  0  0
   -1.0755    1.6025   -2.1494 C   0  0  0  0  0  0  0  0  0  0  0  0
   -1.5680    0.3796   -1.6873 C   0  0  0  0  0  0  0  0  0  0  0  0
   -1.1076   -1.6854   -1.2660 H   0  0  0  0  0  0  0  0  0  0  0  0
    1.2772   -1.4840   -1.9894 H   0  0  0  0  0  0  0  0  0  0  0  0
    0.6635    2.6560   -2.9100 H   0  0  0  0  0  0  0  0  0  0  0  0
   -1.7262    2.4708   -2.1952 H   0  0  0  0  0  0  0  0  0  0  0  0
    9.1976    5.8289   -7.4319 N   0  0  0  0  0  0  0  0  0  0  0  0
    8.7210    5.0506   -6.8087 N   0  0  0  0  0  0  0  0  0  0  0  0
    5.3816    2.2664   -3.4483 C   0  0  0  0  0  0  0  0  0  0  0  0
    6.4692    2.2978   -4.3200 C   0  0  0  0  0  0  0  0  0  0  0  0
    7.1375    1.1223   -4.6876 C   0  0  0  0  0  0  0  0  0  0  0  0
    6.6915   -0.0989   -4.1566 C   0  0  0  0  0  0  0  0  0  0  0  0
    5.6098   -0.1520   -3.2836 C   0  0  0  0  0  0  0  0  0  0  0  0
    4.9611    1.0372   -2.9424 C   0  0  0  0  0  0  0  0  0  0  0  0
    4.8707    3.1763   -3.1541 H   0  0  0  0  0  0  0  0  0  0  0  0
    6.8066    3.2500   -4.7191 H   0  0  0  0  0  0  0  0  0  0  0  0
    7.2022   -1.0188   -4.4283 H   0  0  0  0  0  0  0  0  0  0  0  0
    5.2747   -1.0929   -2.8619 H   0  0  0  0  0  0  0  0  0  0  0  0
    3.5799    0.9834   -1.8216 S   0  0  0  0  0  0  0  0  0  0  0  0
    3.6826   -0.1933   -0.9612 O   0  0  0  0  0  0  0  0  0  0  0  0
    2.3951    0.6927   -2.9669 O   0  0  0  0  0  0  0  0  0  0  0  0
    3.3499    2.3071   -1.2476 O   0  0  0  0  0  0  0  0  0  0  0  0
    8.3238    1.1613   -5.6197 C   0  0  0  0  0  0  0  0  0  0  0  0
    8.4529    2.1510   -6.0636 H   0  0  0  0  0  0  0  0  0  0  0  0
    9.2487    0.9106   -5.0868 H   0  0  0  0  0  0  0  0  0  0  0  0
    8.2141    0.4343   -6.4315 H   0  0  0  0  0  0  0  0  0  0  0  0
   -2.6037    0.2956   -1.3726 H   0  0  0  0  0  0  0  0  0  0  0  0
  1  7  1  0  0  0  0
  2  8  1  0  0  0  0
  2  1  2  0  0  0  0
  3  2  1  0  0  0  0
  4  3  2  0  0  0  0
  4  5  1  0  0  0  0
  5  6  2  0  0  0  0
  6  1  1  0  0  0  0
  6 31  1  0  0  0  0
  9  4  1  0  0  0  0
 10  5  1  0  0  0  0
 11 12  3  0  0  0  0
 13 19  1  0  0  0  0
 13 18  2  0  0  0  0
 14 13  1  0  0  0  0
 15 14  2  0  0  0  0
 15 16  1  0  0  0  0
 16 17  2  0  0  0  0
 17 18  1  0  0  0  0
 17 22  1  0  0  0  0
 18 23  1  0  0  0  0
 20 14  1  0  0  0  0
 21 16  1  0  0  0  0
 23 26  2  0  0  0  0
 23 24  2  0  0  0  0
 25  3  1  0  0  0  0
 25 23  1  0  0  0  0
 27 29  1  0  0  0  0
 27 15  1  0  0  0  0
 28 27  1  0  0  0  0
 30 27  1  0  0  0  0
M  END
