Coordinates from ORCA-job Ph-N2-OTs-B3LYPG-6-31G_dp-MTMO-d009-169-n800
 OpenBabel09051907503D

 31 31  0  0  0  0  0  0  0  0999 V2000
   -0.4316   -0.0222   -1.1708 C   0  0  0  0  0  0  0  0  0  0  0  0
    0.9019   -0.0897   -1.5769 C   0  0  0  0  0  0  0  0  0  0  0  0
    1.3170    0.7016   -2.6471 C   0  0  0  0  0  0  0  0  0  0  0  0
    0.4372    1.5510   -3.3145 C   0  0  0  0  0  0  0  0  0  0  0  0
   -0.8950    1.6013   -2.9032 C   0  0  0  0  0  0  0  0  0  0  0  0
   -1.3302    0.8184   -1.8314 C   0  0  0  0  0  0  0  0  0  0  0  0
   -0.7675   -0.6298   -0.3356 H   0  0  0  0  0  0  0  0  0  0  0  0
    1.6168   -0.7332   -1.0778 H   0  0  0  0  0  0  0  0  0  0  0  0
    0.8019    2.1522   -4.1402 H   0  0  0  0  0  0  0  0  0  0  0  0
   -1.5909    2.2567   -3.4184 H   0  0  0  0  0  0  0  0  0  0  0  0
    5.7342    6.6643   -2.9833 N   0  0  0  0  0  0  0  0  0  0  0  0
    5.6016    5.7830   -3.6369 N   0  0  0  0  0  0  0  0  0  0  0  0
    5.6127    2.0482   -4.2021 C   0  0  0  0  0  0  0  0  0  0  0  0
    6.6963    1.7734   -5.0343 C   0  0  0  0  0  0  0  0  0  0  0  0
    7.3481    0.5326   -4.9930 C   0  0  0  0  0  0  0  0  0  0  0  0
    6.8870   -0.4384   -4.0903 C   0  0  0  0  0  0  0  0  0  0  0  0
    5.8100   -0.1832   -3.2463 C   0  0  0  0  0  0  0  0  0  0  0  0
    5.1796    1.0608   -3.3169 C   0  0  0  0  0  0  0  0  0  0  0  0
    5.1172    3.0120   -4.2261 H   0  0  0  0  0  0  0  0  0  0  0  0
    7.0428    2.5376   -5.7247 H   0  0  0  0  0  0  0  0  0  0  0  0
    7.3816   -1.4047   -4.0461 H   0  0  0  0  0  0  0  0  0  0  0  0
    5.4657   -0.9297   -2.5390 H   0  0  0  0  0  0  0  0  0  0  0  0
    3.8106    1.4057   -2.2336 S   0  0  0  0  0  0  0  0  0  0  0  0
    3.9870    0.6936   -0.9692 O   0  0  0  0  0  0  0  0  0  0  0  0
    2.6373    0.6074   -3.1199 O   0  0  0  0  0  0  0  0  0  0  0  0
    3.5105    2.8354   -2.2451 O   0  0  0  0  0  0  0  0  0  0  0  0
    8.5417    0.2578   -5.8754 C   0  0  0  0  0  0  0  0  0  0  0  0
    8.5053    0.8484   -6.7945 H   0  0  0  0  0  0  0  0  0  0  0  0
    9.4748    0.5146   -5.3584 H   0  0  0  0  0  0  0  0  0  0  0  0
    8.6028   -0.7991   -6.1496 H   0  0  0  0  0  0  0  0  0  0  0  0
   -2.3667    0.8644   -1.5111 H   0  0  0  0  0  0  0  0  0  0  0  0
  1  7  1  0  0  0  0
  2  1  1  0  0  0  0
  2  8  1  0  0  0  0
  3  2  2  0  0  0  0
  4  5  2  0  0  0  0
  4  3  1  0  0  0  0
  5  6  1  0  0  0  0
  6 31  1  0  0  0  0
  6  1  2  0  0  0  0
  9  4  1  0  0  0  0
 10  5  1  0  0  0  0
 12 11  3  0  0  0  0
 13 18  2  0  0  0  0
 14 15  2  0  0  0  0
 14 13  1  0  0  0  0
 15 16  1  0  0  0  0
 16 21  1  0  0  0  0
 16 17  2  0  0  0  0
 17 22  1  0  0  0  0
 18 17  1  0  0  0  0
 18 23  1  0  0  0  0
 19 13  1  0  0  0  0
 20 14  1  0  0  0  0
 23 24  2  0  0  0  0
 25  3  1  0  0  0  0
 25 23  1  0  0  0  0
 26 23  2  0  0  0  0
 27 29  1  0  0  0  0
 27 15  1  0  0  0  0
 28 27  1  0  0  0  0
 30 27  1  0  0  0  0
M  END
