Coordinates from ORCA-job Ph-N2-OTs-B3LYPG-6-31G_dp-MTMO-d009-169-n800
 OpenBabel09051907503D

 31 31  0  0  0  0  0  0  0  0999 V2000
   -0.8558   -1.0954   -1.3474 C   0  0  0  0  0  0  0  0  0  0  0  0
    0.4468   -0.8858   -1.8017 C   0  0  0  0  0  0  0  0  0  0  0  0
    0.7887    0.3672   -2.3071 C   0  0  0  0  0  0  0  0  0  0  0  0
   -0.1322    1.4118   -2.3615 C   0  0  0  0  0  0  0  0  0  0  0  0
   -1.4314    1.1882   -1.9043 C   0  0  0  0  0  0  0  0  0  0  0  0
   -1.7946   -0.0622   -1.3983 C   0  0  0  0  0  0  0  0  0  0  0  0
   -1.1354   -2.0671   -0.9516 H   0  0  0  0  0  0  0  0  0  0  0  0
    1.1942   -1.6704   -1.7688 H   0  0  0  0  0  0  0  0  0  0  0  0
    0.1753    2.3739   -2.7549 H   0  0  0  0  0  0  0  0  0  0  0  0
   -2.1589    1.9935   -1.9430 H   0  0  0  0  0  0  0  0  0  0  0  0
   14.5065    6.0796   -8.3966 N   0  0  0  0  0  0  0  0  0  0  0  0
   13.5422    5.5894   -8.1697 N   0  0  0  0  0  0  0  0  0  0  0  0
    4.8508    2.3913   -3.5766 C   0  0  0  0  0  0  0  0  0  0  0  0
    5.9110    2.4473   -4.4785 C   0  0  0  0  0  0  0  0  0  0  0  0
    6.7061    1.3210   -4.7351 C   0  0  0  0  0  0  0  0  0  0  0  0
    6.4208    0.1282   -4.0528 C   0  0  0  0  0  0  0  0  0  0  0  0
    5.3670    0.0512   -3.1465 C   0  0  0  0  0  0  0  0  0  0  0  0
    4.5872    1.1873   -2.9232 C   0  0  0  0  0  0  0  0  0  0  0  0
    4.2438    3.2650   -3.3672 H   0  0  0  0  0  0  0  0  0  0  0  0
    6.1285    3.3823   -4.9871 H   0  0  0  0  0  0  0  0  0  0  0  0
    7.0364   -0.7498   -4.2297 H   0  0  0  0  0  0  0  0  0  0  0  0
    5.1566   -0.8661   -2.6078 H   0  0  0  0  0  0  0  0  0  0  0  0
    3.2423    1.1057   -1.7604 S   0  0  0  0  0  0  0  0  0  0  0  0
    3.4905    0.0484   -0.7831 O   0  0  0  0  0  0  0  0  0  0  0  0
    2.0769    0.5646   -2.8330 O   0  0  0  0  0  0  0  0  0  0  0  0
    2.8778    2.4519   -1.3250 O   0  0  0  0  0  0  0  0  0  0  0  0
    7.8327    1.3833   -5.7374 C   0  0  0  0  0  0  0  0  0  0  0  0
    8.2060    2.4036   -5.8585 H   0  0  0  0  0  0  0  0  0  0  0  0
    8.6696    0.7452   -5.4392 H   0  0  0  0  0  0  0  0  0  0  0  0
    7.4965    1.0384   -6.7231 H   0  0  0  0  0  0  0  0  0  0  0  0
   -2.8065   -0.2306   -1.0426 H   0  0  0  0  0  0  0  0  0  0  0  0
  1  7  1  0  0  0  0
  2  8  1  0  0  0  0
  2  1  2  0  0  0  0
  3  2  1  0  0  0  0
  4  3  2  0  0  0  0
  4  5  1  0  0  0  0
  5  6  2  0  0  0  0
  6  1  1  0  0  0  0
  6 31  1  0  0  0  0
  9  4  1  0  0  0  0
 10  5  1  0  0  0  0
 11 12  3  0  0  0  0
 13 19  1  0  0  0  0
 13 18  2  0  0  0  0
 14 13  1  0  0  0  0
 15 14  2  0  0  0  0
 15 16  1  0  0  0  0
 16 17  2  0  0  0  0
 17 18  1  0  0  0  0
 17 22  1  0  0  0  0
 18 23  1  0  0  0  0
 20 14  1  0  0  0  0
 21 16  1  0  0  0  0
 23 26  2  0  0  0  0
 23 24  2  0  0  0  0
 25  3  1  0  0  0  0
 25 23  1  0  0  0  0
 27 29  1  0  0  0  0
 27 15  1  0  0  0  0
 28 27  1  0  0  0  0
 30 27  1  0  0  0  0
M  END
