Coordinates from ORCA-job Ph-N2-OTs-B3LYPG-6-31G_dp-MTMO-d009-169-n800
 OpenBabel09051907503D

 31 31  0  0  0  0  0  0  0  0999 V2000
   -0.7298   -0.6876   -1.6378 C   0  0  0  0  0  0  0  0  0  0  0  0
    0.6057   -0.6091   -2.0347 C   0  0  0  0  0  0  0  0  0  0  0  0
    1.0958    0.6082   -2.5049 C   0  0  0  0  0  0  0  0  0  0  0  0
    0.2896    1.7423   -2.5814 C   0  0  0  0  0  0  0  0  0  0  0  0
   -1.0449    1.6485   -2.1849 C   0  0  0  0  0  0  0  0  0  0  0  0
   -1.5555    0.4368   -1.7131 C   0  0  0  0  0  0  0  0  0  0  0  0
   -1.1240   -1.6297   -1.2689 H   0  0  0  0  0  0  0  0  0  0  0  0
    1.2667   -1.4666   -1.9819 H   0  0  0  0  0  0  0  0  0  0  0  0
    0.7115    2.6717   -2.9467 H   0  0  0  0  0  0  0  0  0  0  0  0
   -1.6840    2.5246   -2.2429 H   0  0  0  0  0  0  0  0  0  0  0  0
    8.8300    5.9151   -7.3388 N   0  0  0  0  0  0  0  0  0  0  0  0
    8.4167    5.0956   -6.7232 N   0  0  0  0  0  0  0  0  0  0  0  0
    5.4119    2.2356   -3.4473 C   0  0  0  0  0  0  0  0  0  0  0  0
    6.5005    2.2643   -4.3173 C   0  0  0  0  0  0  0  0  0  0  0  0
    7.1662    1.0864   -4.6839 C   0  0  0  0  0  0  0  0  0  0  0  0
    6.7150   -0.1335   -4.1552 C   0  0  0  0  0  0  0  0  0  0  0  0
    5.6314   -0.1837   -3.2838 C   0  0  0  0  0  0  0  0  0  0  0  0
    4.9867    1.0072   -2.9425 C   0  0  0  0  0  0  0  0  0  0  0  0
    4.9031    3.1470   -3.1539 H   0  0  0  0  0  0  0  0  0  0  0  0
    6.8402    3.2153   -4.7172 H   0  0  0  0  0  0  0  0  0  0  0  0
    7.2223   -1.0549   -4.4279 H   0  0  0  0  0  0  0  0  0  0  0  0
    5.2916   -1.1239   -2.8644 H   0  0  0  0  0  0  0  0  0  0  0  0
    3.6026    0.9573   -1.8253 S   0  0  0  0  0  0  0  0  0  0  0  0
    3.6928   -0.2271   -0.9741 O   0  0  0  0  0  0  0  0  0  0  0  0
    2.4177    0.6868   -2.9754 O   0  0  0  0  0  0  0  0  0  0  0  0
    3.3831    2.2784   -1.2413 O   0  0  0  0  0  0  0  0  0  0  0  0
    8.3592    1.1248   -5.6072 C   0  0  0  0  0  0  0  0  0  0  0  0
    8.4306    2.0812   -6.1310 H   0  0  0  0  0  0  0  0  0  0  0  0
    9.2911    0.9837   -5.0464 H   0  0  0  0  0  0  0  0  0  0  0  0
    8.3095    0.3266   -6.3550 H   0  0  0  0  0  0  0  0  0  0  0  0
   -2.5938    0.3693   -1.4031 H   0  0  0  0  0  0  0  0  0  0  0  0
  1  7  1  0  0  0  0
  2  8  1  0  0  0  0
  2  1  2  0  0  0  0
  3  2  1  0  0  0  0
  4  3  2  0  0  0  0
  4  5  1  0  0  0  0
  5  6  2  0  0  0  0
  6  1  1  0  0  0  0
  6 31  1  0  0  0  0
  9  4  1  0  0  0  0
 10  5  1  0  0  0  0
 11 12  3  0  0  0  0
 13 19  1  0  0  0  0
 13 18  2  0  0  0  0
 14 13  1  0  0  0  0
 15 14  2  0  0  0  0
 15 16  1  0  0  0  0
 16 17  2  0  0  0  0
 17 18  1  0  0  0  0
 17 22  1  0  0  0  0
 18 23  1  0  0  0  0
 20 14  1  0  0  0  0
 21 16  1  0  0  0  0
 23 26  2  0  0  0  0
 23 24  2  0  0  0  0
 25  3  1  0  0  0  0
 25 23  1  0  0  0  0
 27 29  1  0  0  0  0
 27 15  1  0  0  0  0
 28 27  1  0  0  0  0
 30 27  1  0  0  0  0
M  END
