Coordinates from ORCA-job Ph-N2-OTs-B3LYPG-6-31G_dp-MTMO-d009-169-n800
 OpenBabel09051907503D

 31 31  0  0  0  0  0  0  0  0999 V2000
   -0.4343   -0.1689   -1.6270 C   0  0  0  0  0  0  0  0  0  0  0  0
    0.8877   -0.2093   -2.0716 C   0  0  0  0  0  0  0  0  0  0  0  0
    1.4306    0.9262   -2.6691 C   0  0  0  0  0  0  0  0  0  0  0  0
    0.6931    2.0993   -2.8230 C   0  0  0  0  0  0  0  0  0  0  0  0
   -0.6268    2.1260   -2.3710 C   0  0  0  0  0  0  0  0  0  0  0  0
   -1.1918    0.9954   -1.7757 C   0  0  0  0  0  0  0  0  0  0  0  0
   -0.8702   -1.0479   -1.1616 H   0  0  0  0  0  0  0  0  0  0  0  0
    1.4986   -1.0983   -1.9627 H   0  0  0  0  0  0  0  0  0  0  0  0
    1.1551    2.9650   -3.2836 H   0  0  0  0  0  0  0  0  0  0  0  0
   -1.2137    3.0326   -2.4855 H   0  0  0  0  0  0  0  0  0  0  0  0
    4.3783    5.9735   -3.8662 N   0  0  0  0  0  0  0  0  0  0  0  0
    3.3312    5.6248   -3.8051 N   0  0  0  0  0  0  0  0  0  0  0  0
    5.8149    2.0059   -4.1271 C   0  0  0  0  0  0  0  0  0  0  0  0
    6.8906    1.6903   -4.9536 C   0  0  0  0  0  0  0  0  0  0  0  0
    7.4753    0.4153   -4.9300 C   0  0  0  0  0  0  0  0  0  0  0  0
    6.9604   -0.5426   -4.0436 C   0  0  0  0  0  0  0  0  0  0  0  0
    5.8866   -0.2471   -3.2077 C   0  0  0  0  0  0  0  0  0  0  0  0
    5.3203    1.0272   -3.2642 C   0  0  0  0  0  0  0  0  0  0  0  0
    5.3728    2.9956   -4.1347 H   0  0  0  0  0  0  0  0  0  0  0  0
    7.2873    2.4490   -5.6225 H   0  0  0  0  0  0  0  0  0  0  0  0
    7.4115   -1.5300   -4.0022 H   0  0  0  0  0  0  0  0  0  0  0  0
    5.5006   -0.9828   -2.5108 H   0  0  0  0  0  0  0  0  0  0  0  0
    3.9585    1.4217   -2.1881 S   0  0  0  0  0  0  0  0  0  0  0  0
    3.9997    0.5775   -0.9965 O   0  0  0  0  0  0  0  0  0  0  0  0
    2.7374    0.8614   -3.1841 O   0  0  0  0  0  0  0  0  0  0  0  0
    3.8285    2.8729   -2.0674 O   0  0  0  0  0  0  0  0  0  0  0  0
    8.6221    0.0771   -5.8514 C   0  0  0  0  0  0  0  0  0  0  0  0
    8.2513   -0.2915   -6.8156 H   0  0  0  0  0  0  0  0  0  0  0  0
    9.2429    0.9541   -6.0558 H   0  0  0  0  0  0  0  0  0  0  0  0
    9.2604   -0.7035   -5.4275 H   0  0  0  0  0  0  0  0  0  0  0  0
   -2.2194    1.0219   -1.4266 H   0  0  0  0  0  0  0  0  0  0  0  0
  1  7  1  0  0  0  0
  2  8  1  0  0  0  0
  2  1  2  0  0  0  0
  3  2  1  0  0  0  0
  4  3  2  0  0  0  0
  4  5  1  0  0  0  0
  5  6  2  0  0  0  0
  6  1  1  0  0  0  0
  6 31  1  0  0  0  0
  9  4  1  0  0  0  0
 10  5  1  0  0  0  0
 11 12  3  0  0  0  0
 13 18  2  0  0  0  0
 14 15  2  0  0  0  0
 14 13  1  0  0  0  0
 15 16  1  0  0  0  0
 16 21  1  0  0  0  0
 16 17  2  0  0  0  0
 17 22  1  0  0  0  0
 18 17  1  0  0  0  0
 18 23  1  0  0  0  0
 19 13  1  0  0  0  0
 20 14  1  0  0  0  0
 23 26  2  0  0  0  0
 23 24  2  0  0  0  0
 25  3  1  0  0  0  0
 25 23  1  0  0  0  0
 27 30  1  0  0  0  0
 27 15  1  0  0  0  0
 28 27  1  0  0  0  0
 29 27  1  0  0  0  0
M  END
