Coordinates from ORCA-job Ph-N2-OTs-B3LYPG-6-31G_dp-MTMO-d009-169-n800
 OpenBabel09051907503D

 31 31  0  0  0  0  0  0  0  0999 V2000
   -0.5588   -0.2032   -1.2850 C   0  0  0  0  0  0  0  0  0  0  0  0
    0.7791   -0.2748   -1.6759 C   0  0  0  0  0  0  0  0  0  0  0  0
    1.2597    0.6582   -2.5940 C   0  0  0  0  0  0  0  0  0  0  0  0
    0.4401    1.6516   -3.1253 C   0  0  0  0  0  0  0  0  0  0  0  0
   -0.8976    1.7051   -2.7325 C   0  0  0  0  0  0  0  0  0  0  0  0
   -1.3977    0.7814   -1.8117 C   0  0  0  0  0  0  0  0  0  0  0  0
   -0.9450   -0.9216   -0.5677 H   0  0  0  0  0  0  0  0  0  0  0  0
    1.4479   -1.0297   -1.2792 H   0  0  0  0  0  0  0  0  0  0  0  0
    0.8550    2.3612   -3.8330 H   0  0  0  0  0  0  0  0  0  0  0  0
   -1.5466    2.4731   -3.1428 H   0  0  0  0  0  0  0  0  0  0  0  0
    6.4338    6.7993   -4.6498 N   0  0  0  0  0  0  0  0  0  0  0  0
    6.3400    5.7035   -4.7582 N   0  0  0  0  0  0  0  0  0  0  0  0
    5.5925    2.0706   -3.8578 C   0  0  0  0  0  0  0  0  0  0  0  0
    6.6720    1.9224   -4.7250 C   0  0  0  0  0  0  0  0  0  0  0  0
    7.3062    0.6817   -4.8889 C   0  0  0  0  0  0  0  0  0  0  0  0
    6.8320   -0.4166   -4.1562 C   0  0  0  0  0  0  0  0  0  0  0  0
    5.7572   -0.2888   -3.2797 C   0  0  0  0  0  0  0  0  0  0  0  0
    5.1441    0.9577   -3.1451 C   0  0  0  0  0  0  0  0  0  0  0  0
    5.1088    3.0317   -3.7257 H   0  0  0  0  0  0  0  0  0  0  0  0
    7.0272    2.7862   -5.2792 H   0  0  0  0  0  0  0  0  0  0  0  0
    7.3134   -1.3838   -4.2708 H   0  0  0  0  0  0  0  0  0  0  0  0
    5.4017   -1.1358   -2.7035 H   0  0  0  0  0  0  0  0  0  0  0  0
    3.7742    1.1399   -2.0242 S   0  0  0  0  0  0  0  0  0  0  0  0
    3.9087    0.1924   -0.9191 O   0  0  0  0  0  0  0  0  0  0  0  0
    2.5842    0.5725   -3.0554 O   0  0  0  0  0  0  0  0  0  0  0  0
    3.5246    2.5553   -1.7637 O   0  0  0  0  0  0  0  0  0  0  0  0
    8.4927    0.5420   -5.8117 C   0  0  0  0  0  0  0  0  0  0  0  0
    8.3802    1.1640   -6.7045 H   0  0  0  0  0  0  0  0  0  0  0  0
    9.4157    0.8586   -5.3105 H   0  0  0  0  0  0  0  0  0  0  0  0
    8.6323   -0.4936   -6.1318 H   0  0  0  0  0  0  0  0  0  0  0  0
   -2.4378    0.8301   -1.5038 H   0  0  0  0  0  0  0  0  0  0  0  0
  1  7  1  0  0  0  0
  2  1  1  0  0  0  0
  2  8  1  0  0  0  0
  3  2  2  0  0  0  0
  4  5  2  0  0  0  0
  4  3  1  0  0  0  0
  5  6  1  0  0  0  0
  6 31  1  0  0  0  0
  6  1  2  0  0  0  0
  9  4  1  0  0  0  0
 10  5  1  0  0  0  0
 12 11  3  0  0  0  0
 13 19  1  0  0  0  0
 13 18  2  0  0  0  0
 14 13  1  0  0  0  0
 15 14  2  0  0  0  0
 15 16  1  0  0  0  0
 16 17  2  0  0  0  0
 17 18  1  0  0  0  0
 17 22  1  0  0  0  0
 18 23  1  0  0  0  0
 20 14  1  0  0  0  0
 21 16  1  0  0  0  0
 23 26  2  0  0  0  0
 23 24  2  0  0  0  0
 25  3  1  0  0  0  0
 25 23  1  0  0  0  0
 27 29  1  0  0  0  0
 27 15  1  0  0  0  0
 28 27  1  0  0  0  0
 30 27  1  0  0  0  0
M  END
