Coordinates from ORCA-job Ph-N2-OTs-B3LYPG-6-31G_dp-MTMO-d009-169-n800
 OpenBabel09051907503D

 31 30  0  0  0  0  0  0  0  0999 V2000
   -0.1235    0.0502   -1.2347 C   0  0  0  0  0  0  0  0  0  0  0  0
    0.6955    0.8163   -2.0856 C   0  0  0  0  0  0  0  0  0  0  0  0
    0.1784    1.8299   -2.6228 C   0  0  0  0  0  0  0  0  0  0  0  0
   -1.0374    2.4541   -2.6165 C   0  0  0  0  0  0  0  0  0  0  0  0
   -1.8799    1.6987   -1.7646 C   0  0  0  0  0  0  0  0  0  0  0  0
   -1.4361    0.5404   -1.1011 C   0  0  0  0  0  0  0  0  0  0  0  0
    0.2056   -0.8439   -0.7147 H   0  0  0  0  0  0  0  0  0  0  0  0
    2.6196    0.5434   -2.4633 H   0  0  0  0  0  0  0  0  0  0  0  0
   -1.3410    3.3502   -3.1399 H   0  0  0  0  0  0  0  0  0  0  0  0
   -2.9033    2.0377   -1.6260 H   0  0  0  0  0  0  0  0  0  0  0  0
    1.0471    4.4422   -4.5892 N   0  0  0  0  0  0  0  0  0  0  0  0
    1.8397    5.0691   -5.0355 N   0  0  0  0  0  0  0  0  0  0  0  0
    6.9042    1.2045   -2.8832 C   0  0  0  0  0  0  0  0  0  0  0  0
    8.1152    0.7225   -3.3780 C   0  0  0  0  0  0  0  0  0  0  0  0
    8.2254    0.2519   -4.6936 C   0  0  0  0  0  0  0  0  0  0  0  0
    7.0850    0.2742   -5.5121 C   0  0  0  0  0  0  0  0  0  0  0  0
    5.8671    0.7518   -5.0365 C   0  0  0  0  0  0  0  0  0  0  0  0
    5.7888    1.2097   -3.7197 C   0  0  0  0  0  0  0  0  0  0  0  0
    6.8196    1.5795   -1.8696 H   0  0  0  0  0  0  0  0  0  0  0  0
    8.9896    0.7140   -2.7326 H   0  0  0  0  0  0  0  0  0  0  0  0
    7.1538   -0.0856   -6.5351 H   0  0  0  0  0  0  0  0  0  0  0  0
    4.9890    0.7810   -5.6724 H   0  0  0  0  0  0  0  0  0  0  0  0
    4.2357    1.8230   -3.0983 S   0  0  0  0  0  0  0  0  0  0  0  0
    3.5895    0.4037   -2.6268 O   0  0  0  0  0  0  0  0  0  0  0  0
    3.4326    2.3485   -4.2065 O   0  0  0  0  0  0  0  0  0  0  0  0
    4.4847    2.6580   -1.9242 O   0  0  0  0  0  0  0  0  0  0  0  0
    9.5465   -0.2421   -5.2321 C   0  0  0  0  0  0  0  0  0  0  0  0
   10.0354    0.5304   -5.8388 H   0  0  0  0  0  0  0  0  0  0  0  0
   10.2335   -0.5094   -4.4247 H   0  0  0  0  0  0  0  0  0  0  0  0
    9.4134   -1.1198   -5.8723 H   0  0  0  0  0  0  0  0  0  0  0  0
   -2.1339    0.0065   -0.4612 H   0  0  0  0  0  0  0  0  0  0  0  0
  1  6  1  0  0  0  0
  1  7  1  0  0  0  0
  2  1  2  0  0  0  0
  3  4  2  0  0  0  0
  3  2  1  0  0  0  0
  4  5  1  0  0  0  0
  5 10  1  0  0  0  0
  5  6  2  0  0  0  0
  6 31  1  0  0  0  0
  9  4  1  0  0  0  0
 12 11  3  0  0  0  0
 13 19  1  0  0  0  0
 14 13  1  0  0  0  0
 14 20  1  0  0  0  0
 15 14  2  0  0  0  0
 16 17  2  0  0  0  0
 16 15  1  0  0  0  0
 17 18  1  0  0  0  0
 18 23  1  0  0  0  0
 18 13  2  0  0  0  0
 21 16  1  0  0  0  0
 22 17  1  0  0  0  0
 23 24  1  0  0  0  0
 23 26  2  0  0  0  0
 24  8  1  0  0  0  0
 25 23  2  0  0  0  0
 27 15  1  0  0  0  0
 27 29  1  0  0  0  0
 28 27  1  0  0  0  0
 30 27  1  0  0  0  0
M  RAD  2   2   2   3   2
M  END
