Coordinates from ORCA-job Ph-N2-OTs-B3LYPG-6-31G_dp-MTMO-d009-169-n800
 OpenBabel09051907503D

 31 30  0  0  0  0  0  0  0  0999 V2000
   -0.2806   -0.0063   -1.1165 C   0  0  0  0  0  0  0  0  0  0  0  0
    0.7580    0.6294   -1.8223 C   0  0  0  0  0  0  0  0  0  0  0  0
    0.4436    1.6234   -2.5279 C   0  0  0  0  0  0  0  0  0  0  0  0
   -0.6911    2.3188   -2.8361 C   0  0  0  0  0  0  0  0  0  0  0  0
   -1.7511    1.6918   -2.1358 C   0  0  0  0  0  0  0  0  0  0  0  0
   -1.5499    0.5712   -1.3089 C   0  0  0  0  0  0  0  0  0  0  0  0
   -0.1415   -0.8710   -0.4748 H   0  0  0  0  0  0  0  0  0  0  0  0
    2.7483    0.3967   -2.0271 H   0  0  0  0  0  0  0  0  0  0  0  0
   -0.8037    3.1831   -3.4761 H   0  0  0  0  0  0  0  0  0  0  0  0
   -2.7512    2.1026   -2.2492 H   0  0  0  0  0  0  0  0  0  0  0  0
    1.3050    4.5547   -4.6563 N   0  0  0  0  0  0  0  0  0  0  0  0
    2.2493    5.0200   -4.9914 N   0  0  0  0  0  0  0  0  0  0  0  0
    6.9627    1.3048   -2.8571 C   0  0  0  0  0  0  0  0  0  0  0  0
    8.1293    0.8679   -3.4826 C   0  0  0  0  0  0  0  0  0  0  0  0
    8.1015    0.3353   -4.7788 C   0  0  0  0  0  0  0  0  0  0  0  0
    6.8673    0.2474   -5.4423 C   0  0  0  0  0  0  0  0  0  0  0  0
    5.6917    0.6784   -4.8348 C   0  0  0  0  0  0  0  0  0  0  0  0
    5.7522    1.2011   -3.5412 C   0  0  0  0  0  0  0  0  0  0  0  0
    6.9821    1.7265   -1.8589 H   0  0  0  0  0  0  0  0  0  0  0  0
    9.0771    0.9438   -2.9565 H   0  0  0  0  0  0  0  0  0  0  0  0
    6.8296   -0.1618   -6.4480 H   0  0  0  0  0  0  0  0  0  0  0  0
    4.7402    0.6217   -5.3524 H   0  0  0  0  0  0  0  0  0  0  0  0
    4.2545    1.7561   -2.7520 S   0  0  0  0  0  0  0  0  0  0  0  0
    3.7265    0.3271   -2.1791 O   0  0  0  0  0  0  0  0  0  0  0  0
    3.3019    2.2162   -3.7700 O   0  0  0  0  0  0  0  0  0  0  0  0
    4.6008    2.6330   -1.6356 O   0  0  0  0  0  0  0  0  0  0  0  0
    9.3731   -0.1071   -5.4614 C   0  0  0  0  0  0  0  0  0  0  0  0
    9.7515    0.6770   -6.1292 H   0  0  0  0  0  0  0  0  0  0  0  0
   10.1605   -0.3289   -4.7360 H   0  0  0  0  0  0  0  0  0  0  0  0
    9.2093   -1.0003   -6.0722 H   0  0  0  0  0  0  0  0  0  0  0  0
   -2.4074    0.1381   -0.8010 H   0  0  0  0  0  0  0  0  0  0  0  0
  1  7  1  0  0  0  0
  2  1  2  0  0  0  0
  3  2  1  0  0  0  0
  4  3  2  0  0  0  0
  4  5  1  0  0  0  0
  5  6  2  0  0  0  0
  6  1  1  0  0  0  0
  6 31  1  0  0  0  0
  9  4  1  0  0  0  0
 10  5  1  0  0  0  0
 12 11  3  0  0  0  0
 13 19  1  0  0  0  0
 14 20  1  0  0  0  0
 14 13  1  0  0  0  0
 15 14  2  0  0  0  0
 16 17  2  0  0  0  0
 16 15  1  0  0  0  0
 17 18  1  0  0  0  0
 18 13  2  0  0  0  0
 18 23  1  0  0  0  0
 21 16  1  0  0  0  0
 22 17  1  0  0  0  0
 23 24  1  0  0  0  0
 23 26  2  0  0  0  0
 24  8  1  0  0  0  0
 25 23  2  0  0  0  0
 27 15  1  0  0  0  0
 27 29  1  0  0  0  0
 28 27  1  0  0  0  0
 30 27  1  0  0  0  0
M  RAD  2   2   2   3   2
M  END
