Coordinates from ORCA-job Ph-N2-OTs-B3LYPG-6-31G_dp-MTMO-d009-169-n800
 OpenBabel09051907503D

 31 31  0  0  0  0  0  0  0  0999 V2000
   -0.4951   -0.0880   -1.2893 C   0  0  0  0  0  0  0  0  0  0  0  0
    0.8393   -0.1827   -1.6869 C   0  0  0  0  0  0  0  0  0  0  0  0
    1.3230    0.7221   -2.6310 C   0  0  0  0  0  0  0  0  0  0  0  0
    0.5101    1.7105   -3.1815 C   0  0  0  0  0  0  0  0  0  0  0  0
   -0.8242    1.7877   -2.7812 C   0  0  0  0  0  0  0  0  0  0  0  0
   -1.3274    0.8922   -1.8346 C   0  0  0  0  0  0  0  0  0  0  0  0
   -0.8838   -0.7842   -0.5518 H   0  0  0  0  0  0  0  0  0  0  0  0
    1.5033   -0.9341   -1.2758 H   0  0  0  0  0  0  0  0  0  0  0  0
    0.9275    2.3978   -3.9095 H   0  0  0  0  0  0  0  0  0  0  0  0
   -1.4682    2.5521   -3.2060 H   0  0  0  0  0  0  0  0  0  0  0  0
    5.3986    6.8209   -3.9232 N   0  0  0  0  0  0  0  0  0  0  0  0
    5.4773    5.7674   -4.2474 N   0  0  0  0  0  0  0  0  0  0  0  0
    5.6653    2.0208   -3.9828 C   0  0  0  0  0  0  0  0  0  0  0  0
    6.7430    1.8126   -4.8403 C   0  0  0  0  0  0  0  0  0  0  0  0
    7.3680    0.5600   -4.9316 C   0  0  0  0  0  0  0  0  0  0  0  0
    6.8852   -0.4902   -4.1363 C   0  0  0  0  0  0  0  0  0  0  0  0
    5.8120   -0.3027   -3.2688 C   0  0  0  0  0  0  0  0  0  0  0  0
    5.2092    0.9546   -3.2064 C   0  0  0  0  0  0  0  0  0  0  0  0
    5.1911    2.9926   -3.9070 H   0  0  0  0  0  0  0  0  0  0  0  0
    7.1060    2.6383   -5.4460 H   0  0  0  0  0  0  0  0  0  0  0  0
    7.3590   -1.4662   -4.1942 H   0  0  0  0  0  0  0  0  0  0  0  0
    5.4499   -1.1119   -2.6444 H   0  0  0  0  0  0  0  0  0  0  0  0
    3.8429    1.2115   -2.0958 S   0  0  0  0  0  0  0  0  0  0  0  0
    3.9649    0.3186   -0.9449 O   0  0  0  0  0  0  0  0  0  0  0  0
    2.6439    0.6104   -3.0973 O   0  0  0  0  0  0  0  0  0  0  0  0
    3.6133    2.6416   -1.9062 O   0  0  0  0  0  0  0  0  0  0  0  0
    8.5547    0.3570   -5.8423 C   0  0  0  0  0  0  0  0  0  0  0  0
    8.4691    0.9585   -6.7517 H   0  0  0  0  0  0  0  0  0  0  0  0
    9.4846    0.6551   -5.3422 H   0  0  0  0  0  0  0  0  0  0  0  0
    8.6619   -0.6909   -6.1341 H   0  0  0  0  0  0  0  0  0  0  0  0
   -2.3648    0.9593   -1.5212 H   0  0  0  0  0  0  0  0  0  0  0  0
  1  7  1  0  0  0  0
  2  1  1  0  0  0  0
  2  8  1  0  0  0  0
  3  2  2  0  0  0  0
  4  5  2  0  0  0  0
  4  3  1  0  0  0  0
  5  6  1  0  0  0  0
  6 31  1  0  0  0  0
  6  1  2  0  0  0  0
  9  4  1  0  0  0  0
 10  5  1  0  0  0  0
 12 11  3  0  0  0  0
 13 19  1  0  0  0  0
 13 18  2  0  0  0  0
 14 13  1  0  0  0  0
 15 14  2  0  0  0  0
 15 16  1  0  0  0  0
 16 17  2  0  0  0  0
 17 18  1  0  0  0  0
 17 22  1  0  0  0  0
 18 23  1  0  0  0  0
 20 14  1  0  0  0  0
 21 16  1  0  0  0  0
 23 26  2  0  0  0  0
 23 24  2  0  0  0  0
 25  3  1  0  0  0  0
 25 23  1  0  0  0  0
 27 29  1  0  0  0  0
 27 15  1  0  0  0  0
 28 27  1  0  0  0  0
 30 27  1  0  0  0  0
M  END
