Coordinates from ORCA-job Ph-N2-OTs-B3LYPG-6-31G_dp-MTMO-d009-169-n800
 OpenBabel09051907503D

 31 31  0  0  0  0  0  0  0  0999 V2000
   -0.6447   -1.0351   -1.4064 C   0  0  0  0  0  0  0  0  0  0  0  0
    0.6508   -0.8102   -1.8734 C   0  0  0  0  0  0  0  0  0  0  0  0
    0.9711    0.4446   -2.3883 C   0  0  0  0  0  0  0  0  0  0  0  0
    0.0357    1.4763   -2.4398 C   0  0  0  0  0  0  0  0  0  0  0  0
   -1.2562    1.2375   -1.9698 C   0  0  0  0  0  0  0  0  0  0  0  0
   -1.5979   -0.0150   -1.4541 C   0  0  0  0  0  0  0  0  0  0  0  0
   -0.9075   -2.0084   -1.0030 H   0  0  0  0  0  0  0  0  0  0  0  0
    1.4092   -1.5844   -1.8430 H   0  0  0  0  0  0  0  0  0  0  0  0
    0.3265    2.4403   -2.8411 H   0  0  0  0  0  0  0  0  0  0  0  0
   -1.9951    2.0326   -2.0060 H   0  0  0  0  0  0  0  0  0  0  0  0
   11.9163    4.7908   -7.0201 N   0  0  0  0  0  0  0  0  0  0  0  0
   10.9481    4.3340   -6.7454 N   0  0  0  0  0  0  0  0  0  0  0  0
    5.0177    2.4948   -3.7037 C   0  0  0  0  0  0  0  0  0  0  0  0
    6.0765    2.5458   -4.6069 C   0  0  0  0  0  0  0  0  0  0  0  0
    6.8765    1.4198   -4.8528 C   0  0  0  0  0  0  0  0  0  0  0  0
    6.5965    0.2337   -4.1576 C   0  0  0  0  0  0  0  0  0  0  0  0
    5.5437    0.1618   -3.2489 C   0  0  0  0  0  0  0  0  0  0  0  0
    4.7593    1.2965   -3.0368 C   0  0  0  0  0  0  0  0  0  0  0  0
    4.4073    3.3682   -3.5028 H   0  0  0  0  0  0  0  0  0  0  0  0
    6.2897    3.4765   -5.1255 H   0  0  0  0  0  0  0  0  0  0  0  0
    7.2152   -0.6437   -4.3258 H   0  0  0  0  0  0  0  0  0  0  0  0
    5.3382   -0.7507   -2.7001 H   0  0  0  0  0  0  0  0  0  0  0  0
    3.4188    1.2220   -1.8683 S   0  0  0  0  0  0  0  0  0  0  0  0
    3.6781    0.1810   -0.8765 O   0  0  0  0  0  0  0  0  0  0  0  0
    2.2519    0.6564   -2.9271 O   0  0  0  0  0  0  0  0  0  0  0  0
    3.0466    2.5719   -1.4511 O   0  0  0  0  0  0  0  0  0  0  0  0
    8.0003    1.4778   -5.8584 C   0  0  0  0  0  0  0  0  0  0  0  0
    8.4604    2.4695   -5.8942 H   0  0  0  0  0  0  0  0  0  0  0  0
    8.7809    0.7471   -5.6291 H   0  0  0  0  0  0  0  0  0  0  0  0
    7.6304    1.2546   -6.8671 H   0  0  0  0  0  0  0  0  0  0  0  0
   -2.6042   -0.1953   -1.0886 H   0  0  0  0  0  0  0  0  0  0  0  0
  1  7  1  0  0  0  0
  2  8  1  0  0  0  0
  2  1  2  0  0  0  0
  3  2  1  0  0  0  0
  4  3  2  0  0  0  0
  4  5  1  0  0  0  0
  5  6  2  0  0  0  0
  6  1  1  0  0  0  0
  6 31  1  0  0  0  0
  9  4  1  0  0  0  0
 10  5  1  0  0  0  0
 11 12  3  0  0  0  0
 13 19  1  0  0  0  0
 13 18  2  0  0  0  0
 14 13  1  0  0  0  0
 15 14  2  0  0  0  0
 15 16  1  0  0  0  0
 16 17  2  0  0  0  0
 17 18  1  0  0  0  0
 17 22  1  0  0  0  0
 18 23  1  0  0  0  0
 20 14  1  0  0  0  0
 21 16  1  0  0  0  0
 23 26  2  0  0  0  0
 23 24  2  0  0  0  0
 25  3  1  0  0  0  0
 25 23  1  0  0  0  0
 27 29  1  0  0  0  0
 27 15  1  0  0  0  0
 28 27  1  0  0  0  0
 30 27  1  0  0  0  0
M  END
