Coordinates from ORCA-job Ph-N2-OTs-B3LYPG-6-31G_dp-MTMO-d009-169-n800
 OpenBabel09051907503D

 31 31  0  0  0  0  0  0  0  0999 V2000
   -0.7618   -1.0654   -1.3971 C   0  0  0  0  0  0  0  0  0  0  0  0
    0.5403   -0.8506   -1.8505 C   0  0  0  0  0  0  0  0  0  0  0  0
    0.8787    0.4048   -2.3520 C   0  0  0  0  0  0  0  0  0  0  0  0
   -0.0452    1.4469   -2.4035 C   0  0  0  0  0  0  0  0  0  0  0  0
   -1.3438    1.2181   -1.9472 C   0  0  0  0  0  0  0  0  0  0  0  0
   -1.7035   -0.0348   -1.4450 C   0  0  0  0  0  0  0  0  0  0  0  0
   -1.0387   -2.0391   -1.0043 H   0  0  0  0  0  0  0  0  0  0  0  0
    1.2900   -1.6332   -1.8198 H   0  0  0  0  0  0  0  0  0  0  0  0
    0.2595    2.4111   -2.7940 H   0  0  0  0  0  0  0  0  0  0  0  0
   -2.0738    2.0215   -1.9836 H   0  0  0  0  0  0  0  0  0  0  0  0
   13.2146    5.4046   -7.7855 N   0  0  0  0  0  0  0  0  0  0  0  0
   12.2409    4.9375   -7.5501 N   0  0  0  0  0  0  0  0  0  0  0  0
    4.9371    2.4434   -3.6141 C   0  0  0  0  0  0  0  0  0  0  0  0
    5.9979    2.5042   -4.5149 C   0  0  0  0  0  0  0  0  0  0  0  0
    6.7955    1.3802   -4.7742 C   0  0  0  0  0  0  0  0  0  0  0  0
    6.5120    0.1848   -4.0957 C   0  0  0  0  0  0  0  0  0  0  0  0
    5.4575    0.1031   -3.1904 C   0  0  0  0  0  0  0  0  0  0  0  0
    4.6753    1.2370   -2.9644 C   0  0  0  0  0  0  0  0  0  0  0  0
    4.3282    3.3153   -3.4027 H   0  0  0  0  0  0  0  0  0  0  0  0
    6.2141    3.4411   -5.0205 H   0  0  0  0  0  0  0  0  0  0  0  0
    7.1294   -0.6914   -4.2745 H   0  0  0  0  0  0  0  0  0  0  0  0
    5.2485   -0.8162   -2.6545 H   0  0  0  0  0  0  0  0  0  0  0  0
    3.3299    1.1494   -1.8027 S   0  0  0  0  0  0  0  0  0  0  0  0
    3.5801    0.0906   -0.8275 O   0  0  0  0  0  0  0  0  0  0  0  0
    2.1664    0.6075   -2.8771 O   0  0  0  0  0  0  0  0  0  0  0  0
    2.9617    2.4936   -1.3645 O   0  0  0  0  0  0  0  0  0  0  0  0
    7.9225    1.4479   -5.7757 C   0  0  0  0  0  0  0  0  0  0  0  0
    8.3038    2.4669   -5.8826 H   0  0  0  0  0  0  0  0  0  0  0  0
    8.7544    0.7992   -5.4869 H   0  0  0  0  0  0  0  0  0  0  0  0
    7.5832    1.1198   -6.7661 H   0  0  0  0  0  0  0  0  0  0  0  0
   -2.7150   -0.2072   -1.0900 H   0  0  0  0  0  0  0  0  0  0  0  0
  1  7  1  0  0  0  0
  2  8  1  0  0  0  0
  2  1  2  0  0  0  0
  3  2  1  0  0  0  0
  4  3  2  0  0  0  0
  4  5  1  0  0  0  0
  5  6  2  0  0  0  0
  6  1  1  0  0  0  0
  6 31  1  0  0  0  0
  9  4  1  0  0  0  0
 10  5  1  0  0  0  0
 11 12  3  0  0  0  0
 13 19  1  0  0  0  0
 13 18  2  0  0  0  0
 14 13  1  0  0  0  0
 15 14  2  0  0  0  0
 15 16  1  0  0  0  0
 16 17  2  0  0  0  0
 17 18  1  0  0  0  0
 17 22  1  0  0  0  0
 18 23  1  0  0  0  0
 20 14  1  0  0  0  0
 21 16  1  0  0  0  0
 23 26  2  0  0  0  0
 23 24  2  0  0  0  0
 25  3  1  0  0  0  0
 25 23  1  0  0  0  0
 27 29  1  0  0  0  0
 27 15  1  0  0  0  0
 28 27  1  0  0  0  0
 30 27  1  0  0  0  0
M  END
