Coordinates from ORCA-job Ph-N2-OTs-B3LYPG-6-31G_dp-MTMO-d009-169-n800
 OpenBabel09051907503D

 31 31  0  0  0  0  0  0  0  0999 V2000
   -0.8354   -1.0872   -1.3588 C   0  0  0  0  0  0  0  0  0  0  0  0
    0.4673   -0.8771   -1.8128 C   0  0  0  0  0  0  0  0  0  0  0  0
    0.8091    0.3762   -2.3173 C   0  0  0  0  0  0  0  0  0  0  0  0
   -0.1120    1.4207   -2.3712 C   0  0  0  0  0  0  0  0  0  0  0  0
   -1.4112    1.1966   -1.9143 C   0  0  0  0  0  0  0  0  0  0  0  0
   -1.7743   -0.0542   -1.4091 C   0  0  0  0  0  0  0  0  0  0  0  0
   -1.1149   -2.0592   -0.9637 H   0  0  0  0  0  0  0  0  0  0  0  0
    1.2148   -1.6617   -1.7802 H   0  0  0  0  0  0  0  0  0  0  0  0
    0.1954    2.3831   -2.7640 H   0  0  0  0  0  0  0  0  0  0  0  0
   -2.1389    2.0018   -1.9526 H   0  0  0  0  0  0  0  0  0  0  0  0
   14.2112    5.9352   -8.2584 N   0  0  0  0  0  0  0  0  0  0  0  0
   13.2449    5.4492   -8.0308 N   0  0  0  0  0  0  0  0  0  0  0  0
    4.8711    2.4017   -3.5851 C   0  0  0  0  0  0  0  0  0  0  0  0
    5.9316    2.4583   -4.4867 C   0  0  0  0  0  0  0  0  0  0  0  0
    6.7268    1.3322   -4.7437 C   0  0  0  0  0  0  0  0  0  0  0  0
    6.4415    0.1390   -4.0621 C   0  0  0  0  0  0  0  0  0  0  0  0
    5.3875    0.0615   -3.1561 C   0  0  0  0  0  0  0  0  0  0  0  0
    4.6075    1.1974   -2.9324 C   0  0  0  0  0  0  0  0  0  0  0  0
    4.2640    3.2752   -3.3754 H   0  0  0  0  0  0  0  0  0  0  0  0
    6.1491    3.3936   -4.9947 H   0  0  0  0  0  0  0  0  0  0  0  0
    7.0572   -0.7388   -4.2393 H   0  0  0  0  0  0  0  0  0  0  0  0
    5.1770   -0.8562   -2.6179 H   0  0  0  0  0  0  0  0  0  0  0  0
    3.2624    1.1150   -1.7699 S   0  0  0  0  0  0  0  0  0  0  0  0
    3.5105    0.0574   -0.7930 O   0  0  0  0  0  0  0  0  0  0  0  0
    2.0973    0.5741   -2.8430 O   0  0  0  0  0  0  0  0  0  0  0  0
    2.8976    2.4610   -1.3340 O   0  0  0  0  0  0  0  0  0  0  0  0
    7.8536    1.3952   -5.7457 C   0  0  0  0  0  0  0  0  0  0  0  0
    8.2281    2.4153   -5.8649 H   0  0  0  0  0  0  0  0  0  0  0  0
    8.6898    0.7556   -5.4487 H   0  0  0  0  0  0  0  0  0  0  0  0
    7.5171    1.0526   -6.7321 H   0  0  0  0  0  0  0  0  0  0  0  0
   -2.7863   -0.2229   -1.0537 H   0  0  0  0  0  0  0  0  0  0  0  0
  1  7  1  0  0  0  0
  2  8  1  0  0  0  0
  2  1  2  0  0  0  0
  3  2  1  0  0  0  0
  4  3  2  0  0  0  0
  4  5  1  0  0  0  0
  5  6  2  0  0  0  0
  6  1  1  0  0  0  0
  6 31  1  0  0  0  0
  9  4  1  0  0  0  0
 10  5  1  0  0  0  0
 11 12  3  0  0  0  0
 13 19  1  0  0  0  0
 13 18  2  0  0  0  0
 14 13  1  0  0  0  0
 15 14  2  0  0  0  0
 15 16  1  0  0  0  0
 16 17  2  0  0  0  0
 17 18  1  0  0  0  0
 17 22  1  0  0  0  0
 18 23  1  0  0  0  0
 20 14  1  0  0  0  0
 21 16  1  0  0  0  0
 23 26  2  0  0  0  0
 23 24  2  0  0  0  0
 25  3  1  0  0  0  0
 25 23  1  0  0  0  0
 27 29  1  0  0  0  0
 27 15  1  0  0  0  0
 28 27  1  0  0  0  0
 30 27  1  0  0  0  0
M  END
