Coordinates from ORCA-job Ph-N2-OTs-B3LYPG-6-31G_dp-MTMO-d009-169-n800
 OpenBabel09051907503D

 31 31  0  0  0  0  0  0  0  0999 V2000
   -0.5375   -0.1309   -1.3009 C   0  0  0  0  0  0  0  0  0  0  0  0
    0.7989   -0.2268   -1.6912 C   0  0  0  0  0  0  0  0  0  0  0  0
    1.2961    0.6949   -2.6117 C   0  0  0  0  0  0  0  0  0  0  0  0
    0.4942    1.7011   -3.1460 C   0  0  0  0  0  0  0  0  0  0  0  0
   -0.8424    1.7793   -2.7536 C   0  0  0  0  0  0  0  0  0  0  0  0
   -1.3589    0.8671   -1.8304 C   0  0  0  0  0  0  0  0  0  0  0  0
   -0.9366   -0.8404   -0.5818 H   0  0  0  0  0  0  0  0  0  0  0  0
    1.4543   -0.9925   -1.2924 H   0  0  0  0  0  0  0  0  0  0  0  0
    0.9216    2.4012   -3.8556 H   0  0  0  0  0  0  0  0  0  0  0  0
   -1.4777    2.5575   -3.1661 H   0  0  0  0  0  0  0  0  0  0  0  0
    5.8247    6.7437   -4.3275 N   0  0  0  0  0  0  0  0  0  0  0  0
    5.8540    5.6597   -4.5401 N   0  0  0  0  0  0  0  0  0  0  0  0
    5.6220    2.0346   -3.9088 C   0  0  0  0  0  0  0  0  0  0  0  0
    6.6992    1.8695   -4.7756 C   0  0  0  0  0  0  0  0  0  0  0  0
    7.3418    0.6293   -4.9074 C   0  0  0  0  0  0  0  0  0  0  0  0
    6.8775   -0.4516   -4.1430 C   0  0  0  0  0  0  0  0  0  0  0  0
    5.8045   -0.3070   -3.2667 C   0  0  0  0  0  0  0  0  0  0  0  0
    5.1839    0.9388   -3.1640 C   0  0  0  0  0  0  0  0  0  0  0  0
    5.1338    2.9964   -3.8023 H   0  0  0  0  0  0  0  0  0  0  0  0
    7.0470    2.7196   -5.3559 H   0  0  0  0  0  0  0  0  0  0  0  0
    7.3652   -1.4183   -4.2325 H   0  0  0  0  0  0  0  0  0  0  0  0
    5.4562   -1.1398   -2.6662 H   0  0  0  0  0  0  0  0  0  0  0  0
    3.8165    1.1434   -2.0442 S   0  0  0  0  0  0  0  0  0  0  0  0
    3.9406    0.2017   -0.9330 O   0  0  0  0  0  0  0  0  0  0  0  0
    2.6192    0.5843   -3.0716 O   0  0  0  0  0  0  0  0  0  0  0  0
    3.5827    2.5633   -1.7926 O   0  0  0  0  0  0  0  0  0  0  0  0
    8.5269    0.4721   -5.8293 C   0  0  0  0  0  0  0  0  0  0  0  0
    8.4144    1.0789   -6.7323 H   0  0  0  0  0  0  0  0  0  0  0  0
    9.4510    0.7955   -5.3344 H   0  0  0  0  0  0  0  0  0  0  0  0
    8.6646   -0.5691   -6.1317 H   0  0  0  0  0  0  0  0  0  0  0  0
   -2.3980    0.9349   -1.5228 H   0  0  0  0  0  0  0  0  0  0  0  0
  1  7  1  0  0  0  0
  2  1  1  0  0  0  0
  2  8  1  0  0  0  0
  3  2  2  0  0  0  0
  4  5  2  0  0  0  0
  4  3  1  0  0  0  0
  5  6  1  0  0  0  0
  6 31  1  0  0  0  0
  6  1  2  0  0  0  0
  9  4  1  0  0  0  0
 10  5  1  0  0  0  0
 12 11  3  0  0  0  0
 13 19  1  0  0  0  0
 13 18  2  0  0  0  0
 14 13  1  0  0  0  0
 15 14  2  0  0  0  0
 15 16  1  0  0  0  0
 16 17  2  0  0  0  0
 17 18  1  0  0  0  0
 17 22  1  0  0  0  0
 18 23  1  0  0  0  0
 20 14  1  0  0  0  0
 21 16  1  0  0  0  0
 23 26  2  0  0  0  0
 23 24  2  0  0  0  0
 25  3  1  0  0  0  0
 25 23  1  0  0  0  0
 27 29  1  0  0  0  0
 27 15  1  0  0  0  0
 28 27  1  0  0  0  0
 30 27  1  0  0  0  0
M  END
