Coordinates from ORCA-job Ph-N2-OTs-B3LYPG-6-31G_dp-MTMO-d009-169-n800
 OpenBabel09051907503D

 31 31  0  0  0  0  0  0  0  0999 V2000
   -0.3963    0.0605   -1.1895 C   0  0  0  0  0  0  0  0  0  0  0  0
    0.9364   -0.0253   -1.5948 C   0  0  0  0  0  0  0  0  0  0  0  0
    1.3628    0.7603   -2.6648 C   0  0  0  0  0  0  0  0  0  0  0  0
    0.4951    1.6215   -3.3327 C   0  0  0  0  0  0  0  0  0  0  0  0
   -0.8366    1.6902   -2.9222 C   0  0  0  0  0  0  0  0  0  0  0  0
   -1.2829    0.9133   -1.8506 C   0  0  0  0  0  0  0  0  0  0  0  0
   -0.7410   -0.5424   -0.3545 H   0  0  0  0  0  0  0  0  0  0  0  0
    1.6421   -0.6786   -1.0953 H   0  0  0  0  0  0  0  0  0  0  0  0
    0.8685    2.2175   -4.1584 H   0  0  0  0  0  0  0  0  0  0  0  0
   -1.5232    2.3550   -3.4378 H   0  0  0  0  0  0  0  0  0  0  0  0
    5.0667    6.3986   -2.5360 N   0  0  0  0  0  0  0  0  0  0  0  0
    5.1006    5.6622   -3.3592 N   0  0  0  0  0  0  0  0  0  0  0  0
    5.6536    2.0175   -4.2545 C   0  0  0  0  0  0  0  0  0  0  0  0
    6.7270    1.7187   -5.0889 C   0  0  0  0  0  0  0  0  0  0  0  0
    7.3802    0.4781   -5.0187 C   0  0  0  0  0  0  0  0  0  0  0  0
    6.9324   -0.4632   -4.0810 C   0  0  0  0  0  0  0  0  0  0  0  0
    5.8627   -0.1835   -3.2330 C   0  0  0  0  0  0  0  0  0  0  0  0
    5.2302    1.0556   -3.3351 C   0  0  0  0  0  0  0  0  0  0  0  0
    5.1589    2.9810   -4.2999 H   0  0  0  0  0  0  0  0  0  0  0  0
    7.0661    2.4629   -5.8048 H   0  0  0  0  0  0  0  0  0  0  0  0
    7.4302   -1.4262   -4.0110 H   0  0  0  0  0  0  0  0  0  0  0  0
    5.5282   -0.9076   -2.4983 H   0  0  0  0  0  0  0  0  0  0  0  0
    3.8677    1.4275   -2.2524 S   0  0  0  0  0  0  0  0  0  0  0  0
    4.0318    0.7168   -0.9856 O   0  0  0  0  0  0  0  0  0  0  0  0
    2.6816    0.6478   -3.1376 O   0  0  0  0  0  0  0  0  0  0  0  0
    3.5917    2.8621   -2.2678 O   0  0  0  0  0  0  0  0  0  0  0  0
    8.5494    0.1782   -5.9250 C   0  0  0  0  0  0  0  0  0  0  0  0
    8.3003    0.3782   -6.9728 H   0  0  0  0  0  0  0  0  0  0  0  0
    9.4120    0.8063   -5.6741 H   0  0  0  0  0  0  0  0  0  0  0  0
    8.8626   -0.8658   -5.8446 H   0  0  0  0  0  0  0  0  0  0  0  0
   -2.3189    0.9735   -1.5308 H   0  0  0  0  0  0  0  0  0  0  0  0
  1  7  1  0  0  0  0
  2  1  1  0  0  0  0
  2  8  1  0  0  0  0
  3  2  2  0  0  0  0
  4  5  2  0  0  0  0
  4  3  1  0  0  0  0
  5  6  1  0  0  0  0
  6 31  1  0  0  0  0
  6  1  2  0  0  0  0
  9  4  1  0  0  0  0
 10  5  1  0  0  0  0
 12 11  3  0  0  0  0
 13 18  2  0  0  0  0
 14 15  2  0  0  0  0
 14 13  1  0  0  0  0
 15 16  1  0  0  0  0
 16 21  1  0  0  0  0
 16 17  2  0  0  0  0
 17 22  1  0  0  0  0
 18 17  1  0  0  0  0
 18 23  1  0  0  0  0
 19 13  1  0  0  0  0
 20 14  1  0  0  0  0
 23 24  2  0  0  0  0
 25  3  1  0  0  0  0
 25 23  1  0  0  0  0
 26 23  2  0  0  0  0
 27 30  1  0  0  0  0
 27 29  1  0  0  0  0
 27 15  1  0  0  0  0
 28 27  1  0  0  0  0
M  END
