Coordinates from ORCA-job Ph-N2-OTs-B3LYPG-6-31G_dp-MTMO-d009-169-n800
 OpenBabel09051907493D

 31 30  0  0  0  0  0  0  0  0999 V2000
   -0.0346    0.0615   -1.3814 C   0  0  0  0  0  0  0  0  0  0  0  0
    0.6843    0.9954   -2.1535 C   0  0  0  0  0  0  0  0  0  0  0  0
    0.0677    2.0342   -2.5079 C   0  0  0  0  0  0  0  0  0  0  0  0
   -1.1831    2.5603   -2.3526 C   0  0  0  0  0  0  0  0  0  0  0  0
   -1.9236    1.6338   -1.5781 C   0  0  0  0  0  0  0  0  0  0  0  0
   -1.3659    0.4296   -1.1122 C   0  0  0  0  0  0  0  0  0  0  0  0
    0.3827   -0.8706   -1.0140 H   0  0  0  0  0  0  0  0  0  0  0  0
    2.5564    0.7375   -2.6673 H   0  0  0  0  0  0  0  0  0  0  0  0
   -1.5756    3.4964   -2.7257 H   0  0  0  0  0  0  0  0  0  0  0  0
   -2.9563    1.8754   -1.3407 H   0  0  0  0  0  0  0  0  0  0  0  0
    1.1196    4.5106   -4.0532 N   0  0  0  0  0  0  0  0  0  0  0  0
    1.9111    5.1501   -4.4836 N   0  0  0  0  0  0  0  0  0  0  0  0
    6.8070    1.3349   -3.0435 C   0  0  0  0  0  0  0  0  0  0  0  0
    8.0522    0.8098   -3.3843 C   0  0  0  0  0  0  0  0  0  0  0  0
    8.2618    0.1847   -4.6215 C   0  0  0  0  0  0  0  0  0  0  0  0
    7.1866    0.0957   -5.5191 C   0  0  0  0  0  0  0  0  0  0  0  0
    5.9353    0.6145   -5.1972 C   0  0  0  0  0  0  0  0  0  0  0  0
    5.7577    1.2269   -3.9556 C   0  0  0  0  0  0  0  0  0  0  0  0
    6.6457    1.8287   -2.0918 H   0  0  0  0  0  0  0  0  0  0  0  0
    8.8754    0.8898   -2.6791 H   0  0  0  0  0  0  0  0  0  0  0  0
    7.3330   -0.3835   -6.4835 H   0  0  0  0  0  0  0  0  0  0  0  0
    5.1067    0.5573   -5.8948 H   0  0  0  0  0  0  0  0  0  0  0  0
    4.1620    1.8958   -3.5312 S   0  0  0  0  0  0  0  0  0  0  0  0
    3.5086    0.5505   -2.8862 O   0  0  0  0  0  0  0  0  0  0  0  0
    3.4289    2.2334   -4.7537 O   0  0  0  0  0  0  0  0  0  0  0  0
    4.3214    2.9043   -2.4830 O   0  0  0  0  0  0  0  0  0  0  0  0
    9.6215   -0.3545   -4.9959 C   0  0  0  0  0  0  0  0  0  0  0  0
   10.1732    0.3681   -5.6106 H   0  0  0  0  0  0  0  0  0  0  0  0
   10.2281   -0.5620   -4.1102 H   0  0  0  0  0  0  0  0  0  0  0  0
    9.5392   -1.2780   -5.5772 H   0  0  0  0  0  0  0  0  0  0  0  0
   -1.9871   -0.2397   -0.5227 H   0  0  0  0  0  0  0  0  0  0  0  0
  1  6  1  0  0  0  0
  1  7  1  0  0  0  0
  2  1  2  0  0  0  0
  3  4  2  0  0  0  0
  3  2  1  0  0  0  0
  4  5  1  0  0  0  0
  5 10  1  0  0  0  0
  5  6  2  0  0  0  0
  6 31  1  0  0  0  0
  9  4  1  0  0  0  0
 12 11  3  0  0  0  0
 13 19  1  0  0  0  0
 14 13  1  0  0  0  0
 14 20  1  0  0  0  0
 15 14  2  0  0  0  0
 16 17  2  0  0  0  0
 16 15  1  0  0  0  0
 17 18  1  0  0  0  0
 18 23  1  0  0  0  0
 18 13  2  0  0  0  0
 21 16  1  0  0  0  0
 22 17  1  0  0  0  0
 23 24  1  0  0  0  0
 23 26  2  0  0  0  0
 24  8  1  0  0  0  0
 25 23  2  0  0  0  0
 27 15  1  0  0  0  0
 27 29  1  0  0  0  0
 28 27  1  0  0  0  0
 30 27  1  0  0  0  0
M  RAD  2   2   2   3   2
M  END
