Coordinates from ORCA-job Ph-N2-OTs-B3LYPG-6-31G_dp-MTMO-d009-169-n800
 OpenBabel09051907503D

 31 31  0  0  0  0  0  0  0  0999 V2000
   -0.7967   -1.0740   -1.3797 C   0  0  0  0  0  0  0  0  0  0  0  0
    0.5058   -0.8622   -1.8332 C   0  0  0  0  0  0  0  0  0  0  0  0
    0.8466    0.3921   -2.3361 C   0  0  0  0  0  0  0  0  0  0  0  0
   -0.0755    1.4358   -2.3888 C   0  0  0  0  0  0  0  0  0  0  0  0
   -1.3745    1.2099   -1.9325 C   0  0  0  0  0  0  0  0  0  0  0  0
   -1.7365   -0.0418   -1.4289 C   0  0  0  0  0  0  0  0  0  0  0  0
   -1.0753   -2.0468   -0.9858 H   0  0  0  0  0  0  0  0  0  0  0  0
    1.2541   -1.6461   -1.8015 H   0  0  0  0  0  0  0  0  0  0  0  0
    0.2311    2.3990   -2.7804 H   0  0  0  0  0  0  0  0  0  0  0  0
   -2.1030    2.0145   -1.9698 H   0  0  0  0  0  0  0  0  0  0  0  0
   13.6713    5.6580   -8.0041 N   0  0  0  0  0  0  0  0  0  0  0  0
   12.7011    5.1813   -7.7737 N   0  0  0  0  0  0  0  0  0  0  0  0
    4.9075    2.4227   -3.6006 C   0  0  0  0  0  0  0  0  0  0  0  0
    5.9682    2.4812   -4.5017 C   0  0  0  0  0  0  0  0  0  0  0  0
    6.7643    1.3559   -4.7598 C   0  0  0  0  0  0  0  0  0  0  0  0
    6.4796    0.1617   -4.0797 C   0  0  0  0  0  0  0  0  0  0  0  0
    5.4253    0.0823   -3.1741 C   0  0  0  0  0  0  0  0  0  0  0  0
    4.6444    1.2174   -2.9494 C   0  0  0  0  0  0  0  0  0  0  0  0
    4.2997    3.2956   -3.3901 H   0  0  0  0  0  0  0  0  0  0  0  0
    6.1854    3.4172   -5.0085 H   0  0  0  0  0  0  0  0  0  0  0  0
    7.0960   -0.7155   -4.2577 H   0  0  0  0  0  0  0  0  0  0  0  0
    5.2153   -0.8361   -2.6371 H   0  0  0  0  0  0  0  0  0  0  0  0
    3.2991    1.1328   -1.7874 S   0  0  0  0  0  0  0  0  0  0  0  0
    3.5478    0.0745   -0.8114 O   0  0  0  0  0  0  0  0  0  0  0  0
    2.1347    0.5919   -2.8613 O   0  0  0  0  0  0  0  0  0  0  0  0
    2.9329    2.4780   -1.3503 O   0  0  0  0  0  0  0  0  0  0  0  0
    7.8913    1.4209   -5.7614 C   0  0  0  0  0  0  0  0  0  0  0  0
    8.2686    2.4406   -5.8754 H   0  0  0  0  0  0  0  0  0  0  0  0
    8.7258    0.7775   -5.4678 H   0  0  0  0  0  0  0  0  0  0  0  0
    7.5538    1.0843   -6.7496 H   0  0  0  0  0  0  0  0  0  0  0  0
   -2.7484   -0.2120   -1.0738 H   0  0  0  0  0  0  0  0  0  0  0  0
  1  7  1  0  0  0  0
  2  8  1  0  0  0  0
  2  1  2  0  0  0  0
  3  2  1  0  0  0  0
  4  3  2  0  0  0  0
  4  5  1  0  0  0  0
  5  6  2  0  0  0  0
  6  1  1  0  0  0  0
  6 31  1  0  0  0  0
  9  4  1  0  0  0  0
 10  5  1  0  0  0  0
 11 12  3  0  0  0  0
 13 19  1  0  0  0  0
 13 18  2  0  0  0  0
 14 13  1  0  0  0  0
 15 14  2  0  0  0  0
 15 16  1  0  0  0  0
 16 17  2  0  0  0  0
 17 18  1  0  0  0  0
 17 22  1  0  0  0  0
 18 23  1  0  0  0  0
 20 14  1  0  0  0  0
 21 16  1  0  0  0  0
 23 26  2  0  0  0  0
 23 24  2  0  0  0  0
 25  3  1  0  0  0  0
 25 23  1  0  0  0  0
 27 29  1  0  0  0  0
 27 15  1  0  0  0  0
 28 27  1  0  0  0  0
 30 27  1  0  0  0  0
M  END
