Coordinates from ORCA-job Ph-N2-OTs-B3LYPG-6-31G_dp-MTMO-d009-169-n800
 OpenBabel09051907493D

 31 31  0  0  0  0  0  0  0  0999 V2000
   -0.2484    0.2458   -1.7870 C   0  0  0  0  0  0  0  0  0  0  0  0
    0.8719    1.0175   -2.1301 C   0  0  0  0  0  0  0  0  0  0  0  0
    0.5551    2.2239   -2.6959 C   0  0  0  0  0  0  0  0  0  0  0  0
   -0.6812    2.7692   -2.9716 C   0  0  0  0  0  0  0  0  0  0  0  0
   -1.7640    1.9551   -2.6225 C   0  0  0  0  0  0  0  0  0  0  0  0
   -1.5444    0.7053   -2.0352 C   0  0  0  0  0  0  0  0  0  0  0  0
   -0.0882   -0.7228   -1.3253 H   0  0  0  0  0  0  0  0  0  0  0  0
    1.8978    0.6944   -1.9484 H   0  0  0  0  0  0  0  0  0  0  0  0
   -0.8049    3.7452   -3.4224 H   0  0  0  0  0  0  0  0  0  0  0  0
   -2.7724    2.3076   -2.8137 H   0  0  0  0  0  0  0  0  0  0  0  0
    1.8565    3.2715   -3.1093 N   0  0  0  0  0  0  0  0  0  0  0  0
    2.1254    4.3446   -3.2690 N   0  0  0  0  0  0  0  0  0  0  0  0
    6.7105    2.0474   -3.8341 C   0  0  0  0  0  0  0  0  0  0  0  0
    7.8400    1.6208   -4.5301 C   0  0  0  0  0  0  0  0  0  0  0  0
    8.0769    0.2583   -4.7632 C   0  0  0  0  0  0  0  0  0  0  0  0
    7.1536   -0.6728   -4.2669 C   0  0  0  0  0  0  0  0  0  0  0  0
    6.0190   -0.2618   -3.5691 C   0  0  0  0  0  0  0  0  0  0  0  0
    5.8019    1.1004   -3.3594 C   0  0  0  0  0  0  0  0  0  0  0  0
    6.5385    3.0999   -3.6359 H   0  0  0  0  0  0  0  0  0  0  0  0
    8.5539    2.3566   -4.8920 H   0  0  0  0  0  0  0  0  0  0  0  0
    7.3291   -1.7344   -4.4238 H   0  0  0  0  0  0  0  0  0  0  0  0
    5.3148   -0.9827   -3.1686 H   0  0  0  0  0  0  0  0  0  0  0  0
    4.3319    1.6478   -2.4888 S   0  0  0  0  0  0  0  0  0  0  0  0
    3.9214    0.5366   -1.5927 O   0  0  0  0  0  0  0  0  0  0  0  0
    3.3040    1.8176   -3.6247 O   0  0  0  0  0  0  0  0  0  0  0  0
    4.6359    2.9397   -1.8447 O   0  0  0  0  0  0  0  0  0  0  0  0
    9.2874   -0.1926   -5.5456 C   0  0  0  0  0  0  0  0  0  0  0  0
    9.0717   -0.2269   -6.6214 H   0  0  0  0  0  0  0  0  0  0  0  0
   10.1320    0.4894   -5.4060 H   0  0  0  0  0  0  0  0  0  0  0  0
    9.6075   -1.1950   -5.2466 H   0  0  0  0  0  0  0  0  0  0  0  0
   -2.3936    0.0848   -1.7676 H   0  0  0  0  0  0  0  0  0  0  0  0
  1  7  1  0  0  0  0
  2  8  1  0  0  0  0
  2  1  2  0  0  0  0
  3  2  1  0  0  0  0
  4  3  2  0  0  0  0
  4  5  1  0  0  0  0
  5  6  2  0  0  0  0
  6  1  1  0  0  0  0
  6 31  1  0  0  0  0
  9  4  1  0  0  0  0
 10  5  1  0  0  0  0
 11  3  1  0  0  0  0
 12 11  2  0  0  0  0
 13 19  1  0  0  0  0
 13 18  2  0  0  0  0
 14 13  1  0  0  0  0
 15 14  2  0  0  0  0
 15 16  1  0  0  0  0
 16 17  2  0  0  0  0
 17 18  1  0  0  0  0
 17 22  1  0  0  0  0
 18 23  1  0  0  0  0
 20 14  1  0  0  0  0
 21 16  1  0  0  0  0
 23 26  2  0  0  0  0
 23 24  1  0  0  0  0
 25 23  2  0  0  0  0
 27 29  1  0  0  0  0
 27 30  1  0  0  0  0
 27 15  1  0  0  0  0
 28 27  1  0  0  0  0
M  RAD  2  12   2  24   2
M  END
