Coordinates from ORCA-job Ph-N2-OTs-B3LYPG-6-31G_dp-MTMO-d009-169-n800
 OpenBabel09051907503D

 31 31  0  0  0  0  0  0  0  0999 V2000
   -0.7533   -1.0639   -1.4011 C   0  0  0  0  0  0  0  0  0  0  0  0
    0.5486   -0.8481   -1.8546 C   0  0  0  0  0  0  0  0  0  0  0  0
    0.8861    0.4078   -2.3557 C   0  0  0  0  0  0  0  0  0  0  0  0
   -0.0385    1.4493   -2.4066 C   0  0  0  0  0  0  0  0  0  0  0  0
   -1.3369    1.2195   -1.9502 C   0  0  0  0  0  0  0  0  0  0  0  0
   -1.6957   -0.0339   -1.4484 C   0  0  0  0  0  0  0  0  0  0  0  0
   -1.0294   -2.0379   -1.0086 H   0  0  0  0  0  0  0  0  0  0  0  0
    1.2989   -1.6302   -1.8243 H   0  0  0  0  0  0  0  0  0  0  0  0
    0.2655    2.4138   -2.7969 H   0  0  0  0  0  0  0  0  0  0  0  0
   -2.0674    2.0223   -1.9861 H   0  0  0  0  0  0  0  0  0  0  0  0
   13.1085    5.3441   -7.7341 N   0  0  0  0  0  0  0  0  0  0  0  0
   12.1342    4.8790   -7.4976 N   0  0  0  0  0  0  0  0  0  0  0  0
    4.9442    2.4488   -3.6173 C   0  0  0  0  0  0  0  0  0  0  0  0
    6.0051    2.5101   -4.5179 C   0  0  0  0  0  0  0  0  0  0  0  0
    6.8027    1.3862   -4.7777 C   0  0  0  0  0  0  0  0  0  0  0  0
    6.5191    0.1905   -4.0997 C   0  0  0  0  0  0  0  0  0  0  0  0
    5.4646    0.1084   -3.1946 C   0  0  0  0  0  0  0  0  0  0  0  0
    4.6822    1.2421   -2.9683 C   0  0  0  0  0  0  0  0  0  0  0  0
    4.3352    3.3206   -3.4056 H   0  0  0  0  0  0  0  0  0  0  0  0
    6.2214    3.4472   -5.0231 H   0  0  0  0  0  0  0  0  0  0  0  0
    7.1366   -0.6856   -4.2789 H   0  0  0  0  0  0  0  0  0  0  0  0
    5.2555   -0.8112   -2.6592 H   0  0  0  0  0  0  0  0  0  0  0  0
    3.3368    1.1540   -1.8066 S   0  0  0  0  0  0  0  0  0  0  0  0
    3.5875    0.0953   -0.8314 O   0  0  0  0  0  0  0  0  0  0  0  0
    2.1735    0.6115   -2.8810 O   0  0  0  0  0  0  0  0  0  0  0  0
    2.9680    2.4981   -1.3685 O   0  0  0  0  0  0  0  0  0  0  0  0
    7.9298    1.4544   -5.7790 C   0  0  0  0  0  0  0  0  0  0  0  0
    8.3125    2.4730   -5.8842 H   0  0  0  0  0  0  0  0  0  0  0  0
    8.7610    0.8040   -5.4914 H   0  0  0  0  0  0  0  0  0  0  0  0
    7.5902    1.1284   -6.7700 H   0  0  0  0  0  0  0  0  0  0  0  0
   -2.7070   -0.2071   -1.0933 H   0  0  0  0  0  0  0  0  0  0  0  0
  1  7  1  0  0  0  0
  2  8  1  0  0  0  0
  2  1  2  0  0  0  0
  3  2  1  0  0  0  0
  4  3  2  0  0  0  0
  4  5  1  0  0  0  0
  5  6  2  0  0  0  0
  6  1  1  0  0  0  0
  6 31  1  0  0  0  0
  9  4  1  0  0  0  0
 10  5  1  0  0  0  0
 11 12  3  0  0  0  0
 13 19  1  0  0  0  0
 13 18  2  0  0  0  0
 14 13  1  0  0  0  0
 15 14  2  0  0  0  0
 15 16  1  0  0  0  0
 16 17  2  0  0  0  0
 17 18  1  0  0  0  0
 17 22  1  0  0  0  0
 18 23  1  0  0  0  0
 20 14  1  0  0  0  0
 21 16  1  0  0  0  0
 23 26  2  0  0  0  0
 23 24  2  0  0  0  0
 25  3  1  0  0  0  0
 25 23  1  0  0  0  0
 27 29  1  0  0  0  0
 27 15  1  0  0  0  0
 28 27  1  0  0  0  0
 30 27  1  0  0  0  0
M  END
