Coordinates from ORCA-job Ph-N2-OTs-B3LYPG-6-31G_dp-MTMO-d009-169-n800
 OpenBabel09051907503D

 31 31  0  0  0  0  0  0  0  0999 V2000
   -0.5477    0.1895   -1.5574 C   0  0  0  0  0  0  0  0  0  0  0  0
    0.7670   -0.0079   -1.9818 C   0  0  0  0  0  0  0  0  0  0  0  0
    1.4699    1.0746   -2.5092 C   0  0  0  0  0  0  0  0  0  0  0  0
    0.8955    2.3389   -2.6205 C   0  0  0  0  0  0  0  0  0  0  0  0
   -0.4223    2.5188   -2.1994 C   0  0  0  0  0  0  0  0  0  0  0  0
   -1.1440    1.4479   -1.6667 C   0  0  0  0  0  0  0  0  0  0  0  0
   -1.1066   -0.6445   -1.1436 H   0  0  0  0  0  0  0  0  0  0  0  0
    1.2501   -0.9752   -1.9066 H   0  0  0  0  0  0  0  0  0  0  0  0
    1.4791    3.1525   -3.0360 H   0  0  0  0  0  0  0  0  0  0  0  0
   -0.8835    3.4985   -2.2849 H   0  0  0  0  0  0  0  0  0  0  0  0
    3.6311    3.7335   -6.4544 N   0  0  0  0  0  0  0  0  0  0  0  0
    3.2507    3.8098   -5.4195 N   0  0  0  0  0  0  0  0  0  0  0  0
    5.9351    1.9708   -3.4290 C   0  0  0  0  0  0  0  0  0  0  0  0
    6.9961    1.9447   -4.3292 C   0  0  0  0  0  0  0  0  0  0  0  0
    7.4827    0.7325   -4.8435 C   0  0  0  0  0  0  0  0  0  0  0  0
    6.8842   -0.4630   -4.4223 C   0  0  0  0  0  0  0  0  0  0  0  0
    5.8214   -0.4594   -3.5209 C   0  0  0  0  0  0  0  0  0  0  0  0
    5.3538    0.7626   -3.0385 C   0  0  0  0  0  0  0  0  0  0  0  0
    5.5677    2.9052   -3.0196 H   0  0  0  0  0  0  0  0  0  0  0  0
    7.4591    2.8792   -4.6343 H   0  0  0  0  0  0  0  0  0  0  0  0
    7.2583   -1.4100   -4.8005 H   0  0  0  0  0  0  0  0  0  0  0  0
    5.3682   -1.3847   -3.1835 H   0  0  0  0  0  0  0  0  0  0  0  0
    4.0009    0.7836   -1.8820 S   0  0  0  0  0  0  0  0  0  0  0  0
    3.9019   -0.5127   -1.2139 O   0  0  0  0  0  0  0  0  0  0  0  0
    2.7707    0.8908   -3.0098 O   0  0  0  0  0  0  0  0  0  0  0  0
    4.0228    2.0207   -1.1062 O   0  0  0  0  0  0  0  0  0  0  0  0
    8.6162    0.7235   -5.8398 C   0  0  0  0  0  0  0  0  0  0  0  0
    8.2585    0.9957   -6.8403 H   0  0  0  0  0  0  0  0  0  0  0  0
    9.3924    1.4454   -5.5676 H   0  0  0  0  0  0  0  0  0  0  0  0
    9.0785   -0.2642   -5.9132 H   0  0  0  0  0  0  0  0  0  0  0  0
   -2.1682    1.5938   -1.3377 H   0  0  0  0  0  0  0  0  0  0  0  0
  1  7  1  0  0  0  0
  2  8  1  0  0  0  0
  2  1  2  0  0  0  0
  3  2  1  0  0  0  0
  4  3  2  0  0  0  0
  4  5  1  0  0  0  0
  5  6  2  0  0  0  0
  6  1  1  0  0  0  0
  6 31  1  0  0  0  0
  9  4  1  0  0  0  0
 10  5  1  0  0  0  0
 11 12  3  0  0  0  0
 13 18  1  0  0  0  0
 13 19  1  0  0  0  0
 14 13  2  0  0  0  0
 15 16  2  0  0  0  0
 15 14  1  0  0  0  0
 16 17  1  0  0  0  0
 17 22  1  0  0  0  0
 17 18  2  0  0  0  0
 18 23  1  0  0  0  0
 20 14  1  0  0  0  0
 21 16  1  0  0  0  0
 23 24  2  0  0  0  0
 23 26  2  0  0  0  0
 25  3  1  0  0  0  0
 25 23  1  0  0  0  0
 27 29  1  0  0  0  0
 27 15  1  0  0  0  0
 28 27  1  0  0  0  0
 30 27  1  0  0  0  0
M  END
