Coordinates from ORCA-job Ph-N2-OTs-B3LYPG-6-31G_dp-MTMO-d009-169-n800
 OpenBabel09051907503D

 31 31  0  0  0  0  0  0  0  0999 V2000
   -0.6726   -1.0669   -1.3949 C   0  0  0  0  0  0  0  0  0  0  0  0
    0.6222   -0.8345   -1.8603 C   0  0  0  0  0  0  0  0  0  0  0  0
    0.9364    0.4228   -2.3727 C   0  0  0  0  0  0  0  0  0  0  0  0
   -0.0043    1.4498   -2.4233 C   0  0  0  0  0  0  0  0  0  0  0  0
   -1.2954    1.2034   -1.9550 C   0  0  0  0  0  0  0  0  0  0  0  0
   -1.6310   -0.0518   -1.4419 C   0  0  0  0  0  0  0  0  0  0  0  0
   -0.9308   -2.0423   -0.9936 H   0  0  0  0  0  0  0  0  0  0  0  0
    1.3846   -1.6048   -1.8305 H   0  0  0  0  0  0  0  0  0  0  0  0
    0.2819    2.4160   -2.8227 H   0  0  0  0  0  0  0  0  0  0  0  0
   -2.0384    1.9947   -1.9907 H   0  0  0  0  0  0  0  0  0  0  0  0
   12.4763    4.8345   -7.2859 N   0  0  0  0  0  0  0  0  0  0  0  0
   11.4852    4.4427   -6.9927 N   0  0  0  0  0  0  0  0  0  0  0  0
    4.9693    2.4987   -3.6795 C   0  0  0  0  0  0  0  0  0  0  0  0
    6.0272    2.5600   -4.5831 C   0  0  0  0  0  0  0  0  0  0  0  0
    6.8351    1.4405   -4.8328 C   0  0  0  0  0  0  0  0  0  0  0  0
    6.5643    0.2504   -4.1411 C   0  0  0  0  0  0  0  0  0  0  0  0
    5.5124    0.1681   -3.2321 C   0  0  0  0  0  0  0  0  0  0  0  0
    4.7201    1.2964   -3.0162 C   0  0  0  0  0  0  0  0  0  0  0  0
    4.3528    3.3670   -3.4756 H   0  0  0  0  0  0  0  0  0  0  0  0
    6.2331    3.4938   -5.0990 H   0  0  0  0  0  0  0  0  0  0  0  0
    7.1892   -0.6220   -4.3123 H   0  0  0  0  0  0  0  0  0  0  0  0
    5.3137   -0.7476   -2.6862 H   0  0  0  0  0  0  0  0  0  0  0  0
    3.3803    1.2085   -1.8478 S   0  0  0  0  0  0  0  0  0  0  0  0
    3.6455    0.1637   -0.8616 O   0  0  0  0  0  0  0  0  0  0  0  0
    2.2166    0.6426   -2.9097 O   0  0  0  0  0  0  0  0  0  0  0  0
    3.0009    2.5541   -1.4233 O   0  0  0  0  0  0  0  0  0  0  0  0
    7.9580    1.5104   -5.8387 C   0  0  0  0  0  0  0  0  0  0  0  0
    8.4157    2.5036   -5.8638 H   0  0  0  0  0  0  0  0  0  0  0  0
    8.7403    0.7790   -5.6176 H   0  0  0  0  0  0  0  0  0  0  0  0
    7.5879    1.2978   -6.8495 H   0  0  0  0  0  0  0  0  0  0  0  0
   -2.6368   -0.2379   -1.0777 H   0  0  0  0  0  0  0  0  0  0  0  0
  1  7  1  0  0  0  0
  2  8  1  0  0  0  0
  2  1  2  0  0  0  0
  3  2  1  0  0  0  0
  4  3  2  0  0  0  0
  4  5  1  0  0  0  0
  5  6  2  0  0  0  0
  6  1  1  0  0  0  0
  6 31  1  0  0  0  0
  9  4  1  0  0  0  0
 10  5  1  0  0  0  0
 11 12  3  0  0  0  0
 13 19  1  0  0  0  0
 13 18  2  0  0  0  0
 14 13  1  0  0  0  0
 15 14  2  0  0  0  0
 15 16  1  0  0  0  0
 16 17  2  0  0  0  0
 17 18  1  0  0  0  0
 17 22  1  0  0  0  0
 18 23  1  0  0  0  0
 20 14  1  0  0  0  0
 21 16  1  0  0  0  0
 23 26  2  0  0  0  0
 23 24  2  0  0  0  0
 25  3  1  0  0  0  0
 25 23  1  0  0  0  0
 27 29  1  0  0  0  0
 27 15  1  0  0  0  0
 28 27  1  0  0  0  0
 30 27  1  0  0  0  0
M  END
