Coordinates from ORCA-job Ph-N2-OTs-B3LYPG-6-31G_dp-MTMO-d009-169-n800
 OpenBabel09051907503D

 31 31  0  0  0  0  0  0  0  0999 V2000
   -0.8601   -1.0972   -1.3450 C   0  0  0  0  0  0  0  0  0  0  0  0
    0.4425   -0.8877   -1.7994 C   0  0  0  0  0  0  0  0  0  0  0  0
    0.7845    0.3653   -2.3049 C   0  0  0  0  0  0  0  0  0  0  0  0
   -0.1364    1.4098   -2.3594 C   0  0  0  0  0  0  0  0  0  0  0  0
   -1.4356    1.1863   -1.9022 C   0  0  0  0  0  0  0  0  0  0  0  0
   -1.7988   -0.0640   -1.3960 C   0  0  0  0  0  0  0  0  0  0  0  0
   -1.1397   -2.0688   -0.9491 H   0  0  0  0  0  0  0  0  0  0  0  0
    1.1900   -1.6723   -1.7664 H   0  0  0  0  0  0  0  0  0  0  0  0
    0.1710    2.3719   -2.7530 H   0  0  0  0  0  0  0  0  0  0  0  0
   -2.1632    1.9916   -1.9409 H   0  0  0  0  0  0  0  0  0  0  0  0
   14.5688    6.1094   -8.4257 N   0  0  0  0  0  0  0  0  0  0  0  0
   13.6049    5.6184   -8.1989 N   0  0  0  0  0  0  0  0  0  0  0  0
    4.8465    2.3892   -3.5748 C   0  0  0  0  0  0  0  0  0  0  0  0
    5.9066    2.4451   -4.4768 C   0  0  0  0  0  0  0  0  0  0  0  0
    6.7017    1.3188   -4.7334 C   0  0  0  0  0  0  0  0  0  0  0  0
    6.4165    0.1260   -4.0509 C   0  0  0  0  0  0  0  0  0  0  0  0
    5.3627    0.0491   -3.1445 C   0  0  0  0  0  0  0  0  0  0  0  0
    4.5829    1.1853   -2.9213 C   0  0  0  0  0  0  0  0  0  0  0  0
    4.2395    3.2629   -3.3655 H   0  0  0  0  0  0  0  0  0  0  0  0
    6.1241    3.3800   -4.9855 H   0  0  0  0  0  0  0  0  0  0  0  0
    7.0321   -0.7520   -4.2277 H   0  0  0  0  0  0  0  0  0  0  0  0
    5.1523   -0.8681   -2.6057 H   0  0  0  0  0  0  0  0  0  0  0  0
    3.2381    1.1038   -1.7584 S   0  0  0  0  0  0  0  0  0  0  0  0
    3.4863    0.0466   -0.7810 O   0  0  0  0  0  0  0  0  0  0  0  0
    2.0726    0.5626   -2.8309 O   0  0  0  0  0  0  0  0  0  0  0  0
    2.8736    2.4500   -1.3231 O   0  0  0  0  0  0  0  0  0  0  0  0
    7.8282    1.3810   -5.7356 C   0  0  0  0  0  0  0  0  0  0  0  0
    8.2014    2.4013   -5.8571 H   0  0  0  0  0  0  0  0  0  0  0  0
    8.6653    0.7432   -5.4373 H   0  0  0  0  0  0  0  0  0  0  0  0
    7.4921    1.0356   -6.7212 H   0  0  0  0  0  0  0  0  0  0  0  0
   -2.8108   -0.2324   -1.0402 H   0  0  0  0  0  0  0  0  0  0  0  0
  1  7  1  0  0  0  0
  2  8  1  0  0  0  0
  2  1  2  0  0  0  0
  3  2  1  0  0  0  0
  4  3  2  0  0  0  0
  4  5  1  0  0  0  0
  5  6  2  0  0  0  0
  6  1  1  0  0  0  0
  6 31  1  0  0  0  0
  9  4  1  0  0  0  0
 10  5  1  0  0  0  0
 11 12  3  0  0  0  0
 13 19  1  0  0  0  0
 13 18  2  0  0  0  0
 14 13  1  0  0  0  0
 15 14  2  0  0  0  0
 15 16  1  0  0  0  0
 16 17  2  0  0  0  0
 17 18  1  0  0  0  0
 17 22  1  0  0  0  0
 18 23  1  0  0  0  0
 20 14  1  0  0  0  0
 21 16  1  0  0  0  0
 23 26  2  0  0  0  0
 23 24  2  0  0  0  0
 25  3  1  0  0  0  0
 25 23  1  0  0  0  0
 27 29  1  0  0  0  0
 27 15  1  0  0  0  0
 28 27  1  0  0  0  0
 30 27  1  0  0  0  0
M  END
