Coordinates from ORCA-job Ph-N2-OTs-B3LYPG-6-31G_dp-MTMO-d009-169-n800
 OpenBabel09051907503D

 31 31  0  0  0  0  0  0  0  0999 V2000
   -0.5849   -0.2514   -1.2841 C   0  0  0  0  0  0  0  0  0  0  0  0
    0.7543   -0.3142   -1.6721 C   0  0  0  0  0  0  0  0  0  0  0  0
    1.2338    0.6295   -2.5797 C   0  0  0  0  0  0  0  0  0  0  0  0
    0.4120    1.6251   -3.1034 C   0  0  0  0  0  0  0  0  0  0  0  0
   -0.9270    1.6698   -2.7138 C   0  0  0  0  0  0  0  0  0  0  0  0
   -1.4261    0.7353   -1.8034 C   0  0  0  0  0  0  0  0  0  0  0  0
   -0.9704   -0.9783   -0.5750 H   0  0  0  0  0  0  0  0  0  0  0  0
    1.4247   -1.0707   -1.2812 H   0  0  0  0  0  0  0  0  0  0  0  0
    0.8260    2.3431   -3.8030 H   0  0  0  0  0  0  0  0  0  0  0  0
   -1.5778    2.4392   -3.1184 H   0  0  0  0  0  0  0  0  0  0  0  0
    6.8861    6.8292   -4.9195 N   0  0  0  0  0  0  0  0  0  0  0  0
    6.6829    5.7440   -4.9676 N   0  0  0  0  0  0  0  0  0  0  0  0
    5.5556    2.0832   -3.8160 C   0  0  0  0  0  0  0  0  0  0  0  0
    6.6351    1.9585   -4.6869 C   0  0  0  0  0  0  0  0  0  0  0  0
    7.2789    0.7257   -4.8719 C   0  0  0  0  0  0  0  0  0  0  0  0
    6.8148   -0.3884   -4.1570 C   0  0  0  0  0  0  0  0  0  0  0  0
    5.7401   -0.2840   -3.2772 C   0  0  0  0  0  0  0  0  0  0  0  0
    5.1170    0.9550   -3.1214 C   0  0  0  0  0  0  0  0  0  0  0  0
    5.0631    3.0375   -3.6667 H   0  0  0  0  0  0  0  0  0  0  0  0
    6.9828    2.8344   -5.2267 H   0  0  0  0  0  0  0  0  0  0  0  0
    7.3039   -1.3496   -4.2882 H   0  0  0  0  0  0  0  0  0  0  0  0
    5.3922   -1.1432   -2.7147 H   0  0  0  0  0  0  0  0  0  0  0  0
    3.7464    1.1075   -1.9970 S   0  0  0  0  0  0  0  0  0  0  0  0
    3.8867    0.1396   -0.9105 O   0  0  0  0  0  0  0  0  0  0  0  0
    2.5596    0.5534   -3.0390 O   0  0  0  0  0  0  0  0  0  0  0  0
    3.4884    2.5161   -1.7090 O   0  0  0  0  0  0  0  0  0  0  0  0
    8.4648    0.6111   -5.7989 C   0  0  0  0  0  0  0  0  0  0  0  0
    8.3423    1.2417   -6.6843 H   0  0  0  0  0  0  0  0  0  0  0  0
    9.3851    0.9335   -5.2964 H   0  0  0  0  0  0  0  0  0  0  0  0
    8.6165   -0.4190   -6.1310 H   0  0  0  0  0  0  0  0  0  0  0  0
   -2.4672    0.7771   -1.4978 H   0  0  0  0  0  0  0  0  0  0  0  0
  1  7  1  0  0  0  0
  2  1  1  0  0  0  0
  2  8  1  0  0  0  0
  3  2  2  0  0  0  0
  4  5  2  0  0  0  0
  4  3  1  0  0  0  0
  5  6  1  0  0  0  0
  6 31  1  0  0  0  0
  6  1  2  0  0  0  0
  9  4  1  0  0  0  0
 10  5  1  0  0  0  0
 12 11  3  0  0  0  0
 13 19  1  0  0  0  0
 13 18  2  0  0  0  0
 14 13  1  0  0  0  0
 15 14  2  0  0  0  0
 15 16  1  0  0  0  0
 16 17  2  0  0  0  0
 17 18  1  0  0  0  0
 17 22  1  0  0  0  0
 18 23  1  0  0  0  0
 20 14  1  0  0  0  0
 21 16  1  0  0  0  0
 23 26  2  0  0  0  0
 23 24  2  0  0  0  0
 25  3  1  0  0  0  0
 25 23  1  0  0  0  0
 27 29  1  0  0  0  0
 27 15  1  0  0  0  0
 28 27  1  0  0  0  0
 30 27  1  0  0  0  0
M  END
