Coordinates from ORCA-job Ph-N2-OTs-B3LYPG-6-31G_dp-MTMO-d009-169-n800
 OpenBabel09051907493D

 31 30  0  0  0  0  0  0  0  0999 V2000
   -0.1104    0.2068   -1.7996 C   0  0  0  0  0  0  0  0  0  0  0  0
    0.9341    1.0920   -2.1434 C   0  0  0  0  0  0  0  0  0  0  0  0
    0.4393    2.2366   -2.6614 C   0  0  0  0  0  0  0  0  0  0  0  0
   -0.8144    2.7091   -2.9245 C   0  0  0  0  0  0  0  0  0  0  0  0
   -1.8047    1.7768   -2.5688 C   0  0  0  0  0  0  0  0  0  0  0  0
   -1.4493    0.5435   -2.0136 C   0  0  0  0  0  0  0  0  0  0  0  0
    0.1590   -0.7502   -1.3640 H   0  0  0  0  0  0  0  0  0  0  0  0
    2.0047    0.8680   -1.9871 H   0  0  0  0  0  0  0  0  0  0  0  0
   -1.0332    3.6771   -3.3541 H   0  0  0  0  0  0  0  0  0  0  0  0
   -2.8457    2.0356   -2.7356 H   0  0  0  0  0  0  0  0  0  0  0  0
    1.7842    3.5567   -3.1273 N   0  0  0  0  0  0  0  0  0  0  0  0
    2.0229    4.6330   -3.2648 N   0  0  0  0  0  0  0  0  0  0  0  0
    6.8302    2.0542   -3.7654 C   0  0  0  0  0  0  0  0  0  0  0  0
    7.9546    1.5556   -4.4225 C   0  0  0  0  0  0  0  0  0  0  0  0
    8.0678    0.1938   -4.7348 C   0  0  0  0  0  0  0  0  0  0  0  0
    7.0244   -0.6643   -4.3583 C   0  0  0  0  0  0  0  0  0  0  0  0
    5.8948   -0.1804   -3.7009 C   0  0  0  0  0  0  0  0  0  0  0  0
    5.8020    1.1813   -3.4098 C   0  0  0  0  0  0  0  0  0  0  0  0
    6.7507    3.1041   -3.5057 H   0  0  0  0  0  0  0  0  0  0  0  0
    8.7608    2.2338   -4.6914 H   0  0  0  0  0  0  0  0  0  0  0  0
    7.1010   -1.7265   -4.5781 H   0  0  0  0  0  0  0  0  0  0  0  0
    5.0985   -0.8488   -3.3918 H   0  0  0  0  0  0  0  0  0  0  0  0
    4.3362    1.8310   -2.5994 S   0  0  0  0  0  0  0  0  0  0  0  0
    3.8363    0.7356   -1.7103 O   0  0  0  0  0  0  0  0  0  0  0  0
    3.3563    2.0656   -3.7406 O   0  0  0  0  0  0  0  0  0  0  0  0
    4.7181    3.0822   -1.9168 O   0  0  0  0  0  0  0  0  0  0  0  0
    9.2752   -0.3334   -5.4739 C   0  0  0  0  0  0  0  0  0  0  0  0
    9.1119   -0.3195   -6.5595 H   0  0  0  0  0  0  0  0  0  0  0  0
   10.1641    0.2718   -5.2717 H   0  0  0  0  0  0  0  0  0  0  0  0
    9.4977   -1.3673   -5.1928 H   0  0  0  0  0  0  0  0  0  0  0  0
   -2.2275   -0.1630   -1.7440 H   0  0  0  0  0  0  0  0  0  0  0  0
  1  7  1  0  0  0  0
  2  8  1  0  0  0  0
  2  1  2  0  0  0  0
  3  2  1  0  0  0  0
  4  3  2  0  0  0  0
  4  5  1  0  0  0  0
  5  6  2  0  0  0  0
  6  1  1  0  0  0  0
  6 31  1  0  0  0  0
  9  4  1  0  0  0  0
 10  5  1  0  0  0  0
 12 11  3  0  0  0  0
 13 19  1  0  0  0  0
 13 18  2  0  0  0  0
 14 13  1  0  0  0  0
 15 14  2  0  0  0  0
 15 16  1  0  0  0  0
 16 17  2  0  0  0  0
 17 18  1  0  0  0  0
 17 22  1  0  0  0  0
 18 23  1  0  0  0  0
 20 14  1  0  0  0  0
 21 16  1  0  0  0  0
 23 26  2  0  0  0  0
 23 24  1  0  0  0  0
 25 23  2  0  0  0  0
 27 29  1  0  0  0  0
 27 30  1  0  0  0  0
 27 15  1  0  0  0  0
 28 27  1  0  0  0  0
M  RAD  2   3   2  24   2
M  END
