Coordinates from ORCA-job Ph-N2-OTs-B3LYPG-6-31G_dp-MTMO-d009-169-n800
 OpenBabel09051907503D

 31 31  0  0  0  0  0  0  0  0999 V2000
   -0.8462   -1.0914   -1.3528 C   0  0  0  0  0  0  0  0  0  0  0  0
    0.4564   -0.8816   -1.8069 C   0  0  0  0  0  0  0  0  0  0  0  0
    0.7984    0.3715   -2.3119 C   0  0  0  0  0  0  0  0  0  0  0  0
   -0.1226    1.4161   -2.3661 C   0  0  0  0  0  0  0  0  0  0  0  0
   -1.4218    1.1923   -1.9091 C   0  0  0  0  0  0  0  0  0  0  0  0
   -1.7850   -0.0583   -1.4034 C   0  0  0  0  0  0  0  0  0  0  0  0
   -1.1258   -2.0632   -0.9573 H   0  0  0  0  0  0  0  0  0  0  0  0
    1.2039   -1.6663   -1.7742 H   0  0  0  0  0  0  0  0  0  0  0  0
    0.1849    2.3783   -2.7593 H   0  0  0  0  0  0  0  0  0  0  0  0
   -2.1494    1.9976   -1.9476 H   0  0  0  0  0  0  0  0  0  0  0  0
   14.3664    6.0118   -8.3312 N   0  0  0  0  0  0  0  0  0  0  0  0
   13.4012    5.5235   -8.1040 N   0  0  0  0  0  0  0  0  0  0  0  0
    4.8605    2.3961   -3.5806 C   0  0  0  0  0  0  0  0  0  0  0  0
    5.9208    2.4524   -4.4824 C   0  0  0  0  0  0  0  0  0  0  0  0
    6.7159    1.3262   -4.7392 C   0  0  0  0  0  0  0  0  0  0  0  0
    6.4307    0.1332   -4.0572 C   0  0  0  0  0  0  0  0  0  0  0  0
    5.3767    0.0559   -3.1510 C   0  0  0  0  0  0  0  0  0  0  0  0
    4.5968    1.1920   -2.9275 C   0  0  0  0  0  0  0  0  0  0  0  0
    4.2535    3.2697   -3.3711 H   0  0  0  0  0  0  0  0  0  0  0  0
    6.1384    3.3875   -4.9907 H   0  0  0  0  0  0  0  0  0  0  0  0
    7.0463   -0.7447   -4.2342 H   0  0  0  0  0  0  0  0  0  0  0  0
    5.1663   -0.8615   -2.6125 H   0  0  0  0  0  0  0  0  0  0  0  0
    3.2519    1.1101   -1.7649 S   0  0  0  0  0  0  0  0  0  0  0  0
    3.5000    0.0526   -0.7878 O   0  0  0  0  0  0  0  0  0  0  0  0
    2.0866    0.5691   -2.8377 O   0  0  0  0  0  0  0  0  0  0  0  0
    2.8872    2.4561   -1.3292 O   0  0  0  0  0  0  0  0  0  0  0  0
    7.8426    1.3888   -5.7413 C   0  0  0  0  0  0  0  0  0  0  0  0
    8.2165    2.4089   -5.8616 H   0  0  0  0  0  0  0  0  0  0  0  0
    8.6792    0.7500   -5.4436 H   0  0  0  0  0  0  0  0  0  0  0  0
    7.5063    1.0449   -6.7273 H   0  0  0  0  0  0  0  0  0  0  0  0
   -2.7970   -0.2268   -1.0479 H   0  0  0  0  0  0  0  0  0  0  0  0
  1  7  1  0  0  0  0
  2  8  1  0  0  0  0
  2  1  2  0  0  0  0
  3  2  1  0  0  0  0
  4  3  2  0  0  0  0
  4  5  1  0  0  0  0
  5  6  2  0  0  0  0
  6  1  1  0  0  0  0
  6 31  1  0  0  0  0
  9  4  1  0  0  0  0
 10  5  1  0  0  0  0
 11 12  3  0  0  0  0
 13 19  1  0  0  0  0
 13 18  2  0  0  0  0
 14 13  1  0  0  0  0
 15 14  2  0  0  0  0
 15 16  1  0  0  0  0
 16 17  2  0  0  0  0
 17 18  1  0  0  0  0
 17 22  1  0  0  0  0
 18 23  1  0  0  0  0
 20 14  1  0  0  0  0
 21 16  1  0  0  0  0
 23 26  2  0  0  0  0
 23 24  2  0  0  0  0
 25  3  1  0  0  0  0
 25 23  1  0  0  0  0
 27 29  1  0  0  0  0
 27 15  1  0  0  0  0
 28 27  1  0  0  0  0
 30 27  1  0  0  0  0
M  END
