Coordinates from ORCA-job Ph-N2-OTs-B3LYPG-6-31G_dp-MTMO-d009-169-n800
 OpenBabel09051907503D

 31 31  0  0  0  0  0  0  0  0999 V2000
   -0.7267   -0.8019   -1.6133 C   0  0  0  0  0  0  0  0  0  0  0  0
    0.5998   -0.6737   -2.0270 C   0  0  0  0  0  0  0  0  0  0  0  0
    1.0480    0.5696   -2.4698 C   0  0  0  0  0  0  0  0  0  0  0  0
    0.2092    1.6820   -2.5023 C   0  0  0  0  0  0  0  0  0  0  0  0
   -1.1156    1.5388   -2.0883 C   0  0  0  0  0  0  0  0  0  0  0  0
   -1.5845    0.3001   -1.6441 C   0  0  0  0  0  0  0  0  0  0  0  0
   -1.0884   -1.7648   -1.2654 H   0  0  0  0  0  0  0  0  0  0  0  0
    1.2857   -1.5129   -2.0083 H   0  0  0  0  0  0  0  0  0  0  0  0
    0.5990    2.6329   -2.8471 H   0  0  0  0  0  0  0  0  0  0  0  0
   -1.7799    2.3976   -2.1114 H   0  0  0  0  0  0  0  0  0  0  0  0
    9.8078    5.6915   -7.4715 N   0  0  0  0  0  0  0  0  0  0  0  0
    9.1455    4.9698   -6.9598 N   0  0  0  0  0  0  0  0  0  0  0  0
    5.3197    2.3074   -3.4700 C   0  0  0  0  0  0  0  0  0  0  0  0
    6.4041    2.3456   -4.3456 C   0  0  0  0  0  0  0  0  0  0  0  0
    7.0905    1.1769   -4.7009 C   0  0  0  0  0  0  0  0  0  0  0  0
    6.6674   -0.0445   -4.1515 C   0  0  0  0  0  0  0  0  0  0  0  0
    5.5895   -0.1043   -3.2745 C   0  0  0  0  0  0  0  0  0  0  0  0
    4.9215    1.0782   -2.9469 C   0  0  0  0  0  0  0  0  0  0  0  0
    4.7954    3.2127   -3.1850 H   0  0  0  0  0  0  0  0  0  0  0  0
    6.7250    3.2983   -4.7568 H   0  0  0  0  0  0  0  0  0  0  0  0
    7.1938   -0.9589   -4.4116 H   0  0  0  0  0  0  0  0  0  0  0  0
    5.2724   -1.0449   -2.8384 H   0  0  0  0  0  0  0  0  0  0  0  0
    3.5462    1.0159   -1.8194 S   0  0  0  0  0  0  0  0  0  0  0  0
    3.6696   -0.1500   -0.9472 O   0  0  0  0  0  0  0  0  0  0  0  0
    2.3605    0.6960   -2.9560 O   0  0  0  0  0  0  0  0  0  0  0  0
    3.2996    2.3422   -1.2585 O   0  0  0  0  0  0  0  0  0  0  0  0
    8.2670    1.2213   -5.6453 C   0  0  0  0  0  0  0  0  0  0  0  0
    8.4454    2.2324   -6.0179 H   0  0  0  0  0  0  0  0  0  0  0  0
    9.1821    0.8781   -5.1495 H   0  0  0  0  0  0  0  0  0  0  0  0
    8.1054    0.5653   -6.5078 H   0  0  0  0  0  0  0  0  0  0  0  0
   -2.6156    0.1944   -1.3207 H   0  0  0  0  0  0  0  0  0  0  0  0
  1  7  1  0  0  0  0
  2  8  1  0  0  0  0
  2  1  2  0  0  0  0
  3  2  1  0  0  0  0
  4  3  2  0  0  0  0
  4  5  1  0  0  0  0
  5  6  2  0  0  0  0
  6  1  1  0  0  0  0
  6 31  1  0  0  0  0
  9  4  1  0  0  0  0
 10  5  1  0  0  0  0
 11 12  3  0  0  0  0
 13 19  1  0  0  0  0
 13 18  2  0  0  0  0
 14 13  1  0  0  0  0
 15 14  2  0  0  0  0
 15 16  1  0  0  0  0
 16 17  2  0  0  0  0
 17 18  1  0  0  0  0
 17 22  1  0  0  0  0
 18 23  1  0  0  0  0
 20 14  1  0  0  0  0
 21 16  1  0  0  0  0
 23 26  2  0  0  0  0
 23 24  2  0  0  0  0
 25  3  1  0  0  0  0
 25 23  1  0  0  0  0
 27 29  1  0  0  0  0
 27 15  1  0  0  0  0
 28 27  1  0  0  0  0
 30 27  1  0  0  0  0
M  END
