Coordinates from ORCA-job Ph-N2-OTs-B3LYPG-6-31G_dp-MTMO-d009-169-n800
 OpenBabel09051907503D

 31 31  0  0  0  0  0  0  0  0999 V2000
   -0.5735    0.1491   -2.0993 C   0  0  0  0  0  0  0  0  0  0  0  0
    0.7548    0.0713   -2.5191 C   0  0  0  0  0  0  0  0  0  0  0  0
    1.5172    1.2370   -2.5591 C   0  0  0  0  0  0  0  0  0  0  0  0
    0.9896    2.4712   -2.1825 C   0  0  0  0  0  0  0  0  0  0  0  0
   -0.3396    2.5338   -1.7618 C   0  0  0  0  0  0  0  0  0  0  0  0
   -1.1216    1.3770   -1.7206 C   0  0  0  0  0  0  0  0  0  0  0  0
   -1.1786   -0.7521   -2.0657 H   0  0  0  0  0  0  0  0  0  0  0  0
    1.2047   -0.8699   -2.8139 H   0  0  0  0  0  0  0  0  0  0  0  0
    1.6174    3.3541   -2.2189 H   0  0  0  0  0  0  0  0  0  0  0  0
   -0.7627    3.4888   -1.4652 H   0  0  0  0  0  0  0  0  0  0  0  0
    2.2640    2.9652   -6.0017 N   0  0  0  0  0  0  0  0  0  0  0  0
    3.1282    3.3941   -5.4626 N   0  0  0  0  0  0  0  0  0  0  0  0
    6.0044    2.0639   -3.5380 C   0  0  0  0  0  0  0  0  0  0  0  0
    7.0742    1.9462   -4.4219 C   0  0  0  0  0  0  0  0  0  0  0  0
    7.5549    0.6890   -4.8168 C   0  0  0  0  0  0  0  0  0  0  0  0
    6.9409   -0.4589   -4.2942 C   0  0  0  0  0  0  0  0  0  0  0  0
    5.8685   -0.3639   -3.4109 C   0  0  0  0  0  0  0  0  0  0  0  0
    5.4083    0.9020   -3.0460 C   0  0  0  0  0  0  0  0  0  0  0  0
    5.6426    3.0360   -3.2228 H   0  0  0  0  0  0  0  0  0  0  0  0
    7.5476    2.8449   -4.8069 H   0  0  0  0  0  0  0  0  0  0  0  0
    7.3109   -1.4400   -4.5787 H   0  0  0  0  0  0  0  0  0  0  0  0
    5.4016   -1.2498   -2.9957 H   0  0  0  0  0  0  0  0  0  0  0  0
    4.0479    1.0359   -1.9068 S   0  0  0  0  0  0  0  0  0  0  0  0
    3.8694   -0.2248   -1.1907 O   0  0  0  0  0  0  0  0  0  0  0  0
    2.8317    1.1677   -3.0516 O   0  0  0  0  0  0  0  0  0  0  0  0
    4.1285    2.3008   -1.1801 O   0  0  0  0  0  0  0  0  0  0  0  0
    8.6950    0.5717   -5.7984 C   0  0  0  0  0  0  0  0  0  0  0  0
    8.3175    0.4789   -6.8244 H   0  0  0  0  0  0  0  0  0  0  0  0
    9.3435    1.4520   -5.7680 H   0  0  0  0  0  0  0  0  0  0  0  0
    9.3071   -0.3123   -5.5968 H   0  0  0  0  0  0  0  0  0  0  0  0
   -2.1550    1.4319   -1.3925 H   0  0  0  0  0  0  0  0  0  0  0  0
  1  7  1  0  0  0  0
  1  6  2  0  0  0  0
  2  1  1  0  0  0  0
  3  2  2  0  0  0  0
  3  4  1  0  0  0  0
  4  5  2  0  0  0  0
  5  6  1  0  0  0  0
  5 10  1  0  0  0  0
  6 31  1  0  0  0  0
  8  2  1  0  0  0  0
  9  4  1  0  0  0  0
 11 12  3  0  0  0  0
 13 19  1  0  0  0  0
 13 18  2  0  0  0  0
 14 13  1  0  0  0  0
 15 14  2  0  0  0  0
 15 16  1  0  0  0  0
 16 17  2  0  0  0  0
 17 18  1  0  0  0  0
 17 22  1  0  0  0  0
 18 23  1  0  0  0  0
 20 14  1  0  0  0  0
 21 16  1  0  0  0  0
 23 24  2  0  0  0  0
 23 26  2  0  0  0  0
 25  3  1  0  0  0  0
 25 23  1  0  0  0  0
 27 29  1  0  0  0  0
 27 30  1  0  0  0  0
 27 15  1  0  0  0  0
 28 27  1  0  0  0  0
M  END
