19
Coordinates from ORCA-job Ph-N2-OOCH-B3LYPG-aug-cc-pVDZ-scan-d09-49-n400
  C   -0.60552619108845      0.46544785048982     -0.40105152441380
  C   0.78127627579875      0.69251275427111     -0.60200879415769
  C   1.40885725408893      0.18369101535517      0.49777555319518
  C   1.12282821518253     -0.40851752323078      1.58013051432327
  C   -0.26095045641678     -0.63387671161503      1.78129593370893
  C   -1.10343239234416     -0.17496604011262      0.75087254485993
  H   -1.29603349667455      0.80566028651455     -1.17472204607400
  H   1.20078385613502      1.18169722799623     -1.47600229366809
  N   3.13884259747269      2.38628864493997     -3.52288537840095
  N   4.10930400976748      2.69309819641754     -3.95058153822273
  H   -2.18096349832441     -0.32057675108385      0.84335861895537
  H   -0.66354220763279     -1.13047436795738      2.66415681999514
  H   2.88349788618609     -0.71549562435616      2.29521627437079
  S   4.72061501744032      0.21842320386898      1.64102638391744
  O   3.85107548294026     -0.80061445838459      2.54878356926400
  O   6.12136519275474     -0.19509445291949      1.77396699220048
  O   4.06236191685712      0.42467378706641      0.33769151019020
  O   4.52125605874793      1.65442084669465      2.43141773942283
  H   5.15008447910932      1.66510211604544      3.17305912053384
