19
Coordinates from ORCA-job Ph-N2-OOCH-B3LYPG-aug-cc-pVDZ-scan-d09-49-n400
  C   -0.37951215538558     -0.12401805019861     -0.74255483118472
  C   0.47147432834871      0.84878040412879     -1.17971464428205
  C   1.47487531091868      1.31575149112957     -0.27742272667520
  C   1.81287207143449      0.68612590596558      1.01052055527062
  C   0.71702317109339     -0.20930466270223      1.45747057401404
  C   -0.26677234423700     -0.61239791624998      0.61242850008751
  H   -1.16004251562766     -0.50702811923659     -1.39705433968633
  H   0.39810895942702      1.28074553578996     -2.17649278482295
  N   2.29095000239958      2.42150648296938     -0.67745866475304
  N   2.94590689271431      3.29160140827527     -0.97998933735727
  H   -1.01976431830737     -1.31367053674057      0.97487170820112
  H   0.77127057908113     -0.57008591448287      2.48280477980714
  H   2.15135916975033      1.38594301006244      1.77808677632599
  S   4.20825226346281     -0.28919590356793      1.92433273080520
  O   3.56692690422059     -0.17304656847833      3.24296115611575
  O   5.14119030651817     -1.37024015330677      1.57045133317999
  O   3.09764746414555     -0.21758206882725      0.74751068179734
  O   5.01147521296493      1.15612675899065      1.72788246002946
  H   5.72845869707795      0.99138889647938      1.09286607312748
