19
Coordinates from ORCA-job Ph-N2-OOCH-B3LYPG-aug-cc-pVDZ-scan-d09-49-n400
  C   -0.37070986367697     -0.10891736470239     -0.73529327246862
  C   0.48477608699751      0.84690857537642     -1.18559016216470
  C   1.51548177832676      1.33404421624376     -0.30356308559212
  C   1.83908013407908      0.68124006525284      0.99757911800287
  C   0.73472720765548     -0.20327178307723      1.45749512106173
  C   -0.25972770100030     -0.59405266619294      0.62514045395078
  H   -1.15884780734645     -0.48899223616203     -1.38284291534711
  H   0.40863275697467      1.26725156077355     -2.18761782717026
  N   2.26386495395355      2.35936697394517     -0.66937166577005
  N   2.91891805860174      3.23934642703219     -0.97191035441255
  H   -1.02099744926476     -1.28300258354582      0.99368617407637
  H   0.79568245361718     -0.56218697286487      2.48322772897637
  H   2.16428667473791      1.39445667780883      1.76039261730118
  S   4.20225490608132     -0.29842489807459      1.92250087153296
  O   3.55091180952712     -0.23327184146919      3.23835533873715
  O   5.14271698995830     -1.35770042555607      1.53059994988143
  O   3.09259317969654     -0.20733519719895      0.73581334863368
  O   4.97983740809055      1.16211864604043      1.77436053101555
  H   5.67821842299079      1.04382282637082      1.10853802975543
