19
Coordinates from ORCA-job Ph-N2-OOCH-B3LYPG-aug-cc-pVDZ-scan-d09-49-n400
  C   -0.69407149841735      0.09790759591296     -0.78208521937946
  C   0.48662058453708      0.79778072704194     -1.01636303766860
  C   1.38554867351970      0.89187294733243      0.05442683179645
  C   1.19198111069552      0.33882205084487      1.32160516251394
  C   -0.00800996002516     -0.34295001316921      1.51784326078555
  C   -0.93859370113950     -0.46521953087047      0.47824382524317
  H   -1.42144027373039     -0.00917053051069     -1.58549833229622
  H   0.71005859149050      1.24366342386932     -1.98341495588351
  N   2.58050357364834      1.65741494905738     -0.19762040769003
  N   3.35145519488053      2.39640658322929     -0.50098455495700
  H   -1.86640099923297     -1.01203957751017      0.64711692627633
  H   -0.20700962320135     -0.79433294524612      2.48870110348951
  H   1.97590085315929      0.44383444386733      2.07645965128847
  S   4.76365412222012      0.12582512514642      1.53640051234658
  O   3.90524886309059      0.92871081314532      2.48693375517953
  O   5.72672875857646     -0.80564536334951      2.17200772145905
  O   3.96179367637446     -0.40888072051444      0.37379718323826
  O   5.70019401385809      1.30013908837475      0.73006266952679
  H   6.35753803969604      1.60726093334852      1.37386790473127
