19
Coordinates from ORCA-job Ph-N2-OOCH-B3LYPG-aug-cc-pVDZ-scan-d09-49-n400
  C   -1.12561211389002      0.32678908231156     -0.45041817806500
  C   0.07999220423951      0.80213274202935     -1.03059683942633
  C   1.07631168641774      0.53182599906371     -0.13358387445377
  C   1.18927178765384     -0.00400020026965      1.00346867619562
  C   -0.00314891338281     -0.48003754580415      1.59511394271401
  C   -1.16023652286923     -0.28989186855420      0.81419634135209
  H   -2.04980924095836      0.45167594816774     -1.01760918834063
  H   0.14252452798272      1.28120853950722     -2.00278936730224
  N   3.44290445372291      1.99978085603744     -2.29714994638121
  N   4.38713280417351      2.45265605648678     -2.64645042746047
  H   -2.12007691004856     -0.63479093129887      1.20233948093541
  H   -0.04503613529515     -0.96187435924958      2.57138866640669
  H   2.91315774117760     -0.22621043474052      1.85309408524147
  S   5.05851301473259      0.10054619659802      1.68952916154784
  O   3.70812610225979     -0.43864597748243      2.41672414933639
  O   6.17477366099451     -0.49254812547364      2.43712900213035
  O   4.91682085139004      0.02056214160335      0.23129251222765
  O   5.00823400700012      1.71908484823131      2.02991882022651
  H   5.36785699469928      1.83313703283650      2.92590298311571
