Coordinates from ORCA-job p-NO2-Ph-N2-OOCCH3-B3LYPG-aug-cc-pVDZ-scan-d09-49-n400
 OpenBabel01151817083D

 22 21  0  0  0  0  0  0  0  0999 V2000
   14.3913    8.4737   -2.6619 C   0  0  0  0  0  0  0  0  0  0  0  0
   13.4971    7.5417   -2.1421 C   0  0  0  0  0  0  0  0  0  0  0  0
   13.8013    6.1803   -2.2086 C   0  0  0  0  0  0  0  0  0  0  0  0
   14.9790    5.7256   -2.8090 C   0  0  0  0  0  0  0  0  0  0  0  0
   15.8754    6.6548   -3.3319 C   0  0  0  0  0  0  0  0  0  0  0  0
   15.5721    8.0155   -3.2492 C   0  0  0  0  0  0  0  0  0  0  0  0
   14.1877    9.5404   -2.6200 H   0  0  0  0  0  0  0  0  0  0  0  0
   12.5697    7.8596   -1.6694 H   0  0  0  0  0  0  0  0  0  0  0  0
   15.1957    4.6626   -2.8654 H   0  0  0  0  0  0  0  0  0  0  0  0
   16.8036    6.3390   -3.8010 H   0  0  0  0  0  0  0  0  0  0  0  0
   16.5237    8.9954   -3.7999 N   0  0  0  0  0  0  0  0  0  0  0  0
   16.2308   10.1866   -3.7176 O   0  0  0  0  0  0  0  0  0  0  0  0
   17.5559    8.5668   -4.3117 O   0  0  0  0  0  0  0  0  0  0  0  0
   14.9878    6.1243    0.2990 N   0  0  0  0  0  0  0  0  0  0  0  0
   15.0797    5.2058    0.9056 N   0  0  0  0  0  0  0  0  0  0  0  0
   12.4295    4.2007   -2.2760 C   0  0  0  0  0  0  0  0  0  0  0  0
   12.7491    3.9202   -3.4018 O   0  0  0  0  0  0  0  0  0  0  0  0
   12.8953    5.3169   -1.6034 O   0  0  0  0  0  0  0  0  0  0  0  0
   11.4817    3.4352   -1.3952 C   0  0  0  0  0  0  0  0  0  0  0  0
   11.9908    3.1385   -0.4687 H   0  0  0  0  0  0  0  0  0  0  0  0
   10.6349    4.0756   -1.1148 H   0  0  0  0  0  0  0  0  0  0  0  0
   11.1250    2.5521   -1.9316 H   0  0  0  0  0  0  0  0  0  0  0  0
  1  7  1  0  0  0  0
  1  2  2  0  0  0  0
  2  8  1  0  0  0  0
  3  2  1  0  0  0  0
  3 18  1  0  0  0  0
  4  3  2  0  0  0  0
  5  6  2  0  0  0  0
  5  4  1  0  0  0  0
  6  1  1  0  0  0  0
  9  4  1  0  0  0  0
 10  5  1  0  0  0  0
 11 12  2  0  0  0  0
 11  6  1  0  0  0  0
 13 11  2  0  0  0  0
 14 15  3  0  0  0  0
 16 18  1  0  0  0  0
 16 19  1  0  0  0  0
 17 16  2  0  0  0  0
 19 21  1  0  0  0  0
 19 20  1  0  0  0  0
 22 19  1  0  0  0  0
M  END
