Coordinates from ORCA-job p-NO2-Ph-N2-OOCCH3-B3LYPG-aug-cc-pVDZ-scan-d09-49-n400
 OpenBabel01151817083D

 22 21  0  0  0  0  0  0  0  0999 V2000
   14.3868    8.4556   -2.6472 C   0  0  0  0  0  0  0  0  0  0  0  0
   13.5113    7.5204   -2.1047 C   0  0  0  0  0  0  0  0  0  0  0  0
   13.8507    6.1637   -2.1196 C   0  0  0  0  0  0  0  0  0  0  0  0
   15.0168    5.7145   -2.7494 C   0  0  0  0  0  0  0  0  0  0  0  0
   15.8948    6.6469   -3.2962 C   0  0  0  0  0  0  0  0  0  0  0  0
   15.5743    8.0049   -3.2291 C   0  0  0  0  0  0  0  0  0  0  0  0
   14.1628    9.5190   -2.6329 H   0  0  0  0  0  0  0  0  0  0  0  0
   12.5786    7.8332   -1.6392 H   0  0  0  0  0  0  0  0  0  0  0  0
   15.2463    4.6534   -2.7944 H   0  0  0  0  0  0  0  0  0  0  0  0
   16.8190    6.3363   -3.7765 H   0  0  0  0  0  0  0  0  0  0  0  0
   16.5066    8.9889   -3.8043 N   0  0  0  0  0  0  0  0  0  0  0  0
   16.2057   10.1782   -3.7225 O   0  0  0  0  0  0  0  0  0  0  0  0
   17.5514    8.5683   -4.2968 O   0  0  0  0  0  0  0  0  0  0  0  0
   14.8994    6.1533    0.0545 N   0  0  0  0  0  0  0  0  0  0  0  0
   15.0667    5.2659    0.6970 N   0  0  0  0  0  0  0  0  0  0  0  0
   12.4337    4.2175   -2.2527 C   0  0  0  0  0  0  0  0  0  0  0  0
   12.7318    3.9802   -3.3938 O   0  0  0  0  0  0  0  0  0  0  0  0
   12.9407    5.2877   -1.5339 O   0  0  0  0  0  0  0  0  0  0  0  0
   11.4717    3.4421   -1.3962 C   0  0  0  0  0  0  0  0  0  0  0  0
   11.9722    3.1113   -0.4767 H   0  0  0  0  0  0  0  0  0  0  0  0
   10.6344    4.0885   -1.1011 H   0  0  0  0  0  0  0  0  0  0  0  0
   11.1013    2.5813   -1.9590 H   0  0  0  0  0  0  0  0  0  0  0  0
  1  7  1  0  0  0  0
  1  2  2  0  0  0  0
  2  8  1  0  0  0  0
  3  2  1  0  0  0  0
  3 18  1  0  0  0  0
  4  3  2  0  0  0  0
  5  6  2  0  0  0  0
  5  4  1  0  0  0  0
  6  1  1  0  0  0  0
  9  4  1  0  0  0  0
 10  5  1  0  0  0  0
 11 12  2  0  0  0  0
 11  6  1  0  0  0  0
 13 11  2  0  0  0  0
 14 15  3  0  0  0  0
 16 18  1  0  0  0  0
 16 19  1  0  0  0  0
 17 16  2  0  0  0  0
 19 21  1  0  0  0  0
 19 20  1  0  0  0  0
 22 19  1  0  0  0  0
M  END
