Coordinates from ORCA-job p-NO2-Ph-N2-OOCCH3-B3LYPG-aug-cc-pVDZ-scan-d09-49-n400
 OpenBabel01151817083D

 22 21  0  0  0  0  0  0  0  0999 V2000
   14.8419    8.4466   -2.9042 C   0  0  0  0  0  0  0  0  0  0  0  0
   13.9793    7.9621   -1.9098 C   0  0  0  0  0  0  0  0  0  0  0  0
   14.4377    6.8755   -1.2035 C   0  0  0  0  0  0  0  0  0  0  0  0
   15.6393    6.2214   -1.3390 C   0  0  0  0  0  0  0  0  0  0  0  0
   16.4905    6.7179   -2.3373 C   0  0  0  0  0  0  0  0  0  0  0  0
   16.0736    7.8149   -3.0959 C   0  0  0  0  0  0  0  0  0  0  0  0
   14.5689    9.3002   -3.5206 H   0  0  0  0  0  0  0  0  0  0  0  0
   13.0122    8.4233   -1.7224 H   0  0  0  0  0  0  0  0  0  0  0  0
   15.9222    5.3717   -0.7218 H   0  0  0  0  0  0  0  0  0  0  0  0
   17.4619    6.2665   -2.5258 H   0  0  0  0  0  0  0  0  0  0  0  0
   16.9767    8.3318   -4.1461 N   0  0  0  0  0  0  0  0  0  0  0  0
   16.5938    9.2965   -4.8019 O   0  0  0  0  0  0  0  0  0  0  0  0
   18.0546    7.7645   -4.2998 O   0  0  0  0  0  0  0  0  0  0  0  0
   13.1797    6.2354    0.5013 N   0  0  0  0  0  0  0  0  0  0  0  0
   12.3903    5.4023    0.2649 N   0  0  0  0  0  0  0  0  0  0  0  0
   11.4789    3.9419   -1.5095 C   0  0  0  0  0  0  0  0  0  0  0  0
   10.7167    3.4720   -0.7034 O   0  0  0  0  0  0  0  0  0  0  0  0
   12.4029    4.9168   -1.2439 O   0  0  0  0  0  0  0  0  0  0  0  0
   11.5664    3.5552   -2.9718 C   0  0  0  0  0  0  0  0  0  0  0  0
   11.3538    4.4265   -3.6052 H   0  0  0  0  0  0  0  0  0  0  0  0
   12.5787    3.2051   -3.2122 H   0  0  0  0  0  0  0  0  0  0  0  0
   10.8374    2.7631   -3.1669 H   0  0  0  0  0  0  0  0  0  0  0  0
  1  2  1  0  0  0  0
  2  8  1  0  0  0  0
  2  3  2  0  0  0  0
  4  3  1  0  0  0  0
  4  9  1  0  0  0  0
  5  4  2  0  0  0  0
  6  1  2  0  0  0  0
  6  5  1  0  0  0  0
  7  1  1  0  0  0  0
 10  5  1  0  0  0  0
 11  6  1  0  0  0  0
 12 11  2  0  0  0  0
 13 11  2  0  0  0  0
 15 14  1  0  0  0  0
 16 18  1  0  0  0  0
 16 17  2  0  0  0  0
 18 15  1  0  0  0  0
 19 16  1  0  0  0  0
 20 19  1  0  0  0  0
 21 19  1  0  0  0  0
 22 19  1  0  0  0  0
M  RAD  3   3   2  14   3  15   2
M  END
