Coordinates from ORCA-job p-NO2-Ph-N2-OOCCH3-B3LYPG-aug-cc-pVDZ-scan-d09-49-n400
 OpenBabel01151817083D

 22 21  0  0  0  0  0  0  0  0999 V2000
   14.3769    8.4852   -2.7086 C   0  0  0  0  0  0  0  0  0  0  0  0
   13.4707    7.5551   -2.2051 C   0  0  0  0  0  0  0  0  0  0  0  0
   13.7560    6.1903   -2.3005 C   0  0  0  0  0  0  0  0  0  0  0  0
   14.9401    5.7327   -2.8883 C   0  0  0  0  0  0  0  0  0  0  0  0
   15.8474    6.6615   -3.3937 C   0  0  0  0  0  0  0  0  0  0  0  0
   15.5545    8.0235   -3.2991 C   0  0  0  0  0  0  0  0  0  0  0  0
   14.1849    9.5532   -2.6492 H   0  0  0  0  0  0  0  0  0  0  0  0
   12.5454    7.8754   -1.7298 H   0  0  0  0  0  0  0  0  0  0  0  0
   15.1495    4.6691   -2.9550 H   0  0  0  0  0  0  0  0  0  0  0  0
   16.7776    6.3429   -3.8571 H   0  0  0  0  0  0  0  0  0  0  0  0
   16.5179    9.0016   -3.8323 N   0  0  0  0  0  0  0  0  0  0  0  0
   16.2340   10.1941   -3.7393 O   0  0  0  0  0  0  0  0  0  0  0  0
   17.5470    8.5699   -4.3476 O   0  0  0  0  0  0  0  0  0  0  0  0
   15.2558    6.1145    0.9236 N   0  0  0  0  0  0  0  0  0  0  0  0
   15.2512    5.1247    1.4136 N   0  0  0  0  0  0  0  0  0  0  0  0
   12.4058    4.1929   -2.3400 C   0  0  0  0  0  0  0  0  0  0  0  0
   12.7417    3.8886   -3.4551 O   0  0  0  0  0  0  0  0  0  0  0  0
   12.8462    5.3327   -1.6920 O   0  0  0  0  0  0  0  0  0  0  0  0
   11.4612    3.4347   -1.4494 C   0  0  0  0  0  0  0  0  0  0  0  0
   11.9715    3.1552   -0.5181 H   0  0  0  0  0  0  0  0  0  0  0  0
   10.6098    4.0731   -1.1791 H   0  0  0  0  0  0  0  0  0  0  0  0
   11.1121    2.5406   -1.9725 H   0  0  0  0  0  0  0  0  0  0  0  0
  1  7  1  0  0  0  0
  1  2  2  0  0  0  0
  2  8  1  0  0  0  0
  3  2  1  0  0  0  0
  3 18  1  0  0  0  0
  4  3  2  0  0  0  0
  5  6  2  0  0  0  0
  5  4  1  0  0  0  0
  6  1  1  0  0  0  0
  9  4  1  0  0  0  0
 10  5  1  0  0  0  0
 11 12  2  0  0  0  0
 11  6  1  0  0  0  0
 13 11  2  0  0  0  0
 14 15  3  0  0  0  0
 16 18  1  0  0  0  0
 16 19  1  0  0  0  0
 17 16  2  0  0  0  0
 19 21  1  0  0  0  0
 19 20  1  0  0  0  0
 22 19  1  0  0  0  0
M  END
