Coordinates from ORCA-job p-NO2-Ph-N2-OOCCH3-B3LYPG-aug-cc-pVDZ-scan-d09-49-n400
 OpenBabel01151817083D

 22 21  0  0  0  0  0  0  0  0999 V2000
   14.3590    8.4808   -2.7306 C   0  0  0  0  0  0  0  0  0  0  0  0
   13.4455    7.5512   -2.2394 C   0  0  0  0  0  0  0  0  0  0  0  0
   13.7253    6.1855   -2.3426 C   0  0  0  0  0  0  0  0  0  0  0  0
   14.9127    5.7270   -2.9234 C   0  0  0  0  0  0  0  0  0  0  0  0
   15.8271    6.6555   -3.4167 C   0  0  0  0  0  0  0  0  0  0  0  0
   15.5385    8.0180   -3.3162 C   0  0  0  0  0  0  0  0  0  0  0  0
   14.1709    9.5492   -2.6655 H   0  0  0  0  0  0  0  0  0  0  0  0
   12.5187    7.8720   -1.7672 H   0  0  0  0  0  0  0  0  0  0  0  0
   15.1192    4.6631   -2.9939 H   0  0  0  0  0  0  0  0  0  0  0  0
   16.7597    6.3361   -3.8746 H   0  0  0  0  0  0  0  0  0  0  0  0
   16.5092    8.9955   -3.8374 N   0  0  0  0  0  0  0  0  0  0  0  0
   16.2320   10.1887   -3.7336 O   0  0  0  0  0  0  0  0  0  0  0  0
   17.5430    8.5631   -4.3426 O   0  0  0  0  0  0  0  0  0  0  0  0
   15.5098    6.1858    1.3018 N   0  0  0  0  0  0  0  0  0  0  0  0
   15.4795    5.1589    1.7071 N   0  0  0  0  0  0  0  0  0  0  0  0
   12.3772    4.1858   -2.3918 C   0  0  0  0  0  0  0  0  0  0  0  0
   12.7267    3.8766   -3.5014 O   0  0  0  0  0  0  0  0  0  0  0  0
   12.8077    5.3295   -1.7443 O   0  0  0  0  0  0  0  0  0  0  0  0
   11.4233    3.4304   -1.5088 C   0  0  0  0  0  0  0  0  0  0  0  0
   11.9215    3.1604   -0.5681 H   0  0  0  0  0  0  0  0  0  0  0  0
   10.5656    4.0674   -1.2556 H   0  0  0  0  0  0  0  0  0  0  0  0
   11.0850    2.5310   -2.0299 H   0  0  0  0  0  0  0  0  0  0  0  0
  1  7  1  0  0  0  0
  1  2  2  0  0  0  0
  2  8  1  0  0  0  0
  3  2  1  0  0  0  0
  3 18  1  0  0  0  0
  4  3  2  0  0  0  0
  5  6  2  0  0  0  0
  5  4  1  0  0  0  0
  6  1  1  0  0  0  0
  9  4  1  0  0  0  0
 10  5  1  0  0  0  0
 11 12  2  0  0  0  0
 11  6  1  0  0  0  0
 13 11  2  0  0  0  0
 14 15  3  0  0  0  0
 16 18  1  0  0  0  0
 16 19  1  0  0  0  0
 17 16  2  0  0  0  0
 19 21  1  0  0  0  0
 19 20  1  0  0  0  0
 22 19  1  0  0  0  0
M  END
