Coordinates from ORCA-job p-NO2-Ph-N2-OOCCH3-B3LYPG-aug-cc-pVDZ-scan-d09-49-n400
 OpenBabel01151817083D

 22 22  0  0  0  0  0  0  0  0999 V2000
   14.9040    8.5912   -2.7600 C   0  0  0  0  0  0  0  0  0  0  0  0
   14.0018    8.1555   -1.7892 C   0  0  0  0  0  0  0  0  0  0  0  0
   14.2355    6.9383   -1.1523 C   0  0  0  0  0  0  0  0  0  0  0  0
   15.3629    6.1599   -1.4155 C   0  0  0  0  0  0  0  0  0  0  0  0
   16.2716    6.6006   -2.3765 C   0  0  0  0  0  0  0  0  0  0  0  0
   16.0236    7.8055   -3.0381 C   0  0  0  0  0  0  0  0  0  0  0  0
   14.7557    9.5271   -3.2925 H   0  0  0  0  0  0  0  0  0  0  0  0
   13.1290    8.7524   -1.5309 H   0  0  0  0  0  0  0  0  0  0  0  0
   15.5276    5.2258   -0.8826 H   0  0  0  0  0  0  0  0  0  0  0  0
   17.1620    6.0262   -2.6191 H   0  0  0  0  0  0  0  0  0  0  0  0
   16.9830    8.2675   -4.0606 N   0  0  0  0  0  0  0  0  0  0  0  0
   16.7445    9.3307   -4.6275 O   0  0  0  0  0  0  0  0  0  0  0  0
   17.9623    7.5606   -4.2845 O   0  0  0  0  0  0  0  0  0  0  0  0
   13.2874    6.5484   -0.0010 N   0  0  0  0  0  0  0  0  0  0  0  0
   12.4959    5.6331   -0.0870 N   0  0  0  0  0  0  0  0  0  0  0  0
   11.6757    3.8840   -1.4993 C   0  0  0  0  0  0  0  0  0  0  0  0
   11.1088    3.3991   -0.5590 O   0  0  0  0  0  0  0  0  0  0  0  0
   12.5124    4.9909   -1.4244 O   0  0  0  0  0  0  0  0  0  0  0  0
   11.6149    3.4094   -2.9291 C   0  0  0  0  0  0  0  0  0  0  0  0
   11.1275    4.1729   -3.5506 H   0  0  0  0  0  0  0  0  0  0  0  0
   12.6268    3.2552   -3.3259 H   0  0  0  0  0  0  0  0  0  0  0  0
   11.0444    2.4772   -2.9690 H   0  0  0  0  0  0  0  0  0  0  0  0
  1  2  1  0  0  0  0
  2  8  1  0  0  0  0
  2  3  2  0  0  0  0
  3 14  1  0  0  0  0
  4  3  1  0  0  0  0
  4  9  1  0  0  0  0
  5  4  2  0  0  0  0
  6  1  2  0  0  0  0
  6  5  1  0  0  0  0
  7  1  1  0  0  0  0
 10  5  1  0  0  0  0
 11  6  1  0  0  0  0
 12 11  2  0  0  0  0
 13 11  2  0  0  0  0
 15 14  1  0  0  0  0
 16 18  1  0  0  0  0
 16 17  2  0  0  0  0
 18 15  1  0  0  0  0
 19 16  1  0  0  0  0
 20 19  1  0  0  0  0
 21 19  1  0  0  0  0
 22 19  1  0  0  0  0
M  RAD  2  14   2  15   2
M  END
