Coordinates from ORCA-job p-NO2-Ph-N2-OOCCH3-B3LYPG-aug-cc-pVDZ-scan-d09-49-n400
 OpenBabel01151817083D

 22 21  0  0  0  0  0  0  0  0999 V2000
   14.3861    8.4530   -2.6452 C   0  0  0  0  0  0  0  0  0  0  0  0
   13.5129    7.5177   -2.0998 C   0  0  0  0  0  0  0  0  0  0  0  0
   13.8562    6.1626   -2.1085 C   0  0  0  0  0  0  0  0  0  0  0  0
   15.0194    5.7133   -2.7420 C   0  0  0  0  0  0  0  0  0  0  0  0
   15.8957    6.6453   -3.2920 C   0  0  0  0  0  0  0  0  0  0  0  0
   15.5742    8.0030   -3.2266 C   0  0  0  0  0  0  0  0  0  0  0  0
   14.1597    9.5159   -2.6345 H   0  0  0  0  0  0  0  0  0  0  0  0
   12.5795    7.8295   -1.6350 H   0  0  0  0  0  0  0  0  0  0  0  0
   15.2493    4.6522   -2.7855 H   0  0  0  0  0  0  0  0  0  0  0  0
   16.8188    6.3346   -3.7743 H   0  0  0  0  0  0  0  0  0  0  0  0
   16.5044    8.9870   -3.8049 N   0  0  0  0  0  0  0  0  0  0  0  0
   16.2008   10.1759   -3.7274 O   0  0  0  0  0  0  0  0  0  0  0  0
   17.5483    8.5666   -4.2998 O   0  0  0  0  0  0  0  0  0  0  0  0
   14.8935    6.1552    0.0377 N   0  0  0  0  0  0  0  0  0  0  0  0
   15.0671    5.2719    0.6820 N   0  0  0  0  0  0  0  0  0  0  0  0
   12.4353    4.2221   -2.2513 C   0  0  0  0  0  0  0  0  0  0  0  0
   12.7327    3.9910   -3.3937 O   0  0  0  0  0  0  0  0  0  0  0  0
   12.9459    5.2859   -1.5254 O   0  0  0  0  0  0  0  0  0  0  0  0
   11.4716    3.4439   -1.3992 C   0  0  0  0  0  0  0  0  0  0  0  0
   11.9702    3.1094   -0.4800 H   0  0  0  0  0  0  0  0  0  0  0  0
   10.6341    4.0897   -1.1033 H   0  0  0  0  0  0  0  0  0  0  0  0
   11.1015    2.5855   -1.9660 H   0  0  0  0  0  0  0  0  0  0  0  0
  1  7  1  0  0  0  0
  1  2  2  0  0  0  0
  2  8  1  0  0  0  0
  3  2  1  0  0  0  0
  3 18  1  0  0  0  0
  4  3  2  0  0  0  0
  5  6  2  0  0  0  0
  5  4  1  0  0  0  0
  6  1  1  0  0  0  0
  9  4  1  0  0  0  0
 10  5  1  0  0  0  0
 11 12  2  0  0  0  0
 11  6  1  0  0  0  0
 13 11  2  0  0  0  0
 14 15  3  0  0  0  0
 16 18  1  0  0  0  0
 16 19  1  0  0  0  0
 17 16  2  0  0  0  0
 19 21  1  0  0  0  0
 19 20  1  0  0  0  0
 22 19  1  0  0  0  0
M  END
