Coordinates from ORCA-job p-NO2-Ph-N2-OOCCH3-B3LYPG-aug-cc-pVDZ-scan-d09-49-n400
 OpenBabel01151817083D

 22 21  0  0  0  0  0  0  0  0999 V2000
   14.3423    8.4724   -2.7436 C   0  0  0  0  0  0  0  0  0  0  0  0
   13.4218    7.5431   -2.2652 C   0  0  0  0  0  0  0  0  0  0  0  0
   13.6970    6.1768   -2.3750 C   0  0  0  0  0  0  0  0  0  0  0  0
   14.8875    5.7178   -2.9493 C   0  0  0  0  0  0  0  0  0  0  0  0
   15.8090    6.6461   -3.4298 C   0  0  0  0  0  0  0  0  0  0  0  0
   15.5246    8.0090   -3.3232 C   0  0  0  0  0  0  0  0  0  0  0  0
   14.1575    9.5411   -2.6730 H   0  0  0  0  0  0  0  0  0  0  0  0
   12.4924    7.8644   -1.7983 H   0  0  0  0  0  0  0  0  0  0  0  0
   15.0913    4.6537   -3.0247 H   0  0  0  0  0  0  0  0  0  0  0  0
   16.7440    6.3261   -3.8824 H   0  0  0  0  0  0  0  0  0  0  0  0
   16.5025    8.9862   -3.8311 N   0  0  0  0  0  0  0  0  0  0  0  0
   16.2286   10.1798   -3.7223 O   0  0  0  0  0  0  0  0  0  0  0  0
   17.5382    8.5532   -4.3318 O   0  0  0  0  0  0  0  0  0  0  0  0
   15.7694    6.2837    1.6282 N   0  0  0  0  0  0  0  0  0  0  0  0
   15.7016    5.2261    1.9390 N   0  0  0  0  0  0  0  0  0  0  0  0
   12.3472    4.1779   -2.4417 C   0  0  0  0  0  0  0  0  0  0  0  0
   12.7093    3.8680   -3.5471 O   0  0  0  0  0  0  0  0  0  0  0  0
   12.7710    5.3214   -1.7894 O   0  0  0  0  0  0  0  0  0  0  0  0
   11.3823    3.4239   -1.5696 C   0  0  0  0  0  0  0  0  0  0  0  0
   11.8674    3.1579   -0.6211 H   0  0  0  0  0  0  0  0  0  0  0  0
   10.5201    4.0606   -1.3308 H   0  0  0  0  0  0  0  0  0  0  0  0
   11.0524    2.5224   -2.0925 H   0  0  0  0  0  0  0  0  0  0  0  0
  1  7  1  0  0  0  0
  1  2  2  0  0  0  0
  2  8  1  0  0  0  0
  3  2  1  0  0  0  0
  3 18  1  0  0  0  0
  4  3  2  0  0  0  0
  5  6  2  0  0  0  0
  5  4  1  0  0  0  0
  6  1  1  0  0  0  0
  9  4  1  0  0  0  0
 10  5  1  0  0  0  0
 11 12  2  0  0  0  0
 11  6  1  0  0  0  0
 13 11  2  0  0  0  0
 14 15  3  0  0  0  0
 16 18  1  0  0  0  0
 16 19  1  0  0  0  0
 17 16  2  0  0  0  0
 19 21  1  0  0  0  0
 19 20  1  0  0  0  0
 22 19  1  0  0  0  0
M  END
