Coordinates from ORCA-job p-NO2-Ph-N2-OOCCH3-B3LYPG-aug-cc-pVDZ-scan-d09-49-n400
 OpenBabel01151817083D

 22 21  0  0  0  0  0  0  0  0999 V2000
   14.3336    8.4692   -2.7513 C   0  0  0  0  0  0  0  0  0  0  0  0
   13.4103    7.5398   -2.2777 C   0  0  0  0  0  0  0  0  0  0  0  0
   13.6848    6.1727   -2.3876 C   0  0  0  0  0  0  0  0  0  0  0  0
   14.8773    5.7135   -2.9589 C   0  0  0  0  0  0  0  0  0  0  0  0
   15.8018    6.6419   -3.4345 C   0  0  0  0  0  0  0  0  0  0  0  0
   15.5181    8.0055   -3.3272 C   0  0  0  0  0  0  0  0  0  0  0  0
   14.1497    9.5383   -2.6796 H   0  0  0  0  0  0  0  0  0  0  0  0
   12.4784    7.8621   -1.8142 H   0  0  0  0  0  0  0  0  0  0  0  0
   15.0808    4.6483   -3.0356 H   0  0  0  0  0  0  0  0  0  0  0  0
   16.7388    6.3217   -3.8838 H   0  0  0  0  0  0  0  0  0  0  0  0
   16.4991    8.9827   -3.8293 N   0  0  0  0  0  0  0  0  0  0  0  0
   16.2298   10.1764   -3.7115 O   0  0  0  0  0  0  0  0  0  0  0  0
   17.5403    8.5497   -4.3186 O   0  0  0  0  0  0  0  0  0  0  0  0
   15.8855    6.3283    1.7619 N   0  0  0  0  0  0  0  0  0  0  0  0
   15.8021    5.2582    2.0304 N   0  0  0  0  0  0  0  0  0  0  0  0
   12.3327    4.1737   -2.4623 C   0  0  0  0  0  0  0  0  0  0  0  0
   12.6999    3.8638   -3.5660 O   0  0  0  0  0  0  0  0  0  0  0  0
   12.7543    5.3170   -1.8079 O   0  0  0  0  0  0  0  0  0  0  0  0
   11.3627    3.4198   -1.5954 C   0  0  0  0  0  0  0  0  0  0  0  0
   11.8424    3.1535   -0.6443 H   0  0  0  0  0  0  0  0  0  0  0  0
   10.4995    4.0568   -1.3613 H   0  0  0  0  0  0  0  0  0  0  0  0
   11.0352    2.5185   -2.1201 H   0  0  0  0  0  0  0  0  0  0  0  0
  1  7  1  0  0  0  0
  1  2  2  0  0  0  0
  2  8  1  0  0  0  0
  3  2  1  0  0  0  0
  3 18  1  0  0  0  0
  4  3  2  0  0  0  0
  5  6  2  0  0  0  0
  5  4  1  0  0  0  0
  6  1  1  0  0  0  0
  9  4  1  0  0  0  0
 10  5  1  0  0  0  0
 11 12  2  0  0  0  0
 11  6  1  0  0  0  0
 13 11  2  0  0  0  0
 14 15  3  0  0  0  0
 16 18  1  0  0  0  0
 16 19  1  0  0  0  0
 17 16  2  0  0  0  0
 19 21  1  0  0  0  0
 19 20  1  0  0  0  0
 22 19  1  0  0  0  0
M  END
