Coordinates from ORCA-job p-NO2-Ph-N2-OOCCH3-B3LYPG-aug-cc-pVDZ-scan-d09-49-n400
 OpenBabel01151817083D

 22 21  0  0  0  0  0  0  0  0999 V2000
   14.3901    8.4814   -2.6789 C   0  0  0  0  0  0  0  0  0  0  0  0
   13.4912    7.5503   -2.1651 C   0  0  0  0  0  0  0  0  0  0  0  0
   13.7841    6.1868   -2.2494 C   0  0  0  0  0  0  0  0  0  0  0  0
   14.9639    5.7308   -2.8461 C   0  0  0  0  0  0  0  0  0  0  0  0
   15.8645    6.6600   -3.3625 C   0  0  0  0  0  0  0  0  0  0  0  0
   15.5670    8.0213   -3.2721 C   0  0  0  0  0  0  0  0  0  0  0  0
   14.1931    9.5489   -2.6266 H   0  0  0  0  0  0  0  0  0  0  0  0
   12.5663    7.8699   -1.6884 H   0  0  0  0  0  0  0  0  0  0  0  0
   15.1762    4.6675   -2.9104 H   0  0  0  0  0  0  0  0  0  0  0  0
   16.7922    6.3429   -3.8317 H   0  0  0  0  0  0  0  0  0  0  0  0
   16.5232    9.0004   -3.8166 N   0  0  0  0  0  0  0  0  0  0  0  0
   16.2369   10.1925   -3.7246 O   0  0  0  0  0  0  0  0  0  0  0  0
   17.5533    8.5703   -4.3312 O   0  0  0  0  0  0  0  0  0  0  0  0
   15.0653    6.1047    0.5342 N   0  0  0  0  0  0  0  0  0  0  0  0
   15.0966    5.1565    1.0994 N   0  0  0  0  0  0  0  0  0  0  0  0
   12.4255    4.1961   -2.2963 C   0  0  0  0  0  0  0  0  0  0  0  0
   12.7519    3.9012   -3.4167 O   0  0  0  0  0  0  0  0  0  0  0  0
   12.8779    5.3268   -1.6398 O   0  0  0  0  0  0  0  0  0  0  0  0
   11.4820    3.4350   -1.4072 C   0  0  0  0  0  0  0  0  0  0  0  0
   11.9941    3.1485   -0.4791 H   0  0  0  0  0  0  0  0  0  0  0  0
   10.6331    4.0742   -1.1307 H   0  0  0  0  0  0  0  0  0  0  0  0
   11.1285    2.5453   -1.9348 H   0  0  0  0  0  0  0  0  0  0  0  0
  1  7  1  0  0  0  0
  1  2  2  0  0  0  0
  2  8  1  0  0  0  0
  3  2  1  0  0  0  0
  3 18  1  0  0  0  0
  4  3  2  0  0  0  0
  5  6  2  0  0  0  0
  5  4  1  0  0  0  0
  6  1  1  0  0  0  0
  9  4  1  0  0  0  0
 10  5  1  0  0  0  0
 11 12  2  0  0  0  0
 11  6  1  0  0  0  0
 13 11  2  0  0  0  0
 14 15  3  0  0  0  0
 16 18  1  0  0  0  0
 16 19  1  0  0  0  0
 17 16  2  0  0  0  0
 19 21  1  0  0  0  0
 19 20  1  0  0  0  0
 22 19  1  0  0  0  0
M  END
