Coordinates from ORCA-job p-NO2-Ph-N2-OOCCH3-B3LYPG-aug-cc-pVDZ-scan-d09-49-n400
 OpenBabel01151817083D

 22 22  0  0  0  0  0  0  0  0999 V2000
   15.0549    8.7732   -2.6317 C   0  0  0  0  0  0  0  0  0  0  0  0
   14.0970    8.3498   -1.7152 C   0  0  0  0  0  0  0  0  0  0  0  0
   14.1095    7.0261   -1.2399 C   0  0  0  0  0  0  0  0  0  0  0  0
   15.1288    6.1416   -1.6428 C   0  0  0  0  0  0  0  0  0  0  0  0
   16.1089    6.5731   -2.5299 C   0  0  0  0  0  0  0  0  0  0  0  0
   16.0510    7.8782   -3.0243 C   0  0  0  0  0  0  0  0  0  0  0  0
   15.0508    9.7852   -3.0280 H   0  0  0  0  0  0  0  0  0  0  0  0
   13.3264    9.0334   -1.3624 H   0  0  0  0  0  0  0  0  0  0  0  0
   15.1539    5.1288   -1.2480 H   0  0  0  0  0  0  0  0  0  0  0  0
   16.9101    5.9118   -2.8500 H   0  0  0  0  0  0  0  0  0  0  0  0
   17.0808    8.3271   -3.9798 N   0  0  0  0  0  0  0  0  0  0  0  0
   17.0062    9.4793   -4.3992 O   0  0  0  0  0  0  0  0  0  0  0  0
   17.9508    7.5211   -4.3011 O   0  0  0  0  0  0  0  0  0  0  0  0
   13.1918    6.6963   -0.2903 N   0  0  0  0  0  0  0  0  0  0  0  0
   12.4319    5.7471   -0.2545 N   0  0  0  0  0  0  0  0  0  0  0  0
   11.7142    3.7955   -1.4464 C   0  0  0  0  0  0  0  0  0  0  0  0
   11.1985    3.3850   -0.4422 O   0  0  0  0  0  0  0  0  0  0  0  0
   12.4970    4.9369   -1.5132 O   0  0  0  0  0  0  0  0  0  0  0  0
   11.6366    3.1659   -2.8150 C   0  0  0  0  0  0  0  0  0  0  0  0
   11.1382    3.8525   -3.5127 H   0  0  0  0  0  0  0  0  0  0  0  0
   12.6451    2.9733   -3.2043 H   0  0  0  0  0  0  0  0  0  0  0  0
   11.0747    2.2303   -2.7437 H   0  0  0  0  0  0  0  0  0  0  0  0
  1  2  1  0  0  0  0
  2  8  1  0  0  0  0
  2  3  2  0  0  0  0
  3 14  1  0  0  0  0
  4  9  1  0  0  0  0
  4  3  1  0  0  0  0
  5  4  2  0  0  0  0
  6  1  2  0  0  0  0
  6  5  1  0  0  0  0
  7  1  1  0  0  0  0
 10  5  1  0  0  0  0
 11  6  1  0  0  0  0
 12 11  2  0  0  0  0
 13 11  2  0  0  0  0
 14 15  1  0  0  0  0
 16 17  2  0  0  0  0
 18 16  1  0  0  0  0
 18 15  1  0  0  0  0
 19 22  1  0  0  0  0
 19 16  1  0  0  0  0
 20 19  1  0  0  0  0
 21 19  1  0  0  0  0
M  RAD  2  14   2  15   2
M  END
