Coordinates from ORCA-job p-NO2-Ph-N2-OOCCH3-B3LYPG-aug-cc-pVDZ-scan-d09-49-n400
 OpenBabel01151817083D

 22 21  0  0  0  0  0  0  0  0999 V2000
   14.3884    8.4556   -2.6441 C   0  0  0  0  0  0  0  0  0  0  0  0
   13.5116    7.5208   -2.1031 C   0  0  0  0  0  0  0  0  0  0  0  0
   13.8487    6.1652   -2.1206 C   0  0  0  0  0  0  0  0  0  0  0  0
   15.0137    5.7149   -2.7483 C   0  0  0  0  0  0  0  0  0  0  0  0
   15.8937    6.6461   -3.2939 C   0  0  0  0  0  0  0  0  0  0  0  0
   15.5756    8.0042   -3.2255 C   0  0  0  0  0  0  0  0  0  0  0  0
   14.1655    9.5191   -2.6288 H   0  0  0  0  0  0  0  0  0  0  0  0
   12.5789    7.8337   -1.6377 H   0  0  0  0  0  0  0  0  0  0  0  0
   15.2410    4.6533   -2.7939 H   0  0  0  0  0  0  0  0  0  0  0  0
   16.8176    6.3343   -3.7740 H   0  0  0  0  0  0  0  0  0  0  0  0
   16.5096    8.9874   -3.7989 N   0  0  0  0  0  0  0  0  0  0  0  0
   16.2012   10.1757   -3.7335 O   0  0  0  0  0  0  0  0  0  0  0  0
   17.5451    8.5644   -4.3088 O   0  0  0  0  0  0  0  0  0  0  0  0
   14.9004    6.1522    0.0631 N   0  0  0  0  0  0  0  0  0  0  0  0
   15.0644    5.2659    0.7030 N   0  0  0  0  0  0  0  0  0  0  0  0
   12.4357    4.2203   -2.2543 C   0  0  0  0  0  0  0  0  0  0  0  0
   12.7360    3.9839   -3.3949 O   0  0  0  0  0  0  0  0  0  0  0  0
   12.9395    5.2910   -1.5345 O   0  0  0  0  0  0  0  0  0  0  0  0
   11.4743    3.4426   -1.3992 C   0  0  0  0  0  0  0  0  0  0  0  0
   11.9747    3.1117   -0.4796 H   0  0  0  0  0  0  0  0  0  0  0  0
   10.6357    4.0872   -1.1041 H   0  0  0  0  0  0  0  0  0  0  0  0
   11.1058    2.5817   -1.9631 H   0  0  0  0  0  0  0  0  0  0  0  0
  1  7  1  0  0  0  0
  1  2  2  0  0  0  0
  2  8  1  0  0  0  0
  3  2  1  0  0  0  0
  3 18  1  0  0  0  0
  4  3  2  0  0  0  0
  5  6  2  0  0  0  0
  5  4  1  0  0  0  0
  6  1  1  0  0  0  0
  9  4  1  0  0  0  0
 10  5  1  0  0  0  0
 11 12  2  0  0  0  0
 11  6  1  0  0  0  0
 13 11  2  0  0  0  0
 14 15  3  0  0  0  0
 16 18  1  0  0  0  0
 16 19  1  0  0  0  0
 17 16  2  0  0  0  0
 19 21  1  0  0  0  0
 19 20  1  0  0  0  0
 22 19  1  0  0  0  0
M  END
