Coordinates from ORCA-job p-NO2-Ph-N2-OOCCH3-B3LYPG-aug-cc-pVDZ-scan-d09-49-n400
 OpenBabel01151817083D

 22 21  0  0  0  0  0  0  0  0999 V2000
   14.3866    8.4840   -2.6896 C   0  0  0  0  0  0  0  0  0  0  0  0
   13.4855    7.5533   -2.1784 C   0  0  0  0  0  0  0  0  0  0  0  0
   13.7757    6.1894   -2.2665 C   0  0  0  0  0  0  0  0  0  0  0  0
   14.9573    5.7326   -2.8595 C   0  0  0  0  0  0  0  0  0  0  0  0
   15.8601    6.6616   -3.3725 C   0  0  0  0  0  0  0  0  0  0  0  0
   15.5637    8.0232   -3.2817 C   0  0  0  0  0  0  0  0  0  0  0  0
   14.1912    9.5517   -2.6354 H   0  0  0  0  0  0  0  0  0  0  0  0
   12.5607    7.8732   -1.7019 H   0  0  0  0  0  0  0  0  0  0  0  0
   15.1690    4.6692   -2.9236 H   0  0  0  0  0  0  0  0  0  0  0  0
   16.7889    6.3439   -3.8390 H   0  0  0  0  0  0  0  0  0  0  0  0
   16.5222    9.0018   -3.8228 N   0  0  0  0  0  0  0  0  0  0  0  0
   16.2371   10.1941   -3.7302 O   0  0  0  0  0  0  0  0  0  0  0  0
   17.5530    8.5711   -4.3356 O   0  0  0  0  0  0  0  0  0  0  0  0
   15.1116    6.0974    0.6462 N   0  0  0  0  0  0  0  0  0  0  0  0
   15.1274    5.1360    1.1893 N   0  0  0  0  0  0  0  0  0  0  0  0
   12.4206    4.1962   -2.3076 C   0  0  0  0  0  0  0  0  0  0  0  0
   12.7478    3.8984   -3.4269 O   0  0  0  0  0  0  0  0  0  0  0  0
   12.8696    5.3302   -1.6550 O   0  0  0  0  0  0  0  0  0  0  0  0
   11.4793    3.4353   -1.4158 C   0  0  0  0  0  0  0  0  0  0  0  0
   11.9935    3.1507   -0.4882 H   0  0  0  0  0  0  0  0  0  0  0  0
   10.6302    4.0738   -1.1386 H   0  0  0  0  0  0  0  0  0  0  0  0
   11.1261    2.5443   -1.9414 H   0  0  0  0  0  0  0  0  0  0  0  0
  1  7  1  0  0  0  0
  1  2  2  0  0  0  0
  2  8  1  0  0  0  0
  3  2  1  0  0  0  0
  3 18  1  0  0  0  0
  4  3  2  0  0  0  0
  5  6  2  0  0  0  0
  5  4  1  0  0  0  0
  6  1  1  0  0  0  0
  9  4  1  0  0  0  0
 10  5  1  0  0  0  0
 11 12  2  0  0  0  0
 11  6  1  0  0  0  0
 13 11  2  0  0  0  0
 14 15  3  0  0  0  0
 16 18  1  0  0  0  0
 16 19  1  0  0  0  0
 17 16  2  0  0  0  0
 19 21  1  0  0  0  0
 19 20  1  0  0  0  0
 22 19  1  0  0  0  0
M  END
