Coordinates from ORCA-job p-NO2-Ph-N2-OOCCH3-B3LYPG-aug-cc-pVDZ-scan-d09-49-n400
 OpenBabel01151817083D

 22 21  0  0  0  0  0  0  0  0999 V2000
   14.3734    8.4849   -2.7145 C   0  0  0  0  0  0  0  0  0  0  0  0
   13.4666    7.5549   -2.2120 C   0  0  0  0  0  0  0  0  0  0  0  0
   13.7513    6.1899   -2.3079 C   0  0  0  0  0  0  0  0  0  0  0  0
   14.9356    5.7322   -2.8956 C   0  0  0  0  0  0  0  0  0  0  0  0
   15.8435    6.6610   -3.4000 C   0  0  0  0  0  0  0  0  0  0  0  0
   15.5510    8.0231   -3.3047 C   0  0  0  0  0  0  0  0  0  0  0  0
   14.1818    9.5530   -2.6546 H   0  0  0  0  0  0  0  0  0  0  0  0
   12.5410    7.8755   -1.7374 H   0  0  0  0  0  0  0  0  0  0  0  0
   15.1446    4.6686   -2.9632 H   0  0  0  0  0  0  0  0  0  0  0  0
   16.7739    6.3424   -3.8630 H   0  0  0  0  0  0  0  0  0  0  0  0
   16.5151    9.0011   -3.8369 N   0  0  0  0  0  0  0  0  0  0  0  0
   16.2338   10.1939   -3.7391 O   0  0  0  0  0  0  0  0  0  0  0  0
   17.5464    8.5694   -4.3479 O   0  0  0  0  0  0  0  0  0  0  0  0
   15.3008    6.1228    1.0038 N   0  0  0  0  0  0  0  0  0  0  0  0
   15.2884    5.1237    1.4740 N   0  0  0  0  0  0  0  0  0  0  0  0
   12.4014    4.1921   -2.3491 C   0  0  0  0  0  0  0  0  0  0  0  0
   12.7396    3.8869   -3.4633 O   0  0  0  0  0  0  0  0  0  0  0  0
   12.8401    5.3327   -1.7013 O   0  0  0  0  0  0  0  0  0  0  0  0
   11.4551    3.4344   -1.4598 C   0  0  0  0  0  0  0  0  0  0  0  0
   11.9634    3.1561   -0.5270 H   0  0  0  0  0  0  0  0  0  0  0  0
   10.6029    4.0728   -1.1921 H   0  0  0  0  0  0  0  0  0  0  0  0
   11.1075    2.5397   -1.9828 H   0  0  0  0  0  0  0  0  0  0  0  0
  1  7  1  0  0  0  0
  1  2  2  0  0  0  0
  2  8  1  0  0  0  0
  3  2  1  0  0  0  0
  3 18  1  0  0  0  0
  4  3  2  0  0  0  0
  5  6  2  0  0  0  0
  5  4  1  0  0  0  0
  6  1  1  0  0  0  0
  9  4  1  0  0  0  0
 10  5  1  0  0  0  0
 11 12  2  0  0  0  0
 11  6  1  0  0  0  0
 13 11  2  0  0  0  0
 14 15  3  0  0  0  0
 16 18  1  0  0  0  0
 16 19  1  0  0  0  0
 17 16  2  0  0  0  0
 19 21  1  0  0  0  0
 19 20  1  0  0  0  0
 22 19  1  0  0  0  0
M  END
