Coordinates from ORCA-job p-NO2-Ph-N2-OOCCH3-B3LYPG-aug-cc-pVDZ-scan-d09-49-n400
 OpenBabel01151817083D

 22 22  0  0  0  0  0  0  0  0999 V2000
   15.1363    8.7013   -2.8986 C   0  0  0  0  0  0  0  0  0  0  0  0
   14.1149    7.9500   -2.3798 C   0  0  0  0  0  0  0  0  0  0  0  0
   14.3546    6.6066   -1.7625 C   0  0  0  0  0  0  0  0  0  0  0  0
   15.7957    6.2001   -1.7943 C   0  0  0  0  0  0  0  0  0  0  0  0
   16.7640    7.0065   -2.3317 C   0  0  0  0  0  0  0  0  0  0  0  0
   16.4660    8.2571   -2.8911 C   0  0  0  0  0  0  0  0  0  0  0  0
   14.9065    9.6748   -3.3301 H   0  0  0  0  0  0  0  0  0  0  0  0
   13.0780    8.2789   -2.3757 H   0  0  0  0  0  0  0  0  0  0  0  0
   16.0085    5.2279   -1.3550 H   0  0  0  0  0  0  0  0  0  0  0  0
   17.7981    6.6641   -2.3230 H   0  0  0  0  0  0  0  0  0  0  0  0
   17.5082    9.0715   -3.4489 N   0  0  0  0  0  0  0  0  0  0  0  0
   17.1996   10.1717   -3.9255 O   0  0  0  0  0  0  0  0  0  0  0  0
   18.6689    8.6419   -3.4139 O   0  0  0  0  0  0  0  0  0  0  0  0
   13.6427    6.0503   -1.3824 N   0  0  0  0  0  0  0  0  0  0  0  0
   12.7738    5.4033   -0.8337 N   0  0  0  0  0  0  0  0  0  0  0  0
   11.1853    3.7108   -1.2987 C   0  0  0  0  0  0  0  0  0  0  0  0
   10.8560    3.7357   -0.1497 O   0  0  0  0  0  0  0  0  0  0  0  0
   12.2028    4.5234   -1.8317 O   0  0  0  0  0  0  0  0  0  0  0  0
   10.6277    2.8594   -2.4054 C   0  0  0  0  0  0  0  0  0  0  0  0
   10.1157    3.4981   -3.1382 H   0  0  0  0  0  0  0  0  0  0  0  0
   11.4349    2.3317   -2.9291 H   0  0  0  0  0  0  0  0  0  0  0  0
    9.9188    2.1462   -1.9757 H   0  0  0  0  0  0  0  0  0  0  0  0
  1  6  2  0  0  0  0
  1  2  1  0  0  0  0
  2  8  1  0  0  0  0
  2  3  2  0  0  0  0
  3 14  1  0  0  0  0
  4  3  1  0  0  0  0
  4  9  1  0  0  0  0
  5 10  1  0  0  0  0
  5  4  2  0  0  0  0
  6  5  1  0  0  0  0
  7  1  1  0  0  0  0
 11 13  2  0  0  0  0
 11  6  1  0  0  0  0
 12 11  2  0  0  0  0
 14 15  1  0  0  0  0
 16 17  2  0  0  0  0
 18 16  1  0  0  0  0
 18 15  1  0  0  0  0
 19 22  1  0  0  0  0
 19 16  1  0  0  0  0
 20 19  1  0  0  0  0
 21 19  1  0  0  0  0
M  RAD  2  14   2  15   2
M  END
