Coordinates from ORCA-job p-NO2-Ph-N2-OOCCH3-B3LYPG-aug-cc-pVDZ-scan-d09-49-n400
 OpenBabel01151817083D

 22 21  0  0  0  0  0  0  0  0999 V2000
   14.3312    8.4669   -2.7513 C   0  0  0  0  0  0  0  0  0  0  0  0
   13.4063    7.5379   -2.2809 C   0  0  0  0  0  0  0  0  0  0  0  0
   13.6799    6.1713   -2.3921 C   0  0  0  0  0  0  0  0  0  0  0  0
   14.8730    5.7119   -2.9606 C   0  0  0  0  0  0  0  0  0  0  0  0
   15.7990    6.6398   -3.4332 C   0  0  0  0  0  0  0  0  0  0  0  0
   15.5162    8.0030   -3.3250 C   0  0  0  0  0  0  0  0  0  0  0  0
   14.1478    9.5356   -2.6789 H   0  0  0  0  0  0  0  0  0  0  0  0
   12.4746    7.8598   -1.8192 H   0  0  0  0  0  0  0  0  0  0  0  0
   15.0757    4.6478   -3.0375 H   0  0  0  0  0  0  0  0  0  0  0  0
   16.7362    6.3194   -3.8807 H   0  0  0  0  0  0  0  0  0  0  0  0
   16.4988    8.9798   -3.8244 N   0  0  0  0  0  0  0  0  0  0  0  0
   16.2258   10.1735   -3.7151 O   0  0  0  0  0  0  0  0  0  0  0  0
   17.5361    8.5463   -4.3214 O   0  0  0  0  0  0  0  0  0  0  0  0
   15.9277    6.3433    1.8112 N   0  0  0  0  0  0  0  0  0  0  0  0
   15.8379    5.2716    2.0620 N   0  0  0  0  0  0  0  0  0  0  0  0
   12.3288    4.1737   -2.4711 C   0  0  0  0  0  0  0  0  0  0  0  0
   12.6987    3.8642   -3.5740 O   0  0  0  0  0  0  0  0  0  0  0  0
   12.7484    5.3164   -1.8149 O   0  0  0  0  0  0  0  0  0  0  0  0
   11.3569    3.4199   -1.6066 C   0  0  0  0  0  0  0  0  0  0  0  0
   11.8345    3.1535   -0.6544 H   0  0  0  0  0  0  0  0  0  0  0  0
   10.4932    4.0570   -1.3743 H   0  0  0  0  0  0  0  0  0  0  0  0
   11.0306    2.5187   -2.1323 H   0  0  0  0  0  0  0  0  0  0  0  0
  1  7  1  0  0  0  0
  1  2  2  0  0  0  0
  2  8  1  0  0  0  0
  3  2  1  0  0  0  0
  3 18  1  0  0  0  0
  4  3  2  0  0  0  0
  5  6  2  0  0  0  0
  5  4  1  0  0  0  0
  6  1  1  0  0  0  0
  9  4  1  0  0  0  0
 10  5  1  0  0  0  0
 11 12  2  0  0  0  0
 11  6  1  0  0  0  0
 13 11  2  0  0  0  0
 14 15  3  0  0  0  0
 16 18  1  0  0  0  0
 16 19  1  0  0  0  0
 17 16  2  0  0  0  0
 19 21  1  0  0  0  0
 19 20  1  0  0  0  0
 22 19  1  0  0  0  0
M  END
