Coordinates from ORCA-job p-NO2-Ph-N2-OOCCH3-B3LYPG-aug-cc-pVDZ-scan-d09-49-n400
 OpenBabel01151817083D

 22 21  0  0  0  0  0  0  0  0999 V2000
   14.3557    8.4792   -2.7332 C   0  0  0  0  0  0  0  0  0  0  0  0
   13.4409    7.5497   -2.2445 C   0  0  0  0  0  0  0  0  0  0  0  0
   13.7196    6.1838   -2.3493 C   0  0  0  0  0  0  0  0  0  0  0  0
   14.9075    5.7252   -2.9290 C   0  0  0  0  0  0  0  0  0  0  0  0
   15.8234    6.6537   -3.4197 C   0  0  0  0  0  0  0  0  0  0  0  0
   15.5357    8.0163   -3.3179 C   0  0  0  0  0  0  0  0  0  0  0  0
   14.1684    9.5477   -2.6668 H   0  0  0  0  0  0  0  0  0  0  0  0
   12.5136    7.8706   -1.7733 H   0  0  0  0  0  0  0  0  0  0  0  0
   15.1135    4.6613   -3.0006 H   0  0  0  0  0  0  0  0  0  0  0  0
   16.7564    6.3342   -3.8768 H   0  0  0  0  0  0  0  0  0  0  0  0
   16.5079    8.9938   -3.8363 N   0  0  0  0  0  0  0  0  0  0  0  0
   16.2313   10.1871   -3.7316 O   0  0  0  0  0  0  0  0  0  0  0  0
   17.5418    8.5612   -4.3412 O   0  0  0  0  0  0  0  0  0  0  0  0
   15.5610    6.2047    1.3677 N   0  0  0  0  0  0  0  0  0  0  0  0
   15.5249    5.1718    1.7570 N   0  0  0  0  0  0  0  0  0  0  0  0
   12.3713    4.1841   -2.4019 C   0  0  0  0  0  0  0  0  0  0  0  0
   12.7235    3.8746   -3.5105 O   0  0  0  0  0  0  0  0  0  0  0  0
   12.8003    5.3279   -1.7535 O   0  0  0  0  0  0  0  0  0  0  0  0
   11.4151    3.4292   -1.5211 C   0  0  0  0  0  0  0  0  0  0  0  0
   11.9103    3.1604   -0.5785 H   0  0  0  0  0  0  0  0  0  0  0  0
   10.5562    4.0661   -1.2713 H   0  0  0  0  0  0  0  0  0  0  0  0
   11.0788    2.5291   -2.0423 H   0  0  0  0  0  0  0  0  0  0  0  0
  1  7  1  0  0  0  0
  1  2  2  0  0  0  0
  2  8  1  0  0  0  0
  3  2  1  0  0  0  0
  3 18  1  0  0  0  0
  4  3  2  0  0  0  0
  5  6  2  0  0  0  0
  5  4  1  0  0  0  0
  6  1  1  0  0  0  0
  9  4  1  0  0  0  0
 10  5  1  0  0  0  0
 11 12  2  0  0  0  0
 11  6  1  0  0  0  0
 13 11  2  0  0  0  0
 14 15  3  0  0  0  0
 16 18  1  0  0  0  0
 16 19  1  0  0  0  0
 17 16  2  0  0  0  0
 19 21  1  0  0  0  0
 19 20  1  0  0  0  0
 22 19  1  0  0  0  0
M  END
