Coordinates from ORCA-job p-NO2-Ph-N2-OOCCH3-B3LYPG-aug-cc-pVDZ-scan-d09-49-n400
 OpenBabel01151817083D

 22 21  0  0  0  0  0  0  0  0999 V2000
   14.3468    8.4747   -2.7402 C   0  0  0  0  0  0  0  0  0  0  0  0
   13.4282    7.5453   -2.2583 C   0  0  0  0  0  0  0  0  0  0  0  0
   13.7045    6.1791   -2.3665 C   0  0  0  0  0  0  0  0  0  0  0  0
   14.8941    5.7203   -2.9429 C   0  0  0  0  0  0  0  0  0  0  0  0
   15.8137    6.6487   -3.4268 C   0  0  0  0  0  0  0  0  0  0  0  0
   15.5282    8.0115   -3.3217 C   0  0  0  0  0  0  0  0  0  0  0  0
   14.1612    9.5433   -2.6709 H   0  0  0  0  0  0  0  0  0  0  0  0
   12.4996    7.8665   -1.7898 H   0  0  0  0  0  0  0  0  0  0  0  0
   15.0986    4.6562   -3.0172 H   0  0  0  0  0  0  0  0  0  0  0  0
   16.7479    6.3289   -3.8810 H   0  0  0  0  0  0  0  0  0  0  0  0
   16.5043    8.9888   -3.8331 N   0  0  0  0  0  0  0  0  0  0  0  0
   16.2295   10.1823   -3.7256 O   0  0  0  0  0  0  0  0  0  0  0  0
   17.5393    8.5559   -4.3353 O   0  0  0  0  0  0  0  0  0  0  0  0
   15.6994    6.2570    1.5418 N   0  0  0  0  0  0  0  0  0  0  0  0
   15.6436    5.2075    1.8813 N   0  0  0  0  0  0  0  0  0  0  0  0
   12.3553    4.1800   -2.4285 C   0  0  0  0  0  0  0  0  0  0  0  0
   12.7141    3.8701   -3.5350 O   0  0  0  0  0  0  0  0  0  0  0  0
   12.7807    5.3236   -1.7776 O   0  0  0  0  0  0  0  0  0  0  0  0
   11.3932    3.4257   -1.5535 C   0  0  0  0  0  0  0  0  0  0  0  0
   11.8816    3.1591   -0.6068 H   0  0  0  0  0  0  0  0  0  0  0  0
   10.5320    4.0624   -1.3114 H   0  0  0  0  0  0  0  0  0  0  0  0
   11.0614    2.5245   -2.0757 H   0  0  0  0  0  0  0  0  0  0  0  0
  1  7  1  0  0  0  0
  1  2  2  0  0  0  0
  2  8  1  0  0  0  0
  3  2  1  0  0  0  0
  3 18  1  0  0  0  0
  4  3  2  0  0  0  0
  5  6  2  0  0  0  0
  5  4  1  0  0  0  0
  6  1  1  0  0  0  0
  9  4  1  0  0  0  0
 10  5  1  0  0  0  0
 11 12  2  0  0  0  0
 11  6  1  0  0  0  0
 13 11  2  0  0  0  0
 14 15  3  0  0  0  0
 16 18  1  0  0  0  0
 16 19  1  0  0  0  0
 17 16  2  0  0  0  0
 19 21  1  0  0  0  0
 19 20  1  0  0  0  0
 22 19  1  0  0  0  0
M  END
