Coordinates from ORCA-job p-NO2-Ph-N2-OOCCH3-B3LYPG-aug-cc-pVDZ-scan-d09-49-n400
 OpenBabel01151817083D

 22 21  0  0  0  0  0  0  0  0999 V2000
   14.3911    8.4673   -2.6538 C   0  0  0  0  0  0  0  0  0  0  0  0
   13.5022    7.5344   -2.1274 C   0  0  0  0  0  0  0  0  0  0  0  0
   13.8172    6.1747   -2.1777 C   0  0  0  0  0  0  0  0  0  0  0  0
   14.9910    5.7215   -2.7865 C   0  0  0  0  0  0  0  0  0  0  0  0
   15.8824    6.6514   -3.3165 C   0  0  0  0  0  0  0  0  0  0  0  0
   15.5742    8.0113   -3.2386 C   0  0  0  0  0  0  0  0  0  0  0  0
   14.1812    9.5331   -2.6208 H   0  0  0  0  0  0  0  0  0  0  0  0
   12.5729    7.8512   -1.6580 H   0  0  0  0  0  0  0  0  0  0  0  0
   15.2112    4.6590   -2.8391 H   0  0  0  0  0  0  0  0  0  0  0  0
   16.8094    6.3369   -3.7888 H   0  0  0  0  0  0  0  0  0  0  0  0
   16.5205    8.9924   -3.7962 N   0  0  0  0  0  0  0  0  0  0  0  0
   16.2230   10.1828   -3.7187 O   0  0  0  0  0  0  0  0  0  0  0  0
   17.5543    8.5657   -4.3063 O   0  0  0  0  0  0  0  0  0  0  0  0
   14.9478    6.1366    0.1902 N   0  0  0  0  0  0  0  0  0  0  0  0
   15.0704    5.2335    0.8145 N   0  0  0  0  0  0  0  0  0  0  0  0
   12.4315    4.2066   -2.2664 C   0  0  0  0  0  0  0  0  0  0  0  0
   12.7432    3.9411   -3.3979 O   0  0  0  0  0  0  0  0  0  0  0  0
   12.9109    5.3078   -1.5781 O   0  0  0  0  0  0  0  0  0  0  0  0
   11.4802    3.4366   -1.3933 C   0  0  0  0  0  0  0  0  0  0  0  0
   11.9875    3.1281   -0.4697 H   0  0  0  0  0  0  0  0  0  0  0  0
   10.6365    4.0784   -1.1068 H   0  0  0  0  0  0  0  0  0  0  0  0
   11.1189    2.5609   -1.9388 H   0  0  0  0  0  0  0  0  0  0  0  0
  1  7  1  0  0  0  0
  1  2  2  0  0  0  0
  2  8  1  0  0  0  0
  3  2  1  0  0  0  0
  3 18  1  0  0  0  0
  4  3  2  0  0  0  0
  5  6  2  0  0  0  0
  5  4  1  0  0  0  0
  6  1  1  0  0  0  0
  9  4  1  0  0  0  0
 10  5  1  0  0  0  0
 11 12  2  0  0  0  0
 11  6  1  0  0  0  0
 13 11  2  0  0  0  0
 14 15  3  0  0  0  0
 16 18  1  0  0  0  0
 16 19  1  0  0  0  0
 17 16  2  0  0  0  0
 19 21  1  0  0  0  0
 19 20  1  0  0  0  0
 22 19  1  0  0  0  0
M  END
