Coordinates from ORCA-job p-NO2-Ph-N2-OOCCH3-B3LYPG-aug-cc-pVDZ-scan-d09-49-n400
 OpenBabel01151817083D

 22 21  0  0  0  0  0  0  0  0999 V2000
   14.8427    8.4474   -2.9046 C   0  0  0  0  0  0  0  0  0  0  0  0
   13.9802    7.9632   -1.9099 C   0  0  0  0  0  0  0  0  0  0  0  0
   14.4388    6.8764   -1.2042 C   0  0  0  0  0  0  0  0  0  0  0  0
   15.6397    6.2214   -1.3400 C   0  0  0  0  0  0  0  0  0  0  0  0
   16.4907    6.7177   -2.3387 C   0  0  0  0  0  0  0  0  0  0  0  0
   16.0740    7.8151   -3.0970 C   0  0  0  0  0  0  0  0  0  0  0  0
   14.5698    9.3012   -3.5207 H   0  0  0  0  0  0  0  0  0  0  0  0
   13.0134    8.4247   -1.7220 H   0  0  0  0  0  0  0  0  0  0  0  0
   15.9223    5.3715   -0.7231 H   0  0  0  0  0  0  0  0  0  0  0  0
   17.4618    6.2658   -2.5277 H   0  0  0  0  0  0  0  0  0  0  0  0
   16.9769    8.3317   -4.1475 N   0  0  0  0  0  0  0  0  0  0  0  0
   16.5946    9.2972   -4.8023 O   0  0  0  0  0  0  0  0  0  0  0  0
   18.0548    7.7644   -4.3010 O   0  0  0  0  0  0  0  0  0  0  0  0
   13.1753    6.2335    0.5085 N   0  0  0  0  0  0  0  0  0  0  0  0
   12.3867    5.4014    0.2703 N   0  0  0  0  0  0  0  0  0  0  0  0
   11.4773    3.9429   -1.5101 C   0  0  0  0  0  0  0  0  0  0  0  0
   10.7156    3.4707   -0.7046 O   0  0  0  0  0  0  0  0  0  0  0  0
   12.4008    4.9170   -1.2431 O   0  0  0  0  0  0  0  0  0  0  0  0
   11.5674    3.5550   -2.9721 C   0  0  0  0  0  0  0  0  0  0  0  0
   11.3544    4.4255   -3.6065 H   0  0  0  0  0  0  0  0  0  0  0  0
   12.5805    3.2060   -3.2109 H   0  0  0  0  0  0  0  0  0  0  0  0
   10.8396    2.7617   -3.1675 H   0  0  0  0  0  0  0  0  0  0  0  0
  1  2  1  0  0  0  0
  2  8  1  0  0  0  0
  2  3  2  0  0  0  0
  4  3  1  0  0  0  0
  4  9  1  0  0  0  0
  5  4  2  0  0  0  0
  6  1  2  0  0  0  0
  6  5  1  0  0  0  0
  7  1  1  0  0  0  0
 10  5  1  0  0  0  0
 11  6  1  0  0  0  0
 12 11  2  0  0  0  0
 13 11  2  0  0  0  0
 15 14  1  0  0  0  0
 16 18  1  0  0  0  0
 16 17  2  0  0  0  0
 18 15  1  0  0  0  0
 19 16  1  0  0  0  0
 20 19  1  0  0  0  0
 21 19  1  0  0  0  0
 22 19  1  0  0  0  0
M  RAD  3   3   2  14   3  15   2
M  END
