Coordinates from ORCA-job p-NO2-Ph-N2-OOCCH3-B3LYPG-aug-cc-pVDZ-scan-d09-49-n400
 OpenBabel01151817083D

 22 22  0  0  0  0  0  0  0  0999 V2000
   14.8022    8.4202   -2.8576 C   0  0  0  0  0  0  0  0  0  0  0  0
   13.9493    7.9444   -1.8576 C   0  0  0  0  0  0  0  0  0  0  0  0
   14.3684    6.8445   -1.1269 C   0  0  0  0  0  0  0  0  0  0  0  0
   15.5869    6.2063   -1.2925 C   0  0  0  0  0  0  0  0  0  0  0  0
   16.4373    6.6851   -2.2932 C   0  0  0  0  0  0  0  0  0  0  0  0
   16.0272    7.7797   -3.0580 C   0  0  0  0  0  0  0  0  0  0  0  0
   14.5328    9.2741   -3.4741 H   0  0  0  0  0  0  0  0  0  0  0  0
   12.9905    8.4210   -1.6644 H   0  0  0  0  0  0  0  0  0  0  0  0
   15.8730    5.3610   -0.6701 H   0  0  0  0  0  0  0  0  0  0  0  0
   17.4045    6.2265   -2.4829 H   0  0  0  0  0  0  0  0  0  0  0  0
   16.9271    8.2835   -4.1160 N   0  0  0  0  0  0  0  0  0  0  0  0
   16.5482    9.2478   -4.7753 O   0  0  0  0  0  0  0  0  0  0  0  0
   17.9999    7.7070   -4.2743 O   0  0  0  0  0  0  0  0  0  0  0  0
   13.3601    6.3421    0.2411 N   0  0  0  0  0  0  0  0  0  0  0  0
   12.5332    5.4849    0.0572 N   0  0  0  0  0  0  0  0  0  0  0  0
   11.5496    3.9850   -1.5324 C   0  0  0  0  0  0  0  0  0  0  0  0
   10.8377    3.5463   -0.6717 O   0  0  0  0  0  0  0  0  0  0  0  0
   12.4983    4.9822   -1.3361 O   0  0  0  0  0  0  0  0  0  0  0  0
   11.5764    3.5644   -2.9804 C   0  0  0  0  0  0  0  0  0  0  0  0
   11.2917    4.4113   -3.6194 H   0  0  0  0  0  0  0  0  0  0  0  0
   12.5895    3.2556   -3.2692 H   0  0  0  0  0  0  0  0  0  0  0  0
   10.8735    2.7384   -3.1208 H   0  0  0  0  0  0  0  0  0  0  0  0
  1  2  1  0  0  0  0
  2  8  1  0  0  0  0
  2  3  2  0  0  0  0
  3 14  1  0  0  0  0
  4  3  1  0  0  0  0
  4  9  1  0  0  0  0
  5  4  2  0  0  0  0
  6  1  2  0  0  0  0
  6  5  1  0  0  0  0
  7  1  1  0  0  0  0
 10  5  1  0  0  0  0
 11  6  1  0  0  0  0
 12 11  2  0  0  0  0
 13 11  2  0  0  0  0
 15 14  1  0  0  0  0
 16 18  1  0  0  0  0
 16 17  2  0  0  0  0
 18 15  1  0  0  0  0
 19 16  1  0  0  0  0
 20 19  1  0  0  0  0
 21 19  1  0  0  0  0
 22 19  1  0  0  0  0
M  RAD  2  14   2  15   2
M  END
