Coordinates from ORCA-job p-NO2-Ph-N2-OOCCH3-B3LYPG-aug-cc-pVDZ-scan-d09-49-n400
 OpenBabel01151817083D

 22 21  0  0  0  0  0  0  0  0999 V2000
   14.3830    8.4846   -2.6970 C   0  0  0  0  0  0  0  0  0  0  0  0
   13.4796    7.5543   -2.1890 C   0  0  0  0  0  0  0  0  0  0  0  0
   13.7676    6.1900   -2.2802 C   0  0  0  0  0  0  0  0  0  0  0  0
   14.9501    5.7328   -2.8711 C   0  0  0  0  0  0  0  0  0  0  0  0
   15.8549    6.6616   -3.3811 C   0  0  0  0  0  0  0  0  0  0  0  0
   15.5602    8.0234   -3.2885 C   0  0  0  0  0  0  0  0  0  0  0  0
   14.1891    9.5525   -2.6404 H   0  0  0  0  0  0  0  0  0  0  0  0
   12.5545    7.8746   -1.7132 H   0  0  0  0  0  0  0  0  0  0  0  0
   15.1607    4.6693   -2.9366 H   0  0  0  0  0  0  0  0  0  0  0  0
   16.7842    6.3435   -3.8464 H   0  0  0  0  0  0  0  0  0  0  0  0
   16.5209    9.0017   -3.8262 N   0  0  0  0  0  0  0  0  0  0  0  0
   16.2374   10.1942   -3.7313 O   0  0  0  0  0  0  0  0  0  0  0  0
   17.5517    8.5706   -4.3385 O   0  0  0  0  0  0  0  0  0  0  0  0
   15.1646    6.1032    0.7481 N   0  0  0  0  0  0  0  0  0  0  0  0
   15.1744    5.1327    1.2747 N   0  0  0  0  0  0  0  0  0  0  0  0
   12.4150    4.1945   -2.3196 C   0  0  0  0  0  0  0  0  0  0  0  0
   12.7459    3.8935   -3.4371 O   0  0  0  0  0  0  0  0  0  0  0  0
   12.8600    5.3316   -1.6697 O   0  0  0  0  0  0  0  0  0  0  0  0
   11.4729    3.4348   -1.4277 C   0  0  0  0  0  0  0  0  0  0  0  0
   11.9862    3.1522   -0.4990 H   0  0  0  0  0  0  0  0  0  0  0  0
   10.6231    4.0733   -1.1527 H   0  0  0  0  0  0  0  0  0  0  0  0
   11.1210    2.5425   -1.9521 H   0  0  0  0  0  0  0  0  0  0  0  0
  1  7  1  0  0  0  0
  1  2  2  0  0  0  0
  2  8  1  0  0  0  0
  3  2  1  0  0  0  0
  3 18  1  0  0  0  0
  4  3  2  0  0  0  0
  5  6  2  0  0  0  0
  5  4  1  0  0  0  0
  6  1  1  0  0  0  0
  9  4  1  0  0  0  0
 10  5  1  0  0  0  0
 11 12  2  0  0  0  0
 11  6  1  0  0  0  0
 13 11  2  0  0  0  0
 14 15  3  0  0  0  0
 16 18  1  0  0  0  0
 16 19  1  0  0  0  0
 17 16  2  0  0  0  0
 19 21  1  0  0  0  0
 19 20  1  0  0  0  0
 22 19  1  0  0  0  0
M  END
