Coordinates from ORCA-job p-NO2-Ph-N2-OOCCH3-B3LYPG-aug-cc-pVDZ-scan-d09-49-n400
 OpenBabel01151817083D

 22 21  0  0  0  0  0  0  0  0999 V2000
   14.3483    8.4755   -2.7389 C   0  0  0  0  0  0  0  0  0  0  0  0
   13.4305    7.5460   -2.2559 C   0  0  0  0  0  0  0  0  0  0  0  0
   13.7072    6.1799   -2.3633 C   0  0  0  0  0  0  0  0  0  0  0  0
   14.8964    5.7211   -2.9405 C   0  0  0  0  0  0  0  0  0  0  0  0
   15.8153    6.6495   -3.4255 C   0  0  0  0  0  0  0  0  0  0  0  0
   15.5295    8.0123   -3.3209 C   0  0  0  0  0  0  0  0  0  0  0  0
   14.1625    9.5440   -2.6701 H   0  0  0  0  0  0  0  0  0  0  0  0
   12.5021    7.8672   -1.7871 H   0  0  0  0  0  0  0  0  0  0  0  0
   15.1010    4.6572   -3.0145 H   0  0  0  0  0  0  0  0  0  0  0  0
   16.7493    6.3298   -3.8803 H   0  0  0  0  0  0  0  0  0  0  0  0
   16.5049    8.9896   -3.8334 N   0  0  0  0  0  0  0  0  0  0  0  0
   16.2293   10.1830   -3.7275 O   0  0  0  0  0  0  0  0  0  0  0  0
   17.5392    8.5567   -4.3373 O   0  0  0  0  0  0  0  0  0  0  0  0
   15.6762    6.2479    1.5134 N   0  0  0  0  0  0  0  0  0  0  0  0
   15.6241    5.2014    1.8620 N   0  0  0  0  0  0  0  0  0  0  0  0
   12.3581    4.1808   -2.4241 C   0  0  0  0  0  0  0  0  0  0  0  0
   12.7158    3.8712   -3.5310 O   0  0  0  0  0  0  0  0  0  0  0  0
   12.7840    5.3244   -1.7735 O   0  0  0  0  0  0  0  0  0  0  0  0
   11.3969    3.4263   -1.5484 C   0  0  0  0  0  0  0  0  0  0  0  0
   11.8862    3.1593   -0.6022 H   0  0  0  0  0  0  0  0  0  0  0  0
   10.5360    4.0630   -1.3051 H   0  0  0  0  0  0  0  0  0  0  0  0
   11.0645    2.5253   -2.0705 H   0  0  0  0  0  0  0  0  0  0  0  0
  1  7  1  0  0  0  0
  1  2  2  0  0  0  0
  2  8  1  0  0  0  0
  3  2  1  0  0  0  0
  3 18  1  0  0  0  0
  4  3  2  0  0  0  0
  5  6  2  0  0  0  0
  5  4  1  0  0  0  0
  6  1  1  0  0  0  0
  9  4  1  0  0  0  0
 10  5  1  0  0  0  0
 11 12  2  0  0  0  0
 11  6  1  0  0  0  0
 13 11  2  0  0  0  0
 14 15  3  0  0  0  0
 16 18  1  0  0  0  0
 16 19  1  0  0  0  0
 17 16  2  0  0  0  0
 19 21  1  0  0  0  0
 19 20  1  0  0  0  0
 22 19  1  0  0  0  0
M  END
