Coordinates from ORCA-job p-NO2-Ph-N2-OOCCH3-B3LYPG-aug-cc-pVDZ-scan-d09-49-n400
 OpenBabel01151817083D

 22 21  0  0  0  0  0  0  0  0999 V2000
   14.3711    8.4848   -2.7178 C   0  0  0  0  0  0  0  0  0  0  0  0
   13.4627    7.5549   -2.2179 C   0  0  0  0  0  0  0  0  0  0  0  0
   13.7461    6.1898   -2.3160 C   0  0  0  0  0  0  0  0  0  0  0  0
   14.9314    5.7317   -2.9012 C   0  0  0  0  0  0  0  0  0  0  0  0
   15.8409    6.6604   -3.4031 C   0  0  0  0  0  0  0  0  0  0  0  0
   15.5492    8.0226   -3.3068 C   0  0  0  0  0  0  0  0  0  0  0  0
   14.1803    9.5529   -2.6565 H   0  0  0  0  0  0  0  0  0  0  0  0
   12.5369    7.8753   -1.7433 H   0  0  0  0  0  0  0  0  0  0  0  0
   15.1399    4.6680   -2.9685 H   0  0  0  0  0  0  0  0  0  0  0  0
   16.7717    6.3415   -3.8648 H   0  0  0  0  0  0  0  0  0  0  0  0
   16.5148    9.0004   -3.8367 N   0  0  0  0  0  0  0  0  0  0  0  0
   16.2339   10.1933   -3.7387 O   0  0  0  0  0  0  0  0  0  0  0  0
   17.5462    8.5685   -4.3473 O   0  0  0  0  0  0  0  0  0  0  0  0
   15.3337    6.1310    1.0556 N   0  0  0  0  0  0  0  0  0  0  0  0
   15.3184    5.1264    1.5140 N   0  0  0  0  0  0  0  0  0  0  0  0
   12.3971    4.1912   -2.3564 C   0  0  0  0  0  0  0  0  0  0  0  0
   12.7364    3.8851   -3.4700 O   0  0  0  0  0  0  0  0  0  0  0  0
   12.8344    5.3328   -1.7095 O   0  0  0  0  0  0  0  0  0  0  0  0
   11.4509    3.4337   -1.4669 C   0  0  0  0  0  0  0  0  0  0  0  0
   11.9588    3.1574   -0.5333 H   0  0  0  0  0  0  0  0  0  0  0  0
   10.5977    4.0716   -1.2008 H   0  0  0  0  0  0  0  0  0  0  0  0
   11.1047    2.5378   -1.9888 H   0  0  0  0  0  0  0  0  0  0  0  0
  1  7  1  0  0  0  0
  1  2  2  0  0  0  0
  2  8  1  0  0  0  0
  3  2  1  0  0  0  0
  3 18  1  0  0  0  0
  4  3  2  0  0  0  0
  5  6  2  0  0  0  0
  5  4  1  0  0  0  0
  6  1  1  0  0  0  0
  9  4  1  0  0  0  0
 10  5  1  0  0  0  0
 11 12  2  0  0  0  0
 11  6  1  0  0  0  0
 13 11  2  0  0  0  0
 14 15  3  0  0  0  0
 16 18  1  0  0  0  0
 16 19  1  0  0  0  0
 17 16  2  0  0  0  0
 19 21  1  0  0  0  0
 19 20  1  0  0  0  0
 22 19  1  0  0  0  0
M  END
