Coordinates from ORCA-job p-NO2-Ph-N2-OOCCH3-B3LYPG-aug-cc-pVDZ-scan-d09-49-n400
 OpenBabel01151817083D

 22 21  0  0  0  0  0  0  0  0999 V2000
   14.3898    8.4818   -2.6803 C   0  0  0  0  0  0  0  0  0  0  0  0
   13.4906    7.5507   -2.1668 C   0  0  0  0  0  0  0  0  0  0  0  0
   13.7829    6.1872   -2.2523 C   0  0  0  0  0  0  0  0  0  0  0  0
   14.9630    5.7311   -2.8483 C   0  0  0  0  0  0  0  0  0  0  0  0
   15.8639    6.6603   -3.3642 C   0  0  0  0  0  0  0  0  0  0  0  0
   15.5665    8.0217   -3.2738 C   0  0  0  0  0  0  0  0  0  0  0  0
   14.1932    9.5494   -2.6274 H   0  0  0  0  0  0  0  0  0  0  0  0
   12.5660    7.8702   -1.6896 H   0  0  0  0  0  0  0  0  0  0  0  0
   15.1754    4.6678   -2.9120 H   0  0  0  0  0  0  0  0  0  0  0  0
   16.7918    6.3432   -3.8330 H   0  0  0  0  0  0  0  0  0  0  0  0
   16.5230    9.0007   -3.8178 N   0  0  0  0  0  0  0  0  0  0  0  0
   16.2370   10.1928   -3.7255 O   0  0  0  0  0  0  0  0  0  0  0  0
   17.5531    8.5705   -4.3324 O   0  0  0  0  0  0  0  0  0  0  0  0
   15.0710    6.1035    0.5502 N   0  0  0  0  0  0  0  0  0  0  0  0
   15.0989    5.1531    1.1118 N   0  0  0  0  0  0  0  0  0  0  0  0
   12.4251    4.1961   -2.2978 C   0  0  0  0  0  0  0  0  0  0  0  0
   12.7514    3.9007   -3.4181 O   0  0  0  0  0  0  0  0  0  0  0  0
   12.8770    5.3272   -1.6419 O   0  0  0  0  0  0  0  0  0  0  0  0
   11.4819    3.4351   -1.4082 C   0  0  0  0  0  0  0  0  0  0  0  0
   11.9943    3.1489   -0.4801 H   0  0  0  0  0  0  0  0  0  0  0  0
   10.6330    4.0743   -1.1316 H   0  0  0  0  0  0  0  0  0  0  0  0
   11.1283    2.5452   -1.9355 H   0  0  0  0  0  0  0  0  0  0  0  0
  1  7  1  0  0  0  0
  1  2  2  0  0  0  0
  2  8  1  0  0  0  0
  3  2  1  0  0  0  0
  3 18  1  0  0  0  0
  4  3  2  0  0  0  0
  5  6  2  0  0  0  0
  5  4  1  0  0  0  0
  6  1  1  0  0  0  0
  9  4  1  0  0  0  0
 10  5  1  0  0  0  0
 11 12  2  0  0  0  0
 11  6  1  0  0  0  0
 13 11  2  0  0  0  0
 14 15  3  0  0  0  0
 16 18  1  0  0  0  0
 16 19  1  0  0  0  0
 17 16  2  0  0  0  0
 19 21  1  0  0  0  0
 19 20  1  0  0  0  0
 22 19  1  0  0  0  0
M  END
