Coordinates from ORCA-job p-NO2-Ph-N2-OOCCH3-B3LYPG-aug-cc-pVDZ-scan-d09-49-n400
 OpenBabel01151817083D

 22 21  0  0  0  0  0  0  0  0999 V2000
   14.3311    8.4679   -2.7528 C   0  0  0  0  0  0  0  0  0  0  0  0
   13.4067    7.5385   -2.2812 C   0  0  0  0  0  0  0  0  0  0  0  0
   13.6808    6.1713   -2.3915 C   0  0  0  0  0  0  0  0  0  0  0  0
   14.8740    5.7121   -2.9613 C   0  0  0  0  0  0  0  0  0  0  0  0
   15.7996    6.6404   -3.4349 C   0  0  0  0  0  0  0  0  0  0  0  0
   15.5163    8.0041   -3.3271 C   0  0  0  0  0  0  0  0  0  0  0  0
   14.1476    9.5370   -2.6806 H   0  0  0  0  0  0  0  0  0  0  0  0
   12.4741    7.8610   -1.8190 H   0  0  0  0  0  0  0  0  0  0  0  0
   15.0773    4.6468   -3.0383 H   0  0  0  0  0  0  0  0  0  0  0  0
   16.7372    6.3201   -3.8829 H   0  0  0  0  0  0  0  0  0  0  0  0
   16.4985    8.9812   -3.8271 N   0  0  0  0  0  0  0  0  0  0  0  0
   16.2290   10.1749   -3.7101 O   0  0  0  0  0  0  0  0  0  0  0  0
   17.5396    8.5480   -4.3164 O   0  0  0  0  0  0  0  0  0  0  0  0
   15.9228    6.3428    1.8035 N   0  0  0  0  0  0  0  0  0  0  0  0
   15.8339    5.2696    2.0576 N   0  0  0  0  0  0  0  0  0  0  0  0
   12.3283    4.1725   -2.4692 C   0  0  0  0  0  0  0  0  0  0  0  0
   12.6975    3.8627   -3.5722 O   0  0  0  0  0  0  0  0  0  0  0  0
   12.7489    5.3157   -1.8139 O   0  0  0  0  0  0  0  0  0  0  0  0
   11.3565    3.4188   -1.6042 C   0  0  0  0  0  0  0  0  0  0  0  0
   11.8344    3.1523   -0.6521 H   0  0  0  0  0  0  0  0  0  0  0  0
   10.4930    4.0560   -1.3716 H   0  0  0  0  0  0  0  0  0  0  0  0
   11.0299    2.5176   -2.1295 H   0  0  0  0  0  0  0  0  0  0  0  0
  1  7  1  0  0  0  0
  1  2  2  0  0  0  0
  2  8  1  0  0  0  0
  3  2  1  0  0  0  0
  3 18  1  0  0  0  0
  4  3  2  0  0  0  0
  5  6  2  0  0  0  0
  5  4  1  0  0  0  0
  6  1  1  0  0  0  0
  9  4  1  0  0  0  0
 10  5  1  0  0  0  0
 11 12  2  0  0  0  0
 11  6  1  0  0  0  0
 13 11  2  0  0  0  0
 14 15  3  0  0  0  0
 16 18  1  0  0  0  0
 16 19  1  0  0  0  0
 17 16  2  0  0  0  0
 19 21  1  0  0  0  0
 19 20  1  0  0  0  0
 22 19  1  0  0  0  0
M  END
