Coordinates from ORCA-job p-NO2-Ph-N2-OOCCH3-B3LYPG-aug-cc-pVDZ-scan-d09-49-n400
 OpenBabel01151817083D

 22 21  0  0  0  0  0  0  0  0999 V2000
   14.3911    8.4730   -2.6610 C   0  0  0  0  0  0  0  0  0  0  0  0
   13.4975    7.5409   -2.1406 C   0  0  0  0  0  0  0  0  0  0  0  0
   13.8030    6.1797   -2.2049 C   0  0  0  0  0  0  0  0  0  0  0  0
   14.9804    5.7251   -2.8059 C   0  0  0  0  0  0  0  0  0  0  0  0
   15.8763    6.6544   -3.3296 C   0  0  0  0  0  0  0  0  0  0  0  0
   15.5723    8.0150   -3.2478 C   0  0  0  0  0  0  0  0  0  0  0  0
   14.1867    9.5396   -2.6204 H   0  0  0  0  0  0  0  0  0  0  0  0
   12.5697    7.8587   -1.6684 H   0  0  0  0  0  0  0  0  0  0  0  0
   15.1976    4.6622   -2.8616 H   0  0  0  0  0  0  0  0  0  0  0  0
   16.8045    6.3387   -3.7988 H   0  0  0  0  0  0  0  0  0  0  0  0
   16.5234    8.9951   -3.7992 N   0  0  0  0  0  0  0  0  0  0  0  0
   16.2300   10.1862   -3.7174 O   0  0  0  0  0  0  0  0  0  0  0  0
   17.5560    8.5666   -4.3102 O   0  0  0  0  0  0  0  0  0  0  0  0
   14.9831    6.1255    0.2835 N   0  0  0  0  0  0  0  0  0  0  0  0
   15.0790    5.2090    0.8926 N   0  0  0  0  0  0  0  0  0  0  0  0
   12.4296    4.2014   -2.2747 C   0  0  0  0  0  0  0  0  0  0  0  0
   12.7482    3.9227   -3.4012 O   0  0  0  0  0  0  0  0  0  0  0  0
   12.8970    5.3160   -1.6002 O   0  0  0  0  0  0  0  0  0  0  0  0
   11.4816    3.4354   -1.3947 C   0  0  0  0  0  0  0  0  0  0  0  0
   11.9905    3.1372   -0.4686 H   0  0  0  0  0  0  0  0  0  0  0  0
   10.6352    4.0759   -1.1135 H   0  0  0  0  0  0  0  0  0  0  0  0
   11.1243    2.5531   -1.9321 H   0  0  0  0  0  0  0  0  0  0  0  0
  1  7  1  0  0  0  0
  1  2  2  0  0  0  0
  2  8  1  0  0  0  0
  3  2  1  0  0  0  0
  3 18  1  0  0  0  0
  4  3  2  0  0  0  0
  5  6  2  0  0  0  0
  5  4  1  0  0  0  0
  6  1  1  0  0  0  0
  9  4  1  0  0  0  0
 10  5  1  0  0  0  0
 11 12  2  0  0  0  0
 11  6  1  0  0  0  0
 13 11  2  0  0  0  0
 14 15  3  0  0  0  0
 16 18  1  0  0  0  0
 16 19  1  0  0  0  0
 17 16  2  0  0  0  0
 19 21  1  0  0  0  0
 19 20  1  0  0  0  0
 22 19  1  0  0  0  0
M  END
