Coordinates from ORCA-job p-NO2-Ph-N2-OOCCH3-B3LYPG-aug-cc-pVDZ-scan-d09-49-n400
 OpenBabel01151817083D

 22 21  0  0  0  0  0  0  0  0999 V2000
   14.3399    8.4713   -2.7453 C   0  0  0  0  0  0  0  0  0  0  0  0
   13.4184    7.5420   -2.2688 C   0  0  0  0  0  0  0  0  0  0  0  0
   13.6931    6.1756   -2.3792 C   0  0  0  0  0  0  0  0  0  0  0  0
   14.8841    5.7165   -2.9524 C   0  0  0  0  0  0  0  0  0  0  0  0
   15.8067    6.6447   -3.4311 C   0  0  0  0  0  0  0  0  0  0  0  0
   15.5227    8.0077   -3.3240 C   0  0  0  0  0  0  0  0  0  0  0  0
   14.1556    9.5399   -2.6741 H   0  0  0  0  0  0  0  0  0  0  0  0
   12.4886    7.8634   -1.8027 H   0  0  0  0  0  0  0  0  0  0  0  0
   15.0877    4.6524   -3.0281 H   0  0  0  0  0  0  0  0  0  0  0  0
   16.7420    6.3247   -3.8829 H   0  0  0  0  0  0  0  0  0  0  0  0
   16.5016    8.9849   -3.8301 N   0  0  0  0  0  0  0  0  0  0  0  0
   16.2282   10.1785   -3.7206 O   0  0  0  0  0  0  0  0  0  0  0  0
   17.5376    8.5517   -4.3301 O   0  0  0  0  0  0  0  0  0  0  0  0
   15.8044    6.2969    1.6711 N   0  0  0  0  0  0  0  0  0  0  0  0
   15.7319    5.2357    1.9687 N   0  0  0  0  0  0  0  0  0  0  0  0
   12.3431    4.1769   -2.4484 C   0  0  0  0  0  0  0  0  0  0  0  0
   12.7068    3.8670   -3.5533 O   0  0  0  0  0  0  0  0  0  0  0  0
   12.7659    5.3203   -1.7954 O   0  0  0  0  0  0  0  0  0  0  0  0
   11.3767    3.4230   -1.5778 C   0  0  0  0  0  0  0  0  0  0  0  0
   11.8603    3.1571   -0.6284 H   0  0  0  0  0  0  0  0  0  0  0  0
   10.5142    4.0596   -1.3406 H   0  0  0  0  0  0  0  0  0  0  0  0
   11.0477    2.5214   -2.1012 H   0  0  0  0  0  0  0  0  0  0  0  0
  1  7  1  0  0  0  0
  1  2  2  0  0  0  0
  2  8  1  0  0  0  0
  3  2  1  0  0  0  0
  3 18  1  0  0  0  0
  4  3  2  0  0  0  0
  5  6  2  0  0  0  0
  5  4  1  0  0  0  0
  6  1  1  0  0  0  0
  9  4  1  0  0  0  0
 10  5  1  0  0  0  0
 11 12  2  0  0  0  0
 11  6  1  0  0  0  0
 13 11  2  0  0  0  0
 14 15  3  0  0  0  0
 16 18  1  0  0  0  0
 16 19  1  0  0  0  0
 17 16  2  0  0  0  0
 19 21  1  0  0  0  0
 19 20  1  0  0  0  0
 22 19  1  0  0  0  0
M  END
