Coordinates from ORCA-job p-NO2-Ph-N2-OOCCH3-B3LYPG-aug-cc-pVDZ-scan-d09-49-n400
 OpenBabel01151817083D

 22 22  0  0  0  0  0  0  0  0999 V2000
   14.8225    8.4629   -2.8006 C   0  0  0  0  0  0  0  0  0  0  0  0
   13.9633    7.9701   -1.8260 C   0  0  0  0  0  0  0  0  0  0  0  0
   14.3127    6.8210   -1.0812 C   0  0  0  0  0  0  0  0  0  0  0  0
   15.5603    6.1998   -1.3165 C   0  0  0  0  0  0  0  0  0  0  0  0
   16.4197    6.6969   -2.2886 C   0  0  0  0  0  0  0  0  0  0  0  0
   16.0418    7.8213   -3.0249 C   0  0  0  0  0  0  0  0  0  0  0  0
   14.5595    9.3400   -3.3867 H   0  0  0  0  0  0  0  0  0  0  0  0
   13.0139    8.4640   -1.6259 H   0  0  0  0  0  0  0  0  0  0  0  0
   15.8408    5.3305   -0.7242 H   0  0  0  0  0  0  0  0  0  0  0  0
   17.3786    6.2231   -2.4830 H   0  0  0  0  0  0  0  0  0  0  0  0
   16.9506    8.3449   -4.0539 N   0  0  0  0  0  0  0  0  0  0  0  0
   16.5904    9.3371   -4.6847 O   0  0  0  0  0  0  0  0  0  0  0  0
   18.0183    7.7595   -4.2263 O   0  0  0  0  0  0  0  0  0  0  0  0
   13.5531    6.4115   -0.1345 N   0  0  0  0  0  0  0  0  0  0  0  0
   12.6821    5.5626   -0.1265 N   0  0  0  0  0  0  0  0  0  0  0  0
   11.5581    3.9788   -1.5312 C   0  0  0  0  0  0  0  0  0  0  0  0
   10.8992    3.6317   -0.5903 O   0  0  0  0  0  0  0  0  0  0  0  0
   12.5390    4.9628   -1.4804 O   0  0  0  0  0  0  0  0  0  0  0  0
   11.4746    3.4430   -2.9376 C   0  0  0  0  0  0  0  0  0  0  0  0
   11.2289    4.2546   -3.6354 H   0  0  0  0  0  0  0  0  0  0  0  0
   12.4452    3.0280   -3.2406 H   0  0  0  0  0  0  0  0  0  0  0  0
   10.7047    2.6673   -2.9756 H   0  0  0  0  0  0  0  0  0  0  0  0
  1  2  1  0  0  0  0
  2  8  1  0  0  0  0
  2  3  2  0  0  0  0
  3 14  1  0  0  0  0
  4  3  1  0  0  0  0
  4  9  1  0  0  0  0
  5  4  2  0  0  0  0
  6  1  2  0  0  0  0
  6  5  1  0  0  0  0
  7  1  1  0  0  0  0
 10  5  1  0  0  0  0
 11  6  1  0  0  0  0
 12 11  2  0  0  0  0
 13 11  2  0  0  0  0
 14 15  1  0  0  0  0
 16 18  1  0  0  0  0
 16 17  2  0  0  0  0
 18 15  1  0  0  0  0
 19 16  1  0  0  0  0
 20 19  1  0  0  0  0
 21 19  1  0  0  0  0
 22 19  1  0  0  0  0
M  RAD  2  14   2  15   2
M  END
