Coordinates from ORCA-job p-NO2-Ph-N2-OOCCH3-B3LYPG-aug-cc-pVDZ-scan-d09-49-n400
 OpenBabel01151817083D

 22 21  0  0  0  0  0  0  0  0999 V2000
   14.8274    8.4368   -2.8884 C   0  0  0  0  0  0  0  0  0  0  0  0
   13.9680    7.9527   -1.8938 C   0  0  0  0  0  0  0  0  0  0  0  0
   14.4099    6.8595   -1.1786 C   0  0  0  0  0  0  0  0  0  0  0  0
   15.6198    6.2145   -1.3260 C   0  0  0  0  0  0  0  0  0  0  0  0
   16.4720    6.7063   -2.3231 C   0  0  0  0  0  0  0  0  0  0  0  0
   16.0575    7.8032   -3.0831 C   0  0  0  0  0  0  0  0  0  0  0  0
   14.5564    9.2915   -3.5037 H   0  0  0  0  0  0  0  0  0  0  0  0
   13.0038    8.4195   -1.7047 H   0  0  0  0  0  0  0  0  0  0  0  0
   15.9052    5.3663   -0.7075 H   0  0  0  0  0  0  0  0  0  0  0  0
   17.4429    6.2542   -2.5116 H   0  0  0  0  0  0  0  0  0  0  0  0
   16.9601    8.3176   -4.1343 N   0  0  0  0  0  0  0  0  0  0  0  0
   16.5791    9.2832   -4.7902 O   0  0  0  0  0  0  0  0  0  0  0  0
   18.0372    7.7486   -4.2892 O   0  0  0  0  0  0  0  0  0  0  0  0
   13.2409    6.2654    0.4009 N   0  0  0  0  0  0  0  0  0  0  0  0
   12.4397    5.4202    0.1653 N   0  0  0  0  0  0  0  0  0  0  0  0
   11.4983    3.9565   -1.5122 C   0  0  0  0  0  0  0  0  0  0  0  0
   10.7526    3.5032   -0.6866 O   0  0  0  0  0  0  0  0  0  0  0  0
   12.4374    4.9432   -1.2670 O   0  0  0  0  0  0  0  0  0  0  0  0
   11.5717    3.5608   -2.9679 C   0  0  0  0  0  0  0  0  0  0  0  0
   11.3428    4.4264   -3.6038 H   0  0  0  0  0  0  0  0  0  0  0  0
   12.5852    3.2213   -3.2185 H   0  0  0  0  0  0  0  0  0  0  0  0
   10.8491    2.7603   -3.1505 H   0  0  0  0  0  0  0  0  0  0  0  0
  1  2  1  0  0  0  0
  2  8  1  0  0  0  0
  2  3  2  0  0  0  0
  4  3  1  0  0  0  0
  4  9  1  0  0  0  0
  5  4  2  0  0  0  0
  6  1  2  0  0  0  0
  6  5  1  0  0  0  0
  7  1  1  0  0  0  0
 10  5  1  0  0  0  0
 11  6  1  0  0  0  0
 12 11  2  0  0  0  0
 13 11  2  0  0  0  0
 15 14  1  0  0  0  0
 16 18  1  0  0  0  0
 16 17  2  0  0  0  0
 18 15  1  0  0  0  0
 19 16  1  0  0  0  0
 20 19  1  0  0  0  0
 21 19  1  0  0  0  0
 22 19  1  0  0  0  0
M  RAD  3   3   2  14   3  15   2
M  END
