Coordinates from ORCA-job p-NO2-Ph-N2-OOCCH3-B3LYPG-aug-cc-pVDZ-scan-d09-49-n400
 OpenBabel01151817083D

 22 21  0  0  0  0  0  0  0  0999 V2000
   14.3755    8.4850   -2.7110 C   0  0  0  0  0  0  0  0  0  0  0  0
   13.4695    7.5550   -2.2071 C   0  0  0  0  0  0  0  0  0  0  0  0
   13.7549    6.1902   -2.3022 C   0  0  0  0  0  0  0  0  0  0  0  0
   14.9388    5.7325   -2.8904 C   0  0  0  0  0  0  0  0  0  0  0  0
   15.8459    6.6613   -3.3963 C   0  0  0  0  0  0  0  0  0  0  0  0
   15.5529    8.0233   -3.3018 C   0  0  0  0  0  0  0  0  0  0  0  0
   14.1834    9.5531   -2.6518 H   0  0  0  0  0  0  0  0  0  0  0  0
   12.5442    7.8754   -1.7319 H   0  0  0  0  0  0  0  0  0  0  0  0
   15.1482    4.6689   -2.9573 H   0  0  0  0  0  0  0  0  0  0  0  0
   16.7759    6.3428   -3.8600 H   0  0  0  0  0  0  0  0  0  0  0  0
   16.5161    9.0014   -3.8356 N   0  0  0  0  0  0  0  0  0  0  0  0
   16.2364   10.1943   -3.7342 O   0  0  0  0  0  0  0  0  0  0  0  0
   17.5494    8.5700   -4.3427 O   0  0  0  0  0  0  0  0  0  0  0  0
   15.2654    6.1166    0.9390 N   0  0  0  0  0  0  0  0  0  0  0  0
   15.2595    5.1252    1.4254 N   0  0  0  0  0  0  0  0  0  0  0  0
   12.4049    4.1925   -2.3415 C   0  0  0  0  0  0  0  0  0  0  0  0
   12.7411    3.8878   -3.4564 O   0  0  0  0  0  0  0  0  0  0  0  0
   12.8450    5.3326   -1.6939 O   0  0  0  0  0  0  0  0  0  0  0  0
   11.4601    3.4346   -1.4509 C   0  0  0  0  0  0  0  0  0  0  0  0
   11.9702    3.1555   -0.5193 H   0  0  0  0  0  0  0  0  0  0  0  0
   10.6086    4.0730   -1.1811 H   0  0  0  0  0  0  0  0  0  0  0  0
   11.1112    2.5403   -1.9737 H   0  0  0  0  0  0  0  0  0  0  0  0
  1  7  1  0  0  0  0
  1  2  2  0  0  0  0
  2  8  1  0  0  0  0
  3  2  1  0  0  0  0
  3 18  1  0  0  0  0
  4  3  2  0  0  0  0
  5  6  2  0  0  0  0
  5  4  1  0  0  0  0
  6  1  1  0  0  0  0
  9  4  1  0  0  0  0
 10  5  1  0  0  0  0
 11 12  2  0  0  0  0
 11  6  1  0  0  0  0
 13 11  2  0  0  0  0
 14 15  3  0  0  0  0
 16 18  1  0  0  0  0
 16 19  1  0  0  0  0
 17 16  2  0  0  0  0
 19 21  1  0  0  0  0
 19 20  1  0  0  0  0
 22 19  1  0  0  0  0
M  END
