Coordinates from ORCA-job p-NO2-Ph-N2-OOCCH3-B3LYPG-aug-cc-pVDZ-scan-d09-49-n400
 OpenBabel01151817083D

 22 21  0  0  0  0  0  0  0  0999 V2000
   14.3258    8.4648   -2.7557 C   0  0  0  0  0  0  0  0  0  0  0  0
   13.3976    7.5362   -2.2909 C   0  0  0  0  0  0  0  0  0  0  0  0
   13.6695    6.1695   -2.4042 C   0  0  0  0  0  0  0  0  0  0  0  0
   14.8647    5.7095   -2.9680 C   0  0  0  0  0  0  0  0  0  0  0  0
   15.7939    6.6370   -3.4349 C   0  0  0  0  0  0  0  0  0  0  0  0
   15.5124    8.0003   -3.3255 C   0  0  0  0  0  0  0  0  0  0  0  0
   14.1437    9.5337   -2.6817 H   0  0  0  0  0  0  0  0  0  0  0  0
   12.4648    7.8583   -1.8315 H   0  0  0  0  0  0  0  0  0  0  0  0
   15.0665    4.6452   -3.0452 H   0  0  0  0  0  0  0  0  0  0  0  0
   16.7327    6.3160   -3.8787 H   0  0  0  0  0  0  0  0  0  0  0  0
   16.4985    8.9767   -3.8188 N   0  0  0  0  0  0  0  0  0  0  0  0
   16.2267   10.1706   -3.7085 O   0  0  0  0  0  0  0  0  0  0  0  0
   17.5372    8.5427   -4.3124 O   0  0  0  0  0  0  0  0  0  0  0  0
   16.0050    6.3713    1.8986 N   0  0  0  0  0  0  0  0  0  0  0  0
   15.9011    5.2936    2.1156 N   0  0  0  0  0  0  0  0  0  0  0  0
   12.3191    4.1713   -2.4851 C   0  0  0  0  0  0  0  0  0  0  0  0
   12.6922    3.8602   -3.5867 O   0  0  0  0  0  0  0  0  0  0  0  0
   12.7357    5.3151   -1.8300 O   0  0  0  0  0  0  0  0  0  0  0  0
   11.3459    3.4175   -1.6222 C   0  0  0  0  0  0  0  0  0  0  0  0
   11.8216    3.1524   -0.6686 H   0  0  0  0  0  0  0  0  0  0  0  0
   10.4810    4.0539   -1.3924 H   0  0  0  0  0  0  0  0  0  0  0  0
   11.0216    2.5154   -2.1477 H   0  0  0  0  0  0  0  0  0  0  0  0
  1  7  1  0  0  0  0
  1  2  2  0  0  0  0
  2  8  1  0  0  0  0
  3  2  1  0  0  0  0
  3 18  1  0  0  0  0
  4  3  2  0  0  0  0
  5  6  2  0  0  0  0
  5  4  1  0  0  0  0
  6  1  1  0  0  0  0
  9  4  1  0  0  0  0
 10  5  1  0  0  0  0
 11 12  2  0  0  0  0
 11  6  1  0  0  0  0
 13 11  2  0  0  0  0
 14 15  3  0  0  0  0
 16 18  1  0  0  0  0
 16 19  1  0  0  0  0
 17 16  2  0  0  0  0
 19 21  1  0  0  0  0
 19 20  1  0  0  0  0
 22 19  1  0  0  0  0
M  END
