Coordinates from ORCA-job p-NO2-Ph-N2-OOCCH3-B3LYPG-aug-cc-pVDZ-scan-d09-49-n400
 OpenBabel01151817083D

 22 21  0  0  0  0  0  0  0  0999 V2000
   14.3816    8.4847   -2.6997 C   0  0  0  0  0  0  0  0  0  0  0  0
   13.4775    7.5546   -2.1927 C   0  0  0  0  0  0  0  0  0  0  0  0
   13.7648    6.1902   -2.2852 C   0  0  0  0  0  0  0  0  0  0  0  0
   14.9478    5.7328   -2.8751 C   0  0  0  0  0  0  0  0  0  0  0  0
   15.8531    6.6616   -3.3841 C   0  0  0  0  0  0  0  0  0  0  0  0
   15.5588    8.0234   -3.2912 C   0  0  0  0  0  0  0  0  0  0  0  0
   14.1882    9.5526   -2.6424 H   0  0  0  0  0  0  0  0  0  0  0  0
   12.5526    7.8747   -1.7164 H   0  0  0  0  0  0  0  0  0  0  0  0
   15.1581    4.6692   -2.9404 H   0  0  0  0  0  0  0  0  0  0  0  0
   16.7825    6.3432   -3.8490 H   0  0  0  0  0  0  0  0  0  0  0  0
   16.5200    9.0017   -3.8282 N   0  0  0  0  0  0  0  0  0  0  0  0
   16.2386   10.1944   -3.7295 O   0  0  0  0  0  0  0  0  0  0  0  0
   17.5525    8.5705   -4.3370 O   0  0  0  0  0  0  0  0  0  0  0  0
   15.1809    6.1055    0.7785 N   0  0  0  0  0  0  0  0  0  0  0  0
   15.1885    5.1317    1.2993 N   0  0  0  0  0  0  0  0  0  0  0  0
   12.4133    4.1939   -2.3232 C   0  0  0  0  0  0  0  0  0  0  0  0
   12.7449    3.8918   -3.4402 O   0  0  0  0  0  0  0  0  0  0  0  0
   12.8572    5.3320   -1.6743 O   0  0  0  0  0  0  0  0  0  0  0  0
   11.4712    3.4347   -1.4309 C   0  0  0  0  0  0  0  0  0  0  0  0
   11.9844    3.1531   -0.5018 H   0  0  0  0  0  0  0  0  0  0  0  0
   10.6211    4.0731   -1.1566 H   0  0  0  0  0  0  0  0  0  0  0  0
   11.1197    2.5418   -1.9545 H   0  0  0  0  0  0  0  0  0  0  0  0
  1  7  1  0  0  0  0
  1  2  2  0  0  0  0
  2  8  1  0  0  0  0
  3  2  1  0  0  0  0
  3 18  1  0  0  0  0
  4  3  2  0  0  0  0
  5  6  2  0  0  0  0
  5  4  1  0  0  0  0
  6  1  1  0  0  0  0
  9  4  1  0  0  0  0
 10  5  1  0  0  0  0
 11 12  2  0  0  0  0
 11  6  1  0  0  0  0
 13 11  2  0  0  0  0
 14 15  3  0  0  0  0
 16 18  1  0  0  0  0
 16 19  1  0  0  0  0
 17 16  2  0  0  0  0
 19 21  1  0  0  0  0
 19 20  1  0  0  0  0
 22 19  1  0  0  0  0
M  END
