Coordinates from ORCA-job p-NO2-Ph-N2-OOCCH3-B3LYPG-aug-cc-pVDZ-scan-d09-49-n400
 OpenBabel01151817083D

 22 22  0  0  0  0  0  0  0  0999 V2000
   14.8650    8.5341   -2.7896 C   0  0  0  0  0  0  0  0  0  0  0  0
   13.9805    8.0890   -1.8059 C   0  0  0  0  0  0  0  0  0  0  0  0
   14.2745    6.9073   -1.1324 C   0  0  0  0  0  0  0  0  0  0  0  0
   15.4335    6.1711   -1.3649 C   0  0  0  0  0  0  0  0  0  0  0  0
   16.3217    6.6203   -2.3423 C   0  0  0  0  0  0  0  0  0  0  0  0
   16.0194    7.7909   -3.0419 C   0  0  0  0  0  0  0  0  0  0  0  0
   14.6754    9.4443   -3.3527 H   0  0  0  0  0  0  0  0  0  0  0  0
   13.0792    8.6514   -1.5693 H   0  0  0  0  0  0  0  0  0  0  0  0
   15.6396    5.2644   -0.7999 H   0  0  0  0  0  0  0  0  0  0  0  0
   17.2373    6.0794   -2.5672 H   0  0  0  0  0  0  0  0  0  0  0  0
   16.9579    8.2626   -4.0795 N   0  0  0  0  0  0  0  0  0  0  0  0
   16.6723    9.2953   -4.6799 O   0  0  0  0  0  0  0  0  0  0  0  0
   17.9682    7.5939   -4.2812 O   0  0  0  0  0  0  0  0  0  0  0  0
   13.3250    6.4955    0.0637 N   0  0  0  0  0  0  0  0  0  0  0  0
   12.5182    5.5977   -0.0488 N   0  0  0  0  0  0  0  0  0  0  0  0
   11.6411    3.9218   -1.5149 C   0  0  0  0  0  0  0  0  0  0  0  0
   11.0422    3.4377   -0.5945 O   0  0  0  0  0  0  0  0  0  0  0  0
   12.5135    4.9986   -1.4039 O   0  0  0  0  0  0  0  0  0  0  0  0
   11.6051    3.4662   -2.9517 C   0  0  0  0  0  0  0  0  0  0  0  0
   11.1572    4.2512   -3.5762 H   0  0  0  0  0  0  0  0  0  0  0  0
   12.6222    3.2864   -3.3233 H   0  0  0  0  0  0  0  0  0  0  0  0
   11.0083    2.5522   -3.0183 H   0  0  0  0  0  0  0  0  0  0  0  0
  1  2  1  0  0  0  0
  2  8  1  0  0  0  0
  2  3  2  0  0  0  0
  3 14  1  0  0  0  0
  4  3  1  0  0  0  0
  4  9  1  0  0  0  0
  5  4  2  0  0  0  0
  6  1  2  0  0  0  0
  6  5  1  0  0  0  0
  7  1  1  0  0  0  0
 10  5  1  0  0  0  0
 11  6  1  0  0  0  0
 12 11  2  0  0  0  0
 13 11  2  0  0  0  0
 15 14  1  0  0  0  0
 16 18  1  0  0  0  0
 16 17  2  0  0  0  0
 18 15  1  0  0  0  0
 19 16  1  0  0  0  0
 20 19  1  0  0  0  0
 21 19  1  0  0  0  0
 22 19  1  0  0  0  0
M  RAD  2  14   2  15   2
M  END
