Coordinates from ORCA-job p-NO2-Ph-N2-OOCCH3-B3LYPG-aug-cc-pVDZ-scan-d09-49-n400
 OpenBabel01151817083D

 22 21  0  0  0  0  0  0  0  0999 V2000
   14.3861    8.4841   -2.6908 C   0  0  0  0  0  0  0  0  0  0  0  0
   13.4843    7.5536   -2.1804 C   0  0  0  0  0  0  0  0  0  0  0  0
   13.7742    6.1896   -2.2691 C   0  0  0  0  0  0  0  0  0  0  0  0
   14.9560    5.7327   -2.8616 C   0  0  0  0  0  0  0  0  0  0  0  0
   15.8592    6.6616   -3.3741 C   0  0  0  0  0  0  0  0  0  0  0  0
   15.5632    8.0232   -3.2828 C   0  0  0  0  0  0  0  0  0  0  0  0
   14.1911    9.5518   -2.6359 H   0  0  0  0  0  0  0  0  0  0  0  0
   12.5595    7.8736   -1.7039 H   0  0  0  0  0  0  0  0  0  0  0  0
   15.1674    4.6693   -2.9257 H   0  0  0  0  0  0  0  0  0  0  0  0
   16.7881    6.3437   -3.8403 H   0  0  0  0  0  0  0  0  0  0  0  0
   16.5222    9.0018   -3.8232 N   0  0  0  0  0  0  0  0  0  0  0  0
   16.2377   10.1941   -3.7296 O   0  0  0  0  0  0  0  0  0  0  0  0
   17.5531    8.5710   -4.3357 O   0  0  0  0  0  0  0  0  0  0  0  0
   15.1195    6.0985    0.6614 N   0  0  0  0  0  0  0  0  0  0  0  0
   15.1345    5.1358    1.2022 N   0  0  0  0  0  0  0  0  0  0  0  0
   12.4196    4.1958   -2.3094 C   0  0  0  0  0  0  0  0  0  0  0  0
   12.7473    3.8975   -3.4286 O   0  0  0  0  0  0  0  0  0  0  0  0
   12.8679    5.3305   -1.6575 O   0  0  0  0  0  0  0  0  0  0  0  0
   11.4786    3.4351   -1.4174 C   0  0  0  0  0  0  0  0  0  0  0  0
   11.9929    3.1510   -0.4897 H   0  0  0  0  0  0  0  0  0  0  0  0
   10.6293    4.0735   -1.1404 H   0  0  0  0  0  0  0  0  0  0  0  0
   11.1255    2.5437   -1.9426 H   0  0  0  0  0  0  0  0  0  0  0  0
  1  7  1  0  0  0  0
  1  2  2  0  0  0  0
  2  8  1  0  0  0  0
  3  2  1  0  0  0  0
  3 18  1  0  0  0  0
  4  3  2  0  0  0  0
  5  6  2  0  0  0  0
  5  4  1  0  0  0  0
  6  1  1  0  0  0  0
  9  4  1  0  0  0  0
 10  5  1  0  0  0  0
 11 12  2  0  0  0  0
 11  6  1  0  0  0  0
 13 11  2  0  0  0  0
 14 15  3  0  0  0  0
 16 18  1  0  0  0  0
 16 19  1  0  0  0  0
 17 16  2  0  0  0  0
 19 21  1  0  0  0  0
 19 20  1  0  0  0  0
 22 19  1  0  0  0  0
M  END
