Coordinates from ORCA-job p-NO2-Ph-N2-OOCCH3-B3LYPG-aug-cc-pVDZ-scan-d09-49-n400
 OpenBabel01151817083D

 22 21  0  0  0  0  0  0  0  0999 V2000
   14.8411    8.4455   -2.9045 C   0  0  0  0  0  0  0  0  0  0  0  0
   13.9789    7.9605   -1.9104 C   0  0  0  0  0  0  0  0  0  0  0  0
   14.4356    6.8738   -1.2018 C   0  0  0  0  0  0  0  0  0  0  0  0
   15.6390    6.2221   -1.3383 C   0  0  0  0  0  0  0  0  0  0  0  0
   16.4905    6.7183   -2.3361 C   0  0  0  0  0  0  0  0  0  0  0  0
   16.0733    7.8146   -3.0958 C   0  0  0  0  0  0  0  0  0  0  0  0
   14.5680    9.2987   -3.5212 H   0  0  0  0  0  0  0  0  0  0  0  0
   13.0118    8.4219   -1.7235 H   0  0  0  0  0  0  0  0  0  0  0  0
   15.9231    5.3733   -0.7203 H   0  0  0  0  0  0  0  0  0  0  0  0
   17.4625    6.2676   -2.5238 H   0  0  0  0  0  0  0  0  0  0  0  0
   16.9763    8.3313   -4.1459 N   0  0  0  0  0  0  0  0  0  0  0  0
   16.5939    9.2965   -4.8013 O   0  0  0  0  0  0  0  0  0  0  0  0
   18.0554    7.7658   -4.2978 O   0  0  0  0  0  0  0  0  0  0  0  0
   13.1811    6.2341    0.4927 N   0  0  0  0  0  0  0  0  0  0  0  0
   12.3922    5.3987    0.2517 N   0  0  0  0  0  0  0  0  0  0  0  0
   11.4800    3.9394   -1.5073 C   0  0  0  0  0  0  0  0  0  0  0  0
   10.7174    3.4733   -0.7004 O   0  0  0  0  0  0  0  0  0  0  0  0
   12.4056    4.9171   -1.2422 O   0  0  0  0  0  0  0  0  0  0  0  0
   11.5655    3.5567   -2.9697 C   0  0  0  0  0  0  0  0  0  0  0  0
   11.3531    4.4299   -3.6006 H   0  0  0  0  0  0  0  0  0  0  0  0
   12.5773    3.2066   -3.2119 H   0  0  0  0  0  0  0  0  0  0  0  0
   10.8356    2.7657   -3.1664 H   0  0  0  0  0  0  0  0  0  0  0  0
  1  2  1  0  0  0  0
  2  8  1  0  0  0  0
  2  3  2  0  0  0  0
  4  3  1  0  0  0  0
  4  9  1  0  0  0  0
  5  4  2  0  0  0  0
  6  1  2  0  0  0  0
  6  5  1  0  0  0  0
  7  1  1  0  0  0  0
 10  5  1  0  0  0  0
 11  6  1  0  0  0  0
 12 11  2  0  0  0  0
 13 11  2  0  0  0  0
 15 14  1  0  0  0  0
 16 18  1  0  0  0  0
 16 17  2  0  0  0  0
 18 15  1  0  0  0  0
 19 16  1  0  0  0  0
 20 19  1  0  0  0  0
 21 19  1  0  0  0  0
 22 19  1  0  0  0  0
M  RAD  3   3   2  14   3  15   2
M  END
