Coordinates from ORCA-job p-NO2-Ph-N2-OOCCH3-B3LYPG-aug-cc-pVDZ-scan-d09-49-n400
 OpenBabel01151817083D

 22 21  0  0  0  0  0  0  0  0999 V2000
   14.3792    8.4850   -2.7043 C   0  0  0  0  0  0  0  0  0  0  0  0
   13.4742    7.5549   -2.1989 C   0  0  0  0  0  0  0  0  0  0  0  0
   13.7607    6.1902   -2.2924 C   0  0  0  0  0  0  0  0  0  0  0  0
   14.9440    5.7328   -2.8819 C   0  0  0  0  0  0  0  0  0  0  0  0
   15.8503    6.6616   -3.3893 C   0  0  0  0  0  0  0  0  0  0  0  0
   15.5566    8.0235   -3.2954 C   0  0  0  0  0  0  0  0  0  0  0  0
   14.1865    9.5530   -2.6460 H   0  0  0  0  0  0  0  0  0  0  0  0
   12.5491    7.8753   -1.7234 H   0  0  0  0  0  0  0  0  0  0  0  0
   15.1539    4.6692   -2.9483 H   0  0  0  0  0  0  0  0  0  0  0  0
   16.7800    6.3433   -3.8536 H   0  0  0  0  0  0  0  0  0  0  0  0
   16.5188    9.0017   -3.8306 N   0  0  0  0  0  0  0  0  0  0  0  0
   16.2363   10.1943   -3.7343 O   0  0  0  0  0  0  0  0  0  0  0  0
   17.5498    8.5703   -4.3424 O   0  0  0  0  0  0  0  0  0  0  0  0
   15.2179    6.1092    0.8518 N   0  0  0  0  0  0  0  0  0  0  0  0
   15.2197    5.1278    1.3580 N   0  0  0  0  0  0  0  0  0  0  0  0
   12.4097    4.1934   -2.3314 C   0  0  0  0  0  0  0  0  0  0  0  0
   12.7437    3.8901   -3.4474 O   0  0  0  0  0  0  0  0  0  0  0  0
   12.8518    5.3324   -1.6831 O   0  0  0  0  0  0  0  0  0  0  0  0
   11.4662    3.4347   -1.4402 C   0  0  0  0  0  0  0  0  0  0  0  0
   11.9777    3.1540   -0.5099 H   0  0  0  0  0  0  0  0  0  0  0  0
   10.6155    4.0733   -1.1679 H   0  0  0  0  0  0  0  0  0  0  0  0
   11.1158    2.5414   -1.9636 H   0  0  0  0  0  0  0  0  0  0  0  0
  1  7  1  0  0  0  0
  1  2  2  0  0  0  0
  2  8  1  0  0  0  0
  3  2  1  0  0  0  0
  3 18  1  0  0  0  0
  4  3  2  0  0  0  0
  5  6  2  0  0  0  0
  5  4  1  0  0  0  0
  6  1  1  0  0  0  0
  9  4  1  0  0  0  0
 10  5  1  0  0  0  0
 11 12  2  0  0  0  0
 11  6  1  0  0  0  0
 13 11  2  0  0  0  0
 14 15  3  0  0  0  0
 16 18  1  0  0  0  0
 16 19  1  0  0  0  0
 17 16  2  0  0  0  0
 19 21  1  0  0  0  0
 19 20  1  0  0  0  0
 22 19  1  0  0  0  0
M  END
