Coordinates from ORCA-job p-NO2-Ph-N2-OOCCH3-B3LYPG-aug-cc-pVDZ-scan-d09-49-n400
 OpenBabel01151817083D

 22 21  0  0  0  0  0  0  0  0999 V2000
   14.3904    8.4803   -2.6759 C   0  0  0  0  0  0  0  0  0  0  0  0
   13.4919    7.5490   -2.1615 C   0  0  0  0  0  0  0  0  0  0  0  0
   13.7859    6.1859   -2.2445 C   0  0  0  0  0  0  0  0  0  0  0  0
   14.9657    5.7300   -2.8406 C   0  0  0  0  0  0  0  0  0  0  0  0
   15.8661    6.6591   -3.3576 C   0  0  0  0  0  0  0  0  0  0  0  0
   15.5678    8.0204   -3.2683 C   0  0  0  0  0  0  0  0  0  0  0  0
   14.1928    9.5477   -2.6245 H   0  0  0  0  0  0  0  0  0  0  0  0
   12.5670    7.8682   -1.6848 H   0  0  0  0  0  0  0  0  0  0  0  0
   15.1787    4.6667   -2.9030 H   0  0  0  0  0  0  0  0  0  0  0  0
   16.7941    6.3422   -3.8262 H   0  0  0  0  0  0  0  0  0  0  0  0
   16.5236    8.9996   -3.8132 N   0  0  0  0  0  0  0  0  0  0  0  0
   16.2370   10.1916   -3.7216 O   0  0  0  0  0  0  0  0  0  0  0  0
   17.5545    8.5697   -4.3264 O   0  0  0  0  0  0  0  0  0  0  0  0
   15.0518    6.1087    0.4911 N   0  0  0  0  0  0  0  0  0  0  0  0
   15.0941    5.1658    1.0646 N   0  0  0  0  0  0  0  0  0  0  0  0
   12.4262    4.1962   -2.2927 C   0  0  0  0  0  0  0  0  0  0  0  0
   12.7520    3.9026   -3.4135 O   0  0  0  0  0  0  0  0  0  0  0  0
   12.8801    5.3255   -1.6346 O   0  0  0  0  0  0  0  0  0  0  0  0
   11.4821    3.4349   -1.4045 C   0  0  0  0  0  0  0  0  0  0  0  0
   11.9936    3.1476   -0.4762 H   0  0  0  0  0  0  0  0  0  0  0  0
   10.6333    4.0742   -1.1280 H   0  0  0  0  0  0  0  0  0  0  0  0
   11.1285    2.5456   -1.9328 H   0  0  0  0  0  0  0  0  0  0  0  0
  1  7  1  0  0  0  0
  1  2  2  0  0  0  0
  2  8  1  0  0  0  0
  3  2  1  0  0  0  0
  3 18  1  0  0  0  0
  4  3  2  0  0  0  0
  5  6  2  0  0  0  0
  5  4  1  0  0  0  0
  6  1  1  0  0  0  0
  9  4  1  0  0  0  0
 10  5  1  0  0  0  0
 11 12  2  0  0  0  0
 11  6  1  0  0  0  0
 13 11  2  0  0  0  0
 14 15  3  0  0  0  0
 16 18  1  0  0  0  0
 16 19  1  0  0  0  0
 17 16  2  0  0  0  0
 19 21  1  0  0  0  0
 19 20  1  0  0  0  0
 22 19  1  0  0  0  0
M  END
