Coordinates from ORCA-job p-NO2-Ph-N2-OOCCH3-B3LYPG-aug-cc-pVDZ-scan-d09-49-n400
 OpenBabel01151817083D

 22 22  0  0  0  0  0  0  0  0999 V2000
   14.8235    8.4553   -2.8066 C   0  0  0  0  0  0  0  0  0  0  0  0
   13.9634    7.9521   -1.8397 C   0  0  0  0  0  0  0  0  0  0  0  0
   14.3201    6.8077   -1.0854 C   0  0  0  0  0  0  0  0  0  0  0  0
   15.5812    6.2052   -1.3149 C   0  0  0  0  0  0  0  0  0  0  0  0
   16.4397    6.7128   -2.2810 C   0  0  0  0  0  0  0  0  0  0  0  0
   16.0537    7.8312   -3.0222 C   0  0  0  0  0  0  0  0  0  0  0  0
   14.5519    9.3280   -3.3955 H   0  0  0  0  0  0  0  0  0  0  0  0
   13.0056    8.4330   -1.6480 H   0  0  0  0  0  0  0  0  0  0  0  0
   15.8695    5.3409   -0.7188 H   0  0  0  0  0  0  0  0  0  0  0  0
   17.4060    6.2507   -2.4671 H   0  0  0  0  0  0  0  0  0  0  0  0
   16.9621    8.3654   -4.0441 N   0  0  0  0  0  0  0  0  0  0  0  0
   16.5948    9.3543   -4.6766 O   0  0  0  0  0  0  0  0  0  0  0  0
   18.0404    7.7964   -4.2060 O   0  0  0  0  0  0  0  0  0  0  0  0
   13.5763    6.3961   -0.1678 N   0  0  0  0  0  0  0  0  0  0  0  0
   12.6980    5.5568   -0.1404 N   0  0  0  0  0  0  0  0  0  0  0  0
   11.5405    3.9802   -1.5294 C   0  0  0  0  0  0  0  0  0  0  0  0
   10.8865    3.6459   -0.5804 O   0  0  0  0  0  0  0  0  0  0  0  0
   12.5324    4.9534   -1.4930 O   0  0  0  0  0  0  0  0  0  0  0  0
   11.4420    3.4333   -2.9306 C   0  0  0  0  0  0  0  0  0  0  0  0
   11.1995    4.2413   -3.6336 H   0  0  0  0  0  0  0  0  0  0  0  0
   12.4063    3.0061   -3.2367 H   0  0  0  0  0  0  0  0  0  0  0  0
   10.6641    2.6650   -2.9567 H   0  0  0  0  0  0  0  0  0  0  0  0
  1  2  1  0  0  0  0
  2  8  1  0  0  0  0
  2  3  2  0  0  0  0
  3 14  1  0  0  0  0
  4  3  1  0  0  0  0
  4  9  1  0  0  0  0
  5  4  2  0  0  0  0
  6  1  2  0  0  0  0
  6  5  1  0  0  0  0
  7  1  1  0  0  0  0
 10  5  1  0  0  0  0
 11  6  1  0  0  0  0
 12 11  2  0  0  0  0
 13 11  2  0  0  0  0
 14 15  1  0  0  0  0
 16 18  1  0  0  0  0
 16 17  2  0  0  0  0
 18 15  1  0  0  0  0
 19 16  1  0  0  0  0
 20 19  1  0  0  0  0
 21 19  1  0  0  0  0
 22 19  1  0  0  0  0
M  RAD  2  14   2  15   2
M  END
