Coordinates from ORCA-job p-NO2-Ph-N2-OOCCH3-B3LYPG-aug-cc-pVDZ-scan-d09-49-n400
 OpenBabel01151817083D

 22 22  0  0  0  0  0  0  0  0999 V2000
   15.0465    8.7641   -2.6419 C   0  0  0  0  0  0  0  0  0  0  0  0
   14.0910    8.3401   -1.7225 C   0  0  0  0  0  0  0  0  0  0  0  0
   14.1184    7.0222   -1.2371 C   0  0  0  0  0  0  0  0  0  0  0  0
   15.1441    6.1424   -1.6277 C   0  0  0  0  0  0  0  0  0  0  0  0
   16.1206    6.5743   -2.5192 C   0  0  0  0  0  0  0  0  0  0  0  0
   16.0508    7.8743   -3.0253 C   0  0  0  0  0  0  0  0  0  0  0  0
   15.0337    9.7723   -3.0477 H   0  0  0  0  0  0  0  0  0  0  0  0
   13.3136    9.0193   -1.3766 H   0  0  0  0  0  0  0  0  0  0  0  0
   15.1773    5.1336   -1.2235 H   0  0  0  0  0  0  0  0  0  0  0  0
   16.9279    5.9175   -2.8331 H   0  0  0  0  0  0  0  0  0  0  0  0
   17.0774    8.3239   -3.9844 N   0  0  0  0  0  0  0  0  0  0  0  0
   16.9933    9.4719   -4.4134 O   0  0  0  0  0  0  0  0  0  0  0  0
   17.9550    7.5231   -4.2974 O   0  0  0  0  0  0  0  0  0  0  0  0
   13.1919    6.6892   -0.2683 N   0  0  0  0  0  0  0  0  0  0  0  0
   12.4333    5.7392   -0.2428 N   0  0  0  0  0  0  0  0  0  0  0  0
   11.7147    3.7966   -1.4485 C   0  0  0  0  0  0  0  0  0  0  0  0
   11.2027    3.3767   -0.4463 O   0  0  0  0  0  0  0  0  0  0  0  0
   12.4966    4.9392   -1.5074 O   0  0  0  0  0  0  0  0  0  0  0  0
   11.6313    3.1806   -2.8229 C   0  0  0  0  0  0  0  0  0  0  0  0
   11.1231    3.8712   -3.5094 H   0  0  0  0  0  0  0  0  0  0  0  0
   12.6381    2.9988   -3.2218 H   0  0  0  0  0  0  0  0  0  0  0  0
   11.0758    2.2408   -2.7573 H   0  0  0  0  0  0  0  0  0  0  0  0
  1  2  1  0  0  0  0
  2  8  1  0  0  0  0
  2  3  2  0  0  0  0
  3 14  1  0  0  0  0
  4  3  1  0  0  0  0
  4  9  1  0  0  0  0
  5  4  2  0  0  0  0
  6  1  2  0  0  0  0
  6  5  1  0  0  0  0
  7  1  1  0  0  0  0
 10  5  1  0  0  0  0
 11  6  1  0  0  0  0
 12 11  2  0  0  0  0
 13 11  2  0  0  0  0
 14 15  1  0  0  0  0
 16 17  2  0  0  0  0
 18 16  1  0  0  0  0
 18 15  1  0  0  0  0
 19 22  1  0  0  0  0
 19 16  1  0  0  0  0
 20 19  1  0  0  0  0
 21 19  1  0  0  0  0
M  RAD  2  14   2  15   2
M  END
