Coordinates from ORCA-job p-NO2-Ph-N2-OOCCH3-B3LYPG-aug-cc-pVDZ-scan-d09-49-n400
 OpenBabel01151817083D

 22 22  0  0  0  0  0  0  0  0999 V2000
   14.8039    8.4200   -2.8629 C   0  0  0  0  0  0  0  0  0  0  0  0
   13.9507    7.9429   -1.8632 C   0  0  0  0  0  0  0  0  0  0  0  0
   14.3751    6.8456   -1.1339 C   0  0  0  0  0  0  0  0  0  0  0  0
   15.5931    6.2081   -1.2952 C   0  0  0  0  0  0  0  0  0  0  0  0
   16.4431    6.6887   -2.2960 C   0  0  0  0  0  0  0  0  0  0  0  0
   16.0307    7.7820   -3.0615 C   0  0  0  0  0  0  0  0  0  0  0  0
   14.5331    9.2729   -3.4804 H   0  0  0  0  0  0  0  0  0  0  0  0
   12.9902    8.4167   -1.6711 H   0  0  0  0  0  0  0  0  0  0  0  0
   15.8804    5.3637   -0.6721 H   0  0  0  0  0  0  0  0  0  0  0  0
   17.4118    6.2326   -2.4849 H   0  0  0  0  0  0  0  0  0  0  0  0
   16.9303    8.2876   -4.1190 N   0  0  0  0  0  0  0  0  0  0  0  0
   16.5496    9.2507   -4.7791 O   0  0  0  0  0  0  0  0  0  0  0  0
   18.0046    7.7137   -4.2760 O   0  0  0  0  0  0  0  0  0  0  0  0
   13.3448    6.3303    0.2652 N   0  0  0  0  0  0  0  0  0  0  0  0
   12.5218    5.4743    0.0717 N   0  0  0  0  0  0  0  0  0  0  0  0
   11.5440    3.9805   -1.5293 C   0  0  0  0  0  0  0  0  0  0  0  0
   10.8237    3.5429   -0.6750 O   0  0  0  0  0  0  0  0  0  0  0  0
   12.4918    4.9764   -1.3252 O   0  0  0  0  0  0  0  0  0  0  0  0
   11.5761    3.5664   -2.9794 C   0  0  0  0  0  0  0  0  0  0  0  0
   11.3036    4.4186   -3.6166 H   0  0  0  0  0  0  0  0  0  0  0  0
   12.5882    3.2492   -3.2627 H   0  0  0  0  0  0  0  0  0  0  0  0
   10.8666    2.7475   -3.1278 H   0  0  0  0  0  0  0  0  0  0  0  0
  1  2  1  0  0  0  0
  2  8  1  0  0  0  0
  2  3  2  0  0  0  0
  3 14  1  0  0  0  0
  4  3  1  0  0  0  0
  4  9  1  0  0  0  0
  5  4  2  0  0  0  0
  6  1  2  0  0  0  0
  6  5  1  0  0  0  0
  7  1  1  0  0  0  0
 10  5  1  0  0  0  0
 11  6  1  0  0  0  0
 12 11  2  0  0  0  0
 13 11  2  0  0  0  0
 15 14  1  0  0  0  0
 16 18  1  0  0  0  0
 16 17  2  0  0  0  0
 18 15  1  0  0  0  0
 19 16  1  0  0  0  0
 20 19  1  0  0  0  0
 21 19  1  0  0  0  0
 22 19  1  0  0  0  0
M  RAD  2  14   2  15   2
M  END
