Coordinates from ORCA-job p-NO2-Ph-N2-OOCCH3-B3LYPG-aug-cc-pVDZ-scan-d09-49-n400
 OpenBabel01151817083D

 22 21  0  0  0  0  0  0  0  0999 V2000
   14.3743    8.4850   -2.7129 C   0  0  0  0  0  0  0  0  0  0  0  0
   13.4681    7.5549   -2.2096 C   0  0  0  0  0  0  0  0  0  0  0  0
   13.7533    6.1899   -2.3046 C   0  0  0  0  0  0  0  0  0  0  0  0
   14.9371    5.7324   -2.8931 C   0  0  0  0  0  0  0  0  0  0  0  0
   15.8446    6.6611   -3.3984 C   0  0  0  0  0  0  0  0  0  0  0  0
   15.5519    8.0232   -3.3033 C   0  0  0  0  0  0  0  0  0  0  0  0
   14.1824    9.5530   -2.6536 H   0  0  0  0  0  0  0  0  0  0  0  0
   12.5424    7.8756   -1.7353 H   0  0  0  0  0  0  0  0  0  0  0  0
   15.1463    4.6688   -2.9610 H   0  0  0  0  0  0  0  0  0  0  0  0
   16.7747    6.3427   -3.8620 H   0  0  0  0  0  0  0  0  0  0  0  0
   16.5154    9.0012   -3.8364 N   0  0  0  0  0  0  0  0  0  0  0  0
   16.2338   10.1940   -3.7391 O   0  0  0  0  0  0  0  0  0  0  0  0
   17.5466    8.5696   -4.3477 O   0  0  0  0  0  0  0  0  0  0  0  0
   15.2876    6.1200    0.9809 N   0  0  0  0  0  0  0  0  0  0  0  0
   15.2777    5.1237    1.4573 N   0  0  0  0  0  0  0  0  0  0  0  0
   12.4029    4.1924   -2.3462 C   0  0  0  0  0  0  0  0  0  0  0  0
   12.7408    3.8875   -3.4606 O   0  0  0  0  0  0  0  0  0  0  0  0
   12.8421    5.3326   -1.6981 O   0  0  0  0  0  0  0  0  0  0  0  0
   11.4567    3.4346   -1.4571 C   0  0  0  0  0  0  0  0  0  0  0  0
   11.9652    3.1557   -0.5245 H   0  0  0  0  0  0  0  0  0  0  0  0
   10.6047    4.0731   -1.1888 H   0  0  0  0  0  0  0  0  0  0  0  0
   11.1087    2.5403   -1.9804 H   0  0  0  0  0  0  0  0  0  0  0  0
  1  7  1  0  0  0  0
  1  2  2  0  0  0  0
  2  8  1  0  0  0  0
  3  2  1  0  0  0  0
  3 18  1  0  0  0  0
  4  3  2  0  0  0  0
  5  6  2  0  0  0  0
  5  4  1  0  0  0  0
  6  1  1  0  0  0  0
  9  4  1  0  0  0  0
 10  5  1  0  0  0  0
 11 12  2  0  0  0  0
 11  6  1  0  0  0  0
 13 11  2  0  0  0  0
 14 15  3  0  0  0  0
 16 18  1  0  0  0  0
 16 19  1  0  0  0  0
 17 16  2  0  0  0  0
 19 21  1  0  0  0  0
 19 20  1  0  0  0  0
 22 19  1  0  0  0  0
M  END
