Coordinates from ORCA-job p-NO2-Ph-N2-OOCCH3-B3LYPG-aug-cc-pVDZ-scan-d09-49-n400
 OpenBabel01151817083D

 22 21  0  0  0  0  0  0  0  0999 V2000
   14.3528    8.4777   -2.7354 C   0  0  0  0  0  0  0  0  0  0  0  0
   13.4368    7.5482   -2.2490 C   0  0  0  0  0  0  0  0  0  0  0  0
   13.7147    6.1823   -2.3548 C   0  0  0  0  0  0  0  0  0  0  0  0
   14.9031    5.7236   -2.9336 C   0  0  0  0  0  0  0  0  0  0  0  0
   15.8202    6.6520   -3.4221 C   0  0  0  0  0  0  0  0  0  0  0  0
   15.5333    8.0147   -3.3190 C   0  0  0  0  0  0  0  0  0  0  0  0
   14.1661    9.5462   -2.6680 H   0  0  0  0  0  0  0  0  0  0  0  0
   12.5091    7.8692   -1.7788 H   0  0  0  0  0  0  0  0  0  0  0  0
   15.1085    4.6597   -3.0064 H   0  0  0  0  0  0  0  0  0  0  0  0
   16.7535    6.3325   -3.8782 H   0  0  0  0  0  0  0  0  0  0  0  0
   16.5067    8.9921   -3.8351 N   0  0  0  0  0  0  0  0  0  0  0  0
   16.2302   10.1854   -3.7305 O   0  0  0  0  0  0  0  0  0  0  0  0
   17.5404    8.5594   -4.3402 O   0  0  0  0  0  0  0  0  0  0  0  0
   15.6068    6.2217    1.4263 N   0  0  0  0  0  0  0  0  0  0  0  0
   15.5649    5.1835    1.8002 N   0  0  0  0  0  0  0  0  0  0  0  0
   12.3661    4.1829   -2.4108 C   0  0  0  0  0  0  0  0  0  0  0  0
   12.7205    3.8733   -3.5188 O   0  0  0  0  0  0  0  0  0  0  0  0
   12.7938    5.3265   -1.7615 O   0  0  0  0  0  0  0  0  0  0  0  0
   11.4078    3.4280   -1.5321 C   0  0  0  0  0  0  0  0  0  0  0  0
   11.9005    3.1601   -0.5880 H   0  0  0  0  0  0  0  0  0  0  0  0
   10.5480    4.0648   -1.2851 H   0  0  0  0  0  0  0  0  0  0  0  0
   11.0732    2.5276   -2.0537 H   0  0  0  0  0  0  0  0  0  0  0  0
  1  7  1  0  0  0  0
  1  2  2  0  0  0  0
  2  8  1  0  0  0  0
  3  2  1  0  0  0  0
  3 18  1  0  0  0  0
  4  3  2  0  0  0  0
  5  6  2  0  0  0  0
  5  4  1  0  0  0  0
  6  1  1  0  0  0  0
  9  4  1  0  0  0  0
 10  5  1  0  0  0  0
 11 12  2  0  0  0  0
 11  6  1  0  0  0  0
 13 11  2  0  0  0  0
 14 15  3  0  0  0  0
 16 18  1  0  0  0  0
 16 19  1  0  0  0  0
 17 16  2  0  0  0  0
 19 21  1  0  0  0  0
 19 20  1  0  0  0  0
 22 19  1  0  0  0  0
M  END
