Coordinates from ORCA-job p-NO2-Ph-N2-OOCCH3-B3LYPG-aug-cc-pVDZ-scan-d09-49-n400
 OpenBabel01151817083D

 22 21  0  0  0  0  0  0  0  0999 V2000
   14.3876    8.4533   -2.6427 C   0  0  0  0  0  0  0  0  0  0  0  0
   13.5132    7.5182   -2.0989 C   0  0  0  0  0  0  0  0  0  0  0  0
   13.8546    6.1636   -2.1102 C   0  0  0  0  0  0  0  0  0  0  0  0
   15.0178    5.7137   -2.7417 C   0  0  0  0  0  0  0  0  0  0  0  0
   15.8955    6.6452   -3.2902 C   0  0  0  0  0  0  0  0  0  0  0  0
   15.5755    8.0030   -3.2236 C   0  0  0  0  0  0  0  0  0  0  0  0
   14.1622    9.5164   -2.6309 H   0  0  0  0  0  0  0  0  0  0  0  0
   12.5798    7.8303   -1.6342 H   0  0  0  0  0  0  0  0  0  0  0  0
   15.2463    4.6523   -2.7857 H   0  0  0  0  0  0  0  0  0  0  0  0
   16.8187    6.3339   -3.7720 H   0  0  0  0  0  0  0  0  0  0  0  0
   16.5072    8.9865   -3.8001 N   0  0  0  0  0  0  0  0  0  0  0  0
   16.1967   10.1745   -3.7371 O   0  0  0  0  0  0  0  0  0  0  0  0
   17.5430    8.5644   -4.3102 O   0  0  0  0  0  0  0  0  0  0  0  0
   14.8947    6.1539    0.0457 N   0  0  0  0  0  0  0  0  0  0  0  0
   15.0653    5.2704    0.6880 N   0  0  0  0  0  0  0  0  0  0  0  0
   12.4364    4.2232   -2.2525 C   0  0  0  0  0  0  0  0  0  0  0  0
   12.7354    3.9921   -3.3946 O   0  0  0  0  0  0  0  0  0  0  0  0
   12.9446    5.2880   -1.5268 O   0  0  0  0  0  0  0  0  0  0  0  0
   11.4729    3.4441   -1.4012 C   0  0  0  0  0  0  0  0  0  0  0  0
   11.9713    3.1097   -0.4819 H   0  0  0  0  0  0  0  0  0  0  0  0
   10.6348    4.0891   -1.1054 H   0  0  0  0  0  0  0  0  0  0  0  0
   11.1037    2.5856   -1.9684 H   0  0  0  0  0  0  0  0  0  0  0  0
  1  7  1  0  0  0  0
  1  2  2  0  0  0  0
  2  8  1  0  0  0  0
  3  2  1  0  0  0  0
  3 18  1  0  0  0  0
  4  3  2  0  0  0  0
  5  6  2  0  0  0  0
  5  4  1  0  0  0  0
  6  1  1  0  0  0  0
  9  4  1  0  0  0  0
 10  5  1  0  0  0  0
 11 12  2  0  0  0  0
 11  6  1  0  0  0  0
 13 11  2  0  0  0  0
 14 15  3  0  0  0  0
 16 18  1  0  0  0  0
 16 19  1  0  0  0  0
 17 16  2  0  0  0  0
 19 21  1  0  0  0  0
 19 20  1  0  0  0  0
 22 19  1  0  0  0  0
M  END
