Coordinates from ORCA-job p-NO2-Ph-N2-OOCCH3-B3LYPG-aug-cc-pVDZ-scan-d09-49-n400
 OpenBabel01151817083D

 22 21  0  0  0  0  0  0  0  0999 V2000
   14.3617    8.4830   -2.7301 C   0  0  0  0  0  0  0  0  0  0  0  0
   13.4504    7.5531   -2.2346 C   0  0  0  0  0  0  0  0  0  0  0  0
   13.7319    6.1871   -2.3347 C   0  0  0  0  0  0  0  0  0  0  0  0
   14.9187    5.7287   -2.9180 C   0  0  0  0  0  0  0  0  0  0  0  0
   15.8311    6.6575   -3.4154 C   0  0  0  0  0  0  0  0  0  0  0  0
   15.5408    8.0203   -3.3174 C   0  0  0  0  0  0  0  0  0  0  0  0
   14.1724    9.5513   -2.6669 H   0  0  0  0  0  0  0  0  0  0  0  0
   12.5234    7.8744   -1.7612 H   0  0  0  0  0  0  0  0  0  0  0  0
   15.1265    4.6642   -2.9870 H   0  0  0  0  0  0  0  0  0  0  0  0
   16.7631    6.3384   -3.8747 H   0  0  0  0  0  0  0  0  0  0  0  0
   16.5091    8.9982   -3.8426 N   0  0  0  0  0  0  0  0  0  0  0  0
   16.2380   10.1916   -3.7257 O   0  0  0  0  0  0  0  0  0  0  0  0
   17.5499    8.5665   -4.3339 O   0  0  0  0  0  0  0  0  0  0  0  0
   15.4501    6.1667    1.2193 N   0  0  0  0  0  0  0  0  0  0  0  0
   15.4262    5.1444    1.6435 N   0  0  0  0  0  0  0  0  0  0  0  0
   12.3832    4.1868   -2.3787 C   0  0  0  0  0  0  0  0  0  0  0  0
   12.7284    3.8780   -3.4898 O   0  0  0  0  0  0  0  0  0  0  0  0
   12.8164    5.3305   -1.7328 O   0  0  0  0  0  0  0  0  0  0  0  0
   11.4327    3.4309   -1.4924 C   0  0  0  0  0  0  0  0  0  0  0  0
   11.9349    3.1592   -0.5544 H   0  0  0  0  0  0  0  0  0  0  0  0
   10.5766    4.0682   -1.2344 H   0  0  0  0  0  0  0  0  0  0  0  0
   11.0915    2.5324   -2.0130 H   0  0  0  0  0  0  0  0  0  0  0  0
  1  7  1  0  0  0  0
  1  2  2  0  0  0  0
  2  8  1  0  0  0  0
  3  2  1  0  0  0  0
  3 18  1  0  0  0  0
  4  3  2  0  0  0  0
  5  6  2  0  0  0  0
  5  4  1  0  0  0  0
  6  1  1  0  0  0  0
  9  4  1  0  0  0  0
 10  5  1  0  0  0  0
 11 12  2  0  0  0  0
 11  6  1  0  0  0  0
 13 11  2  0  0  0  0
 14 15  3  0  0  0  0
 16 18  1  0  0  0  0
 16 19  1  0  0  0  0
 17 16  2  0  0  0  0
 19 21  1  0  0  0  0
 19 20  1  0  0  0  0
 22 19  1  0  0  0  0
M  END
