Coordinates from ORCA-job p-NO2-Ph-N2-OOCCH3-B3LYPG-aug-cc-pVDZ-scan-d09-49-n400
 OpenBabel01151817083D

 22 21  0  0  0  0  0  0  0  0999 V2000
   14.3542    8.4793   -2.7361 C   0  0  0  0  0  0  0  0  0  0  0  0
   13.4397    7.5496   -2.2466 C   0  0  0  0  0  0  0  0  0  0  0  0
   13.7187    6.1833   -2.3506 C   0  0  0  0  0  0  0  0  0  0  0  0
   14.9067    5.7247   -2.9312 C   0  0  0  0  0  0  0  0  0  0  0  0
   15.8223    6.6535   -3.4226 C   0  0  0  0  0  0  0  0  0  0  0  0
   15.5343    8.0164   -3.3212 C   0  0  0  0  0  0  0  0  0  0  0  0
   14.1667    9.5478   -2.6698 H   0  0  0  0  0  0  0  0  0  0  0  0
   12.5119    7.8709   -1.7750 H   0  0  0  0  0  0  0  0  0  0  0  0
   15.1130    4.6603   -3.0029 H   0  0  0  0  0  0  0  0  0  0  0  0
   16.7552    6.3341   -3.8799 H   0  0  0  0  0  0  0  0  0  0  0  0
   16.5060    8.9941   -3.8403 N   0  0  0  0  0  0  0  0  0  0  0  0
   16.2360   10.1876   -3.7219 O   0  0  0  0  0  0  0  0  0  0  0  0
   17.5467    8.5621   -4.3314 O   0  0  0  0  0  0  0  0  0  0  0  0
   15.5684    6.2092    1.3734 N   0  0  0  0  0  0  0  0  0  0  0  0
   15.5321    5.1739    1.7621 N   0  0  0  0  0  0  0  0  0  0  0  0
   12.3698    4.1830   -2.4023 C   0  0  0  0  0  0  0  0  0  0  0  0
   12.7217    3.8731   -3.5109 O   0  0  0  0  0  0  0  0  0  0  0  0
   12.7992    5.3272   -1.7546 O   0  0  0  0  0  0  0  0  0  0  0  0
   11.4137    3.4283   -1.5211 C   0  0  0  0  0  0  0  0  0  0  0  0
   11.9088    3.1598   -0.5785 H   0  0  0  0  0  0  0  0  0  0  0  0
   10.5548    4.0652   -1.2715 H   0  0  0  0  0  0  0  0  0  0  0  0
   11.0773    2.5280   -2.0420 H   0  0  0  0  0  0  0  0  0  0  0  0
  1  7  1  0  0  0  0
  1  2  2  0  0  0  0
  2  8  1  0  0  0  0
  3  2  1  0  0  0  0
  3 18  1  0  0  0  0
  4  3  2  0  0  0  0
  5  6  2  0  0  0  0
  5  4  1  0  0  0  0
  6  1  1  0  0  0  0
  9  4  1  0  0  0  0
 10  5  1  0  0  0  0
 11 12  2  0  0  0  0
 11  6  1  0  0  0  0
 13 11  2  0  0  0  0
 14 15  3  0  0  0  0
 16 18  1  0  0  0  0
 16 19  1  0  0  0  0
 17 16  2  0  0  0  0
 19 21  1  0  0  0  0
 19 20  1  0  0  0  0
 22 19  1  0  0  0  0
M  END
