Coordinates from ORCA-job p-NO2-Ph-N2-OOCCH3-B3LYPG-aug-cc-pVDZ-scan-d09-49-n400
 OpenBabel01151817083D

 22 22  0  0  0  0  0  0  0  0999 V2000
   15.1250    8.6834   -2.9032 C   0  0  0  0  0  0  0  0  0  0  0  0
   14.1011    7.9474   -2.3812 C   0  0  0  0  0  0  0  0  0  0  0  0
   14.3230    6.5840   -1.7347 C   0  0  0  0  0  0  0  0  0  0  0  0
   15.7971    6.1922   -1.7733 C   0  0  0  0  0  0  0  0  0  0  0  0
   16.7526    6.9991   -2.3194 C   0  0  0  0  0  0  0  0  0  0  0  0
   16.4574    8.2444   -2.8943 C   0  0  0  0  0  0  0  0  0  0  0  0
   14.8932    9.6534   -3.3439 H   0  0  0  0  0  0  0  0  0  0  0  0
   13.0600    8.2615   -2.3701 H   0  0  0  0  0  0  0  0  0  0  0  0
   15.9945    5.2251   -1.3170 H   0  0  0  0  0  0  0  0  0  0  0  0
   17.7880    6.6579   -2.3054 H   0  0  0  0  0  0  0  0  0  0  0  0
   17.4945    9.0510   -3.4587 N   0  0  0  0  0  0  0  0  0  0  0  0
   17.1842   10.1434   -3.9555 O   0  0  0  0  0  0  0  0  0  0  0  0
   18.6563    8.6202   -3.4273 O   0  0  0  0  0  0  0  0  0  0  0  0
   13.6556    6.0636   -1.3738 N   0  0  0  0  0  0  0  0  0  0  0  0
   12.7745    5.4118   -0.8209 N   0  0  0  0  0  0  0  0  0  0  0  0
   11.2063    3.7225   -1.3005 C   0  0  0  0  0  0  0  0  0  0  0  0
   10.8725    3.7349   -0.1532 O   0  0  0  0  0  0  0  0  0  0  0  0
   12.2258    4.5460   -1.8180 O   0  0  0  0  0  0  0  0  0  0  0  0
   10.6543    2.8884   -2.4220 C   0  0  0  0  0  0  0  0  0  0  0  0
   10.0821    3.5313   -3.1056 H   0  0  0  0  0  0  0  0  0  0  0  0
   11.4643    2.4243   -2.9980 H   0  0  0  0  0  0  0  0  0  0  0  0
    9.9951    2.1254   -1.9987 H   0  0  0  0  0  0  0  0  0  0  0  0
  1  6  2  0  0  0  0
  1  2  1  0  0  0  0
  2  8  1  0  0  0  0
  2  3  2  0  0  0  0
  3 14  1  0  0  0  0
  4  3  1  0  0  0  0
  4  9  1  0  0  0  0
  5 10  1  0  0  0  0
  5  4  2  0  0  0  0
  6  5  1  0  0  0  0
  7  1  1  0  0  0  0
 11 13  2  0  0  0  0
 11  6  1  0  0  0  0
 12 11  2  0  0  0  0
 14 15  1  0  0  0  0
 16 17  2  0  0  0  0
 18 16  1  0  0  0  0
 18 15  1  0  0  0  0
 19 22  1  0  0  0  0
 19 16  1  0  0  0  0
 20 19  1  0  0  0  0
 21 19  1  0  0  0  0
M  RAD  2  14   2  15   2
M  END
