Coordinates from ORCA-job p-NO2-Ph-N2-OOCCH3-B3LYPG-aug-cc-pVDZ-scan-d09-49-n400
 OpenBabel01151817083D

 22 21  0  0  0  0  0  0  0  0999 V2000
   14.3658    8.4836   -2.7245 C   0  0  0  0  0  0  0  0  0  0  0  0
   13.4554    7.5539   -2.2278 C   0  0  0  0  0  0  0  0  0  0  0  0
   13.7377    6.1886   -2.3270 C   0  0  0  0  0  0  0  0  0  0  0  0
   14.9239    5.7303   -2.9103 C   0  0  0  0  0  0  0  0  0  0  0  0
   15.8354    6.6588   -3.4089 C   0  0  0  0  0  0  0  0  0  0  0  0
   15.5447    8.0211   -3.3115 C   0  0  0  0  0  0  0  0  0  0  0  0
   14.1759    9.5519   -2.6622 H   0  0  0  0  0  0  0  0  0  0  0  0
   12.5290    7.8746   -1.7548 H   0  0  0  0  0  0  0  0  0  0  0  0
   15.1318    4.6665   -2.9786 H   0  0  0  0  0  0  0  0  0  0  0  0
   16.7671    6.3397   -3.8688 H   0  0  0  0  0  0  0  0  0  0  0  0
   16.5123    8.9987   -3.8380 N   0  0  0  0  0  0  0  0  0  0  0  0
   16.2326   10.1917   -3.7384 O   0  0  0  0  0  0  0  0  0  0  0  0
   17.5447    8.5666   -4.3463 O   0  0  0  0  0  0  0  0  0  0  0  0
   15.4049    6.1495    1.1624 N   0  0  0  0  0  0  0  0  0  0  0  0
   15.3843    5.1344    1.5965 N   0  0  0  0  0  0  0  0  0  0  0  0
   12.3892    4.1895   -2.3707 C   0  0  0  0  0  0  0  0  0  0  0  0
   12.7325    3.8822   -3.4828 O   0  0  0  0  0  0  0  0  0  0  0  0
   12.8236    5.3320   -1.7237 O   0  0  0  0  0  0  0  0  0  0  0  0
   11.4401    3.4328   -1.4838 C   0  0  0  0  0  0  0  0  0  0  0  0
   11.9442    3.1590   -0.5474 H   0  0  0  0  0  0  0  0  0  0  0  0
   10.5851    4.0702   -1.2227 H   0  0  0  0  0  0  0  0  0  0  0  0
   11.0971    2.5355   -2.0054 H   0  0  0  0  0  0  0  0  0  0  0  0
  1  7  1  0  0  0  0
  1  2  2  0  0  0  0
  2  8  1  0  0  0  0
  3  2  1  0  0  0  0
  3 18  1  0  0  0  0
  4  3  2  0  0  0  0
  5  6  2  0  0  0  0
  5  4  1  0  0  0  0
  6  1  1  0  0  0  0
  9  4  1  0  0  0  0
 10  5  1  0  0  0  0
 11 12  2  0  0  0  0
 11  6  1  0  0  0  0
 13 11  2  0  0  0  0
 14 15  3  0  0  0  0
 16 18  1  0  0  0  0
 16 19  1  0  0  0  0
 17 16  2  0  0  0  0
 19 21  1  0  0  0  0
 19 20  1  0  0  0  0
 22 19  1  0  0  0  0
M  END
