Coordinates from ORCA-job p-NO2-Ph-N2-OOCCH3-B3LYPG-aug-cc-pVDZ-scan-d09-49-n400
 OpenBabel01151817083D

 22 21  0  0  0  0  0  0  0  0999 V2000
   14.3890    8.4827   -2.6834 C   0  0  0  0  0  0  0  0  0  0  0  0
   13.4894    7.5517   -2.1703 C   0  0  0  0  0  0  0  0  0  0  0  0
   13.7810    6.1881   -2.2569 C   0  0  0  0  0  0  0  0  0  0  0  0
   14.9615    5.7318   -2.8519 C   0  0  0  0  0  0  0  0  0  0  0  0
   15.8628    6.6608   -3.3674 C   0  0  0  0  0  0  0  0  0  0  0  0
   15.5657    8.0223   -3.2768 C   0  0  0  0  0  0  0  0  0  0  0  0
   14.1929    9.5503   -2.6300 H   0  0  0  0  0  0  0  0  0  0  0  0
   12.5648    7.8713   -1.6930 H   0  0  0  0  0  0  0  0  0  0  0  0
   15.1737    4.6684   -2.9156 H   0  0  0  0  0  0  0  0  0  0  0  0
   16.7909    6.3437   -3.8357 H   0  0  0  0  0  0  0  0  0  0  0  0
   16.5225    9.0012   -3.8203 N   0  0  0  0  0  0  0  0  0  0  0  0
   16.2368   10.1934   -3.7278 O   0  0  0  0  0  0  0  0  0  0  0  0
   17.5526    8.5709   -4.3348 O   0  0  0  0  0  0  0  0  0  0  0  0
   15.0826    6.1003    0.5834 N   0  0  0  0  0  0  0  0  0  0  0  0
   15.1050    5.1455    1.1378 N   0  0  0  0  0  0  0  0  0  0  0  0
   12.4240    4.1963   -2.3009 C   0  0  0  0  0  0  0  0  0  0  0  0
   12.7505    3.9002   -3.4209 O   0  0  0  0  0  0  0  0  0  0  0  0
   12.8751    5.3283   -1.6460 O   0  0  0  0  0  0  0  0  0  0  0  0
   11.4815    3.4353   -1.4106 C   0  0  0  0  0  0  0  0  0  0  0  0
   11.9946    3.1496   -0.4827 H   0  0  0  0  0  0  0  0  0  0  0  0
   10.6326    4.0743   -1.1337 H   0  0  0  0  0  0  0  0  0  0  0  0
   11.1279    2.5451   -1.9372 H   0  0  0  0  0  0  0  0  0  0  0  0
  1  7  1  0  0  0  0
  1  2  2  0  0  0  0
  2  8  1  0  0  0  0
  3  2  1  0  0  0  0
  3 18  1  0  0  0  0
  4  3  2  0  0  0  0
  5  6  2  0  0  0  0
  5  4  1  0  0  0  0
  6  1  1  0  0  0  0
  9  4  1  0  0  0  0
 10  5  1  0  0  0  0
 11 12  2  0  0  0  0
 11  6  1  0  0  0  0
 13 11  2  0  0  0  0
 14 15  3  0  0  0  0
 16 18  1  0  0  0  0
 16 19  1  0  0  0  0
 17 16  2  0  0  0  0
 19 21  1  0  0  0  0
 19 20  1  0  0  0  0
 22 19  1  0  0  0  0
M  END
