Coordinates from ORCA-job p-NO2-Ph-N2-OOCCH3-B3LYPG-aug-cc-pVDZ-scan-d09-49-n400
 OpenBabel01151817083D

 22 21  0  0  0  0  0  0  0  0999 V2000
   14.3909    8.4667   -2.6533 C   0  0  0  0  0  0  0  0  0  0  0  0
   13.5027    7.5336   -2.1263 C   0  0  0  0  0  0  0  0  0  0  0  0
   13.8185    6.1742   -2.1757 C   0  0  0  0  0  0  0  0  0  0  0  0
   14.9920    5.7212   -2.7849 C   0  0  0  0  0  0  0  0  0  0  0  0
   15.8829    6.6512   -3.3156 C   0  0  0  0  0  0  0  0  0  0  0  0
   15.5742    8.0109   -3.2381 C   0  0  0  0  0  0  0  0  0  0  0  0
   14.1805    9.5324   -2.6209 H   0  0  0  0  0  0  0  0  0  0  0  0
   12.5733    7.8502   -1.6567 H   0  0  0  0  0  0  0  0  0  0  0  0
   15.2124    4.6586   -2.8367 H   0  0  0  0  0  0  0  0  0  0  0  0
   16.8098    6.3368   -3.7882 H   0  0  0  0  0  0  0  0  0  0  0  0
   16.5198    8.9922   -3.7965 N   0  0  0  0  0  0  0  0  0  0  0  0
   16.2223   10.1825   -3.7185 O   0  0  0  0  0  0  0  0  0  0  0  0
   17.5542    8.5657   -4.3057 O   0  0  0  0  0  0  0  0  0  0  0  0
   14.9453    6.1377    0.1830 N   0  0  0  0  0  0  0  0  0  0  0  0
   15.0700    5.2356    0.8084 N   0  0  0  0  0  0  0  0  0  0  0  0
   12.4316    4.2071   -2.2658 C   0  0  0  0  0  0  0  0  0  0  0  0
   12.7429    3.9428   -3.3976 O   0  0  0  0  0  0  0  0  0  0  0  0
   12.9125    5.3069   -1.5759 O   0  0  0  0  0  0  0  0  0  0  0  0
   11.4799    3.4369   -1.3934 C   0  0  0  0  0  0  0  0  0  0  0  0
   11.9869    3.1275   -0.4699 H   0  0  0  0  0  0  0  0  0  0  0  0
   10.6364    4.0788   -1.1066 H   0  0  0  0  0  0  0  0  0  0  0  0
   11.1183    2.5618   -1.9396 H   0  0  0  0  0  0  0  0  0  0  0  0
  1  7  1  0  0  0  0
  1  2  2  0  0  0  0
  2  8  1  0  0  0  0
  3  2  1  0  0  0  0
  3 18  1  0  0  0  0
  4  3  2  0  0  0  0
  5  6  2  0  0  0  0
  5  4  1  0  0  0  0
  6  1  1  0  0  0  0
  9  4  1  0  0  0  0
 10  5  1  0  0  0  0
 11 12  2  0  0  0  0
 11  6  1  0  0  0  0
 13 11  2  0  0  0  0
 14 15  3  0  0  0  0
 16 18  1  0  0  0  0
 16 19  1  0  0  0  0
 17 16  2  0  0  0  0
 19 21  1  0  0  0  0
 19 20  1  0  0  0  0
 22 19  1  0  0  0  0
M  END
