Coordinates from ORCA-job p-NO2-Ph-N2-OOCCH3-B3LYPG-aug-cc-pVDZ-scan-d09-49-n400
 OpenBabel01151817083D

 22 21  0  0  0  0  0  0  0  0999 V2000
   14.3715    8.4848   -2.7174 C   0  0  0  0  0  0  0  0  0  0  0  0
   13.4632    7.5549   -2.2171 C   0  0  0  0  0  0  0  0  0  0  0  0
   13.7468    6.1898   -2.3149 C   0  0  0  0  0  0  0  0  0  0  0  0
   14.9319    5.7318   -2.9005 C   0  0  0  0  0  0  0  0  0  0  0  0
   15.8412    6.6605   -3.4027 C   0  0  0  0  0  0  0  0  0  0  0  0
   15.5494    8.0226   -3.3065 C   0  0  0  0  0  0  0  0  0  0  0  0
   14.1805    9.5530   -2.6563 H   0  0  0  0  0  0  0  0  0  0  0  0
   12.5375    7.8753   -1.7425 H   0  0  0  0  0  0  0  0  0  0  0  0
   15.1405    4.6681   -2.9678 H   0  0  0  0  0  0  0  0  0  0  0  0
   16.7720    6.3417   -3.8647 H   0  0  0  0  0  0  0  0  0  0  0  0
   16.5148    9.0005   -3.8369 N   0  0  0  0  0  0  0  0  0  0  0  0
   16.2341   10.1934   -3.7385 O   0  0  0  0  0  0  0  0  0  0  0  0
   17.5463    8.5686   -4.3471 O   0  0  0  0  0  0  0  0  0  0  0  0
   15.3289    6.1298    1.0481 N   0  0  0  0  0  0  0  0  0  0  0  0
   15.3139    5.1260    1.5082 N   0  0  0  0  0  0  0  0  0  0  0  0
   12.3977    4.1913   -2.3553 C   0  0  0  0  0  0  0  0  0  0  0  0
   12.7369    3.8853   -3.4690 O   0  0  0  0  0  0  0  0  0  0  0  0
   12.8352    5.3328   -1.7083 O   0  0  0  0  0  0  0  0  0  0  0  0
   11.4516    3.4338   -1.4658 C   0  0  0  0  0  0  0  0  0  0  0  0
   11.9596    3.1573   -0.5323 H   0  0  0  0  0  0  0  0  0  0  0  0
   10.5985    4.0718   -1.1995 H   0  0  0  0  0  0  0  0  0  0  0  0
   11.1051    2.5381   -1.9878 H   0  0  0  0  0  0  0  0  0  0  0  0
  1  7  1  0  0  0  0
  1  2  2  0  0  0  0
  2  8  1  0  0  0  0
  3  2  1  0  0  0  0
  3 18  1  0  0  0  0
  4  3  2  0  0  0  0
  5  6  2  0  0  0  0
  5  4  1  0  0  0  0
  6  1  1  0  0  0  0
  9  4  1  0  0  0  0
 10  5  1  0  0  0  0
 11 12  2  0  0  0  0
 11  6  1  0  0  0  0
 13 11  2  0  0  0  0
 14 15  3  0  0  0  0
 16 18  1  0  0  0  0
 16 19  1  0  0  0  0
 17 16  2  0  0  0  0
 19 21  1  0  0  0  0
 19 20  1  0  0  0  0
 22 19  1  0  0  0  0
M  END
