Coordinates from ORCA-job p-NO2-Ph-N2-OOCCH3-B3LYPG-aug-cc-pVDZ-scan-d09-49-n400
 OpenBabel01151817083D

 22 22  0  0  0  0  0  0  0  0999 V2000
   14.8031    8.4265   -2.8470 C   0  0  0  0  0  0  0  0  0  0  0  0
   13.9481    7.9554   -1.8478 C   0  0  0  0  0  0  0  0  0  0  0  0
   14.3513    6.8477   -1.1156 C   0  0  0  0  0  0  0  0  0  0  0  0
   15.5682    6.2034   -1.2897 C   0  0  0  0  0  0  0  0  0  0  0  0
   16.4222    6.6766   -2.2884 C   0  0  0  0  0  0  0  0  0  0  0  0
   16.0222    7.7764   -3.0508 C   0  0  0  0  0  0  0  0  0  0  0  0
   14.5401    9.2844   -3.4607 H   0  0  0  0  0  0  0  0  0  0  0  0
   12.9944    8.4415   -1.6521 H   0  0  0  0  0  0  0  0  0  0  0  0
   15.8483    5.3538   -0.6702 H   0  0  0  0  0  0  0  0  0  0  0  0
   17.3852    6.2097   -2.4795 H   0  0  0  0  0  0  0  0  0  0  0  0
   16.9256    8.2749   -4.1079 N   0  0  0  0  0  0  0  0  0  0  0  0
   16.5548    9.2441   -4.7646 O   0  0  0  0  0  0  0  0  0  0  0  0
   17.9931    7.6892   -4.2686 O   0  0  0  0  0  0  0  0  0  0  0  0
   13.3818    6.3736    0.1876 N   0  0  0  0  0  0  0  0  0  0  0  0
   12.5522    5.5095    0.0258 N   0  0  0  0  0  0  0  0  0  0  0  0
   11.5723    3.9795   -1.5339 C   0  0  0  0  0  0  0  0  0  0  0  0
   10.8812    3.5369   -0.6586 O   0  0  0  0  0  0  0  0  0  0  0  0
   12.5130    4.9888   -1.3587 O   0  0  0  0  0  0  0  0  0  0  0  0
   11.5738    3.5568   -2.9813 C   0  0  0  0  0  0  0  0  0  0  0  0
   11.2508    4.3954   -3.6131 H   0  0  0  0  0  0  0  0  0  0  0  0
   12.5868    3.2743   -3.2961 H   0  0  0  0  0  0  0  0  0  0  0  0
   10.8886    2.7132   -3.1035 H   0  0  0  0  0  0  0  0  0  0  0  0
  1  2  1  0  0  0  0
  2  8  1  0  0  0  0
  2  3  2  0  0  0  0
  3 14  1  0  0  0  0
  4  3  1  0  0  0  0
  4  9  1  0  0  0  0
  5  4  2  0  0  0  0
  6  1  2  0  0  0  0
  6  5  1  0  0  0  0
  7  1  1  0  0  0  0
 10  5  1  0  0  0  0
 11  6  1  0  0  0  0
 12 11  2  0  0  0  0
 13 11  2  0  0  0  0
 15 14  1  0  0  0  0
 16 18  1  0  0  0  0
 16 17  2  0  0  0  0
 18 15  1  0  0  0  0
 19 16  1  0  0  0  0
 20 19  1  0  0  0  0
 21 19  1  0  0  0  0
 22 19  1  0  0  0  0
M  RAD  2  14   2  15   2
M  END
