Coordinates from ORCA-job p-NO2-Ph-N2-OOCCH3-B3LYPG-aug-cc-pVDZ-scan-d09-49-n400
 OpenBabel01151817083D

 22 21  0  0  0  0  0  0  0  0999 V2000
   14.3899    8.4811   -2.6788 C   0  0  0  0  0  0  0  0  0  0  0  0
   13.4911    7.5500   -2.1648 C   0  0  0  0  0  0  0  0  0  0  0  0
   13.7840    6.1866   -2.2494 C   0  0  0  0  0  0  0  0  0  0  0  0
   14.9640    5.7306   -2.8453 C   0  0  0  0  0  0  0  0  0  0  0  0
   15.8646    6.6598   -3.3619 C   0  0  0  0  0  0  0  0  0  0  0  0
   15.5668    8.0211   -3.2721 C   0  0  0  0  0  0  0  0  0  0  0  0
   14.1928    9.5486   -2.6265 H   0  0  0  0  0  0  0  0  0  0  0  0
   12.5664    7.8692   -1.6875 H   0  0  0  0  0  0  0  0  0  0  0  0
   15.1766    4.6673   -2.9083 H   0  0  0  0  0  0  0  0  0  0  0  0
   16.7925    6.3427   -3.8307 H   0  0  0  0  0  0  0  0  0  0  0  0
   16.5228    9.0002   -3.8168 N   0  0  0  0  0  0  0  0  0  0  0  0
   16.2380   10.1924   -3.7218 O   0  0  0  0  0  0  0  0  0  0  0  0
   17.5547    8.5703   -4.3279 O   0  0  0  0  0  0  0  0  0  0  0  0
   15.0630    6.1061    0.5243 N   0  0  0  0  0  0  0  0  0  0  0  0
   15.0967    5.1588    1.0910 N   0  0  0  0  0  0  0  0  0  0  0  0
   12.4256    4.1960   -2.2955 C   0  0  0  0  0  0  0  0  0  0  0  0
   12.7516    3.9012   -3.4159 O   0  0  0  0  0  0  0  0  0  0  0  0
   12.8784    5.3264   -1.6388 O   0  0  0  0  0  0  0  0  0  0  0  0
   11.4820    3.4350   -1.4063 C   0  0  0  0  0  0  0  0  0  0  0  0
   11.9941    3.1485   -0.4781 H   0  0  0  0  0  0  0  0  0  0  0  0
   10.6332    4.0742   -1.1299 H   0  0  0  0  0  0  0  0  0  0  0  0
   11.1285    2.5452   -1.9338 H   0  0  0  0  0  0  0  0  0  0  0  0
  1  7  1  0  0  0  0
  1  2  2  0  0  0  0
  2  8  1  0  0  0  0
  3  2  1  0  0  0  0
  3 18  1  0  0  0  0
  4  3  2  0  0  0  0
  5  6  2  0  0  0  0
  5  4  1  0  0  0  0
  6  1  1  0  0  0  0
  9  4  1  0  0  0  0
 10  5  1  0  0  0  0
 11 12  2  0  0  0  0
 11  6  1  0  0  0  0
 13 11  2  0  0  0  0
 14 15  3  0  0  0  0
 16 18  1  0  0  0  0
 16 19  1  0  0  0  0
 17 16  2  0  0  0  0
 19 21  1  0  0  0  0
 19 20  1  0  0  0  0
 22 19  1  0  0  0  0
M  END
