Coordinates from ORCA-job p-NO2-Ph-N2-OOCCH3-B3LYPG-aug-cc-pVDZ-scan-d09-49-n400
 OpenBabel01151817083D

 22 21  0  0  0  0  0  0  0  0999 V2000
   14.3386    8.4707   -2.7463 C   0  0  0  0  0  0  0  0  0  0  0  0
   13.4167    7.5414   -2.2706 C   0  0  0  0  0  0  0  0  0  0  0  0
   13.6911    6.1750   -2.3812 C   0  0  0  0  0  0  0  0  0  0  0  0
   14.8825    5.7159   -2.9539 C   0  0  0  0  0  0  0  0  0  0  0  0
   15.8055    6.6441   -3.4316 C   0  0  0  0  0  0  0  0  0  0  0  0
   15.5217    8.0071   -3.3243 C   0  0  0  0  0  0  0  0  0  0  0  0
   14.1545    9.5394   -2.6749 H   0  0  0  0  0  0  0  0  0  0  0  0
   12.4866    7.8629   -1.8052 H   0  0  0  0  0  0  0  0  0  0  0  0
   15.0859    4.6517   -3.0298 H   0  0  0  0  0  0  0  0  0  0  0  0
   16.7412    6.3239   -3.8828 H   0  0  0  0  0  0  0  0  0  0  0  0
   16.5012    8.9842   -3.8294 N   0  0  0  0  0  0  0  0  0  0  0  0
   16.2279   10.1778   -3.7198 O   0  0  0  0  0  0  0  0  0  0  0  0
   17.5374    8.5510   -4.3290 O   0  0  0  0  0  0  0  0  0  0  0  0
   15.8223    6.3035    1.6924 N   0  0  0  0  0  0  0  0  0  0  0  0
   15.7474    5.2406    1.9833 N   0  0  0  0  0  0  0  0  0  0  0  0
   12.3410    4.1764   -2.4517 C   0  0  0  0  0  0  0  0  0  0  0  0
   12.7056    3.8665   -3.5563 O   0  0  0  0  0  0  0  0  0  0  0  0
   12.7634    5.3197   -1.7983 O   0  0  0  0  0  0  0  0  0  0  0  0
   11.3739    3.4225   -1.5820 C   0  0  0  0  0  0  0  0  0  0  0  0
   11.8566    3.1566   -0.6322 H   0  0  0  0  0  0  0  0  0  0  0  0
   10.5111    4.0593   -1.3455 H   0  0  0  0  0  0  0  0  0  0  0  0
   11.0452    2.5210   -2.1056 H   0  0  0  0  0  0  0  0  0  0  0  0
  1  7  1  0  0  0  0
  1  2  2  0  0  0  0
  2  8  1  0  0  0  0
  3  2  1  0  0  0  0
  3 18  1  0  0  0  0
  4  3  2  0  0  0  0
  5  6  2  0  0  0  0
  5  4  1  0  0  0  0
  6  1  1  0  0  0  0
  9  4  1  0  0  0  0
 10  5  1  0  0  0  0
 11 12  2  0  0  0  0
 11  6  1  0  0  0  0
 13 11  2  0  0  0  0
 14 15  3  0  0  0  0
 16 18  1  0  0  0  0
 16 19  1  0  0  0  0
 17 16  2  0  0  0  0
 19 21  1  0  0  0  0
 19 20  1  0  0  0  0
 22 19  1  0  0  0  0
M  END
