Coordinates from ORCA-job p-NO2-Ph-N2-OOCCH3-B3LYPG-aug-cc-pVDZ-scan-d09-49-n400
 OpenBabel01151817083D

 22 21  0  0  0  0  0  0  0  0999 V2000
   14.3896    8.4821   -2.6811 C   0  0  0  0  0  0  0  0  0  0  0  0
   13.4902    7.5510   -2.1678 C   0  0  0  0  0  0  0  0  0  0  0  0
   13.7822    6.1875   -2.2541 C   0  0  0  0  0  0  0  0  0  0  0  0
   14.9625    5.7312   -2.8492 C   0  0  0  0  0  0  0  0  0  0  0  0
   15.8635    6.6604   -3.3650 C   0  0  0  0  0  0  0  0  0  0  0  0
   15.5662    8.0218   -3.2746 C   0  0  0  0  0  0  0  0  0  0  0  0
   14.1932    9.5496   -2.6279 H   0  0  0  0  0  0  0  0  0  0  0  0
   12.5658    7.8702   -1.6901 H   0  0  0  0  0  0  0  0  0  0  0  0
   15.1748    4.6679   -2.9125 H   0  0  0  0  0  0  0  0  0  0  0  0
   16.7916    6.3433   -3.8336 H   0  0  0  0  0  0  0  0  0  0  0  0
   16.5228    9.0007   -3.8185 N   0  0  0  0  0  0  0  0  0  0  0  0
   16.2372   10.1929   -3.7255 O   0  0  0  0  0  0  0  0  0  0  0  0
   17.5532    8.5705   -4.3325 O   0  0  0  0  0  0  0  0  0  0  0  0
   15.0739    6.1031    0.5577 N   0  0  0  0  0  0  0  0  0  0  0  0
   15.1006    5.1515    1.1176 N   0  0  0  0  0  0  0  0  0  0  0  0
   12.4247    4.1961   -2.2986 C   0  0  0  0  0  0  0  0  0  0  0  0
   12.7511    3.9004   -3.4188 O   0  0  0  0  0  0  0  0  0  0  0  0
   12.8766    5.3275   -1.6431 O   0  0  0  0  0  0  0  0  0  0  0  0
   11.4818    3.4351   -1.4087 C   0  0  0  0  0  0  0  0  0  0  0  0
   11.9944    3.1492   -0.4807 H   0  0  0  0  0  0  0  0  0  0  0  0
   10.6329    4.0742   -1.1321 H   0  0  0  0  0  0  0  0  0  0  0  0
   11.1284    2.5450   -1.9357 H   0  0  0  0  0  0  0  0  0  0  0  0
  1  7  1  0  0  0  0
  1  2  2  0  0  0  0
  2  8  1  0  0  0  0
  3  2  1  0  0  0  0
  3 18  1  0  0  0  0
  4  3  2  0  0  0  0
  5  6  2  0  0  0  0
  5  4  1  0  0  0  0
  6  1  1  0  0  0  0
  9  4  1  0  0  0  0
 10  5  1  0  0  0  0
 11 12  2  0  0  0  0
 11  6  1  0  0  0  0
 13 11  2  0  0  0  0
 14 15  3  0  0  0  0
 16 18  1  0  0  0  0
 16 19  1  0  0  0  0
 17 16  2  0  0  0  0
 19 21  1  0  0  0  0
 19 20  1  0  0  0  0
 22 19  1  0  0  0  0
M  END
