Coordinates from ORCA-job p-NO2-Ph-N2-OOCCH3-B3LYPG-aug-cc-pVDZ-scan-d09-49-n400
 OpenBabel01151817083D

 22 21  0  0  0  0  0  0  0  0999 V2000
   14.3798    8.4850   -2.7032 C   0  0  0  0  0  0  0  0  0  0  0  0
   13.4751    7.5548   -2.1973 C   0  0  0  0  0  0  0  0  0  0  0  0
   13.7618    6.1902   -2.2905 C   0  0  0  0  0  0  0  0  0  0  0  0
   14.9450    5.7328   -2.8803 C   0  0  0  0  0  0  0  0  0  0  0  0
   15.8510    6.6616   -3.3881 C   0  0  0  0  0  0  0  0  0  0  0  0
   15.5571    8.0235   -3.2944 C   0  0  0  0  0  0  0  0  0  0  0  0
   14.1869    9.5529   -2.6452 H   0  0  0  0  0  0  0  0  0  0  0  0
   12.5499    7.8752   -1.7218 H   0  0  0  0  0  0  0  0  0  0  0  0
   15.1549    4.6693   -2.9467 H   0  0  0  0  0  0  0  0  0  0  0  0
   16.7806    6.3433   -3.8527 H   0  0  0  0  0  0  0  0  0  0  0  0
   16.5191    9.0017   -3.8300 N   0  0  0  0  0  0  0  0  0  0  0  0
   16.2364   10.1943   -3.7339 O   0  0  0  0  0  0  0  0  0  0  0  0
   17.5500    8.5704   -4.3419 O   0  0  0  0  0  0  0  0  0  0  0  0
   15.2096    6.1081    0.8359 N   0  0  0  0  0  0  0  0  0  0  0  0
   15.2128    5.1285    1.3455 N   0  0  0  0  0  0  0  0  0  0  0  0
   12.4106    4.1935   -2.3296 C   0  0  0  0  0  0  0  0  0  0  0  0
   12.7442    3.8904   -3.4457 O   0  0  0  0  0  0  0  0  0  0  0  0
   12.8530    5.3323   -1.6811 O   0  0  0  0  0  0  0  0  0  0  0  0
   11.4672    3.4348   -1.4383 C   0  0  0  0  0  0  0  0  0  0  0  0
   11.9789    3.1537   -0.5082 H   0  0  0  0  0  0  0  0  0  0  0  0
   10.6166    4.0734   -1.1656 H   0  0  0  0  0  0  0  0  0  0  0  0
   11.1165    2.5416   -1.9619 H   0  0  0  0  0  0  0  0  0  0  0  0
  1  7  1  0  0  0  0
  1  2  2  0  0  0  0
  2  8  1  0  0  0  0
  3  2  1  0  0  0  0
  3 18  1  0  0  0  0
  4  3  2  0  0  0  0
  5  6  2  0  0  0  0
  5  4  1  0  0  0  0
  6  1  1  0  0  0  0
  9  4  1  0  0  0  0
 10  5  1  0  0  0  0
 11 12  2  0  0  0  0
 11  6  1  0  0  0  0
 13 11  2  0  0  0  0
 14 15  3  0  0  0  0
 16 18  1  0  0  0  0
 16 19  1  0  0  0  0
 17 16  2  0  0  0  0
 19 21  1  0  0  0  0
 19 20  1  0  0  0  0
 22 19  1  0  0  0  0
M  END
