Coordinates from ORCA-job p-NO2-Ph-N2-OOCCH3-B3LYPG-aug-cc-pVDZ-scan-d09-49-n400
 OpenBabel01151817083D

 22 21  0  0  0  0  0  0  0  0999 V2000
   14.3908    8.4799   -2.6743 C   0  0  0  0  0  0  0  0  0  0  0  0
   13.4924    7.5486   -2.1598 C   0  0  0  0  0  0  0  0  0  0  0  0
   13.7869    6.1855   -2.2418 C   0  0  0  0  0  0  0  0  0  0  0  0
   14.9667    5.7297   -2.8381 C   0  0  0  0  0  0  0  0  0  0  0  0
   15.8669    6.6588   -3.3552 C   0  0  0  0  0  0  0  0  0  0  0  0
   15.5684    8.0201   -3.2663 C   0  0  0  0  0  0  0  0  0  0  0  0
   14.1928    9.5473   -2.6234 H   0  0  0  0  0  0  0  0  0  0  0  0
   12.5673    7.8676   -1.6834 H   0  0  0  0  0  0  0  0  0  0  0  0
   15.1798    4.6664   -2.9002 H   0  0  0  0  0  0  0  0  0  0  0  0
   16.7950    6.3419   -3.8238 H   0  0  0  0  0  0  0  0  0  0  0  0
   16.5241    8.9993   -3.8113 N   0  0  0  0  0  0  0  0  0  0  0  0
   16.2361   10.1912   -3.7221 O   0  0  0  0  0  0  0  0  0  0  0  0
   17.5541    8.5693   -4.3263 O   0  0  0  0  0  0  0  0  0  0  0  0
   15.0461    6.1098    0.4748 N   0  0  0  0  0  0  0  0  0  0  0  0
   15.0925    5.1691    1.0515 N   0  0  0  0  0  0  0  0  0  0  0  0
   12.4266    4.1964   -2.2914 C   0  0  0  0  0  0  0  0  0  0  0  0
   12.7522    3.9034   -3.4124 O   0  0  0  0  0  0  0  0  0  0  0  0
   12.8810    5.3249   -1.6324 O   0  0  0  0  0  0  0  0  0  0  0  0
   11.4821    3.4348   -1.4037 C   0  0  0  0  0  0  0  0  0  0  0  0
   11.9933    3.1471   -0.4754 H   0  0  0  0  0  0  0  0  0  0  0  0
   10.6334    4.0742   -1.1272 H   0  0  0  0  0  0  0  0  0  0  0  0
   11.1284    2.5459   -1.9325 H   0  0  0  0  0  0  0  0  0  0  0  0
  1  7  1  0  0  0  0
  1  2  2  0  0  0  0
  2  8  1  0  0  0  0
  3  2  1  0  0  0  0
  3 18  1  0  0  0  0
  4  3  2  0  0  0  0
  5  6  2  0  0  0  0
  5  4  1  0  0  0  0
  6  1  1  0  0  0  0
  9  4  1  0  0  0  0
 10  5  1  0  0  0  0
 11 12  2  0  0  0  0
 11  6  1  0  0  0  0
 13 11  2  0  0  0  0
 14 15  3  0  0  0  0
 16 18  1  0  0  0  0
 16 19  1  0  0  0  0
 17 16  2  0  0  0  0
 19 21  1  0  0  0  0
 19 20  1  0  0  0  0
 22 19  1  0  0  0  0
M  END
