Coordinates from ORCA-job p-NO2-Ph-N2-OOCCH3-B3LYPG-aug-cc-pVDZ-scan-d09-49-n400
 OpenBabel01151817083D

 22 21  0  0  0  0  0  0  0  0999 V2000
   14.8290    8.4372   -2.8906 C   0  0  0  0  0  0  0  0  0  0  0  0
   13.9695    7.9522   -1.8961 C   0  0  0  0  0  0  0  0  0  0  0  0
   14.4139    6.8602   -1.1817 C   0  0  0  0  0  0  0  0  0  0  0  0
   15.6236    6.2154   -1.3276 C   0  0  0  0  0  0  0  0  0  0  0  0
   16.4755    6.7084   -2.3247 C   0  0  0  0  0  0  0  0  0  0  0  0
   16.0599    7.8049   -3.0847 C   0  0  0  0  0  0  0  0  0  0  0  0
   14.5571    9.2914   -3.5062 H   0  0  0  0  0  0  0  0  0  0  0  0
   13.0046    8.4176   -1.7076 H   0  0  0  0  0  0  0  0  0  0  0  0
   15.9096    5.3673   -0.7093 H   0  0  0  0  0  0  0  0  0  0  0  0
   17.4469    6.2573   -2.5130 H   0  0  0  0  0  0  0  0  0  0  0  0
   16.9623    8.3203   -4.1356 N   0  0  0  0  0  0  0  0  0  0  0  0
   16.5802    9.2851   -4.7920 O   0  0  0  0  0  0  0  0  0  0  0  0
   18.0399    7.7522   -4.2904 O   0  0  0  0  0  0  0  0  0  0  0  0
   13.2337    6.2590    0.4129 N   0  0  0  0  0  0  0  0  0  0  0  0
   12.4337    5.4157    0.1744 N   0  0  0  0  0  0  0  0  0  0  0  0
   11.4921    3.9573   -1.5121 C   0  0  0  0  0  0  0  0  0  0  0  0
   10.7459    3.5010   -0.6883 O   0  0  0  0  0  0  0  0  0  0  0  0
   12.4322    4.9409   -1.2632 O   0  0  0  0  0  0  0  0  0  0  0  0
   11.5705    3.5608   -2.9676 C   0  0  0  0  0  0  0  0  0  0  0  0
   11.3443    4.4261   -3.6048 H   0  0  0  0  0  0  0  0  0  0  0  0
   12.5847    3.2204   -3.2144 H   0  0  0  0  0  0  0  0  0  0  0  0
   10.8481    2.7605   -3.1522 H   0  0  0  0  0  0  0  0  0  0  0  0
  1  2  1  0  0  0  0
  2  8  1  0  0  0  0
  2  3  2  0  0  0  0
  4  3  1  0  0  0  0
  4  9  1  0  0  0  0
  5  4  2  0  0  0  0
  6  1  2  0  0  0  0
  6  5  1  0  0  0  0
  7  1  1  0  0  0  0
 10  5  1  0  0  0  0
 11  6  1  0  0  0  0
 12 11  2  0  0  0  0
 13 11  2  0  0  0  0
 15 14  1  0  0  0  0
 16 18  1  0  0  0  0
 16 17  2  0  0  0  0
 18 15  1  0  0  0  0
 19 16  1  0  0  0  0
 20 19  1  0  0  0  0
 21 19  1  0  0  0  0
 22 19  1  0  0  0  0
M  RAD  3   3   2  14   3  15   2
M  END
