Coordinates from ORCA-job p-NO2-Ph-N2-OOCCH3-B3LYPG-aug-cc-pVDZ-scan-d09-49-n400
 OpenBabel01151817083D

 22 21  0  0  0  0  0  0  0  0999 V2000
   14.3909    8.4687   -2.6558 C   0  0  0  0  0  0  0  0  0  0  0  0
   13.5008    7.5360   -2.1308 C   0  0  0  0  0  0  0  0  0  0  0  0
   13.8136    6.1760   -2.1845 C   0  0  0  0  0  0  0  0  0  0  0  0
   14.9886    5.7224   -2.7907 C   0  0  0  0  0  0  0  0  0  0  0  0
   15.8811    6.6521   -3.3192 C   0  0  0  0  0  0  0  0  0  0  0  0
   15.5737    8.0121   -3.2406 C   0  0  0  0  0  0  0  0  0  0  0  0
   14.1823    9.5347   -2.6211 H   0  0  0  0  0  0  0  0  0  0  0  0
   12.5717    7.8532   -1.6611 H   0  0  0  0  0  0  0  0  0  0  0  0
   15.2081    4.6598   -2.8433 H   0  0  0  0  0  0  0  0  0  0  0  0
   16.8086    6.3374   -3.7904 H   0  0  0  0  0  0  0  0  0  0  0  0
   16.5211    8.9929   -3.7966 N   0  0  0  0  0  0  0  0  0  0  0  0
   16.2245   10.1834   -3.7181 O   0  0  0  0  0  0  0  0  0  0  0  0
   17.5548    8.5657   -4.3064 O   0  0  0  0  0  0  0  0  0  0  0  0
   14.9567    6.1339    0.2107 N   0  0  0  0  0  0  0  0  0  0  0  0
   15.0732    5.2274    0.8312 N   0  0  0  0  0  0  0  0  0  0  0  0
   12.4307    4.2056   -2.2683 C   0  0  0  0  0  0  0  0  0  0  0  0
   12.7438    3.9372   -3.3988 O   0  0  0  0  0  0  0  0  0  0  0  0
   12.9077    5.3098   -1.5831 O   0  0  0  0  0  0  0  0  0  0  0  0
   11.4805    3.4363   -1.3935 C   0  0  0  0  0  0  0  0  0  0  0  0
   11.9885    3.1302   -0.4694 H   0  0  0  0  0  0  0  0  0  0  0  0
   10.6362    4.0777   -1.1079 H   0  0  0  0  0  0  0  0  0  0  0  0
   11.1202    2.5591   -1.9371 H   0  0  0  0  0  0  0  0  0  0  0  0
  1  7  1  0  0  0  0
  1  2  2  0  0  0  0
  2  8  1  0  0  0  0
  3  2  1  0  0  0  0
  3 18  1  0  0  0  0
  4  3  2  0  0  0  0
  5  6  2  0  0  0  0
  5  4  1  0  0  0  0
  6  1  1  0  0  0  0
  9  4  1  0  0  0  0
 10  5  1  0  0  0  0
 11 12  2  0  0  0  0
 11  6  1  0  0  0  0
 13 11  2  0  0  0  0
 14 15  3  0  0  0  0
 16 18  1  0  0  0  0
 16 19  1  0  0  0  0
 17 16  2  0  0  0  0
 19 21  1  0  0  0  0
 19 20  1  0  0  0  0
 22 19  1  0  0  0  0
M  END
