Coordinates from ORCA-job p-NO2-Ph-N2-OOCCH3-B3LYPG-aug-cc-pVDZ-scan-d09-49-n400
 OpenBabel01151817083D

 22 21  0  0  0  0  0  0  0  0999 V2000
   14.3647    8.4841   -2.7272 C   0  0  0  0  0  0  0  0  0  0  0  0
   13.4550    7.5541   -2.2289 C   0  0  0  0  0  0  0  0  0  0  0  0
   13.7379    6.1883   -2.3269 C   0  0  0  0  0  0  0  0  0  0  0  0
   14.9241    5.7301   -2.9114 C   0  0  0  0  0  0  0  0  0  0  0  0
   15.8350    6.6590   -3.4116 C   0  0  0  0  0  0  0  0  0  0  0  0
   15.5436    8.0216   -3.3150 C   0  0  0  0  0  0  0  0  0  0  0  0
   14.1745    9.5523   -2.6654 H   0  0  0  0  0  0  0  0  0  0  0  0
   12.5281    7.8752   -1.7556 H   0  0  0  0  0  0  0  0  0  0  0  0
   15.1326    4.6658   -2.9795 H   0  0  0  0  0  0  0  0  0  0  0  0
   16.7665    6.3401   -3.8719 H   0  0  0  0  0  0  0  0  0  0  0  0
   16.5104    8.9995   -3.8429 N   0  0  0  0  0  0  0  0  0  0  0  0
   16.2384   10.1929   -3.7274 O   0  0  0  0  0  0  0  0  0  0  0  0
   17.5508    8.5681   -4.3353 O   0  0  0  0  0  0  0  0  0  0  0  0
   15.4014    6.1504    1.1532 N   0  0  0  0  0  0  0  0  0  0  0  0
   15.3818    5.1337    1.5902 N   0  0  0  0  0  0  0  0  0  0  0  0
   12.3889    4.1887   -2.3688 C   0  0  0  0  0  0  0  0  0  0  0  0
   12.7311    3.8809   -3.4811 O   0  0  0  0  0  0  0  0  0  0  0  0
   12.8241    5.3315   -1.7227 O   0  0  0  0  0  0  0  0  0  0  0  0
   11.4405    3.4321   -1.4808 C   0  0  0  0  0  0  0  0  0  0  0  0
   11.9453    3.1584   -0.5448 H   0  0  0  0  0  0  0  0  0  0  0  0
   10.5857    4.0697   -1.2191 H   0  0  0  0  0  0  0  0  0  0  0  0
   11.0968    2.5347   -2.0018 H   0  0  0  0  0  0  0  0  0  0  0  0
  1  7  1  0  0  0  0
  1  2  2  0  0  0  0
  2  8  1  0  0  0  0
  3  2  1  0  0  0  0
  3 18  1  0  0  0  0
  4  3  2  0  0  0  0
  5  6  2  0  0  0  0
  5  4  1  0  0  0  0
  6  1  1  0  0  0  0
  9  4  1  0  0  0  0
 10  5  1  0  0  0  0
 11 12  2  0  0  0  0
 11  6  1  0  0  0  0
 13 11  2  0  0  0  0
 14 15  3  0  0  0  0
 16 18  1  0  0  0  0
 16 19  1  0  0  0  0
 17 16  2  0  0  0  0
 19 21  1  0  0  0  0
 19 20  1  0  0  0  0
 22 19  1  0  0  0  0
M  END
