Coordinates from ORCA-job p-NO2-Ph-N2-OOCCH3-B3LYPG-aug-cc-pVDZ-scan-d09-49-n400
 OpenBabel01151817083D

 22 21  0  0  0  0  0  0  0  0999 V2000
   14.3445    8.4736   -2.7419 C   0  0  0  0  0  0  0  0  0  0  0  0
   13.4250    7.5442   -2.2618 C   0  0  0  0  0  0  0  0  0  0  0  0
   13.7008    6.1779   -2.3707 C   0  0  0  0  0  0  0  0  0  0  0  0
   14.8908    5.7190   -2.9461 C   0  0  0  0  0  0  0  0  0  0  0  0
   15.8113    6.6474   -3.4283 C   0  0  0  0  0  0  0  0  0  0  0  0
   15.5264    8.0102   -3.3225 C   0  0  0  0  0  0  0  0  0  0  0  0
   14.1593    9.5422   -2.6720 H   0  0  0  0  0  0  0  0  0  0  0  0
   12.4960    7.8654   -1.7940 H   0  0  0  0  0  0  0  0  0  0  0  0
   15.0949    4.6549   -3.0210 H   0  0  0  0  0  0  0  0  0  0  0  0
   16.7459    6.3275   -3.8817 H   0  0  0  0  0  0  0  0  0  0  0  0
   16.5034    8.9875   -3.8321 N   0  0  0  0  0  0  0  0  0  0  0  0
   16.2290   10.1810   -3.7239 O   0  0  0  0  0  0  0  0  0  0  0  0
   17.5388    8.5546   -4.3336 O   0  0  0  0  0  0  0  0  0  0  0  0
   15.7345    6.2704    1.5851 N   0  0  0  0  0  0  0  0  0  0  0  0
   15.6728    5.2168    1.9105 N   0  0  0  0  0  0  0  0  0  0  0  0
   12.3513    4.1789   -2.4351 C   0  0  0  0  0  0  0  0  0  0  0  0
   12.7117    3.8691   -3.5411 O   0  0  0  0  0  0  0  0  0  0  0  0
   12.7759    5.3224   -1.7835 O   0  0  0  0  0  0  0  0  0  0  0  0
   11.3877    3.4248   -1.5616 C   0  0  0  0  0  0  0  0  0  0  0  0
   11.8744    3.1585   -0.6140 H   0  0  0  0  0  0  0  0  0  0  0  0
   10.5260    4.0615   -1.3213 H   0  0  0  0  0  0  0  0  0  0  0  0
   11.0569    2.5234   -2.0842 H   0  0  0  0  0  0  0  0  0  0  0  0
  1  7  1  0  0  0  0
  1  2  2  0  0  0  0
  2  8  1  0  0  0  0
  3  2  1  0  0  0  0
  3 18  1  0  0  0  0
  4  3  2  0  0  0  0
  5  6  2  0  0  0  0
  5  4  1  0  0  0  0
  6  1  1  0  0  0  0
  9  4  1  0  0  0  0
 10  5  1  0  0  0  0
 11 12  2  0  0  0  0
 11  6  1  0  0  0  0
 13 11  2  0  0  0  0
 14 15  3  0  0  0  0
 16 18  1  0  0  0  0
 16 19  1  0  0  0  0
 17 16  2  0  0  0  0
 19 21  1  0  0  0  0
 19 20  1  0  0  0  0
 22 19  1  0  0  0  0
M  END
