Coordinates from ORCA-job p-NO2-Ph-N2-OOCCH3-B3LYPG-aug-cc-pVDZ-scan-d09-49-n400
 OpenBabel01151817083D

 22 21  0  0  0  0  0  0  0  0999 V2000
   14.3834    8.4845   -2.6962 C   0  0  0  0  0  0  0  0  0  0  0  0
   13.4800    7.5543   -2.1880 C   0  0  0  0  0  0  0  0  0  0  0  0
   13.7681    6.1901   -2.2794 C   0  0  0  0  0  0  0  0  0  0  0  0
   14.9508    5.7328   -2.8700 C   0  0  0  0  0  0  0  0  0  0  0  0
   15.8554    6.6615   -3.3801 C   0  0  0  0  0  0  0  0  0  0  0  0
   15.5605    8.0233   -3.2879 C   0  0  0  0  0  0  0  0  0  0  0  0
   14.1895    9.5524   -2.6397 H   0  0  0  0  0  0  0  0  0  0  0  0
   12.5552    7.8743   -1.7116 H   0  0  0  0  0  0  0  0  0  0  0  0
   15.1615    4.6692   -2.9346 H   0  0  0  0  0  0  0  0  0  0  0  0
   16.7847    6.3433   -3.8454 H   0  0  0  0  0  0  0  0  0  0  0  0
   16.5210    9.0017   -3.8260 N   0  0  0  0  0  0  0  0  0  0  0  0
   16.2388   10.1943   -3.7286 O   0  0  0  0  0  0  0  0  0  0  0  0
   17.5532    8.5706   -4.3357 O   0  0  0  0  0  0  0  0  0  0  0  0
   15.1564    6.1029    0.7308 N   0  0  0  0  0  0  0  0  0  0  0  0
   15.1672    5.1337    1.2602 N   0  0  0  0  0  0  0  0  0  0  0  0
   12.4156    4.1946   -2.3178 C   0  0  0  0  0  0  0  0  0  0  0  0
   12.7456    3.8938   -3.4356 O   0  0  0  0  0  0  0  0  0  0  0  0
   12.8612    5.3315   -1.6680 O   0  0  0  0  0  0  0  0  0  0  0  0
   11.4743    3.4347   -1.4252 C   0  0  0  0  0  0  0  0  0  0  0  0
   11.9883    3.1524   -0.4968 H   0  0  0  0  0  0  0  0  0  0  0  0
   10.6245    4.0731   -1.1497 H   0  0  0  0  0  0  0  0  0  0  0  0
   11.1222    2.5423   -1.9492 H   0  0  0  0  0  0  0  0  0  0  0  0
  1  7  1  0  0  0  0
  1  2  2  0  0  0  0
  2  8  1  0  0  0  0
  3  2  1  0  0  0  0
  3 18  1  0  0  0  0
  4  3  2  0  0  0  0
  5  6  2  0  0  0  0
  5  4  1  0  0  0  0
  6  1  1  0  0  0  0
  9  4  1  0  0  0  0
 10  5  1  0  0  0  0
 11 12  2  0  0  0  0
 11  6  1  0  0  0  0
 13 11  2  0  0  0  0
 14 15  3  0  0  0  0
 16 18  1  0  0  0  0
 16 19  1  0  0  0  0
 17 16  2  0  0  0  0
 19 21  1  0  0  0  0
 19 20  1  0  0  0  0
 22 19  1  0  0  0  0
M  END
