Coordinates from ORCA-job p-NO2-Ph-N2-OOCCH3-B3LYPG-aug-cc-pVDZ-scan-d09-49-n400
 OpenBabel01151817083D

 22 21  0  0  0  0  0  0  0  0999 V2000
   14.3415    8.4720   -2.7440 C   0  0  0  0  0  0  0  0  0  0  0  0
   13.4207    7.5427   -2.2662 C   0  0  0  0  0  0  0  0  0  0  0  0
   13.6959    6.1764   -2.3759 C   0  0  0  0  0  0  0  0  0  0  0  0
   14.8864    5.7174   -2.9501 C   0  0  0  0  0  0  0  0  0  0  0  0
   15.8083    6.6456   -3.4300 C   0  0  0  0  0  0  0  0  0  0  0  0
   15.5240    8.0085   -3.3233 C   0  0  0  0  0  0  0  0  0  0  0  0
   14.1570    9.5406   -2.6732 H   0  0  0  0  0  0  0  0  0  0  0  0
   12.4912    7.8641   -1.7998 H   0  0  0  0  0  0  0  0  0  0  0  0
   15.0901    4.6533   -3.0257 H   0  0  0  0  0  0  0  0  0  0  0  0
   16.7433    6.3256   -3.8824 H   0  0  0  0  0  0  0  0  0  0  0  0
   16.5022    8.9857   -3.8305 N   0  0  0  0  0  0  0  0  0  0  0  0
   16.2279   10.1792   -3.7227 O   0  0  0  0  0  0  0  0  0  0  0  0
   17.5375    8.5526   -4.3322 O   0  0  0  0  0  0  0  0  0  0  0  0
   15.7811    6.2879    1.6430 N   0  0  0  0  0  0  0  0  0  0  0  0
   15.7118    5.2293    1.9494 N   0  0  0  0  0  0  0  0  0  0  0  0
   12.3460    4.1778   -2.4440 C   0  0  0  0  0  0  0  0  0  0  0  0
   12.7086    3.8681   -3.5492 O   0  0  0  0  0  0  0  0  0  0  0  0
   12.7693    5.3211   -1.7912 O   0  0  0  0  0  0  0  0  0  0  0  0
   11.3804    3.4236   -1.5726 C   0  0  0  0  0  0  0  0  0  0  0  0
   11.8649    3.1575   -0.6238 H   0  0  0  0  0  0  0  0  0  0  0  0
   10.5181    4.0603   -1.3344 H   0  0  0  0  0  0  0  0  0  0  0  0
   11.0509    2.5222   -2.0959 H   0  0  0  0  0  0  0  0  0  0  0  0
  1  7  1  0  0  0  0
  1  2  2  0  0  0  0
  2  8  1  0  0  0  0
  3  2  1  0  0  0  0
  3 18  1  0  0  0  0
  4  3  2  0  0  0  0
  5  6  2  0  0  0  0
  5  4  1  0  0  0  0
  6  1  1  0  0  0  0
  9  4  1  0  0  0  0
 10  5  1  0  0  0  0
 11 12  2  0  0  0  0
 11  6  1  0  0  0  0
 13 11  2  0  0  0  0
 14 15  3  0  0  0  0
 16 18  1  0  0  0  0
 16 19  1  0  0  0  0
 17 16  2  0  0  0  0
 19 21  1  0  0  0  0
 19 20  1  0  0  0  0
 22 19  1  0  0  0  0
M  END
