Coordinates from ORCA-job p-NO2-Ph-N2-OOCCH3-B3LYPG-aug-cc-pVDZ-scan-d09-49-n400
 OpenBabel01151817083D

 22 21  0  0  0  0  0  0  0  0999 V2000
   14.3909    8.4691   -2.6561 C   0  0  0  0  0  0  0  0  0  0  0  0
   13.5005    7.5364   -2.1317 C   0  0  0  0  0  0  0  0  0  0  0  0
   13.8125    6.1763   -2.1865 C   0  0  0  0  0  0  0  0  0  0  0  0
   14.9879    5.7227   -2.7918 C   0  0  0  0  0  0  0  0  0  0  0  0
   15.8808    6.6524   -3.3197 C   0  0  0  0  0  0  0  0  0  0  0  0
   15.5737    8.0124   -3.2410 C   0  0  0  0  0  0  0  0  0  0  0  0
   14.1827    9.5351   -2.6208 H   0  0  0  0  0  0  0  0  0  0  0  0
   12.5714    7.8537   -1.6620 H   0  0  0  0  0  0  0  0  0  0  0  0
   15.2072    4.6600   -2.8445 H   0  0  0  0  0  0  0  0  0  0  0  0
   16.8085    6.3375   -3.7905 H   0  0  0  0  0  0  0  0  0  0  0  0
   16.5216    8.9932   -3.7965 N   0  0  0  0  0  0  0  0  0  0  0  0
   16.2246   10.1838   -3.7193 O   0  0  0  0  0  0  0  0  0  0  0  0
   17.5545    8.5659   -4.3078 O   0  0  0  0  0  0  0  0  0  0  0  0
   14.9596    6.1328    0.2179 N   0  0  0  0  0  0  0  0  0  0  0  0
   15.0740    5.2251    0.8371 N   0  0  0  0  0  0  0  0  0  0  0  0
   12.4305    4.2053   -2.2690 C   0  0  0  0  0  0  0  0  0  0  0  0
   12.7441    3.9360   -3.3992 O   0  0  0  0  0  0  0  0  0  0  0  0
   12.9067    5.3103   -1.5846 O   0  0  0  0  0  0  0  0  0  0  0  0
   11.4805    3.4363   -1.3938 C   0  0  0  0  0  0  0  0  0  0  0  0
   11.9885    3.1308   -0.4695 H   0  0  0  0  0  0  0  0  0  0  0  0
   10.6360    4.0775   -1.1086 H   0  0  0  0  0  0  0  0  0  0  0  0
   11.1204    2.5586   -1.9368 H   0  0  0  0  0  0  0  0  0  0  0  0
  1  7  1  0  0  0  0
  1  2  2  0  0  0  0
  2  8  1  0  0  0  0
  3  2  1  0  0  0  0
  3 18  1  0  0  0  0
  4  3  2  0  0  0  0
  5  6  2  0  0  0  0
  5  4  1  0  0  0  0
  6  1  1  0  0  0  0
  9  4  1  0  0  0  0
 10  5  1  0  0  0  0
 11 12  2  0  0  0  0
 11  6  1  0  0  0  0
 13 11  2  0  0  0  0
 14 15  3  0  0  0  0
 16 18  1  0  0  0  0
 16 19  1  0  0  0  0
 17 16  2  0  0  0  0
 19 21  1  0  0  0  0
 19 20  1  0  0  0  0
 22 19  1  0  0  0  0
M  END
