Coordinates from ORCA-job p-NO2-Ph-N2-OOCCH3-B3LYPG-aug-cc-pVDZ-scan-d09-49-n400
 OpenBabel01151817083D

 22 21  0  0  0  0  0  0  0  0999 V2000
   14.3676    8.4841   -2.7224 C   0  0  0  0  0  0  0  0  0  0  0  0
   13.4579    7.5543   -2.2245 C   0  0  0  0  0  0  0  0  0  0  0  0
   13.7406    6.1890   -2.3233 C   0  0  0  0  0  0  0  0  0  0  0  0
   14.9265    5.7308   -2.9072 C   0  0  0  0  0  0  0  0  0  0  0  0
   15.8372    6.6594   -3.4071 C   0  0  0  0  0  0  0  0  0  0  0  0
   15.5462    8.0217   -3.3102 C   0  0  0  0  0  0  0  0  0  0  0  0
   14.1773    9.5523   -2.6605 H   0  0  0  0  0  0  0  0  0  0  0  0
   12.5317    7.8749   -1.7510 H   0  0  0  0  0  0  0  0  0  0  0  0
   15.1346    4.6670   -2.9752 H   0  0  0  0  0  0  0  0  0  0  0  0
   16.7685    6.3404   -3.8678 H   0  0  0  0  0  0  0  0  0  0  0  0
   16.5130    8.9994   -3.8381 N   0  0  0  0  0  0  0  0  0  0  0  0
   16.2337   10.1924   -3.7375 O   0  0  0  0  0  0  0  0  0  0  0  0
   17.5458    8.5674   -4.3457 O   0  0  0  0  0  0  0  0  0  0  0  0
   15.3792    6.1427    1.1242 N   0  0  0  0  0  0  0  0  0  0  0  0
   15.3607    5.1312    1.5671 N   0  0  0  0  0  0  0  0  0  0  0  0
   12.3920    4.1901   -2.3655 C   0  0  0  0  0  0  0  0  0  0  0  0
   12.7338    3.8831   -3.4782 O   0  0  0  0  0  0  0  0  0  0  0  0
   12.8275    5.3323   -1.7187 O   0  0  0  0  0  0  0  0  0  0  0  0
   11.4441    3.4331   -1.4775 C   0  0  0  0  0  0  0  0  0  0  0  0
   11.9497    3.1585   -0.5421 H   0  0  0  0  0  0  0  0  0  0  0  0
   10.5897    4.0707   -1.2145 H   0  0  0  0  0  0  0  0  0  0  0  0
   11.0998    2.5363   -1.9991 H   0  0  0  0  0  0  0  0  0  0  0  0
  1  7  1  0  0  0  0
  1  2  2  0  0  0  0
  2  8  1  0  0  0  0
  3  2  1  0  0  0  0
  3 18  1  0  0  0  0
  4  3  2  0  0  0  0
  5  6  2  0  0  0  0
  5  4  1  0  0  0  0
  6  1  1  0  0  0  0
  9  4  1  0  0  0  0
 10  5  1  0  0  0  0
 11 12  2  0  0  0  0
 11  6  1  0  0  0  0
 13 11  2  0  0  0  0
 14 15  3  0  0  0  0
 16 18  1  0  0  0  0
 16 19  1  0  0  0  0
 17 16  2  0  0  0  0
 19 21  1  0  0  0  0
 19 20  1  0  0  0  0
 22 19  1  0  0  0  0
M  END
