Coordinates from ORCA-job p-NO2-Ph-N2-OOCCH3-B3LYPG-aug-cc-pVDZ-scan-d09-49-n400
 OpenBabel01151817083D

 22 21  0  0  0  0  0  0  0  0999 V2000
   14.3540    8.4783   -2.7345 C   0  0  0  0  0  0  0  0  0  0  0  0
   13.4384    7.5487   -2.2472 C   0  0  0  0  0  0  0  0  0  0  0  0
   13.7166    6.1828   -2.3526 C   0  0  0  0  0  0  0  0  0  0  0  0
   14.9048    5.7242   -2.9318 C   0  0  0  0  0  0  0  0  0  0  0  0
   15.8214    6.6526   -3.4211 C   0  0  0  0  0  0  0  0  0  0  0  0
   15.5342    8.0153   -3.3185 C   0  0  0  0  0  0  0  0  0  0  0  0
   14.1670    9.5468   -2.6675 H   0  0  0  0  0  0  0  0  0  0  0  0
   12.5108    7.8697   -1.7767 H   0  0  0  0  0  0  0  0  0  0  0  0
   15.1104    4.6603   -3.0042 H   0  0  0  0  0  0  0  0  0  0  0  0
   16.7546    6.3331   -3.8776 H   0  0  0  0  0  0  0  0  0  0  0  0
   16.5072    8.9927   -3.8355 N   0  0  0  0  0  0  0  0  0  0  0  0
   16.2304   10.1860   -3.7313 O   0  0  0  0  0  0  0  0  0  0  0  0
   17.5407    8.5600   -4.3410 O   0  0  0  0  0  0  0  0  0  0  0  0
   15.5896    6.2153    1.4045 N   0  0  0  0  0  0  0  0  0  0  0  0
   15.5500    5.1791    1.7844 N   0  0  0  0  0  0  0  0  0  0  0  0
   12.3681    4.1834   -2.4075 C   0  0  0  0  0  0  0  0  0  0  0  0
   12.7217    3.8739   -3.5157 O   0  0  0  0  0  0  0  0  0  0  0  0
   12.7962    5.3270   -1.7584 O   0  0  0  0  0  0  0  0  0  0  0  0
   11.4105    3.4285   -1.5281 C   0  0  0  0  0  0  0  0  0  0  0  0
   11.9041    3.1601   -0.5846 H   0  0  0  0  0  0  0  0  0  0  0  0
   10.5511    4.0653   -1.2801 H   0  0  0  0  0  0  0  0  0  0  0  0
   11.0753    2.5282   -2.0496 H   0  0  0  0  0  0  0  0  0  0  0  0
  1  7  1  0  0  0  0
  1  2  2  0  0  0  0
  2  8  1  0  0  0  0
  3  2  1  0  0  0  0
  3 18  1  0  0  0  0
  4  3  2  0  0  0  0
  5  6  2  0  0  0  0
  5  4  1  0  0  0  0
  6  1  1  0  0  0  0
  9  4  1  0  0  0  0
 10  5  1  0  0  0  0
 11 12  2  0  0  0  0
 11  6  1  0  0  0  0
 13 11  2  0  0  0  0
 14 15  3  0  0  0  0
 16 18  1  0  0  0  0
 16 19  1  0  0  0  0
 17 16  2  0  0  0  0
 19 21  1  0  0  0  0
 19 20  1  0  0  0  0
 22 19  1  0  0  0  0
M  END
