Coordinates from ORCA-job p-NO2-Ph-N2-OOCCH3-B3LYPG-aug-cc-pVDZ-scan-d09-49-n400
 OpenBabel01151817083D

 22 21  0  0  0  0  0  0  0  0999 V2000
   14.3364    8.4695   -2.7479 C   0  0  0  0  0  0  0  0  0  0  0  0
   13.4137    7.5404   -2.2736 C   0  0  0  0  0  0  0  0  0  0  0  0
   13.6880    6.1740   -2.3841 C   0  0  0  0  0  0  0  0  0  0  0  0
   14.8798    5.7148   -2.9557 C   0  0  0  0  0  0  0  0  0  0  0  0
   15.8037    6.6429   -3.4320 C   0  0  0  0  0  0  0  0  0  0  0  0
   15.5201    8.0059   -3.3245 C   0  0  0  0  0  0  0  0  0  0  0  0
   14.1524    9.5383   -2.6763 H   0  0  0  0  0  0  0  0  0  0  0  0
   12.4831    7.8620   -1.8094 H   0  0  0  0  0  0  0  0  0  0  0  0
   15.0830    4.6507   -3.0320 H   0  0  0  0  0  0  0  0  0  0  0  0
   16.7398    6.3226   -3.8819 H   0  0  0  0  0  0  0  0  0  0  0  0
   16.5005    8.9829   -3.8279 N   0  0  0  0  0  0  0  0  0  0  0  0
   16.2268   10.1765   -3.7194 O   0  0  0  0  0  0  0  0  0  0  0  0
   17.5367    8.5496   -4.3274 O   0  0  0  0  0  0  0  0  0  0  0  0
   15.8531    6.3146    1.7280 N   0  0  0  0  0  0  0  0  0  0  0  0
   15.7740    5.2491    2.0074 N   0  0  0  0  0  0  0  0  0  0  0  0
   12.3375    4.1758   -2.4574 C   0  0  0  0  0  0  0  0  0  0  0  0
   12.7036    3.8662   -3.5616 O   0  0  0  0  0  0  0  0  0  0  0  0
   12.7591    5.3188   -1.8030 O   0  0  0  0  0  0  0  0  0  0  0  0
   11.3689    3.4219   -1.5894 C   0  0  0  0  0  0  0  0  0  0  0  0
   11.8501    3.1556   -0.6389 H   0  0  0  0  0  0  0  0  0  0  0  0
   10.5059    4.0587   -1.3540 H   0  0  0  0  0  0  0  0  0  0  0  0
   11.0410    2.5205   -2.1138 H   0  0  0  0  0  0  0  0  0  0  0  0
  1  7  1  0  0  0  0
  1  2  2  0  0  0  0
  2  8  1  0  0  0  0
  3  2  1  0  0  0  0
  3 18  1  0  0  0  0
  4  3  2  0  0  0  0
  5  6  2  0  0  0  0
  5  4  1  0  0  0  0
  6  1  1  0  0  0  0
  9  4  1  0  0  0  0
 10  5  1  0  0  0  0
 11 12  2  0  0  0  0
 11  6  1  0  0  0  0
 13 11  2  0  0  0  0
 14 15  3  0  0  0  0
 16 18  1  0  0  0  0
 16 19  1  0  0  0  0
 17 16  2  0  0  0  0
 19 21  1  0  0  0  0
 19 20  1  0  0  0  0
 22 19  1  0  0  0  0
M  END
