Coordinates from ORCA-job p-NO2-Ph-N2-OOCCH3-B3LYPG-aug-cc-pVDZ-scan-d09-49-n400
 OpenBabel01151817083D

 22 21  0  0  0  0  0  0  0  0999 V2000
   14.3880    8.4507   -2.6380 C   0  0  0  0  0  0  0  0  0  0  0  0
   13.5168    7.5148   -2.0911 C   0  0  0  0  0  0  0  0  0  0  0  0
   13.8658    6.1602   -2.0918 C   0  0  0  0  0  0  0  0  0  0  0  0
   15.0276    5.7120   -2.7301 C   0  0  0  0  0  0  0  0  0  0  0  0
   15.9017    6.6449   -3.2818 C   0  0  0  0  0  0  0  0  0  0  0  0
   15.5780    8.0023   -3.2172 C   0  0  0  0  0  0  0  0  0  0  0  0
   14.1586    9.5130   -2.6309 H   0  0  0  0  0  0  0  0  0  0  0  0
   12.5820    7.8255   -1.6284 H   0  0  0  0  0  0  0  0  0  0  0  0
   15.2593    4.6512   -2.7727 H   0  0  0  0  0  0  0  0  0  0  0  0
   16.8247    6.3353   -3.7651 H   0  0  0  0  0  0  0  0  0  0  0  0
   16.5066    8.9872   -3.7963 N   0  0  0  0  0  0  0  0  0  0  0  0
   16.1826   10.1725   -3.7546 O   0  0  0  0  0  0  0  0  0  0  0  0
   17.5335    8.5652   -4.3240 O   0  0  0  0  0  0  0  0  0  0  0  0
   14.8850    6.1544    0.0186 N   0  0  0  0  0  0  0  0  0  0  0  0
   15.0670    5.2746    0.6669 N   0  0  0  0  0  0  0  0  0  0  0  0
   12.4361    4.2262   -2.2506 C   0  0  0  0  0  0  0  0  0  0  0  0
   12.7332    4.0025   -3.3945 O   0  0  0  0  0  0  0  0  0  0  0  0
   12.9526    5.2809   -1.5153 O   0  0  0  0  0  0  0  0  0  0  0  0
   11.4678    3.4464   -1.4053 C   0  0  0  0  0  0  0  0  0  0  0  0
   11.9618    3.1073   -0.4854 H   0  0  0  0  0  0  0  0  0  0  0  0
   10.6304    4.0929   -1.1103 H   0  0  0  0  0  0  0  0  0  0  0  0
   11.0979    2.5913   -1.9771 H   0  0  0  0  0  0  0  0  0  0  0  0
  1  7  1  0  0  0  0
  1  2  2  0  0  0  0
  2  8  1  0  0  0  0
  3  2  1  0  0  0  0
  3 18  1  0  0  0  0
  4  3  2  0  0  0  0
  5  6  2  0  0  0  0
  5  4  1  0  0  0  0
  6  1  1  0  0  0  0
  9  4  1  0  0  0  0
 10  5  1  0  0  0  0
 11 12  2  0  0  0  0
 11  6  1  0  0  0  0
 13 11  2  0  0  0  0
 14 15  3  0  0  0  0
 16 18  1  0  0  0  0
 16 19  1  0  0  0  0
 17 16  2  0  0  0  0
 19 21  1  0  0  0  0
 19 20  1  0  0  0  0
 22 19  1  0  0  0  0
M  END
