Coordinates from ORCA-job p-NO2-Ph-N2-OOCCH3-B3LYPG-aug-cc-pVDZ-scan-d09-49-n400
 OpenBabel01151817083D

 22 22  0  0  0  0  0  0  0  0999 V2000
   15.0197    8.7335   -2.6662 C   0  0  0  0  0  0  0  0  0  0  0  0
   14.0716    8.3107   -1.7372 C   0  0  0  0  0  0  0  0  0  0  0  0
   14.1384    7.0104   -1.2192 C   0  0  0  0  0  0  0  0  0  0  0  0
   15.1816    6.1437   -1.5789 C   0  0  0  0  0  0  0  0  0  0  0  0
   16.1468    6.5738   -2.4847 C   0  0  0  0  0  0  0  0  0  0  0  0
   16.0454    7.8580   -3.0247 C   0  0  0  0  0  0  0  0  0  0  0  0
   14.9829    9.7294   -3.0999 H   0  0  0  0  0  0  0  0  0  0  0  0
   13.2762    8.9787   -1.4113 H   0  0  0  0  0  0  0  0  0  0  0  0
   15.2371    5.1473   -1.1468 H   0  0  0  0  0  0  0  0  0  0  0  0
   16.9696    5.9285   -2.7819 H   0  0  0  0  0  0  0  0  0  0  0  0
   17.0615    8.3064   -3.9960 N   0  0  0  0  0  0  0  0  0  0  0  0
   16.9428    9.4355   -4.4651 O   0  0  0  0  0  0  0  0  0  0  0  0
   17.9501    7.5138   -4.2984 O   0  0  0  0  0  0  0  0  0  0  0  0
   13.2005    6.6688   -0.2074 N   0  0  0  0  0  0  0  0  0  0  0  0
   12.4384    5.7224   -0.2105 N   0  0  0  0  0  0  0  0  0  0  0  0
   11.7229    3.8078   -1.4590 C   0  0  0  0  0  0  0  0  0  0  0  0
   11.2194    3.3594   -0.4650 O   0  0  0  0  0  0  0  0  0  0  0  0
   12.4981    4.9569   -1.4923 O   0  0  0  0  0  0  0  0  0  0  0  0
   11.6303    3.2315   -2.8496 C   0  0  0  0  0  0  0  0  0  0  0  0
   11.0972    3.9326   -3.5062 H   0  0  0  0  0  0  0  0  0  0  0  0
   12.6335    3.0823   -3.2700 H   0  0  0  0  0  0  0  0  0  0  0  0
   11.0932    2.2798   -2.8043 H   0  0  0  0  0  0  0  0  0  0  0  0
  1  2  1  0  0  0  0
  2  8  1  0  0  0  0
  2  3  2  0  0  0  0
  3 14  1  0  0  0  0
  4  3  1  0  0  0  0
  4  9  1  0  0  0  0
  5  4  2  0  0  0  0
  6  1  2  0  0  0  0
  6  5  1  0  0  0  0
  7  1  1  0  0  0  0
 10  5  1  0  0  0  0
 11  6  1  0  0  0  0
 12 11  2  0  0  0  0
 13 11  2  0  0  0  0
 15 14  1  0  0  0  0
 16 17  2  0  0  0  0
 18 16  1  0  0  0  0
 18 15  1  0  0  0  0
 19 22  1  0  0  0  0
 19 16  1  0  0  0  0
 20 19  1  0  0  0  0
 21 19  1  0  0  0  0
M  RAD  2  14   2  15   2
M  END
