Coordinates from ORCA-job p-NO2-Ph-N2-OOCCH3-B3LYPG-aug-cc-pVDZ-scan-d09-49-n400
 OpenBabel01151817083D

 22 21  0  0  0  0  0  0  0  0999 V2000
   14.3905    8.4808   -2.6767 C   0  0  0  0  0  0  0  0  0  0  0  0
   13.4917    7.5495   -2.1628 C   0  0  0  0  0  0  0  0  0  0  0  0
   13.7851    6.1863   -2.2467 C   0  0  0  0  0  0  0  0  0  0  0  0
   14.9651    5.7303   -2.8426 C   0  0  0  0  0  0  0  0  0  0  0  0
   15.8657    6.6595   -3.3591 C   0  0  0  0  0  0  0  0  0  0  0  0
   15.5677    8.0208   -3.2694 C   0  0  0  0  0  0  0  0  0  0  0  0
   14.1932    9.5482   -2.6248 H   0  0  0  0  0  0  0  0  0  0  0  0
   12.5668    7.8687   -1.6859 H   0  0  0  0  0  0  0  0  0  0  0  0
   15.1778    4.6670   -2.9054 H   0  0  0  0  0  0  0  0  0  0  0  0
   16.7937    6.3425   -3.8277 H   0  0  0  0  0  0  0  0  0  0  0  0
   16.5238    8.9999   -3.8139 N   0  0  0  0  0  0  0  0  0  0  0  0
   16.2362   10.1919   -3.7242 O   0  0  0  0  0  0  0  0  0  0  0  0
   17.5533    8.5699   -4.3296 O   0  0  0  0  0  0  0  0  0  0  0  0
   15.0572    6.1071    0.5081 N   0  0  0  0  0  0  0  0  0  0  0  0
   15.0950    5.1619    1.0781 N   0  0  0  0  0  0  0  0  0  0  0  0
   12.4260    4.1962   -2.2943 C   0  0  0  0  0  0  0  0  0  0  0  0
   12.7520    3.9021   -3.4149 O   0  0  0  0  0  0  0  0  0  0  0  0
   12.8792    5.3260   -1.6367 O   0  0  0  0  0  0  0  0  0  0  0  0
   11.4820    3.4350   -1.4058 C   0  0  0  0  0  0  0  0  0  0  0  0
   11.9936    3.1480   -0.4775 H   0  0  0  0  0  0  0  0  0  0  0  0
   10.6331    4.0742   -1.1294 H   0  0  0  0  0  0  0  0  0  0  0  0
   11.1285    2.5455   -1.9338 H   0  0  0  0  0  0  0  0  0  0  0  0
  1  7  1  0  0  0  0
  1  2  2  0  0  0  0
  2  8  1  0  0  0  0
  3  2  1  0  0  0  0
  3 18  1  0  0  0  0
  4  3  2  0  0  0  0
  5  6  2  0  0  0  0
  5  4  1  0  0  0  0
  6  1  1  0  0  0  0
  9  4  1  0  0  0  0
 10  5  1  0  0  0  0
 11 12  2  0  0  0  0
 11  6  1  0  0  0  0
 13 11  2  0  0  0  0
 14 15  3  0  0  0  0
 16 18  1  0  0  0  0
 16 19  1  0  0  0  0
 17 16  2  0  0  0  0
 19 21  1  0  0  0  0
 19 20  1  0  0  0  0
 22 19  1  0  0  0  0
M  END
