Coordinates from ORCA-job p-NO2-Ph-N2-OOCCH3-B3LYPG-aug-cc-pVDZ-scan-d09-49-n400
 OpenBabel01151817083D

 22 21  0  0  0  0  0  0  0  0999 V2000
   14.3911    8.4726   -2.6607 C   0  0  0  0  0  0  0  0  0  0  0  0
   13.4977    7.5406   -2.1398 C   0  0  0  0  0  0  0  0  0  0  0  0
   13.8039    6.1794   -2.2028 C   0  0  0  0  0  0  0  0  0  0  0  0
   14.9811    5.7249   -2.8045 C   0  0  0  0  0  0  0  0  0  0  0  0
   15.8767    6.6542   -3.3286 C   0  0  0  0  0  0  0  0  0  0  0  0
   15.5725    8.0147   -3.2471 C   0  0  0  0  0  0  0  0  0  0  0  0
   14.1862    9.5392   -2.6208 H   0  0  0  0  0  0  0  0  0  0  0  0
   12.5697    7.8586   -1.6683 H   0  0  0  0  0  0  0  0  0  0  0  0
   15.1985    4.6620   -2.8604 H   0  0  0  0  0  0  0  0  0  0  0  0
   16.8047    6.3386   -3.7981 H   0  0  0  0  0  0  0  0  0  0  0  0
   16.5232    8.9949   -3.7990 N   0  0  0  0  0  0  0  0  0  0  0  0
   16.2299   10.1860   -3.7169 O   0  0  0  0  0  0  0  0  0  0  0  0
   17.5563    8.5666   -4.3092 O   0  0  0  0  0  0  0  0  0  0  0  0
   14.9806    6.1259    0.2762 N   0  0  0  0  0  0  0  0  0  0  0  0
   15.0785    5.2106    0.8866 N   0  0  0  0  0  0  0  0  0  0  0  0
   12.4298    4.2017   -2.2740 C   0  0  0  0  0  0  0  0  0  0  0  0
   12.7478    3.9239   -3.4009 O   0  0  0  0  0  0  0  0  0  0  0  0
   12.8978    5.3155   -1.5987 O   0  0  0  0  0  0  0  0  0  0  0  0
   11.4816    3.4354   -1.3944 C   0  0  0  0  0  0  0  0  0  0  0  0
   11.9905    3.1365   -0.4685 H   0  0  0  0  0  0  0  0  0  0  0  0
   10.6354    4.0760   -1.1126 H   0  0  0  0  0  0  0  0  0  0  0  0
   11.1240    2.5536   -1.9323 H   0  0  0  0  0  0  0  0  0  0  0  0
  1  7  1  0  0  0  0
  1  2  2  0  0  0  0
  2  8  1  0  0  0  0
  3  2  1  0  0  0  0
  3 18  1  0  0  0  0
  4  3  2  0  0  0  0
  5  6  2  0  0  0  0
  5  4  1  0  0  0  0
  6  1  1  0  0  0  0
  9  4  1  0  0  0  0
 10  5  1  0  0  0  0
 11 12  2  0  0  0  0
 11  6  1  0  0  0  0
 13 11  2  0  0  0  0
 14 15  3  0  0  0  0
 16 18  1  0  0  0  0
 16 19  1  0  0  0  0
 17 16  2  0  0  0  0
 19 21  1  0  0  0  0
 19 20  1  0  0  0  0
 22 19  1  0  0  0  0
M  END
