Coordinates from ORCA-job p-NO2-Ph-N2-OOCCH3-B3LYPG-aug-cc-pVDZ-scan-d09-49-n400
 OpenBabel01151817083D

 22 21  0  0  0  0  0  0  0  0999 V2000
   14.3925    8.4686   -2.6523 C   0  0  0  0  0  0  0  0  0  0  0  0
   13.5023    7.5357   -2.1281 C   0  0  0  0  0  0  0  0  0  0  0  0
   13.8155    6.1756   -2.1811 C   0  0  0  0  0  0  0  0  0  0  0  0
   14.9908    5.7223   -2.7876 C   0  0  0  0  0  0  0  0  0  0  0  0
   15.8835    6.6523   -3.3153 C   0  0  0  0  0  0  0  0  0  0  0  0
   15.5760    8.0123   -3.2364 C   0  0  0  0  0  0  0  0  0  0  0  0
   14.1837    9.5345   -2.6177 H   0  0  0  0  0  0  0  0  0  0  0  0
   12.5728    7.8528   -1.6589 H   0  0  0  0  0  0  0  0  0  0  0  0
   15.2105    4.6595   -2.8405 H   0  0  0  0  0  0  0  0  0  0  0  0
   16.8112    6.3378   -3.7861 H   0  0  0  0  0  0  0  0  0  0  0  0
   16.5238    8.9934   -3.7914 N   0  0  0  0  0  0  0  0  0  0  0  0
   16.2178   10.1826   -3.7303 O   0  0  0  0  0  0  0  0  0  0  0  0
   17.5486    8.5653   -4.3182 O   0  0  0  0  0  0  0  0  0  0  0  0
   14.9528    6.1335    0.2058 N   0  0  0  0  0  0  0  0  0  0  0  0
   15.0708    5.2269    0.8277 N   0  0  0  0  0  0  0  0  0  0  0  0
   12.4310    4.2061   -2.2684 C   0  0  0  0  0  0  0  0  0  0  0  0
   12.7443    3.9389   -3.3991 O   0  0  0  0  0  0  0  0  0  0  0  0
   12.9088    5.3089   -1.5813 O   0  0  0  0  0  0  0  0  0  0  0  0
   11.4796    3.4366   -1.3951 C   0  0  0  0  0  0  0  0  0  0  0  0
   11.9865    3.1292   -0.4709 H   0  0  0  0  0  0  0  0  0  0  0  0
   10.6355    4.0783   -1.1095 H   0  0  0  0  0  0  0  0  0  0  0  0
   11.1189    2.5602   -1.9399 H   0  0  0  0  0  0  0  0  0  0  0  0
  1  7  1  0  0  0  0
  1  2  2  0  0  0  0
  2  8  1  0  0  0  0
  3  2  1  0  0  0  0
  3 18  1  0  0  0  0
  4  3  2  0  0  0  0
  5  6  2  0  0  0  0
  5  4  1  0  0  0  0
  6  1  1  0  0  0  0
  9  4  1  0  0  0  0
 10  5  1  0  0  0  0
 11 12  2  0  0  0  0
 11  6  1  0  0  0  0
 13 11  2  0  0  0  0
 14 15  3  0  0  0  0
 16 18  1  0  0  0  0
 16 19  1  0  0  0  0
 17 16  2  0  0  0  0
 19 21  1  0  0  0  0
 19 20  1  0  0  0  0
 22 19  1  0  0  0  0
M  END
