Coordinates from ORCA-job p-NO2-Ph-N2-OOCCH3-B3LYPG-aug-cc-pVDZ-scan-d09-49-n400
 OpenBabel01151817083D

 22 21  0  0  0  0  0  0  0  0999 V2000
   14.8192    8.4284   -2.8831 C   0  0  0  0  0  0  0  0  0  0  0  0
   13.9623    7.9451   -1.8867 C   0  0  0  0  0  0  0  0  0  0  0  0
   14.4033    6.8536   -1.1663 C   0  0  0  0  0  0  0  0  0  0  0  0
   15.6172    6.2140   -1.3149 C   0  0  0  0  0  0  0  0  0  0  0  0
   16.4678    6.7040   -2.3134 C   0  0  0  0  0  0  0  0  0  0  0  0
   16.0506    7.7973   -3.0769 C   0  0  0  0  0  0  0  0  0  0  0  0
   14.5459    9.2807   -3.5007 H   0  0  0  0  0  0  0  0  0  0  0  0
   12.9974    8.4108   -1.6983 H   0  0  0  0  0  0  0  0  0  0  0  0
   15.9054    5.3688   -0.6936 H   0  0  0  0  0  0  0  0  0  0  0  0
   17.4397    6.2538   -2.5007 H   0  0  0  0  0  0  0  0  0  0  0  0
   16.9514    8.3106   -4.1301 N   0  0  0  0  0  0  0  0  0  0  0  0
   16.5660    9.2706   -4.7917 O   0  0  0  0  0  0  0  0  0  0  0  0
   18.0280    7.7412   -4.2866 O   0  0  0  0  0  0  0  0  0  0  0  0
   13.2701    6.2783    0.3686 N   0  0  0  0  0  0  0  0  0  0  0  0
   12.4628    5.4311    0.1406 N   0  0  0  0  0  0  0  0  0  0  0  0
   11.5077    3.9656   -1.5176 C   0  0  0  0  0  0  0  0  0  0  0  0
   10.7674    3.5167   -0.6854 O   0  0  0  0  0  0  0  0  0  0  0  0
   12.4521    4.9522   -1.2807 O   0  0  0  0  0  0  0  0  0  0  0  0
   11.5720    3.5662   -2.9720 C   0  0  0  0  0  0  0  0  0  0  0  0
   11.3358    4.4296   -3.6083 H   0  0  0  0  0  0  0  0  0  0  0  0
   12.5848    3.2295   -3.2292 H   0  0  0  0  0  0  0  0  0  0  0  0
   10.8505    2.7631   -3.1478 H   0  0  0  0  0  0  0  0  0  0  0  0
  1  2  1  0  0  0  0
  2  8  1  0  0  0  0
  2  3  2  0  0  0  0
  4  3  1  0  0  0  0
  4  9  1  0  0  0  0
  5  4  2  0  0  0  0
  6  1  2  0  0  0  0
  6  5  1  0  0  0  0
  7  1  1  0  0  0  0
 10  5  1  0  0  0  0
 11  6  1  0  0  0  0
 12 11  2  0  0  0  0
 13 11  2  0  0  0  0
 15 14  1  0  0  0  0
 16 18  1  0  0  0  0
 16 17  2  0  0  0  0
 18 15  1  0  0  0  0
 19 16  1  0  0  0  0
 20 19  1  0  0  0  0
 21 19  1  0  0  0  0
 22 19  1  0  0  0  0
M  RAD  3   3   2  14   3  15   2
M  END
