Coordinates from ORCA-job p-NO2-Ph-N2-OOCCH3-B3LYPG-aug-cc-pVDZ-scan-d09-49-n400
 OpenBabel01151817083D

 22 21  0  0  0  0  0  0  0  0999 V2000
   14.3687    8.4843   -2.7209 C   0  0  0  0  0  0  0  0  0  0  0  0
   13.4595    7.5545   -2.2223 C   0  0  0  0  0  0  0  0  0  0  0  0
   13.7425    6.1893   -2.3207 C   0  0  0  0  0  0  0  0  0  0  0  0
   14.9281    5.7311   -2.9053 C   0  0  0  0  0  0  0  0  0  0  0  0
   15.8384    6.6598   -3.4059 C   0  0  0  0  0  0  0  0  0  0  0  0
   15.5471    8.0220   -3.3092 C   0  0  0  0  0  0  0  0  0  0  0  0
   14.1782    9.5525   -2.6593 H   0  0  0  0  0  0  0  0  0  0  0  0
   12.5334    7.8750   -1.7485 H   0  0  0  0  0  0  0  0  0  0  0  0
   15.1364    4.6674   -2.9731 H   0  0  0  0  0  0  0  0  0  0  0  0
   16.7695    6.3408   -3.8670 H   0  0  0  0  0  0  0  0  0  0  0  0
   16.5135    8.9997   -3.8379 N   0  0  0  0  0  0  0  0  0  0  0  0
   16.2339   10.1927   -3.7376 O   0  0  0  0  0  0  0  0  0  0  0  0
   17.5461    8.5677   -4.3459 O   0  0  0  0  0  0  0  0  0  0  0  0
   15.3640    6.1388    1.1014 N   0  0  0  0  0  0  0  0  0  0  0  0
   15.3467    5.1297    1.5498 N   0  0  0  0  0  0  0  0  0  0  0  0
   12.3937    4.1905   -2.3624 C   0  0  0  0  0  0  0  0  0  0  0  0
   12.7348    3.8838   -3.4754 O   0  0  0  0  0  0  0  0  0  0  0  0
   12.8298    5.3325   -1.7156 O   0  0  0  0  0  0  0  0  0  0  0  0
   11.4463    3.4333   -1.4740 C   0  0  0  0  0  0  0  0  0  0  0  0
   11.9527    3.1581   -0.5392 H   0  0  0  0  0  0  0  0  0  0  0  0
   10.5924    4.0710   -1.2100 H   0  0  0  0  0  0  0  0  0  0  0  0
   11.1014    2.5368   -1.9957 H   0  0  0  0  0  0  0  0  0  0  0  0
  1  7  1  0  0  0  0
  1  2  2  0  0  0  0
  2  8  1  0  0  0  0
  3  2  1  0  0  0  0
  3 18  1  0  0  0  0
  4  3  2  0  0  0  0
  5  6  2  0  0  0  0
  5  4  1  0  0  0  0
  6  1  1  0  0  0  0
  9  4  1  0  0  0  0
 10  5  1  0  0  0  0
 11 12  2  0  0  0  0
 11  6  1  0  0  0  0
 13 11  2  0  0  0  0
 14 15  3  0  0  0  0
 16 18  1  0  0  0  0
 16 19  1  0  0  0  0
 17 16  2  0  0  0  0
 19 21  1  0  0  0  0
 19 20  1  0  0  0  0
 22 19  1  0  0  0  0
M  END
