Coordinates from ORCA-job p-NO2-Ph-N2-OOCCH3-B3LYPG-aug-cc-pVDZ-scan-d09-49-n400
 OpenBabel01151817083D

 22 21  0  0  0  0  0  0  0  0999 V2000
   14.3531    8.4788   -2.7369 C   0  0  0  0  0  0  0  0  0  0  0  0
   13.4381    7.5491   -2.2483 C   0  0  0  0  0  0  0  0  0  0  0  0
   13.7168    6.1827   -2.3528 C   0  0  0  0  0  0  0  0  0  0  0  0
   14.9050    5.7241   -2.9330 C   0  0  0  0  0  0  0  0  0  0  0  0
   15.8211    6.6529   -3.4236 C   0  0  0  0  0  0  0  0  0  0  0  0
   15.5333    8.0159   -3.3217 C   0  0  0  0  0  0  0  0  0  0  0  0
   14.1659    9.5473   -2.6703 H   0  0  0  0  0  0  0  0  0  0  0  0
   12.5102    7.8704   -1.7771 H   0  0  0  0  0  0  0  0  0  0  0  0
   15.1111    4.6596   -3.0051 H   0  0  0  0  0  0  0  0  0  0  0  0
   16.7542    6.3335   -3.8805 H   0  0  0  0  0  0  0  0  0  0  0  0
   16.5056    8.9935   -3.8399 N   0  0  0  0  0  0  0  0  0  0  0  0
   16.2358   10.1871   -3.7212 O   0  0  0  0  0  0  0  0  0  0  0  0
   17.5464    8.5615   -4.3308 O   0  0  0  0  0  0  0  0  0  0  0  0
   15.5856    6.2156    1.3953 N   0  0  0  0  0  0  0  0  0  0  0  0
   15.5471    5.1783    1.7783 N   0  0  0  0  0  0  0  0  0  0  0  0
   12.3678    4.1825   -2.4056 C   0  0  0  0  0  0  0  0  0  0  0  0
   12.7205    3.8725   -3.5140 O   0  0  0  0  0  0  0  0  0  0  0  0
   12.7967    5.3266   -1.7576 O   0  0  0  0  0  0  0  0  0  0  0  0
   11.4109    3.4278   -1.5252 C   0  0  0  0  0  0  0  0  0  0  0  0
   11.9052    3.1597   -0.5820 H   0  0  0  0  0  0  0  0  0  0  0  0
   10.5517    4.0647   -1.2766 H   0  0  0  0  0  0  0  0  0  0  0  0
   11.0752    2.5273   -2.0461 H   0  0  0  0  0  0  0  0  0  0  0  0
  1  7  1  0  0  0  0
  1  2  2  0  0  0  0
  2  8  1  0  0  0  0
  3  2  1  0  0  0  0
  3 18  1  0  0  0  0
  4  3  2  0  0  0  0
  5  6  2  0  0  0  0
  5  4  1  0  0  0  0
  6  1  1  0  0  0  0
  9  4  1  0  0  0  0
 10  5  1  0  0  0  0
 11 12  2  0  0  0  0
 11  6  1  0  0  0  0
 13 11  2  0  0  0  0
 14 15  3  0  0  0  0
 16 18  1  0  0  0  0
 16 19  1  0  0  0  0
 17 16  2  0  0  0  0
 19 21  1  0  0  0  0
 19 20  1  0  0  0  0
 22 19  1  0  0  0  0
M  END
