Coordinates from ORCA-job p-NO2-Ph-N2-OOCCH3-B3LYPG-aug-cc-pVDZ-scan-d09-49-n400
 OpenBabel01151817083D

 22 22  0  0  0  0  0  0  0  0999 V2000
   15.0548    8.7727   -2.6337 C   0  0  0  0  0  0  0  0  0  0  0  0
   14.0967    8.3489   -1.7176 C   0  0  0  0  0  0  0  0  0  0  0  0
   14.1114    7.0260   -1.2416 C   0  0  0  0  0  0  0  0  0  0  0  0
   15.1311    6.1420   -1.6426 C   0  0  0  0  0  0  0  0  0  0  0  0
   16.1109    6.5736   -2.5302 C   0  0  0  0  0  0  0  0  0  0  0  0
   16.0518    7.8783   -3.0254 C   0  0  0  0  0  0  0  0  0  0  0  0
   15.0498    9.7844   -3.0308 H   0  0  0  0  0  0  0  0  0  0  0  0
   13.3252    9.0318   -1.3655 H   0  0  0  0  0  0  0  0  0  0  0  0
   15.1567    5.1296   -1.2471 H   0  0  0  0  0  0  0  0  0  0  0  0
   16.9126    5.9127   -2.8497 H   0  0  0  0  0  0  0  0  0  0  0  0
   17.0814    8.3275   -3.9811 N   0  0  0  0  0  0  0  0  0  0  0  0
   17.0071    9.4801   -4.3995 O   0  0  0  0  0  0  0  0  0  0  0  0
   17.9535    7.5228   -4.2999 O   0  0  0  0  0  0  0  0  0  0  0  0
   13.1883    6.6943   -0.2835 N   0  0  0  0  0  0  0  0  0  0  0  0
   12.4295    5.7446   -0.2504 N   0  0  0  0  0  0  0  0  0  0  0  0
   11.7130    3.7943   -1.4456 C   0  0  0  0  0  0  0  0  0  0  0  0
   11.1968    3.3821   -0.4423 O   0  0  0  0  0  0  0  0  0  0  0  0
   12.4958    4.9359   -1.5099 O   0  0  0  0  0  0  0  0  0  0  0  0
   11.6357    3.1673   -2.8154 C   0  0  0  0  0  0  0  0  0  0  0  0
   11.1358    3.8545   -3.5114 H   0  0  0  0  0  0  0  0  0  0  0  0
   12.6443    2.9771   -3.2057 H   0  0  0  0  0  0  0  0  0  0  0  0
   11.0752    2.2307   -2.7457 H   0  0  0  0  0  0  0  0  0  0  0  0
  1  2  1  0  0  0  0
  2  8  1  0  0  0  0
  2  3  2  0  0  0  0
  3 14  1  0  0  0  0
  4  9  1  0  0  0  0
  4  3  1  0  0  0  0
  5  4  2  0  0  0  0
  6  1  2  0  0  0  0
  6  5  1  0  0  0  0
  7  1  1  0  0  0  0
 10  5  1  0  0  0  0
 11  6  1  0  0  0  0
 12 11  2  0  0  0  0
 13 11  2  0  0  0  0
 14 15  1  0  0  0  0
 16 17  2  0  0  0  0
 18 16  1  0  0  0  0
 18 15  1  0  0  0  0
 19 22  1  0  0  0  0
 19 16  1  0  0  0  0
 20 19  1  0  0  0  0
 21 19  1  0  0  0  0
M  RAD  2  14   2  15   2
M  END
