Coordinates from ORCA-job p-NO2-Ph-N2-OOCCH3-B3LYPG-aug-cc-pVDZ-scan-d09-49-n400
 OpenBabel01151817083D

 22 22  0  0  0  0  0  0  0  0999 V2000
   14.8100    8.4402   -2.8394 C   0  0  0  0  0  0  0  0  0  0  0  0
   13.9507    7.9738   -1.8422 C   0  0  0  0  0  0  0  0  0  0  0  0
   14.3380    6.8560   -1.1148 C   0  0  0  0  0  0  0  0  0  0  0  0
   15.5485    6.1994   -1.2963 C   0  0  0  0  0  0  0  0  0  0  0  0
   16.4076    6.6679   -2.2923 C   0  0  0  0  0  0  0  0  0  0  0  0
   16.0210    7.7769   -3.0483 C   0  0  0  0  0  0  0  0  0  0  0  0
   14.5568    9.3048   -3.4477 H   0  0  0  0  0  0  0  0  0  0  0  0
   13.0037    8.4711   -1.6424 H   0  0  0  0  0  0  0  0  0  0  0  0
   15.8190    5.3424   -0.6827 H   0  0  0  0  0  0  0  0  0  0  0  0
   17.3646    6.1902   -2.4865 H   0  0  0  0  0  0  0  0  0  0  0  0
   16.9297    8.2704   -4.1029 N   0  0  0  0  0  0  0  0  0  0  0  0
   16.5703    9.2480   -4.7537 O   0  0  0  0  0  0  0  0  0  0  0  0
   17.9902    7.6731   -4.2673 O   0  0  0  0  0  0  0  0  0  0  0  0
   13.3783    6.3963    0.1618 N   0  0  0  0  0  0  0  0  0  0  0  0
   12.5514    5.5260    0.0106 N   0  0  0  0  0  0  0  0  0  0  0  0
   11.5908    3.9664   -1.5307 C   0  0  0  0  0  0  0  0  0  0  0  0
   10.9154    3.5165   -0.6468 O   0  0  0  0  0  0  0  0  0  0  0  0
   12.5174    4.9908   -1.3684 O   0  0  0  0  0  0  0  0  0  0  0  0
   11.5756    3.5464   -2.9788 C   0  0  0  0  0  0  0  0  0  0  0  0
   11.2242    4.3797   -3.6025 H   0  0  0  0  0  0  0  0  0  0  0  0
   12.5883    3.2857   -3.3123 H   0  0  0  0  0  0  0  0  0  0  0  0
   10.9055    2.6894   -3.0911 H   0  0  0  0  0  0  0  0  0  0  0  0
  1  2  1  0  0  0  0
  2  8  1  0  0  0  0
  2  3  2  0  0  0  0
  3 14  1  0  0  0  0
  4  3  1  0  0  0  0
  4  9  1  0  0  0  0
  5  4  2  0  0  0  0
  6  1  2  0  0  0  0
  6  5  1  0  0  0  0
  7  1  1  0  0  0  0
 10  5  1  0  0  0  0
 11  6  1  0  0  0  0
 12 11  2  0  0  0  0
 13 11  2  0  0  0  0
 15 14  1  0  0  0  0
 16 18  1  0  0  0  0
 16 17  2  0  0  0  0
 18 15  1  0  0  0  0
 19 16  1  0  0  0  0
 20 19  1  0  0  0  0
 21 19  1  0  0  0  0
 22 19  1  0  0  0  0
M  RAD  2  14   2  15   2
M  END
