Coordinates from ORCA-job p-NO2-Ph-N2-OOCCH3-B3LYPG-aug-cc-pVDZ-scan-d09-49-n400
 OpenBabel01151817083D

 22 21  0  0  0  0  0  0  0  0999 V2000
   14.3718    8.4848   -2.7169 C   0  0  0  0  0  0  0  0  0  0  0  0
   13.4638    7.5549   -2.2163 C   0  0  0  0  0  0  0  0  0  0  0  0
   13.7476    6.1898   -2.3136 C   0  0  0  0  0  0  0  0  0  0  0  0
   14.9325    5.7319   -2.8997 C   0  0  0  0  0  0  0  0  0  0  0  0
   15.8416    6.6606   -3.4023 C   0  0  0  0  0  0  0  0  0  0  0  0
   15.5497    8.0227   -3.3062 C   0  0  0  0  0  0  0  0  0  0  0  0
   14.1807    9.5530   -2.6560 H   0  0  0  0  0  0  0  0  0  0  0  0
   12.5381    7.8753   -1.7417 H   0  0  0  0  0  0  0  0  0  0  0  0
   15.1412    4.6682   -2.9671 H   0  0  0  0  0  0  0  0  0  0  0  0
   16.7723    6.3418   -3.8645 H   0  0  0  0  0  0  0  0  0  0  0  0
   16.5148    9.0006   -3.8369 N   0  0  0  0  0  0  0  0  0  0  0  0
   16.2340   10.1934   -3.7386 O   0  0  0  0  0  0  0  0  0  0  0  0
   17.5463    8.5687   -4.3473 O   0  0  0  0  0  0  0  0  0  0  0  0
   15.3241    6.1285    1.0409 N   0  0  0  0  0  0  0  0  0  0  0  0
   15.3096    5.1256    1.5026 N   0  0  0  0  0  0  0  0  0  0  0  0
   12.3984    4.1915   -2.3543 C   0  0  0  0  0  0  0  0  0  0  0  0
   12.7374    3.8857   -3.4680 O   0  0  0  0  0  0  0  0  0  0  0  0
   12.8361    5.3328   -1.7071 O   0  0  0  0  0  0  0  0  0  0  0  0
   11.4522    3.4340   -1.4648 C   0  0  0  0  0  0  0  0  0  0  0  0
   11.9602    3.1571   -0.5315 H   0  0  0  0  0  0  0  0  0  0  0  0
   10.5993    4.0720   -1.1983 H   0  0  0  0  0  0  0  0  0  0  0  0
   11.1056    2.5384   -1.9870 H   0  0  0  0  0  0  0  0  0  0  0  0
  1  7  1  0  0  0  0
  1  2  2  0  0  0  0
  2  8  1  0  0  0  0
  3  2  1  0  0  0  0
  3 18  1  0  0  0  0
  4  3  2  0  0  0  0
  5  6  2  0  0  0  0
  5  4  1  0  0  0  0
  6  1  1  0  0  0  0
  9  4  1  0  0  0  0
 10  5  1  0  0  0  0
 11 12  2  0  0  0  0
 11  6  1  0  0  0  0
 13 11  2  0  0  0  0
 14 15  3  0  0  0  0
 16 18  1  0  0  0  0
 16 19  1  0  0  0  0
 17 16  2  0  0  0  0
 19 21  1  0  0  0  0
 19 20  1  0  0  0  0
 22 19  1  0  0  0  0
M  END
