Coordinates from ORCA-job p-NO2-Ph-N2-OOCCH3-B3LYPG-aug-cc-pVDZ-scan-d09-49-n400
 OpenBabel01151817083D

 22 21  0  0  0  0  0  0  0  0999 V2000
   14.3298    8.4662   -2.7521 C   0  0  0  0  0  0  0  0  0  0  0  0
   13.4045    7.5372   -2.2827 C   0  0  0  0  0  0  0  0  0  0  0  0
   13.6778    6.1707   -2.3941 C   0  0  0  0  0  0  0  0  0  0  0  0
   14.8713    5.7112   -2.9618 C   0  0  0  0  0  0  0  0  0  0  0  0
   15.7978    6.6391   -3.4334 C   0  0  0  0  0  0  0  0  0  0  0  0
   15.5152    8.0022   -3.3251 C   0  0  0  0  0  0  0  0  0  0  0  0
   14.1466    9.5350   -2.6796 H   0  0  0  0  0  0  0  0  0  0  0  0
   12.4724    7.8592   -1.8216 H   0  0  0  0  0  0  0  0  0  0  0  0
   15.0739    4.6471   -3.0389 H   0  0  0  0  0  0  0  0  0  0  0  0
   16.7353    6.3185   -3.8803 H   0  0  0  0  0  0  0  0  0  0  0  0
   16.4984    8.9790   -3.8234 N   0  0  0  0  0  0  0  0  0  0  0  0
   16.2256   10.1727   -3.7140 O   0  0  0  0  0  0  0  0  0  0  0  0
   17.5360    8.5454   -4.3197 O   0  0  0  0  0  0  0  0  0  0  0  0
   15.9465    6.3506    1.8318 N   0  0  0  0  0  0  0  0  0  0  0  0
   15.8538    5.2775    2.0752 N   0  0  0  0  0  0  0  0  0  0  0  0
   12.3266    4.1731   -2.4745 C   0  0  0  0  0  0  0  0  0  0  0  0
   12.6975    3.8637   -3.5771 O   0  0  0  0  0  0  0  0  0  0  0  0
   12.7457    5.3158   -1.8179 O   0  0  0  0  0  0  0  0  0  0  0  0
   11.3538    3.4194   -1.6109 C   0  0  0  0  0  0  0  0  0  0  0  0
   11.8305    3.1529   -0.6583 H   0  0  0  0  0  0  0  0  0  0  0  0
   10.4900    4.0565   -1.3795 H   0  0  0  0  0  0  0  0  0  0  0  0
   11.0279    2.5183   -2.1369 H   0  0  0  0  0  0  0  0  0  0  0  0
  1  7  1  0  0  0  0
  1  2  2  0  0  0  0
  2  8  1  0  0  0  0
  3  2  1  0  0  0  0
  3 18  1  0  0  0  0
  4  3  2  0  0  0  0
  5  6  2  0  0  0  0
  5  4  1  0  0  0  0
  6  1  1  0  0  0  0
  9  4  1  0  0  0  0
 10  5  1  0  0  0  0
 11 12  2  0  0  0  0
 11  6  1  0  0  0  0
 13 11  2  0  0  0  0
 14 15  3  0  0  0  0
 16 18  1  0  0  0  0
 16 19  1  0  0  0  0
 17 16  2  0  0  0  0
 19 21  1  0  0  0  0
 19 20  1  0  0  0  0
 22 19  1  0  0  0  0
M  END
