Coordinates from ORCA-job p-NO2-Ph-N2-OOCCH3-B3LYPG-aug-cc-pVDZ-scan-d09-49-n400
 OpenBabel01151817083D

 22 21  0  0  0  0  0  0  0  0999 V2000
   14.3889    8.4829   -2.6840 C   0  0  0  0  0  0  0  0  0  0  0  0
   13.4891    7.5519   -2.1712 C   0  0  0  0  0  0  0  0  0  0  0  0
   13.7803    6.1884   -2.2585 C   0  0  0  0  0  0  0  0  0  0  0  0
   14.9610    5.7319   -2.8528 C   0  0  0  0  0  0  0  0  0  0  0  0
   15.8625    6.6610   -3.3680 C   0  0  0  0  0  0  0  0  0  0  0  0
   15.5655    8.0225   -3.2775 C   0  0  0  0  0  0  0  0  0  0  0  0
   14.1929    9.5505   -2.6302 H   0  0  0  0  0  0  0  0  0  0  0  0
   12.5647    7.8713   -1.6935 H   0  0  0  0  0  0  0  0  0  0  0  0
   15.1732    4.6686   -2.9161 H   0  0  0  0  0  0  0  0  0  0  0  0
   16.7907    6.3438   -3.8361 H   0  0  0  0  0  0  0  0  0  0  0  0
   16.5225    9.0013   -3.8208 N   0  0  0  0  0  0  0  0  0  0  0  0
   16.2367   10.1935   -3.7286 O   0  0  0  0  0  0  0  0  0  0  0  0
   17.5524    8.5709   -4.3356 O   0  0  0  0  0  0  0  0  0  0  0  0
   15.0853    6.0996    0.5912 N   0  0  0  0  0  0  0  0  0  0  0  0
   15.1064    5.1436    1.1436 N   0  0  0  0  0  0  0  0  0  0  0  0
   12.4237    4.1963   -2.3018 C   0  0  0  0  0  0  0  0  0  0  0  0
   12.7504    3.8999   -3.4216 O   0  0  0  0  0  0  0  0  0  0  0  0
   12.8747    5.3285   -1.6472 O   0  0  0  0  0  0  0  0  0  0  0  0
   11.4814    3.4354   -1.4111 C   0  0  0  0  0  0  0  0  0  0  0  0
   11.9947    3.1501   -0.4832 H   0  0  0  0  0  0  0  0  0  0  0  0
   10.6324    4.0743   -1.1343 H   0  0  0  0  0  0  0  0  0  0  0  0
   11.1279    2.5449   -1.9374 H   0  0  0  0  0  0  0  0  0  0  0  0
  1  7  1  0  0  0  0
  1  2  2  0  0  0  0
  2  8  1  0  0  0  0
  3  2  1  0  0  0  0
  3 18  1  0  0  0  0
  4  3  2  0  0  0  0
  5  6  2  0  0  0  0
  5  4  1  0  0  0  0
  6  1  1  0  0  0  0
  9  4  1  0  0  0  0
 10  5  1  0  0  0  0
 11 12  2  0  0  0  0
 11  6  1  0  0  0  0
 13 11  2  0  0  0  0
 14 15  3  0  0  0  0
 16 18  1  0  0  0  0
 16 19  1  0  0  0  0
 17 16  2  0  0  0  0
 19 21  1  0  0  0  0
 19 20  1  0  0  0  0
 22 19  1  0  0  0  0
M  END
