Coordinates from ORCA-job p-NO2-Ph-N2-OOCCH3-B3LYPG-aug-cc-pVDZ-scan-d09-49-n400
 OpenBabel01151817083D

 22 21  0  0  0  0  0  0  0  0999 V2000
   14.3907    8.4585   -2.6431 C   0  0  0  0  0  0  0  0  0  0  0  0
   13.5109    7.5239   -2.1063 C   0  0  0  0  0  0  0  0  0  0  0  0
   13.8436    6.1668   -2.1304 C   0  0  0  0  0  0  0  0  0  0  0  0
   15.0114    5.7163   -2.7543 C   0  0  0  0  0  0  0  0  0  0  0  0
   15.8939    6.6478   -3.2954 C   0  0  0  0  0  0  0  0  0  0  0  0
   15.5777    8.0064   -3.2245 C   0  0  0  0  0  0  0  0  0  0  0  0
   14.1706    9.5226   -2.6238 H   0  0  0  0  0  0  0  0  0  0  0  0
   12.5787    7.8377   -1.6406 H   0  0  0  0  0  0  0  0  0  0  0  0
   15.2376    4.6546   -2.8020 H   0  0  0  0  0  0  0  0  0  0  0  0
   16.8189    6.3359   -3.7733 H   0  0  0  0  0  0  0  0  0  0  0  0
   16.5149    8.9896   -3.7931 N   0  0  0  0  0  0  0  0  0  0  0  0
   16.2008   10.1771   -3.7397 O   0  0  0  0  0  0  0  0  0  0  0  0
   17.5426    8.5650   -4.3171 O   0  0  0  0  0  0  0  0  0  0  0  0
   14.9054    6.1487    0.0818 N   0  0  0  0  0  0  0  0  0  0  0  0
   15.0623    5.2585    0.7203 N   0  0  0  0  0  0  0  0  0  0  0  0
   12.4342    4.2166   -2.2566 C   0  0  0  0  0  0  0  0  0  0  0  0
   12.7372    3.9738   -3.3952 O   0  0  0  0  0  0  0  0  0  0  0  0
   12.9338    5.2934   -1.5429 O   0  0  0  0  0  0  0  0  0  0  0  0
   11.4743    3.4409   -1.3980 C   0  0  0  0  0  0  0  0  0  0  0  0
   11.9758    3.1142   -0.4776 H   0  0  0  0  0  0  0  0  0  0  0  0
   10.6351    4.0856   -1.1046 H   0  0  0  0  0  0  0  0  0  0  0  0
   11.1067    2.5773   -1.9583 H   0  0  0  0  0  0  0  0  0  0  0  0
  1  7  1  0  0  0  0
  1  2  2  0  0  0  0
  2  8  1  0  0  0  0
  3  2  1  0  0  0  0
  3 18  1  0  0  0  0
  4  3  2  0  0  0  0
  5  6  2  0  0  0  0
  5  4  1  0  0  0  0
  6  1  1  0  0  0  0
  9  4  1  0  0  0  0
 10  5  1  0  0  0  0
 11 12  2  0  0  0  0
 11  6  1  0  0  0  0
 13 11  2  0  0  0  0
 14 15  3  0  0  0  0
 16 18  1  0  0  0  0
 16 19  1  0  0  0  0
 17 16  2  0  0  0  0
 19 21  1  0  0  0  0
 19 20  1  0  0  0  0
 22 19  1  0  0  0  0
M  END
