Coordinates from ORCA-job p-NO2-Ph-N2-OOCCH3-B3LYPG-aug-cc-pVDZ-scan-d09-49-n400
 OpenBabel01151817083D

 22 21  0  0  0  0  0  0  0  0999 V2000
   14.8232    8.4325   -2.8856 C   0  0  0  0  0  0  0  0  0  0  0  0
   13.9656    7.9489   -1.8896 C   0  0  0  0  0  0  0  0  0  0  0  0
   14.4068    6.8562   -1.1722 C   0  0  0  0  0  0  0  0  0  0  0  0
   15.6185    6.2134   -1.3214 C   0  0  0  0  0  0  0  0  0  0  0  0
   16.4693    6.7041   -2.3197 C   0  0  0  0  0  0  0  0  0  0  0  0
   16.0534    7.7995   -3.0809 C   0  0  0  0  0  0  0  0  0  0  0  0
   14.5510    9.2862   -3.5017 H   0  0  0  0  0  0  0  0  0  0  0  0
   13.0014    8.4157   -1.6999 H   0  0  0  0  0  0  0  0  0  0  0  0
   15.9054    5.3666   -0.7018 H   0  0  0  0  0  0  0  0  0  0  0  0
   17.4404    6.2525   -2.5084 H   0  0  0  0  0  0  0  0  0  0  0  0
   16.9545    8.3130   -4.1339 N   0  0  0  0  0  0  0  0  0  0  0  0
   16.5735    9.2795   -4.7886 O   0  0  0  0  0  0  0  0  0  0  0  0
   18.0333    7.7467   -4.2869 O   0  0  0  0  0  0  0  0  0  0  0  0
   13.2561    6.2710    0.3851 N   0  0  0  0  0  0  0  0  0  0  0  0
   12.4510    5.4256    0.1527 N   0  0  0  0  0  0  0  0  0  0  0  0
   11.4990    3.9653   -1.5159 C   0  0  0  0  0  0  0  0  0  0  0  0
   10.7583    3.5117   -0.6863 O   0  0  0  0  0  0  0  0  0  0  0  0
   12.4433    4.9495   -1.2738 O   0  0  0  0  0  0  0  0  0  0  0  0
   11.5728    3.5631   -2.9694 C   0  0  0  0  0  0  0  0  0  0  0  0
   11.3399    4.4250   -3.6088 H   0  0  0  0  0  0  0  0  0  0  0  0
   12.5874    3.2266   -3.2196 H   0  0  0  0  0  0  0  0  0  0  0  0
   10.8531    2.7590   -3.1480 H   0  0  0  0  0  0  0  0  0  0  0  0
  1  2  1  0  0  0  0
  2  8  1  0  0  0  0
  2  3  2  0  0  0  0
  4  3  1  0  0  0  0
  4  9  1  0  0  0  0
  5  4  2  0  0  0  0
  6  1  2  0  0  0  0
  6  5  1  0  0  0  0
  7  1  1  0  0  0  0
 10  5  1  0  0  0  0
 11  6  1  0  0  0  0
 12 11  2  0  0  0  0
 13 11  2  0  0  0  0
 15 14  1  0  0  0  0
 16 18  1  0  0  0  0
 16 17  2  0  0  0  0
 18 15  1  0  0  0  0
 19 16  1  0  0  0  0
 20 19  1  0  0  0  0
 21 19  1  0  0  0  0
 22 19  1  0  0  0  0
M  RAD  3   3   2  14   3  15   2
M  END
