Coordinates from ORCA-job p-NO2-Ph-N2-OOCCH3-B3LYPG-aug-cc-pVDZ-scan-d09-49-n400
 OpenBabel01151817083D

 22 21  0  0  0  0  0  0  0  0999 V2000
   14.3850    8.4843   -2.6930 C   0  0  0  0  0  0  0  0  0  0  0  0
   13.4824    7.5540   -2.1837 C   0  0  0  0  0  0  0  0  0  0  0  0
   13.7713    6.1899   -2.2742 C   0  0  0  0  0  0  0  0  0  0  0  0
   14.9537    5.7327   -2.8651 C   0  0  0  0  0  0  0  0  0  0  0  0
   15.8576    6.6615   -3.3765 C   0  0  0  0  0  0  0  0  0  0  0  0
   15.5621    8.0233   -3.2850 C   0  0  0  0  0  0  0  0  0  0  0  0
   14.1906    9.5521   -2.6371 H   0  0  0  0  0  0  0  0  0  0  0  0
   12.5578    7.8737   -1.7066 H   0  0  0  0  0  0  0  0  0  0  0  0
   15.1649    4.6692   -2.9286 H   0  0  0  0  0  0  0  0  0  0  0  0
   16.7868    6.3434   -3.8420 H   0  0  0  0  0  0  0  0  0  0  0  0
   16.5218    9.0017   -3.8243 N   0  0  0  0  0  0  0  0  0  0  0  0
   16.2396   10.1942   -3.7266 O   0  0  0  0  0  0  0  0  0  0  0  0
   17.5545    8.5708   -4.3331 O   0  0  0  0  0  0  0  0  0  0  0  0
   15.1316    6.1005    0.6826 N   0  0  0  0  0  0  0  0  0  0  0  0
   15.1452    5.1356    1.2197 N   0  0  0  0  0  0  0  0  0  0  0  0
   12.4179    4.1953   -2.3122 C   0  0  0  0  0  0  0  0  0  0  0  0
   12.7459    3.8959   -3.4310 O   0  0  0  0  0  0  0  0  0  0  0  0
   12.8654    5.3310   -1.6616 O   0  0  0  0  0  0  0  0  0  0  0  0
   11.4776    3.4347   -1.4192 C   0  0  0  0  0  0  0  0  0  0  0  0
   11.9926    3.1519   -0.4914 H   0  0  0  0  0  0  0  0  0  0  0  0
   10.6281    4.0729   -1.1424 H   0  0  0  0  0  0  0  0  0  0  0  0
   11.1250    2.5427   -1.9433 H   0  0  0  0  0  0  0  0  0  0  0  0
  1  7  1  0  0  0  0
  1  2  2  0  0  0  0
  2  8  1  0  0  0  0
  3  2  1  0  0  0  0
  3 18  1  0  0  0  0
  4  3  2  0  0  0  0
  5  6  2  0  0  0  0
  5  4  1  0  0  0  0
  6  1  1  0  0  0  0
  9  4  1  0  0  0  0
 10  5  1  0  0  0  0
 11 12  2  0  0  0  0
 11  6  1  0  0  0  0
 13 11  2  0  0  0  0
 14 15  3  0  0  0  0
 16 18  1  0  0  0  0
 16 19  1  0  0  0  0
 17 16  2  0  0  0  0
 19 21  1  0  0  0  0
 19 20  1  0  0  0  0
 22 19  1  0  0  0  0
M  END
