Coordinates from ORCA-job p-NO2-Ph-N2-OOCCH3-B3LYPG-aug-cc-pVDZ-scan-d09-49-n400
 OpenBabel01151817083D

 22 21  0  0  0  0  0  0  0  0999 V2000
   14.3755    8.4850   -2.7109 C   0  0  0  0  0  0  0  0  0  0  0  0
   13.4697    7.5549   -2.2069 C   0  0  0  0  0  0  0  0  0  0  0  0
   13.7553    6.1900   -2.3014 C   0  0  0  0  0  0  0  0  0  0  0  0
   14.9389    5.7325   -2.8903 C   0  0  0  0  0  0  0  0  0  0  0  0
   15.8461    6.6613   -3.3962 C   0  0  0  0  0  0  0  0  0  0  0  0
   15.5530    8.0233   -3.3014 C   0  0  0  0  0  0  0  0  0  0  0  0
   14.1833    9.5530   -2.6519 H   0  0  0  0  0  0  0  0  0  0  0  0
   12.5441    7.8756   -1.7324 H   0  0  0  0  0  0  0  0  0  0  0  0
   15.1483    4.6690   -2.9580 H   0  0  0  0  0  0  0  0  0  0  0  0
   16.7760    6.3429   -3.8601 H   0  0  0  0  0  0  0  0  0  0  0  0
   16.5162    9.0014   -3.8352 N   0  0  0  0  0  0  0  0  0  0  0  0
   16.2343   10.1941   -3.7382 O   0  0  0  0  0  0  0  0  0  0  0  0
   17.5473    8.5699   -4.3467 O   0  0  0  0  0  0  0  0  0  0  0  0
   15.2699    6.1167    0.9491 N   0  0  0  0  0  0  0  0  0  0  0  0
   15.2631    5.1243    1.4334 N   0  0  0  0  0  0  0  0  0  0  0  0
   12.4047    4.1927   -2.3425 C   0  0  0  0  0  0  0  0  0  0  0  0
   12.7417    3.8883   -3.4573 O   0  0  0  0  0  0  0  0  0  0  0  0
   12.8446    5.3326   -1.6943 O   0  0  0  0  0  0  0  0  0  0  0  0
   11.4591    3.4347   -1.4529 C   0  0  0  0  0  0  0  0  0  0  0  0
   11.9683    3.1552   -0.5209 H   0  0  0  0  0  0  0  0  0  0  0  0
   10.6075    4.0733   -1.1835 H   0  0  0  0  0  0  0  0  0  0  0  0
   11.1104    2.5407   -1.9763 H   0  0  0  0  0  0  0  0  0  0  0  0
  1  7  1  0  0  0  0
  1  2  2  0  0  0  0
  2  8  1  0  0  0  0
  3  2  1  0  0  0  0
  3 18  1  0  0  0  0
  4  3  2  0  0  0  0
  5  6  2  0  0  0  0
  5  4  1  0  0  0  0
  6  1  1  0  0  0  0
  9  4  1  0  0  0  0
 10  5  1  0  0  0  0
 11 12  2  0  0  0  0
 11  6  1  0  0  0  0
 13 11  2  0  0  0  0
 14 15  3  0  0  0  0
 16 18  1  0  0  0  0
 16 19  1  0  0  0  0
 17 16  2  0  0  0  0
 19 21  1  0  0  0  0
 19 20  1  0  0  0  0
 22 19  1  0  0  0  0
M  END
