Coordinates from ORCA-job p-NO2-Ph-N2-OOCCH3-B3LYPG-aug-cc-pVDZ-scan-d09-49-n400
 OpenBabel01151817083D

 22 21  0  0  0  0  0  0  0  0999 V2000
   14.3585    8.4815   -2.7328 C   0  0  0  0  0  0  0  0  0  0  0  0
   13.4459    7.5517   -2.2397 C   0  0  0  0  0  0  0  0  0  0  0  0
   13.7263    6.1855   -2.3415 C   0  0  0  0  0  0  0  0  0  0  0  0
   14.9136    5.7271   -2.9238 C   0  0  0  0  0  0  0  0  0  0  0  0
   15.8274    6.6559   -3.4188 C   0  0  0  0  0  0  0  0  0  0  0  0
   15.5380    8.0188   -3.3192 C   0  0  0  0  0  0  0  0  0  0  0  0
   14.1700    9.5499   -2.6683 H   0  0  0  0  0  0  0  0  0  0  0  0
   12.5185    7.8730   -1.7671 H   0  0  0  0  0  0  0  0  0  0  0  0
   15.1208    4.6625   -2.9940 H   0  0  0  0  0  0  0  0  0  0  0  0
   16.7597    6.3367   -3.8772 H   0  0  0  0  0  0  0  0  0  0  0  0
   16.5077    8.9966   -3.8419 N   0  0  0  0  0  0  0  0  0  0  0  0
   16.2372   10.1900   -3.7242 O   0  0  0  0  0  0  0  0  0  0  0  0
   17.5485    8.5648   -4.3331 O   0  0  0  0  0  0  0  0  0  0  0  0
   15.5004    6.1843    1.2857 N   0  0  0  0  0  0  0  0  0  0  0  0
   15.4717    5.1564    1.6958 N   0  0  0  0  0  0  0  0  0  0  0  0
   12.3775    4.1851   -2.3887 C   0  0  0  0  0  0  0  0  0  0  0  0
   12.7258    3.8756   -3.4987 O   0  0  0  0  0  0  0  0  0  0  0  0
   12.8090    5.3291   -1.7422 O   0  0  0  0  0  0  0  0  0  0  0  0
   11.4245    3.4298   -1.5046 C   0  0  0  0  0  0  0  0  0  0  0  0
   11.9235    3.1596   -0.5646 H   0  0  0  0  0  0  0  0  0  0  0  0
   10.5672    4.0670   -1.2505 H   0  0  0  0  0  0  0  0  0  0  0  0
   11.0854    2.5304   -2.0253 H   0  0  0  0  0  0  0  0  0  0  0  0
  1  7  1  0  0  0  0
  1  2  2  0  0  0  0
  2  8  1  0  0  0  0
  3  2  1  0  0  0  0
  3 18  1  0  0  0  0
  4  3  2  0  0  0  0
  5  6  2  0  0  0  0
  5  4  1  0  0  0  0
  6  1  1  0  0  0  0
  9  4  1  0  0  0  0
 10  5  1  0  0  0  0
 11 12  2  0  0  0  0
 11  6  1  0  0  0  0
 13 11  2  0  0  0  0
 14 15  3  0  0  0  0
 16 18  1  0  0  0  0
 16 19  1  0  0  0  0
 17 16  2  0  0  0  0
 19 21  1  0  0  0  0
 19 20  1  0  0  0  0
 22 19  1  0  0  0  0
M  END
