Coordinates from ORCA-job p-NO2-Ph-N2-OOCCH3-B3LYPG-aug-cc-pVDZ-scan-d09-49-n400
 OpenBabel01151817083D

 22 22  0  0  0  0  0  0  0  0999 V2000
   15.1326    8.6963   -2.8982 C   0  0  0  0  0  0  0  0  0  0  0  0
   14.1102    7.9485   -2.3804 C   0  0  0  0  0  0  0  0  0  0  0  0
   14.3448    6.5981   -1.7567 C   0  0  0  0  0  0  0  0  0  0  0  0
   15.7958    6.1969   -1.7886 C   0  0  0  0  0  0  0  0  0  0  0  0
   16.7606    7.0049   -2.3261 C   0  0  0  0  0  0  0  0  0  0  0  0
   16.4635    8.2545   -2.8890 C   0  0  0  0  0  0  0  0  0  0  0  0
   14.9021    9.6691   -3.3315 H   0  0  0  0  0  0  0  0  0  0  0  0
   13.0718    8.2721   -2.3755 H   0  0  0  0  0  0  0  0  0  0  0  0
   16.0044    5.2261   -1.3446 H   0  0  0  0  0  0  0  0  0  0  0  0
   17.7953    6.6636   -2.3145 H   0  0  0  0  0  0  0  0  0  0  0  0
   17.5043    9.0679   -3.4462 N   0  0  0  0  0  0  0  0  0  0  0  0
   17.1935   10.1610   -3.9387 O   0  0  0  0  0  0  0  0  0  0  0  0
   18.6640    8.6337   -3.4217 O   0  0  0  0  0  0  0  0  0  0  0  0
   13.6477    6.0534   -1.3836 N   0  0  0  0  0  0  0  0  0  0  0  0
   12.7755    5.4050   -0.8332 N   0  0  0  0  0  0  0  0  0  0  0  0
   11.1922    3.7147   -1.2990 C   0  0  0  0  0  0  0  0  0  0  0  0
   10.8606    3.7393   -0.1509 O   0  0  0  0  0  0  0  0  0  0  0  0
   12.2112    4.5298   -1.8288 O   0  0  0  0  0  0  0  0  0  0  0  0
   10.6357    2.8683   -2.4095 C   0  0  0  0  0  0  0  0  0  0  0  0
   10.1100    3.5093   -3.1306 H   0  0  0  0  0  0  0  0  0  0  0  0
   11.4437    2.3551   -2.9459 H   0  0  0  0  0  0  0  0  0  0  0  0
    9.9376    2.1436   -1.9814 H   0  0  0  0  0  0  0  0  0  0  0  0
  1  6  2  0  0  0  0
  1  2  1  0  0  0  0
  2  8  1  0  0  0  0
  2  3  2  0  0  0  0
  3 14  1  0  0  0  0
  4  3  1  0  0  0  0
  4  9  1  0  0  0  0
  5 10  1  0  0  0  0
  5  4  2  0  0  0  0
  6  5  1  0  0  0  0
  7  1  1  0  0  0  0
 11 13  2  0  0  0  0
 11  6  1  0  0  0  0
 12 11  2  0  0  0  0
 14 15  1  0  0  0  0
 16 17  2  0  0  0  0
 18 16  1  0  0  0  0
 18 15  1  0  0  0  0
 19 22  1  0  0  0  0
 19 16  1  0  0  0  0
 20 19  1  0  0  0  0
 21 19  1  0  0  0  0
M  RAD  2  14   2  15   2
M  END
