Coordinates from ORCA-job p-NO2-Ph-N2-OOCCH3-B3LYPG-aug-cc-pVDZ-scan-d09-49-n400
 OpenBabel01151817083D

 22 21  0  0  0  0  0  0  0  0999 V2000
   14.3842    8.4844   -2.6946 C   0  0  0  0  0  0  0  0  0  0  0  0
   13.4812    7.5542   -2.1859 C   0  0  0  0  0  0  0  0  0  0  0  0
   13.7696    6.1900   -2.2769 C   0  0  0  0  0  0  0  0  0  0  0  0
   14.9522    5.7327   -2.8676 C   0  0  0  0  0  0  0  0  0  0  0  0
   15.8565    6.6615   -3.3782 C   0  0  0  0  0  0  0  0  0  0  0  0
   15.5614    8.0233   -3.2864 C   0  0  0  0  0  0  0  0  0  0  0  0
   14.1901    9.5522   -2.6383 H   0  0  0  0  0  0  0  0  0  0  0  0
   12.5565    7.8740   -1.7091 H   0  0  0  0  0  0  0  0  0  0  0  0
   15.1631    4.6692   -2.9316 H   0  0  0  0  0  0  0  0  0  0  0  0
   16.7857    6.3433   -3.8436 H   0  0  0  0  0  0  0  0  0  0  0  0
   16.5215    9.0017   -3.8250 N   0  0  0  0  0  0  0  0  0  0  0  0
   16.2392   10.1943   -3.7277 O   0  0  0  0  0  0  0  0  0  0  0  0
   17.5538    8.5707   -4.3345 O   0  0  0  0  0  0  0  0  0  0  0  0
   15.1439    6.1017    0.7066 N   0  0  0  0  0  0  0  0  0  0  0  0
   15.1562    5.1347    1.2399 N   0  0  0  0  0  0  0  0  0  0  0  0
   12.4168    4.1949   -2.3150 C   0  0  0  0  0  0  0  0  0  0  0  0
   12.7458    3.8948   -3.4333 O   0  0  0  0  0  0  0  0  0  0  0  0
   12.8632    5.3313   -1.6648 O   0  0  0  0  0  0  0  0  0  0  0  0
   11.4760    3.4347   -1.4222 C   0  0  0  0  0  0  0  0  0  0  0  0
   11.9905    3.1522   -0.4941 H   0  0  0  0  0  0  0  0  0  0  0  0
   10.6263    4.0729   -1.1460 H   0  0  0  0  0  0  0  0  0  0  0  0
   11.1236    2.5424   -1.9462 H   0  0  0  0  0  0  0  0  0  0  0  0
  1  7  1  0  0  0  0
  1  2  2  0  0  0  0
  2  8  1  0  0  0  0
  3  2  1  0  0  0  0
  3 18  1  0  0  0  0
  4  3  2  0  0  0  0
  5  6  2  0  0  0  0
  5  4  1  0  0  0  0
  6  1  1  0  0  0  0
  9  4  1  0  0  0  0
 10  5  1  0  0  0  0
 11 12  2  0  0  0  0
 11  6  1  0  0  0  0
 13 11  2  0  0  0  0
 14 15  3  0  0  0  0
 16 18  1  0  0  0  0
 16 19  1  0  0  0  0
 17 16  2  0  0  0  0
 19 21  1  0  0  0  0
 19 20  1  0  0  0  0
 22 19  1  0  0  0  0
M  END
