Coordinates from ORCA-job p-NO2-Ph-N2-OOCCH3-B3LYPG-aug-cc-pVDZ-scan-d09-49-n400
 OpenBabel01151817083D

 22 21  0  0  0  0  0  0  0  0999 V2000
   14.3268    8.4652   -2.7549 C   0  0  0  0  0  0  0  0  0  0  0  0
   13.3997    7.5364   -2.2883 C   0  0  0  0  0  0  0  0  0  0  0  0
   13.6724    6.1697   -2.4004 C   0  0  0  0  0  0  0  0  0  0  0  0
   14.8669    5.7099   -2.9660 C   0  0  0  0  0  0  0  0  0  0  0  0
   15.7951    6.6376   -3.4347 C   0  0  0  0  0  0  0  0  0  0  0  0
   15.5131    8.0010   -3.3257 C   0  0  0  0  0  0  0  0  0  0  0  0
   14.1441    9.5341   -2.6817 H   0  0  0  0  0  0  0  0  0  0  0  0
   12.4669    7.8586   -1.8287 H   0  0  0  0  0  0  0  0  0  0  0  0
   15.0690    4.6455   -3.0435 H   0  0  0  0  0  0  0  0  0  0  0  0
   16.7334    6.3168   -3.8798 H   0  0  0  0  0  0  0  0  0  0  0  0
   16.4981    8.9776   -3.8210 N   0  0  0  0  0  0  0  0  0  0  0  0
   16.2267   10.1714   -3.7092 O   0  0  0  0  0  0  0  0  0  0  0  0
   17.5373    8.5437   -4.3136 O   0  0  0  0  0  0  0  0  0  0  0  0
   15.9885    6.3659    1.8790 N   0  0  0  0  0  0  0  0  0  0  0  0
   15.8882    5.2892    2.1042 N   0  0  0  0  0  0  0  0  0  0  0  0
   12.3212    4.1717   -2.4819 C   0  0  0  0  0  0  0  0  0  0  0  0
   12.6937    3.8611   -3.5837 O   0  0  0  0  0  0  0  0  0  0  0  0
   12.7388    5.3150   -1.8260 O   0  0  0  0  0  0  0  0  0  0  0  0
   11.3477    3.4179   -1.6191 C   0  0  0  0  0  0  0  0  0  0  0  0
   11.8234    3.1521   -0.6657 H   0  0  0  0  0  0  0  0  0  0  0  0
   10.4832    4.0547   -1.3889 H   0  0  0  0  0  0  0  0  0  0  0  0
   11.0229    2.5163   -2.1450 H   0  0  0  0  0  0  0  0  0  0  0  0
  1  7  1  0  0  0  0
  1  2  2  0  0  0  0
  2  8  1  0  0  0  0
  3  2  1  0  0  0  0
  3 18  1  0  0  0  0
  4  3  2  0  0  0  0
  5  6  2  0  0  0  0
  5  4  1  0  0  0  0
  6  1  1  0  0  0  0
  9  4  1  0  0  0  0
 10  5  1  0  0  0  0
 11 12  2  0  0  0  0
 11  6  1  0  0  0  0
 13 11  2  0  0  0  0
 14 15  3  0  0  0  0
 16 18  1  0  0  0  0
 16 19  1  0  0  0  0
 17 16  2  0  0  0  0
 19 21  1  0  0  0  0
 19 20  1  0  0  0  0
 22 19  1  0  0  0  0
M  END
