Coordinates from ORCA-job p-NO2-Ph-N2-OOCCH3-B3LYPG-aug-cc-pVDZ-scan-d09-49-n400
 OpenBabel01151817083D

 22 21  0  0  0  0  0  0  0  0999 V2000
   14.3852    8.4467   -2.6388 C   0  0  0  0  0  0  0  0  0  0  0  0
   13.5180    7.5109   -2.0864 C   0  0  0  0  0  0  0  0  0  0  0  0
   13.8730    6.1588   -2.0771 C   0  0  0  0  0  0  0  0  0  0  0  0
   15.0296    5.7102   -2.7223 C   0  0  0  0  0  0  0  0  0  0  0  0
   15.9005    6.6423   -3.2799 C   0  0  0  0  0  0  0  0  0  0  0  0
   15.5755    7.9992   -3.2180 C   0  0  0  0  0  0  0  0  0  0  0  0
   14.1521    9.5082   -2.6375 H   0  0  0  0  0  0  0  0  0  0  0  0
   12.5825    7.8205   -1.6244 H   0  0  0  0  0  0  0  0  0  0  0  0
   15.2617    4.6493   -2.7630 H   0  0  0  0  0  0  0  0  0  0  0  0
   16.8212    6.3322   -3.7672 H   0  0  0  0  0  0  0  0  0  0  0  0
   16.5002    8.9837   -3.8036 N   0  0  0  0  0  0  0  0  0  0  0  0
   16.1836   10.1705   -3.7475 O   0  0  0  0  0  0  0  0  0  0  0  0
   17.5365    8.5637   -4.3145 O   0  0  0  0  0  0  0  0  0  0  0  0
   14.8783    6.1589   -0.0045 N   0  0  0  0  0  0  0  0  0  0  0  0
   15.0667    5.2845    0.6460 N   0  0  0  0  0  0  0  0  0  0  0  0
   12.4389    4.2319   -2.2475 C   0  0  0  0  0  0  0  0  0  0  0  0
   12.7324    4.0179   -3.3941 O   0  0  0  0  0  0  0  0  0  0  0  0
   12.9593    5.2789   -1.5042 O   0  0  0  0  0  0  0  0  0  0  0  0
   11.4692    3.4483   -1.4073 C   0  0  0  0  0  0  0  0  0  0  0  0
   11.9618    3.1041   -0.4886 H   0  0  0  0  0  0  0  0  0  0  0  0
   10.6320    4.0940   -1.1101 H   0  0  0  0  0  0  0  0  0  0  0  0
   11.0990    2.5968   -1.9841 H   0  0  0  0  0  0  0  0  0  0  0  0
  1  7  1  0  0  0  0
  1  2  2  0  0  0  0
  2  3  1  0  0  0  0
  2  8  1  0  0  0  0
  3 18  1  0  0  0  0
  4  3  2  0  0  0  0
  5  6  2  0  0  0  0
  5  4  1  0  0  0  0
  6  1  1  0  0  0  0
  9  4  1  0  0  0  0
 10  5  1  0  0  0  0
 11 12  2  0  0  0  0
 11  6  1  0  0  0  0
 13 11  2  0  0  0  0
 14 15  3  0  0  0  0
 16 18  1  0  0  0  0
 16 19  1  0  0  0  0
 17 16  2  0  0  0  0
 19 21  1  0  0  0  0
 19 20  1  0  0  0  0
 22 19  1  0  0  0  0
M  END
