Coordinates from ORCA-job p-NO2-Ph-N2-OOCCH3-B3LYPG-aug-cc-pVDZ-scan-d09-49-n400
 OpenBabel01151817083D

 22 22  0  0  0  0  0  0  0  0999 V2000
   14.8289    8.4559   -2.8093 C   0  0  0  0  0  0  0  0  0  0  0  0
   13.9661    7.9462   -1.8494 C   0  0  0  0  0  0  0  0  0  0  0  0
   14.3223    6.8003   -1.0884 C   0  0  0  0  0  0  0  0  0  0  0  0
   15.5947    6.2100   -1.3163 C   0  0  0  0  0  0  0  0  0  0  0  0
   16.4535    6.7255   -2.2766 C   0  0  0  0  0  0  0  0  0  0  0  0
   16.0654    7.8424   -3.0192 C   0  0  0  0  0  0  0  0  0  0  0  0
   14.5536    9.3274   -3.3984 H   0  0  0  0  0  0  0  0  0  0  0  0
   13.0037    8.4201   -1.6637 H   0  0  0  0  0  0  0  0  0  0  0  0
   15.8864    5.3472   -0.7199 H   0  0  0  0  0  0  0  0  0  0  0  0
   17.4242    6.2701   -2.4571 H   0  0  0  0  0  0  0  0  0  0  0  0
   16.9754    8.3846   -4.0332 N   0  0  0  0  0  0  0  0  0  0  0  0
   16.6038    9.3702   -4.6690 O   0  0  0  0  0  0  0  0  0  0  0  0
   18.0579    7.8219   -4.1919 O   0  0  0  0  0  0  0  0  0  0  0  0
   13.5898    6.3855   -0.2042 N   0  0  0  0  0  0  0  0  0  0  0  0
   12.7066    5.5517   -0.1553 N   0  0  0  0  0  0  0  0  0  0  0  0
   11.5286    3.9740   -1.5258 C   0  0  0  0  0  0  0  0  0  0  0  0
   10.8787    3.6519   -0.5697 O   0  0  0  0  0  0  0  0  0  0  0  0
   12.5261    4.9416   -1.5041 O   0  0  0  0  0  0  0  0  0  0  0  0
   11.4147    3.4195   -2.9228 C   0  0  0  0  0  0  0  0  0  0  0  0
   11.1730    4.2251   -3.6288 H   0  0  0  0  0  0  0  0  0  0  0  0
   12.3731    2.9828   -3.2338 H   0  0  0  0  0  0  0  0  0  0  0  0
   10.6306    2.6573   -2.9378 H   0  0  0  0  0  0  0  0  0  0  0  0
  1  2  1  0  0  0  0
  2  8  1  0  0  0  0
  2  3  2  0  0  0  0
  3 14  1  0  0  0  0
  4  3  1  0  0  0  0
  4  9  1  0  0  0  0
  5  4  2  0  0  0  0
  6  1  2  0  0  0  0
  6  5  1  0  0  0  0
  7  1  1  0  0  0  0
 10  5  1  0  0  0  0
 11  6  1  0  0  0  0
 12 11  2  0  0  0  0
 13 11  2  0  0  0  0
 14 15  1  0  0  0  0
 16 18  1  0  0  0  0
 16 17  2  0  0  0  0
 18 15  1  0  0  0  0
 19 16  1  0  0  0  0
 20 19  1  0  0  0  0
 21 19  1  0  0  0  0
 22 19  1  0  0  0  0
M  RAD  2  14   2  15   2
M  END
