Coordinates from ORCA-job p-NO2-Ph-N2-OOCCH3-B3LYPG-aug-cc-pVDZ-scan-d09-49-n400
 OpenBabel01151817083D

 22 21  0  0  0  0  0  0  0  0999 V2000
   14.3648    8.4833   -2.7254 C   0  0  0  0  0  0  0  0  0  0  0  0
   13.4538    7.5536   -2.2297 C   0  0  0  0  0  0  0  0  0  0  0  0
   13.7356    6.1882   -2.3298 C   0  0  0  0  0  0  0  0  0  0  0  0
   14.9220    5.7299   -2.9126 C   0  0  0  0  0  0  0  0  0  0  0  0
   15.8341    6.6583   -3.4102 C   0  0  0  0  0  0  0  0  0  0  0  0
   15.5438    8.0206   -3.3123 C   0  0  0  0  0  0  0  0  0  0  0  0
   14.1753    9.5516   -2.6626 H   0  0  0  0  0  0  0  0  0  0  0  0
   12.5275    7.8744   -1.7566 H   0  0  0  0  0  0  0  0  0  0  0  0
   15.1297    4.6661   -2.9810 H   0  0  0  0  0  0  0  0  0  0  0  0
   16.7660    6.3392   -3.8697 H   0  0  0  0  0  0  0  0  0  0  0  0
   16.5119    8.9983   -3.8379 N   0  0  0  0  0  0  0  0  0  0  0  0
   16.2326   10.1913   -3.7378 O   0  0  0  0  0  0  0  0  0  0  0  0
   17.5444    8.5660   -4.3459 O   0  0  0  0  0  0  0  0  0  0  0  0
   15.4209    6.1548    1.1843 N   0  0  0  0  0  0  0  0  0  0  0  0
   15.3989    5.1379    1.6141 N   0  0  0  0  0  0  0  0  0  0  0  0
   12.3873    4.1889   -2.3741 C   0  0  0  0  0  0  0  0  0  0  0  0
   12.7315    3.8812   -3.4857 O   0  0  0  0  0  0  0  0  0  0  0  0
   12.8210    5.3318   -1.7272 O   0  0  0  0  0  0  0  0  0  0  0  0
   11.4377    3.4324   -1.4875 C   0  0  0  0  0  0  0  0  0  0  0  0
   11.9410    3.1594   -0.5504 H   0  0  0  0  0  0  0  0  0  0  0  0
   10.5821    4.0697   -1.2277 H   0  0  0  0  0  0  0  0  0  0  0  0
   11.0954    2.5346   -2.0089 H   0  0  0  0  0  0  0  0  0  0  0  0
  1  7  1  0  0  0  0
  1  2  2  0  0  0  0
  2  8  1  0  0  0  0
  3  2  1  0  0  0  0
  3 18  1  0  0  0  0
  4  3  2  0  0  0  0
  5  6  2  0  0  0  0
  5  4  1  0  0  0  0
  6  1  1  0  0  0  0
  9  4  1  0  0  0  0
 10  5  1  0  0  0  0
 11 12  2  0  0  0  0
 11  6  1  0  0  0  0
 13 11  2  0  0  0  0
 14 15  3  0  0  0  0
 16 18  1  0  0  0  0
 16 19  1  0  0  0  0
 17 16  2  0  0  0  0
 19 21  1  0  0  0  0
 19 20  1  0  0  0  0
 22 19  1  0  0  0  0
M  END
