Coordinates from ORCA-job p-NO2-Ph-N2-OOCCH3-B3LYPG-aug-cc-pVDZ-scan-d09-49-n400
 OpenBabel01151817083D

 22 22  0  0  0  0  0  0  0  0999 V2000
   14.8040    8.4209   -2.8602 C   0  0  0  0  0  0  0  0  0  0  0  0
   13.9506    7.9437   -1.8609 C   0  0  0  0  0  0  0  0  0  0  0  0
   14.3732    6.8454   -1.1313 C   0  0  0  0  0  0  0  0  0  0  0  0
   15.5916    6.2080   -1.2938 C   0  0  0  0  0  0  0  0  0  0  0  0
   16.4420    6.6886   -2.2939 C   0  0  0  0  0  0  0  0  0  0  0  0
   16.0305    7.7826   -3.0590 C   0  0  0  0  0  0  0  0  0  0  0  0
   14.5336    9.2742   -3.4772 H   0  0  0  0  0  0  0  0  0  0  0  0
   12.9904    8.4180   -1.6687 H   0  0  0  0  0  0  0  0  0  0  0  0
   15.8783    5.3632   -0.6710 H   0  0  0  0  0  0  0  0  0  0  0  0
   17.4104    6.2320   -2.4828 H   0  0  0  0  0  0  0  0  0  0  0  0
   16.9306    8.2882   -4.1160 N   0  0  0  0  0  0  0  0  0  0  0  0
   16.5459    9.2451   -4.7827 O   0  0  0  0  0  0  0  0  0  0  0  0
   18.0000    7.7072   -4.2802 O   0  0  0  0  0  0  0  0  0  0  0  0
   13.3480    6.3330    0.2596 N   0  0  0  0  0  0  0  0  0  0  0  0
   12.5241    5.4766    0.0680 N   0  0  0  0  0  0  0  0  0  0  0  0
   11.5455    3.9819   -1.5308 C   0  0  0  0  0  0  0  0  0  0  0  0
   10.8276    3.5431   -0.6751 O   0  0  0  0  0  0  0  0  0  0  0  0
   12.4934    4.9781   -1.3279 O   0  0  0  0  0  0  0  0  0  0  0  0
   11.5770    3.5665   -2.9804 C   0  0  0  0  0  0  0  0  0  0  0  0
   11.3006    4.4172   -3.6179 H   0  0  0  0  0  0  0  0  0  0  0  0
   12.5898    3.2527   -3.2651 H   0  0  0  0  0  0  0  0  0  0  0  0
   10.8702    2.7450   -3.1272 H   0  0  0  0  0  0  0  0  0  0  0  0
  1  2  1  0  0  0  0
  2  8  1  0  0  0  0
  2  3  2  0  0  0  0
  3 14  1  0  0  0  0
  4  3  1  0  0  0  0
  4  9  1  0  0  0  0
  5  4  2  0  0  0  0
  6  1  2  0  0  0  0
  6  5  1  0  0  0  0
  7  1  1  0  0  0  0
 10  5  1  0  0  0  0
 11  6  1  0  0  0  0
 12 11  2  0  0  0  0
 13 11  2  0  0  0  0
 15 14  1  0  0  0  0
 16 18  1  0  0  0  0
 16 17  2  0  0  0  0
 18 15  1  0  0  0  0
 19 16  1  0  0  0  0
 20 19  1  0  0  0  0
 21 19  1  0  0  0  0
 22 19  1  0  0  0  0
M  RAD  2  14   2  15   2
M  END
