Coordinates from ORCA-job p-NO2-Ph-N2-OOCCH3-B3LYPG-aug-cc-pVDZ-scan-d09-49-n400
 OpenBabel01151817083D

 22 21  0  0  0  0  0  0  0  0999 V2000
   14.3848    8.4844   -2.6935 C   0  0  0  0  0  0  0  0  0  0  0  0
   13.4819    7.5541   -2.1846 C   0  0  0  0  0  0  0  0  0  0  0  0
   13.7707    6.1900   -2.2751 C   0  0  0  0  0  0  0  0  0  0  0  0
   14.9530    5.7328   -2.8662 C   0  0  0  0  0  0  0  0  0  0  0  0
   15.8571    6.6616   -3.3771 C   0  0  0  0  0  0  0  0  0  0  0  0
   15.5619    8.0233   -3.2853 C   0  0  0  0  0  0  0  0  0  0  0  0
   14.1905    9.5522   -2.6376 H   0  0  0  0  0  0  0  0  0  0  0  0
   12.5571    7.8741   -1.7082 H   0  0  0  0  0  0  0  0  0  0  0  0
   15.1639    4.6693   -2.9305 H   0  0  0  0  0  0  0  0  0  0  0  0
   16.7863    6.3434   -3.8428 H   0  0  0  0  0  0  0  0  0  0  0  0
   16.5219    9.0017   -3.8241 N   0  0  0  0  0  0  0  0  0  0  0  0
   16.2380   10.1941   -3.7299 O   0  0  0  0  0  0  0  0  0  0  0  0
   17.5527    8.5706   -4.3366 O   0  0  0  0  0  0  0  0  0  0  0  0
   15.1397    6.1008    0.6998 N   0  0  0  0  0  0  0  0  0  0  0  0
   15.1524    5.1346    1.2343 N   0  0  0  0  0  0  0  0  0  0  0  0
   12.4174    4.1952   -2.3142 C   0  0  0  0  0  0  0  0  0  0  0  0
   12.7463    3.8955   -3.4326 O   0  0  0  0  0  0  0  0  0  0  0  0
   12.8640    5.3312   -1.6635 O   0  0  0  0  0  0  0  0  0  0  0  0
   11.4763    3.4348   -1.4218 C   0  0  0  0  0  0  0  0  0  0  0  0
   11.9906    3.1519   -0.4937 H   0  0  0  0  0  0  0  0  0  0  0  0
   10.6267    4.0731   -1.1456 H   0  0  0  0  0  0  0  0  0  0  0  0
   11.1239    2.5428   -1.9462 H   0  0  0  0  0  0  0  0  0  0  0  0
  1  7  1  0  0  0  0
  1  2  2  0  0  0  0
  2  8  1  0  0  0  0
  3  2  1  0  0  0  0
  3 18  1  0  0  0  0
  4  3  2  0  0  0  0
  5  6  2  0  0  0  0
  5  4  1  0  0  0  0
  6  1  1  0  0  0  0
  9  4  1  0  0  0  0
 10  5  1  0  0  0  0
 11 12  2  0  0  0  0
 11  6  1  0  0  0  0
 13 11  2  0  0  0  0
 14 15  3  0  0  0  0
 16 18  1  0  0  0  0
 16 19  1  0  0  0  0
 17 16  2  0  0  0  0
 19 21  1  0  0  0  0
 19 20  1  0  0  0  0
 22 19  1  0  0  0  0
M  END
