Coordinates from ORCA-job p-NO2-Ph-N2-OOCCH3-B3LYPG-aug-cc-pVDZ-scan-d09-49-n400
 OpenBabel01151817083D

 22 21  0  0  0  0  0  0  0  0999 V2000
   14.3912    8.4768   -2.6675 C   0  0  0  0  0  0  0  0  0  0  0  0
   13.4948    7.5452   -2.1506 C   0  0  0  0  0  0  0  0  0  0  0  0
   13.7938    6.1829   -2.2253 C   0  0  0  0  0  0  0  0  0  0  0  0
   14.9726    5.7276   -2.8235 C   0  0  0  0  0  0  0  0  0  0  0  0
   15.8711    6.6567   -3.3433 C   0  0  0  0  0  0  0  0  0  0  0  0
   15.5704    8.0177   -3.2573 C   0  0  0  0  0  0  0  0  0  0  0  0
   14.1907    9.5439   -2.6208 H   0  0  0  0  0  0  0  0  0  0  0  0
   12.5687    7.8637   -1.6757 H   0  0  0  0  0  0  0  0  0  0  0  0
   15.1874    4.6644   -2.8829 H   0  0  0  0  0  0  0  0  0  0  0  0
   16.7992    6.3403   -3.8120 H   0  0  0  0  0  0  0  0  0  0  0  0
   16.5242    8.9972   -3.8049 N   0  0  0  0  0  0  0  0  0  0  0  0
   16.2348   10.1889   -3.7172 O   0  0  0  0  0  0  0  0  0  0  0  0
   17.5561    8.5680   -4.3167 O   0  0  0  0  0  0  0  0  0  0  0  0
   15.0135    6.1179    0.3772 N   0  0  0  0  0  0  0  0  0  0  0  0
   15.0849    5.1895    0.9712 N   0  0  0  0  0  0  0  0  0  0  0  0
   12.4284    4.1980   -2.2828 C   0  0  0  0  0  0  0  0  0  0  0  0
   12.7514    3.9104   -3.4059 O   0  0  0  0  0  0  0  0  0  0  0  0
   12.8879    5.3211   -1.6177 O   0  0  0  0  0  0  0  0  0  0  0  0
   11.4823    3.4348   -1.3982 C   0  0  0  0  0  0  0  0  0  0  0  0
   11.9923    3.1434   -0.4704 H   0  0  0  0  0  0  0  0  0  0  0  0
   10.6342    4.0746   -1.1204 H   0  0  0  0  0  0  0  0  0  0  0  0
   11.1275    2.5482   -1.9302 H   0  0  0  0  0  0  0  0  0  0  0  0
  1  7  1  0  0  0  0
  1  2  2  0  0  0  0
  2  8  1  0  0  0  0
  3  2  1  0  0  0  0
  3 18  1  0  0  0  0
  4  3  2  0  0  0  0
  5  6  2  0  0  0  0
  5  4  1  0  0  0  0
  6  1  1  0  0  0  0
  9  4  1  0  0  0  0
 10  5  1  0  0  0  0
 11 12  2  0  0  0  0
 11  6  1  0  0  0  0
 13 11  2  0  0  0  0
 14 15  3  0  0  0  0
 16 18  1  0  0  0  0
 16 19  1  0  0  0  0
 17 16  2  0  0  0  0
 19 21  1  0  0  0  0
 19 20  1  0  0  0  0
 22 19  1  0  0  0  0
M  END
