Coordinates from ORCA-job p-NO2-Ph-N2-OOCCH3-B3LYPG-aug-cc-pVDZ-scan-d09-49-n400
 OpenBabel01151817083D

 22 21  0  0  0  0  0  0  0  0999 V2000
   14.3410    8.4726   -2.7460 C   0  0  0  0  0  0  0  0  0  0  0  0
   13.4208    7.5431   -2.2670 C   0  0  0  0  0  0  0  0  0  0  0  0
   13.6964    6.1763   -2.3758 C   0  0  0  0  0  0  0  0  0  0  0  0
   14.8869    5.7174   -2.9511 C   0  0  0  0  0  0  0  0  0  0  0  0
   15.8083    6.6459   -3.4321 C   0  0  0  0  0  0  0  0  0  0  0  0
   15.5235    8.0092   -3.3259 C   0  0  0  0  0  0  0  0  0  0  0  0
   14.1562    9.5413   -2.6756 H   0  0  0  0  0  0  0  0  0  0  0  0
   12.4906    7.8650   -1.7999 H   0  0  0  0  0  0  0  0  0  0  0  0
   15.0911    4.6525   -3.0266 H   0  0  0  0  0  0  0  0  0  0  0  0
   16.7432    6.3262   -3.8849 H   0  0  0  0  0  0  0  0  0  0  0  0
   16.5011    8.9866   -3.8342 N   0  0  0  0  0  0  0  0  0  0  0  0
   16.2324   10.1803   -3.7145 O   0  0  0  0  0  0  0  0  0  0  0  0
   17.5422    8.5540   -4.3239 O   0  0  0  0  0  0  0  0  0  0  0  0
   15.7769    6.2881    1.6343 N   0  0  0  0  0  0  0  0  0  0  0  0
   15.7085    5.2281    1.9439 N   0  0  0  0  0  0  0  0  0  0  0  0
   12.3456    4.1768   -2.4421 C   0  0  0  0  0  0  0  0  0  0  0  0
   12.7075    3.8667   -3.5475 O   0  0  0  0  0  0  0  0  0  0  0  0
   12.7698    5.3206   -1.7903 O   0  0  0  0  0  0  0  0  0  0  0  0
   11.3806    3.4228   -1.5700 C   0  0  0  0  0  0  0  0  0  0  0  0
   11.8655    3.1568   -0.6214 H   0  0  0  0  0  0  0  0  0  0  0  0
   10.5184    4.0595   -1.3313 H   0  0  0  0  0  0  0  0  0  0  0  0
   11.0507    2.5213   -2.0928 H   0  0  0  0  0  0  0  0  0  0  0  0
  1  7  1  0  0  0  0
  1  2  2  0  0  0  0
  2  8  1  0  0  0  0
  3  2  1  0  0  0  0
  3 18  1  0  0  0  0
  4  3  2  0  0  0  0
  5  6  2  0  0  0  0
  5  4  1  0  0  0  0
  6  1  1  0  0  0  0
  9  4  1  0  0  0  0
 10  5  1  0  0  0  0
 11 12  2  0  0  0  0
 11  6  1  0  0  0  0
 13 11  2  0  0  0  0
 14 15  3  0  0  0  0
 16 18  1  0  0  0  0
 16 19  1  0  0  0  0
 17 16  2  0  0  0  0
 19 21  1  0  0  0  0
 19 20  1  0  0  0  0
 22 19  1  0  0  0  0
M  END
