Coordinates from ORCA-job p-NO2-Ph-N2-OOCCH3-B3LYPG-aug-cc-pVDZ-scan-d09-49-n400
 OpenBabel01151817083D

 22 21  0  0  0  0  0  0  0  0999 V2000
   14.3513    8.4770   -2.7368 C   0  0  0  0  0  0  0  0  0  0  0  0
   13.4346    7.5475   -2.2515 C   0  0  0  0  0  0  0  0  0  0  0  0
   13.7120    6.1815   -2.3582 C   0  0  0  0  0  0  0  0  0  0  0  0
   14.9007    5.7228   -2.9362 C   0  0  0  0  0  0  0  0  0  0  0  0
   15.8185    6.6512   -3.4235 C   0  0  0  0  0  0  0  0  0  0  0  0
   15.5320    8.0139   -3.3199 C   0  0  0  0  0  0  0  0  0  0  0  0
   14.1649    9.5456   -2.6688 H   0  0  0  0  0  0  0  0  0  0  0  0
   12.5066    7.8686   -1.7815 H   0  0  0  0  0  0  0  0  0  0  0  0
   15.1059    4.6588   -3.0093 H   0  0  0  0  0  0  0  0  0  0  0  0
   16.7520    6.3316   -3.8791 H   0  0  0  0  0  0  0  0  0  0  0  0
   16.5061    8.9913   -3.8348 N   0  0  0  0  0  0  0  0  0  0  0  0
   16.2305   10.1847   -3.7285 O   0  0  0  0  0  0  0  0  0  0  0  0
   17.5406    8.5586   -4.3383 O   0  0  0  0  0  0  0  0  0  0  0  0
   15.6297    6.2305    1.4549 N   0  0  0  0  0  0  0  0  0  0  0  0
   15.5846    5.1894    1.8207 N   0  0  0  0  0  0  0  0  0  0  0  0
   12.3633    4.1820   -2.4153 C   0  0  0  0  0  0  0  0  0  0  0  0
   12.7187    3.8723   -3.5229 O   0  0  0  0  0  0  0  0  0  0  0  0
   12.7905    5.3258   -1.7657 O   0  0  0  0  0  0  0  0  0  0  0  0
   11.4042    3.4274   -1.5372 C   0  0  0  0  0  0  0  0  0  0  0  0
   11.8960    3.1600   -0.5925 H   0  0  0  0  0  0  0  0  0  0  0  0
   10.5441    4.0641   -1.2915 H   0  0  0  0  0  0  0  0  0  0  0  0
   11.0704    2.5266   -2.0588 H   0  0  0  0  0  0  0  0  0  0  0  0
  1  7  1  0  0  0  0
  1  2  2  0  0  0  0
  2  8  1  0  0  0  0
  3  2  1  0  0  0  0
  3 18  1  0  0  0  0
  4  3  2  0  0  0  0
  5  6  2  0  0  0  0
  5  4  1  0  0  0  0
  6  1  1  0  0  0  0
  9  4  1  0  0  0  0
 10  5  1  0  0  0  0
 11 12  2  0  0  0  0
 11  6  1  0  0  0  0
 13 11  2  0  0  0  0
 14 15  3  0  0  0  0
 16 18  1  0  0  0  0
 16 19  1  0  0  0  0
 17 16  2  0  0  0  0
 19 21  1  0  0  0  0
 19 20  1  0  0  0  0
 22 19  1  0  0  0  0
M  END
