Coordinates from ORCA-job p-NO2-Ph-N2-OOCCH3-B3LYPG-aug-cc-pVDZ-scan-d09-49-n400
 OpenBabel01151817083D

 22 21  0  0  0  0  0  0  0  0999 V2000
   14.3910    8.4639   -2.6498 C   0  0  0  0  0  0  0  0  0  0  0  0
   13.5055    7.5304   -2.1195 C   0  0  0  0  0  0  0  0  0  0  0  0
   13.8265    6.1718   -2.1610 C   0  0  0  0  0  0  0  0  0  0  0  0
   14.9974    5.7194   -2.7758 C   0  0  0  0  0  0  0  0  0  0  0  0
   15.8857    6.6498   -3.3100 C   0  0  0  0  0  0  0  0  0  0  0  0
   15.5751    8.0093   -3.2340 C   0  0  0  0  0  0  0  0  0  0  0  0
   14.1776    9.5292   -2.6214 H   0  0  0  0  0  0  0  0  0  0  0  0
   12.5754    7.8462   -1.6508 H   0  0  0  0  0  0  0  0  0  0  0  0
   15.2194    4.6572   -2.8277 H   0  0  0  0  0  0  0  0  0  0  0  0
   16.8115    6.3361   -3.7850 H   0  0  0  0  0  0  0  0  0  0  0  0
   16.5181    8.9911   -3.7959 N   0  0  0  0  0  0  0  0  0  0  0  0
   16.2180   10.1810   -3.7210 O   0  0  0  0  0  0  0  0  0  0  0  0
   17.5524    8.5654   -4.3059 O   0  0  0  0  0  0  0  0  0  0  0  0
   14.9282    6.1416    0.1431 N   0  0  0  0  0  0  0  0  0  0  0  0
   15.0650    5.2461    0.7758 N   0  0  0  0  0  0  0  0  0  0  0  0
   12.4332    4.2098   -2.2618 C   0  0  0  0  0  0  0  0  0  0  0  0
   12.7422    3.9517   -3.3956 O   0  0  0  0  0  0  0  0  0  0  0  0
   12.9194    5.3030   -1.5648 O   0  0  0  0  0  0  0  0  0  0  0  0
   11.4790    3.4379   -1.3936 C   0  0  0  0  0  0  0  0  0  0  0  0
   11.9842    3.1235   -0.4709 H   0  0  0  0  0  0  0  0  0  0  0  0
   10.6366    4.0806   -1.1050 H   0  0  0  0  0  0  0  0  0  0  0  0
   11.1158    2.5661   -1.9440 H   0  0  0  0  0  0  0  0  0  0  0  0
  1  7  1  0  0  0  0
  1  2  2  0  0  0  0
  2  8  1  0  0  0  0
  3  2  1  0  0  0  0
  3 18  1  0  0  0  0
  4  3  2  0  0  0  0
  5  6  2  0  0  0  0
  5  4  1  0  0  0  0
  6  1  1  0  0  0  0
  9  4  1  0  0  0  0
 10  5  1  0  0  0  0
 11 12  2  0  0  0  0
 11  6  1  0  0  0  0
 13 11  2  0  0  0  0
 14 15  3  0  0  0  0
 16 18  1  0  0  0  0
 16 19  1  0  0  0  0
 17 16  2  0  0  0  0
 19 21  1  0  0  0  0
 19 20  1  0  0  0  0
 22 19  1  0  0  0  0
M  END
