Coordinates from ORCA-job p-NO2-Ph-N2-OOCCH3-B3LYPG-aug-cc-pVDZ-scan-d09-49-n400
 OpenBabel01151817083D

 22 22  0  0  0  0  0  0  0  0999 V2000
   14.8771    8.5525   -2.7812 C   0  0  0  0  0  0  0  0  0  0  0  0
   13.9867    8.1106   -1.8016 C   0  0  0  0  0  0  0  0  0  0  0  0
   14.2619    6.9176   -1.1392 C   0  0  0  0  0  0  0  0  0  0  0  0
   15.4109    6.1675   -1.3807 C   0  0  0  0  0  0  0  0  0  0  0  0
   16.3056    6.6136   -2.3530 C   0  0  0  0  0  0  0  0  0  0  0  0
   16.0205    7.7952   -3.0412 C   0  0  0  0  0  0  0  0  0  0  0  0
   14.7006    9.4709   -3.3352 H   0  0  0  0  0  0  0  0  0  0  0  0
   13.0943    8.6843   -1.5586 H   0  0  0  0  0  0  0  0  0  0  0  0
   15.6039    5.2520   -0.8253 H   0  0  0  0  0  0  0  0  0  0  0  0
   17.2134    6.0617   -2.5833 H   0  0  0  0  0  0  0  0  0  0  0  0
   16.9657    8.2635   -4.0743 N   0  0  0  0  0  0  0  0  0  0  0  0
   16.6960    9.3069   -4.6633 O   0  0  0  0  0  0  0  0  0  0  0  0
   17.9673    7.5831   -4.2813 O   0  0  0  0  0  0  0  0  0  0  0  0
   13.3110    6.5127    0.0450 N   0  0  0  0  0  0  0  0  0  0  0  0
   12.5100    5.6086   -0.0597 N   0  0  0  0  0  0  0  0  0  0  0  0
   11.6559    3.9065   -1.5088 C   0  0  0  0  0  0  0  0  0  0  0  0
   11.0644    3.4233   -0.5831 O   0  0  0  0  0  0  0  0  0  0  0  0
   12.5146    4.9950   -1.4089 O   0  0  0  0  0  0  0  0  0  0  0  0
   11.6084    3.4491   -2.9447 C   0  0  0  0  0  0  0  0  0  0  0  0
   11.1480    4.2298   -3.5655 H   0  0  0  0  0  0  0  0  0  0  0  0
   12.6230    3.2768   -3.3266 H   0  0  0  0  0  0  0  0  0  0  0  0
   11.0182    2.5302   -3.0043 H   0  0  0  0  0  0  0  0  0  0  0  0
  1  2  1  0  0  0  0
  2  8  1  0  0  0  0
  2  3  2  0  0  0  0
  3 14  1  0  0  0  0
  4  3  1  0  0  0  0
  4  9  1  0  0  0  0
  5  4  2  0  0  0  0
  6  1  2  0  0  0  0
  6  5  1  0  0  0  0
  7  1  1  0  0  0  0
 10  5  1  0  0  0  0
 11  6  1  0  0  0  0
 12 11  2  0  0  0  0
 13 11  2  0  0  0  0
 15 14  1  0  0  0  0
 16 18  1  0  0  0  0
 16 17  2  0  0  0  0
 18 15  1  0  0  0  0
 19 16  1  0  0  0  0
 20 19  1  0  0  0  0
 21 19  1  0  0  0  0
 22 19  1  0  0  0  0
M  RAD  2  14   2  15   2
M  END
