Coordinates from ORCA-job p-NO2-Ph-N2-OOCCH3-B3LYPG-aug-cc-pVDZ-scan-d09-49-n400
 OpenBabel01151817083D

 22 21  0  0  0  0  0  0  0  0999 V2000
   14.8433    8.4478   -2.9049 C   0  0  0  0  0  0  0  0  0  0  0  0
   13.9807    7.9637   -1.9103 C   0  0  0  0  0  0  0  0  0  0  0  0
   14.4402    6.8776   -1.2043 C   0  0  0  0  0  0  0  0  0  0  0  0
   15.6411    6.2227   -1.3392 C   0  0  0  0  0  0  0  0  0  0  0  0
   16.4920    6.7191   -2.3379 C   0  0  0  0  0  0  0  0  0  0  0  0
   16.0750    7.8161   -3.0966 C   0  0  0  0  0  0  0  0  0  0  0  0
   14.5701    9.3012   -3.5215 H   0  0  0  0  0  0  0  0  0  0  0  0
   13.0135    8.4246   -1.7227 H   0  0  0  0  0  0  0  0  0  0  0  0
   15.9238    5.3731   -0.7219 H   0  0  0  0  0  0  0  0  0  0  0  0
   17.4634    6.2676   -2.5264 H   0  0  0  0  0  0  0  0  0  0  0  0
   16.9780    8.3328   -4.1470 N   0  0  0  0  0  0  0  0  0  0  0  0
   16.5922    9.2932   -4.8072 O   0  0  0  0  0  0  0  0  0  0  0  0
   18.0530    7.7613   -4.3049 O   0  0  0  0  0  0  0  0  0  0  0  0
   13.1707    6.2316    0.5158 N   0  0  0  0  0  0  0  0  0  0  0  0
   12.3836    5.3996    0.2763 N   0  0  0  0  0  0  0  0  0  0  0  0
   11.4785    3.9408   -1.5103 C   0  0  0  0  0  0  0  0  0  0  0  0
   10.7144    3.4687   -0.7068 O   0  0  0  0  0  0  0  0  0  0  0  0
   12.4005    4.9150   -1.2417 O   0  0  0  0  0  0  0  0  0  0  0  0
   11.5678    3.5561   -2.9735 C   0  0  0  0  0  0  0  0  0  0  0  0
   11.3560    4.4283   -3.6059 H   0  0  0  0  0  0  0  0  0  0  0  0
   12.5804    3.2061   -3.2131 H   0  0  0  0  0  0  0  0  0  0  0  0
   10.8389    2.7643   -3.1705 H   0  0  0  0  0  0  0  0  0  0  0  0
  1  2  1  0  0  0  0
  2  8  1  0  0  0  0
  2  3  2  0  0  0  0
  4  3  1  0  0  0  0
  4  9  1  0  0  0  0
  5  4  2  0  0  0  0
  6  1  2  0  0  0  0
  6  5  1  0  0  0  0
  7  1  1  0  0  0  0
 10  5  1  0  0  0  0
 11  6  1  0  0  0  0
 12 11  2  0  0  0  0
 13 11  2  0  0  0  0
 15 14  1  0  0  0  0
 16 18  1  0  0  0  0
 16 17  2  0  0  0  0
 18 15  1  0  0  0  0
 19 16  1  0  0  0  0
 20 19  1  0  0  0  0
 21 19  1  0  0  0  0
 22 19  1  0  0  0  0
M  RAD  3   3   2  14   3  15   2
M  END
