Coordinates from ORCA-job p-NO2-Ph-N2-OOCCH3-B3LYPG-aug-cc-pVDZ-scan-d09-49-n400
 OpenBabel01151817083D

 22 21  0  0  0  0  0  0  0  0999 V2000
   14.3476    8.4761   -2.7412 C   0  0  0  0  0  0  0  0  0  0  0  0
   13.4303    7.5464   -2.2569 C   0  0  0  0  0  0  0  0  0  0  0  0
   13.7075    6.1798   -2.3634 C   0  0  0  0  0  0  0  0  0  0  0  0
   14.8967    5.7211   -2.9416 C   0  0  0  0  0  0  0  0  0  0  0  0
   15.8152    6.6498   -3.4279 C   0  0  0  0  0  0  0  0  0  0  0  0
   15.5288    8.0130   -3.3240 C   0  0  0  0  0  0  0  0  0  0  0  0
   14.1615    9.5446   -2.6727 H   0  0  0  0  0  0  0  0  0  0  0  0
   12.5014    7.8680   -1.7874 H   0  0  0  0  0  0  0  0  0  0  0  0
   15.1019    4.6564   -3.0155 H   0  0  0  0  0  0  0  0  0  0  0  0
   16.7491    6.3302   -3.8830 H   0  0  0  0  0  0  0  0  0  0  0  0
   16.5035    8.9905   -3.8376 N   0  0  0  0  0  0  0  0  0  0  0  0
   16.2344   10.1841   -3.7180 O   0  0  0  0  0  0  0  0  0  0  0  0
   17.5446    8.5582   -4.3277 O   0  0  0  0  0  0  0  0  0  0  0  0
   15.6720    6.2482    1.5043 N   0  0  0  0  0  0  0  0  0  0  0  0
   15.6211    5.2004    1.8563 N   0  0  0  0  0  0  0  0  0  0  0  0
   12.3577    4.1799   -2.4223 C   0  0  0  0  0  0  0  0  0  0  0  0
   12.7145    3.8697   -3.5293 O   0  0  0  0  0  0  0  0  0  0  0  0
   12.7844    5.3239   -1.7727 O   0  0  0  0  0  0  0  0  0  0  0  0
   11.3971    3.4255   -1.5455 C   0  0  0  0  0  0  0  0  0  0  0  0
   11.8871    3.1587   -0.5997 H   0  0  0  0  0  0  0  0  0  0  0  0
   10.5364    4.0623   -1.3017 H   0  0  0  0  0  0  0  0  0  0  0  0
   11.0643    2.5244   -2.0671 H   0  0  0  0  0  0  0  0  0  0  0  0
  1  7  1  0  0  0  0
  1  2  2  0  0  0  0
  2  8  1  0  0  0  0
  3  2  1  0  0  0  0
  3 18  1  0  0  0  0
  4  3  2  0  0  0  0
  5  6  2  0  0  0  0
  5  4  1  0  0  0  0
  6  1  1  0  0  0  0
  9  4  1  0  0  0  0
 10  5  1  0  0  0  0
 11 12  2  0  0  0  0
 11  6  1  0  0  0  0
 13 11  2  0  0  0  0
 14 15  3  0  0  0  0
 16 18  1  0  0  0  0
 16 19  1  0  0  0  0
 17 16  2  0  0  0  0
 19 21  1  0  0  0  0
 19 20  1  0  0  0  0
 22 19  1  0  0  0  0
M  END
