Coordinates from ORCA-job p-NO2-Ph-N2-OOCCH3-B3LYPG-aug-cc-pVDZ-scan-d09-49-n400
 OpenBabel01151817083D

 22 22  0  0  0  0  0  0  0  0999 V2000
   14.9005    8.5858   -2.7636 C   0  0  0  0  0  0  0  0  0  0  0  0
   13.9997    8.1490   -1.7917 C   0  0  0  0  0  0  0  0  0  0  0  0
   14.2400    6.9355   -1.1512 C   0  0  0  0  0  0  0  0  0  0  0  0
   15.3706    6.1612   -1.4106 C   0  0  0  0  0  0  0  0  0  0  0  0
   16.2774    6.6029   -2.3731 C   0  0  0  0  0  0  0  0  0  0  0  0
   16.0239    7.8045   -3.0387 C   0  0  0  0  0  0  0  0  0  0  0  0
   14.7479    9.5192   -3.2993 H   0  0  0  0  0  0  0  0  0  0  0  0
   13.1238    8.7423   -1.5359 H   0  0  0  0  0  0  0  0  0  0  0  0
   15.5394    5.2298   -0.8743 H   0  0  0  0  0  0  0  0  0  0  0  0
   17.1705    6.0318   -2.6136 H   0  0  0  0  0  0  0  0  0  0  0  0
   16.9813    8.2676   -4.0624 N   0  0  0  0  0  0  0  0  0  0  0  0
   16.7369    9.3267   -4.6344 O   0  0  0  0  0  0  0  0  0  0  0  0
   17.9629    7.5635   -4.2853 O   0  0  0  0  0  0  0  0  0  0  0  0
   13.2881    6.5424    0.0093 N   0  0  0  0  0  0  0  0  0  0  0  0
   12.4961    5.6283   -0.0810 N   0  0  0  0  0  0  0  0  0  0  0  0
   11.6732    3.8858   -1.5002 C   0  0  0  0  0  0  0  0  0  0  0  0
   11.1008    3.4014   -0.5630 O   0  0  0  0  0  0  0  0  0  0  0  0
   12.5122    4.9907   -1.4205 O   0  0  0  0  0  0  0  0  0  0  0  0
   11.6143    3.4156   -2.9315 C   0  0  0  0  0  0  0  0  0  0  0  0
   11.1314    4.1829   -3.5521 H   0  0  0  0  0  0  0  0  0  0  0  0
   12.6265    3.2585   -3.3261 H   0  0  0  0  0  0  0  0  0  0  0  0
   11.0400    2.4858   -2.9756 H   0  0  0  0  0  0  0  0  0  0  0  0
  1  2  1  0  0  0  0
  2  8  1  0  0  0  0
  2  3  2  0  0  0  0
  3 14  1  0  0  0  0
  4  3  1  0  0  0  0
  4  9  1  0  0  0  0
  5  4  2  0  0  0  0
  6  1  2  0  0  0  0
  6  5  1  0  0  0  0
  7  1  1  0  0  0  0
 10  5  1  0  0  0  0
 11  6  1  0  0  0  0
 12 11  2  0  0  0  0
 13 11  2  0  0  0  0
 15 14  1  0  0  0  0
 16 18  1  0  0  0  0
 16 17  2  0  0  0  0
 18 15  1  0  0  0  0
 19 16  1  0  0  0  0
 20 19  1  0  0  0  0
 21 19  1  0  0  0  0
 22 19  1  0  0  0  0
M  RAD  2  14   2  15   2
M  END
