Coordinates from ORCA-job p-NO2-Ph-N2-OOCCH3-B3LYPG-aug-cc-pVDZ-scan-d09-49-n400
 OpenBabel01151817083D

 22 21  0  0  0  0  0  0  0  0999 V2000
   14.3913    8.4765   -2.6669 C   0  0  0  0  0  0  0  0  0  0  0  0
   13.4951    7.5450   -2.1497 C   0  0  0  0  0  0  0  0  0  0  0  0
   13.7946    6.1826   -2.2234 C   0  0  0  0  0  0  0  0  0  0  0  0
   14.9732    5.7273   -2.8222 C   0  0  0  0  0  0  0  0  0  0  0  0
   15.8715    6.6566   -3.3422 C   0  0  0  0  0  0  0  0  0  0  0  0
   15.5706    8.0175   -3.2564 C   0  0  0  0  0  0  0  0  0  0  0  0
   14.1904    9.5436   -2.6207 H   0  0  0  0  0  0  0  0  0  0  0  0
   12.5687    7.8637   -1.6754 H   0  0  0  0  0  0  0  0  0  0  0  0
   15.1882    4.6642   -2.8819 H   0  0  0  0  0  0  0  0  0  0  0  0
   16.7995    6.3402   -3.8112 H   0  0  0  0  0  0  0  0  0  0  0  0
   16.5242    8.9971   -3.8043 N   0  0  0  0  0  0  0  0  0  0  0  0
   16.2344   10.1887   -3.7173 O   0  0  0  0  0  0  0  0  0  0  0  0
   17.5560    8.5679   -4.3163 O   0  0  0  0  0  0  0  0  0  0  0  0
   15.0107    6.1183    0.3698 N   0  0  0  0  0  0  0  0  0  0  0  0
   15.0842    5.1911    0.9652 N   0  0  0  0  0  0  0  0  0  0  0  0
   12.4286    4.1981   -2.2820 C   0  0  0  0  0  0  0  0  0  0  0  0
   12.7513    3.9112   -3.4054 O   0  0  0  0  0  0  0  0  0  0  0  0
   12.8885    5.3207   -1.6164 O   0  0  0  0  0  0  0  0  0  0  0  0
   11.4822    3.4348   -1.3978 C   0  0  0  0  0  0  0  0  0  0  0  0
   11.9921    3.1429   -0.4702 H   0  0  0  0  0  0  0  0  0  0  0  0
   10.6344    4.0747   -1.1198 H   0  0  0  0  0  0  0  0  0  0  0  0
   11.1273    2.5486   -1.9302 H   0  0  0  0  0  0  0  0  0  0  0  0
  1  7  1  0  0  0  0
  1  2  2  0  0  0  0
  2  8  1  0  0  0  0
  3  2  1  0  0  0  0
  3 18  1  0  0  0  0
  4  3  2  0  0  0  0
  5  6  2  0  0  0  0
  5  4  1  0  0  0  0
  6  1  1  0  0  0  0
  9  4  1  0  0  0  0
 10  5  1  0  0  0  0
 11 12  2  0  0  0  0
 11  6  1  0  0  0  0
 13 11  2  0  0  0  0
 14 15  3  0  0  0  0
 16 18  1  0  0  0  0
 16 19  1  0  0  0  0
 17 16  2  0  0  0  0
 19 21  1  0  0  0  0
 19 20  1  0  0  0  0
 22 19  1  0  0  0  0
M  END
