Coordinates from ORCA-job p-NO2-Ph-N2-OOCCH3-B3LYPG-aug-cc-pVDZ-scan-d09-49-n400
 OpenBabel01151817083D

 22 22  0  0  0  0  0  0  0  0999 V2000
   15.1459    8.6632   -3.0039 C   0  0  0  0  0  0  0  0  0  0  0  0
   14.0146    8.0904   -2.5018 C   0  0  0  0  0  0  0  0  0  0  0  0
   14.0451    6.7876   -1.7002 C   0  0  0  0  0  0  0  0  0  0  0  0
   15.4760    6.2452   -1.5899 C   0  0  0  0  0  0  0  0  0  0  0  0
   16.5396    6.8889   -2.1485 C   0  0  0  0  0  0  0  0  0  0  0  0
   16.4192    8.0950   -2.8553 C   0  0  0  0  0  0  0  0  0  0  0  0
   15.0492    9.6027   -3.5491 H   0  0  0  0  0  0  0  0  0  0  0  0
   13.0152    8.5103   -2.5813 H   0  0  0  0  0  0  0  0  0  0  0  0
   15.5226    5.3037   -1.0490 H   0  0  0  0  0  0  0  0  0  0  0  0
   17.5280    6.4427   -2.0328 H   0  0  0  0  0  0  0  0  0  0  0  0
   17.5713    8.7311   -3.4144 N   0  0  0  0  0  0  0  0  0  0  0  0
   17.4129    9.7946   -4.0306 O   0  0  0  0  0  0  0  0  0  0  0  0
   18.6737    8.1863   -3.2620 O   0  0  0  0  0  0  0  0  0  0  0  0
   13.3220    6.3823   -1.3497 N   0  0  0  0  0  0  0  0  0  0  0  0
   12.3421    5.8633   -0.8194 N   0  0  0  0  0  0  0  0  0  0  0  0
   11.7792    3.6787   -1.5392 C   0  0  0  0  0  0  0  0  0  0  0  0
   12.5448    3.2385   -0.7260 O   0  0  0  0  0  0  0  0  0  0  0  0
   11.6962    5.0403   -1.8329 O   0  0  0  0  0  0  0  0  0  0  0  0
   10.7998    2.9247   -2.3939 C   0  0  0  0  0  0  0  0  0  0  0  0
    9.7800    3.1402   -2.0472 H   0  0  0  0  0  0  0  0  0  0  0  0
   10.8752    3.2476   -3.4398 H   0  0  0  0  0  0  0  0  0  0  0  0
   11.0045    1.8539   -2.3077 H   0  0  0  0  0  0  0  0  0  0  0  0
  1  6  2  0  0  0  0
  1  2  1  0  0  0  0
  2  3  2  0  0  0  0
  3  4  1  0  0  0  0
  3 14  1  0  0  0  0
  4  9  1  0  0  0  0
  5 10  1  0  0  0  0
  5  4  2  0  0  0  0
  6  5  1  0  0  0  0
  7  1  1  0  0  0  0
  8  2  1  0  0  0  0
 11 13  2  0  0  0  0
 11  6  1  0  0  0  0
 12 11  2  0  0  0  0
 14 15  1  0  0  0  0
 16 17  2  0  0  0  0
 18 16  1  0  0  0  0
 18 15  1  0  0  0  0
 19 22  1  0  0  0  0
 19 20  1  0  0  0  0
 19 16  1  0  0  0  0
 21 19  1  0  0  0  0
M  RAD  2  14   2  15   2
M  END
