Coordinates from ORCA-job p-NO2-Ph-N2-OOCCH3-B3LYPG-aug-cc-pVDZ-scan-d09-49-n400
 OpenBabel01151817083D

 22 22  0  0  0  0  0  0  0  0999 V2000
   15.1403    8.7087   -2.8949 C   0  0  0  0  0  0  0  0  0  0  0  0
   14.1214    7.9524   -2.3726 C   0  0  0  0  0  0  0  0  0  0  0  0
   14.3698    6.6191   -1.7646 C   0  0  0  0  0  0  0  0  0  0  0  0
   15.7971    6.2061   -1.7962 C   0  0  0  0  0  0  0  0  0  0  0  0
   16.7697    7.0109   -2.3345 C   0  0  0  0  0  0  0  0  0  0  0  0
   16.4687    8.2619   -2.8898 C   0  0  0  0  0  0  0  0  0  0  0  0
   14.9107    9.6825   -3.3250 H   0  0  0  0  0  0  0  0  0  0  0  0
   13.0863    8.2872   -2.3694 H   0  0  0  0  0  0  0  0  0  0  0  0
   16.0169    5.2335   -1.3612 H   0  0  0  0  0  0  0  0  0  0  0  0
   17.8034    6.6682   -2.3299 H   0  0  0  0  0  0  0  0  0  0  0  0
   17.5122    9.0785   -3.4497 N   0  0  0  0  0  0  0  0  0  0  0  0
   17.2013   10.1755   -3.9303 O   0  0  0  0  0  0  0  0  0  0  0  0
   18.6706    8.6445   -3.4249 O   0  0  0  0  0  0  0  0  0  0  0  0
   13.6369    6.0459   -1.3709 N   0  0  0  0  0  0  0  0  0  0  0  0
   12.7735    5.3996   -0.8259 N   0  0  0  0  0  0  0  0  0  0  0  0
   11.1783    3.7033   -1.3010 C   0  0  0  0  0  0  0  0  0  0  0  0
   10.8464    3.7279   -0.1517 O   0  0  0  0  0  0  0  0  0  0  0  0
   12.1928    4.5136   -1.8341 O   0  0  0  0  0  0  0  0  0  0  0  0
   10.6180    2.8496   -2.4057 C   0  0  0  0  0  0  0  0  0  0  0  0
   10.1323    3.4882   -3.1562 H   0  0  0  0  0  0  0  0  0  0  0  0
   11.4224    2.2975   -2.9084 H   0  0  0  0  0  0  0  0  0  0  0  0
    9.8882    2.1567   -1.9776 H   0  0  0  0  0  0  0  0  0  0  0  0
  1  6  2  0  0  0  0
  1  2  1  0  0  0  0
  2  8  1  0  0  0  0
  2  3  2  0  0  0  0
  3 14  1  0  0  0  0
  4  3  1  0  0  0  0
  4  9  1  0  0  0  0
  5 10  1  0  0  0  0
  5  4  2  0  0  0  0
  6  5  1  0  0  0  0
  7  1  1  0  0  0  0
 11 13  2  0  0  0  0
 11  6  1  0  0  0  0
 12 11  2  0  0  0  0
 14 15  1  0  0  0  0
 16 17  2  0  0  0  0
 18 16  1  0  0  0  0
 18 15  1  0  0  0  0
 19 22  1  0  0  0  0
 19 16  1  0  0  0  0
 20 19  1  0  0  0  0
 21 19  1  0  0  0  0
M  RAD  2  14   2  15   2
M  END
