Coordinates from ORCA-job p-NO2-Ph-N2-OOCCH3-B3LYPG-aug-cc-pVDZ-scan-d09-49-n400
 OpenBabel01151817083D

 22 21  0  0  0  0  0  0  0  0999 V2000
   14.3914    8.4757   -2.6651 C   0  0  0  0  0  0  0  0  0  0  0  0
   13.4958    7.5439   -2.1472 C   0  0  0  0  0  0  0  0  0  0  0  0
   13.7966    6.1819   -2.2189 C   0  0  0  0  0  0  0  0  0  0  0  0
   14.9750    5.7268   -2.8179 C   0  0  0  0  0  0  0  0  0  0  0  0
   15.8728    6.6560   -3.3388 C   0  0  0  0  0  0  0  0  0  0  0  0
   15.5711    8.0169   -3.2540 C   0  0  0  0  0  0  0  0  0  0  0  0
   14.1897    9.5426   -2.6201 H   0  0  0  0  0  0  0  0  0  0  0  0
   12.5692    7.8622   -1.6731 H   0  0  0  0  0  0  0  0  0  0  0  0
   15.1905    4.6637   -2.8763 H   0  0  0  0  0  0  0  0  0  0  0  0
   16.8009    6.3398   -3.8077 H   0  0  0  0  0  0  0  0  0  0  0  0
   16.5242    8.9966   -3.8027 N   0  0  0  0  0  0  0  0  0  0  0  0
   16.2333   10.1880   -3.7174 O   0  0  0  0  0  0  0  0  0  0  0  0
   17.5559    8.5675   -4.3149 O   0  0  0  0  0  0  0  0  0  0  0  0
   15.0029    6.1204    0.3457 N   0  0  0  0  0  0  0  0  0  0  0  0
   15.0825    5.1960    0.9449 N   0  0  0  0  0  0  0  0  0  0  0  0
   12.4289    4.1989   -2.2800 C   0  0  0  0  0  0  0  0  0  0  0  0
   12.7508    3.9137   -3.4041 O   0  0  0  0  0  0  0  0  0  0  0  0
   12.8906    5.3196   -1.6122 O   0  0  0  0  0  0  0  0  0  0  0  0
   11.4821    3.4350   -1.3969 C   0  0  0  0  0  0  0  0  0  0  0  0
   11.9916    3.1417   -0.4695 H   0  0  0  0  0  0  0  0  0  0  0  0
   10.6345    4.0750   -1.1183 H   0  0  0  0  0  0  0  0  0  0  0  0
   11.1267    2.5496   -1.9304 H   0  0  0  0  0  0  0  0  0  0  0  0
  1  7  1  0  0  0  0
  1  2  2  0  0  0  0
  2  8  1  0  0  0  0
  3  2  1  0  0  0  0
  3 18  1  0  0  0  0
  4  3  2  0  0  0  0
  5  6  2  0  0  0  0
  5  4  1  0  0  0  0
  6  1  1  0  0  0  0
  9  4  1  0  0  0  0
 10  5  1  0  0  0  0
 11 12  2  0  0  0  0
 11  6  1  0  0  0  0
 13 11  2  0  0  0  0
 14 15  3  0  0  0  0
 16 18  1  0  0  0  0
 16 19  1  0  0  0  0
 17 16  2  0  0  0  0
 19 21  1  0  0  0  0
 19 20  1  0  0  0  0
 22 19  1  0  0  0  0
M  END
