Coordinates from ORCA-job p-NO2-Ph-N2-OOCCH3-B3LYPG-aug-cc-pVDZ-scan-d09-49-n400
 OpenBabel01151817083D

 22 21  0  0  0  0  0  0  0  0999 V2000
   14.3487    8.4766   -2.7404 C   0  0  0  0  0  0  0  0  0  0  0  0
   13.4319    7.5470   -2.2552 C   0  0  0  0  0  0  0  0  0  0  0  0
   13.7093    6.1804   -2.3614 C   0  0  0  0  0  0  0  0  0  0  0  0
   14.8983    5.7217   -2.9400 C   0  0  0  0  0  0  0  0  0  0  0  0
   15.8163    6.6504   -3.4271 C   0  0  0  0  0  0  0  0  0  0  0  0
   15.5297    8.0135   -3.3236 C   0  0  0  0  0  0  0  0  0  0  0  0
   14.1624    9.5452   -2.6722 H   0  0  0  0  0  0  0  0  0  0  0  0
   12.5032    7.8685   -1.7854 H   0  0  0  0  0  0  0  0  0  0  0  0
   15.1037    4.6571   -3.0135 H   0  0  0  0  0  0  0  0  0  0  0  0
   16.7501    6.3309   -3.8826 H   0  0  0  0  0  0  0  0  0  0  0  0
   16.5039    8.9911   -3.8381 N   0  0  0  0  0  0  0  0  0  0  0  0
   16.2347   10.1847   -3.7186 O   0  0  0  0  0  0  0  0  0  0  0  0
   17.5449    8.5588   -4.3284 O   0  0  0  0  0  0  0  0  0  0  0  0
   15.6546    6.2416    1.4826 N   0  0  0  0  0  0  0  0  0  0  0  0
   15.6063    5.1959    1.8410 N   0  0  0  0  0  0  0  0  0  0  0  0
   12.3597    4.1804   -2.4190 C   0  0  0  0  0  0  0  0  0  0  0  0
   12.7157    3.8703   -3.5263 O   0  0  0  0  0  0  0  0  0  0  0  0
   12.7869    5.3245   -1.7697 O   0  0  0  0  0  0  0  0  0  0  0  0
   11.3999    3.4260   -1.5414 C   0  0  0  0  0  0  0  0  0  0  0  0
   11.8908    3.1591   -0.5961 H   0  0  0  0  0  0  0  0  0  0  0  0
   10.5395    4.0628   -1.2967 H   0  0  0  0  0  0  0  0  0  0  0  0
   11.0666    2.5249   -2.0628 H   0  0  0  0  0  0  0  0  0  0  0  0
  1  7  1  0  0  0  0
  1  2  2  0  0  0  0
  2  8  1  0  0  0  0
  3  2  1  0  0  0  0
  3 18  1  0  0  0  0
  4  3  2  0  0  0  0
  5  6  2  0  0  0  0
  5  4  1  0  0  0  0
  6  1  1  0  0  0  0
  9  4  1  0  0  0  0
 10  5  1  0  0  0  0
 11 12  2  0  0  0  0
 11  6  1  0  0  0  0
 13 11  2  0  0  0  0
 14 15  3  0  0  0  0
 16 18  1  0  0  0  0
 16 19  1  0  0  0  0
 17 16  2  0  0  0  0
 19 21  1  0  0  0  0
 19 20  1  0  0  0  0
 22 19  1  0  0  0  0
M  END
