Coordinates from ORCA-job p-NO2-Ph-N2-OOCCH3-B3LYPG-aug-cc-pVDZ-scan-d09-49-n400
 OpenBabel01151817083D

 22 21  0  0  0  0  0  0  0  0999 V2000
   14.3403    8.4714   -2.7449 C   0  0  0  0  0  0  0  0  0  0  0  0
   13.4191    7.5421   -2.2679 C   0  0  0  0  0  0  0  0  0  0  0  0
   13.6940    6.1758   -2.3780 C   0  0  0  0  0  0  0  0  0  0  0  0
   14.8848    5.7167   -2.9516 C   0  0  0  0  0  0  0  0  0  0  0  0
   15.8071    6.6449   -3.4307 C   0  0  0  0  0  0  0  0  0  0  0  0
   15.5230    8.0079   -3.3237 C   0  0  0  0  0  0  0  0  0  0  0  0
   14.1560    9.5401   -2.6738 H   0  0  0  0  0  0  0  0  0  0  0  0
   12.4893    7.8636   -1.8020 H   0  0  0  0  0  0  0  0  0  0  0  0
   15.0883    4.6527   -3.0274 H   0  0  0  0  0  0  0  0  0  0  0  0
   16.7424    6.3249   -3.8827 H   0  0  0  0  0  0  0  0  0  0  0  0
   16.5018    8.9850   -3.8300 N   0  0  0  0  0  0  0  0  0  0  0  0
   16.2277   10.1786   -3.7219 O   0  0  0  0  0  0  0  0  0  0  0  0
   17.5371    8.5519   -4.3313 O   0  0  0  0  0  0  0  0  0  0  0  0
   15.7987    6.2945    1.6645 N   0  0  0  0  0  0  0  0  0  0  0  0
   15.7270    5.2341    1.9643 N   0  0  0  0  0  0  0  0  0  0  0  0
   12.3439    4.1773   -2.4473 C   0  0  0  0  0  0  0  0  0  0  0  0
   12.7074    3.8676   -3.5523 O   0  0  0  0  0  0  0  0  0  0  0  0
   12.7668    5.3205   -1.7942 O   0  0  0  0  0  0  0  0  0  0  0  0
   11.3776    3.4232   -1.5768 C   0  0  0  0  0  0  0  0  0  0  0  0
   11.8612    3.1571   -0.6275 H   0  0  0  0  0  0  0  0  0  0  0  0
   10.5151    4.0599   -1.3393 H   0  0  0  0  0  0  0  0  0  0  0  0
   11.0485    2.5218   -2.1003 H   0  0  0  0  0  0  0  0  0  0  0  0
  1  7  1  0  0  0  0
  1  2  2  0  0  0  0
  2  8  1  0  0  0  0
  3  2  1  0  0  0  0
  3 18  1  0  0  0  0
  4  3  2  0  0  0  0
  5  6  2  0  0  0  0
  5  4  1  0  0  0  0
  6  1  1  0  0  0  0
  9  4  1  0  0  0  0
 10  5  1  0  0  0  0
 11 12  2  0  0  0  0
 11  6  1  0  0  0  0
 13 11  2  0  0  0  0
 14 15  3  0  0  0  0
 16 18  1  0  0  0  0
 16 19  1  0  0  0  0
 17 16  2  0  0  0  0
 19 21  1  0  0  0  0
 19 20  1  0  0  0  0
 22 19  1  0  0  0  0
M  END
