Coordinates from ORCA-job p-NO2-Ph-N2-OOCCH3-B3LYPG-aug-cc-pVDZ-scan-d09-49-n400
 OpenBabel01151817083D

 22 21  0  0  0  0  0  0  0  0999 V2000
   14.3606    8.4825   -2.7310 C   0  0  0  0  0  0  0  0  0  0  0  0
   13.4489    7.5527   -2.2363 C   0  0  0  0  0  0  0  0  0  0  0  0
   13.7301    6.1866   -2.3370 C   0  0  0  0  0  0  0  0  0  0  0  0
   14.9170    5.7282   -2.9199 C   0  0  0  0  0  0  0  0  0  0  0  0
   15.8298    6.6569   -3.4166 C   0  0  0  0  0  0  0  0  0  0  0  0
   15.5399    8.0198   -3.3180 C   0  0  0  0  0  0  0  0  0  0  0  0
   14.1716    9.5508   -2.6674 H   0  0  0  0  0  0  0  0  0  0  0  0
   12.5218    7.8739   -1.7631 H   0  0  0  0  0  0  0  0  0  0  0  0
   15.1246    4.6637   -2.9893 H   0  0  0  0  0  0  0  0  0  0  0  0
   16.7620    6.3378   -3.8756 H   0  0  0  0  0  0  0  0  0  0  0  0
   16.5087    8.9976   -3.8424 N   0  0  0  0  0  0  0  0  0  0  0  0
   16.2378   10.1911   -3.7252 O   0  0  0  0  0  0  0  0  0  0  0  0
   17.5494    8.5659   -4.3337 O   0  0  0  0  0  0  0  0  0  0  0  0
   15.4667    6.1724    1.2415 N   0  0  0  0  0  0  0  0  0  0  0  0
   15.4413    5.1483    1.6611 N   0  0  0  0  0  0  0  0  0  0  0  0
   12.3814    4.1863   -2.3821 C   0  0  0  0  0  0  0  0  0  0  0  0
   12.7276    3.8772   -3.4928 O   0  0  0  0  0  0  0  0  0  0  0  0
   12.8139    5.3301   -1.7359 O   0  0  0  0  0  0  0  0  0  0  0  0
   11.4300    3.4306   -1.4965 C   0  0  0  0  0  0  0  0  0  0  0  0
   11.9311    3.1594   -0.5577 H   0  0  0  0  0  0  0  0  0  0  0  0
   10.5735    4.0678   -1.2398 H   0  0  0  0  0  0  0  0  0  0  0  0
   11.0895    2.5317   -2.0171 H   0  0  0  0  0  0  0  0  0  0  0  0
  1  7  1  0  0  0  0
  1  2  2  0  0  0  0
  2  8  1  0  0  0  0
  3  2  1  0  0  0  0
  3 18  1  0  0  0  0
  4  3  2  0  0  0  0
  5  6  2  0  0  0  0
  5  4  1  0  0  0  0
  6  1  1  0  0  0  0
  9  4  1  0  0  0  0
 10  5  1  0  0  0  0
 11 12  2  0  0  0  0
 11  6  1  0  0  0  0
 13 11  2  0  0  0  0
 14 15  3  0  0  0  0
 16 18  1  0  0  0  0
 16 19  1  0  0  0  0
 17 16  2  0  0  0  0
 19 21  1  0  0  0  0
 19 20  1  0  0  0  0
 22 19  1  0  0  0  0
M  END
