Coordinates from ORCA-job p-NO2-Ph-N2-OOCCH3-B3LYPG-aug-cc-pVDZ-scan-d09-49-n400
 OpenBabel01151817083D

 22 21  0  0  0  0  0  0  0  0999 V2000
   14.3914    8.4780   -2.6692 C   0  0  0  0  0  0  0  0  0  0  0  0
   13.4941    7.5465   -2.1534 C   0  0  0  0  0  0  0  0  0  0  0  0
   13.7914    6.1839   -2.2309 C   0  0  0  0  0  0  0  0  0  0  0  0
   14.9706    5.7283   -2.8283 C   0  0  0  0  0  0  0  0  0  0  0  0
   15.8699    6.6575   -3.3469 C   0  0  0  0  0  0  0  0  0  0  0  0
   15.5701    8.0186   -3.2597 C   0  0  0  0  0  0  0  0  0  0  0  0
   14.1918    9.5451   -2.6210 H   0  0  0  0  0  0  0  0  0  0  0  0
   12.5683    7.8653   -1.6782 H   0  0  0  0  0  0  0  0  0  0  0  0
   15.1847    4.6651   -2.8888 H   0  0  0  0  0  0  0  0  0  0  0  0
   16.7980    6.3408   -3.8155 H   0  0  0  0  0  0  0  0  0  0  0  0
   16.5247    8.9980   -3.8061 N   0  0  0  0  0  0  0  0  0  0  0  0
   16.2346   10.1896   -3.7204 O   0  0  0  0  0  0  0  0  0  0  0  0
   17.5546    8.5683   -4.3216 O   0  0  0  0  0  0  0  0  0  0  0  0
   15.0240    6.1150    0.4098 N   0  0  0  0  0  0  0  0  0  0  0  0
   15.0871    5.1825    0.9982 N   0  0  0  0  0  0  0  0  0  0  0  0
   12.4278    4.1974   -2.2857 C   0  0  0  0  0  0  0  0  0  0  0  0
   12.7520    3.9078   -3.4081 O   0  0  0  0  0  0  0  0  0  0  0  0
   12.8853    5.3225   -1.6228 O   0  0  0  0  0  0  0  0  0  0  0  0
   11.4822    3.4348   -1.4001 C   0  0  0  0  0  0  0  0  0  0  0  0
   11.9926    3.1447   -0.4721 H   0  0  0  0  0  0  0  0  0  0  0  0
   10.6339    4.0744   -1.1229 H   0  0  0  0  0  0  0  0  0  0  0  0
   11.1280    2.5473   -1.9310 H   0  0  0  0  0  0  0  0  0  0  0  0
  1  7  1  0  0  0  0
  1  2  2  0  0  0  0
  2  8  1  0  0  0  0
  3  2  1  0  0  0  0
  3 18  1  0  0  0  0
  4  3  2  0  0  0  0
  5  6  2  0  0  0  0
  5  4  1  0  0  0  0
  6  1  1  0  0  0  0
  9  4  1  0  0  0  0
 10  5  1  0  0  0  0
 11 12  2  0  0  0  0
 11  6  1  0  0  0  0
 13 11  2  0  0  0  0
 14 15  3  0  0  0  0
 16 18  1  0  0  0  0
 16 19  1  0  0  0  0
 17 16  2  0  0  0  0
 19 21  1  0  0  0  0
 19 20  1  0  0  0  0
 22 19  1  0  0  0  0
M  END
