Coordinates from ORCA-job p-NO2-Ph-N2-OOCCH3-B3LYPG-aug-cc-pVDZ-scan-d09-49-n400
 OpenBabel01151817083D

 22 22  0  0  0  0  0  0  0  0999 V2000
   14.9863    8.6951   -2.6954 C   0  0  0  0  0  0  0  0  0  0  0  0
   14.0504    8.2707   -1.7536 C   0  0  0  0  0  0  0  0  0  0  0  0
   14.1654    6.9922   -1.1993 C   0  0  0  0  0  0  0  0  0  0  0  0
   15.2316    6.1461   -1.5280 C   0  0  0  0  0  0  0  0  0  0  0  0
   16.1810    6.5774   -2.4509 C   0  0  0  0  0  0  0  0  0  0  0  0
   16.0385    7.8412   -3.0285 C   0  0  0  0  0  0  0  0  0  0  0  0
   14.9183    9.6755   -3.1598 H   0  0  0  0  0  0  0  0  0  0  0  0
   13.2331    8.9218   -1.4485 H   0  0  0  0  0  0  0  0  0  0  0  0
   15.3170    5.1657   -1.0650 H   0  0  0  0  0  0  0  0  0  0  0  0
   17.0229    5.9494   -2.7310 H   0  0  0  0  0  0  0  0  0  0  0  0
   17.0390    8.2915   -4.0155 N   0  0  0  0  0  0  0  0  0  0  0  0
   16.8875    9.4037   -4.5143 O   0  0  0  0  0  0  0  0  0  0  0  0
   17.9536    7.5197   -4.2930 O   0  0  0  0  0  0  0  0  0  0  0  0
   13.2202    6.6387   -0.1423 N   0  0  0  0  0  0  0  0  0  0  0  0
   12.4519    5.6986   -0.1727 N   0  0  0  0  0  0  0  0  0  0  0  0
   11.7164    3.8262   -1.4707 C   0  0  0  0  0  0  0  0  0  0  0  0
   11.2072    3.3565   -0.4898 O   0  0  0  0  0  0  0  0  0  0  0  0
   12.5009    4.9706   -1.4727 O   0  0  0  0  0  0  0  0  0  0  0  0
   11.6258    3.2858   -2.8756 C   0  0  0  0  0  0  0  0  0  0  0  0
   11.0895    4.0019   -3.5131 H   0  0  0  0  0  0  0  0  0  0  0  0
   12.6292    3.1514   -3.3003 H   0  0  0  0  0  0  0  0  0  0  0  0
   11.0916    2.3316   -2.8548 H   0  0  0  0  0  0  0  0  0  0  0  0
  1  2  1  0  0  0  0
  2  8  1  0  0  0  0
  2  3  2  0  0  0  0
  3 14  1  0  0  0  0
  4  3  1  0  0  0  0
  4  9  1  0  0  0  0
  5  4  2  0  0  0  0
  6  1  2  0  0  0  0
  6  5  1  0  0  0  0
  7  1  1  0  0  0  0
 10  5  1  0  0  0  0
 11  6  1  0  0  0  0
 12 11  2  0  0  0  0
 13 11  2  0  0  0  0
 15 14  1  0  0  0  0
 16 17  2  0  0  0  0
 18 16  1  0  0  0  0
 18 15  1  0  0  0  0
 19 22  1  0  0  0  0
 19 16  1  0  0  0  0
 20 19  1  0  0  0  0
 21 19  1  0  0  0  0
M  RAD  2  14   2  15   2
M  END
