Coordinates from ORCA-job p-NO2-Ph-N2-OOCCH3-B3LYPG-aug-cc-pVDZ-scan-d09-49-n400
 OpenBabel01151817083D

 22 22  0  0  0  0  0  0  0  0999 V2000
   14.8665    8.4836   -2.8173 C   0  0  0  0  0  0  0  0  0  0  0  0
   13.9845    7.9459   -1.8953 C   0  0  0  0  0  0  0  0  0  0  0  0
   14.3279    6.7816   -1.1334 C   0  0  0  0  0  0  0  0  0  0  0  0
   15.6275    6.2183   -1.3525 C   0  0  0  0  0  0  0  0  0  0  0  0
   16.4987    6.7677   -2.2778 C   0  0  0  0  0  0  0  0  0  0  0  0
   16.1189    7.8954   -3.0095 C   0  0  0  0  0  0  0  0  0  0  0  0
   14.5917    9.3630   -3.3952 H   0  0  0  0  0  0  0  0  0  0  0  0
   13.0104    8.4014   -1.7260 H   0  0  0  0  0  0  0  0  0  0  0  0
   15.9151    5.3474   -0.7663 H   0  0  0  0  0  0  0  0  0  0  0  0
   17.4796    6.3270   -2.4407 H   0  0  0  0  0  0  0  0  0  0  0  0
   17.0446    8.4697   -3.9834 N   0  0  0  0  0  0  0  0  0  0  0  0
   16.6769    9.4646   -4.6091 O   0  0  0  0  0  0  0  0  0  0  0  0
   18.1404    7.9261   -4.1254 O   0  0  0  0  0  0  0  0  0  0  0  0
   13.6149    6.3535   -0.3382 N   0  0  0  0  0  0  0  0  0  0  0  0
   12.7239    5.5415   -0.2134 N   0  0  0  0  0  0  0  0  0  0  0  0
   11.4769    3.9388   -1.5038 C   0  0  0  0  0  0  0  0  0  0  0  0
   10.8565    3.6566   -0.5156 O   0  0  0  0  0  0  0  0  0  0  0  0
   12.4863    4.8908   -1.5474 O   0  0  0  0  0  0  0  0  0  0  0  0
   11.3064    3.3410   -2.8773 C   0  0  0  0  0  0  0  0  0  0  0  0
   11.0506    4.1267   -3.6007 H   0  0  0  0  0  0  0  0  0  0  0  0
   12.2471    2.8804   -3.2071 H   0  0  0  0  0  0  0  0  0  0  0  0
   10.5119    2.5903   -2.8395 H   0  0  0  0  0  0  0  0  0  0  0  0
  1  2  1  0  0  0  0
  2  8  1  0  0  0  0
  2  3  2  0  0  0  0
  3 14  1  0  0  0  0
  4  3  1  0  0  0  0
  4  9  1  0  0  0  0
  5  4  2  0  0  0  0
  6  1  2  0  0  0  0
  6  5  1  0  0  0  0
  7  1  1  0  0  0  0
 10  5  1  0  0  0  0
 11  6  1  0  0  0  0
 12 11  2  0  0  0  0
 13 11  2  0  0  0  0
 14 15  1  0  0  0  0
 16 17  2  0  0  0  0
 18 16  1  0  0  0  0
 18 15  1  0  0  0  0
 19 22  1  0  0  0  0
 19 16  1  0  0  0  0
 20 19  1  0  0  0  0
 21 19  1  0  0  0  0
M  RAD  2  14   2  15   2
M  END
