Coordinates from ORCA-job p-NO2-Ph-N2-OOCCH3-B3LYPG-aug-cc-pVDZ-scan-d09-49-n400
 OpenBabel01151817083D

 22 21  0  0  0  0  0  0  0  0999 V2000
   14.3741    8.4850   -2.7133 C   0  0  0  0  0  0  0  0  0  0  0  0
   13.4674    7.5550   -2.2106 C   0  0  0  0  0  0  0  0  0  0  0  0
   13.7522    6.1901   -2.3066 C   0  0  0  0  0  0  0  0  0  0  0  0
   14.9364    5.7324   -2.8942 C   0  0  0  0  0  0  0  0  0  0  0  0
   15.8442    6.6611   -3.3989 C   0  0  0  0  0  0  0  0  0  0  0  0
   15.5517    8.0232   -3.3037 C   0  0  0  0  0  0  0  0  0  0  0  0
   14.1824    9.5530   -2.6535 H   0  0  0  0  0  0  0  0  0  0  0  0
   12.5419    7.8754   -1.7358 H   0  0  0  0  0  0  0  0  0  0  0  0
   15.1455    4.6687   -2.9616 H   0  0  0  0  0  0  0  0  0  0  0  0
   16.7744    6.3425   -3.8621 H   0  0  0  0  0  0  0  0  0  0  0  0
   16.5155    9.0012   -3.8364 N   0  0  0  0  0  0  0  0  0  0  0  0
   16.2340   10.1940   -3.7388 O   0  0  0  0  0  0  0  0  0  0  0  0
   17.5467    8.5695   -4.3475 O   0  0  0  0  0  0  0  0  0  0  0  0
   15.2916    6.1210    0.9876 N   0  0  0  0  0  0  0  0  0  0  0  0
   15.2808    5.1238    1.4620 N   0  0  0  0  0  0  0  0  0  0  0  0
   12.4024    4.1922   -2.3473 C   0  0  0  0  0  0  0  0  0  0  0  0
   12.7403    3.8870   -3.4615 O   0  0  0  0  0  0  0  0  0  0  0  0
   12.8414    5.3327   -1.6995 O   0  0  0  0  0  0  0  0  0  0  0  0
   11.4564    3.4346   -1.4577 C   0  0  0  0  0  0  0  0  0  0  0  0
   11.9651    3.1562   -0.5251 H   0  0  0  0  0  0  0  0  0  0  0  0
   10.6043    4.0730   -1.1896 H   0  0  0  0  0  0  0  0  0  0  0  0
   11.1085    2.5398   -1.9806 H   0  0  0  0  0  0  0  0  0  0  0  0
  1  7  1  0  0  0  0
  1  2  2  0  0  0  0
  2  8  1  0  0  0  0
  3  2  1  0  0  0  0
  3 18  1  0  0  0  0
  4  3  2  0  0  0  0
  5  6  2  0  0  0  0
  5  4  1  0  0  0  0
  6  1  1  0  0  0  0
  9  4  1  0  0  0  0
 10  5  1  0  0  0  0
 11 12  2  0  0  0  0
 11  6  1  0  0  0  0
 13 11  2  0  0  0  0
 14 15  3  0  0  0  0
 16 18  1  0  0  0  0
 16 19  1  0  0  0  0
 17 16  2  0  0  0  0
 19 21  1  0  0  0  0
 19 20  1  0  0  0  0
 22 19  1  0  0  0  0
M  END
