Coordinates from ORCA-job p-NO2-Ph-N2-OOCCH3-B3LYPG-aug-cc-pVDZ-scan-d09-49-n400
 OpenBabel01151817083D

 22 22  0  0  0  0  0  0  0  0999 V2000
   14.8048    8.4293   -2.8465 C   0  0  0  0  0  0  0  0  0  0  0  0
   13.9494    7.9584   -1.8474 C   0  0  0  0  0  0  0  0  0  0  0  0
   14.3515    6.8490   -1.1176 C   0  0  0  0  0  0  0  0  0  0  0  0
   15.5665    6.2020   -1.2930 C   0  0  0  0  0  0  0  0  0  0  0  0
   16.4207    6.6749   -2.2919 C   0  0  0  0  0  0  0  0  0  0  0  0
   16.0224    7.7768   -3.0522 C   0  0  0  0  0  0  0  0  0  0  0  0
   14.5433    9.2886   -3.4587 H   0  0  0  0  0  0  0  0  0  0  0  0
   12.9968    8.4459   -1.6504 H   0  0  0  0  0  0  0  0  0  0  0  0
   15.8452    5.3509   -0.6749 H   0  0  0  0  0  0  0  0  0  0  0  0
   17.3825    6.2063   -2.4844 H   0  0  0  0  0  0  0  0  0  0  0  0
   16.9261    8.2750   -4.1092 N   0  0  0  0  0  0  0  0  0  0  0  0
   16.5576    9.2472   -4.7629 O   0  0  0  0  0  0  0  0  0  0  0  0
   17.9930    7.6885   -4.2704 O   0  0  0  0  0  0  0  0  0  0  0  0
   13.3769    6.3721    0.1937 N   0  0  0  0  0  0  0  0  0  0  0  0
   12.5470    5.5093    0.0290 N   0  0  0  0  0  0  0  0  0  0  0  0
   11.5696    3.9802   -1.5334 C   0  0  0  0  0  0  0  0  0  0  0  0
   10.8783    3.5357   -0.6592 O   0  0  0  0  0  0  0  0  0  0  0  0
   12.5091    4.9902   -1.3563 O   0  0  0  0  0  0  0  0  0  0  0  0
   11.5768    3.5551   -2.9802 C   0  0  0  0  0  0  0  0  0  0  0  0
   11.2548    4.3921   -3.6145 H   0  0  0  0  0  0  0  0  0  0  0  0
   12.5914    3.2736   -3.2909 H   0  0  0  0  0  0  0  0  0  0  0  0
   10.8935    2.7102   -3.1034 H   0  0  0  0  0  0  0  0  0  0  0  0
  1  2  1  0  0  0  0
  2  8  1  0  0  0  0
  2  3  2  0  0  0  0
  3 14  1  0  0  0  0
  4  3  1  0  0  0  0
  4  9  1  0  0  0  0
  5  4  2  0  0  0  0
  6  1  2  0  0  0  0
  6  5  1  0  0  0  0
  7  1  1  0  0  0  0
 10  5  1  0  0  0  0
 11  6  1  0  0  0  0
 12 11  2  0  0  0  0
 13 11  2  0  0  0  0
 15 14  1  0  0  0  0
 16 18  1  0  0  0  0
 16 17  2  0  0  0  0
 18 15  1  0  0  0  0
 19 16  1  0  0  0  0
 20 19  1  0  0  0  0
 21 19  1  0  0  0  0
 22 19  1  0  0  0  0
M  RAD  2  14   2  15   2
M  END
