Coordinates from ORCA-job p-NO2-Ph-N2-OOCCH3-B3LYPG-aug-cc-pVDZ-scan-d09-49-n400
 OpenBabel01151817083D

 22 22  0  0  0  0  0  0  0  0999 V2000
   14.8423    8.4644   -2.8128 C   0  0  0  0  0  0  0  0  0  0  0  0
   13.9728    7.9435   -1.8670 C   0  0  0  0  0  0  0  0  0  0  0  0
   14.3254    6.7921   -1.1031 C   0  0  0  0  0  0  0  0  0  0  0  0
   15.6098    6.2146   -1.3276 C   0  0  0  0  0  0  0  0  0  0  0  0
   16.4727    6.7433   -2.2751 C   0  0  0  0  0  0  0  0  0  0  0  0
   16.0861    7.8626   -3.0153 C   0  0  0  0  0  0  0  0  0  0  0  0
   14.5657    9.3377   -3.3987 H   0  0  0  0  0  0  0  0  0  0  0  0
   13.0050    8.4091   -1.6883 H   0  0  0  0  0  0  0  0  0  0  0  0
   15.9017    5.3501   -0.7337 H   0  0  0  0  0  0  0  0  0  0  0  0
   17.4481    6.2949   -2.4481 H   0  0  0  0  0  0  0  0  0  0  0  0
   17.0013    8.4174   -4.0146 N   0  0  0  0  0  0  0  0  0  0  0  0
   16.6290    9.4041   -4.6492 O   0  0  0  0  0  0  0  0  0  0  0  0
   18.0894    7.8627   -4.1674 O   0  0  0  0  0  0  0  0  0  0  0  0
   13.6022    6.3721   -0.2555 N   0  0  0  0  0  0  0  0  0  0  0  0
   12.7147    5.5468   -0.1774 N   0  0  0  0  0  0  0  0  0  0  0  0
   11.5087    3.9603   -1.5177 C   0  0  0  0  0  0  0  0  0  0  0  0
   10.8687    3.6548   -0.5495 O   0  0  0  0  0  0  0  0  0  0  0  0
   12.5114    4.9221   -1.5208 O   0  0  0  0  0  0  0  0  0  0  0  0
   11.3717    3.3908   -2.9067 C   0  0  0  0  0  0  0  0  0  0  0  0
   11.1262    4.1900   -3.6187 H   0  0  0  0  0  0  0  0  0  0  0  0
   12.3226    2.9435   -3.2256 H   0  0  0  0  0  0  0  0  0  0  0  0
   10.5819    2.6342   -2.9021 H   0  0  0  0  0  0  0  0  0  0  0  0
  1  2  1  0  0  0  0
  2  8  1  0  0  0  0
  2  3  2  0  0  0  0
  3 14  1  0  0  0  0
  4  3  1  0  0  0  0
  4  9  1  0  0  0  0
  5  4  2  0  0  0  0
  6  1  2  0  0  0  0
  6  5  1  0  0  0  0
  7  1  1  0  0  0  0
 10  5  1  0  0  0  0
 11  6  1  0  0  0  0
 12 11  2  0  0  0  0
 13 11  2  0  0  0  0
 14 15  1  0  0  0  0
 16 17  2  0  0  0  0
 18 16  1  0  0  0  0
 18 15  1  0  0  0  0
 19 22  1  0  0  0  0
 19 16  1  0  0  0  0
 20 19  1  0  0  0  0
 21 19  1  0  0  0  0
M  RAD  2  14   2  15   2
M  END
