Coordinates from ORCA-job p-NO2-Ph-N2-OOCCH3-B3LYPG-aug-cc-pVDZ-scan-d09-49-n400
 OpenBabel01151817083D

 22 22  0  0  0  0  0  0  0  0999 V2000
   14.8172    8.4540   -2.8307 C   0  0  0  0  0  0  0  0  0  0  0  0
   13.9545    7.9911   -1.8352 C   0  0  0  0  0  0  0  0  0  0  0  0
   14.3277    6.8632   -1.1148 C   0  0  0  0  0  0  0  0  0  0  0  0
   15.5312    6.1944   -1.3046 C   0  0  0  0  0  0  0  0  0  0  0  0
   16.3942    6.6595   -2.2984 C   0  0  0  0  0  0  0  0  0  0  0  0
   16.0198    7.7780   -3.0464 C   0  0  0  0  0  0  0  0  0  0  0  0
   14.5729    9.3257   -3.4326 H   0  0  0  0  0  0  0  0  0  0  0  0
   13.0142    8.4989   -1.6297 H   0  0  0  0  0  0  0  0  0  0  0  0
   15.7925    5.3297   -0.6979 H   0  0  0  0  0  0  0  0  0  0  0  0
   17.3451    6.1717   -2.4973 H   0  0  0  0  0  0  0  0  0  0  0  0
   16.9326    8.2679   -4.0990 N   0  0  0  0  0  0  0  0  0  0  0  0
   16.5829    9.2528   -4.7440 O   0  0  0  0  0  0  0  0  0  0  0  0
   17.9849    7.6581   -4.2704 O   0  0  0  0  0  0  0  0  0  0  0  0
   13.3743    6.4130    0.1438 N   0  0  0  0  0  0  0  0  0  0  0  0
   12.5488    5.5394   -0.0004 N   0  0  0  0  0  0  0  0  0  0  0  0
   11.5978    3.9628   -1.5301 C   0  0  0  0  0  0  0  0  0  0  0  0
   10.9372    3.5046   -0.6393 O   0  0  0  0  0  0  0  0  0  0  0  0
   12.5172    4.9949   -1.3759 O   0  0  0  0  0  0  0  0  0  0  0  0
   11.5808    3.5353   -2.9759 C   0  0  0  0  0  0  0  0  0  0  0  0
   11.2107    4.3594   -3.6010 H   0  0  0  0  0  0  0  0  0  0  0  0
   12.5957    3.2908   -3.3151 H   0  0  0  0  0  0  0  0  0  0  0  0
   10.9251    2.6662   -3.0798 H   0  0  0  0  0  0  0  0  0  0  0  0
  1  2  1  0  0  0  0
  2  8  1  0  0  0  0
  2  3  2  0  0  0  0
  3 14  1  0  0  0  0
  4  3  1  0  0  0  0
  4  9  1  0  0  0  0
  5  4  2  0  0  0  0
  6  1  2  0  0  0  0
  6  5  1  0  0  0  0
  7  1  1  0  0  0  0
 10  5  1  0  0  0  0
 11  6  1  0  0  0  0
 12 11  2  0  0  0  0
 13 11  2  0  0  0  0
 15 14  1  0  0  0  0
 16 18  1  0  0  0  0
 16 17  2  0  0  0  0
 18 15  1  0  0  0  0
 19 16  1  0  0  0  0
 20 19  1  0  0  0  0
 21 19  1  0  0  0  0
 22 19  1  0  0  0  0
M  RAD  2  14   2  15   2
M  END
