Coordinates from ORCA-job p-NO2-Ph-N2-OOCCH3-B3LYPG-aug-cc-pVDZ-scan-d09-49-n400
 OpenBabel01151817083D

 22 22  0  0  0  0  0  0  0  0999 V2000
   14.9098    8.5199   -2.8265 C   0  0  0  0  0  0  0  0  0  0  0  0
   14.0055    7.9528   -1.9483 C   0  0  0  0  0  0  0  0  0  0  0  0
   14.3341    6.7661   -1.1969 C   0  0  0  0  0  0  0  0  0  0  0  0
   15.6550    6.2236   -1.4013 C   0  0  0  0  0  0  0  0  0  0  0  0
   16.5426    6.8084   -2.2849 C   0  0  0  0  0  0  0  0  0  0  0  0
   16.1753    7.9524   -2.9989 C   0  0  0  0  0  0  0  0  0  0  0  0
   14.6409    9.4114   -3.3890 H   0  0  0  0  0  0  0  0  0  0  0  0
   13.0214    8.3920   -1.7958 H   0  0  0  0  0  0  0  0  0  0  0  0
   15.9330    5.3398   -0.8301 H   0  0  0  0  0  0  0  0  0  0  0  0
   17.5322    6.3806   -2.4299 H   0  0  0  0  0  0  0  0  0  0  0  0
   17.1204    8.5603   -3.9267 N   0  0  0  0  0  0  0  0  0  0  0  0
   16.7613    9.5689   -4.5370 O   0  0  0  0  0  0  0  0  0  0  0  0
   18.2270    8.0325   -4.0508 O   0  0  0  0  0  0  0  0  0  0  0  0
   13.6250    6.3204   -0.4677 N   0  0  0  0  0  0  0  0  0  0  0  0
   12.7336    5.5296   -0.2740 N   0  0  0  0  0  0  0  0  0  0  0  0
   11.4273    3.8950   -1.4772 C   0  0  0  0  0  0  0  0  0  0  0  0
   10.8373    3.6549   -0.4592 O   0  0  0  0  0  0  0  0  0  0  0  0
   12.4421    4.8328   -1.5888 O   0  0  0  0  0  0  0  0  0  0  0  0
   11.1969    3.2565   -2.8240 C   0  0  0  0  0  0  0  0  0  0  0  0
   10.9237    4.0223   -3.5622 H   0  0  0  0  0  0  0  0  0  0  0  0
   12.1182    2.7721   -3.1739 H   0  0  0  0  0  0  0  0  0  0  0  0
   10.3945    2.5188   -2.7316 H   0  0  0  0  0  0  0  0  0  0  0  0
  1  2  1  0  0  0  0
  2  8  1  0  0  0  0
  2  3  2  0  0  0  0
  3 14  1  0  0  0  0
  4  3  1  0  0  0  0
  4  9  1  0  0  0  0
  5  4  2  0  0  0  0
  6  1  2  0  0  0  0
  6  5  1  0  0  0  0
  7  1  1  0  0  0  0
 10  5  1  0  0  0  0
 11  6  1  0  0  0  0
 12 11  2  0  0  0  0
 13 11  2  0  0  0  0
 14 15  1  0  0  0  0
 16 17  2  0  0  0  0
 18 16  1  0  0  0  0
 18 15  1  0  0  0  0
 19 22  1  0  0  0  0
 19 16  1  0  0  0  0
 20 19  1  0  0  0  0
 21 19  1  0  0  0  0
M  RAD  2  14   2  15   2
M  END
