Coordinates from ORCA-job p-NO2-Ph-N2-OOCCH3-B3LYPG-aug-cc-pVDZ-scan-d09-49-n400
 OpenBabel01151817083D

 22 21  0  0  0  0  0  0  0  0999 V2000
   14.3338    8.4682   -2.7497 C   0  0  0  0  0  0  0  0  0  0  0  0
   13.4100    7.5391   -2.2773 C   0  0  0  0  0  0  0  0  0  0  0  0
   13.6840    6.1727   -2.3881 C   0  0  0  0  0  0  0  0  0  0  0  0
   14.8764    5.7134   -2.9582 C   0  0  0  0  0  0  0  0  0  0  0  0
   15.8013    6.6414   -3.4327 C   0  0  0  0  0  0  0  0  0  0  0  0
   15.5181    8.0045   -3.3249 C   0  0  0  0  0  0  0  0  0  0  0  0
   14.1501    9.5370   -2.6777 H   0  0  0  0  0  0  0  0  0  0  0  0
   12.4788    7.8609   -1.8144 H   0  0  0  0  0  0  0  0  0  0  0  0
   15.0794    4.6493   -3.0347 H   0  0  0  0  0  0  0  0  0  0  0  0
   16.7380    6.3210   -3.8814 H   0  0  0  0  0  0  0  0  0  0  0  0
   16.4996    8.9814   -3.8263 N   0  0  0  0  0  0  0  0  0  0  0  0
   16.2263   10.1751   -3.7174 O   0  0  0  0  0  0  0  0  0  0  0  0
   17.5364    8.5480   -4.3245 O   0  0  0  0  0  0  0  0  0  0  0  0
   15.8902    6.3286    1.7698 N   0  0  0  0  0  0  0  0  0  0  0  0
   15.8059    5.2600    2.0351 N   0  0  0  0  0  0  0  0  0  0  0  0
   12.3332    4.1748   -2.4642 C   0  0  0  0  0  0  0  0  0  0  0  0
   12.7012    3.8653   -3.5677 O   0  0  0  0  0  0  0  0  0  0  0  0
   12.7538    5.3177   -1.8089 O   0  0  0  0  0  0  0  0  0  0  0  0
   11.3629    3.4209   -1.5979 C   0  0  0  0  0  0  0  0  0  0  0  0
   11.8423    3.1546   -0.6466 H   0  0  0  0  0  0  0  0  0  0  0  0
   10.4996    4.0579   -1.3641 H   0  0  0  0  0  0  0  0  0  0  0  0
   11.0358    2.5197   -2.1230 H   0  0  0  0  0  0  0  0  0  0  0  0
  1  7  1  0  0  0  0
  1  2  2  0  0  0  0
  2  8  1  0  0  0  0
  3  2  1  0  0  0  0
  3 18  1  0  0  0  0
  4  3  2  0  0  0  0
  5  6  2  0  0  0  0
  5  4  1  0  0  0  0
  6  1  1  0  0  0  0
  9  4  1  0  0  0  0
 10  5  1  0  0  0  0
 11 12  2  0  0  0  0
 11  6  1  0  0  0  0
 13 11  2  0  0  0  0
 14 15  3  0  0  0  0
 16 18  1  0  0  0  0
 16 19  1  0  0  0  0
 17 16  2  0  0  0  0
 19 21  1  0  0  0  0
 19 20  1  0  0  0  0
 22 19  1  0  0  0  0
M  END
