Coordinates from ORCA-job p-NO2-Ph-N2-OOCCH3-B3LYPG-aug-cc-pVDZ-scan-d09-49-n400
 OpenBabel01151817083D

 22 21  0  0  0  0  0  0  0  0999 V2000
   14.3838    8.4845   -2.6953 C   0  0  0  0  0  0  0  0  0  0  0  0
   13.4808    7.5542   -2.1868 C   0  0  0  0  0  0  0  0  0  0  0  0
   13.7693    6.1899   -2.2773 C   0  0  0  0  0  0  0  0  0  0  0  0
   14.9516    5.7328   -2.8686 C   0  0  0  0  0  0  0  0  0  0  0  0
   15.8561    6.6616   -3.3791 C   0  0  0  0  0  0  0  0  0  0  0  0
   15.5610    8.0233   -3.2869 C   0  0  0  0  0  0  0  0  0  0  0  0
   14.1897    9.5523   -2.6391 H   0  0  0  0  0  0  0  0  0  0  0  0
   12.5558    7.8744   -1.7108 H   0  0  0  0  0  0  0  0  0  0  0  0
   15.1624    4.6693   -2.9337 H   0  0  0  0  0  0  0  0  0  0  0  0
   16.7853    6.3435   -3.8447 H   0  0  0  0  0  0  0  0  0  0  0  0
   16.5213    9.0017   -3.8252 N   0  0  0  0  0  0  0  0  0  0  0  0
   16.2376   10.1942   -3.7307 O   0  0  0  0  0  0  0  0  0  0  0  0
   17.5522    8.5706   -4.3376 O   0  0  0  0  0  0  0  0  0  0  0  0
   15.1524    6.1020    0.7242 N   0  0  0  0  0  0  0  0  0  0  0  0
   15.1637    5.1337    1.2550 N   0  0  0  0  0  0  0  0  0  0  0  0
   12.4162    4.1949   -2.3169 C   0  0  0  0  0  0  0  0  0  0  0  0
   12.7462    3.8945   -3.4348 O   0  0  0  0  0  0  0  0  0  0  0  0
   12.8620    5.3314   -1.6665 O   0  0  0  0  0  0  0  0  0  0  0  0
   11.4745    3.4348   -1.4249 C   0  0  0  0  0  0  0  0  0  0  0  0
   11.9882    3.1519   -0.4964 H   0  0  0  0  0  0  0  0  0  0  0  0
   10.6248    4.0732   -1.1492 H   0  0  0  0  0  0  0  0  0  0  0  0
   11.1223    2.5428   -1.9494 H   0  0  0  0  0  0  0  0  0  0  0  0
  1  7  1  0  0  0  0
  1  2  2  0  0  0  0
  2  8  1  0  0  0  0
  3  2  1  0  0  0  0
  3 18  1  0  0  0  0
  4  3  2  0  0  0  0
  5  6  2  0  0  0  0
  5  4  1  0  0  0  0
  6  1  1  0  0  0  0
  9  4  1  0  0  0  0
 10  5  1  0  0  0  0
 11 12  2  0  0  0  0
 11  6  1  0  0  0  0
 13 11  2  0  0  0  0
 14 15  3  0  0  0  0
 16 18  1  0  0  0  0
 16 19  1  0  0  0  0
 17 16  2  0  0  0  0
 19 21  1  0  0  0  0
 19 20  1  0  0  0  0
 22 19  1  0  0  0  0
M  END
