Coordinates from ORCA-job p-NO2-Ph-N2-OOCCH3-B3LYPG-aug-cc-pVDZ-scan-d09-49-n400
 OpenBabel01151817083D

 22 21  0  0  0  0  0  0  0  0999 V2000
   14.3627    8.4833   -2.7290 C   0  0  0  0  0  0  0  0  0  0  0  0
   13.4519    7.5535   -2.2328 C   0  0  0  0  0  0  0  0  0  0  0  0
   13.7337    6.1876   -2.3325 C   0  0  0  0  0  0  0  0  0  0  0  0
   14.9203    5.7292   -2.9159 C   0  0  0  0  0  0  0  0  0  0  0  0
   15.8323    6.6580   -3.4141 C   0  0  0  0  0  0  0  0  0  0  0  0
   15.5417    8.0207   -3.3165 C   0  0  0  0  0  0  0  0  0  0  0  0
   14.1732    9.5516   -2.6663 H   0  0  0  0  0  0  0  0  0  0  0  0
   12.5251    7.8746   -1.7591 H   0  0  0  0  0  0  0  0  0  0  0  0
   15.1283    4.6649   -2.9844 H   0  0  0  0  0  0  0  0  0  0  0  0
   16.7642    6.3389   -3.8737 H   0  0  0  0  0  0  0  0  0  0  0  0
   16.5096    8.9985   -3.8425 N   0  0  0  0  0  0  0  0  0  0  0  0
   16.2382   10.1919   -3.7262 O   0  0  0  0  0  0  0  0  0  0  0  0
   17.5501    8.5669   -4.3343 O   0  0  0  0  0  0  0  0  0  0  0  0
   15.4335    6.1610    1.1970 N   0  0  0  0  0  0  0  0  0  0  0  0
   15.4110    5.1409    1.6254 N   0  0  0  0  0  0  0  0  0  0  0  0
   12.3852    4.1875   -2.3755 C   0  0  0  0  0  0  0  0  0  0  0  0
   12.7294    3.8790   -3.4870 O   0  0  0  0  0  0  0  0  0  0  0  0
   12.8190    5.3310   -1.7296 O   0  0  0  0  0  0  0  0  0  0  0  0
   11.4356    3.4314   -1.4884 C   0  0  0  0  0  0  0  0  0  0  0  0
   11.9388    3.1592   -0.5511 H   0  0  0  0  0  0  0  0  0  0  0  0
   10.5799    4.0687   -1.2292 H   0  0  0  0  0  0  0  0  0  0  0  0
   11.0936    2.5331   -2.0091 H   0  0  0  0  0  0  0  0  0  0  0  0
  1  7  1  0  0  0  0
  1  2  2  0  0  0  0
  2  8  1  0  0  0  0
  3  2  1  0  0  0  0
  3 18  1  0  0  0  0
  4  3  2  0  0  0  0
  5  6  2  0  0  0  0
  5  4  1  0  0  0  0
  6  1  1  0  0  0  0
  9  4  1  0  0  0  0
 10  5  1  0  0  0  0
 11 12  2  0  0  0  0
 11  6  1  0  0  0  0
 13 11  2  0  0  0  0
 14 15  3  0  0  0  0
 16 18  1  0  0  0  0
 16 19  1  0  0  0  0
 17 16  2  0  0  0  0
 19 21  1  0  0  0  0
 19 20  1  0  0  0  0
 22 19  1  0  0  0  0
M  END
