Coordinates from ORCA-job p-NO2-Ph-N2-OOCCH3-B3LYPG-aug-cc-pVDZ-scan-d09-49-n400
 OpenBabel01151817083D

 22 21  0  0  0  0  0  0  0  0999 V2000
   14.8437    8.4478   -2.9065 C   0  0  0  0  0  0  0  0  0  0  0  0
   13.9810    7.9643   -1.9113 C   0  0  0  0  0  0  0  0  0  0  0  0
   14.4425    6.8792   -1.2061 C   0  0  0  0  0  0  0  0  0  0  0  0
   15.6421    6.2228   -1.3400 C   0  0  0  0  0  0  0  0  0  0  0  0
   16.4926    6.7190   -2.3394 C   0  0  0  0  0  0  0  0  0  0  0  0
   16.0752    7.8157   -3.0983 C   0  0  0  0  0  0  0  0  0  0  0  0
   14.5702    9.3009   -3.5234 H   0  0  0  0  0  0  0  0  0  0  0  0
   13.0138    8.4249   -1.7235 H   0  0  0  0  0  0  0  0  0  0  0  0
   15.9244    5.3732   -0.7225 H   0  0  0  0  0  0  0  0  0  0  0  0
   17.4638    6.2671   -2.5283 H   0  0  0  0  0  0  0  0  0  0  0  0
   16.9778    8.3319   -4.1494 N   0  0  0  0  0  0  0  0  0  0  0  0
   16.5945    9.2960   -4.8056 O   0  0  0  0  0  0  0  0  0  0  0  0
   18.0553    7.7641   -4.3033 O   0  0  0  0  0  0  0  0  0  0  0  0
   13.1686    6.2320    0.5233 N   0  0  0  0  0  0  0  0  0  0  0  0
   12.3816    5.4013    0.2875 N   0  0  0  0  0  0  0  0  0  0  0  0
   11.4779    3.9399   -1.5107 C   0  0  0  0  0  0  0  0  0  0  0  0
   10.7124    3.4663   -0.7087 O   0  0  0  0  0  0  0  0  0  0  0  0
   12.3980    4.9128   -1.2411 O   0  0  0  0  0  0  0  0  0  0  0  0
   11.5675    3.5555   -2.9746 C   0  0  0  0  0  0  0  0  0  0  0  0
   11.3561    4.4278   -3.6070 H   0  0  0  0  0  0  0  0  0  0  0  0
   12.5799    3.2050   -3.2141 H   0  0  0  0  0  0  0  0  0  0  0  0
   10.8383    2.7640   -3.1718 H   0  0  0  0  0  0  0  0  0  0  0  0
  1  2  1  0  0  0  0
  2  8  1  0  0  0  0
  2  3  2  0  0  0  0
  4  3  1  0  0  0  0
  4  9  1  0  0  0  0
  5  4  2  0  0  0  0
  6  1  2  0  0  0  0
  6  5  1  0  0  0  0
  7  1  1  0  0  0  0
 10  5  1  0  0  0  0
 11  6  1  0  0  0  0
 12 11  2  0  0  0  0
 13 11  2  0  0  0  0
 15 14  1  0  0  0  0
 16 18  1  0  0  0  0
 16 17  2  0  0  0  0
 18 15  1  0  0  0  0
 19 16  1  0  0  0  0
 20 19  1  0  0  0  0
 21 19  1  0  0  0  0
 22 19  1  0  0  0  0
M  RAD  3   3   2  14   3  15   2
M  END
