Coordinates from ORCA-job p-NO2-Ph-N2-OOCCH3-B3LYPG-aug-cc-pVDZ-scan-d09-49-n400
 OpenBabel01151817083D

 22 21  0  0  0  0  0  0  0  0999 V2000
   14.8351    8.4405   -2.8986 C   0  0  0  0  0  0  0  0  0  0  0  0
   13.9741    7.9542   -1.9052 C   0  0  0  0  0  0  0  0  0  0  0  0
   14.4234    6.8642   -1.1929 C   0  0  0  0  0  0  0  0  0  0  0  0
   15.6314    6.2180   -1.3348 C   0  0  0  0  0  0  0  0  0  0  0  0
   16.4837    6.7135   -2.3312 C   0  0  0  0  0  0  0  0  0  0  0  0
   16.0672    7.8099   -3.0909 C   0  0  0  0  0  0  0  0  0  0  0  0
   14.5626    9.2945   -3.5144 H   0  0  0  0  0  0  0  0  0  0  0  0
   13.0079    8.4174   -1.7180 H   0  0  0  0  0  0  0  0  0  0  0  0
   15.9171    5.3697   -0.7168 H   0  0  0  0  0  0  0  0  0  0  0  0
   17.4559    6.2635   -2.5186 H   0  0  0  0  0  0  0  0  0  0  0  0
   16.9702    8.3271   -4.1405 N   0  0  0  0  0  0  0  0  0  0  0  0
   16.5899    9.2953   -4.7929 O   0  0  0  0  0  0  0  0  0  0  0  0
   18.0512    7.7643   -4.2901 O   0  0  0  0  0  0  0  0  0  0  0  0
   13.2084    6.2441    0.4471 N   0  0  0  0  0  0  0  0  0  0  0  0
   12.4133    5.4040    0.2035 N   0  0  0  0  0  0  0  0  0  0  0  0
   11.4826    3.9493   -1.5077 C   0  0  0  0  0  0  0  0  0  0  0  0
   10.7305    3.4886   -0.6907 O   0  0  0  0  0  0  0  0  0  0  0  0
   12.4185    4.9305   -1.2508 O   0  0  0  0  0  0  0  0  0  0  0  0
   11.5662    3.5587   -2.9655 C   0  0  0  0  0  0  0  0  0  0  0  0
   11.3464    4.4273   -3.6003 H   0  0  0  0  0  0  0  0  0  0  0  0
   12.5800    3.2148   -3.2090 H   0  0  0  0  0  0  0  0  0  0  0  0
   10.8413    2.7620   -3.1564 H   0  0  0  0  0  0  0  0  0  0  0  0
  1  2  1  0  0  0  0
  2  8  1  0  0  0  0
  2  3  2  0  0  0  0
  4  3  1  0  0  0  0
  4  9  1  0  0  0  0
  5  4  2  0  0  0  0
  6  1  2  0  0  0  0
  6  5  1  0  0  0  0
  7  1  1  0  0  0  0
 10  5  1  0  0  0  0
 11  6  1  0  0  0  0
 12 11  2  0  0  0  0
 13 11  2  0  0  0  0
 15 14  1  0  0  0  0
 16 18  1  0  0  0  0
 16 17  2  0  0  0  0
 18 15  1  0  0  0  0
 19 16  1  0  0  0  0
 20 19  1  0  0  0  0
 21 19  1  0  0  0  0
 22 19  1  0  0  0  0
M  RAD  3   3   2  14   3  15   2
M  END
