Coordinates from ORCA-job p-NO2-Ph-N2-OOCCH3-B3LYPG-aug-cc-pVDZ-scan-d09-49-n400
 OpenBabel01151817083D

 22 21  0  0  0  0  0  0  0  0999 V2000
   14.3729    8.4849   -2.7154 C   0  0  0  0  0  0  0  0  0  0  0  0
   13.4659    7.5550   -2.2132 C   0  0  0  0  0  0  0  0  0  0  0  0
   13.7503    6.1900   -2.3098 C   0  0  0  0  0  0  0  0  0  0  0  0
   14.9347    5.7322   -2.8968 C   0  0  0  0  0  0  0  0  0  0  0  0
   15.8429    6.6610   -3.4009 C   0  0  0  0  0  0  0  0  0  0  0  0
   15.5505    8.0231   -3.3056 C   0  0  0  0  0  0  0  0  0  0  0  0
   14.1815    9.5530   -2.6551 H   0  0  0  0  0  0  0  0  0  0  0  0
   12.5404    7.8754   -1.7382 H   0  0  0  0  0  0  0  0  0  0  0  0
   15.1438    4.6686   -2.9640 H   0  0  0  0  0  0  0  0  0  0  0  0
   16.7733    6.3422   -3.8637 H   0  0  0  0  0  0  0  0  0  0  0  0
   16.5147    9.0010   -3.8376 N   0  0  0  0  0  0  0  0  0  0  0  0
   16.2348   10.1939   -3.7372 O   0  0  0  0  0  0  0  0  0  0  0  0
   17.5473    8.5694   -4.3460 O   0  0  0  0  0  0  0  0  0  0  0  0
   15.3052    6.1241    1.0105 N   0  0  0  0  0  0  0  0  0  0  0  0
   15.2920    5.1240    1.4787 N   0  0  0  0  0  0  0  0  0  0  0  0
   12.4007    4.1919   -2.3500 C   0  0  0  0  0  0  0  0  0  0  0  0
   12.7390    3.8863   -3.4641 O   0  0  0  0  0  0  0  0  0  0  0  0
   12.8393    5.3327   -1.7027 O   0  0  0  0  0  0  0  0  0  0  0  0
   11.4548    3.4343   -1.4604 C   0  0  0  0  0  0  0  0  0  0  0  0
   11.9633    3.1566   -0.5275 H   0  0  0  0  0  0  0  0  0  0  0  0
   10.6024    4.0726   -1.1928 H   0  0  0  0  0  0  0  0  0  0  0  0
   11.1074    2.5392   -1.9829 H   0  0  0  0  0  0  0  0  0  0  0  0
  1  7  1  0  0  0  0
  1  2  2  0  0  0  0
  2  8  1  0  0  0  0
  3  2  1  0  0  0  0
  3 18  1  0  0  0  0
  4  3  2  0  0  0  0
  5  6  2  0  0  0  0
  5  4  1  0  0  0  0
  6  1  1  0  0  0  0
  9  4  1  0  0  0  0
 10  5  1  0  0  0  0
 11 12  2  0  0  0  0
 11  6  1  0  0  0  0
 13 11  2  0  0  0  0
 14 15  3  0  0  0  0
 16 18  1  0  0  0  0
 16 19  1  0  0  0  0
 17 16  2  0  0  0  0
 19 21  1  0  0  0  0
 19 20  1  0  0  0  0
 22 19  1  0  0  0  0
M  END
