Coordinates from ORCA-job p-NO2-Ph-N2-OOCCH3-B3LYPG-aug-cc-pVDZ-scan-d09-49-n400
 OpenBabel01151817083D

 22 22  0  0  0  0  0  0  0  0999 V2000
   15.0371    8.7533   -2.6498 C   0  0  0  0  0  0  0  0  0  0  0  0
   14.0843    8.3308   -1.7264 C   0  0  0  0  0  0  0  0  0  0  0  0
   14.1238    7.0186   -1.2295 C   0  0  0  0  0  0  0  0  0  0  0  0
   15.1544    6.1420   -1.6106 C   0  0  0  0  0  0  0  0  0  0  0  0
   16.1269    6.5722   -2.5077 C   0  0  0  0  0  0  0  0  0  0  0  0
   16.0474    7.8671   -3.0254 C   0  0  0  0  0  0  0  0  0  0  0  0
   15.0169    9.7574   -3.0652 H   0  0  0  0  0  0  0  0  0  0  0  0
   13.3018    9.0073   -1.3868 H   0  0  0  0  0  0  0  0  0  0  0  0
   15.1945    5.1371   -1.1970 H   0  0  0  0  0  0  0  0  0  0  0  0
   16.9385    5.9184   -2.8164 H   0  0  0  0  0  0  0  0  0  0  0  0
   17.0702    8.3151   -3.9894 N   0  0  0  0  0  0  0  0  0  0  0  0
   16.9773    9.4583   -4.4294 O   0  0  0  0  0  0  0  0  0  0  0  0
   17.9525    7.5173   -4.2967 O   0  0  0  0  0  0  0  0  0  0  0  0
   13.1959    6.6838   -0.2485 N   0  0  0  0  0  0  0  0  0  0  0  0
   12.4346    5.7360   -0.2326 N   0  0  0  0  0  0  0  0  0  0  0  0
   11.7175    3.8031   -1.4531 C   0  0  0  0  0  0  0  0  0  0  0  0
   11.2154    3.3689   -0.4520 O   0  0  0  0  0  0  0  0  0  0  0  0
   12.4955    4.9491   -1.5038 O   0  0  0  0  0  0  0  0  0  0  0  0
   11.6330    3.1992   -2.8327 C   0  0  0  0  0  0  0  0  0  0  0  0
   11.1105    3.8898   -3.5085 H   0  0  0  0  0  0  0  0  0  0  0  0
   12.6390    3.0349   -3.2407 H   0  0  0  0  0  0  0  0  0  0  0  0
   11.0901    2.2516   -2.7725 H   0  0  0  0  0  0  0  0  0  0  0  0
  1  2  1  0  0  0  0
  2  8  1  0  0  0  0
  2  3  2  0  0  0  0
  3 14  1  0  0  0  0
  4  3  1  0  0  0  0
  4  9  1  0  0  0  0
  5  4  2  0  0  0  0
  6  1  2  0  0  0  0
  6  5  1  0  0  0  0
  7  1  1  0  0  0  0
 10  5  1  0  0  0  0
 11  6  1  0  0  0  0
 12 11  2  0  0  0  0
 13 11  2  0  0  0  0
 14 15  1  0  0  0  0
 16 17  2  0  0  0  0
 18 16  1  0  0  0  0
 18 15  1  0  0  0  0
 19 22  1  0  0  0  0
 19 16  1  0  0  0  0
 20 19  1  0  0  0  0
 21 19  1  0  0  0  0
M  RAD  2  14   2  15   2
M  END
