Coordinates from ORCA-job p-NO2-Ph-N2-OOCCH3-B3LYPG-aug-cc-pVDZ-scan-d09-49-n400
 OpenBabel01151817083D

 22 21  0  0  0  0  0  0  0  0999 V2000
   14.3872    8.4837   -2.6882 C   0  0  0  0  0  0  0  0  0  0  0  0
   13.4864    7.5530   -2.1766 C   0  0  0  0  0  0  0  0  0  0  0  0
   13.7769    6.1891   -2.2644 C   0  0  0  0  0  0  0  0  0  0  0  0
   14.9582    5.7324   -2.8578 C   0  0  0  0  0  0  0  0  0  0  0  0
   15.8607    6.6615   -3.3713 C   0  0  0  0  0  0  0  0  0  0  0  0
   15.5642    8.0230   -3.2806 C   0  0  0  0  0  0  0  0  0  0  0  0
   14.1916    9.5514   -2.6341 H   0  0  0  0  0  0  0  0  0  0  0  0
   12.5617    7.8728   -1.6998 H   0  0  0  0  0  0  0  0  0  0  0  0
   15.1700    4.6691   -2.9218 H   0  0  0  0  0  0  0  0  0  0  0  0
   16.7894    6.3439   -3.8381 H   0  0  0  0  0  0  0  0  0  0  0  0
   16.5225    9.0017   -3.8221 N   0  0  0  0  0  0  0  0  0  0  0  0
   16.2372   10.1939   -3.7294 O   0  0  0  0  0  0  0  0  0  0  0  0
   17.5532    8.5711   -4.3350 O   0  0  0  0  0  0  0  0  0  0  0  0
   15.1040    6.0980    0.6303 N   0  0  0  0  0  0  0  0  0  0  0  0
   15.1213    5.1382    1.1761 N   0  0  0  0  0  0  0  0  0  0  0  0
   12.4213    4.1962   -2.3059 C   0  0  0  0  0  0  0  0  0  0  0  0
   12.7482    3.8989   -3.4255 O   0  0  0  0  0  0  0  0  0  0  0  0
   12.8710    5.3298   -1.6529 O   0  0  0  0  0  0  0  0  0  0  0  0
   11.4801    3.4352   -1.4142 C   0  0  0  0  0  0  0  0  0  0  0  0
   11.9943    3.1505   -0.4867 H   0  0  0  0  0  0  0  0  0  0  0  0
   10.6310    4.0738   -1.1369 H   0  0  0  0  0  0  0  0  0  0  0  0
   11.1267    2.5444   -1.9399 H   0  0  0  0  0  0  0  0  0  0  0  0
  1  7  1  0  0  0  0
  1  2  2  0  0  0  0
  2  8  1  0  0  0  0
  3  2  1  0  0  0  0
  3 18  1  0  0  0  0
  4  3  2  0  0  0  0
  5  6  2  0  0  0  0
  5  4  1  0  0  0  0
  6  1  1  0  0  0  0
  9  4  1  0  0  0  0
 10  5  1  0  0  0  0
 11 12  2  0  0  0  0
 11  6  1  0  0  0  0
 13 11  2  0  0  0  0
 14 15  3  0  0  0  0
 16 18  1  0  0  0  0
 16 19  1  0  0  0  0
 17 16  2  0  0  0  0
 19 21  1  0  0  0  0
 19 20  1  0  0  0  0
 22 19  1  0  0  0  0
M  END
