Coordinates from ORCA-job p-NO2-Ph-N2-OOCCH3-B3LYPG-aug-cc-pVDZ-scan-d09-49-n400
 OpenBabel01151817083D

 22 22  0  0  0  0  0  0  0  0999 V2000
   14.9570    8.5608   -2.8353 C   0  0  0  0  0  0  0  0  0  0  0  0
   14.0293    7.9619   -2.0076 C   0  0  0  0  0  0  0  0  0  0  0  0
   14.3409    6.7483   -1.2733 C   0  0  0  0  0  0  0  0  0  0  0  0
   15.6833    6.2266   -1.4601 C   0  0  0  0  0  0  0  0  0  0  0  0
   16.5881    6.8496   -2.2952 C   0  0  0  0  0  0  0  0  0  0  0  0
   16.2345    8.0128   -2.9858 C   0  0  0  0  0  0  0  0  0  0  0  0
   14.6966    9.4670   -3.3781 H   0  0  0  0  0  0  0  0  0  0  0  0
   13.0360    8.3858   -1.8736 H   0  0  0  0  0  0  0  0  0  0  0  0
   15.9511    5.3275   -0.9085 H   0  0  0  0  0  0  0  0  0  0  0  0
   17.5863    6.4355   -2.4213 H   0  0  0  0  0  0  0  0  0  0  0  0
   17.2002    8.6571   -3.8611 N   0  0  0  0  0  0  0  0  0  0  0  0
   16.8508    9.6814   -4.4522 O   0  0  0  0  0  0  0  0  0  0  0  0
   18.3165    8.1439   -3.9667 O   0  0  0  0  0  0  0  0  0  0  0  0
   13.6306    6.2820   -0.6057 N   0  0  0  0  0  0  0  0  0  0  0  0
   12.7410    5.5164   -0.3419 N   0  0  0  0  0  0  0  0  0  0  0  0
   11.3706    3.8550   -1.4509 C   0  0  0  0  0  0  0  0  0  0  0  0
   10.8190    3.6560   -0.4023 O   0  0  0  0  0  0  0  0  0  0  0  0
   12.3900    4.7720   -1.6349 O   0  0  0  0  0  0  0  0  0  0  0  0
   11.0831    3.1663   -2.7626 C   0  0  0  0  0  0  0  0  0  0  0  0
   10.7867    3.9052   -3.5190 H   0  0  0  0  0  0  0  0  0  0  0  0
   11.9862    2.6601   -3.1288 H   0  0  0  0  0  0  0  0  0  0  0  0
   10.2794    2.4402   -2.6099 H   0  0  0  0  0  0  0  0  0  0  0  0
  1  2  1  0  0  0  0
  2  8  1  0  0  0  0
  2  3  2  0  0  0  0
  3 14  1  0  0  0  0
  4  3  1  0  0  0  0
  4  9  1  0  0  0  0
  5  4  2  0  0  0  0
  6  1  2  0  0  0  0
  6  5  1  0  0  0  0
  7  1  1  0  0  0  0
 10  5  1  0  0  0  0
 11  6  1  0  0  0  0
 12 11  2  0  0  0  0
 13 11  2  0  0  0  0
 14 15  1  0  0  0  0
 16 17  2  0  0  0  0
 18 16  1  0  0  0  0
 18 15  1  0  0  0  0
 19 22  1  0  0  0  0
 19 16  1  0  0  0  0
 20 19  1  0  0  0  0
 21 19  1  0  0  0  0
M  RAD  2  14   2  15   2
M  END
