Coordinates from ORCA-job p-NO2-Ph-N2-OOCCH3-B3LYPG-aug-cc-pVDZ-scan-d09-49-n400
 OpenBabel01151817083D

 22 21  0  0  0  0  0  0  0  0999 V2000
   14.3770    8.4851   -2.7085 C   0  0  0  0  0  0  0  0  0  0  0  0
   13.4711    7.5550   -2.2044 C   0  0  0  0  0  0  0  0  0  0  0  0
   13.7567    6.1903   -2.2994 C   0  0  0  0  0  0  0  0  0  0  0  0
   14.9406    5.7327   -2.8875 C   0  0  0  0  0  0  0  0  0  0  0  0
   15.8475    6.6615   -3.3936 C   0  0  0  0  0  0  0  0  0  0  0  0
   15.5544    8.0235   -3.2993 C   0  0  0  0  0  0  0  0  0  0  0  0
   14.1848    9.5531   -2.6494 H   0  0  0  0  0  0  0  0  0  0  0  0
   12.5459    7.8753   -1.7288 H   0  0  0  0  0  0  0  0  0  0  0  0
   15.1501    4.6691   -2.9540 H   0  0  0  0  0  0  0  0  0  0  0  0
   16.7776    6.3429   -3.8573 H   0  0  0  0  0  0  0  0  0  0  0  0
   16.5174    9.0015   -3.8332 N   0  0  0  0  0  0  0  0  0  0  0  0
   16.2364   10.1943   -3.7345 O   0  0  0  0  0  0  0  0  0  0  0  0
   17.5495    8.5701   -4.3428 O   0  0  0  0  0  0  0  0  0  0  0  0
   15.2476    6.1137    0.9067 N   0  0  0  0  0  0  0  0  0  0  0  0
   15.2446    5.1260    1.4005 N   0  0  0  0  0  0  0  0  0  0  0  0
   12.4065    4.1928   -2.3379 C   0  0  0  0  0  0  0  0  0  0  0  0
   12.7418    3.8886   -3.4532 O   0  0  0  0  0  0  0  0  0  0  0  0
   12.8474    5.3327   -1.6902 O   0  0  0  0  0  0  0  0  0  0  0  0
   11.4625    3.4346   -1.4467 C   0  0  0  0  0  0  0  0  0  0  0  0
   11.9735    3.1551   -0.5157 H   0  0  0  0  0  0  0  0  0  0  0  0
   10.6113    4.0730   -1.1759 H   0  0  0  0  0  0  0  0  0  0  0  0
   11.1131    2.5405   -1.9696 H   0  0  0  0  0  0  0  0  0  0  0  0
  1  7  1  0  0  0  0
  1  2  2  0  0  0  0
  2  8  1  0  0  0  0
  3  2  1  0  0  0  0
  3 18  1  0  0  0  0
  4  3  2  0  0  0  0
  5  6  2  0  0  0  0
  5  4  1  0  0  0  0
  6  1  1  0  0  0  0
  9  4  1  0  0  0  0
 10  5  1  0  0  0  0
 11 12  2  0  0  0  0
 11  6  1  0  0  0  0
 13 11  2  0  0  0  0
 14 15  3  0  0  0  0
 16 18  1  0  0  0  0
 16 19  1  0  0  0  0
 17 16  2  0  0  0  0
 19 21  1  0  0  0  0
 19 20  1  0  0  0  0
 22 19  1  0  0  0  0
M  END
