Coordinates from ORCA-job p-NO2-Ph-N2-OOCCH3-B3LYPG-aug-cc-pVDZ-scan-d09-49-n400
 OpenBabel01151817083D

 22 22  0  0  0  0  0  0  0  0999 V2000
   15.0274    8.7426   -2.6604 C   0  0  0  0  0  0  0  0  0  0  0  0
   14.0768    8.3201   -1.7343 C   0  0  0  0  0  0  0  0  0  0  0  0
   14.1314    7.0146   -1.2256 C   0  0  0  0  0  0  0  0  0  0  0  0
   15.1688    6.1431   -1.5943 C   0  0  0  0  0  0  0  0  0  0  0  0
   16.1374    6.5729   -2.4963 C   0  0  0  0  0  0  0  0  0  0  0  0
   16.0461    7.8620   -3.0264 C   0  0  0  0  0  0  0  0  0  0  0  0
   14.9982    9.7423   -3.0861 H   0  0  0  0  0  0  0  0  0  0  0  0
   13.2871    8.9921   -1.4025 H   0  0  0  0  0  0  0  0  0  0  0  0
   15.2169    5.1428   -1.1705 H   0  0  0  0  0  0  0  0  0  0  0  0
   16.9550    5.9235   -2.7985 H   0  0  0  0  0  0  0  0  0  0  0  0
   17.0654    8.3100   -3.9944 N   0  0  0  0  0  0  0  0  0  0  0  0
   16.9627    9.4481   -4.4450 O   0  0  0  0  0  0  0  0  0  0  0  0
   17.9552    7.5174   -4.2933 O   0  0  0  0  0  0  0  0  0  0  0  0
   13.1960    6.6756   -0.2248 N   0  0  0  0  0  0  0  0  0  0  0  0
   12.4352    5.7279   -0.2198 N   0  0  0  0  0  0  0  0  0  0  0  0
   11.7254    3.8018   -1.4543 C   0  0  0  0  0  0  0  0  0  0  0  0
   11.2204    3.3612   -0.4576 O   0  0  0  0  0  0  0  0  0  0  0  0
   12.4979    4.9522   -1.4964 O   0  0  0  0  0  0  0  0  0  0  0  0
   11.6304    3.2169   -2.8413 C   0  0  0  0  0  0  0  0  0  0  0  0
   11.1009    3.9159   -3.5029 H   0  0  0  0  0  0  0  0  0  0  0  0
   12.6332    3.0603   -3.2601 H   0  0  0  0  0  0  0  0  0  0  0  0
   11.0893    2.2678   -2.7899 H   0  0  0  0  0  0  0  0  0  0  0  0
  1  2  1  0  0  0  0
  2  8  1  0  0  0  0
  2  3  2  0  0  0  0
  3 14  1  0  0  0  0
  4  3  1  0  0  0  0
  4  9  1  0  0  0  0
  5  4  2  0  0  0  0
  6  1  2  0  0  0  0
  6  5  1  0  0  0  0
  7  1  1  0  0  0  0
 10  5  1  0  0  0  0
 11  6  1  0  0  0  0
 12 11  2  0  0  0  0
 13 11  2  0  0  0  0
 14 15  1  0  0  0  0
 16 17  2  0  0  0  0
 18 16  1  0  0  0  0
 18 15  1  0  0  0  0
 19 22  1  0  0  0  0
 19 16  1  0  0  0  0
 20 19  1  0  0  0  0
 21 19  1  0  0  0  0
M  RAD  2  14   2  15   2
M  END
