Coordinates from ORCA-job p-NO2-Ph-N2-OOCCH3-B3LYPG-aug-cc-pVDZ-scan-d09-49-n400
 OpenBabel01151817083D

 22 21  0  0  0  0  0  0  0  0999 V2000
   14.3359    8.4694   -2.7484 C   0  0  0  0  0  0  0  0  0  0  0  0
   13.4130    7.5403   -2.2744 C   0  0  0  0  0  0  0  0  0  0  0  0
   13.6871    6.1738   -2.3853 C   0  0  0  0  0  0  0  0  0  0  0  0
   14.8792    5.7146   -2.9564 C   0  0  0  0  0  0  0  0  0  0  0  0
   15.8032    6.6427   -3.4323 C   0  0  0  0  0  0  0  0  0  0  0  0
   15.5197    8.0058   -3.3248 C   0  0  0  0  0  0  0  0  0  0  0  0
   14.1520    9.5382   -2.6767 H   0  0  0  0  0  0  0  0  0  0  0  0
   12.4823    7.8619   -1.8102 H   0  0  0  0  0  0  0  0  0  0  0  0
   15.0823    4.6504   -3.0326 H   0  0  0  0  0  0  0  0  0  0  0  0
   16.7395    6.3224   -3.8820 H   0  0  0  0  0  0  0  0  0  0  0  0
   16.5003    8.9828   -3.8279 N   0  0  0  0  0  0  0  0  0  0  0  0
   16.2273   10.1764   -3.7181 O   0  0  0  0  0  0  0  0  0  0  0  0
   17.5372    8.5495   -4.3259 O   0  0  0  0  0  0  0  0  0  0  0  0
   15.8591    6.3170    1.7344 N   0  0  0  0  0  0  0  0  0  0  0  0
   15.7791    5.2508    2.0115 N   0  0  0  0  0  0  0  0  0  0  0  0
   12.3366    4.1755   -2.4585 C   0  0  0  0  0  0  0  0  0  0  0  0
   12.7030    3.8657   -3.5625 O   0  0  0  0  0  0  0  0  0  0  0  0
   12.7582    5.3186   -1.8042 O   0  0  0  0  0  0  0  0  0  0  0  0
   11.3680    3.4216   -1.5905 C   0  0  0  0  0  0  0  0  0  0  0  0
   11.8490    3.1556   -0.6398 H   0  0  0  0  0  0  0  0  0  0  0  0
   10.5049    4.0584   -1.3553 H   0  0  0  0  0  0  0  0  0  0  0  0
   11.0401    2.5201   -2.1147 H   0  0  0  0  0  0  0  0  0  0  0  0
  1  7  1  0  0  0  0
  1  2  2  0  0  0  0
  2  8  1  0  0  0  0
  3  2  1  0  0  0  0
  3 18  1  0  0  0  0
  4  3  2  0  0  0  0
  5  6  2  0  0  0  0
  5  4  1  0  0  0  0
  6  1  1  0  0  0  0
  9  4  1  0  0  0  0
 10  5  1  0  0  0  0
 11 12  2  0  0  0  0
 11  6  1  0  0  0  0
 13 11  2  0  0  0  0
 14 15  3  0  0  0  0
 16 18  1  0  0  0  0
 16 19  1  0  0  0  0
 17 16  2  0  0  0  0
 19 21  1  0  0  0  0
 19 20  1  0  0  0  0
 22 19  1  0  0  0  0
M  END
