Coordinates from ORCA-job p-NO2-Ph-N2-OOCCH3-B3LYPG-aug-cc-pVDZ-scan-d09-49-n400
 OpenBabel01151817083D

 22 21  0  0  0  0  0  0  0  0999 V2000
   14.3912    8.4777   -2.6691 C   0  0  0  0  0  0  0  0  0  0  0  0
   13.4942    7.5463   -2.1529 C   0  0  0  0  0  0  0  0  0  0  0  0
   13.7921    6.1835   -2.2292 C   0  0  0  0  0  0  0  0  0  0  0  0
   14.9711    5.7281   -2.8274 C   0  0  0  0  0  0  0  0  0  0  0  0
   15.8700    6.6573   -3.3464 C   0  0  0  0  0  0  0  0  0  0  0  0
   15.5700    8.0183   -3.2594 C   0  0  0  0  0  0  0  0  0  0  0  0
   14.1913    9.5448   -2.6215 H   0  0  0  0  0  0  0  0  0  0  0  0
   12.5682    7.8653   -1.6781 H   0  0  0  0  0  0  0  0  0  0  0  0
   15.1854    4.6649   -2.8883 H   0  0  0  0  0  0  0  0  0  0  0  0
   16.7980    6.3407   -3.8154 H   0  0  0  0  0  0  0  0  0  0  0  0
   16.5243    8.9978   -3.8064 N   0  0  0  0  0  0  0  0  0  0  0  0
   16.2354   10.1895   -3.7183 O   0  0  0  0  0  0  0  0  0  0  0  0
   17.5557    8.5683   -4.3191 O   0  0  0  0  0  0  0  0  0  0  0  0
   15.0214    6.1156    0.4020 N   0  0  0  0  0  0  0  0  0  0  0  0
   15.0866    5.1844    0.9920 N   0  0  0  0  0  0  0  0  0  0  0  0
   12.4280    4.1974   -2.2849 C   0  0  0  0  0  0  0  0  0  0  0  0
   12.7517    3.9084   -3.4074 O   0  0  0  0  0  0  0  0  0  0  0  0
   12.8858    5.3222   -1.6216 O   0  0  0  0  0  0  0  0  0  0  0  0
   11.4823    3.4347   -1.3994 C   0  0  0  0  0  0  0  0  0  0  0  0
   11.9927    3.1443   -0.4715 H   0  0  0  0  0  0  0  0  0  0  0  0
   10.6341    4.0744   -1.1220 H   0  0  0  0  0  0  0  0  0  0  0  0
   11.1279    2.5475   -1.9305 H   0  0  0  0  0  0  0  0  0  0  0  0
  1  7  1  0  0  0  0
  1  2  2  0  0  0  0
  2  8  1  0  0  0  0
  3  2  1  0  0  0  0
  3 18  1  0  0  0  0
  4  3  2  0  0  0  0
  5  6  2  0  0  0  0
  5  4  1  0  0  0  0
  6  1  1  0  0  0  0
  9  4  1  0  0  0  0
 10  5  1  0  0  0  0
 11 12  2  0  0  0  0
 11  6  1  0  0  0  0
 13 11  2  0  0  0  0
 14 15  3  0  0  0  0
 16 18  1  0  0  0  0
 16 19  1  0  0  0  0
 17 16  2  0  0  0  0
 19 21  1  0  0  0  0
 19 20  1  0  0  0  0
 22 19  1  0  0  0  0
M  END
