Coordinates from ORCA-job p-NO2-Ph-N2-OOCCH3-B3LYPG-aug-cc-pVDZ-scan-d09-49-n400
 OpenBabel01151817083D

 22 21  0  0  0  0  0  0  0  0999 V2000
   14.3910    8.4705   -2.6580 C   0  0  0  0  0  0  0  0  0  0  0  0
   13.4992    7.5382   -2.1350 C   0  0  0  0  0  0  0  0  0  0  0  0
   13.8091    6.1776   -2.1926 C   0  0  0  0  0  0  0  0  0  0  0  0
   14.9852    5.7236   -2.7966 C   0  0  0  0  0  0  0  0  0  0  0  0
   15.8792    6.6531   -3.3230 C   0  0  0  0  0  0  0  0  0  0  0  0
   15.5733    8.0134   -3.2432 C   0  0  0  0  0  0  0  0  0  0  0  0
   14.1840    9.5368   -2.6211 H   0  0  0  0  0  0  0  0  0  0  0  0
   12.5704    7.8560   -1.6652 H   0  0  0  0  0  0  0  0  0  0  0  0
   15.2038    4.6608   -2.8510 H   0  0  0  0  0  0  0  0  0  0  0  0
   16.8070    6.3379   -3.7932 H   0  0  0  0  0  0  0  0  0  0  0  0
   16.5224    8.9939   -3.7972 N   0  0  0  0  0  0  0  0  0  0  0  0
   16.2269   10.1847   -3.7181 O   0  0  0  0  0  0  0  0  0  0  0  0
   17.5555    8.5662   -4.3079 O   0  0  0  0  0  0  0  0  0  0  0  0
   14.9677    6.1299    0.2396 N   0  0  0  0  0  0  0  0  0  0  0  0
   15.0759    5.2192    0.8557 N   0  0  0  0  0  0  0  0  0  0  0  0
   12.4301    4.2038   -2.2708 C   0  0  0  0  0  0  0  0  0  0  0  0
   12.7452    3.9313   -3.3998 O   0  0  0  0  0  0  0  0  0  0  0  0
   12.9030    5.3124   -1.5902 O   0  0  0  0  0  0  0  0  0  0  0  0
   11.4810    3.4358   -1.3937 C   0  0  0  0  0  0  0  0  0  0  0  0
   11.9896    3.1329   -0.4689 H   0  0  0  0  0  0  0  0  0  0  0  0
   10.6359    4.0767   -1.1096 H   0  0  0  0  0  0  0  0  0  0  0  0
   11.1218    2.5565   -1.9348 H   0  0  0  0  0  0  0  0  0  0  0  0
  1  7  1  0  0  0  0
  1  2  2  0  0  0  0
  2  8  1  0  0  0  0
  3  2  1  0  0  0  0
  3 18  1  0  0  0  0
  4  3  2  0  0  0  0
  5  6  2  0  0  0  0
  5  4  1  0  0  0  0
  6  1  1  0  0  0  0
  9  4  1  0  0  0  0
 10  5  1  0  0  0  0
 11 12  2  0  0  0  0
 11  6  1  0  0  0  0
 13 11  2  0  0  0  0
 14 15  3  0  0  0  0
 16 18  1  0  0  0  0
 16 19  1  0  0  0  0
 17 16  2  0  0  0  0
 19 21  1  0  0  0  0
 19 20  1  0  0  0  0
 22 19  1  0  0  0  0
M  END
