Coordinates from ORCA-job p-NO2-Ph-N2-OOCCH3-B3LYPG-aug-cc-pVDZ-scan-d09-49-n400
 OpenBabel01151817083D

 22 21  0  0  0  0  0  0  0  0999 V2000
   14.3535    8.4781   -2.7350 C   0  0  0  0  0  0  0  0  0  0  0  0
   13.4377    7.5486   -2.2480 C   0  0  0  0  0  0  0  0  0  0  0  0
   13.7158    6.1827   -2.3538 C   0  0  0  0  0  0  0  0  0  0  0  0
   14.9041    5.7240   -2.9327 C   0  0  0  0  0  0  0  0  0  0  0  0
   15.8209    6.6525   -3.4216 C   0  0  0  0  0  0  0  0  0  0  0  0
   15.5339    8.0151   -3.3189 C   0  0  0  0  0  0  0  0  0  0  0  0
   14.1666    9.5466   -2.6678 H   0  0  0  0  0  0  0  0  0  0  0  0
   12.5101    7.8695   -1.7774 H   0  0  0  0  0  0  0  0  0  0  0  0
   15.1097    4.6600   -3.0050 H   0  0  0  0  0  0  0  0  0  0  0  0
   16.7542    6.3329   -3.8780 H   0  0  0  0  0  0  0  0  0  0  0  0
   16.5070    8.9926   -3.8356 N   0  0  0  0  0  0  0  0  0  0  0  0
   16.2309   10.1859   -3.7301 O   0  0  0  0  0  0  0  0  0  0  0  0
   17.5412    8.5599   -4.3398 O   0  0  0  0  0  0  0  0  0  0  0  0
   15.5953    6.2176    1.4113 N   0  0  0  0  0  0  0  0  0  0  0  0
   15.5549    5.1806    1.7892 N   0  0  0  0  0  0  0  0  0  0  0  0
   12.3673    4.1831   -2.4086 C   0  0  0  0  0  0  0  0  0  0  0  0
   12.7211    3.8734   -3.5167 O   0  0  0  0  0  0  0  0  0  0  0  0
   12.7954    5.3268   -1.7597 O   0  0  0  0  0  0  0  0  0  0  0  0
   11.4097    3.4283   -1.5292 C   0  0  0  0  0  0  0  0  0  0  0  0
   11.9032    3.1603   -0.5855 H   0  0  0  0  0  0  0  0  0  0  0  0
   10.5501    4.0651   -1.2815 H   0  0  0  0  0  0  0  0  0  0  0  0
   11.0746    2.5278   -2.0505 H   0  0  0  0  0  0  0  0  0  0  0  0
  1  7  1  0  0  0  0
  1  2  2  0  0  0  0
  2  8  1  0  0  0  0
  3  2  1  0  0  0  0
  3 18  1  0  0  0  0
  4  3  2  0  0  0  0
  5  6  2  0  0  0  0
  5  4  1  0  0  0  0
  6  1  1  0  0  0  0
  9  4  1  0  0  0  0
 10  5  1  0  0  0  0
 11 12  2  0  0  0  0
 11  6  1  0  0  0  0
 13 11  2  0  0  0  0
 14 15  3  0  0  0  0
 16 18  1  0  0  0  0
 16 19  1  0  0  0  0
 17 16  2  0  0  0  0
 19 21  1  0  0  0  0
 19 20  1  0  0  0  0
 22 19  1  0  0  0  0
M  END
