Coordinates from ORCA-job p-NO2-Ph-N2-OOCCH3-B3LYPG-aug-cc-pVDZ-scan-d09-49-n400
 OpenBabel01151817083D

 22 22  0  0  0  0  0  0  0  0999 V2000
   14.8499    8.5107   -2.8019 C   0  0  0  0  0  0  0  0  0  0  0  0
   13.9715    8.0612   -1.8146 C   0  0  0  0  0  0  0  0  0  0  0  0
   14.2885    6.8950   -1.1256 C   0  0  0  0  0  0  0  0  0  0  0  0
   15.4614    6.1780   -1.3450 C   0  0  0  0  0  0  0  0  0  0  0  0
   16.3424    6.6311   -2.3274 C   0  0  0  0  0  0  0  0  0  0  0  0
   16.0188    7.7865   -3.0425 C   0  0  0  0  0  0  0  0  0  0  0  0
   14.6441    9.4097   -3.3774 H   0  0  0  0  0  0  0  0  0  0  0  0
   13.0586    8.6086   -1.5880 H   0  0  0  0  0  0  0  0  0  0  0  0
   15.6839    5.2835   -0.7668 H   0  0  0  0  0  0  0  0  0  0  0  0
   17.2687    6.1051   -2.5439 H   0  0  0  0  0  0  0  0  0  0  0  0
   16.9500    8.2627   -4.0848 N   0  0  0  0  0  0  0  0  0  0  0  0
   16.6457    9.2817   -4.6992 O   0  0  0  0  0  0  0  0  0  0  0  0
   17.9731    7.6105   -4.2766 O   0  0  0  0  0  0  0  0  0  0  0  0
   13.3413    6.4746    0.0826 N   0  0  0  0  0  0  0  0  0  0  0  0
   12.5296    5.5824   -0.0371 N   0  0  0  0  0  0  0  0  0  0  0  0
   11.6353    3.9295   -1.5188 C   0  0  0  0  0  0  0  0  0  0  0  0
   11.0170    3.4545   -0.6066 O   0  0  0  0  0  0  0  0  0  0  0  0
   12.5184    4.9967   -1.3972 O   0  0  0  0  0  0  0  0  0  0  0  0
   11.5969    3.4872   -2.9596 C   0  0  0  0  0  0  0  0  0  0  0  0
   11.1689    4.2866   -3.5799 H   0  0  0  0  0  0  0  0  0  0  0  0
   12.6120    3.2891   -3.3274 H   0  0  0  0  0  0  0  0  0  0  0  0
   10.9814    2.5865   -3.0370 H   0  0  0  0  0  0  0  0  0  0  0  0
  1  2  1  0  0  0  0
  2  8  1  0  0  0  0
  2  3  2  0  0  0  0
  3 14  1  0  0  0  0
  4  3  1  0  0  0  0
  4  9  1  0  0  0  0
  5  4  2  0  0  0  0
  6  1  2  0  0  0  0
  6  5  1  0  0  0  0
  7  1  1  0  0  0  0
 10  5  1  0  0  0  0
 11  6  1  0  0  0  0
 12 11  2  0  0  0  0
 13 11  2  0  0  0  0
 15 14  1  0  0  0  0
 16 18  1  0  0  0  0
 16 17  2  0  0  0  0
 18 15  1  0  0  0  0
 19 16  1  0  0  0  0
 20 19  1  0  0  0  0
 21 19  1  0  0  0  0
 22 19  1  0  0  0  0
M  RAD  2  14   2  15   2
M  END
