Coordinates from ORCA-job p-NO2-Ph-N2-OOCCH3-B3LYPG-aug-cc-pVDZ-scan-d09-49-n400
 OpenBabel01151817083D

 22 22  0  0  0  0  0  0  0  0999 V2000
   14.8209    8.4575   -2.8034 C   0  0  0  0  0  0  0  0  0  0  0  0
   13.9625    7.9610   -1.8305 C   0  0  0  0  0  0  0  0  0  0  0  0
   14.3166    6.8151   -1.0814 C   0  0  0  0  0  0  0  0  0  0  0  0
   15.5694    6.2017   -1.3142 C   0  0  0  0  0  0  0  0  0  0  0  0
   16.4274    6.7024   -2.2853 C   0  0  0  0  0  0  0  0  0  0  0  0
   16.0449    7.8233   -3.0244 C   0  0  0  0  0  0  0  0  0  0  0  0
   14.5535    9.3320   -3.3914 H   0  0  0  0  0  0  0  0  0  0  0  0
   13.0095    8.4491   -1.6337 H   0  0  0  0  0  0  0  0  0  0  0  0
   15.8538    5.3352   -0.7196 H   0  0  0  0  0  0  0  0  0  0  0  0
   17.3895    6.2336   -2.4766 H   0  0  0  0  0  0  0  0  0  0  0  0
   16.9525    8.3507   -4.0518 N   0  0  0  0  0  0  0  0  0  0  0  0
   16.5891    9.3417   -4.6829 O   0  0  0  0  0  0  0  0  0  0  0  0
   18.0254    7.7734   -4.2190 O   0  0  0  0  0  0  0  0  0  0  0  0
   13.5633    6.4048   -0.1436 N   0  0  0  0  0  0  0  0  0  0  0  0
   12.6890    5.5600   -0.1298 N   0  0  0  0  0  0  0  0  0  0  0  0
   11.5502    3.9832   -1.5319 C   0  0  0  0  0  0  0  0  0  0  0  0
   10.8933    3.6392   -0.5884 O   0  0  0  0  0  0  0  0  0  0  0  0
   12.5371    4.9612   -1.4845 O   0  0  0  0  0  0  0  0  0  0  0  0
   11.4642    3.4423   -2.9362 C   0  0  0  0  0  0  0  0  0  0  0  0
   11.2205    4.2520   -3.6369 H   0  0  0  0  0  0  0  0  0  0  0  0
   12.4332    3.0231   -3.2384 H   0  0  0  0  0  0  0  0  0  0  0  0
   10.6917    2.6689   -2.9707 H   0  0  0  0  0  0  0  0  0  0  0  0
  1  2  1  0  0  0  0
  2  8  1  0  0  0  0
  2  3  2  0  0  0  0
  3 14  1  0  0  0  0
  4  3  1  0  0  0  0
  4  9  1  0  0  0  0
  5  4  2  0  0  0  0
  6  1  2  0  0  0  0
  6  5  1  0  0  0  0
  7  1  1  0  0  0  0
 10  5  1  0  0  0  0
 11  6  1  0  0  0  0
 12 11  2  0  0  0  0
 13 11  2  0  0  0  0
 14 15  1  0  0  0  0
 16 18  1  0  0  0  0
 16 17  2  0  0  0  0
 18 15  1  0  0  0  0
 19 16  1  0  0  0  0
 20 19  1  0  0  0  0
 21 19  1  0  0  0  0
 22 19  1  0  0  0  0
M  RAD  2  14   2  15   2
M  END
