Coordinates from ORCA-job p-NO2-Ph-N2-OOCCH3-B3LYPG-aug-cc-pVDZ-scan-d09-49-n400
 OpenBabel01151817083D

 22 21  0  0  0  0  0  0  0  0999 V2000
   14.3870    8.4518   -2.6420 C   0  0  0  0  0  0  0  0  0  0  0  0
   13.5142    7.5165   -2.0962 C   0  0  0  0  0  0  0  0  0  0  0  0
   13.8586    6.1624   -2.1031 C   0  0  0  0  0  0  0  0  0  0  0  0
   15.0205    5.7129   -2.7374 C   0  0  0  0  0  0  0  0  0  0  0  0
   15.8967    6.6446   -3.2880 C   0  0  0  0  0  0  0  0  0  0  0  0
   15.5755    8.0022   -3.2225 C   0  0  0  0  0  0  0  0  0  0  0  0
   14.1598    9.5145   -2.6324 H   0  0  0  0  0  0  0  0  0  0  0  0
   12.5804    7.8280   -1.6321 H   0  0  0  0  0  0  0  0  0  0  0  0
   15.2500    4.6516   -2.7806 H   0  0  0  0  0  0  0  0  0  0  0  0
   16.8194    6.3336   -3.7708 H   0  0  0  0  0  0  0  0  0  0  0  0
   16.5056    8.9861   -3.8010 N   0  0  0  0  0  0  0  0  0  0  0  0
   16.1939   10.1738   -3.7391 O   0  0  0  0  0  0  0  0  0  0  0  0
   17.5418    8.5646   -4.3108 O   0  0  0  0  0  0  0  0  0  0  0  0
   14.8910    6.1550    0.0343 N   0  0  0  0  0  0  0  0  0  0  0  0
   15.0662    5.2737    0.6785 N   0  0  0  0  0  0  0  0  0  0  0  0
   12.4370    4.2248   -2.2514 C   0  0  0  0  0  0  0  0  0  0  0  0
   12.7346    3.9974   -3.3945 O   0  0  0  0  0  0  0  0  0  0  0  0
   12.9479    5.2858   -1.5219 O   0  0  0  0  0  0  0  0  0  0  0  0
   11.4718    3.4450   -1.4024 C   0  0  0  0  0  0  0  0  0  0  0  0
   11.9689    3.1083   -0.4833 H   0  0  0  0  0  0  0  0  0  0  0  0
   10.6342    4.0905   -1.1063 H   0  0  0  0  0  0  0  0  0  0  0  0
   11.1022    2.5882   -1.9718 H   0  0  0  0  0  0  0  0  0  0  0  0
  1  7  1  0  0  0  0
  1  2  2  0  0  0  0
  2  8  1  0  0  0  0
  3  2  1  0  0  0  0
  3 18  1  0  0  0  0
  4  3  2  0  0  0  0
  5  6  2  0  0  0  0
  5  4  1  0  0  0  0
  6  1  1  0  0  0  0
  9  4  1  0  0  0  0
 10  5  1  0  0  0  0
 11 12  2  0  0  0  0
 11  6  1  0  0  0  0
 13 11  2  0  0  0  0
 14 15  3  0  0  0  0
 16 18  1  0  0  0  0
 16 19  1  0  0  0  0
 17 16  2  0  0  0  0
 19 21  1  0  0  0  0
 19 20  1  0  0  0  0
 22 19  1  0  0  0  0
M  END
