Coordinates from ORCA-job p-NO2-Ph-N2-OOCCH3-B3LYPG-aug-cc-pVDZ-scan-d09-49-n400
 OpenBabel01151817083D

 22 22  0  0  0  0  0  0  0  0999 V2000
   14.8131    8.4466   -2.8344 C   0  0  0  0  0  0  0  0  0  0  0  0
   13.9527    7.9819   -1.8375 C   0  0  0  0  0  0  0  0  0  0  0  0
   14.3339    6.8590   -1.1142 C   0  0  0  0  0  0  0  0  0  0  0  0
   15.5406    6.1962   -1.3004 C   0  0  0  0  0  0  0  0  0  0  0  0
   16.4008    6.6630   -2.2961 C   0  0  0  0  0  0  0  0  0  0  0  0
   16.0198    7.7769   -3.0476 C   0  0  0  0  0  0  0  0  0  0  0  0
   14.5640    9.3149   -3.4391 H   0  0  0  0  0  0  0  0  0  0  0  0
   13.0091    8.4843   -1.6342 H   0  0  0  0  0  0  0  0  0  0  0  0
   15.8069    5.3354   -0.6904 H   0  0  0  0  0  0  0  0  0  0  0  0
   17.3547    6.1803   -2.4934 H   0  0  0  0  0  0  0  0  0  0  0  0
   16.9299    8.2690   -4.1016 N   0  0  0  0  0  0  0  0  0  0  0  0
   16.5753    9.2510   -4.7484 O   0  0  0  0  0  0  0  0  0  0  0  0
   17.9865    7.6659   -4.2698 O   0  0  0  0  0  0  0  0  0  0  0  0
   13.3786    6.4032    0.1540 N   0  0  0  0  0  0  0  0  0  0  0  0
   12.5506    5.5330    0.0052 N   0  0  0  0  0  0  0  0  0  0  0  0
   11.5899    3.9694   -1.5319 C   0  0  0  0  0  0  0  0  0  0  0  0
   10.9228    3.5142   -0.6444 O   0  0  0  0  0  0  0  0  0  0  0  0
   12.5153    4.9954   -1.3729 O   0  0  0  0  0  0  0  0  0  0  0  0
   11.5796    3.5406   -2.9774 C   0  0  0  0  0  0  0  0  0  0  0  0
   11.2205    4.3669   -3.6060 H   0  0  0  0  0  0  0  0  0  0  0  0
   12.5949    3.2876   -3.3091 H   0  0  0  0  0  0  0  0  0  0  0  0
   10.9178    2.6766   -3.0850 H   0  0  0  0  0  0  0  0  0  0  0  0
  1  2  1  0  0  0  0
  2  8  1  0  0  0  0
  2  3  2  0  0  0  0
  3 14  1  0  0  0  0
  4  3  1  0  0  0  0
  4  9  1  0  0  0  0
  5  4  2  0  0  0  0
  6  1  2  0  0  0  0
  6  5  1  0  0  0  0
  7  1  1  0  0  0  0
 10  5  1  0  0  0  0
 11  6  1  0  0  0  0
 12 11  2  0  0  0  0
 13 11  2  0  0  0  0
 15 14  1  0  0  0  0
 16 18  1  0  0  0  0
 16 17  2  0  0  0  0
 18 15  1  0  0  0  0
 19 16  1  0  0  0  0
 20 19  1  0  0  0  0
 21 19  1  0  0  0  0
 22 19  1  0  0  0  0
M  RAD  2  14   2  15   2
M  END
