Coordinates from ORCA-job p-NO2-Ph-N2-OOCCH3-B3LYPG-aug-cc-pVDZ-scan-d09-49-n400
 OpenBabel01151817083D

 22 22  0  0  0  0  0  0  0  0999 V2000
   14.8330    8.4578   -2.8111 C   0  0  0  0  0  0  0  0  0  0  0  0
   13.9682    7.9438   -1.8560 C   0  0  0  0  0  0  0  0  0  0  0  0
   14.3244    6.7969   -1.0936 C   0  0  0  0  0  0  0  0  0  0  0  0
   15.6011    6.2119   -1.3196 C   0  0  0  0  0  0  0  0  0  0  0  0
   16.4612    6.7323   -2.2756 C   0  0  0  0  0  0  0  0  0  0  0  0
   16.0727    7.8494   -3.0179 C   0  0  0  0  0  0  0  0  0  0  0  0
   14.5565    9.3294   -3.3995 H   0  0  0  0  0  0  0  0  0  0  0  0
   13.0034    8.4138   -1.6731 H   0  0  0  0  0  0  0  0  0  0  0  0
   15.8935    5.3490   -0.7236 H   0  0  0  0  0  0  0  0  0  0  0  0
   17.4339    6.2800   -2.4531 H   0  0  0  0  0  0  0  0  0  0  0  0
   16.9843    8.3964   -4.0268 N   0  0  0  0  0  0  0  0  0  0  0  0
   16.6119    9.3821   -4.6623 O   0  0  0  0  0  0  0  0  0  0  0  0
   18.0694    7.8376   -4.1828 O   0  0  0  0  0  0  0  0  0  0  0  0
   13.5952    6.3801   -0.2215 N   0  0  0  0  0  0  0  0  0  0  0  0
   12.7104    5.5497   -0.1623 N   0  0  0  0  0  0  0  0  0  0  0  0
   11.5211    3.9699   -1.5232 C   0  0  0  0  0  0  0  0  0  0  0  0
   10.8742    3.6541   -0.5629 O   0  0  0  0  0  0  0  0  0  0  0  0
   12.5211    4.9346   -1.5101 O   0  0  0  0  0  0  0  0  0  0  0  0
   11.3989    3.4099   -2.9174 C   0  0  0  0  0  0  0  0  0  0  0  0
   11.1566    4.2134   -3.6257 H   0  0  0  0  0  0  0  0  0  0  0  0
   12.3543    2.9687   -3.2310 H   0  0  0  0  0  0  0  0  0  0  0  0
   10.6121    2.6503   -2.9256 H   0  0  0  0  0  0  0  0  0  0  0  0
  1  2  1  0  0  0  0
  2  8  1  0  0  0  0
  2  3  2  0  0  0  0
  3 14  1  0  0  0  0
  4  3  1  0  0  0  0
  4  9  1  0  0  0  0
  5  4  2  0  0  0  0
  6  1  2  0  0  0  0
  6  5  1  0  0  0  0
  7  1  1  0  0  0  0
 10  5  1  0  0  0  0
 11  6  1  0  0  0  0
 12 11  2  0  0  0  0
 13 11  2  0  0  0  0
 14 15  1  0  0  0  0
 16 18  1  0  0  0  0
 16 17  2  0  0  0  0
 18 15  1  0  0  0  0
 19 16  1  0  0  0  0
 20 19  1  0  0  0  0
 21 19  1  0  0  0  0
 22 19  1  0  0  0  0
M  RAD  2  14   2  15   2
M  END
