Coordinates from ORCA-job p-NO2-Ph-N2-OOCCH3-B3LYPG-aug-cc-pVDZ-scan-d09-49-n400
 OpenBabel01151817083D

 22 21  0  0  0  0  0  0  0  0999 V2000
   14.3909    8.4718   -2.6598 C   0  0  0  0  0  0  0  0  0  0  0  0
   13.4980    7.5397   -2.1382 C   0  0  0  0  0  0  0  0  0  0  0  0
   13.8058    6.1788   -2.1989 C   0  0  0  0  0  0  0  0  0  0  0  0
   14.9826    5.7245   -2.8013 C   0  0  0  0  0  0  0  0  0  0  0  0
   15.8777    6.6539   -3.3262 C   0  0  0  0  0  0  0  0  0  0  0  0
   15.5728    8.0142   -3.2455 C   0  0  0  0  0  0  0  0  0  0  0  0
   14.1851    9.5383   -2.6213 H   0  0  0  0  0  0  0  0  0  0  0  0
   12.5695    7.8579   -1.6680 H   0  0  0  0  0  0  0  0  0  0  0  0
   15.2004    4.6616   -2.8565 H   0  0  0  0  0  0  0  0  0  0  0  0
   16.8057    6.3383   -3.7959 H   0  0  0  0  0  0  0  0  0  0  0  0
   16.5230    8.9945   -3.7981 N   0  0  0  0  0  0  0  0  0  0  0  0
   16.2289   10.1855   -3.7170 O   0  0  0  0  0  0  0  0  0  0  0  0
   17.5563    8.5664   -4.3080 O   0  0  0  0  0  0  0  0  0  0  0  0
   14.9759    6.1269    0.2611 N   0  0  0  0  0  0  0  0  0  0  0  0
   15.0779    5.2135    0.8737 N   0  0  0  0  0  0  0  0  0  0  0  0
   12.4298    4.2026   -2.2726 C   0  0  0  0  0  0  0  0  0  0  0  0
   12.7466    3.9268   -3.4003 O   0  0  0  0  0  0  0  0  0  0  0  0
   12.8997    5.3144   -1.5954 O   0  0  0  0  0  0  0  0  0  0  0  0
   11.4814    3.4356   -1.3939 C   0  0  0  0  0  0  0  0  0  0  0  0
   11.9904    3.1351   -0.4685 H   0  0  0  0  0  0  0  0  0  0  0  0
   10.6356    4.0762   -1.1111 H   0  0  0  0  0  0  0  0  0  0  0  0
   11.1232    2.5547   -1.9330 H   0  0  0  0  0  0  0  0  0  0  0  0
  1  7  1  0  0  0  0
  1  2  2  0  0  0  0
  2  8  1  0  0  0  0
  3  2  1  0  0  0  0
  3 18  1  0  0  0  0
  4  3  2  0  0  0  0
  5  6  2  0  0  0  0
  5  4  1  0  0  0  0
  6  1  1  0  0  0  0
  9  4  1  0  0  0  0
 10  5  1  0  0  0  0
 11 12  2  0  0  0  0
 11  6  1  0  0  0  0
 13 11  2  0  0  0  0
 14 15  3  0  0  0  0
 16 18  1  0  0  0  0
 16 19  1  0  0  0  0
 17 16  2  0  0  0  0
 19 21  1  0  0  0  0
 19 20  1  0  0  0  0
 22 19  1  0  0  0  0
M  END
