Coordinates from ORCA-job p-NO2-Ph-N2-OOCCH3-B3LYPG-aug-cc-pVDZ-scan-d09-49-n400
 OpenBabel01151817083D

 22 21  0  0  0  0  0  0  0  0999 V2000
   14.3914    8.4754   -2.6646 C   0  0  0  0  0  0  0  0  0  0  0  0
   13.4960    7.5436   -2.1464 C   0  0  0  0  0  0  0  0  0  0  0  0
   13.7975    6.1816   -2.2170 C   0  0  0  0  0  0  0  0  0  0  0  0
   14.9757    5.7266   -2.8166 C   0  0  0  0  0  0  0  0  0  0  0  0
   15.8732    6.6558   -3.3379 C   0  0  0  0  0  0  0  0  0  0  0  0
   15.5713    8.0167   -3.2533 C   0  0  0  0  0  0  0  0  0  0  0  0
   14.1894    9.5423   -2.6203 H   0  0  0  0  0  0  0  0  0  0  0  0
   12.5692    7.8621   -1.6728 H   0  0  0  0  0  0  0  0  0  0  0  0
   15.1913    4.6635   -2.8752 H   0  0  0  0  0  0  0  0  0  0  0  0
   16.8012    6.3397   -3.8070 H   0  0  0  0  0  0  0  0  0  0  0  0
   16.5240    8.9964   -3.8024 N   0  0  0  0  0  0  0  0  0  0  0  0
   16.2332   10.1879   -3.7169 O   0  0  0  0  0  0  0  0  0  0  0  0
   17.5561    8.5675   -4.3140 O   0  0  0  0  0  0  0  0  0  0  0  0
   15.0002    6.1209    0.3382 N   0  0  0  0  0  0  0  0  0  0  0  0
   15.0818    5.1976    0.9389 N   0  0  0  0  0  0  0  0  0  0  0  0
   12.4291    4.1990   -2.2793 C   0  0  0  0  0  0  0  0  0  0  0  0
   12.7506    3.9146   -3.4036 O   0  0  0  0  0  0  0  0  0  0  0  0
   12.8913    5.3191   -1.6109 O   0  0  0  0  0  0  0  0  0  0  0  0
   11.4821    3.4350   -1.3965 C   0  0  0  0  0  0  0  0  0  0  0  0
   11.9916    3.1411   -0.4692 H   0  0  0  0  0  0  0  0  0  0  0  0
   10.6347    4.0751   -1.1176 H   0  0  0  0  0  0  0  0  0  0  0  0
   11.1265    2.5499   -1.9304 H   0  0  0  0  0  0  0  0  0  0  0  0
  1  7  1  0  0  0  0
  1  2  2  0  0  0  0
  2  8  1  0  0  0  0
  3  2  1  0  0  0  0
  3 18  1  0  0  0  0
  4  3  2  0  0  0  0
  5  6  2  0  0  0  0
  5  4  1  0  0  0  0
  6  1  1  0  0  0  0
  9  4  1  0  0  0  0
 10  5  1  0  0  0  0
 11 12  2  0  0  0  0
 11  6  1  0  0  0  0
 13 11  2  0  0  0  0
 14 15  3  0  0  0  0
 16 18  1  0  0  0  0
 16 19  1  0  0  0  0
 17 16  2  0  0  0  0
 19 21  1  0  0  0  0
 19 20  1  0  0  0  0
 22 19  1  0  0  0  0
M  END
