Coordinates from ORCA-job p-NO2-Ph-N2-OOCCH3-B3LYPG-aug-cc-pVDZ-scan-d09-49-n400
 OpenBabel01151817083D

 22 21  0  0  0  0  0  0  0  0999 V2000
   14.3846    8.4841   -2.6938 C   0  0  0  0  0  0  0  0  0  0  0  0
   13.4828    7.5537   -2.1829 C   0  0  0  0  0  0  0  0  0  0  0  0
   13.7725    6.1896   -2.2720 C   0  0  0  0  0  0  0  0  0  0  0  0
   14.9544    5.7326   -2.8643 C   0  0  0  0  0  0  0  0  0  0  0  0
   15.8575    6.6615   -3.3773 C   0  0  0  0  0  0  0  0  0  0  0  0
   15.5614    8.0232   -3.2864 C   0  0  0  0  0  0  0  0  0  0  0  0
   14.1896    9.5519   -2.6388 H   0  0  0  0  0  0  0  0  0  0  0  0
   12.5582    7.8736   -1.7057 H   0  0  0  0  0  0  0  0  0  0  0  0
   15.1660    4.6690   -2.9279 H   0  0  0  0  0  0  0  0  0  0  0  0
   16.7863    6.3435   -3.8437 H   0  0  0  0  0  0  0  0  0  0  0  0
   16.5201    9.0017   -3.8274 N   0  0  0  0  0  0  0  0  0  0  0  0
   16.2431   10.1946   -3.7190 O   0  0  0  0  0  0  0  0  0  0  0  0
   17.5583    8.5714   -4.3254 O   0  0  0  0  0  0  0  0  0  0  0  0
   15.1245    6.1006    0.6665 N   0  0  0  0  0  0  0  0  0  0  0  0
   15.1395    5.1369    1.2068 N   0  0  0  0  0  0  0  0  0  0  0  0
   12.4187    4.1951   -2.3098 C   0  0  0  0  0  0  0  0  0  0  0  0
   12.7459    3.8959   -3.4289 O   0  0  0  0  0  0  0  0  0  0  0  0
   12.8669    5.3306   -1.6592 O   0  0  0  0  0  0  0  0  0  0  0  0
   11.4785    3.4347   -1.4165 C   0  0  0  0  0  0  0  0  0  0  0  0
   11.9937    3.1516   -0.4890 H   0  0  0  0  0  0  0  0  0  0  0  0
   10.6292    4.0730   -1.1394 H   0  0  0  0  0  0  0  0  0  0  0  0
   11.1255    2.5427   -1.9407 H   0  0  0  0  0  0  0  0  0  0  0  0
  1  7  1  0  0  0  0
  1  2  2  0  0  0  0
  2  8  1  0  0  0  0
  3  2  1  0  0  0  0
  3 18  1  0  0  0  0
  4  3  2  0  0  0  0
  5  6  2  0  0  0  0
  5  4  1  0  0  0  0
  6  1  1  0  0  0  0
  9  4  1  0  0  0  0
 10  5  1  0  0  0  0
 11 12  2  0  0  0  0
 11  6  1  0  0  0  0
 13 11  2  0  0  0  0
 14 15  3  0  0  0  0
 16 18  1  0  0  0  0
 16 19  1  0  0  0  0
 17 16  2  0  0  0  0
 19 21  1  0  0  0  0
 19 20  1  0  0  0  0
 22 19  1  0  0  0  0
M  END
