Coordinates from ORCA-job p-NO2-Ph-N2-OOCCH3-B3LYPG-aug-cc-pVDZ-scan-d09-49-n400
 OpenBabel01151817083D

 22 21  0  0  0  0  0  0  0  0999 V2000
   14.3680    8.4841   -2.7217 C   0  0  0  0  0  0  0  0  0  0  0  0
   13.4586    7.5544   -2.2236 C   0  0  0  0  0  0  0  0  0  0  0  0
   13.7414    6.1891   -2.3220 C   0  0  0  0  0  0  0  0  0  0  0  0
   14.9271    5.7309   -2.9064 C   0  0  0  0  0  0  0  0  0  0  0  0
   15.8377    6.6595   -3.4065 C   0  0  0  0  0  0  0  0  0  0  0  0
   15.5466    8.0217   -3.3097 C   0  0  0  0  0  0  0  0  0  0  0  0
   14.1777    9.5524   -2.6600 H   0  0  0  0  0  0  0  0  0  0  0  0
   12.5324    7.8750   -1.7502 H   0  0  0  0  0  0  0  0  0  0  0  0
   15.1353    4.6672   -2.9744 H   0  0  0  0  0  0  0  0  0  0  0  0
   16.7690    6.3406   -3.8673 H   0  0  0  0  0  0  0  0  0  0  0  0
   16.5133    8.9995   -3.8377 N   0  0  0  0  0  0  0  0  0  0  0  0
   16.2332   10.1924   -3.7385 O   0  0  0  0  0  0  0  0  0  0  0  0
   17.5453    8.5674   -4.3468 O   0  0  0  0  0  0  0  0  0  0  0  0
   15.3742    6.1412    1.1171 N   0  0  0  0  0  0  0  0  0  0  0  0
   15.3561    5.1306    1.5618 N   0  0  0  0  0  0  0  0  0  0  0  0
   12.3927    4.1903   -2.3645 C   0  0  0  0  0  0  0  0  0  0  0  0
   12.7342    3.8836   -3.4773 O   0  0  0  0  0  0  0  0  0  0  0  0
   12.8283    5.3324   -1.7175 O   0  0  0  0  0  0  0  0  0  0  0  0
   11.4448    3.4332   -1.4765 C   0  0  0  0  0  0  0  0  0  0  0  0
   11.9505    3.1582   -0.5414 H   0  0  0  0  0  0  0  0  0  0  0  0
   10.5906    4.0709   -1.2133 H   0  0  0  0  0  0  0  0  0  0  0  0
   11.1003    2.5366   -1.9984 H   0  0  0  0  0  0  0  0  0  0  0  0
  1  7  1  0  0  0  0
  1  2  2  0  0  0  0
  2  8  1  0  0  0  0
  3  2  1  0  0  0  0
  3 18  1  0  0  0  0
  4  3  2  0  0  0  0
  5  6  2  0  0  0  0
  5  4  1  0  0  0  0
  6  1  1  0  0  0  0
  9  4  1  0  0  0  0
 10  5  1  0  0  0  0
 11 12  2  0  0  0  0
 11  6  1  0  0  0  0
 13 11  2  0  0  0  0
 14 15  3  0  0  0  0
 16 18  1  0  0  0  0
 16 19  1  0  0  0  0
 17 16  2  0  0  0  0
 19 21  1  0  0  0  0
 19 20  1  0  0  0  0
 22 19  1  0  0  0  0
M  END
