Coordinates from ORCA-job p-NO2-Ph-N2-OOCCH3-B3LYPG-aug-cc-pVDZ-scan-d09-49-n400
 OpenBabel01151817083D

 22 22  0  0  0  0  0  0  0  0999 V2000
   14.9768    8.6842   -2.7043 C   0  0  0  0  0  0  0  0  0  0  0  0
   14.0446    8.2589   -1.7592 C   0  0  0  0  0  0  0  0  0  0  0  0
   14.1729    6.9867   -1.1950 C   0  0  0  0  0  0  0  0  0  0  0  0
   15.2458    6.1473   -1.5156 C   0  0  0  0  0  0  0  0  0  0  0  0
   16.1909    6.5793   -2.4429 C   0  0  0  0  0  0  0  0  0  0  0  0
   16.0365    7.8370   -3.0308 C   0  0  0  0  0  0  0  0  0  0  0  0
   14.8999    9.6599   -3.1770 H   0  0  0  0  0  0  0  0  0  0  0  0
   13.2209    8.9047   -1.4596 H   0  0  0  0  0  0  0  0  0  0  0  0
   15.3400    5.1715   -1.0443 H   0  0  0  0  0  0  0  0  0  0  0  0
   17.0382    5.9566   -2.7185 H   0  0  0  0  0  0  0  0  0  0  0  0
   17.0326    8.2882   -4.0220 N   0  0  0  0  0  0  0  0  0  0  0  0
   16.8756    9.3983   -4.5236 O   0  0  0  0  0  0  0  0  0  0  0  0
   17.9585    7.5258   -4.2876 O   0  0  0  0  0  0  0  0  0  0  0  0
   13.2264    6.6296   -0.1265 N   0  0  0  0  0  0  0  0  0  0  0  0
   12.4565    5.6913   -0.1630 N   0  0  0  0  0  0  0  0  0  0  0  0
   11.7151    3.8296   -1.4727 C   0  0  0  0  0  0  0  0  0  0  0  0
   11.2012    3.3572   -0.4957 O   0  0  0  0  0  0  0  0  0  0  0  0
   12.5026    4.9722   -1.4671 O   0  0  0  0  0  0  0  0  0  0  0  0
   11.6227    3.2994   -2.8813 C   0  0  0  0  0  0  0  0  0  0  0  0
   11.0884    4.0217   -3.5136 H   0  0  0  0  0  0  0  0  0  0  0  0
   12.6256    3.1649   -3.3072 H   0  0  0  0  0  0  0  0  0  0  0  0
   11.0853    2.3469   -2.8672 H   0  0  0  0  0  0  0  0  0  0  0  0
  1  2  1  0  0  0  0
  2  8  1  0  0  0  0
  2  3  2  0  0  0  0
  3 14  1  0  0  0  0
  4  3  1  0  0  0  0
  4  9  1  0  0  0  0
  5  4  2  0  0  0  0
  6  1  2  0  0  0  0
  6  5  1  0  0  0  0
  7  1  1  0  0  0  0
 10  5  1  0  0  0  0
 11  6  1  0  0  0  0
 12 11  2  0  0  0  0
 13 11  2  0  0  0  0
 15 14  1  0  0  0  0
 16 18  1  0  0  0  0
 16 17  2  0  0  0  0
 18 15  1  0  0  0  0
 19 22  1  0  0  0  0
 19 16  1  0  0  0  0
 20 19  1  0  0  0  0
 21 19  1  0  0  0  0
M  RAD  2  14   2  15   2
M  END
