Coordinates from ORCA-job p-NO2-Ph-N2-OOCCH3-B3LYPG-aug-cc-pVDZ-scan-d09-49-n400
 OpenBabel01151817083D

 22 21  0  0  0  0  0  0  0  0999 V2000
   14.8370    8.4434   -2.8973 C   0  0  0  0  0  0  0  0  0  0  0  0
   13.9756    7.9570   -1.9041 C   0  0  0  0  0  0  0  0  0  0  0  0
   14.4247    6.8660   -1.1940 C   0  0  0  0  0  0  0  0  0  0  0  0
   15.6312    6.2176   -1.3366 C   0  0  0  0  0  0  0  0  0  0  0  0
   16.4836    6.7134   -2.3328 C   0  0  0  0  0  0  0  0  0  0  0  0
   16.0682    7.8114   -3.0908 C   0  0  0  0  0  0  0  0  0  0  0  0
   14.5653    9.2985   -3.5119 H   0  0  0  0  0  0  0  0  0  0  0  0
   13.0099    8.4210   -1.7160 H   0  0  0  0  0  0  0  0  0  0  0  0
   15.9158    5.3679   -0.7199 H   0  0  0  0  0  0  0  0  0  0  0  0
   17.4551    6.2623   -2.5213 H   0  0  0  0  0  0  0  0  0  0  0  0
   16.9715    8.3289   -4.1400 N   0  0  0  0  0  0  0  0  0  0  0  0
   16.5897    9.2947   -4.7950 O   0  0  0  0  0  0  0  0  0  0  0  0
   18.0492    7.7611   -4.2948 O   0  0  0  0  0  0  0  0  0  0  0  0
   13.2040    6.2425    0.4535 N   0  0  0  0  0  0  0  0  0  0  0  0
   12.4095    5.4036    0.2091 N   0  0  0  0  0  0  0  0  0  0  0  0
   11.4789    3.9514   -1.5090 C   0  0  0  0  0  0  0  0  0  0  0  0
   10.7277    3.4876   -0.6927 O   0  0  0  0  0  0  0  0  0  0  0  0
   12.4152    4.9304   -1.2501 O   0  0  0  0  0  0  0  0  0  0  0  0
   11.5681    3.5569   -2.9657 C   0  0  0  0  0  0  0  0  0  0  0  0
   11.3490    4.4235   -3.6036 H   0  0  0  0  0  0  0  0  0  0  0  0
   12.5831    3.2138   -3.2049 H   0  0  0  0  0  0  0  0  0  0  0  0
   10.8450    2.7586   -3.1567 H   0  0  0  0  0  0  0  0  0  0  0  0
  1  2  1  0  0  0  0
  2  8  1  0  0  0  0
  2  3  2  0  0  0  0
  4  3  1  0  0  0  0
  4  9  1  0  0  0  0
  5  4  2  0  0  0  0
  6  1  2  0  0  0  0
  6  5  1  0  0  0  0
  7  1  1  0  0  0  0
 10  5  1  0  0  0  0
 11  6  1  0  0  0  0
 12 11  2  0  0  0  0
 13 11  2  0  0  0  0
 15 14  1  0  0  0  0
 16 18  1  0  0  0  0
 16 17  2  0  0  0  0
 18 15  1  0  0  0  0
 19 16  1  0  0  0  0
 20 19  1  0  0  0  0
 21 19  1  0  0  0  0
 22 19  1  0  0  0  0
M  RAD  3   3   2  14   3  15   2
M  END
