Coordinates from ORCA-job p-NO2-Ph-N2-OOCCH3-B3LYPG-aug-cc-pVDZ-scan-d09-49-n400
 OpenBabel01151817083D

 22 22  0  0  0  0  0  0  0  0999 V2000
   14.8064    8.4344   -2.8415 C   0  0  0  0  0  0  0  0  0  0  0  0
   13.9498    7.9658   -1.8427 C   0  0  0  0  0  0  0  0  0  0  0  0
   14.3457    6.8522   -1.1149 C   0  0  0  0  0  0  0  0  0  0  0  0
   15.5580    6.2001   -1.2940 C   0  0  0  0  0  0  0  0  0  0  0  0
   16.4136    6.6706   -2.2926 C   0  0  0  0  0  0  0  0  0  0  0  0
   16.0204    7.7762   -3.0501 C   0  0  0  0  0  0  0  0  0  0  0  0
   14.5486    9.2965   -3.4515 H   0  0  0  0  0  0  0  0  0  0  0  0
   13.0001    8.4580   -1.6435 H   0  0  0  0  0  0  0  0  0  0  0  0
   15.8331    5.3461   -0.6783 H   0  0  0  0  0  0  0  0  0  0  0  0
   17.3727    6.1974   -2.4872 H   0  0  0  0  0  0  0  0  0  0  0  0
   16.9255    8.2720   -4.1069 N   0  0  0  0  0  0  0  0  0  0  0  0
   16.5607    9.2467   -4.7592 O   0  0  0  0  0  0  0  0  0  0  0  0
   17.9884    7.6793   -4.2717 O   0  0  0  0  0  0  0  0  0  0  0  0
   13.3804    6.3822    0.1798 N   0  0  0  0  0  0  0  0  0  0  0  0
   12.5502    5.5176    0.0203 N   0  0  0  0  0  0  0  0  0  0  0  0
   11.5772    3.9779   -1.5339 C   0  0  0  0  0  0  0  0  0  0  0  0
   10.8909    3.5327   -0.6561 O   0  0  0  0  0  0  0  0  0  0  0  0
   12.5124    4.9929   -1.3627 O   0  0  0  0  0  0  0  0  0  0  0  0
   11.5795    3.5508   -2.9800 C   0  0  0  0  0  0  0  0  0  0  0  0
   11.2487    4.3850   -3.6137 H   0  0  0  0  0  0  0  0  0  0  0  0
   12.5941    3.2754   -3.2958 H   0  0  0  0  0  0  0  0  0  0  0  0
   10.9008    2.7015   -3.0985 H   0  0  0  0  0  0  0  0  0  0  0  0
  1  2  1  0  0  0  0
  2  8  1  0  0  0  0
  2  3  2  0  0  0  0
  3 14  1  0  0  0  0
  4  3  1  0  0  0  0
  4  9  1  0  0  0  0
  5  4  2  0  0  0  0
  6  1  2  0  0  0  0
  6  5  1  0  0  0  0
  7  1  1  0  0  0  0
 10  5  1  0  0  0  0
 11  6  1  0  0  0  0
 12 11  2  0  0  0  0
 13 11  2  0  0  0  0
 15 14  1  0  0  0  0
 16 18  1  0  0  0  0
 16 17  2  0  0  0  0
 18 15  1  0  0  0  0
 19 16  1  0  0  0  0
 20 19  1  0  0  0  0
 21 19  1  0  0  0  0
 22 19  1  0  0  0  0
M  RAD  2  14   2  15   2
M  END
