Coordinates from ORCA-job p-NO2-Ph-N2-OOCCH3-B3LYPG-aug-cc-pVDZ-scan-d09-49-n400
 OpenBabel01151817083D

 22 22  0  0  0  0  0  0  0  0999 V2000
   14.8100    8.4235   -2.8718 C   0  0  0  0  0  0  0  0  0  0  0  0
   13.9554    7.9437   -1.8732 C   0  0  0  0  0  0  0  0  0  0  0  0
   14.3874    6.8489   -1.1484 C   0  0  0  0  0  0  0  0  0  0  0  0
   15.6033    6.2102   -1.3041 C   0  0  0  0  0  0  0  0  0  0  0  0
   16.4533    6.6948   -2.3042 C   0  0  0  0  0  0  0  0  0  0  0  0
   16.0387    7.7882   -3.0686 C   0  0  0  0  0  0  0  0  0  0  0  0
   14.5382    9.2761   -3.4893 H   0  0  0  0  0  0  0  0  0  0  0  0
   12.9931    8.4141   -1.6824 H   0  0  0  0  0  0  0  0  0  0  0  0
   15.8909    5.3654   -0.6818 H   0  0  0  0  0  0  0  0  0  0  0  0
   17.4233    6.2412   -2.4927 H   0  0  0  0  0  0  0  0  0  0  0  0
   16.9386    8.2969   -4.1246 N   0  0  0  0  0  0  0  0  0  0  0  0
   16.5565    9.2597   -4.7842 O   0  0  0  0  0  0  0  0  0  0  0  0
   18.0144    7.7258   -4.2807 O   0  0  0  0  0  0  0  0  0  0  0  0
   13.3119    6.3074    0.3116 N   0  0  0  0  0  0  0  0  0  0  0  0
   12.4960    5.4549    0.1013 N   0  0  0  0  0  0  0  0  0  0  0  0
   11.5282    3.9744   -1.5240 C   0  0  0  0  0  0  0  0  0  0  0  0
   10.7975    3.5330   -0.6801 O   0  0  0  0  0  0  0  0  0  0  0  0
   12.4749    4.9662   -1.3046 O   0  0  0  0  0  0  0  0  0  0  0  0
   11.5758    3.5669   -2.9760 C   0  0  0  0  0  0  0  0  0  0  0  0
   11.3219    4.4246   -3.6133 H   0  0  0  0  0  0  0  0  0  0  0  0
   12.5882    3.2393   -3.2461 H   0  0  0  0  0  0  0  0  0  0  0  0
   10.8597    2.7562   -3.1376 H   0  0  0  0  0  0  0  0  0  0  0  0
  1  2  1  0  0  0  0
  2  8  1  0  0  0  0
  2  3  2  0  0  0  0
  3 14  1  0  0  0  0
  4  3  1  0  0  0  0
  4  9  1  0  0  0  0
  5  4  2  0  0  0  0
  6  1  2  0  0  0  0
  6  5  1  0  0  0  0
  7  1  1  0  0  0  0
 10  5  1  0  0  0  0
 11  6  1  0  0  0  0
 12 11  2  0  0  0  0
 13 11  2  0  0  0  0
 15 14  1  0  0  0  0
 16 18  1  0  0  0  0
 16 17  2  0  0  0  0
 18 15  1  0  0  0  0
 19 16  1  0  0  0  0
 20 19  1  0  0  0  0
 21 19  1  0  0  0  0
 22 19  1  0  0  0  0
M  RAD  2  14   2  15   2
M  END
