Coordinates from ORCA-job p-NO2-Ph-N2-OOCCH3-B3LYPG-aug-cc-pVDZ-scan-d09-49-n400
 OpenBabel01151817083D

 22 21  0  0  0  0  0  0  0  0999 V2000
   14.3894    8.4822   -2.6819 C   0  0  0  0  0  0  0  0  0  0  0  0
   13.4899    7.5512   -2.1686 C   0  0  0  0  0  0  0  0  0  0  0  0
   13.7819    6.1876   -2.2547 C   0  0  0  0  0  0  0  0  0  0  0  0
   14.9623    5.7314   -2.8501 C   0  0  0  0  0  0  0  0  0  0  0  0
   15.8633    6.6605   -3.3658 C   0  0  0  0  0  0  0  0  0  0  0  0
   15.5661    8.0220   -3.2753 C   0  0  0  0  0  0  0  0  0  0  0  0
   14.1930    9.5498   -2.6287 H   0  0  0  0  0  0  0  0  0  0  0  0
   12.5654    7.8707   -1.6913 H   0  0  0  0  0  0  0  0  0  0  0  0
   15.1746    4.6681   -2.9137 H   0  0  0  0  0  0  0  0  0  0  0  0
   16.7914    6.3435   -3.8343 H   0  0  0  0  0  0  0  0  0  0  0  0
   16.5228    9.0009   -3.8190 N   0  0  0  0  0  0  0  0  0  0  0  0
   16.2369   10.1930   -3.7265 O   0  0  0  0  0  0  0  0  0  0  0  0
   17.5529    8.5707   -4.3335 O   0  0  0  0  0  0  0  0  0  0  0  0
   15.0769    6.1020    0.5666 N   0  0  0  0  0  0  0  0  0  0  0  0
   15.1022    5.1495    1.1247 N   0  0  0  0  0  0  0  0  0  0  0  0
   12.4245    4.1962   -2.2994 C   0  0  0  0  0  0  0  0  0  0  0  0
   12.7508    3.9005   -3.4195 O   0  0  0  0  0  0  0  0  0  0  0  0
   12.8761    5.3277   -1.6440 O   0  0  0  0  0  0  0  0  0  0  0  0
   11.4816    3.4352   -1.4094 C   0  0  0  0  0  0  0  0  0  0  0  0
   11.9944    3.1492   -0.4814 H   0  0  0  0  0  0  0  0  0  0  0  0
   10.6328    4.0742   -1.1326 H   0  0  0  0  0  0  0  0  0  0  0  0
   11.1281    2.5451   -1.9364 H   0  0  0  0  0  0  0  0  0  0  0  0
  1  7  1  0  0  0  0
  1  2  2  0  0  0  0
  2  8  1  0  0  0  0
  3  2  1  0  0  0  0
  3 18  1  0  0  0  0
  4  3  2  0  0  0  0
  5  6  2  0  0  0  0
  5  4  1  0  0  0  0
  6  1  1  0  0  0  0
  9  4  1  0  0  0  0
 10  5  1  0  0  0  0
 11 12  2  0  0  0  0
 11  6  1  0  0  0  0
 13 11  2  0  0  0  0
 14 15  3  0  0  0  0
 16 18  1  0  0  0  0
 16 19  1  0  0  0  0
 17 16  2  0  0  0  0
 19 21  1  0  0  0  0
 19 20  1  0  0  0  0
 22 19  1  0  0  0  0
M  END
