Coordinates from ORCA-job p-NO2-Ph-N2-OOCCH3-B3LYPG-aug-cc-pVDZ-scan-d09-49-n400
 OpenBabel01151817083D

 22 22  0  0  0  0  0  0  0  0999 V2000
   14.8332    8.4899   -2.7869 C   0  0  0  0  0  0  0  0  0  0  0  0
   13.9694    8.0100   -1.8086 C   0  0  0  0  0  0  0  0  0  0  0  0
   14.2952    6.8438   -1.0863 C   0  0  0  0  0  0  0  0  0  0  0  0
   15.5187    6.1880   -1.3359 C   0  0  0  0  0  0  0  0  0  0  0  0
   16.3853    6.6730   -2.3086 C   0  0  0  0  0  0  0  0  0  0  0  0
   16.0317    7.8161   -3.0280 C   0  0  0  0  0  0  0  0  0  0  0  0
   14.5911    9.3810   -3.3606 H   0  0  0  0  0  0  0  0  0  0  0  0
   13.0367    8.5285   -1.5929 H   0  0  0  0  0  0  0  0  0  0  0  0
   15.7782    5.3033   -0.7570 H   0  0  0  0  0  0  0  0  0  0  0  0
   17.3294    6.1759   -2.5171 H   0  0  0  0  0  0  0  0  0  0  0  0
   16.9470    8.3264   -4.0597 N   0  0  0  0  0  0  0  0  0  0  0  0
   16.6092    9.3352   -4.6760 O   0  0  0  0  0  0  0  0  0  0  0  0
   17.9962    7.7137   -4.2473 O   0  0  0  0  0  0  0  0  0  0  0  0
   13.5155    6.4408   -0.1125 N   0  0  0  0  0  0  0  0  0  0  0  0
   12.6577    5.5780   -0.1193 N   0  0  0  0  0  0  0  0  0  0  0  0
   11.5791    3.9687   -1.5287 C   0  0  0  0  0  0  0  0  0  0  0  0
   10.9216    3.6073   -0.5922 O   0  0  0  0  0  0  0  0  0  0  0  0
   12.5427    4.9697   -1.4701 O   0  0  0  0  0  0  0  0  0  0  0  0
   11.5131    3.4348   -2.9367 C   0  0  0  0  0  0  0  0  0  0  0  0
   11.2551    4.2434   -3.6336 H   0  0  0  0  0  0  0  0  0  0  0  0
   12.4929    3.0394   -3.2361 H   0  0  0  0  0  0  0  0  0  0  0  0
   10.7585    2.6445   -2.9804 H   0  0  0  0  0  0  0  0  0  0  0  0
  1  2  1  0  0  0  0
  2  8  1  0  0  0  0
  2  3  2  0  0  0  0
  3 14  1  0  0  0  0
  4  3  1  0  0  0  0
  4  9  1  0  0  0  0
  5  4  2  0  0  0  0
  6  1  2  0  0  0  0
  6  5  1  0  0  0  0
  7  1  1  0  0  0  0
 10  5  1  0  0  0  0
 11  6  1  0  0  0  0
 12 11  2  0  0  0  0
 13 11  2  0  0  0  0
 15 14  1  0  0  0  0
 16 18  1  0  0  0  0
 16 17  2  0  0  0  0
 18 15  1  0  0  0  0
 19 16  1  0  0  0  0
 20 19  1  0  0  0  0
 21 19  1  0  0  0  0
 22 19  1  0  0  0  0
M  RAD  2  14   2  15   2
M  END
