Coordinates from ORCA-job p-NO2-Ph-N2-OOCCH3-B3LYPG-aug-cc-pVDZ-scan-d09-49-n400
 OpenBabel01151817083D

 22 21  0  0  0  0  0  0  0  0999 V2000
   14.8278    8.4360   -2.8897 C   0  0  0  0  0  0  0  0  0  0  0  0
   13.9685    7.9508   -1.8953 C   0  0  0  0  0  0  0  0  0  0  0  0
   14.4124    6.8591   -1.1796 C   0  0  0  0  0  0  0  0  0  0  0  0
   15.6232    6.2158   -1.3255 C   0  0  0  0  0  0  0  0  0  0  0  0
   16.4752    6.7087   -2.3223 C   0  0  0  0  0  0  0  0  0  0  0  0
   16.0593    7.8045   -3.0830 C   0  0  0  0  0  0  0  0  0  0  0  0
   14.5557    9.2898   -3.5056 H   0  0  0  0  0  0  0  0  0  0  0  0
   13.0033    8.4158   -1.7073 H   0  0  0  0  0  0  0  0  0  0  0  0
   15.9097    5.3683   -0.7064 H   0  0  0  0  0  0  0  0  0  0  0  0
   17.4471    6.2582   -2.5098 H   0  0  0  0  0  0  0  0  0  0  0  0
   16.9617    8.3201   -4.1337 N   0  0  0  0  0  0  0  0  0  0  0  0
   16.5769    9.2810   -4.7944 O   0  0  0  0  0  0  0  0  0  0  0  0
   18.0375    7.7494   -4.2915 O   0  0  0  0  0  0  0  0  0  0  0  0
   13.2377    6.2609    0.4072 N   0  0  0  0  0  0  0  0  0  0  0  0
   12.4370    5.4167    0.1697 N   0  0  0  0  0  0  0  0  0  0  0  0
   11.4951    3.9569   -1.5123 C   0  0  0  0  0  0  0  0  0  0  0  0
   10.7488    3.5022   -0.6880 O   0  0  0  0  0  0  0  0  0  0  0  0
   12.4351    4.9418   -1.2647 O   0  0  0  0  0  0  0  0  0  0  0  0
   11.5704    3.5623   -2.9683 C   0  0  0  0  0  0  0  0  0  0  0  0
   11.3431    4.4285   -3.6039 H   0  0  0  0  0  0  0  0  0  0  0  0
   12.5840    3.2222   -3.2177 H   0  0  0  0  0  0  0  0  0  0  0  0
   10.8475    2.7624   -3.1526 H   0  0  0  0  0  0  0  0  0  0  0  0
  1  2  1  0  0  0  0
  2  8  1  0  0  0  0
  2  3  2  0  0  0  0
  4  3  1  0  0  0  0
  4  9  1  0  0  0  0
  5  4  2  0  0  0  0
  6  1  2  0  0  0  0
  6  5  1  0  0  0  0
  7  1  1  0  0  0  0
 10  5  1  0  0  0  0
 11  6  1  0  0  0  0
 12 11  2  0  0  0  0
 13 11  2  0  0  0  0
 15 14  1  0  0  0  0
 16 18  1  0  0  0  0
 16 17  2  0  0  0  0
 18 15  1  0  0  0  0
 19 16  1  0  0  0  0
 20 19  1  0  0  0  0
 21 19  1  0  0  0  0
 22 19  1  0  0  0  0
M  RAD  3   3   2  14   3  15   2
M  END
