Coordinates from ORCA-job p-NO2-Ph-N2-OOCCH3-B3LYPG-aug-cc-pVDZ-scan-d09-49-n400
 OpenBabel01151817083D

 22 21  0  0  0  0  0  0  0  0999 V2000
   14.3698    8.4845   -2.7196 C   0  0  0  0  0  0  0  0  0  0  0  0
   13.4611    7.5546   -2.2200 C   0  0  0  0  0  0  0  0  0  0  0  0
   13.7445    6.1895   -2.3178 C   0  0  0  0  0  0  0  0  0  0  0  0
   14.9297    5.7314   -2.9032 C   0  0  0  0  0  0  0  0  0  0  0  0
   15.8395    6.6601   -3.4047 C   0  0  0  0  0  0  0  0  0  0  0  0
   15.5480    8.0222   -3.3083 C   0  0  0  0  0  0  0  0  0  0  0  0
   14.1790    9.5527   -2.6584 H   0  0  0  0  0  0  0  0  0  0  0  0
   12.5351    7.8752   -1.7461 H   0  0  0  0  0  0  0  0  0  0  0  0
   15.1381    4.6677   -2.9710 H   0  0  0  0  0  0  0  0  0  0  0  0
   16.7703    6.3412   -3.8664 H   0  0  0  0  0  0  0  0  0  0  0  0
   16.5138    9.0000   -3.8378 N   0  0  0  0  0  0  0  0  0  0  0  0
   16.2342   10.1930   -3.7375 O   0  0  0  0  0  0  0  0  0  0  0  0
   17.5464    8.5681   -4.3460 O   0  0  0  0  0  0  0  0  0  0  0  0
   15.3492    6.1350    1.0789 N   0  0  0  0  0  0  0  0  0  0  0  0
   15.3331    5.1282    1.5325 N   0  0  0  0  0  0  0  0  0  0  0  0
   12.3955    4.1909   -2.3593 C   0  0  0  0  0  0  0  0  0  0  0  0
   12.7358    3.8845   -3.4726 O   0  0  0  0  0  0  0  0  0  0  0  0
   12.8322    5.3326   -1.7123 O   0  0  0  0  0  0  0  0  0  0  0  0
   11.4485    3.4336   -1.4706 C   0  0  0  0  0  0  0  0  0  0  0  0
   11.9554    3.1576   -0.5363 H   0  0  0  0  0  0  0  0  0  0  0  0
   10.5950    4.0714   -1.2056 H   0  0  0  0  0  0  0  0  0  0  0  0
   11.1029    2.5375   -1.9926 H   0  0  0  0  0  0  0  0  0  0  0  0
  1  7  1  0  0  0  0
  1  2  2  0  0  0  0
  2  8  1  0  0  0  0
  3  2  1  0  0  0  0
  3 18  1  0  0  0  0
  4  3  2  0  0  0  0
  5  6  2  0  0  0  0
  5  4  1  0  0  0  0
  6  1  1  0  0  0  0
  9  4  1  0  0  0  0
 10  5  1  0  0  0  0
 11 12  2  0  0  0  0
 11  6  1  0  0  0  0
 13 11  2  0  0  0  0
 14 15  3  0  0  0  0
 16 18  1  0  0  0  0
 16 19  1  0  0  0  0
 17 16  2  0  0  0  0
 19 21  1  0  0  0  0
 19 20  1  0  0  0  0
 22 19  1  0  0  0  0
M  END
