Coordinates from ORCA-job p-NO2-Ph-N2-OOCCH3-B3LYPG-aug-cc-pVDZ-scan-d09-49-n400
 OpenBabel01151817083D

 22 21  0  0  0  0  0  0  0  0999 V2000
   14.3789    8.4851   -2.7050 C   0  0  0  0  0  0  0  0  0  0  0  0
   13.4736    7.5550   -2.1999 C   0  0  0  0  0  0  0  0  0  0  0  0
   13.7597    6.1903   -2.2943 C   0  0  0  0  0  0  0  0  0  0  0  0
   14.9433    5.7328   -2.8830 C   0  0  0  0  0  0  0  0  0  0  0  0
   15.8497    6.6616   -3.3900 C   0  0  0  0  0  0  0  0  0  0  0  0
   15.5562    8.0235   -3.2960 C   0  0  0  0  0  0  0  0  0  0  0  0
   14.1864    9.5530   -2.6463 H   0  0  0  0  0  0  0  0  0  0  0  0
   12.5486    7.8752   -1.7241 H   0  0  0  0  0  0  0  0  0  0  0  0
   15.1531    4.6692   -2.9491 H   0  0  0  0  0  0  0  0  0  0  0  0
   16.7796    6.3431   -3.8540 H   0  0  0  0  0  0  0  0  0  0  0  0
   16.5187    9.0017   -3.8309 N   0  0  0  0  0  0  0  0  0  0  0  0
   16.2368   10.1944   -3.7336 O   0  0  0  0  0  0  0  0  0  0  0  0
   17.5501    8.5703   -4.3417 O   0  0  0  0  0  0  0  0  0  0  0  0
   15.2219    6.1100    0.8587 N   0  0  0  0  0  0  0  0  0  0  0  0
   15.2230    5.1277    1.3632 N   0  0  0  0  0  0  0  0  0  0  0  0
   12.4092    4.1932   -2.3324 C   0  0  0  0  0  0  0  0  0  0  0  0
   12.7432    3.8896   -3.4482 O   0  0  0  0  0  0  0  0  0  0  0  0
   12.8510    5.3325   -1.6844 O   0  0  0  0  0  0  0  0  0  0  0  0
   11.4659    3.4347   -1.4408 C   0  0  0  0  0  0  0  0  0  0  0  0
   11.9776    3.1545   -0.5105 H   0  0  0  0  0  0  0  0  0  0  0  0
   10.6151    4.0731   -1.1687 H   0  0  0  0  0  0  0  0  0  0  0  0
   11.1156    2.5410   -1.9638 H   0  0  0  0  0  0  0  0  0  0  0  0
  1  7  1  0  0  0  0
  1  2  2  0  0  0  0
  2  8  1  0  0  0  0
  3  2  1  0  0  0  0
  3 18  1  0  0  0  0
  4  3  2  0  0  0  0
  5  6  2  0  0  0  0
  5  4  1  0  0  0  0
  6  1  1  0  0  0  0
  9  4  1  0  0  0  0
 10  5  1  0  0  0  0
 11 12  2  0  0  0  0
 11  6  1  0  0  0  0
 13 11  2  0  0  0  0
 14 15  3  0  0  0  0
 16 18  1  0  0  0  0
 16 19  1  0  0  0  0
 17 16  2  0  0  0  0
 19 21  1  0  0  0  0
 19 20  1  0  0  0  0
 22 19  1  0  0  0  0
M  END
