Coordinates from ORCA-job p-NO2-Ph-N2-OOCCH3-B3LYPG-aug-cc-pVDZ-scan-d09-49-n400
 OpenBabel01151817083D

 22 21  0  0  0  0  0  0  0  0999 V2000
   14.3863    8.4502   -2.6411 C   0  0  0  0  0  0  0  0  0  0  0  0
   13.5153    7.5147   -2.0933 C   0  0  0  0  0  0  0  0  0  0  0  0
   13.8628    6.1612   -2.0957 C   0  0  0  0  0  0  0  0  0  0  0  0
   15.0234    5.7121   -2.7329 C   0  0  0  0  0  0  0  0  0  0  0  0
   15.8979    6.6439   -3.2856 C   0  0  0  0  0  0  0  0  0  0  0  0
   15.5753    8.0012   -3.2212 C   0  0  0  0  0  0  0  0  0  0  0  0
   14.1574    9.5126   -2.6339 H   0  0  0  0  0  0  0  0  0  0  0  0
   12.5810    7.8255   -1.6297 H   0  0  0  0  0  0  0  0  0  0  0  0
   15.2537    4.6509   -2.7751 H   0  0  0  0  0  0  0  0  0  0  0  0
   16.8201    6.3333   -3.7697 H   0  0  0  0  0  0  0  0  0  0  0  0
   16.5037    8.9853   -3.8017 N   0  0  0  0  0  0  0  0  0  0  0  0
   16.1903   10.1726   -3.7416 O   0  0  0  0  0  0  0  0  0  0  0  0
   17.5398    8.5642   -4.3119 O   0  0  0  0  0  0  0  0  0  0  0  0
   14.8879    6.1559    0.0230 N   0  0  0  0  0  0  0  0  0  0  0  0
   15.0679    5.2771    0.6695 N   0  0  0  0  0  0  0  0  0  0  0  0
   12.4375    4.2271   -2.2503 C   0  0  0  0  0  0  0  0  0  0  0  0
   12.7344    4.0033   -3.3942 O   0  0  0  0  0  0  0  0  0  0  0  0
   12.9516    5.2836   -1.5164 O   0  0  0  0  0  0  0  0  0  0  0  0
   11.4707    3.4463   -1.4042 C   0  0  0  0  0  0  0  0  0  0  0  0
   11.9660    3.1077   -0.4848 H   0  0  0  0  0  0  0  0  0  0  0  0
   10.6329    4.0919   -1.1083 H   0  0  0  0  0  0  0  0  0  0  0  0
   11.1012    2.5908   -1.9756 H   0  0  0  0  0  0  0  0  0  0  0  0
  1  7  1  0  0  0  0
  1  2  2  0  0  0  0
  2  8  1  0  0  0  0
  3  2  1  0  0  0  0
  3 18  1  0  0  0  0
  4  3  2  0  0  0  0
  5  6  2  0  0  0  0
  5  4  1  0  0  0  0
  6  1  1  0  0  0  0
  9  4  1  0  0  0  0
 10  5  1  0  0  0  0
 11 12  2  0  0  0  0
 11  6  1  0  0  0  0
 13 11  2  0  0  0  0
 14 15  3  0  0  0  0
 16 18  1  0  0  0  0
 16 19  1  0  0  0  0
 17 16  2  0  0  0  0
 19 21  1  0  0  0  0
 19 20  1  0  0  0  0
 22 19  1  0  0  0  0
M  END
