Coordinates from ORCA-job p-NO2-Ph-N2-OOCCH3-B3LYPG-aug-cc-pVDZ-scan-d09-49-n400
 OpenBabel01151817083D

 22 21  0  0  0  0  0  0  0  0999 V2000
   14.3551    8.4788   -2.7337 C   0  0  0  0  0  0  0  0  0  0  0  0
   13.4400    7.5493   -2.2455 C   0  0  0  0  0  0  0  0  0  0  0  0
   13.7185    6.1834   -2.3504 C   0  0  0  0  0  0  0  0  0  0  0  0
   14.9065    5.7248   -2.9300 C   0  0  0  0  0  0  0  0  0  0  0  0
   15.8227    6.6533   -3.4202 C   0  0  0  0  0  0  0  0  0  0  0  0
   15.5352    8.0158   -3.3180 C   0  0  0  0  0  0  0  0  0  0  0  0
   14.1678    9.5473   -2.6670 H   0  0  0  0  0  0  0  0  0  0  0  0
   12.5125    7.8702   -1.7746 H   0  0  0  0  0  0  0  0  0  0  0  0
   15.1123    4.6609   -3.0020 H   0  0  0  0  0  0  0  0  0  0  0  0
   16.7557    6.3338   -3.8770 H   0  0  0  0  0  0  0  0  0  0  0  0
   16.5076    8.9933   -3.8358 N   0  0  0  0  0  0  0  0  0  0  0  0
   16.2306   10.1866   -3.7321 O   0  0  0  0  0  0  0  0  0  0  0  0
   17.5410    8.5607   -4.3416 O   0  0  0  0  0  0  0  0  0  0  0  0
   15.5725    6.2088    1.3827 N   0  0  0  0  0  0  0  0  0  0  0  0
   15.5350    5.1747    1.7683 N   0  0  0  0  0  0  0  0  0  0  0  0
   12.3701    4.1839   -2.4041 C   0  0  0  0  0  0  0  0  0  0  0  0
   12.7229    3.8745   -3.5126 O   0  0  0  0  0  0  0  0  0  0  0  0
   12.7987    5.3276   -1.7554 O   0  0  0  0  0  0  0  0  0  0  0  0
   11.4132    3.4289   -1.5240 C   0  0  0  0  0  0  0  0  0  0  0  0
   11.9077    3.1602   -0.5811 H   0  0  0  0  0  0  0  0  0  0  0  0
   10.5541    4.0658   -1.2750 H   0  0  0  0  0  0  0  0  0  0  0  0
   11.0774    2.5288   -2.0455 H   0  0  0  0  0  0  0  0  0  0  0  0
  1  7  1  0  0  0  0
  1  2  2  0  0  0  0
  2  8  1  0  0  0  0
  3  2  1  0  0  0  0
  3 18  1  0  0  0  0
  4  3  2  0  0  0  0
  5  6  2  0  0  0  0
  5  4  1  0  0  0  0
  6  1  1  0  0  0  0
  9  4  1  0  0  0  0
 10  5  1  0  0  0  0
 11 12  2  0  0  0  0
 11  6  1  0  0  0  0
 13 11  2  0  0  0  0
 14 15  3  0  0  0  0
 16 18  1  0  0  0  0
 16 19  1  0  0  0  0
 17 16  2  0  0  0  0
 19 21  1  0  0  0  0
 19 20  1  0  0  0  0
 22 19  1  0  0  0  0
M  END
