Coordinates from ORCA-job p-NO2-Ph-N2-OOCCH3-B3LYPG-aug-cc-pVDZ-scan-d09-49-n400
 OpenBabel01151817083D

 22 21  0  0  0  0  0  0  0  0999 V2000
   14.3294    8.4661   -2.7526 C   0  0  0  0  0  0  0  0  0  0  0  0
   13.4038    7.5371   -2.2835 C   0  0  0  0  0  0  0  0  0  0  0  0
   13.6769    6.1704   -2.3952 C   0  0  0  0  0  0  0  0  0  0  0  0
   14.8707    5.7110   -2.9625 C   0  0  0  0  0  0  0  0  0  0  0  0
   15.7974    6.6389   -3.4338 C   0  0  0  0  0  0  0  0  0  0  0  0
   15.5149    8.0021   -3.3254 C   0  0  0  0  0  0  0  0  0  0  0  0
   14.1462    9.5349   -2.6799 H   0  0  0  0  0  0  0  0  0  0  0  0
   12.4716    7.8591   -1.8225 H   0  0  0  0  0  0  0  0  0  0  0  0
   15.0733    4.6467   -3.0395 H   0  0  0  0  0  0  0  0  0  0  0  0
   16.7351    6.3183   -3.8804 H   0  0  0  0  0  0  0  0  0  0  0  0
   16.4983    8.9789   -3.8234 N   0  0  0  0  0  0  0  0  0  0  0  0
   16.2261   10.1727   -3.7125 O   0  0  0  0  0  0  0  0  0  0  0  0
   17.5366    8.5453   -4.3181 O   0  0  0  0  0  0  0  0  0  0  0  0
   15.9527    6.3533    1.8382 N   0  0  0  0  0  0  0  0  0  0  0  0
   15.8590    5.2794    2.0791 N   0  0  0  0  0  0  0  0  0  0  0  0
   12.3257    4.1727   -2.4756 C   0  0  0  0  0  0  0  0  0  0  0  0
   12.6969    3.8630   -3.5780 O   0  0  0  0  0  0  0  0  0  0  0  0
   12.7448    5.3155   -1.8191 O   0  0  0  0  0  0  0  0  0  0  0  0
   11.3527    3.4191   -1.6121 C   0  0  0  0  0  0  0  0  0  0  0  0
   11.8293    3.1528   -0.6593 H   0  0  0  0  0  0  0  0  0  0  0  0
   10.4889    4.0562   -1.3808 H   0  0  0  0  0  0  0  0  0  0  0  0
   11.0269    2.5178   -2.1379 H   0  0  0  0  0  0  0  0  0  0  0  0
  1  7  1  0  0  0  0
  1  2  2  0  0  0  0
  2  8  1  0  0  0  0
  3  2  1  0  0  0  0
  3 18  1  0  0  0  0
  4  3  2  0  0  0  0
  5  6  2  0  0  0  0
  5  4  1  0  0  0  0
  6  1  1  0  0  0  0
  9  4  1  0  0  0  0
 10  5  1  0  0  0  0
 11 12  2  0  0  0  0
 11  6  1  0  0  0  0
 13 11  2  0  0  0  0
 14 15  3  0  0  0  0
 16 18  1  0  0  0  0
 16 19  1  0  0  0  0
 17 16  2  0  0  0  0
 19 21  1  0  0  0  0
 19 20  1  0  0  0  0
 22 19  1  0  0  0  0
M  END
