Coordinates from ORCA-job p-NO2-Ph-N2-OOCCH3-B3LYPG-aug-cc-pVDZ-scan-d09-49-n400
 OpenBabel01151817083D

 22 21  0  0  0  0  0  0  0  0999 V2000
   14.3810    8.4849   -2.7009 C   0  0  0  0  0  0  0  0  0  0  0  0
   13.4767    7.5546   -2.1944 C   0  0  0  0  0  0  0  0  0  0  0  0
   13.7638    6.1901   -2.2869 C   0  0  0  0  0  0  0  0  0  0  0  0
   14.9468    5.7328   -2.8771 C   0  0  0  0  0  0  0  0  0  0  0  0
   15.8524    6.6616   -3.3856 C   0  0  0  0  0  0  0  0  0  0  0  0
   15.5582    8.0235   -3.2922 C   0  0  0  0  0  0  0  0  0  0  0  0
   14.1878    9.5528   -2.6434 H   0  0  0  0  0  0  0  0  0  0  0  0
   12.5516    7.8750   -1.7187 H   0  0  0  0  0  0  0  0  0  0  0  0
   15.1570    4.6693   -2.9431 H   0  0  0  0  0  0  0  0  0  0  0  0
   16.7819    6.3434   -3.8504 H   0  0  0  0  0  0  0  0  0  0  0  0
   16.5198    9.0017   -3.8286 N   0  0  0  0  0  0  0  0  0  0  0  0
   16.2369   10.1943   -3.7328 O   0  0  0  0  0  0  0  0  0  0  0  0
   17.5507    8.5705   -4.3406 O   0  0  0  0  0  0  0  0  0  0  0  0
   15.1931    6.1063    0.8039 N   0  0  0  0  0  0  0  0  0  0  0  0
   15.1989    5.1300    1.3200 N   0  0  0  0  0  0  0  0  0  0  0  0
   12.4122    4.1938   -2.3259 C   0  0  0  0  0  0  0  0  0  0  0  0
   12.7449    3.8914   -3.4425 O   0  0  0  0  0  0  0  0  0  0  0  0
   12.8555    5.3321   -1.6771 O   0  0  0  0  0  0  0  0  0  0  0  0
   11.4693    3.4348   -1.4344 C   0  0  0  0  0  0  0  0  0  0  0  0
   11.9816    3.1532   -0.5048 H   0  0  0  0  0  0  0  0  0  0  0  0
   10.6190    4.0734   -1.1609 H   0  0  0  0  0  0  0  0  0  0  0  0
   11.1181    2.5419   -1.9582 H   0  0  0  0  0  0  0  0  0  0  0  0
  1  7  1  0  0  0  0
  1  2  2  0  0  0  0
  2  8  1  0  0  0  0
  3  2  1  0  0  0  0
  3 18  1  0  0  0  0
  4  3  2  0  0  0  0
  5  6  2  0  0  0  0
  5  4  1  0  0  0  0
  6  1  1  0  0  0  0
  9  4  1  0  0  0  0
 10  5  1  0  0  0  0
 11 12  2  0  0  0  0
 11  6  1  0  0  0  0
 13 11  2  0  0  0  0
 14 15  3  0  0  0  0
 16 18  1  0  0  0  0
 16 19  1  0  0  0  0
 17 16  2  0  0  0  0
 19 21  1  0  0  0  0
 19 20  1  0  0  0  0
 22 19  1  0  0  0  0
M  END
