Coordinates from ORCA-job p-NO2-Ph-N2-OOCCH3-B3LYPG-aug-cc-pVDZ-scan-d09-49-n400
 OpenBabel01151817083D

 22 21  0  0  0  0  0  0  0  0999 V2000
   14.3908    8.4794   -2.6733 C   0  0  0  0  0  0  0  0  0  0  0  0
   13.4927    7.5481   -2.1585 C   0  0  0  0  0  0  0  0  0  0  0  0
   13.7878    6.1851   -2.2395 C   0  0  0  0  0  0  0  0  0  0  0  0
   14.9675    5.7293   -2.8360 C   0  0  0  0  0  0  0  0  0  0  0  0
   15.8674    6.6585   -3.3535 C   0  0  0  0  0  0  0  0  0  0  0  0
   15.5686    8.0197   -3.2651 C   0  0  0  0  0  0  0  0  0  0  0  0
   14.1925    9.5467   -2.6230 H   0  0  0  0  0  0  0  0  0  0  0  0
   12.5675    7.8670   -1.6822 H   0  0  0  0  0  0  0  0  0  0  0  0
   15.1808    4.6661   -2.8977 H   0  0  0  0  0  0  0  0  0  0  0  0
   16.7955    6.3416   -3.8221 H   0  0  0  0  0  0  0  0  0  0  0  0
   16.5240    8.9989   -3.8105 N   0  0  0  0  0  0  0  0  0  0  0  0
   16.2366   10.1908   -3.7201 O   0  0  0  0  0  0  0  0  0  0  0  0
   17.5550    8.5691   -4.3236 O   0  0  0  0  0  0  0  0  0  0  0  0
   15.0407    6.1113    0.4581 N   0  0  0  0  0  0  0  0  0  0  0  0
   15.0914    5.1728    1.0379 N   0  0  0  0  0  0  0  0  0  0  0  0
   12.4269    4.1965   -2.2899 C   0  0  0  0  0  0  0  0  0  0  0  0
   12.7522    3.9042   -3.4112 O   0  0  0  0  0  0  0  0  0  0  0  0
   12.8819    5.3244   -1.6301 O   0  0  0  0  0  0  0  0  0  0  0  0
   11.4822    3.4348   -1.4025 C   0  0  0  0  0  0  0  0  0  0  0  0
   11.9933    3.1466   -0.4743 H   0  0  0  0  0  0  0  0  0  0  0  0
   10.6336    4.0742   -1.1259 H   0  0  0  0  0  0  0  0  0  0  0  0
   11.1284    2.5461   -1.9316 H   0  0  0  0  0  0  0  0  0  0  0  0
  1  7  1  0  0  0  0
  1  2  2  0  0  0  0
  2  8  1  0  0  0  0
  3  2  1  0  0  0  0
  3 18  1  0  0  0  0
  4  3  2  0  0  0  0
  5  6  2  0  0  0  0
  5  4  1  0  0  0  0
  6  1  1  0  0  0  0
  9  4  1  0  0  0  0
 10  5  1  0  0  0  0
 11 12  2  0  0  0  0
 11  6  1  0  0  0  0
 13 11  2  0  0  0  0
 14 15  3  0  0  0  0
 16 18  1  0  0  0  0
 16 19  1  0  0  0  0
 17 16  2  0  0  0  0
 19 21  1  0  0  0  0
 19 20  1  0  0  0  0
 22 19  1  0  0  0  0
M  END
