Coordinates from ORCA-job p-NO2-Ph-N2-OOCCH3-B3LYPG-aug-cc-pVDZ-scan-d09-49-n400
 OpenBabel01151817083D

 22 22  0  0  0  0  0  0  0  0999 V2000
   14.8966    8.5088   -2.8231 C   0  0  0  0  0  0  0  0  0  0  0  0
   13.9992    7.9511   -1.9309 C   0  0  0  0  0  0  0  0  0  0  0  0
   14.3319    6.7709   -1.1757 C   0  0  0  0  0  0  0  0  0  0  0  0
   15.6466    6.2221   -1.3857 C   0  0  0  0  0  0  0  0  0  0  0  0
   16.5290    6.7958   -2.2827 C   0  0  0  0  0  0  0  0  0  0  0  0
   16.1579    7.9347   -3.0023 C   0  0  0  0  0  0  0  0  0  0  0  0
   14.6259    9.3966   -3.3904 H   0  0  0  0  0  0  0  0  0  0  0  0
   13.0184    8.3958   -1.7729 H   0  0  0  0  0  0  0  0  0  0  0  0
   15.9278    5.3423   -0.8098 H   0  0  0  0  0  0  0  0  0  0  0  0
   17.5158    6.3639   -2.4336 H   0  0  0  0  0  0  0  0  0  0  0  0
   17.0969    8.5321   -3.9448 N   0  0  0  0  0  0  0  0  0  0  0  0
   16.7351    9.5364   -4.5601 O   0  0  0  0  0  0  0  0  0  0  0  0
   18.2001    7.9991   -4.0750 O   0  0  0  0  0  0  0  0  0  0  0  0
   13.6226    6.3308   -0.4282 N   0  0  0  0  0  0  0  0  0  0  0  0
   12.7308    5.5338   -0.2545 N   0  0  0  0  0  0  0  0  0  0  0  0
   11.4412    3.9100   -1.4861 C   0  0  0  0  0  0  0  0  0  0  0  0
   10.8429    3.6555   -0.4766 O   0  0  0  0  0  0  0  0  0  0  0  0
   12.4553    4.8514   -1.5766 O   0  0  0  0  0  0  0  0  0  0  0  0
   11.2306    3.2821   -2.8410 C   0  0  0  0  0  0  0  0  0  0  0  0
   10.9622    4.0529   -3.5756 H   0  0  0  0  0  0  0  0  0  0  0  0
   12.1588    2.8059   -3.1840 H   0  0  0  0  0  0  0  0  0  0  0  0
   10.4314    2.5392   -2.7650 H   0  0  0  0  0  0  0  0  0  0  0  0
  1  2  1  0  0  0  0
  2  8  1  0  0  0  0
  2  3  2  0  0  0  0
  3 14  1  0  0  0  0
  4  3  1  0  0  0  0
  4  9  1  0  0  0  0
  5  4  2  0  0  0  0
  6  1  2  0  0  0  0
  6  5  1  0  0  0  0
  7  1  1  0  0  0  0
 10  5  1  0  0  0  0
 11  6  1  0  0  0  0
 12 11  2  0  0  0  0
 13 11  2  0  0  0  0
 14 15  1  0  0  0  0
 16 17  2  0  0  0  0
 18 16  1  0  0  0  0
 18 15  1  0  0  0  0
 19 22  1  0  0  0  0
 19 16  1  0  0  0  0
 20 19  1  0  0  0  0
 21 19  1  0  0  0  0
M  RAD  2  14   2  15   2
M  END
