Coordinates from ORCA-job p-NO2-Ph-N2-OOCCH3-B3LYPG-aug-cc-pVDZ-scan-d09-49-n400
 OpenBabel01151817083D

 22 21  0  0  0  0  0  0  0  0999 V2000
   14.3783    8.4851   -2.7062 C   0  0  0  0  0  0  0  0  0  0  0  0
   13.4728    7.5550   -2.2014 C   0  0  0  0  0  0  0  0  0  0  0  0
   13.7587    6.1903   -2.2960 C   0  0  0  0  0  0  0  0  0  0  0  0
   14.9424    5.7328   -2.8845 C   0  0  0  0  0  0  0  0  0  0  0  0
   15.8490    6.6615   -3.3912 C   0  0  0  0  0  0  0  0  0  0  0  0
   15.5556    8.0235   -3.2971 C   0  0  0  0  0  0  0  0  0  0  0  0
   14.1858    9.5531   -2.6474 H   0  0  0  0  0  0  0  0  0  0  0  0
   12.5477    7.8752   -1.7257 H   0  0  0  0  0  0  0  0  0  0  0  0
   15.1521    4.6692   -2.9507 H   0  0  0  0  0  0  0  0  0  0  0  0
   16.7789    6.3430   -3.8551 H   0  0  0  0  0  0  0  0  0  0  0  0
   16.5183    9.0016   -3.8317 N   0  0  0  0  0  0  0  0  0  0  0  0
   16.2367   10.1944   -3.7338 O   0  0  0  0  0  0  0  0  0  0  0  0
   17.5499    8.5702   -4.3420 O   0  0  0  0  0  0  0  0  0  0  0  0
   15.2304    6.1112    0.8747 N   0  0  0  0  0  0  0  0  0  0  0  0
   15.2302    5.1270    1.3757 N   0  0  0  0  0  0  0  0  0  0  0  0
   12.4083    4.1931   -2.3342 C   0  0  0  0  0  0  0  0  0  0  0  0
   12.7427    3.8892   -3.4499 O   0  0  0  0  0  0  0  0  0  0  0  0
   12.8498    5.3326   -1.6864 O   0  0  0  0  0  0  0  0  0  0  0  0
   11.4648    3.4346   -1.4427 C   0  0  0  0  0  0  0  0  0  0  0  0
   11.9763    3.1547   -0.5122 H   0  0  0  0  0  0  0  0  0  0  0  0
   10.6138    4.0731   -1.1710 H   0  0  0  0  0  0  0  0  0  0  0  0
   11.1148    2.5408   -1.9657 H   0  0  0  0  0  0  0  0  0  0  0  0
  1  7  1  0  0  0  0
  1  2  2  0  0  0  0
  2  8  1  0  0  0  0
  3  2  1  0  0  0  0
  3 18  1  0  0  0  0
  4  3  2  0  0  0  0
  5  6  2  0  0  0  0
  5  4  1  0  0  0  0
  6  1  1  0  0  0  0
  9  4  1  0  0  0  0
 10  5  1  0  0  0  0
 11 12  2  0  0  0  0
 11  6  1  0  0  0  0
 13 11  2  0  0  0  0
 14 15  3  0  0  0  0
 16 18  1  0  0  0  0
 16 19  1  0  0  0  0
 17 16  2  0  0  0  0
 19 21  1  0  0  0  0
 19 20  1  0  0  0  0
 22 19  1  0  0  0  0
M  END
