Coordinates from ORCA-job p-NO2-Ph-N2-OOCCH3-B3LYPG-aug-cc-pVDZ-scan-d09-49-n400
 OpenBabel01151817083D

 22 21  0  0  0  0  0  0  0  0999 V2000
   14.8401    8.4449   -2.9030 C   0  0  0  0  0  0  0  0  0  0  0  0
   13.9785    7.9601   -1.9085 C   0  0  0  0  0  0  0  0  0  0  0  0
   14.4330    6.8723   -1.1992 C   0  0  0  0  0  0  0  0  0  0  0  0
   15.6372    6.2215   -1.3377 C   0  0  0  0  0  0  0  0  0  0  0  0
   16.4887    6.7169   -2.3356 C   0  0  0  0  0  0  0  0  0  0  0  0
   16.0719    7.8134   -3.0952 C   0  0  0  0  0  0  0  0  0  0  0  0
   14.5673    9.2984   -3.5193 H   0  0  0  0  0  0  0  0  0  0  0  0
   13.0120    8.4225   -1.7211 H   0  0  0  0  0  0  0  0  0  0  0  0
   15.9217    5.3727   -0.7198 H   0  0  0  0  0  0  0  0  0  0  0  0
   17.4604    6.2660   -2.5237 H   0  0  0  0  0  0  0  0  0  0  0  0
   16.9746    8.3297   -4.1457 N   0  0  0  0  0  0  0  0  0  0  0  0
   16.5927    9.2956   -4.8005 O   0  0  0  0  0  0  0  0  0  0  0  0
   18.0536    7.7640   -4.2978 O   0  0  0  0  0  0  0  0  0  0  0  0
   13.1834    6.2343    0.4866 N   0  0  0  0  0  0  0  0  0  0  0  0
   12.3943    5.3981    0.2409 N   0  0  0  0  0  0  0  0  0  0  0  0
   11.4803    3.9425   -1.5078 C   0  0  0  0  0  0  0  0  0  0  0  0
   10.7205    3.4768   -0.6988 O   0  0  0  0  0  0  0  0  0  0  0  0
   12.4085    4.9212   -1.2438 O   0  0  0  0  0  0  0  0  0  0  0  0
   11.5669    3.5574   -2.9688 C   0  0  0  0  0  0  0  0  0  0  0  0
   11.3530    4.4293   -3.6012 H   0  0  0  0  0  0  0  0  0  0  0  0
   12.5797    3.2092   -3.2103 H   0  0  0  0  0  0  0  0  0  0  0  0
   10.8389    2.7647   -3.1646 H   0  0  0  0  0  0  0  0  0  0  0  0
  1  2  1  0  0  0  0
  2  8  1  0  0  0  0
  2  3  2  0  0  0  0
  4  3  1  0  0  0  0
  4  9  1  0  0  0  0
  5  4  2  0  0  0  0
  6  1  2  0  0  0  0
  6  5  1  0  0  0  0
  7  1  1  0  0  0  0
 10  5  1  0  0  0  0
 11  6  1  0  0  0  0
 12 11  2  0  0  0  0
 13 11  2  0  0  0  0
 15 14  1  0  0  0  0
 16 18  1  0  0  0  0
 16 17  2  0  0  0  0
 18 15  1  0  0  0  0
 19 16  1  0  0  0  0
 20 19  1  0  0  0  0
 21 19  1  0  0  0  0
 22 19  1  0  0  0  0
M  RAD  3   3   2  14   3  15   2
M  END
