Coordinates from ORCA-job p-NO2-Ph-N2-OOCCH3-B3LYPG-aug-cc-pVDZ-scan-d09-49-n400
 OpenBabel01151817083D

 22 22  0  0  0  0  0  0  0  0999 V2000
   14.8306    8.4578   -2.8098 C   0  0  0  0  0  0  0  0  0  0  0  0
   13.9673    7.9475   -1.8506 C   0  0  0  0  0  0  0  0  0  0  0  0
   14.3233    6.8015   -1.0912 C   0  0  0  0  0  0  0  0  0  0  0  0
   15.5945    6.2102   -1.3185 C   0  0  0  0  0  0  0  0  0  0  0  0
   16.4542    6.7260   -2.2779 C   0  0  0  0  0  0  0  0  0  0  0  0
   16.0668    7.8436   -3.0198 C   0  0  0  0  0  0  0  0  0  0  0  0
   14.5559    9.3298   -3.3983 H   0  0  0  0  0  0  0  0  0  0  0  0
   13.0051    8.4216   -1.6646 H   0  0  0  0  0  0  0  0  0  0  0  0
   15.8853    5.3468   -0.7225 H   0  0  0  0  0  0  0  0  0  0  0  0
   17.4247    6.2701   -2.4585 H   0  0  0  0  0  0  0  0  0  0  0  0
   16.9774    8.3860   -4.0333 N   0  0  0  0  0  0  0  0  0  0  0  0
   16.6062    9.3719   -4.6689 O   0  0  0  0  0  0  0  0  0  0  0  0
   18.0594    7.8224   -4.1925 O   0  0  0  0  0  0  0  0  0  0  0  0
   13.5854    6.3846   -0.1986 N   0  0  0  0  0  0  0  0  0  0  0  0
   12.7029    5.5505   -0.1526 N   0  0  0  0  0  0  0  0  0  0  0  0
   11.5271    3.9718   -1.5247 C   0  0  0  0  0  0  0  0  0  0  0  0
   10.8769    3.6485   -0.5692 O   0  0  0  0  0  0  0  0  0  0  0  0
   12.5235    4.9406   -1.5018 O   0  0  0  0  0  0  0  0  0  0  0  0
   11.4143    3.4182   -2.9222 C   0  0  0  0  0  0  0  0  0  0  0  0
   11.1721    4.2241   -3.6277 H   0  0  0  0  0  0  0  0  0  0  0  0
   12.3733    2.9828   -3.2331 H   0  0  0  0  0  0  0  0  0  0  0  0
   10.6310    2.6552   -2.9382 H   0  0  0  0  0  0  0  0  0  0  0  0
  1  2  1  0  0  0  0
  2  8  1  0  0  0  0
  2  3  2  0  0  0  0
  3 14  1  0  0  0  0
  4  3  1  0  0  0  0
  4  9  1  0  0  0  0
  5  4  2  0  0  0  0
  6  1  2  0  0  0  0
  6  5  1  0  0  0  0
  7  1  1  0  0  0  0
 10  5  1  0  0  0  0
 11  6  1  0  0  0  0
 12 11  2  0  0  0  0
 13 11  2  0  0  0  0
 14 15  1  0  0  0  0
 16 18  1  0  0  0  0
 16 17  2  0  0  0  0
 18 15  1  0  0  0  0
 19 16  1  0  0  0  0
 20 19  1  0  0  0  0
 21 19  1  0  0  0  0
 22 19  1  0  0  0  0
M  RAD  2  14   2  15   2
M  END
