Coordinates from ORCA-job p-NO2-Ph-N2-OOCCH3-B3LYPG-aug-cc-pVDZ-scan-d09-49-n400
 OpenBabel01151817083D

 22 22  0  0  0  0  0  0  0  0999 V2000
   14.8223    8.4560   -2.8055 C   0  0  0  0  0  0  0  0  0  0  0  0
   13.9631    7.9562   -1.8354 C   0  0  0  0  0  0  0  0  0  0  0  0
   14.3189    6.8114   -1.0823 C   0  0  0  0  0  0  0  0  0  0  0  0
   15.5773    6.2049   -1.3130 C   0  0  0  0  0  0  0  0  0  0  0  0
   16.4351    6.7091   -2.2819 C   0  0  0  0  0  0  0  0  0  0  0  0
   16.0501    7.8279   -3.0230 C   0  0  0  0  0  0  0  0  0  0  0  0
   14.5521    9.3289   -3.3947 H   0  0  0  0  0  0  0  0  0  0  0  0
   13.0072    8.4400   -1.6420 H   0  0  0  0  0  0  0  0  0  0  0  0
   15.8645    5.3402   -0.7172 H   0  0  0  0  0  0  0  0  0  0  0  0
   17.3999    6.2445   -2.4701 H   0  0  0  0  0  0  0  0  0  0  0  0
   16.9579    8.3590   -4.0475 N   0  0  0  0  0  0  0  0  0  0  0  0
   16.5906    9.3463   -4.6823 O   0  0  0  0  0  0  0  0  0  0  0  0
   18.0329    7.7849   -4.2135 O   0  0  0  0  0  0  0  0  0  0  0  0
   13.5694    6.3989   -0.1560 N   0  0  0  0  0  0  0  0  0  0  0  0
   12.6928    5.5566   -0.1346 N   0  0  0  0  0  0  0  0  0  0  0  0
   11.5459    3.9796   -1.5303 C   0  0  0  0  0  0  0  0  0  0  0  0
   10.8890    3.6416   -0.5846 O   0  0  0  0  0  0  0  0  0  0  0  0
   12.5347    4.9557   -1.4883 O   0  0  0  0  0  0  0  0  0  0  0  0
   11.4516    3.4382   -2.9339 C   0  0  0  0  0  0  0  0  0  0  0  0
   11.2095    4.2487   -3.6343 H   0  0  0  0  0  0  0  0  0  0  0  0
   12.4173    3.0138   -3.2394 H   0  0  0  0  0  0  0  0  0  0  0  0
   10.6751    2.6688   -2.9649 H   0  0  0  0  0  0  0  0  0  0  0  0
  1  2  1  0  0  0  0
  2  8  1  0  0  0  0
  2  3  2  0  0  0  0
  3 14  1  0  0  0  0
  4  3  1  0  0  0  0
  4  9  1  0  0  0  0
  5  4  2  0  0  0  0
  6  1  2  0  0  0  0
  6  5  1  0  0  0  0
  7  1  1  0  0  0  0
 10  5  1  0  0  0  0
 11  6  1  0  0  0  0
 12 11  2  0  0  0  0
 13 11  2  0  0  0  0
 14 15  1  0  0  0  0
 16 18  1  0  0  0  0
 16 17  2  0  0  0  0
 18 15  1  0  0  0  0
 19 16  1  0  0  0  0
 20 19  1  0  0  0  0
 21 19  1  0  0  0  0
 22 19  1  0  0  0  0
M  RAD  2  14   2  15   2
M  END
