Coordinates from ORCA-job p-NO2-Ph-N2-OOCCH3-B3LYPG-aug-cc-pVDZ-scan-d09-49-n400
 OpenBabel01151817083D

 22 21  0  0  0  0  0  0  0  0999 V2000
   14.3867    8.4839   -2.6892 C   0  0  0  0  0  0  0  0  0  0  0  0
   13.4857    7.5531   -2.1779 C   0  0  0  0  0  0  0  0  0  0  0  0
   13.7759    6.1894   -2.2664 C   0  0  0  0  0  0  0  0  0  0  0  0
   14.9575    5.7325   -2.8590 C   0  0  0  0  0  0  0  0  0  0  0  0
   15.8601    6.6615   -3.3721 C   0  0  0  0  0  0  0  0  0  0  0  0
   15.5638    8.0231   -3.2815 C   0  0  0  0  0  0  0  0  0  0  0  0
   14.1914    9.5516   -2.6348 H   0  0  0  0  0  0  0  0  0  0  0  0
   12.5611    7.8727   -1.7007 H   0  0  0  0  0  0  0  0  0  0  0  0
   15.1692    4.6691   -2.9226 H   0  0  0  0  0  0  0  0  0  0  0  0
   16.7890    6.3438   -3.8386 H   0  0  0  0  0  0  0  0  0  0  0  0
   16.5222    9.0017   -3.8228 N   0  0  0  0  0  0  0  0  0  0  0  0
   16.2380   10.1940   -3.7282 O   0  0  0  0  0  0  0  0  0  0  0  0
   17.5539    8.5710   -4.3337 O   0  0  0  0  0  0  0  0  0  0  0  0
   15.1078    6.0980    0.6372 N   0  0  0  0  0  0  0  0  0  0  0  0
   15.1243    5.1374    1.1816 N   0  0  0  0  0  0  0  0  0  0  0  0
   12.4209    4.1961   -2.3067 C   0  0  0  0  0  0  0  0  0  0  0  0
   12.7477    3.8984   -3.4262 O   0  0  0  0  0  0  0  0  0  0  0  0
   12.8702    5.3301   -1.6542 O   0  0  0  0  0  0  0  0  0  0  0  0
   11.4799    3.4352   -1.4146 C   0  0  0  0  0  0  0  0  0  0  0  0
   11.9945    3.1510   -0.4871 H   0  0  0  0  0  0  0  0  0  0  0  0
   10.6308    4.0737   -1.1373 H   0  0  0  0  0  0  0  0  0  0  0  0
   11.1266    2.5440   -1.9399 H   0  0  0  0  0  0  0  0  0  0  0  0
  1  7  1  0  0  0  0
  1  2  2  0  0  0  0
  2  8  1  0  0  0  0
  3  2  1  0  0  0  0
  3 18  1  0  0  0  0
  4  3  2  0  0  0  0
  5  6  2  0  0  0  0
  5  4  1  0  0  0  0
  6  1  1  0  0  0  0
  9  4  1  0  0  0  0
 10  5  1  0  0  0  0
 11 12  2  0  0  0  0
 11  6  1  0  0  0  0
 13 11  2  0  0  0  0
 14 15  3  0  0  0  0
 16 18  1  0  0  0  0
 16 19  1  0  0  0  0
 17 16  2  0  0  0  0
 19 21  1  0  0  0  0
 19 20  1  0  0  0  0
 22 19  1  0  0  0  0
M  END
