Coordinates from ORCA-job p-CH3O-Ph-N2-OOCCH3-B3LYPG-aug-cc-pVDZ-scan-d09-49-n400
 OpenBabel10311713213D

 24 24  0  0  1  0  0  0  0  0999 V2000
   11.3342    7.2652   -0.1854 C   0  0  0  0  0  0  0  0  0  0  0  0
   10.0690    6.9478   -0.7394 C   0  0  0  0  0  0  0  0  0  0  0  0
   10.2249    6.1221   -1.8605 C   0  0  2  0  0  0  0  0  0  0  0  0
   10.3818    4.7080   -1.7813 C   0  0  1  0  0  0  0  0  0  0  0  0
   11.6806    5.7072   -1.8972 C   0  0  2  0  0  0  0  0  0  0  0  0
   12.2905    6.4776   -0.8324 C   0  0  0  0  0  0  0  0  0  0  0  0
   11.5052    7.9279    0.6593 H   0  0  0  0  0  0  0  0  0  0  0  0
    9.1136    7.1516   -0.2588 H   0  0  0  0  0  0  0  0  0  0  0  0
   10.3950    4.0579   -2.6564 H   0  0  0  0  0  0  0  0  0  0  0  0
   12.2553    5.4714   -2.7900 H   0  0  0  0  0  0  0  0  0  0  0  0
    8.9861    6.6190   -3.5115 N   0  0  0  0  0  0  0  0  0  0  0  0
    9.4452    6.9306   -4.4773 N   0  0  0  0  0  0  0  0  0  0  0  0
   13.6381    6.5061   -0.7240 O   0  0  0  0  0  0  0  0  0  0  0  0
   14.1849    7.4798    0.1659 C   0  0  0  0  0  0  0  0  0  0  0  0
   15.2720    7.3985    0.0752 H   0  0  0  0  0  0  0  0  0  0  0  0
   13.8838    7.2730    1.2038 H   0  0  0  0  0  0  0  0  0  0  0  0
   13.8575    8.4912   -0.1186 H   0  0  0  0  0  0  0  0  0  0  0  0
   10.0041    4.0276   -0.6124 O   0  0  0  0  0  0  0  0  0  0  0  0
   10.2392    2.6742   -0.5713 C   0  0  0  0  0  0  0  0  0  0  0  0
   10.7427    2.0582   -1.4799 O   0  0  0  0  0  0  0  0  0  0  0  0
    9.7880    2.1036    0.7454 C   0  0  0  0  0  0  0  0  0  0  0  0
   10.3593    2.5660    1.5618 H   0  0  0  0  0  0  0  0  0  0  0  0
    8.7283    2.3370    0.9125 H   0  0  0  0  0  0  0  0  0  0  0  0
    9.9441    1.0216    0.7441 H   0  0  0  0  0  0  0  0  0  0  0  0
  1  7  1  0  0  0  0
  2  8  1  0  0  0  0
  2  1  1  0  0  0  0
  3  4  1  0  0  0  0
  3  2  1  1  0  0  0
  4  9  1  6  0  0  0
  4 18  1  0  0  0  0
  5 10  1  6  0  0  0
  5  3  1  0  0  0  0
  5  4  1  0  0  0  0
  5  6  1  0  0  0  0
  6 13  1  0  0  0  0
  6  1  2  0  0  0  0
 12 11  3  0  0  0  0
 13 14  1  0  0  0  0
 14 16  1  0  0  0  0
 15 14  1  0  0  0  0
 17 14  1  0  0  0  0
 18 19  1  0  0  0  0
 19 21  1  0  0  0  0
 20 19  2  0  0  0  0
 21 23  1  0  0  0  0
 21 22  1  0  0  0  0
 24 21  1  0  0  0  0
M  RAD  2   2   2   3   2
M  END
