Coordinates from ORCA-job p-CH3O-Ph-N2-OOCCH3-B3LYPG-aug-cc-pVDZ-scan-d09-49-n400
 OpenBabel10311713213D

 24 24  0  0  1  0  0  0  0  0999 V2000
   11.5668    7.3103   -0.0632 C   0  0  0  0  0  0  0  0  0  0  0  0
   10.3285    7.0117   -0.6876 C   0  0  0  0  0  0  0  0  0  0  0  0
   10.5463    6.1821   -1.7893 C   0  0  2  0  0  0  0  0  0  0  0  0
   10.6040    4.7670   -1.7356 C   0  0  1  0  0  0  0  0  0  0  0  0
   11.9866    5.7541   -1.7528 C   0  0  2  0  0  0  0  0  0  0  0  0
   12.5442    6.4996   -0.6525 C   0  0  0  0  0  0  0  0  0  0  0  0
   11.7023    7.9705    0.7899 H   0  0  0  0  0  0  0  0  0  0  0  0
    9.3508    7.2141   -0.2543 H   0  0  0  0  0  0  0  0  0  0  0  0
   10.6930    4.1264   -2.6119 H   0  0  0  0  0  0  0  0  0  0  0  0
   12.6010    5.4756   -2.6051 H   0  0  0  0  0  0  0  0  0  0  0  0
    7.0983    6.2772   -4.7552 N   0  0  0  0  0  0  0  0  0  0  0  0
    7.8533    6.6605   -5.4638 N   0  0  0  0  0  0  0  0  0  0  0  0
   13.8833    6.4878   -0.4454 O   0  0  0  0  0  0  0  0  0  0  0  0
   14.3899    7.4441    0.4846 C   0  0  0  0  0  0  0  0  0  0  0  0
   15.4783    7.3324    0.4742 H   0  0  0  0  0  0  0  0  0  0  0  0
   14.0082    7.2460    1.4976 H   0  0  0  0  0  0  0  0  0  0  0  0
   14.1141    8.4655    0.1808 H   0  0  0  0  0  0  0  0  0  0  0  0
   10.1266    4.0850   -0.6134 O   0  0  0  0  0  0  0  0  0  0  0  0
   10.2659    2.7141   -0.5968 C   0  0  0  0  0  0  0  0  0  0  0  0
   10.7660    2.0862   -1.4980 O   0  0  0  0  0  0  0  0  0  0  0  0
    9.7072    2.1487    0.6793 C   0  0  0  0  0  0  0  0  0  0  0  0
   10.2573    2.5602    1.5363 H   0  0  0  0  0  0  0  0  0  0  0  0
    8.6557    2.4447    0.7912 H   0  0  0  0  0  0  0  0  0  0  0  0
    9.7959    1.0591    0.6628 H   0  0  0  0  0  0  0  0  0  0  0  0
  1  7  1  0  0  0  0
  2  8  1  0  0  0  0
  2  1  1  0  0  0  0
  3  5  1  0  0  0  0
  3  4  1  0  0  0  0
  3  2  1  1  0  0  0
  4  9  1  6  0  0  0
  4 18  1  0  0  0  0
  5 10  1  6  0  0  0
  5  4  1  0  0  0  0
  5  6  1  0  0  0  0
  6 13  1  0  0  0  0
  6  1  2  0  0  0  0
 12 11  3  0  0  0  0
 13 14  1  0  0  0  0
 14 16  1  0  0  0  0
 15 14  1  0  0  0  0
 17 14  1  0  0  0  0
 18 19  1  0  0  0  0
 19 21  1  0  0  0  0
 20 19  2  0  0  0  0
 21 23  1  0  0  0  0
 21 22  1  0  0  0  0
 24 21  1  0  0  0  0
M  RAD  2   2   2   3   2
M  END
