Coordinates from ORCA-job p-CH3O-Ph-N2-OOCCH3-B3LYPG-aug-cc-pVDZ-scan-d09-49-n400
 OpenBabel10311713213D

 24 24  0  0  1  0  0  0  0  0999 V2000
   11.5047    7.2996   -0.0951 C   0  0  0  0  0  0  0  0  0  0  0  0
   10.2563    6.9835   -0.6915 C   0  0  0  0  0  0  0  0  0  0  0  0
   10.4602    6.1495   -1.7913 C   0  0  2  0  0  0  0  0  0  0  0  0
   10.5379    4.7357   -1.7339 C   0  0  1  0  0  0  0  0  0  0  0  0
   11.9053    5.7368   -1.7840 C   0  0  2  0  0  0  0  0  0  0  0  0
   12.4778    6.4953   -0.6994 C   0  0  0  0  0  0  0  0  0  0  0  0
   11.6509    7.9666    0.7509 H   0  0  0  0  0  0  0  0  0  0  0  0
    9.2849    7.1760   -0.2400 H   0  0  0  0  0  0  0  0  0  0  0  0
   10.6120    4.0926   -2.6098 H   0  0  0  0  0  0  0  0  0  0  0  0
   12.5052    5.4636   -2.6483 H   0  0  0  0  0  0  0  0  0  0  0  0
    7.6446    6.4211   -4.4726 N   0  0  0  0  0  0  0  0  0  0  0  0
    8.2431    6.8345   -5.3034 N   0  0  0  0  0  0  0  0  0  0  0  0
   13.8208    6.4989   -0.5206 O   0  0  0  0  0  0  0  0  0  0  0  0
   14.3368    7.4667    0.3921 C   0  0  0  0  0  0  0  0  0  0  0  0
   15.4258    7.3665    0.3593 H   0  0  0  0  0  0  0  0  0  0  0  0
   13.9788    7.2714    1.4143 H   0  0  0  0  0  0  0  0  0  0  0  0
   14.0436    8.4830    0.0876 H   0  0  0  0  0  0  0  0  0  0  0  0
   10.0948    4.0526   -0.5972 O   0  0  0  0  0  0  0  0  0  0  0  0
   10.2548    2.6845   -0.5769 C   0  0  0  0  0  0  0  0  0  0  0  0
   10.7461    2.0594   -1.4850 O   0  0  0  0  0  0  0  0  0  0  0  0
    9.7317    2.1171    0.7135 C   0  0  0  0  0  0  0  0  0  0  0  0
   10.2905    2.5442    1.5572 H   0  0  0  0  0  0  0  0  0  0  0  0
    8.6773    2.3946    0.8439 H   0  0  0  0  0  0  0  0  0  0  0  0
    9.8399    1.0293    0.7018 H   0  0  0  0  0  0  0  0  0  0  0  0
  1  7  1  0  0  0  0
  2  8  1  0  0  0  0
  2  1  1  0  0  0  0
  3  5  1  0  0  0  0
  3  4  1  0  0  0  0
  3  2  1  1  0  0  0
  4  9  1  6  0  0  0
  4 18  1  0  0  0  0
  5 10  1  6  0  0  0
  5  4  1  0  0  0  0
  5  6  1  0  0  0  0
  6 13  1  0  0  0  0
  6  1  2  0  0  0  0
 12 11  3  0  0  0  0
 13 14  1  0  0  0  0
 14 16  1  0  0  0  0
 15 14  1  0  0  0  0
 17 14  1  0  0  0  0
 18 19  1  0  0  0  0
 19 21  1  0  0  0  0
 20 19  2  0  0  0  0
 21 23  1  0  0  0  0
 21 22  1  0  0  0  0
 24 21  1  0  0  0  0
M  RAD  2   2   2   3   2
M  END
