Coordinates from ORCA-job p-CH3O-Ph-N2-OOCCH3-B3LYPG-aug-cc-pVDZ-scan-d09-49-n400
 OpenBabel10311713213D

 24 24  0  0  1  0  0  0  0  0999 V2000
   11.5478    7.3083   -0.0735 C   0  0  0  0  0  0  0  0  0  0  0  0
   10.3056    7.0041   -0.6890 C   0  0  0  0  0  0  0  0  0  0  0  0
   10.5196    6.1710   -1.7876 C   0  0  2  0  0  0  0  0  0  0  0  0
   10.5811    4.7566   -1.7350 C   0  0  1  0  0  0  0  0  0  0  0  0
   11.9608    5.7476   -1.7607 C   0  0  2  0  0  0  0  0  0  0  0  0
   12.5234    6.4980   -0.6658 C   0  0  0  0  0  0  0  0  0  0  0  0
   11.6870    7.9723    0.7761 H   0  0  0  0  0  0  0  0  0  0  0  0
    9.3299    7.2040   -0.2502 H   0  0  0  0  0  0  0  0  0  0  0  0
   10.6655    4.1164   -2.6121 H   0  0  0  0  0  0  0  0  0  0  0  0
   12.5703    5.4703   -2.6169 H   0  0  0  0  0  0  0  0  0  0  0  0
    7.2667    6.3280   -4.6693 N   0  0  0  0  0  0  0  0  0  0  0  0
    7.9789    6.7158   -5.4187 N   0  0  0  0  0  0  0  0  0  0  0  0
   13.8638    6.4902   -0.4671 O   0  0  0  0  0  0  0  0  0  0  0  0
   14.3737    7.4514    0.4560 C   0  0  0  0  0  0  0  0  0  0  0  0
   15.4623    7.3423    0.4394 H   0  0  0  0  0  0  0  0  0  0  0  0
   13.9988    7.2564    1.4721 H   0  0  0  0  0  0  0  0  0  0  0  0
   14.0935    8.4709    0.1500 H   0  0  0  0  0  0  0  0  0  0  0  0
   10.1126    4.0733   -0.6093 O   0  0  0  0  0  0  0  0  0  0  0  0
   10.2555    2.7029   -0.5936 C   0  0  0  0  0  0  0  0  0  0  0  0
   10.7582    2.0771   -1.4949 O   0  0  0  0  0  0  0  0  0  0  0  0
    9.7168    2.1371    0.6909 C   0  0  0  0  0  0  0  0  0  0  0  0
   10.2713    2.5582    1.5404 H   0  0  0  0  0  0  0  0  0  0  0  0
    8.6635    2.4223    0.8125 H   0  0  0  0  0  0  0  0  0  0  0  0
    9.8170    1.0485    0.6780 H   0  0  0  0  0  0  0  0  0  0  0  0
  1  7  1  0  0  0  0
  2  8  1  0  0  0  0
  2  1  1  0  0  0  0
  3  5  1  0  0  0  0
  3  4  1  0  0  0  0
  3  2  1  1  0  0  0
  4  9  1  6  0  0  0
  4 18  1  0  0  0  0
  5 10  1  6  0  0  0
  5  4  1  0  0  0  0
  5  6  1  0  0  0  0
  6 13  1  0  0  0  0
  6  1  2  0  0  0  0
 12 11  3  0  0  0  0
 13 14  1  0  0  0  0
 14 16  1  0  0  0  0
 15 14  1  0  0  0  0
 17 14  1  0  0  0  0
 18 19  1  0  0  0  0
 19 21  1  0  0  0  0
 20 19  2  0  0  0  0
 21 23  1  0  0  0  0
 21 22  1  0  0  0  0
 24 21  1  0  0  0  0
M  RAD  2   2   2   3   2
M  END
