Coordinates from ORCA-job p-CH3O-Ph-N2-OOCCH3-B3LYPG-aug-cc-pVDZ-scan-d09-49-n400
 OpenBabel10311713213D

 24 24  0  0  1  0  0  0  0  0999 V2000
   11.3945    7.2830   -0.1440 C   0  0  0  0  0  0  0  0  0  0  0  0
   10.1296    6.9490   -0.6922 C   0  0  0  0  0  0  0  0  0  0  0  0
   10.2988    6.1215   -1.8051 C   0  0  2  0  0  0  0  0  0  0  0  0
   10.4142    4.7091   -1.7438 C   0  0  1  0  0  0  0  0  0  0  0  0
   11.7517    5.7264   -1.8499 C   0  0  2  0  0  0  0  0  0  0  0  0
   12.3550    6.4951   -0.7879 C   0  0  0  0  0  0  0  0  0  0  0  0
   11.5632    7.9506    0.6972 H   0  0  0  0  0  0  0  0  0  0  0  0
    9.1752    7.1296   -0.2011 H   0  0  0  0  0  0  0  0  0  0  0  0
   10.4582    4.0643   -2.6210 H   0  0  0  0  0  0  0  0  0  0  0  0
   12.3248    5.4668   -2.7366 H   0  0  0  0  0  0  0  0  0  0  0  0
    8.6003    6.5991   -3.8944 N   0  0  0  0  0  0  0  0  0  0  0  0
    9.0699    6.9284   -4.8404 N   0  0  0  0  0  0  0  0  0  0  0  0
   13.7037    6.5224   -0.6667 O   0  0  0  0  0  0  0  0  0  0  0  0
   14.2417    7.4987    0.2245 C   0  0  0  0  0  0  0  0  0  0  0  0
   15.3298    7.4173    0.1447 H   0  0  0  0  0  0  0  0  0  0  0  0
   13.9312    7.2964    1.2607 H   0  0  0  0  0  0  0  0  0  0  0  0
   13.9179    8.5097   -0.0659 H   0  0  0  0  0  0  0  0  0  0  0  0
   10.0301    4.0200   -0.5877 O   0  0  0  0  0  0  0  0  0  0  0  0
   10.2223    2.6568   -0.5700 C   0  0  0  0  0  0  0  0  0  0  0  0
   10.6965    2.0401   -1.4930 O   0  0  0  0  0  0  0  0  0  0  0  0
    9.7639    2.0819    0.7417 C   0  0  0  0  0  0  0  0  0  0  0  0
   10.3416    2.5285    1.5621 H   0  0  0  0  0  0  0  0  0  0  0  0
    8.7077    2.3308    0.9102 H   0  0  0  0  0  0  0  0  0  0  0  0
    9.9016    0.9974    0.7304 H   0  0  0  0  0  0  0  0  0  0  0  0
  1  7  1  0  0  0  0
  2  8  1  0  0  0  0
  2  1  1  0  0  0  0
  3  4  1  0  0  0  0
  3  2  1  1  0  0  0
  4  9  1  6  0  0  0
  4 18  1  0  0  0  0
  5 10  1  6  0  0  0
  5  3  1  0  0  0  0
  5  4  1  0  0  0  0
  5  6  1  0  0  0  0
  6 13  1  0  0  0  0
  6  1  2  0  0  0  0
 12 11  3  0  0  0  0
 13 14  1  0  0  0  0
 14 16  1  0  0  0  0
 15 14  1  0  0  0  0
 17 14  1  0  0  0  0
 18 19  1  0  0  0  0
 19 21  1  0  0  0  0
 20 19  2  0  0  0  0
 21 23  1  0  0  0  0
 21 22  1  0  0  0  0
 24 21  1  0  0  0  0
M  RAD  2   2   2   3   2
M  END
