Coordinates from ORCA-job p-CH3O-Ph-N2-OOCCH3-B3LYPG-aug-cc-pVDZ-scan-d09-49-n400
 OpenBabel10311713213D

 24 23  0  0  0  0  0  0  0  0999 V2000
   11.9603    7.8772   -0.8614 C   0  0  0  0  0  0  0  0  0  0  0  0
   10.6748    7.4164   -1.0306 C   0  0  0  0  0  0  0  0  0  0  0  0
   10.3076    5.9893   -1.0648 C   0  0  0  0  0  0  0  0  0  0  0  0
   11.4893    5.0853   -0.9258 C   0  0  0  0  0  0  0  0  0  0  0  0
   12.7662    5.5592   -0.7828 C   0  0  0  0  0  0  0  0  0  0  0  0
   13.0224    6.9509   -0.7408 C   0  0  0  0  0  0  0  0  0  0  0  0
   12.1458    8.9480   -0.8272 H   0  0  0  0  0  0  0  0  0  0  0  0
    9.8472    8.1231   -1.1222 H   0  0  0  0  0  0  0  0  0  0  0  0
   11.2680    4.0185   -0.9635 H   0  0  0  0  0  0  0  0  0  0  0  0
   13.6132    4.8788   -0.6956 H   0  0  0  0  0  0  0  0  0  0  0  0
    9.3956    5.6722   -1.1595 N   0  0  0  0  0  0  0  0  0  0  0  0
    8.4581    4.9459   -1.2289 N   0  0  0  0  0  0  0  0  0  0  0  0
   14.3081    7.2964   -0.5877 O   0  0  0  0  0  0  0  0  0  0  0  0
   14.6699    8.6846   -0.5410 C   0  0  0  0  0  0  0  0  0  0  0  0
   15.7551    8.6954   -0.4129 H   0  0  0  0  0  0  0  0  0  0  0  0
   14.1890    9.1826    0.3119 H   0  0  0  0  0  0  0  0  0  0  0  0
   14.4003    9.1879   -1.4795 H   0  0  0  0  0  0  0  0  0  0  0  0
    7.2982    2.6812    0.0888 O   0  0  0  0  0  0  0  0  0  0  0  0
    8.3371    2.3686   -0.4817 C   0  0  0  0  0  0  0  0  0  0  0  0
    9.2233    3.2060   -0.9764 O   0  0  0  0  0  0  0  0  0  0  0  0
    8.7260    0.9051   -0.6890 C   0  0  0  0  0  0  0  0  0  0  0  0
    8.0516    0.2595   -0.1163 H   0  0  0  0  0  0  0  0  0  0  0  0
    8.6494    0.6586   -1.7577 H   0  0  0  0  0  0  0  0  0  0  0  0
    9.7668    0.7323   -0.3837 H   0  0  0  0  0  0  0  0  0  0  0  0
  1  7  1  0  0  0  0
  1  6  2  0  0  0  0
  2  1  1  0  0  0  0
  3  2  2  0  0  0  0
  3  4  1  0  0  0  0
  4  5  2  0  0  0  0
  5  6  1  0  0  0  0
  5 10  1  0  0  0  0
  6 13  1  0  0  0  0
  8  2  1  0  0  0  0
  9  4  1  0  0  0  0
 11  3  1  0  0  0  0
 12 11  1  0  0  0  0
 13 14  1  0  0  0  0
 14 15  1  0  0  0  0
 14 16  1  0  0  0  0
 17 14  1  0  0  0  0
 19 18  1  0  0  0  0
 20 19  2  0  0  0  0
 21 19  1  0  0  0  0
 21 24  1  0  0  0  0
 21 22  1  0  0  0  0
 23 21  1  0  0  0  0
M  RAD  3  11   2  12   3  18   2
M  END
