Coordinates from ORCA-job p-CH3O-Ph-N2-OOCCH3-B3LYPG-aug-cc-pVDZ-scan-d09-49-n400
 OpenBabel10311713213D

 24 24  0  0  1  0  0  0  0  0999 V2000
   11.5218    7.4628   -0.5058 C   0  0  0  0  0  0  0  0  0  0  0  0
   10.2829    7.3706   -1.0639 C   0  0  0  0  0  0  0  0  0  0  0  0
    9.9160    6.1756   -1.7589 C   0  0  1  0  0  0  0  0  0  0  0  0
   10.7200    4.9164   -1.7105 C   0  0  1  0  0  0  0  0  0  0  0  0
   12.1189    5.2072   -1.2941 C   0  0  0  0  0  0  0  0  0  0  0  0
   12.4651    6.3678   -0.6756 C   0  0  0  0  0  0  0  0  0  0  0  0
   11.7997    8.3619    0.0354 H   0  0  0  0  0  0  0  0  0  0  0  0
    9.5692    8.1906   -0.9968 H   0  0  0  0  0  0  0  0  0  0  0  0
   10.6847    4.3526   -2.6476 H   0  0  0  0  0  0  0  0  0  0  0  0
   12.8624    4.4271   -1.4408 H   0  0  0  0  0  0  0  0  0  0  0  0
    8.7190    6.1327   -2.4265 N   0  0  0  0  0  0  0  0  0  0  0  0
    7.7316    6.0716   -2.9865 N   0  0  0  0  0  0  0  0  0  0  0  0
   13.7556    6.4688   -0.2272 O   0  0  0  0  0  0  0  0  0  0  0  0
   14.2599    7.7400    0.1743 C   0  0  0  0  0  0  0  0  0  0  0  0
   15.3265    7.5847    0.3646 H   0  0  0  0  0  0  0  0  0  0  0  0
   13.7798    8.0940    1.0992 H   0  0  0  0  0  0  0  0  0  0  0  0
   14.1379    8.4920   -0.6196 H   0  0  0  0  0  0  0  0  0  0  0  0
   10.0423    4.0130   -0.7017 O   0  0  0  0  0  0  0  0  0  0  0  0
   10.2403    2.6861   -0.8597 C   0  0  0  0  0  0  0  0  0  0  0  0
   10.9116    2.2011   -1.7495 O   0  0  0  0  0  0  0  0  0  0  0  0
    9.5106    1.8920    0.1973 C   0  0  0  0  0  0  0  0  0  0  0  0
    9.7545    2.2751    1.1962 H   0  0  0  0  0  0  0  0  0  0  0  0
    8.4264    2.0025    0.0561 H   0  0  0  0  0  0  0  0  0  0  0  0
    9.7868    0.8369    0.1134 H   0  0  0  0  0  0  0  0  0  0  0  0
  1  7  1  0  0  0  0
  2  8  1  0  0  0  0
  2  1  2  0  0  0  0
  3 11  1  1  0  0  0
  3  4  1  0  0  0  0
  3  2  1  0  0  0  0
  4  9  1  6  0  0  0
  4  5  1  0  0  0  0
  4 18  1  0  0  0  0
  5  6  2  0  0  0  0
  6  1  1  0  0  0  0
  6 13  1  0  0  0  0
 10  5  1  0  0  0  0
 12 11  1  0  0  0  0
 13 14  1  0  0  0  0
 14 15  1  0  0  0  0
 14 16  1  0  0  0  0
 17 14  1  0  0  0  0
 19 18  1  0  0  0  0
 19 21  1  0  0  0  0
 20 19  2  0  0  0  0
 21 22  1  0  0  0  0
 23 21  1  0  0  0  0
 24 21  1  0  0  0  0
M  RAD  3   3   2  11   2  12   3
M  END
