Coordinates from ORCA-job p-CH3O-Ph-N2-OOCCH3-B3LYPG-aug-cc-pVDZ-scan-d09-49-n400
 OpenBabel10311713213D

 24 24  0  0  1  0  0  0  0  0999 V2000
   11.4451    7.2892   -0.1200 C   0  0  0  0  0  0  0  0  0  0  0  0
   10.1876    6.9608   -0.6884 C   0  0  0  0  0  0  0  0  0  0  0  0
   10.3732    6.1291   -1.7961 C   0  0  2  0  0  0  0  0  0  0  0  0
   10.4711    4.7153   -1.7347 C   0  0  1  0  0  0  0  0  0  0  0  0
   11.8235    5.7288   -1.8181 C   0  0  2  0  0  0  0  0  0  0  0  0
   12.4121    6.4944   -0.7466 C   0  0  0  0  0  0  0  0  0  0  0  0
   11.6036    7.9572    0.7229 H   0  0  0  0  0  0  0  0  0  0  0  0
    9.2257    7.1451   -0.2134 H   0  0  0  0  0  0  0  0  0  0  0  0
   10.5315    4.0699   -2.6103 H   0  0  0  0  0  0  0  0  0  0  0  0
   12.4081    5.4615   -2.6948 H   0  0  0  0  0  0  0  0  0  0  0  0
    8.1673    6.5262   -4.1991 N   0  0  0  0  0  0  0  0  0  0  0  0
    8.6602    6.9404   -5.0975 N   0  0  0  0  0  0  0  0  0  0  0  0
   13.7586    6.5121   -0.5987 O   0  0  0  0  0  0  0  0  0  0  0  0
   14.2855    7.4854    0.3020 C   0  0  0  0  0  0  0  0  0  0  0  0
   15.3745    7.3964    0.2439 H   0  0  0  0  0  0  0  0  0  0  0  0
   13.9534    7.2863    1.3322 H   0  0  0  0  0  0  0  0  0  0  0  0
   13.9747    8.4985    0.0046 H   0  0  0  0  0  0  0  0  0  0  0  0
   10.0620    4.0298   -0.5864 O   0  0  0  0  0  0  0  0  0  0  0  0
   10.2366    2.6637   -0.5675 C   0  0  0  0  0  0  0  0  0  0  0  0
   10.7173    2.0422   -1.4837 O   0  0  0  0  0  0  0  0  0  0  0  0
    9.7527    2.0940    0.7372 C   0  0  0  0  0  0  0  0  0  0  0  0
   10.3243    2.5331    1.5660 H   0  0  0  0  0  0  0  0  0  0  0  0
    8.6975    2.3559    0.8909 H   0  0  0  0  0  0  0  0  0  0  0  0
    9.8772    1.0079    0.7272 H   0  0  0  0  0  0  0  0  0  0  0  0
  1  7  1  0  0  0  0
  2  8  1  0  0  0  0
  2  1  1  0  0  0  0
  3  4  1  0  0  0  0
  3  2  1  1  0  0  0
  4  9  1  6  0  0  0
  4 18  1  0  0  0  0
  5 10  1  6  0  0  0
  5  3  1  0  0  0  0
  5  4  1  0  0  0  0
  5  6  1  0  0  0  0
  6 13  1  0  0  0  0
  6  1  2  0  0  0  0
 12 11  3  0  0  0  0
 13 14  1  0  0  0  0
 14 16  1  0  0  0  0
 15 14  1  0  0  0  0
 17 14  1  0  0  0  0
 18 19  1  0  0  0  0
 19 21  1  0  0  0  0
 20 19  2  0  0  0  0
 21 23  1  0  0  0  0
 21 22  1  0  0  0  0
 24 21  1  0  0  0  0
M  RAD  2   2   2   3   2
M  END
