Coordinates from ORCA-job p-CH3O-Ph-N2-OOCCH3-B3LYPG-aug-cc-pVDZ-scan-d09-49-n400
 OpenBabel10311713213D

 24 24  0  0  1  0  0  0  0  0999 V2000
   11.4996    7.4320   -0.4745 C   0  0  0  0  0  0  0  0  0  0  0  0
   10.2629    7.3454   -1.0184 C   0  0  0  0  0  0  0  0  0  0  0  0
    9.8586    6.1640   -1.7708 C   0  0  0  0  0  0  0  0  0  0  0  0
   10.7198    4.9088   -1.7012 C   0  0  1  0  0  0  0  0  0  0  0  0
   12.1202    5.2004   -1.2927 C   0  0  0  0  0  0  0  0  0  0  0  0
   12.4640    6.3545   -0.6707 C   0  0  0  0  0  0  0  0  0  0  0  0
   11.7701    8.3192    0.0910 H   0  0  0  0  0  0  0  0  0  0  0  0
    9.5395    8.1541   -0.9152 H   0  0  0  0  0  0  0  0  0  0  0  0
   10.6857    4.3594   -2.6478 H   0  0  0  0  0  0  0  0  0  0  0  0
   12.8642    4.4232   -1.4538 H   0  0  0  0  0  0  0  0  0  0  0  0
    8.8672    6.1320   -2.3735 N   0  0  0  0  0  0  0  0  0  0  0  0
    7.8866    6.0830   -2.9764 N   0  0  0  0  0  0  0  0  0  0  0  0
   13.7540    6.4732   -0.2300 O   0  0  0  0  0  0  0  0  0  0  0  0
   14.2561    7.7589    0.1304 C   0  0  0  0  0  0  0  0  0  0  0  0
   15.3289    7.6179    0.2951 H   0  0  0  0  0  0  0  0  0  0  0  0
   13.7978    8.1280    1.0603 H   0  0  0  0  0  0  0  0  0  0  0  0
   14.1051    8.4913   -0.6763 H   0  0  0  0  0  0  0  0  0  0  0  0
   10.0474    4.0225   -0.7031 O   0  0  0  0  0  0  0  0  0  0  0  0
   10.2382    2.6900   -0.8579 C   0  0  0  0  0  0  0  0  0  0  0  0
   10.9193    2.2045   -1.7376 O   0  0  0  0  0  0  0  0  0  0  0  0
    9.4825    1.9052    0.1856 C   0  0  0  0  0  0  0  0  0  0  0  0
    9.6429    2.3356    1.1817 H   0  0  0  0  0  0  0  0  0  0  0  0
    8.4063    1.9590   -0.0310 H   0  0  0  0  0  0  0  0  0  0  0  0
    9.8068    0.8609    0.1585 H   0  0  0  0  0  0  0  0  0  0  0  0
  1  7  1  0  0  0  0
  2  8  1  0  0  0  0
  2  1  1  0  0  0  0
  3  4  1  0  0  0  0
  3  2  2  0  0  0  0
  4  9  1  6  0  0  0
  4  5  1  0  0  0  0
  4 18  1  0  0  0  0
  5  6  1  0  0  0  0
  6  1  2  0  0  0  0
  6 13  1  0  0  0  0
 10  5  1  0  0  0  0
 11  3  1  0  0  0  0
 12 11  1  0  0  0  0
 13 14  1  0  0  0  0
 14 15  1  0  0  0  0
 14 16  1  0  0  0  0
 17 14  1  0  0  0  0
 19 18  1  0  0  0  0
 19 21  1  0  0  0  0
 20 19  2  0  0  0  0
 21 22  1  0  0  0  0
 23 21  1  0  0  0  0
 24 21  1  0  0  0  0
M  RAD  3   5   2  11   2  12   3
M  END
