Coordinates from ORCA-job p-CH3O-Ph-N2-OOCCH3-B3LYPG-aug-cc-pVDZ-scan-d09-49-n400
 OpenBabel10311713213D

 24 24  0  0  1  0  0  0  0  0999 V2000
   11.5467    7.3097   -0.0733 C   0  0  0  0  0  0  0  0  0  0  0  0
   10.3044    7.0046   -0.6873 C   0  0  0  0  0  0  0  0  0  0  0  0
   10.5173    6.1704   -1.7887 C   0  0  2  0  0  0  0  0  0  0  0  0
   10.5806    4.7547   -1.7342 C   0  0  1  0  0  0  0  0  0  0  0  0
   11.9593    5.7471   -1.7619 C   0  0  2  0  0  0  0  0  0  0  0  0
   12.5217    6.4990   -0.6669 C   0  0  0  0  0  0  0  0  0  0  0  0
   11.6867    7.9740    0.7757 H   0  0  0  0  0  0  0  0  0  0  0  0
    9.3295    7.2042   -0.2468 H   0  0  0  0  0  0  0  0  0  0  0  0
   10.6654    4.1135   -2.6106 H   0  0  0  0  0  0  0  0  0  0  0  0
   12.5686    5.4700   -2.6183 H   0  0  0  0  0  0  0  0  0  0  0  0
    7.2820    6.3304   -4.6599 N   0  0  0  0  0  0  0  0  0  0  0  0
    7.9885    6.7186   -5.4138 N   0  0  0  0  0  0  0  0  0  0  0  0
   13.8624    6.4921   -0.4696 O   0  0  0  0  0  0  0  0  0  0  0  0
   14.3727    7.4539    0.4525 C   0  0  0  0  0  0  0  0  0  0  0  0
   15.4613    7.3455    0.4349 H   0  0  0  0  0  0  0  0  0  0  0  0
   13.9989    7.2593    1.4691 H   0  0  0  0  0  0  0  0  0  0  0  0
   14.0917    8.4732    0.1462 H   0  0  0  0  0  0  0  0  0  0  0  0
   10.1136    4.0714   -0.6077 O   0  0  0  0  0  0  0  0  0  0  0  0
   10.2580    2.7012   -0.5917 C   0  0  0  0  0  0  0  0  0  0  0  0
   10.7564    2.0750   -1.4951 O   0  0  0  0  0  0  0  0  0  0  0  0
    9.7149    2.1345    0.6906 C   0  0  0  0  0  0  0  0  0  0  0  0
   10.2690    2.5523    1.5420 H   0  0  0  0  0  0  0  0  0  0  0  0
    8.6622    2.4228    0.8108 H   0  0  0  0  0  0  0  0  0  0  0  0
    9.8117    1.0457    0.6759 H   0  0  0  0  0  0  0  0  0  0  0  0
  1  7  1  0  0  0  0
  2  8  1  0  0  0  0
  2  1  1  0  0  0  0
  3  5  1  0  0  0  0
  3  4  1  0  0  0  0
  3  2  1  1  0  0  0
  4  9  1  6  0  0  0
  4 18  1  0  0  0  0
  5 10  1  6  0  0  0
  5  4  1  0  0  0  0
  5  6  1  0  0  0  0
  6 13  1  0  0  0  0
  6  1  2  0  0  0  0
 12 11  3  0  0  0  0
 13 14  1  0  0  0  0
 14 16  1  0  0  0  0
 15 14  1  0  0  0  0
 17 14  1  0  0  0  0
 18 19  1  0  0  0  0
 19 21  1  0  0  0  0
 20 19  2  0  0  0  0
 21 23  1  0  0  0  0
 21 22  1  0  0  0  0
 24 21  1  0  0  0  0
M  RAD  2   2   2   3   2
M  END
