Coordinates from ORCA-job p-CH3O-Ph-N2-OOCCH3-B3LYPG-aug-cc-pVDZ-scan-d09-49-n400
 OpenBabel10311713213D

 24 24  0  0  1  0  0  0  0  0999 V2000
   11.3215    7.2526   -0.1885 C   0  0  0  0  0  0  0  0  0  0  0  0
   10.0578    6.9486   -0.7482 C   0  0  0  0  0  0  0  0  0  0  0  0
   10.2099    6.1262   -1.8781 C   0  0  2  0  0  0  0  0  0  0  0  0
   10.3784    4.7111   -1.7926 C   0  0  1  0  0  0  0  0  0  0  0  0
   11.6682    5.7086   -1.9130 C   0  0  2  0  0  0  0  0  0  0  0  0
   12.2790    6.4730   -0.8439 C   0  0  0  0  0  0  0  0  0  0  0  0
   11.4920    7.9065    0.6631 H   0  0  0  0  0  0  0  0  0  0  0  0
    9.1010    7.1648   -0.2761 H   0  0  0  0  0  0  0  0  0  0  0  0
   10.3867    4.0604   -2.6673 H   0  0  0  0  0  0  0  0  0  0  0  0
   12.2411    5.4773   -2.8080 H   0  0  0  0  0  0  0  0  0  0  0  0
    9.0530    6.6099   -3.4269 N   0  0  0  0  0  0  0  0  0  0  0  0
    9.5101    6.9066   -4.4040 N   0  0  0  0  0  0  0  0  0  0  0  0
   13.6264    6.5053   -0.7400 O   0  0  0  0  0  0  0  0  0  0  0  0
   14.1734    7.4718    0.1579 C   0  0  0  0  0  0  0  0  0  0  0  0
   15.2604    7.3950    0.0620 H   0  0  0  0  0  0  0  0  0  0  0  0
   13.8771    7.2530    1.1946 H   0  0  0  0  0  0  0  0  0  0  0  0
   13.8413    8.4848   -0.1151 H   0  0  0  0  0  0  0  0  0  0  0  0
    9.9995    4.0348   -0.6215 O   0  0  0  0  0  0  0  0  0  0  0  0
   10.2462    2.6842   -0.5719 C   0  0  0  0  0  0  0  0  0  0  0  0
   10.7594    2.0680   -1.4750 O   0  0  0  0  0  0  0  0  0  0  0  0
    9.7933    2.1162    0.7453 C   0  0  0  0  0  0  0  0  0  0  0  0
   10.3650    2.5794    1.5609 H   0  0  0  0  0  0  0  0  0  0  0  0
    8.7338    2.3508    0.9119 H   0  0  0  0  0  0  0  0  0  0  0  0
    9.9490    1.0341    0.7462 H   0  0  0  0  0  0  0  0  0  0  0  0
  1  7  1  0  0  0  0
  2  8  1  0  0  0  0
  2  1  1  0  0  0  0
  3  4  1  0  0  0  0
  3  2  1  1  0  0  0
  4  9  1  6  0  0  0
  4 18  1  0  0  0  0
  5 10  1  6  0  0  0
  5  3  1  0  0  0  0
  5  4  1  0  0  0  0
  5  6  1  0  0  0  0
  6 13  1  0  0  0  0
  6  1  2  0  0  0  0
 12 11  3  0  0  0  0
 13 14  1  0  0  0  0
 14 16  1  0  0  0  0
 15 14  1  0  0  0  0
 17 14  1  0  0  0  0
 18 19  1  0  0  0  0
 19 21  1  0  0  0  0
 20 19  2  0  0  0  0
 21 24  1  0  0  0  0
 21 23  1  0  0  0  0
 21 22  1  0  0  0  0
M  RAD  2   2   2   3   2
M  END
