Coordinates from ORCA-job p-CH3O-Ph-N2-OOCCH3-B3LYPG-aug-cc-pVDZ-scan-d09-49-n400
 OpenBabel10311713213D

 24 24  0  0  1  0  0  0  0  0999 V2000
   11.4970    7.2975   -0.0979 C   0  0  0  0  0  0  0  0  0  0  0  0
   10.2483    6.9808   -0.6920 C   0  0  0  0  0  0  0  0  0  0  0  0
   10.4497    6.1475   -1.7961 C   0  0  2  0  0  0  0  0  0  0  0  0
   10.5309    4.7325   -1.7351 C   0  0  1  0  0  0  0  0  0  0  0  0
   11.8959    5.7348   -1.7896 C   0  0  2  0  0  0  0  0  0  0  0  0
   12.4692    6.4941   -0.7053 C   0  0  0  0  0  0  0  0  0  0  0  0
   11.6445    7.9638    0.7483 H   0  0  0  0  0  0  0  0  0  0  0  0
    9.2783    7.1732   -0.2370 H   0  0  0  0  0  0  0  0  0  0  0  0
   10.6044    4.0875   -2.6099 H   0  0  0  0  0  0  0  0  0  0  0  0
   12.4952    5.4622   -2.6546 H   0  0  0  0  0  0  0  0  0  0  0  0
    7.7025    6.4372   -4.4452 N   0  0  0  0  0  0  0  0  0  0  0  0
    8.2839    6.8554   -5.2864 N   0  0  0  0  0  0  0  0  0  0  0  0
   13.8126    6.4988   -0.5292 O   0  0  0  0  0  0  0  0  0  0  0  0
   14.3296    7.4665    0.3832 C   0  0  0  0  0  0  0  0  0  0  0  0
   15.4186    7.3672    0.3479 H   0  0  0  0  0  0  0  0  0  0  0  0
   13.9740    7.2702    1.4060 H   0  0  0  0  0  0  0  0  0  0  0  0
   14.0349    8.4827    0.0800 H   0  0  0  0  0  0  0  0  0  0  0  0
   10.0913    4.0501   -0.5966 O   0  0  0  0  0  0  0  0  0  0  0  0
   10.2532    2.6823   -0.5751 C   0  0  0  0  0  0  0  0  0  0  0  0
   10.7463    2.0571   -1.4822 O   0  0  0  0  0  0  0  0  0  0  0  0
    9.7366    2.1160    0.7184 C   0  0  0  0  0  0  0  0  0  0  0  0
   10.2962    2.5474    1.5593 H   0  0  0  0  0  0  0  0  0  0  0  0
    8.6815    2.3896    0.8514 H   0  0  0  0  0  0  0  0  0  0  0  0
    9.8491    1.0286    0.7091 H   0  0  0  0  0  0  0  0  0  0  0  0
  1  7  1  0  0  0  0
  2  8  1  0  0  0  0
  2  1  1  0  0  0  0
  3  5  1  0  0  0  0
  3  4  1  0  0  0  0
  3  2  1  1  0  0  0
  4  9  1  6  0  0  0
  4 18  1  0  0  0  0
  5 10  1  6  0  0  0
  5  4  1  0  0  0  0
  5  6  1  0  0  0  0
  6 13  1  0  0  0  0
  6  1  2  0  0  0  0
 12 11  3  0  0  0  0
 13 14  1  0  0  0  0
 14 16  1  0  0  0  0
 15 14  1  0  0  0  0
 17 14  1  0  0  0  0
 18 19  1  0  0  0  0
 19 21  1  0  0  0  0
 20 19  2  0  0  0  0
 21 23  1  0  0  0  0
 21 22  1  0  0  0  0
 24 21  1  0  0  0  0
M  RAD  2   2   2   3   2
M  END
