Coordinates from ORCA-job p-CH3O-Ph-N2-OOCCH3-B3LYPG-aug-cc-pVDZ-scan-d09-49-n400
 OpenBabel10311713213D

 24 24  0  0  1  0  0  0  0  0999 V2000
   11.4910    7.3328   -0.4467 C   0  0  0  0  0  0  0  0  0  0  0  0
   10.2735    7.2190   -1.0632 C   0  0  0  0  0  0  0  0  0  0  0  0
   10.2129    6.2552   -2.1061 C   0  0  1  0  0  0  0  0  0  0  0  0
   10.7542    4.9158   -1.9352 C   0  0  1  0  0  0  0  0  0  0  0  0
   12.1853    5.2665   -1.5951 C   0  0  0  0  0  0  0  0  0  0  0  0
   12.4935    6.3422   -0.8070 C   0  0  0  0  0  0  0  0  0  0  0  0
   11.6998    8.1571    0.2275 H   0  0  0  0  0  0  0  0  0  0  0  0
    9.4656    7.9252   -0.8854 H   0  0  0  0  0  0  0  0  0  0  0  0
   10.6960    4.2726   -2.8144 H   0  0  0  0  0  0  0  0  0  0  0  0
   12.9497    4.5381   -1.8547 H   0  0  0  0  0  0  0  0  0  0  0  0
    8.3609    6.0407   -2.5329 N   0  0  0  0  0  0  0  0  0  0  0  0
    7.4643    6.0162   -3.1860 N   0  0  0  0  0  0  0  0  0  0  0  0
   13.7898    6.4463   -0.3952 O   0  0  0  0  0  0  0  0  0  0  0  0
   14.2021    7.6012    0.3334 C   0  0  0  0  0  0  0  0  0  0  0  0
   15.2790    7.4806    0.4864 H   0  0  0  0  0  0  0  0  0  0  0  0
   13.7031    7.6595    1.3120 H   0  0  0  0  0  0  0  0  0  0  0  0
   14.0154    8.5230   -0.2370 H   0  0  0  0  0  0  0  0  0  0  0  0
   10.0839    4.1445   -0.8198 O   0  0  0  0  0  0  0  0  0  0  0  0
   10.3009    2.8127   -0.8061 C   0  0  0  0  0  0  0  0  0  0  0  0
   10.9720    2.2246   -1.6320 O   0  0  0  0  0  0  0  0  0  0  0  0
    9.6068    2.1517    0.3615 C   0  0  0  0  0  0  0  0  0  0  0  0
   10.0785    2.4819    1.2975 H   0  0  0  0  0  0  0  0  0  0  0  0
    8.5515    2.4505    0.4011 H   0  0  0  0  0  0  0  0  0  0  0  0
    9.6939    1.0652    0.2688 H   0  0  0  0  0  0  0  0  0  0  0  0
  1  7  1  0  0  0  0
  2  8  1  0  0  0  0
  2  1  2  0  0  0  0
  3 11  1  1  0  0  0
  3  4  1  0  0  0  0
  3  2  1  0  0  0  0
  4  9  1  6  0  0  0
  4  5  1  0  0  0  0
  4 18  1  0  0  0  0
  5  6  2  0  0  0  0
  6  1  1  0  0  0  0
  6 13  1  0  0  0  0
 10  5  1  0  0  0  0
 12 11  1  0  0  0  0
 13 14  1  0  0  0  0
 14 15  1  0  0  0  0
 14 16  1  0  0  0  0
 17 14  1  0  0  0  0
 18 19  1  0  0  0  0
 19 21  1  0  0  0  0
 20 19  2  0  0  0  0
 21 23  1  0  0  0  0
 21 22  1  0  0  0  0
 24 21  1  0  0  0  0
M  RAD  3   3   2  11   2  12   3
M  END
