Coordinates from ORCA-job p-CH3O-Ph-N2-OOCCH3-B3LYPG-aug-cc-pVDZ-scan-d09-49-n400
 OpenBabel10311713213D

 24 24  0  0  1  0  0  0  0  0999 V2000
   11.4555    7.2902   -0.1166 C   0  0  0  0  0  0  0  0  0  0  0  0
   10.2003    6.9635   -0.6906 C   0  0  0  0  0  0  0  0  0  0  0  0
   10.3899    6.1310   -1.7974 C   0  0  2  0  0  0  0  0  0  0  0  0
   10.4844    4.7170   -1.7349 C   0  0  1  0  0  0  0  0  0  0  0  0
   11.8397    5.7290   -1.8126 C   0  0  2  0  0  0  0  0  0  0  0  0
   12.4243    6.4939   -0.7386 C   0  0  0  0  0  0  0  0  0  0  0  0
   11.6111    7.9582    0.7269 H   0  0  0  0  0  0  0  0  0  0  0  0
    9.2364    7.1494   -0.2201 H   0  0  0  0  0  0  0  0  0  0  0  0
   10.5487    4.0709   -2.6097 H   0  0  0  0  0  0  0  0  0  0  0  0
   12.4277    5.4597   -2.6863 H   0  0  0  0  0  0  0  0  0  0  0  0
    8.0729    6.5092   -4.2517 N   0  0  0  0  0  0  0  0  0  0  0  0
    8.5757    6.9364   -5.1382 N   0  0  0  0  0  0  0  0  0  0  0  0
   13.7701    6.5095   -0.5841 O   0  0  0  0  0  0  0  0  0  0  0  0
   14.2942    7.4820    0.3191 C   0  0  0  0  0  0  0  0  0  0  0  0
   15.3832    7.3914    0.2663 H   0  0  0  0  0  0  0  0  0  0  0  0
   13.9567    7.2837    1.3476 H   0  0  0  0  0  0  0  0  0  0  0  0
   13.9864    8.4956    0.0200 H   0  0  0  0  0  0  0  0  0  0  0  0
   10.0684    4.0329   -0.5884 O   0  0  0  0  0  0  0  0  0  0  0  0
   10.2401    2.6663   -0.5680 C   0  0  0  0  0  0  0  0  0  0  0  0
   10.7242    2.0435   -1.4815 O   0  0  0  0  0  0  0  0  0  0  0  0
    9.7494    2.0984    0.7348 C   0  0  0  0  0  0  0  0  0  0  0  0
   10.3182    2.5369    1.5658 H   0  0  0  0  0  0  0  0  0  0  0  0
    8.6941    2.3625    0.8839 H   0  0  0  0  0  0  0  0  0  0  0  0
    9.8718    1.0120    0.7261 H   0  0  0  0  0  0  0  0  0  0  0  0
  1  7  1  0  0  0  0
  2  8  1  0  0  0  0
  2  1  1  0  0  0  0
  3  4  1  0  0  0  0
  3  2  1  1  0  0  0
  4  9  1  6  0  0  0
  4 18  1  0  0  0  0
  5 10  1  6  0  0  0
  5  3  1  0  0  0  0
  5  4  1  0  0  0  0
  5  6  1  0  0  0  0
  6 13  1  0  0  0  0
  6  1  2  0  0  0  0
 12 11  3  0  0  0  0
 13 14  1  0  0  0  0
 14 16  1  0  0  0  0
 15 14  1  0  0  0  0
 17 14  1  0  0  0  0
 18 19  1  0  0  0  0
 19 21  1  0  0  0  0
 20 19  2  0  0  0  0
 21 23  1  0  0  0  0
 21 22  1  0  0  0  0
 24 21  1  0  0  0  0
M  RAD  2   2   2   3   2
M  END
