Coordinates from ORCA-job p-CH3O-Ph-N2-OOCCH3-B3LYPG-aug-cc-pVDZ-scan-d09-49-n400
 OpenBabel10311713213D

 24 24  0  0  1  0  0  0  0  0999 V2000
   11.5861    7.3143   -0.0532 C   0  0  0  0  0  0  0  0  0  0  0  0
   10.3512    7.0233   -0.6874 C   0  0  0  0  0  0  0  0  0  0  0  0
   10.5729    6.1950   -1.7911 C   0  0  2  0  0  0  0  0  0  0  0  0
   10.6239    4.7790   -1.7385 C   0  0  1  0  0  0  0  0  0  0  0  0
   12.0112    5.7595   -1.7439 C   0  0  2  0  0  0  0  0  0  0  0  0
   12.5638    6.5001   -0.6375 C   0  0  0  0  0  0  0  0  0  0  0  0
   11.7185    7.9717    0.8025 H   0  0  0  0  0  0  0  0  0  0  0  0
    9.3716    7.2296   -0.2606 H   0  0  0  0  0  0  0  0  0  0  0  0
   10.7170    4.1391   -2.6150 H   0  0  0  0  0  0  0  0  0  0  0  0
   12.6307    5.4796   -2.5921 H   0  0  0  0  0  0  0  0  0  0  0  0
    6.9321    6.2252   -4.8411 N   0  0  0  0  0  0  0  0  0  0  0  0
    7.7266    6.6014   -5.5086 N   0  0  0  0  0  0  0  0  0  0  0  0
   13.9013    6.4815   -0.4206 O   0  0  0  0  0  0  0  0  0  0  0  0
   14.4055    7.4332    0.5153 C   0  0  0  0  0  0  0  0  0  0  0  0
   15.4934    7.3164    0.5127 H   0  0  0  0  0  0  0  0  0  0  0  0
   14.0155    7.2347    1.5251 H   0  0  0  0  0  0  0  0  0  0  0  0
   14.1368    8.4566    0.2119 H   0  0  0  0  0  0  0  0  0  0  0  0
   10.1348    4.0970   -0.6209 O   0  0  0  0  0  0  0  0  0  0  0  0
   10.2677    2.7254   -0.6054 C   0  0  0  0  0  0  0  0  0  0  0  0
   10.7749    2.0969   -1.5021 O   0  0  0  0  0  0  0  0  0  0  0  0
    9.7015    2.1612    0.6680 C   0  0  0  0  0  0  0  0  0  0  0  0
   10.2484    2.5713    1.5277 H   0  0  0  0  0  0  0  0  0  0  0  0
    8.6503    2.4597    0.7748 H   0  0  0  0  0  0  0  0  0  0  0  0
    9.7878    1.0714    0.6518 H   0  0  0  0  0  0  0  0  0  0  0  0
  1  7  1  0  0  0  0
  2  8  1  0  0  0  0
  2  1  1  0  0  0  0
  3  5  1  0  0  0  0
  3  4  1  0  0  0  0
  3  2  1  1  0  0  0
  4  9  1  6  0  0  0
  4 18  1  0  0  0  0
  5 10  1  6  0  0  0
  5  4  1  0  0  0  0
  5  6  1  0  0  0  0
  6 13  1  0  0  0  0
  6  1  2  0  0  0  0
 12 11  3  0  0  0  0
 13 14  1  0  0  0  0
 14 16  1  0  0  0  0
 15 14  1  0  0  0  0
 17 14  1  0  0  0  0
 18 19  1  0  0  0  0
 19 21  1  0  0  0  0
 20 19  2  0  0  0  0
 21 23  1  0  0  0  0
 21 22  1  0  0  0  0
 24 21  1  0  0  0  0
M  RAD  2   2   2   3   2
M  END
