Coordinates from ORCA-job p-CH3O-Ph-N2-OOCCH3-B3LYPG-aug-cc-pVDZ-scan-d09-49-n400
 OpenBabel10311713213D

 24 24  0  0  1  0  0  0  0  0999 V2000
   11.4538    7.2895   -0.1169 C   0  0  0  0  0  0  0  0  0  0  0  0
   10.1980    6.9621   -0.6898 C   0  0  0  0  0  0  0  0  0  0  0  0
   10.3872    6.1302   -1.7960 C   0  0  2  0  0  0  0  0  0  0  0  0
   10.4825    4.7167   -1.7340 C   0  0  1  0  0  0  0  0  0  0  0  0
   11.8371    5.7292   -1.8128 C   0  0  2  0  0  0  0  0  0  0  0  0
   12.4226    6.4941   -0.7397 C   0  0  0  0  0  0  0  0  0  0  0  0
   11.6098    7.9579    0.7261 H   0  0  0  0  0  0  0  0  0  0  0  0
    9.2346    7.1474   -0.2186 H   0  0  0  0  0  0  0  0  0  0  0  0
   10.5462    4.0710   -2.6090 H   0  0  0  0  0  0  0  0  0  0  0  0
   12.4243    5.4605   -2.6873 H   0  0  0  0  0  0  0  0  0  0  0  0
    8.0909    6.5115   -4.2415 N   0  0  0  0  0  0  0  0  0  0  0  0
    8.5917    6.9360   -5.1293 N   0  0  0  0  0  0  0  0  0  0  0  0
   13.7687    6.5111   -0.5872 O   0  0  0  0  0  0  0  0  0  0  0  0
   14.2933    7.4843    0.3150 C   0  0  0  0  0  0  0  0  0  0  0  0
   15.3823    7.3946    0.2606 H   0  0  0  0  0  0  0  0  0  0  0  0
   13.9575    7.2859    1.3441 H   0  0  0  0  0  0  0  0  0  0  0  0
   13.9842    8.4976    0.0162 H   0  0  0  0  0  0  0  0  0  0  0  0
   10.0681    4.0322   -0.5872 O   0  0  0  0  0  0  0  0  0  0  0  0
   10.2405    2.6657   -0.5673 C   0  0  0  0  0  0  0  0  0  0  0  0
   10.7222    2.0431   -1.4823 O   0  0  0  0  0  0  0  0  0  0  0  0
    9.7483    2.0968    0.7345 C   0  0  0  0  0  0  0  0  0  0  0  0
   10.3174    2.5334    1.5663 H   0  0  0  0  0  0  0  0  0  0  0  0
    8.6933    2.3622    0.8835 H   0  0  0  0  0  0  0  0  0  0  0  0
    9.8691    1.0103    0.7244 H   0  0  0  0  0  0  0  0  0  0  0  0
  1  7  1  0  0  0  0
  2  8  1  0  0  0  0
  2  1  1  0  0  0  0
  3  4  1  0  0  0  0
  3  2  1  1  0  0  0
  4  9  1  6  0  0  0
  4 18  1  0  0  0  0
  5 10  1  6  0  0  0
  5  3  1  0  0  0  0
  5  4  1  0  0  0  0
  5  6  1  0  0  0  0
  6 13  1  0  0  0  0
  6  1  2  0  0  0  0
 12 11  3  0  0  0  0
 13 14  1  0  0  0  0
 14 16  1  0  0  0  0
 15 14  1  0  0  0  0
 17 14  1  0  0  0  0
 18 19  1  0  0  0  0
 19 21  1  0  0  0  0
 20 19  2  0  0  0  0
 21 23  1  0  0  0  0
 21 22  1  0  0  0  0
 24 21  1  0  0  0  0
M  RAD  2   2   2   3   2
M  END
