Coordinates from ORCA-job p-CH3O-Ph-N2-OOCCH3-B3LYPG-aug-cc-pVDZ-scan-d09-49-n400
 OpenBabel10311713213D

 24 24  0  0  1  0  0  0  0  0999 V2000
   11.3379    7.2677   -0.1843 C   0  0  0  0  0  0  0  0  0  0  0  0
   10.0724    6.9470   -0.7370 C   0  0  0  0  0  0  0  0  0  0  0  0
   10.2298    6.1202   -1.8560 C   0  0  2  0  0  0  0  0  0  0  0  0
   10.3835    4.7066   -1.7781 C   0  0  1  0  0  0  0  0  0  0  0  0
   11.6851    5.7076   -1.8936 C   0  0  2  0  0  0  0  0  0  0  0  0
   12.2945    6.4795   -0.8301 C   0  0  0  0  0  0  0  0  0  0  0  0
   11.5086    7.9322    0.6590 H   0  0  0  0  0  0  0  0  0  0  0  0
    9.1173    7.1477   -0.2545 H   0  0  0  0  0  0  0  0  0  0  0  0
   10.3994    4.0564   -2.6531 H   0  0  0  0  0  0  0  0  0  0  0  0
   12.2598    5.4697   -2.7859 H   0  0  0  0  0  0  0  0  0  0  0  0
    8.9701    6.6185   -3.5295 N   0  0  0  0  0  0  0  0  0  0  0  0
    9.4283    6.9364   -4.4927 N   0  0  0  0  0  0  0  0  0  0  0  0
   13.6422    6.5085   -0.7210 O   0  0  0  0  0  0  0  0  0  0  0  0
   14.1882    7.4842    0.1672 C   0  0  0  0  0  0  0  0  0  0  0  0
   15.2754    7.4031    0.0772 H   0  0  0  0  0  0  0  0  0  0  0  0
   13.8867    7.2795    1.2054 H   0  0  0  0  0  0  0  0  0  0  0  0
   13.8606    8.4949   -0.1196 H   0  0  0  0  0  0  0  0  0  0  0  0
   10.0061    4.0254   -0.6099 O   0  0  0  0  0  0  0  0  0  0  0  0
   10.2372    2.6711   -0.5710 C   0  0  0  0  0  0  0  0  0  0  0  0
   10.7362    2.0546   -1.4817 O   0  0  0  0  0  0  0  0  0  0  0  0
    9.7845    2.0998    0.7448 C   0  0  0  0  0  0  0  0  0  0  0  0
   10.3563    2.5600    1.5620 H   0  0  0  0  0  0  0  0  0  0  0  0
    8.7252    2.3353    0.9117 H   0  0  0  0  0  0  0  0  0  0  0  0
    9.9381    1.0174    0.7422 H   0  0  0  0  0  0  0  0  0  0  0  0
  1  7  1  0  0  0  0
  2  8  1  0  0  0  0
  2  1  1  0  0  0  0
  3  4  1  0  0  0  0
  3  2  1  1  0  0  0
  4  9  1  6  0  0  0
  4 18  1  0  0  0  0
  5 10  1  6  0  0  0
  5  3  1  0  0  0  0
  5  4  1  0  0  0  0
  5  6  1  0  0  0  0
  6 13  1  0  0  0  0
  6  1  2  0  0  0  0
 12 11  3  0  0  0  0
 13 14  1  0  0  0  0
 14 16  1  0  0  0  0
 15 14  1  0  0  0  0
 17 14  1  0  0  0  0
 18 19  1  0  0  0  0
 19 21  1  0  0  0  0
 20 19  2  0  0  0  0
 21 23  1  0  0  0  0
 21 22  1  0  0  0  0
 24 21  1  0  0  0  0
M  RAD  2   2   2   3   2
M  END
