Coordinates from ORCA-job p-CH3O-Ph-N2-OOCCH3-B3LYPG-aug-cc-pVDZ-scan-d09-49-n400
 OpenBabel10311713213D

 24 24  0  0  1  0  0  0  0  0999 V2000
   11.5207    7.4621   -0.5052 C   0  0  0  0  0  0  0  0  0  0  0  0
   10.2819    7.3702   -1.0631 C   0  0  0  0  0  0  0  0  0  0  0  0
    9.9138    6.1754   -1.7594 C   0  0  0  0  0  0  0  0  0  0  0  0
   10.7192    4.9163   -1.7106 C   0  0  1  0  0  0  0  0  0  0  0  0
   12.1182    5.2069   -1.2942 C   0  0  0  0  0  0  0  0  0  0  0  0
   12.4644    6.3673   -0.6755 C   0  0  0  0  0  0  0  0  0  0  0  0
   11.7987    8.3609    0.0365 H   0  0  0  0  0  0  0  0  0  0  0  0
    9.5683    8.1902   -0.9954 H   0  0  0  0  0  0  0  0  0  0  0  0
   10.6840    4.3529   -2.6479 H   0  0  0  0  0  0  0  0  0  0  0  0
   12.8616    4.4267   -1.4411 H   0  0  0  0  0  0  0  0  0  0  0  0
    8.7263    6.1331   -2.4234 N   0  0  0  0  0  0  0  0  0  0  0  0
    7.7391    6.0726   -2.9847 N   0  0  0  0  0  0  0  0  0  0  0  0
   13.7549    6.4685   -0.2271 O   0  0  0  0  0  0  0  0  0  0  0  0
   14.2593    7.7401    0.1731 C   0  0  0  0  0  0  0  0  0  0  0  0
   15.3261    7.5849    0.3628 H   0  0  0  0  0  0  0  0  0  0  0  0
   13.7798    8.0947    1.0980 H   0  0  0  0  0  0  0  0  0  0  0  0
   14.1368    8.4914   -0.6213 H   0  0  0  0  0  0  0  0  0  0  0  0
   10.0416    4.0133   -0.7022 O   0  0  0  0  0  0  0  0  0  0  0  0
   10.2396    2.6863   -0.8603 C   0  0  0  0  0  0  0  0  0  0  0  0
   10.9118    2.2015   -1.7494 O   0  0  0  0  0  0  0  0  0  0  0  0
    9.5103    1.8923    0.1971 C   0  0  0  0  0  0  0  0  0  0  0  0
    9.7519    2.2777    1.1957 H   0  0  0  0  0  0  0  0  0  0  0  0
    8.4261    2.0001    0.0541 H   0  0  0  0  0  0  0  0  0  0  0  0
    9.7890    0.8377    0.1153 H   0  0  0  0  0  0  0  0  0  0  0  0
  1  7  1  0  0  0  0
  2  8  1  0  0  0  0
  2  1  1  0  0  0  0
  3  4  1  0  0  0  0
  3  2  2  0  0  0  0
  4  9  1  6  0  0  0
  4  5  1  0  0  0  0
  4 18  1  0  0  0  0
  5  6  2  0  0  0  0
  6  1  1  0  0  0  0
  6 13  1  0  0  0  0
 10  5  1  0  0  0  0
 11  3  1  0  0  0  0
 12 11  1  0  0  0  0
 13 14  1  0  0  0  0
 14 15  1  0  0  0  0
 14 16  1  0  0  0  0
 17 14  1  0  0  0  0
 19 18  1  0  0  0  0
 19 21  1  0  0  0  0
 20 19  2  0  0  0  0
 21 22  1  0  0  0  0
 23 21  1  0  0  0  0
 24 21  1  0  0  0  0
M  RAD  3   1   2  11   2  12   3
M  END
