Coordinates from ORCA-job p-CH3O-Ph-N2-OOCCH3-B3LYPG-aug-cc-pVDZ-scan-d09-49-n400
 OpenBabel10311713213D

 24 24  0  0  1  0  0  0  0  0999 V2000
   11.5501    7.3082   -0.0718 C   0  0  0  0  0  0  0  0  0  0  0  0
   10.3086    7.0038   -0.6876 C   0  0  0  0  0  0  0  0  0  0  0  0
   10.5227    6.1720   -1.7879 C   0  0  2  0  0  0  0  0  0  0  0  0
   10.5856    4.7574   -1.7337 C   0  0  1  0  0  0  0  0  0  0  0  0
   11.9645    5.7491   -1.7601 C   0  0  2  0  0  0  0  0  0  0  0  0
   12.5264    6.4992   -0.6649 C   0  0  0  0  0  0  0  0  0  0  0  0
   11.6888    7.9714    0.7784 H   0  0  0  0  0  0  0  0  0  0  0  0
    9.3329    7.2033   -0.2485 H   0  0  0  0  0  0  0  0  0  0  0  0
   10.6710    4.1165   -2.6103 H   0  0  0  0  0  0  0  0  0  0  0  0
   12.5744    5.4719   -2.6161 H   0  0  0  0  0  0  0  0  0  0  0  0
    7.2487    6.3204   -4.6765 N   0  0  0  0  0  0  0  0  0  0  0  0
    7.9647    6.7083   -5.4222 N   0  0  0  0  0  0  0  0  0  0  0  0
   13.8668    6.4923   -0.4663 O   0  0  0  0  0  0  0  0  0  0  0  0
   14.3761    7.4529    0.4577 C   0  0  0  0  0  0  0  0  0  0  0  0
   15.4648    7.3447    0.4409 H   0  0  0  0  0  0  0  0  0  0  0  0
   14.0014    7.2566    1.4737 H   0  0  0  0  0  0  0  0  0  0  0  0
   14.0951    8.4725    0.1527 H   0  0  0  0  0  0  0  0  0  0  0  0
   10.1175    4.0743   -0.6077 O   0  0  0  0  0  0  0  0  0  0  0  0
   10.2612    2.7041   -0.5915 C   0  0  0  0  0  0  0  0  0  0  0  0
   10.7584    2.0774   -1.4951 O   0  0  0  0  0  0  0  0  0  0  0  0
    9.7124    2.1374    0.6884 C   0  0  0  0  0  0  0  0  0  0  0  0
   10.2652    2.5524    1.5419 H   0  0  0  0  0  0  0  0  0  0  0  0
    8.6602    2.4287    0.8058 H   0  0  0  0  0  0  0  0  0  0  0  0
    9.8059    1.0482    0.6725 H   0  0  0  0  0  0  0  0  0  0  0  0
  1  7  1  0  0  0  0
  2  8  1  0  0  0  0
  2  1  1  0  0  0  0
  3  5  1  0  0  0  0
  3  4  1  0  0  0  0
  3  2  1  1  0  0  0
  4  9  1  6  0  0  0
  4 18  1  0  0  0  0
  5 10  1  6  0  0  0
  5  4  1  0  0  0  0
  5  6  1  0  0  0  0
  6 13  1  0  0  0  0
  6  1  2  0  0  0  0
 12 11  3  0  0  0  0
 13 14  1  0  0  0  0
 14 16  1  0  0  0  0
 15 14  1  0  0  0  0
 17 14  1  0  0  0  0
 18 19  1  0  0  0  0
 19 21  1  0  0  0  0
 20 19  2  0  0  0  0
 21 23  1  0  0  0  0
 21 22  1  0  0  0  0
 24 21  1  0  0  0  0
M  RAD  2   2   2   3   2
M  END
