Coordinates from ORCA-job p-CH3O-Ph-N2-OOCCH3-B3LYPG-aug-cc-pVDZ-scan-d09-49-n400
 OpenBabel10311713213D

 24 23  0  0  1  0  0  0  0  0999 V2000
   11.4895    7.3270   -0.4365 C   0  0  0  0  0  0  0  0  0  0  0  0
   10.2756    7.2107   -1.0601 C   0  0  0  0  0  0  0  0  0  0  0  0
   10.2316    6.2571   -2.1127 C   0  0  0  0  0  0  0  0  0  0  0  0
   10.7510    4.9137   -1.9397 C   0  0  1  0  0  0  0  0  0  0  0  0
   12.1833    5.2743   -1.6082 C   0  0  0  0  0  0  0  0  0  0  0  0
   12.4929    6.3427   -0.8085 C   0  0  0  0  0  0  0  0  0  0  0  0
   11.6918    8.1424    0.2504 H   0  0  0  0  0  0  0  0  0  0  0  0
    9.4577    7.9035   -0.8761 H   0  0  0  0  0  0  0  0  0  0  0  0
   10.6941    4.2692   -2.8178 H   0  0  0  0  0  0  0  0  0  0  0  0
   12.9511    4.5575   -1.8895 H   0  0  0  0  0  0  0  0  0  0  0  0
    8.3413    6.0515   -2.5570 N   0  0  0  0  0  0  0  0  0  0  0  0
    7.4558    6.0211   -3.2233 N   0  0  0  0  0  0  0  0  0  0  0  0
   13.7904    6.4454   -0.4033 O   0  0  0  0  0  0  0  0  0  0  0  0
   14.2028    7.5929    0.3374 C   0  0  0  0  0  0  0  0  0  0  0  0
   15.2813    7.4754    0.4811 H   0  0  0  0  0  0  0  0  0  0  0  0
   13.7104    7.6357    1.3201 H   0  0  0  0  0  0  0  0  0  0  0  0
   14.0073    8.5208   -0.2198 H   0  0  0  0  0  0  0  0  0  0  0  0
   10.0820    4.1479   -0.8214 O   0  0  0  0  0  0  0  0  0  0  0  0
   10.2980    2.8160   -0.8030 C   0  0  0  0  0  0  0  0  0  0  0  0
   10.9748    2.2257   -1.6228 O   0  0  0  0  0  0  0  0  0  0  0  0
    9.6129    2.1613    0.3734 C   0  0  0  0  0  0  0  0  0  0  0  0
   10.0846    2.5043    1.3048 H   0  0  0  0  0  0  0  0  0  0  0  0
    8.5555    2.4525    0.4130 H   0  0  0  0  0  0  0  0  0  0  0  0
    9.7078    1.0746    0.2912 H   0  0  0  0  0  0  0  0  0  0  0  0
  1  7  1  0  0  0  0
  2  8  1  0  0  0  0
  2  1  2  0  0  0  0
  3  4  1  0  0  0  0
  3  2  1  0  0  0  0
  4  9  1  6  0  0  0
  4  5  1  0  0  0  0
  4 18  1  0  0  0  0
  5  6  2  0  0  0  0
  6  1  1  0  0  0  0
  6 13  1  0  0  0  0
 10  5  1  0  0  0  0
 12 11  3  0  0  0  0
 13 14  1  0  0  0  0
 14 15  1  0  0  0  0
 14 16  1  0  0  0  0
 17 14  1  0  0  0  0
 18 19  1  0  0  0  0
 19 21  1  0  0  0  0
 20 19  2  0  0  0  0
 21 23  1  0  0  0  0
 21 22  1  0  0  0  0
 24 21  1  0  0  0  0
M  RAD  1   3   3
M  END
