Coordinates from ORCA-job p-CH3O-Ph-N2-OOCCH3-B3LYPG-aug-cc-pVDZ-scan-d09-49-n400
 OpenBabel10311713213D

 24 23  0  0  1  0  0  0  0  0999 V2000
   11.4897    7.3292   -0.4406 C   0  0  0  0  0  0  0  0  0  0  0  0
   10.2745    7.2142   -1.0618 C   0  0  0  0  0  0  0  0  0  0  0  0
   10.2241    6.2564   -2.1104 C   0  0  0  0  0  0  0  0  0  0  0  0
   10.7521    4.9146   -1.9382 C   0  0  1  0  0  0  0  0  0  0  0  0
   12.1840    5.2714   -1.6034 C   0  0  0  0  0  0  0  0  0  0  0  0
   12.4929    6.3426   -0.8082 C   0  0  0  0  0  0  0  0  0  0  0  0
   11.6947    8.1484    0.2410 H   0  0  0  0  0  0  0  0  0  0  0  0
    9.4605    7.9123   -0.8804 H   0  0  0  0  0  0  0  0  0  0  0  0
   10.6944    4.2705   -2.8166 H   0  0  0  0  0  0  0  0  0  0  0  0
   12.9504    4.5496   -1.8756 H   0  0  0  0  0  0  0  0  0  0  0  0
    8.3527    6.0468   -2.5450 N   0  0  0  0  0  0  0  0  0  0  0  0
    7.4623    6.0182   -3.2055 N   0  0  0  0  0  0  0  0  0  0  0  0
   13.7899    6.4459   -0.4004 O   0  0  0  0  0  0  0  0  0  0  0  0
   14.2021    7.5963    0.3356 C   0  0  0  0  0  0  0  0  0  0  0  0
   15.2800    7.4778    0.4828 H   0  0  0  0  0  0  0  0  0  0  0  0
   13.7072    7.6450    1.3167 H   0  0  0  0  0  0  0  0  0  0  0  0
   14.0098    8.5218   -0.2267 H   0  0  0  0  0  0  0  0  0  0  0  0
   10.0828    4.1466   -0.8207 O   0  0  0  0  0  0  0  0  0  0  0  0
   10.2994    2.8148   -0.8040 C   0  0  0  0  0  0  0  0  0  0  0  0
   10.9734    2.2253   -1.6266 O   0  0  0  0  0  0  0  0  0  0  0  0
    9.6100    2.1575    0.3684 C   0  0  0  0  0  0  0  0  0  0  0  0
   10.0814    2.4951    1.3019 H   0  0  0  0  0  0  0  0  0  0  0  0
    8.5534    2.4520    0.4076 H   0  0  0  0  0  0  0  0  0  0  0  0
    9.7016    1.0708    0.2818 H   0  0  0  0  0  0  0  0  0  0  0  0
  1  7  1  0  0  0  0
  2  8  1  0  0  0  0
  2  1  2  0  0  0  0
  3  4  1  0  0  0  0
  3  2  1  0  0  0  0
  4  9  1  6  0  0  0
  4  5  1  0  0  0  0
  4 18  1  0  0  0  0
  5  6  2  0  0  0  0
  6  1  1  0  0  0  0
  6 13  1  0  0  0  0
 10  5  1  0  0  0  0
 12 11  3  0  0  0  0
 13 14  1  0  0  0  0
 14 15  1  0  0  0  0
 14 16  1  0  0  0  0
 17 14  1  0  0  0  0
 18 19  1  0  0  0  0
 19 21  1  0  0  0  0
 20 19  2  0  0  0  0
 21 23  1  0  0  0  0
 21 22  1  0  0  0  0
 24 21  1  0  0  0  0
M  RAD  1   3   3
M  END
