Coordinates from ORCA-job p-CH3O-Ph-N2-OOCCH3-B3LYPG-aug-cc-pVDZ-scan-d09-49-n400
 OpenBabel10311713213D

 24 24  0  0  1  0  0  0  0  0999 V2000
   11.3752    7.2792   -0.1635 C   0  0  0  0  0  0  0  0  0  0  0  0
   10.1106    6.9432   -0.7118 C   0  0  0  0  0  0  0  0  0  0  0  0
   10.2794    6.1121   -1.8219 C   0  0  2  0  0  0  0  0  0  0  0  0
   10.4041    4.6999   -1.7537 C   0  0  1  0  0  0  0  0  0  0  0  0
   11.7331    5.7148   -1.8631 C   0  0  2  0  0  0  0  0  0  0  0  0
   12.3361    6.4892   -0.8034 C   0  0  0  0  0  0  0  0  0  0  0  0
   11.5430    7.9504    0.6751 H   0  0  0  0  0  0  0  0  0  0  0  0
    9.1558    7.1273   -0.2226 H   0  0  0  0  0  0  0  0  0  0  0  0
   10.4437    4.0511   -2.6286 H   0  0  0  0  0  0  0  0  0  0  0  0
   12.3079    5.4575   -2.7496 H   0  0  0  0  0  0  0  0  0  0  0  0
    8.7307    6.6266   -3.7736 N   0  0  0  0  0  0  0  0  0  0  0  0
    9.1903    6.9773   -4.7183 N   0  0  0  0  0  0  0  0  0  0  0  0
   13.6845    6.5188   -0.6839 O   0  0  0  0  0  0  0  0  0  0  0  0
   14.2224    7.4998    0.2024 C   0  0  0  0  0  0  0  0  0  0  0  0
   15.3105    7.4193    0.1217 H   0  0  0  0  0  0  0  0  0  0  0  0
   13.9133    7.3016    1.2398 H   0  0  0  0  0  0  0  0  0  0  0  0
   13.8969    8.5090   -0.0923 H   0  0  0  0  0  0  0  0  0  0  0  0
   10.0216    4.0146   -0.5935 O   0  0  0  0  0  0  0  0  0  0  0  0
   10.2222    2.6533   -0.5685 C   0  0  0  0  0  0  0  0  0  0  0  0
   10.7039    2.0349   -1.4867 O   0  0  0  0  0  0  0  0  0  0  0  0
    9.7688    2.0824    0.7469 C   0  0  0  0  0  0  0  0  0  0  0  0
   10.3439    2.5376    1.5644 H   0  0  0  0  0  0  0  0  0  0  0  0
    8.7110    2.3244    0.9149 H   0  0  0  0  0  0  0  0  0  0  0  0
    9.9146    0.9989    0.7416 H   0  0  0  0  0  0  0  0  0  0  0  0
  1  7  1  0  0  0  0
  2  8  1  0  0  0  0
  2  1  1  0  0  0  0
  3  4  1  0  0  0  0
  3  2  1  1  0  0  0
  4  9  1  6  0  0  0
  4 18  1  0  0  0  0
  5 10  1  6  0  0  0
  5  3  1  0  0  0  0
  5  4  1  0  0  0  0
  5  6  1  0  0  0  0
  6 13  1  0  0  0  0
  6  1  2  0  0  0  0
 12 11  3  0  0  0  0
 13 14  1  0  0  0  0
 14 16  1  0  0  0  0
 15 14  1  0  0  0  0
 17 14  1  0  0  0  0
 18 19  1  0  0  0  0
 19 21  1  0  0  0  0
 20 19  2  0  0  0  0
 21 23  1  0  0  0  0
 21 22  1  0  0  0  0
 24 21  1  0  0  0  0
M  RAD  2   2   2   3   2
M  END
