Coordinates from ORCA-job p-CH3O-Ph-N2-OOCCH3-B3LYPG-aug-cc-pVDZ-scan-d09-49-n400
 OpenBabel10311713213D

 24 24  0  0  1  0  0  0  0  0999 V2000
   11.5699    7.3120   -0.0615 C   0  0  0  0  0  0  0  0  0  0  0  0
   10.3320    7.0148   -0.6874 C   0  0  0  0  0  0  0  0  0  0  0  0
   10.5504    6.1842   -1.7900 C   0  0  2  0  0  0  0  0  0  0  0  0
   10.6060    4.7684   -1.7368 C   0  0  1  0  0  0  0  0  0  0  0  0
   11.9903    5.7545   -1.7514 C   0  0  2  0  0  0  0  0  0  0  0  0
   12.5468    6.4997   -0.6497 C   0  0  0  0  0  0  0  0  0  0  0  0
   11.7052    7.9723    0.7914 H   0  0  0  0  0  0  0  0  0  0  0  0
    9.3542    7.2181   -0.2550 H   0  0  0  0  0  0  0  0  0  0  0  0
   10.6963    4.1282   -2.6133 H   0  0  0  0  0  0  0  0  0  0  0  0
   12.6055    5.4754   -2.6029 H   0  0  0  0  0  0  0  0  0  0  0  0
    7.0736    6.2703   -4.7690 N   0  0  0  0  0  0  0  0  0  0  0  0
    7.8344    6.6531   -5.4710 N   0  0  0  0  0  0  0  0  0  0  0  0
   13.8857    6.4863   -0.4409 O   0  0  0  0  0  0  0  0  0  0  0  0
   14.3922    7.4422    0.4895 C   0  0  0  0  0  0  0  0  0  0  0  0
   15.4804    7.3292    0.4807 H   0  0  0  0  0  0  0  0  0  0  0  0
   14.0088    7.2451    1.5021 H   0  0  0  0  0  0  0  0  0  0  0  0
   14.1181    8.4639    0.1850 H   0  0  0  0  0  0  0  0  0  0  0  0
   10.1256    4.0857   -0.6157 O   0  0  0  0  0  0  0  0  0  0  0  0
   10.2632    2.7146   -0.5995 C   0  0  0  0  0  0  0  0  0  0  0  0
   10.7673    2.0869   -1.4985 O   0  0  0  0  0  0  0  0  0  0  0  0
    9.7071    2.1499    0.6781 C   0  0  0  0  0  0  0  0  0  0  0  0
   10.2571    2.5639    1.5340 H   0  0  0  0  0  0  0  0  0  0  0  0
    8.6552    2.4440    0.7905 H   0  0  0  0  0  0  0  0  0  0  0  0
    9.7980    1.0605    0.6632 H   0  0  0  0  0  0  0  0  0  0  0  0
  1  7  1  0  0  0  0
  2  8  1  0  0  0  0
  2  1  1  0  0  0  0
  3  5  1  0  0  0  0
  3  4  1  0  0  0  0
  3  2  1  1  0  0  0
  4  9  1  6  0  0  0
  4 18  1  0  0  0  0
  5 10  1  6  0  0  0
  5  4  1  0  0  0  0
  5  6  1  0  0  0  0
  6 13  1  0  0  0  0
  6  1  2  0  0  0  0
 12 11  3  0  0  0  0
 13 14  1  0  0  0  0
 14 16  1  0  0  0  0
 15 14  1  0  0  0  0
 17 14  1  0  0  0  0
 18 19  1  0  0  0  0
 19 21  1  0  0  0  0
 20 19  2  0  0  0  0
 21 23  1  0  0  0  0
 21 22  1  0  0  0  0
 24 21  1  0  0  0  0
M  RAD  2   2   2   3   2
M  END
