Coordinates from ORCA-job p-CH3O-Ph-N2-OOCCH3-B3LYPG-aug-cc-pVDZ-scan-d09-49-n400
 OpenBabel10311713213D

 24 24  0  0  1  0  0  0  0  0999 V2000
   11.5636    7.3100   -0.0642 C   0  0  0  0  0  0  0  0  0  0  0  0
   10.3248    7.0110   -0.6871 C   0  0  0  0  0  0  0  0  0  0  0  0
   10.5415    6.1809   -1.7903 C   0  0  2  0  0  0  0  0  0  0  0  0
   10.6002    4.7652   -1.7356 C   0  0  1  0  0  0  0  0  0  0  0  0
   11.9823    5.7529   -1.7543 C   0  0  2  0  0  0  0  0  0  0  0  0
   12.5404    6.4992   -0.6545 C   0  0  0  0  0  0  0  0  0  0  0  0
   11.6999    7.9707    0.7883 H   0  0  0  0  0  0  0  0  0  0  0  0
    9.3478    7.2132   -0.2523 H   0  0  0  0  0  0  0  0  0  0  0  0
   10.6892    4.1243   -2.6118 H   0  0  0  0  0  0  0  0  0  0  0  0
   12.5961    5.4745   -2.6071 H   0  0  0  0  0  0  0  0  0  0  0  0
    7.1238    6.2873   -4.7448 N   0  0  0  0  0  0  0  0  0  0  0  0
    7.8732    6.6709   -5.4589 N   0  0  0  0  0  0  0  0  0  0  0  0
   13.8798    6.4879   -0.4489 O   0  0  0  0  0  0  0  0  0  0  0  0
   14.3872    7.4449    0.4799 C   0  0  0  0  0  0  0  0  0  0  0  0
   15.4756    7.3335    0.4684 H   0  0  0  0  0  0  0  0  0  0  0  0
   14.0067    7.2473    1.4935 H   0  0  0  0  0  0  0  0  0  0  0  0
   14.1108    8.4661    0.1759 H   0  0  0  0  0  0  0  0  0  0  0  0
   10.1239    4.0826   -0.6127 O   0  0  0  0  0  0  0  0  0  0  0  0
   10.2636    2.7118   -0.5963 C   0  0  0  0  0  0  0  0  0  0  0  0
   10.7654    2.0843   -1.4968 O   0  0  0  0  0  0  0  0  0  0  0  0
    9.7094    2.1466    0.6819 C   0  0  0  0  0  0  0  0  0  0  0  0
   10.2601    2.5609    1.5372 H   0  0  0  0  0  0  0  0  0  0  0  0
    8.6574    2.4398    0.7956 H   0  0  0  0  0  0  0  0  0  0  0  0
    9.8012    1.0573    0.6668 H   0  0  0  0  0  0  0  0  0  0  0  0
  1  7  1  0  0  0  0
  2  8  1  0  0  0  0
  2  1  1  0  0  0  0
  3  5  1  0  0  0  0
  3  4  1  0  0  0  0
  3  2  1  1  0  0  0
  4  9  1  6  0  0  0
  4 18  1  0  0  0  0
  5 10  1  6  0  0  0
  5  4  1  0  0  0  0
  5  6  1  0  0  0  0
  6 13  1  0  0  0  0
  6  1  2  0  0  0  0
 12 11  3  0  0  0  0
 13 14  1  0  0  0  0
 14 16  1  0  0  0  0
 15 14  1  0  0  0  0
 17 14  1  0  0  0  0
 18 19  1  0  0  0  0
 19 21  1  0  0  0  0
 20 19  2  0  0  0  0
 21 23  1  0  0  0  0
 21 22  1  0  0  0  0
 24 21  1  0  0  0  0
M  RAD  2   2   2   3   2
M  END
