Coordinates from ORCA-job p-CH3O-Ph-N2-OOCCH3-B3LYPG-aug-cc-pVDZ-scan-d09-49-n400
 OpenBabel10311713213D

 24 24  0  0  1  0  0  0  0  0999 V2000
   11.5171    7.4571   -0.5004 C   0  0  0  0  0  0  0  0  0  0  0  0
   10.2788    7.3666   -1.0562 C   0  0  0  0  0  0  0  0  0  0  0  0
    9.9037    6.1740   -1.7607 C   0  0  0  0  0  0  0  0  0  0  0  0
   10.7183    4.9158   -1.7091 C   0  0  1  0  0  0  0  0  0  0  0  0
   12.1178    5.2055   -1.2937 C   0  0  0  0  0  0  0  0  0  0  0  0
   12.4639    6.3646   -0.6744 C   0  0  0  0  0  0  0  0  0  0  0  0
   11.7944    8.3542    0.0448 H   0  0  0  0  0  0  0  0  0  0  0  0
    9.5646    8.1858   -0.9830 H   0  0  0  0  0  0  0  0  0  0  0  0
   10.6835    4.3549   -2.6481 H   0  0  0  0  0  0  0  0  0  0  0  0
   12.8607    4.4252   -1.4425 H   0  0  0  0  0  0  0  0  0  0  0  0
    8.7466    6.1339   -2.4174 N   0  0  0  0  0  0  0  0  0  0  0  0
    7.7609    6.0757   -2.9858 N   0  0  0  0  0  0  0  0  0  0  0  0
   13.7542    6.4682   -0.2268 O   0  0  0  0  0  0  0  0  0  0  0  0
   14.2589    7.7420    0.1666 C   0  0  0  0  0  0  0  0  0  0  0  0
   15.3266    7.5887    0.3527 H   0  0  0  0  0  0  0  0  0  0  0  0
   13.7828    8.0995    1.0922 H   0  0  0  0  0  0  0  0  0  0  0  0
   14.1324    8.4901   -0.6301 H   0  0  0  0  0  0  0  0  0  0  0  0
   10.0419    4.0150   -0.7028 O   0  0  0  0  0  0  0  0  0  0  0  0
   10.2397    2.6872   -0.8602 C   0  0  0  0  0  0  0  0  0  0  0  0
   10.9145    2.2027   -1.7472 O   0  0  0  0  0  0  0  0  0  0  0  0
    9.5075    1.8944    0.1957 C   0  0  0  0  0  0  0  0  0  0  0  0
    9.7356    2.2884    1.1941 H   0  0  0  0  0  0  0  0  0  0  0  0
    8.4240    1.9919    0.0407 H   0  0  0  0  0  0  0  0  0  0  0  0
    9.7954    0.8416    0.1232 H   0  0  0  0  0  0  0  0  0  0  0  0
  1  7  1  0  0  0  0
  2  8  1  0  0  0  0
  2  1  1  0  0  0  0
  3  4  1  0  0  0  0
  3  2  2  0  0  0  0
  4  9  1  6  0  0  0
  4  5  1  0  0  0  0
  4 18  1  0  0  0  0
  5  6  2  0  0  0  0
  6  1  1  0  0  0  0
  6 13  1  0  0  0  0
 10  5  1  0  0  0  0
 11  3  1  0  0  0  0
 12 11  1  0  0  0  0
 13 14  1  0  0  0  0
 14 15  1  0  0  0  0
 14 16  1  0  0  0  0
 17 14  1  0  0  0  0
 19 18  1  0  0  0  0
 19 21  1  0  0  0  0
 20 19  2  0  0  0  0
 21 22  1  0  0  0  0
 23 21  1  0  0  0  0
 24 21  1  0  0  0  0
M  RAD  3   1   2  11   2  12   3
M  END
