Coordinates from ORCA-job p-CH3O-Ph-N2-OOCCH3-B3LYPG-aug-cc-pVDZ-scan-d09-49-n400
 OpenBabel10311713213D

 24 23  0  0  0  0  0  0  0  0999 V2000
   11.9582    7.8761   -0.8614 C   0  0  0  0  0  0  0  0  0  0  0  0
   10.6729    7.4160   -1.0378 C   0  0  0  0  0  0  0  0  0  0  0  0
   10.3096    5.9915   -1.0811 C   0  0  0  0  0  0  0  0  0  0  0  0
   11.4854    5.0857   -0.9431 C   0  0  0  0  0  0  0  0  0  0  0  0
   12.7624    5.5580   -0.7916 C   0  0  0  0  0  0  0  0  0  0  0  0
   13.0193    6.9491   -0.7411 C   0  0  0  0  0  0  0  0  0  0  0  0
   12.1433    8.9467   -0.8216 H   0  0  0  0  0  0  0  0  0  0  0  0
    9.8460    8.1233   -1.1296 H   0  0  0  0  0  0  0  0  0  0  0  0
   11.2637    4.0193   -0.9870 H   0  0  0  0  0  0  0  0  0  0  0  0
   13.6082    4.8762   -0.7042 H   0  0  0  0  0  0  0  0  0  0  0  0
    9.3881    5.6731   -1.1825 N   0  0  0  0  0  0  0  0  0  0  0  0
    8.4573    4.9411   -1.2574 N   0  0  0  0  0  0  0  0  0  0  0  0
   14.3048    7.2932   -0.5809 O   0  0  0  0  0  0  0  0  0  0  0  0
   14.6664    8.6810   -0.5249 C   0  0  0  0  0  0  0  0  0  0  0  0
   15.7510    8.6911   -0.3918 H   0  0  0  0  0  0  0  0  0  0  0  0
   14.1818    9.1744    0.3287 H   0  0  0  0  0  0  0  0  0  0  0  0
   14.4010    9.1896   -1.4617 H   0  0  0  0  0  0  0  0  0  0  0  0
    7.3475    2.7037    0.1399 O   0  0  0  0  0  0  0  0  0  0  0  0
    8.3573    2.3758   -0.4731 C   0  0  0  0  0  0  0  0  0  0  0  0
    9.2278    3.2004   -1.0145 O   0  0  0  0  0  0  0  0  0  0  0  0
    8.7246    0.9068   -0.6803 C   0  0  0  0  0  0  0  0  0  0  0  0
    8.0671    0.2730   -0.0755 H   0  0  0  0  0  0  0  0  0  0  0  0
    8.6053    0.6504   -1.7427 H   0  0  0  0  0  0  0  0  0  0  0  0
    9.7748    0.7275   -0.4132 H   0  0  0  0  0  0  0  0  0  0  0  0
  1  7  1  0  0  0  0
  1  6  2  0  0  0  0
  2  1  1  0  0  0  0
  3  2  2  0  0  0  0
  3  4  1  0  0  0  0
  4  5  2  0  0  0  0
  5  6  1  0  0  0  0
  5 10  1  0  0  0  0
  6 13  1  0  0  0  0
  8  2  1  0  0  0  0
  9  4  1  0  0  0  0
 11  3  1  0  0  0  0
 12 11  1  0  0  0  0
 13 14  1  0  0  0  0
 14 15  1  0  0  0  0
 14 16  1  0  0  0  0
 17 14  1  0  0  0  0
 19 18  1  0  0  0  0
 20 19  2  0  0  0  0
 21 19  1  0  0  0  0
 21 24  1  0  0  0  0
 21 22  1  0  0  0  0
 23 21  1  0  0  0  0
M  RAD  3  11   2  12   3  18   2
M  END
