Coordinates from ORCA-job p-CH3O-Ph-N2-OOCCH3-B3LYPG-aug-cc-pVDZ-scan-d09-49-n400
 OpenBabel10311713213D

 24 24  0  0  1  0  0  0  0  0999 V2000
   11.5451    7.3081   -0.0751 C   0  0  0  0  0  0  0  0  0  0  0  0
   10.3025    7.0029   -0.6893 C   0  0  0  0  0  0  0  0  0  0  0  0
   10.5159    6.1695   -1.7875 C   0  0  2  0  0  0  0  0  0  0  0  0
   10.5786    4.7553   -1.7349 C   0  0  1  0  0  0  0  0  0  0  0  0
   11.9573    5.7469   -1.7622 C   0  0  2  0  0  0  0  0  0  0  0  0
   12.5206    6.4980   -0.6680 C   0  0  0  0  0  0  0  0  0  0  0  0
   11.6847    7.9722    0.7742 H   0  0  0  0  0  0  0  0  0  0  0  0
    9.3269    7.2023   -0.2500 H   0  0  0  0  0  0  0  0  0  0  0  0
   10.6618    4.1149   -2.6120 H   0  0  0  0  0  0  0  0  0  0  0  0
   12.5661    5.4700   -2.6190 H   0  0  0  0  0  0  0  0  0  0  0  0
    7.2912    6.3339   -4.6552 N   0  0  0  0  0  0  0  0  0  0  0  0
    7.9960    6.7227   -5.4110 N   0  0  0  0  0  0  0  0  0  0  0  0
   13.8611    6.4909   -0.4705 O   0  0  0  0  0  0  0  0  0  0  0  0
   14.3714    7.4526    0.4519 C   0  0  0  0  0  0  0  0  0  0  0  0
   15.4600    7.3441    0.4343 H   0  0  0  0  0  0  0  0  0  0  0  0
   13.9974    7.2576    1.4684 H   0  0  0  0  0  0  0  0  0  0  0  0
   14.0904    8.4719    0.1459 H   0  0  0  0  0  0  0  0  0  0  0  0
   10.1120    4.0719   -0.6082 O   0  0  0  0  0  0  0  0  0  0  0  0
   10.2564    2.7017   -0.5922 C   0  0  0  0  0  0  0  0  0  0  0  0
   10.7570    2.0758   -1.4945 O   0  0  0  0  0  0  0  0  0  0  0  0
    9.7174    2.1356    0.6921 C   0  0  0  0  0  0  0  0  0  0  0  0
   10.2722    2.5561    1.5418 H   0  0  0  0  0  0  0  0  0  0  0  0
    8.6642    2.4212    0.8140 H   0  0  0  0  0  0  0  0  0  0  0  0
    9.8172    1.0469    0.6788 H   0  0  0  0  0  0  0  0  0  0  0  0
  1  7  1  0  0  0  0
  2  8  1  0  0  0  0
  2  1  1  0  0  0  0
  3  5  1  0  0  0  0
  3  4  1  0  0  0  0
  3  2  1  1  0  0  0
  4  9  1  6  0  0  0
  4 18  1  0  0  0  0
  5 10  1  6  0  0  0
  5  4  1  0  0  0  0
  5  6  1  0  0  0  0
  6 13  1  0  0  0  0
  6  1  2  0  0  0  0
 12 11  3  0  0  0  0
 13 14  1  0  0  0  0
 14 16  1  0  0  0  0
 15 14  1  0  0  0  0
 17 14  1  0  0  0  0
 18 19  1  0  0  0  0
 19 21  1  0  0  0  0
 20 19  2  0  0  0  0
 21 23  1  0  0  0  0
 21 22  1  0  0  0  0
 24 21  1  0  0  0  0
M  RAD  2   2   2   3   2
M  END
