Coordinates from ORCA-job p-CH3O-Ph-N2-OOCCH3-B3LYPG-aug-cc-pVDZ-scan-d09-49-n400
 OpenBabel10311713213D

 24 24  0  0  1  0  0  0  0  0999 V2000
   11.5103    7.2986   -0.0905 C   0  0  0  0  0  0  0  0  0  0  0  0
   10.2635    6.9875   -0.6918 C   0  0  0  0  0  0  0  0  0  0  0  0
   10.4685    6.1553   -1.7943 C   0  0  2  0  0  0  0  0  0  0  0  0
   10.5416    4.7407   -1.7368 C   0  0  1  0  0  0  0  0  0  0  0  0
   11.9128    5.7383   -1.7814 C   0  0  2  0  0  0  0  0  0  0  0  0
   12.4833    6.4932   -0.6935 C   0  0  0  0  0  0  0  0  0  0  0  0
   11.6556    7.9637    0.7571 H   0  0  0  0  0  0  0  0  0  0  0  0
    9.2916    7.1826   -0.2424 H   0  0  0  0  0  0  0  0  0  0  0  0
   10.6186    4.0978   -2.6127 H   0  0  0  0  0  0  0  0  0  0  0  0
   12.5150    5.4638   -2.6437 H   0  0  0  0  0  0  0  0  0  0  0  0
    7.5774    6.4116   -4.5142 N   0  0  0  0  0  0  0  0  0  0  0  0
    8.1973    6.8176   -5.3328 N   0  0  0  0  0  0  0  0  0  0  0  0
   13.8259    6.4931   -0.5105 O   0  0  0  0  0  0  0  0  0  0  0  0
   14.3415    7.4578    0.4058 C   0  0  0  0  0  0  0  0  0  0  0  0
   15.4303    7.3548    0.3763 H   0  0  0  0  0  0  0  0  0  0  0  0
   13.9798    7.2615    1.4265 H   0  0  0  0  0  0  0  0  0  0  0  0
   14.0519    8.4755    0.1025 H   0  0  0  0  0  0  0  0  0  0  0  0
   10.0915    4.0578   -0.6031 O   0  0  0  0  0  0  0  0  0  0  0  0
   10.2460    2.6889   -0.5841 C   0  0  0  0  0  0  0  0  0  0  0  0
   10.7523    2.0649   -1.4846 O   0  0  0  0  0  0  0  0  0  0  0  0
    9.7367    2.1247    0.7132 C   0  0  0  0  0  0  0  0  0  0  0  0
   10.2959    2.5626    1.5510 H   0  0  0  0  0  0  0  0  0  0  0  0
    8.6804    2.3925    0.8478 H   0  0  0  0  0  0  0  0  0  0  0  0
    9.8558    1.0379    0.7078 H   0  0  0  0  0  0  0  0  0  0  0  0
  1  7  1  0  0  0  0
  2  8  1  0  0  0  0
  2  1  1  0  0  0  0
  3  5  1  0  0  0  0
  3  4  1  0  0  0  0
  3  2  1  1  0  0  0
  4  9  1  6  0  0  0
  4 18  1  0  0  0  0
  5 10  1  6  0  0  0
  5  4  1  0  0  0  0
  5  6  1  0  0  0  0
  6 13  1  0  0  0  0
  6  1  2  0  0  0  0
 12 11  3  0  0  0  0
 13 14  1  0  0  0  0
 14 16  1  0  0  0  0
 15 14  1  0  0  0  0
 17 14  1  0  0  0  0
 18 19  1  0  0  0  0
 19 21  1  0  0  0  0
 20 19  2  0  0  0  0
 21 23  1  0  0  0  0
 21 22  1  0  0  0  0
 24 21  1  0  0  0  0
M  RAD  2   2   2   3   2
M  END
