Coordinates from ORCA-job p-CH3O-Ph-N2-OOCCH3-B3LYPG-aug-cc-pVDZ-scan-d09-49-n400
 OpenBabel10311713213D

 24 24  0  0  1  0  0  0  0  0999 V2000
   11.3673    7.2767   -0.1707 C   0  0  0  0  0  0  0  0  0  0  0  0
   10.1032    6.9408   -0.7199 C   0  0  0  0  0  0  0  0  0  0  0  0
   10.2714    6.1094   -1.8301 C   0  0  2  0  0  0  0  0  0  0  0  0
   10.4018    4.6973   -1.7583 C   0  0  1  0  0  0  0  0  0  0  0  0
   11.7255    5.7103   -1.8691 C   0  0  2  0  0  0  0  0  0  0  0  0
   12.3283    6.4863   -0.8094 C   0  0  0  0  0  0  0  0  0  0  0  0
   11.5346    7.9483    0.6676 H   0  0  0  0  0  0  0  0  0  0  0  0
    9.1480    7.1266   -0.2320 H   0  0  0  0  0  0  0  0  0  0  0  0
   10.4381    4.0467   -2.6319 H   0  0  0  0  0  0  0  0  0  0  0  0
   12.3014    5.4554   -2.7556 H   0  0  0  0  0  0  0  0  0  0  0  0
    8.7765    6.6312   -3.7310 N   0  0  0  0  0  0  0  0  0  0  0  0
    9.2345    6.9986   -4.6704 N   0  0  0  0  0  0  0  0  0  0  0  0
   13.6764    6.5164   -0.6903 O   0  0  0  0  0  0  0  0  0  0  0  0
   14.2146    7.4982    0.1950 C   0  0  0  0  0  0  0  0  0  0  0  0
   15.3026    7.4178    0.1138 H   0  0  0  0  0  0  0  0  0  0  0  0
   13.9060    7.3007    1.2326 H   0  0  0  0  0  0  0  0  0  0  0  0
   13.8887    8.5071   -0.1004 H   0  0  0  0  0  0  0  0  0  0  0  0
   10.0206    4.0140   -0.5956 O   0  0  0  0  0  0  0  0  0  0  0  0
   10.2249    2.6537   -0.5670 C   0  0  0  0  0  0  0  0  0  0  0  0
   10.7084    2.0341   -1.4835 O   0  0  0  0  0  0  0  0  0  0  0  0
    9.7718    2.0846    0.7492 C   0  0  0  0  0  0  0  0  0  0  0  0
   10.3465    2.5418    1.5661 H   0  0  0  0  0  0  0  0  0  0  0  0
    8.7138    2.3259    0.9168 H   0  0  0  0  0  0  0  0  0  0  0  0
    9.9187    1.0013    0.7459 H   0  0  0  0  0  0  0  0  0  0  0  0
  1  7  1  0  0  0  0
  2  8  1  0  0  0  0
  2  1  1  0  0  0  0
  3  4  1  0  0  0  0
  3  2  1  1  0  0  0
  4  9  1  6  0  0  0
  4 18  1  0  0  0  0
  5 10  1  6  0  0  0
  5  3  1  0  0  0  0
  5  4  1  0  0  0  0
  5  6  1  0  0  0  0
  6 13  1  0  0  0  0
  6  1  2  0  0  0  0
 12 11  3  0  0  0  0
 13 14  1  0  0  0  0
 14 16  1  0  0  0  0
 15 14  1  0  0  0  0
 17 14  1  0  0  0  0
 18 19  1  0  0  0  0
 19 21  1  0  0  0  0
 20 19  2  0  0  0  0
 21 23  1  0  0  0  0
 21 22  1  0  0  0  0
 24 21  1  0  0  0  0
M  RAD  2   2   2   3   2
M  END
