Coordinates from ORCA-job p-CH3O-Ph-N2-OOCCH3-B3LYPG-aug-cc-pVDZ-scan-d09-49-n400
 OpenBabel10311713213D

 24 24  0  0  1  0  0  0  0  0999 V2000
   11.4150    7.2874   -0.1331 C   0  0  0  0  0  0  0  0  0  0  0  0
   10.1518    6.9541   -0.6869 C   0  0  0  0  0  0  0  0  0  0  0  0
   10.3268    6.1236   -1.7962 C   0  0  2  0  0  0  0  0  0  0  0  0
   10.4349    4.7108   -1.7371 C   0  0  1  0  0  0  0  0  0  0  0  0
   11.7786    5.7278   -1.8350 C   0  0  2  0  0  0  0  0  0  0  0  0
   12.3773    6.4962   -0.7705 C   0  0  0  0  0  0  0  0  0  0  0  0
   11.5807    7.9563    0.7076 H   0  0  0  0  0  0  0  0  0  0  0  0
    9.1959    7.1355   -0.1991 H   0  0  0  0  0  0  0  0  0  0  0  0
   10.4849    4.0669   -2.6146 H   0  0  0  0  0  0  0  0  0  0  0  0
   12.3546    5.4657   -2.7191 H   0  0  0  0  0  0  0  0  0  0  0  0
    8.4368    6.5750   -4.0227 N   0  0  0  0  0  0  0  0  0  0  0  0
    8.9117    6.9333   -4.9546 N   0  0  0  0  0  0  0  0  0  0  0  0
   13.7254    6.5197   -0.6401 O   0  0  0  0  0  0  0  0  0  0  0  0
   14.2599    7.4959    0.2532 C   0  0  0  0  0  0  0  0  0  0  0  0
   15.3483    7.4114    0.1810 H   0  0  0  0  0  0  0  0  0  0  0  0
   13.9418    7.2962    1.2876 H   0  0  0  0  0  0  0  0  0  0  0  0
   13.9409    8.5074   -0.0410 H   0  0  0  0  0  0  0  0  0  0  0  0
   10.0425    4.0217   -0.5844 O   0  0  0  0  0  0  0  0  0  0  0  0
   10.2259    2.6570   -0.5688 C   0  0  0  0  0  0  0  0  0  0  0  0
   10.6991    2.0391   -1.4914 O   0  0  0  0  0  0  0  0  0  0  0  0
    9.7593    2.0827    0.7402 C   0  0  0  0  0  0  0  0  0  0  0  0
   10.3370    2.5241    1.5635 H   0  0  0  0  0  0  0  0  0  0  0  0
    8.7042    2.3381    0.9056 H   0  0  0  0  0  0  0  0  0  0  0  0
    9.8901    0.9974    0.7275 H   0  0  0  0  0  0  0  0  0  0  0  0
  1  7  1  0  0  0  0
  2  8  1  0  0  0  0
  2  1  1  0  0  0  0
  3  4  1  0  0  0  0
  3  2  1  1  0  0  0
  4  9  1  6  0  0  0
  4 18  1  0  0  0  0
  5 10  1  6  0  0  0
  5  3  1  0  0  0  0
  5  4  1  0  0  0  0
  5  6  1  0  0  0  0
  6 13  1  0  0  0  0
  6  1  2  0  0  0  0
 12 11  3  0  0  0  0
 13 14  1  0  0  0  0
 14 16  1  0  0  0  0
 15 14  1  0  0  0  0
 17 14  1  0  0  0  0
 18 19  1  0  0  0  0
 19 21  1  0  0  0  0
 20 19  2  0  0  0  0
 21 23  1  0  0  0  0
 21 22  1  0  0  0  0
 24 21  1  0  0  0  0
M  RAD  2   2   2   3   2
M  END
