Coordinates from ORCA-job p-CH3O-Ph-N2-OOCCH3-B3LYPG-aug-cc-pVDZ-scan-d09-49-n400
 OpenBabel10311713213D

 24 24  0  0  1  0  0  0  0  0999 V2000
   11.4373    7.2885   -0.1224 C   0  0  0  0  0  0  0  0  0  0  0  0
   10.1782    6.9593   -0.6868 C   0  0  0  0  0  0  0  0  0  0  0  0
   10.3606    6.1281   -1.7954 C   0  0  2  0  0  0  0  0  0  0  0  0
   10.4604    4.7144   -1.7350 C   0  0  1  0  0  0  0  0  0  0  0  0
   11.8112    5.7287   -1.8221 C   0  0  2  0  0  0  0  0  0  0  0  0
   12.4027    6.4945   -0.7523 C   0  0  0  0  0  0  0  0  0  0  0  0
   11.5981    7.9565    0.7200 H   0  0  0  0  0  0  0  0  0  0  0  0
    9.2177    7.1429   -0.2085 H   0  0  0  0  0  0  0  0  0  0  0  0
   10.5181    4.0697   -2.6113 H   0  0  0  0  0  0  0  0  0  0  0  0
   12.3933    5.4626   -2.7008 H   0  0  0  0  0  0  0  0  0  0  0  0
    8.2362    6.5396   -4.1607 N   0  0  0  0  0  0  0  0  0  0  0  0
    8.7245    6.9416   -5.0673 N   0  0  0  0  0  0  0  0  0  0  0  0
   13.7497    6.5133   -0.6091 O   0  0  0  0  0  0  0  0  0  0  0  0
   14.2790    7.4870    0.2899 C   0  0  0  0  0  0  0  0  0  0  0  0
   15.3678    7.3989    0.2279 H   0  0  0  0  0  0  0  0  0  0  0  0
   13.9506    7.2876    1.3212 H   0  0  0  0  0  0  0  0  0  0  0  0
   13.9664    8.4999   -0.0064 H   0  0  0  0  0  0  0  0  0  0  0  0
   10.0555    4.0277   -0.5859 O   0  0  0  0  0  0  0  0  0  0  0  0
   10.2317    2.6618   -0.5684 C   0  0  0  0  0  0  0  0  0  0  0  0
   10.7125    2.0417   -1.4856 O   0  0  0  0  0  0  0  0  0  0  0  0
    9.7562    2.0912    0.7390 C   0  0  0  0  0  0  0  0  0  0  0  0
   10.3301    2.5329    1.5648 H   0  0  0  0  0  0  0  0  0  0  0  0
    8.7008    2.3493    0.8976 H   0  0  0  0  0  0  0  0  0  0  0  0
    9.8847    1.0055    0.7292 H   0  0  0  0  0  0  0  0  0  0  0  0
  1  7  1  0  0  0  0
  2  8  1  0  0  0  0
  2  1  1  0  0  0  0
  3  4  1  0  0  0  0
  3  2  1  1  0  0  0
  4  9  1  6  0  0  0
  4 18  1  0  0  0  0
  5 10  1  6  0  0  0
  5  3  1  0  0  0  0
  5  4  1  0  0  0  0
  5  6  1  0  0  0  0
  6 13  1  0  0  0  0
  6  1  2  0  0  0  0
 12 11  3  0  0  0  0
 13 14  1  0  0  0  0
 14 16  1  0  0  0  0
 15 14  1  0  0  0  0
 17 14  1  0  0  0  0
 18 19  1  0  0  0  0
 19 21  1  0  0  0  0
 20 19  2  0  0  0  0
 21 23  1  0  0  0  0
 21 22  1  0  0  0  0
 24 21  1  0  0  0  0
M  RAD  2   2   2   3   2
M  END
