Coordinates from ORCA-job p-CH3O-Ph-N2-OOCCH3-B3LYPG-aug-cc-pVDZ-scan-d09-49-n400
 OpenBabel10311713213D

 24 24  0  0  1  0  0  0  0  0999 V2000
   11.3301    7.2620   -0.1867 C   0  0  0  0  0  0  0  0  0  0  0  0
   10.0651    6.9487   -0.7425 C   0  0  0  0  0  0  0  0  0  0  0  0
   10.2197    6.1239   -1.8659 C   0  0  2  0  0  0  0  0  0  0  0  0
   10.3801    4.7094   -1.7851 C   0  0  1  0  0  0  0  0  0  0  0  0
   11.6758    5.7071   -1.9017 C   0  0  2  0  0  0  0  0  0  0  0  0
   12.2862    6.4758   -0.8356 C   0  0  0  0  0  0  0  0  0  0  0  0
   11.5011    7.9224    0.6598 H   0  0  0  0  0  0  0  0  0  0  0  0
    9.1093    7.1561   -0.2643 H   0  0  0  0  0  0  0  0  0  0  0  0
   10.3908    4.0594   -2.6603 H   0  0  0  0  0  0  0  0  0  0  0  0
   12.2503    5.4734   -2.7952 H   0  0  0  0  0  0  0  0  0  0  0  0
    9.0070    6.6170   -3.4861 N   0  0  0  0  0  0  0  0  0  0  0  0
    9.4663    6.9229   -4.4552 N   0  0  0  0  0  0  0  0  0  0  0  0
   13.6337    6.5045   -0.7283 O   0  0  0  0  0  0  0  0  0  0  0  0
   14.1811    7.4760    0.1639 C   0  0  0  0  0  0  0  0  0  0  0  0
   15.2681    7.3950    0.0721 H   0  0  0  0  0  0  0  0  0  0  0  0
   13.8808    7.2664    1.2014 H   0  0  0  0  0  0  0  0  0  0  0  0
   13.8533    8.4881   -0.1179 H   0  0  0  0  0  0  0  0  0  0  0  0
   10.0020    4.0300   -0.6155 O   0  0  0  0  0  0  0  0  0  0  0  0
   10.2410    2.6775   -0.5719 C   0  0  0  0  0  0  0  0  0  0  0  0
   10.7487    2.0619   -1.4784 O   0  0  0  0  0  0  0  0  0  0  0  0
    9.7910    2.1078    0.7456 C   0  0  0  0  0  0  0  0  0  0  0  0
   10.3619    2.5720    1.5612 H   0  0  0  0  0  0  0  0  0  0  0  0
    8.7310    2.3397    0.9128 H   0  0  0  0  0  0  0  0  0  0  0  0
    9.9490    1.0260    0.7456 H   0  0  0  0  0  0  0  0  0  0  0  0
  1  7  1  0  0  0  0
  2  8  1  0  0  0  0
  2  1  1  0  0  0  0
  3  4  1  0  0  0  0
  3  2  1  1  0  0  0
  4  9  1  6  0  0  0
  4 18  1  0  0  0  0
  5 10  1  6  0  0  0
  5  3  1  0  0  0  0
  5  4  1  0  0  0  0
  5  6  1  0  0  0  0
  6 13  1  0  0  0  0
  6  1  2  0  0  0  0
 12 11  3  0  0  0  0
 13 14  1  0  0  0  0
 14 16  1  0  0  0  0
 15 14  1  0  0  0  0
 17 14  1  0  0  0  0
 18 19  1  0  0  0  0
 19 21  1  0  0  0  0
 20 19  2  0  0  0  0
 21 24  1  0  0  0  0
 21 23  1  0  0  0  0
 21 22  1  0  0  0  0
M  RAD  2   2   2   3   2
M  END
