Coordinates from ORCA-job p-CH3O-Ph-N2-OOCCH3-B3LYPG-aug-cc-pVDZ-scan-d09-49-n400
 OpenBabel10311713213D

 24 24  0  0  1  0  0  0  0  0999 V2000
   11.3534    7.2740   -0.1789 C   0  0  0  0  0  0  0  0  0  0  0  0
   10.0885    6.9430   -0.7289 C   0  0  0  0  0  0  0  0  0  0  0  0
   10.2521    6.1128   -1.8418 C   0  0  2  0  0  0  0  0  0  0  0  0
   10.3937    4.7003   -1.7669 C   0  0  1  0  0  0  0  0  0  0  0  0
   11.7067    5.7075   -1.8797 C   0  0  2  0  0  0  0  0  0  0  0  0
   12.3122    6.4832   -0.8191 C   0  0  0  0  0  0  0  0  0  0  0  0
   11.5221    7.9439    0.6605 H   0  0  0  0  0  0  0  0  0  0  0  0
    9.1335    7.1347   -0.2427 H   0  0  0  0  0  0  0  0  0  0  0  0
   10.4205    4.0495   -2.6410 H   0  0  0  0  0  0  0  0  0  0  0  0
   12.2825    5.4602   -2.7686 H   0  0  0  0  0  0  0  0  0  0  0  0
    8.8773    6.6237   -3.6310 N   0  0  0  0  0  0  0  0  0  0  0  0
    9.3251    6.9791   -4.5820 N   0  0  0  0  0  0  0  0  0  0  0  0
   13.6602    6.5129   -0.7043 O   0  0  0  0  0  0  0  0  0  0  0  0
   14.2019    7.4940    0.1802 C   0  0  0  0  0  0  0  0  0  0  0  0
   15.2895    7.4131    0.0952 H   0  0  0  0  0  0  0  0  0  0  0  0
   13.8965    7.2954    1.2185 H   0  0  0  0  0  0  0  0  0  0  0  0
   13.8751    8.5030   -0.1135 H   0  0  0  0  0  0  0  0  0  0  0  0
   10.0147    4.0179   -0.6014 O   0  0  0  0  0  0  0  0  0  0  0  0
   10.2310    2.6603   -0.5682 C   0  0  0  0  0  0  0  0  0  0  0  0
   10.7198    2.0417   -1.4828 O   0  0  0  0  0  0  0  0  0  0  0  0
    9.7760    2.0898    0.7469 C   0  0  0  0  0  0  0  0  0  0  0  0
   10.3495    2.5466    1.5648 H   0  0  0  0  0  0  0  0  0  0  0  0
    8.7176    2.3300    0.9136 H   0  0  0  0  0  0  0  0  0  0  0  0
    9.9241    1.0066    0.7430 H   0  0  0  0  0  0  0  0  0  0  0  0
  1  7  1  0  0  0  0
  2  8  1  0  0  0  0
  2  1  1  0  0  0  0
  3  4  1  0  0  0  0
  3  2  1  1  0  0  0
  4  9  1  6  0  0  0
  4 18  1  0  0  0  0
  5 10  1  6  0  0  0
  5  3  1  0  0  0  0
  5  4  1  0  0  0  0
  5  6  1  0  0  0  0
  6 13  1  0  0  0  0
  6  1  2  0  0  0  0
 12 11  3  0  0  0  0
 13 14  1  0  0  0  0
 14 16  1  0  0  0  0
 15 14  1  0  0  0  0
 17 14  1  0  0  0  0
 18 19  1  0  0  0  0
 19 21  1  0  0  0  0
 20 19  2  0  0  0  0
 21 23  1  0  0  0  0
 21 22  1  0  0  0  0
 24 21  1  0  0  0  0
M  RAD  2   2   2   3   2
M  END
