Coordinates from ORCA-job p-CH3O-Ph-N2-OOCCH3-B3LYPG-aug-cc-pVDZ-scan-d09-49-n400
 OpenBabel10311713213D

 24 24  0  0  1  0  0  0  0  0999 V2000
   11.4953    7.2959   -0.0989 C   0  0  0  0  0  0  0  0  0  0  0  0
   10.2465    6.9794   -0.6932 C   0  0  0  0  0  0  0  0  0  0  0  0
   10.4481    6.1469   -1.7959 C   0  0  2  0  0  0  0  0  0  0  0  0
   10.5292    4.7327   -1.7357 C   0  0  1  0  0  0  0  0  0  0  0  0
   11.8941    5.7346   -1.7901 C   0  0  2  0  0  0  0  0  0  0  0  0
   12.4679    6.4931   -0.7062 C   0  0  0  0  0  0  0  0  0  0  0  0
   11.6426    7.9620    0.7475 H   0  0  0  0  0  0  0  0  0  0  0  0
    9.2763    7.1715   -0.2390 H   0  0  0  0  0  0  0  0  0  0  0  0
   10.6019    4.0882   -2.6107 H   0  0  0  0  0  0  0  0  0  0  0  0
   12.4931    5.4621   -2.6553 H   0  0  0  0  0  0  0  0  0  0  0  0
    7.7118    6.4405   -4.4414 N   0  0  0  0  0  0  0  0  0  0  0  0
    8.2909    6.8594   -5.2830 N   0  0  0  0  0  0  0  0  0  0  0  0
   13.8112    6.4980   -0.5304 O   0  0  0  0  0  0  0  0  0  0  0  0
   14.3284    7.4655    0.3822 C   0  0  0  0  0  0  0  0  0  0  0  0
   15.4174    7.3665    0.3466 H   0  0  0  0  0  0  0  0  0  0  0  0
   13.9731    7.2688    1.4050 H   0  0  0  0  0  0  0  0  0  0  0  0
   14.0334    8.4818    0.0794 H   0  0  0  0  0  0  0  0  0  0  0  0
   10.0900    4.0504   -0.5969 O   0  0  0  0  0  0  0  0  0  0  0  0
   10.2520    2.6826   -0.5753 C   0  0  0  0  0  0  0  0  0  0  0  0
   10.7469    2.0576   -1.4815 O   0  0  0  0  0  0  0  0  0  0  0  0
    9.7385    2.1169    0.7197 C   0  0  0  0  0  0  0  0  0  0  0  0
   10.2985    2.5505    1.5593 H   0  0  0  0  0  0  0  0  0  0  0  0
    8.6831    2.3884    0.8539 H   0  0  0  0  0  0  0  0  0  0  0  0
    9.8534    1.0297    0.7116 H   0  0  0  0  0  0  0  0  0  0  0  0
  1  7  1  0  0  0  0
  2  8  1  0  0  0  0
  2  1  1  0  0  0  0
  3  5  1  0  0  0  0
  3  4  1  0  0  0  0
  3  2  1  1  0  0  0
  4  9  1  6  0  0  0
  4 18  1  0  0  0  0
  5 10  1  6  0  0  0
  5  4  1  0  0  0  0
  5  6  1  0  0  0  0
  6 13  1  0  0  0  0
  6  1  2  0  0  0  0
 12 11  3  0  0  0  0
 13 14  1  0  0  0  0
 14 16  1  0  0  0  0
 15 14  1  0  0  0  0
 17 14  1  0  0  0  0
 18 19  1  0  0  0  0
 19 21  1  0  0  0  0
 20 19  2  0  0  0  0
 21 23  1  0  0  0  0
 21 22  1  0  0  0  0
 24 21  1  0  0  0  0
M  RAD  2   2   2   3   2
M  END
