Coordinates from ORCA-job p-CH3O-Ph-N2-OOCCH3-B3LYPG-aug-cc-pVDZ-scan-d09-49-n400
 OpenBabel10311713213D

 24 24  0  0  1  0  0  0  0  0999 V2000
   11.5383    7.3057   -0.0775 C   0  0  0  0  0  0  0  0  0  0  0  0
   10.2951    6.9991   -0.6887 C   0  0  0  0  0  0  0  0  0  0  0  0
   10.5064    6.1670   -1.7894 C   0  0  2  0  0  0  0  0  0  0  0  0
   10.5728    4.7524   -1.7343 C   0  0  1  0  0  0  0  0  0  0  0  0
   11.9490    5.7459   -1.7663 C   0  0  2  0  0  0  0  0  0  0  0  0
   12.5136    6.4977   -0.6735 C   0  0  0  0  0  0  0  0  0  0  0  0
   11.6790    7.9697    0.7718 H   0  0  0  0  0  0  0  0  0  0  0  0
    9.3203    7.1973   -0.2470 H   0  0  0  0  0  0  0  0  0  0  0  0
   10.6553    4.1110   -2.6107 H   0  0  0  0  0  0  0  0  0  0  0  0
   12.5565    5.4698   -2.6244 H   0  0  0  0  0  0  0  0  0  0  0  0
    7.3481    6.3481   -4.6251 N   0  0  0  0  0  0  0  0  0  0  0  0
    8.0352    6.7393   -5.3959 N   0  0  0  0  0  0  0  0  0  0  0  0
   13.8547    6.4930   -0.4797 O   0  0  0  0  0  0  0  0  0  0  0  0
   14.3659    7.4550    0.4418 C   0  0  0  0  0  0  0  0  0  0  0  0
   15.4546    7.3484    0.4210 H   0  0  0  0  0  0  0  0  0  0  0  0
   13.9952    7.2589    1.4593 H   0  0  0  0  0  0  0  0  0  0  0  0
   14.0822    8.4740    0.1371 H   0  0  0  0  0  0  0  0  0  0  0  0
   10.1107    4.0692   -0.6057 O   0  0  0  0  0  0  0  0  0  0  0  0
   10.2579    2.6994   -0.5887 C   0  0  0  0  0  0  0  0  0  0  0  0
   10.7559    2.0734   -1.4924 O   0  0  0  0  0  0  0  0  0  0  0  0
    9.7189    2.1329    0.6955 C   0  0  0  0  0  0  0  0  0  0  0  0
   10.2738    2.5531    1.5451 H   0  0  0  0  0  0  0  0  0  0  0  0
    8.6658    2.4186    0.8175 H   0  0  0  0  0  0  0  0  0  0  0  0
    9.8185    1.0443    0.6818 H   0  0  0  0  0  0  0  0  0  0  0  0
  1  7  1  0  0  0  0
  2  8  1  0  0  0  0
  2  1  1  0  0  0  0
  3  5  1  0  0  0  0
  3  4  1  0  0  0  0
  3  2  1  1  0  0  0
  4  9  1  6  0  0  0
  4 18  1  0  0  0  0
  5 10  1  6  0  0  0
  5  4  1  0  0  0  0
  5  6  1  0  0  0  0
  6 13  1  0  0  0  0
  6  1  2  0  0  0  0
 12 11  3  0  0  0  0
 13 14  1  0  0  0  0
 14 16  1  0  0  0  0
 15 14  1  0  0  0  0
 17 14  1  0  0  0  0
 18 19  1  0  0  0  0
 19 21  1  0  0  0  0
 20 19  2  0  0  0  0
 21 23  1  0  0  0  0
 21 22  1  0  0  0  0
 24 21  1  0  0  0  0
M  RAD  2   2   2   3   2
M  END
