Coordinates from ORCA-job p-CH3O-Ph-N2-OOCCH3-B3LYPG-aug-cc-pVDZ-scan-d09-49-n400
 OpenBabel10311713213D

 24 24  0  0  1  0  0  0  0  0999 V2000
   11.5254    7.4678   -0.5106 C   0  0  0  0  0  0  0  0  0  0  0  0
   10.2860    7.3742   -1.0712 C   0  0  0  0  0  0  0  0  0  0  0  0
    9.9273    6.1773   -1.7586 C   0  0  1  0  0  0  0  0  0  0  0  0
   10.7210    4.9167   -1.7128 C   0  0  1  0  0  0  0  0  0  0  0  0
   12.1194    5.2089   -1.2954 C   0  0  0  0  0  0  0  0  0  0  0  0
   12.4656    6.3707   -0.6770 C   0  0  0  0  0  0  0  0  0  0  0  0
   11.8037    8.3684    0.0277 H   0  0  0  0  0  0  0  0  0  0  0  0
    9.5725    8.1946   -1.0095 H   0  0  0  0  0  0  0  0  0  0  0  0
   10.6852    4.3502   -2.6480 H   0  0  0  0  0  0  0  0  0  0  0  0
   12.8634    4.4290   -1.4407 H   0  0  0  0  0  0  0  0  0  0  0  0
    8.6994    6.1320   -2.4323 N   0  0  0  0  0  0  0  0  0  0  0  0
    7.7103    6.0683   -2.9849 N   0  0  0  0  0  0  0  0  0  0  0  0
   13.7563    6.4692   -0.2280 O   0  0  0  0  0  0  0  0  0  0  0  0
   14.2600    7.7379    0.1812 C   0  0  0  0  0  0  0  0  0  0  0  0
   15.3258    7.5807    0.3751 H   0  0  0  0  0  0  0  0  0  0  0  0
   13.7764    8.0881    1.1057 H   0  0  0  0  0  0  0  0  0  0  0  0
   14.1419    8.4936   -0.6097 H   0  0  0  0  0  0  0  0  0  0  0  0
   10.0415    4.0113   -0.7016 O   0  0  0  0  0  0  0  0  0  0  0  0
   10.2390    2.6851   -0.8604 C   0  0  0  0  0  0  0  0  0  0  0  0
   10.9082    2.1996   -1.7519 O   0  0  0  0  0  0  0  0  0  0  0  0
    9.5135    1.8902    0.1992 C   0  0  0  0  0  0  0  0  0  0  0  0
    9.7723    2.2650    1.1976 H   0  0  0  0  0  0  0  0  0  0  0  0
    8.4289    2.0109    0.0716 H   0  0  0  0  0  0  0  0  0  0  0  0
    9.7803    0.8334    0.1061 H   0  0  0  0  0  0  0  0  0  0  0  0
  1  7  1  0  0  0  0
  2  8  1  0  0  0  0
  2  1  2  0  0  0  0
  3 11  1  1  0  0  0
  3  4  1  0  0  0  0
  3  2  1  0  0  0  0
  4  9  1  6  0  0  0
  4  5  1  0  0  0  0
  4 18  1  0  0  0  0
  5  6  2  0  0  0  0
  6  1  1  0  0  0  0
  6 13  1  0  0  0  0
 10  5  1  0  0  0  0
 12 11  1  0  0  0  0
 13 14  1  0  0  0  0
 14 15  1  0  0  0  0
 14 16  1  0  0  0  0
 17 14  1  0  0  0  0
 19 18  1  0  0  0  0
 19 21  1  0  0  0  0
 20 19  2  0  0  0  0
 21 22  1  0  0  0  0
 23 21  1  0  0  0  0
 24 21  1  0  0  0  0
M  RAD  3   3   2  11   2  12   3
M  END
