Coordinates from ORCA-job p-CH3O-Ph-N2-OOCCH3-B3LYPG-aug-cc-pVDZ-scan-d09-49-n400
 OpenBabel10311713213D

 24 24  0  0  1  0  0  0  0  0999 V2000
   11.4857    7.2945   -0.1031 C   0  0  0  0  0  0  0  0  0  0  0  0
   10.2357    6.9755   -0.6926 C   0  0  0  0  0  0  0  0  0  0  0  0
   10.4343    6.1430   -1.7983 C   0  0  2  0  0  0  0  0  0  0  0  0
   10.5192    4.7281   -1.7356 C   0  0  1  0  0  0  0  0  0  0  0  0
   11.8817    5.7327   -1.7961 C   0  0  2  0  0  0  0  0  0  0  0  0
   12.4574    6.4931   -0.7142 C   0  0  0  0  0  0  0  0  0  0  0  0
   11.6350    7.9608    0.7429 H   0  0  0  0  0  0  0  0  0  0  0  0
    9.2673    7.1666   -0.2338 H   0  0  0  0  0  0  0  0  0  0  0  0
   10.5908    4.0823   -2.6100 H   0  0  0  0  0  0  0  0  0  0  0  0
   12.4785    5.4607   -2.6630 H   0  0  0  0  0  0  0  0  0  0  0  0
    7.7967    6.4582   -4.3983 N   0  0  0  0  0  0  0  0  0  0  0  0
    8.3537    6.8834   -5.2526 N   0  0  0  0  0  0  0  0  0  0  0  0
   13.8013    6.5005   -0.5430 O   0  0  0  0  0  0  0  0  0  0  0  0
   14.3199    7.4691    0.3676 C   0  0  0  0  0  0  0  0  0  0  0  0
   15.4090    7.3720    0.3282 H   0  0  0  0  0  0  0  0  0  0  0  0
   13.9685    7.2718    1.3917 H   0  0  0  0  0  0  0  0  0  0  0  0
   14.0220    8.4848    0.0658 H   0  0  0  0  0  0  0  0  0  0  0  0
   10.0852    4.0458   -0.5949 O   0  0  0  0  0  0  0  0  0  0  0  0
   10.2497    2.6783   -0.5729 C   0  0  0  0  0  0  0  0  0  0  0  0
   10.7430    2.0535   -1.4801 O   0  0  0  0  0  0  0  0  0  0  0  0
    9.7415    2.1126    0.7242 C   0  0  0  0  0  0  0  0  0  0  0  0
   10.3030    2.5481    1.5617 H   0  0  0  0  0  0  0  0  0  0  0  0
    8.6858    2.3819    0.8613 H   0  0  0  0  0  0  0  0  0  0  0  0
    9.8586    1.0257    0.7167 H   0  0  0  0  0  0  0  0  0  0  0  0
  1  7  1  0  0  0  0
  2  8  1  0  0  0  0
  2  1  1  0  0  0  0
  3  5  1  0  0  0  0
  3  4  1  0  0  0  0
  3  2  1  1  0  0  0
  4  9  1  6  0  0  0
  4 18  1  0  0  0  0
  5 10  1  6  0  0  0
  5  4  1  0  0  0  0
  5  6  1  0  0  0  0
  6 13  1  0  0  0  0
  6  1  2  0  0  0  0
 12 11  3  0  0  0  0
 13 14  1  0  0  0  0
 14 16  1  0  0  0  0
 15 14  1  0  0  0  0
 17 14  1  0  0  0  0
 18 19  1  0  0  0  0
 19 21  1  0  0  0  0
 20 19  2  0  0  0  0
 21 23  1  0  0  0  0
 21 22  1  0  0  0  0
 24 21  1  0  0  0  0
M  RAD  2   2   2   3   2
M  END
