Coordinates from ORCA-job p-CH3O-Ph-N2-OOCCH3-B3LYPG-aug-cc-pVDZ-scan-d09-49-n400
 OpenBabel10311713213D

 24 24  0  0  1  0  0  0  0  0999 V2000
   11.5002    7.3516   -0.4758 C   0  0  0  0  0  0  0  0  0  0  0  0
   10.2751    7.2404   -1.0804 C   0  0  0  0  0  0  0  0  0  0  0  0
   10.1879    6.2562   -2.0965 C   0  0  1  0  0  0  0  0  0  0  0  0
   10.7667    4.9245   -1.9347 C   0  0  1  0  0  0  0  0  0  0  0  0
   12.1903    5.2516   -1.5654 C   0  0  0  0  0  0  0  0  0  0  0  0
   12.4965    6.3428   -0.8012 C   0  0  0  0  0  0  0  0  0  0  0  0
   11.7243    8.2026    0.1592 H   0  0  0  0  0  0  0  0  0  0  0  0
    9.4884    7.9756   -0.9250 H   0  0  0  0  0  0  0  0  0  0  0  0
   10.7053    4.2850   -2.8165 H   0  0  0  0  0  0  0  0  0  0  0  0
   12.9437    4.4942   -1.7682 H   0  0  0  0  0  0  0  0  0  0  0  0
    8.3713    6.0087   -2.4772 N   0  0  0  0  0  0  0  0  0  0  0  0
    7.4351    5.9901   -3.0740 N   0  0  0  0  0  0  0  0  0  0  0  0
   13.7861    6.4401   -0.3623 O   0  0  0  0  0  0  0  0  0  0  0  0
   14.2024    7.6116    0.3355 C   0  0  0  0  0  0  0  0  0  0  0  0
   15.2734    7.4784    0.5167 H   0  0  0  0  0  0  0  0  0  0  0  0
   13.6839    7.7126    1.3006 H   0  0  0  0  0  0  0  0  0  0  0  0
   14.0453    8.5170   -0.2694 H   0  0  0  0  0  0  0  0  0  0  0  0
   10.0814    4.1379   -0.8271 O   0  0  0  0  0  0  0  0  0  0  0  0
   10.2980    2.8067   -0.8248 C   0  0  0  0  0  0  0  0  0  0  0  0
   10.9810    2.2267   -1.6472 O   0  0  0  0  0  0  0  0  0  0  0  0
    9.5969    2.1339    0.3323 C   0  0  0  0  0  0  0  0  0  0  0  0
   10.0666    2.4512    1.2737 H   0  0  0  0  0  0  0  0  0  0  0  0
    8.5424    2.4356    0.3721 H   0  0  0  0  0  0  0  0  0  0  0  0
    9.6812    1.0483    0.2270 H   0  0  0  0  0  0  0  0  0  0  0  0
  1  7  1  0  0  0  0
  2  8  1  0  0  0  0
  2  1  2  0  0  0  0
  3 11  1  1  0  0  0
  3  4  1  0  0  0  0
  3  2  1  0  0  0  0
  4  9  1  6  0  0  0
  4  5  1  0  0  0  0
  4 18  1  0  0  0  0
  5  6  2  0  0  0  0
  6  1  1  0  0  0  0
  6 13  1  0  0  0  0
 10  5  1  0  0  0  0
 12 11  1  0  0  0  0
 13 14  1  0  0  0  0
 14 15  1  0  0  0  0
 14 16  1  0  0  0  0
 17 14  1  0  0  0  0
 18 19  1  0  0  0  0
 19 21  1  0  0  0  0
 20 19  2  0  0  0  0
 21 23  1  0  0  0  0
 21 22  1  0  0  0  0
 24 21  1  0  0  0  0
M  RAD  3   3   2  11   2  12   3
M  END
