Coordinates from ORCA-job p-CH3O-Ph-N2-OOCCH3-B3LYPG-aug-cc-pVDZ-scan-d09-49-n400
 OpenBabel10311713213D

 24 24  0  0  1  0  0  0  0  0999 V2000
   11.5205    7.4249   -0.5203 C   0  0  0  0  0  0  0  0  0  0  0  0
   10.2881    7.3213   -1.1109 C   0  0  0  0  0  0  0  0  0  0  0  0
   10.0814    6.2174   -1.9685 C   0  0  1  0  0  0  0  0  0  0  0  0
   10.7616    4.9198   -1.8535 C   0  0  1  0  0  0  0  0  0  0  0  0
   12.1625    5.2280   -1.4392 C   0  0  0  0  0  0  0  0  0  0  0  0
   12.4826    6.3635   -0.7504 C   0  0  0  0  0  0  0  0  0  0  0  0
   11.7691    8.3079    0.0592 H   0  0  0  0  0  0  0  0  0  0  0  0
    9.5384    8.1034   -1.0104 H   0  0  0  0  0  0  0  0  0  0  0  0
   10.7163    4.3013   -2.7524 H   0  0  0  0  0  0  0  0  0  0  0  0
   12.9125    4.4547   -1.5874 H   0  0  0  0  0  0  0  0  0  0  0  0
    8.5053    6.0505   -2.4341 N   0  0  0  0  0  0  0  0  0  0  0  0
    7.5219    6.0003   -2.9670 N   0  0  0  0  0  0  0  0  0  0  0  0
   13.7705    6.4549   -0.2942 O   0  0  0  0  0  0  0  0  0  0  0  0
   14.2203    7.6746    0.2883 C   0  0  0  0  0  0  0  0  0  0  0  0
   15.2836    7.5233    0.4995 H   0  0  0  0  0  0  0  0  0  0  0  0
   13.6947    7.8920    1.2305 H   0  0  0  0  0  0  0  0  0  0  0  0
   14.1043    8.5204   -0.4060 H   0  0  0  0  0  0  0  0  0  0  0  0
   10.0555    4.0727   -0.7859 O   0  0  0  0  0  0  0  0  0  0  0  0
   10.2624    2.7427   -0.8521 C   0  0  0  0  0  0  0  0  0  0  0  0
   10.9416    2.1994   -1.7031 O   0  0  0  0  0  0  0  0  0  0  0  0
    9.5574    2.0148    0.2693 C   0  0  0  0  0  0  0  0  0  0  0  0
   10.0468    2.2610    1.2220 H   0  0  0  0  0  0  0  0  0  0  0  0
    8.5112    2.3381    0.3426 H   0  0  0  0  0  0  0  0  0  0  0  0
    9.6151    0.9362    0.0958 H   0  0  0  0  0  0  0  0  0  0  0  0
  1  7  1  0  0  0  0
  2  8  1  0  0  0  0
  2  1  2  0  0  0  0
  3 11  1  1  0  0  0
  3  4  1  0  0  0  0
  3  2  1  0  0  0  0
  4  9  1  6  0  0  0
  4  5  1  0  0  0  0
  4 18  1  0  0  0  0
  5  6  2  0  0  0  0
  6  1  1  0  0  0  0
  6 13  1  0  0  0  0
 10  5  1  0  0  0  0
 12 11  1  0  0  0  0
 13 14  1  0  0  0  0
 14 15  1  0  0  0  0
 14 16  1  0  0  0  0
 17 14  1  0  0  0  0
 19 18  1  0  0  0  0
 19 21  1  0  0  0  0
 20 19  2  0  0  0  0
 21 23  1  0  0  0  0
 21 22  1  0  0  0  0
 24 21  1  0  0  0  0
M  RAD  3   3   2  11   2  12   3
M  END
