Coordinates from ORCA-job p-CH3O-Ph-N2-OOCCH3-B3LYPG-aug-cc-pVDZ-scan-d09-49-n400
 OpenBabel10311713213D

 24 24  0  0  1  0  0  0  0  0999 V2000
   11.3856    7.2815   -0.1530 C   0  0  0  0  0  0  0  0  0  0  0  0
   10.1207    6.9464   -0.7010 C   0  0  0  0  0  0  0  0  0  0  0  0
   10.2897    6.1171   -1.8123 C   0  0  2  0  0  0  0  0  0  0  0  0
   10.4087    4.7048   -1.7482 C   0  0  1  0  0  0  0  0  0  0  0  0
   11.7430    5.7213   -1.8559 C   0  0  2  0  0  0  0  0  0  0  0  0
   12.3462    6.4926   -0.7951 C   0  0  0  0  0  0  0  0  0  0  0  0
   11.5540    7.9510    0.6868 H   0  0  0  0  0  0  0  0  0  0  0  0
    9.1662    7.1286   -0.2105 H   0  0  0  0  0  0  0  0  0  0  0  0
   10.4511    4.0584   -2.6245 H   0  0  0  0  0  0  0  0  0  0  0  0
   12.3166    5.4622   -2.7425 H   0  0  0  0  0  0  0  0  0  0  0  0
    8.6631    6.6131   -3.8373 N   0  0  0  0  0  0  0  0  0  0  0  0
    9.1272    6.9494   -4.7841 N   0  0  0  0  0  0  0  0  0  0  0  0
   13.6948    6.5210   -0.6748 O   0  0  0  0  0  0  0  0  0  0  0  0
   14.2328    7.4996    0.2140 C   0  0  0  0  0  0  0  0  0  0  0  0
   15.3209    7.4186    0.1338 H   0  0  0  0  0  0  0  0  0  0  0  0
   13.9230    7.2993    1.2508 H   0  0  0  0  0  0  0  0  0  0  0  0
   13.9082    8.5098   -0.0785 H   0  0  0  0  0  0  0  0  0  0  0  0
   10.0252    4.0172   -0.5905 O   0  0  0  0  0  0  0  0  0  0  0  0
   10.2207    2.6547   -0.5700 C   0  0  0  0  0  0  0  0  0  0  0  0
   10.6990    2.0375   -1.4906 O   0  0  0  0  0  0  0  0  0  0  0  0
    9.7662    2.0817    0.7440 C   0  0  0  0  0  0  0  0  0  0  0  0
   10.3428    2.5332    1.5625 H   0  0  0  0  0  0  0  0  0  0  0  0
    8.7092    2.3264    0.9129 H   0  0  0  0  0  0  0  0  0  0  0  0
    9.9087    0.9978    0.7358 H   0  0  0  0  0  0  0  0  0  0  0  0
  1  7  1  0  0  0  0
  2  8  1  0  0  0  0
  2  1  1  0  0  0  0
  3  4  1  0  0  0  0
  3  2  1  1  0  0  0
  4  9  1  6  0  0  0
  4 18  1  0  0  0  0
  5 10  1  6  0  0  0
  5  3  1  0  0  0  0
  5  4  1  0  0  0  0
  5  6  1  0  0  0  0
  6 13  1  0  0  0  0
  6  1  2  0  0  0  0
 12 11  3  0  0  0  0
 13 14  1  0  0  0  0
 14 16  1  0  0  0  0
 15 14  1  0  0  0  0
 17 14  1  0  0  0  0
 18 19  1  0  0  0  0
 19 21  1  0  0  0  0
 20 19  2  0  0  0  0
 21 23  1  0  0  0  0
 21 22  1  0  0  0  0
 24 21  1  0  0  0  0
M  RAD  2   2   2   3   2
M  END
