Coordinates from ORCA-job p-CH3O-Ph-N2-OOCCH3-B3LYPG-aug-cc-pVDZ-scan-d09-49-n400
 OpenBabel10311713213D

 24 24  0  0  1  0  0  0  0  0999 V2000
   11.5045    7.2977   -0.0940 C   0  0  0  0  0  0  0  0  0  0  0  0
   10.2568    6.9849   -0.6927 C   0  0  0  0  0  0  0  0  0  0  0  0
   10.4605    6.1523   -1.7951 C   0  0  2  0  0  0  0  0  0  0  0  0
   10.5358    4.7377   -1.7369 C   0  0  1  0  0  0  0  0  0  0  0  0
   11.9052    5.7365   -1.7847 C   0  0  2  0  0  0  0  0  0  0  0  0
   12.4771    6.4928   -0.6984 C   0  0  0  0  0  0  0  0  0  0  0  0
   11.6507    7.9634    0.7529 H   0  0  0  0  0  0  0  0  0  0  0  0
    9.2856    7.1792   -0.2415 H   0  0  0  0  0  0  0  0  0  0  0  0
   10.6114    4.0944   -2.6125 H   0  0  0  0  0  0  0  0  0  0  0  0
   12.5062    5.4627   -2.6480 H   0  0  0  0  0  0  0  0  0  0  0  0
    7.6282    6.4240   -4.4880 N   0  0  0  0  0  0  0  0  0  0  0  0
    8.2327    6.8350   -5.3155 N   0  0  0  0  0  0  0  0  0  0  0  0
   13.8199    6.4941   -0.5177 O   0  0  0  0  0  0  0  0  0  0  0  0
   14.3362    7.4594    0.3975 C   0  0  0  0  0  0  0  0  0  0  0  0
   15.4251    7.3576    0.3660 H   0  0  0  0  0  0  0  0  0  0  0  0
   13.9766    7.2628    1.4189 H   0  0  0  0  0  0  0  0  0  0  0  0
   14.0450    8.4768    0.0946 H   0  0  0  0  0  0  0  0  0  0  0  0
   10.0891    4.0550   -0.6016 O   0  0  0  0  0  0  0  0  0  0  0  0
   10.2458    2.6864   -0.5819 C   0  0  0  0  0  0  0  0  0  0  0  0
   10.7517    2.0625   -1.4827 O   0  0  0  0  0  0  0  0  0  0  0  0
    9.7389    2.1222    0.7163 C   0  0  0  0  0  0  0  0  0  0  0  0
   10.2983    2.5617    1.5532 H   0  0  0  0  0  0  0  0  0  0  0  0
    8.6823    2.3882    0.8520 H   0  0  0  0  0  0  0  0  0  0  0  0
    9.8600    1.0357    0.7116 H   0  0  0  0  0  0  0  0  0  0  0  0
  1  7  1  0  0  0  0
  2  8  1  0  0  0  0
  2  1  1  0  0  0  0
  3  5  1  0  0  0  0
  3  4  1  0  0  0  0
  3  2  1  1  0  0  0
  4  9  1  6  0  0  0
  4 18  1  0  0  0  0
  5 10  1  6  0  0  0
  5  4  1  0  0  0  0
  5  6  1  0  0  0  0
  6 13  1  0  0  0  0
  6  1  2  0  0  0  0
 12 11  3  0  0  0  0
 13 14  1  0  0  0  0
 14 16  1  0  0  0  0
 15 14  1  0  0  0  0
 17 14  1  0  0  0  0
 18 19  1  0  0  0  0
 19 21  1  0  0  0  0
 20 19  2  0  0  0  0
 21 23  1  0  0  0  0
 21 22  1  0  0  0  0
 24 21  1  0  0  0  0
M  RAD  2   2   2   3   2
M  END
