Coordinates from ORCA-job p-CH3O-Ph-N2-OOCCH3-B3LYPG-aug-cc-pVDZ-scan-d09-49-n400
 OpenBabel10311713213D

 24 24  0  0  1  0  0  0  0  0999 V2000
   11.5775    7.3126   -0.0572 C   0  0  0  0  0  0  0  0  0  0  0  0
   10.3408    7.0182   -0.6867 C   0  0  0  0  0  0  0  0  0  0  0  0
   10.5608    6.1891   -1.7900 C   0  0  2  0  0  0  0  0  0  0  0  0
   10.6142    4.7733   -1.7370 C   0  0  1  0  0  0  0  0  0  0  0  0
   12.0001    5.7574   -1.7479 C   0  0  2  0  0  0  0  0  0  0  0  0
   12.5551    6.5001   -0.6442 C   0  0  0  0  0  0  0  0  0  0  0  0
   11.7116    7.9714    0.7971 H   0  0  0  0  0  0  0  0  0  0  0  0
    9.3622    7.2227   -0.2567 H   0  0  0  0  0  0  0  0  0  0  0  0
   10.7064    4.1332   -2.6134 H   0  0  0  0  0  0  0  0  0  0  0  0
   12.6170    5.4779   -2.5981 H   0  0  0  0  0  0  0  0  0  0  0  0
    7.0076    6.2488   -4.8035 N   0  0  0  0  0  0  0  0  0  0  0  0
    7.7852    6.6289   -5.4884 N   0  0  0  0  0  0  0  0  0  0  0  0
   13.8935    6.4849   -0.4322 O   0  0  0  0  0  0  0  0  0  0  0  0
   14.3989    7.4387    0.5009 C   0  0  0  0  0  0  0  0  0  0  0  0
   15.4870    7.3244    0.4944 H   0  0  0  0  0  0  0  0  0  0  0  0
   14.0130    7.2402    1.5123 H   0  0  0  0  0  0  0  0  0  0  0  0
   14.1268    8.4612    0.1975 H   0  0  0  0  0  0  0  0  0  0  0  0
   10.1298    4.0909   -0.6177 O   0  0  0  0  0  0  0  0  0  0  0  0
   10.2653    2.7196   -0.6020 C   0  0  0  0  0  0  0  0  0  0  0  0
   10.7714    2.0917   -1.4997 O   0  0  0  0  0  0  0  0  0  0  0  0
    9.7036    2.1548    0.6731 C   0  0  0  0  0  0  0  0  0  0  0  0
   10.2517    2.5667    1.5313 H   0  0  0  0  0  0  0  0  0  0  0  0
    8.6519    2.4512    0.7824 H   0  0  0  0  0  0  0  0  0  0  0  0
    9.7921    1.0653    0.6574 H   0  0  0  0  0  0  0  0  0  0  0  0
  1  7  1  0  0  0  0
  2  8  1  0  0  0  0
  2  1  1  0  0  0  0
  3  5  1  0  0  0  0
  3  4  1  0  0  0  0
  3  2  1  1  0  0  0
  4  9  1  6  0  0  0
  4 18  1  0  0  0  0
  5 10  1  6  0  0  0
  5  4  1  0  0  0  0
  5  6  1  0  0  0  0
  6 13  1  0  0  0  0
  6  1  2  0  0  0  0
 12 11  3  0  0  0  0
 13 14  1  0  0  0  0
 14 16  1  0  0  0  0
 15 14  1  0  0  0  0
 17 14  1  0  0  0  0
 18 19  1  0  0  0  0
 19 21  1  0  0  0  0
 20 19  2  0  0  0  0
 21 23  1  0  0  0  0
 21 22  1  0  0  0  0
 24 21  1  0  0  0  0
M  RAD  2   2   2   3   2
M  END
