Coordinates from ORCA-job p-CH3O-Ph-N2-OOCCH3-B3LYPG-aug-cc-pVDZ-scan-d09-49-n400
 OpenBabel10311713213D

 24 24  0  0  1  0  0  0  0  0999 V2000
   11.5190    7.3009   -0.0859 C   0  0  0  0  0  0  0  0  0  0  0  0
   10.2731    6.9897   -0.6887 C   0  0  0  0  0  0  0  0  0  0  0  0
   10.4794    6.1584   -1.7922 C   0  0  2  0  0  0  0  0  0  0  0  0
   10.5529    4.7437   -1.7341 C   0  0  1  0  0  0  0  0  0  0  0  0
   11.9241    5.7420   -1.7775 C   0  0  2  0  0  0  0  0  0  0  0  0
   12.4931    6.4964   -0.6887 C   0  0  0  0  0  0  0  0  0  0  0  0
   11.6630    7.9652    0.7625 H   0  0  0  0  0  0  0  0  0  0  0  0
    9.3009    7.1845   -0.2401 H   0  0  0  0  0  0  0  0  0  0  0  0
   10.6317    4.1007   -2.6097 H   0  0  0  0  0  0  0  0  0  0  0  0
   12.5273    5.4674   -2.6391 H   0  0  0  0  0  0  0  0  0  0  0  0
    7.5156    6.3896   -4.5394 N   0  0  0  0  0  0  0  0  0  0  0  0
    8.1518    6.7898   -5.3483 N   0  0  0  0  0  0  0  0  0  0  0  0
   13.8354    6.4968   -0.5041 O   0  0  0  0  0  0  0  0  0  0  0  0
   14.3495    7.4609    0.4137 C   0  0  0  0  0  0  0  0  0  0  0  0
   15.4385    7.3585    0.3852 H   0  0  0  0  0  0  0  0  0  0  0  0
   13.9868    7.2634    1.4338 H   0  0  0  0  0  0  0  0  0  0  0  0
   14.0598    8.4788    0.1110 H   0  0  0  0  0  0  0  0  0  0  0  0
   10.1018    4.0608   -0.6009 O   0  0  0  0  0  0  0  0  0  0  0  0
   10.2564    2.6919   -0.5818 C   0  0  0  0  0  0  0  0  0  0  0  0
   10.7513    2.0664   -1.4876 O   0  0  0  0  0  0  0  0  0  0  0  0
    9.7261    2.1250    0.7058 C   0  0  0  0  0  0  0  0  0  0  0  0
   10.2829    2.5494    1.5522 H   0  0  0  0  0  0  0  0  0  0  0  0
    8.6721    2.4059    0.8322 H   0  0  0  0  0  0  0  0  0  0  0  0
    9.8308    1.0369    0.6935 H   0  0  0  0  0  0  0  0  0  0  0  0
  1  7  1  0  0  0  0
  2  8  1  0  0  0  0
  2  1  1  0  0  0  0
  3  5  1  0  0  0  0
  3  4  1  0  0  0  0
  3  2  1  1  0  0  0
  4  9  1  6  0  0  0
  4 18  1  0  0  0  0
  5 10  1  6  0  0  0
  5  4  1  0  0  0  0
  5  6  1  0  0  0  0
  6 13  1  0  0  0  0
  6  1  2  0  0  0  0
 12 11  3  0  0  0  0
 13 14  1  0  0  0  0
 14 16  1  0  0  0  0
 15 14  1  0  0  0  0
 17 14  1  0  0  0  0
 18 19  1  0  0  0  0
 19 21  1  0  0  0  0
 20 19  2  0  0  0  0
 21 23  1  0  0  0  0
 21 22  1  0  0  0  0
 24 21  1  0  0  0  0
M  RAD  2   2   2   3   2
M  END
