Coordinates from ORCA-job p-CH3O-Ph-N2-OOCCH3-B3LYPG-aug-cc-pVDZ-scan-d09-49-n400
 OpenBabel10311713213D

 24 24  0  0  1  0  0  0  0  0999 V2000
   11.5871    7.3145   -0.0527 C   0  0  0  0  0  0  0  0  0  0  0  0
   10.3525    7.0239   -0.6875 C   0  0  0  0  0  0  0  0  0  0  0  0
   10.5744    6.1956   -1.7911 C   0  0  2  0  0  0  0  0  0  0  0  0
   10.6250    4.7796   -1.7387 C   0  0  1  0  0  0  0  0  0  0  0  0
   12.0125    5.7598   -1.7434 C   0  0  2  0  0  0  0  0  0  0  0  0
   12.5648    6.5001   -0.6367 C   0  0  0  0  0  0  0  0  0  0  0  0
   11.7193    7.9718    0.8030 H   0  0  0  0  0  0  0  0  0  0  0  0
    9.3727    7.2304   -0.2611 H   0  0  0  0  0  0  0  0  0  0  0  0
   10.7183    4.1398   -2.6152 H   0  0  0  0  0  0  0  0  0  0  0  0
   12.6323    5.4798   -2.5914 H   0  0  0  0  0  0  0  0  0  0  0  0
    6.9237    6.2224   -4.8450 N   0  0  0  0  0  0  0  0  0  0  0  0
    7.7199    6.5982   -5.5107 N   0  0  0  0  0  0  0  0  0  0  0  0
   13.9022    6.4811   -0.4192 O   0  0  0  0  0  0  0  0  0  0  0  0
   14.4063    7.4327    0.5169 C   0  0  0  0  0  0  0  0  0  0  0  0
   15.4942    7.3156    0.5147 H   0  0  0  0  0  0  0  0  0  0  0  0
   14.0158    7.2342    1.5265 H   0  0  0  0  0  0  0  0  0  0  0  0
   14.1380    8.4562    0.2135 H   0  0  0  0  0  0  0  0  0  0  0  0
   10.1353    4.0976   -0.6213 O   0  0  0  0  0  0  0  0  0  0  0  0
   10.2679    2.7261   -0.6058 C   0  0  0  0  0  0  0  0  0  0  0  0
   10.7753    2.0975   -1.5024 O   0  0  0  0  0  0  0  0  0  0  0  0
    9.7011    2.1618    0.6673 C   0  0  0  0  0  0  0  0  0  0  0  0
   10.2478    2.5717    1.5273 H   0  0  0  0  0  0  0  0  0  0  0  0
    8.6499    2.4607    0.7738 H   0  0  0  0  0  0  0  0  0  0  0  0
    9.7871    1.0721    0.6511 H   0  0  0  0  0  0  0  0  0  0  0  0
  1  7  1  0  0  0  0
  2  8  1  0  0  0  0
  2  1  1  0  0  0  0
  3  5  1  0  0  0  0
  3  4  1  0  0  0  0
  3  2  1  1  0  0  0
  4  9  1  6  0  0  0
  4 18  1  0  0  0  0
  5 10  1  6  0  0  0
  5  4  1  0  0  0  0
  5  6  1  0  0  0  0
  6 13  1  0  0  0  0
  6  1  2  0  0  0  0
 12 11  3  0  0  0  0
 13 14  1  0  0  0  0
 14 16  1  0  0  0  0
 15 14  1  0  0  0  0
 17 14  1  0  0  0  0
 18 19  1  0  0  0  0
 19 21  1  0  0  0  0
 20 19  2  0  0  0  0
 21 23  1  0  0  0  0
 21 22  1  0  0  0  0
 24 21  1  0  0  0  0
M  RAD  2   2   2   3   2
M  END
