Coordinates from ORCA-job p-CH3O-Ph-N2-OOCCH3-B3LYPG-aug-cc-pVDZ-scan-d09-49-n400
 OpenBabel10311713213D

 24 24  0  0  1  0  0  0  0  0999 V2000
   11.4575    7.2907   -0.1163 C   0  0  0  0  0  0  0  0  0  0  0  0
   10.2022    6.9625   -0.6901 C   0  0  0  0  0  0  0  0  0  0  0  0
   10.3927    6.1300   -1.7946 C   0  0  2  0  0  0  0  0  0  0  0  0
   10.4879    4.7170   -1.7328 C   0  0  1  0  0  0  0  0  0  0  0  0
   11.8425    5.7297   -1.8109 C   0  0  2  0  0  0  0  0  0  0  0  0
   12.4271    6.4952   -0.7378 C   0  0  0  0  0  0  0  0  0  0  0  0
   11.6126    7.9593    0.7268 H   0  0  0  0  0  0  0  0  0  0  0  0
    9.2380    7.1475   -0.2202 H   0  0  0  0  0  0  0  0  0  0  0  0
   10.5520    4.0715   -2.6078 H   0  0  0  0  0  0  0  0  0  0  0  0
   12.4302    5.4607   -2.6849 H   0  0  0  0  0  0  0  0  0  0  0  0
    8.0644    6.5037   -4.2527 N   0  0  0  0  0  0  0  0  0  0  0  0
    8.5676    6.9315   -5.1377 N   0  0  0  0  0  0  0  0  0  0  0  0
   13.7730    6.5122   -0.5838 O   0  0  0  0  0  0  0  0  0  0  0  0
   14.2964    7.4857    0.3188 C   0  0  0  0  0  0  0  0  0  0  0  0
   15.3855    7.3961    0.2657 H   0  0  0  0  0  0  0  0  0  0  0  0
   13.9594    7.2876    1.3475 H   0  0  0  0  0  0  0  0  0  0  0  0
   13.9876    8.4989    0.0193 H   0  0  0  0  0  0  0  0  0  0  0  0
   10.0729    4.0327   -0.5861 O   0  0  0  0  0  0  0  0  0  0  0  0
   10.2457    2.6663   -0.5656 C   0  0  0  0  0  0  0  0  0  0  0  0
   10.7225    2.0429   -1.4825 O   0  0  0  0  0  0  0  0  0  0  0  0
    9.7443    2.0966    0.7324 C   0  0  0  0  0  0  0  0  0  0  0  0
   10.3122    2.5278    1.5678 H   0  0  0  0  0  0  0  0  0  0  0  0
    8.6901    2.3675    0.8774 H   0  0  0  0  0  0  0  0  0  0  0  0
    9.8591    1.0095    0.7198 H   0  0  0  0  0  0  0  0  0  0  0  0
  1  7  1  0  0  0  0
  2  8  1  0  0  0  0
  2  1  1  0  0  0  0
  3  4  1  0  0  0  0
  3  2  1  1  0  0  0
  4  9  1  6  0  0  0
  4 18  1  0  0  0  0
  5 10  1  6  0  0  0
  5  3  1  0  0  0  0
  5  4  1  0  0  0  0
  5  6  1  0  0  0  0
  6 13  1  0  0  0  0
  6  1  2  0  0  0  0
 12 11  3  0  0  0  0
 13 14  1  0  0  0  0
 14 16  1  0  0  0  0
 15 14  1  0  0  0  0
 17 14  1  0  0  0  0
 18 19  1  0  0  0  0
 19 21  1  0  0  0  0
 20 19  2  0  0  0  0
 21 23  1  0  0  0  0
 21 22  1  0  0  0  0
 24 21  1  0  0  0  0
M  RAD  2   2   2   3   2
M  END
