Coordinates from ORCA-job p-CH3O-Ph-N2-OOCCH3-B3LYPG-aug-cc-pVDZ-scan-d09-49-n400
 OpenBabel10311713213D

 24 24  0  0  1  0  0  0  0  0999 V2000
   11.5167    7.3019   -0.0885 C   0  0  0  0  0  0  0  0  0  0  0  0
   10.2699    6.9889   -0.6897 C   0  0  0  0  0  0  0  0  0  0  0  0
   10.4763    6.1557   -1.7898 C   0  0  2  0  0  0  0  0  0  0  0  0
   10.5497    4.7418   -1.7338 C   0  0  1  0  0  0  0  0  0  0  0  0
   11.9205    5.7407   -1.7779 C   0  0  2  0  0  0  0  0  0  0  0  0
   12.4906    6.4966   -0.6905 C   0  0  0  0  0  0  0  0  0  0  0  0
   11.6612    7.9675    0.7589 H   0  0  0  0  0  0  0  0  0  0  0  0
    9.2973    7.1828   -0.2416 H   0  0  0  0  0  0  0  0  0  0  0  0
   10.6267    4.0995   -2.6100 H   0  0  0  0  0  0  0  0  0  0  0  0
   12.5227    5.4663   -2.6403 H   0  0  0  0  0  0  0  0  0  0  0  0
    7.5423    6.3952   -4.5242 N   0  0  0  0  0  0  0  0  0  0  0  0
    8.1709    6.7985   -5.3375 N   0  0  0  0  0  0  0  0  0  0  0  0
   13.8330    6.4975   -0.5068 O   0  0  0  0  0  0  0  0  0  0  0  0
   14.3473    7.4631    0.4092 C   0  0  0  0  0  0  0  0  0  0  0  0
   15.4363    7.3609    0.3803 H   0  0  0  0  0  0  0  0  0  0  0  0
   13.9852    7.2670    1.4298 H   0  0  0  0  0  0  0  0  0  0  0  0
   14.0572    8.4804    0.1051 H   0  0  0  0  0  0  0  0  0  0  0  0
   10.1003    4.0585   -0.5999 O   0  0  0  0  0  0  0  0  0  0  0  0
   10.2560    2.6898   -0.5810 C   0  0  0  0  0  0  0  0  0  0  0  0
   10.7488    2.0645   -1.4880 O   0  0  0  0  0  0  0  0  0  0  0  0
    9.7266    2.1224    0.7068 C   0  0  0  0  0  0  0  0  0  0  0  0
   10.2841    2.5463    1.5530 H   0  0  0  0  0  0  0  0  0  0  0  0
    8.6727    2.4033    0.8341 H   0  0  0  0  0  0  0  0  0  0  0  0
    9.8311    1.0342    0.6940 H   0  0  0  0  0  0  0  0  0  0  0  0
  1  7  1  0  0  0  0
  2  8  1  0  0  0  0
  2  1  1  0  0  0  0
  3  5  1  0  0  0  0
  3  4  1  0  0  0  0
  3  2  1  1  0  0  0
  4  9  1  6  0  0  0
  4 18  1  0  0  0  0
  5 10  1  6  0  0  0
  5  4  1  0  0  0  0
  5  6  1  0  0  0  0
  6 13  1  0  0  0  0
  6  1  2  0  0  0  0
 12 11  3  0  0  0  0
 13 14  1  0  0  0  0
 14 16  1  0  0  0  0
 15 14  1  0  0  0  0
 17 14  1  0  0  0  0
 18 19  1  0  0  0  0
 19 21  1  0  0  0  0
 20 19  2  0  0  0  0
 21 23  1  0  0  0  0
 21 22  1  0  0  0  0
 24 21  1  0  0  0  0
M  RAD  2   2   2   3   2
M  END
