Coordinates from ORCA-job p-CH3O-Ph-N2-OOCCH3-B3LYPG-aug-cc-pVDZ-scan-d09-49-n400
 OpenBabel10311713213D

 24 24  0  0  1  0  0  0  0  0999 V2000
   11.4984    7.2973   -0.0976 C   0  0  0  0  0  0  0  0  0  0  0  0
   10.2496    6.9800   -0.6918 C   0  0  0  0  0  0  0  0  0  0  0  0
   10.4518    6.1472   -1.7940 C   0  0  2  0  0  0  0  0  0  0  0  0
   10.5330    4.7331   -1.7340 C   0  0  1  0  0  0  0  0  0  0  0  0
   11.8979    5.7356   -1.7882 C   0  0  2  0  0  0  0  0  0  0  0  0
   12.4713    6.4946   -0.7045 C   0  0  0  0  0  0  0  0  0  0  0  0
   11.6454    7.9638    0.7485 H   0  0  0  0  0  0  0  0  0  0  0  0
    9.2793    7.1718   -0.2378 H   0  0  0  0  0  0  0  0  0  0  0  0
   10.6063    4.0887   -2.6091 H   0  0  0  0  0  0  0  0  0  0  0  0
   12.4969    5.4631   -2.6534 H   0  0  0  0  0  0  0  0  0  0  0  0
    7.6944    6.4332   -4.4474 N   0  0  0  0  0  0  0  0  0  0  0  0
    8.2776    6.8510   -5.2868 N   0  0  0  0  0  0  0  0  0  0  0  0
   13.8146    6.5001   -0.5285 O   0  0  0  0  0  0  0  0  0  0  0  0
   14.3313    7.4682    0.3836 C   0  0  0  0  0  0  0  0  0  0  0  0
   15.4204    7.3695    0.3483 H   0  0  0  0  0  0  0  0  0  0  0  0
   13.9759    7.2718    1.4065 H   0  0  0  0  0  0  0  0  0  0  0  0
   14.0360    8.4842    0.0804 H   0  0  0  0  0  0  0  0  0  0  0  0
   10.0937    4.0505   -0.5955 O   0  0  0  0  0  0  0  0  0  0  0  0
   10.2561    2.6828   -0.5740 C   0  0  0  0  0  0  0  0  0  0  0  0
   10.7456    2.0573   -1.4828 O   0  0  0  0  0  0  0  0  0  0  0  0
    9.7337    2.1156    0.7168 C   0  0  0  0  0  0  0  0  0  0  0  0
   10.2927    2.5431    1.5601 H   0  0  0  0  0  0  0  0  0  0  0  0
    8.6792    2.3927    0.8475 H   0  0  0  0  0  0  0  0  0  0  0  0
    9.8423    1.0278    0.7054 H   0  0  0  0  0  0  0  0  0  0  0  0
  1  7  1  0  0  0  0
  2  8  1  0  0  0  0
  2  1  1  0  0  0  0
  3  5  1  0  0  0  0
  3  4  1  0  0  0  0
  3  2  1  1  0  0  0
  4  9  1  6  0  0  0
  4 18  1  0  0  0  0
  5 10  1  6  0  0  0
  5  4  1  0  0  0  0
  5  6  1  0  0  0  0
  6 13  1  0  0  0  0
  6  1  2  0  0  0  0
 12 11  3  0  0  0  0
 13 14  1  0  0  0  0
 14 16  1  0  0  0  0
 15 14  1  0  0  0  0
 17 14  1  0  0  0  0
 18 19  1  0  0  0  0
 19 21  1  0  0  0  0
 20 19  2  0  0  0  0
 21 23  1  0  0  0  0
 21 22  1  0  0  0  0
 24 21  1  0  0  0  0
M  RAD  2   2   2   3   2
M  END
