Coordinates from ORCA-job p-CH3O-Ph-N2-OOCCH3-B3LYPG-aug-cc-pVDZ-scan-d09-49-n400
 OpenBabel10311713213D

 24 24  0  0  1  0  0  0  0  0999 V2000
   11.3992    7.2849   -0.1404 C   0  0  0  0  0  0  0  0  0  0  0  0
   10.1341    6.9518   -0.6894 C   0  0  0  0  0  0  0  0  0  0  0  0
   10.3037    6.1238   -1.8019 C   0  0  2  0  0  0  0  0  0  0  0  0
   10.4166    4.7110   -1.7425 C   0  0  1  0  0  0  0  0  0  0  0  0
   11.7561    5.7278   -1.8466 C   0  0  2  0  0  0  0  0  0  0  0  0
   12.3592    6.4956   -0.7836 C   0  0  0  0  0  0  0  0  0  0  0  0
   11.5681    7.9522    0.7010 H   0  0  0  0  0  0  0  0  0  0  0  0
    9.1799    7.1328   -0.1981 H   0  0  0  0  0  0  0  0  0  0  0  0
   10.4613    4.0671   -2.6203 H   0  0  0  0  0  0  0  0  0  0  0  0
   12.3291    5.4679   -2.7333 H   0  0  0  0  0  0  0  0  0  0  0  0
    8.5651    6.5927   -3.9261 N   0  0  0  0  0  0  0  0  0  0  0  0
    9.0376    6.9215   -4.8705 N   0  0  0  0  0  0  0  0  0  0  0  0
   13.7077    6.5209   -0.6604 O   0  0  0  0  0  0  0  0  0  0  0  0
   14.2458    7.4962    0.2317 C   0  0  0  0  0  0  0  0  0  0  0  0
   15.3339    7.4134    0.1535 H   0  0  0  0  0  0  0  0  0  0  0  0
   13.9336    7.2941    1.2675 H   0  0  0  0  0  0  0  0  0  0  0  0
   13.9238    8.5078   -0.0589 H   0  0  0  0  0  0  0  0  0  0  0  0
   10.0309    4.0212   -0.5876 O   0  0  0  0  0  0  0  0  0  0  0  0
   10.2203    2.6575   -0.5716 C   0  0  0  0  0  0  0  0  0  0  0  0
   10.6961    2.0414   -1.4941 O   0  0  0  0  0  0  0  0  0  0  0  0
    9.7650    2.0827    0.7412 C   0  0  0  0  0  0  0  0  0  0  0  0
   10.3437    2.5302    1.5605 H   0  0  0  0  0  0  0  0  0  0  0  0
    8.7089    2.3305    0.9116 H   0  0  0  0  0  0  0  0  0  0  0  0
    9.9039    0.9983    0.7302 H   0  0  0  0  0  0  0  0  0  0  0  0
  1  7  1  0  0  0  0
  2  8  1  0  0  0  0
  2  1  1  0  0  0  0
  3  4  1  0  0  0  0
  3  2  1  1  0  0  0
  4  9  1  6  0  0  0
  4 18  1  0  0  0  0
  5 10  1  6  0  0  0
  5  3  1  0  0  0  0
  5  4  1  0  0  0  0
  5  6  1  0  0  0  0
  6 13  1  0  0  0  0
  6  1  2  0  0  0  0
 12 11  3  0  0  0  0
 13 14  1  0  0  0  0
 14 16  1  0  0  0  0
 15 14  1  0  0  0  0
 17 14  1  0  0  0  0
 18 19  1  0  0  0  0
 19 21  1  0  0  0  0
 20 19  2  0  0  0  0
 21 23  1  0  0  0  0
 21 22  1  0  0  0  0
 24 21  1  0  0  0  0
M  RAD  2   2   2   3   2
M  END
