Coordinates from ORCA-job p-CH3O-Ph-N2-OOCCH3-B3LYPG-aug-cc-pVDZ-scan-d09-49-n400
 OpenBabel10311713213D

 24 24  0  0  1  0  0  0  0  0999 V2000
   11.4080    7.2874   -0.1368 C   0  0  0  0  0  0  0  0  0  0  0  0
   10.1436    6.9535   -0.6878 C   0  0  0  0  0  0  0  0  0  0  0  0
   10.3162    6.1231   -1.7975 C   0  0  2  0  0  0  0  0  0  0  0  0
   10.4265    4.7102   -1.7388 C   0  0  1  0  0  0  0  0  0  0  0  0
   11.7681    5.7273   -1.8394 C   0  0  2  0  0  0  0  0  0  0  0  0
   12.3690    6.4964   -0.7761 C   0  0  0  0  0  0  0  0  0  0  0  0
   11.5752    7.9567    0.7034 H   0  0  0  0  0  0  0  0  0  0  0  0
    9.1887    7.1349   -0.1979 H   0  0  0  0  0  0  0  0  0  0  0  0
   10.4739    4.0667   -2.6167 H   0  0  0  0  0  0  0  0  0  0  0  0
   12.3425    5.4665   -2.7249 H   0  0  0  0  0  0  0  0  0  0  0  0
    8.4983    6.5840   -3.9766 N   0  0  0  0  0  0  0  0  0  0  0  0
    8.9719    6.9276   -4.9152 N   0  0  0  0  0  0  0  0  0  0  0  0
   13.7174    6.5207   -0.6492 O   0  0  0  0  0  0  0  0  0  0  0  0
   14.2536    7.4974    0.2424 C   0  0  0  0  0  0  0  0  0  0  0  0
   15.3419    7.4136    0.1675 H   0  0  0  0  0  0  0  0  0  0  0  0
   13.9383    7.2979    1.2777 H   0  0  0  0  0  0  0  0  0  0  0  0
   13.9334    8.5087   -0.0513 H   0  0  0  0  0  0  0  0  0  0  0  0
   10.0372    4.0204   -0.5853 O   0  0  0  0  0  0  0  0  0  0  0  0
   10.2226    2.6560   -0.5702 C   0  0  0  0  0  0  0  0  0  0  0  0
   10.6958    2.0391   -1.4936 O   0  0  0  0  0  0  0  0  0  0  0  0
    9.7610    2.0810    0.7402 C   0  0  0  0  0  0  0  0  0  0  0  0
   10.3399    2.5242    1.5618 H   0  0  0  0  0  0  0  0  0  0  0  0
    8.7058    2.3337    0.9084 H   0  0  0  0  0  0  0  0  0  0  0  0
    9.8946    0.9960    0.7275 H   0  0  0  0  0  0  0  0  0  0  0  0
  1  7  1  0  0  0  0
  2  8  1  0  0  0  0
  2  1  1  0  0  0  0
  3  4  1  0  0  0  0
  3  2  1  1  0  0  0
  4  9  1  6  0  0  0
  4 18  1  0  0  0  0
  5 10  1  6  0  0  0
  5  3  1  0  0  0  0
  5  4  1  0  0  0  0
  5  6  1  0  0  0  0
  6 13  1  0  0  0  0
  6  1  2  0  0  0  0
 12 11  3  0  0  0  0
 13 14  1  0  0  0  0
 14 16  1  0  0  0  0
 15 14  1  0  0  0  0
 17 14  1  0  0  0  0
 18 19  1  0  0  0  0
 19 21  1  0  0  0  0
 20 19  2  0  0  0  0
 21 23  1  0  0  0  0
 21 22  1  0  0  0  0
 24 21  1  0  0  0  0
M  RAD  2   2   2   3   2
M  END
