Coordinates from ORCA-job p-CH3O-Ph-N2-OOCCH3-B3LYPG-aug-cc-pVDZ-scan-d09-49-n400
 OpenBabel10311713213D

 24 24  0  0  1  0  0  0  0  0999 V2000
   11.5247    7.3019   -0.0833 C   0  0  0  0  0  0  0  0  0  0  0  0
   10.2796    6.9924   -0.6889 C   0  0  0  0  0  0  0  0  0  0  0  0
   10.4873    6.1618   -1.7915 C   0  0  2  0  0  0  0  0  0  0  0  0
   10.5588    4.7473   -1.7346 C   0  0  1  0  0  0  0  0  0  0  0  0
   11.9313    5.7439   -1.7748 C   0  0  2  0  0  0  0  0  0  0  0  0
   12.4992    6.4968   -0.6847 C   0  0  0  0  0  0  0  0  0  0  0  0
   11.6678    7.9652    0.7661 H   0  0  0  0  0  0  0  0  0  0  0  0
    9.3066    7.1882   -0.2423 H   0  0  0  0  0  0  0  0  0  0  0  0
   10.6383    4.1049   -2.6105 H   0  0  0  0  0  0  0  0  0  0  0  0
   12.5356    5.4690   -2.6355 H   0  0  0  0  0  0  0  0  0  0  0  0
    7.4643    6.3767   -4.5648 N   0  0  0  0  0  0  0  0  0  0  0  0
    8.1154    6.7715   -5.3644 N   0  0  0  0  0  0  0  0  0  0  0  0
   13.8411    6.4953   -0.4972 O   0  0  0  0  0  0  0  0  0  0  0  0
   14.3543    7.4577    0.4229 C   0  0  0  0  0  0  0  0  0  0  0  0
   15.4432    7.3540    0.3968 H   0  0  0  0  0  0  0  0  0  0  0  0
   13.9890    7.2595    1.4419 H   0  0  0  0  0  0  0  0  0  0  0  0
   14.0665    8.4763    0.1208 H   0  0  0  0  0  0  0  0  0  0  0  0
   10.1048    4.0644   -0.6026 O   0  0  0  0  0  0  0  0  0  0  0  0
   10.2575    2.6952   -0.5839 C   0  0  0  0  0  0  0  0  0  0  0  0
   10.7537    2.0696   -1.4888 O   0  0  0  0  0  0  0  0  0  0  0  0
    9.7247    2.1286    0.7028 C   0  0  0  0  0  0  0  0  0  0  0  0
   10.2805    2.5523    1.5502 H   0  0  0  0  0  0  0  0  0  0  0  0
    8.6708    2.4104    0.8276 H   0  0  0  0  0  0  0  0  0  0  0  0
    9.8285    1.0403    0.6905 H   0  0  0  0  0  0  0  0  0  0  0  0
  1  7  1  0  0  0  0
  2  8  1  0  0  0  0
  2  1  1  0  0  0  0
  3  5  1  0  0  0  0
  3  4  1  0  0  0  0
  3  2  1  1  0  0  0
  4  9  1  6  0  0  0
  4 18  1  0  0  0  0
  5 10  1  6  0  0  0
  5  4  1  0  0  0  0
  5  6  1  0  0  0  0
  6 13  1  0  0  0  0
  6  1  2  0  0  0  0
 12 11  3  0  0  0  0
 13 14  1  0  0  0  0
 14 16  1  0  0  0  0
 15 14  1  0  0  0  0
 17 14  1  0  0  0  0
 18 19  1  0  0  0  0
 19 21  1  0  0  0  0
 20 19  2  0  0  0  0
 21 23  1  0  0  0  0
 21 22  1  0  0  0  0
 24 21  1  0  0  0  0
M  RAD  2   2   2   3   2
M  END
