Coordinates from ORCA-job p-CH3O-Ph-N2-OOCCH3-B3LYPG-aug-cc-pVDZ-scan-d09-49-n400
 OpenBabel10311713213D

 24 24  0  0  1  0  0  0  0  0999 V2000
   11.3709    7.2780   -0.1675 C   0  0  0  0  0  0  0  0  0  0  0  0
   10.1065    6.9418   -0.7161 C   0  0  0  0  0  0  0  0  0  0  0  0
   10.2750    6.1104   -1.8260 C   0  0  2  0  0  0  0  0  0  0  0  0
   10.4027    4.6983   -1.7561 C   0  0  1  0  0  0  0  0  0  0  0  0
   11.7289    5.7124   -1.8663 C   0  0  2  0  0  0  0  0  0  0  0  0
   12.3318    6.4878   -0.8068 C   0  0  0  0  0  0  0  0  0  0  0  0
   11.5384    7.9496    0.6707 H   0  0  0  0  0  0  0  0  0  0  0  0
    9.1515    7.1268   -0.2275 H   0  0  0  0  0  0  0  0  0  0  0  0
   10.4407    4.0484   -2.6301 H   0  0  0  0  0  0  0  0  0  0  0  0
   12.3043    5.4563   -2.7528 H   0  0  0  0  0  0  0  0  0  0  0  0
    8.7571    6.6294   -3.7487 N   0  0  0  0  0  0  0  0  0  0  0  0
    9.2157    6.9889   -4.6911 N   0  0  0  0  0  0  0  0  0  0  0  0
   13.6801    6.5178   -0.6877 O   0  0  0  0  0  0  0  0  0  0  0  0
   14.2182    7.4995    0.1978 C   0  0  0  0  0  0  0  0  0  0  0  0
   15.3062    7.4192    0.1167 H   0  0  0  0  0  0  0  0  0  0  0  0
   13.9095    7.3019    1.2354 H   0  0  0  0  0  0  0  0  0  0  0  0
   13.8923    8.5085   -0.0975 H   0  0  0  0  0  0  0  0  0  0  0  0
   10.0210    4.0140   -0.5945 O   0  0  0  0  0  0  0  0  0  0  0  0
   10.2240    2.6533   -0.5674 C   0  0  0  0  0  0  0  0  0  0  0  0
   10.7063    2.0343   -1.4850 O   0  0  0  0  0  0  0  0  0  0  0  0
    9.7699    2.0831    0.7480 C   0  0  0  0  0  0  0  0  0  0  0  0
   10.3445    2.5390    1.5656 H   0  0  0  0  0  0  0  0  0  0  0  0
    8.7120    2.3250    0.9152 H   0  0  0  0  0  0  0  0  0  0  0  0
    9.9159    0.9996    0.7435 H   0  0  0  0  0  0  0  0  0  0  0  0
  1  7  1  0  0  0  0
  2  8  1  0  0  0  0
  2  1  1  0  0  0  0
  3  4  1  0  0  0  0
  3  2  1  1  0  0  0
  4  9  1  6  0  0  0
  4 18  1  0  0  0  0
  5 10  1  6  0  0  0
  5  3  1  0  0  0  0
  5  4  1  0  0  0  0
  5  6  1  0  0  0  0
  6 13  1  0  0  0  0
  6  1  2  0  0  0  0
 12 11  3  0  0  0  0
 13 14  1  0  0  0  0
 14 16  1  0  0  0  0
 15 14  1  0  0  0  0
 17 14  1  0  0  0  0
 18 19  1  0  0  0  0
 19 21  1  0  0  0  0
 20 19  2  0  0  0  0
 21 23  1  0  0  0  0
 21 22  1  0  0  0  0
 24 21  1  0  0  0  0
M  RAD  2   2   2   3   2
M  END
