Coordinates from ORCA-job p-CH3O-Ph-N2-OOCCH3-B3LYPG-aug-cc-pVDZ-scan-d09-49-n400
 OpenBabel10311713213D

 24 24  0  0  1  0  0  0  0  0999 V2000
   11.3907    7.2824   -0.1479 C   0  0  0  0  0  0  0  0  0  0  0  0
   10.1258    6.9477   -0.6958 C   0  0  0  0  0  0  0  0  0  0  0  0
   10.2949    6.1194   -1.8079 C   0  0  2  0  0  0  0  0  0  0  0  0
   10.4120    4.7071   -1.7455 C   0  0  1  0  0  0  0  0  0  0  0  0
   11.7480    5.7243   -1.8524 C   0  0  2  0  0  0  0  0  0  0  0  0
   12.3513    6.4942   -0.7911 C   0  0  0  0  0  0  0  0  0  0  0  0
   11.5593    7.9510    0.6926 H   0  0  0  0  0  0  0  0  0  0  0  0
    9.1714    7.1288   -0.2048 H   0  0  0  0  0  0  0  0  0  0  0  0
   10.4554    4.0616   -2.6223 H   0  0  0  0  0  0  0  0  0  0  0  0
   12.3213    5.4649   -2.7392 H   0  0  0  0  0  0  0  0  0  0  0  0
    8.6283    6.6051   -3.8687 N   0  0  0  0  0  0  0  0  0  0  0  0
    9.0953    6.9371   -4.8153 N   0  0  0  0  0  0  0  0  0  0  0  0
   13.7000    6.5222   -0.6705 O   0  0  0  0  0  0  0  0  0  0  0  0
   14.2379    7.4997    0.2195 C   0  0  0  0  0  0  0  0  0  0  0  0
   15.3260    7.4187    0.1394 H   0  0  0  0  0  0  0  0  0  0  0  0
   13.9280    7.2983    1.2560 H   0  0  0  0  0  0  0  0  0  0  0  0
   13.9135    8.5103   -0.0718 H   0  0  0  0  0  0  0  0  0  0  0  0
   10.0284    4.0186   -0.5887 O   0  0  0  0  0  0  0  0  0  0  0  0
   10.2222    2.6557   -0.5697 C   0  0  0  0  0  0  0  0  0  0  0  0
   10.6972    2.0387   -1.4921 O   0  0  0  0  0  0  0  0  0  0  0  0
    9.7642    2.0814    0.7424 C   0  0  0  0  0  0  0  0  0  0  0  0
   10.3414    2.5293    1.5626 H   0  0  0  0  0  0  0  0  0  0  0  0
    8.7078    2.3293    0.9107 H   0  0  0  0  0  0  0  0  0  0  0  0
    9.9032    0.9971    0.7321 H   0  0  0  0  0  0  0  0  0  0  0  0
  1  7  1  0  0  0  0
  2  8  1  0  0  0  0
  2  1  1  0  0  0  0
  3  4  1  0  0  0  0
  3  2  1  1  0  0  0
  4  9  1  6  0  0  0
  4 18  1  0  0  0  0
  5 10  1  6  0  0  0
  5  3  1  0  0  0  0
  5  4  1  0  0  0  0
  5  6  1  0  0  0  0
  6 13  1  0  0  0  0
  6  1  2  0  0  0  0
 12 11  3  0  0  0  0
 13 14  1  0  0  0  0
 14 16  1  0  0  0  0
 15 14  1  0  0  0  0
 17 14  1  0  0  0  0
 18 19  1  0  0  0  0
 19 21  1  0  0  0  0
 20 19  2  0  0  0  0
 21 23  1  0  0  0  0
 21 22  1  0  0  0  0
 24 21  1  0  0  0  0
M  RAD  2   2   2   3   2
M  END
