Coordinates from ORCA-job p-CH3O-Ph-N2-OOCCH3-B3LYPG-aug-cc-pVDZ-scan-d09-49-n400
 OpenBabel10311713213D

 24 24  0  0  1  0  0  0  0  0999 V2000
   11.5519    7.3101   -0.0704 C   0  0  0  0  0  0  0  0  0  0  0  0
   10.3107    7.0069   -0.6870 C   0  0  0  0  0  0  0  0  0  0  0  0
   10.5246    6.1736   -1.7895 C   0  0  2  0  0  0  0  0  0  0  0  0
   10.5863    4.7577   -1.7348 C   0  0  1  0  0  0  0  0  0  0  0  0
   11.9663    5.7487   -1.7597 C   0  0  2  0  0  0  0  0  0  0  0  0
   12.5273    6.4990   -0.6630 C   0  0  0  0  0  0  0  0  0  0  0  0
   11.6909    7.9732    0.7798 H   0  0  0  0  0  0  0  0  0  0  0  0
    9.3353    7.2075   -0.2480 H   0  0  0  0  0  0  0  0  0  0  0  0
   10.6726    4.1165   -2.6109 H   0  0  0  0  0  0  0  0  0  0  0  0
   12.5769    5.4710   -2.6150 H   0  0  0  0  0  0  0  0  0  0  0  0
    7.2323    6.3182   -4.6878 N   0  0  0  0  0  0  0  0  0  0  0  0
    7.9530    6.7045   -5.4289 N   0  0  0  0  0  0  0  0  0  0  0  0
   13.8676    6.4905   -0.4630 O   0  0  0  0  0  0  0  0  0  0  0  0
   14.3771    7.4508    0.4611 C   0  0  0  0  0  0  0  0  0  0  0  0
   15.4656    7.3413    0.4455 H   0  0  0  0  0  0  0  0  0  0  0  0
   14.0010    7.2554    1.4768 H   0  0  0  0  0  0  0  0  0  0  0  0
   14.0976    8.4707    0.1556 H   0  0  0  0  0  0  0  0  0  0  0  0
   10.1163    4.0747   -0.6095 O   0  0  0  0  0  0  0  0  0  0  0  0
   10.2587    2.7042   -0.5936 C   0  0  0  0  0  0  0  0  0  0  0  0
   10.7591    2.0778   -1.4956 O   0  0  0  0  0  0  0  0  0  0  0  0
    9.7138    2.1382    0.6883 C   0  0  0  0  0  0  0  0  0  0  0  0
   10.2673    2.5560    1.5402 H   0  0  0  0  0  0  0  0  0  0  0  0
    8.6612    2.4271    0.8072 H   0  0  0  0  0  0  0  0  0  0  0  0
    9.8101    1.0493    0.6740 H   0  0  0  0  0  0  0  0  0  0  0  0
  1  7  1  0  0  0  0
  2  8  1  0  0  0  0
  2  1  1  0  0  0  0
  3  5  1  0  0  0  0
  3  4  1  0  0  0  0
  3  2  1  1  0  0  0
  4  9  1  6  0  0  0
  4 18  1  0  0  0  0
  5 10  1  6  0  0  0
  5  4  1  0  0  0  0
  5  6  1  0  0  0  0
  6 13  1  0  0  0  0
  6  1  2  0  0  0  0
 12 11  3  0  0  0  0
 13 14  1  0  0  0  0
 14 16  1  0  0  0  0
 15 14  1  0  0  0  0
 17 14  1  0  0  0  0
 18 19  1  0  0  0  0
 19 21  1  0  0  0  0
 20 19  2  0  0  0  0
 21 23  1  0  0  0  0
 21 22  1  0  0  0  0
 24 21  1  0  0  0  0
M  RAD  2   2   2   3   2
M  END
