Coordinates from ORCA-job p-CH3O-Ph-N2-OOCCH3-B3LYPG-aug-cc-pVDZ-scan-d09-49-n400
 OpenBabel10311713213D

 24 24  0  0  1  0  0  0  0  0999 V2000
   11.5479    7.3088   -0.0731 C   0  0  0  0  0  0  0  0  0  0  0  0
   10.3056    7.0033   -0.6874 C   0  0  0  0  0  0  0  0  0  0  0  0
   10.5193    6.1702   -1.7870 C   0  0  2  0  0  0  0  0  0  0  0  0
   10.5827    4.7556   -1.7332 C   0  0  1  0  0  0  0  0  0  0  0  0
   11.9611    5.7480   -1.7607 C   0  0  2  0  0  0  0  0  0  0  0  0
   12.5237    6.4993   -0.6663 C   0  0  0  0  0  0  0  0  0  0  0  0
   11.6872    7.9731    0.7760 H   0  0  0  0  0  0  0  0  0  0  0  0
    9.3302    7.2024   -0.2476 H   0  0  0  0  0  0  0  0  0  0  0  0
   10.6672    4.1148   -2.6099 H   0  0  0  0  0  0  0  0  0  0  0  0
   12.5703    5.4712   -2.6173 H   0  0  0  0  0  0  0  0  0  0  0  0
    7.2739    6.3261   -4.6621 N   0  0  0  0  0  0  0  0  0  0  0  0
    7.9828    6.7147   -5.4142 N   0  0  0  0  0  0  0  0  0  0  0  0
   13.8644    6.4932   -0.4691 O   0  0  0  0  0  0  0  0  0  0  0  0
   14.3743    7.4552    0.4531 C   0  0  0  0  0  0  0  0  0  0  0  0
   15.4630    7.3474    0.4353 H   0  0  0  0  0  0  0  0  0  0  0  0
   14.0007    7.2601    1.4697 H   0  0  0  0  0  0  0  0  0  0  0  0
   14.0926    8.4743    0.1471 H   0  0  0  0  0  0  0  0  0  0  0  0
   10.1160    4.0722   -0.6068 O   0  0  0  0  0  0  0  0  0  0  0  0
   10.2606    2.7020   -0.5907 C   0  0  0  0  0  0  0  0  0  0  0  0
   10.7562    2.0756   -1.4955 O   0  0  0  0  0  0  0  0  0  0  0  0
    9.7123    2.1347    0.6891 C   0  0  0  0  0  0  0  0  0  0  0  0
   10.2656    2.5491    1.5426 H   0  0  0  0  0  0  0  0  0  0  0  0
    8.6602    2.4261    0.8072 H   0  0  0  0  0  0  0  0  0  0  0  0
    9.8057    1.0455    0.6725 H   0  0  0  0  0  0  0  0  0  0  0  0
  1  7  1  0  0  0  0
  2  8  1  0  0  0  0
  2  1  1  0  0  0  0
  3  5  1  0  0  0  0
  3  4  1  0  0  0  0
  3  2  1  1  0  0  0
  4  9  1  6  0  0  0
  4 18  1  0  0  0  0
  5 10  1  6  0  0  0
  5  4  1  0  0  0  0
  5  6  1  0  0  0  0
  6 13  1  0  0  0  0
  6  1  2  0  0  0  0
 12 11  3  0  0  0  0
 13 14  1  0  0  0  0
 14 16  1  0  0  0  0
 15 14  1  0  0  0  0
 17 14  1  0  0  0  0
 18 19  1  0  0  0  0
 19 21  1  0  0  0  0
 20 19  2  0  0  0  0
 21 23  1  0  0  0  0
 21 22  1  0  0  0  0
 24 21  1  0  0  0  0
M  RAD  2   2   2   3   2
M  END
