Coordinates from ORCA-job p-CH3O-Ph-N2-OOCCH3-B3LYPG-aug-cc-pVDZ-scan-d09-49-n400
 OpenBabel10311713213D

 24 24  0  0  1  0  0  0  0  0999 V2000
   11.3457    7.2716   -0.1815 C   0  0  0  0  0  0  0  0  0  0  0  0
   10.0803    6.9449   -0.7321 C   0  0  0  0  0  0  0  0  0  0  0  0
   10.2407    6.1164   -1.8478 C   0  0  2  0  0  0  0  0  0  0  0  0
   10.3881    4.7034   -1.7719 C   0  0  1  0  0  0  0  0  0  0  0  0
   11.6956    5.7077   -1.8861 C   0  0  2  0  0  0  0  0  0  0  0  0
   12.3033    6.4819   -0.8245 C   0  0  0  0  0  0  0  0  0  0  0  0
   11.5157    7.9392    0.6594 H   0  0  0  0  0  0  0  0  0  0  0  0
    9.1255    7.1405   -0.2471 H   0  0  0  0  0  0  0  0  0  0  0  0
   10.4094    4.0530   -2.6465 H   0  0  0  0  0  0  0  0  0  0  0  0
   12.2706    5.4650   -2.7769 H   0  0  0  0  0  0  0  0  0  0  0  0
    8.9255    6.6220   -3.5805 N   0  0  0  0  0  0  0  0  0  0  0  0
    9.3801    6.9564   -4.5375 N   0  0  0  0  0  0  0  0  0  0  0  0
   13.6511    6.5112   -0.7129 O   0  0  0  0  0  0  0  0  0  0  0  0
   14.1952    7.4900    0.1729 C   0  0  0  0  0  0  0  0  0  0  0  0
   15.2826    7.4089    0.0853 H   0  0  0  0  0  0  0  0  0  0  0  0
   13.8920    7.2888    1.2114 H   0  0  0  0  0  0  0  0  0  0  0  0
   13.8679    8.4998   -0.1177 H   0  0  0  0  0  0  0  0  0  0  0  0
   10.0103    4.0212   -0.6051 O   0  0  0  0  0  0  0  0  0  0  0  0
   10.2335    2.6651   -0.5697 C   0  0  0  0  0  0  0  0  0  0  0  0
   10.7264    2.0477   -1.4830 O   0  0  0  0  0  0  0  0  0  0  0  0
    9.7798    2.0938    0.7456 C   0  0  0  0  0  0  0  0  0  0  0  0
   10.3527    2.5519    1.5632 H   0  0  0  0  0  0  0  0  0  0  0  0
    8.7210    2.3318    0.9127 H   0  0  0  0  0  0  0  0  0  0  0  0
    9.9304    1.0110    0.7419 H   0  0  0  0  0  0  0  0  0  0  0  0
  1  7  1  0  0  0  0
  2  8  1  0  0  0  0
  2  1  1  0  0  0  0
  3  4  1  0  0  0  0
  3  2  1  1  0  0  0
  4  9  1  6  0  0  0
  4 18  1  0  0  0  0
  5 10  1  6  0  0  0
  5  3  1  0  0  0  0
  5  4  1  0  0  0  0
  5  6  1  0  0  0  0
  6 13  1  0  0  0  0
  6  1  2  0  0  0  0
 12 11  3  0  0  0  0
 13 14  1  0  0  0  0
 14 16  1  0  0  0  0
 15 14  1  0  0  0  0
 17 14  1  0  0  0  0
 18 19  1  0  0  0  0
 19 21  1  0  0  0  0
 20 19  2  0  0  0  0
 21 23  1  0  0  0  0
 21 22  1  0  0  0  0
 24 21  1  0  0  0  0
M  RAD  2   2   2   3   2
M  END
