Coordinates from ORCA-job p-CH3O-Ph-N2-OOCCH3-B3LYPG-aug-cc-pVDZ-scan-d09-49-n400
 OpenBabel10311713213D

 24 24  0  0  1  0  0  0  0  0999 V2000
   11.5126    7.3021   -0.0894 C   0  0  0  0  0  0  0  0  0  0  0  0
   10.2654    6.9875   -0.6876 C   0  0  0  0  0  0  0  0  0  0  0  0
   10.4698    6.1537   -1.7919 C   0  0  2  0  0  0  0  0  0  0  0  0
   10.5468    4.7381   -1.7324 C   0  0  1  0  0  0  0  0  0  0  0  0
   11.9155    5.7394   -1.7805 C   0  0  2  0  0  0  0  0  0  0  0  0
   12.4858    6.4974   -0.6938 C   0  0  0  0  0  0  0  0  0  0  0  0
   11.6584    7.9684    0.7570 H   0  0  0  0  0  0  0  0  0  0  0  0
    9.2945    7.1811   -0.2353 H   0  0  0  0  0  0  0  0  0  0  0  0
   10.6244    4.0941   -2.6075 H   0  0  0  0  0  0  0  0  0  0  0  0
   12.5170    5.4655   -2.6435 H   0  0  0  0  0  0  0  0  0  0  0  0
    7.5832    6.4033   -4.5025 N   0  0  0  0  0  0  0  0  0  0  0  0
    8.1985    6.8107   -5.3245 N   0  0  0  0  0  0  0  0  0  0  0  0
   13.8288    6.5006   -0.5134 O   0  0  0  0  0  0  0  0  0  0  0  0
   14.3440    7.4676    0.4006 C   0  0  0  0  0  0  0  0  0  0  0  0
   15.4330    7.3670    0.3691 H   0  0  0  0  0  0  0  0  0  0  0  0
   13.9847    7.2719    1.4223 H   0  0  0  0  0  0  0  0  0  0  0  0
   14.0516    8.4843    0.0965 H   0  0  0  0  0  0  0  0  0  0  0  0
   10.1004    4.0548   -0.5973 O   0  0  0  0  0  0  0  0  0  0  0  0
   10.2585    2.6864   -0.5777 C   0  0  0  0  0  0  0  0  0  0  0  0
   10.7465    2.0609   -1.4872 O   0  0  0  0  0  0  0  0  0  0  0  0
    9.7247    2.1181    0.7079 C   0  0  0  0  0  0  0  0  0  0  0  0
   10.2817    2.5387    1.5559 H   0  0  0  0  0  0  0  0  0  0  0  0
    8.6714    2.4019    0.8337 H   0  0  0  0  0  0  0  0  0  0  0  0
    9.8260    1.0296    0.6931 H   0  0  0  0  0  0  0  0  0  0  0  0
  1  7  1  0  0  0  0
  2  8  1  0  0  0  0
  2  1  1  0  0  0  0
  3  5  1  0  0  0  0
  3  4  1  0  0  0  0
  3  2  1  1  0  0  0
  4  9  1  6  0  0  0
  4 18  1  0  0  0  0
  5 10  1  6  0  0  0
  5  4  1  0  0  0  0
  5  6  1  0  0  0  0
  6 13  1  0  0  0  0
  6  1  2  0  0  0  0
 12 11  3  0  0  0  0
 13 14  1  0  0  0  0
 14 16  1  0  0  0  0
 15 14  1  0  0  0  0
 17 14  1  0  0  0  0
 18 19  1  0  0  0  0
 19 21  1  0  0  0  0
 20 19  2  0  0  0  0
 21 23  1  0  0  0  0
 21 22  1  0  0  0  0
 24 21  1  0  0  0  0
M  RAD  2   2   2   3   2
M  END
