Coordinates from ORCA-job p-CH3O-Ph-N2-OOCCH3-B3LYPG-aug-cc-pVDZ-scan-d09-49-n400
 OpenBabel10311713213D

 24 24  0  0  1  0  0  0  0  0999 V2000
   11.3561    7.2745   -0.1779 C   0  0  0  0  0  0  0  0  0  0  0  0
   10.0915    6.9423   -0.7280 C   0  0  0  0  0  0  0  0  0  0  0  0
   10.2562    6.1116   -1.8401 C   0  0  2  0  0  0  0  0  0  0  0  0
   10.3961    4.6992   -1.7652 C   0  0  1  0  0  0  0  0  0  0  0  0
   11.7107    5.7072   -1.8775 C   0  0  2  0  0  0  0  0  0  0  0  0
   12.3154    6.4835   -0.8172 C   0  0  0  0  0  0  0  0  0  0  0  0
   11.5243    7.9450    0.6611 H   0  0  0  0  0  0  0  0  0  0  0  0
    9.1363    7.1330   -0.2417 H   0  0  0  0  0  0  0  0  0  0  0  0
   10.4246    4.0482   -2.6390 H   0  0  0  0  0  0  0  0  0  0  0  0
   12.2870    5.4585   -2.7657 H   0  0  0  0  0  0  0  0  0  0  0  0
    8.8587    6.6247   -3.6501 N   0  0  0  0  0  0  0  0  0  0  0  0
    9.3034    6.9880   -4.5989 N   0  0  0  0  0  0  0  0  0  0  0  0
   13.6633    6.5132   -0.7012 O   0  0  0  0  0  0  0  0  0  0  0  0
   14.2042    7.4949    0.1831 C   0  0  0  0  0  0  0  0  0  0  0  0
   15.2920    7.4140    0.0992 H   0  0  0  0  0  0  0  0  0  0  0  0
   13.8979    7.2970    1.2213 H   0  0  0  0  0  0  0  0  0  0  0  0
   13.8777    8.5037   -0.1115 H   0  0  0  0  0  0  0  0  0  0  0  0
   10.0166    4.0169   -0.6001 O   0  0  0  0  0  0  0  0  0  0  0  0
   10.2311    2.6589   -0.5673 C   0  0  0  0  0  0  0  0  0  0  0  0
   10.7185    2.0398   -1.4822 O   0  0  0  0  0  0  0  0  0  0  0  0
    9.7749    2.0887    0.7476 C   0  0  0  0  0  0  0  0  0  0  0  0
   10.3484    2.5449    1.5658 H   0  0  0  0  0  0  0  0  0  0  0  0
    8.7167    2.3299    0.9137 H   0  0  0  0  0  0  0  0  0  0  0  0
    9.9219    1.0054    0.7437 H   0  0  0  0  0  0  0  0  0  0  0  0
  1  7  1  0  0  0  0
  2  8  1  0  0  0  0
  2  1  1  0  0  0  0
  3  4  1  0  0  0  0
  3  2  1  1  0  0  0
  4  9  1  6  0  0  0
  4 18  1  0  0  0  0
  5 10  1  6  0  0  0
  5  3  1  0  0  0  0
  5  4  1  0  0  0  0
  5  6  1  0  0  0  0
  6 13  1  0  0  0  0
  6  1  2  0  0  0  0
 12 11  3  0  0  0  0
 13 14  1  0  0  0  0
 14 16  1  0  0  0  0
 15 14  1  0  0  0  0
 17 14  1  0  0  0  0
 18 19  1  0  0  0  0
 19 21  1  0  0  0  0
 20 19  2  0  0  0  0
 21 23  1  0  0  0  0
 21 22  1  0  0  0  0
 24 21  1  0  0  0  0
M  RAD  2   2   2   3   2
M  END
