Coordinates from ORCA-job p-CH3O-Ph-N2-OOCCH3-B3LYPG-aug-cc-pVDZ-scan-d09-49-n400
 OpenBabel10311713213D

 24 24  0  0  1  0  0  0  0  0999 V2000
   11.4133    7.2873   -0.1340 C   0  0  0  0  0  0  0  0  0  0  0  0
   10.1498    6.9537   -0.6870 C   0  0  0  0  0  0  0  0  0  0  0  0
   10.3242    6.1234   -1.7966 C   0  0  2  0  0  0  0  0  0  0  0  0
   10.4330    4.7105   -1.7374 C   0  0  1  0  0  0  0  0  0  0  0  0
   11.7761    5.7277   -1.8361 C   0  0  2  0  0  0  0  0  0  0  0  0
   12.3753    6.4963   -0.7719 C   0  0  0  0  0  0  0  0  0  0  0  0
   11.5793    7.9563    0.7067 H   0  0  0  0  0  0  0  0  0  0  0  0
    9.1942    7.1351   -0.1987 H   0  0  0  0  0  0  0  0  0  0  0  0
   10.4824    4.0667   -2.6149 H   0  0  0  0  0  0  0  0  0  0  0  0
   12.3517    5.4660   -2.7205 H   0  0  0  0  0  0  0  0  0  0  0  0
    8.4522    6.5773   -4.0112 N   0  0  0  0  0  0  0  0  0  0  0  0
    8.9264    6.9321   -4.9448 N   0  0  0  0  0  0  0  0  0  0  0  0
   13.7235    6.5201   -0.6425 O   0  0  0  0  0  0  0  0  0  0  0  0
   14.2584    7.4965    0.2504 C   0  0  0  0  0  0  0  0  0  0  0  0
   15.3468    7.4123    0.1775 H   0  0  0  0  0  0  0  0  0  0  0  0
   13.9411    7.2968    1.2850 H   0  0  0  0  0  0  0  0  0  0  0  0
   13.9390    8.5080   -0.0436 H   0  0  0  0  0  0  0  0  0  0  0  0
   10.0416    4.0213   -0.5845 O   0  0  0  0  0  0  0  0  0  0  0  0
   10.2254    2.6567   -0.5689 C   0  0  0  0  0  0  0  0  0  0  0  0
   10.6982    2.0390   -1.4919 O   0  0  0  0  0  0  0  0  0  0  0  0
    9.7595    2.0822    0.7402 C   0  0  0  0  0  0  0  0  0  0  0  0
   10.3375    2.5236    1.5633 H   0  0  0  0  0  0  0  0  0  0  0  0
    8.7044    2.3374    0.9060 H   0  0  0  0  0  0  0  0  0  0  0  0
    9.8904    0.9969    0.7273 H   0  0  0  0  0  0  0  0  0  0  0  0
  1  7  1  0  0  0  0
  2  8  1  0  0  0  0
  2  1  1  0  0  0  0
  3  4  1  0  0  0  0
  3  2  1  1  0  0  0
  4  9  1  6  0  0  0
  4 18  1  0  0  0  0
  5 10  1  6  0  0  0
  5  3  1  0  0  0  0
  5  4  1  0  0  0  0
  5  6  1  0  0  0  0
  6 13  1  0  0  0  0
  6  1  2  0  0  0  0
 12 11  3  0  0  0  0
 13 14  1  0  0  0  0
 14 16  1  0  0  0  0
 15 14  1  0  0  0  0
 17 14  1  0  0  0  0
 18 19  1  0  0  0  0
 19 21  1  0  0  0  0
 20 19  2  0  0  0  0
 21 23  1  0  0  0  0
 21 22  1  0  0  0  0
 24 21  1  0  0  0  0
M  RAD  2   2   2   3   2
M  END
