Coordinates from ORCA-job p-CH3O-Ph-N2-OOCCH3-B3LYPG-aug-cc-pVDZ-scan-d09-49-n400
 OpenBabel10311713213D

 24 24  0  0  1  0  0  0  0  0999 V2000
   11.4244    7.2873   -0.1279 C   0  0  0  0  0  0  0  0  0  0  0  0
   10.1629    6.9559   -0.6860 C   0  0  0  0  0  0  0  0  0  0  0  0
   10.3408    6.1256   -1.7954 C   0  0  2  0  0  0  0  0  0  0  0  0
   10.4450    4.7123   -1.7359 C   0  0  1  0  0  0  0  0  0  0  0  0
   11.7921    5.7284   -1.8294 C   0  0  2  0  0  0  0  0  0  0  0  0
   12.3880    6.4952   -0.7625 C   0  0  0  0  0  0  0  0  0  0  0  0
   11.5881    7.9556    0.7138 H   0  0  0  0  0  0  0  0  0  0  0  0
    9.2055    7.1382   -0.2015 H   0  0  0  0  0  0  0  0  0  0  0  0
   10.4985    4.0682   -2.6129 H   0  0  0  0  0  0  0  0  0  0  0  0
   12.3705    5.4645   -2.7113 H   0  0  0  0  0  0  0  0  0  0  0  0
    8.3513    6.5611   -4.0864 N   0  0  0  0  0  0  0  0  0  0  0  0
    8.8310    6.9393   -5.0074 N   0  0  0  0  0  0  0  0  0  0  0  0
   13.7357    6.5168   -0.6270 O   0  0  0  0  0  0  0  0  0  0  0  0
   14.2682    7.4916    0.2689 C   0  0  0  0  0  0  0  0  0  0  0  0
   15.3568    7.4057    0.2008 H   0  0  0  0  0  0  0  0  0  0  0  0
   13.9460    7.2917    1.3020 H   0  0  0  0  0  0  0  0  0  0  0  0
   13.9518    8.5038   -0.0258 H   0  0  0  0  0  0  0  0  0  0  0  0
   10.0473    4.0242   -0.5849 O   0  0  0  0  0  0  0  0  0  0  0  0
   10.2275    2.6589   -0.5686 C   0  0  0  0  0  0  0  0  0  0  0  0
   10.7050    2.0403   -1.4885 O   0  0  0  0  0  0  0  0  0  0  0  0
    9.7588    2.0864    0.7404 C   0  0  0  0  0  0  0  0  0  0  0  0
   10.3350    2.5290    1.5641 H   0  0  0  0  0  0  0  0  0  0  0  0
    8.7034    2.3418    0.9036 H   0  0  0  0  0  0  0  0  0  0  0  0
    9.8898    1.0010    0.7294 H   0  0  0  0  0  0  0  0  0  0  0  0
  1  7  1  0  0  0  0
  2  8  1  0  0  0  0
  2  1  1  0  0  0  0
  3  4  1  0  0  0  0
  3  2  1  1  0  0  0
  4  9  1  6  0  0  0
  4 18  1  0  0  0  0
  5 10  1  6  0  0  0
  5  3  1  0  0  0  0
  5  4  1  0  0  0  0
  5  6  1  0  0  0  0
  6 13  1  0  0  0  0
  6  1  2  0  0  0  0
 12 11  3  0  0  0  0
 13 14  1  0  0  0  0
 14 16  1  0  0  0  0
 15 14  1  0  0  0  0
 17 14  1  0  0  0  0
 18 19  1  0  0  0  0
 19 21  1  0  0  0  0
 20 19  2  0  0  0  0
 21 23  1  0  0  0  0
 21 22  1  0  0  0  0
 24 21  1  0  0  0  0
M  RAD  2   2   2   3   2
M  END
