Coordinates from ORCA-job p-CH3O-Ph-N2-OOCCH3-B3LYPG-aug-cc-pVDZ-scan-d09-49-n400
 OpenBabel10311713213D

 24 24  0  0  1  0  0  0  0  0999 V2000
   11.5129    7.3977   -0.5064 C   0  0  0  0  0  0  0  0  0  0  0  0
   10.2826    7.2935   -1.1018 C   0  0  0  0  0  0  0  0  0  0  0  0
   10.1197    6.2346   -2.0257 C   0  0  1  0  0  0  0  0  0  0  0  0
   10.7664    4.9238   -1.8908 C   0  0  1  0  0  0  0  0  0  0  0  0
   12.1742    5.2343   -1.4872 C   0  0  0  0  0  0  0  0  0  0  0  0
   12.4877    6.3542   -0.7702 C   0  0  0  0  0  0  0  0  0  0  0  0
   11.7537    8.2700    0.0924 H   0  0  0  0  0  0  0  0  0  0  0  0
    9.5214    8.0612   -0.9803 H   0  0  0  0  0  0  0  0  0  0  0  0
   10.7142    4.2960   -2.7823 H   0  0  0  0  0  0  0  0  0  0  0  0
   12.9234    4.4626   -1.6472 H   0  0  0  0  0  0  0  0  0  0  0  0
    8.4599    6.0281   -2.4355 N   0  0  0  0  0  0  0  0  0  0  0  0
    7.4879    5.9862   -2.9822 N   0  0  0  0  0  0  0  0  0  0  0  0
   13.7748    6.4459   -0.3151 O   0  0  0  0  0  0  0  0  0  0  0  0
   14.2124    7.6505    0.3075 C   0  0  0  0  0  0  0  0  0  0  0  0
   15.2779    7.5042    0.5108 H   0  0  0  0  0  0  0  0  0  0  0  0
   13.6867    7.8295    1.2576 H   0  0  0  0  0  0  0  0  0  0  0  0
   14.0848    8.5176   -0.3578 H   0  0  0  0  0  0  0  0  0  0  0  0
   10.0629    4.0989   -0.8079 O   0  0  0  0  0  0  0  0  0  0  0  0
   10.2749    2.7685   -0.8457 C   0  0  0  0  0  0  0  0  0  0  0  0
   10.9619    2.2109   -1.6810 O   0  0  0  0  0  0  0  0  0  0  0  0
    9.5709    2.0619    0.2897 C   0  0  0  0  0  0  0  0  0  0  0  0
   10.0492    2.3395    1.2393 H   0  0  0  0  0  0  0  0  0  0  0  0
    8.5201    2.3736    0.3462 H   0  0  0  0  0  0  0  0  0  0  0  0
    9.6431    0.9799    0.1452 H   0  0  0  0  0  0  0  0  0  0  0  0
  1  7  1  0  0  0  0
  2  8  1  0  0  0  0
  2  1  2  0  0  0  0
  3 11  1  1  0  0  0
  3  4  1  0  0  0  0
  3  2  1  0  0  0  0
  4  9  1  6  0  0  0
  4  5  1  0  0  0  0
  4 18  1  0  0  0  0
  5  6  2  0  0  0  0
  6  1  1  0  0  0  0
  6 13  1  0  0  0  0
 10  5  1  0  0  0  0
 12 11  1  0  0  0  0
 13 14  1  0  0  0  0
 14 15  1  0  0  0  0
 14 16  1  0  0  0  0
 17 14  1  0  0  0  0
 19 18  1  0  0  0  0
 19 21  1  0  0  0  0
 20 19  2  0  0  0  0
 21 23  1  0  0  0  0
 21 22  1  0  0  0  0
 24 21  1  0  0  0  0
M  RAD  3   3   2  11   2  12   3
M  END
