Coordinates from ORCA-job p-CH3O-Ph-N2-OOCCH3-B3LYPG-aug-cc-pVDZ-scan-d09-49-n400
 OpenBabel10311713213D

 24 24  0  0  1  0  0  0  0  0999 V2000
   11.3448    7.2712   -0.1819 C   0  0  0  0  0  0  0  0  0  0  0  0
   10.0793    6.9452   -0.7328 C   0  0  0  0  0  0  0  0  0  0  0  0
   10.2395    6.1168   -1.8487 C   0  0  2  0  0  0  0  0  0  0  0  0
   10.3874    4.7037   -1.7726 C   0  0  1  0  0  0  0  0  0  0  0  0
   11.6943    5.7077   -1.8870 C   0  0  2  0  0  0  0  0  0  0  0  0
   12.3022    6.4816   -0.8252 C   0  0  0  0  0  0  0  0  0  0  0  0
   11.5149    7.9385    0.6593 H   0  0  0  0  0  0  0  0  0  0  0  0
    9.1245    7.1412   -0.2479 H   0  0  0  0  0  0  0  0  0  0  0  0
   10.4082    4.0534   -2.6473 H   0  0  0  0  0  0  0  0  0  0  0  0
   12.2693    5.4655   -2.7779 H   0  0  0  0  0  0  0  0  0  0  0  0
    8.9312    6.6213   -3.5741 N   0  0  0  0  0  0  0  0  0  0  0  0
    9.3864    6.9542   -4.5317 N   0  0  0  0  0  0  0  0  0  0  0  0
   13.6501    6.5109   -0.7138 O   0  0  0  0  0  0  0  0  0  0  0  0
   14.1943    7.4894    0.1722 C   0  0  0  0  0  0  0  0  0  0  0  0
   15.2817    7.4083    0.0843 H   0  0  0  0  0  0  0  0  0  0  0  0
   13.8913    7.2879    1.2106 H   0  0  0  0  0  0  0  0  0  0  0  0
   13.8671    8.4993   -0.1181 H   0  0  0  0  0  0  0  0  0  0  0  0
   10.0096    4.0216   -0.6057 O   0  0  0  0  0  0  0  0  0  0  0  0
   10.2336    2.6657   -0.5700 C   0  0  0  0  0  0  0  0  0  0  0  0
   10.7272    2.0484   -1.4830 O   0  0  0  0  0  0  0  0  0  0  0  0
    9.7803    2.0945    0.7455 C   0  0  0  0  0  0  0  0  0  0  0  0
   10.3532    2.5529    1.5629 H   0  0  0  0  0  0  0  0  0  0  0  0
    8.7215    2.3320    0.9127 H   0  0  0  0  0  0  0  0  0  0  0  0
    9.9314    1.0117    0.7420 H   0  0  0  0  0  0  0  0  0  0  0  0
  1  7  1  0  0  0  0
  2  8  1  0  0  0  0
  2  1  1  0  0  0  0
  3  4  1  0  0  0  0
  3  2  1  1  0  0  0
  4  9  1  6  0  0  0
  4 18  1  0  0  0  0
  5 10  1  6  0  0  0
  5  3  1  0  0  0  0
  5  4  1  0  0  0  0
  5  6  1  0  0  0  0
  6 13  1  0  0  0  0
  6  1  2  0  0  0  0
 12 11  3  0  0  0  0
 13 14  1  0  0  0  0
 14 16  1  0  0  0  0
 15 14  1  0  0  0  0
 17 14  1  0  0  0  0
 18 19  1  0  0  0  0
 19 21  1  0  0  0  0
 20 19  2  0  0  0  0
 21 23  1  0  0  0  0
 21 22  1  0  0  0  0
 24 21  1  0  0  0  0
M  RAD  2   2   2   3   2
M  END
