Coordinates from ORCA-job p-CH3O-Ph-N2-OOCCH3-B3LYPG-aug-cc-pVDZ-scan-d09-49-n400
 OpenBabel10311713213D

 24 24  0  0  1  0  0  0  0  0999 V2000
   11.5238    7.3014   -0.0830 C   0  0  0  0  0  0  0  0  0  0  0  0
   10.2788    6.9918   -0.6880 C   0  0  0  0  0  0  0  0  0  0  0  0
   10.4858    6.1617   -1.7926 C   0  0  2  0  0  0  0  0  0  0  0  0
   10.5583    4.7468   -1.7343 C   0  0  1  0  0  0  0  0  0  0  0  0
   11.9303    5.7439   -1.7756 C   0  0  2  0  0  0  0  0  0  0  0  0
   12.4982    6.4968   -0.6854 C   0  0  0  0  0  0  0  0  0  0  0  0
   11.6671    7.9645    0.7664 H   0  0  0  0  0  0  0  0  0  0  0  0
    9.3062    7.1873   -0.2403 H   0  0  0  0  0  0  0  0  0  0  0  0
   10.6384    4.1037   -2.6097 H   0  0  0  0  0  0  0  0  0  0  0  0
   12.5346    5.4692   -2.6364 H   0  0  0  0  0  0  0  0  0  0  0  0
    7.4721    6.3783   -4.5610 N   0  0  0  0  0  0  0  0  0  0  0  0
    8.1205    6.7735   -5.3626 N   0  0  0  0  0  0  0  0  0  0  0  0
   13.8403    6.4962   -0.4988 O   0  0  0  0  0  0  0  0  0  0  0  0
   14.3537    7.4586    0.4211 C   0  0  0  0  0  0  0  0  0  0  0  0
   15.4426    7.3554    0.3941 H   0  0  0  0  0  0  0  0  0  0  0  0
   13.9894    7.2598    1.4404 H   0  0  0  0  0  0  0  0  0  0  0  0
   14.0652    8.4771    0.1194 H   0  0  0  0  0  0  0  0  0  0  0  0
   10.1049    4.0639   -0.6020 O   0  0  0  0  0  0  0  0  0  0  0  0
   10.2581    2.6948   -0.5831 C   0  0  0  0  0  0  0  0  0  0  0  0
   10.7539    2.0691   -1.4882 O   0  0  0  0  0  0  0  0  0  0  0  0
    9.7241    2.1281    0.7030 C   0  0  0  0  0  0  0  0  0  0  0  0
   10.2795    2.5513    1.5509 H   0  0  0  0  0  0  0  0  0  0  0  0
    8.6702    2.4103    0.8272 H   0  0  0  0  0  0  0  0  0  0  0  0
    9.8273    1.0398    0.6905 H   0  0  0  0  0  0  0  0  0  0  0  0
  1  7  1  0  0  0  0
  2  8  1  0  0  0  0
  2  1  1  0  0  0  0
  3  5  1  0  0  0  0
  3  4  1  0  0  0  0
  3  2  1  1  0  0  0
  4  9  1  6  0  0  0
  4 18  1  0  0  0  0
  5 10  1  6  0  0  0
  5  4  1  0  0  0  0
  5  6  1  0  0  0  0
  6 13  1  0  0  0  0
  6  1  2  0  0  0  0
 12 11  3  0  0  0  0
 13 14  1  0  0  0  0
 14 16  1  0  0  0  0
 15 14  1  0  0  0  0
 17 14  1  0  0  0  0
 18 19  1  0  0  0  0
 19 21  1  0  0  0  0
 20 19  2  0  0  0  0
 21 23  1  0  0  0  0
 21 22  1  0  0  0  0
 24 21  1  0  0  0  0
M  RAD  2   2   2   3   2
M  END
