Coordinates from ORCA-job p-CH3O-Ph-N2-OOCCH3-B3LYPG-aug-cc-pVDZ-scan-d09-49-n400
 OpenBabel10311713213D

 24 24  0  0  1  0  0  0  0  0999 V2000
   11.5759    7.3125   -0.0583 C   0  0  0  0  0  0  0  0  0  0  0  0
   10.3389    7.0173   -0.6868 C   0  0  0  0  0  0  0  0  0  0  0  0
   10.5586    6.1878   -1.7899 C   0  0  2  0  0  0  0  0  0  0  0  0
   10.6124    4.7720   -1.7368 C   0  0  1  0  0  0  0  0  0  0  0  0
   11.9981    5.7567   -1.7485 C   0  0  2  0  0  0  0  0  0  0  0  0
   12.5534    6.5002   -0.6455 C   0  0  0  0  0  0  0  0  0  0  0  0
   11.7102    7.9719    0.7956 H   0  0  0  0  0  0  0  0  0  0  0  0
    9.3605    7.2216   -0.2563 H   0  0  0  0  0  0  0  0  0  0  0  0
   10.7045    4.1319   -2.6132 H   0  0  0  0  0  0  0  0  0  0  0  0
   12.6146    5.4771   -2.5990 H   0  0  0  0  0  0  0  0  0  0  0  0
    7.0238    6.2531   -4.7940 N   0  0  0  0  0  0  0  0  0  0  0  0
    7.7967    6.6343   -5.4835 N   0  0  0  0  0  0  0  0  0  0  0  0
   13.8920    6.4856   -0.4343 O   0  0  0  0  0  0  0  0  0  0  0  0
   14.3975    7.4401    0.4980 C   0  0  0  0  0  0  0  0  0  0  0  0
   15.4857    7.3263    0.4911 H   0  0  0  0  0  0  0  0  0  0  0  0
   14.0122    7.2421    1.5097 H   0  0  0  0  0  0  0  0  0  0  0  0
   14.1248    8.4623    0.1943 H   0  0  0  0  0  0  0  0  0  0  0  0
   10.1287    4.0895   -0.6172 O   0  0  0  0  0  0  0  0  0  0  0  0
   10.2645    2.7182   -0.6016 C   0  0  0  0  0  0  0  0  0  0  0  0
   10.7701    2.0904   -1.4997 O   0  0  0  0  0  0  0  0  0  0  0  0
    9.7037    2.1534    0.6739 C   0  0  0  0  0  0  0  0  0  0  0  0
   10.2523    2.5654    1.5317 H   0  0  0  0  0  0  0  0  0  0  0  0
    8.6521    2.4495    0.7838 H   0  0  0  0  0  0  0  0  0  0  0  0
    9.7925    1.0638    0.6581 H   0  0  0  0  0  0  0  0  0  0  0  0
  1  7  1  0  0  0  0
  2  8  1  0  0  0  0
  2  1  1  0  0  0  0
  3  5  1  0  0  0  0
  3  4  1  0  0  0  0
  3  2  1  1  0  0  0
  4  9  1  6  0  0  0
  4 18  1  0  0  0  0
  5 10  1  6  0  0  0
  5  4  1  0  0  0  0
  5  6  1  0  0  0  0
  6 13  1  0  0  0  0
  6  1  2  0  0  0  0
 12 11  3  0  0  0  0
 13 14  1  0  0  0  0
 14 16  1  0  0  0  0
 15 14  1  0  0  0  0
 17 14  1  0  0  0  0
 18 19  1  0  0  0  0
 19 21  1  0  0  0  0
 20 19  2  0  0  0  0
 21 23  1  0  0  0  0
 21 22  1  0  0  0  0
 24 21  1  0  0  0  0
M  RAD  2   2   2   3   2
M  END
