Coordinates from ORCA-job p-CH3O-Ph-N2-OOCCH3-B3LYPG-aug-cc-pVDZ-scan-d09-49-n400
 OpenBabel10311713213D

 24 24  0  0  1  0  0  0  0  0999 V2000
   11.4935    7.4210   -0.4598 C   0  0  0  0  0  0  0  0  0  0  0  0
   10.2572    7.3354   -0.9983 C   0  0  0  0  0  0  0  0  0  0  0  0
    9.8419    6.1589   -1.7743 C   0  0  0  0  0  0  0  0  0  0  0  0
   10.7249    4.9039   -1.6955 C   0  0  1  0  0  0  0  0  0  0  0  0
   12.1248    5.1989   -1.2894 C   0  0  0  0  0  0  0  0  0  0  0  0
   12.4662    6.3515   -0.6661 C   0  0  0  0  0  0  0  0  0  0  0  0
   11.7602    8.3034    0.1156 H   0  0  0  0  0  0  0  0  0  0  0  0
    9.5270    8.1364   -0.8819 H   0  0  0  0  0  0  0  0  0  0  0  0
   10.6906    4.3606   -2.6459 H   0  0  0  0  0  0  0  0  0  0  0  0
   12.8705    4.4244   -1.4564 H   0  0  0  0  0  0  0  0  0  0  0  0
    8.9172    6.1290   -2.3516 N   0  0  0  0  0  0  0  0  0  0  0  0
    7.9372    6.0826   -2.9697 N   0  0  0  0  0  0  0  0  0  0  0  0
   13.7556    6.4776   -0.2275 O   0  0  0  0  0  0  0  0  0  0  0  0
   14.2570    7.7702    0.1109 C   0  0  0  0  0  0  0  0  0  0  0  0
   15.3322    7.6353    0.2648 H   0  0  0  0  0  0  0  0  0  0  0  0
   13.8082    8.1490    1.0414 H   0  0  0  0  0  0  0  0  0  0  0  0
   14.0936    8.4914   -0.7033 H   0  0  0  0  0  0  0  0  0  0  0  0
   10.0523    4.0249   -0.7017 O   0  0  0  0  0  0  0  0  0  0  0  0
   10.2357    2.6898   -0.8576 C   0  0  0  0  0  0  0  0  0  0  0  0
   10.9187    2.2034   -1.7344 O   0  0  0  0  0  0  0  0  0  0  0  0
    9.4660    1.9091    0.1780 C   0  0  0  0  0  0  0  0  0  0  0  0
    9.5866    2.3590    1.1707 H   0  0  0  0  0  0  0  0  0  0  0  0
    8.3964    1.9368   -0.0739 H   0  0  0  0  0  0  0  0  0  0  0  0
    9.8101    0.8707    0.1777 H   0  0  0  0  0  0  0  0  0  0  0  0
  1  7  1  0  0  0  0
  2  8  1  0  0  0  0
  2  1  1  0  0  0  0
  3  4  1  0  0  0  0
  3  2  2  0  0  0  0
  4  9  1  6  0  0  0
  4  5  1  0  0  0  0
  4 18  1  0  0  0  0
  5  6  1  0  0  0  0
  6  1  2  0  0  0  0
  6 13  1  0  0  0  0
 10  5  1  0  0  0  0
 11  3  1  0  0  0  0
 12 11  1  0  0  0  0
 13 14  1  0  0  0  0
 14 15  1  0  0  0  0
 14 16  1  0  0  0  0
 17 14  1  0  0  0  0
 19 18  1  0  0  0  0
 19 21  1  0  0  0  0
 20 19  2  0  0  0  0
 21 22  1  0  0  0  0
 23 21  1  0  0  0  0
 24 21  1  0  0  0  0
M  RAD  3   5   2  11   2  12   3
M  END
