Coordinates from ORCA-job p-CH3O-Ph-N2-OOCCH3-B3LYPG-aug-cc-pVDZ-scan-d09-49-n400
 OpenBabel10311713213D

 24 24  0  0  1  0  0  0  0  0999 V2000
   11.4045    7.2871   -0.1386 C   0  0  0  0  0  0  0  0  0  0  0  0
   10.1396    6.9530   -0.6882 C   0  0  0  0  0  0  0  0  0  0  0  0
   10.3110    6.1229   -1.7981 C   0  0  2  0  0  0  0  0  0  0  0  0
   10.4227    4.7102   -1.7396 C   0  0  1  0  0  0  0  0  0  0  0  0
   11.7631    5.7273   -1.8416 C   0  0  2  0  0  0  0  0  0  0  0  0
   12.3651    6.4966   -0.7790 C   0  0  0  0  0  0  0  0  0  0  0  0
   11.5725    7.9564    0.7015 H   0  0  0  0  0  0  0  0  0  0  0  0
    9.1852    7.1342   -0.1973 H   0  0  0  0  0  0  0  0  0  0  0  0
   10.4688    4.0668   -2.6177 H   0  0  0  0  0  0  0  0  0  0  0  0
   12.3367    5.4673   -2.7279 H   0  0  0  0  0  0  0  0  0  0  0  0
    8.5284    6.5871   -3.9529 N   0  0  0  0  0  0  0  0  0  0  0  0
    9.0014    6.9237   -4.8944 N   0  0  0  0  0  0  0  0  0  0  0  0
   13.7136    6.5215   -0.6540 O   0  0  0  0  0  0  0  0  0  0  0  0
   14.2507    7.4985    0.2369 C   0  0  0  0  0  0  0  0  0  0  0  0
   15.3389    7.4151    0.1605 H   0  0  0  0  0  0  0  0  0  0  0  0
   13.9369    7.2987    1.2726 H   0  0  0  0  0  0  0  0  0  0  0  0
   13.9295    8.5096   -0.0563 H   0  0  0  0  0  0  0  0  0  0  0  0
   10.0352    4.0200   -0.5856 O   0  0  0  0  0  0  0  0  0  0  0  0
   10.2223    2.6560   -0.5705 C   0  0  0  0  0  0  0  0  0  0  0  0
   10.6947    2.0394   -1.4945 O   0  0  0  0  0  0  0  0  0  0  0  0
    9.7613    2.0803    0.7399 C   0  0  0  0  0  0  0  0  0  0  0  0
   10.3402    2.5233    1.5615 H   0  0  0  0  0  0  0  0  0  0  0  0
    8.7059    2.3325    0.9084 H   0  0  0  0  0  0  0  0  0  0  0  0
    9.8952    0.9953    0.7267 H   0  0  0  0  0  0  0  0  0  0  0  0
  1  7  1  0  0  0  0
  2  8  1  0  0  0  0
  2  1  1  0  0  0  0
  3  4  1  0  0  0  0
  3  2  1  1  0  0  0
  4  9  1  6  0  0  0
  4 18  1  0  0  0  0
  5 10  1  6  0  0  0
  5  3  1  0  0  0  0
  5  4  1  0  0  0  0
  5  6  1  0  0  0  0
  6 13  1  0  0  0  0
  6  1  2  0  0  0  0
 12 11  3  0  0  0  0
 13 14  1  0  0  0  0
 14 16  1  0  0  0  0
 15 14  1  0  0  0  0
 17 14  1  0  0  0  0
 18 19  1  0  0  0  0
 19 21  1  0  0  0  0
 20 19  2  0  0  0  0
 21 23  1  0  0  0  0
 21 22  1  0  0  0  0
 24 21  1  0  0  0  0
M  RAD  2   2   2   3   2
M  END
