Coordinates from ORCA-job p-CH3O-Ph-N2-OOCCH3-B3LYPG-aug-cc-pVDZ-scan-d09-49-n400
 OpenBabel10311713213D

 24 24  0  0  1  0  0  0  0  0999 V2000
   11.5274    7.4690   -0.5116 C   0  0  0  0  0  0  0  0  0  0  0  0
   10.2878    7.3749   -1.0729 C   0  0  0  0  0  0  0  0  0  0  0  0
    9.9322    6.1779   -1.7582 C   0  0  1  0  0  0  0  0  0  0  0  0
   10.7224    4.9168   -1.7132 C   0  0  1  0  0  0  0  0  0  0  0  0
   12.1206    5.2095   -1.2957 C   0  0  0  0  0  0  0  0  0  0  0  0
   12.4668    6.3716   -0.6772 C   0  0  0  0  0  0  0  0  0  0  0  0
   11.8055    8.3699    0.0262 H   0  0  0  0  0  0  0  0  0  0  0  0
    9.5741    8.1951   -1.0124 H   0  0  0  0  0  0  0  0  0  0  0  0
   10.6863    4.3496   -2.6479 H   0  0  0  0  0  0  0  0  0  0  0  0
   12.8647    4.4298   -1.4409 H   0  0  0  0  0  0  0  0  0  0  0  0
    8.6852    6.1315   -2.4387 N   0  0  0  0  0  0  0  0  0  0  0  0
    7.6959    6.0670   -2.9887 N   0  0  0  0  0  0  0  0  0  0  0  0
   13.7576    6.4694   -0.2282 O   0  0  0  0  0  0  0  0  0  0  0  0
   14.2609    7.7373    0.1839 C   0  0  0  0  0  0  0  0  0  0  0  0
   15.3264    7.5797    0.3788 H   0  0  0  0  0  0  0  0  0  0  0  0
   13.7761    8.0859    1.1084 H   0  0  0  0  0  0  0  0  0  0  0  0
   14.1438    8.4945   -0.6058 H   0  0  0  0  0  0  0  0  0  0  0  0
   10.0425    4.0110   -0.7011 O   0  0  0  0  0  0  0  0  0  0  0  0
   10.2397    2.6849   -0.8598 C   0  0  0  0  0  0  0  0  0  0  0  0
   10.9078    2.1989   -1.7521 O   0  0  0  0  0  0  0  0  0  0  0  0
    9.5145    1.8899    0.2001 C   0  0  0  0  0  0  0  0  0  0  0  0
    9.7781    2.2614    1.1985 H   0  0  0  0  0  0  0  0  0  0  0  0
    8.4299    2.0151    0.0766 H   0  0  0  0  0  0  0  0  0  0  0  0
    9.7772    0.8324    0.1037 H   0  0  0  0  0  0  0  0  0  0  0  0
  1  7  1  0  0  0  0
  2  8  1  0  0  0  0
  2  1  2  0  0  0  0
  3 11  1  1  0  0  0
  3  4  1  0  0  0  0
  3  2  1  0  0  0  0
  4  9  1  6  0  0  0
  4  5  1  0  0  0  0
  4 18  1  0  0  0  0
  5  6  2  0  0  0  0
  6  1  1  0  0  0  0
  6 13  1  0  0  0  0
 10  5  1  0  0  0  0
 12 11  1  0  0  0  0
 13 14  1  0  0  0  0
 14 15  1  0  0  0  0
 14 16  1  0  0  0  0
 17 14  1  0  0  0  0
 19 18  1  0  0  0  0
 19 21  1  0  0  0  0
 20 19  2  0  0  0  0
 21 22  1  0  0  0  0
 23 21  1  0  0  0  0
 24 21  1  0  0  0  0
M  RAD  3   3   2  11   2  12   3
M  END
