Coordinates from ORCA-job p-CH3O-Ph-N2-OOCCH3-B3LYPG-aug-cc-pVDZ-scan-d09-49-n400
 OpenBabel10311713213D

 24 24  0  0  1  0  0  0  0  0999 V2000
   11.3568    7.2746   -0.1776 C   0  0  0  0  0  0  0  0  0  0  0  0
   10.0923    6.9421   -0.7279 C   0  0  0  0  0  0  0  0  0  0  0  0
   10.2575    6.1114   -1.8398 C   0  0  2  0  0  0  0  0  0  0  0  0
   10.3966    4.6989   -1.7650 C   0  0  1  0  0  0  0  0  0  0  0  0
   11.7120    5.7070   -1.8769 C   0  0  2  0  0  0  0  0  0  0  0  0
   12.3163    6.4833   -0.8165 C   0  0  0  0  0  0  0  0  0  0  0  0
   11.5249    7.9452    0.6613 H   0  0  0  0  0  0  0  0  0  0  0  0
    9.1371    7.1326   -0.2417 H   0  0  0  0  0  0  0  0  0  0  0  0
   10.4257    4.0479   -2.6387 H   0  0  0  0  0  0  0  0  0  0  0  0
   12.2883    5.4579   -2.7648 H   0  0  0  0  0  0  0  0  0  0  0  0
    8.8524    6.6252   -3.6568 N   0  0  0  0  0  0  0  0  0  0  0  0
    9.2963    6.9914   -4.6047 N   0  0  0  0  0  0  0  0  0  0  0  0
   13.6642    6.5129   -0.7000 O   0  0  0  0  0  0  0  0  0  0  0  0
   14.2048    7.4946    0.1844 C   0  0  0  0  0  0  0  0  0  0  0  0
   15.2926    7.4136    0.1009 H   0  0  0  0  0  0  0  0  0  0  0  0
   13.8981    7.2970    1.2225 H   0  0  0  0  0  0  0  0  0  0  0  0
   13.8786    8.5035   -0.1105 H   0  0  0  0  0  0  0  0  0  0  0  0
   10.0167    4.0167   -0.6000 O   0  0  0  0  0  0  0  0  0  0  0  0
   10.2304    2.6585   -0.5673 C   0  0  0  0  0  0  0  0  0  0  0  0
   10.7184    2.0394   -1.4819 O   0  0  0  0  0  0  0  0  0  0  0  0
    9.7751    2.0887    0.7480 C   0  0  0  0  0  0  0  0  0  0  0  0
   10.3487    2.5456    1.5658 H   0  0  0  0  0  0  0  0  0  0  0  0
    8.7168    2.3295    0.9144 H   0  0  0  0  0  0  0  0  0  0  0  0
    9.9227    1.0054    0.7445 H   0  0  0  0  0  0  0  0  0  0  0  0
  1  7  1  0  0  0  0
  2  8  1  0  0  0  0
  2  1  1  0  0  0  0
  3  4  1  0  0  0  0
  3  2  1  1  0  0  0
  4  9  1  6  0  0  0
  4 18  1  0  0  0  0
  5 10  1  6  0  0  0
  5  3  1  0  0  0  0
  5  4  1  0  0  0  0
  5  6  1  0  0  0  0
  6 13  1  0  0  0  0
  6  1  2  0  0  0  0
 12 11  3  0  0  0  0
 13 14  1  0  0  0  0
 14 16  1  0  0  0  0
 15 14  1  0  0  0  0
 17 14  1  0  0  0  0
 18 19  1  0  0  0  0
 19 21  1  0  0  0  0
 20 19  2  0  0  0  0
 21 23  1  0  0  0  0
 21 22  1  0  0  0  0
 24 21  1  0  0  0  0
M  RAD  2   2   2   3   2
M  END
