Coordinates from ORCA-job p-CH3O-Ph-N2-OOCCH3-B3LYPG-aug-cc-pVDZ-scan-d09-49-n400
 OpenBabel10311713213D

 24 24  0  0  1  0  0  0  0  0999 V2000
   11.5376    7.3058   -0.0771 C   0  0  0  0  0  0  0  0  0  0  0  0
   10.2944    6.9989   -0.6876 C   0  0  0  0  0  0  0  0  0  0  0  0
   10.5051    6.1667   -1.7899 C   0  0  2  0  0  0  0  0  0  0  0  0
   10.5725    4.7515   -1.7337 C   0  0  1  0  0  0  0  0  0  0  0  0
   11.9482    5.7457   -1.7667 C   0  0  2  0  0  0  0  0  0  0  0  0
   12.5127    6.4979   -0.6738 C   0  0  0  0  0  0  0  0  0  0  0  0
   11.6787    7.9700    0.7718 H   0  0  0  0  0  0  0  0  0  0  0  0
    9.3201    7.1971   -0.2447 H   0  0  0  0  0  0  0  0  0  0  0  0
   10.6554    4.1096   -2.6097 H   0  0  0  0  0  0  0  0  0  0  0  0
   12.5556    5.4699   -2.6248 H   0  0  0  0  0  0  0  0  0  0  0  0
    7.3560    6.3494   -4.6207 N   0  0  0  0  0  0  0  0  0  0  0  0
    8.0403    6.7408   -5.3938 N   0  0  0  0  0  0  0  0  0  0  0  0
   13.8540    6.4940   -0.4810 O   0  0  0  0  0  0  0  0  0  0  0  0
   14.3656    7.4566    0.4397 C   0  0  0  0  0  0  0  0  0  0  0  0
   15.4543    7.3505    0.4181 H   0  0  0  0  0  0  0  0  0  0  0  0
   13.9958    7.2606    1.4576 H   0  0  0  0  0  0  0  0  0  0  0  0
   14.0812    8.4753    0.1349 H   0  0  0  0  0  0  0  0  0  0  0  0
   10.1111    4.0683   -0.6049 O   0  0  0  0  0  0  0  0  0  0  0  0
   10.2589    2.6986   -0.5878 C   0  0  0  0  0  0  0  0  0  0  0  0
   10.7551    2.0725   -1.4924 O   0  0  0  0  0  0  0  0  0  0  0  0
    9.7178    2.1316    0.6953 C   0  0  0  0  0  0  0  0  0  0  0  0
   10.2724    2.5503    1.5459 H   0  0  0  0  0  0  0  0  0  0  0  0
    8.6648    2.4187    0.8165 H   0  0  0  0  0  0  0  0  0  0  0  0
    9.8158    1.0429    0.6807 H   0  0  0  0  0  0  0  0  0  0  0  0
  1  7  1  0  0  0  0
  2  8  1  0  0  0  0
  2  1  1  0  0  0  0
  3  5  1  0  0  0  0
  3  4  1  0  0  0  0
  3  2  1  1  0  0  0
  4  9  1  6  0  0  0
  4 18  1  0  0  0  0
  5 10  1  6  0  0  0
  5  4  1  0  0  0  0
  5  6  1  0  0  0  0
  6 13  1  0  0  0  0
  6  1  2  0  0  0  0
 12 11  3  0  0  0  0
 13 14  1  0  0  0  0
 14 16  1  0  0  0  0
 15 14  1  0  0  0  0
 17 14  1  0  0  0  0
 18 19  1  0  0  0  0
 19 21  1  0  0  0  0
 20 19  2  0  0  0  0
 21 23  1  0  0  0  0
 21 22  1  0  0  0  0
 24 21  1  0  0  0  0
M  RAD  2   2   2   3   2
M  END
