Coordinates from ORCA-job p-CH3O-Ph-N2-OOCCH3-B3LYPG-aug-cc-pVDZ-scan-d09-49-n400
 OpenBabel10311713213D

 24 24  0  0  1  0  0  0  0  0999 V2000
   11.6016    7.3180   -0.0464 C   0  0  0  0  0  0  0  0  0  0  0  0
   10.3696    7.0321   -0.6885 C   0  0  0  0  0  0  0  0  0  0  0  0
   10.5951    6.2044   -1.7915 C   0  0  2  0  0  0  0  0  0  0  0  0
   10.6406    4.7882   -1.7407 C   0  0  1  0  0  0  0  0  0  0  0  0
   12.0313    5.7636   -1.7362 C   0  0  2  0  0  0  0  0  0  0  0  0
   12.5799    6.5008   -0.6256 C   0  0  0  0  0  0  0  0  0  0  0  0
   11.7312    7.9740    0.8108 H   0  0  0  0  0  0  0  0  0  0  0  0
    9.3881    7.2414   -0.2675 H   0  0  0  0  0  0  0  0  0  0  0  0
   10.7365    4.1491   -2.6175 H   0  0  0  0  0  0  0  0  0  0  0  0
   12.6550    5.4827   -2.5810 H   0  0  0  0  0  0  0  0  0  0  0  0
    6.8062    6.1822   -4.8987 N   0  0  0  0  0  0  0  0  0  0  0  0
    7.6259    6.5510   -5.5394 N   0  0  0  0  0  0  0  0  0  0  0  0
   13.9160    6.4771   -0.4006 O   0  0  0  0  0  0  0  0  0  0  0  0
   14.4180    7.4261    0.5393 C   0  0  0  0  0  0  0  0  0  0  0  0
   15.5054    7.3053    0.5432 H   0  0  0  0  0  0  0  0  0  0  0  0
   14.0211    7.2280    1.5465 H   0  0  0  0  0  0  0  0  0  0  0  0
   14.1549    8.4508    0.2354 H   0  0  0  0  0  0  0  0  0  0  0  0
   10.1423    4.1065   -0.6269 O   0  0  0  0  0  0  0  0  0  0  0  0
   10.2701    2.7345   -0.6124 C   0  0  0  0  0  0  0  0  0  0  0  0
   10.7803    2.1053   -1.5069 O   0  0  0  0  0  0  0  0  0  0  0  0
    9.6948    2.1707    0.6571 C   0  0  0  0  0  0  0  0  0  0  0  0
   10.2386    2.5775    1.5204 H   0  0  0  0  0  0  0  0  0  0  0  0
    8.6442    2.4732    0.7587 H   0  0  0  0  0  0  0  0  0  0  0  0
    9.7769    1.0806    0.6399 H   0  0  0  0  0  0  0  0  0  0  0  0
  1  7  1  0  0  0  0
  2  8  1  0  0  0  0
  2  1  1  0  0  0  0
  3  4  1  0  0  0  0
  3  5  1  0  0  0  0
  3  2  1  1  0  0  0
  4  9  1  6  0  0  0
  4  5  1  0  0  0  0
  4 18  1  0  0  0  0
  5 10  1  6  0  0  0
  5  6  1  0  0  0  0
  6 13  1  0  0  0  0
  6  1  2  0  0  0  0
 12 11  3  0  0  0  0
 13 14  1  0  0  0  0
 14 15  1  0  0  0  0
 14 16  1  0  0  0  0
 17 14  1  0  0  0  0
 18 19  1  0  0  0  0
 19 21  1  0  0  0  0
 20 19  2  0  0  0  0
 21 23  1  0  0  0  0
 21 22  1  0  0  0  0
 24 21  1  0  0  0  0
M  RAD  2   2   2   3   2
M  END
