Coordinates from ORCA-job p-CH3O-Ph-N2-OOCCH3-B3LYPG-aug-cc-pVDZ-scan-d09-49-n400
 OpenBabel10311713213D

 24 24  0  0  1  0  0  0  0  0999 V2000
   11.5377    7.4799   -0.5211 C   0  0  0  0  0  0  0  0  0  0  0  0
   10.2969    7.3817   -1.0895 C   0  0  0  0  0  0  0  0  0  0  0  0
    9.9681    6.1825   -1.7628 C   0  0  1  0  0  0  0  0  0  0  0  0
   10.7286    4.9166   -1.7215 C   0  0  1  0  0  0  0  0  0  0  0  0
   12.1254    5.2153   -1.3026 C   0  0  0  0  0  0  0  0  0  0  0  0
   12.4704    6.3797   -0.6817 C   0  0  0  0  0  0  0  0  0  0  0  0
   11.8138    8.3829    0.0134 H   0  0  0  0  0  0  0  0  0  0  0  0
    9.5802    8.1994   -1.0390 H   0  0  0  0  0  0  0  0  0  0  0  0
   10.6913    4.3414   -2.6507 H   0  0  0  0  0  0  0  0  0  0  0  0
   12.8717    4.4376   -1.4470 H   0  0  0  0  0  0  0  0  0  0  0  0
    8.6270    6.1275   -2.4579 N   0  0  0  0  0  0  0  0  0  0  0  0
    7.6325    6.0547   -2.9859 N   0  0  0  0  0  0  0  0  0  0  0  0
   13.7617    6.4714   -0.2318 O   0  0  0  0  0  0  0  0  0  0  0  0
   14.2622    7.7325    0.2022 C   0  0  0  0  0  0  0  0  0  0  0  0
   15.3259    7.5716    0.4044 H   0  0  0  0  0  0  0  0  0  0  0  0
   13.7690    8.0686    1.1270 H   0  0  0  0  0  0  0  0  0  0  0  0
   14.1524    8.5008   -0.5778 H   0  0  0  0  0  0  0  0  0  0  0  0
   10.0427    4.0080   -0.7018 O   0  0  0  0  0  0  0  0  0  0  0  0
   10.2359    2.6830   -0.8609 C   0  0  0  0  0  0  0  0  0  0  0  0
   10.8986    2.1935   -1.7563 O   0  0  0  0  0  0  0  0  0  0  0  0
    9.5197    1.8883    0.2061 C   0  0  0  0  0  0  0  0  0  0  0  0
    9.8194    2.2398    1.2019 H   0  0  0  0  0  0  0  0  0  0  0  0
    8.4353    2.0396    0.1155 H   0  0  0  0  0  0  0  0  0  0  0  0
    9.7572    0.8269    0.0894 H   0  0  0  0  0  0  0  0  0  0  0  0
  1  7  1  0  0  0  0
  2  8  1  0  0  0  0
  2  1  2  0  0  0  0
  3 11  1  1  0  0  0
  3  4  1  0  0  0  0
  3  2  1  0  0  0  0
  4  9  1  6  0  0  0
  4  5  1  0  0  0  0
  4 18  1  0  0  0  0
  5  6  2  0  0  0  0
  6  1  1  0  0  0  0
  6 13  1  0  0  0  0
 10  5  1  0  0  0  0
 12 11  1  0  0  0  0
 13 14  1  0  0  0  0
 14 15  1  0  0  0  0
 14 16  1  0  0  0  0
 17 14  1  0  0  0  0
 19 18  1  0  0  0  0
 19 21  1  0  0  0  0
 20 19  2  0  0  0  0
 21 22  1  0  0  0  0
 23 21  1  0  0  0  0
 24 21  1  0  0  0  0
M  RAD  3   3   2  11   2  12   3
M  END
