Coordinates from ORCA-job p-CH3O-Ph-N2-OOCCH3-B3LYPG-aug-cc-pVDZ-scan-d09-49-n400
 OpenBabel10311713213D

 24 24  0  0  1  0  0  0  0  0999 V2000
   11.5320    7.4744   -0.5164 C   0  0  0  0  0  0  0  0  0  0  0  0
   10.2919    7.3786   -1.0809 C   0  0  0  0  0  0  0  0  0  0  0  0
    9.9475    6.1800   -1.7593 C   0  0  1  0  0  0  0  0  0  0  0  0
   10.7245    4.9169   -1.7166 C   0  0  1  0  0  0  0  0  0  0  0  0
   12.1221    5.2119   -1.2982 C   0  0  0  0  0  0  0  0  0  0  0  0
   12.4680    6.3752   -0.6791 C   0  0  0  0  0  0  0  0  0  0  0  0
   11.8098    8.3766    0.0191 H   0  0  0  0  0  0  0  0  0  0  0  0
    9.5774    8.1983   -1.0257 H   0  0  0  0  0  0  0  0  0  0  0  0
   10.6879    4.3463   -2.6489 H   0  0  0  0  0  0  0  0  0  0  0  0
   12.8671    4.4329   -1.4425 H   0  0  0  0  0  0  0  0  0  0  0  0
    8.6591    6.1303   -2.4473 N   0  0  0  0  0  0  0  0  0  0  0  0
    7.6676    6.0624   -2.9879 N   0  0  0  0  0  0  0  0  0  0  0  0
   13.7590    6.4700   -0.2295 O   0  0  0  0  0  0  0  0  0  0  0  0
   14.2614    7.7348    0.1923 C   0  0  0  0  0  0  0  0  0  0  0  0
   15.3260    7.5753    0.3910 H   0  0  0  0  0  0  0  0  0  0  0  0
   13.7726    8.0782    1.1167 H   0  0  0  0  0  0  0  0  0  0  0  0
   14.1482    8.4968   -0.5933 H   0  0  0  0  0  0  0  0  0  0  0  0
   10.0420    4.0094   -0.7014 O   0  0  0  0  0  0  0  0  0  0  0  0
   10.2377    2.6839   -0.8608 C   0  0  0  0  0  0  0  0  0  0  0  0
   10.9039    2.1967   -1.7542 O   0  0  0  0  0  0  0  0  0  0  0  0
    9.5176    1.8886    0.2028 C   0  0  0  0  0  0  0  0  0  0  0  0
    9.7982    2.2510    1.2001 H   0  0  0  0  0  0  0  0  0  0  0  0
    8.4328    2.0253    0.0950 H   0  0  0  0  0  0  0  0  0  0  0  0
    9.7693    0.8294    0.0967 H   0  0  0  0  0  0  0  0  0  0  0  0
  1  7  1  0  0  0  0
  2  8  1  0  0  0  0
  2  1  2  0  0  0  0
  3 11  1  1  0  0  0
  3  4  1  0  0  0  0
  3  2  1  0  0  0  0
  4  9  1  6  0  0  0
  4  5  1  0  0  0  0
  4 18  1  0  0  0  0
  5  6  2  0  0  0  0
  6  1  1  0  0  0  0
  6 13  1  0  0  0  0
 10  5  1  0  0  0  0
 12 11  1  0  0  0  0
 13 14  1  0  0  0  0
 14 15  1  0  0  0  0
 14 16  1  0  0  0  0
 17 14  1  0  0  0  0
 19 18  1  0  0  0  0
 19 21  1  0  0  0  0
 20 19  2  0  0  0  0
 21 22  1  0  0  0  0
 23 21  1  0  0  0  0
 24 21  1  0  0  0  0
M  RAD  3   3   2  11   2  12   3
M  END
