Coordinates from ORCA-job p-CH3O-Ph-N2-OOCCH3-B3LYPG-aug-cc-pVDZ-scan-d09-49-n400
 OpenBabel10311713213D

 24 24  0  0  1  0  0  0  0  0999 V2000
   11.5209    7.4223   -0.5187 C   0  0  0  0  0  0  0  0  0  0  0  0
   10.2885    7.3182   -1.1104 C   0  0  0  0  0  0  0  0  0  0  0  0
   10.0909    6.2209   -1.9768 C   0  0  1  0  0  0  0  0  0  0  0  0
   10.7633    4.9208   -1.8596 C   0  0  1  0  0  0  0  0  0  0  0  0
   12.1647    5.2294   -1.4456 C   0  0  0  0  0  0  0  0  0  0  0  0
   12.4840    6.3630   -0.7527 C   0  0  0  0  0  0  0  0  0  0  0  0
   11.7685    8.3044    0.0625 H   0  0  0  0  0  0  0  0  0  0  0  0
    9.5367    8.0980   -1.0079 H   0  0  0  0  0  0  0  0  0  0  0  0
   10.7172    4.3014   -2.7577 H   0  0  0  0  0  0  0  0  0  0  0  0
   12.9140    4.4557   -1.5950 H   0  0  0  0  0  0  0  0  0  0  0  0
    8.4925    6.0459   -2.4349 N   0  0  0  0  0  0  0  0  0  0  0  0
    7.5094    5.9927   -2.9657 N   0  0  0  0  0  0  0  0  0  0  0  0
   13.7714    6.4535   -0.2956 O   0  0  0  0  0  0  0  0  0  0  0  0
   14.2201    7.6710    0.2922 C   0  0  0  0  0  0  0  0  0  0  0  0
   15.2836    7.5199    0.5025 H   0  0  0  0  0  0  0  0  0  0  0  0
   13.6945    7.8837    1.2354 H   0  0  0  0  0  0  0  0  0  0  0  0
   14.1031    8.5197   -0.3984 H   0  0  0  0  0  0  0  0  0  0  0  0
   10.0556    4.0763   -0.7903 O   0  0  0  0  0  0  0  0  0  0  0  0
   10.2629    2.7462   -0.8524 C   0  0  0  0  0  0  0  0  0  0  0  0
   10.9454    2.2010   -1.6996 O   0  0  0  0  0  0  0  0  0  0  0  0
    9.5587    2.0215    0.2715 C   0  0  0  0  0  0  0  0  0  0  0  0
   10.0461    2.2735    1.2237 H   0  0  0  0  0  0  0  0  0  0  0  0
    8.5115    2.3420    0.3420 H   0  0  0  0  0  0  0  0  0  0  0  0
    9.6198    0.9422    0.1031 H   0  0  0  0  0  0  0  0  0  0  0  0
  1  7  1  0  0  0  0
  2  8  1  0  0  0  0
  2  1  2  0  0  0  0
  3 11  1  1  0  0  0
  3  4  1  0  0  0  0
  3  2  1  0  0  0  0
  4  9  1  6  0  0  0
  4  5  1  0  0  0  0
  4 18  1  0  0  0  0
  5  6  2  0  0  0  0
  6  1  1  0  0  0  0
  6 13  1  0  0  0  0
 10  5  1  0  0  0  0
 12 11  1  0  0  0  0
 13 14  1  0  0  0  0
 14 15  1  0  0  0  0
 14 16  1  0  0  0  0
 17 14  1  0  0  0  0
 19 18  1  0  0  0  0
 19 21  1  0  0  0  0
 20 19  2  0  0  0  0
 21 23  1  0  0  0  0
 21 22  1  0  0  0  0
 24 21  1  0  0  0  0
M  RAD  3   3   2  11   2  12   3
M  END
