Coordinates from ORCA-job p-CH3O-Ph-N2-OOCCH3-B3LYPG-aug-cc-pVDZ-scan-d09-49-n400
 OpenBabel10311713213D

 24 24  0  0  1  0  0  0  0  0999 V2000
   11.5466    7.4865   -0.5284 C   0  0  0  0  0  0  0  0  0  0  0  0
   10.3054    7.3830   -1.1055 C   0  0  0  0  0  0  0  0  0  0  0  0
   10.0132    6.1878   -1.7841 C   0  0  1  0  0  0  0  0  0  0  0  0
   10.7395    4.9151   -1.7389 C   0  0  1  0  0  0  0  0  0  0  0  0
   12.1346    5.2233   -1.3193 C   0  0  0  0  0  0  0  0  0  0  0  0
   12.4762    6.3879   -0.6904 C   0  0  0  0  0  0  0  0  0  0  0  0
   11.8160    8.3891    0.0099 H   0  0  0  0  0  0  0  0  0  0  0  0
    9.5806    8.1929   -1.0575 H   0  0  0  0  0  0  0  0  0  0  0  0
   10.7020    4.3284   -2.6600 H   0  0  0  0  0  0  0  0  0  0  0  0
   12.8846    4.4494   -1.4664 H   0  0  0  0  0  0  0  0  0  0  0  0
    8.5771    6.1164   -2.4670 N   0  0  0  0  0  0  0  0  0  0  0  0
    7.5728    6.0307   -2.9628 N   0  0  0  0  0  0  0  0  0  0  0  0
   13.7677    6.4746   -0.2398 O   0  0  0  0  0  0  0  0  0  0  0  0
   14.2617    7.7280    0.2221 C   0  0  0  0  0  0  0  0  0  0  0  0
   15.3242    7.5661    0.4293 H   0  0  0  0  0  0  0  0  0  0  0  0
   13.7601    8.0447    1.1493 H   0  0  0  0  0  0  0  0  0  0  0  0
   14.1552    8.5110   -0.5437 H   0  0  0  0  0  0  0  0  0  0  0  0
   10.0449    4.0093   -0.7078 O   0  0  0  0  0  0  0  0  0  0  0  0
   10.2322    2.6843   -0.8612 C   0  0  0  0  0  0  0  0  0  0  0  0
   10.8893    2.1867   -1.7572 O   0  0  0  0  0  0  0  0  0  0  0  0
    9.5199    1.8953    0.2133 C   0  0  0  0  0  0  0  0  0  0  0  0
    9.8511    2.2299    1.2051 H   0  0  0  0  0  0  0  0  0  0  0  0
    8.4376    2.0729    0.1503 H   0  0  0  0  0  0  0  0  0  0  0  0
    9.7308    0.8299    0.0824 H   0  0  0  0  0  0  0  0  0  0  0  0
  1  7  1  0  0  0  0
  2  8  1  0  0  0  0
  2  1  2  0  0  0  0
  3 11  1  1  0  0  0
  3  4  1  0  0  0  0
  3  2  1  0  0  0  0
  4  9  1  6  0  0  0
  4  5  1  0  0  0  0
  4 18  1  0  0  0  0
  5  6  2  0  0  0  0
  6  1  1  0  0  0  0
  6 13  1  0  0  0  0
 10  5  1  0  0  0  0
 12 11  1  0  0  0  0
 13 14  1  0  0  0  0
 14 15  1  0  0  0  0
 14 16  1  0  0  0  0
 17 14  1  0  0  0  0
 19 18  1  0  0  0  0
 19 21  1  0  0  0  0
 20 19  2  0  0  0  0
 21 22  1  0  0  0  0
 23 21  1  0  0  0  0
 24 21  1  0  0  0  0
M  RAD  3   3   2  11   2  12   3
M  END
