Coordinates from ORCA-job p-CH3O-Ph-N2-OOCCH3-B3LYPG-aug-cc-pVDZ-scan-d09-49-n400
 OpenBabel10311713213D

 24 24  0  0  1  0  0  0  0  0999 V2000
   11.5821    7.3134   -0.0549 C   0  0  0  0  0  0  0  0  0  0  0  0
   10.3465    7.0209   -0.6870 C   0  0  0  0  0  0  0  0  0  0  0  0
   10.5672    6.1924   -1.7907 C   0  0  2  0  0  0  0  0  0  0  0  0
   10.6194    4.7765   -1.7379 C   0  0  1  0  0  0  0  0  0  0  0  0
   12.0060    5.7585   -1.7459 C   0  0  2  0  0  0  0  0  0  0  0  0
   12.5597    6.5000   -0.6406 C   0  0  0  0  0  0  0  0  0  0  0  0
   11.7153    7.9712    0.8003 H   0  0  0  0  0  0  0  0  0  0  0  0
    9.3674    7.2264   -0.2586 H   0  0  0  0  0  0  0  0  0  0  0  0
   10.7120    4.1365   -2.6143 H   0  0  0  0  0  0  0  0  0  0  0  0
   12.6243    5.4787   -2.5949 H   0  0  0  0  0  0  0  0  0  0  0  0
    6.9659    6.2364   -4.8252 N   0  0  0  0  0  0  0  0  0  0  0  0
    7.7534    6.6143   -5.5001 N   0  0  0  0  0  0  0  0  0  0  0  0
   13.8976    6.4829   -0.4260 O   0  0  0  0  0  0  0  0  0  0  0  0
   14.4024    7.4354    0.5088 C   0  0  0  0  0  0  0  0  0  0  0  0
   15.4904    7.3197    0.5044 H   0  0  0  0  0  0  0  0  0  0  0  0
   14.0142    7.2369    1.5193 H   0  0  0  0  0  0  0  0  0  0  0  0
   14.1321    8.4585    0.2055 H   0  0  0  0  0  0  0  0  0  0  0  0
   10.1326    4.0943   -0.6193 O   0  0  0  0  0  0  0  0  0  0  0  0
   10.2668    2.7229   -0.6037 C   0  0  0  0  0  0  0  0  0  0  0  0
   10.7733    2.0946   -1.5010 O   0  0  0  0  0  0  0  0  0  0  0  0
    9.7029    2.1584    0.6706 C   0  0  0  0  0  0  0  0  0  0  0  0
   10.2505    2.5694    1.5295 H   0  0  0  0  0  0  0  0  0  0  0  0
    8.6515    2.4560    0.7787 H   0  0  0  0  0  0  0  0  0  0  0  0
    9.7902    1.0688    0.6547 H   0  0  0  0  0  0  0  0  0  0  0  0
  1  7  1  0  0  0  0
  2  8  1  0  0  0  0
  2  1  1  0  0  0  0
  3  5  1  0  0  0  0
  3  4  1  0  0  0  0
  3  2  1  1  0  0  0
  4  9  1  6  0  0  0
  4 18  1  0  0  0  0
  5 10  1  6  0  0  0
  5  4  1  0  0  0  0
  5  6  1  0  0  0  0
  6 13  1  0  0  0  0
  6  1  2  0  0  0  0
 12 11  3  0  0  0  0
 13 14  1  0  0  0  0
 14 16  1  0  0  0  0
 15 14  1  0  0  0  0
 17 14  1  0  0  0  0
 18 19  1  0  0  0  0
 19 21  1  0  0  0  0
 20 19  2  0  0  0  0
 21 23  1  0  0  0  0
 21 22  1  0  0  0  0
 24 21  1  0  0  0  0
M  RAD  2   2   2   3   2
M  END
