Coordinates from ORCA-job p-CH3O-Ph-N2-OOCCH3-B3LYPG-aug-cc-pVDZ-scan-d09-49-n400
 OpenBabel10311713213D

 24 24  0  0  1  0  0  0  0  0999 V2000
   11.5784    7.3127   -0.0567 C   0  0  0  0  0  0  0  0  0  0  0  0
   10.3418    7.0187   -0.6865 C   0  0  0  0  0  0  0  0  0  0  0  0
   10.5619    6.1897   -1.7899 C   0  0  2  0  0  0  0  0  0  0  0  0
   10.6152    4.7739   -1.7371 C   0  0  1  0  0  0  0  0  0  0  0  0
   12.0011    5.7576   -1.7475 C   0  0  2  0  0  0  0  0  0  0  0  0
   12.5560    6.5001   -0.6435 C   0  0  0  0  0  0  0  0  0  0  0  0
   11.7123    7.9713    0.7978 H   0  0  0  0  0  0  0  0  0  0  0  0
    9.3631    7.2233   -0.2569 H   0  0  0  0  0  0  0  0  0  0  0  0
   10.7073    4.1338   -2.6135 H   0  0  0  0  0  0  0  0  0  0  0  0
   12.6182    5.4782   -2.5975 H   0  0  0  0  0  0  0  0  0  0  0  0
    6.9996    6.2466   -4.8082 N   0  0  0  0  0  0  0  0  0  0  0  0
    7.7794    6.6262   -5.4908 N   0  0  0  0  0  0  0  0  0  0  0  0
   13.8943    6.4846   -0.4312 O   0  0  0  0  0  0  0  0  0  0  0  0
   14.3996    7.4381    0.5023 C   0  0  0  0  0  0  0  0  0  0  0  0
   15.4878    7.3236    0.4961 H   0  0  0  0  0  0  0  0  0  0  0  0
   14.0134    7.2396    1.5135 H   0  0  0  0  0  0  0  0  0  0  0  0
   14.1278    8.4607    0.1990 H   0  0  0  0  0  0  0  0  0  0  0  0
   10.1303    4.0916   -0.6179 O   0  0  0  0  0  0  0  0  0  0  0  0
   10.2656    2.7202   -0.6022 C   0  0  0  0  0  0  0  0  0  0  0  0
   10.7720    2.0923   -1.4998 O   0  0  0  0  0  0  0  0  0  0  0  0
    9.7034    2.1555    0.6727 C   0  0  0  0  0  0  0  0  0  0  0  0
   10.2514    2.5672    1.5310 H   0  0  0  0  0  0  0  0  0  0  0  0
    8.6518    2.4520    0.7817 H   0  0  0  0  0  0  0  0  0  0  0  0
    9.7919    1.0659    0.6569 H   0  0  0  0  0  0  0  0  0  0  0  0
  1  7  1  0  0  0  0
  2  8  1  0  0  0  0
  2  1  1  0  0  0  0
  3  5  1  0  0  0  0
  3  4  1  0  0  0  0
  3  2  1  1  0  0  0
  4  9  1  6  0  0  0
  4 18  1  0  0  0  0
  5 10  1  6  0  0  0
  5  4  1  0  0  0  0
  5  6  1  0  0  0  0
  6 13  1  0  0  0  0
  6  1  2  0  0  0  0
 12 11  3  0  0  0  0
 13 14  1  0  0  0  0
 14 16  1  0  0  0  0
 15 14  1  0  0  0  0
 17 14  1  0  0  0  0
 18 19  1  0  0  0  0
 19 21  1  0  0  0  0
 20 19  2  0  0  0  0
 21 23  1  0  0  0  0
 21 22  1  0  0  0  0
 24 21  1  0  0  0  0
M  RAD  2   2   2   3   2
M  END
