Coordinates from ORCA-job p-CH3O-Ph-N2-OOCCH3-B3LYPG-aug-cc-pVDZ-scan-d09-49-n400
 OpenBabel10311713213D

 24 24  0  0  1  0  0  0  0  0999 V2000
   11.4366    7.2882   -0.1226 C   0  0  0  0  0  0  0  0  0  0  0  0
   10.1773    6.9584   -0.6862 C   0  0  0  0  0  0  0  0  0  0  0  0
   10.3594    6.1276   -1.7945 C   0  0  2  0  0  0  0  0  0  0  0  0
   10.4601    4.7142   -1.7343 C   0  0  1  0  0  0  0  0  0  0  0  0
   11.8102    5.7289   -1.8222 C   0  0  2  0  0  0  0  0  0  0  0  0
   12.4022    6.4949   -0.7529 C   0  0  0  0  0  0  0  0  0  0  0  0
   11.5976    7.9564    0.7197 H   0  0  0  0  0  0  0  0  0  0  0  0
    9.2171    7.1415   -0.2075 H   0  0  0  0  0  0  0  0  0  0  0  0
   10.5173    4.0697   -2.6106 H   0  0  0  0  0  0  0  0  0  0  0  0
   12.3919    5.4632   -2.7014 H   0  0  0  0  0  0  0  0  0  0  0  0
    8.2449    6.5400   -4.1548 N   0  0  0  0  0  0  0  0  0  0  0  0
    8.7321    6.9403   -5.0619 N   0  0  0  0  0  0  0  0  0  0  0  0
   13.7493    6.5147   -0.6109 O   0  0  0  0  0  0  0  0  0  0  0  0
   14.2788    7.4887    0.2876 C   0  0  0  0  0  0  0  0  0  0  0  0
   15.3676    7.4014    0.2247 H   0  0  0  0  0  0  0  0  0  0  0  0
   13.9514    7.2892    1.3191 H   0  0  0  0  0  0  0  0  0  0  0  0
   13.9652    8.5014   -0.0085 H   0  0  0  0  0  0  0  0  0  0  0  0
   10.0563    4.0273   -0.5849 O   0  0  0  0  0  0  0  0  0  0  0  0
   10.2333    2.6615   -0.5675 C   0  0  0  0  0  0  0  0  0  0  0  0
   10.7112    2.0414   -1.4860 O   0  0  0  0  0  0  0  0  0  0  0  0
    9.7548    2.0901    0.7384 C   0  0  0  0  0  0  0  0  0  0  0  0
   10.3286    2.5295    1.5656 H   0  0  0  0  0  0  0  0  0  0  0  0
    8.6997    2.3503    0.8961 H   0  0  0  0  0  0  0  0  0  0  0  0
    9.8809    1.0042    0.7273 H   0  0  0  0  0  0  0  0  0  0  0  0
  1  7  1  0  0  0  0
  2  8  1  0  0  0  0
  2  1  1  0  0  0  0
  3  4  1  0  0  0  0
  3  2  1  1  0  0  0
  4  9  1  6  0  0  0
  4 18  1  0  0  0  0
  5 10  1  6  0  0  0
  5  3  1  0  0  0  0
  5  4  1  0  0  0  0
  5  6  1  0  0  0  0
  6 13  1  0  0  0  0
  6  1  2  0  0  0  0
 12 11  3  0  0  0  0
 13 14  1  0  0  0  0
 14 16  1  0  0  0  0
 15 14  1  0  0  0  0
 17 14  1  0  0  0  0
 18 19  1  0  0  0  0
 19 21  1  0  0  0  0
 20 19  2  0  0  0  0
 21 23  1  0  0  0  0
 21 22  1  0  0  0  0
 24 21  1  0  0  0  0
M  RAD  2   2   2   3   2
M  END
