Coordinates from ORCA-job p-CH3O-Ph-N2-OOCCH3-B3LYPG-aug-cc-pVDZ-scan-d09-49-n400
 OpenBabel10311713213D

 24 24  0  0  1  0  0  0  0  0999 V2000
   11.4832    7.2938   -0.1046 C   0  0  0  0  0  0  0  0  0  0  0  0
   10.2327    6.9735   -0.6927 C   0  0  0  0  0  0  0  0  0  0  0  0
   10.4308    6.1412   -1.7974 C   0  0  2  0  0  0  0  0  0  0  0  0
   10.5171    4.7268   -1.7349 C   0  0  1  0  0  0  0  0  0  0  0  0
   11.8785    5.7325   -1.7973 C   0  0  2  0  0  0  0  0  0  0  0  0
   12.4550    6.4935   -0.7166 C   0  0  0  0  0  0  0  0  0  0  0  0
   11.6327    7.9605    0.7410 H   0  0  0  0  0  0  0  0  0  0  0  0
    9.2645    7.1636   -0.2331 H   0  0  0  0  0  0  0  0  0  0  0  0
   10.5879    4.0811   -2.6093 H   0  0  0  0  0  0  0  0  0  0  0  0
   12.4744    5.4609   -2.6650 H   0  0  0  0  0  0  0  0  0  0  0  0
    7.8224    6.4617   -4.3834 N   0  0  0  0  0  0  0  0  0  0  0  0
    8.3724    6.8890   -5.2407 N   0  0  0  0  0  0  0  0  0  0  0  0
   13.7992    6.5024   -0.5472 O   0  0  0  0  0  0  0  0  0  0  0  0
   14.3179    7.4717    0.3626 C   0  0  0  0  0  0  0  0  0  0  0  0
   15.4071    7.3758    0.3217 H   0  0  0  0  0  0  0  0  0  0  0  0
   13.9682    7.2742    1.3872 H   0  0  0  0  0  0  0  0  0  0  0  0
   14.0185    8.4870    0.0610 H   0  0  0  0  0  0  0  0  0  0  0  0
   10.0856    4.0445   -0.5932 O   0  0  0  0  0  0  0  0  0  0  0  0
   10.2515    2.6772   -0.5710 C   0  0  0  0  0  0  0  0  0  0  0  0
   10.7409    2.0522   -1.4802 O   0  0  0  0  0  0  0  0  0  0  0  0
    9.7404    2.1107    0.7246 C   0  0  0  0  0  0  0  0  0  0  0  0
   10.3021    2.5437    1.5633 H   0  0  0  0  0  0  0  0  0  0  0  0
    8.6853    2.3823    0.8611 H   0  0  0  0  0  0  0  0  0  0  0  0
    9.8551    1.0235    0.7156 H   0  0  0  0  0  0  0  0  0  0  0  0
  1  7  1  0  0  0  0
  2  8  1  0  0  0  0
  2  1  1  0  0  0  0
  3  5  1  0  0  0  0
  3  4  1  0  0  0  0
  3  2  1  1  0  0  0
  4  9  1  6  0  0  0
  4 18  1  0  0  0  0
  5 10  1  6  0  0  0
  5  4  1  0  0  0  0
  5  6  1  0  0  0  0
  6 13  1  0  0  0  0
  6  1  2  0  0  0  0
 12 11  3  0  0  0  0
 13 14  1  0  0  0  0
 14 16  1  0  0  0  0
 15 14  1  0  0  0  0
 17 14  1  0  0  0  0
 18 19  1  0  0  0  0
 19 21  1  0  0  0  0
 20 19  2  0  0  0  0
 21 23  1  0  0  0  0
 21 22  1  0  0  0  0
 24 21  1  0  0  0  0
M  RAD  2   2   2   3   2
M  END
