Coordinates from ORCA-job p-CH3O-Ph-N2-OOCCH3-B3LYPG-aug-cc-pVDZ-scan-d09-49-n400
 OpenBabel10311713213D

 24 24  0  0  1  0  0  0  0  0999 V2000
   11.4322    7.2882   -0.1242 C   0  0  0  0  0  0  0  0  0  0  0  0
   10.1717    6.9574   -0.6851 C   0  0  0  0  0  0  0  0  0  0  0  0
   10.3519    6.1268   -1.7939 C   0  0  2  0  0  0  0  0  0  0  0  0
   10.4542    4.7135   -1.7342 C   0  0  1  0  0  0  0  0  0  0  0  0
   11.8030    5.7292   -1.8250 C   0  0  2  0  0  0  0  0  0  0  0  0
   12.3968    6.4957   -0.7569 C   0  0  0  0  0  0  0  0  0  0  0  0
   11.5944    7.9563    0.7179 H   0  0  0  0  0  0  0  0  0  0  0  0
    9.2127    7.1398   -0.2034 H   0  0  0  0  0  0  0  0  0  0  0  0
   10.5098    4.0692   -2.6109 H   0  0  0  0  0  0  0  0  0  0  0  0
   12.3829    5.4643   -2.7055 H   0  0  0  0  0  0  0  0  0  0  0  0
    8.2871    6.5473   -4.1294 N   0  0  0  0  0  0  0  0  0  0  0  0
    8.7716    6.9393   -5.0421 N   0  0  0  0  0  0  0  0  0  0  0  0
   13.7442    6.5162   -0.6178 O   0  0  0  0  0  0  0  0  0  0  0  0
   14.2749    7.4905    0.2797 C   0  0  0  0  0  0  0  0  0  0  0  0
   15.3636    7.4040    0.2144 H   0  0  0  0  0  0  0  0  0  0  0  0
   13.9499    7.2906    1.3119 H   0  0  0  0  0  0  0  0  0  0  0  0
   13.9599    8.5030   -0.0155 H   0  0  0  0  0  0  0  0  0  0  0  0
   10.0536    4.0259   -0.5840 O   0  0  0  0  0  0  0  0  0  0  0  0
   10.2322    2.6604   -0.5672 C   0  0  0  0  0  0  0  0  0  0  0  0
   10.7081    2.0408   -1.4872 O   0  0  0  0  0  0  0  0  0  0  0  0
    9.7557    2.0879    0.7390 C   0  0  0  0  0  0  0  0  0  0  0  0
   10.3305    2.5270    1.5656 H   0  0  0  0  0  0  0  0  0  0  0  0
    8.7007    2.3477    0.8983 H   0  0  0  0  0  0  0  0  0  0  0  0
    9.8821    1.0021    0.7270 H   0  0  0  0  0  0  0  0  0  0  0  0
  1  7  1  0  0  0  0
  2  8  1  0  0  0  0
  2  1  1  0  0  0  0
  3  4  1  0  0  0  0
  3  2  1  1  0  0  0
  4  9  1  6  0  0  0
  4 18  1  0  0  0  0
  5 10  1  6  0  0  0
  5  3  1  0  0  0  0
  5  4  1  0  0  0  0
  5  6  1  0  0  0  0
  6 13  1  0  0  0  0
  6  1  2  0  0  0  0
 12 11  3  0  0  0  0
 13 14  1  0  0  0  0
 14 16  1  0  0  0  0
 15 14  1  0  0  0  0
 17 14  1  0  0  0  0
 18 19  1  0  0  0  0
 19 21  1  0  0  0  0
 20 19  2  0  0  0  0
 21 23  1  0  0  0  0
 21 22  1  0  0  0  0
 24 21  1  0  0  0  0
M  RAD  2   2   2   3   2
M  END
