Coordinates from ORCA-job p-CH3O-Ph-N2-OOCCH3-B3LYPG-aug-cc-pVDZ-scan-d09-49-n400
 OpenBabel10311713213D

 24 24  0  0  1  0  0  0  0  0999 V2000
   11.5022    7.2982   -0.0957 C   0  0  0  0  0  0  0  0  0  0  0  0
   10.2539    6.9821   -0.6918 C   0  0  0  0  0  0  0  0  0  0  0  0
   10.4570    6.1491   -1.7933 C   0  0  2  0  0  0  0  0  0  0  0  0
   10.5361    4.7351   -1.7344 C   0  0  1  0  0  0  0  0  0  0  0  0
   11.9025    5.7364   -1.7859 C   0  0  2  0  0  0  0  0  0  0  0  0
   12.4752    6.4946   -0.7013 C   0  0  0  0  0  0  0  0  0  0  0  0
   11.6486    7.9646    0.7506 H   0  0  0  0  0  0  0  0  0  0  0  0
    9.2829    7.1746   -0.2392 H   0  0  0  0  0  0  0  0  0  0  0  0
   10.6102    4.0912   -2.6098 H   0  0  0  0  0  0  0  0  0  0  0  0
   12.5024    5.4634   -2.6504 H   0  0  0  0  0  0  0  0  0  0  0  0
    7.6609    6.4261   -4.4654 N   0  0  0  0  0  0  0  0  0  0  0  0
    8.2541    6.8409   -5.2991 N   0  0  0  0  0  0  0  0  0  0  0  0
   13.8183    6.4987   -0.5234 O   0  0  0  0  0  0  0  0  0  0  0  0
   14.3346    7.4662    0.3897 C   0  0  0  0  0  0  0  0  0  0  0  0
   15.4236    7.3664    0.3560 H   0  0  0  0  0  0  0  0  0  0  0  0
   13.9774    7.2700    1.4120 H   0  0  0  0  0  0  0  0  0  0  0  0
   14.0407    8.4826    0.0861 H   0  0  0  0  0  0  0  0  0  0  0  0
   10.0940    4.0523   -0.5970 O   0  0  0  0  0  0  0  0  0  0  0  0
   10.2546    2.6843   -0.5762 C   0  0  0  0  0  0  0  0  0  0  0  0
   10.7469    2.0591   -1.4836 O   0  0  0  0  0  0  0  0  0  0  0  0
    9.7334    2.1175    0.7152 C   0  0  0  0  0  0  0  0  0  0  0  0
   10.2922    2.5461    1.5580 H   0  0  0  0  0  0  0  0  0  0  0  0
    8.6787    2.3936    0.8462 H   0  0  0  0  0  0  0  0  0  0  0  0
    9.8431    1.0298    0.7045 H   0  0  0  0  0  0  0  0  0  0  0  0
  1  7  1  0  0  0  0
  2  8  1  0  0  0  0
  2  1  1  0  0  0  0
  3  5  1  0  0  0  0
  3  4  1  0  0  0  0
  3  2  1  1  0  0  0
  4  9  1  6  0  0  0
  4 18  1  0  0  0  0
  5 10  1  6  0  0  0
  5  4  1  0  0  0  0
  5  6  1  0  0  0  0
  6 13  1  0  0  0  0
  6  1  2  0  0  0  0
 12 11  3  0  0  0  0
 13 14  1  0  0  0  0
 14 16  1  0  0  0  0
 15 14  1  0  0  0  0
 17 14  1  0  0  0  0
 18 19  1  0  0  0  0
 19 21  1  0  0  0  0
 20 19  2  0  0  0  0
 21 23  1  0  0  0  0
 21 22  1  0  0  0  0
 24 21  1  0  0  0  0
M  RAD  2   2   2   3   2
M  END
