Coordinates from ORCA-job p-CH3O-Ph-N2-OOCCH3-B3LYPG-aug-cc-pVDZ-scan-d09-49-n400
 OpenBabel10311713213D

 24 24  0  0  1  0  0  0  0  0999 V2000
   11.4088    7.2875   -0.1362 C   0  0  0  0  0  0  0  0  0  0  0  0
   10.1447    6.9538   -0.6876 C   0  0  0  0  0  0  0  0  0  0  0  0
   10.3175    6.1232   -1.7975 C   0  0  2  0  0  0  0  0  0  0  0  0
   10.4275    4.7101   -1.7385 C   0  0  1  0  0  0  0  0  0  0  0  0
   11.7695    5.7273   -1.8388 C   0  0  2  0  0  0  0  0  0  0  0  0
   12.3700    6.4964   -0.7753 C   0  0  0  0  0  0  0  0  0  0  0  0
   11.5760    7.9568    0.7040 H   0  0  0  0  0  0  0  0  0  0  0  0
    9.1897    7.1351   -0.1979 H   0  0  0  0  0  0  0  0  0  0  0  0
   10.4754    4.0665   -2.6163 H   0  0  0  0  0  0  0  0  0  0  0  0
   12.3441    5.4663   -2.7241 H   0  0  0  0  0  0  0  0  0  0  0  0
    8.4908    6.5831   -3.9826 N   0  0  0  0  0  0  0  0  0  0  0  0
    8.9644    6.9286   -4.9204 N   0  0  0  0  0  0  0  0  0  0  0  0
   13.7183    6.5206   -0.6480 O   0  0  0  0  0  0  0  0  0  0  0  0
   14.2544    7.4973    0.2437 C   0  0  0  0  0  0  0  0  0  0  0  0
   15.3427    7.4134    0.1691 H   0  0  0  0  0  0  0  0  0  0  0  0
   13.9388    7.2979    1.2789 H   0  0  0  0  0  0  0  0  0  0  0  0
   13.9343    8.5086   -0.0501 H   0  0  0  0  0  0  0  0  0  0  0  0
   10.0377    4.0204   -0.5852 O   0  0  0  0  0  0  0  0  0  0  0  0
   10.2227    2.6560   -0.5701 C   0  0  0  0  0  0  0  0  0  0  0  0
   10.6962    2.0390   -1.4933 O   0  0  0  0  0  0  0  0  0  0  0  0
    9.7608    2.0811    0.7403 C   0  0  0  0  0  0  0  0  0  0  0  0
   10.3395    2.5242    1.5619 H   0  0  0  0  0  0  0  0  0  0  0  0
    8.7055    2.3340    0.9082 H   0  0  0  0  0  0  0  0  0  0  0  0
    9.8942    0.9960    0.7276 H   0  0  0  0  0  0  0  0  0  0  0  0
  1  7  1  0  0  0  0
  2  8  1  0  0  0  0
  2  1  1  0  0  0  0
  3  4  1  0  0  0  0
  3  2  1  1  0  0  0
  4  9  1  6  0  0  0
  4 18  1  0  0  0  0
  5 10  1  6  0  0  0
  5  3  1  0  0  0  0
  5  4  1  0  0  0  0
  5  6  1  0  0  0  0
  6 13  1  0  0  0  0
  6  1  2  0  0  0  0
 12 11  3  0  0  0  0
 13 14  1  0  0  0  0
 14 16  1  0  0  0  0
 15 14  1  0  0  0  0
 17 14  1  0  0  0  0
 18 19  1  0  0  0  0
 19 21  1  0  0  0  0
 20 19  2  0  0  0  0
 21 23  1  0  0  0  0
 21 22  1  0  0  0  0
 24 21  1  0  0  0  0
M  RAD  2   2   2   3   2
M  END
