Coordinates from ORCA-job p-CH3O-Ph-N2-OOCCH3-B3LYPG-aug-cc-pVDZ-scan-d09-49-n400
 OpenBabel10311713213D

 24 24  0  0  1  0  0  0  0  0999 V2000
   11.5475    7.4865   -0.5286 C   0  0  0  0  0  0  0  0  0  0  0  0
   10.3063    7.3826   -1.1060 C   0  0  0  0  0  0  0  0  0  0  0  0
   10.0163    6.1882   -1.7862 C   0  0  1  0  0  0  0  0  0  0  0  0
   10.7410    4.9151   -1.7402 C   0  0  1  0  0  0  0  0  0  0  0  0
   12.1360    5.2237   -1.3207 C   0  0  0  0  0  0  0  0  0  0  0  0
   12.4773    6.3883   -0.6911 C   0  0  0  0  0  0  0  0  0  0  0  0
   11.8164    8.3889    0.0100 H   0  0  0  0  0  0  0  0  0  0  0  0
    9.5809    8.1919   -1.0576 H   0  0  0  0  0  0  0  0  0  0  0  0
   10.7035    4.3276   -2.6608 H   0  0  0  0  0  0  0  0  0  0  0  0
   12.8861    4.4501   -1.4678 H   0  0  0  0  0  0  0  0  0  0  0  0
    8.5694    6.1151   -2.4693 N   0  0  0  0  0  0  0  0  0  0  0  0
    7.5644    6.0285   -2.9628 N   0  0  0  0  0  0  0  0  0  0  0  0
   13.7687    6.4748   -0.2404 O   0  0  0  0  0  0  0  0  0  0  0  0
   14.2620    7.7276    0.2238 C   0  0  0  0  0  0  0  0  0  0  0  0
   15.3245    7.5657    0.4313 H   0  0  0  0  0  0  0  0  0  0  0  0
   13.7598    8.0427    1.1512 H   0  0  0  0  0  0  0  0  0  0  0  0
   14.1557    8.5117   -0.5409 H   0  0  0  0  0  0  0  0  0  0  0  0
   10.0459    4.0098   -0.7082 O   0  0  0  0  0  0  0  0  0  0  0  0
   10.2331    2.6848   -0.8607 C   0  0  0  0  0  0  0  0  0  0  0  0
   10.8896    2.1863   -1.7566 O   0  0  0  0  0  0  0  0  0  0  0  0
    9.5199    1.8965    0.2138 C   0  0  0  0  0  0  0  0  0  0  0  0
    9.8527    2.2297    1.2055 H   0  0  0  0  0  0  0  0  0  0  0  0
    8.4379    2.0764    0.1520 H   0  0  0  0  0  0  0  0  0  0  0  0
    9.7286    0.8307    0.0821 H   0  0  0  0  0  0  0  0  0  0  0  0
  1  7  1  0  0  0  0
  2  8  1  0  0  0  0
  2  1  2  0  0  0  0
  3 11  1  1  0  0  0
  3  4  1  0  0  0  0
  3  2  1  0  0  0  0
  4  9  1  6  0  0  0
  4  5  1  0  0  0  0
  4 18  1  0  0  0  0
  5  6  2  0  0  0  0
  6  1  1  0  0  0  0
  6 13  1  0  0  0  0
 10  5  1  0  0  0  0
 12 11  1  0  0  0  0
 13 14  1  0  0  0  0
 14 15  1  0  0  0  0
 14 16  1  0  0  0  0
 17 14  1  0  0  0  0
 19 18  1  0  0  0  0
 19 21  1  0  0  0  0
 20 19  2  0  0  0  0
 21 22  1  0  0  0  0
 23 21  1  0  0  0  0
 24 21  1  0  0  0  0
M  RAD  3   3   2  11   2  12   3
M  END
