Coordinates from ORCA-job p-CH3O-Ph-N2-OOCCH3-B3LYPG-aug-cc-pVDZ-scan-d09-49-n400
 OpenBabel10311713213D

 24 24  0  0  1  0  0  0  0  0999 V2000
   11.5536    7.3095   -0.0700 C   0  0  0  0  0  0  0  0  0  0  0  0
   10.3124    7.0053   -0.6866 C   0  0  0  0  0  0  0  0  0  0  0  0
   10.5272    6.1732   -1.7869 C   0  0  2  0  0  0  0  0  0  0  0  0
   10.5895    4.7584   -1.7329 C   0  0  1  0  0  0  0  0  0  0  0  0
   11.9688    5.7500   -1.7581 C   0  0  2  0  0  0  0  0  0  0  0  0
   12.5300    6.5000   -0.6624 C   0  0  0  0  0  0  0  0  0  0  0  0
   11.6919    7.9728    0.7801 H   0  0  0  0  0  0  0  0  0  0  0  0
    9.3365    7.2050   -0.2481 H   0  0  0  0  0  0  0  0  0  0  0  0
   10.6755    4.1175   -2.6094 H   0  0  0  0  0  0  0  0  0  0  0  0
   12.5793    5.4727   -2.6137 H   0  0  0  0  0  0  0  0  0  0  0  0
    7.2238    6.3118   -4.6882 N   0  0  0  0  0  0  0  0  0  0  0  0
    7.9467    6.6988   -5.4278 N   0  0  0  0  0  0  0  0  0  0  0  0
   13.8704    6.4930   -0.4630 O   0  0  0  0  0  0  0  0  0  0  0  0
   14.3793    7.4538    0.4611 C   0  0  0  0  0  0  0  0  0  0  0  0
   15.4679    7.3454    0.4449 H   0  0  0  0  0  0  0  0  0  0  0  0
   14.0039    7.2579    1.4769 H   0  0  0  0  0  0  0  0  0  0  0  0
   14.0987    8.4734    0.1557 H   0  0  0  0  0  0  0  0  0  0  0  0
   10.1204    4.0752   -0.6074 O   0  0  0  0  0  0  0  0  0  0  0  0
   10.2638    2.7049   -0.5914 C   0  0  0  0  0  0  0  0  0  0  0  0
   10.7580    2.0779   -1.4965 O   0  0  0  0  0  0  0  0  0  0  0  0
    9.7089    2.1375    0.6856 C   0  0  0  0  0  0  0  0  0  0  0  0
   10.2610    2.5485    1.5416 H   0  0  0  0  0  0  0  0  0  0  0  0
    8.6575    2.4326    0.8007 H   0  0  0  0  0  0  0  0  0  0  0  0
    9.7983    1.0480    0.6676 H   0  0  0  0  0  0  0  0  0  0  0  0
  1  7  1  0  0  0  0
  2  8  1  0  0  0  0
  2  1  1  0  0  0  0
  3  5  1  0  0  0  0
  3  4  1  0  0  0  0
  3  2  1  1  0  0  0
  4  9  1  6  0  0  0
  4 18  1  0  0  0  0
  5 10  1  6  0  0  0
  5  4  1  0  0  0  0
  5  6  1  0  0  0  0
  6 13  1  0  0  0  0
  6  1  2  0  0  0  0
 12 11  3  0  0  0  0
 13 14  1  0  0  0  0
 14 16  1  0  0  0  0
 15 14  1  0  0  0  0
 17 14  1  0  0  0  0
 18 19  1  0  0  0  0
 19 21  1  0  0  0  0
 20 19  2  0  0  0  0
 21 23  1  0  0  0  0
 21 22  1  0  0  0  0
 24 21  1  0  0  0  0
M  RAD  2   2   2   3   2
M  END
