Coordinates from ORCA-job p-CH3O-Ph-N2-OOCCH3-B3LYPG-aug-cc-pVDZ-scan-d09-49-n400
 OpenBabel10311713213D

 24 24  0  0  1  0  0  0  0  0999 V2000
   11.5407    7.3063   -0.0762 C   0  0  0  0  0  0  0  0  0  0  0  0
   10.2980    7.0009   -0.6891 C   0  0  0  0  0  0  0  0  0  0  0  0
   10.5100    6.1685   -1.7897 C   0  0  2  0  0  0  0  0  0  0  0  0
   10.5748    4.7536   -1.7350 C   0  0  1  0  0  0  0  0  0  0  0  0
   11.9521    5.7460   -1.7649 C   0  0  2  0  0  0  0  0  0  0  0  0
   12.5159    6.4972   -0.6710 C   0  0  0  0  0  0  0  0  0  0  0  0
   11.6811    7.9701    0.7732 H   0  0  0  0  0  0  0  0  0  0  0  0
    9.3229    7.2000   -0.2485 H   0  0  0  0  0  0  0  0  0  0  0  0
   10.6579    4.1124   -2.6115 H   0  0  0  0  0  0  0  0  0  0  0  0
   12.5605    5.4695   -2.6222 H   0  0  0  0  0  0  0  0  0  0  0  0
    7.3236    6.3437   -4.6395 N   0  0  0  0  0  0  0  0  0  0  0  0
    8.0186    6.7338   -5.4037 N   0  0  0  0  0  0  0  0  0  0  0  0
   13.8568    6.4913   -0.4756 O   0  0  0  0  0  0  0  0  0  0  0  0
   14.3678    7.4530    0.4464 C   0  0  0  0  0  0  0  0  0  0  0  0
   15.4565    7.3454    0.4270 H   0  0  0  0  0  0  0  0  0  0  0  0
   13.9957    7.2573    1.4635 H   0  0  0  0  0  0  0  0  0  0  0  0
   14.0855    8.4722    0.1413 H   0  0  0  0  0  0  0  0  0  0  0  0
   10.1103    4.0705   -0.6074 O   0  0  0  0  0  0  0  0  0  0  0  0
   10.2558    2.7005   -0.5909 C   0  0  0  0  0  0  0  0  0  0  0  0
   10.7572    2.0747   -1.4928 O   0  0  0  0  0  0  0  0  0  0  0  0
    9.7197    2.1346    0.6948 C   0  0  0  0  0  0  0  0  0  0  0  0
   10.2747    2.5571    1.5433 H   0  0  0  0  0  0  0  0  0  0  0  0
    8.6661    2.4184    0.8177 H   0  0  0  0  0  0  0  0  0  0  0  0
    9.8215    1.0462    0.6825 H   0  0  0  0  0  0  0  0  0  0  0  0
  1  7  1  0  0  0  0
  2  8  1  0  0  0  0
  2  1  1  0  0  0  0
  3  5  1  0  0  0  0
  3  4  1  0  0  0  0
  3  2  1  1  0  0  0
  4  9  1  6  0  0  0
  4 18  1  0  0  0  0
  5 10  1  6  0  0  0
  5  4  1  0  0  0  0
  5  6  1  0  0  0  0
  6 13  1  0  0  0  0
  6  1  2  0  0  0  0
 12 11  3  0  0  0  0
 13 14  1  0  0  0  0
 14 16  1  0  0  0  0
 15 14  1  0  0  0  0
 17 14  1  0  0  0  0
 18 19  1  0  0  0  0
 19 21  1  0  0  0  0
 20 19  2  0  0  0  0
 21 23  1  0  0  0  0
 21 22  1  0  0  0  0
 24 21  1  0  0  0  0
M  RAD  2   2   2   3   2
M  END
