Coordinates from ORCA-job p-CH3O-Ph-N2-OOCCH3-B3LYPG-aug-cc-pVDZ-scan-d09-49-n400
 OpenBabel10311713213D

 24 24  0  0  1  0  0  0  0  0999 V2000
   11.5424    7.4842   -0.5250 C   0  0  0  0  0  0  0  0  0  0  0  0
   10.3011    7.3833   -1.0975 C   0  0  0  0  0  0  0  0  0  0  0  0
    9.9895    6.1847   -1.7699 C   0  0  1  0  0  0  0  0  0  0  0  0
   10.7333    4.9158   -1.7281 C   0  0  1  0  0  0  0  0  0  0  0  0
   12.1293    5.2191   -1.3089 C   0  0  0  0  0  0  0  0  0  0  0  0
   12.4730    6.3841   -0.6851 C   0  0  0  0  0  0  0  0  0  0  0  0
   11.8157    8.3874    0.0104 H   0  0  0  0  0  0  0  0  0  0  0  0
    9.5810    8.1977   -1.0495 H   0  0  0  0  0  0  0  0  0  0  0  0
   10.6958    4.3354   -2.6537 H   0  0  0  0  0  0  0  0  0  0  0  0
   12.8774    4.4432   -1.4544 H   0  0  0  0  0  0  0  0  0  0  0  0
    8.6027    6.1230   -2.4632 N   0  0  0  0  0  0  0  0  0  0  0  0
    7.6041    6.0444   -2.9771 N   0  0  0  0  0  0  0  0  0  0  0  0
   13.7645    6.4733   -0.2350 O   0  0  0  0  0  0  0  0  0  0  0  0
   14.2623    7.7309    0.2113 C   0  0  0  0  0  0  0  0  0  0  0  0
   15.3254    7.5693    0.4160 H   0  0  0  0  0  0  0  0  0  0  0  0
   13.7652    8.0588    1.1370 H   0  0  0  0  0  0  0  0  0  0  0  0
   14.1544    8.5057   -0.5627 H   0  0  0  0  0  0  0  0  0  0  0  0
   10.0438    4.0075   -0.7033 O   0  0  0  0  0  0  0  0  0  0  0  0
   10.2341    2.6827   -0.8609 C   0  0  0  0  0  0  0  0  0  0  0  0
   10.8927    2.1900   -1.7579 O   0  0  0  0  0  0  0  0  0  0  0  0
    9.5198    1.8898    0.2091 C   0  0  0  0  0  0  0  0  0  0  0  0
    9.8357    2.2316    1.2034 H   0  0  0  0  0  0  0  0  0  0  0  0
    8.4363    2.0547    0.1328 H   0  0  0  0  0  0  0  0  0  0  0  0
    9.7438    0.8264    0.0839 H   0  0  0  0  0  0  0  0  0  0  0  0
  1  7  1  0  0  0  0
  2  8  1  0  0  0  0
  2  1  2  0  0  0  0
  3 11  1  1  0  0  0
  3  4  1  0  0  0  0
  3  2  1  0  0  0  0
  4  9  1  6  0  0  0
  4  5  1  0  0  0  0
  4 18  1  0  0  0  0
  5  6  2  0  0  0  0
  6  1  1  0  0  0  0
  6 13  1  0  0  0  0
 10  5  1  0  0  0  0
 12 11  1  0  0  0  0
 13 14  1  0  0  0  0
 14 15  1  0  0  0  0
 14 16  1  0  0  0  0
 17 14  1  0  0  0  0
 19 18  1  0  0  0  0
 19 21  1  0  0  0  0
 20 19  2  0  0  0  0
 21 22  1  0  0  0  0
 23 21  1  0  0  0  0
 24 21  1  0  0  0  0
M  RAD  3   3   2  11   2  12   3
M  END
