Coordinates from ORCA-job p-CH3O-Ph-N2-OOCCH3-B3LYPG-aug-cc-pVDZ-scan-d09-49-n400
 OpenBabel10311713213D

 24 24  0  0  1  0  0  0  0  0999 V2000
   11.3497    7.2731   -0.1801 C   0  0  0  0  0  0  0  0  0  0  0  0
   10.0844    6.9437   -0.7298 C   0  0  0  0  0  0  0  0  0  0  0  0
   10.2463    6.1143   -1.8441 C   0  0  2  0  0  0  0  0  0  0  0  0
   10.3916    4.7016   -1.7685 C   0  0  1  0  0  0  0  0  0  0  0  0
   11.7011    5.7077   -1.8827 C   0  0  2  0  0  0  0  0  0  0  0  0
   12.3079    6.4831   -0.8219 C   0  0  0  0  0  0  0  0  0  0  0  0
   11.5192    7.9420    0.6600 H   0  0  0  0  0  0  0  0  0  0  0  0
    9.1297    7.1371   -0.2438 H   0  0  0  0  0  0  0  0  0  0  0  0
   10.4154    4.0509   -2.6428 H   0  0  0  0  0  0  0  0  0  0  0  0
   12.2763    5.4631   -2.7727 H   0  0  0  0  0  0  0  0  0  0  0  0
    8.9020    6.6229   -3.6056 N   0  0  0  0  0  0  0  0  0  0  0  0
    9.3536    6.9671   -4.5596 N   0  0  0  0  0  0  0  0  0  0  0  0
   13.6558    6.5130   -0.7092 O   0  0  0  0  0  0  0  0  0  0  0  0
   14.1987    7.4932    0.1756 C   0  0  0  0  0  0  0  0  0  0  0  0
   15.2863    7.4125    0.0889 H   0  0  0  0  0  0  0  0  0  0  0  0
   13.8949    7.2933    1.2141 H   0  0  0  0  0  0  0  0  0  0  0  0
   13.8713    8.5025   -0.1165 H   0  0  0  0  0  0  0  0  0  0  0  0
   10.0141    4.0193   -0.6021 O   0  0  0  0  0  0  0  0  0  0  0  0
   10.2348    2.6626   -0.5676 C   0  0  0  0  0  0  0  0  0  0  0  0
   10.7227    2.0443   -1.4829 O   0  0  0  0  0  0  0  0  0  0  0  0
    9.7766    2.0907    0.7459 C   0  0  0  0  0  0  0  0  0  0  0  0
   10.3496    2.5454    1.5652 H   0  0  0  0  0  0  0  0  0  0  0  0
    8.7184    2.3324    0.9113 H   0  0  0  0  0  0  0  0  0  0  0  0
    9.9231    1.0074    0.7406 H   0  0  0  0  0  0  0  0  0  0  0  0
  1  7  1  0  0  0  0
  2  8  1  0  0  0  0
  2  1  1  0  0  0  0
  3  4  1  0  0  0  0
  3  2  1  1  0  0  0
  4  9  1  6  0  0  0
  4 18  1  0  0  0  0
  5 10  1  6  0  0  0
  5  3  1  0  0  0  0
  5  4  1  0  0  0  0
  5  6  1  0  0  0  0
  6 13  1  0  0  0  0
  6  1  2  0  0  0  0
 12 11  3  0  0  0  0
 13 14  1  0  0  0  0
 14 16  1  0  0  0  0
 15 14  1  0  0  0  0
 17 14  1  0  0  0  0
 18 19  1  0  0  0  0
 19 21  1  0  0  0  0
 20 19  2  0  0  0  0
 21 23  1  0  0  0  0
 21 22  1  0  0  0  0
 24 21  1  0  0  0  0
M  RAD  2   2   2   3   2
M  END
