Coordinates from ORCA-job p-CH3O-Ph-N2-OOCCH3-B3LYPG-aug-cc-pVDZ-scan-d09-49-n400
 OpenBabel10311713213D

 24 24  0  0  1  0  0  0  0  0999 V2000
   11.5629    7.3104   -0.0647 C   0  0  0  0  0  0  0  0  0  0  0  0
   10.3237    7.0108   -0.6870 C   0  0  0  0  0  0  0  0  0  0  0  0
   10.5404    6.1799   -1.7893 C   0  0  2  0  0  0  0  0  0  0  0  0
   10.5990    4.7643   -1.7353 C   0  0  1  0  0  0  0  0  0  0  0  0
   11.9811    5.7524   -1.7543 C   0  0  2  0  0  0  0  0  0  0  0  0
   12.5395    6.4993   -0.6548 C   0  0  0  0  0  0  0  0  0  0  0  0
   11.6995    7.9718    0.7872 H   0  0  0  0  0  0  0  0  0  0  0  0
    9.3468    7.2129   -0.2520 H   0  0  0  0  0  0  0  0  0  0  0  0
   10.6875    4.1237   -2.6117 H   0  0  0  0  0  0  0  0  0  0  0  0
   12.5946    5.4743   -2.6074 H   0  0  0  0  0  0  0  0  0  0  0  0
    7.1327    6.2897   -4.7400 N   0  0  0  0  0  0  0  0  0  0  0  0
    7.8803    6.6736   -5.4560 N   0  0  0  0  0  0  0  0  0  0  0  0
   13.8790    6.4883   -0.4498 O   0  0  0  0  0  0  0  0  0  0  0  0
   14.3867    7.4460    0.4781 C   0  0  0  0  0  0  0  0  0  0  0  0
   15.4751    7.3348    0.4663 H   0  0  0  0  0  0  0  0  0  0  0  0
   14.0066    7.2492    1.4920 H   0  0  0  0  0  0  0  0  0  0  0  0
   14.1100    8.4670    0.1735 H   0  0  0  0  0  0  0  0  0  0  0  0
   10.1231    4.0815   -0.6123 O   0  0  0  0  0  0  0  0  0  0  0  0
   10.2630    2.7107   -0.5961 C   0  0  0  0  0  0  0  0  0  0  0  0
   10.7641    2.0834   -1.4971 O   0  0  0  0  0  0  0  0  0  0  0  0
    9.7093    2.1452    0.6821 C   0  0  0  0  0  0  0  0  0  0  0  0
   10.2603    2.5595    1.5373 H   0  0  0  0  0  0  0  0  0  0  0  0
    8.6573    2.4384    0.7962 H   0  0  0  0  0  0  0  0  0  0  0  0
    9.8011    1.0559    0.6668 H   0  0  0  0  0  0  0  0  0  0  0  0
  1  7  1  0  0  0  0
  2  8  1  0  0  0  0
  2  1  1  0  0  0  0
  3  5  1  0  0  0  0
  3  4  1  0  0  0  0
  3  2  1  1  0  0  0
  4  9  1  6  0  0  0
  4 18  1  0  0  0  0
  5 10  1  6  0  0  0
  5  4  1  0  0  0  0
  5  6  1  0  0  0  0
  6 13  1  0  0  0  0
  6  1  2  0  0  0  0
 12 11  3  0  0  0  0
 13 14  1  0  0  0  0
 14 16  1  0  0  0  0
 15 14  1  0  0  0  0
 17 14  1  0  0  0  0
 18 19  1  0  0  0  0
 19 21  1  0  0  0  0
 20 19  2  0  0  0  0
 21 23  1  0  0  0  0
 21 22  1  0  0  0  0
 24 21  1  0  0  0  0
M  RAD  2   2   2   3   2
M  END
