Coordinates from ORCA-job p-CH3O-Ph-N2-OOCCH3-B3LYPG-aug-cc-pVDZ-scan-d09-49-n400
 OpenBabel10311713213D

 24 24  0  0  1  0  0  0  0  0999 V2000
   11.4439    7.2885   -0.1202 C   0  0  0  0  0  0  0  0  0  0  0  0
   10.1863    6.9601   -0.6883 C   0  0  0  0  0  0  0  0  0  0  0  0
   10.3715    6.1290   -1.7961 C   0  0  2  0  0  0  0  0  0  0  0  0
   10.4697    4.7154   -1.7348 C   0  0  1  0  0  0  0  0  0  0  0  0
   11.8219    5.7288   -1.8185 C   0  0  2  0  0  0  0  0  0  0  0  0
   12.4108    6.4941   -0.7473 C   0  0  0  0  0  0  0  0  0  0  0  0
   11.6026    7.9565    0.7227 H   0  0  0  0  0  0  0  0  0  0  0  0
    9.2245    7.1443   -0.2131 H   0  0  0  0  0  0  0  0  0  0  0  0
   10.5297    4.0702   -2.6104 H   0  0  0  0  0  0  0  0  0  0  0  0
   12.4062    5.4618   -2.6955 H   0  0  0  0  0  0  0  0  0  0  0  0
    8.1763    6.5282   -4.1947 N   0  0  0  0  0  0  0  0  0  0  0  0
    8.6684    6.9408   -5.0935 N   0  0  0  0  0  0  0  0  0  0  0  0
   13.7574    6.5121   -0.6001 O   0  0  0  0  0  0  0  0  0  0  0  0
   14.2847    7.4854    0.3005 C   0  0  0  0  0  0  0  0  0  0  0  0
   15.3736    7.3967    0.2417 H   0  0  0  0  0  0  0  0  0  0  0  0
   13.9532    7.2862    1.3308 H   0  0  0  0  0  0  0  0  0  0  0  0
   13.9736    8.4985    0.0034 H   0  0  0  0  0  0  0  0  0  0  0  0
   10.0610    4.0298   -0.5865 O   0  0  0  0  0  0  0  0  0  0  0  0
   10.2358    2.6637   -0.5677 C   0  0  0  0  0  0  0  0  0  0  0  0
   10.7170    2.0424   -1.4838 O   0  0  0  0  0  0  0  0  0  0  0  0
    9.7534    2.0940    0.7375 C   0  0  0  0  0  0  0  0  0  0  0  0
   10.3252    2.5338    1.5657 H   0  0  0  0  0  0  0  0  0  0  0  0
    8.6980    2.3550    0.8920 H   0  0  0  0  0  0  0  0  0  0  0  0
    9.8788    1.0080    0.7278 H   0  0  0  0  0  0  0  0  0  0  0  0
  1  7  1  0  0  0  0
  2  8  1  0  0  0  0
  2  1  1  0  0  0  0
  3  4  1  0  0  0  0
  3  2  1  1  0  0  0
  4  9  1  6  0  0  0
  4 18  1  0  0  0  0
  5 10  1  6  0  0  0
  5  3  1  0  0  0  0
  5  4  1  0  0  0  0
  5  6  1  0  0  0  0
  6 13  1  0  0  0  0
  6  1  2  0  0  0  0
 12 11  3  0  0  0  0
 13 14  1  0  0  0  0
 14 16  1  0  0  0  0
 15 14  1  0  0  0  0
 17 14  1  0  0  0  0
 18 19  1  0  0  0  0
 19 21  1  0  0  0  0
 20 19  2  0  0  0  0
 21 23  1  0  0  0  0
 21 22  1  0  0  0  0
 24 21  1  0  0  0  0
M  RAD  2   2   2   3   2
M  END
