Coordinates from ORCA-job p-CH3O-Ph-N2-OOCCH3-B3LYPG-aug-cc-pVDZ-scan-d09-49-n400
 OpenBabel10311713213D

 24 24  0  0  1  0  0  0  0  0999 V2000
   11.5922    7.3157   -0.0505 C   0  0  0  0  0  0  0  0  0  0  0  0
   10.3585    7.0268   -0.6880 C   0  0  0  0  0  0  0  0  0  0  0  0
   10.5817    6.1988   -1.7914 C   0  0  2  0  0  0  0  0  0  0  0  0
   10.6306    4.7827   -1.7394 C   0  0  1  0  0  0  0  0  0  0  0  0
   12.0192    5.7611   -1.7409 C   0  0  2  0  0  0  0  0  0  0  0  0
   12.5701    6.5003   -0.6327 C   0  0  0  0  0  0  0  0  0  0  0  0
   11.7235    7.9726    0.8058 H   0  0  0  0  0  0  0  0  0  0  0  0
    9.3781    7.2344   -0.2635 H   0  0  0  0  0  0  0  0  0  0  0  0
   10.7247    4.1431   -2.6161 H   0  0  0  0  0  0  0  0  0  0  0  0
   12.6404    5.4809   -2.5877 H   0  0  0  0  0  0  0  0  0  0  0  0
    6.8816    6.2083   -4.8644 N   0  0  0  0  0  0  0  0  0  0  0  0
    7.6864    6.5817   -5.5211 N   0  0  0  0  0  0  0  0  0  0  0  0
   13.9070    6.4796   -0.4125 O   0  0  0  0  0  0  0  0  0  0  0  0
   14.4104    7.4302    0.5249 C   0  0  0  0  0  0  0  0  0  0  0  0
   15.4981    7.3117    0.5250 H   0  0  0  0  0  0  0  0  0  0  0  0
   14.0176    7.2319    1.5337 H   0  0  0  0  0  0  0  0  0  0  0  0
   14.1440    8.4541    0.2213 H   0  0  0  0  0  0  0  0  0  0  0  0
   10.1378    4.1008   -0.6232 O   0  0  0  0  0  0  0  0  0  0  0  0
   10.2688    2.7291   -0.6081 C   0  0  0  0  0  0  0  0  0  0  0  0
   10.7772    2.1003   -1.5039 O   0  0  0  0  0  0  0  0  0  0  0  0
    9.6990    2.1650    0.6638 C   0  0  0  0  0  0  0  0  0  0  0  0
   10.2447    2.5739    1.5249 H   0  0  0  0  0  0  0  0  0  0  0  0
    8.6480    2.4651    0.7686 H   0  0  0  0  0  0  0  0  0  0  0  0
    9.7837    1.0752    0.6472 H   0  0  0  0  0  0  0  0  0  0  0  0
  1  7  1  0  0  0  0
  2  8  1  0  0  0  0
  2  1  1  0  0  0  0
  3  5  1  0  0  0  0
  3  4  1  0  0  0  0
  3  2  1  1  0  0  0
  4  9  1  6  0  0  0
  4 18  1  0  0  0  0
  5 10  1  6  0  0  0
  5  4  1  0  0  0  0
  5  6  1  0  0  0  0
  6 13  1  0  0  0  0
  6  1  2  0  0  0  0
 12 11  3  0  0  0  0
 13 14  1  0  0  0  0
 14 15  1  0  0  0  0
 14 16  1  0  0  0  0
 17 14  1  0  0  0  0
 18 19  1  0  0  0  0
 19 21  1  0  0  0  0
 20 19  2  0  0  0  0
 21 23  1  0  0  0  0
 21 22  1  0  0  0  0
 24 21  1  0  0  0  0
M  RAD  2   2   2   3   2
M  END
