Coordinates from ORCA-job p-CH3O-Ph-N2-OOCCH3-B3LYPG-aug-cc-pVDZ-scan-d09-49-n400
 OpenBabel10311713213D

 24 24  0  0  1  0  0  0  0  0999 V2000
   11.4888    7.4137   -0.4463 C   0  0  0  0  0  0  0  0  0  0  0  0
   10.2532    7.3292   -0.9824 C   0  0  0  0  0  0  0  0  0  0  0  0
    9.8312    6.1562   -1.7754 C   0  0  0  0  0  0  0  0  0  0  0  0
   10.7292    4.9004   -1.6902 C   0  0  1  0  0  0  0  0  0  0  0  0
   12.1281    5.1980   -1.2837 C   0  0  0  0  0  0  0  0  0  0  0  0
   12.4668    6.3493   -0.6585 C   0  0  0  0  0  0  0  0  0  0  0  0
   11.7529    8.2924    0.1365 H   0  0  0  0  0  0  0  0  0  0  0  0
    9.5179    8.1244   -0.8583 H   0  0  0  0  0  0  0  0  0  0  0  0
   10.6952    4.3625   -2.6439 H   0  0  0  0  0  0  0  0  0  0  0  0
   12.8754    4.4256   -1.4541 H   0  0  0  0  0  0  0  0  0  0  0  0
    8.9537    6.1278   -2.3336 N   0  0  0  0  0  0  0  0  0  0  0  0
    7.9743    6.0837   -2.9633 N   0  0  0  0  0  0  0  0  0  0  0  0
   13.7546    6.4799   -0.2178 O   0  0  0  0  0  0  0  0  0  0  0  0
   14.2587    7.7788    0.0936 C   0  0  0  0  0  0  0  0  0  0  0  0
   15.3354    7.6473    0.2395 H   0  0  0  0  0  0  0  0  0  0  0  0
   13.8186    8.1731    1.0218 H   0  0  0  0  0  0  0  0  0  0  0  0
   14.0866    8.4855   -0.7313 H   0  0  0  0  0  0  0  0  0  0  0  0
   10.0547    4.0258   -0.7010 O   0  0  0  0  0  0  0  0  0  0  0  0
   10.2317    2.6890   -0.8594 C   0  0  0  0  0  0  0  0  0  0  0  0
   10.9183    2.2025   -1.7328 O   0  0  0  0  0  0  0  0  0  0  0  0
    9.4530    1.9102    0.1703 C   0  0  0  0  0  0  0  0  0  0  0  0
    9.5370    2.3785    1.1581 H   0  0  0  0  0  0  0  0  0  0  0  0
    8.3905    1.9101   -0.1117 H   0  0  0  0  0  0  0  0  0  0  0  0
    9.8175    0.8791    0.1956 H   0  0  0  0  0  0  0  0  0  0  0  0
  1  7  1  0  0  0  0
  2  8  1  0  0  0  0
  2  1  1  0  0  0  0
  3  4  1  0  0  0  0
  3  2  2  0  0  0  0
  4  9  1  6  0  0  0
  4  5  1  0  0  0  0
  4 18  1  0  0  0  0
  5  6  1  0  0  0  0
  6  1  2  0  0  0  0
  6 13  1  0  0  0  0
 10  5  1  0  0  0  0
 11  3  1  0  0  0  0
 12 11  1  0  0  0  0
 13 14  1  0  0  0  0
 14 15  1  0  0  0  0
 14 16  1  0  0  0  0
 17 14  1  0  0  0  0
 19 18  1  0  0  0  0
 19 21  1  0  0  0  0
 20 19  2  0  0  0  0
 21 24  1  0  0  0  0
 21 22  1  0  0  0  0
 23 21  1  0  0  0  0
M  RAD  3   5   2  11   2  12   3
M  END
