Coordinates from ORCA-job p-CH3O-Ph-N2-OOCCH3-B3LYPG-aug-cc-pVDZ-scan-d09-49-n400
 OpenBabel10311713213D

 24 24  0  0  1  0  0  0  0  0999 V2000
   11.5129    7.3993   -0.5068 C   0  0  0  0  0  0  0  0  0  0  0  0
   10.2825    7.2950   -1.1023 C   0  0  0  0  0  0  0  0  0  0  0  0
   10.1177    6.2331   -2.0230 C   0  0  1  0  0  0  0  0  0  0  0  0
   10.7664    4.9231   -1.8884 C   0  0  1  0  0  0  0  0  0  0  0  0
   12.1740    5.2346   -1.4853 C   0  0  0  0  0  0  0  0  0  0  0  0
   12.4874    6.3554   -0.7695 C   0  0  0  0  0  0  0  0  0  0  0  0
   11.7538    8.2721    0.0911 H   0  0  0  0  0  0  0  0  0  0  0  0
    9.5216    8.0631   -0.9816 H   0  0  0  0  0  0  0  0  0  0  0  0
   10.7142    4.2949   -2.7795 H   0  0  0  0  0  0  0  0  0  0  0  0
   12.9236    4.4632   -1.6448 H   0  0  0  0  0  0  0  0  0  0  0  0
    8.4680    6.0285   -2.4325 N   0  0  0  0  0  0  0  0  0  0  0  0
    7.4949    5.9850   -2.9777 N   0  0  0  0  0  0  0  0  0  0  0  0
   13.7747    6.4476   -0.3151 O   0  0  0  0  0  0  0  0  0  0  0  0
   14.2126    7.6532    0.3053 C   0  0  0  0  0  0  0  0  0  0  0  0
   15.2781    7.5072    0.5085 H   0  0  0  0  0  0  0  0  0  0  0  0
   13.6873    7.8338    1.2554 H   0  0  0  0  0  0  0  0  0  0  0  0
   14.0848    8.5192   -0.3613 H   0  0  0  0  0  0  0  0  0  0  0  0
   10.0639    4.0975   -0.8050 O   0  0  0  0  0  0  0  0  0  0  0  0
   10.2769    2.7672   -0.8435 C   0  0  0  0  0  0  0  0  0  0  0  0
   10.9591    2.2098   -1.6827 O   0  0  0  0  0  0  0  0  0  0  0  0
    9.5681    2.0587    0.2878 C   0  0  0  0  0  0  0  0  0  0  0  0
   10.0462    2.3305    1.2392 H   0  0  0  0  0  0  0  0  0  0  0  0
    8.5185    2.3743    0.3442 H   0  0  0  0  0  0  0  0  0  0  0  0
    9.6362    0.9770    0.1390 H   0  0  0  0  0  0  0  0  0  0  0  0
  1  7  1  0  0  0  0
  2  8  1  0  0  0  0
  2  1  2  0  0  0  0
  3 11  1  1  0  0  0
  3  4  1  0  0  0  0
  3  2  1  0  0  0  0
  4  9  1  6  0  0  0
  4  5  1  0  0  0  0
  4 18  1  0  0  0  0
  5  6  2  0  0  0  0
  6  1  1  0  0  0  0
  6 13  1  0  0  0  0
 10  5  1  0  0  0  0
 12 11  1  0  0  0  0
 13 14  1  0  0  0  0
 14 15  1  0  0  0  0
 14 16  1  0  0  0  0
 17 14  1  0  0  0  0
 19 18  1  0  0  0  0
 19 21  1  0  0  0  0
 20 19  2  0  0  0  0
 21 23  1  0  0  0  0
 21 22  1  0  0  0  0
 24 21  1  0  0  0  0
M  RAD  3   3   2  11   2  12   3
M  END
