Coordinates from ORCA-job p-CH3O-Ph-N2-OOCCH3-B3LYPG-aug-cc-pVDZ-scan-d09-49-n400
 OpenBabel10311713213D

 24 24  0  0  1  0  0  0  0  0999 V2000
   11.5831    7.3136   -0.0545 C   0  0  0  0  0  0  0  0  0  0  0  0
   10.3477    7.0215   -0.6871 C   0  0  0  0  0  0  0  0  0  0  0  0
   10.5686    6.1931   -1.7908 C   0  0  2  0  0  0  0  0  0  0  0  0
   10.6205    4.7771   -1.7380 C   0  0  1  0  0  0  0  0  0  0  0  0
   12.0073    5.7588   -1.7454 C   0  0  2  0  0  0  0  0  0  0  0  0
   12.5607    6.5000   -0.6399 C   0  0  0  0  0  0  0  0  0  0  0  0
   11.7161    7.9713    0.8008 H   0  0  0  0  0  0  0  0  0  0  0  0
    9.3684    7.2272   -0.2591 H   0  0  0  0  0  0  0  0  0  0  0  0
   10.7132    4.1372   -2.6145 H   0  0  0  0  0  0  0  0  0  0  0  0
   12.6259    5.4790   -2.5942 H   0  0  0  0  0  0  0  0  0  0  0  0
    6.9574    6.2336   -4.8292 N   0  0  0  0  0  0  0  0  0  0  0  0
    7.7467    6.6111   -5.5022 N   0  0  0  0  0  0  0  0  0  0  0  0
   13.8985    6.4825   -0.4246 O   0  0  0  0  0  0  0  0  0  0  0  0
   14.4032    7.4348    0.5104 C   0  0  0  0  0  0  0  0  0  0  0  0
   15.4911    7.3189    0.5065 H   0  0  0  0  0  0  0  0  0  0  0  0
   14.0145    7.2363    1.5207 H   0  0  0  0  0  0  0  0  0  0  0  0
   14.1333    8.4580    0.2071 H   0  0  0  0  0  0  0  0  0  0  0  0
   10.1332    4.0950   -0.6197 O   0  0  0  0  0  0  0  0  0  0  0  0
   10.2670    2.7236   -0.6041 C   0  0  0  0  0  0  0  0  0  0  0  0
   10.7737    2.0952   -1.5012 O   0  0  0  0  0  0  0  0  0  0  0  0
    9.7026    2.1591    0.6699 C   0  0  0  0  0  0  0  0  0  0  0  0
   10.2500    2.5699    1.5291 H   0  0  0  0  0  0  0  0  0  0  0  0
    8.6512    2.4569    0.7778 H   0  0  0  0  0  0  0  0  0  0  0  0
    9.7896    1.0695    0.6540 H   0  0  0  0  0  0  0  0  0  0  0  0
  1  7  1  0  0  0  0
  2  8  1  0  0  0  0
  2  1  1  0  0  0  0
  3  5  1  0  0  0  0
  3  4  1  0  0  0  0
  3  2  1  1  0  0  0
  4  9  1  6  0  0  0
  4 18  1  0  0  0  0
  5 10  1  6  0  0  0
  5  4  1  0  0  0  0
  5  6  1  0  0  0  0
  6 13  1  0  0  0  0
  6  1  2  0  0  0  0
 12 11  3  0  0  0  0
 13 14  1  0  0  0  0
 14 16  1  0  0  0  0
 15 14  1  0  0  0  0
 17 14  1  0  0  0  0
 18 19  1  0  0  0  0
 19 21  1  0  0  0  0
 20 19  2  0  0  0  0
 21 23  1  0  0  0  0
 21 22  1  0  0  0  0
 24 21  1  0  0  0  0
M  RAD  2   2   2   3   2
M  END
