Coordinates from ORCA-job p-CH3O-Ph-N2-OOCCH3-B3LYPG-aug-cc-pVDZ-scan-d09-49-n400
 OpenBabel10311713213D

 24 24  0  0  1  0  0  0  0  0999 V2000
   11.3543    7.2742   -0.1785 C   0  0  0  0  0  0  0  0  0  0  0  0
   10.0895    6.9427   -0.7286 C   0  0  0  0  0  0  0  0  0  0  0  0
   10.2535    6.1124   -1.8412 C   0  0  2  0  0  0  0  0  0  0  0  0
   10.3945    4.6999   -1.7663 C   0  0  1  0  0  0  0  0  0  0  0  0
   11.7080    5.7074   -1.8789 C   0  0  2  0  0  0  0  0  0  0  0  0
   12.3133    6.4833   -0.8184 C   0  0  0  0  0  0  0  0  0  0  0  0
   11.5228    7.9442    0.6608 H   0  0  0  0  0  0  0  0  0  0  0  0
    9.1344    7.1341   -0.2424 H   0  0  0  0  0  0  0  0  0  0  0  0
   10.4218    4.0491   -2.6403 H   0  0  0  0  0  0  0  0  0  0  0  0
   12.2840    5.4597   -2.7676 H   0  0  0  0  0  0  0  0  0  0  0  0
    8.8712    6.6241   -3.6374 N   0  0  0  0  0  0  0  0  0  0  0  0
    9.3180    6.9819   -4.5877 N   0  0  0  0  0  0  0  0  0  0  0  0
   13.6612    6.5130   -0.7033 O   0  0  0  0  0  0  0  0  0  0  0  0
   14.2026    7.4943    0.1811 C   0  0  0  0  0  0  0  0  0  0  0  0
   15.2903    7.4134    0.0965 H   0  0  0  0  0  0  0  0  0  0  0  0
   13.8970    7.2960    1.2194 H   0  0  0  0  0  0  0  0  0  0  0  0
   13.8759    8.5033   -0.1129 H   0  0  0  0  0  0  0  0  0  0  0  0
   10.0153    4.0176   -0.6010 O   0  0  0  0  0  0  0  0  0  0  0  0
   10.2310    2.6598   -0.5679 C   0  0  0  0  0  0  0  0  0  0  0  0
   10.7193    2.0411   -1.4827 O   0  0  0  0  0  0  0  0  0  0  0  0
    9.7756    2.0894    0.7472 C   0  0  0  0  0  0  0  0  0  0  0  0
   10.3491    2.5460    1.5651 H   0  0  0  0  0  0  0  0  0  0  0  0
    8.7173    2.3300    0.9136 H   0  0  0  0  0  0  0  0  0  0  0  0
    9.9234    1.0062    0.7432 H   0  0  0  0  0  0  0  0  0  0  0  0
  1  7  1  0  0  0  0
  2  8  1  0  0  0  0
  2  1  1  0  0  0  0
  3  4  1  0  0  0  0
  3  2  1  1  0  0  0
  4  9  1  6  0  0  0
  4 18  1  0  0  0  0
  5 10  1  6  0  0  0
  5  3  1  0  0  0  0
  5  4  1  0  0  0  0
  5  6  1  0  0  0  0
  6 13  1  0  0  0  0
  6  1  2  0  0  0  0
 12 11  3  0  0  0  0
 13 14  1  0  0  0  0
 14 16  1  0  0  0  0
 15 14  1  0  0  0  0
 17 14  1  0  0  0  0
 18 19  1  0  0  0  0
 19 21  1  0  0  0  0
 20 19  2  0  0  0  0
 21 23  1  0  0  0  0
 21 22  1  0  0  0  0
 24 21  1  0  0  0  0
M  RAD  2   2   2   3   2
M  END
