Coordinates from ORCA-job p-CH3O-Ph-N2-OOCCH3-B3LYPG-aug-cc-pVDZ-scan-d09-49-n400
 OpenBabel10311713213D

 24 24  0  0  1  0  0  0  0  0999 V2000
   11.4772    7.2924   -0.1072 C   0  0  0  0  0  0  0  0  0  0  0  0
   10.2260    6.9708   -0.6927 C   0  0  0  0  0  0  0  0  0  0  0  0
   10.4226    6.1386   -1.7980 C   0  0  2  0  0  0  0  0  0  0  0  0
   10.5106    4.7243   -1.7349 C   0  0  1  0  0  0  0  0  0  0  0  0
   11.8708    5.7314   -1.8006 C   0  0  2  0  0  0  0  0  0  0  0  0
   12.4488    6.4931   -0.7211 C   0  0  0  0  0  0  0  0  0  0  0  0
   11.6277    7.9594    0.7379 H   0  0  0  0  0  0  0  0  0  0  0  0
    9.2586    7.1600   -0.2311 H   0  0  0  0  0  0  0  0  0  0  0  0
   10.5805    4.0783   -2.6092 H   0  0  0  0  0  0  0  0  0  0  0  0
   12.4653    5.4601   -2.6692 H   0  0  0  0  0  0  0  0  0  0  0  0
    7.8744    6.4722   -4.3571 N   0  0  0  0  0  0  0  0  0  0  0  0
    8.4123    6.9029   -5.2201 N   0  0  0  0  0  0  0  0  0  0  0  0
   13.7933    6.5038   -0.5548 O   0  0  0  0  0  0  0  0  0  0  0  0
   14.3129    7.4739    0.3536 C   0  0  0  0  0  0  0  0  0  0  0  0
   15.4021    7.3794    0.3103 H   0  0  0  0  0  0  0  0  0  0  0  0
   13.9657    7.2762    1.3790 H   0  0  0  0  0  0  0  0  0  0  0  0
   14.0116    8.4888    0.0526 H   0  0  0  0  0  0  0  0  0  0  0  0
   10.0821    4.0419   -0.5923 O   0  0  0  0  0  0  0  0  0  0  0  0
   10.2492    2.6747   -0.5701 C   0  0  0  0  0  0  0  0  0  0  0  0
   10.7381    2.0501   -1.4797 O   0  0  0  0  0  0  0  0  0  0  0  0
    9.7424    2.1083    0.7273 C   0  0  0  0  0  0  0  0  0  0  0  0
   10.3054    2.5430    1.5643 H   0  0  0  0  0  0  0  0  0  0  0  0
    8.6871    2.3781    0.8661 H   0  0  0  0  0  0  0  0  0  0  0  0
    9.8590    1.0213    0.7188 H   0  0  0  0  0  0  0  0  0  0  0  0
  1  7  1  0  0  0  0
  2  8  1  0  0  0  0
  2  1  1  0  0  0  0
  3  4  1  0  0  0  0
  3  2  1  1  0  0  0
  4  9  1  6  0  0  0
  4 18  1  0  0  0  0
  5 10  1  6  0  0  0
  5  3  1  0  0  0  0
  5  4  1  0  0  0  0
  5  6  1  0  0  0  0
  6 13  1  0  0  0  0
  6  1  2  0  0  0  0
 12 11  3  0  0  0  0
 13 14  1  0  0  0  0
 14 16  1  0  0  0  0
 15 14  1  0  0  0  0
 17 14  1  0  0  0  0
 18 19  1  0  0  0  0
 19 21  1  0  0  0  0
 20 19  2  0  0  0  0
 21 23  1  0  0  0  0
 21 22  1  0  0  0  0
 24 21  1  0  0  0  0
M  RAD  2   2   2   3   2
M  END
