Coordinates from ORCA-job p-CH3O-Ph-N2-OOCCH3-B3LYPG-aug-cc-pVDZ-scan-d09-49-n400
 OpenBabel10311713213D

 24 24  0  0  1  0  0  0  0  0999 V2000
   11.5126    7.3946   -0.5049 C   0  0  0  0  0  0  0  0  0  0  0  0
   10.2822    7.2885   -1.1001 C   0  0  0  0  0  0  0  0  0  0  0  0
   10.1267    6.2361   -2.0321 C   0  0  1  0  0  0  0  0  0  0  0  0
   10.7685    4.9239   -1.8945 C   0  0  1  0  0  0  0  0  0  0  0  0
   12.1771    5.2357   -1.4929 C   0  0  0  0  0  0  0  0  0  0  0  0
   12.4896    6.3542   -0.7730 C   0  0  0  0  0  0  0  0  0  0  0  0
   11.7520    8.2665    0.0949 H   0  0  0  0  0  0  0  0  0  0  0  0
    9.5186    8.0535   -0.9762 H   0  0  0  0  0  0  0  0  0  0  0  0
   10.7156    4.2950   -2.7851 H   0  0  0  0  0  0  0  0  0  0  0  0
   12.9263    4.4643   -1.6542 H   0  0  0  0  0  0  0  0  0  0  0  0
    8.4551    6.0221   -2.4322 N   0  0  0  0  0  0  0  0  0  0  0  0
    7.4841    5.9814   -2.9794 N   0  0  0  0  0  0  0  0  0  0  0  0
   13.7767    6.4469   -0.3186 O   0  0  0  0  0  0  0  0  0  0  0  0
   14.2119    7.6497    0.3091 C   0  0  0  0  0  0  0  0  0  0  0  0
   15.2778    7.5049    0.5111 H   0  0  0  0  0  0  0  0  0  0  0  0
   13.6864    7.8232    1.2603 H   0  0  0  0  0  0  0  0  0  0  0  0
   14.0819    8.5194   -0.3522 H   0  0  0  0  0  0  0  0  0  0  0  0
   10.0661    4.1021   -0.8093 O   0  0  0  0  0  0  0  0  0  0  0  0
   10.2786    2.7715   -0.8431 C   0  0  0  0  0  0  0  0  0  0  0  0
   10.9625    2.2113   -1.6790 O   0  0  0  0  0  0  0  0  0  0  0  0
    9.5693    2.0673    0.2906 C   0  0  0  0  0  0  0  0  0  0  0  0
   10.0454    2.3447    1.2415 H   0  0  0  0  0  0  0  0  0  0  0  0
    8.5191    2.3814    0.3437 H   0  0  0  0  0  0  0  0  0  0  0  0
    9.6395    0.9850    0.1472 H   0  0  0  0  0  0  0  0  0  0  0  0
  1  7  1  0  0  0  0
  2  8  1  0  0  0  0
  2  1  2  0  0  0  0
  3 11  1  1  0  0  0
  3  4  1  0  0  0  0
  3  2  1  0  0  0  0
  4  9  1  6  0  0  0
  4  5  1  0  0  0  0
  4 18  1  0  0  0  0
  5  6  2  0  0  0  0
  6  1  1  0  0  0  0
  6 13  1  0  0  0  0
 10  5  1  0  0  0  0
 12 11  1  0  0  0  0
 13 14  1  0  0  0  0
 14 15  1  0  0  0  0
 14 16  1  0  0  0  0
 17 14  1  0  0  0  0
 19 18  1  0  0  0  0
 19 21  1  0  0  0  0
 20 19  2  0  0  0  0
 21 23  1  0  0  0  0
 21 22  1  0  0  0  0
 24 21  1  0  0  0  0
M  RAD  3   3   2  11   2  12   3
M  END
