Coordinates from ORCA-job p-CH3O-Ph-N2-OOCCH3-B3LYPG-aug-cc-pVDZ-scan-d09-49-n400
 OpenBabel10311713213D

 24 24  0  0  1  0  0  0  0  0999 V2000
   11.5084    7.3773   -0.4957 C   0  0  0  0  0  0  0  0  0  0  0  0
   10.2795    7.2700   -1.0936 C   0  0  0  0  0  0  0  0  0  0  0  0
   10.1505    6.2458   -2.0620 C   0  0  1  0  0  0  0  0  0  0  0  0
   10.7697    4.9255   -1.9139 C   0  0  1  0  0  0  0  0  0  0  0  0
   12.1837    5.2402   -1.5216 C   0  0  0  0  0  0  0  0  0  0  0  0
   12.4931    6.3484   -0.7847 C   0  0  0  0  0  0  0  0  0  0  0  0
   11.7429    8.2428    0.1156 H   0  0  0  0  0  0  0  0  0  0  0  0
    9.5086    8.0255   -0.9579 H   0  0  0  0  0  0  0  0  0  0  0  0
   10.7130    4.2923   -2.8009 H   0  0  0  0  0  0  0  0  0  0  0  0
   12.9330    4.4712   -1.6934 H   0  0  0  0  0  0  0  0  0  0  0  0
    8.4154    6.0118   -2.4452 N   0  0  0  0  0  0  0  0  0  0  0  0
    7.4548    5.9823   -3.0070 N   0  0  0  0  0  0  0  0  0  0  0  0
   13.7803    6.4418   -0.3331 O   0  0  0  0  0  0  0  0  0  0  0  0
   14.2077    7.6332    0.3218 C   0  0  0  0  0  0  0  0  0  0  0  0
   15.2750    7.4916    0.5186 H   0  0  0  0  0  0  0  0  0  0  0  0
   13.6825    7.7803    1.2776 H   0  0  0  0  0  0  0  0  0  0  0  0
   14.0700    8.5168   -0.3191 H   0  0  0  0  0  0  0  0  0  0  0  0
   10.0717    4.1176   -0.8202 O   0  0  0  0  0  0  0  0  0  0  0  0
   10.2860    2.7867   -0.8388 C   0  0  0  0  0  0  0  0  0  0  0  0
   10.9741    2.2187   -1.6656 O   0  0  0  0  0  0  0  0  0  0  0  0
    9.5813    2.0959    0.3058 C   0  0  0  0  0  0  0  0  0  0  0  0
   10.0536    2.3927    1.2526 H   0  0  0  0  0  0  0  0  0  0  0  0
    8.5286    2.4024    0.3522 H   0  0  0  0  0  0  0  0  0  0  0  0
    9.6600    1.0120    0.1802 H   0  0  0  0  0  0  0  0  0  0  0  0
  1  7  1  0  0  0  0
  2  8  1  0  0  0  0
  2  1  2  0  0  0  0
  3 11  1  1  0  0  0
  3  4  1  0  0  0  0
  3  2  1  0  0  0  0
  4  9  1  6  0  0  0
  4  5  1  0  0  0  0
  4 18  1  0  0  0  0
  5  6  2  0  0  0  0
  6  1  1  0  0  0  0
  6 13  1  0  0  0  0
 10  5  1  0  0  0  0
 12 11  1  0  0  0  0
 13 14  1  0  0  0  0
 14 15  1  0  0  0  0
 14 16  1  0  0  0  0
 17 14  1  0  0  0  0
 19 18  1  0  0  0  0
 19 21  1  0  0  0  0
 20 19  2  0  0  0  0
 21 23  1  0  0  0  0
 21 22  1  0  0  0  0
 24 21  1  0  0  0  0
M  RAD  3   3   2  11   2  12   3
M  END
