Coordinates from ORCA-job p-CH3O-Ph-N2-OOCCH3-B3LYPG-aug-cc-pVDZ-scan-d09-49-n400
 OpenBabel10311713213D

 24 24  0  0  1  0  0  0  0  0999 V2000
   11.4850    7.2943   -0.1035 C   0  0  0  0  0  0  0  0  0  0  0  0
   10.2348    6.9747   -0.6925 C   0  0  0  0  0  0  0  0  0  0  0  0
   10.4334    6.1420   -1.7969 C   0  0  2  0  0  0  0  0  0  0  0  0
   10.5186    4.7275   -1.7350 C   0  0  1  0  0  0  0  0  0  0  0  0
   11.8808    5.7326   -1.7958 C   0  0  2  0  0  0  0  0  0  0  0  0
   12.4569    6.4932   -0.7145 C   0  0  0  0  0  0  0  0  0  0  0  0
   11.6344    7.9613    0.7419 H   0  0  0  0  0  0  0  0  0  0  0  0
    9.2663    7.1653   -0.2338 H   0  0  0  0  0  0  0  0  0  0  0  0
   10.5898    4.0821   -2.6095 H   0  0  0  0  0  0  0  0  0  0  0  0
   12.4772    5.4608   -2.6631 H   0  0  0  0  0  0  0  0  0  0  0  0
    7.8060    6.4590   -4.3927 N   0  0  0  0  0  0  0  0  0  0  0  0
    8.3606    6.8848   -5.2475 N   0  0  0  0  0  0  0  0  0  0  0  0
   13.8009    6.5016   -0.5443 O   0  0  0  0  0  0  0  0  0  0  0  0
   14.3197    7.4709    0.3654 C   0  0  0  0  0  0  0  0  0  0  0  0
   15.4088    7.3744    0.3253 H   0  0  0  0  0  0  0  0  0  0  0  0
   13.9691    7.2740    1.3898 H   0  0  0  0  0  0  0  0  0  0  0  0
   14.0210    8.4863    0.0632 H   0  0  0  0  0  0  0  0  0  0  0  0
   10.0854    4.0450   -0.5940 O   0  0  0  0  0  0  0  0  0  0  0  0
   10.2505    2.6776   -0.5721 C   0  0  0  0  0  0  0  0  0  0  0  0
   10.7416    2.0529   -1.4805 O   0  0  0  0  0  0  0  0  0  0  0  0
    9.7403    2.1113    0.7239 C   0  0  0  0  0  0  0  0  0  0  0  0
   10.3018    2.5451    1.5623 H   0  0  0  0  0  0  0  0  0  0  0  0
    8.6849    2.3821    0.8605 H   0  0  0  0  0  0  0  0  0  0  0  0
    9.8558    1.0242    0.7152 H   0  0  0  0  0  0  0  0  0  0  0  0
  1  7  1  0  0  0  0
  2  8  1  0  0  0  0
  2  1  1  0  0  0  0
  3  5  1  0  0  0  0
  3  4  1  0  0  0  0
  3  2  1  1  0  0  0
  4  9  1  6  0  0  0
  4 18  1  0  0  0  0
  5 10  1  6  0  0  0
  5  4  1  0  0  0  0
  5  6  1  0  0  0  0
  6 13  1  0  0  0  0
  6  1  2  0  0  0  0
 12 11  3  0  0  0  0
 13 14  1  0  0  0  0
 14 16  1  0  0  0  0
 15 14  1  0  0  0  0
 17 14  1  0  0  0  0
 18 19  1  0  0  0  0
 19 21  1  0  0  0  0
 20 19  2  0  0  0  0
 21 23  1  0  0  0  0
 21 22  1  0  0  0  0
 24 21  1  0  0  0  0
M  RAD  2   2   2   3   2
M  END
