Coordinates from ORCA-job p-CH3O-Ph-N2-OOCCH3-B3LYPG-aug-cc-pVDZ-scan-d09-49-n400
 OpenBabel10311713213D

 24 24  0  0  1  0  0  0  0  0999 V2000
   11.5793    7.3128   -0.0561 C   0  0  0  0  0  0  0  0  0  0  0  0
   10.3429    7.0192   -0.6864 C   0  0  0  0  0  0  0  0  0  0  0  0
   10.5630    6.1904   -1.7899 C   0  0  2  0  0  0  0  0  0  0  0  0
   10.6160    4.7745   -1.7371 C   0  0  1  0  0  0  0  0  0  0  0  0
   12.0021    5.7579   -1.7470 C   0  0  2  0  0  0  0  0  0  0  0  0
   12.5568    6.5000   -0.6428 C   0  0  0  0  0  0  0  0  0  0  0  0
   11.7131    7.9713    0.7985 H   0  0  0  0  0  0  0  0  0  0  0  0
    9.3640    7.2240   -0.2571 H   0  0  0  0  0  0  0  0  0  0  0  0
   10.7083    4.1345   -2.6136 H   0  0  0  0  0  0  0  0  0  0  0  0
   12.6194    5.4784   -2.5969 H   0  0  0  0  0  0  0  0  0  0  0  0
    6.9916    6.2444   -4.8129 N   0  0  0  0  0  0  0  0  0  0  0  0
    7.7737    6.6235   -5.4932 N   0  0  0  0  0  0  0  0  0  0  0  0
   13.8951    6.4842   -0.4301 O   0  0  0  0  0  0  0  0  0  0  0  0
   14.4004    7.4375    0.5036 C   0  0  0  0  0  0  0  0  0  0  0  0
   15.4885    7.3227    0.4978 H   0  0  0  0  0  0  0  0  0  0  0  0
   14.0138    7.2389    1.5148 H   0  0  0  0  0  0  0  0  0  0  0  0
   14.1288    8.4602    0.2004 H   0  0  0  0  0  0  0  0  0  0  0  0
   10.1308    4.0922   -0.6181 O   0  0  0  0  0  0  0  0  0  0  0  0
   10.2659    2.7208   -0.6025 C   0  0  0  0  0  0  0  0  0  0  0  0
   10.7724    2.0929   -1.5000 O   0  0  0  0  0  0  0  0  0  0  0  0
    9.7033    2.1561    0.6722 C   0  0  0  0  0  0  0  0  0  0  0  0
   10.2511    2.5676    1.5308 H   0  0  0  0  0  0  0  0  0  0  0  0
    8.6517    2.4527    0.7810 H   0  0  0  0  0  0  0  0  0  0  0  0
    9.7916    1.0665    0.6564 H   0  0  0  0  0  0  0  0  0  0  0  0
  1  7  1  0  0  0  0
  2  8  1  0  0  0  0
  2  1  1  0  0  0  0
  3  5  1  0  0  0  0
  3  4  1  0  0  0  0
  3  2  1  1  0  0  0
  4  9  1  6  0  0  0
  4 18  1  0  0  0  0
  5 10  1  6  0  0  0
  5  4  1  0  0  0  0
  5  6  1  0  0  0  0
  6 13  1  0  0  0  0
  6  1  2  0  0  0  0
 12 11  3  0  0  0  0
 13 14  1  0  0  0  0
 14 16  1  0  0  0  0
 15 14  1  0  0  0  0
 17 14  1  0  0  0  0
 18 19  1  0  0  0  0
 19 21  1  0  0  0  0
 20 19  2  0  0  0  0
 21 23  1  0  0  0  0
 21 22  1  0  0  0  0
 24 21  1  0  0  0  0
M  RAD  2   2   2   3   2
M  END
