Coordinates from ORCA-job p-CH3O-Ph-N2-OOCCH3-B3LYPG-aug-cc-pVDZ-scan-d09-49-n400
 OpenBabel10311713213D

 24 24  0  0  1  0  0  0  0  0999 V2000
   11.4803    7.2932   -0.1065 C   0  0  0  0  0  0  0  0  0  0  0  0
   10.2292    6.9719   -0.6933 C   0  0  0  0  0  0  0  0  0  0  0  0
   10.4269    6.1394   -1.7965 C   0  0  2  0  0  0  0  0  0  0  0  0
   10.5137    4.7257   -1.7349 C   0  0  1  0  0  0  0  0  0  0  0  0
   11.8745    5.7319   -1.7986 C   0  0  2  0  0  0  0  0  0  0  0  0
   12.4521    6.4933   -0.7189 C   0  0  0  0  0  0  0  0  0  0  0  0
   11.6301    7.9602    0.7388 H   0  0  0  0  0  0  0  0  0  0  0  0
    9.2610    7.1613   -0.2336 H   0  0  0  0  0  0  0  0  0  0  0  0
   10.5834    4.0804   -2.6096 H   0  0  0  0  0  0  0  0  0  0  0  0
   12.4695    5.4604   -2.6669 H   0  0  0  0  0  0  0  0  0  0  0  0
    7.8490    6.4668   -4.3694 N   0  0  0  0  0  0  0  0  0  0  0  0
    8.3930    6.8959   -5.2292 N   0  0  0  0  0  0  0  0  0  0  0  0
   13.7964    6.5030   -0.5508 O   0  0  0  0  0  0  0  0  0  0  0  0
   14.3154    7.4728    0.3581 C   0  0  0  0  0  0  0  0  0  0  0  0
   15.4046    7.3775    0.3163 H   0  0  0  0  0  0  0  0  0  0  0  0
   13.9668    7.2754    1.3831 H   0  0  0  0  0  0  0  0  0  0  0  0
   14.0152    8.4879    0.0565 H   0  0  0  0  0  0  0  0  0  0  0  0
   10.0839    4.0433   -0.5927 O   0  0  0  0  0  0  0  0  0  0  0  0
   10.2506    2.6761   -0.5705 C   0  0  0  0  0  0  0  0  0  0  0  0
   10.7392    2.0513   -1.4802 O   0  0  0  0  0  0  0  0  0  0  0  0
    9.7416    2.1095    0.7259 C   0  0  0  0  0  0  0  0  0  0  0  0
   10.3040    2.5430    1.5638 H   0  0  0  0  0  0  0  0  0  0  0  0
    8.6864    2.3804    0.8637 H   0  0  0  0  0  0  0  0  0  0  0  0
    9.8569    1.0224    0.7169 H   0  0  0  0  0  0  0  0  0  0  0  0
  1  7  1  0  0  0  0
  2  8  1  0  0  0  0
  2  1  1  0  0  0  0
  3  4  1  0  0  0  0
  3  2  1  1  0  0  0
  4  9  1  6  0  0  0
  4 18  1  0  0  0  0
  5 10  1  6  0  0  0
  5  3  1  0  0  0  0
  5  4  1  0  0  0  0
  5  6  1  0  0  0  0
  6 13  1  0  0  0  0
  6  1  2  0  0  0  0
 12 11  3  0  0  0  0
 13 14  1  0  0  0  0
 14 16  1  0  0  0  0
 15 14  1  0  0  0  0
 17 14  1  0  0  0  0
 18 19  1  0  0  0  0
 19 21  1  0  0  0  0
 20 19  2  0  0  0  0
 21 23  1  0  0  0  0
 21 22  1  0  0  0  0
 24 21  1  0  0  0  0
M  RAD  2   2   2   3   2
M  END
