Coordinates from ORCA-job p-CH3O-Ph-N2-OOCCH3-B3LYPG-aug-cc-pVDZ-scan-d09-49-n400
 OpenBabel10311713213D

 24 24  0  0  1  0  0  0  0  0999 V2000
   11.3226    7.2541   -0.1884 C   0  0  0  0  0  0  0  0  0  0  0  0
   10.0588    6.9486   -0.7474 C   0  0  0  0  0  0  0  0  0  0  0  0
   10.2110    6.1259   -1.8765 C   0  0  2  0  0  0  0  0  0  0  0  0
   10.3792    4.7109   -1.7913 C   0  0  1  0  0  0  0  0  0  0  0  0
   11.6691    5.7083   -1.9115 C   0  0  2  0  0  0  0  0  0  0  0  0
   12.2799    6.4735   -0.8429 C   0  0  0  0  0  0  0  0  0  0  0  0
   11.4932    7.9089    0.6625 H   0  0  0  0  0  0  0  0  0  0  0  0
    9.1020    7.1636   -0.2745 H   0  0  0  0  0  0  0  0  0  0  0  0
   10.3873    4.0602   -2.6661 H   0  0  0  0  0  0  0  0  0  0  0  0
   12.2421    5.4771   -2.8064 H   0  0  0  0  0  0  0  0  0  0  0  0
    9.0477    6.6103   -3.4331 N   0  0  0  0  0  0  0  0  0  0  0  0
    9.5048    6.9078   -4.4094 N   0  0  0  0  0  0  0  0  0  0  0  0
   13.6273    6.5055   -0.7389 O   0  0  0  0  0  0  0  0  0  0  0  0
   14.1744    7.4728    0.1582 C   0  0  0  0  0  0  0  0  0  0  0  0
   15.2614    7.3955    0.0628 H   0  0  0  0  0  0  0  0  0  0  0  0
   13.8776    7.2553    1.1951 H   0  0  0  0  0  0  0  0  0  0  0  0
   13.8429    8.4857   -0.1161 H   0  0  0  0  0  0  0  0  0  0  0  0
   10.0009    4.0342   -0.6202 O   0  0  0  0  0  0  0  0  0  0  0  0
   10.2475    2.6835   -0.5711 C   0  0  0  0  0  0  0  0  0  0  0  0
   10.7582    2.0671   -1.4755 O   0  0  0  0  0  0  0  0  0  0  0  0
    9.7923    2.1148    0.7450 C   0  0  0  0  0  0  0  0  0  0  0  0
   10.3637    2.5763    1.5618 H   0  0  0  0  0  0  0  0  0  0  0  0
    8.7329    2.3506    0.9107 H   0  0  0  0  0  0  0  0  0  0  0  0
    9.9465    1.0324    0.7449 H   0  0  0  0  0  0  0  0  0  0  0  0
  1  7  1  0  0  0  0
  2  8  1  0  0  0  0
  2  1  1  0  0  0  0
  3  4  1  0  0  0  0
  3  2  1  1  0  0  0
  4  9  1  6  0  0  0
  4 18  1  0  0  0  0
  5 10  1  6  0  0  0
  5  3  1  0  0  0  0
  5  4  1  0  0  0  0
  5  6  1  0  0  0  0
  6 13  1  0  0  0  0
  6  1  2  0  0  0  0
 12 11  3  0  0  0  0
 13 14  1  0  0  0  0
 14 16  1  0  0  0  0
 15 14  1  0  0  0  0
 17 14  1  0  0  0  0
 18 19  1  0  0  0  0
 19 21  1  0  0  0  0
 20 19  2  0  0  0  0
 21 23  1  0  0  0  0
 21 22  1  0  0  0  0
 24 21  1  0  0  0  0
M  RAD  2   2   2   3   2
M  END
