Coordinates from ORCA-job p-CH3O-Ph-N2-OOCCH3-B3LYPG-aug-cc-pVDZ-scan-d09-49-n400
 OpenBabel10311713213D

 24 24  0  0  1  0  0  0  0  0999 V2000
   11.5012    7.2984   -0.0959 C   0  0  0  0  0  0  0  0  0  0  0  0
   10.2529    6.9823   -0.6914 C   0  0  0  0  0  0  0  0  0  0  0  0
   10.4554    6.1491   -1.7946 C   0  0  2  0  0  0  0  0  0  0  0  0
   10.5351    4.7343   -1.7346 C   0  0  1  0  0  0  0  0  0  0  0  0
   11.9013    5.7361   -1.7869 C   0  0  2  0  0  0  0  0  0  0  0  0
   12.4739    6.4947   -0.7022 C   0  0  0  0  0  0  0  0  0  0  0  0
   11.6480    7.9647    0.7505 H   0  0  0  0  0  0  0  0  0  0  0  0
    9.2824    7.1750   -0.2378 H   0  0  0  0  0  0  0  0  0  0  0  0
   10.6094    4.0899   -2.6097 H   0  0  0  0  0  0  0  0  0  0  0  0
   12.5011    5.4631   -2.6514 H   0  0  0  0  0  0  0  0  0  0  0  0
    7.6687    6.4283   -4.4617 N   0  0  0  0  0  0  0  0  0  0  0  0
    8.2596    6.8438   -5.2974 N   0  0  0  0  0  0  0  0  0  0  0  0
   13.8170    6.4988   -0.5246 O   0  0  0  0  0  0  0  0  0  0  0  0
   14.3335    7.4662    0.3884 C   0  0  0  0  0  0  0  0  0  0  0  0
   15.4225    7.3664    0.3545 H   0  0  0  0  0  0  0  0  0  0  0  0
   13.9766    7.2700    1.4108 H   0  0  0  0  0  0  0  0  0  0  0  0
   14.0396    8.4826    0.0850 H   0  0  0  0  0  0  0  0  0  0  0  0
   10.0935    4.0517   -0.5970 O   0  0  0  0  0  0  0  0  0  0  0  0
   10.2543    2.6837   -0.5760 C   0  0  0  0  0  0  0  0  0  0  0  0
   10.7469    2.0585   -1.4833 O   0  0  0  0  0  0  0  0  0  0  0  0
    9.7340    2.1171    0.7159 C   0  0  0  0  0  0  0  0  0  0  0  0
   10.2930    2.5463    1.5583 H   0  0  0  0  0  0  0  0  0  0  0  0
    8.6792    2.3927    0.8472 H   0  0  0  0  0  0  0  0  0  0  0  0
    9.8443    1.0295    0.7055 H   0  0  0  0  0  0  0  0  0  0  0  0
  1  7  1  0  0  0  0
  2  8  1  0  0  0  0
  2  1  1  0  0  0  0
  3  5  1  0  0  0  0
  3  4  1  0  0  0  0
  3  2  1  1  0  0  0
  4  9  1  6  0  0  0
  4 18  1  0  0  0  0
  5 10  1  6  0  0  0
  5  4  1  0  0  0  0
  5  6  1  0  0  0  0
  6 13  1  0  0  0  0
  6  1  2  0  0  0  0
 12 11  3  0  0  0  0
 13 14  1  0  0  0  0
 14 16  1  0  0  0  0
 15 14  1  0  0  0  0
 17 14  1  0  0  0  0
 18 19  1  0  0  0  0
 19 21  1  0  0  0  0
 20 19  2  0  0  0  0
 21 23  1  0  0  0  0
 21 22  1  0  0  0  0
 24 21  1  0  0  0  0
M  RAD  2   2   2   3   2
M  END
