Coordinates from ORCA-job p-CH3O-Ph-N2-OOCCH3-B3LYPG-aug-cc-pVDZ-scan-d09-49-n400
 OpenBabel10311713213D

 24 24  0  0  1  0  0  0  0  0999 V2000
   11.5137    7.4524   -0.4958 C   0  0  0  0  0  0  0  0  0  0  0  0
   10.2758    7.3629   -1.0493 C   0  0  0  0  0  0  0  0  0  0  0  0
    9.8943    6.1723   -1.7622 C   0  0  0  0  0  0  0  0  0  0  0  0
   10.7180    4.9150   -1.7076 C   0  0  1  0  0  0  0  0  0  0  0  0
   12.1177    5.2043   -1.2933 C   0  0  0  0  0  0  0  0  0  0  0  0
   12.4637    6.3622   -0.6736 C   0  0  0  0  0  0  0  0  0  0  0  0
   11.7901    8.3477    0.0529 H   0  0  0  0  0  0  0  0  0  0  0  0
    9.5606    8.1809   -0.9706 H   0  0  0  0  0  0  0  0  0  0  0  0
   10.6835    4.3564   -2.6482 H   0  0  0  0  0  0  0  0  0  0  0  0
   12.8605    4.4242   -1.4440 H   0  0  0  0  0  0  0  0  0  0  0  0
    8.7672    6.1340   -2.4108 N   0  0  0  0  0  0  0  0  0  0  0  0
    7.7827    6.0779   -2.9857 N   0  0  0  0  0  0  0  0  0  0  0  0
   13.7539    6.4685   -0.2270 O   0  0  0  0  0  0  0  0  0  0  0  0
   14.2584    7.7445    0.1602 C   0  0  0  0  0  0  0  0  0  0  0  0
   15.3270    7.5931    0.3426 H   0  0  0  0  0  0  0  0  0  0  0  0
   13.7856    8.1044    1.0865 H   0  0  0  0  0  0  0  0  0  0  0  0
   14.1278    8.4896   -0.6386 H   0  0  0  0  0  0  0  0  0  0  0  0
   10.0426    4.0166   -0.7031 O   0  0  0  0  0  0  0  0  0  0  0  0
   10.2398    2.6880   -0.8598 C   0  0  0  0  0  0  0  0  0  0  0  0
   10.9166    2.2036   -1.7450 O   0  0  0  0  0  0  0  0  0  0  0  0
    9.5039    1.8965    0.1941 C   0  0  0  0  0  0  0  0  0  0  0  0
    9.7194    2.2976    1.1923 H   0  0  0  0  0  0  0  0  0  0  0  0
    8.4213    1.9853    0.0277 H   0  0  0  0  0  0  0  0  0  0  0  0
    9.7994    0.8452    0.1300 H   0  0  0  0  0  0  0  0  0  0  0  0
  1  7  1  0  0  0  0
  2  8  1  0  0  0  0
  2  1  1  0  0  0  0
  3  4  1  0  0  0  0
  3  2  2  0  0  0  0
  4  9  1  6  0  0  0
  4  5  1  0  0  0  0
  4 18  1  0  0  0  0
  5  6  2  0  0  0  0
  6  1  1  0  0  0  0
  6 13  1  0  0  0  0
 10  5  1  0  0  0  0
 11  3  1  0  0  0  0
 12 11  1  0  0  0  0
 13 14  1  0  0  0  0
 14 15  1  0  0  0  0
 14 16  1  0  0  0  0
 17 14  1  0  0  0  0
 19 18  1  0  0  0  0
 19 21  1  0  0  0  0
 20 19  2  0  0  0  0
 21 22  1  0  0  0  0
 23 21  1  0  0  0  0
 24 21  1  0  0  0  0
M  RAD  3   1   2  11   2  12   3
M  END
