Coordinates from ORCA-job p-CH3O-Ph-N2-OOCCH3-B3LYPG-aug-cc-pVDZ-scan-d09-49-n400
 OpenBabel10311713213D

 24 24  0  0  1  0  0  0  0  0999 V2000
   11.5902    7.3152   -0.0514 C   0  0  0  0  0  0  0  0  0  0  0  0
   10.3561    7.0256   -0.6878 C   0  0  0  0  0  0  0  0  0  0  0  0
   10.5788    6.1975   -1.7913 C   0  0  2  0  0  0  0  0  0  0  0  0
   10.6284    4.7814   -1.7392 C   0  0  1  0  0  0  0  0  0  0  0  0
   12.0165    5.7605   -1.7419 C   0  0  2  0  0  0  0  0  0  0  0  0
   12.5680    6.5002   -0.6343 C   0  0  0  0  0  0  0  0  0  0  0  0
   11.7218    7.9723    0.8047 H   0  0  0  0  0  0  0  0  0  0  0  0
    9.3759    7.2328   -0.2626 H   0  0  0  0  0  0  0  0  0  0  0  0
   10.7221    4.1418   -2.6157 H   0  0  0  0  0  0  0  0  0  0  0  0
   12.6371    5.4805   -2.5892 H   0  0  0  0  0  0  0  0  0  0  0  0
    6.8984    6.2140   -4.8566 N   0  0  0  0  0  0  0  0  0  0  0  0
    7.6998    6.5883   -5.5170 N   0  0  0  0  0  0  0  0  0  0  0  0
   13.9051    6.4802   -0.4152 O   0  0  0  0  0  0  0  0  0  0  0  0
   14.4088    7.4312    0.5217 C   0  0  0  0  0  0  0  0  0  0  0  0
   15.4965    7.3132    0.5209 H   0  0  0  0  0  0  0  0  0  0  0  0
   14.0169    7.2328    1.5308 H   0  0  0  0  0  0  0  0  0  0  0  0
   14.1416    8.4549    0.2182 H   0  0  0  0  0  0  0  0  0  0  0  0
   10.1368    4.0995   -0.6225 O   0  0  0  0  0  0  0  0  0  0  0  0
   10.2684    2.7279   -0.6072 C   0  0  0  0  0  0  0  0  0  0  0  0
   10.7765    2.0992   -1.5033 O   0  0  0  0  0  0  0  0  0  0  0  0
    9.6999    2.1637    0.6652 C   0  0  0  0  0  0  0  0  0  0  0  0
   10.2460    2.5730    1.5259 H   0  0  0  0  0  0  0  0  0  0  0  0
    8.6488    2.4634    0.7707 H   0  0  0  0  0  0  0  0  0  0  0  0
    9.7851    1.0739    0.6488 H   0  0  0  0  0  0  0  0  0  0  0  0
  1  7  1  0  0  0  0
  2  8  1  0  0  0  0
  2  1  1  0  0  0  0
  3  5  1  0  0  0  0
  3  4  1  0  0  0  0
  3  2  1  1  0  0  0
  4  9  1  6  0  0  0
  4 18  1  0  0  0  0
  5 10  1  6  0  0  0
  5  4  1  0  0  0  0
  5  6  1  0  0  0  0
  6 13  1  0  0  0  0
  6  1  2  0  0  0  0
 12 11  3  0  0  0  0
 13 14  1  0  0  0  0
 14 16  1  0  0  0  0
 15 14  1  0  0  0  0
 17 14  1  0  0  0  0
 18 19  1  0  0  0  0
 19 21  1  0  0  0  0
 20 19  2  0  0  0  0
 21 23  1  0  0  0  0
 21 22  1  0  0  0  0
 24 21  1  0  0  0  0
M  RAD  2   2   2   3   2
M  END
