Coordinates from ORCA-job p-CH3O-Ph-N2-OOCCH3-B3LYPG-aug-cc-pVDZ-scan-d09-49-n400
 OpenBabel10311713213D

 24 24  0  0  1  0  0  0  0  0999 V2000
   11.4185    7.2875   -0.1312 C   0  0  0  0  0  0  0  0  0  0  0  0
   10.1559    6.9548   -0.6865 C   0  0  0  0  0  0  0  0  0  0  0  0
   10.3319    6.1242   -1.7957 C   0  0  2  0  0  0  0  0  0  0  0  0
   10.4386    4.7112   -1.7365 C   0  0  1  0  0  0  0  0  0  0  0  0
   11.7836    5.7280   -1.8329 C   0  0  2  0  0  0  0  0  0  0  0  0
   12.3813    6.4960   -0.7676 C   0  0  0  0  0  0  0  0  0  0  0  0
   11.5835    7.9563    0.7098 H   0  0  0  0  0  0  0  0  0  0  0  0
    9.1995    7.1365   -0.1998 H   0  0  0  0  0  0  0  0  0  0  0  0
   10.4899    4.0673   -2.6139 H   0  0  0  0  0  0  0  0  0  0  0  0
   12.3604    5.4652   -2.7162 H   0  0  0  0  0  0  0  0  0  0  0  0
    8.4058    6.5701   -4.0458 N   0  0  0  0  0  0  0  0  0  0  0  0
    8.8824    6.9357   -4.9742 N   0  0  0  0  0  0  0  0  0  0  0  0
   13.7292    6.5188   -0.6353 O   0  0  0  0  0  0  0  0  0  0  0  0
   14.2629    7.4945    0.2588 C   0  0  0  0  0  0  0  0  0  0  0  0
   15.3514    7.4096    0.1882 H   0  0  0  0  0  0  0  0  0  0  0  0
   13.9434    7.2949    1.2928 H   0  0  0  0  0  0  0  0  0  0  0  0
   13.9449    8.5063   -0.0356 H   0  0  0  0  0  0  0  0  0  0  0  0
   10.0444    4.0224   -0.5844 O   0  0  0  0  0  0  0  0  0  0  0  0
   10.2266    2.6575   -0.5686 C   0  0  0  0  0  0  0  0  0  0  0  0
   10.7010    2.0393   -1.4904 O   0  0  0  0  0  0  0  0  0  0  0  0
    9.7589    2.0838    0.7403 C   0  0  0  0  0  0  0  0  0  0  0  0
   10.3362    2.5253    1.5638 H   0  0  0  0  0  0  0  0  0  0  0  0
    8.7038    2.3395    0.9048 H   0  0  0  0  0  0  0  0  0  0  0  0
    9.8895    0.9984    0.7280 H   0  0  0  0  0  0  0  0  0  0  0  0
  1  7  1  0  0  0  0
  2  8  1  0  0  0  0
  2  1  1  0  0  0  0
  3  4  1  0  0  0  0
  3  2  1  1  0  0  0
  4  9  1  6  0  0  0
  4 18  1  0  0  0  0
  5 10  1  6  0  0  0
  5  3  1  0  0  0  0
  5  4  1  0  0  0  0
  5  6  1  0  0  0  0
  6 13  1  0  0  0  0
  6  1  2  0  0  0  0
 12 11  3  0  0  0  0
 13 14  1  0  0  0  0
 14 16  1  0  0  0  0
 15 14  1  0  0  0  0
 17 14  1  0  0  0  0
 18 19  1  0  0  0  0
 19 21  1  0  0  0  0
 20 19  2  0  0  0  0
 21 23  1  0  0  0  0
 21 22  1  0  0  0  0
 24 21  1  0  0  0  0
M  RAD  2   2   2   3   2
M  END
