Coordinates from ORCA-job p-CH3O-Ph-N2-OOCCH3-B3LYPG-aug-cc-pVDZ-scan-d09-49-n400
 OpenBabel10311713213D

 24 24  0  0  1  0  0  0  0  0999 V2000
   11.4340    7.2885   -0.1236 C   0  0  0  0  0  0  0  0  0  0  0  0
   10.1739    6.9580   -0.6855 C   0  0  0  0  0  0  0  0  0  0  0  0
   10.3549    6.1271   -1.7940 C   0  0  2  0  0  0  0  0  0  0  0  0
   10.4564    4.7137   -1.7342 C   0  0  1  0  0  0  0  0  0  0  0  0
   11.8058    5.7290   -1.8238 C   0  0  2  0  0  0  0  0  0  0  0  0
   12.3989    6.4954   -0.7553 C   0  0  0  0  0  0  0  0  0  0  0  0
   11.5958    7.9567    0.7185 H   0  0  0  0  0  0  0  0  0  0  0  0
    9.2143    7.1407   -0.2052 H   0  0  0  0  0  0  0  0  0  0  0  0
   10.5126    4.0694   -2.6109 H   0  0  0  0  0  0  0  0  0  0  0  0
   12.3864    5.4637   -2.7038 H   0  0  0  0  0  0  0  0  0  0  0  0
    8.2703    6.5445   -4.1396 N   0  0  0  0  0  0  0  0  0  0  0  0
    8.7560    6.9399   -5.0503 N   0  0  0  0  0  0  0  0  0  0  0  0
   13.7462    6.5155   -0.6149 O   0  0  0  0  0  0  0  0  0  0  0  0
   14.2764    7.4897    0.2829 C   0  0  0  0  0  0  0  0  0  0  0  0
   15.3651    7.4027    0.2187 H   0  0  0  0  0  0  0  0  0  0  0  0
   13.9503    7.2901    1.3149 H   0  0  0  0  0  0  0  0  0  0  0  0
   13.9621    8.5023   -0.0127 H   0  0  0  0  0  0  0  0  0  0  0  0
   10.0545    4.0264   -0.5844 O   0  0  0  0  0  0  0  0  0  0  0  0
   10.2324    2.6607   -0.5674 C   0  0  0  0  0  0  0  0  0  0  0  0
   10.7092    2.0410   -1.4868 O   0  0  0  0  0  0  0  0  0  0  0  0
    9.7555    2.0887    0.7389 C   0  0  0  0  0  0  0  0  0  0  0  0
   10.3300    2.5280    1.5655 H   0  0  0  0  0  0  0  0  0  0  0  0
    8.7005    2.3485    0.8977 H   0  0  0  0  0  0  0  0  0  0  0  0
    9.8819    1.0028    0.7272 H   0  0  0  0  0  0  0  0  0  0  0  0
  1  7  1  0  0  0  0
  2  8  1  0  0  0  0
  2  1  1  0  0  0  0
  3  4  1  0  0  0  0
  3  2  1  1  0  0  0
  4  9  1  6  0  0  0
  4 18  1  0  0  0  0
  5 10  1  6  0  0  0
  5  3  1  0  0  0  0
  5  4  1  0  0  0  0
  5  6  1  0  0  0  0
  6 13  1  0  0  0  0
  6  1  2  0  0  0  0
 12 11  3  0  0  0  0
 13 14  1  0  0  0  0
 14 16  1  0  0  0  0
 15 14  1  0  0  0  0
 17 14  1  0  0  0  0
 18 19  1  0  0  0  0
 19 21  1  0  0  0  0
 20 19  2  0  0  0  0
 21 23  1  0  0  0  0
 21 22  1  0  0  0  0
 24 21  1  0  0  0  0
M  RAD  2   2   2   3   2
M  END
