Coordinates from ORCA-job p-CH3O-Ph-N2-OOCCH3-B3LYPG-aug-cc-pVDZ-scan-d09-49-n400
 OpenBabel10311713213D

 24 24  0  0  1  0  0  0  0  0999 V2000
   11.3413    7.2695   -0.1830 C   0  0  0  0  0  0  0  0  0  0  0  0
   10.0758    6.9461   -0.7348 C   0  0  0  0  0  0  0  0  0  0  0  0
   10.2345    6.1186   -1.8523 C   0  0  2  0  0  0  0  0  0  0  0  0
   10.3851    4.7052   -1.7754 C   0  0  1  0  0  0  0  0  0  0  0  0
   11.6895    5.7074   -1.8900 C   0  0  2  0  0  0  0  0  0  0  0  0
   12.2982    6.4801   -0.8273 C   0  0  0  0  0  0  0  0  0  0  0  0
   11.5118    7.9353    0.6592 H   0  0  0  0  0  0  0  0  0  0  0  0
    9.1209    7.1446   -0.2511 H   0  0  0  0  0  0  0  0  0  0  0  0
   10.4033    4.0550   -2.6503 H   0  0  0  0  0  0  0  0  0  0  0  0
   12.2644    5.4673   -2.7816 H   0  0  0  0  0  0  0  0  0  0  0  0
    8.9485    6.6220   -3.5561 N   0  0  0  0  0  0  0  0  0  0  0  0
    9.4058    6.9473   -4.5161 N   0  0  0  0  0  0  0  0  0  0  0  0
   13.6459    6.5088   -0.7168 O   0  0  0  0  0  0  0  0  0  0  0  0
   14.1912    7.4857    0.1704 C   0  0  0  0  0  0  0  0  0  0  0  0
   15.2785    7.4042    0.0817 H   0  0  0  0  0  0  0  0  0  0  0  0
   13.8887    7.2827    1.2087 H   0  0  0  0  0  0  0  0  0  0  0  0
   13.8642    8.4961   -0.1181 H   0  0  0  0  0  0  0  0  0  0  0  0
   10.0073    4.0235   -0.6080 O   0  0  0  0  0  0  0  0  0  0  0  0
   10.2345    2.6683   -0.5707 C   0  0  0  0  0  0  0  0  0  0  0  0
   10.7324    2.0517   -1.4819 O   0  0  0  0  0  0  0  0  0  0  0  0
    9.7837    2.0975    0.7458 C   0  0  0  0  0  0  0  0  0  0  0  0
   10.3561    2.5583    1.5622 H   0  0  0  0  0  0  0  0  0  0  0  0
    8.7244    2.3326    0.9136 H   0  0  0  0  0  0  0  0  0  0  0  0
    9.9376    1.0151    0.7435 H   0  0  0  0  0  0  0  0  0  0  0  0
  1  7  1  0  0  0  0
  2  8  1  0  0  0  0
  2  1  1  0  0  0  0
  3  4  1  0  0  0  0
  3  2  1  1  0  0  0
  4  9  1  6  0  0  0
  4 18  1  0  0  0  0
  5 10  1  6  0  0  0
  5  3  1  0  0  0  0
  5  4  1  0  0  0  0
  5  6  1  0  0  0  0
  6 13  1  0  0  0  0
  6  1  2  0  0  0  0
 12 11  3  0  0  0  0
 13 14  1  0  0  0  0
 14 16  1  0  0  0  0
 15 14  1  0  0  0  0
 17 14  1  0  0  0  0
 18 19  1  0  0  0  0
 19 21  1  0  0  0  0
 20 19  2  0  0  0  0
 21 23  1  0  0  0  0
 21 22  1  0  0  0  0
 24 21  1  0  0  0  0
M  RAD  2   2   2   3   2
M  END
