Coordinates from ORCA-job p-CH3O-Ph-N2-OOCCH3-B3LYPG-aug-cc-pVDZ-scan-d09-49-n400
 OpenBabel10311713213D

 24 24  0  0  1  0  0  0  0  0999 V2000
   11.3229    7.2547   -0.1884 C   0  0  0  0  0  0  0  0  0  0  0  0
   10.0590    6.9491   -0.7476 C   0  0  0  0  0  0  0  0  0  0  0  0
   10.2114    6.1262   -1.8760 C   0  0  2  0  0  0  0  0  0  0  0  0
   10.3781    4.7112   -1.7916 C   0  0  1  0  0  0  0  0  0  0  0  0
   11.6690    5.7077   -1.9105 C   0  0  2  0  0  0  0  0  0  0  0  0
   12.2798    6.4729   -0.8419 C   0  0  0  0  0  0  0  0  0  0  0  0
   11.4936    7.9100    0.6620 H   0  0  0  0  0  0  0  0  0  0  0  0
    9.1023    7.1635   -0.2744 H   0  0  0  0  0  0  0  0  0  0  0  0
   10.3861    4.0608   -2.6667 H   0  0  0  0  0  0  0  0  0  0  0  0
   12.2426    5.4763   -2.8051 H   0  0  0  0  0  0  0  0  0  0  0  0
    9.0428    6.6128   -3.4410 N   0  0  0  0  0  0  0  0  0  0  0  0
    9.5009    6.9110   -4.4162 N   0  0  0  0  0  0  0  0  0  0  0  0
   13.6272    6.5035   -0.7368 O   0  0  0  0  0  0  0  0  0  0  0  0
   14.1746    7.4709    0.1600 C   0  0  0  0  0  0  0  0  0  0  0  0
   15.2616    7.3922    0.0656 H   0  0  0  0  0  0  0  0  0  0  0  0
   13.8766    7.2545    1.1968 H   0  0  0  0  0  0  0  0  0  0  0  0
   13.8445    8.4839   -0.1153 H   0  0  0  0  0  0  0  0  0  0  0  0
    9.9990    4.0341   -0.6209 O   0  0  0  0  0  0  0  0  0  0  0  0
   10.2442    2.6831   -0.5725 C   0  0  0  0  0  0  0  0  0  0  0  0
   10.7584    2.0675   -1.4755 O   0  0  0  0  0  0  0  0  0  0  0  0
    9.7947    2.1153    0.7459 C   0  0  0  0  0  0  0  0  0  0  0  0
   10.3662    2.5808    1.5604 H   0  0  0  0  0  0  0  0  0  0  0  0
    8.7348    2.3473    0.9136 H   0  0  0  0  0  0  0  0  0  0  0  0
    9.9532    1.0336    0.7477 H   0  0  0  0  0  0  0  0  0  0  0  0
  1  7  1  0  0  0  0
  2  8  1  0  0  0  0
  2  1  1  0  0  0  0
  3  4  1  0  0  0  0
  3  2  1  1  0  0  0
  4  9  1  6  0  0  0
  4 18  1  0  0  0  0
  5 10  1  6  0  0  0
  5  3  1  0  0  0  0
  5  4  1  0  0  0  0
  5  6  1  0  0  0  0
  6 13  1  0  0  0  0
  6  1  2  0  0  0  0
 12 11  3  0  0  0  0
 13 14  1  0  0  0  0
 14 16  1  0  0  0  0
 15 14  1  0  0  0  0
 17 14  1  0  0  0  0
 18 19  1  0  0  0  0
 19 21  1  0  0  0  0
 20 19  2  0  0  0  0
 21 24  1  0  0  0  0
 21 23  1  0  0  0  0
 21 22  1  0  0  0  0
M  RAD  2   2   2   3   2
M  END
