Coordinates from ORCA-job p-CH3O-Ph-N2-OOCCH3-B3LYPG-aug-cc-pVDZ-scan-d09-49-n400
 OpenBabel10311713213D

 24 24  0  0  1  0  0  0  0  0999 V2000
   11.5608    7.3100   -0.0659 C   0  0  0  0  0  0  0  0  0  0  0  0
   10.3213    7.0097   -0.6873 C   0  0  0  0  0  0  0  0  0  0  0  0
   10.5375    6.1788   -1.7895 C   0  0  2  0  0  0  0  0  0  0  0  0
   10.5972    4.7634   -1.7354 C   0  0  1  0  0  0  0  0  0  0  0  0
   11.9784    5.7519   -1.7557 C   0  0  2  0  0  0  0  0  0  0  0  0
   12.5373    6.4992   -0.6567 C   0  0  0  0  0  0  0  0  0  0  0  0
   11.6977    7.9711    0.7862 H   0  0  0  0  0  0  0  0  0  0  0  0
    9.3445    7.2112   -0.2517 H   0  0  0  0  0  0  0  0  0  0  0  0
   10.6848    4.1225   -2.6117 H   0  0  0  0  0  0  0  0  0  0  0  0
   12.5913    5.4741   -2.6094 H   0  0  0  0  0  0  0  0  0  0  0  0
    7.1492    6.2955   -4.7318 N   0  0  0  0  0  0  0  0  0  0  0  0
    7.8926    6.6795   -5.4517 N   0  0  0  0  0  0  0  0  0  0  0  0
   13.8769    6.4886   -0.4524 O   0  0  0  0  0  0  0  0  0  0  0  0
   14.3847    7.4463    0.4754 C   0  0  0  0  0  0  0  0  0  0  0  0
   15.4731    7.3355    0.4629 H   0  0  0  0  0  0  0  0  0  0  0  0
   14.0053    7.2491    1.4895 H   0  0  0  0  0  0  0  0  0  0  0  0
   14.1074    8.4672    0.1711 H   0  0  0  0  0  0  0  0  0  0  0  0
   10.1231    4.0807   -0.6116 O   0  0  0  0  0  0  0  0  0  0  0  0
   10.2636    2.7100   -0.5950 C   0  0  0  0  0  0  0  0  0  0  0  0
   10.7638    2.0824   -1.4963 O   0  0  0  0  0  0  0  0  0  0  0  0
    9.7105    2.1446    0.6837 C   0  0  0  0  0  0  0  0  0  0  0  0
   10.2617    2.5591    1.5385 H   0  0  0  0  0  0  0  0  0  0  0  0
    8.6584    2.4375    0.7981 H   0  0  0  0  0  0  0  0  0  0  0  0
    9.8026    1.0553    0.6685 H   0  0  0  0  0  0  0  0  0  0  0  0
  1  7  1  0  0  0  0
  2  8  1  0  0  0  0
  2  1  1  0  0  0  0
  3  5  1  0  0  0  0
  3  4  1  0  0  0  0
  3  2  1  1  0  0  0
  4  9  1  6  0  0  0
  4 18  1  0  0  0  0
  5 10  1  6  0  0  0
  5  4  1  0  0  0  0
  5  6  1  0  0  0  0
  6 13  1  0  0  0  0
  6  1  2  0  0  0  0
 12 11  3  0  0  0  0
 13 14  1  0  0  0  0
 14 16  1  0  0  0  0
 15 14  1  0  0  0  0
 17 14  1  0  0  0  0
 18 19  1  0  0  0  0
 19 21  1  0  0  0  0
 20 19  2  0  0  0  0
 21 23  1  0  0  0  0
 21 22  1  0  0  0  0
 24 21  1  0  0  0  0
M  RAD  2   2   2   3   2
M  END
