Coordinates from ORCA-job p-CH3O-Ph-N2-OOCCH3-B3LYPG-aug-cc-pVDZ-scan-d09-49-n400
 OpenBabel10311713213D

 24 24  0  0  1  0  0  0  0  0999 V2000
   11.3647    7.2763   -0.1729 C   0  0  0  0  0  0  0  0  0  0  0  0
   10.1005    6.9403   -0.7220 C   0  0  0  0  0  0  0  0  0  0  0  0
   10.2682    6.1092   -1.8327 C   0  0  2  0  0  0  0  0  0  0  0  0
   10.4013    4.6971   -1.7595 C   0  0  1  0  0  0  0  0  0  0  0  0
   11.7225    5.7095   -1.8713 C   0  0  2  0  0  0  0  0  0  0  0  0
   12.3255    6.4860   -0.8117 C   0  0  0  0  0  0  0  0  0  0  0  0
   11.5321    7.9478    0.6655 H   0  0  0  0  0  0  0  0  0  0  0  0
    9.1454    7.1268   -0.2342 H   0  0  0  0  0  0  0  0  0  0  0  0
   10.4360    4.0462   -2.6330 H   0  0  0  0  0  0  0  0  0  0  0  0
   12.2984    5.4559   -2.7583 H   0  0  0  0  0  0  0  0  0  0  0  0
    8.7948    6.6298   -3.7117 N   0  0  0  0  0  0  0  0  0  0  0  0
    9.2520    6.9989   -4.6515 N   0  0  0  0  0  0  0  0  0  0  0  0
   13.6736    6.5164   -0.6932 O   0  0  0  0  0  0  0  0  0  0  0  0
   14.2121    7.4984    0.1918 C   0  0  0  0  0  0  0  0  0  0  0  0
   15.3001    7.4182    0.1100 H   0  0  0  0  0  0  0  0  0  0  0  0
   13.9041    7.3008    1.2296 H   0  0  0  0  0  0  0  0  0  0  0  0
   13.8857    8.5072   -0.1035 H   0  0  0  0  0  0  0  0  0  0  0  0
   10.0210    4.0143   -0.5961 O   0  0  0  0  0  0  0  0  0  0  0  0
   10.2270    2.6544   -0.5665 C   0  0  0  0  0  0  0  0  0  0  0  0
   10.7094    2.0344   -1.4833 O   0  0  0  0  0  0  0  0  0  0  0  0
    9.7717    2.0851    0.7489 C   0  0  0  0  0  0  0  0  0  0  0  0
   10.3464    2.5408    1.5666 H   0  0  0  0  0  0  0  0  0  0  0  0
    8.7139    2.3279    0.9158 H   0  0  0  0  0  0  0  0  0  0  0  0
    9.9170    1.0016    0.7450 H   0  0  0  0  0  0  0  0  0  0  0  0
  1  7  1  0  0  0  0
  2  8  1  0  0  0  0
  2  1  1  0  0  0  0
  3  4  1  0  0  0  0
  3  2  1  1  0  0  0
  4  9  1  6  0  0  0
  4 18  1  0  0  0  0
  5 10  1  6  0  0  0
  5  3  1  0  0  0  0
  5  4  1  0  0  0  0
  5  6  1  0  0  0  0
  6 13  1  0  0  0  0
  6  1  2  0  0  0  0
 12 11  3  0  0  0  0
 13 14  1  0  0  0  0
 14 16  1  0  0  0  0
 15 14  1  0  0  0  0
 17 14  1  0  0  0  0
 18 19  1  0  0  0  0
 19 21  1  0  0  0  0
 20 19  2  0  0  0  0
 21 23  1  0  0  0  0
 21 22  1  0  0  0  0
 24 21  1  0  0  0  0
M  RAD  2   2   2   3   2
M  END
