Coordinates from ORCA-job p-CH3O-Ph-N2-OOCCH3-B3LYPG-aug-cc-pVDZ-scan-d09-49-n400
 OpenBabel10311713213D

 24 24  0  0  1  0  0  0  0  0999 V2000
   11.4699    7.2922   -0.1119 C   0  0  0  0  0  0  0  0  0  0  0  0
   10.2170    6.9680   -0.6934 C   0  0  0  0  0  0  0  0  0  0  0  0
   10.4122    6.1341   -1.7958 C   0  0  2  0  0  0  0  0  0  0  0  0
   10.5010    4.7208   -1.7348 C   0  0  1  0  0  0  0  0  0  0  0  0
   11.8605    5.7296   -1.8035 C   0  0  2  0  0  0  0  0  0  0  0  0
   12.4408    6.4932   -0.7268 C   0  0  0  0  0  0  0  0  0  0  0  0
   11.6219    7.9610    0.7317 H   0  0  0  0  0  0  0  0  0  0  0  0
    9.2502    7.1561   -0.2303 H   0  0  0  0  0  0  0  0  0  0  0  0
   10.5689    4.0756   -2.6098 H   0  0  0  0  0  0  0  0  0  0  0  0
   12.4525    5.4583   -2.6738 H   0  0  0  0  0  0  0  0  0  0  0  0
    7.9453    6.4851   -4.3196 N   0  0  0  0  0  0  0  0  0  0  0  0
    8.4691    6.9205   -5.1888 N   0  0  0  0  0  0  0  0  0  0  0  0
   13.7858    6.5057   -0.5641 O   0  0  0  0  0  0  0  0  0  0  0  0
   14.3065    7.4778    0.3414 C   0  0  0  0  0  0  0  0  0  0  0  0
   15.3957    7.3844    0.2956 H   0  0  0  0  0  0  0  0  0  0  0  0
   13.9621    7.2814    1.3680 H   0  0  0  0  0  0  0  0  0  0  0  0
   14.0032    8.4919    0.0395 H   0  0  0  0  0  0  0  0  0  0  0  0
   10.0760    4.0377   -0.5912 O   0  0  0  0  0  0  0  0  0  0  0  0
   10.2442    2.6706   -0.5699 C   0  0  0  0  0  0  0  0  0  0  0  0
   10.7323    2.0468   -1.4806 O   0  0  0  0  0  0  0  0  0  0  0  0
    9.7447    2.1038    0.7301 C   0  0  0  0  0  0  0  0  0  0  0  0
   10.3101    2.5407    1.5643 H   0  0  0  0  0  0  0  0  0  0  0  0
    8.6893    2.3707    0.8733 H   0  0  0  0  0  0  0  0  0  0  0  0
    9.8644    1.0171    0.7219 H   0  0  0  0  0  0  0  0  0  0  0  0
  1  7  1  0  0  0  0
  2  8  1  0  0  0  0
  2  1  1  0  0  0  0
  3  4  1  0  0  0  0
  3  2  1  1  0  0  0
  4  9  1  6  0  0  0
  4 18  1  0  0  0  0
  5 10  1  6  0  0  0
  5  3  1  0  0  0  0
  5  4  1  0  0  0  0
  5  6  1  0  0  0  0
  6 13  1  0  0  0  0
  6  1  2  0  0  0  0
 12 11  3  0  0  0  0
 13 14  1  0  0  0  0
 14 16  1  0  0  0  0
 15 14  1  0  0  0  0
 17 14  1  0  0  0  0
 18 19  1  0  0  0  0
 19 21  1  0  0  0  0
 20 19  2  0  0  0  0
 21 23  1  0  0  0  0
 21 22  1  0  0  0  0
 24 21  1  0  0  0  0
M  RAD  2   2   2   3   2
M  END
