Coordinates from ORCA-job p-CH3O-Ph-N2-OOCCH3-B3LYPG-aug-cc-pVDZ-scan-d09-49-n400
 OpenBabel10311713213D

 24 24  0  0  1  0  0  0  0  0999 V2000
   11.3257    7.2581   -0.1878 C   0  0  0  0  0  0  0  0  0  0  0  0
   10.0612    6.9492   -0.7457 C   0  0  0  0  0  0  0  0  0  0  0  0
   10.2144    6.1254   -1.8718 C   0  0  2  0  0  0  0  0  0  0  0  0
   10.3792    4.7106   -1.7888 C   0  0  1  0  0  0  0  0  0  0  0  0
   11.6715    5.7077   -1.9071 C   0  0  2  0  0  0  0  0  0  0  0  0
   12.2823    6.4748   -0.8397 C   0  0  0  0  0  0  0  0  0  0  0  0
   11.4967    7.9156    0.6608 H   0  0  0  0  0  0  0  0  0  0  0  0
    9.1050    7.1606   -0.2701 H   0  0  0  0  0  0  0  0  0  0  0  0
   10.3879    4.0603   -2.6640 H   0  0  0  0  0  0  0  0  0  0  0  0
   12.2453    5.4760   -2.8015 H   0  0  0  0  0  0  0  0  0  0  0  0
    9.0324    6.6119   -3.4525 N   0  0  0  0  0  0  0  0  0  0  0  0
    9.4909    6.9114   -4.4262 N   0  0  0  0  0  0  0  0  0  0  0  0
   13.6297    6.5050   -0.7344 O   0  0  0  0  0  0  0  0  0  0  0  0
   14.1772    7.4743    0.1602 C   0  0  0  0  0  0  0  0  0  0  0  0
   15.2642    7.3949    0.0666 H   0  0  0  0  0  0  0  0  0  0  0  0
   13.8786    7.2608    1.1974 H   0  0  0  0  0  0  0  0  0  0  0  0
   13.8478    8.4869   -0.1178 H   0  0  0  0  0  0  0  0  0  0  0  0
   10.0012    4.0325   -0.6183 O   0  0  0  0  0  0  0  0  0  0  0  0
   10.2446    2.6811   -0.5718 C   0  0  0  0  0  0  0  0  0  0  0  0
   10.7536    2.0652   -1.4774 O   0  0  0  0  0  0  0  0  0  0  0  0
    9.7917    2.1116    0.7448 C   0  0  0  0  0  0  0  0  0  0  0  0
   10.3627    2.5744    1.5611 H   0  0  0  0  0  0  0  0  0  0  0  0
    8.7320    2.3454    0.9110 H   0  0  0  0  0  0  0  0  0  0  0  0
    9.9479    1.0296    0.7446 H   0  0  0  0  0  0  0  0  0  0  0  0
  1  7  1  0  0  0  0
  2  8  1  0  0  0  0
  2  1  1  0  0  0  0
  3  4  1  0  0  0  0
  3  2  1  1  0  0  0
  4  9  1  6  0  0  0
  4 18  1  0  0  0  0
  5 10  1  6  0  0  0
  5  3  1  0  0  0  0
  5  4  1  0  0  0  0
  5  6  1  0  0  0  0
  6 13  1  0  0  0  0
  6  1  2  0  0  0  0
 12 11  3  0  0  0  0
 13 14  1  0  0  0  0
 14 16  1  0  0  0  0
 15 14  1  0  0  0  0
 17 14  1  0  0  0  0
 18 19  1  0  0  0  0
 19 21  1  0  0  0  0
 20 19  2  0  0  0  0
 21 23  1  0  0  0  0
 21 22  1  0  0  0  0
 24 21  1  0  0  0  0
M  RAD  2   2   2   3   2
M  END
