Coordinates from ORCA-job p-CH3O-Ph-N2-OOCCH3-B3LYPG-aug-cc-pVDZ-scan-d09-49-n400
 OpenBabel10311713213D

 24 24  0  0  1  0  0  0  0  0999 V2000
   11.5881    7.3147   -0.0523 C   0  0  0  0  0  0  0  0  0  0  0  0
   10.3536    7.0245   -0.6876 C   0  0  0  0  0  0  0  0  0  0  0  0
   10.5758    6.1963   -1.7912 C   0  0  2  0  0  0  0  0  0  0  0  0
   10.6261    4.7802   -1.7389 C   0  0  1  0  0  0  0  0  0  0  0  0
   12.0138    5.7600   -1.7429 C   0  0  2  0  0  0  0  0  0  0  0  0
   12.5658    6.5001   -0.6359 C   0  0  0  0  0  0  0  0  0  0  0  0
   11.7201    7.9719    0.8036 H   0  0  0  0  0  0  0  0  0  0  0  0
    9.3737    7.2312   -0.2616 H   0  0  0  0  0  0  0  0  0  0  0  0
   10.7195    4.1405   -2.6154 H   0  0  0  0  0  0  0  0  0  0  0  0
   12.6339    5.4800   -2.5906 H   0  0  0  0  0  0  0  0  0  0  0  0
    6.9153    6.2196   -4.8489 N   0  0  0  0  0  0  0  0  0  0  0  0
    7.7132    6.5949   -5.5128 N   0  0  0  0  0  0  0  0  0  0  0  0
   13.9032    6.4808   -0.4179 O   0  0  0  0  0  0  0  0  0  0  0  0
   14.4071    7.4321    0.5185 C   0  0  0  0  0  0  0  0  0  0  0  0
   15.4950    7.3148    0.5168 H   0  0  0  0  0  0  0  0  0  0  0  0
   14.0162    7.2337    1.5280 H   0  0  0  0  0  0  0  0  0  0  0  0
   14.1392    8.4557    0.2151 H   0  0  0  0  0  0  0  0  0  0  0  0
   10.1358    4.0983   -0.6217 O   0  0  0  0  0  0  0  0  0  0  0  0
   10.2680    2.7267   -0.6063 C   0  0  0  0  0  0  0  0  0  0  0  0
   10.7757    2.0981   -1.5027 O   0  0  0  0  0  0  0  0  0  0  0  0
    9.7007    2.1625    0.6666 C   0  0  0  0  0  0  0  0  0  0  0  0
   10.2473    2.5722    1.5268 H   0  0  0  0  0  0  0  0  0  0  0  0
    8.6496    2.4616    0.7728 H   0  0  0  0  0  0  0  0  0  0  0  0
    9.7865    1.0727    0.6503 H   0  0  0  0  0  0  0  0  0  0  0  0
  1  7  1  0  0  0  0
  2  8  1  0  0  0  0
  2  1  1  0  0  0  0
  3  5  1  0  0  0  0
  3  4  1  0  0  0  0
  3  2  1  1  0  0  0
  4  9  1  6  0  0  0
  4 18  1  0  0  0  0
  5 10  1  6  0  0  0
  5  4  1  0  0  0  0
  5  6  1  0  0  0  0
  6 13  1  0  0  0  0
  6  1  2  0  0  0  0
 12 11  3  0  0  0  0
 13 14  1  0  0  0  0
 14 16  1  0  0  0  0
 15 14  1  0  0  0  0
 17 14  1  0  0  0  0
 18 19  1  0  0  0  0
 19 21  1  0  0  0  0
 20 19  2  0  0  0  0
 21 23  1  0  0  0  0
 21 22  1  0  0  0  0
 24 21  1  0  0  0  0
M  RAD  2   2   2   3   2
M  END
