Coordinates from ORCA-job p-CH3O-Ph-N2-OOCCH3-B3LYPG-aug-cc-pVDZ-scan-d09-49-n400
 OpenBabel10311713213D

 24 23  0  0  1  0  0  0  0  0999 V2000
   11.4905    7.3313   -0.4458 C   0  0  0  0  0  0  0  0  0  0  0  0
   10.2736    7.2180   -1.0637 C   0  0  0  0  0  0  0  0  0  0  0  0
   10.2157    6.2568   -2.1087 C   0  0  0  0  0  0  0  0  0  0  0  0
   10.7530    4.9163   -1.9382 C   0  0  1  0  0  0  0  0  0  0  0  0
   12.1841    5.2668   -1.5975 C   0  0  0  0  0  0  0  0  0  0  0  0
   12.4927    6.3410   -0.8074 C   0  0  0  0  0  0  0  0  0  0  0  0
   11.6987    8.1545    0.2300 H   0  0  0  0  0  0  0  0  0  0  0  0
    9.4647    7.9229   -0.8855 H   0  0  0  0  0  0  0  0  0  0  0  0
   10.6949    4.2736   -2.8176 H   0  0  0  0  0  0  0  0  0  0  0  0
   12.9485    4.5390   -1.8592 H   0  0  0  0  0  0  0  0  0  0  0  0
    8.3540    6.0434   -2.5386 N   0  0  0  0  0  0  0  0  0  0  0  0
    7.4586    6.0205   -3.1930 N   0  0  0  0  0  0  0  0  0  0  0  0
   13.7888    6.4436   -0.3951 O   0  0  0  0  0  0  0  0  0  0  0  0
   14.2014    7.5968    0.3361 C   0  0  0  0  0  0  0  0  0  0  0  0
   15.2782    7.4758    0.4887 H   0  0  0  0  0  0  0  0  0  0  0  0
   13.7025    7.6529    1.3149 H   0  0  0  0  0  0  0  0  0  0  0  0
   14.0147    8.5199   -0.2322 H   0  0  0  0  0  0  0  0  0  0  0  0
   10.0811    4.1455   -0.8233 O   0  0  0  0  0  0  0  0  0  0  0  0
   10.2969    2.8135   -0.8093 C   0  0  0  0  0  0  0  0  0  0  0  0
   10.9759    2.2262   -1.6293 O   0  0  0  0  0  0  0  0  0  0  0  0
    9.6115    2.1550    0.3648 C   0  0  0  0  0  0  0  0  0  0  0  0
   10.0839    2.4940    1.2973 H   0  0  0  0  0  0  0  0  0  0  0  0
    8.5543    2.4470    0.4060 H   0  0  0  0  0  0  0  0  0  0  0  0
    9.7055    1.0686    0.2784 H   0  0  0  0  0  0  0  0  0  0  0  0
  1  7  1  0  0  0  0
  2  8  1  0  0  0  0
  2  1  2  0  0  0  0
  3  4  1  0  0  0  0
  3  2  1  0  0  0  0
  4  9  1  6  0  0  0
  4  5  1  0  0  0  0
  4 18  1  0  0  0  0
  5  6  2  0  0  0  0
  6  1  1  0  0  0  0
  6 13  1  0  0  0  0
 10  5  1  0  0  0  0
 12 11  3  0  0  0  0
 13 14  1  0  0  0  0
 14 15  1  0  0  0  0
 14 16  1  0  0  0  0
 17 14  1  0  0  0  0
 18 19  1  0  0  0  0
 19 21  1  0  0  0  0
 20 19  2  0  0  0  0
 21 23  1  0  0  0  0
 21 22  1  0  0  0  0
 24 21  1  0  0  0  0
M  RAD  1   3   3
M  END
