Coordinates from ORCA-job p-CH3O-Ph-N2-OOCCH3-B3LYPG-aug-cc-pVDZ-scan-d09-49-n400
 OpenBabel10311713213D

 24 24  0  0  1  0  0  0  0  0999 V2000
   11.3266    7.2590   -0.1876 C   0  0  0  0  0  0  0  0  0  0  0  0
   10.0620    6.9491   -0.7449 C   0  0  0  0  0  0  0  0  0  0  0  0
   10.2154    6.1251   -1.8705 C   0  0  2  0  0  0  0  0  0  0  0  0
   10.3795    4.7104   -1.7880 C   0  0  1  0  0  0  0  0  0  0  0  0
   11.6723    5.7076   -1.9060 C   0  0  2  0  0  0  0  0  0  0  0  0
   12.2831    6.4750   -0.8388 C   0  0  0  0  0  0  0  0  0  0  0  0
   11.4976    7.9172    0.6605 H   0  0  0  0  0  0  0  0  0  0  0  0
    9.1059    7.1598   -0.2688 H   0  0  0  0  0  0  0  0  0  0  0  0
   10.3885    4.0602   -2.6632 H   0  0  0  0  0  0  0  0  0  0  0  0
   12.2462    5.4756   -2.8002 H   0  0  0  0  0  0  0  0  0  0  0  0
    9.0273    6.6130   -3.4592 N   0  0  0  0  0  0  0  0  0  0  0  0
    9.4859    6.9132   -4.4321 N   0  0  0  0  0  0  0  0  0  0  0  0
   13.6305    6.5049   -0.7331 O   0  0  0  0  0  0  0  0  0  0  0  0
   14.1780    7.4747    0.1609 C   0  0  0  0  0  0  0  0  0  0  0  0
   15.2650    7.3949    0.0676 H   0  0  0  0  0  0  0  0  0  0  0  0
   13.8791    7.2619    1.1982 H   0  0  0  0  0  0  0  0  0  0  0  0
   13.8489    8.4871   -0.1179 H   0  0  0  0  0  0  0  0  0  0  0  0
   10.0015    4.0320   -0.6177 O   0  0  0  0  0  0  0  0  0  0  0  0
   10.2442    2.6804   -0.5717 C   0  0  0  0  0  0  0  0  0  0  0  0
   10.7528    2.0645   -1.4776 O   0  0  0  0  0  0  0  0  0  0  0  0
    9.7915    2.1108    0.7449 C   0  0  0  0  0  0  0  0  0  0  0  0
   10.3623    2.5736    1.5613 H   0  0  0  0  0  0  0  0  0  0  0  0
    8.7317    2.3443    0.9110 H   0  0  0  0  0  0  0  0  0  0  0  0
    9.9478    1.0288    0.7446 H   0  0  0  0  0  0  0  0  0  0  0  0
  1  7  1  0  0  0  0
  2  8  1  0  0  0  0
  2  1  1  0  0  0  0
  3  4  1  0  0  0  0
  3  2  1  1  0  0  0
  4  9  1  6  0  0  0
  4 18  1  0  0  0  0
  5 10  1  6  0  0  0
  5  3  1  0  0  0  0
  5  4  1  0  0  0  0
  5  6  1  0  0  0  0
  6 13  1  0  0  0  0
  6  1  2  0  0  0  0
 12 11  3  0  0  0  0
 13 14  1  0  0  0  0
 14 16  1  0  0  0  0
 15 14  1  0  0  0  0
 17 14  1  0  0  0  0
 18 19  1  0  0  0  0
 19 21  1  0  0  0  0
 20 19  2  0  0  0  0
 21 23  1  0  0  0  0
 21 22  1  0  0  0  0
 24 21  1  0  0  0  0
M  RAD  2   2   2   3   2
M  END
