Coordinates from ORCA-job p-CH3O-Ph-N2-OOCCH3-B3LYPG-aug-cc-pVDZ-scan-d09-49-n400
 OpenBabel10311713213D

 24 24  0  0  1  0  0  0  0  0999 V2000
   11.4433    7.2887   -0.1204 C   0  0  0  0  0  0  0  0  0  0  0  0
   10.1854    6.9597   -0.6877 C   0  0  0  0  0  0  0  0  0  0  0  0
   10.3703    6.1286   -1.7953 C   0  0  2  0  0  0  0  0  0  0  0  0
   10.4691    4.7151   -1.7341 C   0  0  1  0  0  0  0  0  0  0  0  0
   11.8208    5.7290   -1.8187 C   0  0  2  0  0  0  0  0  0  0  0  0
   12.4102    6.4946   -0.7479 C   0  0  0  0  0  0  0  0  0  0  0  0
   11.6023    7.9569    0.7222 H   0  0  0  0  0  0  0  0  0  0  0  0
    9.2239    7.1436   -0.2119 H   0  0  0  0  0  0  0  0  0  0  0  0
   10.5289    4.0699   -2.6098 H   0  0  0  0  0  0  0  0  0  0  0  0
   12.4047    5.4622   -2.6960 H   0  0  0  0  0  0  0  0  0  0  0  0
    8.1848    6.5286   -4.1889 N   0  0  0  0  0  0  0  0  0  0  0  0
    8.6761    6.9396   -5.0887 N   0  0  0  0  0  0  0  0  0  0  0  0
   13.7569    6.5133   -0.6017 O   0  0  0  0  0  0  0  0  0  0  0  0
   14.2844    7.4870    0.2983 C   0  0  0  0  0  0  0  0  0  0  0  0
   15.3733    7.3988    0.2388 H   0  0  0  0  0  0  0  0  0  0  0  0
   13.9537    7.2878    1.3289 H   0  0  0  0  0  0  0  0  0  0  0  0
   13.9726    8.4999    0.0013 H   0  0  0  0  0  0  0  0  0  0  0  0
   10.0614    4.0292   -0.5856 O   0  0  0  0  0  0  0  0  0  0  0  0
   10.2368    2.6632   -0.5670 C   0  0  0  0  0  0  0  0  0  0  0  0
   10.7156    2.0419   -1.4844 O   0  0  0  0  0  0  0  0  0  0  0  0
    9.7521    2.0927    0.7370 C   0  0  0  0  0  0  0  0  0  0  0  0
   10.3240    2.5305    1.5663 H   0  0  0  0  0  0  0  0  0  0  0  0
    8.6971    2.3555    0.8909 H   0  0  0  0  0  0  0  0  0  0  0  0
    9.8756    1.0065    0.7261 H   0  0  0  0  0  0  0  0  0  0  0  0
  1  7  1  0  0  0  0
  2  8  1  0  0  0  0
  2  1  1  0  0  0  0
  3  4  1  0  0  0  0
  3  2  1  1  0  0  0
  4  9  1  6  0  0  0
  4 18  1  0  0  0  0
  5 10  1  6  0  0  0
  5  3  1  0  0  0  0
  5  4  1  0  0  0  0
  5  6  1  0  0  0  0
  6 13  1  0  0  0  0
  6  1  2  0  0  0  0
 12 11  3  0  0  0  0
 13 14  1  0  0  0  0
 14 16  1  0  0  0  0
 15 14  1  0  0  0  0
 17 14  1  0  0  0  0
 18 19  1  0  0  0  0
 19 21  1  0  0  0  0
 20 19  2  0  0  0  0
 21 23  1  0  0  0  0
 21 22  1  0  0  0  0
 24 21  1  0  0  0  0
M  RAD  2   2   2   3   2
M  END
