Coordinates from ORCA-job p-CH3O-Ph-N2-OOCCH3-B3LYPG-aug-cc-pVDZ-scan-d09-49-n400
 OpenBabel10311713213D

 24 24  0  0  1  0  0  0  0  0999 V2000
   11.5298    7.3036   -0.0805 C   0  0  0  0  0  0  0  0  0  0  0  0
   10.2855    6.9951   -0.6878 C   0  0  0  0  0  0  0  0  0  0  0  0
   10.4941    6.1638   -1.7913 C   0  0  2  0  0  0  0  0  0  0  0  0
   10.5645    4.7486   -1.7339 C   0  0  1  0  0  0  0  0  0  0  0  0
   11.9380    5.7444   -1.7715 C   0  0  2  0  0  0  0  0  0  0  0  0
   12.5044    6.4973   -0.6802 C   0  0  0  0  0  0  0  0  0  0  0  0
   11.6722    7.9674    0.7685 H   0  0  0  0  0  0  0  0  0  0  0  0
    9.3122    7.1921   -0.2422 H   0  0  0  0  0  0  0  0  0  0  0  0
   10.6457    4.1061   -2.6096 H   0  0  0  0  0  0  0  0  0  0  0  0
   12.5437    5.4693   -2.6312 H   0  0  0  0  0  0  0  0  0  0  0  0
    7.4223    6.3661   -4.5866 N   0  0  0  0  0  0  0  0  0  0  0  0
    8.0861    6.7596   -5.3763 N   0  0  0  0  0  0  0  0  0  0  0  0
   13.8461    6.4951   -0.4909 O   0  0  0  0  0  0  0  0  0  0  0  0
   14.3589    7.4579    0.4290 C   0  0  0  0  0  0  0  0  0  0  0  0
   15.4477    7.3534    0.4043 H   0  0  0  0  0  0  0  0  0  0  0  0
   13.9922    7.2609    1.4477 H   0  0  0  0  0  0  0  0  0  0  0  0
   14.0722    8.4764    0.1256 H   0  0  0  0  0  0  0  0  0  0  0  0
   10.1076    4.0655   -0.6031 O   0  0  0  0  0  0  0  0  0  0  0  0
   10.2583    2.6962   -0.5852 C   0  0  0  0  0  0  0  0  0  0  0  0
   10.7540    2.0703   -1.4903 O   0  0  0  0  0  0  0  0  0  0  0  0
    9.7213    2.1292    0.6996 C   0  0  0  0  0  0  0  0  0  0  0  0
   10.2766    2.5502    1.5487 H   0  0  0  0  0  0  0  0  0  0  0  0
    8.6679    2.4137    0.8227 H   0  0  0  0  0  0  0  0  0  0  0  0
    9.8221    1.0407    0.6860 H   0  0  0  0  0  0  0  0  0  0  0  0
  1  7  1  0  0  0  0
  2  8  1  0  0  0  0
  2  1  1  0  0  0  0
  3  5  1  0  0  0  0
  3  4  1  0  0  0  0
  3  2  1  1  0  0  0
  4  9  1  6  0  0  0
  4 18  1  0  0  0  0
  5 10  1  6  0  0  0
  5  4  1  0  0  0  0
  5  6  1  0  0  0  0
  6 13  1  0  0  0  0
  6  1  2  0  0  0  0
 12 11  3  0  0  0  0
 13 14  1  0  0  0  0
 14 16  1  0  0  0  0
 15 14  1  0  0  0  0
 17 14  1  0  0  0  0
 18 19  1  0  0  0  0
 19 21  1  0  0  0  0
 20 19  2  0  0  0  0
 21 23  1  0  0  0  0
 21 22  1  0  0  0  0
 24 21  1  0  0  0  0
M  RAD  2   2   2   3   2
M  END
