Coordinates from ORCA-job p-CH3O-Ph-N2-OOCCH3-B3LYPG-aug-cc-pVDZ-scan-d09-49-n400
 OpenBabel10311713213D

 24 24  0  0  1  0  0  0  0  0999 V2000
   11.5311    7.4740   -0.5160 C   0  0  0  0  0  0  0  0  0  0  0  0
   10.2910    7.3783   -1.0802 C   0  0  0  0  0  0  0  0  0  0  0  0
    9.9454    6.1796   -1.7591 C   0  0  1  0  0  0  0  0  0  0  0  0
   10.7240    4.9168   -1.7161 C   0  0  1  0  0  0  0  0  0  0  0  0
   12.1217    5.2117   -1.2978 C   0  0  0  0  0  0  0  0  0  0  0  0
   12.4675    6.3749   -0.6789 C   0  0  0  0  0  0  0  0  0  0  0  0
   11.8089    8.3761    0.0196 H   0  0  0  0  0  0  0  0  0  0  0  0
    9.5766    8.1979   -1.0246 H   0  0  0  0  0  0  0  0  0  0  0  0
   10.6874    4.3464   -2.6486 H   0  0  0  0  0  0  0  0  0  0  0  0
   12.8666    4.4326   -1.4422 H   0  0  0  0  0  0  0  0  0  0  0  0
    8.6666    6.1303   -2.4437 N   0  0  0  0  0  0  0  0  0  0  0  0
    7.6751    6.0626   -2.9854 N   0  0  0  0  0  0  0  0  0  0  0  0
   13.7584    6.4701   -0.2294 O   0  0  0  0  0  0  0  0  0  0  0  0
   14.2610    7.7354    0.1908 C   0  0  0  0  0  0  0  0  0  0  0  0
   15.3257    7.5763    0.3889 H   0  0  0  0  0  0  0  0  0  0  0  0
   13.7729    8.0797    1.1153 H   0  0  0  0  0  0  0  0  0  0  0  0
   14.1472    8.4967   -0.5955 H   0  0  0  0  0  0  0  0  0  0  0  0
   10.0419    4.0094   -0.7012 O   0  0  0  0  0  0  0  0  0  0  0  0
   10.2377    2.6838   -0.8607 C   0  0  0  0  0  0  0  0  0  0  0  0
   10.9034    2.1969   -1.7546 O   0  0  0  0  0  0  0  0  0  0  0  0
    9.5167    1.8885    0.2021 C   0  0  0  0  0  0  0  0  0  0  0  0
    9.7951    2.2518    1.1997 H   0  0  0  0  0  0  0  0  0  0  0  0
    8.4319    2.0239    0.0922 H   0  0  0  0  0  0  0  0  0  0  0  0
    9.7696    0.8294    0.0970 H   0  0  0  0  0  0  0  0  0  0  0  0
  1  7  1  0  0  0  0
  2  8  1  0  0  0  0
  2  1  2  0  0  0  0
  3 11  1  1  0  0  0
  3  4  1  0  0  0  0
  3  2  1  0  0  0  0
  4  9  1  6  0  0  0
  4  5  1  0  0  0  0
  4 18  1  0  0  0  0
  5  6  2  0  0  0  0
  6  1  1  0  0  0  0
  6 13  1  0  0  0  0
 10  5  1  0  0  0  0
 12 11  1  0  0  0  0
 13 14  1  0  0  0  0
 14 15  1  0  0  0  0
 14 16  1  0  0  0  0
 17 14  1  0  0  0  0
 19 18  1  0  0  0  0
 19 21  1  0  0  0  0
 20 19  2  0  0  0  0
 21 22  1  0  0  0  0
 23 21  1  0  0  0  0
 24 21  1  0  0  0  0
M  RAD  3   3   2  11   2  12   3
M  END
