Coordinates from ORCA-job p-CH3O-Ph-N2-OOCCH3-B3LYPG-aug-cc-pVDZ-scan-d09-49-n400
 OpenBabel10311713213D

 24 24  0  0  1  0  0  0  0  0999 V2000
   11.4945    7.4241   -0.4643 C   0  0  0  0  0  0  0  0  0  0  0  0
   10.2581    7.3377   -1.0041 C   0  0  0  0  0  0  0  0  0  0  0  0
    9.8463    6.1597   -1.7730 C   0  0  0  0  0  0  0  0  0  0  0  0
   10.7231    4.9050   -1.6967 C   0  0  1  0  0  0  0  0  0  0  0  0
   12.1234    5.1995   -1.2905 C   0  0  0  0  0  0  0  0  0  0  0  0
   12.4652    6.3527   -0.6678 C   0  0  0  0  0  0  0  0  0  0  0  0
   11.7621    8.3080    0.1083 H   0  0  0  0  0  0  0  0  0  0  0  0
    9.5296    8.1408   -0.8915 H   0  0  0  0  0  0  0  0  0  0  0  0
   10.6889    4.3596   -2.6458 H   0  0  0  0  0  0  0  0  0  0  0  0
   12.8686    4.4244   -1.4561 H   0  0  0  0  0  0  0  0  0  0  0  0
    8.9113    6.1291   -2.3526 N   0  0  0  0  0  0  0  0  0  0  0  0
    7.9313    6.0817   -2.9665 N   0  0  0  0  0  0  0  0  0  0  0  0
   13.7549    6.4772   -0.2291 O   0  0  0  0  0  0  0  0  0  0  0  0
   14.2561    7.7682    0.1152 C   0  0  0  0  0  0  0  0  0  0  0  0
   15.3308    7.6322    0.2716 H   0  0  0  0  0  0  0  0  0  0  0  0
   13.8049    8.1441    1.0457 H   0  0  0  0  0  0  0  0  0  0  0  0
   14.0954    8.4924   -0.6969 H   0  0  0  0  0  0  0  0  0  0  0  0
   10.0515    4.0239   -0.7011 O   0  0  0  0  0  0  0  0  0  0  0  0
   10.2377    2.6896   -0.8562 C   0  0  0  0  0  0  0  0  0  0  0  0
   10.9173    2.2034   -1.7361 O   0  0  0  0  0  0  0  0  0  0  0  0
    9.4690    1.9076    0.1793 C   0  0  0  0  0  0  0  0  0  0  0  0
    9.6000    2.3505    1.1739 H   0  0  0  0  0  0  0  0  0  0  0  0
    8.3978    1.9448   -0.0644 H   0  0  0  0  0  0  0  0  0  0  0  0
    9.8059    0.8669    0.1704 H   0  0  0  0  0  0  0  0  0  0  0  0
  1  7  1  0  0  0  0
  2  8  1  0  0  0  0
  2  1  1  0  0  0  0
  3  4  1  0  0  0  0
  3  2  2  0  0  0  0
  4  9  1  6  0  0  0
  4  5  1  0  0  0  0
  4 18  1  0  0  0  0
  5  6  1  0  0  0  0
  6  1  2  0  0  0  0
  6 13  1  0  0  0  0
 10  5  1  0  0  0  0
 11  3  1  0  0  0  0
 12 11  1  0  0  0  0
 13 14  1  0  0  0  0
 14 15  1  0  0  0  0
 14 16  1  0  0  0  0
 17 14  1  0  0  0  0
 19 18  1  0  0  0  0
 19 21  1  0  0  0  0
 20 19  2  0  0  0  0
 21 22  1  0  0  0  0
 23 21  1  0  0  0  0
 24 21  1  0  0  0  0
M  RAD  3   5   2  11   2  12   3
M  END
