Coordinates from ORCA-job p-CH3O-Ph-N2-OOCCH3-B3LYPG-aug-cc-pVDZ-scan-d09-49-n400
 OpenBabel10311713213D

 24 24  0  0  1  0  0  0  0  0999 V2000
   11.5681    7.3115   -0.0622 C   0  0  0  0  0  0  0  0  0  0  0  0
   10.3300    7.0133   -0.6869 C   0  0  0  0  0  0  0  0  0  0  0  0
   10.5477    6.1830   -1.7900 C   0  0  2  0  0  0  0  0  0  0  0  0
   10.6053    4.7672   -1.7358 C   0  0  1  0  0  0  0  0  0  0  0  0
   11.9882    5.7543   -1.7525 C   0  0  2  0  0  0  0  0  0  0  0  0
   12.5452    6.5000   -0.6515 C   0  0  0  0  0  0  0  0  0  0  0  0
   11.7037    7.9717    0.7907 H   0  0  0  0  0  0  0  0  0  0  0  0
    9.3525    7.2159   -0.2535 H   0  0  0  0  0  0  0  0  0  0  0  0
   10.6950    4.1265   -2.6121 H   0  0  0  0  0  0  0  0  0  0  0  0
   12.6029    5.4757   -2.6045 H   0  0  0  0  0  0  0  0  0  0  0  0
    7.0897    6.2743   -4.7597 N   0  0  0  0  0  0  0  0  0  0  0  0
    7.8463    6.6575   -5.4662 N   0  0  0  0  0  0  0  0  0  0  0  0
   13.8843    6.4879   -0.4440 O   0  0  0  0  0  0  0  0  0  0  0  0
   14.3909    7.4442    0.4859 C   0  0  0  0  0  0  0  0  0  0  0  0
   15.4792    7.3322    0.4759 H   0  0  0  0  0  0  0  0  0  0  0  0
   14.0088    7.2466    1.4989 H   0  0  0  0  0  0  0  0  0  0  0  0
   14.1156    8.4656    0.1818 H   0  0  0  0  0  0  0  0  0  0  0  0
   10.1271    4.0847   -0.6137 O   0  0  0  0  0  0  0  0  0  0  0  0
   10.2661    2.7137   -0.5971 C   0  0  0  0  0  0  0  0  0  0  0  0
   10.7661    2.0857   -1.4982 O   0  0  0  0  0  0  0  0  0  0  0  0
    9.7061    2.1483    0.6785 C   0  0  0  0  0  0  0  0  0  0  0  0
   10.2559    2.5593    1.5360 H   0  0  0  0  0  0  0  0  0  0  0  0
    8.6548    2.4451    0.7898 H   0  0  0  0  0  0  0  0  0  0  0  0
    9.7940    1.0587    0.6619 H   0  0  0  0  0  0  0  0  0  0  0  0
  1  7  1  0  0  0  0
  2  8  1  0  0  0  0
  2  1  1  0  0  0  0
  3  5  1  0  0  0  0
  3  4  1  0  0  0  0
  3  2  1  1  0  0  0
  4  9  1  6  0  0  0
  4 18  1  0  0  0  0
  5 10  1  6  0  0  0
  5  4  1  0  0  0  0
  5  6  1  0  0  0  0
  6 13  1  0  0  0  0
  6  1  2  0  0  0  0
 12 11  3  0  0  0  0
 13 14  1  0  0  0  0
 14 16  1  0  0  0  0
 15 14  1  0  0  0  0
 17 14  1  0  0  0  0
 18 19  1  0  0  0  0
 19 21  1  0  0  0  0
 20 19  2  0  0  0  0
 21 23  1  0  0  0  0
 21 22  1  0  0  0  0
 24 21  1  0  0  0  0
M  RAD  2   2   2   3   2
M  END
