Coordinates from ORCA-job p-CH3O-Ph-N2-OOCCH3-B3LYPG-aug-cc-pVDZ-scan-d09-49-n400
 OpenBabel10311713213D

 24 24  0  0  1  0  0  0  0  0999 V2000
   11.3787    7.2803   -0.1601 C   0  0  0  0  0  0  0  0  0  0  0  0
   10.1140    6.9440   -0.7078 C   0  0  0  0  0  0  0  0  0  0  0  0
   10.2829    6.1132   -1.8181 C   0  0  2  0  0  0  0  0  0  0  0  0
   10.4059    4.7012   -1.7514 C   0  0  1  0  0  0  0  0  0  0  0  0
   11.7365    5.7171   -1.8605 C   0  0  2  0  0  0  0  0  0  0  0  0
   12.3396    6.4909   -0.8008 C   0  0  0  0  0  0  0  0  0  0  0  0
   11.5467    7.9512    0.6786 H   0  0  0  0  0  0  0  0  0  0  0  0
    9.1594    7.1272   -0.2180 H   0  0  0  0  0  0  0  0  0  0  0  0
   10.4466    4.0534   -2.6268 H   0  0  0  0  0  0  0  0  0  0  0  0
   12.3107    5.4591   -2.7471 H   0  0  0  0  0  0  0  0  0  0  0  0
    8.7105    6.6215   -3.7919 N   0  0  0  0  0  0  0  0  0  0  0  0
    9.1714    6.9671   -4.7375 N   0  0  0  0  0  0  0  0  0  0  0  0
   13.6882    6.5206   -0.6815 O   0  0  0  0  0  0  0  0  0  0  0  0
   14.2260    7.5012    0.2051 C   0  0  0  0  0  0  0  0  0  0  0  0
   15.3141    7.4209    0.1242 H   0  0  0  0  0  0  0  0  0  0  0  0
   13.9171    7.3025    1.2424 H   0  0  0  0  0  0  0  0  0  0  0  0
   13.9004    8.5106   -0.0890 H   0  0  0  0  0  0  0  0  0  0  0  0
   10.0235    4.0150   -0.5919 O   0  0  0  0  0  0  0  0  0  0  0  0
   10.2230    2.6534   -0.5683 C   0  0  0  0  0  0  0  0  0  0  0  0
   10.7017    2.0353   -1.4882 O   0  0  0  0  0  0  0  0  0  0  0  0
    9.7664    2.0812    0.7453 C   0  0  0  0  0  0  0  0  0  0  0  0
   10.3417    2.5334    1.5644 H   0  0  0  0  0  0  0  0  0  0  0  0
    8.7091    2.3257    0.9125 H   0  0  0  0  0  0  0  0  0  0  0  0
    9.9092    0.9973    0.7381 H   0  0  0  0  0  0  0  0  0  0  0  0
  1  7  1  0  0  0  0
  2  8  1  0  0  0  0
  2  1  1  0  0  0  0
  3  4  1  0  0  0  0
  3  2  1  1  0  0  0
  4  9  1  6  0  0  0
  4 18  1  0  0  0  0
  5 10  1  6  0  0  0
  5  3  1  0  0  0  0
  5  4  1  0  0  0  0
  5  6  1  0  0  0  0
  6 13  1  0  0  0  0
  6  1  2  0  0  0  0
 12 11  3  0  0  0  0
 13 14  1  0  0  0  0
 14 16  1  0  0  0  0
 15 14  1  0  0  0  0
 17 14  1  0  0  0  0
 18 19  1  0  0  0  0
 19 21  1  0  0  0  0
 20 19  2  0  0  0  0
 21 23  1  0  0  0  0
 21 22  1  0  0  0  0
 24 21  1  0  0  0  0
M  RAD  2   2   2   3   2
M  END
