Coordinates from ORCA-job p-CH3O-Ph-N2-OOCCH3-B3LYPG-aug-cc-pVDZ-scan-d09-49-n400
 OpenBabel10311713213D

 24 24  0  0  1  0  0  0  0  0999 V2000
   11.5161    7.4563   -0.4997 C   0  0  0  0  0  0  0  0  0  0  0  0
   10.2779    7.3657   -1.0552 C   0  0  0  0  0  0  0  0  0  0  0  0
    9.9024    6.1734   -1.7608 C   0  0  0  0  0  0  0  0  0  0  0  0
   10.7182    4.9155   -1.7087 C   0  0  1  0  0  0  0  0  0  0  0  0
   12.1177    5.2054   -1.2938 C   0  0  0  0  0  0  0  0  0  0  0  0
   12.4637    6.3643   -0.6744 C   0  0  0  0  0  0  0  0  0  0  0  0
   11.7930    8.3531    0.0461 H   0  0  0  0  0  0  0  0  0  0  0  0
    9.5633    8.1845   -0.9812 H   0  0  0  0  0  0  0  0  0  0  0  0
   10.6834    4.3550   -2.6480 H   0  0  0  0  0  0  0  0  0  0  0  0
   12.8607    4.4253   -1.4432 H   0  0  0  0  0  0  0  0  0  0  0  0
    8.7545    6.1336   -2.4135 N   0  0  0  0  0  0  0  0  0  0  0  0
    7.7690    6.0756   -2.9826 N   0  0  0  0  0  0  0  0  0  0  0  0
   13.7540    6.4688   -0.2271 O   0  0  0  0  0  0  0  0  0  0  0  0
   14.2584    7.7431    0.1649 C   0  0  0  0  0  0  0  0  0  0  0  0
   15.3264    7.5904    0.3501 H   0  0  0  0  0  0  0  0  0  0  0  0
   13.7830    8.1011    1.0907 H   0  0  0  0  0  0  0  0  0  0  0  0
   14.1308    8.4905   -0.6322 H   0  0  0  0  0  0  0  0  0  0  0  0
   10.0423    4.0150   -0.7025 O   0  0  0  0  0  0  0  0  0  0  0  0
   10.2402    2.6872   -0.8596 C   0  0  0  0  0  0  0  0  0  0  0  0
   10.9138    2.2025   -1.7473 O   0  0  0  0  0  0  0  0  0  0  0  0
    9.5059    1.8946    0.1950 C   0  0  0  0  0  0  0  0  0  0  0  0
    9.7315    2.2889    1.1938 H   0  0  0  0  0  0  0  0  0  0  0  0
    8.4227    1.9916    0.0374 H   0  0  0  0  0  0  0  0  0  0  0  0
    9.7942    0.8418    0.1235 H   0  0  0  0  0  0  0  0  0  0  0  0
  1  7  1  0  0  0  0
  2  8  1  0  0  0  0
  2  1  1  0  0  0  0
  3  4  1  0  0  0  0
  3  2  2  0  0  0  0
  4  9  1  6  0  0  0
  4  5  1  0  0  0  0
  4 18  1  0  0  0  0
  5  6  2  0  0  0  0
  6  1  1  0  0  0  0
  6 13  1  0  0  0  0
 10  5  1  0  0  0  0
 11  3  1  0  0  0  0
 12 11  1  0  0  0  0
 13 14  1  0  0  0  0
 14 15  1  0  0  0  0
 14 16  1  0  0  0  0
 17 14  1  0  0  0  0
 19 18  1  0  0  0  0
 19 21  1  0  0  0  0
 20 19  2  0  0  0  0
 21 22  1  0  0  0  0
 23 21  1  0  0  0  0
 24 21  1  0  0  0  0
M  RAD  3   1   2  11   2  12   3
M  END
