Coordinates from ORCA-job p-CH3O-Ph-N2-OOCCH3-B3LYPG-aug-cc-pVDZ-scan-d09-49-n400
 OpenBabel10311713213D

 24 24  0  0  1  0  0  0  0  0999 V2000
   11.5108    7.3007   -0.0918 C   0  0  0  0  0  0  0  0  0  0  0  0
   10.2632    6.9861   -0.6906 C   0  0  0  0  0  0  0  0  0  0  0  0
   10.4683    6.1526   -1.7905 C   0  0  2  0  0  0  0  0  0  0  0  0
   10.5438    4.7388   -1.7338 C   0  0  1  0  0  0  0  0  0  0  0  0
   11.9130    5.7388   -1.7810 C   0  0  2  0  0  0  0  0  0  0  0  0
   12.4842    6.4960   -0.6951 C   0  0  0  0  0  0  0  0  0  0  0  0
   11.6561    7.9670    0.7549 H   0  0  0  0  0  0  0  0  0  0  0  0
    9.2911    7.1793   -0.2407 H   0  0  0  0  0  0  0  0  0  0  0  0
   10.6195    4.0960   -2.6099 H   0  0  0  0  0  0  0  0  0  0  0  0
   12.5140    5.4649   -2.6444 H   0  0  0  0  0  0  0  0  0  0  0  0
    7.5934    6.4081   -4.4985 N   0  0  0  0  0  0  0  0  0  0  0  0
    8.2066    6.8167   -5.3208 N   0  0  0  0  0  0  0  0  0  0  0  0
   13.8270    6.4983   -0.5138 O   0  0  0  0  0  0  0  0  0  0  0  0
   14.3421    7.4649    0.4007 C   0  0  0  0  0  0  0  0  0  0  0  0
   15.4311    7.3637    0.3698 H   0  0  0  0  0  0  0  0  0  0  0  0
   13.9820    7.2691    1.4220 H   0  0  0  0  0  0  0  0  0  0  0  0
   14.0504    8.4818    0.0965 H   0  0  0  0  0  0  0  0  0  0  0  0
   10.0976    4.0555   -0.5985 O   0  0  0  0  0  0  0  0  0  0  0  0
   10.2554    2.6871   -0.5789 C   0  0  0  0  0  0  0  0  0  0  0  0
   10.7475    2.0619   -1.4864 O   0  0  0  0  0  0  0  0  0  0  0  0
    9.7291    2.1198    0.7102 C   0  0  0  0  0  0  0  0  0  0  0  0
   10.2871    2.5453    1.5551 H   0  0  0  0  0  0  0  0  0  0  0  0
    8.6749    2.3989    0.8389 H   0  0  0  0  0  0  0  0  0  0  0  0
    9.8355    1.0318    0.6980 H   0  0  0  0  0  0  0  0  0  0  0  0
  1  7  1  0  0  0  0
  2  8  1  0  0  0  0
  2  1  1  0  0  0  0
  3  5  1  0  0  0  0
  3  4  1  0  0  0  0
  3  2  1  1  0  0  0
  4  9  1  6  0  0  0
  4 18  1  0  0  0  0
  5 10  1  6  0  0  0
  5  4  1  0  0  0  0
  5  6  1  0  0  0  0
  6 13  1  0  0  0  0
  6  1  2  0  0  0  0
 12 11  3  0  0  0  0
 13 14  1  0  0  0  0
 14 16  1  0  0  0  0
 15 14  1  0  0  0  0
 17 14  1  0  0  0  0
 18 19  1  0  0  0  0
 19 21  1  0  0  0  0
 20 19  2  0  0  0  0
 21 23  1  0  0  0  0
 21 22  1  0  0  0  0
 24 21  1  0  0  0  0
M  RAD  2   2   2   3   2
M  END
