Coordinates from ORCA-job p-CH3O-Ph-N2-OOCCH3-B3LYPG-aug-cc-pVDZ-scan-d09-49-n400
 OpenBabel10311713213D

 24 24  0  0  1  0  0  0  0  0999 V2000
   11.5074    7.4445   -0.4878 C   0  0  0  0  0  0  0  0  0  0  0  0
   10.2701    7.3563   -1.0380 C   0  0  0  0  0  0  0  0  0  0  0  0
    9.8799    6.1692   -1.7652 C   0  0  0  0  0  0  0  0  0  0  0  0
   10.7174    4.9130   -1.7053 C   0  0  1  0  0  0  0  0  0  0  0  0
   12.1177    5.2027   -1.2933 C   0  0  0  0  0  0  0  0  0  0  0  0
   12.4629    6.3590   -0.6725 C   0  0  0  0  0  0  0  0  0  0  0  0
   11.7816    8.3368    0.0672 H   0  0  0  0  0  0  0  0  0  0  0  0
    9.5523    8.1714   -0.9502 H   0  0  0  0  0  0  0  0  0  0  0  0
   10.6833    4.3578   -2.6482 H   0  0  0  0  0  0  0  0  0  0  0  0
   12.8607    4.4235   -1.4481 H   0  0  0  0  0  0  0  0  0  0  0  0
    8.8108    6.1338   -2.3940 N   0  0  0  0  0  0  0  0  0  0  0  0
    7.8283    6.0807   -2.9798 N   0  0  0  0  0  0  0  0  0  0  0  0
   13.7530    6.4699   -0.2280 O   0  0  0  0  0  0  0  0  0  0  0  0
   14.2569    7.7497    0.1484 C   0  0  0  0  0  0  0  0  0  0  0  0
   15.3272    7.6023    0.3238 H   0  0  0  0  0  0  0  0  0  0  0  0
   13.7899    8.1136    1.0760 H   0  0  0  0  0  0  0  0  0  0  0  0
   14.1184    8.4897   -0.6538 H   0  0  0  0  0  0  0  0  0  0  0  0
   10.0439    4.0188   -0.7032 O   0  0  0  0  0  0  0  0  0  0  0  0
   10.2398    2.6889   -0.8588 C   0  0  0  0  0  0  0  0  0  0  0  0
   10.9174    2.2042   -1.7426 O   0  0  0  0  0  0  0  0  0  0  0  0
    9.4960    1.8996    0.1909 C   0  0  0  0  0  0  0  0  0  0  0  0
    9.6896    2.3123    1.1887 H   0  0  0  0  0  0  0  0  0  0  0  0
    8.4156    1.9745    0.0044 H   0  0  0  0  0  0  0  0  0  0  0  0
    9.8034    0.8510    0.1411 H   0  0  0  0  0  0  0  0  0  0  0  0
  1  7  1  0  0  0  0
  2  8  1  0  0  0  0
  2  1  1  0  0  0  0
  3  4  1  0  0  0  0
  3  2  2  0  0  0  0
  4  9  1  6  0  0  0
  4  5  1  0  0  0  0
  4 18  1  0  0  0  0
  5  6  1  0  0  0  0
  6  1  2  0  0  0  0
  6 13  1  0  0  0  0
 10  5  1  0  0  0  0
 11  3  1  0  0  0  0
 12 11  1  0  0  0  0
 13 14  1  0  0  0  0
 14 15  1  0  0  0  0
 14 16  1  0  0  0  0
 17 14  1  0  0  0  0
 19 18  1  0  0  0  0
 19 21  1  0  0  0  0
 20 19  2  0  0  0  0
 21 22  1  0  0  0  0
 23 21  1  0  0  0  0
 24 21  1  0  0  0  0
M  RAD  3   5   2  11   2  12   3
M  END
