Coordinates from ORCA-job p-CH3O-Ph-N2-OOCCH3-B3LYPG-aug-cc-pVDZ-scan-d09-49-n400
 OpenBabel10311713213D

 24 24  0  0  1  0  0  0  0  0999 V2000
   11.5716    7.3122   -0.0613 C   0  0  0  0  0  0  0  0  0  0  0  0
   10.3336    7.0144   -0.6873 C   0  0  0  0  0  0  0  0  0  0  0  0
   10.5527    6.1839   -1.7878 C   0  0  2  0  0  0  0  0  0  0  0  0
   10.6080    4.7689   -1.7356 C   0  0  1  0  0  0  0  0  0  0  0  0
   11.9924    5.7551   -1.7498 C   0  0  2  0  0  0  0  0  0  0  0  0
   12.5490    6.5004   -0.6488 C   0  0  0  0  0  0  0  0  0  0  0  0
   11.7065    7.9729    0.7914 H   0  0  0  0  0  0  0  0  0  0  0  0
    9.3554    7.2174   -0.2555 H   0  0  0  0  0  0  0  0  0  0  0  0
   10.6980    4.1289   -2.6124 H   0  0  0  0  0  0  0  0  0  0  0  0
   12.6076    5.4760   -2.6014 H   0  0  0  0  0  0  0  0  0  0  0  0
    7.0655    6.2644   -4.7700 N   0  0  0  0  0  0  0  0  0  0  0  0
    7.8282    6.6473   -5.4705 N   0  0  0  0  0  0  0  0  0  0  0  0
   13.8879    6.4875   -0.4398 O   0  0  0  0  0  0  0  0  0  0  0  0
   14.3940    7.4439    0.4903 C   0  0  0  0  0  0  0  0  0  0  0  0
   15.4823    7.3312    0.4817 H   0  0  0  0  0  0  0  0  0  0  0  0
   14.0106    7.2469    1.5029 H   0  0  0  0  0  0  0  0  0  0  0  0
   14.1196    8.4654    0.1855 H   0  0  0  0  0  0  0  0  0  0  0  0
   10.1275    4.0866   -0.6149 O   0  0  0  0  0  0  0  0  0  0  0  0
   10.2655    2.7154   -0.5991 C   0  0  0  0  0  0  0  0  0  0  0  0
   10.7659    2.0877   -1.5001 O   0  0  0  0  0  0  0  0  0  0  0  0
    9.7041    2.1497    0.6757 C   0  0  0  0  0  0  0  0  0  0  0  0
   10.2536    2.5595    1.5338 H   0  0  0  0  0  0  0  0  0  0  0  0
    8.6529    2.4474    0.7864 H   0  0  0  0  0  0  0  0  0  0  0  0
    9.7910    1.0600    0.6583 H   0  0  0  0  0  0  0  0  0  0  0  0
  1  7  1  0  0  0  0
  2  8  1  0  0  0  0
  2  1  1  0  0  0  0
  3  5  1  0  0  0  0
  3  4  1  0  0  0  0
  3  2  1  1  0  0  0
  4  9  1  6  0  0  0
  4 18  1  0  0  0  0
  5 10  1  6  0  0  0
  5  4  1  0  0  0  0
  5  6  1  0  0  0  0
  6 13  1  0  0  0  0
  6  1  2  0  0  0  0
 12 11  3  0  0  0  0
 13 14  1  0  0  0  0
 14 16  1  0  0  0  0
 15 14  1  0  0  0  0
 17 14  1  0  0  0  0
 18 19  1  0  0  0  0
 19 21  1  0  0  0  0
 20 19  2  0  0  0  0
 21 23  1  0  0  0  0
 21 22  1  0  0  0  0
 24 21  1  0  0  0  0
M  RAD  2   2   2   3   2
M  END
