Coordinates from ORCA-job p-CH3O-Ph-N2-OOCCH3-B3LYPG-aug-cc-pVDZ-scan-d09-49-n400
 OpenBabel10311713213D

 24 24  0  0  1  0  0  0  0  0999 V2000
   11.3875    7.2818   -0.1510 C   0  0  0  0  0  0  0  0  0  0  0  0
   10.1227    6.9471   -0.6991 C   0  0  0  0  0  0  0  0  0  0  0  0
   10.2917    6.1182   -1.8107 C   0  0  2  0  0  0  0  0  0  0  0  0
   10.4097    4.7058   -1.7473 C   0  0  1  0  0  0  0  0  0  0  0  0
   11.7449    5.7224   -1.8546 C   0  0  2  0  0  0  0  0  0  0  0  0
   12.3481    6.4931   -0.7935 C   0  0  0  0  0  0  0  0  0  0  0  0
   11.5560    7.9509    0.6891 H   0  0  0  0  0  0  0  0  0  0  0  0
    9.1682    7.1289   -0.2084 H   0  0  0  0  0  0  0  0  0  0  0  0
   10.4526    4.0597   -2.6238 H   0  0  0  0  0  0  0  0  0  0  0  0
   12.3184    5.4631   -2.7412 H   0  0  0  0  0  0  0  0  0  0  0  0
    8.6493    6.6104   -3.8502 N   0  0  0  0  0  0  0  0  0  0  0  0
    9.1144    6.9447   -4.7970 N   0  0  0  0  0  0  0  0  0  0  0  0
   13.6968    6.5212   -0.6729 O   0  0  0  0  0  0  0  0  0  0  0  0
   14.2347    7.4992    0.2164 C   0  0  0  0  0  0  0  0  0  0  0  0
   15.3228    7.4181    0.1363 H   0  0  0  0  0  0  0  0  0  0  0  0
   13.9248    7.2985    1.2531 H   0  0  0  0  0  0  0  0  0  0  0  0
   13.9104    8.5096   -0.0756 H   0  0  0  0  0  0  0  0  0  0  0  0
   10.0261    4.0178   -0.5900 O   0  0  0  0  0  0  0  0  0  0  0  0
   10.2206    2.6551   -0.5701 C   0  0  0  0  0  0  0  0  0  0  0  0
   10.6984    2.0381   -1.4911 O   0  0  0  0  0  0  0  0  0  0  0  0
    9.7659    2.0818    0.7435 C   0  0  0  0  0  0  0  0  0  0  0  0
   10.3428    2.5325    1.5623 H   0  0  0  0  0  0  0  0  0  0  0  0
    8.7090    2.3271    0.9127 H   0  0  0  0  0  0  0  0  0  0  0  0
    9.9077    0.9978    0.7348 H   0  0  0  0  0  0  0  0  0  0  0  0
  1  7  1  0  0  0  0
  2  8  1  0  0  0  0
  2  1  1  0  0  0  0
  3  4  1  0  0  0  0
  3  2  1  1  0  0  0
  4  9  1  6  0  0  0
  4 18  1  0  0  0  0
  5 10  1  6  0  0  0
  5  3  1  0  0  0  0
  5  4  1  0  0  0  0
  5  6  1  0  0  0  0
  6 13  1  0  0  0  0
  6  1  2  0  0  0  0
 12 11  3  0  0  0  0
 13 14  1  0  0  0  0
 14 16  1  0  0  0  0
 15 14  1  0  0  0  0
 17 14  1  0  0  0  0
 18 19  1  0  0  0  0
 19 21  1  0  0  0  0
 20 19  2  0  0  0  0
 21 23  1  0  0  0  0
 21 22  1  0  0  0  0
 24 21  1  0  0  0  0
M  RAD  2   2   2   3   2
M  END
