Coordinates from ORCA-job p-CH3O-Ph-N2-OOCCH3-B3LYPG-aug-cc-pVDZ-scan-d09-49-n400
 OpenBabel10311713213D

 24 24  0  0  1  0  0  0  0  0999 V2000
   11.3895    7.2821   -0.1490 C   0  0  0  0  0  0  0  0  0  0  0  0
   10.1246    6.9476   -0.6972 C   0  0  0  0  0  0  0  0  0  0  0  0
   10.2936    6.1192   -1.8092 C   0  0  2  0  0  0  0  0  0  0  0  0
   10.4108    4.7068   -1.7464 C   0  0  1  0  0  0  0  0  0  0  0  0
   11.7468    5.7235   -1.8533 C   0  0  2  0  0  0  0  0  0  0  0  0
   12.3500    6.4936   -0.7919 C   0  0  0  0  0  0  0  0  0  0  0  0
   11.5580    7.9508    0.6914 H   0  0  0  0  0  0  0  0  0  0  0  0
    9.1701    7.1292   -0.2064 H   0  0  0  0  0  0  0  0  0  0  0  0
   10.4540    4.0611   -2.6231 H   0  0  0  0  0  0  0  0  0  0  0  0
   12.3201    5.4641   -2.7399 H   0  0  0  0  0  0  0  0  0  0  0  0
    8.6354    6.6076   -3.8630 N   0  0  0  0  0  0  0  0  0  0  0  0
    9.1018    6.9402   -4.8097 N   0  0  0  0  0  0  0  0  0  0  0  0
   13.6986    6.5213   -0.6711 O   0  0  0  0  0  0  0  0  0  0  0  0
   14.2366    7.4988    0.2189 C   0  0  0  0  0  0  0  0  0  0  0  0
   15.3247    7.4176    0.1390 H   0  0  0  0  0  0  0  0  0  0  0  0
   13.9265    7.2976    1.2554 H   0  0  0  0  0  0  0  0  0  0  0  0
   13.9125    8.5094   -0.0727 H   0  0  0  0  0  0  0  0  0  0  0  0
   10.0269    4.0185   -0.5895 O   0  0  0  0  0  0  0  0  0  0  0  0
   10.2206    2.6556   -0.5703 C   0  0  0  0  0  0  0  0  0  0  0  0
   10.6979    2.0388   -1.4917 O   0  0  0  0  0  0  0  0  0  0  0  0
    9.7657    2.0820    0.7431 C   0  0  0  0  0  0  0  0  0  0  0  0
   10.3429    2.5321    1.5620 H   0  0  0  0  0  0  0  0  0  0  0  0
    8.7089    2.3278    0.9124 H   0  0  0  0  0  0  0  0  0  0  0  0
    9.9069    0.9979    0.7340 H   0  0  0  0  0  0  0  0  0  0  0  0
  1  7  1  0  0  0  0
  2  8  1  0  0  0  0
  2  1  1  0  0  0  0
  3  4  1  0  0  0  0
  3  2  1  1  0  0  0
  4  9  1  6  0  0  0
  4 18  1  0  0  0  0
  5 10  1  6  0  0  0
  5  3  1  0  0  0  0
  5  4  1  0  0  0  0
  5  6  1  0  0  0  0
  6 13  1  0  0  0  0
  6  1  2  0  0  0  0
 12 11  3  0  0  0  0
 13 14  1  0  0  0  0
 14 16  1  0  0  0  0
 15 14  1  0  0  0  0
 17 14  1  0  0  0  0
 18 19  1  0  0  0  0
 19 21  1  0  0  0  0
 20 19  2  0  0  0  0
 21 23  1  0  0  0  0
 21 22  1  0  0  0  0
 24 21  1  0  0  0  0
M  RAD  2   2   2   3   2
M  END
