Coordinates from ORCA-job p-CH3O-Ph-N2-OOCCH3-B3LYPG-aug-cc-pVDZ-scan-d09-49-n400
 OpenBabel10311713213D

 24 24  0  0  1  0  0  0  0  0999 V2000
   11.5023    7.3590   -0.4823 C   0  0  0  0  0  0  0  0  0  0  0  0
   10.2759    7.2497   -1.0846 C   0  0  0  0  0  0  0  0  0  0  0  0
   10.1747    6.2530   -2.0870 C   0  0  1  0  0  0  0  0  0  0  0  0
   10.7678    4.9249   -1.9286 C   0  0  1  0  0  0  0  0  0  0  0  0
   12.1888    5.2477   -1.5524 C   0  0  0  0  0  0  0  0  0  0  0  0
   12.4955    6.3442   -0.7967 C   0  0  0  0  0  0  0  0  0  0  0  0
   11.7300    8.2148    0.1452 H   0  0  0  0  0  0  0  0  0  0  0  0
    9.4949    7.9921   -0.9350 H   0  0  0  0  0  0  0  0  0  0  0  0
   10.7073    4.2868   -2.8116 H   0  0  0  0  0  0  0  0  0  0  0  0
   12.9406    4.4858   -1.7440 H   0  0  0  0  0  0  0  0  0  0  0  0
    8.3880    6.0080   -2.4640 N   0  0  0  0  0  0  0  0  0  0  0  0
    7.4439    5.9868   -3.0500 N   0  0  0  0  0  0  0  0  0  0  0  0
   13.7843    6.4407   -0.3537 O   0  0  0  0  0  0  0  0  0  0  0  0
   14.2034    7.6187    0.3310 C   0  0  0  0  0  0  0  0  0  0  0  0
   15.2733    7.4830    0.5175 H   0  0  0  0  0  0  0  0  0  0  0  0
   13.6823    7.7341    1.2932 H   0  0  0  0  0  0  0  0  0  0  0  0
   14.0526    8.5175   -0.2853 H   0  0  0  0  0  0  0  0  0  0  0  0
   10.0796    4.1322   -0.8247 O   0  0  0  0  0  0  0  0  0  0  0  0
   10.2960    2.8011   -0.8283 C   0  0  0  0  0  0  0  0  0  0  0  0
   10.9784    2.2244   -1.6535 O   0  0  0  0  0  0  0  0  0  0  0  0
    9.5916    2.1225    0.3235 C   0  0  0  0  0  0  0  0  0  0  0  0
   10.0616    2.4317    1.2674 H   0  0  0  0  0  0  0  0  0  0  0  0
    8.5380    2.4272    0.3646 H   0  0  0  0  0  0  0  0  0  0  0  0
    9.6726    1.0374    0.2108 H   0  0  0  0  0  0  0  0  0  0  0  0
  1  7  1  0  0  0  0
  2  8  1  0  0  0  0
  2  1  2  0  0  0  0
  3 11  1  1  0  0  0
  3  4  1  0  0  0  0
  3  2  1  0  0  0  0
  4  9  1  6  0  0  0
  4  5  1  0  0  0  0
  4 18  1  0  0  0  0
  5  6  2  0  0  0  0
  6  1  1  0  0  0  0
  6 13  1  0  0  0  0
 10  5  1  0  0  0  0
 12 11  1  0  0  0  0
 13 14  1  0  0  0  0
 14 15  1  0  0  0  0
 14 16  1  0  0  0  0
 17 14  1  0  0  0  0
 19 18  1  0  0  0  0
 19 21  1  0  0  0  0
 20 19  2  0  0  0  0
 21 23  1  0  0  0  0
 21 22  1  0  0  0  0
 24 21  1  0  0  0  0
M  RAD  3   3   2  11   2  12   3
M  END
