Coordinates from ORCA-job p-CH3O-Ph-N2-OOCCH3-B3LYPG-aug-cc-pVDZ-scan-d09-49-n400
 OpenBabel10311713213D

 24 24  0  0  1  0  0  0  0  0999 V2000
   11.5803    7.3132   -0.0558 C   0  0  0  0  0  0  0  0  0  0  0  0
   10.3442    7.0199   -0.6866 C   0  0  0  0  0  0  0  0  0  0  0  0
   10.5645    6.1911   -1.7903 C   0  0  2  0  0  0  0  0  0  0  0  0
   10.6172    4.7752   -1.7375 C   0  0  1  0  0  0  0  0  0  0  0  0
   12.0035    5.7581   -1.7468 C   0  0  2  0  0  0  0  0  0  0  0  0
   12.5577    6.5001   -0.6422 C   0  0  0  0  0  0  0  0  0  0  0  0
   11.7139    7.9714    0.7990 H   0  0  0  0  0  0  0  0  0  0  0  0
    9.3654    7.2250   -0.2574 H   0  0  0  0  0  0  0  0  0  0  0  0
   10.7095    4.1352   -2.6139 H   0  0  0  0  0  0  0  0  0  0  0  0
   12.6211    5.4784   -2.5963 H   0  0  0  0  0  0  0  0  0  0  0  0
    6.9829    6.2418   -4.8170 N   0  0  0  0  0  0  0  0  0  0  0  0
    7.7668    6.6204   -5.4955 N   0  0  0  0  0  0  0  0  0  0  0  0
   13.8958    6.4837   -0.4286 O   0  0  0  0  0  0  0  0  0  0  0  0
   14.4009    7.4367    0.5055 C   0  0  0  0  0  0  0  0  0  0  0  0
   15.4889    7.3215    0.5003 H   0  0  0  0  0  0  0  0  0  0  0  0
   14.0136    7.2382    1.5163 H   0  0  0  0  0  0  0  0  0  0  0  0
   14.1299    8.4596    0.2022 H   0  0  0  0  0  0  0  0  0  0  0  0
   10.1315    4.0928   -0.6186 O   0  0  0  0  0  0  0  0  0  0  0  0
   10.2662    2.7214   -0.6029 C   0  0  0  0  0  0  0  0  0  0  0  0
   10.7726    2.0933   -1.5004 O   0  0  0  0  0  0  0  0  0  0  0  0
    9.7033    2.1569    0.6717 C   0  0  0  0  0  0  0  0  0  0  0  0
   10.2511    2.5682    1.5303 H   0  0  0  0  0  0  0  0  0  0  0  0
    8.6518    2.4539    0.7804 H   0  0  0  0  0  0  0  0  0  0  0  0
    9.7912    1.0672    0.6559 H   0  0  0  0  0  0  0  0  0  0  0  0
  1  7  1  0  0  0  0
  2  8  1  0  0  0  0
  2  1  1  0  0  0  0
  3  5  1  0  0  0  0
  3  4  1  0  0  0  0
  3  2  1  1  0  0  0
  4  9  1  6  0  0  0
  4 18  1  0  0  0  0
  5 10  1  6  0  0  0
  5  4  1  0  0  0  0
  5  6  1  0  0  0  0
  6 13  1  0  0  0  0
  6  1  2  0  0  0  0
 12 11  3  0  0  0  0
 13 14  1  0  0  0  0
 14 16  1  0  0  0  0
 15 14  1  0  0  0  0
 17 14  1  0  0  0  0
 18 19  1  0  0  0  0
 19 21  1  0  0  0  0
 20 19  2  0  0  0  0
 21 23  1  0  0  0  0
 21 22  1  0  0  0  0
 24 21  1  0  0  0  0
M  RAD  2   2   2   3   2
M  END
