Coordinates from ORCA-job p-CH3O-Ph-N2-OOCCH3-B3LYPG-aug-cc-pVDZ-scan-d09-49-n400
 OpenBabel10311713213D

 24 24  0  0  1  0  0  0  0  0999 V2000
   11.4470    7.2897   -0.1198 C   0  0  0  0  0  0  0  0  0  0  0  0
   10.1894    6.9600   -0.6880 C   0  0  0  0  0  0  0  0  0  0  0  0
   10.3757    6.1282   -1.7936 C   0  0  2  0  0  0  0  0  0  0  0  0
   10.4742    4.7153   -1.7329 C   0  0  1  0  0  0  0  0  0  0  0  0
   11.8261    5.7294   -1.8165 C   0  0  2  0  0  0  0  0  0  0  0  0
   12.4146    6.4955   -0.7458 C   0  0  0  0  0  0  0  0  0  0  0  0
   11.6049    7.9583    0.7227 H   0  0  0  0  0  0  0  0  0  0  0  0
    9.2271    7.1436   -0.2136 H   0  0  0  0  0  0  0  0  0  0  0  0
   10.5344    4.0704   -2.6087 H   0  0  0  0  0  0  0  0  0  0  0  0
   12.4104    5.4623   -2.6934 H   0  0  0  0  0  0  0  0  0  0  0  0
    8.1590    6.5216   -4.2009 N   0  0  0  0  0  0  0  0  0  0  0  0
    8.6523    6.9364   -5.0977 N   0  0  0  0  0  0  0  0  0  0  0  0
   13.7611    6.5143   -0.5982 O   0  0  0  0  0  0  0  0  0  0  0  0
   14.2875    7.4884    0.3020 C   0  0  0  0  0  0  0  0  0  0  0  0
   15.3765    7.4003    0.2437 H   0  0  0  0  0  0  0  0  0  0  0  0
   13.9557    7.2897    1.3323 H   0  0  0  0  0  0  0  0  0  0  0  0
   13.9759    8.5012    0.0041 H   0  0  0  0  0  0  0  0  0  0  0  0
   10.0657    4.0297   -0.5845 O   0  0  0  0  0  0  0  0  0  0  0  0
   10.2413    2.6637   -0.5655 C   0  0  0  0  0  0  0  0  0  0  0  0
   10.7159    2.0417   -1.4846 O   0  0  0  0  0  0  0  0  0  0  0  0
    9.7485    2.0924    0.7351 C   0  0  0  0  0  0  0  0  0  0  0  0
   10.3193    2.5254    1.5676 H   0  0  0  0  0  0  0  0  0  0  0  0
    8.6942    2.3600    0.8856 H   0  0  0  0  0  0  0  0  0  0  0  0
    9.8666    1.0057    0.7220 H   0  0  0  0  0  0  0  0  0  0  0  0
  1  7  1  0  0  0  0
  2  8  1  0  0  0  0
  2  1  1  0  0  0  0
  3  4  1  0  0  0  0
  3  2  1  1  0  0  0
  4  9  1  6  0  0  0
  4 18  1  0  0  0  0
  5 10  1  6  0  0  0
  5  3  1  0  0  0  0
  5  4  1  0  0  0  0
  5  6  1  0  0  0  0
  6 13  1  0  0  0  0
  6  1  2  0  0  0  0
 12 11  3  0  0  0  0
 13 14  1  0  0  0  0
 14 16  1  0  0  0  0
 15 14  1  0  0  0  0
 17 14  1  0  0  0  0
 18 19  1  0  0  0  0
 19 21  1  0  0  0  0
 20 19  2  0  0  0  0
 21 23  1  0  0  0  0
 21 22  1  0  0  0  0
 24 21  1  0  0  0  0
M  RAD  2   2   2   3   2
M  END
