Coordinates from ORCA-job p-CH3O-Ph-N2-OOCCH3-B3LYPG-aug-cc-pVDZ-scan-d09-49-n400
 OpenBabel10311713213D

 24 24  0  0  1  0  0  0  0  0999 V2000
   11.4814    7.2938   -0.1054 C   0  0  0  0  0  0  0  0  0  0  0  0
   10.2306    6.9729   -0.6924 C   0  0  0  0  0  0  0  0  0  0  0  0
   10.4283    6.1401   -1.7969 C   0  0  2  0  0  0  0  0  0  0  0  0
   10.5150    4.7257   -1.7345 C   0  0  1  0  0  0  0  0  0  0  0  0
   11.8761    5.7320   -1.7978 C   0  0  2  0  0  0  0  0  0  0  0  0
   12.4531    6.4935   -0.7177 C   0  0  0  0  0  0  0  0  0  0  0  0
   11.6314    7.9611    0.7396 H   0  0  0  0  0  0  0  0  0  0  0  0
    9.2626    7.1626   -0.2323 H   0  0  0  0  0  0  0  0  0  0  0  0
   10.5854    4.0800   -2.6090 H   0  0  0  0  0  0  0  0  0  0  0  0
   12.4714    5.4605   -2.6659 H   0  0  0  0  0  0  0  0  0  0  0  0
    7.8402    6.4649   -4.3742 N   0  0  0  0  0  0  0  0  0  0  0  0
    8.3862    6.8932   -5.2332 N   0  0  0  0  0  0  0  0  0  0  0  0
   13.7974    6.5032   -0.5495 O   0  0  0  0  0  0  0  0  0  0  0  0
   14.3166    7.4733    0.3591 C   0  0  0  0  0  0  0  0  0  0  0  0
   15.4057    7.3779    0.3174 H   0  0  0  0  0  0  0  0  0  0  0  0
   13.9679    7.2763    1.3842 H   0  0  0  0  0  0  0  0  0  0  0  0
   14.0165    8.4883    0.0572 H   0  0  0  0  0  0  0  0  0  0  0  0
   10.0844    4.0432   -0.5926 O   0  0  0  0  0  0  0  0  0  0  0  0
   10.2509    2.6760   -0.5706 C   0  0  0  0  0  0  0  0  0  0  0  0
   10.7393    2.0511   -1.4804 O   0  0  0  0  0  0  0  0  0  0  0  0
    9.7404    2.1091    0.7251 C   0  0  0  0  0  0  0  0  0  0  0  0
   10.3024    2.5418    1.5636 H   0  0  0  0  0  0  0  0  0  0  0  0
    8.6852    2.3807    0.8621 H   0  0  0  0  0  0  0  0  0  0  0  0
    9.8549    1.0219    0.7157 H   0  0  0  0  0  0  0  0  0  0  0  0
  1  7  1  0  0  0  0
  2  8  1  0  0  0  0
  2  1  1  0  0  0  0
  3  4  1  0  0  0  0
  3  2  1  1  0  0  0
  4  9  1  6  0  0  0
  4 18  1  0  0  0  0
  5 10  1  6  0  0  0
  5  3  1  0  0  0  0
  5  4  1  0  0  0  0
  5  6  1  0  0  0  0
  6 13  1  0  0  0  0
  6  1  2  0  0  0  0
 12 11  3  0  0  0  0
 13 14  1  0  0  0  0
 14 16  1  0  0  0  0
 15 14  1  0  0  0  0
 17 14  1  0  0  0  0
 18 19  1  0  0  0  0
 19 21  1  0  0  0  0
 20 19  2  0  0  0  0
 21 23  1  0  0  0  0
 21 22  1  0  0  0  0
 24 21  1  0  0  0  0
M  RAD  2   2   2   3   2
M  END
