Coordinates from ORCA-job p-CH3O-Ph-N2-OOCCH3-B3LYPG-aug-cc-pVDZ-scan-d09-49-n400
 OpenBabel10311713213D

 24 24  0  0  1  0  0  0  0  0999 V2000
   11.4711    7.2935   -0.1108 C   0  0  0  0  0  0  0  0  0  0  0  0
   10.2184    6.9698   -0.6924 C   0  0  0  0  0  0  0  0  0  0  0  0
   10.4133    6.1352   -1.7970 C   0  0  2  0  0  0  0  0  0  0  0  0
   10.5018    4.7206   -1.7349 C   0  0  1  0  0  0  0  0  0  0  0  0
   11.8618    5.7294   -1.8033 C   0  0  2  0  0  0  0  0  0  0  0  0
   12.4414    6.4935   -0.7258 C   0  0  0  0  0  0  0  0  0  0  0  0
   11.6234    7.9623    0.7327 H   0  0  0  0  0  0  0  0  0  0  0  0
    9.2519    7.1585   -0.2284 H   0  0  0  0  0  0  0  0  0  0  0  0
   10.5705    4.0749   -2.6096 H   0  0  0  0  0  0  0  0  0  0  0  0
   12.4543    5.4580   -2.6732 H   0  0  0  0  0  0  0  0  0  0  0  0
    7.9360    6.4838   -4.3251 N   0  0  0  0  0  0  0  0  0  0  0  0
    8.4621    6.9185   -5.1945 N   0  0  0  0  0  0  0  0  0  0  0  0
   13.7864    6.5053   -0.5625 O   0  0  0  0  0  0  0  0  0  0  0  0
   14.3073    7.4773    0.3430 C   0  0  0  0  0  0  0  0  0  0  0  0
   15.3964    7.3834    0.2977 H   0  0  0  0  0  0  0  0  0  0  0  0
   13.9623    7.2813    1.3695 H   0  0  0  0  0  0  0  0  0  0  0  0
   14.0047    8.4915    0.0407 H   0  0  0  0  0  0  0  0  0  0  0  0
   10.0758    4.0374   -0.5917 O   0  0  0  0  0  0  0  0  0  0  0  0
   10.2436    2.6703   -0.5705 C   0  0  0  0  0  0  0  0  0  0  0  0
   10.7328    2.0466   -1.4806 O   0  0  0  0  0  0  0  0  0  0  0  0
    9.7446    2.1037    0.7298 C   0  0  0  0  0  0  0  0  0  0  0  0
   10.3098    2.5412    1.5638 H   0  0  0  0  0  0  0  0  0  0  0  0
    8.6890    2.3699    0.8730 H   0  0  0  0  0  0  0  0  0  0  0  0
    9.8649    1.0171    0.7219 H   0  0  0  0  0  0  0  0  0  0  0  0
  1  7  1  0  0  0  0
  2  8  1  0  0  0  0
  2  1  1  0  0  0  0
  3  4  1  0  0  0  0
  3  2  1  1  0  0  0
  4  9  1  6  0  0  0
  4 18  1  0  0  0  0
  5 10  1  6  0  0  0
  5  3  1  0  0  0  0
  5  4  1  0  0  0  0
  5  6  1  0  0  0  0
  6 13  1  0  0  0  0
  6  1  2  0  0  0  0
 12 11  3  0  0  0  0
 13 14  1  0  0  0  0
 14 16  1  0  0  0  0
 15 14  1  0  0  0  0
 17 14  1  0  0  0  0
 18 19  1  0  0  0  0
 19 21  1  0  0  0  0
 20 19  2  0  0  0  0
 21 23  1  0  0  0  0
 21 22  1  0  0  0  0
 24 21  1  0  0  0  0
M  RAD  2   2   2   3   2
M  END
