Coordinates from ORCA-job p-CH3O-Ph-N2-OOCCH3-B3LYPG-aug-cc-pVDZ-scan-d09-49-n400
 OpenBabel10311713213D

 24 24  0  0  1  0  0  0  0  0999 V2000
   11.3620    7.2758   -0.1746 C   0  0  0  0  0  0  0  0  0  0  0  0
   10.0977    6.9409   -0.7242 C   0  0  0  0  0  0  0  0  0  0  0  0
   10.2647    6.1099   -1.8351 C   0  0  2  0  0  0  0  0  0  0  0  0
   10.3991    4.6977   -1.7616 C   0  0  1  0  0  0  0  0  0  0  0  0
   11.7190    5.7088   -1.8733 C   0  0  2  0  0  0  0  0  0  0  0  0
   12.3224    6.4851   -0.8134 C   0  0  0  0  0  0  0  0  0  0  0  0
   11.5297    7.9470    0.6639 H   0  0  0  0  0  0  0  0  0  0  0  0
    9.1426    7.1285   -0.2368 H   0  0  0  0  0  0  0  0  0  0  0  0
   10.4323    4.0468   -2.6352 H   0  0  0  0  0  0  0  0  0  0  0  0
   12.2950    5.4564   -2.7605 H   0  0  0  0  0  0  0  0  0  0  0  0
    8.8136    6.6285   -3.6931 N   0  0  0  0  0  0  0  0  0  0  0  0
    9.2689    6.9960   -4.6349 N   0  0  0  0  0  0  0  0  0  0  0  0
   13.6704    6.5151   -0.6954 O   0  0  0  0  0  0  0  0  0  0  0  0
   14.2096    7.4970    0.1895 C   0  0  0  0  0  0  0  0  0  0  0  0
   15.2975    7.4164    0.1073 H   0  0  0  0  0  0  0  0  0  0  0  0
   13.9018    7.2994    1.2273 H   0  0  0  0  0  0  0  0  0  0  0  0
   13.8834    8.5058   -0.1057 H   0  0  0  0  0  0  0  0  0  0  0  0
   10.0187    4.0151   -0.5979 O   0  0  0  0  0  0  0  0  0  0  0  0
   10.2264    2.6555   -0.5676 C   0  0  0  0  0  0  0  0  0  0  0  0
   10.7117    2.0360   -1.4832 O   0  0  0  0  0  0  0  0  0  0  0  0
    9.7733    2.0865    0.7487 C   0  0  0  0  0  0  0  0  0  0  0  0
   10.3479    2.5440    1.5654 H   0  0  0  0  0  0  0  0  0  0  0  0
    8.7152    2.3275    0.9164 H   0  0  0  0  0  0  0  0  0  0  0  0
    9.9206    1.0032    0.7456 H   0  0  0  0  0  0  0  0  0  0  0  0
  1  7  1  0  0  0  0
  2  8  1  0  0  0  0
  2  1  1  0  0  0  0
  3  4  1  0  0  0  0
  3  2  1  1  0  0  0
  4  9  1  6  0  0  0
  4 18  1  0  0  0  0
  5 10  1  6  0  0  0
  5  3  1  0  0  0  0
  5  4  1  0  0  0  0
  5  6  1  0  0  0  0
  6 13  1  0  0  0  0
  6  1  2  0  0  0  0
 12 11  3  0  0  0  0
 13 14  1  0  0  0  0
 14 16  1  0  0  0  0
 15 14  1  0  0  0  0
 17 14  1  0  0  0  0
 18 19  1  0  0  0  0
 19 21  1  0  0  0  0
 20 19  2  0  0  0  0
 21 23  1  0  0  0  0
 21 22  1  0  0  0  0
 24 21  1  0  0  0  0
M  RAD  2   2   2   3   2
M  END
