Coordinates from ORCA-job p-CH3O-Ph-N2-OOCCH3-B3LYPG-aug-cc-pVDZ-scan-d09-49-n400
 OpenBabel10311713213D

 24 24  0  0  1  0  0  0  0  0999 V2000
   11.5283    7.3055   -0.0814 C   0  0  0  0  0  0  0  0  0  0  0  0
   10.2834    6.9968   -0.6876 C   0  0  0  0  0  0  0  0  0  0  0  0
   10.4914    6.1630   -1.7912 C   0  0  2  0  0  0  0  0  0  0  0  0
   10.5610    4.7471   -1.7346 C   0  0  1  0  0  0  0  0  0  0  0  0
   11.9350    5.7432   -1.7723 C   0  0  2  0  0  0  0  0  0  0  0  0
   12.5019    6.4974   -0.6810 C   0  0  0  0  0  0  0  0  0  0  0  0
   11.6717    7.9702    0.7668 H   0  0  0  0  0  0  0  0  0  0  0  0
    9.3104    7.1940   -0.2414 H   0  0  0  0  0  0  0  0  0  0  0  0
   10.6415    4.1048   -2.6105 H   0  0  0  0  0  0  0  0  0  0  0  0
   12.5402    5.4678   -2.6322 H   0  0  0  0  0  0  0  0  0  0  0  0
    7.4397    6.3711   -4.5783 N   0  0  0  0  0  0  0  0  0  0  0  0
    8.0991    6.7643   -5.3721 N   0  0  0  0  0  0  0  0  0  0  0  0
   13.8436    6.4944   -0.4919 O   0  0  0  0  0  0  0  0  0  0  0  0
   14.3570    7.4580    0.4268 C   0  0  0  0  0  0  0  0  0  0  0  0
   15.4458    7.3527    0.4022 H   0  0  0  0  0  0  0  0  0  0  0  0
   13.9902    7.2624    1.4458 H   0  0  0  0  0  0  0  0  0  0  0  0
   14.0710    8.4763    0.1222 H   0  0  0  0  0  0  0  0  0  0  0  0
   10.1042    4.0637   -0.6038 O   0  0  0  0  0  0  0  0  0  0  0  0
   10.2551    2.6943   -0.5863 C   0  0  0  0  0  0  0  0  0  0  0  0
   10.7523    2.0690   -1.4909 O   0  0  0  0  0  0  0  0  0  0  0  0
    9.7235    2.1275    0.7009 C   0  0  0  0  0  0  0  0  0  0  0  0
   10.2799    2.5512    1.5478 H   0  0  0  0  0  0  0  0  0  0  0  0
    8.6696    2.4091    0.8265 H   0  0  0  0  0  0  0  0  0  0  0  0
    9.8275    1.0393    0.6884 H   0  0  0  0  0  0  0  0  0  0  0  0
  1  7  1  0  0  0  0
  2  8  1  0  0  0  0
  2  1  1  0  0  0  0
  3  5  1  0  0  0  0
  3  4  1  0  0  0  0
  3  2  1  1  0  0  0
  4  9  1  6  0  0  0
  4 18  1  0  0  0  0
  5 10  1  6  0  0  0
  5  4  1  0  0  0  0
  5  6  1  0  0  0  0
  6 13  1  0  0  0  0
  6  1  2  0  0  0  0
 12 11  3  0  0  0  0
 13 14  1  0  0  0  0
 14 16  1  0  0  0  0
 15 14  1  0  0  0  0
 17 14  1  0  0  0  0
 18 19  1  0  0  0  0
 19 21  1  0  0  0  0
 20 19  2  0  0  0  0
 21 23  1  0  0  0  0
 21 22  1  0  0  0  0
 24 21  1  0  0  0  0
M  RAD  2   2   2   3   2
M  END
