Coordinates from ORCA-job p-CH3O-Ph-N2-OOCCH3-B3LYPG-aug-cc-pVDZ-scan-d09-49-n400
 OpenBabel10311713213D

 24 24  0  0  1  0  0  0  0  0999 V2000
   11.3525    7.2738   -0.1792 C   0  0  0  0  0  0  0  0  0  0  0  0
   10.0875    6.9432   -0.7294 C   0  0  0  0  0  0  0  0  0  0  0  0
   10.2508    6.1132   -1.8425 C   0  0  2  0  0  0  0  0  0  0  0  0
   10.3929    4.7006   -1.7675 C   0  0  1  0  0  0  0  0  0  0  0  0
   11.7054    5.7075   -1.8804 C   0  0  2  0  0  0  0  0  0  0  0  0
   12.3112    6.4832   -0.8198 C   0  0  0  0  0  0  0  0  0  0  0  0
   11.5214    7.9434    0.6603 H   0  0  0  0  0  0  0  0  0  0  0  0
    9.1326    7.1352   -0.2432 H   0  0  0  0  0  0  0  0  0  0  0  0
   10.4192    4.0499   -2.6416 H   0  0  0  0  0  0  0  0  0  0  0  0
   12.2812    5.4607   -2.7695 H   0  0  0  0  0  0  0  0  0  0  0  0
    8.8834    6.6232   -3.6247 N   0  0  0  0  0  0  0  0  0  0  0  0
    9.3321    6.9764   -4.5762 N   0  0  0  0  0  0  0  0  0  0  0  0
   13.6591    6.5129   -0.7054 O   0  0  0  0  0  0  0  0  0  0  0  0
   14.2011    7.4937    0.1792 C   0  0  0  0  0  0  0  0  0  0  0  0
   15.2887    7.4128    0.0939 H   0  0  0  0  0  0  0  0  0  0  0  0
   13.8959    7.2949    1.2175 H   0  0  0  0  0  0  0  0  0  0  0  0
   13.8743    8.5028   -0.1142 H   0  0  0  0  0  0  0  0  0  0  0  0
   10.0141    4.0182   -0.6019 O   0  0  0  0  0  0  0  0  0  0  0  0
   10.2311    2.6608   -0.5684 C   0  0  0  0  0  0  0  0  0  0  0  0
   10.7202    2.0423   -1.4830 O   0  0  0  0  0  0  0  0  0  0  0  0
    9.7763    2.0901    0.7467 C   0  0  0  0  0  0  0  0  0  0  0  0
   10.3498    2.5470    1.5645 H   0  0  0  0  0  0  0  0  0  0  0  0
    8.7179    2.3302    0.9135 H   0  0  0  0  0  0  0  0  0  0  0  0
    9.9247    1.0070    0.7428 H   0  0  0  0  0  0  0  0  0  0  0  0
  1  7  1  0  0  0  0
  2  8  1  0  0  0  0
  2  1  1  0  0  0  0
  3  4  1  0  0  0  0
  3  2  1  1  0  0  0
  4  9  1  6  0  0  0
  4 18  1  0  0  0  0
  5 10  1  6  0  0  0
  5  3  1  0  0  0  0
  5  4  1  0  0  0  0
  5  6  1  0  0  0  0
  6 13  1  0  0  0  0
  6  1  2  0  0  0  0
 12 11  3  0  0  0  0
 13 14  1  0  0  0  0
 14 16  1  0  0  0  0
 15 14  1  0  0  0  0
 17 14  1  0  0  0  0
 18 19  1  0  0  0  0
 19 21  1  0  0  0  0
 20 19  2  0  0  0  0
 21 23  1  0  0  0  0
 21 22  1  0  0  0  0
 24 21  1  0  0  0  0
M  RAD  2   2   2   3   2
M  END
