Coordinates from ORCA-job p-CH3O-Ph-N2-OOCCH3-B3LYPG-aug-cc-pVDZ-scan-d09-49-n400
 OpenBabel10311713213D

 24 24  0  0  1  0  0  0  0  0999 V2000
   11.5643    7.3098   -0.0637 C   0  0  0  0  0  0  0  0  0  0  0  0
   10.3258    7.0113   -0.6874 C   0  0  0  0  0  0  0  0  0  0  0  0
   10.5427    6.1817   -1.7909 C   0  0  2  0  0  0  0  0  0  0  0  0
   10.6012    4.7660   -1.7360 C   0  0  1  0  0  0  0  0  0  0  0  0
   11.9834    5.7533   -1.7543 C   0  0  2  0  0  0  0  0  0  0  0  0
   12.5412    6.4990   -0.6540 C   0  0  0  0  0  0  0  0  0  0  0  0
   11.7004    7.9699    0.7892 H   0  0  0  0  0  0  0  0  0  0  0  0
    9.3487    7.2138   -0.2530 H   0  0  0  0  0  0  0  0  0  0  0  0
   10.6905    4.1250   -2.6121 H   0  0  0  0  0  0  0  0  0  0  0  0
   12.5976    5.4748   -2.6069 H   0  0  0  0  0  0  0  0  0  0  0  0
    7.1150    6.2850   -4.7494 N   0  0  0  0  0  0  0  0  0  0  0  0
    7.8663    6.6684   -5.4617 N   0  0  0  0  0  0  0  0  0  0  0  0
   13.8805    6.4874   -0.4478 O   0  0  0  0  0  0  0  0  0  0  0  0
   14.3877    7.4437    0.4817 C   0  0  0  0  0  0  0  0  0  0  0  0
   15.4760    7.3321    0.4706 H   0  0  0  0  0  0  0  0  0  0  0  0
   14.0068    7.2457    1.4951 H   0  0  0  0  0  0  0  0  0  0  0  0
   14.1116    8.4651    0.1782 H   0  0  0  0  0  0  0  0  0  0  0  0
   10.1245    4.0836   -0.6132 O   0  0  0  0  0  0  0  0  0  0  0  0
   10.2639    2.7127   -0.5967 C   0  0  0  0  0  0  0  0  0  0  0  0
   10.7665    2.0851   -1.4966 O   0  0  0  0  0  0  0  0  0  0  0  0
    9.7097    2.1478    0.6817 C   0  0  0  0  0  0  0  0  0  0  0  0
   10.2602    2.5625    1.5369 H   0  0  0  0  0  0  0  0  0  0  0  0
    8.6575    2.4409    0.7951 H   0  0  0  0  0  0  0  0  0  0  0  0
    9.8016    1.0585    0.6669 H   0  0  0  0  0  0  0  0  0  0  0  0
  1  7  1  0  0  0  0
  2  8  1  0  0  0  0
  2  1  1  0  0  0  0
  3  5  1  0  0  0  0
  3  4  1  0  0  0  0
  3  2  1  1  0  0  0
  4  9  1  6  0  0  0
  4 18  1  0  0  0  0
  5 10  1  6  0  0  0
  5  4  1  0  0  0  0
  5  6  1  0  0  0  0
  6 13  1  0  0  0  0
  6  1  2  0  0  0  0
 12 11  3  0  0  0  0
 13 14  1  0  0  0  0
 14 16  1  0  0  0  0
 15 14  1  0  0  0  0
 17 14  1  0  0  0  0
 18 19  1  0  0  0  0
 19 21  1  0  0  0  0
 20 19  2  0  0  0  0
 21 23  1  0  0  0  0
 21 22  1  0  0  0  0
 24 21  1  0  0  0  0
M  RAD  2   2   2   3   2
M  END
