Coordinates from ORCA-job p-CH3O-Ph-N2-OOCCH3-B3LYPG-aug-cc-pVDZ-scan-d09-49-n400
 OpenBabel10311713213D

 24 24  0  0  1  0  0  0  0  0999 V2000
   11.5401    7.3069   -0.0772 C   0  0  0  0  0  0  0  0  0  0  0  0
   10.2968    6.9995   -0.6883 C   0  0  0  0  0  0  0  0  0  0  0  0
   10.5086    6.1668   -1.7877 C   0  0  2  0  0  0  0  0  0  0  0  0
   10.5750    4.7525   -1.7334 C   0  0  1  0  0  0  0  0  0  0  0  0
   11.9510    5.7464   -1.7652 C   0  0  2  0  0  0  0  0  0  0  0  0
   12.5156    6.4987   -0.6727 C   0  0  0  0  0  0  0  0  0  0  0  0
   11.6806    7.9712    0.7718 H   0  0  0  0  0  0  0  0  0  0  0  0
    9.3217    7.1974   -0.2470 H   0  0  0  0  0  0  0  0  0  0  0  0
   10.6572    4.1114   -2.6100 H   0  0  0  0  0  0  0  0  0  0  0  0
   12.5584    5.4704   -2.6234 H   0  0  0  0  0  0  0  0  0  0  0  0
    7.3397    6.3434   -4.6269 N   0  0  0  0  0  0  0  0  0  0  0  0
    8.0288    6.7344   -5.3959 N   0  0  0  0  0  0  0  0  0  0  0  0
   13.8566    6.4942   -0.4786 O   0  0  0  0  0  0  0  0  0  0  0  0
   14.3675    7.4567    0.4426 C   0  0  0  0  0  0  0  0  0  0  0  0
   15.4562    7.3503    0.4221 H   0  0  0  0  0  0  0  0  0  0  0  0
   13.9966    7.2610    1.4601 H   0  0  0  0  0  0  0  0  0  0  0  0
   14.0837    8.4755    0.1374 H   0  0  0  0  0  0  0  0  0  0  0  0
   10.1131    4.0691   -0.6047 O   0  0  0  0  0  0  0  0  0  0  0  0
   10.2606    2.6994   -0.5879 C   0  0  0  0  0  0  0  0  0  0  0  0
   10.7545    2.0731   -1.4936 O   0  0  0  0  0  0  0  0  0  0  0  0
    9.7160    2.1320    0.6935 C   0  0  0  0  0  0  0  0  0  0  0  0
   10.2703    2.5481    1.5456 H   0  0  0  0  0  0  0  0  0  0  0  0
    8.6636    2.4215    0.8136 H   0  0  0  0  0  0  0  0  0  0  0  0
    9.8113    1.0430    0.6776 H   0  0  0  0  0  0  0  0  0  0  0  0
  1  7  1  0  0  0  0
  2  8  1  0  0  0  0
  2  1  1  0  0  0  0
  3  5  1  0  0  0  0
  3  4  1  0  0  0  0
  3  2  1  1  0  0  0
  4  9  1  6  0  0  0
  4 18  1  0  0  0  0
  5 10  1  6  0  0  0
  5  4  1  0  0  0  0
  5  6  1  0  0  0  0
  6 13  1  0  0  0  0
  6  1  2  0  0  0  0
 12 11  3  0  0  0  0
 13 14  1  0  0  0  0
 14 16  1  0  0  0  0
 15 14  1  0  0  0  0
 17 14  1  0  0  0  0
 18 19  1  0  0  0  0
 19 21  1  0  0  0  0
 20 19  2  0  0  0  0
 21 23  1  0  0  0  0
 21 22  1  0  0  0  0
 24 21  1  0  0  0  0
M  RAD  2   2   2   3   2
M  END
