Coordinates from ORCA-job p-CH3O-Ph-N2-OOCCH3-B3LYPG-aug-cc-pVDZ-scan-d09-49-n400
 OpenBabel10311713213D

 24 24  0  0  1  0  0  0  0  0999 V2000
   11.3355    7.2659   -0.1849 C   0  0  0  0  0  0  0  0  0  0  0  0
   10.0702    6.9477   -0.7390 C   0  0  0  0  0  0  0  0  0  0  0  0
   10.2269    6.1217   -1.8591 C   0  0  2  0  0  0  0  0  0  0  0  0
   10.3811    4.7077   -1.7808 C   0  0  1  0  0  0  0  0  0  0  0  0
   11.6820    5.7068   -1.8955 C   0  0  2  0  0  0  0  0  0  0  0  0
   12.2916    6.4772   -0.8308 C   0  0  0  0  0  0  0  0  0  0  0  0
   11.5064    7.9292    0.6593 H   0  0  0  0  0  0  0  0  0  0  0  0
    9.1149    7.1505   -0.2578 H   0  0  0  0  0  0  0  0  0  0  0  0
   10.3955    4.0578   -2.6561 H   0  0  0  0  0  0  0  0  0  0  0  0
   12.2571    5.4698   -2.7878 H   0  0  0  0  0  0  0  0  0  0  0  0
    8.9760    6.6219   -3.5259 N   0  0  0  0  0  0  0  0  0  0  0  0
    9.4355    6.9373   -4.4896 N   0  0  0  0  0  0  0  0  0  0  0  0
   13.6392    6.5047   -0.7212 O   0  0  0  0  0  0  0  0  0  0  0  0
   14.1859    7.4788    0.1684 C   0  0  0  0  0  0  0  0  0  0  0  0
   15.2731    7.3966    0.0788 H   0  0  0  0  0  0  0  0  0  0  0  0
   13.8838    7.2731    1.2062 H   0  0  0  0  0  0  0  0  0  0  0  0
   13.8595    8.4903   -0.1173 H   0  0  0  0  0  0  0  0  0  0  0  0
   10.0024    4.0268   -0.6127 O   0  0  0  0  0  0  0  0  0  0  0  0
   10.2345    2.6728   -0.5728 C   0  0  0  0  0  0  0  0  0  0  0  0
   10.7413    2.0575   -1.4800 O   0  0  0  0  0  0  0  0  0  0  0  0
    9.7898    2.1035    0.7466 C   0  0  0  0  0  0  0  0  0  0  0  0
   10.3616    2.5699    1.5603 H   0  0  0  0  0  0  0  0  0  0  0  0
    8.7297    2.3333    0.9162 H   0  0  0  0  0  0  0  0  0  0  0  0
    9.9499    1.0220    0.7472 H   0  0  0  0  0  0  0  0  0  0  0  0
  1  7  1  0  0  0  0
  2  8  1  0  0  0  0
  2  1  1  0  0  0  0
  3  4  1  0  0  0  0
  3  2  1  1  0  0  0
  4  9  1  6  0  0  0
  4 18  1  0  0  0  0
  5 10  1  6  0  0  0
  5  3  1  0  0  0  0
  5  4  1  0  0  0  0
  5  6  1  0  0  0  0
  6 13  1  0  0  0  0
  6  1  2  0  0  0  0
 12 11  3  0  0  0  0
 13 14  1  0  0  0  0
 14 16  1  0  0  0  0
 15 14  1  0  0  0  0
 17 14  1  0  0  0  0
 18 19  1  0  0  0  0
 19 21  1  0  0  0  0
 20 19  2  0  0  0  0
 21 24  1  0  0  0  0
 21 23  1  0  0  0  0
 21 22  1  0  0  0  0
M  RAD  2   2   2   3   2
M  END
