Coordinates from ORCA-job p-CH3O-Ph-N2-OOCCH3-B3LYPG-aug-cc-pVDZ-scan-d09-49-n400
 OpenBabel10311713213D

 24 24  0  0  1  0  0  0  0  0999 V2000
   11.3476    7.2723   -0.1808 C   0  0  0  0  0  0  0  0  0  0  0  0
   10.0822    6.9444   -0.7311 C   0  0  0  0  0  0  0  0  0  0  0  0
   10.2433    6.1155   -1.8461 C   0  0  2  0  0  0  0  0  0  0  0  0
   10.3895    4.7026   -1.7704 C   0  0  1  0  0  0  0  0  0  0  0  0
   11.6981    5.7077   -1.8845 C   0  0  2  0  0  0  0  0  0  0  0  0
   12.3054    6.4823   -0.8231 C   0  0  0  0  0  0  0  0  0  0  0  0
   11.5173    7.9405    0.6597 H   0  0  0  0  0  0  0  0  0  0  0  0
    9.1274    7.1390   -0.2456 H   0  0  0  0  0  0  0  0  0  0  0  0
   10.4120    4.0521   -2.6449 H   0  0  0  0  0  0  0  0  0  0  0  0
   12.2733    5.4640   -2.7748 H   0  0  0  0  0  0  0  0  0  0  0  0
    8.9139    6.6229   -3.5934 N   0  0  0  0  0  0  0  0  0  0  0  0
    9.3673    6.9619   -4.5489 N   0  0  0  0  0  0  0  0  0  0  0  0
   13.6533    6.5117   -0.7109 O   0  0  0  0  0  0  0  0  0  0  0  0
   14.1968    7.4911    0.1745 C   0  0  0  0  0  0  0  0  0  0  0  0
   15.2843    7.4101    0.0874 H   0  0  0  0  0  0  0  0  0  0  0  0
   13.8932    7.2905    1.2129 H   0  0  0  0  0  0  0  0  0  0  0  0
   13.8697    8.5007   -0.1168 H   0  0  0  0  0  0  0  0  0  0  0  0
   10.0116    4.0203   -0.6039 O   0  0  0  0  0  0  0  0  0  0  0  0
   10.2334    2.6639   -0.5690 C   0  0  0  0  0  0  0  0  0  0  0  0
   10.7248    2.0462   -1.4829 O   0  0  0  0  0  0  0  0  0  0  0  0
    9.7788    2.0926    0.7460 C   0  0  0  0  0  0  0  0  0  0  0  0
   10.3518    2.5499    1.5639 H   0  0  0  0  0  0  0  0  0  0  0  0
    8.7202    2.3315    0.9127 H   0  0  0  0  0  0  0  0  0  0  0  0
    9.9283    1.0096    0.7419 H   0  0  0  0  0  0  0  0  0  0  0  0
  1  7  1  0  0  0  0
  2  8  1  0  0  0  0
  2  1  1  0  0  0  0
  3  4  1  0  0  0  0
  3  2  1  1  0  0  0
  4  9  1  6  0  0  0
  4 18  1  0  0  0  0
  5 10  1  6  0  0  0
  5  3  1  0  0  0  0
  5  4  1  0  0  0  0
  5  6  1  0  0  0  0
  6 13  1  0  0  0  0
  6  1  2  0  0  0  0
 12 11  3  0  0  0  0
 13 14  1  0  0  0  0
 14 16  1  0  0  0  0
 15 14  1  0  0  0  0
 17 14  1  0  0  0  0
 18 19  1  0  0  0  0
 19 21  1  0  0  0  0
 20 19  2  0  0  0  0
 21 23  1  0  0  0  0
 21 22  1  0  0  0  0
 24 21  1  0  0  0  0
M  RAD  2   2   2   3   2
M  END
