Coordinates from ORCA-job p-CH3O-Ph-N2-OOCCH3-B3LYPG-aug-cc-pVDZ-scan-d09-49-n400
 OpenBabel10311713213D

 24 24  0  0  1  0  0  0  0  0999 V2000
   11.3335    7.2648   -0.1857 C   0  0  0  0  0  0  0  0  0  0  0  0
   10.0683    6.9479   -0.7398 C   0  0  0  0  0  0  0  0  0  0  0  0
   10.2239    6.1223   -1.8613 C   0  0  2  0  0  0  0  0  0  0  0  0
   10.3820    4.7082   -1.7817 C   0  0  1  0  0  0  0  0  0  0  0  0
   11.6798    5.7074   -1.8981 C   0  0  2  0  0  0  0  0  0  0  0  0
   12.2898    6.4776   -0.8332 C   0  0  0  0  0  0  0  0  0  0  0  0
   11.5045    7.9270    0.6593 H   0  0  0  0  0  0  0  0  0  0  0  0
    9.1129    7.1523   -0.2596 H   0  0  0  0  0  0  0  0  0  0  0  0
   10.3946    4.0580   -2.6568 H   0  0  0  0  0  0  0  0  0  0  0  0
   12.2543    5.4721   -2.7912 H   0  0  0  0  0  0  0  0  0  0  0  0
    8.9912    6.6176   -3.5044 N   0  0  0  0  0  0  0  0  0  0  0  0
    9.4501    6.9276   -4.4713 N   0  0  0  0  0  0  0  0  0  0  0  0
   13.6374    6.5065   -0.7254 O   0  0  0  0  0  0  0  0  0  0  0  0
   14.1843    7.4800    0.1649 C   0  0  0  0  0  0  0  0  0  0  0  0
   15.2714    7.3990    0.0737 H   0  0  0  0  0  0  0  0  0  0  0  0
   13.8837    7.2725    1.2028 H   0  0  0  0  0  0  0  0  0  0  0  0
   13.8564    8.4914   -0.1190 H   0  0  0  0  0  0  0  0  0  0  0  0
   10.0047    4.0280   -0.6125 O   0  0  0  0  0  0  0  0  0  0  0  0
   10.2410    2.6749   -0.5707 C   0  0  0  0  0  0  0  0  0  0  0  0
   10.7435    2.0587   -1.4798 O   0  0  0  0  0  0  0  0  0  0  0  0
    9.7876    2.1039    0.7450 C   0  0  0  0  0  0  0  0  0  0  0  0
   10.3586    2.5649    1.5623 H   0  0  0  0  0  0  0  0  0  0  0  0
    8.7280    2.3386    0.9111 H   0  0  0  0  0  0  0  0  0  0  0  0
    9.9422    1.0216    0.7430 H   0  0  0  0  0  0  0  0  0  0  0  0
  1  7  1  0  0  0  0
  2  8  1  0  0  0  0
  2  1  1  0  0  0  0
  3  4  1  0  0  0  0
  3  2  1  1  0  0  0
  4  9  1  6  0  0  0
  4 18  1  0  0  0  0
  5 10  1  6  0  0  0
  5  3  1  0  0  0  0
  5  4  1  0  0  0  0
  5  6  1  0  0  0  0
  6 13  1  0  0  0  0
  6  1  2  0  0  0  0
 12 11  3  0  0  0  0
 13 14  1  0  0  0  0
 14 16  1  0  0  0  0
 15 14  1  0  0  0  0
 17 14  1  0  0  0  0
 18 19  1  0  0  0  0
 19 21  1  0  0  0  0
 20 19  2  0  0  0  0
 21 23  1  0  0  0  0
 21 22  1  0  0  0  0
 24 21  1  0  0  0  0
M  RAD  2   2   2   3   2
M  END
