Coordinates from ORCA-job p-CH3O-Ph-N2-OOCCH3-B3LYPG-aug-cc-pVDZ-scan-d09-49-n400
 OpenBabel10311713213D

 24 24  0  0  1  0  0  0  0  0999 V2000
   11.4589    7.2904   -0.1154 C   0  0  0  0  0  0  0  0  0  0  0  0
   10.2043    6.9633   -0.6907 C   0  0  0  0  0  0  0  0  0  0  0  0
   10.3952    6.1311   -1.7967 C   0  0  2  0  0  0  0  0  0  0  0  0
   10.4898    4.7173   -1.7338 C   0  0  1  0  0  0  0  0  0  0  0  0
   11.8451    5.7295   -1.8105 C   0  0  2  0  0  0  0  0  0  0  0  0
   12.4287    6.4944   -0.7364 C   0  0  0  0  0  0  0  0  0  0  0  0
   11.6135    7.9586    0.7280 H   0  0  0  0  0  0  0  0  0  0  0  0
    9.2400    7.1490   -0.2214 H   0  0  0  0  0  0  0  0  0  0  0  0
   10.5551    4.0712   -2.6083 H   0  0  0  0  0  0  0  0  0  0  0  0
   12.4339    5.4601   -2.6837 H   0  0  0  0  0  0  0  0  0  0  0  0
    8.0466    6.5019   -4.2637 N   0  0  0  0  0  0  0  0  0  0  0  0
    8.5515    6.9325   -5.1467 N   0  0  0  0  0  0  0  0  0  0  0  0
   13.7744    6.5107   -0.5809 O   0  0  0  0  0  0  0  0  0  0  0  0
   14.2974    7.4836    0.3226 C   0  0  0  0  0  0  0  0  0  0  0  0
   15.3865    7.3934    0.2706 H   0  0  0  0  0  0  0  0  0  0  0  0
   13.9593    7.2852    1.3509 H   0  0  0  0  0  0  0  0  0  0  0  0
   13.9895    8.4970    0.0232 H   0  0  0  0  0  0  0  0  0  0  0  0
   10.0730    4.0336   -0.5875 O   0  0  0  0  0  0  0  0  0  0  0  0
   10.2449    2.6671   -0.5664 C   0  0  0  0  0  0  0  0  0  0  0  0
   10.7252    2.0434   -1.4813 O   0  0  0  0  0  0  0  0  0  0  0  0
    9.7453    2.0985    0.7327 C   0  0  0  0  0  0  0  0  0  0  0  0
   10.3126    2.5322    1.5673 H   0  0  0  0  0  0  0  0  0  0  0  0
    8.6906    2.3675    0.8778 H   0  0  0  0  0  0  0  0  0  0  0  0
    9.8623    1.0116    0.7220 H   0  0  0  0  0  0  0  0  0  0  0  0
  1  7  1  0  0  0  0
  2  8  1  0  0  0  0
  2  1  1  0  0  0  0
  3  4  1  0  0  0  0
  3  2  1  1  0  0  0
  4  9  1  6  0  0  0
  4 18  1  0  0  0  0
  5 10  1  6  0  0  0
  5  3  1  0  0  0  0
  5  4  1  0  0  0  0
  5  6  1  0  0  0  0
  6 13  1  0  0  0  0
  6  1  2  0  0  0  0
 12 11  3  0  0  0  0
 13 14  1  0  0  0  0
 14 16  1  0  0  0  0
 15 14  1  0  0  0  0
 17 14  1  0  0  0  0
 18 19  1  0  0  0  0
 19 21  1  0  0  0  0
 20 19  2  0  0  0  0
 21 23  1  0  0  0  0
 21 22  1  0  0  0  0
 24 21  1  0  0  0  0
M  RAD  2   2   2   3   2
M  END
