Coordinates from ORCA-job p-CH3O-Ph-N2-OOCCH3-B3LYPG-aug-cc-pVDZ-scan-d09-49-n400
 OpenBabel10311713213D

 24 24  0  0  1  0  0  0  0  0999 V2000
   11.5432    7.4844   -0.5253 C   0  0  0  0  0  0  0  0  0  0  0  0
   10.3020    7.3834   -1.0982 C   0  0  0  0  0  0  0  0  0  0  0  0
    9.9922    6.1853   -1.7713 C   0  0  1  0  0  0  0  0  0  0  0  0
   10.7342    4.9159   -1.7293 C   0  0  1  0  0  0  0  0  0  0  0  0
   12.1300    5.2194   -1.3100 C   0  0  0  0  0  0  0  0  0  0  0  0
   12.4736    6.3844   -0.6856 C   0  0  0  0  0  0  0  0  0  0  0  0
   11.8163    8.3875    0.0104 H   0  0  0  0  0  0  0  0  0  0  0  0
    9.5815    8.1975   -1.0502 H   0  0  0  0  0  0  0  0  0  0  0  0
   10.6966    4.3350   -2.6545 H   0  0  0  0  0  0  0  0  0  0  0  0
   12.8782    4.4437   -1.4556 H   0  0  0  0  0  0  0  0  0  0  0  0
    8.5952    6.1227   -2.4665 N   0  0  0  0  0  0  0  0  0  0  0  0
    7.5962    6.0436   -2.9786 N   0  0  0  0  0  0  0  0  0  0  0  0
   13.7651    6.4731   -0.2353 O   0  0  0  0  0  0  0  0  0  0  0  0
   14.2626    7.7301    0.2131 C   0  0  0  0  0  0  0  0  0  0  0  0
   15.3256    7.5683    0.4183 H   0  0  0  0  0  0  0  0  0  0  0  0
   13.7649    8.0566    1.1389 H   0  0  0  0  0  0  0  0  0  0  0  0
   14.1551    8.5059   -0.5599 H   0  0  0  0  0  0  0  0  0  0  0  0
   10.0439    4.0078   -0.7039 O   0  0  0  0  0  0  0  0  0  0  0  0
   10.2338    2.6830   -0.8611 C   0  0  0  0  0  0  0  0  0  0  0  0
   10.8932    2.1897   -1.7574 O   0  0  0  0  0  0  0  0  0  0  0  0
    9.5206    1.8905    0.2100 C   0  0  0  0  0  0  0  0  0  0  0  0
    9.8386    2.2320    1.2037 H   0  0  0  0  0  0  0  0  0  0  0  0
    8.4372    2.0564    0.1357 H   0  0  0  0  0  0  0  0  0  0  0  0
    9.7435    0.8269    0.0843 H   0  0  0  0  0  0  0  0  0  0  0  0
  1  7  1  0  0  0  0
  2  8  1  0  0  0  0
  2  1  2  0  0  0  0
  3 11  1  1  0  0  0
  3  4  1  0  0  0  0
  3  2  1  0  0  0  0
  4  9  1  6  0  0  0
  4  5  1  0  0  0  0
  4 18  1  0  0  0  0
  5  6  2  0  0  0  0
  6  1  1  0  0  0  0
  6 13  1  0  0  0  0
 10  5  1  0  0  0  0
 12 11  1  0  0  0  0
 13 14  1  0  0  0  0
 14 15  1  0  0  0  0
 14 16  1  0  0  0  0
 17 14  1  0  0  0  0
 19 18  1  0  0  0  0
 19 21  1  0  0  0  0
 20 19  2  0  0  0  0
 21 22  1  0  0  0  0
 23 21  1  0  0  0  0
 24 21  1  0  0  0  0
M  RAD  3   3   2  11   2  12   3
M  END
