Coordinates from ORCA-job p-CH3O-Ph-N2-OOCCH3-B3LYPG-aug-cc-pVDZ-scan-d09-49-n400
 OpenBabel10311713213D

 24 24  0  0  1  0  0  0  0  0999 V2000
   11.3396    7.2687   -0.1836 C   0  0  0  0  0  0  0  0  0  0  0  0
   10.0742    6.9465   -0.7357 C   0  0  0  0  0  0  0  0  0  0  0  0
   10.2322    6.1194   -1.8540 C   0  0  2  0  0  0  0  0  0  0  0  0
   10.3845    4.7059   -1.7766 C   0  0  1  0  0  0  0  0  0  0  0  0
   11.6874    5.7076   -1.8918 C   0  0  2  0  0  0  0  0  0  0  0  0
   12.2964    6.4799   -0.8287 C   0  0  0  0  0  0  0  0  0  0  0  0
   11.5103    7.9339    0.6591 H   0  0  0  0  0  0  0  0  0  0  0  0
    9.1192    7.1461   -0.2526 H   0  0  0  0  0  0  0  0  0  0  0  0
   10.4015    4.0557   -2.6516 H   0  0  0  0  0  0  0  0  0  0  0  0
   12.2621    5.4686   -2.7837 H   0  0  0  0  0  0  0  0  0  0  0  0
    8.9593    6.6202   -3.5427 N   0  0  0  0  0  0  0  0  0  0  0  0
    9.4171    6.9413   -4.5044 N   0  0  0  0  0  0  0  0  0  0  0  0
   13.6441    6.5088   -0.7190 O   0  0  0  0  0  0  0  0  0  0  0  0
   14.1898    7.4852    0.1687 C   0  0  0  0  0  0  0  0  0  0  0  0
   15.2770    7.4040    0.0792 H   0  0  0  0  0  0  0  0  0  0  0  0
   13.8879    7.2813    1.2069 H   0  0  0  0  0  0  0  0  0  0  0  0
   13.8624    8.4958   -0.1190 H   0  0  0  0  0  0  0  0  0  0  0  0
   10.0070    4.0244   -0.6088 O   0  0  0  0  0  0  0  0  0  0  0  0
   10.2362    2.6697   -0.5707 C   0  0  0  0  0  0  0  0  0  0  0  0
   10.7342    2.0531   -1.4819 O   0  0  0  0  0  0  0  0  0  0  0  0
    9.7838    2.0985    0.7452 C   0  0  0  0  0  0  0  0  0  0  0  0
   10.3559    2.5585    1.5623 H   0  0  0  0  0  0  0  0  0  0  0  0
    8.7245    2.3342    0.9123 H   0  0  0  0  0  0  0  0  0  0  0  0
    9.9370    1.0160    0.7425 H   0  0  0  0  0  0  0  0  0  0  0  0
  1  7  1  0  0  0  0
  2  8  1  0  0  0  0
  2  1  1  0  0  0  0
  3  4  1  0  0  0  0
  3  2  1  1  0  0  0
  4  9  1  6  0  0  0
  4 18  1  0  0  0  0
  5 10  1  6  0  0  0
  5  3  1  0  0  0  0
  5  4  1  0  0  0  0
  5  6  1  0  0  0  0
  6 13  1  0  0  0  0
  6  1  2  0  0  0  0
 12 11  3  0  0  0  0
 13 14  1  0  0  0  0
 14 16  1  0  0  0  0
 15 14  1  0  0  0  0
 17 14  1  0  0  0  0
 18 19  1  0  0  0  0
 19 21  1  0  0  0  0
 20 19  2  0  0  0  0
 21 23  1  0  0  0  0
 21 22  1  0  0  0  0
 24 21  1  0  0  0  0
M  RAD  2   2   2   3   2
M  END
