Coordinates from ORCA-job p-CH3O-Ph-N2-OOCCH3-B3LYPG-aug-cc-pVDZ-scan-d09-49-n400
 OpenBabel10311713213D

 24 24  0  0  1  0  0  0  0  0999 V2000
   11.3423    7.2696   -0.1825 C   0  0  0  0  0  0  0  0  0  0  0  0
   10.0769    6.9461   -0.7348 C   0  0  0  0  0  0  0  0  0  0  0  0
   10.2362    6.1185   -1.8516 C   0  0  2  0  0  0  0  0  0  0  0  0
   10.3841    4.7050   -1.7755 C   0  0  1  0  0  0  0  0  0  0  0  0
   11.6908    5.7069   -1.8888 C   0  0  2  0  0  0  0  0  0  0  0  0
   12.2991    6.4793   -0.8258 C   0  0  0  0  0  0  0  0  0  0  0  0
   11.5126    7.9357    0.6595 H   0  0  0  0  0  0  0  0  0  0  0  0
    9.1218    7.1440   -0.2510 H   0  0  0  0  0  0  0  0  0  0  0  0
   10.4035    4.0550   -2.6505 H   0  0  0  0  0  0  0  0  0  0  0  0
   12.2662    5.4655   -2.7796 H   0  0  0  0  0  0  0  0  0  0  0  0
    8.9381    6.6255   -3.5710 N   0  0  0  0  0  0  0  0  0  0  0  0
    9.3954    6.9550   -4.5290 N   0  0  0  0  0  0  0  0  0  0  0  0
   13.6468    6.5067   -0.7138 O   0  0  0  0  0  0  0  0  0  0  0  0
   14.1919    7.4836    0.1735 C   0  0  0  0  0  0  0  0  0  0  0  0
   15.2793    7.4012    0.0860 H   0  0  0  0  0  0  0  0  0  0  0  0
   13.8881    7.2814    1.2116 H   0  0  0  0  0  0  0  0  0  0  0  0
   13.8661    8.4942   -0.1158 H   0  0  0  0  0  0  0  0  0  0  0  0
   10.0049    4.0231   -0.6089 O   0  0  0  0  0  0  0  0  0  0  0  0
   10.2292    2.6673   -0.5726 C   0  0  0  0  0  0  0  0  0  0  0  0
   10.7319    2.0514   -1.4816 O   0  0  0  0  0  0  0  0  0  0  0  0
    9.7865    2.0983    0.7475 C   0  0  0  0  0  0  0  0  0  0  0  0
   10.3596    2.5644    1.5604 H   0  0  0  0  0  0  0  0  0  0  0  0
    8.7267    2.3287    0.9184 H   0  0  0  0  0  0  0  0  0  0  0  0
    9.9457    1.0167    0.7478 H   0  0  0  0  0  0  0  0  0  0  0  0
  1  7  1  0  0  0  0
  2  8  1  0  0  0  0
  2  1  1  0  0  0  0
  3  4  1  0  0  0  0
  3  2  1  1  0  0  0
  4  9  1  6  0  0  0
  4 18  1  0  0  0  0
  5 10  1  6  0  0  0
  5  3  1  0  0  0  0
  5  4  1  0  0  0  0
  5  6  1  0  0  0  0
  6 13  1  0  0  0  0
  6  1  2  0  0  0  0
 12 11  3  0  0  0  0
 13 14  1  0  0  0  0
 14 16  1  0  0  0  0
 15 14  1  0  0  0  0
 17 14  1  0  0  0  0
 18 19  1  0  0  0  0
 19 21  1  0  0  0  0
 20 19  2  0  0  0  0
 21 24  1  0  0  0  0
 21 23  1  0  0  0  0
 21 22  1  0  0  0  0
M  RAD  2   2   2   3   2
M  END
