Coordinates from ORCA-job p-CH3O-Ph-N2-OOCCH3-B3LYPG-aug-cc-pVDZ-scan-d09-49-n400
 OpenBabel10311713213D

 24 24  0  0  1  0  0  0  0  0999 V2000
   11.5489    7.3079   -0.0717 C   0  0  0  0  0  0  0  0  0  0  0  0
   10.3074    7.0039   -0.6872 C   0  0  0  0  0  0  0  0  0  0  0  0
   10.5209    6.1720   -1.7892 C   0  0  2  0  0  0  0  0  0  0  0  0
   10.5841    4.7568   -1.7340 C   0  0  1  0  0  0  0  0  0  0  0  0
   11.9630    5.7485   -1.7608 C   0  0  2  0  0  0  0  0  0  0  0  0
   12.5248    6.4986   -0.6653 C   0  0  0  0  0  0  0  0  0  0  0  0
   11.6880    7.9712    0.7783 H   0  0  0  0  0  0  0  0  0  0  0  0
    9.3321    7.2037   -0.2474 H   0  0  0  0  0  0  0  0  0  0  0  0
   10.6700    4.1154   -2.6101 H   0  0  0  0  0  0  0  0  0  0  0  0
   12.5730    5.4714   -2.6167 H   0  0  0  0  0  0  0  0  0  0  0  0
    7.2568    6.3239   -4.6737 N   0  0  0  0  0  0  0  0  0  0  0  0
    7.9706    6.7119   -5.4215 N   0  0  0  0  0  0  0  0  0  0  0  0
   13.8653    6.4919   -0.4672 O   0  0  0  0  0  0  0  0  0  0  0  0
   14.3751    7.4527    0.4563 C   0  0  0  0  0  0  0  0  0  0  0  0
   15.4638    7.3445    0.4390 H   0  0  0  0  0  0  0  0  0  0  0  0
   14.0009    7.2567    1.4725 H   0  0  0  0  0  0  0  0  0  0  0  0
   14.0940    8.4723    0.1513 H   0  0  0  0  0  0  0  0  0  0  0  0
   10.1160    4.0737   -0.6080 O   0  0  0  0  0  0  0  0  0  0  0  0
   10.2597    2.7034   -0.5918 C   0  0  0  0  0  0  0  0  0  0  0  0
   10.7587    2.0770   -1.4946 O   0  0  0  0  0  0  0  0  0  0  0  0
    9.7136    2.1370    0.6894 C   0  0  0  0  0  0  0  0  0  0  0  0
   10.2667    2.5539    1.5418 H   0  0  0  0  0  0  0  0  0  0  0  0
    8.6610    2.4265    0.8078 H   0  0  0  0  0  0  0  0  0  0  0  0
    9.8092    1.0481    0.6745 H   0  0  0  0  0  0  0  0  0  0  0  0
  1  7  1  0  0  0  0
  2  8  1  0  0  0  0
  2  1  1  0  0  0  0
  3  5  1  0  0  0  0
  3  4  1  0  0  0  0
  3  2  1  1  0  0  0
  4  9  1  6  0  0  0
  4 18  1  0  0  0  0
  5 10  1  6  0  0  0
  5  4  1  0  0  0  0
  5  6  1  0  0  0  0
  6 13  1  0  0  0  0
  6  1  2  0  0  0  0
 12 11  3  0  0  0  0
 13 14  1  0  0  0  0
 14 16  1  0  0  0  0
 15 14  1  0  0  0  0
 17 14  1  0  0  0  0
 18 19  1  0  0  0  0
 19 21  1  0  0  0  0
 20 19  2  0  0  0  0
 21 23  1  0  0  0  0
 21 22  1  0  0  0  0
 24 21  1  0  0  0  0
M  RAD  2   2   2   3   2
M  END
