Coordinates from ORCA-job p-CH3O-Ph-N2-OOCCH3-B3LYPG-aug-cc-pVDZ-scan-d09-49-n400
 OpenBabel10311713213D

 24 24  0  0  1  0  0  0  0  0999 V2000
   11.5731    7.3124   -0.0606 C   0  0  0  0  0  0  0  0  0  0  0  0
   10.3355    7.0158   -0.6879 C   0  0  0  0  0  0  0  0  0  0  0  0
   10.5552    6.1853   -1.7883 C   0  0  2  0  0  0  0  0  0  0  0  0
   10.6086    4.7702   -1.7367 C   0  0  1  0  0  0  0  0  0  0  0  0
   11.9944    5.7553   -1.7490 C   0  0  2  0  0  0  0  0  0  0  0  0
   12.5505    6.4998   -0.6472 C   0  0  0  0  0  0  0  0  0  0  0  0
   11.7077    7.9729    0.7924 H   0  0  0  0  0  0  0  0  0  0  0  0
    9.3570    7.2195   -0.2571 H   0  0  0  0  0  0  0  0  0  0  0  0
   10.6993    4.1306   -2.6137 H   0  0  0  0  0  0  0  0  0  0  0  0
   12.6101    5.4757   -2.5999 H   0  0  0  0  0  0  0  0  0  0  0  0
    7.0493    6.2608   -4.7797 N   0  0  0  0  0  0  0  0  0  0  0  0
    7.8163    6.6432   -5.4759 N   0  0  0  0  0  0  0  0  0  0  0  0
   13.8892    6.4857   -0.4368 O   0  0  0  0  0  0  0  0  0  0  0  0
   14.3951    7.4414    0.4940 C   0  0  0  0  0  0  0  0  0  0  0  0
   15.4833    7.3278    0.4866 H   0  0  0  0  0  0  0  0  0  0  0  0
   14.0104    7.2446    1.5062 H   0  0  0  0  0  0  0  0  0  0  0  0
   14.1219    8.4632    0.1891 H   0  0  0  0  0  0  0  0  0  0  0  0
   10.1259    4.0879   -0.6171 O   0  0  0  0  0  0  0  0  0  0  0  0
   10.2623    2.7166   -0.6016 C   0  0  0  0  0  0  0  0  0  0  0  0
   10.7675    2.0891   -1.5002 O   0  0  0  0  0  0  0  0  0  0  0  0
    9.7056    2.1517    0.6755 C   0  0  0  0  0  0  0  0  0  0  0  0
   10.2554    2.5652    1.5318 H   0  0  0  0  0  0  0  0  0  0  0  0
    8.6537    2.4461    0.7876 H   0  0  0  0  0  0  0  0  0  0  0  0
    9.7962    1.0623    0.6603 H   0  0  0  0  0  0  0  0  0  0  0  0
  1  7  1  0  0  0  0
  2  8  1  0  0  0  0
  2  1  1  0  0  0  0
  3  5  1  0  0  0  0
  3  4  1  0  0  0  0
  3  2  1  1  0  0  0
  4  9  1  6  0  0  0
  4 18  1  0  0  0  0
  5 10  1  6  0  0  0
  5  4  1  0  0  0  0
  5  6  1  0  0  0  0
  6 13  1  0  0  0  0
  6  1  2  0  0  0  0
 12 11  3  0  0  0  0
 13 14  1  0  0  0  0
 14 16  1  0  0  0  0
 15 14  1  0  0  0  0
 17 14  1  0  0  0  0
 18 19  1  0  0  0  0
 19 21  1  0  0  0  0
 20 19  2  0  0  0  0
 21 23  1  0  0  0  0
 21 22  1  0  0  0  0
 24 21  1  0  0  0  0
M  RAD  2   2   2   3   2
M  END
