Coordinates from ORCA-job p-CH3O-Ph-N2-OOCCH3-B3LYPG-aug-cc-pVDZ-scan-d09-49-n400
 OpenBabel10311713213D

 24 24  0  0  1  0  0  0  0  0999 V2000
   11.5017    7.4346   -0.4775 C   0  0  0  0  0  0  0  0  0  0  0  0
   10.2651    7.3488   -1.0239 C   0  0  0  0  0  0  0  0  0  0  0  0
    9.8647    6.1667   -1.7702 C   0  0  0  0  0  0  0  0  0  0  0  0
   10.7180    4.9108   -1.7037 C   0  0  1  0  0  0  0  0  0  0  0  0
   12.1186    5.2007   -1.2937 C   0  0  0  0  0  0  0  0  0  0  0  0
   12.4632    6.3546   -0.6710 C   0  0  0  0  0  0  0  0  0  0  0  0
   11.7734    8.3227    0.0861 H   0  0  0  0  0  0  0  0  0  0  0  0
    9.5437    8.1597   -0.9247 H   0  0  0  0  0  0  0  0  0  0  0  0
   10.6840    4.3604   -2.6496 H   0  0  0  0  0  0  0  0  0  0  0  0
   12.8617    4.4225   -1.4535 H   0  0  0  0  0  0  0  0  0  0  0  0
    8.8454    6.1347   -2.3849 N   0  0  0  0  0  0  0  0  0  0  0  0
    7.8648    6.0856   -2.9835 N   0  0  0  0  0  0  0  0  0  0  0  0
   13.7532    6.4702   -0.2287 O   0  0  0  0  0  0  0  0  0  0  0  0
   14.2564    7.7539    0.1369 C   0  0  0  0  0  0  0  0  0  0  0  0
   15.3284    7.6105    0.3047 H   0  0  0  0  0  0  0  0  0  0  0  0
   13.7957    8.1212    1.0663 H   0  0  0  0  0  0  0  0  0  0  0  0
   14.1093    8.4889   -0.6682 H   0  0  0  0  0  0  0  0  0  0  0  0
   10.0447    4.0222   -0.7051 O   0  0  0  0  0  0  0  0  0  0  0  0
   10.2367    2.6904   -0.8602 C   0  0  0  0  0  0  0  0  0  0  0  0
   10.9214    2.2052   -1.7376 O   0  0  0  0  0  0  0  0  0  0  0  0
    9.4895    1.9048    0.1890 C   0  0  0  0  0  0  0  0  0  0  0  0
    9.6585    2.3346    1.1840 H   0  0  0  0  0  0  0  0  0  0  0  0
    8.4115    1.9589   -0.0181 H   0  0  0  0  0  0  0  0  0  0  0  0
    9.8138    0.8605    0.1589 H   0  0  0  0  0  0  0  0  0  0  0  0
  1  7  1  0  0  0  0
  2  8  1  0  0  0  0
  2  1  1  0  0  0  0
  3  4  1  0  0  0  0
  3  2  2  0  0  0  0
  4  9  1  6  0  0  0
  4  5  1  0  0  0  0
  4 18  1  0  0  0  0
  5  6  1  0  0  0  0
  6  1  2  0  0  0  0
  6 13  1  0  0  0  0
 10  5  1  0  0  0  0
 11  3  1  0  0  0  0
 12 11  1  0  0  0  0
 13 14  1  0  0  0  0
 14 15  1  0  0  0  0
 14 16  1  0  0  0  0
 17 14  1  0  0  0  0
 19 18  1  0  0  0  0
 19 21  1  0  0  0  0
 20 19  2  0  0  0  0
 21 22  1  0  0  0  0
 23 21  1  0  0  0  0
 24 21  1  0  0  0  0
M  RAD  3   5   2  11   2  12   3
M  END
