Coordinates from ORCA-job p-CH3O-Ph-N2-OOCCH3-B3LYPG-aug-cc-pVDZ-scan-d09-49-n400
 OpenBabel10311713213D

 24 24  0  0  1  0  0  0  0  0999 V2000
   11.5050    7.3667   -0.4884 C   0  0  0  0  0  0  0  0  0  0  0  0
   10.2773    7.2583   -1.0884 C   0  0  0  0  0  0  0  0  0  0  0  0
   10.1637    6.2502   -2.0770 C   0  0  1  0  0  0  0  0  0  0  0  0
   10.7689    4.9255   -1.9229 C   0  0  1  0  0  0  0  0  0  0  0  0
   12.1868    5.2438   -1.5389 C   0  0  0  0  0  0  0  0  0  0  0  0
   12.4946    6.3455   -0.7916 C   0  0  0  0  0  0  0  0  0  0  0  0
   11.7359    8.2268    0.1317 H   0  0  0  0  0  0  0  0  0  0  0  0
    9.5011    8.0069   -0.9447 H   0  0  0  0  0  0  0  0  0  0  0  0
   10.7100    4.2897   -2.8078 H   0  0  0  0  0  0  0  0  0  0  0  0
   12.9372    4.4783   -1.7209 H   0  0  0  0  0  0  0  0  0  0  0  0
    8.3976    6.0090   -2.4559 N   0  0  0  0  0  0  0  0  0  0  0  0
    7.4463    5.9856   -3.0316 N   0  0  0  0  0  0  0  0  0  0  0  0
   13.7826    6.4405   -0.3442 O   0  0  0  0  0  0  0  0  0  0  0  0
   14.2052    7.6244    0.3276 C   0  0  0  0  0  0  0  0  0  0  0  0
   15.2738    7.4859    0.5191 H   0  0  0  0  0  0  0  0  0  0  0  0
   13.6818    7.7539    1.2868 H   0  0  0  0  0  0  0  0  0  0  0  0
   14.0607    8.5166   -0.2997 H   0  0  0  0  0  0  0  0  0  0  0  0
   10.0758    4.1262   -0.8238 O   0  0  0  0  0  0  0  0  0  0  0  0
   10.2910    2.7951   -0.8339 C   0  0  0  0  0  0  0  0  0  0  0  0
   10.9775    2.2223   -1.6586 O   0  0  0  0  0  0  0  0  0  0  0  0
    9.5879    2.1117    0.3159 C   0  0  0  0  0  0  0  0  0  0  0  0
   10.0590    2.4172    1.2606 H   0  0  0  0  0  0  0  0  0  0  0  0
    8.5344    2.4159    0.3595 H   0  0  0  0  0  0  0  0  0  0  0  0
    9.6693    1.0270    0.1989 H   0  0  0  0  0  0  0  0  0  0  0  0
  1  7  1  0  0  0  0
  2  8  1  0  0  0  0
  2  1  2  0  0  0  0
  3 11  1  1  0  0  0
  3  4  1  0  0  0  0
  3  2  1  0  0  0  0
  4  9  1  6  0  0  0
  4  5  1  0  0  0  0
  4 18  1  0  0  0  0
  5  6  2  0  0  0  0
  6  1  1  0  0  0  0
  6 13  1  0  0  0  0
 10  5  1  0  0  0  0
 12 11  1  0  0  0  0
 13 14  1  0  0  0  0
 14 15  1  0  0  0  0
 14 16  1  0  0  0  0
 17 14  1  0  0  0  0
 19 18  1  0  0  0  0
 19 21  1  0  0  0  0
 20 19  2  0  0  0  0
 21 23  1  0  0  0  0
 21 22  1  0  0  0  0
 24 21  1  0  0  0  0
M  RAD  3   3   2  11   2  12   3
M  END
