Coordinates from ORCA-job p-CH3O-Ph-N2-OOCCH3-B3LYPG-aug-cc-pVDZ-scan-d09-49-n400
 OpenBabel10311713213D

 24 24  0  0  1  0  0  0  0  0999 V2000
   11.4696    7.2930   -0.1118 C   0  0  0  0  0  0  0  0  0  0  0  0
   10.2167    6.9680   -0.6923 C   0  0  0  0  0  0  0  0  0  0  0  0
   10.4113    6.1338   -1.7965 C   0  0  2  0  0  0  0  0  0  0  0  0
   10.5014    4.7198   -1.7341 C   0  0  1  0  0  0  0  0  0  0  0  0
   11.8601    5.7297   -1.8043 C   0  0  2  0  0  0  0  0  0  0  0  0
   12.4403    6.4942   -0.7277 C   0  0  0  0  0  0  0  0  0  0  0  0
   11.6219    7.9617    0.7317 H   0  0  0  0  0  0  0  0  0  0  0  0
    9.2503    7.1558   -0.2278 H   0  0  0  0  0  0  0  0  0  0  0  0
   10.5696    4.0739   -2.6087 H   0  0  0  0  0  0  0  0  0  0  0  0
   12.4520    5.4585   -2.6748 H   0  0  0  0  0  0  0  0  0  0  0  0
    7.9525    6.4847   -4.3141 N   0  0  0  0  0  0  0  0  0  0  0  0
    8.4738    6.9209   -5.1853 N   0  0  0  0  0  0  0  0  0  0  0  0
   13.7854    6.5074   -0.5658 O   0  0  0  0  0  0  0  0  0  0  0  0
   14.3061    7.4798    0.3394 C   0  0  0  0  0  0  0  0  0  0  0  0
   15.3953    7.3870    0.2929 H   0  0  0  0  0  0  0  0  0  0  0  0
   13.9625    7.2831    1.3662 H   0  0  0  0  0  0  0  0  0  0  0  0
   14.0021    8.4937    0.0376 H   0  0  0  0  0  0  0  0  0  0  0  0
   10.0776    4.0367   -0.5900 O   0  0  0  0  0  0  0  0  0  0  0  0
   10.2466    2.6698   -0.5684 C   0  0  0  0  0  0  0  0  0  0  0  0
   10.7310    2.0456   -1.4808 O   0  0  0  0  0  0  0  0  0  0  0  0
    9.7428    2.1023    0.7296 C   0  0  0  0  0  0  0  0  0  0  0  0
   10.3078    2.5361    1.5656 H   0  0  0  0  0  0  0  0  0  0  0  0
    8.6878    2.3722    0.8712 H   0  0  0  0  0  0  0  0  0  0  0  0
    9.8590    1.0153    0.7198 H   0  0  0  0  0  0  0  0  0  0  0  0
  1  7  1  0  0  0  0
  2  8  1  0  0  0  0
  2  1  1  0  0  0  0
  3  4  1  0  0  0  0
  3  2  1  1  0  0  0
  4  9  1  6  0  0  0
  4 18  1  0  0  0  0
  5 10  1  6  0  0  0
  5  3  1  0  0  0  0
  5  4  1  0  0  0  0
  5  6  1  0  0  0  0
  6 13  1  0  0  0  0
  6  1  2  0  0  0  0
 12 11  3  0  0  0  0
 13 14  1  0  0  0  0
 14 16  1  0  0  0  0
 15 14  1  0  0  0  0
 17 14  1  0  0  0  0
 18 19  1  0  0  0  0
 19 21  1  0  0  0  0
 20 19  2  0  0  0  0
 21 23  1  0  0  0  0
 21 22  1  0  0  0  0
 24 21  1  0  0  0  0
M  RAD  2   2   2   3   2
M  END
