Coordinates from ORCA-job p-CH3O-Ph-N2-OOCCH3-B3LYPG-aug-cc-pVDZ-scan-d09-49-n400
 OpenBabel10311713213D

 24 24  0  0  1  0  0  0  0  0999 V2000
   11.5003    7.4328   -0.4754 C   0  0  0  0  0  0  0  0  0  0  0  0
   10.2636    7.3464   -1.0200 C   0  0  0  0  0  0  0  0  0  0  0  0
    9.8604    6.1648   -1.7706 C   0  0  0  0  0  0  0  0  0  0  0  0
   10.7193    4.9094   -1.7019 C   0  0  1  0  0  0  0  0  0  0  0  0
   12.1198    5.2005   -1.2929 C   0  0  0  0  0  0  0  0  0  0  0  0
   12.4639    6.3546   -0.6708 C   0  0  0  0  0  0  0  0  0  0  0  0
   11.7712    8.3203    0.0895 H   0  0  0  0  0  0  0  0  0  0  0  0
    9.5408    8.1558   -0.9179 H   0  0  0  0  0  0  0  0  0  0  0  0
   10.6853    4.3597   -2.6483 H   0  0  0  0  0  0  0  0  0  0  0  0
   12.8635    4.4230   -1.4536 H   0  0  0  0  0  0  0  0  0  0  0  0
    8.8598    6.1328   -2.3775 N   0  0  0  0  0  0  0  0  0  0  0  0
    7.8791    6.0837   -2.9791 N   0  0  0  0  0  0  0  0  0  0  0  0
   13.7539    6.4723   -0.2296 O   0  0  0  0  0  0  0  0  0  0  0  0
   14.2563    7.7574    0.1325 C   0  0  0  0  0  0  0  0  0  0  0  0
   15.3289    7.6157    0.2981 H   0  0  0  0  0  0  0  0  0  0  0  0
   13.7972    8.1259    1.0622 H   0  0  0  0  0  0  0  0  0  0  0  0
   14.1065    8.4907   -0.6738 H   0  0  0  0  0  0  0  0  0  0  0  0
   10.0466    4.0224   -0.7037 O   0  0  0  0  0  0  0  0  0  0  0  0
   10.2378    2.6902   -0.8586 C   0  0  0  0  0  0  0  0  0  0  0  0
   10.9200    2.2048   -1.7376 O   0  0  0  0  0  0  0  0  0  0  0  0
    9.4846    1.9051    0.1867 C   0  0  0  0  0  0  0  0  0  0  0  0
    9.6478    2.3351    1.1825 H   0  0  0  0  0  0  0  0  0  0  0  0
    8.4079    1.9592   -0.0269 H   0  0  0  0  0  0  0  0  0  0  0  0
    9.8088    0.8608    0.1585 H   0  0  0  0  0  0  0  0  0  0  0  0
  1  7  1  0  0  0  0
  2  8  1  0  0  0  0
  2  1  1  0  0  0  0
  3  4  1  0  0  0  0
  3  2  2  0  0  0  0
  4  9  1  6  0  0  0
  4  5  1  0  0  0  0
  4 18  1  0  0  0  0
  5  6  1  0  0  0  0
  6  1  2  0  0  0  0
  6 13  1  0  0  0  0
 10  5  1  0  0  0  0
 11  3  1  0  0  0  0
 12 11  1  0  0  0  0
 13 14  1  0  0  0  0
 14 15  1  0  0  0  0
 14 16  1  0  0  0  0
 17 14  1  0  0  0  0
 19 18  1  0  0  0  0
 19 21  1  0  0  0  0
 20 19  2  0  0  0  0
 21 22  1  0  0  0  0
 23 21  1  0  0  0  0
 24 21  1  0  0  0  0
M  RAD  3   5   2  11   2  12   3
M  END
