Coordinates from ORCA-job p-CH3O-Ph-N2-OOCCH3-B3LYPG-aug-cc-pVDZ-scan-d09-49-n400
 OpenBabel10311713213D

 24 24  0  0  1  0  0  0  0  0999 V2000
   11.5226    7.4635   -0.5064 C   0  0  0  0  0  0  0  0  0  0  0  0
   10.2837    7.3713   -1.0653 C   0  0  0  0  0  0  0  0  0  0  0  0
    9.9184    6.1764   -1.7591 C   0  0  1  0  0  0  0  0  0  0  0  0
   10.7200    4.9167   -1.7114 C   0  0  1  0  0  0  0  0  0  0  0  0
   12.1189    5.2074   -1.2946 C   0  0  0  0  0  0  0  0  0  0  0  0
   12.4652    6.3680   -0.6758 C   0  0  0  0  0  0  0  0  0  0  0  0
   11.8007    8.3626    0.0346 H   0  0  0  0  0  0  0  0  0  0  0  0
    9.5701    8.1915   -0.9991 H   0  0  0  0  0  0  0  0  0  0  0  0
   10.6846    4.3527   -2.6483 H   0  0  0  0  0  0  0  0  0  0  0  0
   12.8622    4.4272   -1.4412 H   0  0  0  0  0  0  0  0  0  0  0  0
    8.7119    6.1333   -2.4301 N   0  0  0  0  0  0  0  0  0  0  0  0
    7.7244    6.0722   -2.9888 N   0  0  0  0  0  0  0  0  0  0  0  0
   13.7557    6.4682   -0.2271 O   0  0  0  0  0  0  0  0  0  0  0  0
   14.2600    7.7388    0.1762 C   0  0  0  0  0  0  0  0  0  0  0  0
   15.3265    7.5829    0.3672 H   0  0  0  0  0  0  0  0  0  0  0  0
   13.7792    8.0918    1.1011 H   0  0  0  0  0  0  0  0  0  0  0  0
   14.1389    8.4916   -0.6170 H   0  0  0  0  0  0  0  0  0  0  0  0
   10.0417    4.0129   -0.7023 O   0  0  0  0  0  0  0  0  0  0  0  0
   10.2394    2.6861   -0.8605 C   0  0  0  0  0  0  0  0  0  0  0  0
   10.9119    2.2010   -1.7494 O   0  0  0  0  0  0  0  0  0  0  0  0
    9.5123    1.8921    0.1984 C   0  0  0  0  0  0  0  0  0  0  0  0
    9.7590    2.2753    1.1966 H   0  0  0  0  0  0  0  0  0  0  0  0
    8.4278    2.0028    0.0602 H   0  0  0  0  0  0  0  0  0  0  0  0
    9.7883    0.8369    0.1139 H   0  0  0  0  0  0  0  0  0  0  0  0
  1  7  1  0  0  0  0
  2  8  1  0  0  0  0
  2  1  2  0  0  0  0
  3 11  1  1  0  0  0
  3  4  1  0  0  0  0
  3  2  1  0  0  0  0
  4  9  1  6  0  0  0
  4  5  1  0  0  0  0
  4 18  1  0  0  0  0
  5  6  2  0  0  0  0
  6  1  1  0  0  0  0
  6 13  1  0  0  0  0
 10  5  1  0  0  0  0
 12 11  1  0  0  0  0
 13 14  1  0  0  0  0
 14 15  1  0  0  0  0
 14 16  1  0  0  0  0
 17 14  1  0  0  0  0
 19 18  1  0  0  0  0
 19 21  1  0  0  0  0
 20 19  2  0  0  0  0
 21 22  1  0  0  0  0
 23 21  1  0  0  0  0
 24 21  1  0  0  0  0
M  RAD  3   3   2  11   2  12   3
M  END
