Coordinates from ORCA-job p-CH3O-Ph-N2-OOCCH3-B3LYPG-aug-cc-pVDZ-scan-d09-49-n400
 OpenBabel10311713213D

 24 24  0  0  1  0  0  0  0  0999 V2000
   11.3275    7.2598   -0.1874 C   0  0  0  0  0  0  0  0  0  0  0  0
   10.0629    6.9490   -0.7442 C   0  0  0  0  0  0  0  0  0  0  0  0
   10.2165    6.1247   -1.8692 C   0  0  2  0  0  0  0  0  0  0  0  0
   10.3799    4.7101   -1.7870 C   0  0  1  0  0  0  0  0  0  0  0  0
   11.6733    5.7075   -1.9049 C   0  0  2  0  0  0  0  0  0  0  0  0
   12.2839    6.4753   -0.8380 C   0  0  0  0  0  0  0  0  0  0  0  0
   11.4986    7.9186    0.6603 H   0  0  0  0  0  0  0  0  0  0  0  0
    9.1068    7.1588   -0.2675 H   0  0  0  0  0  0  0  0  0  0  0  0
   10.3893    4.0599   -2.6623 H   0  0  0  0  0  0  0  0  0  0  0  0
   12.2473    5.4752   -2.7990 H   0  0  0  0  0  0  0  0  0  0  0  0
    9.0222    6.6138   -3.4657 N   0  0  0  0  0  0  0  0  0  0  0  0
    9.4808    6.9153   -4.4377 N   0  0  0  0  0  0  0  0  0  0  0  0
   13.6314    6.5050   -0.7320 O   0  0  0  0  0  0  0  0  0  0  0  0
   14.1789    7.4753    0.1615 C   0  0  0  0  0  0  0  0  0  0  0  0
   15.2659    7.3953    0.0685 H   0  0  0  0  0  0  0  0  0  0  0  0
   13.8797    7.2634    1.1988 H   0  0  0  0  0  0  0  0  0  0  0  0
   13.8500    8.4876   -0.1181 H   0  0  0  0  0  0  0  0  0  0  0  0
   10.0021    4.0315   -0.6168 O   0  0  0  0  0  0  0  0  0  0  0  0
   10.2441    2.6797   -0.5714 C   0  0  0  0  0  0  0  0  0  0  0  0
   10.7517    2.0638   -1.4778 O   0  0  0  0  0  0  0  0  0  0  0  0
    9.7910    2.1098    0.7449 C   0  0  0  0  0  0  0  0  0  0  0  0
   10.3617    2.5723    1.5616 H   0  0  0  0  0  0  0  0  0  0  0  0
    8.7312    2.3435    0.9109 H   0  0  0  0  0  0  0  0  0  0  0  0
    9.9470    1.0277    0.7443 H   0  0  0  0  0  0  0  0  0  0  0  0
  1  7  1  0  0  0  0
  2  8  1  0  0  0  0
  2  1  1  0  0  0  0
  3  4  1  0  0  0  0
  3  2  1  1  0  0  0
  4  9  1  6  0  0  0
  4 18  1  0  0  0  0
  5 10  1  6  0  0  0
  5  3  1  0  0  0  0
  5  4  1  0  0  0  0
  5  6  1  0  0  0  0
  6 13  1  0  0  0  0
  6  1  2  0  0  0  0
 12 11  3  0  0  0  0
 13 14  1  0  0  0  0
 14 16  1  0  0  0  0
 15 14  1  0  0  0  0
 17 14  1  0  0  0  0
 18 19  1  0  0  0  0
 19 21  1  0  0  0  0
 20 19  2  0  0  0  0
 21 23  1  0  0  0  0
 21 22  1  0  0  0  0
 24 21  1  0  0  0  0
M  RAD  2   2   2   3   2
M  END
