Coordinates from ORCA-job p-CH3O-Ph-N2-OOCCH3-B3LYPG-aug-cc-pVDZ-scan-d09-49-n400
 OpenBabel10311713213D

 24 24  0  0  1  0  0  0  0  0999 V2000
   11.3388    7.2683   -0.1839 C   0  0  0  0  0  0  0  0  0  0  0  0
   10.0733    6.9467   -0.7362 C   0  0  0  0  0  0  0  0  0  0  0  0
   10.2310    6.1197   -1.8549 C   0  0  2  0  0  0  0  0  0  0  0  0
   10.3841    4.7062   -1.7772 C   0  0  1  0  0  0  0  0  0  0  0  0
   11.6863    5.7076   -1.8926 C   0  0  2  0  0  0  0  0  0  0  0  0
   12.2955    6.4798   -0.8294 C   0  0  0  0  0  0  0  0  0  0  0  0
   11.5095    7.9332    0.6590 H   0  0  0  0  0  0  0  0  0  0  0  0
    9.1183    7.1468   -0.2534 H   0  0  0  0  0  0  0  0  0  0  0  0
   10.4005    4.0560   -2.6522 H   0  0  0  0  0  0  0  0  0  0  0  0
   12.2610    5.4692   -2.7848 H   0  0  0  0  0  0  0  0  0  0  0  0
    8.9647    6.6193   -3.5360 N   0  0  0  0  0  0  0  0  0  0  0  0
    9.4227    6.9385   -4.4986 N   0  0  0  0  0  0  0  0  0  0  0  0
   13.6432    6.5088   -0.7200 O   0  0  0  0  0  0  0  0  0  0  0  0
   14.1890    7.4849    0.1678 C   0  0  0  0  0  0  0  0  0  0  0  0
   15.2763    7.4037    0.0781 H   0  0  0  0  0  0  0  0  0  0  0  0
   13.8874    7.2806    1.2061 H   0  0  0  0  0  0  0  0  0  0  0  0
   13.8615    8.4955   -0.1194 H   0  0  0  0  0  0  0  0  0  0  0  0
   10.0067    4.0248   -0.6092 O   0  0  0  0  0  0  0  0  0  0  0  0
   10.2370    2.6703   -0.5707 C   0  0  0  0  0  0  0  0  0  0  0  0
   10.7351    2.0538   -1.4818 O   0  0  0  0  0  0  0  0  0  0  0  0
    9.7839    2.0990    0.7449 C   0  0  0  0  0  0  0  0  0  0  0  0
   10.3559    2.5588    1.5622 H   0  0  0  0  0  0  0  0  0  0  0  0
    8.7247    2.3349    0.9117 H   0  0  0  0  0  0  0  0  0  0  0  0
    9.9370    1.0165    0.7421 H   0  0  0  0  0  0  0  0  0  0  0  0
  1  7  1  0  0  0  0
  2  8  1  0  0  0  0
  2  1  1  0  0  0  0
  3  4  1  0  0  0  0
  3  2  1  1  0  0  0
  4  9  1  6  0  0  0
  4 18  1  0  0  0  0
  5 10  1  6  0  0  0
  5  3  1  0  0  0  0
  5  4  1  0  0  0  0
  5  6  1  0  0  0  0
  6 13  1  0  0  0  0
  6  1  2  0  0  0  0
 12 11  3  0  0  0  0
 13 14  1  0  0  0  0
 14 16  1  0  0  0  0
 15 14  1  0  0  0  0
 17 14  1  0  0  0  0
 18 19  1  0  0  0  0
 19 21  1  0  0  0  0
 20 19  2  0  0  0  0
 21 23  1  0  0  0  0
 21 22  1  0  0  0  0
 24 21  1  0  0  0  0
M  RAD  2   2   2   3   2
M  END
