Coordinates from ORCA-job p-CH3O-Ph-N2-OOCCH3-B3LYPG-aug-cc-pVDZ-scan-d09-49-n400
 OpenBabel10311713213D

 24 24  0  0  1  0  0  0  0  0999 V2000
   11.4909    7.4172   -0.4532 C   0  0  0  0  0  0  0  0  0  0  0  0
   10.2549    7.3320   -0.9900 C   0  0  0  0  0  0  0  0  0  0  0  0
    9.8357    6.1572   -1.7752 C   0  0  0  0  0  0  0  0  0  0  0  0
   10.7271    4.9019   -1.6928 C   0  0  1  0  0  0  0  0  0  0  0  0
   12.1266    5.1984   -1.2867 C   0  0  0  0  0  0  0  0  0  0  0  0
   12.4666    6.3505   -0.6627 C   0  0  0  0  0  0  0  0  0  0  0  0
   11.7563    8.2978    0.1260 H   0  0  0  0  0  0  0  0  0  0  0  0
    9.5220    8.1299   -0.8692 H   0  0  0  0  0  0  0  0  0  0  0  0
   10.6930    4.3612   -2.6448 H   0  0  0  0  0  0  0  0  0  0  0  0
   12.8731    4.4251   -1.4555 H   0  0  0  0  0  0  0  0  0  0  0  0
    8.9390    6.1280   -2.3405 N   0  0  0  0  0  0  0  0  0  0  0  0
    7.9589    6.0825   -2.9646 N   0  0  0  0  0  0  0  0  0  0  0  0
   13.7552    6.4792   -0.2235 O   0  0  0  0  0  0  0  0  0  0  0  0
   14.2577    7.7750    0.1018 C   0  0  0  0  0  0  0  0  0  0  0  0
   15.3337    7.6422    0.2515 H   0  0  0  0  0  0  0  0  0  0  0  0
   13.8133    8.1611    1.0314 H   0  0  0  0  0  0  0  0  0  0  0  0
   14.0895    8.4892   -0.7175 H   0  0  0  0  0  0  0  0  0  0  0  0
   10.0537    4.0254   -0.7012 O   0  0  0  0  0  0  0  0  0  0  0  0
   10.2334    2.6893   -0.8585 C   0  0  0  0  0  0  0  0  0  0  0  0
   10.9180    2.2028   -1.7338 O   0  0  0  0  0  0  0  0  0  0  0  0
    9.4587    1.9098    0.1738 C   0  0  0  0  0  0  0  0  0  0  0  0
    9.5603    2.3692    1.1642 H   0  0  0  0  0  0  0  0  0  0  0  0
    8.3927    1.9234   -0.0940 H   0  0  0  0  0  0  0  0  0  0  0  0
    9.8132    0.8750    0.1867 H   0  0  0  0  0  0  0  0  0  0  0  0
  1  7  1  0  0  0  0
  2  8  1  0  0  0  0
  2  1  1  0  0  0  0
  3  4  1  0  0  0  0
  3  2  2  0  0  0  0
  4  9  1  6  0  0  0
  4  5  1  0  0  0  0
  4 18  1  0  0  0  0
  5  6  1  0  0  0  0
  6  1  2  0  0  0  0
  6 13  1  0  0  0  0
 10  5  1  0  0  0  0
 11  3  1  0  0  0  0
 12 11  1  0  0  0  0
 13 14  1  0  0  0  0
 14 15  1  0  0  0  0
 14 16  1  0  0  0  0
 17 14  1  0  0  0  0
 19 18  1  0  0  0  0
 19 21  1  0  0  0  0
 20 19  2  0  0  0  0
 21 24  1  0  0  0  0
 21 22  1  0  0  0  0
 23 21  1  0  0  0  0
M  RAD  3   5   2  11   2  12   3
M  END
