Coordinates from ORCA-job p-CH3O-Ph-N2-OOCCH3-B3LYPG-aug-cc-pVDZ-scan-d09-49-n400
 OpenBabel10311713213D

 24 24  0  0  1  0  0  0  0  0999 V2000
   11.4841    7.2940   -0.1046 C   0  0  0  0  0  0  0  0  0  0  0  0
   10.2336    6.9737   -0.6932 C   0  0  0  0  0  0  0  0  0  0  0  0
   10.4323    6.1412   -1.7961 C   0  0  2  0  0  0  0  0  0  0  0  0
   10.5178    4.7274   -1.7349 C   0  0  1  0  0  0  0  0  0  0  0  0
   11.8796    5.7326   -1.7963 C   0  0  2  0  0  0  0  0  0  0  0  0
   12.4562    6.4934   -0.7157 C   0  0  0  0  0  0  0  0  0  0  0  0
   11.6334    7.9608    0.7409 H   0  0  0  0  0  0  0  0  0  0  0  0
    9.2649    7.1637   -0.2348 H   0  0  0  0  0  0  0  0  0  0  0  0
   10.5883    4.0823   -2.6097 H   0  0  0  0  0  0  0  0  0  0  0  0
   12.4755    5.4609   -2.6639 H   0  0  0  0  0  0  0  0  0  0  0  0
    7.8147    6.4601   -4.3872 N   0  0  0  0  0  0  0  0  0  0  0  0
    8.3670    6.8867   -5.2429 N   0  0  0  0  0  0  0  0  0  0  0  0
   13.8002    6.5020   -0.5457 O   0  0  0  0  0  0  0  0  0  0  0  0
   14.3188    7.4713    0.3640 C   0  0  0  0  0  0  0  0  0  0  0  0
   15.4079    7.3751    0.3237 H   0  0  0  0  0  0  0  0  0  0  0  0
   13.9685    7.2741    1.3885 H   0  0  0  0  0  0  0  0  0  0  0  0
   14.0198    8.4866    0.0621 H   0  0  0  0  0  0  0  0  0  0  0  0
   10.0857    4.0450   -0.5935 O   0  0  0  0  0  0  0  0  0  0  0  0
   10.2514    2.6776   -0.5714 C   0  0  0  0  0  0  0  0  0  0  0  0
   10.7410    2.0528   -1.4805 O   0  0  0  0  0  0  0  0  0  0  0  0
    9.7404    2.1111    0.7242 C   0  0  0  0  0  0  0  0  0  0  0  0
   10.3021    2.5441    1.5629 H   0  0  0  0  0  0  0  0  0  0  0  0
    8.6852    2.3826    0.8607 H   0  0  0  0  0  0  0  0  0  0  0  0
    9.8551    1.0239    0.7152 H   0  0  0  0  0  0  0  0  0  0  0  0
  1  7  1  0  0  0  0
  2  8  1  0  0  0  0
  2  1  1  0  0  0  0
  3  4  1  0  0  0  0
  3  2  1  1  0  0  0
  4  9  1  6  0  0  0
  4 18  1  0  0  0  0
  5 10  1  6  0  0  0
  5  3  1  0  0  0  0
  5  4  1  0  0  0  0
  5  6  1  0  0  0  0
  6 13  1  0  0  0  0
  6  1  2  0  0  0  0
 12 11  3  0  0  0  0
 13 14  1  0  0  0  0
 14 16  1  0  0  0  0
 15 14  1  0  0  0  0
 17 14  1  0  0  0  0
 18 19  1  0  0  0  0
 19 21  1  0  0  0  0
 20 19  2  0  0  0  0
 21 23  1  0  0  0  0
 21 22  1  0  0  0  0
 24 21  1  0  0  0  0
M  RAD  2   2   2   3   2
M  END
