Coordinates from ORCA-job p-CH3O-Ph-N2-OOCCH3-B3LYPG-aug-cc-pVDZ-scan-d09-49-n400
 OpenBabel10311713213D

 24 24  0  0  1  0  0  0  0  0999 V2000
   11.3933    7.2827   -0.1451 C   0  0  0  0  0  0  0  0  0  0  0  0
   10.1284    6.9489   -0.6936 C   0  0  0  0  0  0  0  0  0  0  0  0
   10.2975    6.1214   -1.8063 C   0  0  2  0  0  0  0  0  0  0  0  0
   10.4130    4.7088   -1.7447 C   0  0  1  0  0  0  0  0  0  0  0  0
   11.7505    5.7257   -1.8507 C   0  0  2  0  0  0  0  0  0  0  0  0
   12.3537    6.4944   -0.7887 C   0  0  0  0  0  0  0  0  0  0  0  0
   11.5620    7.9504    0.6960 H   0  0  0  0  0  0  0  0  0  0  0  0
    9.1740    7.1299   -0.2027 H   0  0  0  0  0  0  0  0  0  0  0  0
   10.4569    4.0637   -2.6218 H   0  0  0  0  0  0  0  0  0  0  0  0
   12.3237    5.4660   -2.7374 H   0  0  0  0  0  0  0  0  0  0  0  0
    8.6075    6.6017   -3.8887 N   0  0  0  0  0  0  0  0  0  0  0  0
    9.0764    6.9315   -4.8348 N   0  0  0  0  0  0  0  0  0  0  0  0
   13.7024    6.5215   -0.6673 O   0  0  0  0  0  0  0  0  0  0  0  0
   14.2404    7.4978    0.2238 C   0  0  0  0  0  0  0  0  0  0  0  0
   15.3285    7.4162    0.1443 H   0  0  0  0  0  0  0  0  0  0  0  0
   13.9298    7.2958    1.2600 H   0  0  0  0  0  0  0  0  0  0  0  0
   13.9168    8.5089   -0.0668 H   0  0  0  0  0  0  0  0  0  0  0  0
   10.0287    4.0199   -0.5886 O   0  0  0  0  0  0  0  0  0  0  0  0
   10.2207    2.6566   -0.5707 C   0  0  0  0  0  0  0  0  0  0  0  0
   10.6971    2.0401   -1.4926 O   0  0  0  0  0  0  0  0  0  0  0  0
    9.7653    2.0824    0.7423 C   0  0  0  0  0  0  0  0  0  0  0  0
   10.3431    2.5313    1.5615 H   0  0  0  0  0  0  0  0  0  0  0  0
    8.7088    2.3293    0.9119 H   0  0  0  0  0  0  0  0  0  0  0  0
    9.9053    0.9982    0.7323 H   0  0  0  0  0  0  0  0  0  0  0  0
  1  7  1  0  0  0  0
  2  8  1  0  0  0  0
  2  1  1  0  0  0  0
  3  4  1  0  0  0  0
  3  2  1  1  0  0  0
  4  9  1  6  0  0  0
  4 18  1  0  0  0  0
  5 10  1  6  0  0  0
  5  3  1  0  0  0  0
  5  4  1  0  0  0  0
  5  6  1  0  0  0  0
  6 13  1  0  0  0  0
  6  1  2  0  0  0  0
 12 11  3  0  0  0  0
 13 14  1  0  0  0  0
 14 16  1  0  0  0  0
 15 14  1  0  0  0  0
 17 14  1  0  0  0  0
 18 19  1  0  0  0  0
 19 21  1  0  0  0  0
 20 19  2  0  0  0  0
 21 23  1  0  0  0  0
 21 22  1  0  0  0  0
 24 21  1  0  0  0  0
M  RAD  2   2   2   3   2
M  END
