19
Coordinates from ORCA-job Ph-N2-HSO4-B3LYPG-6-31G_dp-MTMO-d009-169-n800
  C   -1.40467266927996      0.95479483974355      0.60773933983791
  C   -0.13877389976461      0.38705071301224      0.45674107412290
  C   0.43573621807264     -0.26348407712686      1.54453871546504
  C   -0.20966749580035     -0.36091862342864      2.77387668120746
  C   -1.47319651215556      0.21411698413838      2.91124109744761
  C   -2.07128283738365      0.86938957552470      1.83201922458982
  H   -1.86818946085024      1.46194066003239     -0.23282512824300
  H   0.39832723202766      0.43794345586807     -0.48388595799958
  N   14.24422971742599      1.86431137204163     -7.96377310494924
  N   15.29215005071924      1.94266802232445     -8.30635177738822
  H   -3.05621052991681      1.31119591717307      1.94443901167719
  H   -1.99076810271703      0.14694165462408      3.86334749664495
  H   0.27504278890267     -0.87250862756559      3.59720417086939
  S   3.04417474969408     -0.15885236046247      1.85248503755178
  O   4.08517709778492     -1.14931482506825      1.66921323239821
  O   1.67479817845428     -0.91344059811184      1.36062500326424
  O   2.80822716164856      0.54685740880617      3.09089734525739
  O   3.21419084482954      0.98709778965277      0.70654282985971
  H   3.70240746830874      0.58561071882223     -0.03257429161346
