19
Coordinates from ORCA-job Ph-N2-HSO4-B3LYPG-6-31G_dp-MTMO-d009-169-n800
  C   -0.91465911210345      0.75259338446595     -0.53777780990167
  C   0.24867346301088      0.40254869666550     -1.25797498595330
  C   1.22733226087911      0.11517944707658     -0.36577719628644
  C   1.44238849972433      0.05238412702485      0.92835599222123
  C   0.23014110590756      0.41401989278165      1.58740768400466
  C   -0.91463510596959      0.75345618424014      0.86277630751169
  H   -1.80404124501235      1.01912770766613     -1.10068328598663
  H   0.31559864628979      0.38141374819791     -2.33663813149300
  N   2.94901760139621     -0.54764393413886     -1.56728721923313
  N   3.84191422111293     -0.92054026752146     -2.09799238386527
  H   -1.82054498392076      1.02692067864233      1.39384387766126
  H   0.23674408220694      0.42782086858084      2.67382492353365
  H   2.44207935539421     -0.17996901310909      1.52165273127188
  S   4.79863075086827      0.44754315775791      1.59432037959671
  O   6.10498302012738     -0.20114810155234      1.72299719055712
  O   4.37545154133853      0.93409493807673      0.27219188614299
  O   3.68753469001301     -0.36684709899109      2.24810426128120
  O   4.89132413817325      1.81844554347848      2.51692279608451
  H   5.62376707056377      1.66200004065790      3.13323298285255
