19
Coordinates from ORCA-job Ph-N2-HSO4-B3LYPG-6-31G_dp-MTMO-d009-169-n800
  C   -0.55607975365844     -0.15061892662600     -0.37669525645862
  C   0.45110543863484      0.29205234337133     -1.17838626648957
  C   1.60315705240611      0.87852905650633     -0.56304187878400
  C   1.87263882096900      0.83092847844004      0.87852897466770
  C   0.65632022587020      0.52084383105055      1.64760331623639
  C   -0.45384303403047      0.01751933890965      1.05032665332032
  H   -1.44563149036442     -0.59614822014730     -0.80721996544935
  H   0.40032014989980      0.22855000730708     -2.26034628276796
  N   2.55507121224420      1.45963727731141     -1.37681770918675
  N   3.32250824052236      1.93974911338588     -2.05396038868573
  H   -1.31044492006795     -0.24599969117870      1.66475139612936
  H   0.70652334463507      0.65743024328691      2.72207862881538
  H   2.45979760572536      1.66405670054316      1.25865775751615
  S   4.39812723949280     -0.11199900974596      1.39465056440198
  O   5.14981715355115     -1.35201713215163      1.43440673076222
  O   4.83169287523862      0.98376814314094      0.52622228451616
  O   2.87227869480503     -0.43559676510939      1.18513337403557
  O   4.29212483759543      0.50891978374879      2.91823996161949
  H   5.15621630653132      0.90179542795694      3.12736810580129
