19
Coordinates from ORCA-job Ph-N2-HSO4-B3LYPG-6-31G_dp-MTMO-d009-169-n800
  C   -0.48521301255252      1.00097012217507      0.00821447852845
  C   0.82383447802299      0.56510412068345     -0.20009480922440
  C   1.48908847758985     -0.07853866199254      0.83942166033772
  C   0.89009770169314     -0.29616717369966      2.07700186210799
  C   -0.41732813015047      0.14946494442344      2.27268666562655
  C   -1.10542879372639      0.79514797312565      1.24244091174375
  H   -1.01827216597676      1.50046893347035     -0.79501859809317
  H   1.32747172459638      0.71170359331432     -1.14914102885217
  N   5.86426953826764      0.59401514912782     -2.19289296733536
  N   6.58488878319534      0.12774052579509     -2.88714608818060
  H   -2.12350542423422      1.13636267167962      1.40131578837205
  H   -0.89861504289678     -0.01183046891906      3.23249957136557
  H   1.44398002957122     -0.79686131592770      2.86219146428381
  S   4.08321339034833      0.23978249340396      1.13351783598803
  O   5.20924853872571     -0.61079169384732      0.80153024111478
  O   2.77781582519155     -0.59262471736066      0.58780260640007
  O   3.82702360033318      0.74786350180712      2.46215161044275
  O   4.08834890524434      1.52443025559977      0.14533677002593
  H   4.60078157675756      1.28515974714135     -0.65031797465178
