Coordinates from ORCA-job 4-NO2-Ph-N2-OTf-B3LYPG-6-31G_dp-MTMO-d009-169-n800
 OpenBabel09051908473D

 23 22  0  0  0  0  0  0  0  0999 V2000
   -2.3785   -0.9546   -6.3273 C   0  0  0  0  0  0  0  0  0  0  0  0
   -1.0200   -0.6782   -6.2122 C   0  0  0  0  0  0  0  0  0  0  0  0
   -0.4992   -0.3457   -4.9618 C   0  0  0  0  0  0  0  0  0  0  0  0
   -1.2971   -0.2816   -3.8194 C   0  0  0  0  0  0  0  0  0  0  0  0
   -2.6579   -0.5490   -3.9359 C   0  0  0  0  0  0  0  0  0  0  0  0
   -3.1756   -0.8825   -5.1862 C   0  0  0  0  0  0  0  0  0  0  0  0
   -2.8264   -1.2203   -7.2762 H   0  0  0  0  0  0  0  0  0  0  0  0
   -0.3626   -0.7201   -7.0728 H   0  0  0  0  0  0  0  0  0  0  0  0
   -0.8599   -0.0252   -2.8623 H   0  0  0  0  0  0  0  0  0  0  0  0
   -3.3177   -0.5093   -3.0785 H   0  0  0  0  0  0  0  0  0  0  0  0
   -4.6149   -1.1721   -5.3058 N   0  0  0  0  0  0  0  0  0  0  0  0
   -5.2948   -1.1056   -4.2836 O   0  0  0  0  0  0  0  0  0  0  0  0
   -5.0446   -1.4624   -6.4209 O   0  0  0  0  0  0  0  0  0  0  0  0
    4.7279    3.9176   -9.4626 N   0  0  0  0  0  0  0  0  0  0  0  0
    4.0148    3.4015   -8.7943 N   0  0  0  0  0  0  0  0  0  0  0  0
    1.5387    1.3044   -4.4841 S   0  0  0  0  0  0  0  0  0  0  0  0
    1.8730    1.9301   -6.2174 C   0  0  0  0  0  0  0  0  0  0  0  0
    0.5289    2.1639   -3.8908 O   0  0  0  0  0  0  0  0  0  0  0  0
    2.8164    1.0181   -3.8661 O   0  0  0  0  0  0  0  0  0  0  0  0
    0.8890   -0.1690   -4.8714 O   0  0  0  0  0  0  0  0  0  0  0  0
    0.7272    1.9581   -6.9010 F   0  0  0  0  0  0  0  0  0  0  0  0
    2.3740    3.1571   -6.1243 F   0  0  0  0  0  0  0  0  0  0  0  0
    2.7381    1.1259   -6.8229 F   0  0  0  0  0  0  0  0  0  0  0  0
  1  2  2  0  0  0  0
  1  6  1  0  0  0  0
  2  3  1  0  0  0  0
  3 20  1  0  0  0  0
  3  4  2  0  0  0  0
  4  9  1  0  0  0  0
  5  4  1  0  0  0  0
  5 10  1  0  0  0  0
  6  5  2  0  0  0  0
  7  1  1  0  0  0  0
  8  2  1  0  0  0  0
 11  6  1  0  0  0  0
 11 12  2  0  0  0  0
 13 11  2  0  0  0  0
 14 15  3  0  0  0  0
 16 18  2  0  0  0  0
 16 19  2  0  0  0  0
 17 22  1  0  0  0  0
 17 16  1  0  0  0  0
 20 16  1  0  0  0  0
 21 17  1  0  0  0  0
 23 17  1  0  0  0  0
M  END
