Coordinates from ORCA-job 4-NO2-Ph-N2-OTf-B3LYPG-6-31G_dp-MTMO-d009-169-n800
 OpenBabel09051908473D

 23 22  0  0  0  0  0  0  0  0999 V2000
   -2.0746   -1.0915   -6.0692 C   0  0  0  0  0  0  0  0  0  0  0  0
   -0.7222   -0.7900   -5.9425 C   0  0  0  0  0  0  0  0  0  0  0  0
   -0.3367    0.2175   -5.0591 C   0  0  0  0  0  0  0  0  0  0  0  0
   -1.2608    0.9267   -4.2939 C   0  0  0  0  0  0  0  0  0  0  0  0
   -2.6132    0.6207   -4.4145 C   0  0  0  0  0  0  0  0  0  0  0  0
   -2.9973   -0.3824   -5.3022 C   0  0  0  0  0  0  0  0  0  0  0  0
   -2.4225   -1.8653   -6.7421 H   0  0  0  0  0  0  0  0  0  0  0  0
    0.0235   -1.3265   -6.5153 H   0  0  0  0  0  0  0  0  0  0  0  0
   -0.9147    1.7013   -3.6198 H   0  0  0  0  0  0  0  0  0  0  0  0
   -3.3674    1.1427   -3.8401 H   0  0  0  0  0  0  0  0  0  0  0  0
   -4.4281   -0.7071   -5.4319 N   0  0  0  0  0  0  0  0  0  0  0  0
   -5.2199   -0.0692   -4.7404 O   0  0  0  0  0  0  0  0  0  0  0  0
   -4.7394   -1.5960   -6.2225 O   0  0  0  0  0  0  0  0  0  0  0  0
   -0.1469    4.0422   -5.3904 N   0  0  0  0  0  0  0  0  0  0  0  0
   -0.0617    5.0599   -5.8122 N   0  0  0  0  0  0  0  0  0  0  0  0
    1.9287    1.2579   -5.9881 S   0  0  0  0  0  0  0  0  0  0  0  0
    3.1381   -0.1347   -6.2981 C   0  0  0  0  0  0  0  0  0  0  0  0
    1.1464    1.4585   -7.1955 O   0  0  0  0  0  0  0  0  0  0  0  0
    2.6632    2.3171   -5.3252 O   0  0  0  0  0  0  0  0  0  0  0  0
    1.0223    0.4880   -4.8357 O   0  0  0  0  0  0  0  0  0  0  0  0
    2.4895   -1.1900   -6.7977 F   0  0  0  0  0  0  0  0  0  0  0  0
    4.0370    0.2928   -7.1795 F   0  0  0  0  0  0  0  0  0  0  0  0
    3.7357   -0.4715   -5.1621 F   0  0  0  0  0  0  0  0  0  0  0  0
  1  2  2  0  0  0  0
  1  6  1  0  0  0  0
  2  3  1  0  0  0  0
  3 20  1  0  0  0  0
  3  4  2  0  0  0  0
  4  9  1  0  0  0  0
  5  4  1  0  0  0  0
  5 10  1  0  0  0  0
  6  5  2  0  0  0  0
  7  1  1  0  0  0  0
  8  2  1  0  0  0  0
 11  6  1  0  0  0  0
 11 12  2  0  0  0  0
 13 11  2  0  0  0  0
 15 14  3  0  0  0  0
 16 19  2  0  0  0  0
 16 20  1  0  0  0  0
 17 16  1  0  0  0  0
 17 23  1  0  0  0  0
 18 16  2  0  0  0  0
 21 17  1  0  0  0  0
 22 17  1  0  0  0  0
M  END
