Coordinates from ORCA-job 4-NO2-Ph-N2-OTf-B3LYPG-6-31G_dp-MTMO-d009-169-n800
 OpenBabel09051908473D

 23 22  0  0  0  0  0  0  0  0999 V2000
   -2.3001   -0.8660   -6.3794 C   0  0  0  0  0  0  0  0  0  0  0  0
   -0.9438   -0.6077   -6.2086 C   0  0  0  0  0  0  0  0  0  0  0  0
   -0.4633   -0.3274   -4.9298 C   0  0  0  0  0  0  0  0  0  0  0  0
   -1.2993   -0.2959   -3.8138 C   0  0  0  0  0  0  0  0  0  0  0  0
   -2.6576   -0.5455   -3.9853 C   0  0  0  0  0  0  0  0  0  0  0  0
   -3.1349   -0.8282   -5.2638 C   0  0  0  0  0  0  0  0  0  0  0  0
   -2.7182   -1.0921   -7.3519 H   0  0  0  0  0  0  0  0  0  0  0  0
   -0.2583   -0.6231   -7.0478 H   0  0  0  0  0  0  0  0  0  0  0  0
   -0.8920   -0.0794   -2.8337 H   0  0  0  0  0  0  0  0  0  0  0  0
   -3.3460   -0.5303   -3.1500 H   0  0  0  0  0  0  0  0  0  0  0  0
   -4.5717   -1.0994   -5.4424 N   0  0  0  0  0  0  0  0  0  0  0  0
   -5.2853   -1.0635   -4.4418 O   0  0  0  0  0  0  0  0  0  0  0  0
   -4.9655   -1.3451   -6.5811 O   0  0  0  0  0  0  0  0  0  0  0  0
    3.9199    3.7424   -9.7286 N   0  0  0  0  0  0  0  0  0  0  0  0
    3.3707    3.1888   -8.9456 N   0  0  0  0  0  0  0  0  0  0  0  0
    1.5641    1.3002   -4.3590 S   0  0  0  0  0  0  0  0  0  0  0  0
    2.0747    1.8809   -6.0654 C   0  0  0  0  0  0  0  0  0  0  0  0
    0.5198    2.1891   -3.8797 O   0  0  0  0  0  0  0  0  0  0  0  0
    2.7733    1.0063   -3.6184 O   0  0  0  0  0  0  0  0  0  0  0  0
    0.9217   -0.1676   -4.7802 O   0  0  0  0  0  0  0  0  0  0  0  0
    1.0033    1.9142   -6.8594 F   0  0  0  0  0  0  0  0  0  0  0  0
    2.5876    3.1011   -5.9465 F   0  0  0  0  0  0  0  0  0  0  0  0
    2.9800    1.0494   -6.5658 F   0  0  0  0  0  0  0  0  0  0  0  0
  1  2  2  0  0  0  0
  1  6  1  0  0  0  0
  2  3  1  0  0  0  0
  3 20  1  0  0  0  0
  3  4  2  0  0  0  0
  4  9  1  0  0  0  0
  5  4  1  0  0  0  0
  5 10  1  0  0  0  0
  6  5  2  0  0  0  0
  7  1  1  0  0  0  0
  8  2  1  0  0  0  0
 11  6  1  0  0  0  0
 11 12  2  0  0  0  0
 13 11  2  0  0  0  0
 14 15  3  0  0  0  0
 16 18  2  0  0  0  0
 16 19  2  0  0  0  0
 17 22  1  0  0  0  0
 17 16  1  0  0  0  0
 20 16  1  0  0  0  0
 21 17  1  0  0  0  0
 23 17  1  0  0  0  0
M  END
