Coordinates from ORCA-job 4-NO2-Ph-N2-OTf-B3LYPG-6-31G_dp-MTMO-d009-169-n800
 OpenBabel09051908473D

 23 22  0  0  0  0  0  0  0  0999 V2000
   -1.9760   -1.7258   -5.7227 C   0  0  0  0  0  0  0  0  0  0  0  0
   -0.6692   -1.3215   -5.4705 C   0  0  0  0  0  0  0  0  0  0  0  0
   -0.4457   -0.0722   -4.8920 C   0  0  0  0  0  0  0  0  0  0  0  0
   -1.4910    0.7875   -4.5543 C   0  0  0  0  0  0  0  0  0  0  0  0
   -2.7981    0.3870   -4.8158 C   0  0  0  0  0  0  0  0  0  0  0  0
   -3.0192   -0.8621   -5.3928 C   0  0  0  0  0  0  0  0  0  0  0  0
   -2.1986   -2.6872   -6.1673 H   0  0  0  0  0  0  0  0  0  0  0  0
    0.1740   -1.9585   -5.7107 H   0  0  0  0  0  0  0  0  0  0  0  0
   -1.2824    1.7488   -4.1020 H   0  0  0  0  0  0  0  0  0  0  0  0
   -3.6426    1.0196   -4.5748 H   0  0  0  0  0  0  0  0  0  0  0  0
   -4.4041   -1.2862   -5.6616 N   0  0  0  0  0  0  0  0  0  0  0  0
   -5.3053   -0.5058   -5.3605 O   0  0  0  0  0  0  0  0  0  0  0  0
   -4.5695   -2.3936   -6.1697 O   0  0  0  0  0  0  0  0  0  0  0  0
    1.8914    5.6771   -5.3960 N   0  0  0  0  0  0  0  0  0  0  0  0
    2.5773    5.1579   -6.0897 N   0  0  0  0  0  0  0  0  0  0  0  0
    1.6551    1.5192   -5.2919 S   0  0  0  0  0  0  0  0  0  0  0  0
    2.3929    0.6105   -6.7518 C   0  0  0  0  0  0  0  0  0  0  0  0
    0.6923    2.4754   -5.8115 O   0  0  0  0  0  0  0  0  0  0  0  0
    2.7353    1.8722   -4.3955 O   0  0  0  0  0  0  0  0  0  0  0  0
    0.8801    0.2506   -4.5676 O   0  0  0  0  0  0  0  0  0  0  0  0
    1.4062    0.1123   -7.4989 F   0  0  0  0  0  0  0  0  0  0  0  0
    3.1086    1.4735   -7.4637 F   0  0  0  0  0  0  0  0  0  0  0  0
    3.1676   -0.3776   -6.3165 F   0  0  0  0  0  0  0  0  0  0  0  0
  1  2  2  0  0  0  0
  1  6  1  0  0  0  0
  2  3  1  0  0  0  0
  3 20  1  0  0  0  0
  3  4  2  0  0  0  0
  4  9  1  0  0  0  0
  5 10  1  0  0  0  0
  5  4  1  0  0  0  0
  6  5  2  0  0  0  0
  7  1  1  0  0  0  0
  8  2  1  0  0  0  0
 11  6  1  0  0  0  0
 11 12  2  0  0  0  0
 13 11  2  0  0  0  0
 15 14  3  0  0  0  0
 16 20  1  0  0  0  0
 16 19  2  0  0  0  0
 17 23  1  0  0  0  0
 17 16  1  0  0  0  0
 18 16  2  0  0  0  0
 21 17  1  0  0  0  0
 22 17  1  0  0  0  0
M  END
