Coordinates from ORCA-job 4-NO2-Ph-N2-OTf-B3LYPG-6-31G_dp-MTMO-d009-169-n800
 OpenBabel09051908473D

 23 22  0  0  0  0  0  0  0  0999 V2000
   -2.5024   -1.1734   -6.1771 C   0  0  0  0  0  0  0  0  0  0  0  0
   -1.1317   -0.9433   -6.1201 C   0  0  0  0  0  0  0  0  0  0  0  0
   -0.5772   -0.4378   -4.9443 C   0  0  0  0  0  0  0  0  0  0  0  0
   -1.3530   -0.1545   -3.8201 C   0  0  0  0  0  0  0  0  0  0  0  0
   -2.7259   -0.3752   -3.8804 C   0  0  0  0  0  0  0  0  0  0  0  0
   -3.2773   -0.8825   -5.0555 C   0  0  0  0  0  0  0  0  0  0  0  0
   -2.9764   -1.5677   -7.0669 H   0  0  0  0  0  0  0  0  0  0  0  0
   -0.4898   -1.1526   -6.9680 H   0  0  0  0  0  0  0  0  0  0  0  0
   -0.8901    0.2334   -2.9211 H   0  0  0  0  0  0  0  0  0  0  0  0
   -3.3699   -0.1677   -3.0354 H   0  0  0  0  0  0  0  0  0  0  0  0
   -4.7295   -1.1224   -5.1138 N   0  0  0  0  0  0  0  0  0  0  0  0
   -5.3894   -0.8600   -4.1103 O   0  0  0  0  0  0  0  0  0  0  0  0
   -5.1890   -1.5705   -6.1629 O   0  0  0  0  0  0  0  0  0  0  0  0
    5.4810    5.2092   -8.8819 N   0  0  0  0  0  0  0  0  0  0  0  0
    4.7211    4.5359   -8.4447 N   0  0  0  0  0  0  0  0  0  0  0  0
    1.5432    1.1670   -4.7397 S   0  0  0  0  0  0  0  0  0  0  0  0
    1.8252    1.5394   -6.5530 C   0  0  0  0  0  0  0  0  0  0  0  0
    0.5969    2.1443   -4.2298 O   0  0  0  0  0  0  0  0  0  0  0  0
    2.8335    0.9045   -4.1380 O   0  0  0  0  0  0  0  0  0  0  0  0
    0.8186   -0.3131   -4.8987 O   0  0  0  0  0  0  0  0  0  0  0  0
    0.6478    1.5694   -7.1801 F   0  0  0  0  0  0  0  0  0  0  0  0
    2.4206    2.7230   -6.6493 F   0  0  0  0  0  0  0  0  0  0  0  0
    2.5928    0.5957   -7.0868 F   0  0  0  0  0  0  0  0  0  0  0  0
  1  2  2  0  0  0  0
  1  6  1  0  0  0  0
  2  3  1  0  0  0  0
  3 20  1  0  0  0  0
  3  4  2  0  0  0  0
  4  9  1  0  0  0  0
  5  4  1  0  0  0  0
  5 10  1  0  0  0  0
  6  5  2  0  0  0  0
  7  1  1  0  0  0  0
  8  2  1  0  0  0  0
 11  6  1  0  0  0  0
 11 12  2  0  0  0  0
 13 11  2  0  0  0  0
 14 15  3  0  0  0  0
 16 18  2  0  0  0  0
 16 19  2  0  0  0  0
 17 16  1  0  0  0  0
 20 16  1  0  0  0  0
 21 17  1  0  0  0  0
 22 17  1  0  0  0  0
 23 17  1  0  0  0  0
M  END
