Coordinates from ORCA-job 4-NO2-Ph-N2-OTf-B3LYPG-6-31G_dp-MTMO-d009-169-n800
 OpenBabel09051908473D

 23 22  0  0  0  0  0  0  0  0999 V2000
   -2.6406   -1.2744   -6.1196 C   0  0  0  0  0  0  0  0  0  0  0  0
   -1.2693   -1.0600   -6.0267 C   0  0  0  0  0  0  0  0  0  0  0  0
   -0.7351   -0.5956   -4.8247 C   0  0  0  0  0  0  0  0  0  0  0  0
   -1.5316   -0.3409   -3.7081 C   0  0  0  0  0  0  0  0  0  0  0  0
   -2.9050   -0.5457   -3.8042 C   0  0  0  0  0  0  0  0  0  0  0  0
   -3.4363   -1.0102   -5.0060 C   0  0  0  0  0  0  0  0  0  0  0  0
   -3.0993   -1.6363   -7.0308 H   0  0  0  0  0  0  0  0  0  0  0  0
   -0.6116   -1.2504   -6.8669 H   0  0  0  0  0  0  0  0  0  0  0  0
   -1.0842    0.0139   -2.7880 H   0  0  0  0  0  0  0  0  0  0  0  0
   -3.5646   -0.3586   -2.9665 H   0  0  0  0  0  0  0  0  0  0  0  0
   -4.8892   -1.2327   -5.1022 N   0  0  0  0  0  0  0  0  0  0  0  0
   -5.5679   -0.9933   -4.1054 O   0  0  0  0  0  0  0  0  0  0  0  0
   -5.3305   -1.6444   -6.1737 O   0  0  0  0  0  0  0  0  0  0  0  0
    7.2456    6.5859  -10.1714 N   0  0  0  0  0  0  0  0  0  0  0  0
    6.4323    5.9452   -9.7845 N   0  0  0  0  0  0  0  0  0  0  0  0
    1.3931    0.9816   -4.5244 S   0  0  0  0  0  0  0  0  0  0  0  0
    1.6244    1.4614   -6.3186 C   0  0  0  0  0  0  0  0  0  0  0  0
    0.4658    1.9303   -3.9324 O   0  0  0  0  0  0  0  0  0  0  0  0
    2.6978    0.6797   -3.9750 O   0  0  0  0  0  0  0  0  0  0  0  0
    0.6607   -0.4851   -4.7482 O   0  0  0  0  0  0  0  0  0  0  0  0
    0.4297    1.5408   -6.9072 F   0  0  0  0  0  0  0  0  0  0  0  0
    2.2288    2.6436   -6.3602 F   0  0  0  0  0  0  0  0  0  0  0  0
    2.3660    0.5463   -6.9332 F   0  0  0  0  0  0  0  0  0  0  0  0
  1  2  2  0  0  0  0
  1  6  1  0  0  0  0
  2  3  1  0  0  0  0
  3 20  1  0  0  0  0
  3  4  2  0  0  0  0
  4  9  1  0  0  0  0
  5  4  1  0  0  0  0
  5 10  1  0  0  0  0
  6  5  2  0  0  0  0
  7  1  1  0  0  0  0
  8  2  1  0  0  0  0
 11  6  1  0  0  0  0
 11 12  2  0  0  0  0
 13 11  2  0  0  0  0
 14 15  3  0  0  0  0
 16 19  2  0  0  0  0
 16 18  2  0  0  0  0
 17 16  1  0  0  0  0
 20 16  1  0  0  0  0
 21 17  1  0  0  0  0
 22 17  1  0  0  0  0
 23 17  1  0  0  0  0
M  END
