Coordinates from ORCA-job 4-NO2-Ph-N2-OTf-B3LYPG-6-31G_dp-MTMO-d009-169-n800
 OpenBabel09051908483D

 23 22  0  0  0  0  0  0  0  0999 V2000
   -2.7006   -1.3208   -6.0844 C   0  0  0  0  0  0  0  0  0  0  0  0
   -1.3294   -1.1055   -5.9927 C   0  0  0  0  0  0  0  0  0  0  0  0
   -0.7942   -0.6427   -4.7905 C   0  0  0  0  0  0  0  0  0  0  0  0
   -1.5896   -0.3904   -3.6726 C   0  0  0  0  0  0  0  0  0  0  0  0
   -2.9630   -0.5960   -3.7675 C   0  0  0  0  0  0  0  0  0  0  0  0
   -3.4953   -1.0590   -4.9695 C   0  0  0  0  0  0  0  0  0  0  0  0
   -3.1600   -1.6817   -6.9957 H   0  0  0  0  0  0  0  0  0  0  0  0
   -0.6724   -1.2942   -6.8338 H   0  0  0  0  0  0  0  0  0  0  0  0
   -1.1415   -0.0367   -2.7524 H   0  0  0  0  0  0  0  0  0  0  0  0
   -3.6218   -0.4108   -2.9288 H   0  0  0  0  0  0  0  0  0  0  0  0
   -4.9482   -1.2824   -5.0645 N   0  0  0  0  0  0  0  0  0  0  0  0
   -5.6259   -1.0450   -4.0666 O   0  0  0  0  0  0  0  0  0  0  0  0
   -5.3903   -1.6928   -6.1362 O   0  0  0  0  0  0  0  0  0  0  0  0
    7.8777    7.0781  -10.5369 N   0  0  0  0  0  0  0  0  0  0  0  0
    7.0585    6.4361  -10.1649 N   0  0  0  0  0  0  0  0  0  0  0  0
    1.3333    0.9355   -4.4898 S   0  0  0  0  0  0  0  0  0  0  0  0
    1.5614    1.4189   -6.2834 C   0  0  0  0  0  0  0  0  0  0  0  0
    0.4062    1.8823   -3.8946 O   0  0  0  0  0  0  0  0  0  0  0  0
    2.6390    0.6335   -3.9431 O   0  0  0  0  0  0  0  0  0  0  0  0
    0.6016   -0.5313   -4.7153 O   0  0  0  0  0  0  0  0  0  0  0  0
    0.3657    1.4989   -6.8700 F   0  0  0  0  0  0  0  0  0  0  0  0
    2.1652    2.6016   -6.3236 F   0  0  0  0  0  0  0  0  0  0  0  0
    2.3026    0.5056   -6.9011 F   0  0  0  0  0  0  0  0  0  0  0  0
  1  2  2  0  0  0  0
  1  6  1  0  0  0  0
  2  3  1  0  0  0  0
  3 20  1  0  0  0  0
  3  4  2  0  0  0  0
  4  9  1  0  0  0  0
  5  4  1  0  0  0  0
  5 10  1  0  0  0  0
  6  5  2  0  0  0  0
  7  1  1  0  0  0  0
  8  2  1  0  0  0  0
 11  6  1  0  0  0  0
 11 12  2  0  0  0  0
 13 11  2  0  0  0  0
 14 15  3  0  0  0  0
 16 19  2  0  0  0  0
 16 18  2  0  0  0  0
 17 16  1  0  0  0  0
 20 16  1  0  0  0  0
 21 17  1  0  0  0  0
 22 17  1  0  0  0  0
 23 17  1  0  0  0  0
M  END
