Coordinates from ORCA-job 4-NO2-Ph-N2-OTf-B3LYPG-6-31G_dp-MTMO-d009-169-n800
 OpenBabel09051908483D

 23 22  0  0  0  0  0  0  0  0999 V2000
   -2.7871   -1.3897   -6.0313 C   0  0  0  0  0  0  0  0  0  0  0  0
   -1.4160   -1.1719   -5.9438 C   0  0  0  0  0  0  0  0  0  0  0  0
   -0.8780   -0.7084   -4.7432 C   0  0  0  0  0  0  0  0  0  0  0  0
   -1.6705   -0.4576   -3.6228 C   0  0  0  0  0  0  0  0  0  0  0  0
   -3.0437   -0.6658   -3.7136 C   0  0  0  0  0  0  0  0  0  0  0  0
   -3.5789   -1.1296   -4.9140 C   0  0  0  0  0  0  0  0  0  0  0  0
   -3.2486   -1.7514   -6.9413 H   0  0  0  0  0  0  0  0  0  0  0  0
   -0.7612   -1.3592   -6.7870 H   0  0  0  0  0  0  0  0  0  0  0  0
   -1.2202   -0.1033   -2.7040 H   0  0  0  0  0  0  0  0  0  0  0  0
   -3.7004   -0.4820   -2.8728 H   0  0  0  0  0  0  0  0  0  0  0  0
   -5.0316   -1.3558   -5.0046 N   0  0  0  0  0  0  0  0  0  0  0  0
   -5.7067   -1.1198   -4.0046 O   0  0  0  0  0  0  0  0  0  0  0  0
   -5.4762   -1.7669   -6.0750 O   0  0  0  0  0  0  0  0  0  0  0  0
    8.7779    7.7752  -11.0489 N   0  0  0  0  0  0  0  0  0  0  0  0
    7.9569    7.1348  -10.6782 N   0  0  0  0  0  0  0  0  0  0  0  0
    1.2477    0.8734   -4.4486 S   0  0  0  0  0  0  0  0  0  0  0  0
    1.4692    1.3579   -6.2427 C   0  0  0  0  0  0  0  0  0  0  0  0
    0.3209    1.8185   -3.8500 O   0  0  0  0  0  0  0  0  0  0  0  0
    2.5556    0.5735   -3.9061 O   0  0  0  0  0  0  0  0  0  0  0  0
    0.5178   -0.5945   -4.6722 O   0  0  0  0  0  0  0  0  0  0  0  0
    0.2715    1.4363   -6.8254 F   0  0  0  0  0  0  0  0  0  0  0  0
    2.0710    2.5416   -6.2844 F   0  0  0  0  0  0  0  0  0  0  0  0
    2.2098    0.4460   -6.8632 F   0  0  0  0  0  0  0  0  0  0  0  0
  1  2  2  0  0  0  0
  1  6  1  0  0  0  0
  2  3  1  0  0  0  0
  3 20  1  0  0  0  0
  3  4  2  0  0  0  0
  4  9  1  0  0  0  0
  5  4  1  0  0  0  0
  5 10  1  0  0  0  0
  6  5  2  0  0  0  0
  7  1  1  0  0  0  0
  8  2  1  0  0  0  0
 11  6  1  0  0  0  0
 11 12  2  0  0  0  0
 13 11  2  0  0  0  0
 14 15  3  0  0  0  0
 16 19  2  0  0  0  0
 16 18  2  0  0  0  0
 17 16  1  0  0  0  0
 20 16  1  0  0  0  0
 21 17  1  0  0  0  0
 22 17  1  0  0  0  0
 23 17  1  0  0  0  0
M  END
