Coordinates from ORCA-job 4-NO2-Ph-N2-OTf-B3LYPG-6-31G_dp-MTMO-d009-169-n800
 OpenBabel09051908473D

 23 22  0  0  0  0  0  0  0  0999 V2000
   -1.9456   -1.3871   -6.1444 C   0  0  0  0  0  0  0  0  0  0  0  0
   -0.6264   -1.1640   -5.7635 C   0  0  0  0  0  0  0  0  0  0  0  0
   -0.3603   -0.2442   -4.7493 C   0  0  0  0  0  0  0  0  0  0  0  0
   -1.3743    0.4605   -4.1009 C   0  0  0  0  0  0  0  0  0  0  0  0
   -2.6938    0.2435   -4.4874 C   0  0  0  0  0  0  0  0  0  0  0  0
   -2.9574   -0.6768   -5.5003 C   0  0  0  0  0  0  0  0  0  0  0  0
   -2.2016   -2.0923   -6.9252 H   0  0  0  0  0  0  0  0  0  0  0  0
    0.1939   -1.6917   -6.2356 H   0  0  0  0  0  0  0  0  0  0  0  0
   -1.1307    1.1643   -3.3144 H   0  0  0  0  0  0  0  0  0  0  0  0
   -3.5154    0.7668   -4.0161 H   0  0  0  0  0  0  0  0  0  0  0  0
   -4.3550   -0.9096   -5.9034 N   0  0  0  0  0  0  0  0  0  0  0  0
   -5.2283   -0.2710   -5.3193 O   0  0  0  0  0  0  0  0  0  0  0  0
   -4.5583   -1.7281   -6.7985 O   0  0  0  0  0  0  0  0  0  0  0  0
    1.0843    5.1306   -7.7999 N   0  0  0  0  0  0  0  0  0  0  0  0
    1.4033    4.0854   -7.6353 N   0  0  0  0  0  0  0  0  0  0  0  0
    1.8133    1.2870   -4.5726 S   0  0  0  0  0  0  0  0  0  0  0  0
    2.5165    0.9114   -6.2672 C   0  0  0  0  0  0  0  0  0  0  0  0
    0.9015    2.4100   -4.7062 O   0  0  0  0  0  0  0  0  0  0  0  0
    2.9064    1.2458   -3.6244 O   0  0  0  0  0  0  0  0  0  0  0  0
    0.9723   -0.1180   -4.3323 O   0  0  0  0  0  0  0  0  0  0  0  0
    1.5186    0.8405   -7.1488 F   0  0  0  0  0  0  0  0  0  0  0  0
    3.3519    1.8878   -6.6020 F   0  0  0  0  0  0  0  0  0  0  0  0
    3.1640   -0.2497   -6.2308 F   0  0  0  0  0  0  0  0  0  0  0  0
  1  2  2  0  0  0  0
  1  6  1  0  0  0  0
  2  3  1  0  0  0  0
  3 20  1  0  0  0  0
  3  4  2  0  0  0  0
  4  9  1  0  0  0  0
  5  4  1  0  0  0  0
  5 10  1  0  0  0  0
  6  5  2  0  0  0  0
  7  1  1  0  0  0  0
  8  2  1  0  0  0  0
 11  6  1  0  0  0  0
 11 12  2  0  0  0  0
 13 11  2  0  0  0  0
 14 15  3  0  0  0  0
 16 20  1  0  0  0  0
 16 19  2  0  0  0  0
 17 23  1  0  0  0  0
 17 16  1  0  0  0  0
 18 16  2  0  0  0  0
 21 17  1  0  0  0  0
 22 17  1  0  0  0  0
M  END
