Coordinates from ORCA-job 4-NO2-Ph-N2-OTf-B3LYPG-6-31G_dp-MTMO-d009-169-n800
 OpenBabel09051908473D

 23 22  0  0  0  0  0  0  0  0999 V2000
   -2.4578   -1.1058   -6.2303 C   0  0  0  0  0  0  0  0  0  0  0  0
   -1.0897   -0.8654   -6.1555 C   0  0  0  0  0  0  0  0  0  0  0  0
   -0.5454   -0.4113   -4.9542 C   0  0  0  0  0  0  0  0  0  0  0  0
   -1.3290   -0.1906   -3.8213 C   0  0  0  0  0  0  0  0  0  0  0  0
   -2.6994   -0.4214   -3.8990 C   0  0  0  0  0  0  0  0  0  0  0  0
   -3.2406   -0.8766   -5.1000 C   0  0  0  0  0  0  0  0  0  0  0  0
   -2.9238   -1.4617   -7.1402 H   0  0  0  0  0  0  0  0  0  0  0  0
   -0.4422   -1.0279   -7.0093 H   0  0  0  0  0  0  0  0  0  0  0  0
   -0.8743    0.1574   -2.9022 H   0  0  0  0  0  0  0  0  0  0  0  0
   -3.3490   -0.2614   -3.0480 H   0  0  0  0  0  0  0  0  0  0  0  0
   -4.6900   -1.1273   -5.1770 N   0  0  0  0  0  0  0  0  0  0  0  0
   -5.3574   -0.9176   -4.1660 O   0  0  0  0  0  0  0  0  0  0  0  0
   -5.1400   -1.5309   -6.2480 O   0  0  0  0  0  0  0  0  0  0  0  0
    5.2249    4.7627   -9.0153 N   0  0  0  0  0  0  0  0  0  0  0  0
    4.4626    4.1294   -8.5259 N   0  0  0  0  0  0  0  0  0  0  0  0
    1.5570    1.2032   -4.6617 S   0  0  0  0  0  0  0  0  0  0  0  0
    1.8235    1.6786   -6.4530 C   0  0  0  0  0  0  0  0  0  0  0  0
    0.6025    2.1400   -4.0942 O   0  0  0  0  0  0  0  0  0  0  0  0
    2.8537    0.9236   -4.0820 O   0  0  0  0  0  0  0  0  0  0  0  0
    0.8489   -0.2751   -4.8961 O   0  0  0  0  0  0  0  0  0  0  0  0
    0.6433    1.7185   -7.0743 F   0  0  0  0  0  0  0  0  0  0  0  0
    2.3928    2.8783   -6.4846 F   0  0  0  0  0  0  0  0  0  0  0  0
    2.6085    0.7825   -7.0399 F   0  0  0  0  0  0  0  0  0  0  0  0
  1  2  2  0  0  0  0
  1  6  1  0  0  0  0
  2  3  1  0  0  0  0
  3 20  1  0  0  0  0
  3  4  2  0  0  0  0
  4  9  1  0  0  0  0
  5  4  1  0  0  0  0
  5 10  1  0  0  0  0
  6  5  2  0  0  0  0
  7  1  1  0  0  0  0
  8  2  1  0  0  0  0
 11  6  1  0  0  0  0
 11 12  2  0  0  0  0
 13 11  2  0  0  0  0
 14 15  3  0  0  0  0
 16 18  2  0  0  0  0
 16 19  2  0  0  0  0
 17 16  1  0  0  0  0
 20 16  1  0  0  0  0
 21 17  1  0  0  0  0
 22 17  1  0  0  0  0
 23 17  1  0  0  0  0
M  END
