Coordinates from ORCA-job 4-NO2-Ph-N2-OTf-B3LYPG-6-31G_dp-MTMO-d009-169-n800
 OpenBabel09051908473D

 23 22  0  0  0  0  0  0  0  0999 V2000
   -2.0227   -1.3939   -5.6728 C   0  0  0  0  0  0  0  0  0  0  0  0
   -0.7079   -0.9406   -5.6330 C   0  0  0  0  0  0  0  0  0  0  0  0
   -0.4640    0.3868   -5.2842 C   0  0  0  0  0  0  0  0  0  0  0  0
   -1.4906    1.2755   -4.9706 C   0  0  0  0  0  0  0  0  0  0  0  0
   -2.8062    0.8216   -5.0067 C   0  0  0  0  0  0  0  0  0  0  0  0
   -3.0492   -0.5049   -5.3581 C   0  0  0  0  0  0  0  0  0  0  0  0
   -2.2644   -2.4148   -5.9391 H   0  0  0  0  0  0  0  0  0  0  0  0
    0.1189   -1.6000   -5.8669 H   0  0  0  0  0  0  0  0  0  0  0  0
   -1.2500    2.2963   -4.6983 H   0  0  0  0  0  0  0  0  0  0  0  0
   -3.6384    1.4719   -4.7699 H   0  0  0  0  0  0  0  0  0  0  0  0
   -4.4413   -0.9861   -5.3960 N   0  0  0  0  0  0  0  0  0  0  0  0
   -5.3276   -0.1823   -5.1130 O   0  0  0  0  0  0  0  0  0  0  0  0
   -4.6270   -2.1611   -5.7073 O   0  0  0  0  0  0  0  0  0  0  0  0
    0.4955    4.1757   -4.0327 N   0  0  0  0  0  0  0  0  0  0  0  0
    1.3580    4.7903   -3.7184 N   0  0  0  0  0  0  0  0  0  0  0  0
    1.7075    1.2935   -6.5047 S   0  0  0  0  0  0  0  0  0  0  0  0
    3.0598    0.0079   -6.3722 C   0  0  0  0  0  0  0  0  0  0  0  0
    0.9317    1.0179   -7.7014 O   0  0  0  0  0  0  0  0  0  0  0  0
    2.3132    2.5805   -6.2230 O   0  0  0  0  0  0  0  0  0  0  0  0
    0.8587    0.8423   -5.1562 O   0  0  0  0  0  0  0  0  0  0  0  0
    2.5294   -1.2128   -6.4815 F   0  0  0  0  0  0  0  0  0  0  0  0
    3.9170    0.2118   -7.3677 F   0  0  0  0  0  0  0  0  0  0  0  0
    3.6787    0.1257   -5.2041 F   0  0  0  0  0  0  0  0  0  0  0  0
  1  2  2  0  0  0  0
  1  6  1  0  0  0  0
  2  3  1  0  0  0  0
  3 20  1  0  0  0  0
  3  4  2  0  0  0  0
  4  9  1  0  0  0  0
  5  4  1  0  0  0  0
  5 10  1  0  0  0  0
  6  5  2  0  0  0  0
  7  1  1  0  0  0  0
  8  2  1  0  0  0  0
 11  6  1  0  0  0  0
 11 12  2  0  0  0  0
 13 11  2  0  0  0  0
 14 15  3  0  0  0  0
 16 17  1  0  0  0  0
 16 19  2  0  0  0  0
 16 20  1  0  0  0  0
 17 23  1  0  0  0  0
 18 16  2  0  0  0  0
 21 17  1  0  0  0  0
 22 17  1  0  0  0  0
M  END
