Coordinates from ORCA-job 4-NO2-Ph-N2-OTf-B3LYPG-6-31G_dp-MTMO-d009-169-n800
 OpenBabel09051908473D

 23 22  0  0  0  0  0  0  0  0999 V2000
   -2.0834   -0.3931   -6.3601 C   0  0  0  0  0  0  0  0  0  0  0  0
   -0.7520   -0.0020   -6.3120 C   0  0  0  0  0  0  0  0  0  0  0  0
   -0.3072    0.7518   -5.2118 C   0  0  0  0  0  0  0  0  0  0  0  0
   -1.1149    0.8887   -4.0682 C   0  0  0  0  0  0  0  0  0  0  0  0
   -2.4395    0.4875   -4.1155 C   0  0  0  0  0  0  0  0  0  0  0  0
   -2.9189   -0.1220   -5.2768 C   0  0  0  0  0  0  0  0  0  0  0  0
   -2.4798   -0.9271   -7.2146 H   0  0  0  0  0  0  0  0  0  0  0  0
   -0.0892   -0.2107   -7.1404 H   0  0  0  0  0  0  0  0  0  0  0  0
   -0.6979    1.3626   -3.1872 H   0  0  0  0  0  0  0  0  0  0  0  0
   -3.1031    0.6234   -3.2708 H   0  0  0  0  0  0  0  0  0  0  0  0
   -4.3239   -0.5429   -5.3342 N   0  0  0  0  0  0  0  0  0  0  0  0
   -5.0262   -0.3138   -4.3499 O   0  0  0  0  0  0  0  0  0  0  0  0
   -4.7104   -1.0975   -6.3623 O   0  0  0  0  0  0  0  0  0  0  0  0
   -0.5791    2.6140   -5.9496 N   0  0  0  0  0  0  0  0  0  0  0  0
   -1.4845    3.1512   -6.3036 N   0  0  0  0  0  0  0  0  0  0  0  0
    2.2101    1.3213   -6.0660 S   0  0  0  0  0  0  0  0  0  0  0  0
    3.0978   -0.3220   -5.9679 C   0  0  0  0  0  0  0  0  0  0  0  0
    1.6507    1.4325   -7.4037 O   0  0  0  0  0  0  0  0  0  0  0  0
    3.0695    2.3252   -5.4748 O   0  0  0  0  0  0  0  0  0  0  0  0
    1.0507    0.9806   -4.9420 O   0  0  0  0  0  0  0  0  0  0  0  0
    2.2553   -1.2933   -6.3228 F   0  0  0  0  0  0  0  0  0  0  0  0
    4.1240   -0.2846   -6.8127 F   0  0  0  0  0  0  0  0  0  0  0  0
    3.5311   -0.5286   -4.7309 F   0  0  0  0  0  0  0  0  0  0  0  0
  1  2  2  0  0  0  0
  1  6  1  0  0  0  0
  2  3  1  0  0  0  0
  3 20  1  0  0  0  0
  3  4  2  0  0  0  0
  4  9  1  0  0  0  0
  5  4  1  0  0  0  0
  5 10  1  0  0  0  0
  6  5  2  0  0  0  0
  7  1  1  0  0  0  0
  8  2  1  0  0  0  0
 11  6  1  0  0  0  0
 11 12  2  0  0  0  0
 13 11  2  0  0  0  0
 15 14  3  0  0  0  0
 16 17  1  0  0  0  0
 16 19  2  0  0  0  0
 16 20  1  0  0  0  0
 17 23  1  0  0  0  0
 18 16  2  0  0  0  0
 21 17  1  0  0  0  0
 22 17  1  0  0  0  0
M  END
