Coordinates from ORCA-job 4-NO2-Ph-N2-OTf-B3LYPG-6-31G_dp-MTMO-d009-169-n800
 OpenBabel09051908473D

 23 22  0  0  0  0  0  0  0  0999 V2000
   -2.3256   -0.8929   -6.3625 C   0  0  0  0  0  0  0  0  0  0  0  0
   -0.9684   -0.6292   -6.2079 C   0  0  0  0  0  0  0  0  0  0  0  0
   -0.4759   -0.3343   -4.9368 C   0  0  0  0  0  0  0  0  0  0  0  0
   -1.3009   -0.2943   -3.8128 C   0  0  0  0  0  0  0  0  0  0  0  0
   -2.6601   -0.5493   -3.9684 C   0  0  0  0  0  0  0  0  0  0  0  0
   -3.1494   -0.8460   -5.2392 C   0  0  0  0  0  0  0  0  0  0  0  0
   -2.7526   -1.1300   -7.3285 H   0  0  0  0  0  0  0  0  0  0  0  0
   -0.2912   -0.6517   -7.0536 H   0  0  0  0  0  0  0  0  0  0  0  0
   -0.8846   -0.0666   -2.8391 H   0  0  0  0  0  0  0  0  0  0  0  0
   -3.3401   -0.5277   -3.1264 H   0  0  0  0  0  0  0  0  0  0  0  0
   -4.5871   -1.1227   -5.4007 N   0  0  0  0  0  0  0  0  0  0  0  0
   -5.2908   -1.0793   -4.3935 O   0  0  0  0  0  0  0  0  0  0  0  0
   -4.9917   -1.3804   -6.5331 O   0  0  0  0  0  0  0  0  0  0  0  0
    4.1903    3.8026   -9.6697 N   0  0  0  0  0  0  0  0  0  0  0  0
    3.5740    3.2714   -8.9218 N   0  0  0  0  0  0  0  0  0  0  0  0
    1.5545    1.3004   -4.3931 S   0  0  0  0  0  0  0  0  0  0  0  0
    2.0137    1.8950   -6.1090 C   0  0  0  0  0  0  0  0  0  0  0  0
    0.5187    2.1804   -3.8800 O   0  0  0  0  0  0  0  0  0  0  0  0
    2.7851    1.0086   -3.6880 O   0  0  0  0  0  0  0  0  0  0  0  0
    0.9102   -0.1693   -4.8042 O   0  0  0  0  0  0  0  0  0  0  0  0
    0.9197    1.9260   -6.8721 F   0  0  0  0  0  0  0  0  0  0  0  0
    2.5219    3.1178   -5.9973 F   0  0  0  0  0  0  0  0  0  0  0  0
    2.9096    1.0725   -6.6404 F   0  0  0  0  0  0  0  0  0  0  0  0
  1  2  2  0  0  0  0
  1  6  1  0  0  0  0
  2  3  1  0  0  0  0
  3 20  1  0  0  0  0
  3  4  2  0  0  0  0
  4  9  1  0  0  0  0
  5  4  1  0  0  0  0
  5 10  1  0  0  0  0
  6  5  2  0  0  0  0
  7  1  1  0  0  0  0
  8  2  1  0  0  0  0
 11  6  1  0  0  0  0
 11 12  2  0  0  0  0
 13 11  2  0  0  0  0
 14 15  3  0  0  0  0
 16 18  2  0  0  0  0
 16 19  2  0  0  0  0
 17 22  1  0  0  0  0
 17 16  1  0  0  0  0
 20 16  1  0  0  0  0
 21 17  1  0  0  0  0
 23 17  1  0  0  0  0
M  END
