Coordinates from ORCA-job 4-NO2-Ph-N2-OTf-B3LYPG-6-31G_dp-MTMO-d009-169-n800
 OpenBabel09051908473D

 23 22  0  0  0  0  0  0  0  0999 V2000
   -2.3081   -0.8716   -6.3749 C   0  0  0  0  0  0  0  0  0  0  0  0
   -0.9516   -0.6112   -6.2091 C   0  0  0  0  0  0  0  0  0  0  0  0
   -0.4671   -0.3285   -4.9323 C   0  0  0  0  0  0  0  0  0  0  0  0
   -1.2994   -0.2967   -3.8135 C   0  0  0  0  0  0  0  0  0  0  0  0
   -2.6579   -0.5484   -3.9801 C   0  0  0  0  0  0  0  0  0  0  0  0
   -3.1392   -0.8334   -5.2566 C   0  0  0  0  0  0  0  0  0  0  0  0
   -2.7292   -1.0996   -7.3457 H   0  0  0  0  0  0  0  0  0  0  0  0
   -0.2690   -0.6268   -7.0506 H   0  0  0  0  0  0  0  0  0  0  0  0
   -0.8891   -0.0784   -2.8351 H   0  0  0  0  0  0  0  0  0  0  0  0
   -3.3435   -0.5330   -3.1424 H   0  0  0  0  0  0  0  0  0  0  0  0
   -4.5762   -1.1067   -5.4299 N   0  0  0  0  0  0  0  0  0  0  0  0
   -5.2864   -1.0706   -4.4270 O   0  0  0  0  0  0  0  0  0  0  0  0
   -4.9736   -1.3544   -6.5670 O   0  0  0  0  0  0  0  0  0  0  0  0
    3.9947    3.7582   -9.7085 N   0  0  0  0  0  0  0  0  0  0  0  0
    3.4222    3.2095   -8.9388 N   0  0  0  0  0  0  0  0  0  0  0  0
    1.5601    1.3023   -4.3693 S   0  0  0  0  0  0  0  0  0  0  0  0
    2.0612    1.8837   -6.0781 C   0  0  0  0  0  0  0  0  0  0  0  0
    0.5167    2.1894   -3.8848 O   0  0  0  0  0  0  0  0  0  0  0  0
    2.7732    1.0104   -3.6343 O   0  0  0  0  0  0  0  0  0  0  0  0
    0.9182   -0.1666   -4.7879 O   0  0  0  0  0  0  0  0  0  0  0  0
    0.9854    1.9149   -6.8664 F   0  0  0  0  0  0  0  0  0  0  0  0
    2.5726    3.1049   -5.9625 F   0  0  0  0  0  0  0  0  0  0  0  0
    2.9654    1.0536   -6.5831 F   0  0  0  0  0  0  0  0  0  0  0  0
  1  2  2  0  0  0  0
  1  6  1  0  0  0  0
  2  3  1  0  0  0  0
  3 20  1  0  0  0  0
  3  4  2  0  0  0  0
  4  9  1  0  0  0  0
  5  4  1  0  0  0  0
  5 10  1  0  0  0  0
  6  5  2  0  0  0  0
  7  1  1  0  0  0  0
  8  2  1  0  0  0  0
 11  6  1  0  0  0  0
 11 12  2  0  0  0  0
 13 11  2  0  0  0  0
 14 15  3  0  0  0  0
 16 18  2  0  0  0  0
 16 19  2  0  0  0  0
 17 22  1  0  0  0  0
 17 16  1  0  0  0  0
 20 16  1  0  0  0  0
 21 17  1  0  0  0  0
 23 17  1  0  0  0  0
M  END
