Coordinates from ORCA-job 4-NO2-Ph-N2-OTf-B3LYPG-6-31G_dp-MTMO-d009-169-n800
 OpenBabel09051908473D

 23 22  0  0  0  0  0  0  0  0999 V2000
   -2.5663   -1.2273   -6.1513 C   0  0  0  0  0  0  0  0  0  0  0  0
   -1.1947   -1.0124   -6.0658 C   0  0  0  0  0  0  0  0  0  0  0  0
   -0.6569   -0.5288   -4.8730 C   0  0  0  0  0  0  0  0  0  0  0  0
   -1.4501   -0.2549   -3.7586 C   0  0  0  0  0  0  0  0  0  0  0  0
   -2.8239   -0.4603   -3.8475 C   0  0  0  0  0  0  0  0  0  0  0  0
   -3.3588   -0.9443   -5.0400 C   0  0  0  0  0  0  0  0  0  0  0  0
   -3.0278   -1.6039   -7.0552 H   0  0  0  0  0  0  0  0  0  0  0  0
   -0.5393   -1.2168   -6.9044 H   0  0  0  0  0  0  0  0  0  0  0  0
   -1.0000    0.1149   -2.8458 H   0  0  0  0  0  0  0  0  0  0  0  0
   -3.4811   -0.2589   -3.0113 H   0  0  0  0  0  0  0  0  0  0  0  0
   -4.8121   -1.1676   -5.1285 N   0  0  0  0  0  0  0  0  0  0  0  0
   -5.4877   -0.9122   -4.1336 O   0  0  0  0  0  0  0  0  0  0  0  0
   -5.2567   -1.5956   -6.1922 O   0  0  0  0  0  0  0  0  0  0  0  0
    6.4075    5.9532   -9.6062 N   0  0  0  0  0  0  0  0  0  0  0  0
    5.6099    5.3082   -9.1946 N   0  0  0  0  0  0  0  0  0  0  0  0
    1.4734    1.0514   -4.6049 S   0  0  0  0  0  0  0  0  0  0  0  0
    1.7070    1.4958   -6.4079 C   0  0  0  0  0  0  0  0  0  0  0  0
    0.5466    2.0121   -4.0319 O   0  0  0  0  0  0  0  0  0  0  0  0
    2.7770    0.7584   -4.0483 O   0  0  0  0  0  0  0  0  0  0  0  0
    0.7391   -0.4184   -4.8019 O   0  0  0  0  0  0  0  0  0  0  0  0
    0.5129    1.5653   -6.9990 F   0  0  0  0  0  0  0  0  0  0  0  0
    2.3135    2.6758   -6.4723 F   0  0  0  0  0  0  0  0  0  0  0  0
    2.4476    0.5674   -7.0036 F   0  0  0  0  0  0  0  0  0  0  0  0
  1  2  2  0  0  0  0
  1  6  1  0  0  0  0
  2  3  1  0  0  0  0
  3 20  1  0  0  0  0
  3  4  2  0  0  0  0
  4  9  1  0  0  0  0
  5  4  1  0  0  0  0
  5 10  1  0  0  0  0
  6  5  2  0  0  0  0
  7  1  1  0  0  0  0
  8  2  1  0  0  0  0
 11  6  1  0  0  0  0
 11 12  2  0  0  0  0
 13 11  2  0  0  0  0
 14 15  3  0  0  0  0
 16 19  2  0  0  0  0
 16 18  2  0  0  0  0
 17 16  1  0  0  0  0
 20 16  1  0  0  0  0
 21 17  1  0  0  0  0
 22 17  1  0  0  0  0
 23 17  1  0  0  0  0
M  END
