Coordinates from ORCA-job 4-NO2-Ph-N2-OTf-B3LYPG-6-31G_dp-MTMO-d009-169-n800
 OpenBabel09051908483D

 23 22  0  0  0  0  0  0  0  0999 V2000
   -2.7667   -1.3734   -6.0439 C   0  0  0  0  0  0  0  0  0  0  0  0
   -1.3956   -1.1563   -5.9553 C   0  0  0  0  0  0  0  0  0  0  0  0
   -0.8583   -0.6930   -4.7542 C   0  0  0  0  0  0  0  0  0  0  0  0
   -1.6516   -0.4418   -3.6345 C   0  0  0  0  0  0  0  0  0  0  0  0
   -3.0249   -0.6493   -3.7264 C   0  0  0  0  0  0  0  0  0  0  0  0
   -3.5592   -1.1128   -4.9273 C   0  0  0  0  0  0  0  0  0  0  0  0
   -3.2276   -1.7348   -6.9542 H   0  0  0  0  0  0  0  0  0  0  0  0
   -0.7402   -1.3440   -6.7979 H   0  0  0  0  0  0  0  0  0  0  0  0
   -1.2019   -0.0877   -2.7153 H   0  0  0  0  0  0  0  0  0  0  0  0
   -3.6821   -0.4650   -2.8862 H   0  0  0  0  0  0  0  0  0  0  0  0
   -5.0120   -1.3382   -5.0190 N   0  0  0  0  0  0  0  0  0  0  0  0
   -5.6878   -1.1018   -4.0196 O   0  0  0  0  0  0  0  0  0  0  0  0
   -5.4560   -1.7490   -6.0898 O   0  0  0  0  0  0  0  0  0  0  0  0
    8.5656    7.6115  -10.9286 N   0  0  0  0  0  0  0  0  0  0  0  0
    7.7445    6.9708  -10.5586 N   0  0  0  0  0  0  0  0  0  0  0  0
    1.2679    0.8877   -4.4579 S   0  0  0  0  0  0  0  0  0  0  0  0
    1.4913    1.3719   -6.2519 C   0  0  0  0  0  0  0  0  0  0  0  0
    0.3411    1.8333   -3.8603 O   0  0  0  0  0  0  0  0  0  0  0  0
    2.5753    0.5872   -3.9143 O   0  0  0  0  0  0  0  0  0  0  0  0
    0.5375   -0.5799   -4.6821 O   0  0  0  0  0  0  0  0  0  0  0  0
    0.2941    1.4508   -6.8357 F   0  0  0  0  0  0  0  0  0  0  0  0
    2.0937    2.5553   -6.2932 F   0  0  0  0  0  0  0  0  0  0  0  0
    2.2320    0.4596   -6.8716 F   0  0  0  0  0  0  0  0  0  0  0  0
  1  2  2  0  0  0  0
  1  6  1  0  0  0  0
  2  3  1  0  0  0  0
  3 20  1  0  0  0  0
  3  4  2  0  0  0  0
  4  9  1  0  0  0  0
  5  4  1  0  0  0  0
  5 10  1  0  0  0  0
  6  5  2  0  0  0  0
  7  1  1  0  0  0  0
  8  2  1  0  0  0  0
 11  6  1  0  0  0  0
 11 12  2  0  0  0  0
 13 11  2  0  0  0  0
 14 15  3  0  0  0  0
 16 19  2  0  0  0  0
 16 18  2  0  0  0  0
 17 16  1  0  0  0  0
 20 16  1  0  0  0  0
 21 17  1  0  0  0  0
 22 17  1  0  0  0  0
 23 17  1  0  0  0  0
M  END
