Coordinates from ORCA-job 4-NO2-Ph-N2-OTf-B3LYPG-6-31G_dp-MTMO-d009-169-n800
 OpenBabel09051908473D

 23 22  0  0  0  0  0  0  0  0999 V2000
   -2.3632   -0.9454   -6.3358 C   0  0  0  0  0  0  0  0  0  0  0  0
   -1.0049   -0.6720   -6.2112 C   0  0  0  0  0  0  0  0  0  0  0  0
   -0.4915   -0.3442   -4.9565 C   0  0  0  0  0  0  0  0  0  0  0  0
   -1.2965   -0.2820   -3.8190 C   0  0  0  0  0  0  0  0  0  0  0  0
   -2.6571   -0.5464   -3.9450 C   0  0  0  0  0  0  0  0  0  0  0  0
   -3.1674   -0.8752   -5.1995 C   0  0  0  0  0  0  0  0  0  0  0  0
   -2.8056   -1.2075   -7.2883 H   0  0  0  0  0  0  0  0  0  0  0  0
   -0.3421   -0.7128   -7.0677 H   0  0  0  0  0  0  0  0  0  0  0  0
   -0.8649   -0.0291   -2.8585 H   0  0  0  0  0  0  0  0  0  0  0  0
   -3.3222   -0.5080   -3.0917 H   0  0  0  0  0  0  0  0  0  0  0  0
   -4.6065   -1.1616   -5.3292 N   0  0  0  0  0  0  0  0  0  0  0  0
   -5.2927   -1.0970   -4.3111 O   0  0  0  0  0  0  0  0  0  0  0  0
   -5.0296   -1.4477   -6.4479 O   0  0  0  0  0  0  0  0  0  0  0  0
    4.6313    3.8721   -9.5134 N   0  0  0  0  0  0  0  0  0  0  0  0
    3.9334    3.3658   -8.8220 N   0  0  0  0  0  0  0  0  0  0  0  0
    1.5466    1.3003   -4.4610 S   0  0  0  0  0  0  0  0  0  0  0  0
    1.8833    1.9347   -6.1907 C   0  0  0  0  0  0  0  0  0  0  0  0
    0.5369    2.1576   -3.8643 O   0  0  0  0  0  0  0  0  0  0  0  0
    2.8232    1.0094   -3.8431 O   0  0  0  0  0  0  0  0  0  0  0  0
    0.8964   -0.1704   -4.8568 O   0  0  0  0  0  0  0  0  0  0  0  0
    0.7374    1.9728   -6.8734 F   0  0  0  0  0  0  0  0  0  0  0  0
    2.3910    3.1584   -6.0907 F   0  0  0  0  0  0  0  0  0  0  0  0
    2.7437    1.1293   -6.8012 F   0  0  0  0  0  0  0  0  0  0  0  0
  1  2  2  0  0  0  0
  1  6  1  0  0  0  0
  2  3  1  0  0  0  0
  3 20  1  0  0  0  0
  3  4  2  0  0  0  0
  4  9  1  0  0  0  0
  5  4  1  0  0  0  0
  5 10  1  0  0  0  0
  6  5  2  0  0  0  0
  7  1  1  0  0  0  0
  8  2  1  0  0  0  0
 11  6  1  0  0  0  0
 11 12  2  0  0  0  0
 13 11  2  0  0  0  0
 14 15  3  0  0  0  0
 16 18  2  0  0  0  0
 16 19  2  0  0  0  0
 17 22  1  0  0  0  0
 17 16  1  0  0  0  0
 20 16  1  0  0  0  0
 21 17  1  0  0  0  0
 23 17  1  0  0  0  0
M  END
