Coordinates from ORCA-job 4-NO2-Ph-N2-OTf-B3LYPG-6-31G_dp-MTMO-d009-169-n800
 OpenBabel09051908473D

 23 22  0  0  0  0  0  0  0  0999 V2000
   -2.3280   -0.9278   -6.3532 C   0  0  0  0  0  0  0  0  0  0  0  0
   -0.9701   -0.6646   -6.2054 C   0  0  0  0  0  0  0  0  0  0  0  0
   -0.4753   -0.3428   -4.9416 C   0  0  0  0  0  0  0  0  0  0  0  0
   -1.2988   -0.2766   -3.8176 C   0  0  0  0  0  0  0  0  0  0  0  0
   -2.6590   -0.5308   -3.9669 C   0  0  0  0  0  0  0  0  0  0  0  0
   -3.1506   -0.8537   -5.2304 C   0  0  0  0  0  0  0  0  0  0  0  0
   -2.7564   -1.1850   -7.3134 H   0  0  0  0  0  0  0  0  0  0  0  0
   -0.2933   -0.7088   -7.0507 H   0  0  0  0  0  0  0  0  0  0  0  0
   -0.8814   -0.0284   -2.8496 H   0  0  0  0  0  0  0  0  0  0  0  0
   -3.3380   -0.4891   -3.1248 H   0  0  0  0  0  0  0  0  0  0  0  0
   -4.5893   -1.1295   -5.3845 N   0  0  0  0  0  0  0  0  0  0  0  0
   -5.2919   -1.0616   -4.3779 O   0  0  0  0  0  0  0  0  0  0  0  0
   -4.9956   -1.4108   -6.5106 O   0  0  0  0  0  0  0  0  0  0  0  0
    4.3587    3.8186   -9.6175 N   0  0  0  0  0  0  0  0  0  0  0  0
    3.7097    3.3130   -8.8795 N   0  0  0  0  0  0  0  0  0  0  0  0
    1.5660    1.2861   -4.4104 S   0  0  0  0  0  0  0  0  0  0  0  0
    1.9329    1.9205   -6.1340 C   0  0  0  0  0  0  0  0  0  0  0  0
    0.5534    2.1492   -3.8273 O   0  0  0  0  0  0  0  0  0  0  0  0
    2.8313    0.9853   -3.7741 O   0  0  0  0  0  0  0  0  0  0  0  0
    0.9118   -0.1796   -4.8182 O   0  0  0  0  0  0  0  0  0  0  0  0
    0.7970    1.9747   -6.8317 F   0  0  0  0  0  0  0  0  0  0  0  0
    2.4549    3.1373   -6.0236 F   0  0  0  0  0  0  0  0  0  0  0  0
    2.7911    1.1054   -6.7350 F   0  0  0  0  0  0  0  0  0  0  0  0
  1  2  2  0  0  0  0
  1  6  1  0  0  0  0
  2  3  1  0  0  0  0
  3 20  1  0  0  0  0
  3  4  2  0  0  0  0
  4  9  1  0  0  0  0
  5  4  1  0  0  0  0
  5 10  1  0  0  0  0
  6  5  2  0  0  0  0
  7  1  1  0  0  0  0
  8  2  1  0  0  0  0
 11  6  1  0  0  0  0
 11 12  2  0  0  0  0
 13 11  2  0  0  0  0
 14 15  3  0  0  0  0
 16 18  2  0  0  0  0
 16 19  2  0  0  0  0
 17 22  1  0  0  0  0
 17 16  1  0  0  0  0
 20 16  1  0  0  0  0
 21 17  1  0  0  0  0
 23 17  1  0  0  0  0
M  END
