Coordinates from ORCA-job 4-NO2-Ph-N2-OTf-B3LYPG-6-31G_dp-MTMO-d009-169-n800
 OpenBabel09051908483D

 23 22  0  0  0  0  0  0  0  0999 V2000
   -2.8698   -1.4562   -5.9797 C   0  0  0  0  0  0  0  0  0  0  0  0
   -1.4989   -1.2351   -5.8980 C   0  0  0  0  0  0  0  0  0  0  0  0
   -0.9571   -0.7695   -4.6999 C   0  0  0  0  0  0  0  0  0  0  0  0
   -1.7456   -0.5198   -3.5765 C   0  0  0  0  0  0  0  0  0  0  0  0
   -3.1187   -0.7312   -3.6615 C   0  0  0  0  0  0  0  0  0  0  0  0
   -3.6576   -1.1971   -4.8593 C   0  0  0  0  0  0  0  0  0  0  0  0
   -3.3342   -1.8196   -6.8875 H   0  0  0  0  0  0  0  0  0  0  0  0
   -0.8472   -1.4214   -6.7437 H   0  0  0  0  0  0  0  0  0  0  0  0
   -1.2924   -0.1638   -2.6597 H   0  0  0  0  0  0  0  0  0  0  0  0
   -3.7723   -0.5483   -2.8182 H   0  0  0  0  0  0  0  0  0  0  0  0
   -5.1102   -1.4268   -4.9438 N   0  0  0  0  0  0  0  0  0  0  0  0
   -5.7818   -1.1914   -3.9414 O   0  0  0  0  0  0  0  0  0  0  0  0
   -5.5581   -1.8399   -6.0120 O   0  0  0  0  0  0  0  0  0  0  0  0
    9.6273    8.4324  -11.5268 N   0  0  0  0  0  0  0  0  0  0  0  0
    8.8099    7.7908  -11.1503 N   0  0  0  0  0  0  0  0  0  0  0  0
    1.1663    0.8171   -4.4140 S   0  0  0  0  0  0  0  0  0  0  0  0
    1.3811    1.3008   -6.2092 C   0  0  0  0  0  0  0  0  0  0  0  0
    0.2395    1.7606   -3.8131 O   0  0  0  0  0  0  0  0  0  0  0  0
    2.4766    0.5204   -3.8754 O   0  0  0  0  0  0  0  0  0  0  0  0
    0.4388   -0.6525   -4.6347 O   0  0  0  0  0  0  0  0  0  0  0  0
    0.1815    1.3746   -6.7885 F   0  0  0  0  0  0  0  0  0  0  0  0
    1.9789    2.4864   -6.2537 F   0  0  0  0  0  0  0  0  0  0  0  0
    2.1230    0.3908   -6.8310 F   0  0  0  0  0  0  0  0  0  0  0  0
  1  2  2  0  0  0  0
  1  6  1  0  0  0  0
  2  3  1  0  0  0  0
  3 20  1  0  0  0  0
  3  4  2  0  0  0  0
  4  9  1  0  0  0  0
  5  4  1  0  0  0  0
  5 10  1  0  0  0  0
  6  5  2  0  0  0  0
  7  1  1  0  0  0  0
  8  2  1  0  0  0  0
 11  6  1  0  0  0  0
 11 12  2  0  0  0  0
 13 11  2  0  0  0  0
 14 15  3  0  0  0  0
 16 19  2  0  0  0  0
 16 18  2  0  0  0  0
 17 16  1  0  0  0  0
 20 16  1  0  0  0  0
 21 17  1  0  0  0  0
 22 17  1  0  0  0  0
 23 17  1  0  0  0  0
M  END
