Coordinates from ORCA-job 4-NO2-Ph-N2-OTf-B3LYPG-6-31G_dp-MTMO-d009-169-n800
 OpenBabel09051908473D

 23 22  0  0  0  0  0  0  0  0999 V2000
   -2.4939   -1.1629   -6.1852 C   0  0  0  0  0  0  0  0  0  0  0  0
   -1.1237   -0.9304   -6.1274 C   0  0  0  0  0  0  0  0  0  0  0  0
   -0.5697   -0.4305   -4.9489 C   0  0  0  0  0  0  0  0  0  0  0  0
   -1.3456   -0.1550   -3.8229 C   0  0  0  0  0  0  0  0  0  0  0  0
   -2.7181   -0.3780   -3.8839 C   0  0  0  0  0  0  0  0  0  0  0  0
   -3.2690   -0.8798   -5.0617 C   0  0  0  0  0  0  0  0  0  0  0  0
   -2.9675   -1.5531   -7.0770 H   0  0  0  0  0  0  0  0  0  0  0  0
   -0.4817   -1.1337   -6.9767 H   0  0  0  0  0  0  0  0  0  0  0  0
   -0.8832    0.2286   -2.9218 H   0  0  0  0  0  0  0  0  0  0  0  0
   -3.3622   -0.1765   -3.0375 H   0  0  0  0  0  0  0  0  0  0  0  0
   -4.7207   -1.1221   -5.1209 N   0  0  0  0  0  0  0  0  0  0  0  0
   -5.3808   -0.8663   -4.1157 O   0  0  0  0  0  0  0  0  0  0  0  0
   -5.1797   -1.5656   -6.1721 O   0  0  0  0  0  0  0  0  0  0  0  0
    5.4131    5.1164   -8.8662 N   0  0  0  0  0  0  0  0  0  0  0  0
    4.6508    4.4513   -8.4208 N   0  0  0  0  0  0  0  0  0  0  0  0
    1.5476    1.1773   -4.7360 S   0  0  0  0  0  0  0  0  0  0  0  0
    1.8286    1.5608   -6.5471 C   0  0  0  0  0  0  0  0  0  0  0  0
    0.5996    2.1497   -4.2203 O   0  0  0  0  0  0  0  0  0  0  0  0
    2.8386    0.9139   -4.1360 O   0  0  0  0  0  0  0  0  0  0  0  0
    0.8259   -0.3034   -4.9031 O   0  0  0  0  0  0  0  0  0  0  0  0
    0.6512    1.5909   -7.1742 F   0  0  0  0  0  0  0  0  0  0  0  0
    2.4203    2.7468   -6.6361 F   0  0  0  0  0  0  0  0  0  0  0  0
    2.5992    0.6227   -7.0863 F   0  0  0  0  0  0  0  0  0  0  0  0
  1  2  2  0  0  0  0
  1  6  1  0  0  0  0
  2  3  1  0  0  0  0
  3 20  1  0  0  0  0
  3  4  2  0  0  0  0
  4  9  1  0  0  0  0
  5  4  1  0  0  0  0
  5 10  1  0  0  0  0
  6  5  2  0  0  0  0
  7  1  1  0  0  0  0
  8  2  1  0  0  0  0
 11  6  1  0  0  0  0
 11 12  2  0  0  0  0
 13 11  2  0  0  0  0
 14 15  3  0  0  0  0
 16 18  2  0  0  0  0
 16 19  2  0  0  0  0
 17 16  1  0  0  0  0
 20 16  1  0  0  0  0
 21 17  1  0  0  0  0
 22 17  1  0  0  0  0
 23 17  1  0  0  0  0
M  END
