Coordinates from ORCA-job 4-NO2-Ph-N2-OTf-B3LYPG-6-31G_dp-MTMO-d009-169-n800
 OpenBabel09051908473D

 23 22  0  0  0  0  0  0  0  0999 V2000
   -2.1662   -0.9013   -6.4149 C   0  0  0  0  0  0  0  0  0  0  0  0
   -0.8132   -0.6855   -6.1748 C   0  0  0  0  0  0  0  0  0  0  0  0
   -0.3992   -0.3421   -4.8878 C   0  0  0  0  0  0  0  0  0  0  0  0
   -1.2985   -0.2086   -3.8299 C   0  0  0  0  0  0  0  0  0  0  0  0
   -2.6535   -0.4147   -4.0724 C   0  0  0  0  0  0  0  0  0  0  0  0
   -3.0645   -0.7593   -5.3586 C   0  0  0  0  0  0  0  0  0  0  0  0
   -2.5339   -1.1735   -7.3959 H   0  0  0  0  0  0  0  0  0  0  0  0
   -0.0782   -0.7841   -6.9652 H   0  0  0  0  0  0  0  0  0  0  0  0
   -0.9428    0.0550   -2.8417 H   0  0  0  0  0  0  0  0  0  0  0  0
   -3.3899   -0.3201   -3.2847 H   0  0  0  0  0  0  0  0  0  0  0  0
   -4.4981   -0.9849   -5.6105 N   0  0  0  0  0  0  0  0  0  0  0  0
   -5.2691   -0.8544   -4.6617 O   0  0  0  0  0  0  0  0  0  0  0  0
   -4.8321   -1.2896   -6.7542 O   0  0  0  0  0  0  0  0  0  0  0  0
    3.1605    3.6071   -9.8725 N   0  0  0  0  0  0  0  0  0  0  0  0
    2.8609    3.1150   -8.9296 N   0  0  0  0  0  0  0  0  0  0  0  0
    1.6690    1.2111   -4.2376 S   0  0  0  0  0  0  0  0  0  0  0  0
    2.0711    1.8603   -5.9483 C   0  0  0  0  0  0  0  0  0  0  0  0
    0.6751    2.0945   -3.6523 O   0  0  0  0  0  0  0  0  0  0  0  0
    2.9169    0.8634   -3.5916 O   0  0  0  0  0  0  0  0  0  0  0  0
    0.9814   -0.2307   -4.6707 O   0  0  0  0  0  0  0  0  0  0  0  0
    0.9375    2.0160   -6.6331 F   0  0  0  0  0  0  0  0  0  0  0  0
    2.6850    3.0307   -5.8136 F   0  0  0  0  0  0  0  0  0  0  0  0
    2.8609    0.9971   -6.5764 F   0  0  0  0  0  0  0  0  0  0  0  0
  1  2  2  0  0  0  0
  1  6  1  0  0  0  0
  2  3  1  0  0  0  0
  3 20  1  0  0  0  0
  3  4  2  0  0  0  0
  4  9  1  0  0  0  0
  5  4  1  0  0  0  0
  5 10  1  0  0  0  0
  6  5  2  0  0  0  0
  7  1  1  0  0  0  0
  8  2  1  0  0  0  0
 11  6  1  0  0  0  0
 11 12  2  0  0  0  0
 13 11  2  0  0  0  0
 14 15  3  0  0  0  0
 16 18  2  0  0  0  0
 16 19  2  0  0  0  0
 17 22  1  0  0  0  0
 17 16  1  0  0  0  0
 20 16  1  0  0  0  0
 21 17  1  0  0  0  0
 23 17  1  0  0  0  0
M  END
