Coordinates from ORCA-job 4-NO2-Ph-N2-OTf-B3LYPG-6-31G_dp-MTMO-d009-169-n800
 OpenBabel09051908483D

 23 22  0  0  0  0  0  0  0  0999 V2000
   -2.7094   -1.3278   -6.0790 C   0  0  0  0  0  0  0  0  0  0  0  0
   -1.3382   -1.1124   -5.9876 C   0  0  0  0  0  0  0  0  0  0  0  0
   -0.8028   -0.6495   -4.7856 C   0  0  0  0  0  0  0  0  0  0  0  0
   -1.5980   -0.3973   -3.6675 C   0  0  0  0  0  0  0  0  0  0  0  0
   -2.9714   -0.6032   -3.7621 C   0  0  0  0  0  0  0  0  0  0  0  0
   -3.5039   -1.0661   -4.9639 C   0  0  0  0  0  0  0  0  0  0  0  0
   -3.1690   -1.6887   -6.9902 H   0  0  0  0  0  0  0  0  0  0  0  0
   -0.6814   -1.3009   -6.8289 H   0  0  0  0  0  0  0  0  0  0  0  0
   -1.1497   -0.0436   -2.7474 H   0  0  0  0  0  0  0  0  0  0  0  0
   -3.6300   -0.4181   -2.9232 H   0  0  0  0  0  0  0  0  0  0  0  0
   -4.9568   -1.2898   -5.0586 N   0  0  0  0  0  0  0  0  0  0  0  0
   -5.6343   -1.0525   -4.0605 O   0  0  0  0  0  0  0  0  0  0  0  0
   -5.3991   -1.7002   -6.1302 O   0  0  0  0  0  0  0  0  0  0  0  0
    7.9701    7.1500  -10.5897 N   0  0  0  0  0  0  0  0  0  0  0  0
    7.1504    6.5082  -10.2186 N   0  0  0  0  0  0  0  0  0  0  0  0
    1.3245    0.9289   -4.4853 S   0  0  0  0  0  0  0  0  0  0  0  0
    1.5521    1.4125   -6.2790 C   0  0  0  0  0  0  0  0  0  0  0  0
    0.3975    1.8756   -3.8897 O   0  0  0  0  0  0  0  0  0  0  0  0
    2.6304    0.6270   -3.9390 O   0  0  0  0  0  0  0  0  0  0  0  0
    0.5930   -0.5380   -4.7107 O   0  0  0  0  0  0  0  0  0  0  0  0
    0.3562    1.4924   -6.8652 F   0  0  0  0  0  0  0  0  0  0  0  0
    2.1557    2.5953   -6.3192 F   0  0  0  0  0  0  0  0  0  0  0  0
    2.2932    0.4993   -6.8969 F   0  0  0  0  0  0  0  0  0  0  0  0
  1  2  2  0  0  0  0
  1  6  1  0  0  0  0
  2  3  1  0  0  0  0
  3 20  1  0  0  0  0
  3  4  2  0  0  0  0
  4  9  1  0  0  0  0
  5  4  1  0  0  0  0
  5 10  1  0  0  0  0
  6  5  2  0  0  0  0
  7  1  1  0  0  0  0
  8  2  1  0  0  0  0
 11  6  1  0  0  0  0
 11 12  2  0  0  0  0
 13 11  2  0  0  0  0
 14 15  3  0  0  0  0
 16 19  2  0  0  0  0
 16 18  2  0  0  0  0
 17 16  1  0  0  0  0
 20 16  1  0  0  0  0
 21 17  1  0  0  0  0
 22 17  1  0  0  0  0
 23 17  1  0  0  0  0
M  END
