Coordinates from ORCA-job 4-NO2-Ph-N2-OTf-B3LYPG-6-31G_dp-MTMO-d009-169-n800
 OpenBabel09051908473D

 23 22  0  0  0  0  0  0  0  0999 V2000
   -2.5158   -1.1940   -6.1687 C   0  0  0  0  0  0  0  0  0  0  0  0
   -1.1444   -0.9719   -6.1004 C   0  0  0  0  0  0  0  0  0  0  0  0
   -0.5967   -0.4674   -4.9208 C   0  0  0  0  0  0  0  0  0  0  0  0
   -1.3802   -0.1784   -3.8034 C   0  0  0  0  0  0  0  0  0  0  0  0
   -2.7539   -0.3910   -3.8752 C   0  0  0  0  0  0  0  0  0  0  0  0
   -3.2985   -0.8967   -5.0542 C   0  0  0  0  0  0  0  0  0  0  0  0
   -2.9846   -1.5869   -7.0619 H   0  0  0  0  0  0  0  0  0  0  0  0
   -0.4965   -1.1867   -6.9423 H   0  0  0  0  0  0  0  0  0  0  0  0
   -0.9227    0.2082   -2.9012 H   0  0  0  0  0  0  0  0  0  0  0  0
   -3.4037   -0.1786   -3.0358 H   0  0  0  0  0  0  0  0  0  0  0  0
   -4.7515   -1.1278   -5.1244 N   0  0  0  0  0  0  0  0  0  0  0  0
   -5.4182   -0.8601   -4.1268 O   0  0  0  0  0  0  0  0  0  0  0  0
   -5.2048   -1.5744   -6.1768 O   0  0  0  0  0  0  0  0  0  0  0  0
    5.7465    5.4283   -9.0889 N   0  0  0  0  0  0  0  0  0  0  0  0
    4.9624    4.7848   -8.6500 N   0  0  0  0  0  0  0  0  0  0  0  0
    1.5302    1.1250   -4.6987 S   0  0  0  0  0  0  0  0  0  0  0  0
    1.7807    1.5212   -6.5110 C   0  0  0  0  0  0  0  0  0  0  0  0
    0.5962    2.0984   -4.1597 O   0  0  0  0  0  0  0  0  0  0  0  0
    2.8293    0.8499   -4.1225 O   0  0  0  0  0  0  0  0  0  0  0  0
    0.7993   -0.3507   -4.8646 O   0  0  0  0  0  0  0  0  0  0  0  0
    0.5924    1.5655   -7.1163 F   0  0  0  0  0  0  0  0  0  0  0  0
    2.3799    2.7031   -6.6018 F   0  0  0  0  0  0  0  0  0  0  0  0
    2.5338    0.5815   -7.0722 F   0  0  0  0  0  0  0  0  0  0  0  0
  1  2  2  0  0  0  0
  1  6  1  0  0  0  0
  2  3  1  0  0  0  0
  3 20  1  0  0  0  0
  3  4  2  0  0  0  0
  4  9  1  0  0  0  0
  5  4  1  0  0  0  0
  5 10  1  0  0  0  0
  6  5  2  0  0  0  0
  7  1  1  0  0  0  0
  8  2  1  0  0  0  0
 11  6  1  0  0  0  0
 11 12  2  0  0  0  0
 13 11  2  0  0  0  0
 14 15  3  0  0  0  0
 16 18  2  0  0  0  0
 16 19  2  0  0  0  0
 17 16  1  0  0  0  0
 20 16  1  0  0  0  0
 21 17  1  0  0  0  0
 22 17  1  0  0  0  0
 23 17  1  0  0  0  0
M  END
