Coordinates from ORCA-job 4-NO2-Ph-N2-OTf-B3LYPG-6-31G_dp-MTMO-d009-169-n800
 OpenBabel09051908473D

 23 22  0  0  0  0  0  0  0  0999 V2000
   -2.0750   -1.0008   -6.1193 C   0  0  0  0  0  0  0  0  0  0  0  0
   -0.7205   -0.7086   -5.9929 C   0  0  0  0  0  0  0  0  0  0  0  0
   -0.3215    0.2403   -5.0522 C   0  0  0  0  0  0  0  0  0  0  0  0
   -1.2347    0.8966   -4.2285 C   0  0  0  0  0  0  0  0  0  0  0  0
   -2.5886    0.5980   -4.3480 C   0  0  0  0  0  0  0  0  0  0  0  0
   -2.9864   -0.3443   -5.2945 C   0  0  0  0  0  0  0  0  0  0  0  0
   -2.4328   -1.7292   -6.8365 H   0  0  0  0  0  0  0  0  0  0  0  0
    0.0150   -1.2087   -6.6100 H   0  0  0  0  0  0  0  0  0  0  0  0
   -0.8777    1.6245   -3.5093 H   0  0  0  0  0  0  0  0  0  0  0  0
   -3.3337    1.0803   -3.7287 H   0  0  0  0  0  0  0  0  0  0  0  0
   -4.4189   -0.6603   -5.4244 N   0  0  0  0  0  0  0  0  0  0  0  0
   -5.2004   -0.0689   -4.6815 O   0  0  0  0  0  0  0  0  0  0  0  0
   -4.7423   -1.4959   -6.2666 O   0  0  0  0  0  0  0  0  0  0  0  0
   -0.2352    3.8932   -5.5187 N   0  0  0  0  0  0  0  0  0  0  0  0
   -0.3399    4.8882   -5.9874 N   0  0  0  0  0  0  0  0  0  0  0  0
    1.9651    1.2525   -5.9745 S   0  0  0  0  0  0  0  0  0  0  0  0
    3.1570   -0.1598   -6.2613 C   0  0  0  0  0  0  0  0  0  0  0  0
    1.2001    1.4527   -7.1931 O   0  0  0  0  0  0  0  0  0  0  0  0
    2.7057    2.3070   -5.3115 O   0  0  0  0  0  0  0  0  0  0  0  0
    1.0378    0.5025   -4.8253 O   0  0  0  0  0  0  0  0  0  0  0  0
    2.4957   -1.2110   -6.7528 F   0  0  0  0  0  0  0  0  0  0  0  0
    4.0666    0.2454   -7.1424 F   0  0  0  0  0  0  0  0  0  0  0  0
    3.7437   -0.4926   -5.1186 F   0  0  0  0  0  0  0  0  0  0  0  0
  1  2  2  0  0  0  0
  1  6  1  0  0  0  0
  2  3  1  0  0  0  0
  3 20  1  0  0  0  0
  3  4  2  0  0  0  0
  4  9  1  0  0  0  0
  5  4  1  0  0  0  0
  5 10  1  0  0  0  0
  6  5  2  0  0  0  0
  7  1  1  0  0  0  0
  8  2  1  0  0  0  0
 11  6  1  0  0  0  0
 11 12  2  0  0  0  0
 13 11  2  0  0  0  0
 15 14  3  0  0  0  0
 16 19  2  0  0  0  0
 16 20  1  0  0  0  0
 17 16  1  0  0  0  0
 17 23  1  0  0  0  0
 18 16  2  0  0  0  0
 21 17  1  0  0  0  0
 22 17  1  0  0  0  0
M  END
