Coordinates from ORCA-job 4-NO2-Ph-N2-OTf-B3LYPG-6-31G_dp-MTMO-d009-169-n800
 OpenBabel09051908473D

 23 22  0  0  0  0  0  0  0  0999 V2000
   -2.6455   -1.2780   -6.1168 C   0  0  0  0  0  0  0  0  0  0  0  0
   -1.2742   -1.0636   -6.0240 C   0  0  0  0  0  0  0  0  0  0  0  0
   -0.7400   -0.5996   -4.8219 C   0  0  0  0  0  0  0  0  0  0  0  0
   -1.5364   -0.3453   -3.7051 C   0  0  0  0  0  0  0  0  0  0  0  0
   -2.9098   -0.5502   -3.8012 C   0  0  0  0  0  0  0  0  0  0  0  0
   -3.4412   -1.0142   -5.0031 C   0  0  0  0  0  0  0  0  0  0  0  0
   -3.1042   -1.6397   -7.0282 H   0  0  0  0  0  0  0  0  0  0  0  0
   -0.6165   -1.2537   -6.8642 H   0  0  0  0  0  0  0  0  0  0  0  0
   -1.0891    0.0093   -2.7849 H   0  0  0  0  0  0  0  0  0  0  0  0
   -3.5694   -0.3634   -2.9634 H   0  0  0  0  0  0  0  0  0  0  0  0
   -4.8941   -1.2369   -5.0994 N   0  0  0  0  0  0  0  0  0  0  0  0
   -5.5727   -0.9978   -4.1025 O   0  0  0  0  0  0  0  0  0  0  0  0
   -5.3354   -1.6482   -6.1711 O   0  0  0  0  0  0  0  0  0  0  0  0
    7.2981    6.6266  -10.2025 N   0  0  0  0  0  0  0  0  0  0  0  0
    6.4842    5.9856   -9.8175 N   0  0  0  0  0  0  0  0  0  0  0  0
    1.3881    0.9777   -4.5211 S   0  0  0  0  0  0  0  0  0  0  0  0
    1.6191    1.4582   -6.3151 C   0  0  0  0  0  0  0  0  0  0  0  0
    0.4608    1.9261   -3.9286 O   0  0  0  0  0  0  0  0  0  0  0  0
    2.6929    0.6757   -3.9719 O   0  0  0  0  0  0  0  0  0  0  0  0
    0.6558   -0.4890   -4.7453 O   0  0  0  0  0  0  0  0  0  0  0  0
    0.4243    1.5377   -6.9036 F   0  0  0  0  0  0  0  0  0  0  0  0
    2.2235    2.6405   -6.3563 F   0  0  0  0  0  0  0  0  0  0  0  0
    2.3608    0.5434   -6.9302 F   0  0  0  0  0  0  0  0  0  0  0  0
  1  2  2  0  0  0  0
  1  6  1  0  0  0  0
  2  3  1  0  0  0  0
  3 20  1  0  0  0  0
  3  4  2  0  0  0  0
  4  9  1  0  0  0  0
  5  4  1  0  0  0  0
  5 10  1  0  0  0  0
  6  5  2  0  0  0  0
  7  1  1  0  0  0  0
  8  2  1  0  0  0  0
 11  6  1  0  0  0  0
 11 12  2  0  0  0  0
 13 11  2  0  0  0  0
 14 15  3  0  0  0  0
 16 19  2  0  0  0  0
 16 18  2  0  0  0  0
 17 16  1  0  0  0  0
 20 16  1  0  0  0  0
 21 17  1  0  0  0  0
 22 17  1  0  0  0  0
 23 17  1  0  0  0  0
M  END
