Coordinates from ORCA-job 4-NO2-Ph-N2-OTf-B3LYPG-6-31G_dp-MTMO-d009-169-n800
 OpenBabel09051908483D

 23 22  0  0  0  0  0  0  0  0999 V2000
   -2.9400   -1.5122   -5.9366 C   0  0  0  0  0  0  0  0  0  0  0  0
   -1.5695   -1.2869   -5.8599 C   0  0  0  0  0  0  0  0  0  0  0  0
   -1.0245   -0.8214   -4.6632 C   0  0  0  0  0  0  0  0  0  0  0  0
   -1.8093   -0.5760   -3.5363 C   0  0  0  0  0  0  0  0  0  0  0  0
   -3.1821   -0.7917   -3.6162 C   0  0  0  0  0  0  0  0  0  0  0  0
   -3.7242   -1.2575   -4.8127 C   0  0  0  0  0  0  0  0  0  0  0  0
   -3.4068   -1.8757   -6.8431 H   0  0  0  0  0  0  0  0  0  0  0  0
   -0.9205   -1.4698   -6.7084 H   0  0  0  0  0  0  0  0  0  0  0  0
   -1.3537   -0.2199   -2.6207 H   0  0  0  0  0  0  0  0  0  0  0  0
   -3.8329   -0.6122   -2.7700 H   0  0  0  0  0  0  0  0  0  0  0  0
   -5.1763   -1.4919   -4.8918 N   0  0  0  0  0  0  0  0  0  0  0  0
   -5.8447   -1.2605   -3.8862 O   0  0  0  0  0  0  0  0  0  0  0  0
   -5.6272   -1.9047   -5.9589 O   0  0  0  0  0  0  0  0  0  0  0  0
   10.3610    8.9905  -11.9417 N   0  0  0  0  0  0  0  0  0  0  0  0
    9.5489    8.3481  -11.5554 N   0  0  0  0  0  0  0  0  0  0  0  0
    1.0954    0.7710   -4.3836 S   0  0  0  0  0  0  0  0  0  0  0  0
    1.3008    1.2581   -6.1790 C   0  0  0  0  0  0  0  0  0  0  0  0
    0.1685    1.7109   -3.7772 O   0  0  0  0  0  0  0  0  0  0  0  0
    2.4090    0.4772   -3.8515 O   0  0  0  0  0  0  0  0  0  0  0  0
    0.3712   -0.7004   -4.6032 O   0  0  0  0  0  0  0  0  0  0  0  0
    0.0983    1.3315   -6.7523 F   0  0  0  0  0  0  0  0  0  0  0  0
    1.8969    2.4446   -6.2242 F   0  0  0  0  0  0  0  0  0  0  0  0
    2.0408    0.3502   -6.8060 F   0  0  0  0  0  0  0  0  0  0  0  0
  1  2  2  0  0  0  0
  1  6  1  0  0  0  0
  2  3  1  0  0  0  0
  3 20  1  0  0  0  0
  3  4  2  0  0  0  0
  4  9  1  0  0  0  0
  5  4  1  0  0  0  0
  5 10  1  0  0  0  0
  6  5  2  0  0  0  0
  7  1  1  0  0  0  0
  8  2  1  0  0  0  0
 11  6  1  0  0  0  0
 11 12  2  0  0  0  0
 13 11  2  0  0  0  0
 14 15  3  0  0  0  0
 16 19  2  0  0  0  0
 16 18  2  0  0  0  0
 17 16  1  0  0  0  0
 20 16  1  0  0  0  0
 21 17  1  0  0  0  0
 22 17  1  0  0  0  0
 23 17  1  0  0  0  0
M  END
