Coordinates from ORCA-job 4-NO2-Ph-N2-OTf-B3LYPG-6-31G_dp-MTMO-d009-169-n800
 OpenBabel09051908473D

 23 22  0  0  0  0  0  0  0  0999 V2000
   -2.1313   -0.8904   -6.4297 C   0  0  0  0  0  0  0  0  0  0  0  0
   -0.7801   -0.6845   -6.1718 C   0  0  0  0  0  0  0  0  0  0  0  0
   -0.3809   -0.3413   -4.8800 C   0  0  0  0  0  0  0  0  0  0  0  0
   -1.2933   -0.1987   -3.8346 C   0  0  0  0  0  0  0  0  0  0  0  0
   -2.6464   -0.3949   -4.0951 C   0  0  0  0  0  0  0  0  0  0  0  0
   -3.0427   -0.7392   -5.3860 C   0  0  0  0  0  0  0  0  0  0  0  0
   -2.4878   -1.1621   -7.4150 H   0  0  0  0  0  0  0  0  0  0  0  0
   -0.0349   -0.7906   -6.9517 H   0  0  0  0  0  0  0  0  0  0  0  0
   -0.9488    0.0643   -2.8423 H   0  0  0  0  0  0  0  0  0  0  0  0
   -3.3926   -0.2930   -3.3176 H   0  0  0  0  0  0  0  0  0  0  0  0
   -4.4744   -0.9543   -5.6568 N   0  0  0  0  0  0  0  0  0  0  0  0
   -5.2571   -0.8154   -4.7189 O   0  0  0  0  0  0  0  0  0  0  0  0
   -4.7951   -1.2593   -6.8042 O   0  0  0  0  0  0  0  0  0  0  0  0
    2.9338    3.4917   -9.9211 N   0  0  0  0  0  0  0  0  0  0  0  0
    2.7226    3.0727   -8.9208 N   0  0  0  0  0  0  0  0  0  0  0  0
    1.6919    1.1946   -4.2024 S   0  0  0  0  0  0  0  0  0  0  0  0
    2.0727    1.8650   -5.9097 C   0  0  0  0  0  0  0  0  0  0  0  0
    0.7072    2.0720   -3.5931 O   0  0  0  0  0  0  0  0  0  0  0  0
    2.9465    0.8355   -3.5761 O   0  0  0  0  0  0  0  0  0  0  0  0
    0.9976   -0.2407   -4.6453 O   0  0  0  0  0  0  0  0  0  0  0  0
    0.9284    2.0455   -6.5703 F   0  0  0  0  0  0  0  0  0  0  0  0
    2.7051    3.0246   -5.7705 F   0  0  0  0  0  0  0  0  0  0  0  0
    2.8386    0.9999   -6.5648 F   0  0  0  0  0  0  0  0  0  0  0  0
  1  2  2  0  0  0  0
  1  6  1  0  0  0  0
  2  3  1  0  0  0  0
  3 20  1  0  0  0  0
  3  4  2  0  0  0  0
  4  9  1  0  0  0  0
  5  4  1  0  0  0  0
  5 10  1  0  0  0  0
  6  5  2  0  0  0  0
  7  1  1  0  0  0  0
  8  2  1  0  0  0  0
 11  6  1  0  0  0  0
 11 12  2  0  0  0  0
 13 11  2  0  0  0  0
 14 15  3  0  0  0  0
 16 18  2  0  0  0  0
 16 19  2  0  0  0  0
 17 22  1  0  0  0  0
 17 16  1  0  0  0  0
 20 16  1  0  0  0  0
 21 17  1  0  0  0  0
 23 17  1  0  0  0  0
M  END
