Coordinates from ORCA-job 4-NO2-Ph-N2-OTf-B3LYPG-6-31G_dp-MTMO-d009-169-n800
 OpenBabel09051908473D

 23 22  0  0  0  0  0  0  0  0999 V2000
   -2.4630   -1.1154   -6.2230 C   0  0  0  0  0  0  0  0  0  0  0  0
   -1.0945   -0.8765   -6.1510 C   0  0  0  0  0  0  0  0  0  0  0  0
   -0.5487   -0.4144   -4.9533 C   0  0  0  0  0  0  0  0  0  0  0  0
   -1.3312   -0.1838   -3.8217 C   0  0  0  0  0  0  0  0  0  0  0  0
   -2.7020   -0.4130   -3.8968 C   0  0  0  0  0  0  0  0  0  0  0  0
   -3.2447   -0.8765   -5.0940 C   0  0  0  0  0  0  0  0  0  0  0  0
   -2.9301   -1.4773   -7.1300 H   0  0  0  0  0  0  0  0  0  0  0  0
   -0.4477   -1.0464   -7.0039 H   0  0  0  0  0  0  0  0  0  0  0  0
   -0.8753    0.1706   -2.9056 H   0  0  0  0  0  0  0  0  0  0  0  0
   -3.3509   -0.2455   -3.0466 H   0  0  0  0  0  0  0  0  0  0  0  0
   -4.6946   -1.1254   -5.1682 N   0  0  0  0  0  0  0  0  0  0  0  0
   -5.3609   -0.9074   -4.1582 O   0  0  0  0  0  0  0  0  0  0  0  0
   -5.1459   -1.5361   -6.2359 O   0  0  0  0  0  0  0  0  0  0  0  0
    5.2492    4.8187   -8.9859 N   0  0  0  0  0  0  0  0  0  0  0  0
    4.4874    4.1794   -8.5035 N   0  0  0  0  0  0  0  0  0  0  0  0
    1.5565    1.1989   -4.6746 S   0  0  0  0  0  0  0  0  0  0  0  0
    1.8246    1.6587   -6.4697 C   0  0  0  0  0  0  0  0  0  0  0  0
    0.6036    2.1421   -4.1153 O   0  0  0  0  0  0  0  0  0  0  0  0
    2.8524    0.9218   -4.0917 O   0  0  0  0  0  0  0  0  0  0  0  0
    0.8458   -0.2799   -4.8971 O   0  0  0  0  0  0  0  0  0  0  0  0
    0.6445    1.6975   -7.0911 F   0  0  0  0  0  0  0  0  0  0  0  0
    2.3984    2.8560   -6.5115 F   0  0  0  0  0  0  0  0  0  0  0  0
    2.6064    0.7549   -7.0492 F   0  0  0  0  0  0  0  0  0  0  0  0
  1  2  2  0  0  0  0
  1  6  1  0  0  0  0
  2  3  1  0  0  0  0
  3 20  1  0  0  0  0
  3  4  2  0  0  0  0
  4  9  1  0  0  0  0
  5  4  1  0  0  0  0
  5 10  1  0  0  0  0
  6  5  2  0  0  0  0
  7  1  1  0  0  0  0
  8  2  1  0  0  0  0
 11  6  1  0  0  0  0
 11 12  2  0  0  0  0
 13 11  2  0  0  0  0
 14 15  3  0  0  0  0
 16 18  2  0  0  0  0
 16 19  2  0  0  0  0
 17 16  1  0  0  0  0
 20 16  1  0  0  0  0
 21 17  1  0  0  0  0
 22 17  1  0  0  0  0
 23 17  1  0  0  0  0
M  END
