Coordinates from ORCA-job 4-NO2-Ph-N2-OTf-B3LYPG-6-31G_dp-MTMO-d009-169-n800
 OpenBabel09051908473D

 23 22  0  0  0  0  0  0  0  0999 V2000
   -2.5296   -1.2091   -6.1603 C   0  0  0  0  0  0  0  0  0  0  0  0
   -1.1576   -0.9922   -6.0852 C   0  0  0  0  0  0  0  0  0  0  0  0
   -0.6141   -0.4886   -4.9034 C   0  0  0  0  0  0  0  0  0  0  0  0
   -1.4021   -0.1960   -3.7900 C   0  0  0  0  0  0  0  0  0  0  0  0
   -2.7761   -0.4034   -3.8686 C   0  0  0  0  0  0  0  0  0  0  0  0
   -3.3167   -0.9079   -5.0500 C   0  0  0  0  0  0  0  0  0  0  0  0
   -2.9953   -1.6010   -7.0555 H   0  0  0  0  0  0  0  0  0  0  0  0
   -0.5063   -1.2103   -6.9236 H   0  0  0  0  0  0  0  0  0  0  0  0
   -0.9476    0.1895   -2.8859 H   0  0  0  0  0  0  0  0  0  0  0  0
   -3.4294   -0.1881   -3.0327 H   0  0  0  0  0  0  0  0  0  0  0  0
   -4.7703   -1.1334   -5.1275 N   0  0  0  0  0  0  0  0  0  0  0  0
   -5.4409   -0.8627   -4.1333 O   0  0  0  0  0  0  0  0  0  0  0  0
   -5.2200   -1.5786   -6.1819 O   0  0  0  0  0  0  0  0  0  0  0  0
    5.9429    5.6166   -9.2348 N   0  0  0  0  0  0  0  0  0  0  0  0
    5.1583    4.9640   -8.8102 N   0  0  0  0  0  0  0  0  0  0  0  0
    1.5171    1.0960   -4.6724 S   0  0  0  0  0  0  0  0  0  0  0  0
    1.7550    1.5017   -6.4841 C   0  0  0  0  0  0  0  0  0  0  0  0
    0.5897    2.0690   -4.1214 O   0  0  0  0  0  0  0  0  0  0  0  0
    2.8196    0.8141   -4.1071 O   0  0  0  0  0  0  0  0  0  0  0  0
    0.7821   -0.3770   -4.8406 O   0  0  0  0  0  0  0  0  0  0  0  0
    0.5621    1.5576   -7.0793 F   0  0  0  0  0  0  0  0  0  0  0  0
    2.3611    2.6802   -6.5728 F   0  0  0  0  0  0  0  0  0  0  0  0
    2.4973    0.5607   -7.0575 F   0  0  0  0  0  0  0  0  0  0  0  0
  1  2  2  0  0  0  0
  1  6  1  0  0  0  0
  2  3  1  0  0  0  0
  3 20  1  0  0  0  0
  3  4  2  0  0  0  0
  4  9  1  0  0  0  0
  5  4  1  0  0  0  0
  5 10  1  0  0  0  0
  6  5  2  0  0  0  0
  7  1  1  0  0  0  0
  8  2  1  0  0  0  0
 11  6  1  0  0  0  0
 11 12  2  0  0  0  0
 13 11  2  0  0  0  0
 14 15  3  0  0  0  0
 16 18  2  0  0  0  0
 16 19  2  0  0  0  0
 17 16  1  0  0  0  0
 20 16  1  0  0  0  0
 21 17  1  0  0  0  0
 22 17  1  0  0  0  0
 23 17  1  0  0  0  0
M  END
