Coordinates from ORCA-job 4-NO2-Ph-N2-OTf-B3LYPG-6-31G_dp-MTMO-d009-169-n800
 OpenBabel09051908473D

 23 22  0  0  0  0  0  0  0  0999 V2000
   -1.9846   -1.6379   -5.6052 C   0  0  0  0  0  0  0  0  0  0  0  0
   -0.6476   -1.3275   -5.3799 C   0  0  0  0  0  0  0  0  0  0  0  0
   -0.3132   -0.0427   -4.9526 C   0  0  0  0  0  0  0  0  0  0  0  0
   -1.2756    0.9448   -4.7417 C   0  0  0  0  0  0  0  0  0  0  0  0
   -2.6123    0.6366   -4.9772 C   0  0  0  0  0  0  0  0  0  0  0  0
   -2.9449   -0.6481   -5.4021 C   0  0  0  0  0  0  0  0  0  0  0  0
   -2.2929   -2.6219   -5.9345 H   0  0  0  0  0  0  0  0  0  0  0  0
    0.1340   -2.0642   -5.5259 H   0  0  0  0  0  0  0  0  0  0  0  0
   -0.9823    1.9317   -4.4064 H   0  0  0  0  0  0  0  0  0  0  0  0
   -3.3957    1.3691   -4.8303 H   0  0  0  0  0  0  0  0  0  0  0  0
   -4.3613   -0.9734   -5.6422 N   0  0  0  0  0  0  0  0  0  0  0  0
   -5.1881   -0.0829   -5.4552 O   0  0  0  0  0  0  0  0  0  0  0  0
   -4.6257   -2.1153   -6.0143 O   0  0  0  0  0  0  0  0  0  0  0  0
    0.3668    5.2785   -4.8421 N   0  0  0  0  0  0  0  0  0  0  0  0
    1.0895    5.9162   -5.3827 N   0  0  0  0  0  0  0  0  0  0  0  0
    1.9289    1.3020   -5.4862 S   0  0  0  0  0  0  0  0  0  0  0  0
    2.5997    0.1715   -6.8187 C   0  0  0  0  0  0  0  0  0  0  0  0
    1.0657    2.2766   -6.1315 O   0  0  0  0  0  0  0  0  0  0  0  0
    3.0263    1.6553   -4.6109 O   0  0  0  0  0  0  0  0  0  0  0  0
    1.0347    0.1947   -4.6451 O   0  0  0  0  0  0  0  0  0  0  0  0
    1.5815   -0.3237   -7.5244 F   0  0  0  0  0  0  0  0  0  0  0  0
    3.3948    0.8835   -7.6101 F   0  0  0  0  0  0  0  0  0  0  0  0
    3.2815   -0.8218   -6.2589 F   0  0  0  0  0  0  0  0  0  0  0  0
  1  6  2  0  0  0  0
  1  2  1  0  0  0  0
  2  3  2  0  0  0  0
  3  4  1  0  0  0  0
  3 20  1  0  0  0  0
  4  9  1  0  0  0  0
  5 10  1  0  0  0  0
  5  4  2  0  0  0  0
  6  5  1  0  0  0  0
  7  1  1  0  0  0  0
  8  2  1  0  0  0  0
 11 12  2  0  0  0  0
 11  6  1  0  0  0  0
 13 11  2  0  0  0  0
 15 14  3  0  0  0  0
 16 20  1  0  0  0  0
 16 19  2  0  0  0  0
 17 23  1  0  0  0  0
 17 16  1  0  0  0  0
 18 16  2  0  0  0  0
 21 17  1  0  0  0  0
 22 17  1  0  0  0  0
M  END
