Coordinates from ORCA-job 4-NO2-Ph-N2-OTf-B3LYPG-6-31G_dp-MTMO-d009-169-n800
 OpenBabel09051908483D

 23 22  0  0  0  0  0  0  0  0999 V2000
   -2.7348   -1.3480   -6.0635 C   0  0  0  0  0  0  0  0  0  0  0  0
   -1.3637   -1.1319   -5.9732 C   0  0  0  0  0  0  0  0  0  0  0  0
   -0.8275   -0.6689   -4.7716 C   0  0  0  0  0  0  0  0  0  0  0  0
   -1.6219   -0.4171   -3.6528 C   0  0  0  0  0  0  0  0  0  0  0  0
   -2.9952   -0.6236   -3.7463 C   0  0  0  0  0  0  0  0  0  0  0  0
   -3.5285   -1.0867   -4.9478 C   0  0  0  0  0  0  0  0  0  0  0  0
   -3.1950   -1.7090   -6.9744 H   0  0  0  0  0  0  0  0  0  0  0  0
   -0.7074   -1.3201   -6.8151 H   0  0  0  0  0  0  0  0  0  0  0  0
   -1.1731   -0.0633   -2.7331 H   0  0  0  0  0  0  0  0  0  0  0  0
   -3.6533   -0.4388   -2.9069 H   0  0  0  0  0  0  0  0  0  0  0  0
   -4.9814   -1.3111   -5.0413 N   0  0  0  0  0  0  0  0  0  0  0  0
   -5.6582   -1.0742   -4.0427 O   0  0  0  0  0  0  0  0  0  0  0  0
   -5.4243   -1.7216   -6.1126 O   0  0  0  0  0  0  0  0  0  0  0  0
    8.2345    7.3553  -10.7404 N   0  0  0  0  0  0  0  0  0  0  0  0
    7.4138    6.7140  -10.3706 N   0  0  0  0  0  0  0  0  0  0  0  0
    1.2994    0.9104   -4.4729 S   0  0  0  0  0  0  0  0  0  0  0  0
    1.5253    1.3943   -6.2666 C   0  0  0  0  0  0  0  0  0  0  0  0
    0.3725    1.8566   -3.8764 O   0  0  0  0  0  0  0  0  0  0  0  0
    2.6059    0.6090   -3.9276 O   0  0  0  0  0  0  0  0  0  0  0  0
    0.5683   -0.5568   -4.6978 O   0  0  0  0  0  0  0  0  0  0  0  0
    0.3289    1.4738   -6.8519 F   0  0  0  0  0  0  0  0  0  0  0  0
    2.1285    2.5773   -6.3073 F   0  0  0  0  0  0  0  0  0  0  0  0
    2.2662    0.4815   -6.8853 F   0  0  0  0  0  0  0  0  0  0  0  0
  1  2  2  0  0  0  0
  1  6  1  0  0  0  0
  2  3  1  0  0  0  0
  3 20  1  0  0  0  0
  3  4  2  0  0  0  0
  4  9  1  0  0  0  0
  5  4  1  0  0  0  0
  5 10  1  0  0  0  0
  6  5  2  0  0  0  0
  7  1  1  0  0  0  0
  8  2  1  0  0  0  0
 11  6  1  0  0  0  0
 11 12  2  0  0  0  0
 13 11  2  0  0  0  0
 14 15  3  0  0  0  0
 16 19  2  0  0  0  0
 16 18  2  0  0  0  0
 17 16  1  0  0  0  0
 20 16  1  0  0  0  0
 21 17  1  0  0  0  0
 22 17  1  0  0  0  0
 23 17  1  0  0  0  0
M  END
