Coordinates from ORCA-job 4-NO2-Ph-N2-OTf-B3LYPG-6-31G_dp-MTMO-d009-169-n800
 OpenBabel09051908473D

 23 22  0  0  0  0  0  0  0  0999 V2000
   -1.9809   -1.6136   -5.5770 C   0  0  0  0  0  0  0  0  0  0  0  0
   -0.6411   -1.3087   -5.3603 C   0  0  0  0  0  0  0  0  0  0  0  0
   -0.2957   -0.0156   -4.9685 C   0  0  0  0  0  0  0  0  0  0  0  0
   -1.2494    0.9857   -4.7846 C   0  0  0  0  0  0  0  0  0  0  0  0
   -2.5888    0.6825   -5.0115 C   0  0  0  0  0  0  0  0  0  0  0  0
   -2.9325   -0.6105   -5.4011 C   0  0  0  0  0  0  0  0  0  0  0  0
   -2.2977   -2.6034   -5.8795 H   0  0  0  0  0  0  0  0  0  0  0  0
    0.1340   -2.0558   -5.4863 H   0  0  0  0  0  0  0  0  0  0  0  0
   -0.9478    1.9790   -4.4762 H   0  0  0  0  0  0  0  0  0  0  0  0
   -3.3659    1.4254   -4.8847 H   0  0  0  0  0  0  0  0  0  0  0  0
   -4.3517   -0.9301   -5.6324 N   0  0  0  0  0  0  0  0  0  0  0  0
   -5.1708   -0.0277   -5.4699 O   0  0  0  0  0  0  0  0  0  0  0  0
   -4.6260   -2.0794   -5.9730 O   0  0  0  0  0  0  0  0  0  0  0  0
    0.2020    5.1199   -4.7255 N   0  0  0  0  0  0  0  0  0  0  0  0
    0.8471    5.8788   -5.2043 N   0  0  0  0  0  0  0  0  0  0  0  0
    1.9570    1.2929   -5.5428 S   0  0  0  0  0  0  0  0  0  0  0  0
    2.6300    0.1132   -6.8310 C   0  0  0  0  0  0  0  0  0  0  0  0
    1.1009    2.2471   -6.2267 O   0  0  0  0  0  0  0  0  0  0  0  0
    3.0516    1.6732   -4.6752 O   0  0  0  0  0  0  0  0  0  0  0  0
    1.0542    0.2196   -4.6676 O   0  0  0  0  0  0  0  0  0  0  0  0
    1.6128   -0.4119   -7.5163 F   0  0  0  0  0  0  0  0  0  0  0  0
    3.4226    0.7960   -7.6500 F   0  0  0  0  0  0  0  0  0  0  0  0
    3.3149   -0.8557   -6.2334 F   0  0  0  0  0  0  0  0  0  0  0  0
  1  6  2  0  0  0  0
  1  2  1  0  0  0  0
  2  3  2  0  0  0  0
  3  4  1  0  0  0  0
  3 20  1  0  0  0  0
  4  9  1  0  0  0  0
  5 10  1  0  0  0  0
  5  4  2  0  0  0  0
  6  5  1  0  0  0  0
  7  1  1  0  0  0  0
  8  2  1  0  0  0  0
 11 12  2  0  0  0  0
 11  6  1  0  0  0  0
 13 11  2  0  0  0  0
 15 14  3  0  0  0  0
 16 19  2  0  0  0  0
 16 20  1  0  0  0  0
 17 23  1  0  0  0  0
 17 16  1  0  0  0  0
 18 16  2  0  0  0  0
 21 17  1  0  0  0  0
 22 17  1  0  0  0  0
M  END
