Coordinates from ORCA-job 4-NO2-Ph-N2-OTf-B3LYPG-6-31G_dp-MTMO-d009-169-n800
 OpenBabel09051908473D

 23 22  0  0  0  0  0  0  0  0999 V2000
   -2.5255   -1.2049   -6.1620 C   0  0  0  0  0  0  0  0  0  0  0  0
   -1.1536   -0.9865   -6.0899 C   0  0  0  0  0  0  0  0  0  0  0  0
   -0.6083   -0.4811   -4.9097 C   0  0  0  0  0  0  0  0  0  0  0  0
   -1.3943   -0.1880   -3.7951 C   0  0  0  0  0  0  0  0  0  0  0  0
   -2.7683   -0.3970   -3.8707 C   0  0  0  0  0  0  0  0  0  0  0  0
   -3.3107   -0.9034   -5.0505 C   0  0  0  0  0  0  0  0  0  0  0  0
   -2.9926   -1.5982   -7.0559 H   0  0  0  0  0  0  0  0  0  0  0  0
   -0.5038   -1.2047   -6.9294 H   0  0  0  0  0  0  0  0  0  0  0  0
   -0.9384    0.1990   -2.8923 H   0  0  0  0  0  0  0  0  0  0  0  0
   -3.4201   -0.1814   -3.0337 H   0  0  0  0  0  0  0  0  0  0  0  0
   -4.7642   -1.1306   -5.1247 N   0  0  0  0  0  0  0  0  0  0  0  0
   -5.4331   -0.8595   -4.1295 O   0  0  0  0  0  0  0  0  0  0  0  0
   -5.2155   -1.5776   -6.1778 O   0  0  0  0  0  0  0  0  0  0  0  0
    5.8714    5.5587   -9.1743 N   0  0  0  0  0  0  0  0  0  0  0  0
    5.0896    4.9038   -8.7482 N   0  0  0  0  0  0  0  0  0  0  0  0
    1.5220    1.1059   -4.6845 S   0  0  0  0  0  0  0  0  0  0  0  0
    1.7656    1.5047   -6.4971 C   0  0  0  0  0  0  0  0  0  0  0  0
    0.5923    2.0804   -4.1400 O   0  0  0  0  0  0  0  0  0  0  0  0
    2.8229    0.8270   -4.1141 O   0  0  0  0  0  0  0  0  0  0  0  0
    0.7879   -0.3681   -4.8496 O   0  0  0  0  0  0  0  0  0  0  0  0
    0.5746    1.5555   -7.0967 F   0  0  0  0  0  0  0  0  0  0  0  0
    2.3695    2.6841   -6.5885 F   0  0  0  0  0  0  0  0  0  0  0  0
    2.5119    0.5629   -7.0638 F   0  0  0  0  0  0  0  0  0  0  0  0
  1  2  2  0  0  0  0
  1  6  1  0  0  0  0
  2  3  1  0  0  0  0
  3 20  1  0  0  0  0
  3  4  2  0  0  0  0
  4  9  1  0  0  0  0
  5  4  1  0  0  0  0
  5 10  1  0  0  0  0
  6  5  2  0  0  0  0
  7  1  1  0  0  0  0
  8  2  1  0  0  0  0
 11  6  1  0  0  0  0
 11 12  2  0  0  0  0
 13 11  2  0  0  0  0
 14 15  3  0  0  0  0
 16 18  2  0  0  0  0
 16 19  2  0  0  0  0
 17 16  1  0  0  0  0
 20 16  1  0  0  0  0
 21 17  1  0  0  0  0
 22 17  1  0  0  0  0
 23 17  1  0  0  0  0
M  END
