Coordinates from ORCA-job 4-NO2-Ph-N2-OTf-B3LYPG-6-31G_dp-MTMO-d009-169-n800
 OpenBabel09051908473D

 23 22  0  0  0  0  0  0  0  0999 V2000
   -2.1784   -0.9011   -6.4111 C   0  0  0  0  0  0  0  0  0  0  0  0
   -0.8249   -0.6816   -6.1773 C   0  0  0  0  0  0  0  0  0  0  0  0
   -0.4052   -0.3414   -4.8913 C   0  0  0  0  0  0  0  0  0  0  0  0
   -1.2996   -0.2145   -3.8284 C   0  0  0  0  0  0  0  0  0  0  0  0
   -2.6551   -0.4243   -4.0645 C   0  0  0  0  0  0  0  0  0  0  0  0
   -3.0716   -0.7659   -5.3497 C   0  0  0  0  0  0  0  0  0  0  0  0
   -2.5502   -1.1710   -7.3912 H   0  0  0  0  0  0  0  0  0  0  0  0
   -0.0937   -0.7748   -6.9720 H   0  0  0  0  0  0  0  0  0  0  0  0
   -0.9397    0.0468   -2.8411 H   0  0  0  0  0  0  0  0  0  0  0  0
   -3.3876   -0.3349   -3.2726 H   0  0  0  0  0  0  0  0  0  0  0  0
   -4.5058   -0.9954   -5.5950 N   0  0  0  0  0  0  0  0  0  0  0  0
   -5.2722   -0.8710   -4.6416 O   0  0  0  0  0  0  0  0  0  0  0  0
   -4.8447   -1.2971   -6.7379 O   0  0  0  0  0  0  0  0  0  0  0  0
    3.2315    3.6324   -9.8595 N   0  0  0  0  0  0  0  0  0  0  0  0
    2.9062    3.1242   -8.9337 N   0  0  0  0  0  0  0  0  0  0  0  0
    1.6602    1.2180   -4.2486 S   0  0  0  0  0  0  0  0  0  0  0  0
    2.0724    1.8606   -5.9594 C   0  0  0  0  0  0  0  0  0  0  0  0
    0.6620    2.1027   -3.6728 O   0  0  0  0  0  0  0  0  0  0  0  0
    2.9048    0.8744   -3.5939 O   0  0  0  0  0  0  0  0  0  0  0  0
    0.9759   -0.2259   -4.6805 O   0  0  0  0  0  0  0  0  0  0  0  0
    0.9439    2.0064   -6.6545 F   0  0  0  0  0  0  0  0  0  0  0  0
    2.6783    3.0353   -5.8251 F   0  0  0  0  0  0  0  0  0  0  0  0
    2.8725    0.9992   -6.5765 F   0  0  0  0  0  0  0  0  0  0  0  0
  1  2  2  0  0  0  0
  1  6  1  0  0  0  0
  2  3  1  0  0  0  0
  3 20  1  0  0  0  0
  3  4  2  0  0  0  0
  4  9  1  0  0  0  0
  5  4  1  0  0  0  0
  5 10  1  0  0  0  0
  6  5  2  0  0  0  0
  7  1  1  0  0  0  0
  8  2  1  0  0  0  0
 11  6  1  0  0  0  0
 11 12  2  0  0  0  0
 13 11  2  0  0  0  0
 14 15  3  0  0  0  0
 16 18  2  0  0  0  0
 16 19  2  0  0  0  0
 17 22  1  0  0  0  0
 17 16  1  0  0  0  0
 20 16  1  0  0  0  0
 21 17  1  0  0  0  0
 23 17  1  0  0  0  0
M  END
