Coordinates from ORCA-job 4-NO2-Ph-N2-OTf-B3LYPG-6-31G_dp-MTMO-d009-169-n800
 OpenBabel09051908473D

 23 22  0  0  0  0  0  0  0  0999 V2000
   -2.5347   -1.2116   -6.1596 C   0  0  0  0  0  0  0  0  0  0  0  0
   -1.1628   -0.9952   -6.0822 C   0  0  0  0  0  0  0  0  0  0  0  0
   -0.6206   -0.4953   -4.8981 C   0  0  0  0  0  0  0  0  0  0  0  0
   -1.4099   -0.2063   -3.7847 C   0  0  0  0  0  0  0  0  0  0  0  0
   -2.7839   -0.4133   -3.8656 C   0  0  0  0  0  0  0  0  0  0  0  0
   -3.3231   -0.9138   -5.0493 C   0  0  0  0  0  0  0  0  0  0  0  0
   -2.9994   -1.6006   -7.0566 H   0  0  0  0  0  0  0  0  0  0  0  0
   -0.5105   -1.2107   -6.9204 H   0  0  0  0  0  0  0  0  0  0  0  0
   -0.9564    0.1762   -2.8788 H   0  0  0  0  0  0  0  0  0  0  0  0
   -3.4381   -0.2006   -3.0297 H   0  0  0  0  0  0  0  0  0  0  0  0
   -4.7766   -1.1388   -5.1292 N   0  0  0  0  0  0  0  0  0  0  0  0
   -5.4484   -0.8711   -4.1351 O   0  0  0  0  0  0  0  0  0  0  0  0
   -5.2251   -1.5808   -6.1856 O   0  0  0  0  0  0  0  0  0  0  0  0
    6.0189    5.6671   -9.2999 N   0  0  0  0  0  0  0  0  0  0  0  0
    5.2303    5.0189   -8.8760 N   0  0  0  0  0  0  0  0  0  0  0  0
    1.5104    1.0884   -4.6595 S   0  0  0  0  0  0  0  0  0  0  0  0
    1.7457    1.5026   -6.4695 C   0  0  0  0  0  0  0  0  0  0  0  0
    0.5836    2.0587   -4.1028 O   0  0  0  0  0  0  0  0  0  0  0  0
    2.8136    0.8041   -4.0972 O   0  0  0  0  0  0  0  0  0  0  0  0
    0.7755   -0.3840   -4.8334 O   0  0  0  0  0  0  0  0  0  0  0  0
    0.5519    1.5618   -7.0627 F   0  0  0  0  0  0  0  0  0  0  0  0
    2.3520    2.6813   -6.5534 F   0  0  0  0  0  0  0  0  0  0  0  0
    2.4868    0.5642   -7.0487 F   0  0  0  0  0  0  0  0  0  0  0  0
  1  2  2  0  0  0  0
  1  6  1  0  0  0  0
  2  3  1  0  0  0  0
  3 20  1  0  0  0  0
  3  4  2  0  0  0  0
  4  9  1  0  0  0  0
  5  4  1  0  0  0  0
  5 10  1  0  0  0  0
  6  5  2  0  0  0  0
  7  1  1  0  0  0  0
  8  2  1  0  0  0  0
 11  6  1  0  0  0  0
 11 12  2  0  0  0  0
 13 11  2  0  0  0  0
 14 15  3  0  0  0  0
 16 18  2  0  0  0  0
 16 19  2  0  0  0  0
 17 16  1  0  0  0  0
 20 16  1  0  0  0  0
 21 17  1  0  0  0  0
 22 17  1  0  0  0  0
 23 17  1  0  0  0  0
M  END
