Coordinates from ORCA-job 4-NO2-Ph-N2-OTf-B3LYPG-6-31G_dp-MTMO-d009-169-n800
 OpenBabel09051908473D

 23 22  0  0  0  0  0  0  0  0999 V2000
   -2.0636   -0.8710   -6.1770 C   0  0  0  0  0  0  0  0  0  0  0  0
   -0.7072   -0.5847   -6.0561 C   0  0  0  0  0  0  0  0  0  0  0  0
   -0.2924    0.2991   -5.0596 C   0  0  0  0  0  0  0  0  0  0  0  0
   -1.1931    0.8902   -4.1737 C   0  0  0  0  0  0  0  0  0  0  0  0
   -2.5477    0.5943   -4.2869 C   0  0  0  0  0  0  0  0  0  0  0  0
   -2.9616   -0.2791   -5.2909 C   0  0  0  0  0  0  0  0  0  0  0  0
   -2.4324   -1.5488   -6.9369 H   0  0  0  0  0  0  0  0  0  0  0  0
    0.0146   -1.0406   -6.7210 H   0  0  0  0  0  0  0  0  0  0  0  0
   -0.8237    1.5646   -3.4099 H   0  0  0  0  0  0  0  0  0  0  0  0
   -3.2817    1.0273   -3.6196 H   0  0  0  0  0  0  0  0  0  0  0  0
   -4.3949   -0.5919   -5.4154 N   0  0  0  0  0  0  0  0  0  0  0  0
   -5.1636   -0.0595   -4.6165 O   0  0  0  0  0  0  0  0  0  0  0  0
   -4.7321   -1.3659   -6.3095 O   0  0  0  0  0  0  0  0  0  0  0  0
   -0.3381    3.7105   -5.6549 N   0  0  0  0  0  0  0  0  0  0  0  0
   -0.9282    4.5537   -6.0569 N   0  0  0  0  0  0  0  0  0  0  0  0
    2.0355    1.2392   -5.9848 S   0  0  0  0  0  0  0  0  0  0  0  0
    3.1804   -0.2228   -6.2077 C   0  0  0  0  0  0  0  0  0  0  0  0
    1.3016    1.4249   -7.2246 O   0  0  0  0  0  0  0  0  0  0  0  0
    2.8002    2.2862   -5.3388 O   0  0  0  0  0  0  0  0  0  0  0  0
    1.0651    0.5589   -4.8276 O   0  0  0  0  0  0  0  0  0  0  0  0
    2.4857   -1.2674   -6.6665 F   0  0  0  0  0  0  0  0  0  0  0  0
    4.1104    0.1181   -7.0945 F   0  0  0  0  0  0  0  0  0  0  0  0
    3.7461   -0.5342   -5.0486 F   0  0  0  0  0  0  0  0  0  0  0  0
  1  2  2  0  0  0  0
  1  6  1  0  0  0  0
  2  3  1  0  0  0  0
  3 20  1  0  0  0  0
  3  4  2  0  0  0  0
  4  9  1  0  0  0  0
  5  4  1  0  0  0  0
  5 10  1  0  0  0  0
  6  5  2  0  0  0  0
  7  1  1  0  0  0  0
  8  2  1  0  0  0  0
 11  6  1  0  0  0  0
 11 12  2  0  0  0  0
 13 11  2  0  0  0  0
 15 14  3  0  0  0  0
 16 19  2  0  0  0  0
 16 20  1  0  0  0  0
 17 16  1  0  0  0  0
 17 23  1  0  0  0  0
 18 16  2  0  0  0  0
 21 17  1  0  0  0  0
 22 17  1  0  0  0  0
M  END
