Coordinates from ORCA-job 4-NO2-Ph-N2-OTf-B3LYPG-6-31G_dp-MTMO-d009-169-n800
 OpenBabel09051908473D

 23 22  0  0  0  0  0  0  0  0999 V2000
   -2.0723   -0.4153   -6.3501 C   0  0  0  0  0  0  0  0  0  0  0  0
   -0.7349   -0.0352   -6.2920 C   0  0  0  0  0  0  0  0  0  0  0  0
   -0.2819    0.6544   -5.1633 C   0  0  0  0  0  0  0  0  0  0  0  0
   -1.1101    0.8633   -4.0542 C   0  0  0  0  0  0  0  0  0  0  0  0
   -2.4404    0.4732   -4.1115 C   0  0  0  0  0  0  0  0  0  0  0  0
   -2.9092   -0.1496   -5.2685 C   0  0  0  0  0  0  0  0  0  0  0  0
   -2.4708   -0.9283   -7.2164 H   0  0  0  0  0  0  0  0  0  0  0  0
   -0.0742   -0.2409   -7.1224 H   0  0  0  0  0  0  0  0  0  0  0  0
   -0.7021    1.3507   -3.1763 H   0  0  0  0  0  0  0  0  0  0  0  0
   -3.1155    0.6377   -3.2813 H   0  0  0  0  0  0  0  0  0  0  0  0
   -4.3183   -0.5614   -5.3365 N   0  0  0  0  0  0  0  0  0  0  0  0
   -5.0263   -0.3262   -4.3582 O   0  0  0  0  0  0  0  0  0  0  0  0
   -4.7000   -1.1158   -6.3661 O   0  0  0  0  0  0  0  0  0  0  0  0
   -0.6138    2.8175   -5.9968 N   0  0  0  0  0  0  0  0  0  0  0  0
   -1.5135    3.3464   -6.3654 N   0  0  0  0  0  0  0  0  0  0  0  0
    2.2036    1.3068   -6.0599 S   0  0  0  0  0  0  0  0  0  0  0  0
    3.0962   -0.3348   -5.9761 C   0  0  0  0  0  0  0  0  0  0  0  0
    1.6324    1.4220   -7.3912 O   0  0  0  0  0  0  0  0  0  0  0  0
    3.0651    2.3095   -5.4707 O   0  0  0  0  0  0  0  0  0  0  0  0
    1.0575    0.9727   -4.9216 O   0  0  0  0  0  0  0  0  0  0  0  0
    2.2499   -1.3082   -6.3180 F   0  0  0  0  0  0  0  0  0  0  0  0
    4.1097   -0.2963   -6.8358 F   0  0  0  0  0  0  0  0  0  0  0  0
    3.5479   -0.5411   -4.7456 F   0  0  0  0  0  0  0  0  0  0  0  0
  1  2  2  0  0  0  0
  1  6  1  0  0  0  0
  2  3  1  0  0  0  0
  3 20  1  0  0  0  0
  3  4  2  0  0  0  0
  4  9  1  0  0  0  0
  5  4  1  0  0  0  0
  5 10  1  0  0  0  0
  6  5  2  0  0  0  0
  7  1  1  0  0  0  0
  8  2  1  0  0  0  0
 11  6  1  0  0  0  0
 11 12  2  0  0  0  0
 13 11  2  0  0  0  0
 15 14  3  0  0  0  0
 16 17  1  0  0  0  0
 16 19  2  0  0  0  0
 16 20  1  0  0  0  0
 17 23  1  0  0  0  0
 18 16  2  0  0  0  0
 21 17  1  0  0  0  0
 22 17  1  0  0  0  0
M  END
