Coordinates from ORCA-job 4-NO2-Ph-N2-OTf-B3LYPG-6-31G_dp-MTMO-d009-169-n800
 OpenBabel09051908483D

 23 22  0  0  0  0  0  0  0  0999 V2000
   -2.7616   -1.3693   -6.0471 C   0  0  0  0  0  0  0  0  0  0  0  0
   -1.3904   -1.1524   -5.9581 C   0  0  0  0  0  0  0  0  0  0  0  0
   -0.8534   -0.6892   -4.7570 C   0  0  0  0  0  0  0  0  0  0  0  0
   -1.6469   -0.4379   -3.6374 C   0  0  0  0  0  0  0  0  0  0  0  0
   -3.0201   -0.6451   -3.7296 C   0  0  0  0  0  0  0  0  0  0  0  0
   -3.5543   -1.1086   -4.9306 C   0  0  0  0  0  0  0  0  0  0  0  0
   -3.2224   -1.7307   -6.9575 H   0  0  0  0  0  0  0  0  0  0  0  0
   -0.7349   -1.3402   -6.8006 H   0  0  0  0  0  0  0  0  0  0  0  0
   -1.1973   -0.0838   -2.7181 H   0  0  0  0  0  0  0  0  0  0  0  0
   -3.6775   -0.4608   -2.8895 H   0  0  0  0  0  0  0  0  0  0  0  0
   -5.0071   -1.3338   -5.0226 N   0  0  0  0  0  0  0  0  0  0  0  0
   -5.6831   -1.0973   -4.0234 O   0  0  0  0  0  0  0  0  0  0  0  0
   -5.4509   -1.7446   -6.0935 O   0  0  0  0  0  0  0  0  0  0  0  0
    8.5126    7.5705  -10.8985 N   0  0  0  0  0  0  0  0  0  0  0  0
    7.6915    6.9298  -10.5286 N   0  0  0  0  0  0  0  0  0  0  0  0
    1.2730    0.8913   -4.4603 S   0  0  0  0  0  0  0  0  0  0  0  0
    1.4967    1.3755   -6.2542 C   0  0  0  0  0  0  0  0  0  0  0  0
    0.3461    1.8370   -3.8628 O   0  0  0  0  0  0  0  0  0  0  0  0
    2.5802    0.5906   -3.9164 O   0  0  0  0  0  0  0  0  0  0  0  0
    0.5424   -0.5762   -4.6846 O   0  0  0  0  0  0  0  0  0  0  0  0
    0.2997    1.4545   -6.8382 F   0  0  0  0  0  0  0  0  0  0  0  0
    2.0993    2.5588   -6.2954 F   0  0  0  0  0  0  0  0  0  0  0  0
    2.2375    0.4630   -6.8738 F   0  0  0  0  0  0  0  0  0  0  0  0
  1  2  2  0  0  0  0
  1  6  1  0  0  0  0
  2  3  1  0  0  0  0
  3 20  1  0  0  0  0
  3  4  2  0  0  0  0
  4  9  1  0  0  0  0
  5  4  1  0  0  0  0
  5 10  1  0  0  0  0
  6  5  2  0  0  0  0
  7  1  1  0  0  0  0
  8  2  1  0  0  0  0
 11  6  1  0  0  0  0
 11 12  2  0  0  0  0
 13 11  2  0  0  0  0
 14 15  3  0  0  0  0
 16 19  2  0  0  0  0
 16 18  2  0  0  0  0
 17 16  1  0  0  0  0
 20 16  1  0  0  0  0
 21 17  1  0  0  0  0
 22 17  1  0  0  0  0
 23 17  1  0  0  0  0
M  END
