Coordinates from ORCA-job 4-NO2-Ph-N2-OTf-B3LYPG-6-31G_dp-MTMO-d009-169-n800
 OpenBabel09051908473D

 23 22  0  0  0  0  0  0  0  0999 V2000
   -2.5219   -1.2008   -6.1640 C   0  0  0  0  0  0  0  0  0  0  0  0
   -1.1501   -0.9810   -6.0942 C   0  0  0  0  0  0  0  0  0  0  0  0
   -0.6033   -0.4749   -4.9150 C   0  0  0  0  0  0  0  0  0  0  0  0
   -1.3879   -0.1821   -3.7993 C   0  0  0  0  0  0  0  0  0  0  0  0
   -2.7618   -0.3925   -3.8725 C   0  0  0  0  0  0  0  0  0  0  0  0
   -3.3056   -0.8997   -5.0512 C   0  0  0  0  0  0  0  0  0  0  0  0
   -2.9901   -1.5948   -7.0570 H   0  0  0  0  0  0  0  0  0  0  0  0
   -0.5014   -1.1987   -6.9347 H   0  0  0  0  0  0  0  0  0  0  0  0
   -0.9309    0.2056   -2.8973 H   0  0  0  0  0  0  0  0  0  0  0  0
   -3.4124   -0.1772   -3.0345 H   0  0  0  0  0  0  0  0  0  0  0  0
   -4.7589   -1.1284   -5.1231 N   0  0  0  0  0  0  0  0  0  0  0  0
   -5.4266   -0.8576   -4.1269 O   0  0  0  0  0  0  0  0  0  0  0  0
   -5.2116   -1.5761   -6.1752 O   0  0  0  0  0  0  0  0  0  0  0  0
    5.8115    5.5080   -9.1278 N   0  0  0  0  0  0  0  0  0  0  0  0
    5.0317    4.8529   -8.6985 N   0  0  0  0  0  0  0  0  0  0  0  0
    1.5259    1.1142   -4.6934 S   0  0  0  0  0  0  0  0  0  0  0  0
    1.7744    1.5081   -6.5064 C   0  0  0  0  0  0  0  0  0  0  0  0
    0.5941    2.0896   -4.1541 O   0  0  0  0  0  0  0  0  0  0  0  0
    2.8253    0.8379   -4.1184 O   0  0  0  0  0  0  0  0  0  0  0  0
    0.7929   -0.3606   -4.8569 O   0  0  0  0  0  0  0  0  0  0  0  0
    0.5852    1.5546   -7.1097 F   0  0  0  0  0  0  0  0  0  0  0  0
    2.3763    2.6884   -6.5997 F   0  0  0  0  0  0  0  0  0  0  0  0
    2.5244    0.5660   -7.0680 F   0  0  0  0  0  0  0  0  0  0  0  0
  1  2  2  0  0  0  0
  1  6  1  0  0  0  0
  2  3  1  0  0  0  0
  3 20  1  0  0  0  0
  3  4  2  0  0  0  0
  4  9  1  0  0  0  0
  5  4  1  0  0  0  0
  5 10  1  0  0  0  0
  6  5  2  0  0  0  0
  7  1  1  0  0  0  0
  8  2  1  0  0  0  0
 11  6  1  0  0  0  0
 11 12  2  0  0  0  0
 13 11  2  0  0  0  0
 14 15  3  0  0  0  0
 16 18  2  0  0  0  0
 16 19  2  0  0  0  0
 17 16  1  0  0  0  0
 20 16  1  0  0  0  0
 21 17  1  0  0  0  0
 22 17  1  0  0  0  0
 23 17  1  0  0  0  0
M  END
