Coordinates from ORCA-job 4-NO2-Ph-N2-OTf-B3LYPG-6-31G_dp-MTMO-d009-169-n800
 OpenBabel09051908473D

 23 22  0  0  0  0  0  0  0  0999 V2000
   -2.6443   -1.2771   -6.1175 C   0  0  0  0  0  0  0  0  0  0  0  0
   -1.2730   -1.0627   -6.0247 C   0  0  0  0  0  0  0  0  0  0  0  0
   -0.7388   -0.5986   -4.8226 C   0  0  0  0  0  0  0  0  0  0  0  0
   -1.5352   -0.3442   -3.7058 C   0  0  0  0  0  0  0  0  0  0  0  0
   -2.9086   -0.5490   -3.8020 C   0  0  0  0  0  0  0  0  0  0  0  0
   -3.4400   -1.0132   -5.0038 C   0  0  0  0  0  0  0  0  0  0  0  0
   -3.1030   -1.6389   -7.0288 H   0  0  0  0  0  0  0  0  0  0  0  0
   -0.6153   -1.2529   -6.8649 H   0  0  0  0  0  0  0  0  0  0  0  0
   -1.0879    0.0104   -2.7857 H   0  0  0  0  0  0  0  0  0  0  0  0
   -3.5682   -0.3622   -2.9642 H   0  0  0  0  0  0  0  0  0  0  0  0
   -4.8929   -1.2358   -5.1001 N   0  0  0  0  0  0  0  0  0  0  0  0
   -5.5715   -0.9967   -4.1032 O   0  0  0  0  0  0  0  0  0  0  0  0
   -5.3342   -1.6472   -6.1717 O   0  0  0  0  0  0  0  0  0  0  0  0
    7.2850    6.6164  -10.1948 N   0  0  0  0  0  0  0  0  0  0  0  0
    6.4712    5.9754   -9.8093 N   0  0  0  0  0  0  0  0  0  0  0  0
    1.3894    0.9787   -4.5219 S   0  0  0  0  0  0  0  0  0  0  0  0
    1.6204    1.4590   -6.3160 C   0  0  0  0  0  0  0  0  0  0  0  0
    0.4621    1.9271   -3.9295 O   0  0  0  0  0  0  0  0  0  0  0  0
    2.6941    0.6767   -3.9727 O   0  0  0  0  0  0  0  0  0  0  0  0
    0.6570   -0.4880   -4.7460 O   0  0  0  0  0  0  0  0  0  0  0  0
    0.4257    1.5385   -6.9045 F   0  0  0  0  0  0  0  0  0  0  0  0
    2.2249    2.6413   -6.3573 F   0  0  0  0  0  0  0  0  0  0  0  0
    2.3621    0.5442   -6.9309 F   0  0  0  0  0  0  0  0  0  0  0  0
  1  2  2  0  0  0  0
  1  6  1  0  0  0  0
  2  3  1  0  0  0  0
  3 20  1  0  0  0  0
  3  4  2  0  0  0  0
  4  9  1  0  0  0  0
  5  4  1  0  0  0  0
  5 10  1  0  0  0  0
  6  5  2  0  0  0  0
  7  1  1  0  0  0  0
  8  2  1  0  0  0  0
 11  6  1  0  0  0  0
 11 12  2  0  0  0  0
 13 11  2  0  0  0  0
 14 15  3  0  0  0  0
 16 19  2  0  0  0  0
 16 18  2  0  0  0  0
 17 16  1  0  0  0  0
 20 16  1  0  0  0  0
 21 17  1  0  0  0  0
 22 17  1  0  0  0  0
 23 17  1  0  0  0  0
M  END
