Coordinates from ORCA-job 4-NO2-Ph-N2-OTf-B3LYPG-6-31G_dp-MTMO-d009-169-n800
 OpenBabel09051908483D

 23 22  0  0  0  0  0  0  0  0999 V2000
   -2.8721   -1.4573   -5.9788 C   0  0  0  0  0  0  0  0  0  0  0  0
   -1.5015   -1.2343   -5.8978 C   0  0  0  0  0  0  0  0  0  0  0  0
   -0.9593   -0.7705   -4.6991 C   0  0  0  0  0  0  0  0  0  0  0  0
   -1.7471   -0.5246   -3.5744 C   0  0  0  0  0  0  0  0  0  0  0  0
   -3.1200   -0.7380   -3.6587 C   0  0  0  0  0  0  0  0  0  0  0  0
   -3.6593   -1.2020   -4.8571 C   0  0  0  0  0  0  0  0  0  0  0  0
   -3.3368   -1.8194   -6.8869 H   0  0  0  0  0  0  0  0  0  0  0  0
   -0.8502   -1.4179   -6.7445 H   0  0  0  0  0  0  0  0  0  0  0  0
   -1.2937   -0.1700   -2.6572 H   0  0  0  0  0  0  0  0  0  0  0  0
   -3.7731   -0.5580   -2.8143 H   0  0  0  0  0  0  0  0  0  0  0  0
   -5.1116   -1.4339   -4.9407 N   0  0  0  0  0  0  0  0  0  0  0  0
   -5.7829   -1.1997   -3.9378 O   0  0  0  0  0  0  0  0  0  0  0  0
   -5.5602   -1.8426   -6.0103 O   0  0  0  0  0  0  0  0  0  0  0  0
    9.6591    8.4473  -11.5432 N   0  0  0  0  0  0  0  0  0  0  0  0
    8.8410    7.8068  -11.1661 N   0  0  0  0  0  0  0  0  0  0  0  0
    1.1617    0.8188   -4.4130 S   0  0  0  0  0  0  0  0  0  0  0  0
    1.3758    1.3034   -6.2079 C   0  0  0  0  0  0  0  0  0  0  0  0
    0.2336    1.7607   -3.8117 O   0  0  0  0  0  0  0  0  0  0  0  0
    2.4723    0.5236   -3.8742 O   0  0  0  0  0  0  0  0  0  0  0  0
    0.4365   -0.6516   -4.6349 O   0  0  0  0  0  0  0  0  0  0  0  0
    0.1759    1.3791   -6.7865 F   0  0  0  0  0  0  0  0  0  0  0  0
    1.9749    2.4884   -6.2520 F   0  0  0  0  0  0  0  0  0  0  0  0
    2.1161    0.3929   -6.8308 F   0  0  0  0  0  0  0  0  0  0  0  0
  1  2  2  0  0  0  0
  1  6  1  0  0  0  0
  2  3  1  0  0  0  0
  3 20  1  0  0  0  0
  3  4  2  0  0  0  0
  4  9  1  0  0  0  0
  5  4  1  0  0  0  0
  5 10  1  0  0  0  0
  6  5  2  0  0  0  0
  7  1  1  0  0  0  0
  8  2  1  0  0  0  0
 11  6  1  0  0  0  0
 11 12  2  0  0  0  0
 13 11  2  0  0  0  0
 14 15  3  0  0  0  0
 16 19  2  0  0  0  0
 16 18  2  0  0  0  0
 17 16  1  0  0  0  0
 20 16  1  0  0  0  0
 21 17  1  0  0  0  0
 22 17  1  0  0  0  0
 23 17  1  0  0  0  0
M  END
