Coordinates from ORCA-job 4-NO2-Ph-N2-OTf-B3LYPG-6-31G_dp-MTMO-d009-169-n800
 OpenBabel09051908473D

 23 22  0  0  0  0  0  0  0  0999 V2000
   -1.9795   -1.5520   -5.4699 C   0  0  0  0  0  0  0  0  0  0  0  0
   -0.6507   -1.1686   -5.3175 C   0  0  0  0  0  0  0  0  0  0  0  0
   -0.3566    0.1757   -5.0936 C   0  0  0  0  0  0  0  0  0  0  0  0
   -1.3494    1.1521   -5.0167 C   0  0  0  0  0  0  0  0  0  0  0  0
   -2.6779    0.7697   -5.1770 C   0  0  0  0  0  0  0  0  0  0  0  0
   -2.9707   -0.5748   -5.3991 C   0  0  0  0  0  0  0  0  0  0  0  0
   -2.2580   -2.5834   -5.6444 H   0  0  0  0  0  0  0  0  0  0  0  0
    0.1531   -1.8935   -5.3680 H   0  0  0  0  0  0  0  0  0  0  0  0
   -1.0819    2.1857   -4.8325 H   0  0  0  0  0  0  0  0  0  0  0  0
   -3.4849    1.4895   -5.1271 H   0  0  0  0  0  0  0  0  0  0  0  0
   -4.3779   -0.9785   -5.5619 N   0  0  0  0  0  0  0  0  0  0  0  0
   -5.2330   -0.0978   -5.4921 O   0  0  0  0  0  0  0  0  0  0  0  0
   -4.6071   -2.1709   -5.7571 O   0  0  0  0  0  0  0  0  0  0  0  0
    0.4616    4.5017   -4.2411 N   0  0  0  0  0  0  0  0  0  0  0  0
    1.0428    5.4325   -4.1123 N   0  0  0  0  0  0  0  0  0  0  0  0
    1.8358    1.4156   -5.9437 S   0  0  0  0  0  0  0  0  0  0  0  0
    2.7641    0.0174   -6.7697 C   0  0  0  0  0  0  0  0  0  0  0  0
    0.9429    1.9994   -6.9295 O   0  0  0  0  0  0  0  0  0  0  0  0
    2.7940    2.1818   -5.1738 O   0  0  0  0  0  0  0  0  0  0  0  0
    0.9819    0.5165   -4.8483 O   0  0  0  0  0  0  0  0  0  0  0  0
    1.8869   -0.8356   -7.3041 F   0  0  0  0  0  0  0  0  0  0  0  0
    3.5306    0.5322   -7.7255 F   0  0  0  0  0  0  0  0  0  0  0  0
    3.5132   -0.6136   -5.8729 F   0  0  0  0  0  0  0  0  0  0  0  0
  1  6  2  0  0  0  0
  1  2  1  0  0  0  0
  2  3  2  0  0  0  0
  3  4  1  0  0  0  0
  3 20  1  0  0  0  0
  4  9  1  0  0  0  0
  5 10  1  0  0  0  0
  5  4  2  0  0  0  0
  6  5  1  0  0  0  0
  7  1  1  0  0  0  0
  8  2  1  0  0  0  0
 11 12  2  0  0  0  0
 11  6  1  0  0  0  0
 13 11  2  0  0  0  0
 14 15  3  0  0  0  0
 16 19  2  0  0  0  0
 16 20  1  0  0  0  0
 17 16  1  0  0  0  0
 17 23  1  0  0  0  0
 18 16  2  0  0  0  0
 21 17  1  0  0  0  0
 22 17  1  0  0  0  0
M  END
