Coordinates from ORCA-job 4-NO2-Ph-N2-OTf-B3LYPG-6-31G_dp-MTMO-d009-169-n800
 OpenBabel09051908473D

 23 22  0  0  0  0  0  0  0  0999 V2000
   -2.5173   -1.2002   -6.1586 C   0  0  0  0  0  0  0  0  0  0  0  0
   -1.1452   -0.9792   -6.0989 C   0  0  0  0  0  0  0  0  0  0  0  0
   -0.5924   -0.4588   -4.9288 C   0  0  0  0  0  0  0  0  0  0  0  0
   -1.3711   -0.1521   -3.8128 C   0  0  0  0  0  0  0  0  0  0  0  0
   -2.7453   -0.3638   -3.8760 C   0  0  0  0  0  0  0  0  0  0  0  0
   -3.2951   -0.8858   -5.0455 C   0  0  0  0  0  0  0  0  0  0  0  0
   -2.9902   -1.6051   -7.0443 H   0  0  0  0  0  0  0  0  0  0  0  0
   -0.5010   -1.2068   -6.9402 H   0  0  0  0  0  0  0  0  0  0  0  0
   -0.9094    0.2469   -2.9181 H   0  0  0  0  0  0  0  0  0  0  0  0
   -3.3916   -0.1383   -3.0374 H   0  0  0  0  0  0  0  0  0  0  0  0
   -4.7487   -1.1160   -5.1066 N   0  0  0  0  0  0  0  0  0  0  0  0
   -5.4110   -0.8341   -4.1100 O   0  0  0  0  0  0  0  0  0  0  0  0
   -5.2069   -1.5763   -6.1510 O   0  0  0  0  0  0  0  0  0  0  0  0
    5.6385    5.4378   -8.9414 N   0  0  0  0  0  0  0  0  0  0  0  0
    4.8820    4.7538   -8.5151 N   0  0  0  0  0  0  0  0  0  0  0  0
    1.5384    1.1334   -4.7398 S   0  0  0  0  0  0  0  0  0  0  0  0
    1.8076    1.4859   -6.5587 C   0  0  0  0  0  0  0  0  0  0  0  0
    0.6024    2.1215   -4.2320 O   0  0  0  0  0  0  0  0  0  0  0  0
    2.8316    0.8683   -4.1455 O   0  0  0  0  0  0  0  0  0  0  0  0
    0.8041   -0.3436   -4.8789 O   0  0  0  0  0  0  0  0  0  0  0  0
    0.6249    1.5221   -7.1755 F   0  0  0  0  0  0  0  0  0  0  0  0
    2.4144    2.6622   -6.6723 F   0  0  0  0  0  0  0  0  0  0  0  0
    2.5606    0.5292   -7.0905 F   0  0  0  0  0  0  0  0  0  0  0  0
  1  2  2  0  0  0  0
  1  6  1  0  0  0  0
  2  3  1  0  0  0  0
  3 20  1  0  0  0  0
  3  4  2  0  0  0  0
  4  9  1  0  0  0  0
  5  4  1  0  0  0  0
  5 10  1  0  0  0  0
  6  5  2  0  0  0  0
  7  1  1  0  0  0  0
  8  2  1  0  0  0  0
 11  6  1  0  0  0  0
 11 12  2  0  0  0  0
 13 11  2  0  0  0  0
 14 15  3  0  0  0  0
 16 18  2  0  0  0  0
 16 19  2  0  0  0  0
 17 16  1  0  0  0  0
 20 16  1  0  0  0  0
 21 17  1  0  0  0  0
 22 17  1  0  0  0  0
 23 17  1  0  0  0  0
M  END
