Coordinates from ORCA-job 4-NO2-Ph-N2-OTf-B3LYPG-6-31G_dp-MTMO-d009-169-n800
 OpenBabel09051908483D

 23 22  0  0  0  0  0  0  0  0999 V2000
   -2.8024   -1.4020   -6.0219 C   0  0  0  0  0  0  0  0  0  0  0  0
   -1.4314   -1.1836   -5.9353 C   0  0  0  0  0  0  0  0  0  0  0  0
   -0.8928   -0.7199   -4.7350 C   0  0  0  0  0  0  0  0  0  0  0  0
   -1.6846   -0.4695   -3.6141 C   0  0  0  0  0  0  0  0  0  0  0  0
   -3.0578   -0.6783   -3.7040 C   0  0  0  0  0  0  0  0  0  0  0  0
   -3.5935   -1.1423   -4.9040 C   0  0  0  0  0  0  0  0  0  0  0  0
   -3.2644   -1.7638   -6.9315 H   0  0  0  0  0  0  0  0  0  0  0  0
   -0.7771   -1.3706   -6.7789 H   0  0  0  0  0  0  0  0  0  0  0  0
   -1.2339   -0.1150   -2.6955 H   0  0  0  0  0  0  0  0  0  0  0  0
   -3.7140   -0.4948   -2.8627 H   0  0  0  0  0  0  0  0  0  0  0  0
   -5.0462   -1.3692   -4.9936 N   0  0  0  0  0  0  0  0  0  0  0  0
   -5.7208   -1.1335   -3.9932 O   0  0  0  0  0  0  0  0  0  0  0  0
   -5.4914   -1.7804   -6.0637 O   0  0  0  0  0  0  0  0  0  0  0  0
    8.9373    7.8979  -11.1391 N   0  0  0  0  0  0  0  0  0  0  0  0
    8.1165    7.2576  -10.7676 N   0  0  0  0  0  0  0  0  0  0  0  0
    1.2324    0.8628   -4.4417 S   0  0  0  0  0  0  0  0  0  0  0  0
    1.4525    1.3475   -6.2359 C   0  0  0  0  0  0  0  0  0  0  0  0
    0.3057    1.8075   -3.8424 O   0  0  0  0  0  0  0  0  0  0  0  0
    2.5409    0.5634   -3.9002 O   0  0  0  0  0  0  0  0  0  0  0  0
    0.5030   -0.6054   -4.6649 O   0  0  0  0  0  0  0  0  0  0  0  0
    0.2544    1.4255   -6.8178 F   0  0  0  0  0  0  0  0  0  0  0  0
    2.0539    2.5314   -6.2779 F   0  0  0  0  0  0  0  0  0  0  0  0
    2.1930    0.4360   -6.8570 F   0  0  0  0  0  0  0  0  0  0  0  0
  1  2  2  0  0  0  0
  1  6  1  0  0  0  0
  2  3  1  0  0  0  0
  3 20  1  0  0  0  0
  3  4  2  0  0  0  0
  4  9  1  0  0  0  0
  5  4  1  0  0  0  0
  5 10  1  0  0  0  0
  6  5  2  0  0  0  0
  7  1  1  0  0  0  0
  8  2  1  0  0  0  0
 11  6  1  0  0  0  0
 11 12  2  0  0  0  0
 13 11  2  0  0  0  0
 14 15  3  0  0  0  0
 16 19  2  0  0  0  0
 16 18  2  0  0  0  0
 17 16  1  0  0  0  0
 20 16  1  0  0  0  0
 21 17  1  0  0  0  0
 22 17  1  0  0  0  0
 23 17  1  0  0  0  0
M  END
