Coordinates from ORCA-job 4-NO2-Ph-N2-OTf-B3LYPG-6-31G_dp-MTMO-d009-169-n800
 OpenBabel09051908473D

 23 22  0  0  0  0  0  0  0  0999 V2000
   -2.1418   -0.8931   -6.4256 C   0  0  0  0  0  0  0  0  0  0  0  0
   -0.7900   -0.6841   -6.1731 C   0  0  0  0  0  0  0  0  0  0  0  0
   -0.3863   -0.3414   -4.8826 C   0  0  0  0  0  0  0  0  0  0  0  0
   -1.2947   -0.2021   -3.8333 C   0  0  0  0  0  0  0  0  0  0  0  0
   -2.6484   -0.4013   -4.0884 C   0  0  0  0  0  0  0  0  0  0  0  0
   -3.0492   -0.7452   -5.3779 C   0  0  0  0  0  0  0  0  0  0  0  0
   -2.5017   -1.1646   -7.4097 H   0  0  0  0  0  0  0  0  0  0  0  0
   -0.0480   -0.7875   -6.9563 H   0  0  0  0  0  0  0  0  0  0  0  0
   -0.9468    0.0607   -2.8422 H   0  0  0  0  0  0  0  0  0  0  0  0
   -3.3916   -0.3021   -3.3076 H   0  0  0  0  0  0  0  0  0  0  0  0
   -4.4815   -0.9636   -5.6430 N   0  0  0  0  0  0  0  0  0  0  0  0
   -5.2606   -0.8276   -4.7017 O   0  0  0  0  0  0  0  0  0  0  0  0
   -4.8063   -1.2681   -6.7894 O   0  0  0  0  0  0  0  0  0  0  0  0
    2.9994    3.5220   -9.9103 N   0  0  0  0  0  0  0  0  0  0  0  0
    2.7653    3.0859   -8.9224 N   0  0  0  0  0  0  0  0  0  0  0  0
    1.6850    1.1995   -4.2124 S   0  0  0  0  0  0  0  0  0  0  0  0
    2.0724    1.8643   -5.9204 C   0  0  0  0  0  0  0  0  0  0  0  0
    0.6974    2.0785   -3.6100 O   0  0  0  0  0  0  0  0  0  0  0  0
    2.9375    0.8436   -3.5800 O   0  0  0  0  0  0  0  0  0  0  0  0
    0.9929   -0.2375   -4.6534 O   0  0  0  0  0  0  0  0  0  0  0  0
    0.9313    2.0376   -6.5884 F   0  0  0  0  0  0  0  0  0  0  0  0
    2.6993    3.0271   -5.7820 F   0  0  0  0  0  0  0  0  0  0  0  0
    2.8455    0.9999   -6.5678 F   0  0  0  0  0  0  0  0  0  0  0  0
  1  2  2  0  0  0  0
  1  6  1  0  0  0  0
  2  3  1  0  0  0  0
  3 20  1  0  0  0  0
  3  4  2  0  0  0  0
  4  9  1  0  0  0  0
  5  4  1  0  0  0  0
  5 10  1  0  0  0  0
  6  5  2  0  0  0  0
  7  1  1  0  0  0  0
  8  2  1  0  0  0  0
 11  6  1  0  0  0  0
 11 12  2  0  0  0  0
 13 11  2  0  0  0  0
 14 15  3  0  0  0  0
 16 18  2  0  0  0  0
 16 19  2  0  0  0  0
 17 22  1  0  0  0  0
 17 16  1  0  0  0  0
 20 16  1  0  0  0  0
 21 17  1  0  0  0  0
 23 17  1  0  0  0  0
M  END
