Coordinates from ORCA-job 4-NO2-Ph-N2-OTf-B3LYPG-6-31G_dp-MTMO-d009-169-n800
 OpenBabel09051908473D

 23 22  0  0  0  0  0  0  0  0999 V2000
   -1.9594   -1.3626   -6.1758 C   0  0  0  0  0  0  0  0  0  0  0  0
   -0.6375   -1.1485   -5.7989 C   0  0  0  0  0  0  0  0  0  0  0  0
   -0.3660   -0.2727   -4.7478 C   0  0  0  0  0  0  0  0  0  0  0  0
   -1.3773    0.3966   -4.0589 C   0  0  0  0  0  0  0  0  0  0  0  0
   -2.6994    0.1890   -4.4414 C   0  0  0  0  0  0  0  0  0  0  0  0
   -2.9684   -0.6874   -5.4912 C   0  0  0  0  0  0  0  0  0  0  0  0
   -2.2193   -2.0343   -6.9844 H   0  0  0  0  0  0  0  0  0  0  0  0
    0.1807   -1.6498   -6.3023 H   0  0  0  0  0  0  0  0  0  0  0  0
   -1.1299    1.0664   -3.2445 H   0  0  0  0  0  0  0  0  0  0  0  0
   -3.5189    0.6862   -3.9392 H   0  0  0  0  0  0  0  0  0  0  0  0
   -4.3688   -0.9103   -5.8901 N   0  0  0  0  0  0  0  0  0  0  0  0
   -5.2394   -0.3027   -5.2699 O   0  0  0  0  0  0  0  0  0  0  0  0
   -4.5770   -1.6900   -6.8180 O   0  0  0  0  0  0  0  0  0  0  0  0
    1.2630    5.1469   -8.1189 N   0  0  0  0  0  0  0  0  0  0  0  0
    1.4432    4.1014   -7.8091 N   0  0  0  0  0  0  0  0  0  0  0  0
    1.7979    1.2650   -4.5130 S   0  0  0  0  0  0  0  0  0  0  0  0
    2.5076    0.9717   -6.2206 C   0  0  0  0  0  0  0  0  0  0  0  0
    0.8759    2.3841   -4.5989 O   0  0  0  0  0  0  0  0  0  0  0  0
    2.8895    1.1919   -3.5649 O   0  0  0  0  0  0  0  0  0  0  0  0
    0.9702   -0.1578   -4.3394 O   0  0  0  0  0  0  0  0  0  0  0  0
    1.5104    0.9097   -7.1037 F   0  0  0  0  0  0  0  0  0  0  0  0
    3.3178    1.9813   -6.5183 F   0  0  0  0  0  0  0  0  0  0  0  0
    3.1841   -0.1730   -6.2287 F   0  0  0  0  0  0  0  0  0  0  0  0
  1  2  2  0  0  0  0
  1  6  1  0  0  0  0
  2  3  1  0  0  0  0
  3 20  1  0  0  0  0
  3  4  2  0  0  0  0
  4  9  1  0  0  0  0
  5  4  1  0  0  0  0
  5 10  1  0  0  0  0
  6  5  2  0  0  0  0
  7  1  1  0  0  0  0
  8  2  1  0  0  0  0
 11  6  1  0  0  0  0
 11 12  2  0  0  0  0
 13 11  2  0  0  0  0
 14 15  3  0  0  0  0
 16 20  1  0  0  0  0
 16 19  2  0  0  0  0
 17 16  1  0  0  0  0
 18 16  2  0  0  0  0
 21 17  1  0  0  0  0
 22 17  1  0  0  0  0
 23 17  1  0  0  0  0
M  END
