Coordinates from ORCA-job 4-NO2-Ph-N2-OTf-B3LYPG-6-31G_dp-MTMO-d009-169-n800
 OpenBabel09051908473D

 23 23  0  0  1  0  0  0  0  0999 V2000
   -1.3582   -0.3067   -5.8909 C   0  0  0  0  0  0  0  0  0  0  0  0
   -0.5027    0.9019   -6.0220 C   0  0  1  0  0  0  0  0  0  0  0  0
   -1.1719    2.1448   -5.4954 C   0  0  0  0  0  0  0  0  0  0  0  0
   -2.2981    2.0487   -4.5821 C   0  0  0  0  0  0  0  0  0  0  0  0
   -2.9127    0.8623   -4.3698 C   0  0  0  0  0  0  0  0  0  0  0  0
   -2.4375   -0.2955   -5.0846 C   0  0  0  0  0  0  0  0  0  0  0  0
   -1.0636   -1.2086   -6.4107 H   0  0  0  0  0  0  0  0  0  0  0  0
   -0.1262    1.0497   -7.0347 H   0  0  0  0  0  0  0  0  0  0  0  0
   -2.6376    2.9570   -4.0954 H   0  0  0  0  0  0  0  0  0  0  0  0
   -3.7612    0.7605   -3.7080 H   0  0  0  0  0  0  0  0  0  0  0  0
   -3.2104   -1.5538   -4.9401 N   0  0  0  0  0  0  0  0  0  0  0  0
   -4.1762   -1.5279   -4.1809 O   0  0  0  0  0  0  0  0  0  0  0  0
   -2.8388   -2.5338   -5.5790 O   0  0  0  0  0  0  0  0  0  0  0  0
   -0.7147    3.2109   -5.8044 N   0  0  0  0  0  0  0  0  0  0  0  0
   -0.2720    4.2231   -6.1034 N   0  0  0  0  0  0  0  0  0  0  0  0
    2.2078    0.8071   -5.8184 S   0  0  0  0  0  0  0  0  0  0  0  0
    2.4928   -0.9367   -6.4227 C   0  0  0  0  0  0  0  0  0  0  0  0
    2.1280    1.6525   -7.0053 O   0  0  0  0  0  0  0  0  0  0  0  0
    3.1373    1.0557   -4.7345 O   0  0  0  0  0  0  0  0  0  0  0  0
    0.7361    0.6242   -5.1668 O   0  0  0  0  0  0  0  0  0  0  0  0
    1.4869   -1.2784   -7.2428 F   0  0  0  0  0  0  0  0  0  0  0  0
    3.6411   -0.9792   -7.0903 F   0  0  0  0  0  0  0  0  0  0  0  0
    2.5307   -1.7768   -5.3956 F   0  0  0  0  0  0  0  0  0  0  0  0
  1  6  2  0  0  0  0
  2  8  1  6  0  0  0
  2  1  1  0  0  0  0
  2  3  1  0  0  0  0
  2 20  1  0  0  0  0
  3  4  2  0  0  0  0
  4  5  1  0  0  0  0
  4  9  1  0  0  0  0
  5 10  1  0  0  0  0
  6 11  1  0  0  0  0
  6  5  1  0  0  0  0
  7  1  1  0  0  0  0
 11 12  2  0  0  0  0
 13 11  2  0  0  0  0
 14  3  1  0  0  0  0
 15 14  1  0  0  0  0
 16 20  1  0  0  0  0
 16 19  2  0  0  0  0
 17 16  1  0  0  0  0
 17 23  1  0  0  0  0
 18 16  2  0  0  0  0
 21 17  1  0  0  0  0
 22 17  1  0  0  0  0
M  RAD  3   5   2  14   2  15   3
M  END
