Coordinates from ORCA-job 4-NO2-Ph-N2-OTf-B3LYPG-6-31G_dp-MTMO-d009-169-n800
 OpenBabel09051908473D

 23 22  0  0  0  0  0  0  0  0999 V2000
   -1.9883   -1.6721   -5.6905 C   0  0  0  0  0  0  0  0  0  0  0  0
   -0.6603   -1.3373   -5.4471 C   0  0  0  0  0  0  0  0  0  0  0  0
   -0.3647   -0.0825   -4.9148 C   0  0  0  0  0  0  0  0  0  0  0  0
   -1.3576    0.8505   -4.6159 C   0  0  0  0  0  0  0  0  0  0  0  0
   -2.6855    0.5190   -4.8689 C   0  0  0  0  0  0  0  0  0  0  0  0
   -2.9789   -0.7358   -5.3992 C   0  0  0  0  0  0  0  0  0  0  0  0
   -2.2668   -2.6347   -6.0997 H   0  0  0  0  0  0  0  0  0  0  0  0
    0.1439   -2.0323   -5.6592 H   0  0  0  0  0  0  0  0  0  0  0  0
   -1.0932    1.8141   -4.1992 H   0  0  0  0  0  0  0  0  0  0  0  0
   -3.4914    1.2096   -4.6562 H   0  0  0  0  0  0  0  0  0  0  0  0
   -4.3858   -1.0869   -5.6587 N   0  0  0  0  0  0  0  0  0  0  0  0
   -5.2397   -0.2433   -5.3926 O   0  0  0  0  0  0  0  0  0  0  0  0
   -4.6155   -2.2014   -6.1247 O   0  0  0  0  0  0  0  0  0  0  0  0
    0.9239    5.5960   -5.1116 N   0  0  0  0  0  0  0  0  0  0  0  0
    1.7026    5.6335   -5.8949 N   0  0  0  0  0  0  0  0  0  0  0  0
    1.8302    1.3652   -5.3615 S   0  0  0  0  0  0  0  0  0  0  0  0
    2.5252    0.3535   -6.7741 C   0  0  0  0  0  0  0  0  0  0  0  0
    0.9304    2.3543   -5.9305 O   0  0  0  0  0  0  0  0  0  0  0  0
    2.9223    1.6910   -4.4694 O   0  0  0  0  0  0  0  0  0  0  0  0
    0.9768    0.1739   -4.5952 O   0  0  0  0  0  0  0  0  0  0  0  0
    1.5179   -0.1154   -7.5124 F   0  0  0  0  0  0  0  0  0  0  0  0
    3.2987    1.1420   -7.5124 F   0  0  0  0  0  0  0  0  0  0  0  0
    3.2348   -0.6597   -6.2893 F   0  0  0  0  0  0  0  0  0  0  0  0
  1  2  2  0  0  0  0
  1  6  1  0  0  0  0
  2  3  1  0  0  0  0
  3  4  2  0  0  0  0
  3 20  1  0  0  0  0
  4  9  1  0  0  0  0
  5 10  1  0  0  0  0
  5  4  1  0  0  0  0
  6  5  2  0  0  0  0
  7  1  1  0  0  0  0
  8  2  1  0  0  0  0
 11  6  1  0  0  0  0
 11 12  2  0  0  0  0
 13 11  2  0  0  0  0
 15 14  3  0  0  0  0
 16 20  1  0  0  0  0
 16 19  2  0  0  0  0
 17 23  1  0  0  0  0
 17 16  1  0  0  0  0
 18 16  2  0  0  0  0
 21 17  1  0  0  0  0
 22 17  1  0  0  0  0
M  END
