Coordinates from ORCA-job 4-NO2-Ph-N2-OTf-B3LYPG-6-31G_dp-MTMO-d009-169-n800
 OpenBabel09051908473D

 23 22  0  0  0  0  0  0  0  0999 V2000
   -2.3257   -0.8762   -6.3671 C   0  0  0  0  0  0  0  0  0  0  0  0
   -0.9689   -0.6108   -6.2112 C   0  0  0  0  0  0  0  0  0  0  0  0
   -0.4757   -0.3294   -4.9374 C   0  0  0  0  0  0  0  0  0  0  0  0
   -1.2995   -0.3038   -3.8122 C   0  0  0  0  0  0  0  0  0  0  0  0
   -2.6582   -0.5606   -3.9688 C   0  0  0  0  0  0  0  0  0  0  0  0
   -3.1482   -0.8442   -5.2423 C   0  0  0  0  0  0  0  0  0  0  0  0
   -2.7533   -1.1033   -7.3352 H   0  0  0  0  0  0  0  0  0  0  0  0
   -0.2928   -0.6213   -7.0580 H   0  0  0  0  0  0  0  0  0  0  0  0
   -0.8824   -0.0865   -2.8363 H   0  0  0  0  0  0  0  0  0  0  0  0
   -3.3373   -0.5502   -3.1258 H   0  0  0  0  0  0  0  0  0  0  0  0
   -4.5855   -1.1228   -5.4053 N   0  0  0  0  0  0  0  0  0  0  0  0
   -5.2880   -1.0923   -4.3969 O   0  0  0  0  0  0  0  0  0  0  0  0
   -4.9906   -1.3689   -6.5400 O   0  0  0  0  0  0  0  0  0  0  0  0
    4.1332    3.7776   -9.6863 N   0  0  0  0  0  0  0  0  0  0  0  0
    3.5294    3.2403   -8.9326 N   0  0  0  0  0  0  0  0  0  0  0  0
    1.5488    1.3093   -4.3877 S   0  0  0  0  0  0  0  0  0  0  0  0
    2.0402    1.8921   -6.0988 C   0  0  0  0  0  0  0  0  0  0  0  0
    0.5044    2.1928   -3.8987 O   0  0  0  0  0  0  0  0  0  0  0  0
    2.7662    1.0219   -3.6581 O   0  0  0  0  0  0  0  0  0  0  0  0
    0.9100   -0.1620   -4.8031 O   0  0  0  0  0  0  0  0  0  0  0  0
    0.9610    1.9167   -6.8829 F   0  0  0  0  0  0  0  0  0  0  0  0
    2.5452    3.1161   -5.9863 F   0  0  0  0  0  0  0  0  0  0  0  0
    2.9470    1.0667   -6.6068 F   0  0  0  0  0  0  0  0  0  0  0  0
  1  2  2  0  0  0  0
  1  6  1  0  0  0  0
  2  3  1  0  0  0  0
  3 20  1  0  0  0  0
  3  4  2  0  0  0  0
  4  9  1  0  0  0  0
  5  4  1  0  0  0  0
  5 10  1  0  0  0  0
  6  5  2  0  0  0  0
  7  1  1  0  0  0  0
  8  2  1  0  0  0  0
 11  6  1  0  0  0  0
 11 12  2  0  0  0  0
 13 11  2  0  0  0  0
 14 15  3  0  0  0  0
 16 18  2  0  0  0  0
 16 19  2  0  0  0  0
 17 22  1  0  0  0  0
 17 16  1  0  0  0  0
 20 16  1  0  0  0  0
 21 17  1  0  0  0  0
 23 17  1  0  0  0  0
M  END
