Coordinates from ORCA-job 4-NO2-Ph-N2-OTf-B3LYPG-6-31G_dp-MTMO-d009-169-n800
 OpenBabel09051908473D

 23 22  0  0  0  0  0  0  0  0999 V2000
   -2.5641   -1.2260   -6.1522 C   0  0  0  0  0  0  0  0  0  0  0  0
   -1.1925   -1.0109   -6.0670 C   0  0  0  0  0  0  0  0  0  0  0  0
   -0.6545   -0.5267   -4.8746 C   0  0  0  0  0  0  0  0  0  0  0  0
   -1.4475   -0.2522   -3.7602 C   0  0  0  0  0  0  0  0  0  0  0  0
   -2.8213   -0.4578   -3.8488 C   0  0  0  0  0  0  0  0  0  0  0  0
   -3.3564   -0.9425   -5.0409 C   0  0  0  0  0  0  0  0  0  0  0  0
   -3.0257   -1.6030   -7.0558 H   0  0  0  0  0  0  0  0  0  0  0  0
   -0.5372   -1.2157   -6.9057 H   0  0  0  0  0  0  0  0  0  0  0  0
   -0.9972    0.1181   -2.8477 H   0  0  0  0  0  0  0  0  0  0  0  0
   -3.4784   -0.2560   -3.0125 H   0  0  0  0  0  0  0  0  0  0  0  0
   -4.8097   -1.1659   -5.1290 N   0  0  0  0  0  0  0  0  0  0  0  0
   -5.4852   -0.9101   -4.1341 O   0  0  0  0  0  0  0  0  0  0  0  0
   -5.2545   -1.5945   -6.1924 O   0  0  0  0  0  0  0  0  0  0  0  0
    6.3826    5.9332   -9.5883 N   0  0  0  0  0  0  0  0  0  0  0  0
    5.5853    5.2884   -9.1758 N   0  0  0  0  0  0  0  0  0  0  0  0
    1.4757    1.0538   -4.6077 S   0  0  0  0  0  0  0  0  0  0  0  0
    1.7093    1.4972   -6.4110 C   0  0  0  0  0  0  0  0  0  0  0  0
    0.5489    2.0149   -4.0352 O   0  0  0  0  0  0  0  0  0  0  0  0
    2.7794    0.7613   -4.0510 O   0  0  0  0  0  0  0  0  0  0  0  0
    0.7415   -0.4161   -4.8038 O   0  0  0  0  0  0  0  0  0  0  0  0
    0.5151    1.5662   -7.0020 F   0  0  0  0  0  0  0  0  0  0  0  0
    2.3156    2.6772   -6.4761 F   0  0  0  0  0  0  0  0  0  0  0  0
    2.4499    0.5685   -7.0061 F   0  0  0  0  0  0  0  0  0  0  0  0
  1  2  2  0  0  0  0
  1  6  1  0  0  0  0
  2  3  1  0  0  0  0
  3 20  1  0  0  0  0
  3  4  2  0  0  0  0
  4  9  1  0  0  0  0
  5  4  1  0  0  0  0
  5 10  1  0  0  0  0
  6  5  2  0  0  0  0
  7  1  1  0  0  0  0
  8  2  1  0  0  0  0
 11  6  1  0  0  0  0
 11 12  2  0  0  0  0
 13 11  2  0  0  0  0
 14 15  3  0  0  0  0
 16 19  2  0  0  0  0
 16 18  2  0  0  0  0
 17 16  1  0  0  0  0
 20 16  1  0  0  0  0
 21 17  1  0  0  0  0
 22 17  1  0  0  0  0
 23 17  1  0  0  0  0
M  END
