Coordinates from ORCA-job 4-NO2-Ph-N2-OTf-B3LYPG-6-31G_dp-MTMO-d009-169-n800
 OpenBabel09051908483D

 23 22  0  0  0  0  0  0  0  0999 V2000
   -2.7654   -1.3724   -6.0447 C   0  0  0  0  0  0  0  0  0  0  0  0
   -1.3943   -1.1554   -5.9560 C   0  0  0  0  0  0  0  0  0  0  0  0
   -0.8571   -0.6921   -4.7549 C   0  0  0  0  0  0  0  0  0  0  0  0
   -1.6504   -0.4408   -3.6353 C   0  0  0  0  0  0  0  0  0  0  0  0
   -3.0237   -0.6482   -3.7272 C   0  0  0  0  0  0  0  0  0  0  0  0
   -3.5580   -1.1117   -4.9281 C   0  0  0  0  0  0  0  0  0  0  0  0
   -3.2263   -1.7338   -6.9551 H   0  0  0  0  0  0  0  0  0  0  0  0
   -0.7389   -1.3431   -6.7986 H   0  0  0  0  0  0  0  0  0  0  0  0
   -1.2008   -0.0867   -2.7160 H   0  0  0  0  0  0  0  0  0  0  0  0
   -3.6810   -0.4640   -2.8870 H   0  0  0  0  0  0  0  0  0  0  0  0
   -5.0108   -1.3371   -5.0199 N   0  0  0  0  0  0  0  0  0  0  0  0
   -5.6867   -1.1007   -4.0206 O   0  0  0  0  0  0  0  0  0  0  0  0
   -5.4547   -1.7479   -6.0907 O   0  0  0  0  0  0  0  0  0  0  0  0
    8.5524    7.6013  -10.9210 N   0  0  0  0  0  0  0  0  0  0  0  0
    7.7312    6.9606  -10.5511 N   0  0  0  0  0  0  0  0  0  0  0  0
    1.2692    0.8886   -4.4585 S   0  0  0  0  0  0  0  0  0  0  0  0
    1.4926    1.3728   -6.2525 C   0  0  0  0  0  0  0  0  0  0  0  0
    0.3424    1.8342   -3.8609 O   0  0  0  0  0  0  0  0  0  0  0  0
    2.5765    0.5880   -3.9148 O   0  0  0  0  0  0  0  0  0  0  0  0
    0.5387   -0.5790   -4.6827 O   0  0  0  0  0  0  0  0  0  0  0  0
    0.2955    1.4517   -6.8363 F   0  0  0  0  0  0  0  0  0  0  0  0
    2.0951    2.5562   -6.2937 F   0  0  0  0  0  0  0  0  0  0  0  0
    2.2334    0.4605   -6.8721 F   0  0  0  0  0  0  0  0  0  0  0  0
  1  2  2  0  0  0  0
  1  6  1  0  0  0  0
  2  3  1  0  0  0  0
  3 20  1  0  0  0  0
  3  4  2  0  0  0  0
  4  9  1  0  0  0  0
  5  4  1  0  0  0  0
  5 10  1  0  0  0  0
  6  5  2  0  0  0  0
  7  1  1  0  0  0  0
  8  2  1  0  0  0  0
 11  6  1  0  0  0  0
 11 12  2  0  0  0  0
 13 11  2  0  0  0  0
 14 15  3  0  0  0  0
 16 19  2  0  0  0  0
 16 18  2  0  0  0  0
 17 16  1  0  0  0  0
 20 16  1  0  0  0  0
 21 17  1  0  0  0  0
 22 17  1  0  0  0  0
 23 17  1  0  0  0  0
M  END
