Coordinates from ORCA-job 4-NO2-Ph-N2-OTf-B3LYPG-6-31G_dp-MTMO-d009-169-n800
 OpenBabel09051908483D

 23 22  0  0  0  0  0  0  0  0999 V2000
   -2.7909   -1.3928   -6.0290 C   0  0  0  0  0  0  0  0  0  0  0  0
   -1.4199   -1.1749   -5.9417 C   0  0  0  0  0  0  0  0  0  0  0  0
   -0.8817   -0.7112   -4.7412 C   0  0  0  0  0  0  0  0  0  0  0  0
   -1.6740   -0.4606   -3.6207 C   0  0  0  0  0  0  0  0  0  0  0  0
   -3.0473   -0.6690   -3.7112 C   0  0  0  0  0  0  0  0  0  0  0  0
   -3.5825   -1.1328   -4.9115 C   0  0  0  0  0  0  0  0  0  0  0  0
   -3.2526   -1.7545   -6.9388 H   0  0  0  0  0  0  0  0  0  0  0  0
   -0.7652   -1.3621   -6.7850 H   0  0  0  0  0  0  0  0  0  0  0  0
   -1.2237   -0.1062   -2.7019 H   0  0  0  0  0  0  0  0  0  0  0  0
   -3.7038   -0.4852   -2.8703 H   0  0  0  0  0  0  0  0  0  0  0  0
   -5.0353   -1.3592   -5.0018 N   0  0  0  0  0  0  0  0  0  0  0  0
   -5.7102   -1.1232   -4.0017 O   0  0  0  0  0  0  0  0  0  0  0  0
   -5.4800   -1.7703   -6.0722 O   0  0  0  0  0  0  0  0  0  0  0  0
    8.8177    7.8059  -11.0715 N   0  0  0  0  0  0  0  0  0  0  0  0
    7.9968    7.1655  -10.7006 N   0  0  0  0  0  0  0  0  0  0  0  0
    1.2438    0.8708   -4.4469 S   0  0  0  0  0  0  0  0  0  0  0  0
    1.4650    1.3553   -6.2410 C   0  0  0  0  0  0  0  0  0  0  0  0
    0.3171    1.8157   -3.8481 O   0  0  0  0  0  0  0  0  0  0  0  0
    2.5520    0.5710   -3.9046 O   0  0  0  0  0  0  0  0  0  0  0  0
    0.5141   -0.5973   -4.6704 O   0  0  0  0  0  0  0  0  0  0  0  0
    0.2672    1.4336   -6.8235 F   0  0  0  0  0  0  0  0  0  0  0  0
    2.0668    2.5390   -6.2828 F   0  0  0  0  0  0  0  0  0  0  0  0
    2.2056    0.4435   -6.8616 F   0  0  0  0  0  0  0  0  0  0  0  0
  1  2  2  0  0  0  0
  1  6  1  0  0  0  0
  2  3  1  0  0  0  0
  3 20  1  0  0  0  0
  3  4  2  0  0  0  0
  4  9  1  0  0  0  0
  5  4  1  0  0  0  0
  5 10  1  0  0  0  0
  6  5  2  0  0  0  0
  7  1  1  0  0  0  0
  8  2  1  0  0  0  0
 11  6  1  0  0  0  0
 11 12  2  0  0  0  0
 13 11  2  0  0  0  0
 14 15  3  0  0  0  0
 16 19  2  0  0  0  0
 16 18  2  0  0  0  0
 17 16  1  0  0  0  0
 20 16  1  0  0  0  0
 21 17  1  0  0  0  0
 22 17  1  0  0  0  0
 23 17  1  0  0  0  0
M  END
