Coordinates from ORCA-job 4-NO2-Ph-N2-OTf-B3LYPG-6-31G_dp-MTMO-d009-169-n800
 OpenBabel09051908473D

 23 22  0  0  0  0  0  0  0  0999 V2000
   -2.0382   -1.3954   -5.7282 C   0  0  0  0  0  0  0  0  0  0  0  0
   -0.7164   -0.9642   -5.6753 C   0  0  0  0  0  0  0  0  0  0  0  0
   -0.4505    0.3390   -5.2587 C   0  0  0  0  0  0  0  0  0  0  0  0
   -1.4612    1.2250   -4.8902 C   0  0  0  0  0  0  0  0  0  0  0  0
   -2.7837    0.7929   -4.9395 C   0  0  0  0  0  0  0  0  0  0  0  0
   -3.0489   -0.5095   -5.3583 C   0  0  0  0  0  0  0  0  0  0  0  0
   -2.2972   -2.3973   -6.0455 H   0  0  0  0  0  0  0  0  0  0  0  0
    0.0986   -1.6224   -5.9504 H   0  0  0  0  0  0  0  0  0  0  0  0
   -1.2039    2.2274   -4.5687 H   0  0  0  0  0  0  0  0  0  0  0  0
   -3.6044    1.4419   -4.6622 H   0  0  0  0  0  0  0  0  0  0  0  0
   -4.4483   -0.9680   -5.4100 N   0  0  0  0  0  0  0  0  0  0  0  0
   -5.3203   -0.1684   -5.0751 O   0  0  0  0  0  0  0  0  0  0  0  0
   -4.6539   -2.1213   -5.7837 O   0  0  0  0  0  0  0  0  0  0  0  0
    0.4417    4.3303   -4.1246 N   0  0  0  0  0  0  0  0  0  0  0  0
    1.2560    5.0470   -3.9152 N   0  0  0  0  0  0  0  0  0  0  0  0
    1.7268    1.2759   -6.4455 S   0  0  0  0  0  0  0  0  0  0  0  0
    3.0696   -0.0242   -6.3729 C   0  0  0  0  0  0  0  0  0  0  0  0
    0.9463    1.0589   -7.6511 O   0  0  0  0  0  0  0  0  0  0  0  0
    2.3415    2.5455   -6.1091 O   0  0  0  0  0  0  0  0  0  0  0  0
    0.8791    0.7692   -5.1162 O   0  0  0  0  0  0  0  0  0  0  0  0
    2.5288   -1.2340   -6.5393 F   0  0  0  0  0  0  0  0  0  0  0  0
    3.9288    0.2190   -7.3576 F   0  0  0  0  0  0  0  0  0  0  0  0
    3.6886    0.0338   -5.2005 F   0  0  0  0  0  0  0  0  0  0  0  0
  1  2  2  0  0  0  0
  1  6  1  0  0  0  0
  2  3  1  0  0  0  0
  3 20  1  0  0  0  0
  3  4  2  0  0  0  0
  4  9  1  0  0  0  0
  5  4  1  0  0  0  0
  5 10  1  0  0  0  0
  6  5  2  0  0  0  0
  7  1  1  0  0  0  0
  8  2  1  0  0  0  0
 11  6  1  0  0  0  0
 11 12  2  0  0  0  0
 13 11  2  0  0  0  0
 14 15  3  0  0  0  0
 16 17  1  0  0  0  0
 16 19  2  0  0  0  0
 16 20  1  0  0  0  0
 17 23  1  0  0  0  0
 18 16  2  0  0  0  0
 21 17  1  0  0  0  0
 22 17  1  0  0  0  0
M  END
