Coordinates from ORCA-job 4-NO2-Ph-N2-OTf-B3LYPG-6-31G_dp-MTMO-d009-169-n800
 OpenBabel09051908473D

 23 22  0  0  0  0  0  0  0  0999 V2000
   -2.5288   -1.2086   -6.1605 C   0  0  0  0  0  0  0  0  0  0  0  0
   -1.1569   -0.9915   -6.0859 C   0  0  0  0  0  0  0  0  0  0  0  0
   -0.6131   -0.4874   -4.9044 C   0  0  0  0  0  0  0  0  0  0  0  0
   -1.4008   -0.1945   -3.7909 C   0  0  0  0  0  0  0  0  0  0  0  0
   -2.7748   -0.4022   -3.8690 C   0  0  0  0  0  0  0  0  0  0  0  0
   -3.3157   -0.9071   -5.0501 C   0  0  0  0  0  0  0  0  0  0  0  0
   -2.9948   -1.6008   -7.0554 H   0  0  0  0  0  0  0  0  0  0  0  0
   -0.5058   -1.2097   -6.9244 H   0  0  0  0  0  0  0  0  0  0  0  0
   -0.9460    0.1914   -2.8870 H   0  0  0  0  0  0  0  0  0  0  0  0
   -3.4279   -0.1866   -3.0329 H   0  0  0  0  0  0  0  0  0  0  0  0
   -4.7692   -1.1328   -5.1270 N   0  0  0  0  0  0  0  0  0  0  0  0
   -5.4397   -0.8619   -4.1327 O   0  0  0  0  0  0  0  0  0  0  0  0
   -5.2192   -1.5784   -6.1812 O   0  0  0  0  0  0  0  0  0  0  0  0
    5.9308    5.6075   -9.2241 N   0  0  0  0  0  0  0  0  0  0  0  0
    5.1468    4.9543   -8.7994 N   0  0  0  0  0  0  0  0  0  0  0  0
    1.5180    1.0976   -4.6746 S   0  0  0  0  0  0  0  0  0  0  0  0
    1.7566    1.5019   -6.4865 C   0  0  0  0  0  0  0  0  0  0  0  0
    0.5903    2.0709   -4.1247 O   0  0  0  0  0  0  0  0  0  0  0  0
    2.8203    0.8162   -4.1086 O   0  0  0  0  0  0  0  0  0  0  0  0
    0.7831   -0.3756   -4.8419 O   0  0  0  0  0  0  0  0  0  0  0  0
    0.5639    1.5572   -7.0822 F   0  0  0  0  0  0  0  0  0  0  0  0
    2.3626    2.6805   -6.5759 F   0  0  0  0  0  0  0  0  0  0  0  0
    2.4993    0.5606   -7.0589 F   0  0  0  0  0  0  0  0  0  0  0  0
  1  2  2  0  0  0  0
  1  6  1  0  0  0  0
  2  3  1  0  0  0  0
  3 20  1  0  0  0  0
  3  4  2  0  0  0  0
  4  9  1  0  0  0  0
  5  4  1  0  0  0  0
  5 10  1  0  0  0  0
  6  5  2  0  0  0  0
  7  1  1  0  0  0  0
  8  2  1  0  0  0  0
 11  6  1  0  0  0  0
 11 12  2  0  0  0  0
 13 11  2  0  0  0  0
 14 15  3  0  0  0  0
 16 18  2  0  0  0  0
 16 19  2  0  0  0  0
 17 16  1  0  0  0  0
 20 16  1  0  0  0  0
 21 17  1  0  0  0  0
 22 17  1  0  0  0  0
 23 17  1  0  0  0  0
M  END
