Coordinates from ORCA-job 4-NO2-Ph-N2-OTf-B3LYPG-6-31G_dp-MTMO-d009-169-n800
 OpenBabel09051908473D

 23 22  0  0  0  0  0  0  0  0999 V2000
   -2.5462   -1.2162   -6.1580 C   0  0  0  0  0  0  0  0  0  0  0  0
   -1.1744   -1.0000   -6.0767 C   0  0  0  0  0  0  0  0  0  0  0  0
   -0.6344   -0.5083   -4.8883 C   0  0  0  0  0  0  0  0  0  0  0  0
   -1.4255   -0.2273   -3.7742 C   0  0  0  0  0  0  0  0  0  0  0  0
   -2.7993   -0.4341   -3.8588 C   0  0  0  0  0  0  0  0  0  0  0  0
   -3.3365   -0.9263   -5.0469 C   0  0  0  0  0  0  0  0  0  0  0  0
   -3.0093   -1.5990   -7.0584 H   0  0  0  0  0  0  0  0  0  0  0  0
   -0.5207   -1.2096   -6.9154 H   0  0  0  0  0  0  0  0  0  0  0  0
   -0.9736    0.1489   -2.8648 H   0  0  0  0  0  0  0  0  0  0  0  0
   -3.4550   -0.2274   -3.0226 H   0  0  0  0  0  0  0  0  0  0  0  0
   -4.7898   -1.1510   -5.1309 N   0  0  0  0  0  0  0  0  0  0  0  0
   -5.4634   -0.8899   -4.1361 O   0  0  0  0  0  0  0  0  0  0  0  0
   -5.2365   -1.5860   -6.1909 O   0  0  0  0  0  0  0  0  0  0  0  0
    6.1711    5.7697   -9.4275 N   0  0  0  0  0  0  0  0  0  0  0  0
    5.3772    5.1261   -9.0067 N   0  0  0  0  0  0  0  0  0  0  0  0
    1.4957    1.0744   -4.6351 S   0  0  0  0  0  0  0  0  0  0  0  0
    1.7292    1.5044   -6.4417 C   0  0  0  0  0  0  0  0  0  0  0  0
    0.5688    2.0395   -4.0695 O   0  0  0  0  0  0  0  0  0  0  0  0
    2.7995    0.7861   -4.0763 O   0  0  0  0  0  0  0  0  0  0  0  0
    0.7617   -0.3969   -4.8207 O   0  0  0  0  0  0  0  0  0  0  0  0
    0.5350    1.5687   -7.0332 F   0  0  0  0  0  0  0  0  0  0  0  0
    2.3353    2.6840   -6.5157 F   0  0  0  0  0  0  0  0  0  0  0  0
    2.4700    0.5714   -7.0297 F   0  0  0  0  0  0  0  0  0  0  0  0
  1  2  2  0  0  0  0
  1  6  1  0  0  0  0
  2  3  1  0  0  0  0
  3 20  1  0  0  0  0
  3  4  2  0  0  0  0
  4  9  1  0  0  0  0
  5  4  1  0  0  0  0
  5 10  1  0  0  0  0
  6  5  2  0  0  0  0
  7  1  1  0  0  0  0
  8  2  1  0  0  0  0
 11  6  1  0  0  0  0
 11 12  2  0  0  0  0
 13 11  2  0  0  0  0
 14 15  3  0  0  0  0
 16 19  2  0  0  0  0
 16 18  2  0  0  0  0
 17 16  1  0  0  0  0
 20 16  1  0  0  0  0
 21 17  1  0  0  0  0
 22 17  1  0  0  0  0
 23 17  1  0  0  0  0
M  END
