Coordinates from ORCA-job 4-NO2-Ph-N2-OTf-B3LYPG-6-31G_dp-MTMO-d009-169-n800
 OpenBabel09051908473D

 23 22  0  0  0  0  0  0  0  0999 V2000
   -2.5259   -1.2058   -6.1616 C   0  0  0  0  0  0  0  0  0  0  0  0
   -1.1540   -0.9877   -6.0889 C   0  0  0  0  0  0  0  0  0  0  0  0
   -0.6091   -0.4824   -4.9084 C   0  0  0  0  0  0  0  0  0  0  0  0
   -1.3956   -0.1891   -3.7942 C   0  0  0  0  0  0  0  0  0  0  0  0
   -2.7696   -0.3978   -3.8704 C   0  0  0  0  0  0  0  0  0  0  0  0
   -3.3116   -0.9040   -5.0505 C   0  0  0  0  0  0  0  0  0  0  0  0
   -2.9927   -1.5990   -7.0557 H   0  0  0  0  0  0  0  0  0  0  0  0
   -0.5038   -1.2062   -6.9281 H   0  0  0  0  0  0  0  0  0  0  0  0
   -0.9400    0.1978   -2.8912 H   0  0  0  0  0  0  0  0  0  0  0  0
   -3.4218   -0.1820   -3.0338 H   0  0  0  0  0  0  0  0  0  0  0  0
   -4.7651   -1.1308   -5.1254 N   0  0  0  0  0  0  0  0  0  0  0  0
   -5.4344   -0.8596   -4.1305 O   0  0  0  0  0  0  0  0  0  0  0  0
   -5.2161   -1.5776   -6.1787 O   0  0  0  0  0  0  0  0  0  0  0  0
    5.8830    5.5688   -9.1840 N   0  0  0  0  0  0  0  0  0  0  0  0
    5.1009    4.9141   -8.7582 N   0  0  0  0  0  0  0  0  0  0  0  0
    1.5214    1.1041   -4.6825 S   0  0  0  0  0  0  0  0  0  0  0  0
    1.7633    1.5040   -6.4950 C   0  0  0  0  0  0  0  0  0  0  0  0
    0.5923    2.0784   -4.1367 O   0  0  0  0  0  0  0  0  0  0  0  0
    2.8227    0.8246   -4.1135 O   0  0  0  0  0  0  0  0  0  0  0  0
    0.7871   -0.3697   -4.8477 O   0  0  0  0  0  0  0  0  0  0  0  0
    0.5718    1.5562   -7.0934 F   0  0  0  0  0  0  0  0  0  0  0  0
    2.3681    2.6830   -6.5862 F   0  0  0  0  0  0  0  0  0  0  0  0
    2.5083    0.5621   -7.0633 F   0  0  0  0  0  0  0  0  0  0  0  0
  1  2  2  0  0  0  0
  1  6  1  0  0  0  0
  2  3  1  0  0  0  0
  3 20  1  0  0  0  0
  3  4  2  0  0  0  0
  4  9  1  0  0  0  0
  5  4  1  0  0  0  0
  5 10  1  0  0  0  0
  6  5  2  0  0  0  0
  7  1  1  0  0  0  0
  8  2  1  0  0  0  0
 11  6  1  0  0  0  0
 11 12  2  0  0  0  0
 13 11  2  0  0  0  0
 14 15  3  0  0  0  0
 16 18  2  0  0  0  0
 16 19  2  0  0  0  0
 17 16  1  0  0  0  0
 20 16  1  0  0  0  0
 21 17  1  0  0  0  0
 22 17  1  0  0  0  0
 23 17  1  0  0  0  0
M  END
