Coordinates from ORCA-job 4-NO2-Ph-N2-OTf-B3LYPG-6-31G_dp-MTMO-d009-169-n800
 OpenBabel09051908473D

 23 22  0  0  0  0  0  0  0  0999 V2000
   -1.9875   -1.6966   -5.7268 C   0  0  0  0  0  0  0  0  0  0  0  0
   -0.6676   -1.3392   -5.4721 C   0  0  0  0  0  0  0  0  0  0  0  0
   -0.4010   -0.0980   -4.8945 C   0  0  0  0  0  0  0  0  0  0  0  0
   -1.4155    0.7992   -4.5604 C   0  0  0  0  0  0  0  0  0  0  0  0
   -2.7355    0.4455   -4.8246 C   0  0  0  0  0  0  0  0  0  0  0  0
   -2.9998   -0.7956   -5.4005 C   0  0  0  0  0  0  0  0  0  0  0  0
   -2.2435   -2.6500   -6.1707 H   0  0  0  0  0  0  0  0  0  0  0  0
    0.1527   -2.0064   -5.7099 H   0  0  0  0  0  0  0  0  0  0  0  0
   -1.1736    1.7529   -4.1089 H   0  0  0  0  0  0  0  0  0  0  0  0
   -3.5573    1.1084   -4.5861 H   0  0  0  0  0  0  0  0  0  0  0  0
   -4.3984   -1.1702   -5.6721 N   0  0  0  0  0  0  0  0  0  0  0  0
   -5.2717   -0.3574   -5.3748 O   0  0  0  0  0  0  0  0  0  0  0  0
   -4.6022   -2.2720   -6.1787 O   0  0  0  0  0  0  0  0  0  0  0  0
    1.3984    5.7240   -5.2901 N   0  0  0  0  0  0  0  0  0  0  0  0
    2.0639    5.4538   -6.1299 N   0  0  0  0  0  0  0  0  0  0  0  0
    1.7575    1.4166   -5.2913 S   0  0  0  0  0  0  0  0  0  0  0  0
    2.4652    0.4782   -6.7474 C   0  0  0  0  0  0  0  0  0  0  0  0
    0.8323    2.4072   -5.8151 O   0  0  0  0  0  0  0  0  0  0  0  0
    2.8480    1.7307   -4.3931 O   0  0  0  0  0  0  0  0  0  0  0  0
    0.9348    0.1781   -4.5674 O   0  0  0  0  0  0  0  0  0  0  0  0
    1.4635    0.0140   -7.4963 F   0  0  0  0  0  0  0  0  0  0  0  0
    3.2133    1.3136   -7.4594 F   0  0  0  0  0  0  0  0  0  0  0  0
    3.2030   -0.5357   -6.3078 F   0  0  0  0  0  0  0  0  0  0  0  0
  1  2  2  0  0  0  0
  1  6  1  0  0  0  0
  2  3  1  0  0  0  0
  3 20  1  0  0  0  0
  3  4  2  0  0  0  0
  4  9  1  0  0  0  0
  5 10  1  0  0  0  0
  5  4  1  0  0  0  0
  6  5  2  0  0  0  0
  7  1  1  0  0  0  0
  8  2  1  0  0  0  0
 11  6  1  0  0  0  0
 11 12  2  0  0  0  0
 13 11  2  0  0  0  0
 15 14  3  0  0  0  0
 16 20  1  0  0  0  0
 16 19  2  0  0  0  0
 17 23  1  0  0  0  0
 17 16  1  0  0  0  0
 18 16  2  0  0  0  0
 21 17  1  0  0  0  0
 22 17  1  0  0  0  0
M  END
