Coordinates from ORCA-job 4-NO2-Ph-N2-OTf-B3LYPG-6-31G_dp-MTMO-d009-169-n800
 OpenBabel09051908473D

 23 22  0  0  0  0  0  0  0  0999 V2000
   -2.6190   -1.2592   -6.1305 C   0  0  0  0  0  0  0  0  0  0  0  0
   -1.2476   -1.0452   -6.0383 C   0  0  0  0  0  0  0  0  0  0  0  0
   -0.7132   -0.5777   -4.8376 C   0  0  0  0  0  0  0  0  0  0  0  0
   -1.5095   -0.3195   -3.7217 C   0  0  0  0  0  0  0  0  0  0  0  0
   -2.8830   -0.5239   -3.8172 C   0  0  0  0  0  0  0  0  0  0  0  0
   -3.4146   -0.9915   -5.0177 C   0  0  0  0  0  0  0  0  0  0  0  0
   -3.0779   -1.6235   -7.0407 H   0  0  0  0  0  0  0  0  0  0  0  0
   -0.5900   -1.2382   -6.8779 H   0  0  0  0  0  0  0  0  0  0  0  0
   -1.0620    0.0378   -2.8027 H   0  0  0  0  0  0  0  0  0  0  0  0
   -3.5425   -0.3341   -2.9800 H   0  0  0  0  0  0  0  0  0  0  0  0
   -4.8676   -1.2137   -5.1132 N   0  0  0  0  0  0  0  0  0  0  0  0
   -5.5461   -0.9712   -4.1171 O   0  0  0  0  0  0  0  0  0  0  0  0
   -5.3091   -1.6279   -6.1837 O   0  0  0  0  0  0  0  0  0  0  0  0
    7.0091    6.4068  -10.0260 N   0  0  0  0  0  0  0  0  0  0  0  0
    6.1995    5.7671   -9.6299 N   0  0  0  0  0  0  0  0  0  0  0  0
    1.4158    0.9994   -4.5419 S   0  0  0  0  0  0  0  0  0  0  0  0
    1.6483    1.4731   -6.3376 C   0  0  0  0  0  0  0  0  0  0  0  0
    0.4886    1.9504   -3.9535 O   0  0  0  0  0  0  0  0  0  0  0  0
    2.7199    0.6986   -3.9907 O   0  0  0  0  0  0  0  0  0  0  0  0
    0.6826   -0.4677   -4.7614 O   0  0  0  0  0  0  0  0  0  0  0  0
    0.4540    1.5512   -6.9271 F   0  0  0  0  0  0  0  0  0  0  0  0
    2.2535    2.6548   -6.3828 F   0  0  0  0  0  0  0  0  0  0  0  0
    2.3898    0.5555   -6.9487 F   0  0  0  0  0  0  0  0  0  0  0  0
  1  2  2  0  0  0  0
  1  6  1  0  0  0  0
  2  3  1  0  0  0  0
  3 20  1  0  0  0  0
  3  4  2  0  0  0  0
  4  9  1  0  0  0  0
  5  4  1  0  0  0  0
  5 10  1  0  0  0  0
  6  5  2  0  0  0  0
  7  1  1  0  0  0  0
  8  2  1  0  0  0  0
 11  6  1  0  0  0  0
 11 12  2  0  0  0  0
 13 11  2  0  0  0  0
 14 15  3  0  0  0  0
 16 19  2  0  0  0  0
 16 18  2  0  0  0  0
 17 16  1  0  0  0  0
 20 16  1  0  0  0  0
 21 17  1  0  0  0  0
 22 17  1  0  0  0  0
 23 17  1  0  0  0  0
M  END
