Coordinates from ORCA-job 4-NO2-Ph-N2-OTf-B3LYPG-6-31G_dp-MTMO-d009-169-n800
 OpenBabel09051908473D

 23 22  0  0  0  0  0  0  0  0999 V2000
   -2.5675   -1.2280   -6.1508 C   0  0  0  0  0  0  0  0  0  0  0  0
   -1.1958   -1.0132   -6.0651 C   0  0  0  0  0  0  0  0  0  0  0  0
   -0.6581   -0.5299   -4.8722 C   0  0  0  0  0  0  0  0  0  0  0  0
   -1.4514   -0.2562   -3.7578 C   0  0  0  0  0  0  0  0  0  0  0  0
   -2.8252   -0.4615   -3.8469 C   0  0  0  0  0  0  0  0  0  0  0  0
   -3.3600   -0.9452   -5.0395 C   0  0  0  0  0  0  0  0  0  0  0  0
   -3.0289   -1.6043   -7.0549 H   0  0  0  0  0  0  0  0  0  0  0  0
   -0.5404   -1.2175   -6.9038 H   0  0  0  0  0  0  0  0  0  0  0  0
   -1.0013    0.1134   -2.8449 H   0  0  0  0  0  0  0  0  0  0  0  0
   -3.4825   -0.2603   -3.0107 H   0  0  0  0  0  0  0  0  0  0  0  0
   -4.8133   -1.1684   -5.1282 N   0  0  0  0  0  0  0  0  0  0  0  0
   -5.4890   -0.9132   -4.1333 O   0  0  0  0  0  0  0  0  0  0  0  0
   -5.2579   -1.5962   -6.1921 O   0  0  0  0  0  0  0  0  0  0  0  0
    6.4199    5.9633   -9.6150 N   0  0  0  0  0  0  0  0  0  0  0  0
    5.6221    5.3182   -9.2039 N   0  0  0  0  0  0  0  0  0  0  0  0
    1.4722    1.0501   -4.6036 S   0  0  0  0  0  0  0  0  0  0  0  0
    1.7060    1.4950   -6.4065 C   0  0  0  0  0  0  0  0  0  0  0  0
    0.5454    2.0108   -4.0303 O   0  0  0  0  0  0  0  0  0  0  0  0
    2.7759    0.7570   -4.0470 O   0  0  0  0  0  0  0  0  0  0  0  0
    0.7379   -0.4195   -4.8009 O   0  0  0  0  0  0  0  0  0  0  0  0
    0.5118    1.5648   -6.9976 F   0  0  0  0  0  0  0  0  0  0  0  0
    2.3125    2.6751   -6.4705 F   0  0  0  0  0  0  0  0  0  0  0  0
    2.4465    0.5668   -7.0023 F   0  0  0  0  0  0  0  0  0  0  0  0
  1  2  2  0  0  0  0
  1  6  1  0  0  0  0
  2  3  1  0  0  0  0
  3 20  1  0  0  0  0
  3  4  2  0  0  0  0
  4  9  1  0  0  0  0
  5  4  1  0  0  0  0
  5 10  1  0  0  0  0
  6  5  2  0  0  0  0
  7  1  1  0  0  0  0
  8  2  1  0  0  0  0
 11  6  1  0  0  0  0
 11 12  2  0  0  0  0
 13 11  2  0  0  0  0
 14 15  3  0  0  0  0
 16 19  2  0  0  0  0
 16 18  2  0  0  0  0
 17 16  1  0  0  0  0
 20 16  1  0  0  0  0
 21 17  1  0  0  0  0
 22 17  1  0  0  0  0
 23 17  1  0  0  0  0
M  END
