Coordinates from ORCA-job 4-NO2-Ph-N2-OTf-B3LYPG-6-31G_dp-MTMO-d009-169-n800
 OpenBabel09051908473D

 23 22  0  0  0  0  0  0  0  0999 V2000
   -2.1949   -0.9070   -6.4038 C   0  0  0  0  0  0  0  0  0  0  0  0
   -0.8406   -0.6827   -6.1795 C   0  0  0  0  0  0  0  0  0  0  0  0
   -0.4131   -0.3414   -4.8963 C   0  0  0  0  0  0  0  0  0  0  0  0
   -1.3005   -0.2180   -3.8271 C   0  0  0  0  0  0  0  0  0  0  0  0
   -2.6568   -0.4328   -4.0536 C   0  0  0  0  0  0  0  0  0  0  0  0
   -3.0812   -0.7755   -5.3360 C   0  0  0  0  0  0  0  0  0  0  0  0
   -2.5727   -1.1779   -7.3813 H   0  0  0  0  0  0  0  0  0  0  0  0
   -0.1149   -0.7727   -6.9794 H   0  0  0  0  0  0  0  0  0  0  0  0
   -0.9346    0.0443   -2.8423 H   0  0  0  0  0  0  0  0  0  0  0  0
   -3.3840   -0.3463   -3.2565 H   0  0  0  0  0  0  0  0  0  0  0  0
   -4.5161   -1.0102   -5.5712 N   0  0  0  0  0  0  0  0  0  0  0  0
   -5.2762   -0.8892   -4.6124 O   0  0  0  0  0  0  0  0  0  0  0  0
   -4.8621   -1.3126   -6.7119 O   0  0  0  0  0  0  0  0  0  0  0  0
    3.3656    3.6853   -9.8046 N   0  0  0  0  0  0  0  0  0  0  0  0
    2.9596    3.1339   -8.9374 N   0  0  0  0  0  0  0  0  0  0  0  0
    1.6503    1.2266   -4.2691 S   0  0  0  0  0  0  0  0  0  0  0  0
    2.0648    1.8606   -5.9826 C   0  0  0  0  0  0  0  0  0  0  0  0
    0.6495    2.1126   -3.6998 O   0  0  0  0  0  0  0  0  0  0  0  0
    2.8945    0.8891   -3.6105 O   0  0  0  0  0  0  0  0  0  0  0  0
    0.9690   -0.2206   -4.6950 O   0  0  0  0  0  0  0  0  0  0  0  0
    0.9382    1.9933   -6.6835 F   0  0  0  0  0  0  0  0  0  0  0  0
    2.6611    3.0409   -5.8535 F   0  0  0  0  0  0  0  0  0  0  0  0
    2.8742    1.0014   -6.5904 F   0  0  0  0  0  0  0  0  0  0  0  0
  1  2  2  0  0  0  0
  1  6  1  0  0  0  0
  2  3  1  0  0  0  0
  3 20  1  0  0  0  0
  3  4  2  0  0  0  0
  4  9  1  0  0  0  0
  5  4  1  0  0  0  0
  5 10  1  0  0  0  0
  6  5  2  0  0  0  0
  7  1  1  0  0  0  0
  8  2  1  0  0  0  0
 11  6  1  0  0  0  0
 11 12  2  0  0  0  0
 13 11  2  0  0  0  0
 14 15  3  0  0  0  0
 16 18  2  0  0  0  0
 16 19  2  0  0  0  0
 17 22  1  0  0  0  0
 17 16  1  0  0  0  0
 20 16  1  0  0  0  0
 21 17  1  0  0  0  0
 23 17  1  0  0  0  0
M  END
