Coordinates from ORCA-job 4-NO2-Ph-N2-OTf-B3LYPG-6-31G_dp-MTMO-d009-169-n800
 OpenBabel09051908473D

 23 22  0  0  0  0  0  0  0  0999 V2000
   -2.5411   -1.2141   -6.1590 C   0  0  0  0  0  0  0  0  0  0  0  0
   -1.1693   -0.9977   -6.0791 C   0  0  0  0  0  0  0  0  0  0  0  0
   -0.6285   -0.5030   -4.8923 C   0  0  0  0  0  0  0  0  0  0  0  0
   -1.4190   -0.2189   -3.7785 C   0  0  0  0  0  0  0  0  0  0  0  0
   -2.7929   -0.4258   -3.8618 C   0  0  0  0  0  0  0  0  0  0  0  0
   -3.3307   -0.9212   -5.0482 C   0  0  0  0  0  0  0  0  0  0  0  0
   -3.0048   -1.5992   -7.0581 H   0  0  0  0  0  0  0  0  0  0  0  0
   -0.5161   -1.2096   -6.9176 H   0  0  0  0  0  0  0  0  0  0  0  0
   -0.9666    0.1596   -2.8704 H   0  0  0  0  0  0  0  0  0  0  0  0
   -3.4480   -0.2168   -3.0257 H   0  0  0  0  0  0  0  0  0  0  0  0
   -4.7842   -1.1460   -5.1308 N   0  0  0  0  0  0  0  0  0  0  0  0
   -5.4572   -0.8823   -4.1363 O   0  0  0  0  0  0  0  0  0  0  0  0
   -5.2315   -1.5836   -6.1895 O   0  0  0  0  0  0  0  0  0  0  0  0
    6.1079    5.7252   -9.3765 N   0  0  0  0  0  0  0  0  0  0  0  0
    5.3156    5.0808   -8.9538 N   0  0  0  0  0  0  0  0  0  0  0  0
    1.5019    1.0801   -4.6444 S   0  0  0  0  0  0  0  0  0  0  0  0
    1.7356    1.5045   -6.4523 C   0  0  0  0  0  0  0  0  0  0  0  0
    0.5751    2.0470   -4.0818 O   0  0  0  0  0  0  0  0  0  0  0  0
    2.8056    0.7932   -4.0847 O   0  0  0  0  0  0  0  0  0  0  0  0
    0.7675   -0.3916   -4.8257 O   0  0  0  0  0  0  0  0  0  0  0  0
    0.5414    1.5671   -7.0441 F   0  0  0  0  0  0  0  0  0  0  0  0
    2.3419    2.6837   -6.5300 F   0  0  0  0  0  0  0  0  0  0  0  0
    2.4763    0.5694   -7.0374 F   0  0  0  0  0  0  0  0  0  0  0  0
  1  2  2  0  0  0  0
  1  6  1  0  0  0  0
  2  3  1  0  0  0  0
  3 20  1  0  0  0  0
  3  4  2  0  0  0  0
  4  9  1  0  0  0  0
  5  4  1  0  0  0  0
  5 10  1  0  0  0  0
  6  5  2  0  0  0  0
  7  1  1  0  0  0  0
  8  2  1  0  0  0  0
 11  6  1  0  0  0  0
 11 12  2  0  0  0  0
 13 11  2  0  0  0  0
 14 15  3  0  0  0  0
 16 19  2  0  0  0  0
 16 18  2  0  0  0  0
 17 16  1  0  0  0  0
 20 16  1  0  0  0  0
 21 17  1  0  0  0  0
 22 17  1  0  0  0  0
 23 17  1  0  0  0  0
M  END
