Coordinates from ORCA-job 4-NO2-Ph-N2-OTf-B3LYPG-6-31G_dp-MTMO-d009-169-n800
 OpenBabel09051908473D

 23 22  0  0  0  0  0  0  0  0999 V2000
   -2.5893   -1.2424   -6.1407 C   0  0  0  0  0  0  0  0  0  0  0  0
   -1.2175   -1.0292   -6.0524 C   0  0  0  0  0  0  0  0  0  0  0  0
   -0.6811   -0.5501   -4.8572 C   0  0  0  0  0  0  0  0  0  0  0  0
   -1.4758   -0.2792   -3.7431 C   0  0  0  0  0  0  0  0  0  0  0  0
   -2.8496   -0.4830   -3.8348 C   0  0  0  0  0  0  0  0  0  0  0  0
   -3.3832   -0.9624   -5.0297 C   0  0  0  0  0  0  0  0  0  0  0  0
   -3.0497   -1.6155   -7.0466 H   0  0  0  0  0  0  0  0  0  0  0  0
   -0.5611   -1.2315   -6.8907 H   0  0  0  0  0  0  0  0  0  0  0  0
   -1.0267    0.0870   -2.8283 H   0  0  0  0  0  0  0  0  0  0  0  0
   -3.5079   -0.2837   -2.9989 H   0  0  0  0  0  0  0  0  0  0  0  0
   -4.8366   -1.1838   -5.1212 N   0  0  0  0  0  0  0  0  0  0  0  0
   -5.5135   -0.9310   -4.1266 O   0  0  0  0  0  0  0  0  0  0  0  0
   -5.2799   -1.6080   -6.1870 O   0  0  0  0  0  0  0  0  0  0  0  0
    6.6567    6.1586   -9.7764 N   0  0  0  0  0  0  0  0  0  0  0  0
    5.8558    5.5119   -9.3740 N   0  0  0  0  0  0  0  0  0  0  0  0
    1.4501    1.0272   -4.5806 S   0  0  0  0  0  0  0  0  0  0  0  0
    1.6855    1.4783   -6.3818 C   0  0  0  0  0  0  0  0  0  0  0  0
    0.5237    1.9866   -4.0047 O   0  0  0  0  0  0  0  0  0  0  0  0
    2.7532    0.7312   -4.0243 O   0  0  0  0  0  0  0  0  0  0  0  0
    0.7149   -0.4412   -4.7836 O   0  0  0  0  0  0  0  0  0  0  0  0
    0.4919    1.5514   -6.9734 F   0  0  0  0  0  0  0  0  0  0  0  0
    2.2932    2.6581   -6.4411 F   0  0  0  0  0  0  0  0  0  0  0  0
    2.4257    0.5516   -6.9805 F   0  0  0  0  0  0  0  0  0  0  0  0
  1  2  2  0  0  0  0
  1  6  1  0  0  0  0
  2  3  1  0  0  0  0
  3 20  1  0  0  0  0
  3  4  2  0  0  0  0
  4  9  1  0  0  0  0
  5  4  1  0  0  0  0
  5 10  1  0  0  0  0
  6  5  2  0  0  0  0
  7  1  1  0  0  0  0
  8  2  1  0  0  0  0
 11  6  1  0  0  0  0
 11 12  2  0  0  0  0
 13 11  2  0  0  0  0
 14 15  3  0  0  0  0
 16 19  2  0  0  0  0
 16 18  2  0  0  0  0
 17 16  1  0  0  0  0
 20 16  1  0  0  0  0
 21 17  1  0  0  0  0
 22 17  1  0  0  0  0
 23 17  1  0  0  0  0
M  END
