Coordinates from ORCA-job 4-NO2-Ph-N2-OTf-B3LYPG-6-31G_dp-MTMO-d009-169-n800
 OpenBabel09051908473D

 23 22  0  0  0  0  0  0  0  0999 V2000
   -2.0712   -0.4199   -6.3480 C   0  0  0  0  0  0  0  0  0  0  0  0
   -0.7332   -0.0414   -6.2888 C   0  0  0  0  0  0  0  0  0  0  0  0
   -0.2798    0.6439   -5.1580 C   0  0  0  0  0  0  0  0  0  0  0  0
   -1.1102    0.8603   -4.0526 C   0  0  0  0  0  0  0  0  0  0  0  0
   -2.4410    0.4717   -4.1111 C   0  0  0  0  0  0  0  0  0  0  0  0
   -2.9087   -0.1531   -5.2674 C   0  0  0  0  0  0  0  0  0  0  0  0
   -2.4696   -0.9318   -7.2150 H   0  0  0  0  0  0  0  0  0  0  0  0
   -0.0722   -0.2480   -7.1187 H   0  0  0  0  0  0  0  0  0  0  0  0
   -0.7032    1.3496   -3.1754 H   0  0  0  0  0  0  0  0  0  0  0  0
   -3.1175    0.6398   -3.2827 H   0  0  0  0  0  0  0  0  0  0  0  0
   -4.3183   -0.5634   -5.3367 N   0  0  0  0  0  0  0  0  0  0  0  0
   -5.0272   -0.3262   -4.3596 O   0  0  0  0  0  0  0  0  0  0  0  0
   -4.6993   -1.1186   -6.3661 O   0  0  0  0  0  0  0  0  0  0  0  0
   -0.6169    2.8455   -6.0019 N   0  0  0  0  0  0  0  0  0  0  0  0
   -1.5143    3.3744   -6.3756 N   0  0  0  0  0  0  0  0  0  0  0  0
    2.2025    1.3048   -6.0579 S   0  0  0  0  0  0  0  0  0  0  0  0
    3.0969   -0.3359   -5.9784 C   0  0  0  0  0  0  0  0  0  0  0  0
    1.6291    1.4221   -7.3881 O   0  0  0  0  0  0  0  0  0  0  0  0
    3.0639    2.3072   -5.4680 O   0  0  0  0  0  0  0  0  0  0  0  0
    1.0584    0.9687   -4.9183 O   0  0  0  0  0  0  0  0  0  0  0  0
    2.2513   -1.3098   -6.3210 F   0  0  0  0  0  0  0  0  0  0  0  0
    4.1092   -0.2948   -6.8393 F   0  0  0  0  0  0  0  0  0  0  0  0
    3.5503   -0.5441   -4.7489 F   0  0  0  0  0  0  0  0  0  0  0  0
  1  2  2  0  0  0  0
  1  6  1  0  0  0  0
  2  3  1  0  0  0  0
  3 20  1  0  0  0  0
  3  4  2  0  0  0  0
  4  9  1  0  0  0  0
  5  4  1  0  0  0  0
  5 10  1  0  0  0  0
  6  5  2  0  0  0  0
  7  1  1  0  0  0  0
  8  2  1  0  0  0  0
 11  6  1  0  0  0  0
 11 12  2  0  0  0  0
 13 11  2  0  0  0  0
 15 14  3  0  0  0  0
 16 17  1  0  0  0  0
 16 19  2  0  0  0  0
 16 20  1  0  0  0  0
 17 23  1  0  0  0  0
 18 16  2  0  0  0  0
 21 17  1  0  0  0  0
 22 17  1  0  0  0  0
M  END
