Coordinates from ORCA-job 4-NO2-Ph-N2-OTf-B3LYPG-6-31G_dp-MTMO-d009-169-n800
 OpenBabel09051908473D

 23 23  0  0  1  0  0  0  0  0999 V2000
   -2.0845   -0.3910   -6.3608 C   0  0  0  0  0  0  0  0  0  0  0  0
   -0.7586    0.0098   -6.3185 C   0  0  0  0  0  0  0  0  0  0  0  0
   -0.3215    0.8100   -5.2381 C   0  0  2  0  0  0  0  0  0  0  0  0
   -1.1198    0.9041   -4.0743 C   0  0  0  0  0  0  0  0  0  0  0  0
   -2.4395    0.4937   -4.1169 C   0  0  0  0  0  0  0  0  0  0  0  0
   -2.9230   -0.1123   -5.2798 C   0  0  2  0  0  0  0  0  0  0  0  0
   -2.4766   -0.9425   -7.2063 H   0  0  0  0  0  0  0  0  0  0  0  0
   -0.0926   -0.2016   -7.1438 H   0  0  0  0  0  0  0  0  0  0  0  0
   -0.6992    1.3738   -3.1929 H   0  0  0  0  0  0  0  0  0  0  0  0
   -3.0974    0.6140   -3.2654 H   0  0  0  0  0  0  0  0  0  0  0  0
   -4.3242   -0.5397   -5.3324 N   0  0  0  0  0  0  0  0  0  0  0  0
   -5.0260   -0.3104   -4.3472 O   0  0  0  0  0  0  0  0  0  0  0  0
   -4.7108   -1.0995   -6.3582 O   0  0  0  0  0  0  0  0  0  0  0  0
   -0.5671    2.5403   -5.9344 N   0  0  0  0  0  0  0  0  0  0  0  0
   -1.4685    3.0902   -6.2898 N   0  0  0  0  0  0  0  0  0  0  0  0
    2.2154    1.3281   -6.0617 S   0  0  0  0  0  0  0  0  0  0  0  0
    3.0935   -0.3208   -5.9695 C   0  0  0  0  0  0  0  0  0  0  0  0
    1.6596    1.4503   -7.4006 O   0  0  0  0  0  0  0  0  0  0  0  0
    3.0806    2.3238   -5.4641 O   0  0  0  0  0  0  0  0  0  0  0  0
    1.0473    0.9856   -4.9477 O   0  0  0  0  0  0  0  0  0  0  0  0
    2.2497   -1.2852   -6.3387 F   0  0  0  0  0  0  0  0  0  0  0  0
    4.1263   -0.2810   -6.8061 F   0  0  0  0  0  0  0  0  0  0  0  0
    3.5162   -0.5388   -4.7307 F   0  0  0  0  0  0  0  0  0  0  0  0
  1  2  2  0  0  0  0
  1  6  1  0  0  0  0
  2  3  1  0  0  0  0
  3 14  1  6  0  0  0
  3 20  1  0  0  0  0
  3  4  1  0  0  0  0
  4  9  1  0  0  0  0
  5  4  2  0  0  0  0
  5 10  1  0  0  0  0
  6 11  1  1  0  0  0
  6  5  1  0  0  0  0
  7  1  1  0  0  0  0
  8  2  1  0  0  0  0
 11 12  2  0  0  0  0
 13 11  2  0  0  0  0
 15 14  2  0  0  0  0
 16 17  1  0  0  0  0
 16 19  2  0  0  0  0
 16 20  1  0  0  0  0
 17 23  1  0  0  0  0
 18 16  2  0  0  0  0
 21 17  1  0  0  0  0
 22 17  1  0  0  0  0
M  RAD  2   6   2  15   2
M  END
