Coordinates from ORCA-job 4-NO2-Ph-N2-OTf-B3LYPG-6-31G_dp-MTMO-d009-169-n800
 OpenBabel09051908473D

 23 22  0  0  0  0  0  0  0  0999 V2000
   -1.9630   -0.4087   -6.2779 C   0  0  0  0  0  0  0  0  0  0  0  0
   -0.9980    0.5946   -6.3766 C   0  0  0  0  0  0  0  0  0  0  0  0
   -1.0733    1.5716   -5.4052 C   0  0  0  0  0  0  0  0  0  0  0  0
   -1.9626    1.6650   -4.3481 C   0  0  0  0  0  0  0  0  0  0  0  0
   -2.9082    0.6432   -4.2730 C   0  0  0  0  0  0  0  0  0  0  0  0
   -2.8906   -0.3625   -5.2383 C   0  0  0  0  0  0  0  0  0  0  0  0
   -1.9941   -1.2241   -6.9897 H   0  0  0  0  0  0  0  0  0  0  0  0
   -0.2113    0.6196   -7.1262 H   0  0  0  0  0  0  0  0  0  0  0  0
   -1.9264    2.4693   -3.6240 H   0  0  0  0  0  0  0  0  0  0  0  0
   -3.6499    0.6185   -3.4845 H   0  0  0  0  0  0  0  0  0  0  0  0
   -3.9069   -1.4362   -5.1473 N   0  0  0  0  0  0  0  0  0  0  0  0
   -4.7005   -1.3774   -4.2127 O   0  0  0  0  0  0  0  0  0  0  0  0
   -3.8830   -2.3044   -6.0130 O   0  0  0  0  0  0  0  0  0  0  0  0
   -0.0435    2.7924   -5.5138 N   0  0  0  0  0  0  0  0  0  0  0  0
    0.2254    3.8673   -5.6182 N   0  0  0  0  0  0  0  0  0  0  0  0
    2.5063    1.2379   -6.1179 S   0  0  0  0  0  0  0  0  0  0  0  0
    2.7259   -0.6066   -6.0362 C   0  0  0  0  0  0  0  0  0  0  0  0
    1.6972    1.4487   -7.3483 O   0  0  0  0  0  0  0  0  0  0  0  0
    3.8563    1.7977   -6.0914 O   0  0  0  0  0  0  0  0  0  0  0  0
    1.6753    1.5079   -4.8781 O   0  0  0  0  0  0  0  0  0  0  0  0
    1.5196   -1.2130   -6.0651 F   0  0  0  0  0  0  0  0  0  0  0  0
    3.4360   -1.0371   -7.0826 F   0  0  0  0  0  0  0  0  0  0  0  0
    3.3484   -0.9628   -4.9097 F   0  0  0  0  0  0  0  0  0  0  0  0
  1  6  1  0  0  0  0
  2  1  2  0  0  0  0
  2  3  1  0  0  0  0
  3  4  2  0  0  0  0
  4  5  1  0  0  0  0
  4  9  1  0  0  0  0
  5 10  1  0  0  0  0
  6 11  1  0  0  0  0
  6  5  2  0  0  0  0
  7  1  1  0  0  0  0
  8  2  1  0  0  0  0
 11 12  2  0  0  0  0
 13 11  2  0  0  0  0
 14  3  1  0  0  0  0
 15 14  2  0  0  0  0
 16 19  2  0  0  0  0
 16 17  1  0  0  0  0
 16 20  1  0  0  0  0
 17 23  1  0  0  0  0
 18 16  2  0  0  0  0
 21 17  1  0  0  0  0
 22 17  1  0  0  0  0
M  RAD  2  15   2  20   2
M  END
