Coordinates from ORCA-job 4-NO2-Ph-N2-OTf-B3LYPG-6-31G_dp-MTMO-d009-169-n800
 OpenBabel09051908473D

 23 22  0  0  0  0  0  0  0  0999 V2000
   -1.9863   -1.6373   -5.6378 C   0  0  0  0  0  0  0  0  0  0  0  0
   -0.6491   -1.3330   -5.4051 C   0  0  0  0  0  0  0  0  0  0  0  0
   -0.3153   -0.0620   -4.9380 C   0  0  0  0  0  0  0  0  0  0  0  0
   -1.2783    0.9174   -4.6946 C   0  0  0  0  0  0  0  0  0  0  0  0
   -2.6152    0.6156   -4.9374 C   0  0  0  0  0  0  0  0  0  0  0  0
   -2.9472   -0.6555   -5.4020 C   0  0  0  0  0  0  0  0  0  0  0  0
   -2.2943   -2.6108   -5.9972 H   0  0  0  0  0  0  0  0  0  0  0  0
    0.1329   -2.0638   -5.5756 H   0  0  0  0  0  0  0  0  0  0  0  0
   -0.9849    1.8934   -4.3290 H   0  0  0  0  0  0  0  0  0  0  0  0
   -3.3990    1.3423   -4.7662 H   0  0  0  0  0  0  0  0  0  0  0  0
   -4.3637   -0.9745   -5.6500 N   0  0  0  0  0  0  0  0  0  0  0  0
   -5.1910   -0.0911   -5.4337 O   0  0  0  0  0  0  0  0  0  0  0  0
   -4.6276   -2.1043   -6.0576 O   0  0  0  0  0  0  0  0  0  0  0  0
    0.4035    5.3562   -4.9199 N   0  0  0  0  0  0  0  0  0  0  0  0
    1.1423    5.8249   -5.5952 N   0  0  0  0  0  0  0  0  0  0  0  0
    1.9254    1.2994   -5.4340 S   0  0  0  0  0  0  0  0  0  0  0  0
    2.5883    0.2115   -6.8052 C   0  0  0  0  0  0  0  0  0  0  0  0
    1.0608    2.2958   -6.0435 O   0  0  0  0  0  0  0  0  0  0  0  0
    3.0266    1.6227   -4.5521 O   0  0  0  0  0  0  0  0  0  0  0  0
    1.0329    0.1669   -4.6252 O   0  0  0  0  0  0  0  0  0  0  0  0
    1.5667   -0.2512   -7.5277 F   0  0  0  0  0  0  0  0  0  0  0  0
    3.3891    0.9445   -7.5711 F   0  0  0  0  0  0  0  0  0  0  0  0
    3.2623   -0.8058   -6.2800 F   0  0  0  0  0  0  0  0  0  0  0  0
  1  2  2  0  0  0  0
  1  6  1  0  0  0  0
  2  3  1  0  0  0  0
  3  4  2  0  0  0  0
  3 20  1  0  0  0  0
  4  9  1  0  0  0  0
  5 10  1  0  0  0  0
  5  4  1  0  0  0  0
  6  5  2  0  0  0  0
  7  1  1  0  0  0  0
  8  2  1  0  0  0  0
 11 12  2  0  0  0  0
 11  6  1  0  0  0  0
 13 11  2  0  0  0  0
 15 14  3  0  0  0  0
 16 20  1  0  0  0  0
 16 19  2  0  0  0  0
 17 23  1  0  0  0  0
 17 16  1  0  0  0  0
 18 16  2  0  0  0  0
 21 17  1  0  0  0  0
 22 17  1  0  0  0  0
M  END
