Coordinates from ORCA-job 4-NO2-Ph-N2-OTf-B3LYPG-6-31G_dp-MTMO-d009-169-n800
 OpenBabel09051908483D

 23 22  0  0  0  0  0  0  0  0999 V2000
   -2.7145   -1.3318   -6.0759 C   0  0  0  0  0  0  0  0  0  0  0  0
   -1.3433   -1.1163   -5.9848 C   0  0  0  0  0  0  0  0  0  0  0  0
   -0.8078   -0.6534   -4.7828 C   0  0  0  0  0  0  0  0  0  0  0  0
   -1.6028   -0.4013   -3.6645 C   0  0  0  0  0  0  0  0  0  0  0  0
   -2.9762   -0.6073   -3.7589 C   0  0  0  0  0  0  0  0  0  0  0  0
   -3.5088   -1.0702   -4.9607 C   0  0  0  0  0  0  0  0  0  0  0  0
   -3.1742   -1.6927   -6.9870 H   0  0  0  0  0  0  0  0  0  0  0  0
   -0.6866   -1.3047   -6.8261 H   0  0  0  0  0  0  0  0  0  0  0  0
   -1.1544   -0.0476   -2.7445 H   0  0  0  0  0  0  0  0  0  0  0  0
   -3.6347   -0.4222   -2.9199 H   0  0  0  0  0  0  0  0  0  0  0  0
   -4.9617   -1.2940   -5.0551 N   0  0  0  0  0  0  0  0  0  0  0  0
   -5.6391   -1.0568   -4.0570 O   0  0  0  0  0  0  0  0  0  0  0  0
   -5.4041   -1.7044   -6.1267 O   0  0  0  0  0  0  0  0  0  0  0  0
    8.0230    7.1911  -10.6199 N   0  0  0  0  0  0  0  0  0  0  0  0
    7.2030    6.5493  -10.2491 N   0  0  0  0  0  0  0  0  0  0  0  0
    1.3195    0.9252   -4.4828 S   0  0  0  0  0  0  0  0  0  0  0  0
    1.5468    1.4089   -6.2764 C   0  0  0  0  0  0  0  0  0  0  0  0
    0.3925    1.8718   -3.8870 O   0  0  0  0  0  0  0  0  0  0  0  0
    2.6255    0.6234   -3.9367 O   0  0  0  0  0  0  0  0  0  0  0  0
    0.5880   -0.5418   -4.7081 O   0  0  0  0  0  0  0  0  0  0  0  0
    0.3508    1.4887   -6.8625 F   0  0  0  0  0  0  0  0  0  0  0  0
    2.1503    2.5917   -6.3168 F   0  0  0  0  0  0  0  0  0  0  0  0
    2.2878    0.4957   -6.8945 F   0  0  0  0  0  0  0  0  0  0  0  0
  1  2  2  0  0  0  0
  1  6  1  0  0  0  0
  2  3  1  0  0  0  0
  3 20  1  0  0  0  0
  3  4  2  0  0  0  0
  4  9  1  0  0  0  0
  5  4  1  0  0  0  0
  5 10  1  0  0  0  0
  6  5  2  0  0  0  0
  7  1  1  0  0  0  0
  8  2  1  0  0  0  0
 11  6  1  0  0  0  0
 11 12  2  0  0  0  0
 13 11  2  0  0  0  0
 14 15  3  0  0  0  0
 16 19  2  0  0  0  0
 16 18  2  0  0  0  0
 17 16  1  0  0  0  0
 20 16  1  0  0  0  0
 21 17  1  0  0  0  0
 22 17  1  0  0  0  0
 23 17  1  0  0  0  0
M  END
