Coordinates from ORCA-job 4-NO2-Ph-N2-OTf-B3LYPG-6-31G_dp-MTMO-d009-169-n800
 OpenBabel09051908483D

 23 22  0  0  0  0  0  0  0  0999 V2000
   -2.7782   -1.3826   -6.0369 C   0  0  0  0  0  0  0  0  0  0  0  0
   -1.4071   -1.1651   -5.9488 C   0  0  0  0  0  0  0  0  0  0  0  0
   -0.8694   -0.7017   -4.7480 C   0  0  0  0  0  0  0  0  0  0  0  0
   -1.6622   -0.4507   -3.6279 C   0  0  0  0  0  0  0  0  0  0  0  0
   -3.0355   -0.6586   -3.7192 C   0  0  0  0  0  0  0  0  0  0  0  0
   -3.5703   -1.1222   -4.9198 C   0  0  0  0  0  0  0  0  0  0  0  0
   -3.2394   -1.7441   -6.9470 H   0  0  0  0  0  0  0  0  0  0  0  0
   -0.7520   -1.3526   -6.7918 H   0  0  0  0  0  0  0  0  0  0  0  0
   -1.2122   -0.0965   -2.7089 H   0  0  0  0  0  0  0  0  0  0  0  0
   -3.6924   -0.4745   -2.8787 H   0  0  0  0  0  0  0  0  0  0  0  0
   -5.0230   -1.3481   -5.0109 N   0  0  0  0  0  0  0  0  0  0  0  0
   -5.6985   -1.1119   -4.0112 O   0  0  0  0  0  0  0  0  0  0  0  0
   -5.4673   -1.7591   -6.0815 O   0  0  0  0  0  0  0  0  0  0  0  0
    8.6850    7.7036  -10.9963 N   0  0  0  0  0  0  0  0  0  0  0  0
    7.8639    7.0631  -10.6259 N   0  0  0  0  0  0  0  0  0  0  0  0
    1.2565    0.8797   -4.4527 S   0  0  0  0  0  0  0  0  0  0  0  0
    1.4789    1.3640   -6.2467 C   0  0  0  0  0  0  0  0  0  0  0  0
    0.3297    1.8250   -3.8545 O   0  0  0  0  0  0  0  0  0  0  0  0
    2.5642    0.5794   -3.9097 O   0  0  0  0  0  0  0  0  0  0  0  0
    0.5264   -0.5882   -4.6765 O   0  0  0  0  0  0  0  0  0  0  0  0
    0.2814    1.4426   -6.8299 F   0  0  0  0  0  0  0  0  0  0  0  0
    2.0810    2.5475   -6.2882 F   0  0  0  0  0  0  0  0  0  0  0  0
    2.2195    0.4519   -6.8668 F   0  0  0  0  0  0  0  0  0  0  0  0
  1  2  2  0  0  0  0
  1  6  1  0  0  0  0
  2  3  1  0  0  0  0
  3 20  1  0  0  0  0
  3  4  2  0  0  0  0
  4  9  1  0  0  0  0
  5  4  1  0  0  0  0
  5 10  1  0  0  0  0
  6  5  2  0  0  0  0
  7  1  1  0  0  0  0
  8  2  1  0  0  0  0
 11  6  1  0  0  0  0
 11 12  2  0  0  0  0
 13 11  2  0  0  0  0
 14 15  3  0  0  0  0
 16 19  2  0  0  0  0
 16 18  2  0  0  0  0
 17 16  1  0  0  0  0
 20 16  1  0  0  0  0
 21 17  1  0  0  0  0
 22 17  1  0  0  0  0
 23 17  1  0  0  0  0
M  END
