Coordinates from ORCA-job 4-NO2-Ph-N2-OTf-B3LYPG-6-31G_dp-MTMO-d009-169-n800
 OpenBabel09051908473D

 23 22  0  0  0  0  0  0  0  0999 V2000
   -2.0655   -0.8361   -6.1930 C   0  0  0  0  0  0  0  0  0  0  0  0
   -0.7094   -0.5461   -6.0756 C   0  0  0  0  0  0  0  0  0  0  0  0
   -0.2918    0.3182   -5.0632 C   0  0  0  0  0  0  0  0  0  0  0  0
   -1.1893    0.8842   -4.1575 C   0  0  0  0  0  0  0  0  0  0  0  0
   -2.5431    0.5841   -4.2673 C   0  0  0  0  0  0  0  0  0  0  0  0
   -2.9602   -0.2687   -5.2878 C   0  0  0  0  0  0  0  0  0  0  0  0
   -2.4362   -1.4990   -6.9649 H   0  0  0  0  0  0  0  0  0  0  0  0
    0.0089   -0.9842   -6.7559 H   0  0  0  0  0  0  0  0  0  0  0  0
   -0.8174    1.5432   -3.3816 H   0  0  0  0  0  0  0  0  0  0  0  0
   -3.2743    0.9984   -3.5853 H   0  0  0  0  0  0  0  0  0  0  0  0
   -4.3926   -0.5857   -5.4092 N   0  0  0  0  0  0  0  0  0  0  0  0
   -5.1581   -0.0756   -4.5928 O   0  0  0  0  0  0  0  0  0  0  0  0
   -4.7326   -1.3411   -6.3181 O   0  0  0  0  0  0  0  0  0  0  0  0
   -0.3546    3.6436   -5.6819 N   0  0  0  0  0  0  0  0  0  0  0  0
   -0.9673    4.4633   -6.0987 N   0  0  0  0  0  0  0  0  0  0  0  0
    2.0451    1.2437   -5.9911 S   0  0  0  0  0  0  0  0  0  0  0  0
    3.1814   -0.2285   -6.1905 C   0  0  0  0  0  0  0  0  0  0  0  0
    1.3216    1.4196   -7.2385 O   0  0  0  0  0  0  0  0  0  0  0  0
    2.8115    2.2935   -5.3519 O   0  0  0  0  0  0  0  0  0  0  0  0
    1.0646    0.5824   -4.8315 O   0  0  0  0  0  0  0  0  0  0  0  0
    2.4802   -1.2748   -6.6350 F   0  0  0  0  0  0  0  0  0  0  0  0
    4.1149    0.0935   -7.0807 F   0  0  0  0  0  0  0  0  0  0  0  0
    3.7434   -0.5266   -5.0261 F   0  0  0  0  0  0  0  0  0  0  0  0
  1  2  2  0  0  0  0
  1  6  1  0  0  0  0
  2  3  1  0  0  0  0
  3 20  1  0  0  0  0
  3  4  2  0  0  0  0
  4  9  1  0  0  0  0
  5  4  1  0  0  0  0
  5 10  1  0  0  0  0
  6  5  2  0  0  0  0
  7  1  1  0  0  0  0
  8  2  1  0  0  0  0
 11  6  1  0  0  0  0
 11 12  2  0  0  0  0
 13 11  2  0  0  0  0
 15 14  3  0  0  0  0
 16 19  2  0  0  0  0
 16 20  1  0  0  0  0
 17 16  1  0  0  0  0
 17 23  1  0  0  0  0
 18 16  2  0  0  0  0
 21 17  1  0  0  0  0
 22 17  1  0  0  0  0
M  END
