Coordinates from ORCA-job 4-NO2-Ph-N2-OTf-B3LYPG-6-31G_dp-MTMO-d009-169-n800
 OpenBabel09051908483D

 23 22  0  0  0  0  0  0  0  0999 V2000
   -2.9036   -1.4837   -5.9588 C   0  0  0  0  0  0  0  0  0  0  0  0
   -1.5328   -1.2610   -5.8789 C   0  0  0  0  0  0  0  0  0  0  0  0
   -0.9899   -0.7954   -4.6813 C   0  0  0  0  0  0  0  0  0  0  0  0
   -1.7771   -0.5473   -3.5566 C   0  0  0  0  0  0  0  0  0  0  0  0
   -3.1501   -0.7603   -3.6398 C   0  0  0  0  0  0  0  0  0  0  0  0
   -3.6901   -1.2262   -4.8372 C   0  0  0  0  0  0  0  0  0  0  0  0
   -3.3688   -1.8471   -6.8662 H   0  0  0  0  0  0  0  0  0  0  0  0
   -0.8820   -1.4461   -6.7256 H   0  0  0  0  0  0  0  0  0  0  0  0
   -1.3231   -0.1912   -2.6403 H   0  0  0  0  0  0  0  0  0  0  0  0
   -3.8027   -0.5786   -2.7955 H   0  0  0  0  0  0  0  0  0  0  0  0
   -5.1425   -1.4577   -4.9198 N   0  0  0  0  0  0  0  0  0  0  0  0
   -5.8130   -1.2238   -3.9162 O   0  0  0  0  0  0  0  0  0  0  0  0
   -5.5915   -1.8706   -5.9876 O   0  0  0  0  0  0  0  0  0  0  0  0
    9.9860    8.7065  -11.7319 N   0  0  0  0  0  0  0  0  0  0  0  0
    9.1713    8.0645  -11.3502 N   0  0  0  0  0  0  0  0  0  0  0  0
    1.1321    0.7935   -4.3981 S   0  0  0  0  0  0  0  0  0  0  0  0
    1.3411    1.2795   -6.1933 C   0  0  0  0  0  0  0  0  0  0  0  0
    0.2058    1.7352   -3.7935 O   0  0  0  0  0  0  0  0  0  0  0  0
    2.4444    0.4978   -3.8637 O   0  0  0  0  0  0  0  0  0  0  0  0
    0.4059   -0.6768   -4.6180 O   0  0  0  0  0  0  0  0  0  0  0  0
    0.1397    1.3537   -6.7688 F   0  0  0  0  0  0  0  0  0  0  0  0
    1.9383    2.4655   -6.2380 F   0  0  0  0  0  0  0  0  0  0  0  0
    2.0815    0.3707   -6.8186 F   0  0  0  0  0  0  0  0  0  0  0  0
  1  2  2  0  0  0  0
  1  6  1  0  0  0  0
  2  3  1  0  0  0  0
  3 20  1  0  0  0  0
  3  4  2  0  0  0  0
  4  9  1  0  0  0  0
  5  4  1  0  0  0  0
  5 10  1  0  0  0  0
  6  5  2  0  0  0  0
  7  1  1  0  0  0  0
  8  2  1  0  0  0  0
 11  6  1  0  0  0  0
 11 12  2  0  0  0  0
 13 11  2  0  0  0  0
 14 15  3  0  0  0  0
 16 19  2  0  0  0  0
 16 18  2  0  0  0  0
 17 16  1  0  0  0  0
 20 16  1  0  0  0  0
 21 17  1  0  0  0  0
 22 17  1  0  0  0  0
 23 17  1  0  0  0  0
M  END
