Coordinates from ORCA-job 4-NO2-Ph-N2-OTf-B3LYPG-6-31G_dp-MTMO-d009-169-n800
 OpenBabel09051908473D

 23 22  0  0  0  0  0  0  0  0999 V2000
   -2.5881   -1.2416   -6.1413 C   0  0  0  0  0  0  0  0  0  0  0  0
   -1.2164   -1.0283   -6.0531 C   0  0  0  0  0  0  0  0  0  0  0  0
   -0.6799   -0.5491   -4.8580 C   0  0  0  0  0  0  0  0  0  0  0  0
   -1.4745   -0.2781   -3.7439 C   0  0  0  0  0  0  0  0  0  0  0  0
   -2.8483   -0.4819   -3.8355 C   0  0  0  0  0  0  0  0  0  0  0  0
   -3.3819   -0.9615   -5.0303 C   0  0  0  0  0  0  0  0  0  0  0  0
   -3.0486   -1.6148   -7.0472 H   0  0  0  0  0  0  0  0  0  0  0  0
   -0.5600   -1.2306   -6.8914 H   0  0  0  0  0  0  0  0  0  0  0  0
   -1.0253    0.0883   -2.8292 H   0  0  0  0  0  0  0  0  0  0  0  0
   -3.5066   -0.2827   -2.9995 H   0  0  0  0  0  0  0  0  0  0  0  0
   -4.8353   -1.1830   -5.1217 N   0  0  0  0  0  0  0  0  0  0  0  0
   -5.5122   -0.9301   -4.1270 O   0  0  0  0  0  0  0  0  0  0  0  0
   -5.2788   -1.6073   -6.1874 O   0  0  0  0  0  0  0  0  0  0  0  0
    6.6442    6.1482   -9.7682 N   0  0  0  0  0  0  0  0  0  0  0  0
    5.8435    5.5015   -9.3653 N   0  0  0  0  0  0  0  0  0  0  0  0
    1.4513    1.0285   -4.5817 S   0  0  0  0  0  0  0  0  0  0  0  0
    1.6866    1.4793   -6.3829 C   0  0  0  0  0  0  0  0  0  0  0  0
    0.5248    1.9879   -4.0059 O   0  0  0  0  0  0  0  0  0  0  0  0
    2.7544    0.7325   -4.0254 O   0  0  0  0  0  0  0  0  0  0  0  0
    0.7162   -0.4400   -4.7845 O   0  0  0  0  0  0  0  0  0  0  0  0
    0.4929    1.5523   -6.9746 F   0  0  0  0  0  0  0  0  0  0  0  0
    2.2942    2.6591   -6.4425 F   0  0  0  0  0  0  0  0  0  0  0  0
    2.4268    0.5526   -6.9816 F   0  0  0  0  0  0  0  0  0  0  0  0
  1  2  2  0  0  0  0
  1  6  1  0  0  0  0
  2  3  1  0  0  0  0
  3 20  1  0  0  0  0
  3  4  2  0  0  0  0
  4  9  1  0  0  0  0
  5  4  1  0  0  0  0
  5 10  1  0  0  0  0
  6  5  2  0  0  0  0
  7  1  1  0  0  0  0
  8  2  1  0  0  0  0
 11  6  1  0  0  0  0
 11 12  2  0  0  0  0
 13 11  2  0  0  0  0
 14 15  3  0  0  0  0
 16 19  2  0  0  0  0
 16 18  2  0  0  0  0
 17 16  1  0  0  0  0
 20 16  1  0  0  0  0
 21 17  1  0  0  0  0
 22 17  1  0  0  0  0
 23 17  1  0  0  0  0
M  END
