Coordinates from ORCA-job 4-NO2-Ph-N2-OTf-B3LYPG-6-31G_dp-MTMO-d009-169-n800
 OpenBabel09051908473D

 23 22  0  0  0  0  0  0  0  0999 V2000
   -2.0289   -1.4058   -5.6830 C   0  0  0  0  0  0  0  0  0  0  0  0
   -0.7092   -0.9681   -5.6326 C   0  0  0  0  0  0  0  0  0  0  0  0
   -0.4515    0.3513   -5.2642 C   0  0  0  0  0  0  0  0  0  0  0  0
   -1.4690    1.2476   -4.9422 C   0  0  0  0  0  0  0  0  0  0  0  0
   -2.7895    0.8095   -4.9897 C   0  0  0  0  0  0  0  0  0  0  0  0
   -3.0462   -0.5093   -5.3597 C   0  0  0  0  0  0  0  0  0  0  0  0
   -2.2814   -2.4201   -5.9641 H   0  0  0  0  0  0  0  0  0  0  0  0
    0.1114   -1.6329   -5.8733 H   0  0  0  0  0  0  0  0  0  0  0  0
   -1.2181    2.2624   -4.6562 H   0  0  0  0  0  0  0  0  0  0  0  0
   -3.6152    1.4662   -4.7473 H   0  0  0  0  0  0  0  0  0  0  0  0
   -4.4436   -0.9741   -5.4088 N   0  0  0  0  0  0  0  0  0  0  0  0
   -5.3217   -0.1641   -5.1178 O   0  0  0  0  0  0  0  0  0  0  0  0
   -4.6416   -2.1425   -5.7367 O   0  0  0  0  0  0  0  0  0  0  0  0
    0.4562    4.2794   -4.0725 N   0  0  0  0  0  0  0  0  0  0  0  0
    1.2894    4.9527   -3.8024 N   0  0  0  0  0  0  0  0  0  0  0  0
    1.7195    1.2910   -6.4582 S   0  0  0  0  0  0  0  0  0  0  0  0
    3.0588   -0.0132   -6.3943 C   0  0  0  0  0  0  0  0  0  0  0  0
    0.9314    1.0774   -7.6594 O   0  0  0  0  0  0  0  0  0  0  0  0
    2.3402    2.5580   -6.1235 O   0  0  0  0  0  0  0  0  0  0  0  0
    0.8765    0.7871   -5.1245 O   0  0  0  0  0  0  0  0  0  0  0  0
    2.5135   -1.2216   -6.5565 F   0  0  0  0  0  0  0  0  0  0  0  0
    3.9122    0.2269   -7.3848 F   0  0  0  0  0  0  0  0  0  0  0  0
    3.6858    0.0434   -5.2261 F   0  0  0  0  0  0  0  0  0  0  0  0
  1  2  2  0  0  0  0
  1  6  1  0  0  0  0
  2  3  1  0  0  0  0
  3 20  1  0  0  0  0
  3  4  2  0  0  0  0
  4  9  1  0  0  0  0
  5  4  1  0  0  0  0
  5 10  1  0  0  0  0
  6  5  2  0  0  0  0
  7  1  1  0  0  0  0
  8  2  1  0  0  0  0
 11  6  1  0  0  0  0
 11 12  2  0  0  0  0
 13 11  2  0  0  0  0
 14 15  3  0  0  0  0
 16 17  1  0  0  0  0
 16 19  2  0  0  0  0
 16 20  1  0  0  0  0
 17 23  1  0  0  0  0
 18 16  2  0  0  0  0
 21 17  1  0  0  0  0
 22 17  1  0  0  0  0
M  END
