Coordinates from ORCA-job 4-NO2-Ph-N2-OTf-B3LYPG-6-31G_dp-MTMO-d009-169-n800
 OpenBabel09051908473D

 23 22  0  0  0  0  0  0  0  0999 V2000
   -2.0753   -1.1322   -6.0454 C   0  0  0  0  0  0  0  0  0  0  0  0
   -0.7221   -0.8350   -5.9168 C   0  0  0  0  0  0  0  0  0  0  0  0
   -0.3373    0.1940   -5.0584 C   0  0  0  0  0  0  0  0  0  0  0  0
   -1.2627    0.9307   -4.3211 C   0  0  0  0  0  0  0  0  0  0  0  0
   -2.6160    0.6300   -4.4444 C   0  0  0  0  0  0  0  0  0  0  0  0
   -2.9992   -0.3959   -5.3060 C   0  0  0  0  0  0  0  0  0  0  0  0
   -2.4231   -1.9224   -6.6991 H   0  0  0  0  0  0  0  0  0  0  0  0
    0.0255   -1.3905   -6.4690 H   0  0  0  0  0  0  0  0  0  0  0  0
   -0.9169    1.7222   -3.6667 H   0  0  0  0  0  0  0  0  0  0  0  0
   -3.3715    1.1729   -3.8915 H   0  0  0  0  0  0  0  0  0  0  0  0
   -4.4312   -0.7155   -5.4380 N   0  0  0  0  0  0  0  0  0  0  0  0
   -5.2243   -0.0533   -4.7712 O   0  0  0  0  0  0  0  0  0  0  0  0
   -4.7418   -1.6245   -6.2056 O   0  0  0  0  0  0  0  0  0  0  0  0
   -0.1136    4.1404   -5.3541 N   0  0  0  0  0  0  0  0  0  0  0  0
   -0.0204    5.1681   -5.7492 N   0  0  0  0  0  0  0  0  0  0  0  0
    1.9189    1.2524   -5.9821 S   0  0  0  0  0  0  0  0  0  0  0  0
    3.1341   -0.1290   -6.3176 C   0  0  0  0  0  0  0  0  0  0  0  0
    1.1282    1.4659   -7.1818 O   0  0  0  0  0  0  0  0  0  0  0  0
    2.6510    2.3064   -5.3080 O   0  0  0  0  0  0  0  0  0  0  0  0
    1.0228    0.4603   -4.8363 O   0  0  0  0  0  0  0  0  0  0  0  0
    2.4884   -1.1807   -6.8287 F   0  0  0  0  0  0  0  0  0  0  0  0
    4.0265    0.3152   -7.1975 F   0  0  0  0  0  0  0  0  0  0  0  0
    3.7391   -0.4785   -5.1893 F   0  0  0  0  0  0  0  0  0  0  0  0
  1  2  2  0  0  0  0
  1  6  1  0  0  0  0
  2  3  1  0  0  0  0
  3 20  1  0  0  0  0
  3  4  2  0  0  0  0
  4  9  1  0  0  0  0
  5  4  1  0  0  0  0
  5 10  1  0  0  0  0
  6  5  2  0  0  0  0
  7  1  1  0  0  0  0
  8  2  1  0  0  0  0
 11  6  1  0  0  0  0
 11 12  2  0  0  0  0
 13 11  2  0  0  0  0
 15 14  3  0  0  0  0
 16 19  2  0  0  0  0
 16 20  1  0  0  0  0
 17 16  1  0  0  0  0
 17 23  1  0  0  0  0
 18 16  2  0  0  0  0
 21 17  1  0  0  0  0
 22 17  1  0  0  0  0
M  END
