Coordinates from ORCA-job 4-NO2-Ph-N2-OTf-B3LYPG-6-31G_dp-MTMO-d009-169-n800
 OpenBabel09051908483D

 23 22  0  0  0  0  0  0  0  0999 V2000
   -2.8859   -1.4683   -5.9699 C   0  0  0  0  0  0  0  0  0  0  0  0
   -1.5151   -1.2455   -5.8901 C   0  0  0  0  0  0  0  0  0  0  0  0
   -0.9721   -0.7802   -4.6925 C   0  0  0  0  0  0  0  0  0  0  0  0
   -1.7592   -0.5323   -3.5677 C   0  0  0  0  0  0  0  0  0  0  0  0
   -3.1321   -0.7455   -3.6507 C   0  0  0  0  0  0  0  0  0  0  0  0
   -3.6723   -1.2112   -4.8481 C   0  0  0  0  0  0  0  0  0  0  0  0
   -3.3512   -1.8316   -6.8773 H   0  0  0  0  0  0  0  0  0  0  0  0
   -0.8645   -1.4303   -6.7370 H   0  0  0  0  0  0  0  0  0  0  0  0
   -1.3051   -0.1764   -2.6513 H   0  0  0  0  0  0  0  0  0  0  0  0
   -3.7847   -0.5641   -2.8062 H   0  0  0  0  0  0  0  0  0  0  0  0
   -5.1247   -1.4428   -4.9305 N   0  0  0  0  0  0  0  0  0  0  0  0
   -5.7950   -1.2093   -3.9268 O   0  0  0  0  0  0  0  0  0  0  0  0
   -5.5738   -1.8556   -5.9984 O   0  0  0  0  0  0  0  0  0  0  0  0
    9.7898    8.5535  -11.6155 N   0  0  0  0  0  0  0  0  0  0  0  0
    8.9735    7.9116  -11.2370 N   0  0  0  0  0  0  0  0  0  0  0  0
    1.1498    0.8088   -4.4088 S   0  0  0  0  0  0  0  0  0  0  0  0
    1.3640    1.2919   -6.2042 C   0  0  0  0  0  0  0  0  0  0  0  0
    0.2221    1.7516   -3.8081 O   0  0  0  0  0  0  0  0  0  0  0  0
    2.4604    0.5137   -3.8701 O   0  0  0  0  0  0  0  0  0  0  0  0
    0.4237   -0.6616   -4.6292 O   0  0  0  0  0  0  0  0  0  0  0  0
    0.1641    1.3649   -6.7832 F   0  0  0  0  0  0  0  0  0  0  0  0
    1.9612    2.4778   -6.2495 F   0  0  0  0  0  0  0  0  0  0  0  0
    2.1061    0.3820   -6.8258 F   0  0  0  0  0  0  0  0  0  0  0  0
  1  2  2  0  0  0  0
  1  6  1  0  0  0  0
  2  3  1  0  0  0  0
  3 20  1  0  0  0  0
  3  4  2  0  0  0  0
  4  9  1  0  0  0  0
  5  4  1  0  0  0  0
  5 10  1  0  0  0  0
  6  5  2  0  0  0  0
  7  1  1  0  0  0  0
  8  2  1  0  0  0  0
 11  6  1  0  0  0  0
 11 12  2  0  0  0  0
 13 11  2  0  0  0  0
 14 15  3  0  0  0  0
 16 19  2  0  0  0  0
 16 18  2  0  0  0  0
 17 16  1  0  0  0  0
 20 16  1  0  0  0  0
 21 17  1  0  0  0  0
 22 17  1  0  0  0  0
 23 17  1  0  0  0  0
M  END
