Coordinates from ORCA-job 4-NO2-Ph-N2-OTf-B3LYPG-6-31G_dp-MTMO-d009-169-n800
 OpenBabel09051908473D

 23 22  0  0  0  0  0  0  0  0999 V2000
   -2.5916   -1.2441   -6.1396 C   0  0  0  0  0  0  0  0  0  0  0  0
   -1.2199   -1.0310   -6.0510 C   0  0  0  0  0  0  0  0  0  0  0  0
   -0.6835   -0.5522   -4.8556 C   0  0  0  0  0  0  0  0  0  0  0  0
   -1.4783   -0.2815   -3.7416 C   0  0  0  0  0  0  0  0  0  0  0  0
   -2.8522   -0.4851   -3.8335 C   0  0  0  0  0  0  0  0  0  0  0  0
   -3.3856   -0.9642   -5.0286 C   0  0  0  0  0  0  0  0  0  0  0  0
   -3.0520   -1.6169   -7.0456 H   0  0  0  0  0  0  0  0  0  0  0  0
   -0.5633   -1.2332   -6.8893 H   0  0  0  0  0  0  0  0  0  0  0  0
   -1.0293    0.0845   -2.8267 H   0  0  0  0  0  0  0  0  0  0  0  0
   -3.5106   -0.2859   -2.9976 H   0  0  0  0  0  0  0  0  0  0  0  0
   -4.8391   -1.1854   -5.1203 N   0  0  0  0  0  0  0  0  0  0  0  0
   -5.5161   -0.9327   -4.1258 O   0  0  0  0  0  0  0  0  0  0  0  0
   -5.2823   -1.6093   -6.1863 O   0  0  0  0  0  0  0  0  0  0  0  0
    6.6816    6.1796   -9.7929 N   0  0  0  0  0  0  0  0  0  0  0  0
    5.8804    5.5327   -9.3912 N   0  0  0  0  0  0  0  0  0  0  0  0
    1.4478    1.0248   -4.5785 S   0  0  0  0  0  0  0  0  0  0  0  0
    1.6834    1.4763   -6.3795 C   0  0  0  0  0  0  0  0  0  0  0  0
    0.5215    1.9842   -4.0025 O   0  0  0  0  0  0  0  0  0  0  0  0
    2.7508    0.7285   -4.0221 O   0  0  0  0  0  0  0  0  0  0  0  0
    0.7125   -0.4435   -4.7818 O   0  0  0  0  0  0  0  0  0  0  0  0
    0.4899    1.5496   -6.9713 F   0  0  0  0  0  0  0  0  0  0  0  0
    2.2913    2.6560   -6.4385 F   0  0  0  0  0  0  0  0  0  0  0  0
    2.4236    0.5497   -6.9784 F   0  0  0  0  0  0  0  0  0  0  0  0
  1  2  2  0  0  0  0
  1  6  1  0  0  0  0
  2  3  1  0  0  0  0
  3 20  1  0  0  0  0
  3  4  2  0  0  0  0
  4  9  1  0  0  0  0
  5  4  1  0  0  0  0
  5 10  1  0  0  0  0
  6  5  2  0  0  0  0
  7  1  1  0  0  0  0
  8  2  1  0  0  0  0
 11  6  1  0  0  0  0
 11 12  2  0  0  0  0
 13 11  2  0  0  0  0
 14 15  3  0  0  0  0
 16 19  2  0  0  0  0
 16 18  2  0  0  0  0
 17 16  1  0  0  0  0
 20 16  1  0  0  0  0
 21 17  1  0  0  0  0
 22 17  1  0  0  0  0
 23 17  1  0  0  0  0
M  END
