Coordinates from ORCA-job 4-NO2-Ph-N2-OTf-B3LYPG-6-31G_dp-MTMO-d009-169-n800
 OpenBabel09051908473D

 23 22  0  0  0  0  0  0  0  0999 V2000
   -2.0838   -0.3920   -6.3606 C   0  0  0  0  0  0  0  0  0  0  0  0
   -0.7537    0.0012   -6.3140 C   0  0  0  0  0  0  0  0  0  0  0  0
   -0.3109    0.7673   -5.2190 C   0  0  0  0  0  0  0  0  0  0  0  0
   -1.1159    0.8926   -4.0699 C   0  0  0  0  0  0  0  0  0  0  0  0
   -2.4394    0.4893   -4.1159 C   0  0  0  0  0  0  0  0  0  0  0  0
   -2.9200   -0.1188   -5.2778 C   0  0  0  0  0  0  0  0  0  0  0  0
   -2.4793   -0.9306   -7.2127 H   0  0  0  0  0  0  0  0  0  0  0  0
   -0.0901   -0.2083   -7.1415 H   0  0  0  0  0  0  0  0  0  0  0  0
   -0.6978    1.3648   -3.1885 H   0  0  0  0  0  0  0  0  0  0  0  0
   -3.1014    0.6210   -3.2693 H   0  0  0  0  0  0  0  0  0  0  0  0
   -4.3242   -0.5411   -5.3339 N   0  0  0  0  0  0  0  0  0  0  0  0
   -5.0262   -0.3119   -4.3494 O   0  0  0  0  0  0  0  0  0  0  0  0
   -4.7108   -1.0968   -6.3615 O   0  0  0  0  0  0  0  0  0  0  0  0
   -0.5760    2.5916   -5.9454 N   0  0  0  0  0  0  0  0  0  0  0  0
   -1.4819    3.1311   -6.2972 N   0  0  0  0  0  0  0  0  0  0  0  0
    2.2116    1.3233   -6.0656 S   0  0  0  0  0  0  0  0  0  0  0  0
    3.0970   -0.3213   -5.9679 C   0  0  0  0  0  0  0  0  0  0  0  0
    1.6533    1.4365   -7.4037 O   0  0  0  0  0  0  0  0  0  0  0  0
    3.0722    2.3257   -5.4731 O   0  0  0  0  0  0  0  0  0  0  0  0
    1.0499    0.9820   -4.9441 O   0  0  0  0  0  0  0  0  0  0  0  0
    2.2543   -1.2910   -6.3262 F   0  0  0  0  0  0  0  0  0  0  0  0
    4.1251   -0.2835   -6.8104 F   0  0  0  0  0  0  0  0  0  0  0  0
    3.5272   -0.5302   -4.7302 F   0  0  0  0  0  0  0  0  0  0  0  0
  1  2  2  0  0  0  0
  1  6  1  0  0  0  0
  2  3  1  0  0  0  0
  3 20  1  0  0  0  0
  3  4  2  0  0  0  0
  4  9  1  0  0  0  0
  5  4  1  0  0  0  0
  5 10  1  0  0  0  0
  6  5  2  0  0  0  0
  7  1  1  0  0  0  0
  8  2  1  0  0  0  0
 11  6  1  0  0  0  0
 11 12  2  0  0  0  0
 13 11  2  0  0  0  0
 15 14  3  0  0  0  0
 16 17  1  0  0  0  0
 16 19  2  0  0  0  0
 16 20  1  0  0  0  0
 17 23  1  0  0  0  0
 18 16  2  0  0  0  0
 21 17  1  0  0  0  0
 22 17  1  0  0  0  0
M  END
