Coordinates from ORCA-job 4-NO2-Ph-N2-OTf-B3LYPG-6-31G_dp-MTMO-d009-169-n800
 OpenBabel09051908473D

 23 22  0  0  0  0  0  0  0  0999 V2000
   -1.9445   -1.3954   -6.1381 C   0  0  0  0  0  0  0  0  0  0  0  0
   -0.6259   -1.1696   -5.7565 C   0  0  0  0  0  0  0  0  0  0  0  0
   -0.3618   -0.2452   -4.7460 C   0  0  0  0  0  0  0  0  0  0  0  0
   -1.3773    0.4615   -4.1019 C   0  0  0  0  0  0  0  0  0  0  0  0
   -2.6960    0.2416   -4.4891 C   0  0  0  0  0  0  0  0  0  0  0  0
   -2.9576   -0.6833   -5.4984 C   0  0  0  0  0  0  0  0  0  0  0  0
   -2.1989   -2.1042   -6.9162 H   0  0  0  0  0  0  0  0  0  0  0  0
    0.1955   -1.6986   -6.2253 H   0  0  0  0  0  0  0  0  0  0  0  0
   -1.1351    1.1690   -3.3183 H   0  0  0  0  0  0  0  0  0  0  0  0
   -3.5187    0.7662   -4.0211 H   0  0  0  0  0  0  0  0  0  0  0  0
   -4.3546   -0.9191   -5.9022 N   0  0  0  0  0  0  0  0  0  0  0  0
   -5.2290   -0.2786   -5.3220 O   0  0  0  0  0  0  0  0  0  0  0  0
   -4.5559   -1.7414   -6.7941 O   0  0  0  0  0  0  0  0  0  0  0  0
    1.1282    5.1635   -7.7985 N   0  0  0  0  0  0  0  0  0  0  0  0
    1.4291    4.1128   -7.6350 N   0  0  0  0  0  0  0  0  0  0  0  0
    1.8109    1.2879   -4.5745 S   0  0  0  0  0  0  0  0  0  0  0  0
    2.5035    0.9121   -6.2735 C   0  0  0  0  0  0  0  0  0  0  0  0
    0.8995    2.4119   -4.7027 O   0  0  0  0  0  0  0  0  0  0  0  0
    2.9095    1.2457   -3.6327 O   0  0  0  0  0  0  0  0  0  0  0  0
    0.9703   -0.1161   -4.3284 O   0  0  0  0  0  0  0  0  0  0  0  0
    1.5012    0.8539   -7.1509 F   0  0  0  0  0  0  0  0  0  0  0  0
    3.3465    1.8818   -6.6083 F   0  0  0  0  0  0  0  0  0  0  0  0
    3.1402   -0.2553   -6.2441 F   0  0  0  0  0  0  0  0  0  0  0  0
  1  2  2  0  0  0  0
  1  6  1  0  0  0  0
  2  3  1  0  0  0  0
  3 20  1  0  0  0  0
  3  4  2  0  0  0  0
  4  9  1  0  0  0  0
  5  4  1  0  0  0  0
  5 10  1  0  0  0  0
  6  5  2  0  0  0  0
  7  1  1  0  0  0  0
  8  2  1  0  0  0  0
 11  6  1  0  0  0  0
 11 12  2  0  0  0  0
 13 11  2  0  0  0  0
 14 15  3  0  0  0  0
 16 20  1  0  0  0  0
 16 19  2  0  0  0  0
 17 23  1  0  0  0  0
 17 16  1  0  0  0  0
 18 16  2  0  0  0  0
 21 17  1  0  0  0  0
 22 17  1  0  0  0  0
M  END
