Coordinates from ORCA-job 4-NO2-Ph-N2-OTf-B3LYPG-6-31G_dp-MTMO-d009-169-n800
 OpenBabel09051908473D

 23 22  0  0  0  0  0  0  0  0999 V2000
   -2.5869   -1.2408   -6.1419 C   0  0  0  0  0  0  0  0  0  0  0  0
   -1.2152   -1.0274   -6.0538 C   0  0  0  0  0  0  0  0  0  0  0  0
   -0.6786   -0.5480   -4.8588 C   0  0  0  0  0  0  0  0  0  0  0  0
   -1.4732   -0.2769   -3.7446 C   0  0  0  0  0  0  0  0  0  0  0  0
   -2.8470   -0.4809   -3.8361 C   0  0  0  0  0  0  0  0  0  0  0  0
   -3.3807   -0.9606   -5.0309 C   0  0  0  0  0  0  0  0  0  0  0  0
   -3.0474   -1.6141   -7.0477 H   0  0  0  0  0  0  0  0  0  0  0  0
   -0.5588   -1.2298   -6.8922 H   0  0  0  0  0  0  0  0  0  0  0  0
   -1.0240    0.0896   -2.8300 H   0  0  0  0  0  0  0  0  0  0  0  0
   -3.5053   -0.2815   -3.0001 H   0  0  0  0  0  0  0  0  0  0  0  0
   -4.8341   -1.1822   -5.1221 N   0  0  0  0  0  0  0  0  0  0  0  0
   -5.5109   -0.9292   -4.1274 O   0  0  0  0  0  0  0  0  0  0  0  0
   -5.2776   -1.6067   -6.1878 O   0  0  0  0  0  0  0  0  0  0  0  0
    6.6317    6.1378   -9.7599 N   0  0  0  0  0  0  0  0  0  0  0  0
    5.8311    5.4912   -9.3567 N   0  0  0  0  0  0  0  0  0  0  0  0
    1.4525    1.0296   -4.5828 S   0  0  0  0  0  0  0  0  0  0  0  0
    1.6876    1.4803   -6.3841 C   0  0  0  0  0  0  0  0  0  0  0  0
    0.5260    1.9891   -4.0071 O   0  0  0  0  0  0  0  0  0  0  0  0
    2.7556    0.7339   -4.0265 O   0  0  0  0  0  0  0  0  0  0  0  0
    0.7174   -0.4389   -4.7853 O   0  0  0  0  0  0  0  0  0  0  0  0
    0.4939    1.5531   -6.9757 F   0  0  0  0  0  0  0  0  0  0  0  0
    2.2952    2.6601   -6.4438 F   0  0  0  0  0  0  0  0  0  0  0  0
    2.4279    0.5536   -6.9827 F   0  0  0  0  0  0  0  0  0  0  0  0
  1  2  2  0  0  0  0
  1  6  1  0  0  0  0
  2  3  1  0  0  0  0
  3 20  1  0  0  0  0
  3  4  2  0  0  0  0
  4  9  1  0  0  0  0
  5  4  1  0  0  0  0
  5 10  1  0  0  0  0
  6  5  2  0  0  0  0
  7  1  1  0  0  0  0
  8  2  1  0  0  0  0
 11  6  1  0  0  0  0
 11 12  2  0  0  0  0
 13 11  2  0  0  0  0
 14 15  3  0  0  0  0
 16 19  2  0  0  0  0
 16 18  2  0  0  0  0
 17 16  1  0  0  0  0
 20 16  1  0  0  0  0
 21 17  1  0  0  0  0
 22 17  1  0  0  0  0
 23 17  1  0  0  0  0
M  END
