Coordinates from ORCA-job 4-NO2-Ph-N2-OTf-B3LYPG-6-31G_dp-MTMO-d009-169-n800
 OpenBabel09051908483D

 23 22  0  0  0  0  0  0  0  0999 V2000
   -2.6854   -1.3089   -6.0935 C   0  0  0  0  0  0  0  0  0  0  0  0
   -1.3142   -1.0939   -6.0013 C   0  0  0  0  0  0  0  0  0  0  0  0
   -0.7794   -0.6310   -4.7990 C   0  0  0  0  0  0  0  0  0  0  0  0
   -1.5752   -0.3783   -3.6814 C   0  0  0  0  0  0  0  0  0  0  0  0
   -2.9486   -0.5837   -3.7769 C   0  0  0  0  0  0  0  0  0  0  0  0
   -3.4805   -1.0467   -4.9789 C   0  0  0  0  0  0  0  0  0  0  0  0
   -3.1446   -1.6698   -7.0049 H   0  0  0  0  0  0  0  0  0  0  0  0
   -0.6570   -1.2828   -6.8422 H   0  0  0  0  0  0  0  0  0  0  0  0
   -1.1274   -0.0246   -2.7611 H   0  0  0  0  0  0  0  0  0  0  0  0
   -3.6077   -0.3982   -2.9384 H   0  0  0  0  0  0  0  0  0  0  0  0
   -4.9334   -1.2699   -5.0744 N   0  0  0  0  0  0  0  0  0  0  0  0
   -5.6114   -1.0322   -4.0768 O   0  0  0  0  0  0  0  0  0  0  0  0
   -5.3752   -1.6803   -6.1463 O   0  0  0  0  0  0  0  0  0  0  0  0
    7.7194    6.9548  -10.4462 N   0  0  0  0  0  0  0  0  0  0  0  0
    6.9013    6.3127  -10.0721 N   0  0  0  0  0  0  0  0  0  0  0  0
    1.3483    0.9468   -4.4978 S   0  0  0  0  0  0  0  0  0  0  0  0
    1.5773    1.4299   -6.2914 C   0  0  0  0  0  0  0  0  0  0  0  0
    0.4211    1.8940   -3.9031 O   0  0  0  0  0  0  0  0  0  0  0  0
    2.6537    0.6447   -3.9504 O   0  0  0  0  0  0  0  0  0  0  0  0
    0.6164   -0.5199   -4.7233 O   0  0  0  0  0  0  0  0  0  0  0  0
    0.3818    1.5099   -6.8785 F   0  0  0  0  0  0  0  0  0  0  0  0
    2.1812    2.6125   -6.3315 F   0  0  0  0  0  0  0  0  0  0  0  0
    2.3186    0.5163   -6.9085 F   0  0  0  0  0  0  0  0  0  0  0  0
  1  2  2  0  0  0  0
  1  6  1  0  0  0  0
  2  3  1  0  0  0  0
  3 20  1  0  0  0  0
  3  4  2  0  0  0  0
  4  9  1  0  0  0  0
  5  4  1  0  0  0  0
  5 10  1  0  0  0  0
  6  5  2  0  0  0  0
  7  1  1  0  0  0  0
  8  2  1  0  0  0  0
 11  6  1  0  0  0  0
 11 12  2  0  0  0  0
 13 11  2  0  0  0  0
 14 15  3  0  0  0  0
 16 19  2  0  0  0  0
 16 18  2  0  0  0  0
 17 16  1  0  0  0  0
 20 16  1  0  0  0  0
 21 17  1  0  0  0  0
 22 17  1  0  0  0  0
 23 17  1  0  0  0  0
M  END
