Coordinates from ORCA-job 4-NO2-Ph-N2-OTf-B3LYPG-6-31G_dp-MTMO-d009-169-n800
 OpenBabel09051908473D

 23 22  0  0  0  0  0  0  0  0999 V2000
   -2.5117   -1.1868   -6.1670 C   0  0  0  0  0  0  0  0  0  0  0  0
   -1.1404   -0.9605   -6.1104 C   0  0  0  0  0  0  0  0  0  0  0  0
   -0.5855   -0.4471   -4.9382 C   0  0  0  0  0  0  0  0  0  0  0  0
   -1.3615   -0.1520   -3.8172 C   0  0  0  0  0  0  0  0  0  0  0  0
   -2.7350   -0.3689   -3.8771 C   0  0  0  0  0  0  0  0  0  0  0  0
   -3.2868   -0.8842   -5.0486 C   0  0  0  0  0  0  0  0  0  0  0  0
   -2.9861   -1.5868   -7.0540 H   0  0  0  0  0  0  0  0  0  0  0  0
   -0.4983   -1.1788   -6.9559 H   0  0  0  0  0  0  0  0  0  0  0  0
   -0.8984    0.2419   -2.9210 H   0  0  0  0  0  0  0  0  0  0  0  0
   -3.3793   -0.1525   -3.0345 H   0  0  0  0  0  0  0  0  0  0  0  0
   -4.7397   -1.1201   -5.1065 N   0  0  0  0  0  0  0  0  0  0  0  0
   -5.3997   -0.8478   -4.1056 O   0  0  0  0  0  0  0  0  0  0  0  0
   -5.1996   -1.5749   -6.1524 O   0  0  0  0  0  0  0  0  0  0  0  0
    5.5545    5.3245   -8.8975 N   0  0  0  0  0  0  0  0  0  0  0  0
    4.7979    4.6421   -8.4687 N   0  0  0  0  0  0  0  0  0  0  0  0
    1.5397    1.1527   -4.7446 S   0  0  0  0  0  0  0  0  0  0  0  0
    1.8216    1.5100   -6.5609 C   0  0  0  0  0  0  0  0  0  0  0  0
    0.5967    2.1366   -4.2415 O   0  0  0  0  0  0  0  0  0  0  0  0
    2.8296    0.8907   -4.1417 O   0  0  0  0  0  0  0  0  0  0  0  0
    0.8106   -0.3264   -4.8922 O   0  0  0  0  0  0  0  0  0  0  0  0
    0.6437    1.5408   -7.1870 F   0  0  0  0  0  0  0  0  0  0  0  0
    2.4226    2.6900   -6.6672 F   0  0  0  0  0  0  0  0  0  0  0  0
    2.5842    0.5586   -7.0882 F   0  0  0  0  0  0  0  0  0  0  0  0
  1  2  2  0  0  0  0
  1  6  1  0  0  0  0
  2  3  1  0  0  0  0
  3 20  1  0  0  0  0
  3  4  2  0  0  0  0
  4  9  1  0  0  0  0
  5  4  1  0  0  0  0
  5 10  1  0  0  0  0
  6  5  2  0  0  0  0
  7  1  1  0  0  0  0
  8  2  1  0  0  0  0
 11  6  1  0  0  0  0
 11 12  2  0  0  0  0
 13 11  2  0  0  0  0
 14 15  3  0  0  0  0
 16 18  2  0  0  0  0
 16 19  2  0  0  0  0
 17 16  1  0  0  0  0
 20 16  1  0  0  0  0
 21 17  1  0  0  0  0
 22 17  1  0  0  0  0
 23 17  1  0  0  0  0
M  END
