Coordinates from ORCA-job 4-NO2-Ph-N2-OTf-B3LYPG-6-31G_dp-MTMO-d009-169-n800
 OpenBabel09051908473D

 23 22  0  0  0  0  0  0  0  0999 V2000
   -2.6629   -1.2913   -6.1069 C   0  0  0  0  0  0  0  0  0  0  0  0
   -1.2916   -1.0766   -6.0142 C   0  0  0  0  0  0  0  0  0  0  0  0
   -0.7572   -0.6134   -4.8118 C   0  0  0  0  0  0  0  0  0  0  0  0
   -1.5535   -0.3601   -3.6947 C   0  0  0  0  0  0  0  0  0  0  0  0
   -2.9268   -0.5652   -3.7907 C   0  0  0  0  0  0  0  0  0  0  0  0
   -3.4583   -1.0285   -4.9928 C   0  0  0  0  0  0  0  0  0  0  0  0
   -3.1217   -1.6524   -7.0184 H   0  0  0  0  0  0  0  0  0  0  0  0
   -0.6340   -1.2660   -6.8547 H   0  0  0  0  0  0  0  0  0  0  0  0
   -1.1059   -0.0061   -2.7744 H   0  0  0  0  0  0  0  0  0  0  0  0
   -3.5863   -0.3792   -2.9525 H   0  0  0  0  0  0  0  0  0  0  0  0
   -4.9113   -1.2513   -5.0889 N   0  0  0  0  0  0  0  0  0  0  0  0
   -5.5897   -1.0131   -4.0916 O   0  0  0  0  0  0  0  0  0  0  0  0
   -5.3527   -1.6620   -6.1607 O   0  0  0  0  0  0  0  0  0  0  0  0
    7.4823    6.7698  -10.3098 N   0  0  0  0  0  0  0  0  0  0  0  0
    6.6663    6.1280   -9.9306 N   0  0  0  0  0  0  0  0  0  0  0  0
    1.3707    0.9641   -4.5104 S   0  0  0  0  0  0  0  0  0  0  0  0
    1.6008    1.4462   -6.3041 C   0  0  0  0  0  0  0  0  0  0  0  0
    0.4434    1.9118   -3.9166 O   0  0  0  0  0  0  0  0  0  0  0  0
    2.6757    0.6619   -3.9620 O   0  0  0  0  0  0  0  0  0  0  0  0
    0.6386   -0.5026   -4.7355 O   0  0  0  0  0  0  0  0  0  0  0  0
    0.4058    1.5261   -6.8919 F   0  0  0  0  0  0  0  0  0  0  0  0
    2.2050    2.6286   -6.3445 F   0  0  0  0  0  0  0  0  0  0  0  0
    2.3424    0.5321   -6.9203 F   0  0  0  0  0  0  0  0  0  0  0  0
  1  2  2  0  0  0  0
  1  6  1  0  0  0  0
  2  3  1  0  0  0  0
  3 20  1  0  0  0  0
  3  4  2  0  0  0  0
  4  9  1  0  0  0  0
  5  4  1  0  0  0  0
  5 10  1  0  0  0  0
  6  5  2  0  0  0  0
  7  1  1  0  0  0  0
  8  2  1  0  0  0  0
 11  6  1  0  0  0  0
 11 12  2  0  0  0  0
 13 11  2  0  0  0  0
 14 15  3  0  0  0  0
 16 19  2  0  0  0  0
 16 18  2  0  0  0  0
 17 16  1  0  0  0  0
 20 16  1  0  0  0  0
 21 17  1  0  0  0  0
 22 17  1  0  0  0  0
 23 17  1  0  0  0  0
M  END
