Coordinates from ORCA-job 4-NO2-Ph-N2-OTf-B3LYPG-6-31G_dp-MTMO-d009-169-n800
 OpenBabel09051908473D

 23 22  0  0  0  0  0  0  0  0999 V2000
   -2.3215   -0.9097   -6.3602 C   0  0  0  0  0  0  0  0  0  0  0  0
   -0.9640   -0.6477   -6.2061 C   0  0  0  0  0  0  0  0  0  0  0  0
   -0.4730   -0.3385   -4.9378 C   0  0  0  0  0  0  0  0  0  0  0  0
   -1.2997   -0.2832   -3.8157 C   0  0  0  0  0  0  0  0  0  0  0  0
   -2.6593   -0.5364   -3.9711 C   0  0  0  0  0  0  0  0  0  0  0  0
   -3.1472   -0.8470   -5.2391 C   0  0  0  0  0  0  0  0  0  0  0  0
   -2.7472   -1.1575   -7.3241 H   0  0  0  0  0  0  0  0  0  0  0  0
   -0.2850   -0.6828   -7.0500 H   0  0  0  0  0  0  0  0  0  0  0  0
   -0.8849   -0.0447   -2.8441 H   0  0  0  0  0  0  0  0  0  0  0  0
   -3.3408   -0.5030   -3.1306 H   0  0  0  0  0  0  0  0  0  0  0  0
   -4.5854   -1.1218   -5.4000 N   0  0  0  0  0  0  0  0  0  0  0  0
   -5.2908   -1.0641   -4.3947 O   0  0  0  0  0  0  0  0  0  0  0  0
   -4.9885   -1.3921   -6.5299 O   0  0  0  0  0  0  0  0  0  0  0  0
    4.2414    3.7998   -9.6548 N   0  0  0  0  0  0  0  0  0  0  0  0
    3.6149    3.2850   -8.9040 N   0  0  0  0  0  0  0  0  0  0  0  0
    1.5640    1.2903   -4.3950 S   0  0  0  0  0  0  0  0  0  0  0  0
    1.9758    1.9081   -6.1147 C   0  0  0  0  0  0  0  0  0  0  0  0
    0.5405    2.1615   -3.8438 O   0  0  0  0  0  0  0  0  0  0  0  0
    2.8128    0.9916   -3.7258 O   0  0  0  0  0  0  0  0  0  0  0  0
    0.9136   -0.1761   -4.8071 O   0  0  0  0  0  0  0  0  0  0  0  0
    0.8591    1.9543   -6.8434 F   0  0  0  0  0  0  0  0  0  0  0  0
    2.4933    3.1265   -6.0017 F   0  0  0  0  0  0  0  0  0  0  0  0
    2.8508    1.0885   -6.6842 F   0  0  0  0  0  0  0  0  0  0  0  0
  1  2  2  0  0  0  0
  1  6  1  0  0  0  0
  2  3  1  0  0  0  0
  3 20  1  0  0  0  0
  3  4  2  0  0  0  0
  4  9  1  0  0  0  0
  5  4  1  0  0  0  0
  5 10  1  0  0  0  0
  6  5  2  0  0  0  0
  7  1  1  0  0  0  0
  8  2  1  0  0  0  0
 11  6  1  0  0  0  0
 11 12  2  0  0  0  0
 13 11  2  0  0  0  0
 14 15  3  0  0  0  0
 16 18  2  0  0  0  0
 16 19  2  0  0  0  0
 17 22  1  0  0  0  0
 17 16  1  0  0  0  0
 20 16  1  0  0  0  0
 21 17  1  0  0  0  0
 23 17  1  0  0  0  0
M  END
