Coordinates from ORCA-job 4-NO2-Ph-N2-OTf-B3LYPG-6-31G_dp-MTMO-d009-169-n800
 OpenBabel09051908473D

 23 22  0  0  0  0  0  0  0  0999 V2000
   -1.9461   -1.3753   -6.1531 C   0  0  0  0  0  0  0  0  0  0  0  0
   -0.6259   -1.1578   -5.7722 C   0  0  0  0  0  0  0  0  0  0  0  0
   -0.3562   -0.2433   -4.7541 C   0  0  0  0  0  0  0  0  0  0  0  0
   -1.3679    0.4612   -4.1017 C   0  0  0  0  0  0  0  0  0  0  0  0
   -2.6882    0.2497   -4.4881 C   0  0  0  0  0  0  0  0  0  0  0  0
   -2.9553   -0.6651   -5.5050 C   0  0  0  0  0  0  0  0  0  0  0  0
   -2.2046   -2.0761   -6.9370 H   0  0  0  0  0  0  0  0  0  0  0  0
    0.1923   -1.6858   -6.2476 H   0  0  0  0  0  0  0  0  0  0  0  0
   -1.1219    1.1606   -3.3120 H   0  0  0  0  0  0  0  0  0  0  0  0
   -3.5080    0.7730   -4.0136 H   0  0  0  0  0  0  0  0  0  0  0  0
   -4.3540   -0.8919   -5.9080 N   0  0  0  0  0  0  0  0  0  0  0  0
   -5.2250   -0.2552   -5.3187 O   0  0  0  0  0  0  0  0  0  0  0  0
   -4.5601   -1.7039   -6.8082 O   0  0  0  0  0  0  0  0  0  0  0  0
    1.0044    5.0764   -7.8156 N   0  0  0  0  0  0  0  0  0  0  0  0
    1.3473    4.0441   -7.6210 N   0  0  0  0  0  0  0  0  0  0  0  0
    1.8203    1.2823   -4.5665 S   0  0  0  0  0  0  0  0  0  0  0  0
    2.5354    0.9102   -6.2568 C   0  0  0  0  0  0  0  0  0  0  0  0
    0.9098    2.4060   -4.7028 O   0  0  0  0  0  0  0  0  0  0  0  0
    2.9067    1.2382   -3.6108 O   0  0  0  0  0  0  0  0  0  0  0  0
    0.9770   -0.1232   -4.3374 O   0  0  0  0  0  0  0  0  0  0  0  0
    1.5422    0.8233   -7.1426 F   0  0  0  0  0  0  0  0  0  0  0  0
    3.3596    1.8960   -6.5918 F   0  0  0  0  0  0  0  0  0  0  0  0
    3.1973   -0.2423   -6.2131 F   0  0  0  0  0  0  0  0  0  0  0  0
  1  2  2  0  0  0  0
  1  6  1  0  0  0  0
  2  3  1  0  0  0  0
  3 20  1  0  0  0  0
  3  4  2  0  0  0  0
  4  9  1  0  0  0  0
  5  4  1  0  0  0  0
  5 10  1  0  0  0  0
  6  5  2  0  0  0  0
  7  1  1  0  0  0  0
  8  2  1  0  0  0  0
 11  6  1  0  0  0  0
 11 12  2  0  0  0  0
 13 11  2  0  0  0  0
 14 15  3  0  0  0  0
 16 20  1  0  0  0  0
 16 19  2  0  0  0  0
 17 23  1  0  0  0  0
 17 16  1  0  0  0  0
 18 16  2  0  0  0  0
 21 17  1  0  0  0  0
 22 17  1  0  0  0  0
M  END
