Coordinates from ORCA-job 4-NO2-Ph-N2-OTf-B3LYPG-6-31G_dp-MTMO-d009-169-n800
 OpenBabel09051908483D

 23 22  0  0  0  0  0  0  0  0999 V2000
   -2.7361   -1.3490   -6.0627 C   0  0  0  0  0  0  0  0  0  0  0  0
   -1.3649   -1.1329   -5.9725 C   0  0  0  0  0  0  0  0  0  0  0  0
   -0.8287   -0.6699   -4.7709 C   0  0  0  0  0  0  0  0  0  0  0  0
   -1.6231   -0.4181   -3.6521 C   0  0  0  0  0  0  0  0  0  0  0  0
   -2.9964   -0.6246   -3.7455 C   0  0  0  0  0  0  0  0  0  0  0  0
   -3.5297   -1.0878   -4.9470 C   0  0  0  0  0  0  0  0  0  0  0  0
   -3.1963   -1.7101   -6.9736 H   0  0  0  0  0  0  0  0  0  0  0  0
   -0.7087   -1.3211   -6.8144 H   0  0  0  0  0  0  0  0  0  0  0  0
   -1.1742   -0.0643   -2.7324 H   0  0  0  0  0  0  0  0  0  0  0  0
   -3.6545   -0.4399   -2.9061 H   0  0  0  0  0  0  0  0  0  0  0  0
   -4.9826   -1.3122   -5.0404 N   0  0  0  0  0  0  0  0  0  0  0  0
   -5.6594   -1.0752   -4.0418 O   0  0  0  0  0  0  0  0  0  0  0  0
   -5.4256   -1.7227   -6.1117 O   0  0  0  0  0  0  0  0  0  0  0  0
    8.2477    7.3655  -10.7480 N   0  0  0  0  0  0  0  0  0  0  0  0
    7.4270    6.7243  -10.3781 N   0  0  0  0  0  0  0  0  0  0  0  0
    1.2982    0.9095   -4.4723 S   0  0  0  0  0  0  0  0  0  0  0  0
    1.5239    1.3934   -6.2660 C   0  0  0  0  0  0  0  0  0  0  0  0
    0.3713    1.8557   -3.8757 O   0  0  0  0  0  0  0  0  0  0  0  0
    2.6047    0.6081   -3.9271 O   0  0  0  0  0  0  0  0  0  0  0  0
    0.5671   -0.5577   -4.6971 O   0  0  0  0  0  0  0  0  0  0  0  0
    0.3275    1.4729   -6.8512 F   0  0  0  0  0  0  0  0  0  0  0  0
    2.1271    2.5764   -6.3067 F   0  0  0  0  0  0  0  0  0  0  0  0
    2.2649    0.4806   -6.8848 F   0  0  0  0  0  0  0  0  0  0  0  0
  1  2  2  0  0  0  0
  1  6  1  0  0  0  0
  2  3  1  0  0  0  0
  3 20  1  0  0  0  0
  3  4  2  0  0  0  0
  4  9  1  0  0  0  0
  5  4  1  0  0  0  0
  5 10  1  0  0  0  0
  6  5  2  0  0  0  0
  7  1  1  0  0  0  0
  8  2  1  0  0  0  0
 11  6  1  0  0  0  0
 11 12  2  0  0  0  0
 13 11  2  0  0  0  0
 14 15  3  0  0  0  0
 16 19  2  0  0  0  0
 16 18  2  0  0  0  0
 17 16  1  0  0  0  0
 20 16  1  0  0  0  0
 21 17  1  0  0  0  0
 22 17  1  0  0  0  0
 23 17  1  0  0  0  0
M  END
