Coordinates from ORCA-job 4-NO2-Ph-N2-OTf-B3LYPG-6-31G_dp-MTMO-d009-169-n800
 OpenBabel09051908473D

 23 22  0  0  0  0  0  0  0  0999 V2000
   -2.6467   -1.2789   -6.1162 C   0  0  0  0  0  0  0  0  0  0  0  0
   -1.2755   -1.0645   -6.0233 C   0  0  0  0  0  0  0  0  0  0  0  0
   -0.7412   -0.6006   -4.8212 C   0  0  0  0  0  0  0  0  0  0  0  0
   -1.5377   -0.3464   -3.7044 C   0  0  0  0  0  0  0  0  0  0  0  0
   -2.9110   -0.5512   -3.8005 C   0  0  0  0  0  0  0  0  0  0  0  0
   -3.4424   -1.0153   -5.0024 C   0  0  0  0  0  0  0  0  0  0  0  0
   -3.1054   -1.6406   -7.0275 H   0  0  0  0  0  0  0  0  0  0  0  0
   -0.6177   -1.2545   -6.8635 H   0  0  0  0  0  0  0  0  0  0  0  0
   -1.0903    0.0081   -2.7842 H   0  0  0  0  0  0  0  0  0  0  0  0
   -3.5706   -0.3646   -2.9626 H   0  0  0  0  0  0  0  0  0  0  0  0
   -4.8953   -1.2379   -5.0987 N   0  0  0  0  0  0  0  0  0  0  0  0
   -5.5739   -0.9989   -4.1017 O   0  0  0  0  0  0  0  0  0  0  0  0
   -5.3366   -1.6492   -6.1704 O   0  0  0  0  0  0  0  0  0  0  0  0
    7.3113    6.6368  -10.2102 N   0  0  0  0  0  0  0  0  0  0  0  0
    6.4972    5.9957   -9.8257 N   0  0  0  0  0  0  0  0  0  0  0  0
    1.3869    0.9767   -4.5203 S   0  0  0  0  0  0  0  0  0  0  0  0
    1.6178    1.4574   -6.3143 C   0  0  0  0  0  0  0  0  0  0  0  0
    0.4596    1.9250   -3.9276 O   0  0  0  0  0  0  0  0  0  0  0  0
    2.6916    0.6747   -3.9712 O   0  0  0  0  0  0  0  0  0  0  0  0
    0.6545   -0.4900   -4.7446 O   0  0  0  0  0  0  0  0  0  0  0  0
    0.4230    1.5369   -6.9027 F   0  0  0  0  0  0  0  0  0  0  0  0
    2.2222    2.6397   -6.3554 F   0  0  0  0  0  0  0  0  0  0  0  0
    2.3595    0.5427   -6.9294 F   0  0  0  0  0  0  0  0  0  0  0  0
  1  2  2  0  0  0  0
  1  6  1  0  0  0  0
  2  3  1  0  0  0  0
  3 20  1  0  0  0  0
  3  4  2  0  0  0  0
  4  9  1  0  0  0  0
  5  4  1  0  0  0  0
  5 10  1  0  0  0  0
  6  5  2  0  0  0  0
  7  1  1  0  0  0  0
  8  2  1  0  0  0  0
 11  6  1  0  0  0  0
 11 12  2  0  0  0  0
 13 11  2  0  0  0  0
 14 15  3  0  0  0  0
 16 19  2  0  0  0  0
 16 18  2  0  0  0  0
 17 16  1  0  0  0  0
 20 16  1  0  0  0  0
 21 17  1  0  0  0  0
 22 17  1  0  0  0  0
 23 17  1  0  0  0  0
M  END
