Coordinates from ORCA-job 4-NO2-Ph-N2-OTf-B3LYPG-6-31G_dp-MTMO-d009-169-n800
 OpenBabel09051908473D

 23 22  0  0  0  0  0  0  0  0999 V2000
   -1.9860   -1.6295   -5.6298 C   0  0  0  0  0  0  0  0  0  0  0  0
   -0.6481   -1.3254   -5.4007 C   0  0  0  0  0  0  0  0  0  0  0  0
   -0.3118   -0.0512   -4.9442 C   0  0  0  0  0  0  0  0  0  0  0  0
   -1.2731    0.9317   -4.7079 C   0  0  0  0  0  0  0  0  0  0  0  0
   -2.6106    0.6300   -4.9472 C   0  0  0  0  0  0  0  0  0  0  0  0
   -2.9451   -0.6442   -5.4012 C   0  0  0  0  0  0  0  0  0  0  0  0
   -2.2959   -2.6053   -5.9811 H   0  0  0  0  0  0  0  0  0  0  0  0
    0.1325   -2.0589   -5.5659 H   0  0  0  0  0  0  0  0  0  0  0  0
   -0.9781    1.9101   -4.3503 H   0  0  0  0  0  0  0  0  0  0  0  0
   -3.3930    1.3594   -4.7813 H   0  0  0  0  0  0  0  0  0  0  0  0
   -4.3623   -0.9630   -5.6455 N   0  0  0  0  0  0  0  0  0  0  0  0
   -5.1880   -0.0765   -5.4357 O   0  0  0  0  0  0  0  0  0  0  0  0
   -4.6283   -2.0956   -6.0437 O   0  0  0  0  0  0  0  0  0  0  0  0
    0.3565    5.2924   -4.8781 N   0  0  0  0  0  0  0  0  0  0  0  0
    1.0859    5.7947   -5.5390 N   0  0  0  0  0  0  0  0  0  0  0  0
    1.9301    1.3016   -5.4548 S   0  0  0  0  0  0  0  0  0  0  0  0
    2.6015    0.1962   -6.8078 C   0  0  0  0  0  0  0  0  0  0  0  0
    1.0653    2.2867   -6.0820 O   0  0  0  0  0  0  0  0  0  0  0  0
    3.0270    1.6403   -4.5733 O   0  0  0  0  0  0  0  0  0  0  0  0
    1.0369    0.1783   -4.6342 O   0  0  0  0  0  0  0  0  0  0  0  0
    1.5838   -0.2841   -7.5242 F   0  0  0  0  0  0  0  0  0  0  0  0
    3.3988    0.9220   -7.5842 F   0  0  0  0  0  0  0  0  0  0  0  0
    3.2812   -0.8085   -6.2659 F   0  0  0  0  0  0  0  0  0  0  0  0
  1  6  2  0  0  0  0
  1  2  1  0  0  0  0
  2  3  2  0  0  0  0
  3  4  1  0  0  0  0
  3 20  1  0  0  0  0
  4  9  1  0  0  0  0
  5 10  1  0  0  0  0
  5  4  2  0  0  0  0
  6  5  1  0  0  0  0
  7  1  1  0  0  0  0
  8  2  1  0  0  0  0
 11 12  2  0  0  0  0
 11  6  1  0  0  0  0
 13 11  2  0  0  0  0
 15 14  3  0  0  0  0
 16 20  1  0  0  0  0
 16 19  2  0  0  0  0
 17 23  1  0  0  0  0
 17 16  1  0  0  0  0
 18 16  2  0  0  0  0
 21 17  1  0  0  0  0
 22 17  1  0  0  0  0
M  END
