Coordinates from ORCA-job 4-NO2-Ph-N2-OTf-B3LYPG-6-31G_dp-MTMO-d009-169-n800
 OpenBabel09051908473D

 23 22  0  0  0  0  0  0  0  0999 V2000
   -2.5754   -1.2329   -6.1474 C   0  0  0  0  0  0  0  0  0  0  0  0
   -1.2038   -1.0185   -6.0607 C   0  0  0  0  0  0  0  0  0  0  0  0
   -0.6665   -0.5372   -4.8667 C   0  0  0  0  0  0  0  0  0  0  0  0
   -1.4604   -0.2652   -3.7523 C   0  0  0  0  0  0  0  0  0  0  0  0
   -2.8342   -0.4701   -3.8424 C   0  0  0  0  0  0  0  0  0  0  0  0
   -3.3685   -0.9518   -5.0361 C   0  0  0  0  0  0  0  0  0  0  0  0
   -3.0364   -1.6077   -7.0523 H   0  0  0  0  0  0  0  0  0  0  0  0
   -0.5480   -1.2217   -6.8993 H   0  0  0  0  0  0  0  0  0  0  0  0
   -1.0107    0.1028   -2.8386 H   0  0  0  0  0  0  0  0  0  0  0  0
   -3.4919   -0.2700   -3.0062 H   0  0  0  0  0  0  0  0  0  0  0  0
   -4.8218   -1.1744   -5.1259 N   0  0  0  0  0  0  0  0  0  0  0  0
   -5.4980   -0.9207   -4.1309 O   0  0  0  0  0  0  0  0  0  0  0  0
   -5.2659   -1.6005   -6.1906 O   0  0  0  0  0  0  0  0  0  0  0  0
    6.5076    6.0339   -9.6757 N   0  0  0  0  0  0  0  0  0  0  0  0
    5.7085    5.3883   -9.2682 N   0  0  0  0  0  0  0  0  0  0  0  0
    1.4639    1.0420   -4.5946 S   0  0  0  0  0  0  0  0  0  0  0  0
    1.6983    1.4898   -6.3967 C   0  0  0  0  0  0  0  0  0  0  0  0
    0.5371    2.0019   -4.0201 O   0  0  0  0  0  0  0  0  0  0  0  0
    2.7673    0.7477   -4.0382 O   0  0  0  0  0  0  0  0  0  0  0  0
    0.7294   -0.4273   -4.7945 O   0  0  0  0  0  0  0  0  0  0  0  0
    0.5044    1.5610   -6.9880 F   0  0  0  0  0  0  0  0  0  0  0  0
    2.3053    2.6697   -6.4586 F   0  0  0  0  0  0  0  0  0  0  0  0
    2.4387    0.5623   -6.9939 F   0  0  0  0  0  0  0  0  0  0  0  0
  1  2  2  0  0  0  0
  1  6  1  0  0  0  0
  2  3  1  0  0  0  0
  3 20  1  0  0  0  0
  3  4  2  0  0  0  0
  4  9  1  0  0  0  0
  5  4  1  0  0  0  0
  5 10  1  0  0  0  0
  6  5  2  0  0  0  0
  7  1  1  0  0  0  0
  8  2  1  0  0  0  0
 11  6  1  0  0  0  0
 11 12  2  0  0  0  0
 13 11  2  0  0  0  0
 14 15  3  0  0  0  0
 16 19  2  0  0  0  0
 16 18  2  0  0  0  0
 17 16  1  0  0  0  0
 20 16  1  0  0  0  0
 21 17  1  0  0  0  0
 22 17  1  0  0  0  0
 23 17  1  0  0  0  0
M  END
