Coordinates from ORCA-job 4-NO2-Ph-N2-OTf-B3LYPG-6-31G_dp-MTMO-d009-169-n800
 OpenBabel09051908483D

 23 22  0  0  0  0  0  0  0  0999 V2000
   -2.6968   -1.3178   -6.0866 C   0  0  0  0  0  0  0  0  0  0  0  0
   -1.3256   -1.1026   -5.9948 C   0  0  0  0  0  0  0  0  0  0  0  0
   -0.7905   -0.6398   -4.7926 C   0  0  0  0  0  0  0  0  0  0  0  0
   -1.5860   -0.3874   -3.6748 C   0  0  0  0  0  0  0  0  0  0  0  0
   -2.9594   -0.5930   -3.7699 C   0  0  0  0  0  0  0  0  0  0  0  0
   -3.4916   -1.0559   -4.9719 C   0  0  0  0  0  0  0  0  0  0  0  0
   -3.1561   -1.6787   -6.9980 H   0  0  0  0  0  0  0  0  0  0  0  0
   -0.6685   -1.2913   -6.8359 H   0  0  0  0  0  0  0  0  0  0  0  0
   -1.1380   -0.0337   -2.7546 H   0  0  0  0  0  0  0  0  0  0  0  0
   -3.6183   -0.4077   -2.9312 H   0  0  0  0  0  0  0  0  0  0  0  0
   -4.9445   -1.2793   -5.0670 N   0  0  0  0  0  0  0  0  0  0  0  0
   -5.6223   -1.0418   -4.0692 O   0  0  0  0  0  0  0  0  0  0  0  0
   -5.3865   -1.6896   -6.1387 O   0  0  0  0  0  0  0  0  0  0  0  0
    7.8381    7.0473  -10.5142 N   0  0  0  0  0  0  0  0  0  0  0  0
    7.0191    6.4052  -10.1418 N   0  0  0  0  0  0  0  0  0  0  0  0
    1.3370    0.9383   -4.4918 S   0  0  0  0  0  0  0  0  0  0  0  0
    1.5654    1.4217   -6.2854 C   0  0  0  0  0  0  0  0  0  0  0  0
    0.4100    1.8852   -3.8967 O   0  0  0  0  0  0  0  0  0  0  0  0
    2.6427    0.6362   -3.9449 O   0  0  0  0  0  0  0  0  0  0  0  0
    0.6053   -0.5285   -4.7173 O   0  0  0  0  0  0  0  0  0  0  0  0
    0.3698    1.5017   -6.8721 F   0  0  0  0  0  0  0  0  0  0  0  0
    2.1692    2.6043   -6.3256 F   0  0  0  0  0  0  0  0  0  0  0  0
    2.3066    0.5083   -6.9029 F   0  0  0  0  0  0  0  0  0  0  0  0
  1  2  2  0  0  0  0
  1  6  1  0  0  0  0
  2  3  1  0  0  0  0
  3 20  1  0  0  0  0
  3  4  2  0  0  0  0
  4  9  1  0  0  0  0
  5  4  1  0  0  0  0
  5 10  1  0  0  0  0
  6  5  2  0  0  0  0
  7  1  1  0  0  0  0
  8  2  1  0  0  0  0
 11  6  1  0  0  0  0
 11 12  2  0  0  0  0
 13 11  2  0  0  0  0
 14 15  3  0  0  0  0
 16 19  2  0  0  0  0
 16 18  2  0  0  0  0
 17 16  1  0  0  0  0
 20 16  1  0  0  0  0
 21 17  1  0  0  0  0
 22 17  1  0  0  0  0
 23 17  1  0  0  0  0
M  END
