Coordinates from ORCA-job 4-NO2-Ph-N2-OTf-B3LYPG-6-31G_dp-MTMO-d009-169-n800
 OpenBabel09051908473D

 23 22  0  0  0  0  0  0  0  0999 V2000
   -2.6003   -1.2493   -6.1364 C   0  0  0  0  0  0  0  0  0  0  0  0
   -1.2286   -1.0364   -6.0464 C   0  0  0  0  0  0  0  0  0  0  0  0
   -0.6930   -0.5607   -4.8495 C   0  0  0  0  0  0  0  0  0  0  0  0
   -1.4885   -0.2929   -3.7352 C   0  0  0  0  0  0  0  0  0  0  0  0
   -2.8623   -0.4963   -3.8285 C   0  0  0  0  0  0  0  0  0  0  0  0
   -3.3950   -0.9722   -5.0252 C   0  0  0  0  0  0  0  0  0  0  0  0
   -3.0601   -1.6198   -7.0436 H   0  0  0  0  0  0  0  0  0  0  0  0
   -0.5716   -1.2365   -6.8848 H   0  0  0  0  0  0  0  0  0  0  0  0
   -1.0400    0.0708   -2.8191 H   0  0  0  0  0  0  0  0  0  0  0  0
   -3.5212   -0.2993   -2.9925 H   0  0  0  0  0  0  0  0  0  0  0  0
   -4.8484   -1.1932   -5.1184 N   0  0  0  0  0  0  0  0  0  0  0  0
   -5.5260   -0.9429   -4.1236 O   0  0  0  0  0  0  0  0  0  0  0  0
   -5.2910   -1.6146   -6.1856 O   0  0  0  0  0  0  0  0  0  0  0  0
    6.7840    6.2551   -9.8667 N   0  0  0  0  0  0  0  0  0  0  0  0
    5.9804    5.6106   -9.4660 N   0  0  0  0  0  0  0  0  0  0  0  0
    1.4381    1.0158   -4.5670 S   0  0  0  0  0  0  0  0  0  0  0  0
    1.6730    1.4733   -6.3666 C   0  0  0  0  0  0  0  0  0  0  0  0
    0.5118    1.9732   -3.9876 O   0  0  0  0  0  0  0  0  0  0  0  0
    2.7414    0.7179   -4.0120 O   0  0  0  0  0  0  0  0  0  0  0  0
    0.7030   -0.4520   -4.7746 O   0  0  0  0  0  0  0  0  0  0  0  0
    0.4793    1.5485   -6.9577 F   0  0  0  0  0  0  0  0  0  0  0  0
    2.2807    2.6532   -6.4218 F   0  0  0  0  0  0  0  0  0  0  0  0
    2.4130    0.5487   -6.9689 F   0  0  0  0  0  0  0  0  0  0  0  0
  1  2  2  0  0  0  0
  1  6  1  0  0  0  0
  2  3  1  0  0  0  0
  3 20  1  0  0  0  0
  3  4  2  0  0  0  0
  4  9  1  0  0  0  0
  5  4  1  0  0  0  0
  5 10  1  0  0  0  0
  6  5  2  0  0  0  0
  7  1  1  0  0  0  0
  8  2  1  0  0  0  0
 11  6  1  0  0  0  0
 11 12  2  0  0  0  0
 13 11  2  0  0  0  0
 14 15  3  0  0  0  0
 16 19  2  0  0  0  0
 16 18  2  0  0  0  0
 17 16  1  0  0  0  0
 20 16  1  0  0  0  0
 21 17  1  0  0  0  0
 22 17  1  0  0  0  0
 23 17  1  0  0  0  0
M  END
