Coordinates from ORCA-job 4-NO2-Ph-N2-OTf-B3LYPG-6-31G_dp-MTMO-d009-169-n800
 OpenBabel09051908473D

 23 22  0  0  0  0  0  0  0  0999 V2000
   -2.6202   -1.2599   -6.1300 C   0  0  0  0  0  0  0  0  0  0  0  0
   -1.2488   -1.0459   -6.0377 C   0  0  0  0  0  0  0  0  0  0  0  0
   -0.7144   -0.5787   -4.8369 C   0  0  0  0  0  0  0  0  0  0  0  0
   -1.5107   -0.3208   -3.7209 C   0  0  0  0  0  0  0  0  0  0  0  0
   -2.8842   -0.5252   -3.8165 C   0  0  0  0  0  0  0  0  0  0  0  0
   -3.4158   -0.9926   -5.0171 C   0  0  0  0  0  0  0  0  0  0  0  0
   -3.0790   -1.6240   -7.0403 H   0  0  0  0  0  0  0  0  0  0  0  0
   -0.5911   -1.2387   -6.8774 H   0  0  0  0  0  0  0  0  0  0  0  0
   -1.0632    0.0363   -2.8018 H   0  0  0  0  0  0  0  0  0  0  0  0
   -3.5438   -0.3357   -2.9793 H   0  0  0  0  0  0  0  0  0  0  0  0
   -4.8688   -1.2148   -5.1127 N   0  0  0  0  0  0  0  0  0  0  0  0
   -5.5473   -0.9726   -4.1165 O   0  0  0  0  0  0  0  0  0  0  0  0
   -5.3103   -1.6288   -6.1833 O   0  0  0  0  0  0  0  0  0  0  0  0
    7.0222    6.4164  -10.0345 N   0  0  0  0  0  0  0  0  0  0  0  0
    6.2124    5.7767   -9.6388 N   0  0  0  0  0  0  0  0  0  0  0  0
    1.4145    0.9984   -4.5408 S   0  0  0  0  0  0  0  0  0  0  0  0
    1.6470    1.4726   -6.3363 C   0  0  0  0  0  0  0  0  0  0  0  0
    0.4873    1.9492   -3.9520 O   0  0  0  0  0  0  0  0  0  0  0  0
    2.7187    0.6975   -3.9897 O   0  0  0  0  0  0  0  0  0  0  0  0
    0.6814   -0.4686   -4.7606 O   0  0  0  0  0  0  0  0  0  0  0  0
    0.4526    1.5508   -6.9258 F   0  0  0  0  0  0  0  0  0  0  0  0
    2.2521    2.6544   -6.3812 F   0  0  0  0  0  0  0  0  0  0  0  0
    2.3884    0.5552   -6.9477 F   0  0  0  0  0  0  0  0  0  0  0  0
  1  2  2  0  0  0  0
  1  6  1  0  0  0  0
  2  3  1  0  0  0  0
  3 20  1  0  0  0  0
  3  4  2  0  0  0  0
  4  9  1  0  0  0  0
  5  4  1  0  0  0  0
  5 10  1  0  0  0  0
  6  5  2  0  0  0  0
  7  1  1  0  0  0  0
  8  2  1  0  0  0  0
 11  6  1  0  0  0  0
 11 12  2  0  0  0  0
 13 11  2  0  0  0  0
 14 15  3  0  0  0  0
 16 19  2  0  0  0  0
 16 18  2  0  0  0  0
 17 16  1  0  0  0  0
 20 16  1  0  0  0  0
 21 17  1  0  0  0  0
 22 17  1  0  0  0  0
 23 17  1  0  0  0  0
M  END
