Coordinates from ORCA-job 4-NO2-Ph-N2-OTf-B3LYPG-6-31G_dp-MTMO-d009-169-n800
 OpenBabel09051908483D

 23 22  0  0  0  0  0  0  0  0999 V2000
   -2.8915   -1.4734   -5.9664 C   0  0  0  0  0  0  0  0  0  0  0  0
   -1.5208   -1.2505   -5.8864 C   0  0  0  0  0  0  0  0  0  0  0  0
   -0.9779   -0.7852   -4.6887 C   0  0  0  0  0  0  0  0  0  0  0  0
   -1.7651   -0.5375   -3.5640 C   0  0  0  0  0  0  0  0  0  0  0  0
   -3.1381   -0.7507   -3.6472 C   0  0  0  0  0  0  0  0  0  0  0  0
   -3.6781   -1.2164   -4.8446 C   0  0  0  0  0  0  0  0  0  0  0  0
   -3.3567   -1.8367   -6.8738 H   0  0  0  0  0  0  0  0  0  0  0  0
   -0.8700   -1.4353   -6.7332 H   0  0  0  0  0  0  0  0  0  0  0  0
   -1.3111   -0.1816   -2.6475 H   0  0  0  0  0  0  0  0  0  0  0  0
   -3.7907   -0.5694   -2.8027 H   0  0  0  0  0  0  0  0  0  0  0  0
   -5.1304   -1.4481   -4.9272 N   0  0  0  0  0  0  0  0  0  0  0  0
   -5.8009   -1.2147   -3.9235 O   0  0  0  0  0  0  0  0  0  0  0  0
   -5.5794   -1.8608   -5.9951 O   0  0  0  0  0  0  0  0  0  0  0  0
    9.8557    8.6037  -11.6549 N   0  0  0  0  0  0  0  0  0  0  0  0
    9.0397    7.9620  -11.2752 N   0  0  0  0  0  0  0  0  0  0  0  0
    1.1439    0.8038   -4.4050 S   0  0  0  0  0  0  0  0  0  0  0  0
    1.3556    1.2885   -6.2002 C   0  0  0  0  0  0  0  0  0  0  0  0
    0.2168    1.7459   -3.8023 O   0  0  0  0  0  0  0  0  0  0  0  0
    2.4554    0.5083   -3.8684 O   0  0  0  0  0  0  0  0  0  0  0  0
    0.4179   -0.6666   -4.6253 O   0  0  0  0  0  0  0  0  0  0  0  0
    0.1551    1.3625   -6.7775 F   0  0  0  0  0  0  0  0  0  0  0  0
    1.9532    2.4743   -6.2450 F   0  0  0  0  0  0  0  0  0  0  0  0
    2.0966    0.3790   -6.8238 F   0  0  0  0  0  0  0  0  0  0  0  0
  1  2  2  0  0  0  0
  1  6  1  0  0  0  0
  2  3  1  0  0  0  0
  3 20  1  0  0  0  0
  3  4  2  0  0  0  0
  4  9  1  0  0  0  0
  5  4  1  0  0  0  0
  5 10  1  0  0  0  0
  6  5  2  0  0  0  0
  7  1  1  0  0  0  0
  8  2  1  0  0  0  0
 11  6  1  0  0  0  0
 11 12  2  0  0  0  0
 13 11  2  0  0  0  0
 14 15  3  0  0  0  0
 16 19  2  0  0  0  0
 16 18  2  0  0  0  0
 17 16  1  0  0  0  0
 20 16  1  0  0  0  0
 21 17  1  0  0  0  0
 22 17  1  0  0  0  0
 23 17  1  0  0  0  0
M  END
