Coordinates from ORCA-job 4-NO2-Ph-N2-OTf-B3LYPG-6-31G_dp-MTMO-d009-169-n800
 OpenBabel09051908483D

 23 22  0  0  0  0  0  0  0  0999 V2000
   -2.7743   -1.3795   -6.0392 C   0  0  0  0  0  0  0  0  0  0  0  0
   -1.4032   -1.1622   -5.9510 C   0  0  0  0  0  0  0  0  0  0  0  0
   -0.8657   -0.6988   -4.7501 C   0  0  0  0  0  0  0  0  0  0  0  0
   -1.6587   -0.4477   -3.6301 C   0  0  0  0  0  0  0  0  0  0  0  0
   -3.0320   -0.6555   -3.7216 C   0  0  0  0  0  0  0  0  0  0  0  0
   -3.5666   -1.1191   -4.9223 C   0  0  0  0  0  0  0  0  0  0  0  0
   -3.2355   -1.7410   -6.9494 H   0  0  0  0  0  0  0  0  0  0  0  0
   -0.7481   -1.3498   -6.7938 H   0  0  0  0  0  0  0  0  0  0  0  0
   -1.2088   -0.0935   -2.7111 H   0  0  0  0  0  0  0  0  0  0  0  0
   -3.6890   -0.4713   -2.8812 H   0  0  0  0  0  0  0  0  0  0  0  0
   -5.0194   -1.3448   -5.0136 N   0  0  0  0  0  0  0  0  0  0  0  0
   -5.6949   -1.1085   -4.0140 O   0  0  0  0  0  0  0  0  0  0  0  0
   -5.4635   -1.7557   -6.0843 O   0  0  0  0  0  0  0  0  0  0  0  0
    8.6452    7.6729  -10.9737 N   0  0  0  0  0  0  0  0  0  0  0  0
    7.8241    7.0324  -10.6035 N   0  0  0  0  0  0  0  0  0  0  0  0
    1.2603    0.8824   -4.4544 S   0  0  0  0  0  0  0  0  0  0  0  0
    1.4830    1.3666   -6.2484 C   0  0  0  0  0  0  0  0  0  0  0  0
    0.3335    1.8277   -3.8564 O   0  0  0  0  0  0  0  0  0  0  0  0
    2.5679    0.5820   -3.9112 O   0  0  0  0  0  0  0  0  0  0  0  0
    0.5301   -0.5854   -4.6784 O   0  0  0  0  0  0  0  0  0  0  0  0
    0.2857    1.4453   -6.8318 F   0  0  0  0  0  0  0  0  0  0  0  0
    2.0852    2.5501   -6.2899 F   0  0  0  0  0  0  0  0  0  0  0  0
    2.2237    0.4545   -6.8684 F   0  0  0  0  0  0  0  0  0  0  0  0
  1  2  2  0  0  0  0
  1  6  1  0  0  0  0
  2  3  1  0  0  0  0
  3 20  1  0  0  0  0
  3  4  2  0  0  0  0
  4  9  1  0  0  0  0
  5  4  1  0  0  0  0
  5 10  1  0  0  0  0
  6  5  2  0  0  0  0
  7  1  1  0  0  0  0
  8  2  1  0  0  0  0
 11  6  1  0  0  0  0
 11 12  2  0  0  0  0
 13 11  2  0  0  0  0
 14 15  3  0  0  0  0
 16 19  2  0  0  0  0
 16 18  2  0  0  0  0
 17 16  1  0  0  0  0
 20 16  1  0  0  0  0
 21 17  1  0  0  0  0
 22 17  1  0  0  0  0
 23 17  1  0  0  0  0
M  END
