Coordinates from ORCA-job 4-NO2-Ph-N2-OTf-B3LYPG-6-31G_dp-MTMO-d009-169-n800
 OpenBabel09051908473D

 23 22  0  0  0  0  0  0  0  0999 V2000
   -2.0753   -1.0435   -6.0958 C   0  0  0  0  0  0  0  0  0  0  0  0
   -0.7199   -0.7565   -5.9664 C   0  0  0  0  0  0  0  0  0  0  0  0
   -0.3223    0.2161   -5.0499 C   0  0  0  0  0  0  0  0  0  0  0  0
   -1.2372    0.9033   -4.2541 C   0  0  0  0  0  0  0  0  0  0  0  0
   -2.5923    0.6112   -4.3772 C   0  0  0  0  0  0  0  0  0  0  0  0
   -2.9887   -0.3562   -5.2985 C   0  0  0  0  0  0  0  0  0  0  0  0
   -2.4327   -1.7900   -6.7943 H   0  0  0  0  0  0  0  0  0  0  0  0
    0.0183   -1.2778   -6.5626 H   0  0  0  0  0  0  0  0  0  0  0  0
   -0.8814    1.6495   -3.5533 H   0  0  0  0  0  0  0  0  0  0  0  0
   -3.3393    1.1172   -3.7795 H   0  0  0  0  0  0  0  0  0  0  0  0
   -4.4225   -0.6658   -5.4317 N   0  0  0  0  0  0  0  0  0  0  0  0
   -5.2058   -0.0470   -4.7135 O   0  0  0  0  0  0  0  0  0  0  0  0
   -4.7448   -1.5237   -6.2516 O   0  0  0  0  0  0  0  0  0  0  0  0
   -0.2037    3.9733   -5.4807 N   0  0  0  0  0  0  0  0  0  0  0  0
   -0.2934    4.9801   -5.9268 N   0  0  0  0  0  0  0  0  0  0  0  0
    1.9529    1.2479   -5.9677 S   0  0  0  0  0  0  0  0  0  0  0  0
    3.1549   -0.1499   -6.2823 C   0  0  0  0  0  0  0  0  0  0  0  0
    1.1773    1.4597   -7.1777 O   0  0  0  0  0  0  0  0  0  0  0  0
    2.6891    2.2991   -5.2944 O   0  0  0  0  0  0  0  0  0  0  0  0
    1.0388    0.4724   -4.8244 O   0  0  0  0  0  0  0  0  0  0  0  0
    2.5002   -1.1988   -6.7874 F   0  0  0  0  0  0  0  0  0  0  0  0
    4.0574    0.2763   -7.1608 F   0  0  0  0  0  0  0  0  0  0  0  0
    3.7494   -0.4956   -5.1474 F   0  0  0  0  0  0  0  0  0  0  0  0
  1  2  2  0  0  0  0
  1  6  1  0  0  0  0
  2  3  1  0  0  0  0
  3 20  1  0  0  0  0
  3  4  2  0  0  0  0
  4  9  1  0  0  0  0
  5  4  1  0  0  0  0
  5 10  1  0  0  0  0
  6  5  2  0  0  0  0
  7  1  1  0  0  0  0
  8  2  1  0  0  0  0
 11  6  1  0  0  0  0
 11 12  2  0  0  0  0
 13 11  2  0  0  0  0
 15 14  3  0  0  0  0
 16 19  2  0  0  0  0
 16 20  1  0  0  0  0
 17 16  1  0  0  0  0
 17 23  1  0  0  0  0
 18 16  2  0  0  0  0
 21 17  1  0  0  0  0
 22 17  1  0  0  0  0
M  END
