Coordinates from ORCA-job 4-NO2-Ph-N2-OTf-B3LYPG-6-31G_dp-MTMO-d009-169-n800
 OpenBabel09051908473D

 23 22  0  0  0  0  0  0  0  0999 V2000
   -2.6480   -1.2799   -6.1155 C   0  0  0  0  0  0  0  0  0  0  0  0
   -1.2767   -1.0654   -6.0226 C   0  0  0  0  0  0  0  0  0  0  0  0
   -0.7425   -0.6016   -4.8204 C   0  0  0  0  0  0  0  0  0  0  0  0
   -1.5389   -0.3474   -3.7036 C   0  0  0  0  0  0  0  0  0  0  0  0
   -2.9123   -0.5523   -3.7997 C   0  0  0  0  0  0  0  0  0  0  0  0
   -3.4436   -1.0163   -5.0017 C   0  0  0  0  0  0  0  0  0  0  0  0
   -3.1067   -1.6415   -7.0268 H   0  0  0  0  0  0  0  0  0  0  0  0
   -0.6190   -1.2554   -6.8629 H   0  0  0  0  0  0  0  0  0  0  0  0
   -1.0915    0.0070   -2.7834 H   0  0  0  0  0  0  0  0  0  0  0  0
   -3.5719   -0.3657   -2.9619 H   0  0  0  0  0  0  0  0  0  0  0  0
   -4.8965   -1.2389   -5.0979 N   0  0  0  0  0  0  0  0  0  0  0  0
   -5.5751   -1.0000   -4.1010 O   0  0  0  0  0  0  0  0  0  0  0  0
   -5.3378   -1.6501   -6.1697 O   0  0  0  0  0  0  0  0  0  0  0  0
    7.3244    6.6470  -10.2180 N   0  0  0  0  0  0  0  0  0  0  0  0
    6.5102    6.0058   -9.8339 N   0  0  0  0  0  0  0  0  0  0  0  0
    1.3857    0.9758   -4.5195 S   0  0  0  0  0  0  0  0  0  0  0  0
    1.6165    1.4565   -6.3134 C   0  0  0  0  0  0  0  0  0  0  0  0
    0.4584    1.9240   -3.9267 O   0  0  0  0  0  0  0  0  0  0  0  0
    2.6904    0.6737   -3.9705 O   0  0  0  0  0  0  0  0  0  0  0  0
    0.6533   -0.4909   -4.7439 O   0  0  0  0  0  0  0  0  0  0  0  0
    0.4217    1.5362   -6.9018 F   0  0  0  0  0  0  0  0  0  0  0  0
    2.2209    2.6389   -6.3545 F   0  0  0  0  0  0  0  0  0  0  0  0
    2.3581    0.5419   -6.9287 F   0  0  0  0  0  0  0  0  0  0  0  0
  1  2  2  0  0  0  0
  1  6  1  0  0  0  0
  2  3  1  0  0  0  0
  3 20  1  0  0  0  0
  3  4  2  0  0  0  0
  4  9  1  0  0  0  0
  5  4  1  0  0  0  0
  5 10  1  0  0  0  0
  6  5  2  0  0  0  0
  7  1  1  0  0  0  0
  8  2  1  0  0  0  0
 11  6  1  0  0  0  0
 11 12  2  0  0  0  0
 13 11  2  0  0  0  0
 14 15  3  0  0  0  0
 16 19  2  0  0  0  0
 16 18  2  0  0  0  0
 17 16  1  0  0  0  0
 20 16  1  0  0  0  0
 21 17  1  0  0  0  0
 22 17  1  0  0  0  0
 23 17  1  0  0  0  0
M  END
