Coordinates from ORCA-job 4-NO2-Ph-N2-OTf-B3LYPG-6-31G_dp-MTMO-d009-169-n800
 OpenBabel09051908473D

 23 22  0  0  0  0  0  0  0  0999 V2000
   -2.6779   -1.3030   -6.0980 C   0  0  0  0  0  0  0  0  0  0  0  0
   -1.3067   -1.0881   -6.0056 C   0  0  0  0  0  0  0  0  0  0  0  0
   -0.7720   -0.6252   -4.8033 C   0  0  0  0  0  0  0  0  0  0  0  0
   -1.5680   -0.3723   -3.6858 C   0  0  0  0  0  0  0  0  0  0  0  0
   -2.9413   -0.5776   -3.7815 C   0  0  0  0  0  0  0  0  0  0  0  0
   -3.4731   -1.0406   -4.9836 C   0  0  0  0  0  0  0  0  0  0  0  0
   -3.1369   -1.6639   -7.0094 H   0  0  0  0  0  0  0  0  0  0  0  0
   -0.6493   -1.2771   -6.8463 H   0  0  0  0  0  0  0  0  0  0  0  0
   -1.1203   -0.0185   -2.7655 H   0  0  0  0  0  0  0  0  0  0  0  0
   -3.6006   -0.3919   -2.9431 H   0  0  0  0  0  0  0  0  0  0  0  0
   -4.9260   -1.2637   -5.0793 N   0  0  0  0  0  0  0  0  0  0  0  0
   -5.6042   -1.0259   -4.0819 O   0  0  0  0  0  0  0  0  0  0  0  0
   -5.3677   -1.6741   -6.1512 O   0  0  0  0  0  0  0  0  0  0  0  0
    7.6403    6.8932  -10.4008 N   0  0  0  0  0  0  0  0  0  0  0  0
    6.8228    6.2510  -10.0253 N   0  0  0  0  0  0  0  0  0  0  0  0
    1.3558    0.9526   -4.5019 S   0  0  0  0  0  0  0  0  0  0  0  0
    1.5851    1.4354   -6.2955 C   0  0  0  0  0  0  0  0  0  0  0  0
    0.4286    1.8999   -3.9075 O   0  0  0  0  0  0  0  0  0  0  0  0
    2.6610    0.6503   -3.9542 O   0  0  0  0  0  0  0  0  0  0  0  0
    0.6238   -0.5141   -4.7273 O   0  0  0  0  0  0  0  0  0  0  0  0
    0.3898    1.5154   -6.8829 F   0  0  0  0  0  0  0  0  0  0  0  0
    2.1892    2.6179   -6.3357 F   0  0  0  0  0  0  0  0  0  0  0  0
    2.3265    0.5216   -6.9124 F   0  0  0  0  0  0  0  0  0  0  0  0
  1  2  2  0  0  0  0
  1  6  1  0  0  0  0
  2  3  1  0  0  0  0
  3 20  1  0  0  0  0
  3  4  2  0  0  0  0
  4  9  1  0  0  0  0
  5  4  1  0  0  0  0
  5 10  1  0  0  0  0
  6  5  2  0  0  0  0
  7  1  1  0  0  0  0
  8  2  1  0  0  0  0
 11  6  1  0  0  0  0
 11 12  2  0  0  0  0
 13 11  2  0  0  0  0
 14 15  3  0  0  0  0
 16 19  2  0  0  0  0
 16 18  2  0  0  0  0
 17 16  1  0  0  0  0
 20 16  1  0  0  0  0
 21 17  1  0  0  0  0
 22 17  1  0  0  0  0
 23 17  1  0  0  0  0
M  END
