Coordinates from ORCA-job 4-NO2-Ph-N2-OTf-B3LYPG-6-31G_dp-MTMO-d009-169-n800
 OpenBabel09051908473D

 23 22  0  0  0  0  0  0  0  0999 V2000
   -2.0721   -0.9246   -6.1577 C   0  0  0  0  0  0  0  0  0  0  0  0
   -0.7184   -0.6249   -6.0379 C   0  0  0  0  0  0  0  0  0  0  0  0
   -0.3147    0.2846   -5.0606 C   0  0  0  0  0  0  0  0  0  0  0  0
   -1.2230    0.8902   -4.1930 C   0  0  0  0  0  0  0  0  0  0  0  0
   -2.5749    0.5820   -4.3051 C   0  0  0  0  0  0  0  0  0  0  0  0
   -2.9780   -0.3184   -5.2897 C   0  0  0  0  0  0  0  0  0  0  0  0
   -2.4328   -1.6228   -6.9028 H   0  0  0  0  0  0  0  0  0  0  0  0
    0.0104   -1.0904   -6.6886 H   0  0  0  0  0  0  0  0  0  0  0  0
   -0.8617    1.5866   -3.4452 H   0  0  0  0  0  0  0  0  0  0  0  0
   -3.3152    1.0258   -3.6521 H   0  0  0  0  0  0  0  0  0  0  0  0
   -4.4085   -0.6442   -5.4128 N   0  0  0  0  0  0  0  0  0  0  0  0
   -5.1845   -0.0982   -4.6304 O   0  0  0  0  0  0  0  0  0  0  0  0
   -4.7363   -1.4421   -6.2893 O   0  0  0  0  0  0  0  0  0  0  0  0
   -0.2781    3.7657   -5.6029 N   0  0  0  0  0  0  0  0  0  0  0  0
   -0.5452    4.7487   -6.0310 N   0  0  0  0  0  0  0  0  0  0  0  0
    1.9971    1.2525   -5.9919 S   0  0  0  0  0  0  0  0  0  0  0  0
    3.1632   -0.1915   -6.2218 C   0  0  0  0  0  0  0  0  0  0  0  0
    1.2554    1.4310   -7.2281 O   0  0  0  0  0  0  0  0  0  0  0  0
    2.7493    2.3105   -5.3484 O   0  0  0  0  0  0  0  0  0  0  0  0
    1.0415    0.5570   -4.8322 O   0  0  0  0  0  0  0  0  0  0  0  0
    2.4837   -1.2451   -6.6823 F   0  0  0  0  0  0  0  0  0  0  0  0
    4.0862    0.1660   -7.1094 F   0  0  0  0  0  0  0  0  0  0  0  0
    3.7359   -0.4975   -5.0647 F   0  0  0  0  0  0  0  0  0  0  0  0
  1  2  2  0  0  0  0
  1  6  1  0  0  0  0
  2  3  1  0  0  0  0
  3 20  1  0  0  0  0
  3  4  2  0  0  0  0
  4  9  1  0  0  0  0
  5  4  1  0  0  0  0
  5 10  1  0  0  0  0
  6  5  2  0  0  0  0
  7  1  1  0  0  0  0
  8  2  1  0  0  0  0
 11  6  1  0  0  0  0
 11 12  2  0  0  0  0
 13 11  2  0  0  0  0
 15 14  3  0  0  0  0
 16 19  2  0  0  0  0
 16 20  1  0  0  0  0
 17 16  1  0  0  0  0
 17 23  1  0  0  0  0
 18 16  2  0  0  0  0
 21 17  1  0  0  0  0
 22 17  1  0  0  0  0
M  END
