Coordinates from ORCA-job 4-NO2-Ph-N2-OTf-B3LYPG-6-31G_dp-MTMO-d009-169-n800
 OpenBabel09051908473D

 23 22  0  0  0  0  0  0  0  0999 V2000
   -2.6529   -1.2836   -6.1127 C   0  0  0  0  0  0  0  0  0  0  0  0
   -1.2817   -1.0691   -6.0198 C   0  0  0  0  0  0  0  0  0  0  0  0
   -0.7474   -0.6055   -4.8176 C   0  0  0  0  0  0  0  0  0  0  0  0
   -1.5437   -0.3517   -3.7006 C   0  0  0  0  0  0  0  0  0  0  0  0
   -2.9171   -0.5567   -3.7967 C   0  0  0  0  0  0  0  0  0  0  0  0
   -3.4485   -1.0203   -4.9988 C   0  0  0  0  0  0  0  0  0  0  0  0
   -3.1116   -1.6450   -7.0241 H   0  0  0  0  0  0  0  0  0  0  0  0
   -0.6240   -1.2588   -6.8602 H   0  0  0  0  0  0  0  0  0  0  0  0
   -1.0963    0.0025   -2.7804 H   0  0  0  0  0  0  0  0  0  0  0  0
   -3.5767   -0.3703   -2.9588 H   0  0  0  0  0  0  0  0  0  0  0  0
   -4.9014   -1.2431   -5.0950 N   0  0  0  0  0  0  0  0  0  0  0  0
   -5.5800   -1.0044   -4.0980 O   0  0  0  0  0  0  0  0  0  0  0  0
   -5.3428   -1.6540   -6.1668 O   0  0  0  0  0  0  0  0  0  0  0  0
    7.3770    6.6878  -10.2487 N   0  0  0  0  0  0  0  0  0  0  0  0
    6.5621    6.0464   -9.8664 N   0  0  0  0  0  0  0  0  0  0  0  0
    1.3807    0.9719   -4.5163 S   0  0  0  0  0  0  0  0  0  0  0  0
    1.6113    1.4532   -6.3102 C   0  0  0  0  0  0  0  0  0  0  0  0
    0.4534    1.9198   -3.9232 O   0  0  0  0  0  0  0  0  0  0  0  0
    2.6855    0.6697   -3.9676 O   0  0  0  0  0  0  0  0  0  0  0  0
    0.6484   -0.4948   -4.7411 O   0  0  0  0  0  0  0  0  0  0  0  0
    0.4164    1.5329   -6.8984 F   0  0  0  0  0  0  0  0  0  0  0  0
    2.2156    2.6355   -6.3509 F   0  0  0  0  0  0  0  0  0  0  0  0
    2.3529    0.5388   -6.9258 F   0  0  0  0  0  0  0  0  0  0  0  0
  1  2  2  0  0  0  0
  1  6  1  0  0  0  0
  2  3  1  0  0  0  0
  3 20  1  0  0  0  0
  3  4  2  0  0  0  0
  4  9  1  0  0  0  0
  5  4  1  0  0  0  0
  5 10  1  0  0  0  0
  6  5  2  0  0  0  0
  7  1  1  0  0  0  0
  8  2  1  0  0  0  0
 11  6  1  0  0  0  0
 11 12  2  0  0  0  0
 13 11  2  0  0  0  0
 14 15  3  0  0  0  0
 16 19  2  0  0  0  0
 16 18  2  0  0  0  0
 17 16  1  0  0  0  0
 20 16  1  0  0  0  0
 21 17  1  0  0  0  0
 22 17  1  0  0  0  0
 23 17  1  0  0  0  0
M  END
