Coordinates from ORCA-job 4-NO2-Ph-N2-OTf-B3LYPG-6-31G_dp-MTMO-d009-169-n800
 OpenBabel09051908473D

 23 22  0  0  0  0  0  0  0  0999 V2000
   -1.9812   -1.6016   -5.5730 C   0  0  0  0  0  0  0  0  0  0  0  0
   -0.6403   -1.2982   -5.3608 C   0  0  0  0  0  0  0  0  0  0  0  0
   -0.2915   -0.0039   -4.9760 C   0  0  0  0  0  0  0  0  0  0  0  0
   -1.2429    1.0001   -4.7949 C   0  0  0  0  0  0  0  0  0  0  0  0
   -2.5834    0.6983   -5.0169 C   0  0  0  0  0  0  0  0  0  0  0  0
   -2.9305   -0.5959   -5.3995 C   0  0  0  0  0  0  0  0  0  0  0  0
   -2.3005   -2.5923   -5.8701 H   0  0  0  0  0  0  0  0  0  0  0  0
    0.1330   -2.0473   -5.4854 H   0  0  0  0  0  0  0  0  0  0  0  0
   -0.9392    1.9945   -4.4917 H   0  0  0  0  0  0  0  0  0  0  0  0
   -3.3587    1.4433   -4.8918 H   0  0  0  0  0  0  0  0  0  0  0  0
   -4.3508   -0.9139   -5.6259 N   0  0  0  0  0  0  0  0  0  0  0  0
   -5.1679   -0.0095   -5.4649 O   0  0  0  0  0  0  0  0  0  0  0  0
   -4.6280   -2.0640   -5.9614 O   0  0  0  0  0  0  0  0  0  0  0  0
    0.1450    5.0546   -4.6918 N   0  0  0  0  0  0  0  0  0  0  0  0
    0.7722    5.8453   -5.1419 N   0  0  0  0  0  0  0  0  0  0  0  0
    1.9630    1.2927   -5.5678 S   0  0  0  0  0  0  0  0  0  0  0  0
    2.6485    0.0923   -6.8302 C   0  0  0  0  0  0  0  0  0  0  0  0
    1.1068    2.2307   -6.2735 O   0  0  0  0  0  0  0  0  0  0  0  0
    3.0516    1.6933   -4.7017 O   0  0  0  0  0  0  0  0  0  0  0  0
    1.0593    0.2311   -4.6791 O   0  0  0  0  0  0  0  0  0  0  0  0
    1.6371   -0.4585   -7.5041 F   0  0  0  0  0  0  0  0  0  0  0  0
    3.4338    0.7657   -7.6640 F   0  0  0  0  0  0  0  0  0  0  0  0
    3.3436   -0.8557   -6.2116 F   0  0  0  0  0  0  0  0  0  0  0  0
  1  6  2  0  0  0  0
  1  2  1  0  0  0  0
  2  3  2  0  0  0  0
  3  4  1  0  0  0  0
  3 20  1  0  0  0  0
  4  9  1  0  0  0  0
  5 10  1  0  0  0  0
  5  4  2  0  0  0  0
  6  5  1  0  0  0  0
  7  1  1  0  0  0  0
  8  2  1  0  0  0  0
 11 12  2  0  0  0  0
 11  6  1  0  0  0  0
 13 11  2  0  0  0  0
 15 14  3  0  0  0  0
 16 19  2  0  0  0  0
 16 20  1  0  0  0  0
 17 23  1  0  0  0  0
 17 16  1  0  0  0  0
 18 16  2  0  0  0  0
 21 17  1  0  0  0  0
 22 17  1  0  0  0  0
M  END
