Coordinates from ORCA-job 4-NO2-Ph-N2-OTf-B3LYPG-6-31G_dp-MTMO-d009-169-n800
 OpenBabel09051908473D

 23 22  0  0  0  0  0  0  0  0999 V2000
   -2.6492   -1.2808   -6.1148 C   0  0  0  0  0  0  0  0  0  0  0  0
   -1.2779   -1.0663   -6.0219 C   0  0  0  0  0  0  0  0  0  0  0  0
   -0.7437   -0.6026   -4.8197 C   0  0  0  0  0  0  0  0  0  0  0  0
   -1.5401   -0.3485   -3.7029 C   0  0  0  0  0  0  0  0  0  0  0  0
   -2.9135   -0.5534   -3.7990 C   0  0  0  0  0  0  0  0  0  0  0  0
   -3.4448   -1.0173   -5.0010 C   0  0  0  0  0  0  0  0  0  0  0  0
   -3.1079   -1.6423   -7.0262 H   0  0  0  0  0  0  0  0  0  0  0  0
   -0.6202   -1.2562   -6.8622 H   0  0  0  0  0  0  0  0  0  0  0  0
   -1.0927    0.0059   -2.7826 H   0  0  0  0  0  0  0  0  0  0  0  0
   -3.5731   -0.3669   -2.9611 H   0  0  0  0  0  0  0  0  0  0  0  0
   -4.8978   -1.2400   -5.0972 N   0  0  0  0  0  0  0  0  0  0  0  0
   -5.5764   -1.0011   -4.1003 O   0  0  0  0  0  0  0  0  0  0  0  0
   -5.3391   -1.6511   -6.1689 O   0  0  0  0  0  0  0  0  0  0  0  0
    7.3376    6.6572  -10.2257 N   0  0  0  0  0  0  0  0  0  0  0  0
    6.5231    6.0159   -9.8420 N   0  0  0  0  0  0  0  0  0  0  0  0
    1.3844    0.9748   -4.5187 S   0  0  0  0  0  0  0  0  0  0  0  0
    1.6152    1.4557   -6.3126 C   0  0  0  0  0  0  0  0  0  0  0  0
    0.4571    1.9229   -3.9258 O   0  0  0  0  0  0  0  0  0  0  0  0
    2.6892    0.6727   -3.9697 O   0  0  0  0  0  0  0  0  0  0  0  0
    0.6521   -0.4919   -4.7432 O   0  0  0  0  0  0  0  0  0  0  0  0
    0.4204    1.5354   -6.9009 F   0  0  0  0  0  0  0  0  0  0  0  0
    2.2196    2.6380   -6.3536 F   0  0  0  0  0  0  0  0  0  0  0  0
    2.3568    0.5411   -6.9280 F   0  0  0  0  0  0  0  0  0  0  0  0
  1  2  2  0  0  0  0
  1  6  1  0  0  0  0
  2  3  1  0  0  0  0
  3 20  1  0  0  0  0
  3  4  2  0  0  0  0
  4  9  1  0  0  0  0
  5  4  1  0  0  0  0
  5 10  1  0  0  0  0
  6  5  2  0  0  0  0
  7  1  1  0  0  0  0
  8  2  1  0  0  0  0
 11  6  1  0  0  0  0
 11 12  2  0  0  0  0
 13 11  2  0  0  0  0
 14 15  3  0  0  0  0
 16 19  2  0  0  0  0
 16 18  2  0  0  0  0
 17 16  1  0  0  0  0
 20 16  1  0  0  0  0
 21 17  1  0  0  0  0
 22 17  1  0  0  0  0
 23 17  1  0  0  0  0
M  END
