Coordinates from ORCA-job 4-NO2-Ph-N2-OTf-B3LYPG-6-31G_dp-MTMO-d009-169-n800
 OpenBabel09051908473D

 23 22  0  0  0  0  0  0  0  0999 V2000
   -2.6504   -1.2817   -6.1141 C   0  0  0  0  0  0  0  0  0  0  0  0
   -1.2792   -1.0672   -6.0212 C   0  0  0  0  0  0  0  0  0  0  0  0
   -0.7449   -0.6036   -4.8190 C   0  0  0  0  0  0  0  0  0  0  0  0
   -1.5413   -0.3496   -3.7021 C   0  0  0  0  0  0  0  0  0  0  0  0
   -2.9147   -0.5545   -3.7982 C   0  0  0  0  0  0  0  0  0  0  0  0
   -3.4461   -1.0183   -5.0002 C   0  0  0  0  0  0  0  0  0  0  0  0
   -3.1092   -1.6432   -7.0255 H   0  0  0  0  0  0  0  0  0  0  0  0
   -0.6215   -1.2571   -6.8615 H   0  0  0  0  0  0  0  0  0  0  0  0
   -1.0939    0.0047   -2.7819 H   0  0  0  0  0  0  0  0  0  0  0  0
   -3.5743   -0.3680   -2.9603 H   0  0  0  0  0  0  0  0  0  0  0  0
   -4.8990   -1.2410   -5.0965 N   0  0  0  0  0  0  0  0  0  0  0  0
   -5.5776   -1.0022   -4.0995 O   0  0  0  0  0  0  0  0  0  0  0  0
   -5.3403   -1.6521   -6.1682 O   0  0  0  0  0  0  0  0  0  0  0  0
    7.3507    6.6674  -10.2334 N   0  0  0  0  0  0  0  0  0  0  0  0
    6.5361    6.0261   -9.8502 N   0  0  0  0  0  0  0  0  0  0  0  0
    1.3832    0.9738   -4.5179 S   0  0  0  0  0  0  0  0  0  0  0  0
    1.6139    1.4549   -6.3118 C   0  0  0  0  0  0  0  0  0  0  0  0
    0.4559    1.9219   -3.9249 O   0  0  0  0  0  0  0  0  0  0  0  0
    2.6880    0.6717   -3.9690 O   0  0  0  0  0  0  0  0  0  0  0  0
    0.6509   -0.4929   -4.7425 O   0  0  0  0  0  0  0  0  0  0  0  0
    0.4190    1.5346   -6.9001 F   0  0  0  0  0  0  0  0  0  0  0  0
    2.2182    2.6372   -6.3527 F   0  0  0  0  0  0  0  0  0  0  0  0
    2.3555    0.5404   -6.9272 F   0  0  0  0  0  0  0  0  0  0  0  0
  1  2  2  0  0  0  0
  1  6  1  0  0  0  0
  2  3  1  0  0  0  0
  3 20  1  0  0  0  0
  3  4  2  0  0  0  0
  4  9  1  0  0  0  0
  5  4  1  0  0  0  0
  5 10  1  0  0  0  0
  6  5  2  0  0  0  0
  7  1  1  0  0  0  0
  8  2  1  0  0  0  0
 11  6  1  0  0  0  0
 11 12  2  0  0  0  0
 13 11  2  0  0  0  0
 14 15  3  0  0  0  0
 16 19  2  0  0  0  0
 16 18  2  0  0  0  0
 17 16  1  0  0  0  0
 20 16  1  0  0  0  0
 21 17  1  0  0  0  0
 22 17  1  0  0  0  0
 23 17  1  0  0  0  0
M  END
