Coordinates from ORCA-job 4-NO2-Ph-N2-OTf-B3LYPG-6-31G_dp-MTMO-d009-169-n800
 OpenBabel09051908483D

 23 22  0  0  0  0  0  0  0  0999 V2000
   -2.7628   -1.3703   -6.0463 C   0  0  0  0  0  0  0  0  0  0  0  0
   -1.3917   -1.1534   -5.9574 C   0  0  0  0  0  0  0  0  0  0  0  0
   -0.8546   -0.6901   -4.7563 C   0  0  0  0  0  0  0  0  0  0  0  0
   -1.6480   -0.4389   -3.6367 C   0  0  0  0  0  0  0  0  0  0  0  0
   -3.0213   -0.6462   -3.7288 C   0  0  0  0  0  0  0  0  0  0  0  0
   -3.5555   -1.1096   -4.9297 C   0  0  0  0  0  0  0  0  0  0  0  0
   -3.2237   -1.7317   -6.9567 H   0  0  0  0  0  0  0  0  0  0  0  0
   -0.7362   -1.3412   -6.7999 H   0  0  0  0  0  0  0  0  0  0  0  0
   -1.1985   -0.0848   -2.7174 H   0  0  0  0  0  0  0  0  0  0  0  0
   -3.6787   -0.4618   -2.8887 H   0  0  0  0  0  0  0  0  0  0  0  0
   -5.0083   -1.3349   -5.0217 N   0  0  0  0  0  0  0  0  0  0  0  0
   -5.6843   -1.0984   -4.0224 O   0  0  0  0  0  0  0  0  0  0  0  0
   -5.4522   -1.7457   -6.0926 O   0  0  0  0  0  0  0  0  0  0  0  0
    8.5259    7.5808  -10.9060 N   0  0  0  0  0  0  0  0  0  0  0  0
    7.7047    6.9400  -10.5361 N   0  0  0  0  0  0  0  0  0  0  0  0
    1.2717    0.8904   -4.4597 S   0  0  0  0  0  0  0  0  0  0  0  0
    1.4954    1.3746   -6.2536 C   0  0  0  0  0  0  0  0  0  0  0  0
    0.3449    1.8361   -3.8622 O   0  0  0  0  0  0  0  0  0  0  0  0
    2.5790    0.5898   -3.9159 O   0  0  0  0  0  0  0  0  0  0  0  0
    0.5412   -0.5772   -4.6839 O   0  0  0  0  0  0  0  0  0  0  0  0
    0.2983    1.4535   -6.8376 F   0  0  0  0  0  0  0  0  0  0  0  0
    2.0979    2.5579   -6.2948 F   0  0  0  0  0  0  0  0  0  0  0  0
    2.2361    0.4622   -6.8732 F   0  0  0  0  0  0  0  0  0  0  0  0
  1  2  2  0  0  0  0
  1  6  1  0  0  0  0
  2  3  1  0  0  0  0
  3 20  1  0  0  0  0
  3  4  2  0  0  0  0
  4  9  1  0  0  0  0
  5  4  1  0  0  0  0
  5 10  1  0  0  0  0
  6  5  2  0  0  0  0
  7  1  1  0  0  0  0
  8  2  1  0  0  0  0
 11  6  1  0  0  0  0
 11 12  2  0  0  0  0
 13 11  2  0  0  0  0
 14 15  3  0  0  0  0
 16 19  2  0  0  0  0
 16 18  2  0  0  0  0
 17 16  1  0  0  0  0
 20 16  1  0  0  0  0
 21 17  1  0  0  0  0
 22 17  1  0  0  0  0
 23 17  1  0  0  0  0
M  END
