Coordinates from ORCA-job 4-NO2-Ph-N2-OTf-B3LYPG-6-31G_dp-MTMO-d009-169-n800
 OpenBabel09051908483D

 23 22  0  0  0  0  0  0  0  0999 V2000
   -2.7718   -1.3775   -6.0408 C   0  0  0  0  0  0  0  0  0  0  0  0
   -1.4007   -1.1602   -5.9524 C   0  0  0  0  0  0  0  0  0  0  0  0
   -0.8633   -0.6969   -4.7515 C   0  0  0  0  0  0  0  0  0  0  0  0
   -1.6563   -0.4458   -3.6316 C   0  0  0  0  0  0  0  0  0  0  0  0
   -3.0296   -0.6534   -3.7232 C   0  0  0  0  0  0  0  0  0  0  0  0
   -3.5641   -1.1170   -4.9239 C   0  0  0  0  0  0  0  0  0  0  0  0
   -3.2329   -1.7389   -6.9510 H   0  0  0  0  0  0  0  0  0  0  0  0
   -0.7454   -1.3479   -6.7952 H   0  0  0  0  0  0  0  0  0  0  0  0
   -1.2065   -0.0916   -2.7125 H   0  0  0  0  0  0  0  0  0  0  0  0
   -3.6867   -0.4692   -2.8829 H   0  0  0  0  0  0  0  0  0  0  0  0
   -5.0169   -1.3426   -5.0154 N   0  0  0  0  0  0  0  0  0  0  0  0
   -5.6926   -1.1063   -4.0159 O   0  0  0  0  0  0  0  0  0  0  0  0
   -5.4610   -1.7535   -6.0861 O   0  0  0  0  0  0  0  0  0  0  0  0
    8.6187    7.6524  -10.9586 N   0  0  0  0  0  0  0  0  0  0  0  0
    7.7975    7.0119  -10.5885 N   0  0  0  0  0  0  0  0  0  0  0  0
    1.2629    0.8842   -4.4556 S   0  0  0  0  0  0  0  0  0  0  0  0
    1.4858    1.3684   -6.2496 C   0  0  0  0  0  0  0  0  0  0  0  0
    0.3360    1.8296   -3.8577 O   0  0  0  0  0  0  0  0  0  0  0  0
    2.5704    0.5837   -3.9122 O   0  0  0  0  0  0  0  0  0  0  0  0
    0.5326   -0.5836   -4.6796 O   0  0  0  0  0  0  0  0  0  0  0  0
    0.2885    1.4471   -6.8331 F   0  0  0  0  0  0  0  0  0  0  0  0
    2.0881    2.5518   -6.2910 F   0  0  0  0  0  0  0  0  0  0  0  0
    2.2265    0.4562   -6.8695 F   0  0  0  0  0  0  0  0  0  0  0  0
  1  2  2  0  0  0  0
  1  6  1  0  0  0  0
  2  3  1  0  0  0  0
  3 20  1  0  0  0  0
  3  4  2  0  0  0  0
  4  9  1  0  0  0  0
  5  4  1  0  0  0  0
  5 10  1  0  0  0  0
  6  5  2  0  0  0  0
  7  1  1  0  0  0  0
  8  2  1  0  0  0  0
 11  6  1  0  0  0  0
 11 12  2  0  0  0  0
 13 11  2  0  0  0  0
 14 15  3  0  0  0  0
 16 19  2  0  0  0  0
 16 18  2  0  0  0  0
 17 16  1  0  0  0  0
 20 16  1  0  0  0  0
 21 17  1  0  0  0  0
 22 17  1  0  0  0  0
 23 17  1  0  0  0  0
M  END
