Coordinates from ORCA-job 4-NO2-Ph-N2-OTf-B3LYPG-6-31G_dp-MTMO-d009-169-n800
 OpenBabel09051908473D

 23 22  0  0  0  0  0  0  0  0999 V2000
   -1.9608   -1.3875   -6.1605 C   0  0  0  0  0  0  0  0  0  0  0  0
   -0.6406   -1.1625   -5.7840 C   0  0  0  0  0  0  0  0  0  0  0  0
   -0.3759   -0.2831   -4.7343 C   0  0  0  0  0  0  0  0  0  0  0  0
   -1.3921    0.3795   -4.0460 C   0  0  0  0  0  0  0  0  0  0  0  0
   -2.7126    0.1608   -4.4279 C   0  0  0  0  0  0  0  0  0  0  0  0
   -2.9749   -0.7192   -5.4764 C   0  0  0  0  0  0  0  0  0  0  0  0
   -2.2158   -2.0623   -6.9680 H   0  0  0  0  0  0  0  0  0  0  0  0
    0.1817   -1.6580   -6.2865 H   0  0  0  0  0  0  0  0  0  0  0  0
   -1.1493    1.0526   -3.2330 H   0  0  0  0  0  0  0  0  0  0  0  0
   -3.5359    0.6523   -3.9264 H   0  0  0  0  0  0  0  0  0  0  0  0
   -4.3736   -0.9537   -5.8747 N   0  0  0  0  0  0  0  0  0  0  0  0
   -5.2488   -0.3521   -5.2553 O   0  0  0  0  0  0  0  0  0  0  0  0
   -4.5758   -1.7363   -6.8016 O   0  0  0  0  0  0  0  0  0  0  0  0
    1.5174    5.2631   -8.1976 N   0  0  0  0  0  0  0  0  0  0  0  0
    1.5969    4.2152   -7.8554 N   0  0  0  0  0  0  0  0  0  0  0  0
    1.7781    1.2700   -4.5115 S   0  0  0  0  0  0  0  0  0  0  0  0
    2.4488    0.9957   -6.2383 C   0  0  0  0  0  0  0  0  0  0  0  0
    0.8510    2.3869   -4.5672 O   0  0  0  0  0  0  0  0  0  0  0  0
    2.8917    1.1924   -3.5897 O   0  0  0  0  0  0  0  0  0  0  0  0
    0.9597   -0.1564   -4.3273 O   0  0  0  0  0  0  0  0  0  0  0  0
    1.4350    0.9815   -7.1039 F   0  0  0  0  0  0  0  0  0  0  0  0
    3.2817    1.9890   -6.5277 F   0  0  0  0  0  0  0  0  0  0  0  0
    3.0931   -0.1669   -6.2849 F   0  0  0  0  0  0  0  0  0  0  0  0
  1  2  2  0  0  0  0
  1  6  1  0  0  0  0
  2  3  1  0  0  0  0
  3 20  1  0  0  0  0
  3  4  2  0  0  0  0
  4  9  1  0  0  0  0
  5  4  1  0  0  0  0
  5 10  1  0  0  0  0
  6  5  2  0  0  0  0
  7  1  1  0  0  0  0
  8  2  1  0  0  0  0
 11  6  1  0  0  0  0
 11 12  2  0  0  0  0
 13 11  2  0  0  0  0
 14 15  3  0  0  0  0
 16 20  1  0  0  0  0
 16 19  2  0  0  0  0
 17 16  1  0  0  0  0
 18 16  2  0  0  0  0
 21 17  1  0  0  0  0
 22 17  1  0  0  0  0
 23 17  1  0  0  0  0
M  END
