Coordinates from ORCA-job 4-NO2-Ph-N2-OTf-B3LYPG-6-31G_dp-MTMO-d009-169-n800
 OpenBabel09051908473D

 23 22  0  0  0  0  0  0  0  0999 V2000
   -1.9781   -1.5505   -5.4682 C   0  0  0  0  0  0  0  0  0  0  0  0
   -0.6497   -1.1661   -5.3151 C   0  0  0  0  0  0  0  0  0  0  0  0
   -0.3566    0.1788   -5.0927 C   0  0  0  0  0  0  0  0  0  0  0  0
   -1.3500    1.1545   -5.0178 C   0  0  0  0  0  0  0  0  0  0  0  0
   -2.6782    0.7711   -5.1787 C   0  0  0  0  0  0  0  0  0  0  0  0
   -2.9699   -0.5738   -5.3994 C   0  0  0  0  0  0  0  0  0  0  0  0
   -2.2558   -2.5824   -5.6415 H   0  0  0  0  0  0  0  0  0  0  0  0
    0.1546   -1.8906   -5.3640 H   0  0  0  0  0  0  0  0  0  0  0  0
   -1.0834    2.1885   -4.8343 H   0  0  0  0  0  0  0  0  0  0  0  0
   -3.4856    1.4904   -5.1304 H   0  0  0  0  0  0  0  0  0  0  0  0
   -4.3768   -0.9786   -5.5630 N   0  0  0  0  0  0  0  0  0  0  0  0
   -5.2326   -0.0986   -5.4934 O   0  0  0  0  0  0  0  0  0  0  0  0
   -4.6053   -2.1716   -5.7553 O   0  0  0  0  0  0  0  0  0  0  0  0
    0.4602    4.4851   -4.2444 N   0  0  0  0  0  0  0  0  0  0  0  0
    1.0435    5.4144   -4.1147 N   0  0  0  0  0  0  0  0  0  0  0  0
    1.8362    1.4181   -5.9427 S   0  0  0  0  0  0  0  0  0  0  0  0
    2.7621    0.0190   -6.7700 C   0  0  0  0  0  0  0  0  0  0  0  0
    0.9437    2.0035   -6.9278 O   0  0  0  0  0  0  0  0  0  0  0  0
    2.7960    2.1825   -5.1731 O   0  0  0  0  0  0  0  0  0  0  0  0
    0.9818    0.5202   -4.8470 O   0  0  0  0  0  0  0  0  0  0  0  0
    1.8834   -0.8322   -7.3047 F   0  0  0  0  0  0  0  0  0  0  0  0
    3.5291    0.5332   -7.7257 F   0  0  0  0  0  0  0  0  0  0  0  0
    3.5105   -0.6138   -5.8739 F   0  0  0  0  0  0  0  0  0  0  0  0
  1  6  2  0  0  0  0
  1  2  1  0  0  0  0
  2  3  2  0  0  0  0
  3  4  1  0  0  0  0
  3 20  1  0  0  0  0
  4  9  1  0  0  0  0
  5 10  1  0  0  0  0
  5  4  2  0  0  0  0
  6  5  1  0  0  0  0
  7  1  1  0  0  0  0
  8  2  1  0  0  0  0
 11 12  2  0  0  0  0
 11  6  1  0  0  0  0
 13 11  2  0  0  0  0
 14 15  3  0  0  0  0
 16 19  2  0  0  0  0
 16 20  1  0  0  0  0
 17 16  1  0  0  0  0
 17 23  1  0  0  0  0
 18 16  2  0  0  0  0
 21 17  1  0  0  0  0
 22 17  1  0  0  0  0
M  END
