Coordinates from ORCA-job 4-NO2-Ph-N2-OTf-B3LYPG-6-31G_dp-MTMO-d009-169-n800
 OpenBabel09051908473D

 23 22  0  0  0  0  0  0  0  0999 V2000
   -2.5281   -1.2080   -6.1607 C   0  0  0  0  0  0  0  0  0  0  0  0
   -1.1562   -0.9906   -6.0866 C   0  0  0  0  0  0  0  0  0  0  0  0
   -0.6121   -0.4861   -4.9053 C   0  0  0  0  0  0  0  0  0  0  0  0
   -1.3995   -0.1930   -3.7917 C   0  0  0  0  0  0  0  0  0  0  0  0
   -2.7735   -0.4010   -3.8693 C   0  0  0  0  0  0  0  0  0  0  0  0
   -3.3146   -0.9063   -5.0501 C   0  0  0  0  0  0  0  0  0  0  0  0
   -2.9943   -1.6005   -7.0554 H   0  0  0  0  0  0  0  0  0  0  0  0
   -0.5052   -1.2090   -6.9252 H   0  0  0  0  0  0  0  0  0  0  0  0
   -0.9445    0.1932   -2.8881 H   0  0  0  0  0  0  0  0  0  0  0  0
   -3.4263   -0.1853   -3.0331 H   0  0  0  0  0  0  0  0  0  0  0  0
   -4.7682   -1.1323   -5.1266 N   0  0  0  0  0  0  0  0  0  0  0  0
   -5.4383   -0.8612   -4.1322 O   0  0  0  0  0  0  0  0  0  0  0  0
   -5.2184   -1.5783   -6.1805 O   0  0  0  0  0  0  0  0  0  0  0  0
    5.9188    5.5981   -9.2137 N   0  0  0  0  0  0  0  0  0  0  0  0
    5.1354    4.9444   -8.7888 N   0  0  0  0  0  0  0  0  0  0  0  0
    1.5189    1.0992   -4.6767 S   0  0  0  0  0  0  0  0  0  0  0  0
    1.7582    1.5023   -6.4888 C   0  0  0  0  0  0  0  0  0  0  0  0
    0.5909    2.0728   -4.1278 O   0  0  0  0  0  0  0  0  0  0  0  0
    2.8209    0.8183   -4.1100 O   0  0  0  0  0  0  0  0  0  0  0  0
    0.7841   -0.3741   -4.8434 O   0  0  0  0  0  0  0  0  0  0  0  0
    0.5658    1.5569   -7.0851 F   0  0  0  0  0  0  0  0  0  0  0  0
    2.3640    2.6809   -6.5787 F   0  0  0  0  0  0  0  0  0  0  0  0
    2.5013    0.5607   -7.0602 F   0  0  0  0  0  0  0  0  0  0  0  0
  1  2  2  0  0  0  0
  1  6  1  0  0  0  0
  2  3  1  0  0  0  0
  3 20  1  0  0  0  0
  3  4  2  0  0  0  0
  4  9  1  0  0  0  0
  5  4  1  0  0  0  0
  5 10  1  0  0  0  0
  6  5  2  0  0  0  0
  7  1  1  0  0  0  0
  8  2  1  0  0  0  0
 11  6  1  0  0  0  0
 11 12  2  0  0  0  0
 13 11  2  0  0  0  0
 14 15  3  0  0  0  0
 16 18  2  0  0  0  0
 16 19  2  0  0  0  0
 17 16  1  0  0  0  0
 20 16  1  0  0  0  0
 21 17  1  0  0  0  0
 22 17  1  0  0  0  0
 23 17  1  0  0  0  0
M  END
