Coordinates from ORCA-job 4-NO2-Ph-N2-OTf-B3LYPG-6-31G_dp-MTMO-d009-169-n800
 OpenBabel09051908473D

 23 22  0  0  0  0  0  0  0  0999 V2000
   -2.6034   -1.2505   -6.1359 C   0  0  0  0  0  0  0  0  0  0  0  0
   -1.2318   -1.0373   -6.0453 C   0  0  0  0  0  0  0  0  0  0  0  0
   -0.6965   -0.5637   -4.8475 C   0  0  0  0  0  0  0  0  0  0  0  0
   -1.4922   -0.2983   -3.7328 C   0  0  0  0  0  0  0  0  0  0  0  0
   -2.8659   -0.5020   -3.8266 C   0  0  0  0  0  0  0  0  0  0  0  0
   -3.3983   -0.9758   -5.0243 C   0  0  0  0  0  0  0  0  0  0  0  0
   -3.0630   -1.6194   -7.0439 H   0  0  0  0  0  0  0  0  0  0  0  0
   -0.5746   -1.2356   -6.8840 H   0  0  0  0  0  0  0  0  0  0  0  0
   -1.0440    0.0637   -2.8159 H   0  0  0  0  0  0  0  0  0  0  0  0
   -3.5250   -0.3068   -2.9903 H   0  0  0  0  0  0  0  0  0  0  0  0
   -4.8516   -1.1971   -5.1181 N   0  0  0  0  0  0  0  0  0  0  0  0
   -5.5295   -0.9488   -4.1229 O   0  0  0  0  0  0  0  0  0  0  0  0
   -5.2939   -1.6167   -6.1861 O   0  0  0  0  0  0  0  0  0  0  0  0
    6.8240    6.2796   -9.8976 N   0  0  0  0  0  0  0  0  0  0  0  0
    6.0190    5.6369   -9.4969 N   0  0  0  0  0  0  0  0  0  0  0  0
    1.4341    1.0130   -4.5616 S   0  0  0  0  0  0  0  0  0  0  0  0
    1.6684    1.4746   -6.3602 C   0  0  0  0  0  0  0  0  0  0  0  0
    0.5075    1.9688   -3.9799 O   0  0  0  0  0  0  0  0  0  0  0  0
    2.7375    0.7143   -4.0075 O   0  0  0  0  0  0  0  0  0  0  0  0
    0.6995   -0.4547   -4.7722 O   0  0  0  0  0  0  0  0  0  0  0  0
    0.4745    1.5505   -6.9509 F   0  0  0  0  0  0  0  0  0  0  0  0
    2.2754    2.6550   -6.4128 F   0  0  0  0  0  0  0  0  0  0  0  0
    2.4088    0.5518   -6.9647 F   0  0  0  0  0  0  0  0  0  0  0  0
  1  2  2  0  0  0  0
  1  6  1  0  0  0  0
  2  3  1  0  0  0  0
  3 20  1  0  0  0  0
  3  4  2  0  0  0  0
  4  9  1  0  0  0  0
  5  4  1  0  0  0  0
  5 10  1  0  0  0  0
  6  5  2  0  0  0  0
  7  1  1  0  0  0  0
  8  2  1  0  0  0  0
 11  6  1  0  0  0  0
 11 12  2  0  0  0  0
 13 11  2  0  0  0  0
 14 15  3  0  0  0  0
 16 19  2  0  0  0  0
 16 18  2  0  0  0  0
 17 16  1  0  0  0  0
 20 16  1  0  0  0  0
 21 17  1  0  0  0  0
 22 17  1  0  0  0  0
 23 17  1  0  0  0  0
M  END
