Coordinates from ORCA-job 4-NO2-Ph-N2-OTf-B3LYPG-6-31G_dp-MTMO-d009-169-n800
 OpenBabel09051908473D

 23 22  0  0  0  0  0  0  0  0999 V2000
   -1.9432   -1.4025   -6.1328 C   0  0  0  0  0  0  0  0  0  0  0  0
   -0.6253   -1.1736   -5.7505 C   0  0  0  0  0  0  0  0  0  0  0  0
   -0.3638   -0.2458   -4.7424 C   0  0  0  0  0  0  0  0  0  0  0  0
   -1.3808    0.4613   -4.1014 C   0  0  0  0  0  0  0  0  0  0  0  0
   -2.6989    0.2383   -4.4893 C   0  0  0  0  0  0  0  0  0  0  0  0
   -2.9580   -0.6900   -5.4961 C   0  0  0  0  0  0  0  0  0  0  0  0
   -2.1957   -2.1140   -6.9091 H   0  0  0  0  0  0  0  0  0  0  0  0
    0.1975   -1.7026   -6.2167 H   0  0  0  0  0  0  0  0  0  0  0  0
   -1.1404    1.1717   -3.3199 H   0  0  0  0  0  0  0  0  0  0  0  0
   -3.5228    0.7631   -4.0238 H   0  0  0  0  0  0  0  0  0  0  0  0
   -4.3542   -0.9291   -5.9007 N   0  0  0  0  0  0  0  0  0  0  0  0
   -5.2302   -0.2883   -5.3231 O   0  0  0  0  0  0  0  0  0  0  0  0
   -4.5534   -1.7543   -6.7903 O   0  0  0  0  0  0  0  0  0  0  0  0
    1.1771    5.1931   -7.8000 N   0  0  0  0  0  0  0  0  0  0  0  0
    1.4583    4.1371   -7.6353 N   0  0  0  0  0  0  0  0  0  0  0  0
    1.8077    1.2898   -4.5764 S   0  0  0  0  0  0  0  0  0  0  0  0
    2.4896    0.9137   -6.2799 C   0  0  0  0  0  0  0  0  0  0  0  0
    0.8965    2.4145   -4.6993 O   0  0  0  0  0  0  0  0  0  0  0  0
    2.9121    1.2468   -3.6415 O   0  0  0  0  0  0  0  0  0  0  0  0
    0.9678   -0.1134   -4.3241 O   0  0  0  0  0  0  0  0  0  0  0  0
    1.4833    0.8679   -7.1532 F   0  0  0  0  0  0  0  0  0  0  0  0
    3.3402    1.8768   -6.6147 F   0  0  0  0  0  0  0  0  0  0  0  0
    3.1157   -0.2597   -6.2575 F   0  0  0  0  0  0  0  0  0  0  0  0
  1  2  2  0  0  0  0
  1  6  1  0  0  0  0
  2  3  1  0  0  0  0
  3 20  1  0  0  0  0
  3  4  2  0  0  0  0
  4  9  1  0  0  0  0
  5  4  1  0  0  0  0
  5 10  1  0  0  0  0
  6  5  2  0  0  0  0
  7  1  1  0  0  0  0
  8  2  1  0  0  0  0
 11  6  1  0  0  0  0
 11 12  2  0  0  0  0
 13 11  2  0  0  0  0
 14 15  3  0  0  0  0
 16 20  1  0  0  0  0
 16 19  2  0  0  0  0
 17 23  1  0  0  0  0
 17 16  1  0  0  0  0
 18 16  2  0  0  0  0
 21 17  1  0  0  0  0
 22 17  1  0  0  0  0
M  END
