Coordinates from ORCA-job 4-NO2-Ph-N2-OTf-B3LYPG-6-31G_dp-MTMO-d009-169-n800
 OpenBabel09051908473D

 23 22  0  0  0  0  0  0  0  0999 V2000
   -2.0742   -1.0965   -6.0664 C   0  0  0  0  0  0  0  0  0  0  0  0
   -0.7218   -0.7949   -5.9395 C   0  0  0  0  0  0  0  0  0  0  0  0
   -0.3370    0.2150   -5.0587 C   0  0  0  0  0  0  0  0  0  0  0  0
   -1.2618    0.9268   -4.2966 C   0  0  0  0  0  0  0  0  0  0  0  0
   -2.6140    0.6208   -4.4175 C   0  0  0  0  0  0  0  0  0  0  0  0
   -2.9974   -0.3851   -5.3024 C   0  0  0  0  0  0  0  0  0  0  0  0
   -2.4218   -1.8722   -6.7374 H   0  0  0  0  0  0  0  0  0  0  0  0
    0.0243   -1.3331   -6.5103 H   0  0  0  0  0  0  0  0  0  0  0  0
   -0.9159    1.7034   -3.6247 H   0  0  0  0  0  0  0  0  0  0  0  0
   -3.3687    1.1448   -3.8455 H   0  0  0  0  0  0  0  0  0  0  0  0
   -4.4282   -0.7099   -5.4325 N   0  0  0  0  0  0  0  0  0  0  0  0
   -5.2205   -0.0697   -4.7436 O   0  0  0  0  0  0  0  0  0  0  0  0
   -4.7390   -1.6009   -6.2209 O   0  0  0  0  0  0  0  0  0  0  0  0
   -0.1408    4.0597   -5.3878 N   0  0  0  0  0  0  0  0  0  0  0  0
   -0.0543    5.0786   -5.8064 N   0  0  0  0  0  0  0  0  0  0  0  0
    1.9278    1.2575   -5.9871 S   0  0  0  0  0  0  0  0  0  0  0  0
    3.1363   -0.1350   -6.3005 C   0  0  0  0  0  0  0  0  0  0  0  0
    1.1446    1.4610   -7.1935 O   0  0  0  0  0  0  0  0  0  0  0  0
    2.6634    2.3149   -5.3225 O   0  0  0  0  0  0  0  0  0  0  0  0
    1.0218    0.4862   -4.8351 O   0  0  0  0  0  0  0  0  0  0  0  0
    2.4870   -1.1890   -6.8022 F   0  0  0  0  0  0  0  0  0  0  0  0
    4.0352    0.2937   -7.1814 F   0  0  0  0  0  0  0  0  0  0  0  0
    3.7342   -0.4746   -5.1655 F   0  0  0  0  0  0  0  0  0  0  0  0
  1  2  2  0  0  0  0
  1  6  1  0  0  0  0
  2  3  1  0  0  0  0
  3 20  1  0  0  0  0
  3  4  2  0  0  0  0
  4  9  1  0  0  0  0
  5  4  1  0  0  0  0
  5 10  1  0  0  0  0
  6  5  2  0  0  0  0
  7  1  1  0  0  0  0
  8  2  1  0  0  0  0
 11  6  1  0  0  0  0
 11 12  2  0  0  0  0
 13 11  2  0  0  0  0
 15 14  3  0  0  0  0
 16 19  2  0  0  0  0
 16 20  1  0  0  0  0
 17 16  1  0  0  0  0
 17 23  1  0  0  0  0
 18 16  2  0  0  0  0
 21 17  1  0  0  0  0
 22 17  1  0  0  0  0
M  END
