Coordinates from ORCA-job 4-NO2-Ph-N2-OTf-B3LYPG-6-31G_dp-MTMO-d009-169-n800
 OpenBabel09051908473D

 23 22  0  0  0  0  0  0  0  0999 V2000
   -2.4669   -1.0610   -6.2529 C   0  0  0  0  0  0  0  0  0  0  0  0
   -1.1045   -0.7857   -6.1960 C   0  0  0  0  0  0  0  0  0  0  0  0
   -0.5452   -0.3767   -4.9854 C   0  0  0  0  0  0  0  0  0  0  0  0
   -1.3084   -0.2345   -3.8263 C   0  0  0  0  0  0  0  0  0  0  0  0
   -2.6733   -0.5001   -3.8855 C   0  0  0  0  0  0  0  0  0  0  0  0
   -3.2294   -0.9106   -5.0957 C   0  0  0  0  0  0  0  0  0  0  0  0
   -2.9439   -1.3846   -7.1691 H   0  0  0  0  0  0  0  0  0  0  0  0
   -0.4730   -0.8872   -7.0709 H   0  0  0  0  0  0  0  0  0  0  0  0
   -0.8421    0.0800   -2.9009 H   0  0  0  0  0  0  0  0  0  0  0  0
   -3.3072   -0.4012   -3.0135 H   0  0  0  0  0  0  0  0  0  0  0  0
   -4.6727   -1.1988   -5.1538 N   0  0  0  0  0  0  0  0  0  0  0  0
   -5.3219   -1.0598   -4.1190 O   0  0  0  0  0  0  0  0  0  0  0  0
   -5.1362   -1.5607   -6.2339 O   0  0  0  0  0  0  0  0  0  0  0  0
    5.3286    4.4227   -9.0159 N   0  0  0  0  0  0  0  0  0  0  0  0
    4.5487    3.8107   -8.5271 N   0  0  0  0  0  0  0  0  0  0  0  0
    1.5178    1.2817   -4.6620 S   0  0  0  0  0  0  0  0  0  0  0  0
    1.7837    1.8217   -6.4353 C   0  0  0  0  0  0  0  0  0  0  0  0
    0.5373    2.1765   -4.0716 O   0  0  0  0  0  0  0  0  0  0  0  0
    2.8179    1.0160   -4.0830 O   0  0  0  0  0  0  0  0  0  0  0  0
    0.8459   -0.2045   -4.9487 O   0  0  0  0  0  0  0  0  0  0  0  0
    0.6110    1.8232   -7.0722 F   0  0  0  0  0  0  0  0  0  0  0  0
    2.2928    3.0489   -6.4223 F   0  0  0  0  0  0  0  0  0  0  0  0
    2.6202    0.9850   -7.0370 F   0  0  0  0  0  0  0  0  0  0  0  0
  1  2  2  0  0  0  0
  1  6  1  0  0  0  0
  2  3  1  0  0  0  0
  3 20  1  0  0  0  0
  3  4  2  0  0  0  0
  4  9  1  0  0  0  0
  5  4  1  0  0  0  0
  5 10  1  0  0  0  0
  6  5  2  0  0  0  0
  7  1  1  0  0  0  0
  8  2  1  0  0  0  0
 11  6  1  0  0  0  0
 11 12  2  0  0  0  0
 13 11  2  0  0  0  0
 14 15  3  0  0  0  0
 16 19  2  0  0  0  0
 16 18  2  0  0  0  0
 17 22  1  0  0  0  0
 17 16  1  0  0  0  0
 20 16  1  0  0  0  0
 21 17  1  0  0  0  0
 23 17  1  0  0  0  0
M  END
