Coordinates from ORCA-job 4-NO2-Ph-N2-OTf-B3LYPG-6-31G_dp-MTMO-d009-169-n800
 OpenBabel09051908483D

 23 22  0  0  0  0  0  0  0  0999 V2000
   -2.8497   -1.4400   -5.9926 C   0  0  0  0  0  0  0  0  0  0  0  0
   -1.4788   -1.2195   -5.9090 C   0  0  0  0  0  0  0  0  0  0  0  0
   -0.9383   -0.7552   -4.7099 C   0  0  0  0  0  0  0  0  0  0  0  0
   -1.7280   -0.5063   -3.5871 C   0  0  0  0  0  0  0  0  0  0  0  0
   -3.1011   -0.7172   -3.6740 C   0  0  0  0  0  0  0  0  0  0  0  0
   -3.6388   -1.1817   -4.8729 C   0  0  0  0  0  0  0  0  0  0  0  0
   -3.3131   -1.8024   -6.9013 H   0  0  0  0  0  0  0  0  0  0  0  0
   -0.8261   -1.4053   -6.7541 H   0  0  0  0  0  0  0  0  0  0  0  0
   -1.2758   -0.1513   -2.6695 H   0  0  0  0  0  0  0  0  0  0  0  0
   -3.7557   -0.5349   -2.8312 H   0  0  0  0  0  0  0  0  0  0  0  0
   -5.0913   -1.4109   -4.9593 N   0  0  0  0  0  0  0  0  0  0  0  0
   -5.7640   -1.1765   -3.9574 O   0  0  0  0  0  0  0  0  0  0  0  0
   -5.5382   -1.8227   -6.0285 O   0  0  0  0  0  0  0  0  0  0  0  0
    9.4291    8.2757  -11.4172 N   0  0  0  0  0  0  0  0  0  0  0  0
    8.6099    7.6354  -11.0423 N   0  0  0  0  0  0  0  0  0  0  0  0
    1.1853    0.8305   -4.4208 S   0  0  0  0  0  0  0  0  0  0  0  0
    1.4005    1.3161   -6.2153 C   0  0  0  0  0  0  0  0  0  0  0  0
    0.2585    1.7736   -3.8190 O   0  0  0  0  0  0  0  0  0  0  0  0
    2.4954    0.5328   -3.8824 O   0  0  0  0  0  0  0  0  0  0  0  0
    0.4575   -0.6387   -4.6428 O   0  0  0  0  0  0  0  0  0  0  0  0
    0.2009    1.3928   -6.7944 F   0  0  0  0  0  0  0  0  0  0  0  0
    2.0003    2.5008   -6.2583 F   0  0  0  0  0  0  0  0  0  0  0  0
    2.1408    0.4058   -6.8385 F   0  0  0  0  0  0  0  0  0  0  0  0
  1  2  2  0  0  0  0
  1  6  1  0  0  0  0
  2  3  1  0  0  0  0
  3 20  1  0  0  0  0
  3  4  2  0  0  0  0
  4  9  1  0  0  0  0
  5  4  1  0  0  0  0
  5 10  1  0  0  0  0
  6  5  2  0  0  0  0
  7  1  1  0  0  0  0
  8  2  1  0  0  0  0
 11  6  1  0  0  0  0
 11 12  2  0  0  0  0
 13 11  2  0  0  0  0
 14 15  3  0  0  0  0
 16 19  2  0  0  0  0
 16 18  2  0  0  0  0
 17 16  1  0  0  0  0
 20 16  1  0  0  0  0
 21 17  1  0  0  0  0
 22 17  1  0  0  0  0
 23 17  1  0  0  0  0
M  END
