Coordinates from ORCA-job 4-NO2-Ph-N2-OTf-B3LYPG-6-31G_dp-MTMO-d009-169-n800
 OpenBabel09051908473D

 23 22  0  0  0  0  0  0  0  0999 V2000
   -1.9926   -1.2087   -6.2960 C   0  0  0  0  0  0  0  0  0  0  0  0
   -0.6618   -1.0336   -5.9301 C   0  0  0  0  0  0  0  0  0  0  0  0
   -0.3669   -0.3330   -4.7607 C   0  0  0  0  0  0  0  0  0  0  0  0
   -1.3642    0.1967   -3.9418 C   0  0  0  0  0  0  0  0  0  0  0  0
   -2.6953    0.0293   -4.3121 C   0  0  0  0  0  0  0  0  0  0  0  0
   -2.9875   -0.6708   -5.4811 C   0  0  0  0  0  0  0  0  0  0  0  0
   -2.2700   -1.7457   -7.1940 H   0  0  0  0  0  0  0  0  0  0  0  0
    0.1446   -1.4327   -6.5337 H   0  0  0  0  0  0  0  0  0  0  0  0
   -1.1006    0.7292   -3.0365 H   0  0  0  0  0  0  0  0  0  0  0  0
   -3.5040    0.4242   -3.7110 H   0  0  0  0  0  0  0  0  0  0  0  0
   -4.3972   -0.8513   -5.8685 N   0  0  0  0  0  0  0  0  0  0  0  0
   -5.2546   -0.3680   -5.1317 O   0  0  0  0  0  0  0  0  0  0  0  0
   -4.6257   -1.4738   -6.9041 O   0  0  0  0  0  0  0  0  0  0  0  0
    1.3774    4.8445   -8.9216 N   0  0  0  0  0  0  0  0  0  0  0  0
    1.6063    3.8815   -8.4301 N   0  0  0  0  0  0  0  0  0  0  0  0
    1.7750    1.1903   -4.3240 S   0  0  0  0  0  0  0  0  0  0  0  0
    2.5079    1.1725   -6.0460 C   0  0  0  0  0  0  0  0  0  0  0  0
    0.8256    2.2878   -4.2593 O   0  0  0  0  0  0  0  0  0  0  0  0
    2.8575    1.0055   -3.3805 O   0  0  0  0  0  0  0  0  0  0  0  0
    0.9804   -0.2609   -4.3791 O   0  0  0  0  0  0  0  0  0  0  0  0
    1.5203    1.0958   -6.9398 F   0  0  0  0  0  0  0  0  0  0  0  0
    3.1916    2.2984   -6.2194 F   0  0  0  0  0  0  0  0  0  0  0  0
    3.3130    0.1239   -6.1769 F   0  0  0  0  0  0  0  0  0  0  0  0
  1  2  2  0  0  0  0
  1  6  1  0  0  0  0
  2  3  1  0  0  0  0
  3 20  1  0  0  0  0
  3  4  2  0  0  0  0
  4  9  1  0  0  0  0
  5  4  1  0  0  0  0
  5 10  1  0  0  0  0
  6  5  2  0  0  0  0
  7  1  1  0  0  0  0
  8  2  1  0  0  0  0
 11  6  1  0  0  0  0
 11 12  2  0  0  0  0
 13 11  2  0  0  0  0
 14 15  3  0  0  0  0
 16 18  2  0  0  0  0
 16 19  2  0  0  0  0
 17 16  1  0  0  0  0
 20 16  1  0  0  0  0
 21 17  1  0  0  0  0
 22 17  1  0  0  0  0
 23 17  1  0  0  0  0
M  END
