Coordinates from ORCA-job 4-NO2-Ph-N2-OTf-B3LYPG-6-31G_dp-MTMO-d009-169-n800
 OpenBabel09051908473D

 23 22  0  0  0  0  0  0  0  0999 V2000
   -2.6430   -1.2762   -6.1182 C   0  0  0  0  0  0  0  0  0  0  0  0
   -1.2718   -1.0618   -6.0254 C   0  0  0  0  0  0  0  0  0  0  0  0
   -0.7376   -0.5976   -4.8233 C   0  0  0  0  0  0  0  0  0  0  0  0
   -1.5340   -0.3431   -3.7066 C   0  0  0  0  0  0  0  0  0  0  0  0
   -2.9074   -0.5479   -3.8027 C   0  0  0  0  0  0  0  0  0  0  0  0
   -3.4387   -1.0122   -5.0046 C   0  0  0  0  0  0  0  0  0  0  0  0
   -3.1017   -1.6380   -7.0295 H   0  0  0  0  0  0  0  0  0  0  0  0
   -0.6140   -1.2520   -6.8655 H   0  0  0  0  0  0  0  0  0  0  0  0
   -1.0866    0.0116   -2.7865 H   0  0  0  0  0  0  0  0  0  0  0  0
   -3.5670   -0.3610   -2.9649 H   0  0  0  0  0  0  0  0  0  0  0  0
   -4.8917   -1.2348   -5.1008 N   0  0  0  0  0  0  0  0  0  0  0  0
   -5.5703   -0.9956   -4.1040 O   0  0  0  0  0  0  0  0  0  0  0  0
   -5.3329   -1.6463   -6.1724 O   0  0  0  0  0  0  0  0  0  0  0  0
    7.2718    6.6062  -10.1870 N   0  0  0  0  0  0  0  0  0  0  0  0
    6.4582    5.9653   -9.8010 N   0  0  0  0  0  0  0  0  0  0  0  0
    1.3906    0.9797   -4.5227 S   0  0  0  0  0  0  0  0  0  0  0  0
    1.6218    1.4598   -6.3168 C   0  0  0  0  0  0  0  0  0  0  0  0
    0.4633    1.9282   -3.9304 O   0  0  0  0  0  0  0  0  0  0  0  0
    2.6953    0.6777   -3.9735 O   0  0  0  0  0  0  0  0  0  0  0  0
    0.6582   -0.4871   -4.7467 O   0  0  0  0  0  0  0  0  0  0  0  0
    0.4270    1.5393   -6.9054 F   0  0  0  0  0  0  0  0  0  0  0  0
    2.2262    2.6421   -6.3582 F   0  0  0  0  0  0  0  0  0  0  0  0
    2.3634    0.5449   -6.9317 F   0  0  0  0  0  0  0  0  0  0  0  0
  1  2  2  0  0  0  0
  1  6  1  0  0  0  0
  2  3  1  0  0  0  0
  3 20  1  0  0  0  0
  3  4  2  0  0  0  0
  4  9  1  0  0  0  0
  5  4  1  0  0  0  0
  5 10  1  0  0  0  0
  6  5  2  0  0  0  0
  7  1  1  0  0  0  0
  8  2  1  0  0  0  0
 11  6  1  0  0  0  0
 11 12  2  0  0  0  0
 13 11  2  0  0  0  0
 14 15  3  0  0  0  0
 16 19  2  0  0  0  0
 16 18  2  0  0  0  0
 17 16  1  0  0  0  0
 20 16  1  0  0  0  0
 21 17  1  0  0  0  0
 22 17  1  0  0  0  0
 23 17  1  0  0  0  0
M  END
