Coordinates from ORCA-job 4-NO2-Ph-N2-OTf-B3LYPG-6-31G_dp-MTMO-d009-169-n800
 OpenBabel09051908473D

 23 22  0  0  0  0  0  0  0  0999 V2000
   -2.5801   -1.2360   -6.1453 C   0  0  0  0  0  0  0  0  0  0  0  0
   -1.2084   -1.0219   -6.0580 C   0  0  0  0  0  0  0  0  0  0  0  0
   -0.6714   -0.5415   -4.8636 C   0  0  0  0  0  0  0  0  0  0  0  0
   -1.4655   -0.2700   -3.7492 C   0  0  0  0  0  0  0  0  0  0  0  0
   -2.8393   -0.4746   -3.8399 C   0  0  0  0  0  0  0  0  0  0  0  0
   -3.3734   -0.9554   -5.0340 C   0  0  0  0  0  0  0  0  0  0  0  0
   -3.0409   -1.6101   -7.0505 H   0  0  0  0  0  0  0  0  0  0  0  0
   -0.5524   -1.2246   -6.8966 H   0  0  0  0  0  0  0  0  0  0  0  0
   -1.0160    0.0973   -2.8351 H   0  0  0  0  0  0  0  0  0  0  0  0
   -3.4972   -0.2750   -3.0037 H   0  0  0  0  0  0  0  0  0  0  0  0
   -4.8267   -1.1777   -5.1244 N   0  0  0  0  0  0  0  0  0  0  0  0
   -5.5031   -0.9244   -4.1295 O   0  0  0  0  0  0  0  0  0  0  0  0
   -5.2706   -1.6030   -6.1895 O   0  0  0  0  0  0  0  0  0  0  0  0
    6.5575    6.0751   -9.7096 N   0  0  0  0  0  0  0  0  0  0  0  0
    5.7577    5.4291   -9.3039 N   0  0  0  0  0  0  0  0  0  0  0  0
    1.4592    1.0372   -4.5898 S   0  0  0  0  0  0  0  0  0  0  0  0
    1.6940    1.4862   -6.3915 C   0  0  0  0  0  0  0  0  0  0  0  0
    0.5325    1.9968   -4.0148 O   0  0  0  0  0  0  0  0  0  0  0  0
    2.7625    0.7423   -4.0334 O   0  0  0  0  0  0  0  0  0  0  0  0
    0.7246   -0.4318   -4.7909 O   0  0  0  0  0  0  0  0  0  0  0  0
    0.5002    1.5581   -6.9830 F   0  0  0  0  0  0  0  0  0  0  0  0
    2.3013    2.6661   -6.4525 F   0  0  0  0  0  0  0  0  0  0  0  0
    2.4344    0.5591   -6.9894 F   0  0  0  0  0  0  0  0  0  0  0  0
  1  2  2  0  0  0  0
  1  6  1  0  0  0  0
  2  3  1  0  0  0  0
  3 20  1  0  0  0  0
  3  4  2  0  0  0  0
  4  9  1  0  0  0  0
  5  4  1  0  0  0  0
  5 10  1  0  0  0  0
  6  5  2  0  0  0  0
  7  1  1  0  0  0  0
  8  2  1  0  0  0  0
 11  6  1  0  0  0  0
 11 12  2  0  0  0  0
 13 11  2  0  0  0  0
 14 15  3  0  0  0  0
 16 19  2  0  0  0  0
 16 18  2  0  0  0  0
 17 16  1  0  0  0  0
 20 16  1  0  0  0  0
 21 17  1  0  0  0  0
 22 17  1  0  0  0  0
 23 17  1  0  0  0  0
M  END
