Coordinates from ORCA-job 4-NO2-Ph-N2-OTf-B3LYPG-6-31G_dp-MTMO-d009-169-n800
 OpenBabel09051908473D

 23 22  0  0  0  0  0  0  0  0999 V2000
   -2.0684   -0.4635   -6.3300 C   0  0  0  0  0  0  0  0  0  0  0  0
   -0.7256   -0.1016   -6.2606 C   0  0  0  0  0  0  0  0  0  0  0  0
   -0.2727    0.5753   -5.1265 C   0  0  0  0  0  0  0  0  0  0  0  0
   -1.1169    0.8430   -4.0447 C   0  0  0  0  0  0  0  0  0  0  0  0
   -2.4527    0.4703   -4.1126 C   0  0  0  0  0  0  0  0  0  0  0  0
   -2.9130   -0.1724   -5.2616 C   0  0  0  0  0  0  0  0  0  0  0  0
   -2.4650   -0.9784   -7.1960 H   0  0  0  0  0  0  0  0  0  0  0  0
   -0.0585   -0.3283   -7.0803 H   0  0  0  0  0  0  0  0  0  0  0  0
   -0.7153    1.3474   -3.1735 H   0  0  0  0  0  0  0  0  0  0  0  0
   -3.1386    0.6681   -3.2987 H   0  0  0  0  0  0  0  0  0  0  0  0
   -4.3274   -0.5660   -5.3407 N   0  0  0  0  0  0  0  0  0  0  0  0
   -5.0442   -0.3044   -4.3758 O   0  0  0  0  0  0  0  0  0  0  0  0
   -4.7037   -1.1331   -6.3653 O   0  0  0  0  0  0  0  0  0  0  0  0
   -0.6169    3.0184   -6.0146 N   0  0  0  0  0  0  0  0  0  0  0  0
   -1.4846    3.5549   -6.4408 N   0  0  0  0  0  0  0  0  0  0  0  0
    2.1871    1.2923   -6.0392 S   0  0  0  0  0  0  0  0  0  0  0  0
    3.1144   -0.3317   -6.0051 C   0  0  0  0  0  0  0  0  0  0  0  0
    1.5926    1.4256   -7.3583 O   0  0  0  0  0  0  0  0  0  0  0  0
    3.0381    2.2980   -5.4400 O   0  0  0  0  0  0  0  0  0  0  0  0
    1.0639    0.9121   -4.8925 O   0  0  0  0  0  0  0  0  0  0  0  0
    2.2861   -1.3150   -6.3643 F   0  0  0  0  0  0  0  0  0  0  0  0
    4.1187   -0.2502   -6.8724 F   0  0  0  0  0  0  0  0  0  0  0  0
    3.5815   -0.5598   -4.7843 F   0  0  0  0  0  0  0  0  0  0  0  0
  1  2  2  0  0  0  0
  1  6  1  0  0  0  0
  2  3  1  0  0  0  0
  3 20  1  0  0  0  0
  3  4  2  0  0  0  0
  4  9  1  0  0  0  0
  5  4  1  0  0  0  0
  5 10  1  0  0  0  0
  6  5  2  0  0  0  0
  7  1  1  0  0  0  0
  8  2  1  0  0  0  0
 11  6  1  0  0  0  0
 11 12  2  0  0  0  0
 13 11  2  0  0  0  0
 15 14  3  0  0  0  0
 16 17  1  0  0  0  0
 16 19  2  0  0  0  0
 16 20  1  0  0  0  0
 17 23  1  0  0  0  0
 18 16  2  0  0  0  0
 21 17  1  0  0  0  0
 22 17  1  0  0  0  0
M  END
