Coordinates from ORCA-job 4-NO2-Ph-N2-OTf-B3LYPG-6-31G_dp-MTMO-d009-169-n800
 OpenBabel09051908473D

 23 22  0  0  0  0  0  0  0  0999 V2000
   -2.6604   -1.2893   -6.1083 C   0  0  0  0  0  0  0  0  0  0  0  0
   -1.2891   -1.0747   -6.0156 C   0  0  0  0  0  0  0  0  0  0  0  0
   -0.7548   -0.6114   -4.8133 C   0  0  0  0  0  0  0  0  0  0  0  0
   -1.5510   -0.3580   -3.6962 C   0  0  0  0  0  0  0  0  0  0  0  0
   -2.9244   -0.5631   -3.7922 C   0  0  0  0  0  0  0  0  0  0  0  0
   -3.4559   -1.0264   -4.9943 C   0  0  0  0  0  0  0  0  0  0  0  0
   -3.1192   -1.6505   -7.0198 H   0  0  0  0  0  0  0  0  0  0  0  0
   -0.6315   -1.2642   -6.8561 H   0  0  0  0  0  0  0  0  0  0  0  0
   -1.1035   -0.0040   -2.7759 H   0  0  0  0  0  0  0  0  0  0  0  0
   -3.5839   -0.3770   -2.9541 H   0  0  0  0  0  0  0  0  0  0  0  0
   -4.9088   -1.2493   -5.0904 N   0  0  0  0  0  0  0  0  0  0  0  0
   -5.5873   -1.0109   -4.0932 O   0  0  0  0  0  0  0  0  0  0  0  0
   -5.3502   -1.6600   -6.1623 O   0  0  0  0  0  0  0  0  0  0  0  0
    7.4560    6.7493  -10.2946 N   0  0  0  0  0  0  0  0  0  0  0  0
    6.6402    6.1075   -9.9146 N   0  0  0  0  0  0  0  0  0  0  0  0
    1.3732    0.9661   -4.5118 S   0  0  0  0  0  0  0  0  0  0  0  0
    1.6034    1.4480   -6.3055 C   0  0  0  0  0  0  0  0  0  0  0  0
    0.4459    1.9138   -3.9182 O   0  0  0  0  0  0  0  0  0  0  0  0
    2.6782    0.6638   -3.9634 O   0  0  0  0  0  0  0  0  0  0  0  0
    0.6410   -0.5006   -4.7369 O   0  0  0  0  0  0  0  0  0  0  0  0
    0.4084    1.5278   -6.8935 F   0  0  0  0  0  0  0  0  0  0  0  0
    2.2077    2.6304   -6.3460 F   0  0  0  0  0  0  0  0  0  0  0  0
    2.3450    0.5338   -6.9216 F   0  0  0  0  0  0  0  0  0  0  0  0
  1  2  2  0  0  0  0
  1  6  1  0  0  0  0
  2  3  1  0  0  0  0
  3 20  1  0  0  0  0
  3  4  2  0  0  0  0
  4  9  1  0  0  0  0
  5  4  1  0  0  0  0
  5 10  1  0  0  0  0
  6  5  2  0  0  0  0
  7  1  1  0  0  0  0
  8  2  1  0  0  0  0
 11  6  1  0  0  0  0
 11 12  2  0  0  0  0
 13 11  2  0  0  0  0
 14 15  3  0  0  0  0
 16 19  2  0  0  0  0
 16 18  2  0  0  0  0
 17 16  1  0  0  0  0
 20 16  1  0  0  0  0
 21 17  1  0  0  0  0
 22 17  1  0  0  0  0
 23 17  1  0  0  0  0
M  END
