Coordinates from ORCA-job 4-NO2-Ph-N2-OTf-B3LYPG-6-31G_dp-MTMO-d009-169-n800
 OpenBabel09051908473D

 23 22  0  0  0  0  0  0  0  0999 V2000
   -2.5513   -1.2187   -6.1566 C   0  0  0  0  0  0  0  0  0  0  0  0
   -1.1796   -1.0027   -6.0741 C   0  0  0  0  0  0  0  0  0  0  0  0
   -0.6402   -0.5137   -4.8843 C   0  0  0  0  0  0  0  0  0  0  0  0
   -1.4320   -0.2352   -3.7700 C   0  0  0  0  0  0  0  0  0  0  0  0
   -2.8058   -0.4417   -3.8559 C   0  0  0  0  0  0  0  0  0  0  0  0
   -3.3422   -0.9313   -5.0454 C   0  0  0  0  0  0  0  0  0  0  0  0
   -3.0139   -1.5995   -7.0582 H   0  0  0  0  0  0  0  0  0  0  0  0
   -0.5254   -1.2105   -6.9128 H   0  0  0  0  0  0  0  0  0  0  0  0
   -0.9806    0.1390   -2.8595 H   0  0  0  0  0  0  0  0  0  0  0  0
   -3.4619   -0.2369   -3.0196 H   0  0  0  0  0  0  0  0  0  0  0  0
   -4.7956   -1.1557   -5.1307 N   0  0  0  0  0  0  0  0  0  0  0  0
   -5.4698   -0.8966   -4.1358 O   0  0  0  0  0  0  0  0  0  0  0  0
   -5.2416   -1.5884   -6.1919 O   0  0  0  0  0  0  0  0  0  0  0  0
    6.2338    5.8161   -9.4766 N   0  0  0  0  0  0  0  0  0  0  0  0
    5.4386    5.1725   -9.0581 N   0  0  0  0  0  0  0  0  0  0  0  0
    1.4897    1.0685   -4.6263 S   0  0  0  0  0  0  0  0  0  0  0  0
    1.7231    1.5033   -6.4318 C   0  0  0  0  0  0  0  0  0  0  0  0
    0.5628    2.0320   -4.0582 O   0  0  0  0  0  0  0  0  0  0  0  0
    2.7935    0.7788   -4.0684 O   0  0  0  0  0  0  0  0  0  0  0  0
    0.7558   -0.4024   -4.8156 O   0  0  0  0  0  0  0  0  0  0  0  0
    0.5288    1.5692   -7.0230 F   0  0  0  0  0  0  0  0  0  0  0  0
    2.3292    2.6831   -6.5027 F   0  0  0  0  0  0  0  0  0  0  0  0
    2.4638    0.5719   -7.0224 F   0  0  0  0  0  0  0  0  0  0  0  0
  1  2  2  0  0  0  0
  1  6  1  0  0  0  0
  2  3  1  0  0  0  0
  3 20  1  0  0  0  0
  3  4  2  0  0  0  0
  4  9  1  0  0  0  0
  5  4  1  0  0  0  0
  5 10  1  0  0  0  0
  6  5  2  0  0  0  0
  7  1  1  0  0  0  0
  8  2  1  0  0  0  0
 11  6  1  0  0  0  0
 11 12  2  0  0  0  0
 13 11  2  0  0  0  0
 14 15  3  0  0  0  0
 16 19  2  0  0  0  0
 16 18  2  0  0  0  0
 17 16  1  0  0  0  0
 20 16  1  0  0  0  0
 21 17  1  0  0  0  0
 22 17  1  0  0  0  0
 23 17  1  0  0  0  0
M  END
