Coordinates from ORCA-job 4-NO2-Ph-N2-OTf-B3LYPG-6-31G_dp-MTMO-d009-169-n800
 OpenBabel09051908473D

 23 22  0  0  0  0  0  0  0  0999 V2000
   -1.9853   -1.7083   -5.7260 C   0  0  0  0  0  0  0  0  0  0  0  0
   -0.6692   -1.3355   -5.4731 C   0  0  0  0  0  0  0  0  0  0  0  0
   -0.4163   -0.0917   -4.8948 C   0  0  0  0  0  0  0  0  0  0  0  0
   -1.4409    0.7930   -4.5582 C   0  0  0  0  0  0  0  0  0  0  0  0
   -2.7571    0.4239   -4.8205 C   0  0  0  0  0  0  0  0  0  0  0  0
   -3.0076   -0.8197   -5.3972 C   0  0  0  0  0  0  0  0  0  0  0  0
   -2.2306   -2.6643   -6.1704 H   0  0  0  0  0  0  0  0  0  0  0  0
    0.1585   -1.9927   -5.7128 H   0  0  0  0  0  0  0  0  0  0  0  0
   -1.2097    1.7491   -4.1062 H   0  0  0  0  0  0  0  0  0  0  0  0
   -3.5864    1.0767   -4.5801 H   0  0  0  0  0  0  0  0  0  0  0  0
   -4.4022   -1.2107   -5.6667 N   0  0  0  0  0  0  0  0  0  0  0  0
   -5.2845   -0.4088   -5.3666 O   0  0  0  0  0  0  0  0  0  0  0  0
   -4.5937   -2.3142   -6.1742 O   0  0  0  0  0  0  0  0  0  0  0  0
    1.5341    5.7602   -5.3697 N   0  0  0  0  0  0  0  0  0  0  0  0
    2.2798    5.3394   -6.0683 N   0  0  0  0  0  0  0  0  0  0  0  0
    1.7231    1.4493   -5.2923 S   0  0  0  0  0  0  0  0  0  0  0  0
    2.4413    0.5218   -6.7503 C   0  0  0  0  0  0  0  0  0  0  0  0
    0.7848    2.4286   -5.8139 O   0  0  0  0  0  0  0  0  0  0  0  0
    2.8099    1.7759   -4.3939 O   0  0  0  0  0  0  0  0  0  0  0  0
    0.9165    0.1994   -4.5696 O   0  0  0  0  0  0  0  0  0  0  0  0
    1.4444    0.0453   -7.4980 F   0  0  0  0  0  0  0  0  0  0  0  0
    3.1775    1.3673   -7.4626 F   0  0  0  0  0  0  0  0  0  0  0  0
    3.1927   -0.4829   -6.3126 F   0  0  0  0  0  0  0  0  0  0  0  0
  1  2  2  0  0  0  0
  1  6  1  0  0  0  0
  2  3  1  0  0  0  0
  3 20  1  0  0  0  0
  3  4  2  0  0  0  0
  4  9  1  0  0  0  0
  5 10  1  0  0  0  0
  5  4  1  0  0  0  0
  6  5  2  0  0  0  0
  7  1  1  0  0  0  0
  8  2  1  0  0  0  0
 11  6  1  0  0  0  0
 11 12  2  0  0  0  0
 13 11  2  0  0  0  0
 15 14  3  0  0  0  0
 16 20  1  0  0  0  0
 16 19  2  0  0  0  0
 17 23  1  0  0  0  0
 17 16  1  0  0  0  0
 18 16  2  0  0  0  0
 21 17  1  0  0  0  0
 22 17  1  0  0  0  0
M  END
