Coordinates from ORCA-job 4-NO2-Ph-N2-OTf-B3LYPG-6-31G_dp-MTMO-d009-169-n800
 OpenBabel09051908473D

 23 22  0  0  0  0  0  0  0  0999 V2000
   -2.4202   -0.9909   -6.3009 C   0  0  0  0  0  0  0  0  0  0  0  0
   -1.0612   -0.7061   -6.2166 C   0  0  0  0  0  0  0  0  0  0  0  0
   -0.5180   -0.3508   -4.9820 C   0  0  0  0  0  0  0  0  0  0  0  0
   -1.2941   -0.2721   -3.8255 C   0  0  0  0  0  0  0  0  0  0  0  0
   -2.6556   -0.5476   -3.9115 C   0  0  0  0  0  0  0  0  0  0  0  0
   -3.1956   -0.9039   -5.1459 C   0  0  0  0  0  0  0  0  0  0  0  0
   -2.8848   -1.2742   -7.2366 H   0  0  0  0  0  0  0  0  0  0  0  0
   -0.4202   -0.7590   -7.0889 H   0  0  0  0  0  0  0  0  0  0  0  0
   -0.8400    0.0017   -2.8812 H   0  0  0  0  0  0  0  0  0  0  0  0
   -3.2989   -0.4970   -3.0422 H   0  0  0  0  0  0  0  0  0  0  0  0
   -4.6354   -1.2021   -5.2329 N   0  0  0  0  0  0  0  0  0  0  0  0
   -5.2961   -1.1209   -4.1993 O   0  0  0  0  0  0  0  0  0  0  0  0
   -5.0848   -1.5141   -6.3344 O   0  0  0  0  0  0  0  0  0  0  0  0
    5.0343    4.0340   -9.2628 N   0  0  0  0  0  0  0  0  0  0  0  0
    4.2731    3.4966   -8.6683 N   0  0  0  0  0  0  0  0  0  0  0  0
    1.5220    1.3135   -4.5630 S   0  0  0  0  0  0  0  0  0  0  0  0
    1.8143    1.9264   -6.3083 C   0  0  0  0  0  0  0  0  0  0  0  0
    0.5216    2.1739   -3.9551 O   0  0  0  0  0  0  0  0  0  0  0  0
    2.8144    1.0382   -3.9713 O   0  0  0  0  0  0  0  0  0  0  0  0
    0.8708   -0.1665   -4.9218 O   0  0  0  0  0  0  0  0  0  0  0  0
    0.6551    1.9337   -6.9696 F   0  0  0  0  0  0  0  0  0  0  0  0
    2.3011    3.1605   -6.2362 F   0  0  0  0  0  0  0  0  0  0  0  0
    2.6776    1.1280   -6.9238 F   0  0  0  0  0  0  0  0  0  0  0  0
  1  2  2  0  0  0  0
  1  6  1  0  0  0  0
  2  3  1  0  0  0  0
  3 20  1  0  0  0  0
  3  4  2  0  0  0  0
  4  9  1  0  0  0  0
  5  4  1  0  0  0  0
  5 10  1  0  0  0  0
  6  5  2  0  0  0  0
  7  1  1  0  0  0  0
  8  2  1  0  0  0  0
 11  6  1  0  0  0  0
 11 12  2  0  0  0  0
 13 11  2  0  0  0  0
 14 15  3  0  0  0  0
 16 19  2  0  0  0  0
 16 18  2  0  0  0  0
 17 22  1  0  0  0  0
 17 16  1  0  0  0  0
 20 16  1  0  0  0  0
 21 17  1  0  0  0  0
 23 17  1  0  0  0  0
M  END
