Coordinates from ORCA-job 4-NO2-Ph-N2-OTf-B3LYPG-6-31G_dp-MTMO-d009-169-n800
 OpenBabel09051908473D

 23 23  0  0  1  0  0  0  0  0999 V2000
   -1.3849   -0.3436   -5.8718 C   0  0  0  0  0  0  0  0  0  0  0  0
   -0.5145    0.8482   -6.0208 C   0  0  1  0  0  0  0  0  0  0  0  0
   -1.1766    2.0835   -5.5184 C   0  0  0  0  0  0  0  0  0  0  0  0
   -2.2965    2.0473   -4.6142 C   0  0  0  0  0  0  0  0  0  0  0  0
   -2.9279    0.8710   -4.3719 C   0  0  0  0  0  0  0  0  0  0  0  0
   -2.4644   -0.3030   -5.0619 C   0  0  0  0  0  0  0  0  0  0  0  0
   -1.1073   -1.2580   -6.3787 H   0  0  0  0  0  0  0  0  0  0  0  0
   -0.1095    0.9666   -7.0249 H   0  0  0  0  0  0  0  0  0  0  0  0
   -2.6276    2.9721   -4.1544 H   0  0  0  0  0  0  0  0  0  0  0  0
   -3.7795    0.7948   -3.7113 H   0  0  0  0  0  0  0  0  0  0  0  0
   -3.2534   -1.5492   -4.8963 N   0  0  0  0  0  0  0  0  0  0  0  0
   -4.2167   -1.5001   -4.1351 O   0  0  0  0  0  0  0  0  0  0  0  0
   -2.8964   -2.5435   -5.5213 O   0  0  0  0  0  0  0  0  0  0  0  0
   -0.6607    3.2258   -5.8651 N   0  0  0  0  0  0  0  0  0  0  0  0
   -0.2022    4.2188   -6.1740 N   0  0  0  0  0  0  0  0  0  0  0  0
    2.2010    0.8044   -5.7458 S   0  0  0  0  0  0  0  0  0  0  0  0
    2.5288   -0.8805   -6.4787 C   0  0  0  0  0  0  0  0  0  0  0  0
    2.1211    1.7353   -6.8691 O   0  0  0  0  0  0  0  0  0  0  0  0
    3.1205    0.9905   -4.6400 O   0  0  0  0  0  0  0  0  0  0  0  0
    0.7315    0.5494   -5.1350 O   0  0  0  0  0  0  0  0  0  0  0  0
    1.5257   -1.1878   -7.3171 F   0  0  0  0  0  0  0  0  0  0  0  0
    3.6732   -0.8462   -7.1544 F   0  0  0  0  0  0  0  0  0  0  0  0
    2.5952   -1.7945   -5.5177 F   0  0  0  0  0  0  0  0  0  0  0  0
  1  6  2  0  0  0  0
  2  8  1  6  0  0  0
  2  1  1  0  0  0  0
  2  3  1  0  0  0  0
  2 20  1  0  0  0  0
  3  4  2  0  0  0  0
  4  5  1  0  0  0  0
  4  9  1  0  0  0  0
  5 10  1  0  0  0  0
  6 11  1  0  0  0  0
  6  5  1  0  0  0  0
  7  1  1  0  0  0  0
 11 12  2  0  0  0  0
 13 11  2  0  0  0  0
 14  3  1  0  0  0  0
 15 14  1  0  0  0  0
 16 20  1  0  0  0  0
 16 19  2  0  0  0  0
 17 16  1  0  0  0  0
 17 23  1  0  0  0  0
 18 16  2  0  0  0  0
 21 17  1  0  0  0  0
 22 17  1  0  0  0  0
M  RAD  3   5   2  14   2  15   3
M  END
