Coordinates from ORCA-job 4-NO2-Ph-N2-OTf-B3LYPG-6-31G_dp-MTMO-d009-169-n800
 OpenBabel09051908473D

 23 22  0  0  0  0  0  0  0  0999 V2000
   -2.0750   -1.0488   -6.0933 C   0  0  0  0  0  0  0  0  0  0  0  0
   -0.7198   -0.7607   -5.9642 C   0  0  0  0  0  0  0  0  0  0  0  0
   -0.3231    0.2149   -5.0505 C   0  0  0  0  0  0  0  0  0  0  0  0
   -1.2388    0.9045   -4.2575 C   0  0  0  0  0  0  0  0  0  0  0  0
   -2.5937    0.6113   -4.3803 C   0  0  0  0  0  0  0  0  0  0  0  0
   -2.9890   -0.3595   -5.2986 C   0  0  0  0  0  0  0  0  0  0  0  0
   -2.4316   -1.7977   -6.7896 H   0  0  0  0  0  0  0  0  0  0  0  0
    0.0189   -1.2834   -6.5584 H   0  0  0  0  0  0  0  0  0  0  0  0
   -0.8834    1.6534   -3.5595 H   0  0  0  0  0  0  0  0  0  0  0  0
   -3.3414    1.1187   -3.7848 H   0  0  0  0  0  0  0  0  0  0  0  0
   -4.4226   -0.6704   -5.4313 N   0  0  0  0  0  0  0  0  0  0  0  0
   -5.2066   -0.0499   -4.7154 O   0  0  0  0  0  0  0  0  0  0  0  0
   -4.7440   -1.5310   -6.2487 O   0  0  0  0  0  0  0  0  0  0  0  0
   -0.1972    3.9924   -5.4775 N   0  0  0  0  0  0  0  0  0  0  0  0
   -0.2839    5.0009   -5.9203 N   0  0  0  0  0  0  0  0  0  0  0  0
    1.9527    1.2479   -5.9669 S   0  0  0  0  0  0  0  0  0  0  0  0
    3.1527   -0.1510   -6.2844 C   0  0  0  0  0  0  0  0  0  0  0  0
    1.1772    1.4635   -7.1762 O   0  0  0  0  0  0  0  0  0  0  0  0
    2.6909    2.2965   -5.2916 O   0  0  0  0  0  0  0  0  0  0  0  0
    1.0377    0.4720   -4.8247 O   0  0  0  0  0  0  0  0  0  0  0  0
    2.4967   -1.1979   -6.7921 F   0  0  0  0  0  0  0  0  0  0  0  0
    4.0560    0.2758   -7.1617 F   0  0  0  0  0  0  0  0  0  0  0  0
    3.7464   -0.5002   -5.1501 F   0  0  0  0  0  0  0  0  0  0  0  0
  1  2  2  0  0  0  0
  1  6  1  0  0  0  0
  2  3  1  0  0  0  0
  3 20  1  0  0  0  0
  3  4  2  0  0  0  0
  4  9  1  0  0  0  0
  5  4  1  0  0  0  0
  5 10  1  0  0  0  0
  6  5  2  0  0  0  0
  7  1  1  0  0  0  0
  8  2  1  0  0  0  0
 11  6  1  0  0  0  0
 11 12  2  0  0  0  0
 13 11  2  0  0  0  0
 15 14  3  0  0  0  0
 16 19  2  0  0  0  0
 16 20  1  0  0  0  0
 17 16  1  0  0  0  0
 17 23  1  0  0  0  0
 18 16  2  0  0  0  0
 21 17  1  0  0  0  0
 22 17  1  0  0  0  0
M  END
