Coordinates from ORCA-job 4-NO2-Ph-N2-OTf-B3LYPG-6-31G_dp-MTMO-d009-169-n800
 OpenBabel09051908473D

 23 22  0  0  0  0  0  0  0  0999 V2000
   -2.6066   -1.2520   -6.1351 C   0  0  0  0  0  0  0  0  0  0  0  0
   -1.2351   -1.0386   -6.0441 C   0  0  0  0  0  0  0  0  0  0  0  0
   -0.7000   -0.5667   -4.8454 C   0  0  0  0  0  0  0  0  0  0  0  0
   -1.4959   -0.3034   -3.7303 C   0  0  0  0  0  0  0  0  0  0  0  0
   -2.8696   -0.5072   -3.8247 C   0  0  0  0  0  0  0  0  0  0  0  0
   -3.4017   -0.9793   -5.0231 C   0  0  0  0  0  0  0  0  0  0  0  0
   -3.0660   -1.6196   -7.0437 H   0  0  0  0  0  0  0  0  0  0  0  0
   -0.5777   -1.2354   -6.8830 H   0  0  0  0  0  0  0  0  0  0  0  0
   -1.0479    0.0573   -2.8128 H   0  0  0  0  0  0  0  0  0  0  0  0
   -3.5288   -0.3136   -2.9881 H   0  0  0  0  0  0  0  0  0  0  0  0
   -4.8549   -1.2009   -5.1175 N   0  0  0  0  0  0  0  0  0  0  0  0
   -5.5330   -0.9542   -4.1221 O   0  0  0  0  0  0  0  0  0  0  0  0
   -5.2970   -1.6189   -6.1862 O   0  0  0  0  0  0  0  0  0  0  0  0
    6.8638    6.3053   -9.9270 N   0  0  0  0  0  0  0  0  0  0  0  0
    6.0576    5.6638   -9.5268 N   0  0  0  0  0  0  0  0  0  0  0  0
    1.4301    1.0101   -4.5566 S   0  0  0  0  0  0  0  0  0  0  0  0
    1.6639    1.4751   -6.3544 C   0  0  0  0  0  0  0  0  0  0  0  0
    0.5033    1.9645   -3.9730 O   0  0  0  0  0  0  0  0  0  0  0  0
    2.7337    0.7108   -4.0034 O   0  0  0  0  0  0  0  0  0  0  0  0
    0.6959   -0.4574   -4.7698 O   0  0  0  0  0  0  0  0  0  0  0  0
    0.4699    1.5517   -6.9448 F   0  0  0  0  0  0  0  0  0  0  0  0
    2.2704    2.6560   -6.4049 F   0  0  0  0  0  0  0  0  0  0  0  0
    2.4046    0.5539   -6.9608 F   0  0  0  0  0  0  0  0  0  0  0  0
  1  2  2  0  0  0  0
  1  6  1  0  0  0  0
  2  3  1  0  0  0  0
  3 20  1  0  0  0  0
  3  4  2  0  0  0  0
  4  9  1  0  0  0  0
  5  4  1  0  0  0  0
  5 10  1  0  0  0  0
  6  5  2  0  0  0  0
  7  1  1  0  0  0  0
  8  2  1  0  0  0  0
 11  6  1  0  0  0  0
 11 12  2  0  0  0  0
 13 11  2  0  0  0  0
 14 15  3  0  0  0  0
 16 19  2  0  0  0  0
 16 18  2  0  0  0  0
 17 16  1  0  0  0  0
 20 16  1  0  0  0  0
 21 17  1  0  0  0  0
 22 17  1  0  0  0  0
 23 17  1  0  0  0  0
M  END
