Coordinates from ORCA-job 4-NO2-Ph-N2-OTf-B3LYPG-6-31G_dp-MTMO-d009-169-n800
 OpenBabel09051908473D

 23 23  0  0  1  0  0  0  0  0999 V2000
   -1.3458   -0.2842   -5.9045 C   0  0  0  0  0  0  0  0  0  0  0  0
   -0.4967    0.9320   -6.0254 C   0  0  1  0  0  0  0  0  0  0  0  0
   -1.1621    2.1921   -5.4787 C   0  0  0  0  0  0  0  0  0  0  0  0
   -2.2950    2.0488   -4.5560 C   0  0  0  0  0  0  0  0  0  0  0  0
   -2.9027    0.8587   -4.3689 C   0  0  0  0  0  0  0  0  0  0  0  0
   -2.4251   -0.2893   -5.1020 C   0  0  0  0  0  0  0  0  0  0  0  0
   -1.0435   -1.1786   -6.4333 H   0  0  0  0  0  0  0  0  0  0  0  0
   -0.1464    1.1019   -7.0451 H   0  0  0  0  0  0  0  0  0  0  0  0
   -2.6332    2.9461   -4.0478 H   0  0  0  0  0  0  0  0  0  0  0  0
   -3.7486    0.7417   -3.7057 H   0  0  0  0  0  0  0  0  0  0  0  0
   -3.1922   -1.5524   -4.9728 N   0  0  0  0  0  0  0  0  0  0  0  0
   -4.1599   -1.5384   -4.2157 O   0  0  0  0  0  0  0  0  0  0  0  0
   -2.8141   -2.5236   -5.6212 O   0  0  0  0  0  0  0  0  0  0  0  0
   -0.7481    3.1742   -5.7520 N   0  0  0  0  0  0  0  0  0  0  0  0
   -0.3073    4.2005   -6.0422 N   0  0  0  0  0  0  0  0  0  0  0  0
    2.2093    0.8116   -5.8770 S   0  0  0  0  0  0  0  0  0  0  0  0
    2.4793   -0.9669   -6.3803 C   0  0  0  0  0  0  0  0  0  0  0  0
    2.1178    1.5875   -7.1082 O   0  0  0  0  0  0  0  0  0  0  0  0
    3.1450    1.1171   -4.8141 O   0  0  0  0  0  0  0  0  0  0  0  0
    0.7385    0.6688   -5.1968 O   0  0  0  0  0  0  0  0  0  0  0  0
    1.4765   -1.3428   -7.1880 F   0  0  0  0  0  0  0  0  0  0  0  0
    3.6321   -1.0561   -7.0348 F   0  0  0  0  0  0  0  0  0  0  0  0
    2.5011   -1.7476   -5.3073 F   0  0  0  0  0  0  0  0  0  0  0  0
  1  6  2  0  0  0  0
  2  8  1  6  0  0  0
  2  1  1  0  0  0  0
  2  3  1  0  0  0  0
  2 20  1  0  0  0  0
  3  4  2  0  0  0  0
  4  5  1  0  0  0  0
  4  9  1  0  0  0  0
  5 10  1  0  0  0  0
  6 11  1  0  0  0  0
  6  5  1  0  0  0  0
  7  1  1  0  0  0  0
 11 12  2  0  0  0  0
 13 11  2  0  0  0  0
 14  3  1  0  0  0  0
 15 14  1  0  0  0  0
 16 20  1  0  0  0  0
 16 19  2  0  0  0  0
 17 16  1  0  0  0  0
 17 23  1  0  0  0  0
 18 16  2  0  0  0  0
 21 17  1  0  0  0  0
 22 17  1  0  0  0  0
M  RAD  3   5   2  14   2  15   3
M  END
