Coordinates from ORCA-job 4-NO2-Ph-N2-OTf-B3LYPG-6-31G_dp-MTMO-d009-169-n800
 OpenBabel09051908473D

 23 22  0  0  0  0  0  0  0  0999 V2000
   -2.4605   -1.0756   -6.2473 C   0  0  0  0  0  0  0  0  0  0  0  0
   -1.0964   -0.8101   -6.1854 C   0  0  0  0  0  0  0  0  0  0  0  0
   -0.5420   -0.3859   -4.9777 C   0  0  0  0  0  0  0  0  0  0  0  0
   -1.3117   -0.2192   -3.8263 C   0  0  0  0  0  0  0  0  0  0  0  0
   -2.6783   -0.4749   -3.8907 C   0  0  0  0  0  0  0  0  0  0  0  0
   -3.2296   -0.9004   -5.0980 C   0  0  0  0  0  0  0  0  0  0  0  0
   -2.9338   -1.4102   -7.1615 H   0  0  0  0  0  0  0  0  0  0  0  0
   -0.4597   -0.9309   -7.0541 H   0  0  0  0  0  0  0  0  0  0  0  0
   -0.8493    0.1066   -2.9029 H   0  0  0  0  0  0  0  0  0  0  0  0
   -3.3173   -0.3569   -3.0248 H   0  0  0  0  0  0  0  0  0  0  0  0
   -4.6747   -1.1779   -5.1614 N   0  0  0  0  0  0  0  0  0  0  0  0
   -5.3299   -1.0166   -4.1335 O   0  0  0  0  0  0  0  0  0  0  0  0
   -5.1338   -1.5539   -6.2385 O   0  0  0  0  0  0  0  0  0  0  0  0
    5.2938    4.5053   -8.9959 N   0  0  0  0  0  0  0  0  0  0  0  0
    4.5224    3.8787   -8.5122 N   0  0  0  0  0  0  0  0  0  0  0  0
    1.5327    1.2602   -4.6642 S   0  0  0  0  0  0  0  0  0  0  0  0
    1.7836    1.7878   -6.4431 C   0  0  0  0  0  0  0  0  0  0  0  0
    0.5634    2.1641   -4.0694 O   0  0  0  0  0  0  0  0  0  0  0  0
    2.8365    0.9897   -4.0962 O   0  0  0  0  0  0  0  0  0  0  0  0
    0.8502   -0.2241   -4.9351 O   0  0  0  0  0  0  0  0  0  0  0  0
    0.6029    1.8042   -7.0647 F   0  0  0  0  0  0  0  0  0  0  0  0
    2.3118    3.0067   -6.4434 F   0  0  0  0  0  0  0  0  0  0  0  0
    2.5987    0.9345   -7.0513 F   0  0  0  0  0  0  0  0  0  0  0  0
  1  2  2  0  0  0  0
  1  6  1  0  0  0  0
  2  3  1  0  0  0  0
  3 20  1  0  0  0  0
  3  4  2  0  0  0  0
  4  9  1  0  0  0  0
  5  4  1  0  0  0  0
  5 10  1  0  0  0  0
  6  5  2  0  0  0  0
  7  1  1  0  0  0  0
  8  2  1  0  0  0  0
 11  6  1  0  0  0  0
 11 12  2  0  0  0  0
 13 11  2  0  0  0  0
 14 15  3  0  0  0  0
 16 19  2  0  0  0  0
 16 18  2  0  0  0  0
 17 16  1  0  0  0  0
 20 16  1  0  0  0  0
 21 17  1  0  0  0  0
 22 17  1  0  0  0  0
 23 17  1  0  0  0  0
M  END
