Coordinates from ORCA-job 4-NO2-Ph-N2-OTf-B3LYPG-6-31G_dp-MTMO-d009-169-n800
 OpenBabel09051908473D

 23 22  0  0  0  0  0  0  0  0999 V2000
   -2.5304   -1.2096   -6.1601 C   0  0  0  0  0  0  0  0  0  0  0  0
   -1.1584   -0.9929   -6.0846 C   0  0  0  0  0  0  0  0  0  0  0  0
   -0.6152   -0.4898   -4.9024 C   0  0  0  0  0  0  0  0  0  0  0  0
   -1.4034   -0.1976   -3.7891 C   0  0  0  0  0  0  0  0  0  0  0  0
   -2.7774   -0.4049   -3.8681 C   0  0  0  0  0  0  0  0  0  0  0  0
   -3.3177   -0.9088   -5.0499 C   0  0  0  0  0  0  0  0  0  0  0  0
   -2.9959   -1.6011   -7.0556 H   0  0  0  0  0  0  0  0  0  0  0  0
   -0.5069   -1.2107   -6.9229 H   0  0  0  0  0  0  0  0  0  0  0  0
   -0.9490    0.1875   -2.8847 H   0  0  0  0  0  0  0  0  0  0  0  0
   -3.4309   -0.1899   -3.0323 H   0  0  0  0  0  0  0  0  0  0  0  0
   -4.7713   -1.1341   -5.1278 N   0  0  0  0  0  0  0  0  0  0  0  0
   -5.4422   -0.8638   -4.1337 O   0  0  0  0  0  0  0  0  0  0  0  0
   -5.2208   -1.5789   -6.1826 O   0  0  0  0  0  0  0  0  0  0  0  0
    5.9553    5.6254   -9.2455 N   0  0  0  0  0  0  0  0  0  0  0  0
    5.1701    4.9735   -8.8210 N   0  0  0  0  0  0  0  0  0  0  0  0
    1.5161    1.0946   -4.6703 S   0  0  0  0  0  0  0  0  0  0  0  0
    1.7534    1.5016   -6.4817 C   0  0  0  0  0  0  0  0  0  0  0  0
    0.5889    2.0672   -4.1183 O   0  0  0  0  0  0  0  0  0  0  0  0
    2.8187    0.8123   -4.1056 O   0  0  0  0  0  0  0  0  0  0  0  0
    0.7810   -0.3783   -4.8393 O   0  0  0  0  0  0  0  0  0  0  0  0
    0.5603    1.5581   -7.0764 F   0  0  0  0  0  0  0  0  0  0  0  0
    2.3596    2.6801   -6.5697 F   0  0  0  0  0  0  0  0  0  0  0  0
    2.4954    0.5610   -7.0562 F   0  0  0  0  0  0  0  0  0  0  0  0
  1  2  2  0  0  0  0
  1  6  1  0  0  0  0
  2  3  1  0  0  0  0
  3 20  1  0  0  0  0
  3  4  2  0  0  0  0
  4  9  1  0  0  0  0
  5  4  1  0  0  0  0
  5 10  1  0  0  0  0
  6  5  2  0  0  0  0
  7  1  1  0  0  0  0
  8  2  1  0  0  0  0
 11  6  1  0  0  0  0
 11 12  2  0  0  0  0
 13 11  2  0  0  0  0
 14 15  3  0  0  0  0
 16 18  2  0  0  0  0
 16 19  2  0  0  0  0
 17 16  1  0  0  0  0
 20 16  1  0  0  0  0
 21 17  1  0  0  0  0
 22 17  1  0  0  0  0
 23 17  1  0  0  0  0
M  END
