Coordinates from ORCA-job 4-NO2-Ph-N2-OTf-B3LYPG-6-31G_dp-MTMO-d009-169-n800
 OpenBabel09051908473D

 23 22  0  0  0  0  0  0  0  0999 V2000
   -2.0733   -0.9128   -6.1631 C   0  0  0  0  0  0  0  0  0  0  0  0
   -0.7194   -0.6140   -6.0437 C   0  0  0  0  0  0  0  0  0  0  0  0
   -0.3139    0.2893   -5.0613 C   0  0  0  0  0  0  0  0  0  0  0  0
   -1.2205    0.8883   -4.1873 C   0  0  0  0  0  0  0  0  0  0  0  0
   -2.5727    0.5807   -4.2991 C   0  0  0  0  0  0  0  0  0  0  0  0
   -2.9776   -0.3126   -5.2893 C   0  0  0  0  0  0  0  0  0  0  0  0
   -2.4353   -1.6061   -6.9122 H   0  0  0  0  0  0  0  0  0  0  0  0
    0.0081   -1.0754   -6.6988 H   0  0  0  0  0  0  0  0  0  0  0  0
   -0.8581    1.5793   -3.4353 H   0  0  0  0  0  0  0  0  0  0  0  0
   -3.3117    1.0197   -3.6414 H   0  0  0  0  0  0  0  0  0  0  0  0
   -4.4083   -0.6375   -5.4120 N   0  0  0  0  0  0  0  0  0  0  0  0
   -5.1829   -0.0970   -4.6244 O   0  0  0  0  0  0  0  0  0  0  0  0
   -4.7378   -1.4294   -6.2933 O   0  0  0  0  0  0  0  0  0  0  0  0
   -0.2886    3.7290   -5.6096 N   0  0  0  0  0  0  0  0  0  0  0  0
   -0.5610    4.7079   -6.0435 N   0  0  0  0  0  0  0  0  0  0  0  0
    1.9990    1.2535   -5.9934 S   0  0  0  0  0  0  0  0  0  0  0  0
    3.1666   -0.1903   -6.2165 C   0  0  0  0  0  0  0  0  0  0  0  0
    1.2593    1.4256   -7.2318 O   0  0  0  0  0  0  0  0  0  0  0  0
    2.7484    2.3154   -5.3529 O   0  0  0  0  0  0  0  0  0  0  0  0
    1.0425    0.5605   -4.8330 O   0  0  0  0  0  0  0  0  0  0  0  0
    2.4874   -1.2465   -6.6714 F   0  0  0  0  0  0  0  0  0  0  0  0
    4.0887    0.1638   -7.1064 F   0  0  0  0  0  0  0  0  0  0  0  0
    3.7403   -0.4902   -5.0583 F   0  0  0  0  0  0  0  0  0  0  0  0
  1  2  2  0  0  0  0
  1  6  1  0  0  0  0
  2  3  1  0  0  0  0
  3 20  1  0  0  0  0
  3  4  2  0  0  0  0
  4  9  1  0  0  0  0
  5  4  1  0  0  0  0
  5 10  1  0  0  0  0
  6  5  2  0  0  0  0
  7  1  1  0  0  0  0
  8  2  1  0  0  0  0
 11  6  1  0  0  0  0
 11 12  2  0  0  0  0
 13 11  2  0  0  0  0
 15 14  3  0  0  0  0
 16 19  2  0  0  0  0
 16 20  1  0  0  0  0
 17 16  1  0  0  0  0
 17 23  1  0  0  0  0
 18 16  2  0  0  0  0
 21 17  1  0  0  0  0
 22 17  1  0  0  0  0
M  END
