Coordinates from ORCA-job 4-NO2-Ph-N2-OTf-B3LYPG-6-31G_dp-MTMO-d009-169-n800
 OpenBabel09051908473D

 23 22  0  0  0  0  0  0  0  0999 V2000
   -1.9750   -1.5704   -5.5525 C   0  0  0  0  0  0  0  0  0  0  0  0
   -0.6335   -1.2629   -5.3507 C   0  0  0  0  0  0  0  0  0  0  0  0
   -0.2836    0.0390   -4.9939 C   0  0  0  0  0  0  0  0  0  0  0  0
   -1.2340    1.0468   -4.8306 C   0  0  0  0  0  0  0  0  0  0  0  0
   -2.5753    0.7405   -5.0417 C   0  0  0  0  0  0  0  0  0  0  0  0
   -2.9237   -0.5612   -5.3966 C   0  0  0  0  0  0  0  0  0  0  0  0
   -2.2954   -2.5669   -5.8285 H   0  0  0  0  0  0  0  0  0  0  0  0
    0.1393   -2.0145   -5.4624 H   0  0  0  0  0  0  0  0  0  0  0  0
   -0.9296    2.0472   -4.5479 H   0  0  0  0  0  0  0  0  0  0  0  0
   -3.3503    1.4879   -4.9293 H   0  0  0  0  0  0  0  0  0  0  0  0
   -4.3447   -0.8837   -5.6116 N   0  0  0  0  0  0  0  0  0  0  0  0
   -5.1615    0.0236   -5.4658 O   0  0  0  0  0  0  0  0  0  0  0  0
   -4.6231   -2.0404   -5.9231 O   0  0  0  0  0  0  0  0  0  0  0  0
    0.0332    4.8371   -4.5967 N   0  0  0  0  0  0  0  0  0  0  0  0
    0.6223    5.6945   -4.9692 N   0  0  0  0  0  0  0  0  0  0  0  0
    1.9726    1.3059   -5.6354 S   0  0  0  0  0  0  0  0  0  0  0  0
    2.6806    0.0506   -6.8299 C   0  0  0  0  0  0  0  0  0  0  0  0
    1.1161    2.2011   -6.3943 O   0  0  0  0  0  0  0  0  0  0  0  0
    3.0503    1.7576   -4.7806 O   0  0  0  0  0  0  0  0  0  0  0  0
    1.0677    0.2821   -4.7048 O   0  0  0  0  0  0  0  0  0  0  0  0
    1.6808   -0.5428   -7.4853 F   0  0  0  0  0  0  0  0  0  0  0  0
    3.4679    0.6891   -7.6888 F   0  0  0  0  0  0  0  0  0  0  0  0
    3.3780   -0.8589   -6.1584 F   0  0  0  0  0  0  0  0  0  0  0  0
  1  6  2  0  0  0  0
  1  2  1  0  0  0  0
  2  3  2  0  0  0  0
  3  4  1  0  0  0  0
  3 20  1  0  0  0  0
  4  9  1  0  0  0  0
  5 10  1  0  0  0  0
  5  4  2  0  0  0  0
  6  5  1  0  0  0  0
  7  1  1  0  0  0  0
  8  2  1  0  0  0  0
 11 12  2  0  0  0  0
 11  6  1  0  0  0  0
 13 11  2  0  0  0  0
 15 14  3  0  0  0  0
 16 19  2  0  0  0  0
 16 20  1  0  0  0  0
 17 23  1  0  0  0  0
 17 16  1  0  0  0  0
 18 16  2  0  0  0  0
 21 17  1  0  0  0  0
 22 17  1  0  0  0  0
M  END
