Coordinates from ORCA-job 4-NO2-Ph-N2-OTf-B3LYPG-6-31G_dp-MTMO-d009-169-n800
 OpenBabel09051908483D

 23 22  0  0  0  0  0  0  0  0999 V2000
   -2.9066   -1.4856   -5.9572 C   0  0  0  0  0  0  0  0  0  0  0  0
   -1.5359   -1.2619   -5.8781 C   0  0  0  0  0  0  0  0  0  0  0  0
   -0.9925   -0.7967   -4.6805 C   0  0  0  0  0  0  0  0  0  0  0  0
   -1.7791   -0.5498   -3.5552 C   0  0  0  0  0  0  0  0  0  0  0  0
   -3.1520   -0.7639   -3.6375 C   0  0  0  0  0  0  0  0  0  0  0  0
   -3.6925   -1.2295   -4.8348 C   0  0  0  0  0  0  0  0  0  0  0  0
   -3.3721   -1.8489   -6.8644 H   0  0  0  0  0  0  0  0  0  0  0  0
   -0.8856   -1.4460   -6.7253 H   0  0  0  0  0  0  0  0  0  0  0  0
   -1.3247   -0.1940   -2.6389 H   0  0  0  0  0  0  0  0  0  0  0  0
   -3.8042   -0.5833   -2.7926 H   0  0  0  0  0  0  0  0  0  0  0  0
   -5.1448   -1.4621   -4.9164 N   0  0  0  0  0  0  0  0  0  0  0  0
   -5.8147   -1.2295   -3.9122 O   0  0  0  0  0  0  0  0  0  0  0  0
   -5.5942   -1.8747   -5.9842 O   0  0  0  0  0  0  0  0  0  0  0  0
   10.0154    8.7252  -11.7461 N   0  0  0  0  0  0  0  0  0  0  0  0
    9.2005    8.0835  -11.3643 N   0  0  0  0  0  0  0  0  0  0  0  0
    1.1286    0.7934   -4.3978 S   0  0  0  0  0  0  0  0  0  0  0  0
    1.3379    1.2795   -6.1930 C   0  0  0  0  0  0  0  0  0  0  0  0
    0.2017    1.7346   -3.7935 O   0  0  0  0  0  0  0  0  0  0  0  0
    2.4409    0.4983   -3.8631 O   0  0  0  0  0  0  0  0  0  0  0  0
    0.4032   -0.6772   -4.6181 O   0  0  0  0  0  0  0  0  0  0  0  0
    0.1365    1.3540   -6.7686 F   0  0  0  0  0  0  0  0  0  0  0  0
    1.9354    2.4653   -6.2377 F   0  0  0  0  0  0  0  0  0  0  0  0
    2.0779    0.3705   -6.8183 F   0  0  0  0  0  0  0  0  0  0  0  0
  1  2  2  0  0  0  0
  1  6  1  0  0  0  0
  2  3  1  0  0  0  0
  3 20  1  0  0  0  0
  3  4  2  0  0  0  0
  4  9  1  0  0  0  0
  5  4  1  0  0  0  0
  5 10  1  0  0  0  0
  6  5  2  0  0  0  0
  7  1  1  0  0  0  0
  8  2  1  0  0  0  0
 11  6  1  0  0  0  0
 11 12  2  0  0  0  0
 13 11  2  0  0  0  0
 14 15  3  0  0  0  0
 16 19  2  0  0  0  0
 16 18  2  0  0  0  0
 17 16  1  0  0  0  0
 20 16  1  0  0  0  0
 21 17  1  0  0  0  0
 22 17  1  0  0  0  0
 23 17  1  0  0  0  0
M  END
