Coordinates from ORCA-job 4-NO2-Ph-N2-OTf-B3LYPG-6-31G_dp-MTMO-d009-169-n800
 OpenBabel09051908473D

 23 22  0  0  0  0  0  0  0  0999 V2000
   -1.9688   -1.5491   -5.5276 C   0  0  0  0  0  0  0  0  0  0  0  0
   -0.6303   -1.2212   -5.3381 C   0  0  0  0  0  0  0  0  0  0  0  0
   -0.2941    0.0936   -5.0170 C   0  0  0  0  0  0  0  0  0  0  0  0
   -1.2552    1.0944   -4.8771 C   0  0  0  0  0  0  0  0  0  0  0  0
   -2.5937    0.7675   -5.0751 C   0  0  0  0  0  0  0  0  0  0  0  0
   -2.9283   -0.5469   -5.3948 C   0  0  0  0  0  0  0  0  0  0  0  0
   -2.2786   -2.5560   -5.7763 H   0  0  0  0  0  0  0  0  0  0  0  0
    0.1503   -1.9671   -5.4322 H   0  0  0  0  0  0  0  0  0  0  0  0
   -0.9602    2.1041   -4.6194 H   0  0  0  0  0  0  0  0  0  0  0  0
   -3.3769    1.5085   -4.9794 H   0  0  0  0  0  0  0  0  0  0  0  0
   -4.3463   -0.8910   -5.5962 N   0  0  0  0  0  0  0  0  0  0  0  0
   -5.1730    0.0103   -5.4703 O   0  0  0  0  0  0  0  0  0  0  0  0
   -4.6125   -2.0583   -5.8772 O   0  0  0  0  0  0  0  0  0  0  0  0
    0.0909    4.6129   -4.5040 N   0  0  0  0  0  0  0  0  0  0  0  0
    0.6232    5.5497   -4.7487 N   0  0  0  0  0  0  0  0  0  0  0  0
    1.9513    1.3428   -5.7204 S   0  0  0  0  0  0  0  0  0  0  0  0
    2.7042    0.0280   -6.8189 C   0  0  0  0  0  0  0  0  0  0  0  0
    1.0866    2.1660   -6.5483 O   0  0  0  0  0  0  0  0  0  0  0  0
    3.0072    1.8743   -4.8844 O   0  0  0  0  0  0  0  0  0  0  0  0
    1.0544    0.3618   -4.7375 O   0  0  0  0  0  0  0  0  0  0  0  0
    1.7281   -0.6237   -7.4547 F   0  0  0  0  0  0  0  0  0  0  0  0
    3.4974    0.6256   -7.7016 F   0  0  0  0  0  0  0  0  0  0  0  0
    3.4036   -0.8251   -6.0789 F   0  0  0  0  0  0  0  0  0  0  0  0
  1  6  2  0  0  0  0
  1  2  1  0  0  0  0
  2  3  2  0  0  0  0
  3  4  1  0  0  0  0
  3 20  1  0  0  0  0
  4  9  1  0  0  0  0
  5 10  1  0  0  0  0
  5  4  2  0  0  0  0
  6  5  1  0  0  0  0
  7  1  1  0  0  0  0
  8  2  1  0  0  0  0
 11 12  2  0  0  0  0
 11  6  1  0  0  0  0
 13 11  2  0  0  0  0
 15 14  3  0  0  0  0
 16 19  2  0  0  0  0
 16 20  1  0  0  0  0
 17 23  1  0  0  0  0
 17 16  1  0  0  0  0
 18 16  2  0  0  0  0
 21 17  1  0  0  0  0
 22 17  1  0  0  0  0
M  END
