Coordinates from ORCA-job 4-NO2-Ph-N2-OTf-B3LYPG-6-31G_dp-MTMO-d009-169-n800
 OpenBabel09051908473D

 23 22  0  0  0  0  0  0  0  0999 V2000
   -1.9902   -1.6573   -5.6768 C   0  0  0  0  0  0  0  0  0  0  0  0
   -0.6567   -1.3433   -5.4357 C   0  0  0  0  0  0  0  0  0  0  0  0
   -0.3394   -0.0866   -4.9206 C   0  0  0  0  0  0  0  0  0  0  0  0
   -1.3155    0.8686   -4.6372 C   0  0  0  0  0  0  0  0  0  0  0  0
   -2.6488    0.5577   -4.8882 C   0  0  0  0  0  0  0  0  0  0  0  0
   -2.9641   -0.6991   -5.4009 C   0  0  0  0  0  0  0  0  0  0  0  0
   -2.2855   -2.6205   -6.0727 H   0  0  0  0  0  0  0  0  0  0  0  0
    0.1351   -2.0557   -5.6363 H   0  0  0  0  0  0  0  0  0  0  0  0
   -1.0343    1.8334   -4.2344 H   0  0  0  0  0  0  0  0  0  0  0  0
   -3.4423    1.2660   -4.6871 H   0  0  0  0  0  0  0  0  0  0  0  0
   -4.3767   -1.0284   -5.6579 N   0  0  0  0  0  0  0  0  0  0  0  0
   -5.2157   -0.1656   -5.4058 O   0  0  0  0  0  0  0  0  0  0  0  0
   -4.6258   -2.1452   -6.1083 O   0  0  0  0  0  0  0  0  0  0  0  0
    0.6557    5.5094   -5.0765 N   0  0  0  0  0  0  0  0  0  0  0  0
    1.4356    5.8111   -5.7991 N   0  0  0  0  0  0  0  0  0  0  0  0
    1.8816    1.3195   -5.3762 S   0  0  0  0  0  0  0  0  0  0  0  0
    2.5541    0.2861   -6.7841 C   0  0  0  0  0  0  0  0  0  0  0  0
    1.0017    2.3238   -5.9497 O   0  0  0  0  0  0  0  0  0  0  0  0
    2.9814    1.6280   -4.4873 O   0  0  0  0  0  0  0  0  0  0  0  0
    1.0062    0.1496   -4.6022 O   0  0  0  0  0  0  0  0  0  0  0  0
    1.5367   -0.1649   -7.5197 F   0  0  0  0  0  0  0  0  0  0  0  0
    3.3440    1.0541   -7.5267 F   0  0  0  0  0  0  0  0  0  0  0  0
    3.2420   -0.7396   -6.2944 F   0  0  0  0  0  0  0  0  0  0  0  0
  1  2  2  0  0  0  0
  1  6  1  0  0  0  0
  2  3  1  0  0  0  0
  3  4  2  0  0  0  0
  3 20  1  0  0  0  0
  4  9  1  0  0  0  0
  5 10  1  0  0  0  0
  5  4  1  0  0  0  0
  6  5  2  0  0  0  0
  7  1  1  0  0  0  0
  8  2  1  0  0  0  0
 11 12  2  0  0  0  0
 11  6  1  0  0  0  0
 13 11  2  0  0  0  0
 15 14  3  0  0  0  0
 16 20  1  0  0  0  0
 16 19  2  0  0  0  0
 17 23  1  0  0  0  0
 17 16  1  0  0  0  0
 18 16  2  0  0  0  0
 21 17  1  0  0  0  0
 22 17  1  0  0  0  0
M  END
