Coordinates from ORCA-job 4-NO2-Ph-N2-OTf-B3LYPG-6-31G_dp-MTMO-d009-169-n800
 OpenBabel09051908473D

 23 22  0  0  0  0  0  0  0  0999 V2000
   -2.0823   -0.3946   -6.3594 C   0  0  0  0  0  0  0  0  0  0  0  0
   -0.7498   -0.0054   -6.3099 C   0  0  0  0  0  0  0  0  0  0  0  0
   -0.3034    0.7373   -5.2049 C   0  0  0  0  0  0  0  0  0  0  0  0
   -1.1139    0.8852   -4.0664 C   0  0  0  0  0  0  0  0  0  0  0  0
   -2.4395    0.4857   -4.1150 C   0  0  0  0  0  0  0  0  0  0  0  0
   -2.9175   -0.1253   -5.2758 C   0  0  0  0  0  0  0  0  0  0  0  0
   -2.4795   -0.9247   -7.2160 H   0  0  0  0  0  0  0  0  0  0  0  0
   -0.0877   -0.2133   -7.1390 H   0  0  0  0  0  0  0  0  0  0  0  0
   -0.6981    1.3609   -3.1859 H   0  0  0  0  0  0  0  0  0  0  0  0
   -3.1046    0.6258   -3.2722 H   0  0  0  0  0  0  0  0  0  0  0  0
   -4.3232   -0.5449   -5.3346 N   0  0  0  0  0  0  0  0  0  0  0  0
   -5.0260   -0.3155   -4.3508 O   0  0  0  0  0  0  0  0  0  0  0  0
   -4.7093   -1.0987   -6.3632 O   0  0  0  0  0  0  0  0  0  0  0  0
   -0.5833    2.6371   -5.9545 N   0  0  0  0  0  0  0  0  0  0  0  0
   -1.4889    3.1718   -6.3095 N   0  0  0  0  0  0  0  0  0  0  0  0
    2.2090    1.3194   -6.0662 S   0  0  0  0  0  0  0  0  0  0  0  0
    3.0979   -0.3232   -5.9682 C   0  0  0  0  0  0  0  0  0  0  0  0
    1.6485    1.4296   -7.4033 O   0  0  0  0  0  0  0  0  0  0  0  0
    3.0681    2.3242   -5.4760 O   0  0  0  0  0  0  0  0  0  0  0  0
    1.0516    0.9801   -4.9398 O   0  0  0  0  0  0  0  0  0  0  0  0
    2.2549   -1.2954   -6.3201 F   0  0  0  0  0  0  0  0  0  0  0  0
    4.1222   -0.2865   -6.8152 F   0  0  0  0  0  0  0  0  0  0  0  0
    3.5338   -0.5283   -4.7318 F   0  0  0  0  0  0  0  0  0  0  0  0
  1  2  2  0  0  0  0
  1  6  1  0  0  0  0
  2  3  1  0  0  0  0
  3 20  1  0  0  0  0
  3  4  2  0  0  0  0
  4  9  1  0  0  0  0
  5  4  1  0  0  0  0
  5 10  1  0  0  0  0
  6  5  2  0  0  0  0
  7  1  1  0  0  0  0
  8  2  1  0  0  0  0
 11  6  1  0  0  0  0
 11 12  2  0  0  0  0
 13 11  2  0  0  0  0
 15 14  3  0  0  0  0
 16 17  1  0  0  0  0
 16 19  2  0  0  0  0
 16 20  1  0  0  0  0
 17 23  1  0  0  0  0
 18 16  2  0  0  0  0
 21 17  1  0  0  0  0
 22 17  1  0  0  0  0
M  END
