Coordinates from ORCA-job 4-NO2-Ph-N2-OTf-B3LYPG-6-31G_dp-MTMO-d009-169-n800
 OpenBabel09051908473D

 23 22  0  0  0  0  0  0  0  0999 V2000
   -2.3954   -0.9636   -6.3188 C   0  0  0  0  0  0  0  0  0  0  0  0
   -1.0369   -0.6828   -6.2152 C   0  0  0  0  0  0  0  0  0  0  0  0
   -0.5071   -0.3463   -4.9695 C   0  0  0  0  0  0  0  0  0  0  0  0
   -1.2961   -0.2824   -3.8209 C   0  0  0  0  0  0  0  0  0  0  0  0
   -2.6570   -0.5541   -3.9261 C   0  0  0  0  0  0  0  0  0  0  0  0
   -3.1836   -0.8916   -5.1715 C   0  0  0  0  0  0  0  0  0  0  0  0
   -2.8500   -1.2325   -7.2637 H   0  0  0  0  0  0  0  0  0  0  0  0
   -0.3863   -0.7243   -7.0809 H   0  0  0  0  0  0  0  0  0  0  0  0
   -0.8521   -0.0229   -2.8678 H   0  0  0  0  0  0  0  0  0  0  0  0
   -3.3101   -0.5146   -3.0635 H   0  0  0  0  0  0  0  0  0  0  0  0
   -4.6230   -1.1857   -5.2791 N   0  0  0  0  0  0  0  0  0  0  0  0
   -5.2950   -1.1189   -4.2517 O   0  0  0  0  0  0  0  0  0  0  0  0
   -5.0605   -1.4799   -6.3902 O   0  0  0  0  0  0  0  0  0  0  0  0
    4.8419    3.9495   -9.4044 N   0  0  0  0  0  0  0  0  0  0  0  0
    4.1089    3.4294   -8.7611 N   0  0  0  0  0  0  0  0  0  0  0  0
    1.5295    1.3106   -4.5098 S   0  0  0  0  0  0  0  0  0  0  0  0
    1.8564    1.9322   -6.2460 C   0  0  0  0  0  0  0  0  0  0  0  0
    0.5200    2.1699   -3.9156 O   0  0  0  0  0  0  0  0  0  0  0  0
    2.8099    1.0288   -3.8955 O   0  0  0  0  0  0  0  0  0  0  0  0
    0.8812   -0.1652   -4.8904 O   0  0  0  0  0  0  0  0  0  0  0  0
    0.7094    1.9495   -6.9280 F   0  0  0  0  0  0  0  0  0  0  0  0
    2.3484    3.1633   -6.1578 F   0  0  0  0  0  0  0  0  0  0  0  0
    2.7266    1.1327   -6.8503 F   0  0  0  0  0  0  0  0  0  0  0  0
  1  2  2  0  0  0  0
  1  6  1  0  0  0  0
  2  3  1  0  0  0  0
  3 20  1  0  0  0  0
  3  4  2  0  0  0  0
  4  9  1  0  0  0  0
  5  4  1  0  0  0  0
  5 10  1  0  0  0  0
  6  5  2  0  0  0  0
  7  1  1  0  0  0  0
  8  2  1  0  0  0  0
 11  6  1  0  0  0  0
 11 12  2  0  0  0  0
 13 11  2  0  0  0  0
 14 15  3  0  0  0  0
 16 18  2  0  0  0  0
 16 19  2  0  0  0  0
 17 22  1  0  0  0  0
 17 16  1  0  0  0  0
 20 16  1  0  0  0  0
 21 17  1  0  0  0  0
 23 17  1  0  0  0  0
M  END
