Coordinates from ORCA-job 4-NO2-Ph-N2-OTf-B3LYPG-6-31G_dp-MTMO-d009-169-n800
 OpenBabel09051908483D

 23 22  0  0  0  0  0  0  0  0999 V2000
   -2.9117   -1.4894   -5.9542 C   0  0  0  0  0  0  0  0  0  0  0  0
   -1.5411   -1.2649   -5.8756 C   0  0  0  0  0  0  0  0  0  0  0  0
   -0.9973   -0.8003   -4.6781 C   0  0  0  0  0  0  0  0  0  0  0  0
   -1.7835   -0.5549   -3.5521 C   0  0  0  0  0  0  0  0  0  0  0  0
   -3.1563   -0.7697   -3.6338 C   0  0  0  0  0  0  0  0  0  0  0  0
   -3.6972   -1.2347   -4.8312 C   0  0  0  0  0  0  0  0  0  0  0  0
   -3.3775   -1.8523   -6.8614 H   0  0  0  0  0  0  0  0  0  0  0  0
   -0.8912   -1.4480   -6.7234 H   0  0  0  0  0  0  0  0  0  0  0  0
   -1.3288   -0.1995   -2.6358 H   0  0  0  0  0  0  0  0  0  0  0  0
   -3.8081   -0.5902   -2.7884 H   0  0  0  0  0  0  0  0  0  0  0  0
   -5.1493   -1.4682   -4.9122 N   0  0  0  0  0  0  0  0  0  0  0  0
   -5.8190   -1.2355   -3.9078 O   0  0  0  0  0  0  0  0  0  0  0  0
   -5.5993   -1.8788   -5.9805 O   0  0  0  0  0  0  0  0  0  0  0  0
   10.0700    8.7646  -11.7766 N   0  0  0  0  0  0  0  0  0  0  0  0
    9.2552    8.1230  -11.3941 N   0  0  0  0  0  0  0  0  0  0  0  0
    1.1228    0.7910   -4.3957 S   0  0  0  0  0  0  0  0  0  0  0  0
    1.3316    1.2773   -6.1908 C   0  0  0  0  0  0  0  0  0  0  0  0
    0.1954    1.7316   -3.7912 O   0  0  0  0  0  0  0  0  0  0  0  0
    2.4352    0.4966   -3.8609 O   0  0  0  0  0  0  0  0  0  0  0  0
    0.3984   -0.6800   -4.6163 O   0  0  0  0  0  0  0  0  0  0  0  0
    0.1301    1.3519   -6.7661 F   0  0  0  0  0  0  0  0  0  0  0  0
    1.9291    2.4631   -6.2354 F   0  0  0  0  0  0  0  0  0  0  0  0
    2.0716    0.3683   -6.8163 F   0  0  0  0  0  0  0  0  0  0  0  0
  1  2  2  0  0  0  0
  1  6  1  0  0  0  0
  2  3  1  0  0  0  0
  3 20  1  0  0  0  0
  3  4  2  0  0  0  0
  4  9  1  0  0  0  0
  5  4  1  0  0  0  0
  5 10  1  0  0  0  0
  6  5  2  0  0  0  0
  7  1  1  0  0  0  0
  8  2  1  0  0  0  0
 11  6  1  0  0  0  0
 11 12  2  0  0  0  0
 13 11  2  0  0  0  0
 14 15  3  0  0  0  0
 16 19  2  0  0  0  0
 16 18  2  0  0  0  0
 17 16  1  0  0  0  0
 20 16  1  0  0  0  0
 21 17  1  0  0  0  0
 22 17  1  0  0  0  0
 23 17  1  0  0  0  0
M  END
