Coordinates from ORCA-job 4-NO2-Ph-N2-OTf-B3LYPG-6-31G_dp-MTMO-d009-169-n800
 OpenBabel09051908473D

 23 22  0  0  0  0  0  0  0  0999 V2000
   -1.9691   -1.5652   -5.5209 C   0  0  0  0  0  0  0  0  0  0  0  0
   -0.6311   -1.2380   -5.3274 C   0  0  0  0  0  0  0  0  0  0  0  0
   -0.2944    0.0782   -5.0127 C   0  0  0  0  0  0  0  0  0  0  0  0
   -1.2548    1.0815   -4.8834 C   0  0  0  0  0  0  0  0  0  0  0  0
   -2.5927    0.7549   -5.0855 C   0  0  0  0  0  0  0  0  0  0  0  0
   -2.9278   -0.5609   -5.3985 C   0  0  0  0  0  0  0  0  0  0  0  0
   -2.2792   -2.5732   -5.7650 H   0  0  0  0  0  0  0  0  0  0  0  0
    0.1492   -1.9853   -5.4134 H   0  0  0  0  0  0  0  0  0  0  0  0
   -0.9604    2.0932   -4.6321 H   0  0  0  0  0  0  0  0  0  0  0  0
   -3.3753    1.4977   -4.9980 H   0  0  0  0  0  0  0  0  0  0  0  0
   -4.3454   -0.9043   -5.6042 N   0  0  0  0  0  0  0  0  0  0  0  0
   -5.1713   -0.0011   -5.4870 O   0  0  0  0  0  0  0  0  0  0  0  0
   -4.6118   -2.0727   -5.8800 O   0  0  0  0  0  0  0  0  0  0  0  0
    0.1171    4.7170   -4.5038 N   0  0  0  0  0  0  0  0  0  0  0  0
    0.6628    5.6444   -4.7550 N   0  0  0  0  0  0  0  0  0  0  0  0
    1.9534    1.3344   -5.7003 S   0  0  0  0  0  0  0  0  0  0  0  0
    2.6857    0.0332   -6.8288 C   0  0  0  0  0  0  0  0  0  0  0  0
    1.0918    2.1817   -6.5070 O   0  0  0  0  0  0  0  0  0  0  0  0
    3.0195    1.8393   -4.8608 O   0  0  0  0  0  0  0  0  0  0  0  0
    1.0537    0.3443   -4.7293 O   0  0  0  0  0  0  0  0  0  0  0  0
    1.6987   -0.5980   -7.4682 F   0  0  0  0  0  0  0  0  0  0  0  0
    3.4774    0.6396   -7.7068 F   0  0  0  0  0  0  0  0  0  0  0  0
    3.3831   -0.8394   -6.1099 F   0  0  0  0  0  0  0  0  0  0  0  0
  1  6  2  0  0  0  0
  1  2  1  0  0  0  0
  2  3  2  0  0  0  0
  3  4  1  0  0  0  0
  3 20  1  0  0  0  0
  4  9  1  0  0  0  0
  5 10  1  0  0  0  0
  5  4  2  0  0  0  0
  6  5  1  0  0  0  0
  7  1  1  0  0  0  0
  8  2  1  0  0  0  0
 11 12  2  0  0  0  0
 11  6  1  0  0  0  0
 13 11  2  0  0  0  0
 15 14  3  0  0  0  0
 16 19  2  0  0  0  0
 16 20  1  0  0  0  0
 17 23  1  0  0  0  0
 17 16  1  0  0  0  0
 18 16  2  0  0  0  0
 21 17  1  0  0  0  0
 22 17  1  0  0  0  0
M  END
