Coordinates from ORCA-job 4-NO2-Ph-N2-OTf-B3LYPG-6-31G_dp-MTMO-d009-169-n800
 OpenBabel09051908473D

 23 22  0  0  0  0  0  0  0  0999 V2000
   -2.4464   -1.0769   -6.2501 C   0  0  0  0  0  0  0  0  0  0  0  0
   -1.0796   -0.8313   -6.1689 C   0  0  0  0  0  0  0  0  0  0  0  0
   -0.5382   -0.4023   -4.9570 C   0  0  0  0  0  0  0  0  0  0  0  0
   -1.3236   -0.2120   -3.8199 C   0  0  0  0  0  0  0  0  0  0  0  0
   -2.6927   -0.4478   -3.9038 C   0  0  0  0  0  0  0  0  0  0  0  0
   -3.2310   -0.8778   -5.1153 C   0  0  0  0  0  0  0  0  0  0  0  0
   -2.9100   -1.4140   -7.1683 H   0  0  0  0  0  0  0  0  0  0  0  0
   -0.4309   -0.9709   -7.0259 H   0  0  0  0  0  0  0  0  0  0  0  0
   -0.8711    0.1169   -2.8927 H   0  0  0  0  0  0  0  0  0  0  0  0
   -3.3436   -0.3110   -3.0496 H   0  0  0  0  0  0  0  0  0  0  0  0
   -4.6791   -1.1341   -5.1991 N   0  0  0  0  0  0  0  0  0  0  0  0
   -5.3481   -0.9510   -4.1840 O   0  0  0  0  0  0  0  0  0  0  0  0
   -5.1263   -1.5154   -6.2794 O   0  0  0  0  0  0  0  0  0  0  0  0
    5.1553    4.6116   -9.1117 N   0  0  0  0  0  0  0  0  0  0  0  0
    4.4049    3.9978   -8.5808 N   0  0  0  0  0  0  0  0  0  0  0  0
    1.5553    1.2164   -4.6270 S   0  0  0  0  0  0  0  0  0  0  0  0
    1.8266    1.7308   -6.4067 C   0  0  0  0  0  0  0  0  0  0  0  0
    0.5940    2.1366   -4.0443 O   0  0  0  0  0  0  0  0  0  0  0  0
    2.8511    0.9315   -4.0476 O   0  0  0  0  0  0  0  0  0  0  0  0
    0.8553   -0.2602   -4.8945 O   0  0  0  0  0  0  0  0  0  0  0  0
    0.6497    1.7694   -7.0343 F   0  0  0  0  0  0  0  0  0  0  0  0
    2.3812    2.9379   -6.4097 F   0  0  0  0  0  0  0  0  0  0  0  0
    2.6262    0.8570   -7.0070 F   0  0  0  0  0  0  0  0  0  0  0  0
  1  2  2  0  0  0  0
  1  6  1  0  0  0  0
  2  3  1  0  0  0  0
  3 20  1  0  0  0  0
  3  4  2  0  0  0  0
  4  9  1  0  0  0  0
  5  4  1  0  0  0  0
  5 10  1  0  0  0  0
  6  5  2  0  0  0  0
  7  1  1  0  0  0  0
  8  2  1  0  0  0  0
 11  6  1  0  0  0  0
 11 12  2  0  0  0  0
 13 11  2  0  0  0  0
 14 15  3  0  0  0  0
 16 19  2  0  0  0  0
 16 18  2  0  0  0  0
 17 16  1  0  0  0  0
 20 16  1  0  0  0  0
 21 17  1  0  0  0  0
 22 17  1  0  0  0  0
 23 17  1  0  0  0  0
M  END
