Coordinates from ORCA-job 4-NO2-Ph-N2-OTf-B3LYPG-6-31G_dp-MTMO-d009-169-n800
 OpenBabel09051908473D

 23 22  0  0  0  0  0  0  0  0999 V2000
   -2.2125   -0.8988   -6.4010 C   0  0  0  0  0  0  0  0  0  0  0  0
   -0.8577   -0.6687   -6.1857 C   0  0  0  0  0  0  0  0  0  0  0  0
   -0.4215   -0.3386   -4.9027 C   0  0  0  0  0  0  0  0  0  0  0  0
   -1.3006   -0.2315   -3.8250 C   0  0  0  0  0  0  0  0  0  0  0  0
   -2.6574   -0.4521   -4.0422 C   0  0  0  0  0  0  0  0  0  0  0  0
   -3.0906   -0.7839   -5.3246 C   0  0  0  0  0  0  0  0  0  0  0  0
   -2.5969   -1.1615   -7.3782 H   0  0  0  0  0  0  0  0  0  0  0  0
   -0.1385   -0.7455   -6.9929 H   0  0  0  0  0  0  0  0  0  0  0  0
   -0.9280    0.0225   -2.8404 H   0  0  0  0  0  0  0  0  0  0  0  0
   -3.3785   -0.3782   -3.2382 H   0  0  0  0  0  0  0  0  0  0  0  0
   -4.5261   -1.0248   -5.5502 N   0  0  0  0  0  0  0  0  0  0  0  0
   -5.2786   -0.9190   -4.5837 O   0  0  0  0  0  0  0  0  0  0  0  0
   -4.8799   -1.3168   -6.6912 O   0  0  0  0  0  0  0  0  0  0  0  0
    3.4441    3.6933   -9.7995 N   0  0  0  0  0  0  0  0  0  0  0  0
    3.0226    3.1402   -8.9407 N   0  0  0  0  0  0  0  0  0  0  0  0
    1.6357    1.2390   -4.2822 S   0  0  0  0  0  0  0  0  0  0  0  0
    2.0724    1.8636   -5.9936 C   0  0  0  0  0  0  0  0  0  0  0  0
    0.6258    2.1262   -3.7311 O   0  0  0  0  0  0  0  0  0  0  0  0
    2.8721    0.9080   -3.6055 O   0  0  0  0  0  0  0  0  0  0  0  0
    0.9613   -0.2113   -4.7100 O   0  0  0  0  0  0  0  0  0  0  0  0
    0.9571    1.9769   -6.7158 F   0  0  0  0  0  0  0  0  0  0  0  0
    2.6518    3.0523   -5.8638 F   0  0  0  0  0  0  0  0  0  0  0  0
    2.9031    1.0097   -6.5796 F   0  0  0  0  0  0  0  0  0  0  0  0
  1  2  2  0  0  0  0
  1  6  1  0  0  0  0
  2  3  1  0  0  0  0
  3 20  1  0  0  0  0
  3  4  2  0  0  0  0
  4  9  1  0  0  0  0
  5  4  1  0  0  0  0
  5 10  1  0  0  0  0
  6  5  2  0  0  0  0
  7  1  1  0  0  0  0
  8  2  1  0  0  0  0
 11  6  1  0  0  0  0
 11 12  2  0  0  0  0
 13 11  2  0  0  0  0
 14 15  3  0  0  0  0
 16 18  2  0  0  0  0
 16 19  2  0  0  0  0
 17 22  1  0  0  0  0
 17 16  1  0  0  0  0
 20 16  1  0  0  0  0
 21 17  1  0  0  0  0
 23 17  1  0  0  0  0
M  END
