Coordinates from ORCA-job 4-NO2-Ph-N2-OTf-B3LYPG-6-31G_dp-MTMO-d009-169-n800
 OpenBabel09051908473D

 23 22  0  0  0  0  0  0  0  0999 V2000
   -2.4408   -1.0090   -6.2864 C   0  0  0  0  0  0  0  0  0  0  0  0
   -1.0814   -0.7223   -6.2150 C   0  0  0  0  0  0  0  0  0  0  0  0
   -0.5292   -0.3553   -4.9878 C   0  0  0  0  0  0  0  0  0  0  0  0
   -1.2966   -0.2661   -3.8263 C   0  0  0  0  0  0  0  0  0  0  0  0
   -2.6585   -0.5432   -3.8995 C   0  0  0  0  0  0  0  0  0  0  0  0
   -3.2075   -0.9117   -5.1264 C   0  0  0  0  0  0  0  0  0  0  0  0
   -2.9122   -1.3014   -7.2158 H   0  0  0  0  0  0  0  0  0  0  0  0
   -0.4470   -0.7830   -7.0916 H   0  0  0  0  0  0  0  0  0  0  0  0
   -0.8357    0.0167   -2.8880 H   0  0  0  0  0  0  0  0  0  0  0  0
   -3.2954   -0.4848   -3.0260 H   0  0  0  0  0  0  0  0  0  0  0  0
   -4.6477   -1.2119   -5.1998 N   0  0  0  0  0  0  0  0  0  0  0  0
   -5.3007   -1.1211   -4.1620 O   0  0  0  0  0  0  0  0  0  0  0  0
   -5.1050   -1.5350   -6.2947 O   0  0  0  0  0  0  0  0  0  0  0  0
    5.1606    4.1286   -9.1791 N   0  0  0  0  0  0  0  0  0  0  0  0
    4.3882    3.5711   -8.6185 N   0  0  0  0  0  0  0  0  0  0  0  0
    1.5136    1.3133   -4.5990 S   0  0  0  0  0  0  0  0  0  0  0  0
    1.8008    1.9077   -6.3516 C   0  0  0  0  0  0  0  0  0  0  0  0
    0.5158    2.1809   -3.9973 O   0  0  0  0  0  0  0  0  0  0  0  0
    2.8078    1.0436   -4.0085 O   0  0  0  0  0  0  0  0  0  0  0  0
    0.8600   -0.1699   -4.9397 O   0  0  0  0  0  0  0  0  0  0  0  0
    0.6400    1.9054   -7.0102 F   0  0  0  0  0  0  0  0  0  0  0  0
    2.2852    3.1436   -6.2941 F   0  0  0  0  0  0  0  0  0  0  0  0
    2.6645    1.1048   -6.9606 F   0  0  0  0  0  0  0  0  0  0  0  0
  1  2  2  0  0  0  0
  1  6  1  0  0  0  0
  2  3  1  0  0  0  0
  3 20  1  0  0  0  0
  3  4  2  0  0  0  0
  4  9  1  0  0  0  0
  5  4  1  0  0  0  0
  5 10  1  0  0  0  0
  6  5  2  0  0  0  0
  7  1  1  0  0  0  0
  8  2  1  0  0  0  0
 11  6  1  0  0  0  0
 11 12  2  0  0  0  0
 13 11  2  0  0  0  0
 14 15  3  0  0  0  0
 16 19  2  0  0  0  0
 16 18  2  0  0  0  0
 17 22  1  0  0  0  0
 17 16  1  0  0  0  0
 20 16  1  0  0  0  0
 21 17  1  0  0  0  0
 23 17  1  0  0  0  0
M  END
