Coordinates from ORCA-job 4-NO2-Ph-N2-OTf-B3LYPG-6-31G_dp-MTMO-d009-169-n800
 OpenBabel09051908473D

 23 22  0  0  0  0  0  0  0  0999 V2000
   -1.9465   -0.4408   -6.1908 C   0  0  0  0  0  0  0  0  0  0  0  0
   -0.9650    0.5581   -6.2552 C   0  0  0  0  0  0  0  0  0  0  0  0
   -1.1538    1.5304   -5.3194 C   0  0  0  0  0  0  0  0  0  0  0  0
   -2.0899    1.7093   -4.3333 C   0  0  0  0  0  0  0  0  0  0  0  0
   -3.0441    0.6857   -4.3030 C   0  0  0  0  0  0  0  0  0  0  0  0
   -2.9523   -0.3543   -5.2282 C   0  0  0  0  0  0  0  0  0  0  0  0
   -1.9240   -1.2808   -6.8744 H   0  0  0  0  0  0  0  0  0  0  0  0
   -0.1139    0.5774   -6.9442 H   0  0  0  0  0  0  0  0  0  0  0  0
   -2.1002    2.5430   -3.6439 H   0  0  0  0  0  0  0  0  0  0  0  0
   -3.8465    0.6922   -3.5756 H   0  0  0  0  0  0  0  0  0  0  0  0
   -3.9775   -1.4219   -5.1788 N   0  0  0  0  0  0  0  0  0  0  0  0
   -4.8435   -1.3252   -4.3144 O   0  0  0  0  0  0  0  0  0  0  0  0
   -3.8875   -2.3220   -6.0061 O   0  0  0  0  0  0  0  0  0  0  0  0
    0.0304    2.8851   -5.4005 N   0  0  0  0  0  0  0  0  0  0  0  0
    0.3273    3.9529   -5.4468 N   0  0  0  0  0  0  0  0  0  0  0  0
    2.5064    1.1966   -6.1958 S   0  0  0  0  0  0  0  0  0  0  0  0
    2.8689   -0.6253   -6.1113 C   0  0  0  0  0  0  0  0  0  0  0  0
    1.6156    1.3183   -7.3871 O   0  0  0  0  0  0  0  0  0  0  0  0
    3.8060    1.8630   -6.2725 O   0  0  0  0  0  0  0  0  0  0  0  0
    1.7322    1.4157   -4.9183 O   0  0  0  0  0  0  0  0  0  0  0  0
    1.7094   -1.3168   -6.0790 F   0  0  0  0  0  0  0  0  0  0  0  0
    3.5596   -1.0155   -7.1865 F   0  0  0  0  0  0  0  0  0  0  0  0
    3.5681   -0.9240   -5.0129 F   0  0  0  0  0  0  0  0  0  0  0  0
  1  6  1  0  0  0  0
  2  1  2  0  0  0  0
  2  3  1  0  0  0  0
  3  4  2  0  0  0  0
  4  5  1  0  0  0  0
  4  9  1  0  0  0  0
  5 10  1  0  0  0  0
  6 11  1  0  0  0  0
  6  5  2  0  0  0  0
  7  1  1  0  0  0  0
  8  2  1  0  0  0  0
 11 12  2  0  0  0  0
 13 11  2  0  0  0  0
 14  3  1  0  0  0  0
 15 14  2  0  0  0  0
 16 17  1  0  0  0  0
 16 20  1  0  0  0  0
 17 21  1  0  0  0  0
 17 23  1  0  0  0  0
 18 16  2  0  0  0  0
 19 16  2  0  0  0  0
 22 17  1  0  0  0  0
M  RAD  2  15   2  20   2
M  END
