Coordinates from ORCA-job 4-NO2-Ph-N2-OTf-B3LYPG-6-31G_dp-MTMO-d009-169-n800
 OpenBabel09051908473D

 23 22  0  0  0  0  0  0  0  0999 V2000
   -1.9690   -1.5545   -5.5253 C   0  0  0  0  0  0  0  0  0  0  0  0
   -0.6306   -1.2269   -5.3345 C   0  0  0  0  0  0  0  0  0  0  0  0
   -0.2942    0.0885   -5.0156 C   0  0  0  0  0  0  0  0  0  0  0  0
   -1.2551    1.0901   -4.8793 C   0  0  0  0  0  0  0  0  0  0  0  0
   -2.5934    0.7633   -5.0786 C   0  0  0  0  0  0  0  0  0  0  0  0
   -2.9282   -0.5516   -5.3960 C   0  0  0  0  0  0  0  0  0  0  0  0
   -2.2789   -2.5618   -5.7725 H   0  0  0  0  0  0  0  0  0  0  0  0
    0.1499   -1.9732   -5.4259 H   0  0  0  0  0  0  0  0  0  0  0  0
   -0.9604    2.1006   -4.6238 H   0  0  0  0  0  0  0  0  0  0  0  0
   -3.3764    1.5049   -4.9857 H   0  0  0  0  0  0  0  0  0  0  0  0
   -4.3461   -0.8954   -5.5988 N   0  0  0  0  0  0  0  0  0  0  0  0
   -5.1725    0.0065   -5.4757 O   0  0  0  0  0  0  0  0  0  0  0  0
   -4.6123   -2.0631   -5.8781 O   0  0  0  0  0  0  0  0  0  0  0  0
    0.0999    4.6476   -4.5039 N   0  0  0  0  0  0  0  0  0  0  0  0
    0.6361    5.5815   -4.7507 N   0  0  0  0  0  0  0  0  0  0  0  0
    1.9520    1.3400   -5.7137 S   0  0  0  0  0  0  0  0  0  0  0  0
    2.6981    0.0297   -6.8222 C   0  0  0  0  0  0  0  0  0  0  0  0
    1.0884    2.1713   -6.5346 O   0  0  0  0  0  0  0  0  0  0  0  0
    3.0113    1.8626   -4.8763 O   0  0  0  0  0  0  0  0  0  0  0  0
    1.0542    0.3559   -4.7348 O   0  0  0  0  0  0  0  0  0  0  0  0
    1.7184   -0.6151   -7.4594 F   0  0  0  0  0  0  0  0  0  0  0  0
    3.4908    0.6302   -7.7033 F   0  0  0  0  0  0  0  0  0  0  0  0
    3.3969   -0.8300   -6.0892 F   0  0  0  0  0  0  0  0  0  0  0  0
  1  6  2  0  0  0  0
  1  2  1  0  0  0  0
  2  3  2  0  0  0  0
  3  4  1  0  0  0  0
  3 20  1  0  0  0  0
  4  9  1  0  0  0  0
  5 10  1  0  0  0  0
  5  4  2  0  0  0  0
  6  5  1  0  0  0  0
  7  1  1  0  0  0  0
  8  2  1  0  0  0  0
 11 12  2  0  0  0  0
 11  6  1  0  0  0  0
 13 11  2  0  0  0  0
 15 14  3  0  0  0  0
 16 19  2  0  0  0  0
 16 20  1  0  0  0  0
 17 23  1  0  0  0  0
 17 16  1  0  0  0  0
 18 16  2  0  0  0  0
 21 17  1  0  0  0  0
 22 17  1  0  0  0  0
M  END
