Coordinates from ORCA-job 4-NO2-Ph-N2-OTf-B3LYPG-6-31G_dp-MTMO-d009-169-n800
 OpenBabel09051908473D

 23 22  0  0  0  0  0  0  0  0999 V2000
   -1.9884   -1.6931   -5.7300 C   0  0  0  0  0  0  0  0  0  0  0  0
   -0.6679   -1.3371   -5.4759 C   0  0  0  0  0  0  0  0  0  0  0  0
   -0.4000   -0.0977   -4.8952 C   0  0  0  0  0  0  0  0  0  0  0  0
   -1.4136    0.7991   -4.5576 C   0  0  0  0  0  0  0  0  0  0  0  0
   -2.7342    0.4470   -4.8212 C   0  0  0  0  0  0  0  0  0  0  0  0
   -2.9998   -0.7924   -5.4002 C   0  0  0  0  0  0  0  0  0  0  0  0
   -2.2454   -2.6452   -6.1762 H   0  0  0  0  0  0  0  0  0  0  0  0
    0.1517   -2.0042   -5.7164 H   0  0  0  0  0  0  0  0  0  0  0  0
   -1.1706    1.7516   -4.1038 H   0  0  0  0  0  0  0  0  0  0  0  0
   -3.5553    1.1097   -4.5800 H   0  0  0  0  0  0  0  0  0  0  0  0
   -4.3989   -1.1657   -5.6712 N   0  0  0  0  0  0  0  0  0  0  0  0
   -5.2714   -0.3532   -5.3705 O   0  0  0  0  0  0  0  0  0  0  0  0
   -4.6038   -2.2659   -6.1805 O   0  0  0  0  0  0  0  0  0  0  0  0
    1.3815    5.7086   -5.2937 N   0  0  0  0  0  0  0  0  0  0  0  0
    2.0492    5.4429   -6.1333 N   0  0  0  0  0  0  0  0  0  0  0  0
    1.7583    1.4163   -5.2922 S   0  0  0  0  0  0  0  0  0  0  0  0
    2.4713    0.4770   -6.7452 C   0  0  0  0  0  0  0  0  0  0  0  0
    0.8322    2.4041   -5.8195 O   0  0  0  0  0  0  0  0  0  0  0  0
    2.8463    1.7339   -4.3920 O   0  0  0  0  0  0  0  0  0  0  0  0
    0.9361    0.1773   -4.5686 O   0  0  0  0  0  0  0  0  0  0  0  0
    1.4722    0.0089   -7.4951 F   0  0  0  0  0  0  0  0  0  0  0  0
    3.2185    1.3132   -7.4573 F   0  0  0  0  0  0  0  0  0  0  0  0
    3.2109   -0.5340   -6.3024 F   0  0  0  0  0  0  0  0  0  0  0  0
  1  2  2  0  0  0  0
  1  6  1  0  0  0  0
  2  3  1  0  0  0  0
  3 20  1  0  0  0  0
  3  4  2  0  0  0  0
  4  9  1  0  0  0  0
  5 10  1  0  0  0  0
  5  4  1  0  0  0  0
  6  5  2  0  0  0  0
  7  1  1  0  0  0  0
  8  2  1  0  0  0  0
 11  6  1  0  0  0  0
 11 12  2  0  0  0  0
 13 11  2  0  0  0  0
 15 14  3  0  0  0  0
 16 20  1  0  0  0  0
 16 19  2  0  0  0  0
 17 23  1  0  0  0  0
 17 16  1  0  0  0  0
 18 16  2  0  0  0  0
 21 17  1  0  0  0  0
 22 17  1  0  0  0  0
M  END
