Coordinates from ORCA-job 4-NO2-Ph-N2-OTf-B3LYPG-6-31G_dp-MTMO-d009-169-n800
 OpenBabel09051908473D

 23 22  0  0  0  0  0  0  0  0999 V2000
   -2.0729   -0.9384   -6.1504 C   0  0  0  0  0  0  0  0  0  0  0  0
   -0.7185   -0.6431   -6.0289 C   0  0  0  0  0  0  0  0  0  0  0  0
   -0.3142    0.2742   -5.0592 C   0  0  0  0  0  0  0  0  0  0  0  0
   -1.2224    0.8923   -4.2006 C   0  0  0  0  0  0  0  0  0  0  0  0
   -2.5755    0.5889   -4.3146 C   0  0  0  0  0  0  0  0  0  0  0  0
   -2.9790   -0.3195   -5.2915 C   0  0  0  0  0  0  0  0  0  0  0  0
   -2.4343   -1.6424   -6.8898 H   0  0  0  0  0  0  0  0  0  0  0  0
    0.0111   -1.1176   -6.6723 H   0  0  0  0  0  0  0  0  0  0  0  0
   -0.8609    1.5942   -3.4583 H   0  0  0  0  0  0  0  0  0  0  0  0
   -3.3161    1.0423   -3.6686 H   0  0  0  0  0  0  0  0  0  0  0  0
   -4.4106   -0.6402   -5.4164 N   0  0  0  0  0  0  0  0  0  0  0  0
   -5.1869   -0.0826   -4.6425 O   0  0  0  0  0  0  0  0  0  0  0  0
   -4.7389   -1.4458   -6.2856 O   0  0  0  0  0  0  0  0  0  0  0  0
   -0.2719    3.7776   -5.5880 N   0  0  0  0  0  0  0  0  0  0  0  0
   -0.5354    4.7638   -6.0107 N   0  0  0  0  0  0  0  0  0  0  0  0
    1.9917    1.2506   -5.9896 S   0  0  0  0  0  0  0  0  0  0  0  0
    3.1662   -0.1849   -6.2291 C   0  0  0  0  0  0  0  0  0  0  0  0
    1.2450    1.4301   -7.2227 O   0  0  0  0  0  0  0  0  0  0  0  0
    2.7385    2.3107   -5.3432 O   0  0  0  0  0  0  0  0  0  0  0  0
    1.0434    0.5414   -4.8316 O   0  0  0  0  0  0  0  0  0  0  0  0
    2.4924   -1.2401   -6.6943 F   0  0  0  0  0  0  0  0  0  0  0  0
    4.0857    0.1830   -7.1161 F   0  0  0  0  0  0  0  0  0  0  0  0
    3.7425   -0.4936   -5.0744 F   0  0  0  0  0  0  0  0  0  0  0  0
  1  2  2  0  0  0  0
  1  6  1  0  0  0  0
  2  3  1  0  0  0  0
  3 20  1  0  0  0  0
  3  4  2  0  0  0  0
  4  9  1  0  0  0  0
  5  4  1  0  0  0  0
  5 10  1  0  0  0  0
  6  5  2  0  0  0  0
  7  1  1  0  0  0  0
  8  2  1  0  0  0  0
 11  6  1  0  0  0  0
 11 12  2  0  0  0  0
 13 11  2  0  0  0  0
 15 14  3  0  0  0  0
 16 19  2  0  0  0  0
 16 20  1  0  0  0  0
 17 16  1  0  0  0  0
 17 23  1  0  0  0  0
 18 16  2  0  0  0  0
 21 17  1  0  0  0  0
 22 17  1  0  0  0  0
M  END
