Coordinates from ORCA-job 4-NO2-Ph-N2-OTf-B3LYPG-6-31G_dp-MTMO-d009-169-n800
 OpenBabel09051908483D

 23 22  0  0  0  0  0  0  0  0999 V2000
   -2.7986   -1.3990   -6.0243 C   0  0  0  0  0  0  0  0  0  0  0  0
   -1.4275   -1.1807   -5.9374 C   0  0  0  0  0  0  0  0  0  0  0  0
   -0.8891   -0.7170   -4.7371 C   0  0  0  0  0  0  0  0  0  0  0  0
   -1.6811   -0.4666   -3.6163 C   0  0  0  0  0  0  0  0  0  0  0  0
   -3.0543   -0.6752   -3.7064 C   0  0  0  0  0  0  0  0  0  0  0  0
   -3.5899   -1.1391   -4.9065 C   0  0  0  0  0  0  0  0  0  0  0  0
   -3.2604   -1.7607   -6.9340 H   0  0  0  0  0  0  0  0  0  0  0  0
   -0.7731   -1.3678   -6.7809 H   0  0  0  0  0  0  0  0  0  0  0  0
   -1.2305   -0.1121   -2.6976 H   0  0  0  0  0  0  0  0  0  0  0  0
   -3.7106   -0.4916   -2.8652 H   0  0  0  0  0  0  0  0  0  0  0  0
   -5.0426   -1.3659   -4.9963 N   0  0  0  0  0  0  0  0  0  0  0  0
   -5.7173   -1.1301   -3.9960 O   0  0  0  0  0  0  0  0  0  0  0  0
   -5.4876   -1.7770   -6.0665 O   0  0  0  0  0  0  0  0  0  0  0  0
    8.8974    7.8672  -11.1166 N   0  0  0  0  0  0  0  0  0  0  0  0
    8.0766    7.2269  -10.7453 N   0  0  0  0  0  0  0  0  0  0  0  0
    1.2362    0.8655   -4.4434 S   0  0  0  0  0  0  0  0  0  0  0  0
    1.4567    1.3501   -6.2376 C   0  0  0  0  0  0  0  0  0  0  0  0
    0.3095    1.8102   -3.8443 O   0  0  0  0  0  0  0  0  0  0  0  0
    2.5446    0.5659   -3.9017 O   0  0  0  0  0  0  0  0  0  0  0  0
    0.5067   -0.6027   -4.6668 O   0  0  0  0  0  0  0  0  0  0  0  0
    0.2587    1.4282   -6.8197 F   0  0  0  0  0  0  0  0  0  0  0  0
    2.0582    2.5340   -6.2795 F   0  0  0  0  0  0  0  0  0  0  0  0
    2.1972    0.4385   -6.8585 F   0  0  0  0  0  0  0  0  0  0  0  0
  1  2  2  0  0  0  0
  1  6  1  0  0  0  0
  2  3  1  0  0  0  0
  3 20  1  0  0  0  0
  3  4  2  0  0  0  0
  4  9  1  0  0  0  0
  5  4  1  0  0  0  0
  5 10  1  0  0  0  0
  6  5  2  0  0  0  0
  7  1  1  0  0  0  0
  8  2  1  0  0  0  0
 11  6  1  0  0  0  0
 11 12  2  0  0  0  0
 13 11  2  0  0  0  0
 14 15  3  0  0  0  0
 16 19  2  0  0  0  0
 16 18  2  0  0  0  0
 17 16  1  0  0  0  0
 20 16  1  0  0  0  0
 21 17  1  0  0  0  0
 22 17  1  0  0  0  0
 23 17  1  0  0  0  0
M  END
