Coordinates from ORCA-job 4-NO2-Ph-N2-OTf-B3LYPG-6-31G_dp-MTMO-d009-169-n800
 OpenBabel09051908473D

 23 22  0  0  0  0  0  0  0  0999 V2000
   -2.0657   -0.8310   -6.1946 C   0  0  0  0  0  0  0  0  0  0  0  0
   -0.7096   -0.5412   -6.0769 C   0  0  0  0  0  0  0  0  0  0  0  0
   -0.2917    0.3205   -5.0624 C   0  0  0  0  0  0  0  0  0  0  0  0
   -1.1889    0.8834   -4.1548 C   0  0  0  0  0  0  0  0  0  0  0  0
   -2.5428    0.5837   -4.2650 C   0  0  0  0  0  0  0  0  0  0  0  0
   -2.9602   -0.2662   -5.2878 C   0  0  0  0  0  0  0  0  0  0  0  0
   -2.4366   -1.4918   -6.9682 H   0  0  0  0  0  0  0  0  0  0  0  0
    0.0084   -0.9776   -6.7586 H   0  0  0  0  0  0  0  0  0  0  0  0
   -0.8166    1.5400   -3.3770 H   0  0  0  0  0  0  0  0  0  0  0  0
   -3.2737    0.9959   -3.5814 H   0  0  0  0  0  0  0  0  0  0  0  0
   -4.3927   -0.5826   -5.4097 N   0  0  0  0  0  0  0  0  0  0  0  0
   -5.1579   -0.0748   -4.5917 O   0  0  0  0  0  0  0  0  0  0  0  0
   -4.7330   -1.3351   -6.3209 O   0  0  0  0  0  0  0  0  0  0  0  0
   -0.3546    3.6250   -5.6842 N   0  0  0  0  0  0  0  0  0  0  0  0
   -0.9705    4.4406   -6.1040 N   0  0  0  0  0  0  0  0  0  0  0  0
    2.0451    1.2447   -5.9913 S   0  0  0  0  0  0  0  0  0  0  0  0
    3.1821   -0.2271   -6.1891 C   0  0  0  0  0  0  0  0  0  0  0  0
    1.3215    1.4179   -7.2391 O   0  0  0  0  0  0  0  0  0  0  0  0
    2.8109    2.2960   -5.3538 O   0  0  0  0  0  0  0  0  0  0  0  0
    1.0647    0.5849   -4.8307 O   0  0  0  0  0  0  0  0  0  0  0  0
    2.4805   -1.2752   -6.6290 F   0  0  0  0  0  0  0  0  0  0  0  0
    4.1132    0.0931   -7.0825 F   0  0  0  0  0  0  0  0  0  0  0  0
    3.7471   -0.5215   -5.0253 F   0  0  0  0  0  0  0  0  0  0  0  0
  1  2  2  0  0  0  0
  1  6  1  0  0  0  0
  2  3  1  0  0  0  0
  3 20  1  0  0  0  0
  3  4  2  0  0  0  0
  4  9  1  0  0  0  0
  5  4  1  0  0  0  0
  5 10  1  0  0  0  0
  6  5  2  0  0  0  0
  7  1  1  0  0  0  0
  8  2  1  0  0  0  0
 11  6  1  0  0  0  0
 11 12  2  0  0  0  0
 13 11  2  0  0  0  0
 15 14  3  0  0  0  0
 16 19  2  0  0  0  0
 16 20  1  0  0  0  0
 17 16  1  0  0  0  0
 17 23  1  0  0  0  0
 18 16  2  0  0  0  0
 21 17  1  0  0  0  0
 22 17  1  0  0  0  0
M  END
