Coordinates from ORCA-job 4-NO2-Ph-N2-OTf-B3LYPG-6-31G_dp-MTMO-d009-169-n800
 OpenBabel09051908483D

 23 22  0  0  0  0  0  0  0  0999 V2000
   -2.6917   -1.3138   -6.0897 C   0  0  0  0  0  0  0  0  0  0  0  0
   -1.3205   -1.0987   -5.9977 C   0  0  0  0  0  0  0  0  0  0  0  0
   -0.7856   -0.6359   -4.7955 C   0  0  0  0  0  0  0  0  0  0  0  0
   -1.5812   -0.3834   -3.6777 C   0  0  0  0  0  0  0  0  0  0  0  0
   -2.9546   -0.5889   -3.7730 C   0  0  0  0  0  0  0  0  0  0  0  0
   -3.4867   -1.0518   -4.9750 C   0  0  0  0  0  0  0  0  0  0  0  0
   -3.1510   -1.6747   -7.0011 H   0  0  0  0  0  0  0  0  0  0  0  0
   -0.6634   -1.2875   -6.8387 H   0  0  0  0  0  0  0  0  0  0  0  0
   -1.1333   -0.0297   -2.7575 H   0  0  0  0  0  0  0  0  0  0  0  0
   -3.6136   -0.4035   -2.9344 H   0  0  0  0  0  0  0  0  0  0  0  0
   -4.9395   -1.2751   -5.0703 N   0  0  0  0  0  0  0  0  0  0  0  0
   -5.6175   -1.0375   -4.0726 O   0  0  0  0  0  0  0  0  0  0  0  0
   -5.3815   -1.6855   -6.1421 O   0  0  0  0  0  0  0  0  0  0  0  0
    7.7853    7.0062  -10.4840 N   0  0  0  0  0  0  0  0  0  0  0  0
    6.9667    6.3641  -10.1109 N   0  0  0  0  0  0  0  0  0  0  0  0
    1.3420    0.9421   -4.4944 S   0  0  0  0  0  0  0  0  0  0  0  0
    1.5707    1.4253   -6.2880 C   0  0  0  0  0  0  0  0  0  0  0  0
    0.4149    1.8891   -3.8995 O   0  0  0  0  0  0  0  0  0  0  0  0
    2.6476    0.6400   -3.9473 O   0  0  0  0  0  0  0  0  0  0  0  0
    0.6102   -0.5247   -4.7199 O   0  0  0  0  0  0  0  0  0  0  0  0
    0.3751    1.5053   -6.8749 F   0  0  0  0  0  0  0  0  0  0  0  0
    2.1746    2.6079   -6.3282 F   0  0  0  0  0  0  0  0  0  0  0  0
    2.3119    0.5118   -6.9054 F   0  0  0  0  0  0  0  0  0  0  0  0
  1  2  2  0  0  0  0
  1  6  1  0  0  0  0
  2  3  1  0  0  0  0
  3 20  1  0  0  0  0
  3  4  2  0  0  0  0
  4  9  1  0  0  0  0
  5  4  1  0  0  0  0
  5 10  1  0  0  0  0
  6  5  2  0  0  0  0
  7  1  1  0  0  0  0
  8  2  1  0  0  0  0
 11  6  1  0  0  0  0
 11 12  2  0  0  0  0
 13 11  2  0  0  0  0
 14 15  3  0  0  0  0
 16 19  2  0  0  0  0
 16 18  2  0  0  0  0
 17 16  1  0  0  0  0
 20 16  1  0  0  0  0
 21 17  1  0  0  0  0
 22 17  1  0  0  0  0
 23 17  1  0  0  0  0
M  END
