Coordinates from ORCA-job 4-NO2-Ph-N2-OTf-B3LYPG-6-31G_dp-MTMO-d009-169-n800
 OpenBabel09051908483D

 23 22  0  0  0  0  0  0  0  0999 V2000
   -2.8761   -1.4613   -5.9759 C   0  0  0  0  0  0  0  0  0  0  0  0
   -1.5052   -1.2400   -5.8944 C   0  0  0  0  0  0  0  0  0  0  0  0
   -0.9632   -0.7744   -4.6965 C   0  0  0  0  0  0  0  0  0  0  0  0
   -1.7515   -0.5248   -3.5729 C   0  0  0  0  0  0  0  0  0  0  0  0
   -3.1246   -0.7364   -3.6576 C   0  0  0  0  0  0  0  0  0  0  0  0
   -3.6637   -1.2023   -4.8554 C   0  0  0  0  0  0  0  0  0  0  0  0
   -3.3406   -1.8247   -6.8836 H   0  0  0  0  0  0  0  0  0  0  0  0
   -0.8536   -1.4263   -6.7403 H   0  0  0  0  0  0  0  0  0  0  0  0
   -1.2982   -0.1687   -2.6562 H   0  0  0  0  0  0  0  0  0  0  0  0
   -3.7780   -0.5535   -2.8142 H   0  0  0  0  0  0  0  0  0  0  0  0
   -5.1162   -1.4322   -4.9396 N   0  0  0  0  0  0  0  0  0  0  0  0
   -5.7877   -1.1968   -3.9370 O   0  0  0  0  0  0  0  0  0  0  0  0
   -5.5644   -1.8453   -6.0077 O   0  0  0  0  0  0  0  0  0  0  0  0
    9.6931    8.4835  -11.5651 N   0  0  0  0  0  0  0  0  0  0  0  0
    8.8762    7.8418  -11.1877 N   0  0  0  0  0  0  0  0  0  0  0  0
    1.1601    0.8124   -4.4108 S   0  0  0  0  0  0  0  0  0  0  0  0
    1.3741    1.2965   -6.2060 C   0  0  0  0  0  0  0  0  0  0  0  0
    0.2334    1.7557   -3.8093 O   0  0  0  0  0  0  0  0  0  0  0  0
    2.4707    0.5158   -3.8728 O   0  0  0  0  0  0  0  0  0  0  0  0
    0.4327   -0.6572   -4.6315 O   0  0  0  0  0  0  0  0  0  0  0  0
    0.1742    1.3704   -6.7847 F   0  0  0  0  0  0  0  0  0  0  0  0
    1.9718    2.4822   -6.2506 F   0  0  0  0  0  0  0  0  0  0  0  0
    2.1157    0.3867   -6.8283 F   0  0  0  0  0  0  0  0  0  0  0  0
  1  2  2  0  0  0  0
  1  6  1  0  0  0  0
  2  3  1  0  0  0  0
  3 20  1  0  0  0  0
  3  4  2  0  0  0  0
  4  9  1  0  0  0  0
  5  4  1  0  0  0  0
  5 10  1  0  0  0  0
  6  5  2  0  0  0  0
  7  1  1  0  0  0  0
  8  2  1  0  0  0  0
 11  6  1  0  0  0  0
 11 12  2  0  0  0  0
 13 11  2  0  0  0  0
 14 15  3  0  0  0  0
 16 19  2  0  0  0  0
 16 18  2  0  0  0  0
 17 16  1  0  0  0  0
 20 16  1  0  0  0  0
 21 17  1  0  0  0  0
 22 17  1  0  0  0  0
 23 17  1  0  0  0  0
M  END
