Coordinates from ORCA-job 4-NO2-Ph-N2-OTf-B3LYPG-6-31G_dp-MTMO-d009-169-n800
 OpenBabel09051908473D

 23 22  0  0  0  0  0  0  0  0999 V2000
   -2.5174   -1.2024   -6.1579 C   0  0  0  0  0  0  0  0  0  0  0  0
   -1.1452   -0.9830   -6.0963 C   0  0  0  0  0  0  0  0  0  0  0  0
   -0.5935   -0.4622   -4.9258 C   0  0  0  0  0  0  0  0  0  0  0  0
   -1.3736   -0.1536   -3.8113 C   0  0  0  0  0  0  0  0  0  0  0  0
   -2.7479   -0.3637   -3.8764 C   0  0  0  0  0  0  0  0  0  0  0  0
   -3.2966   -0.8861   -5.0462 C   0  0  0  0  0  0  0  0  0  0  0  0
   -2.9894   -1.6076   -7.0439 H   0  0  0  0  0  0  0  0  0  0  0  0
   -0.4999   -1.2122   -6.9364 H   0  0  0  0  0  0  0  0  0  0  0  0
   -0.9128    0.2457   -2.9162 H   0  0  0  0  0  0  0  0  0  0  0  0
   -3.3952   -0.1368   -3.0389 H   0  0  0  0  0  0  0  0  0  0  0  0
   -4.7504   -1.1146   -5.1095 N   0  0  0  0  0  0  0  0  0  0  0  0
   -5.4139   -0.8310   -4.1141 O   0  0  0  0  0  0  0  0  0  0  0  0
   -5.2075   -1.5751   -6.1542 O   0  0  0  0  0  0  0  0  0  0  0  0
    5.6584    5.4600   -8.9626 N   0  0  0  0  0  0  0  0  0  0  0  0
    4.9011    4.7779   -8.5349 N   0  0  0  0  0  0  0  0  0  0  0  0
    1.5387    1.1276   -4.7347 S   0  0  0  0  0  0  0  0  0  0  0  0
    1.8024    1.4832   -6.5538 C   0  0  0  0  0  0  0  0  0  0  0  0
    0.6051    2.1156   -4.2223 O   0  0  0  0  0  0  0  0  0  0  0  0
    2.8334    0.8604   -4.1447 O   0  0  0  0  0  0  0  0  0  0  0  0
    0.8030   -0.3485   -4.8741 O   0  0  0  0  0  0  0  0  0  0  0  0
    0.6178    1.5215   -7.1667 F   0  0  0  0  0  0  0  0  0  0  0  0
    2.4097    2.6591   -6.6672 F   0  0  0  0  0  0  0  0  0  0  0  0
    2.5528    0.5268   -7.0897 F   0  0  0  0  0  0  0  0  0  0  0  0
  1  2  2  0  0  0  0
  1  6  1  0  0  0  0
  2  3  1  0  0  0  0
  3 20  1  0  0  0  0
  3  4  2  0  0  0  0
  4  9  1  0  0  0  0
  5  4  1  0  0  0  0
  5 10  1  0  0  0  0
  6  5  2  0  0  0  0
  7  1  1  0  0  0  0
  8  2  1  0  0  0  0
 11  6  1  0  0  0  0
 11 12  2  0  0  0  0
 13 11  2  0  0  0  0
 14 15  3  0  0  0  0
 16 18  2  0  0  0  0
 16 19  2  0  0  0  0
 17 16  1  0  0  0  0
 20 16  1  0  0  0  0
 21 17  1  0  0  0  0
 22 17  1  0  0  0  0
 23 17  1  0  0  0  0
M  END
