Coordinates from ORCA-job 4-NO2-Ph-N2-OTf-B3LYPG-6-31G_dp-MTMO-d009-169-n800
 OpenBabel09051908483D

 23 22  0  0  0  0  0  0  0  0999 V2000
   -2.9393   -1.5112   -5.9371 C   0  0  0  0  0  0  0  0  0  0  0  0
   -1.5688   -1.2856   -5.8608 C   0  0  0  0  0  0  0  0  0  0  0  0
   -1.0235   -0.8202   -4.6642 C   0  0  0  0  0  0  0  0  0  0  0  0
   -1.8080   -0.5749   -3.5371 C   0  0  0  0  0  0  0  0  0  0  0  0
   -3.1808   -0.7908   -3.6166 C   0  0  0  0  0  0  0  0  0  0  0  0
   -3.7232   -1.2566   -4.8129 C   0  0  0  0  0  0  0  0  0  0  0  0
   -3.4062   -1.8747   -6.8435 H   0  0  0  0  0  0  0  0  0  0  0  0
   -0.9200   -1.4684   -6.7096 H   0  0  0  0  0  0  0  0  0  0  0  0
   -1.3522   -0.2189   -2.6216 H   0  0  0  0  0  0  0  0  0  0  0  0
   -3.8314   -0.6114   -2.7702 H   0  0  0  0  0  0  0  0  0  0  0  0
   -5.1753   -1.4913   -4.8916 N   0  0  0  0  0  0  0  0  0  0  0  0
   -5.8434   -1.2599   -3.8859 O   0  0  0  0  0  0  0  0  0  0  0  0
   -5.6264   -1.9041   -5.9586 O   0  0  0  0  0  0  0  0  0  0  0  0
   10.3484    8.9807  -11.9331 N   0  0  0  0  0  0  0  0  0  0  0  0
    9.5362    8.3381  -11.5472 N   0  0  0  0  0  0  0  0  0  0  0  0
    1.0963    0.7725   -4.3849 S   0  0  0  0  0  0  0  0  0  0  0  0
    1.3029    1.2585   -6.1804 C   0  0  0  0  0  0  0  0  0  0  0  0
    0.1690    1.7126   -3.7795 O   0  0  0  0  0  0  0  0  0  0  0  0
    2.4094    0.4791   -3.8514 O   0  0  0  0  0  0  0  0  0  0  0  0
    0.3723   -0.6990   -4.6046 O   0  0  0  0  0  0  0  0  0  0  0  0
    0.1008    1.3310   -6.7547 F   0  0  0  0  0  0  0  0  0  0  0  0
    1.8985    2.4452   -6.2261 F   0  0  0  0  0  0  0  0  0  0  0  0
    2.0438    0.3504   -6.8062 F   0  0  0  0  0  0  0  0  0  0  0  0
  1  2  2  0  0  0  0
  1  6  1  0  0  0  0
  2  3  1  0  0  0  0
  3 20  1  0  0  0  0
  3  4  2  0  0  0  0
  4  9  1  0  0  0  0
  5  4  1  0  0  0  0
  5 10  1  0  0  0  0
  6  5  2  0  0  0  0
  7  1  1  0  0  0  0
  8  2  1  0  0  0  0
 11  6  1  0  0  0  0
 11 12  2  0  0  0  0
 13 11  2  0  0  0  0
 14 15  3  0  0  0  0
 16 19  2  0  0  0  0
 16 18  2  0  0  0  0
 17 16  1  0  0  0  0
 20 16  1  0  0  0  0
 21 17  1  0  0  0  0
 22 17  1  0  0  0  0
 23 17  1  0  0  0  0
M  END
