Coordinates from ORCA-job 4-NO2-Ph-N2-OTf-B3LYPG-6-31G_dp-MTMO-d009-169-n800
 OpenBabel09051908473D

 23 22  0  0  0  0  0  0  0  0999 V2000
   -2.4739   -1.1366   -6.2070 C   0  0  0  0  0  0  0  0  0  0  0  0
   -1.1046   -0.9011   -6.1411 C   0  0  0  0  0  0  0  0  0  0  0  0
   -0.5554   -0.4204   -4.9524 C   0  0  0  0  0  0  0  0  0  0  0  0
   -1.3353   -0.1677   -3.8237 C   0  0  0  0  0  0  0  0  0  0  0  0
   -2.7070   -0.3936   -3.8928 C   0  0  0  0  0  0  0  0  0  0  0  0
   -3.2531   -0.8758   -5.0809 C   0  0  0  0  0  0  0  0  0  0  0  0
   -2.9437   -1.5124   -7.1069 H   0  0  0  0  0  0  0  0  0  0  0  0
   -0.4597   -1.0875   -6.9920 H   0  0  0  0  0  0  0  0  0  0  0  0
   -0.8768    0.2010   -2.9146 H   0  0  0  0  0  0  0  0  0  0  0  0
   -3.3540   -0.2093   -3.0447 H   0  0  0  0  0  0  0  0  0  0  0  0
   -4.7039   -1.1213   -5.1486 N   0  0  0  0  0  0  0  0  0  0  0  0
   -5.3678   -0.8843   -4.1414 O   0  0  0  0  0  0  0  0  0  0  0  0
   -5.1584   -1.5483   -6.2086 O   0  0  0  0  0  0  0  0  0  0  0  0
    5.2998    4.9334   -8.9185 N   0  0  0  0  0  0  0  0  0  0  0  0
    4.5360    4.2885   -8.4467 N   0  0  0  0  0  0  0  0  0  0  0  0
    1.5559    1.1899   -4.7038 S   0  0  0  0  0  0  0  0  0  0  0  0
    1.8267    1.6159   -6.5068 C   0  0  0  0  0  0  0  0  0  0  0  0
    0.6063    2.1465   -4.1619 O   0  0  0  0  0  0  0  0  0  0  0  0
    2.8506    0.9182   -4.1156 O   0  0  0  0  0  0  0  0  0  0  0  0
    0.8397   -0.2899   -4.9006 O   0  0  0  0  0  0  0  0  0  0  0  0
    0.6467    1.6515   -7.1287 F   0  0  0  0  0  0  0  0  0  0  0  0
    2.4089    2.8082   -6.5706 F   0  0  0  0  0  0  0  0  0  0  0  0
    2.6021    0.6963   -7.0701 F   0  0  0  0  0  0  0  0  0  0  0  0
  1  2  2  0  0  0  0
  1  6  1  0  0  0  0
  2  3  1  0  0  0  0
  3 20  1  0  0  0  0
  3  4  2  0  0  0  0
  4  9  1  0  0  0  0
  5  4  1  0  0  0  0
  5 10  1  0  0  0  0
  6  5  2  0  0  0  0
  7  1  1  0  0  0  0
  8  2  1  0  0  0  0
 11  6  1  0  0  0  0
 11 12  2  0  0  0  0
 13 11  2  0  0  0  0
 14 15  3  0  0  0  0
 16 18  2  0  0  0  0
 16 19  2  0  0  0  0
 17 16  1  0  0  0  0
 20 16  1  0  0  0  0
 21 17  1  0  0  0  0
 22 17  1  0  0  0  0
 23 17  1  0  0  0  0
M  END
