Coordinates from ORCA-job 4-NO2-Ph-N2-OTf-B3LYPG-6-31G_dp-MTMO-d009-169-n800
 OpenBabel09051908473D

 23 22  0  0  0  0  0  0  0  0999 V2000
   -1.9891   -1.6449   -5.6596 C   0  0  0  0  0  0  0  0  0  0  0  0
   -0.6530   -1.3385   -5.4228 C   0  0  0  0  0  0  0  0  0  0  0  0
   -0.3250   -0.0760   -4.9293 C   0  0  0  0  0  0  0  0  0  0  0  0
   -1.2928    0.8928   -4.6635 C   0  0  0  0  0  0  0  0  0  0  0  0
   -2.6285    0.5893   -4.9103 C   0  0  0  0  0  0  0  0  0  0  0  0
   -2.9546   -0.6734   -5.4013 C   0  0  0  0  0  0  0  0  0  0  0  0
   -2.2927   -2.6122   -6.0390 H   0  0  0  0  0  0  0  0  0  0  0  0
    0.1325   -2.0614   -5.6103 H   0  0  0  0  0  0  0  0  0  0  0  0
   -1.0034    1.8620   -4.2774 H   0  0  0  0  0  0  0  0  0  0  0  0
   -3.4158    1.3081   -4.7223 H   0  0  0  0  0  0  0  0  0  0  0  0
   -4.3699   -0.9945   -5.6537 N   0  0  0  0  0  0  0  0  0  0  0  0
   -5.2014   -0.1203   -5.4172 O   0  0  0  0  0  0  0  0  0  0  0  0
   -4.6286   -2.1167   -6.0848 O   0  0  0  0  0  0  0  0  0  0  0  0
    0.5066    5.4269   -4.9997 N   0  0  0  0  0  0  0  0  0  0  0  0
    1.2595    5.8280   -5.7022 N   0  0  0  0  0  0  0  0  0  0  0  0
    1.9078    1.3050   -5.4045 S   0  0  0  0  0  0  0  0  0  0  0  0
    2.5759    0.2438   -6.7938 C   0  0  0  0  0  0  0  0  0  0  0  0
    1.0366    2.3061   -5.9966 O   0  0  0  0  0  0  0  0  0  0  0  0
    3.0079    1.6200   -4.5183 O   0  0  0  0  0  0  0  0  0  0  0  0
    1.0224    0.1538   -4.6140 O   0  0  0  0  0  0  0  0  0  0  0  0
    1.5567   -0.2126   -7.5236 F   0  0  0  0  0  0  0  0  0  0  0  0
    3.3723    0.9940   -7.5477 F   0  0  0  0  0  0  0  0  0  0  0  0
    3.2559   -0.7783   -6.2860 F   0  0  0  0  0  0  0  0  0  0  0  0
  1  2  2  0  0  0  0
  1  6  1  0  0  0  0
  2  3  1  0  0  0  0
  3  4  2  0  0  0  0
  3 20  1  0  0  0  0
  4  9  1  0  0  0  0
  5 10  1  0  0  0  0
  5  4  1  0  0  0  0
  6  5  2  0  0  0  0
  7  1  1  0  0  0  0
  8  2  1  0  0  0  0
 11 12  2  0  0  0  0
 11  6  1  0  0  0  0
 13 11  2  0  0  0  0
 15 14  3  0  0  0  0
 16 20  1  0  0  0  0
 16 19  2  0  0  0  0
 17 23  1  0  0  0  0
 17 16  1  0  0  0  0
 18 16  2  0  0  0  0
 21 17  1  0  0  0  0
 22 17  1  0  0  0  0
M  END
