Coordinates from ORCA-job 4-NO2-Ph-N2-OTf-B3LYPG-6-31G_dp-MTMO-d009-169-n800
 OpenBabel09051908483D

 23 22  0  0  0  0  0  0  0  0999 V2000
   -2.9200   -1.4959   -5.9489 C   0  0  0  0  0  0  0  0  0  0  0  0
   -1.5494   -1.2714   -5.8711 C   0  0  0  0  0  0  0  0  0  0  0  0
   -1.0051   -0.8060   -4.6741 C   0  0  0  0  0  0  0  0  0  0  0  0
   -1.7907   -0.5597   -3.5480 C   0  0  0  0  0  0  0  0  0  0  0  0
   -3.1635   -0.7745   -3.6290 C   0  0  0  0  0  0  0  0  0  0  0  0
   -3.7050   -1.2403   -4.8257 C   0  0  0  0  0  0  0  0  0  0  0  0
   -3.3863   -1.8593   -6.8557 H   0  0  0  0  0  0  0  0  0  0  0  0
   -0.8998   -1.4551   -6.7191 H   0  0  0  0  0  0  0  0  0  0  0  0
   -1.3356   -0.2037   -2.6321 H   0  0  0  0  0  0  0  0  0  0  0  0
   -3.8150   -0.5943   -2.7834 H   0  0  0  0  0  0  0  0  0  0  0  0
   -5.1572   -1.4737   -4.9060 N   0  0  0  0  0  0  0  0  0  0  0  0
   -5.8263   -1.2414   -3.9011 O   0  0  0  0  0  0  0  0  0  0  0  0
   -5.6074   -1.8864   -5.9734 O   0  0  0  0  0  0  0  0  0  0  0  0
   10.1485    8.8280  -11.8202 N   0  0  0  0  0  0  0  0  0  0  0  0
    9.3347    8.1858  -11.4369 N   0  0  0  0  0  0  0  0  0  0  0  0
    1.1156    0.7851   -4.3932 S   0  0  0  0  0  0  0  0  0  0  0  0
    1.3246    1.2706   -6.1885 C   0  0  0  0  0  0  0  0  0  0  0  0
    0.1883    1.7262   -3.7891 O   0  0  0  0  0  0  0  0  0  0  0  0
    2.4280    0.4908   -3.8583 O   0  0  0  0  0  0  0  0  0  0  0  0
    0.3907   -0.6859   -4.6130 O   0  0  0  0  0  0  0  0  0  0  0  0
    0.1232    1.3435   -6.7643 F   0  0  0  0  0  0  0  0  0  0  0  0
    1.9209    2.4569   -6.2337 F   0  0  0  0  0  0  0  0  0  0  0  0
    2.0658    0.3620   -6.8133 F   0  0  0  0  0  0  0  0  0  0  0  0
  1  2  2  0  0  0  0
  1  6  1  0  0  0  0
  2  3  1  0  0  0  0
  3 20  1  0  0  0  0
  3  4  2  0  0  0  0
  4  9  1  0  0  0  0
  5  4  1  0  0  0  0
  5 10  1  0  0  0  0
  6  5  2  0  0  0  0
  7  1  1  0  0  0  0
  8  2  1  0  0  0  0
 11  6  1  0  0  0  0
 11 12  2  0  0  0  0
 13 11  2  0  0  0  0
 14 15  3  0  0  0  0
 16 19  2  0  0  0  0
 16 18  2  0  0  0  0
 17 16  1  0  0  0  0
 20 16  1  0  0  0  0
 21 17  1  0  0  0  0
 22 17  1  0  0  0  0
 23 17  1  0  0  0  0
M  END
