Coordinates from ORCA-job 4-NO2-Ph-N2-OTf-B3LYPG-6-31G_dp-MTMO-d009-169-n800
 OpenBabel09051908473D

 23 22  0  0  0  0  0  0  0  0999 V2000
   -2.4682   -1.0457   -6.2601 C   0  0  0  0  0  0  0  0  0  0  0  0
   -1.1072   -0.7632   -6.2046 C   0  0  0  0  0  0  0  0  0  0  0  0
   -0.5454   -0.3686   -4.9905 C   0  0  0  0  0  0  0  0  0  0  0  0
   -1.3048   -0.2473   -3.8266 C   0  0  0  0  0  0  0  0  0  0  0  0
   -2.6684   -0.5202   -3.8841 C   0  0  0  0  0  0  0  0  0  0  0  0
   -3.2269   -0.9165   -5.0979 C   0  0  0  0  0  0  0  0  0  0  0  0
   -2.9470   -1.3590   -7.1790 H   0  0  0  0  0  0  0  0  0  0  0  0
   -0.4788   -0.8483   -7.0835 H   0  0  0  0  0  0  0  0  0  0  0  0
   -0.8366    0.0565   -2.8985 H   0  0  0  0  0  0  0  0  0  0  0  0
   -3.2993   -0.4374   -3.0082 H   0  0  0  0  0  0  0  0  0  0  0  0
   -4.6687   -1.2124   -5.1544 N   0  0  0  0  0  0  0  0  0  0  0  0
   -5.3145   -1.0924   -4.1151 O   0  0  0  0  0  0  0  0  0  0  0  0
   -5.1345   -1.5613   -6.2378 O   0  0  0  0  0  0  0  0  0  0  0  0
    5.3261    4.3404   -9.0456 N   0  0  0  0  0  0  0  0  0  0  0  0
    4.5428    3.7424   -8.5451 N   0  0  0  0  0  0  0  0  0  0  0  0
    1.5085    1.2983   -4.6537 S   0  0  0  0  0  0  0  0  0  0  0  0
    1.7879    1.8508   -6.4212 C   0  0  0  0  0  0  0  0  0  0  0  0
    0.5190    2.1849   -4.0660 O   0  0  0  0  0  0  0  0  0  0  0  0
    2.8048    1.0350   -4.0650 O   0  0  0  0  0  0  0  0  0  0  0  0
    0.8449   -0.1887   -4.9561 O   0  0  0  0  0  0  0  0  0  0  0  0
    0.6223    1.8429   -7.0711 F   0  0  0  0  0  0  0  0  0  0  0  0
    2.2828    3.0836   -6.3956 F   0  0  0  0  0  0  0  0  0  0  0  0
    2.6405    1.0272   -7.0182 F   0  0  0  0  0  0  0  0  0  0  0  0
  1  2  2  0  0  0  0
  1  6  1  0  0  0  0
  2  3  1  0  0  0  0
  3 20  1  0  0  0  0
  3  4  2  0  0  0  0
  4  9  1  0  0  0  0
  5  4  1  0  0  0  0
  5 10  1  0  0  0  0
  6  5  2  0  0  0  0
  7  1  1  0  0  0  0
  8  2  1  0  0  0  0
 11  6  1  0  0  0  0
 11 12  2  0  0  0  0
 13 11  2  0  0  0  0
 14 15  3  0  0  0  0
 16 18  2  0  0  0  0
 16 19  2  0  0  0  0
 17 22  1  0  0  0  0
 17 16  1  0  0  0  0
 20 16  1  0  0  0  0
 21 17  1  0  0  0  0
 23 17  1  0  0  0  0
M  END
