Coordinates from ORCA-job 4-NO2-Ph-N2-OTf-B3LYPG-6-31G_dp-MTMO-d009-169-n800
 OpenBabel09051908473D

 23 22  0  0  0  0  0  0  0  0999 V2000
   -1.9919   -1.2064   -6.2979 C   0  0  0  0  0  0  0  0  0  0  0  0
   -0.6611   -1.0326   -5.9317 C   0  0  0  0  0  0  0  0  0  0  0  0
   -0.3657   -0.3325   -4.7621 C   0  0  0  0  0  0  0  0  0  0  0  0
   -1.3628    0.1980   -3.9433 C   0  0  0  0  0  0  0  0  0  0  0  0
   -2.6940    0.0320   -4.3140 C   0  0  0  0  0  0  0  0  0  0  0  0
   -2.9865   -0.6677   -5.4832 C   0  0  0  0  0  0  0  0  0  0  0  0
   -2.2697   -1.7430   -7.1960 H   0  0  0  0  0  0  0  0  0  0  0  0
    0.1451   -1.4323   -6.5353 H   0  0  0  0  0  0  0  0  0  0  0  0
   -1.0990    0.7301   -3.0378 H   0  0  0  0  0  0  0  0  0  0  0  0
   -3.5024    0.4275   -3.7130 H   0  0  0  0  0  0  0  0  0  0  0  0
   -4.3963   -0.8469   -5.8708 N   0  0  0  0  0  0  0  0  0  0  0  0
   -5.2535   -0.3626   -5.1343 O   0  0  0  0  0  0  0  0  0  0  0  0
   -4.6252   -1.4693   -6.9064 O   0  0  0  0  0  0  0  0  0  0  0  0
    1.3550    4.8320   -8.9160 N   0  0  0  0  0  0  0  0  0  0  0  0
    1.5908    3.8698   -8.4263 N   0  0  0  0  0  0  0  0  0  0  0  0
    1.7771    1.1887   -4.3225 S   0  0  0  0  0  0  0  0  0  0  0  0
    2.5123    1.1718   -6.0435 C   0  0  0  0  0  0  0  0  0  0  0  0
    0.8283    2.2869   -4.2583 O   0  0  0  0  0  0  0  0  0  0  0  0
    2.8580    1.0025   -3.3774 O   0  0  0  0  0  0  0  0  0  0  0  0
    0.9814   -0.2618   -4.3801 O   0  0  0  0  0  0  0  0  0  0  0  0
    1.5262    1.0883   -6.9384 F   0  0  0  0  0  0  0  0  0  0  0  0
    3.1900    2.3011   -6.2180 F   0  0  0  0  0  0  0  0  0  0  0  0
    3.3231    0.1274   -6.1716 F   0  0  0  0  0  0  0  0  0  0  0  0
  1  2  2  0  0  0  0
  1  6  1  0  0  0  0
  2  3  1  0  0  0  0
  3 20  1  0  0  0  0
  3  4  2  0  0  0  0
  4  9  1  0  0  0  0
  5  4  1  0  0  0  0
  5 10  1  0  0  0  0
  6  5  2  0  0  0  0
  7  1  1  0  0  0  0
  8  2  1  0  0  0  0
 11  6  1  0  0  0  0
 11 12  2  0  0  0  0
 13 11  2  0  0  0  0
 14 15  3  0  0  0  0
 16 18  2  0  0  0  0
 16 19  2  0  0  0  0
 17 16  1  0  0  0  0
 20 16  1  0  0  0  0
 21 17  1  0  0  0  0
 22 17  1  0  0  0  0
 23 17  1  0  0  0  0
M  END
