Coordinates from ORCA-job 4-NO2-Ph-N2-OTf-B3LYPG-6-31G_dp-MTMO-d009-169-n800
 OpenBabel09051908483D

 23 22  0  0  0  0  0  0  0  0999 V2000
   -2.8623   -1.4493   -5.9849 C   0  0  0  0  0  0  0  0  0  0  0  0
   -1.4915   -1.2276   -5.9030 C   0  0  0  0  0  0  0  0  0  0  0  0
   -0.9498   -0.7632   -4.7044 C   0  0  0  0  0  0  0  0  0  0  0  0
   -1.7383   -0.5151   -3.5806 C   0  0  0  0  0  0  0  0  0  0  0  0
   -3.1113   -0.7271   -3.6658 C   0  0  0  0  0  0  0  0  0  0  0  0
   -3.6501   -1.1919   -4.8641 C   0  0  0  0  0  0  0  0  0  0  0  0
   -3.3266   -1.8119   -6.8930 H   0  0  0  0  0  0  0  0  0  0  0  0
   -0.8397   -1.4127   -6.7490 H   0  0  0  0  0  0  0  0  0  0  0  0
   -1.2852   -0.1599   -2.6635 H   0  0  0  0  0  0  0  0  0  0  0  0
   -3.7649   -0.5455   -2.8221 H   0  0  0  0  0  0  0  0  0  0  0  0
   -5.1025   -1.4223   -4.9487 N   0  0  0  0  0  0  0  0  0  0  0  0
   -5.7741   -1.1886   -3.9458 O   0  0  0  0  0  0  0  0  0  0  0  0
   -5.5504   -1.8342   -6.0174 O   0  0  0  0  0  0  0  0  0  0  0  0
    9.5504    8.3683  -11.4821 N   0  0  0  0  0  0  0  0  0  0  0  0
    8.7320    7.7274  -11.1065 N   0  0  0  0  0  0  0  0  0  0  0  0
    1.1729    0.8241   -4.4175 S   0  0  0  0  0  0  0  0  0  0  0  0
    1.3888    1.3079   -6.2125 C   0  0  0  0  0  0  0  0  0  0  0  0
    0.2453    1.7672   -3.8172 O   0  0  0  0  0  0  0  0  0  0  0  0
    2.4829    0.5278   -3.8779 O   0  0  0  0  0  0  0  0  0  0  0  0
    0.4461   -0.6457   -4.6391 O   0  0  0  0  0  0  0  0  0  0  0  0
    0.1895    1.3826   -6.7923 F   0  0  0  0  0  0  0  0  0  0  0  0
    1.9874    2.4932   -6.2566 F   0  0  0  0  0  0  0  0  0  0  0  0
    2.1304    0.3975   -6.8341 F   0  0  0  0  0  0  0  0  0  0  0  0
  1  2  2  0  0  0  0
  1  6  1  0  0  0  0
  2  3  1  0  0  0  0
  3 20  1  0  0  0  0
  3  4  2  0  0  0  0
  4  9  1  0  0  0  0
  5  4  1  0  0  0  0
  5 10  1  0  0  0  0
  6  5  2  0  0  0  0
  7  1  1  0  0  0  0
  8  2  1  0  0  0  0
 11  6  1  0  0  0  0
 11 12  2  0  0  0  0
 13 11  2  0  0  0  0
 14 15  3  0  0  0  0
 16 19  2  0  0  0  0
 16 18  2  0  0  0  0
 17 16  1  0  0  0  0
 20 16  1  0  0  0  0
 21 17  1  0  0  0  0
 22 17  1  0  0  0  0
 23 17  1  0  0  0  0
M  END
