Coordinates from ORCA-job 4-NO2-Ph-N2-OTf-B3LYPG-6-31G_dp-MTMO-d009-169-n800
 OpenBabel09051908473D

 23 22  0  0  0  0  0  0  0  0999 V2000
   -2.6237   -1.2623   -6.1284 C   0  0  0  0  0  0  0  0  0  0  0  0
   -1.2524   -1.0482   -6.0359 C   0  0  0  0  0  0  0  0  0  0  0  0
   -0.7180   -0.5817   -4.8348 C   0  0  0  0  0  0  0  0  0  0  0  0
   -1.5144   -0.3246   -3.7186 C   0  0  0  0  0  0  0  0  0  0  0  0
   -2.8879   -0.5292   -3.8144 C   0  0  0  0  0  0  0  0  0  0  0  0
   -3.4193   -0.9957   -5.0153 C   0  0  0  0  0  0  0  0  0  0  0  0
   -3.0825   -1.6258   -7.0389 H   0  0  0  0  0  0  0  0  0  0  0  0
   -0.5946   -1.2404   -6.8757 H   0  0  0  0  0  0  0  0  0  0  0  0
   -1.0670    0.0319   -2.7993 H   0  0  0  0  0  0  0  0  0  0  0  0
   -3.5475   -0.3403   -2.9770 H   0  0  0  0  0  0  0  0  0  0  0  0
   -4.8724   -1.2180   -5.1111 N   0  0  0  0  0  0  0  0  0  0  0  0
   -5.5509   -0.9766   -4.1147 O   0  0  0  0  0  0  0  0  0  0  0  0
   -5.3137   -1.6315   -6.1819 O   0  0  0  0  0  0  0  0  0  0  0  0
    7.0617    6.4456  -10.0595 N   0  0  0  0  0  0  0  0  0  0  0  0
    6.2512    5.8059   -9.6654 N   0  0  0  0  0  0  0  0  0  0  0  0
    1.4107    0.9955   -4.5375 S   0  0  0  0  0  0  0  0  0  0  0  0
    1.6429    1.4711   -6.3327 C   0  0  0  0  0  0  0  0  0  0  0  0
    0.4834    1.9457   -3.9480 O   0  0  0  0  0  0  0  0  0  0  0  0
    2.7150    0.6943   -3.9869 O   0  0  0  0  0  0  0  0  0  0  0  0
    0.6778   -0.4715   -4.7584 O   0  0  0  0  0  0  0  0  0  0  0  0
    0.4484    1.5496   -6.9220 F   0  0  0  0  0  0  0  0  0  0  0  0
    2.2478    2.6530   -6.3767 F   0  0  0  0  0  0  0  0  0  0  0  0
    2.3845    0.5543   -6.9449 F   0  0  0  0  0  0  0  0  0  0  0  0
  1  2  2  0  0  0  0
  1  6  1  0  0  0  0
  2  3  1  0  0  0  0
  3 20  1  0  0  0  0
  3  4  2  0  0  0  0
  4  9  1  0  0  0  0
  5  4  1  0  0  0  0
  5 10  1  0  0  0  0
  6  5  2  0  0  0  0
  7  1  1  0  0  0  0
  8  2  1  0  0  0  0
 11  6  1  0  0  0  0
 11 12  2  0  0  0  0
 13 11  2  0  0  0  0
 14 15  3  0  0  0  0
 16 19  2  0  0  0  0
 16 18  2  0  0  0  0
 17 16  1  0  0  0  0
 20 16  1  0  0  0  0
 21 17  1  0  0  0  0
 22 17  1  0  0  0  0
 23 17  1  0  0  0  0
M  END
