Coordinates from ORCA-job 4-NO2-Ph-N2-OTf-B3LYPG-6-31G_dp-MTMO-d009-169-n800
 OpenBabel09051908473D

 23 22  0  0  0  0  0  0  0  0999 V2000
   -2.4761   -1.1381   -6.2055 C   0  0  0  0  0  0  0  0  0  0  0  0
   -1.1067   -0.9024   -6.1403 C   0  0  0  0  0  0  0  0  0  0  0  0
   -0.5571   -0.4212   -4.9519 C   0  0  0  0  0  0  0  0  0  0  0  0
   -1.3366   -0.1681   -3.8231 C   0  0  0  0  0  0  0  0  0  0  0  0
   -2.7083   -0.3942   -3.8915 C   0  0  0  0  0  0  0  0  0  0  0  0
   -3.2548   -0.8769   -5.0793 C   0  0  0  0  0  0  0  0  0  0  0  0
   -2.9462   -1.5142   -7.1051 H   0  0  0  0  0  0  0  0  0  0  0  0
   -0.4621   -1.0891   -6.9913 H   0  0  0  0  0  0  0  0  0  0  0  0
   -0.8777    0.2010   -2.9143 H   0  0  0  0  0  0  0  0  0  0  0  0
   -3.3550   -0.2096   -3.0432 H   0  0  0  0  0  0  0  0  0  0  0  0
   -4.7056   -1.1226   -5.1463 N   0  0  0  0  0  0  0  0  0  0  0  0
   -5.3691   -0.8855   -4.1388 O   0  0  0  0  0  0  0  0  0  0  0  0
   -5.1604   -1.5498   -6.2060 O   0  0  0  0  0  0  0  0  0  0  0  0
    5.3141    4.9472   -8.9195 N   0  0  0  0  0  0  0  0  0  0  0  0
    4.5497    4.3009   -8.4505 N   0  0  0  0  0  0  0  0  0  0  0  0
    1.5542    1.1894   -4.7053 S   0  0  0  0  0  0  0  0  0  0  0  0
    1.8268    1.6132   -6.5087 C   0  0  0  0  0  0  0  0  0  0  0  0
    0.6042    2.1469   -4.1658 O   0  0  0  0  0  0  0  0  0  0  0  0
    2.8482    0.9184   -4.1156 O   0  0  0  0  0  0  0  0  0  0  0  0
    0.8380   -0.2905   -4.9007 O   0  0  0  0  0  0  0  0  0  0  0  0
    0.6474    1.6483   -7.1317 F   0  0  0  0  0  0  0  0  0  0  0  0
    2.4094    2.8053   -6.5732 F   0  0  0  0  0  0  0  0  0  0  0  0
    2.6026    0.6927   -7.0701 F   0  0  0  0  0  0  0  0  0  0  0  0
  1  2  2  0  0  0  0
  1  6  1  0  0  0  0
  2  3  1  0  0  0  0
  3 20  1  0  0  0  0
  3  4  2  0  0  0  0
  4  9  1  0  0  0  0
  5  4  1  0  0  0  0
  5 10  1  0  0  0  0
  6  5  2  0  0  0  0
  7  1  1  0  0  0  0
  8  2  1  0  0  0  0
 11  6  1  0  0  0  0
 11 12  2  0  0  0  0
 13 11  2  0  0  0  0
 14 15  3  0  0  0  0
 16 18  2  0  0  0  0
 16 19  2  0  0  0  0
 17 16  1  0  0  0  0
 20 16  1  0  0  0  0
 21 17  1  0  0  0  0
 22 17  1  0  0  0  0
 23 17  1  0  0  0  0
M  END
