Coordinates from ORCA-job 4-NO2-Ph-N2-OTf-B3LYPG-6-31G_dp-MTMO-d009-169-n800
 OpenBabel09051908483D

 23 22  0  0  0  0  0  0  0  0999 V2000
   -2.8992   -1.4796   -5.9616 C   0  0  0  0  0  0  0  0  0  0  0  0
   -1.5285   -1.2561   -5.8823 C   0  0  0  0  0  0  0  0  0  0  0  0
   -0.9853   -0.7908   -4.6847 C   0  0  0  0  0  0  0  0  0  0  0  0
   -1.7720   -0.5436   -3.5595 C   0  0  0  0  0  0  0  0  0  0  0  0
   -3.1449   -0.7575   -3.6421 C   0  0  0  0  0  0  0  0  0  0  0  0
   -3.6853   -1.2232   -4.8394 C   0  0  0  0  0  0  0  0  0  0  0  0
   -3.3646   -1.8429   -6.8689 H   0  0  0  0  0  0  0  0  0  0  0  0
   -0.8780   -1.4404   -6.7294 H   0  0  0  0  0  0  0  0  0  0  0  0
   -1.3178   -0.1877   -2.6432 H   0  0  0  0  0  0  0  0  0  0  0  0
   -3.7973   -0.5766   -2.7973 H   0  0  0  0  0  0  0  0  0  0  0  0
   -5.1376   -1.4556   -4.9213 N   0  0  0  0  0  0  0  0  0  0  0  0
   -5.8077   -1.2227   -3.9173 O   0  0  0  0  0  0  0  0  0  0  0  0
   -5.5868   -1.8682   -5.9892 O   0  0  0  0  0  0  0  0  0  0  0  0
    9.9362    8.6642  -11.6999 N   0  0  0  0  0  0  0  0  0  0  0  0
    9.1208    8.0226  -11.3191 N   0  0  0  0  0  0  0  0  0  0  0  0
    1.1361    0.7990   -4.4019 S   0  0  0  0  0  0  0  0  0  0  0  0
    1.3466    1.2842   -6.1971 C   0  0  0  0  0  0  0  0  0  0  0  0
    0.2090    1.7407   -3.7985 O   0  0  0  0  0  0  0  0  0  0  0  0
    2.4480    0.5039   -3.8662 O   0  0  0  0  0  0  0  0  0  0  0  0
    0.4105   -0.6716   -4.6219 O   0  0  0  0  0  0  0  0  0  0  0  0
    0.1456    1.3584   -6.7736 F   0  0  0  0  0  0  0  0  0  0  0  0
    1.9441    2.4699   -6.2420 F   0  0  0  0  0  0  0  0  0  0  0  0
    2.0871    0.3748   -6.8214 F   0  0  0  0  0  0  0  0  0  0  0  0
  1  2  2  0  0  0  0
  1  6  1  0  0  0  0
  2  3  1  0  0  0  0
  3 20  1  0  0  0  0
  3  4  2  0  0  0  0
  4  9  1  0  0  0  0
  5  4  1  0  0  0  0
  5 10  1  0  0  0  0
  6  5  2  0  0  0  0
  7  1  1  0  0  0  0
  8  2  1  0  0  0  0
 11  6  1  0  0  0  0
 11 12  2  0  0  0  0
 13 11  2  0  0  0  0
 14 15  3  0  0  0  0
 16 19  2  0  0  0  0
 16 18  2  0  0  0  0
 17 16  1  0  0  0  0
 20 16  1  0  0  0  0
 21 17  1  0  0  0  0
 22 17  1  0  0  0  0
 23 17  1  0  0  0  0
M  END
