Coordinates from ORCA-job 4-NO2-Ph-N2-OTf-B3LYPG-6-31G_dp-MTMO-d009-169-n800
 OpenBabel09051908473D

 23 22  0  0  0  0  0  0  0  0999 V2000
   -2.3469   -0.9368   -6.3436 C   0  0  0  0  0  0  0  0  0  0  0  0
   -0.9887   -0.6689   -6.2072 C   0  0  0  0  0  0  0  0  0  0  0  0
   -0.4848   -0.3441   -4.9478 C   0  0  0  0  0  0  0  0  0  0  0  0
   -1.2993   -0.2795   -3.8172 C   0  0  0  0  0  0  0  0  0  0  0  0
   -2.6597   -0.5385   -3.9551 C   0  0  0  0  0  0  0  0  0  0  0  0
   -3.1606   -0.8643   -5.2142 C   0  0  0  0  0  0  0  0  0  0  0  0
   -2.7822   -1.1964   -7.3001 H   0  0  0  0  0  0  0  0  0  0  0  0
   -0.3187   -0.7115   -7.0580 H   0  0  0  0  0  0  0  0  0  0  0  0
   -0.8748   -0.0291   -2.8529 H   0  0  0  0  0  0  0  0  0  0  0  0
   -3.3320   -0.4981   -3.1075 H   0  0  0  0  0  0  0  0  0  0  0  0
   -4.5995   -1.1450   -5.3564 N   0  0  0  0  0  0  0  0  0  0  0  0
   -5.2942   -1.0784   -4.3442 O   0  0  0  0  0  0  0  0  0  0  0  0
   -5.0141   -1.4288   -6.4789 O   0  0  0  0  0  0  0  0  0  0  0  0
    4.4923    3.8607   -9.5706 N   0  0  0  0  0  0  0  0  0  0  0  0
    3.8206    3.3502   -8.8567 N   0  0  0  0  0  0  0  0  0  0  0  0
    1.5551    1.2927   -4.4356 S   0  0  0  0  0  0  0  0  0  0  0  0
    1.9149    1.9218   -6.1626 C   0  0  0  0  0  0  0  0  0  0  0  0
    0.5423    2.1556   -3.8522 O   0  0  0  0  0  0  0  0  0  0  0  0
    2.8232    0.9978   -3.8023 O   0  0  0  0  0  0  0  0  0  0  0  0
    0.9028   -0.1760   -4.8358 O   0  0  0  0  0  0  0  0  0  0  0  0
    0.7771    1.9661   -6.8582 F   0  0  0  0  0  0  0  0  0  0  0  0
    2.4295    3.1423   -6.0587 F   0  0  0  0  0  0  0  0  0  0  0  0
    2.7769    1.1096   -6.7620 F   0  0  0  0  0  0  0  0  0  0  0  0
  1  2  2  0  0  0  0
  1  6  1  0  0  0  0
  2  3  1  0  0  0  0
  3 20  1  0  0  0  0
  3  4  2  0  0  0  0
  4  9  1  0  0  0  0
  5  4  1  0  0  0  0
  5 10  1  0  0  0  0
  6  5  2  0  0  0  0
  7  1  1  0  0  0  0
  8  2  1  0  0  0  0
 11  6  1  0  0  0  0
 11 12  2  0  0  0  0
 13 11  2  0  0  0  0
 14 15  3  0  0  0  0
 16 18  2  0  0  0  0
 16 19  2  0  0  0  0
 17 22  1  0  0  0  0
 17 16  1  0  0  0  0
 20 16  1  0  0  0  0
 21 17  1  0  0  0  0
 23 17  1  0  0  0  0
M  END
