Coordinates from ORCA-job 4-NO2-Ph-N2-OTf-B3LYPG-6-31G_dp-MTMO-d009-169-n800
 OpenBabel09051908483D

 23 22  0  0  0  0  0  0  0  0999 V2000
   -2.8889   -1.4713   -5.9680 C   0  0  0  0  0  0  0  0  0  0  0  0
   -1.5181   -1.2484   -5.8879 C   0  0  0  0  0  0  0  0  0  0  0  0
   -0.9754   -0.7832   -4.6900 C   0  0  0  0  0  0  0  0  0  0  0  0
   -1.7628   -0.5357   -3.5653 C   0  0  0  0  0  0  0  0  0  0  0  0
   -3.1357   -0.7490   -3.6488 C   0  0  0  0  0  0  0  0  0  0  0  0
   -3.6756   -1.2144   -4.8463 C   0  0  0  0  0  0  0  0  0  0  0  0
   -3.3539   -1.8344   -6.8756 H   0  0  0  0  0  0  0  0  0  0  0  0
   -0.8672   -1.4330   -6.7346 H   0  0  0  0  0  0  0  0  0  0  0  0
   -1.3089   -0.1799   -2.6488 H   0  0  0  0  0  0  0  0  0  0  0  0
   -3.7885   -0.5677   -2.8044 H   0  0  0  0  0  0  0  0  0  0  0  0
   -5.1279   -1.4462   -4.9291 N   0  0  0  0  0  0  0  0  0  0  0  0
   -5.7985   -1.2130   -3.9255 O   0  0  0  0  0  0  0  0  0  0  0  0
   -5.5767   -1.8587   -5.9972 O   0  0  0  0  0  0  0  0  0  0  0  0
    9.8295    8.5827  -11.6400 N   0  0  0  0  0  0  0  0  0  0  0  0
    9.0133    7.9413  -11.2606 N   0  0  0  0  0  0  0  0  0  0  0  0
    1.1464    0.8057   -4.4061 S   0  0  0  0  0  0  0  0  0  0  0  0
    1.3581    1.2907   -6.2012 C   0  0  0  0  0  0  0  0  0  0  0  0
    0.2193    1.7478   -3.8033 O   0  0  0  0  0  0  0  0  0  0  0  0
    2.4579    0.5101   -3.8696 O   0  0  0  0  0  0  0  0  0  0  0  0
    0.4203   -0.6646   -4.6264 O   0  0  0  0  0  0  0  0  0  0  0  0
    0.1575    1.3654   -6.7784 F   0  0  0  0  0  0  0  0  0  0  0  0
    1.9562    2.4762   -6.2459 F   0  0  0  0  0  0  0  0  0  0  0  0
    2.0986    0.3810   -6.8251 F   0  0  0  0  0  0  0  0  0  0  0  0
  1  2  2  0  0  0  0
  1  6  1  0  0  0  0
  2  3  1  0  0  0  0
  3 20  1  0  0  0  0
  3  4  2  0  0  0  0
  4  9  1  0  0  0  0
  5  4  1  0  0  0  0
  5 10  1  0  0  0  0
  6  5  2  0  0  0  0
  7  1  1  0  0  0  0
  8  2  1  0  0  0  0
 11  6  1  0  0  0  0
 11 12  2  0  0  0  0
 13 11  2  0  0  0  0
 14 15  3  0  0  0  0
 16 19  2  0  0  0  0
 16 18  2  0  0  0  0
 17 16  1  0  0  0  0
 20 16  1  0  0  0  0
 21 17  1  0  0  0  0
 22 17  1  0  0  0  0
 23 17  1  0  0  0  0
M  END
