Coordinates from ORCA-job 4-NO2-Ph-N2-OTf-B3LYPG-6-31G_dp-MTMO-d009-169-n800
 OpenBabel09051908483D

 23 22  0  0  0  0  0  0  0  0999 V2000
   -2.9247   -1.5001   -5.9459 C   0  0  0  0  0  0  0  0  0  0  0  0
   -1.5541   -1.2757   -5.8681 C   0  0  0  0  0  0  0  0  0  0  0  0
   -1.0098   -0.8101   -4.6711 C   0  0  0  0  0  0  0  0  0  0  0  0
   -1.7955   -0.5635   -3.5450 C   0  0  0  0  0  0  0  0  0  0  0  0
   -3.1683   -0.7782   -3.6261 C   0  0  0  0  0  0  0  0  0  0  0  0
   -3.7097   -1.2441   -4.8229 C   0  0  0  0  0  0  0  0  0  0  0  0
   -3.3909   -1.8636   -6.8527 H   0  0  0  0  0  0  0  0  0  0  0  0
   -0.9044   -1.4595   -6.7160 H   0  0  0  0  0  0  0  0  0  0  0  0
   -1.3404   -0.2074   -2.6292 H   0  0  0  0  0  0  0  0  0  0  0  0
   -3.8198   -0.5978   -2.7806 H   0  0  0  0  0  0  0  0  0  0  0  0
   -5.1619   -1.4775   -4.9032 N   0  0  0  0  0  0  0  0  0  0  0  0
   -5.8311   -1.2450   -3.8984 O   0  0  0  0  0  0  0  0  0  0  0  0
   -5.6121   -1.8904   -5.9705 O   0  0  0  0  0  0  0  0  0  0  0  0
   10.2007    8.8691  -11.8511 N   0  0  0  0  0  0  0  0  0  0  0  0
    9.3873    8.2267  -11.4670 N   0  0  0  0  0  0  0  0  0  0  0  0
    1.1110    0.7809   -4.3903 S   0  0  0  0  0  0  0  0  0  0  0  0
    1.3185    1.2670   -6.1856 C   0  0  0  0  0  0  0  0  0  0  0  0
    0.1841    1.7217   -3.7852 O   0  0  0  0  0  0  0  0  0  0  0  0
    2.4238    0.4864   -3.8566 O   0  0  0  0  0  0  0  0  0  0  0  0
    0.3860   -0.6901   -4.6098 O   0  0  0  0  0  0  0  0  0  0  0  0
    0.1167    1.3404   -6.7604 F   0  0  0  0  0  0  0  0  0  0  0  0
    1.9149    2.4533   -6.2308 F   0  0  0  0  0  0  0  0  0  0  0  0
    2.0590    0.3586   -6.8113 F   0  0  0  0  0  0  0  0  0  0  0  0
  1  2  2  0  0  0  0
  1  6  1  0  0  0  0
  2  3  1  0  0  0  0
  3 20  1  0  0  0  0
  3  4  2  0  0  0  0
  4  9  1  0  0  0  0
  5  4  1  0  0  0  0
  5 10  1  0  0  0  0
  6  5  2  0  0  0  0
  7  1  1  0  0  0  0
  8  2  1  0  0  0  0
 11  6  1  0  0  0  0
 11 12  2  0  0  0  0
 13 11  2  0  0  0  0
 14 15  3  0  0  0  0
 16 19  2  0  0  0  0
 16 18  2  0  0  0  0
 17 16  1  0  0  0  0
 20 16  1  0  0  0  0
 21 17  1  0  0  0  0
 22 17  1  0  0  0  0
 23 17  1  0  0  0  0
M  END
