Coordinates from ORCA-job 4-NO2-Ph-N2-OTf-B3LYPG-6-31G_dp-MTMO-d009-169-n800
 OpenBabel09051908473D

 23 22  0  0  0  0  0  0  0  0999 V2000
   -1.9650   -0.3298   -6.3983 C   0  0  0  0  0  0  0  0  0  0  0  0
   -1.0647    0.7196   -6.5532 C   0  0  0  0  0  0  0  0  0  0  0  0
   -1.0351    1.6721   -5.5348 C   0  0  0  0  0  0  0  0  0  0  0  0
   -1.8250    1.6456   -4.3810 C   0  0  0  0  0  0  0  0  0  0  0  0
   -2.7126    0.5863   -4.2494 C   0  0  0  0  0  0  0  0  0  0  0  0
   -2.7681   -0.3729   -5.2612 C   0  0  0  0  0  0  0  0  0  0  0  0
   -2.0421   -1.1149   -7.1399 H   0  0  0  0  0  0  0  0  0  0  0  0
   -0.3641    0.7937   -7.3772 H   0  0  0  0  0  0  0  0  0  0  0  0
   -1.7350    2.4111   -3.6195 H   0  0  0  0  0  0  0  0  0  0  0  0
   -3.3546    0.4900   -3.3831 H   0  0  0  0  0  0  0  0  0  0  0  0
   -3.7253   -1.4942   -5.1114 N   0  0  0  0  0  0  0  0  0  0  0  0
   -4.4078   -1.5132   -4.0915 O   0  0  0  0  0  0  0  0  0  0  0  0
   -3.7678   -2.3182   -6.0185 O   0  0  0  0  0  0  0  0  0  0  0  0
   -0.1875    2.8256   -5.6973 N   0  0  0  0  0  0  0  0  0  0  0  0
    0.2091    3.8528   -5.8505 N   0  0  0  0  0  0  0  0  0  0  0  0
    2.4436    1.2283   -5.9632 S   0  0  0  0  0  0  0  0  0  0  0  0
    2.5091   -0.6277   -5.9233 C   0  0  0  0  0  0  0  0  0  0  0  0
    1.6964    1.5225   -7.2203 O   0  0  0  0  0  0  0  0  0  0  0  0
    3.8382    1.6650   -5.9012 O   0  0  0  0  0  0  0  0  0  0  0  0
    1.6062    1.5556   -4.7554 O   0  0  0  0  0  0  0  0  0  0  0  0
    1.2560   -1.1344   -5.9891 F   0  0  0  0  0  0  0  0  0  0  0  0
    3.2013   -1.0989   -6.9650 F   0  0  0  0  0  0  0  0  0  0  0  0
    3.0740   -1.0629   -4.7935 F   0  0  0  0  0  0  0  0  0  0  0  0
  1  6  1  0  0  0  0
  2  1  2  0  0  0  0
  2  3  1  0  0  0  0
  3  4  2  0  0  0  0
  4  5  1  0  0  0  0
  4  9  1  0  0  0  0
  5 10  1  0  0  0  0
  6 11  1  0  0  0  0
  6  5  2  0  0  0  0
  7  1  1  0  0  0  0
  8  2  1  0  0  0  0
 11 12  2  0  0  0  0
 13 11  2  0  0  0  0
 14  3  1  0  0  0  0
 15 14  1  0  0  0  0
 16 17  1  0  0  0  0
 16 19  2  0  0  0  0
 16 20  1  0  0  0  0
 17 23  1  0  0  0  0
 18 16  2  0  0  0  0
 21 17  1  0  0  0  0
 22 17  1  0  0  0  0
M  RAD  3  14   2  15   3  20   2
M  END
