Coordinates from ORCA-job 4-NO2-Ph-N2-OTf-B3LYPG-6-31G_dp-MTMO-d009-169-n800
 OpenBabel09051908483D

 23 22  0  0  0  0  0  0  0  0999 V2000
   -2.8114   -1.4092   -6.0164 C   0  0  0  0  0  0  0  0  0  0  0  0
   -1.4404   -1.1904   -5.9303 C   0  0  0  0  0  0  0  0  0  0  0  0
   -0.9014   -0.7266   -4.7302 C   0  0  0  0  0  0  0  0  0  0  0  0
   -1.6929   -0.4765   -3.6090 C   0  0  0  0  0  0  0  0  0  0  0  0
   -3.0661   -0.6857   -3.6983 C   0  0  0  0  0  0  0  0  0  0  0  0
   -3.6021   -1.1497   -4.8981 C   0  0  0  0  0  0  0  0  0  0  0  0
   -3.2736   -1.7711   -6.9258 H   0  0  0  0  0  0  0  0  0  0  0  0
   -0.7864   -1.3772   -6.7742 H   0  0  0  0  0  0  0  0  0  0  0  0
   -1.2419   -0.1219   -2.6906 H   0  0  0  0  0  0  0  0  0  0  0  0
   -3.7219   -0.5023   -2.8568 H   0  0  0  0  0  0  0  0  0  0  0  0
   -5.0548   -1.3771   -4.9872 N   0  0  0  0  0  0  0  0  0  0  0  0
   -5.7290   -1.1416   -3.9864 O   0  0  0  0  0  0  0  0  0  0  0  0
   -5.5002   -1.7884   -6.0571 O   0  0  0  0  0  0  0  0  0  0  0  0
    9.0303    7.9694  -11.1917 N   0  0  0  0  0  0  0  0  0  0  0  0
    8.2097    7.3292  -10.8197 N   0  0  0  0  0  0  0  0  0  0  0  0
    1.2235    0.8567   -4.4377 S   0  0  0  0  0  0  0  0  0  0  0  0
    1.4427    1.3415   -6.2320 C   0  0  0  0  0  0  0  0  0  0  0  0
    0.2968    1.8010   -3.8380 O   0  0  0  0  0  0  0  0  0  0  0  0
    2.5323    0.5575   -3.8967 O   0  0  0  0  0  0  0  0  0  0  0  0
    0.4944   -0.6118   -4.6607 O   0  0  0  0  0  0  0  0  0  0  0  0
    0.2443    1.4193   -6.8133 F   0  0  0  0  0  0  0  0  0  0  0  0
    2.0438    2.5256   -6.2742 F   0  0  0  0  0  0  0  0  0  0  0  0
    2.1832    0.4302   -6.8534 F   0  0  0  0  0  0  0  0  0  0  0  0
  1  2  2  0  0  0  0
  1  6  1  0  0  0  0
  2  3  1  0  0  0  0
  3 20  1  0  0  0  0
  3  4  2  0  0  0  0
  4  9  1  0  0  0  0
  5  4  1  0  0  0  0
  5 10  1  0  0  0  0
  6  5  2  0  0  0  0
  7  1  1  0  0  0  0
  8  2  1  0  0  0  0
 11  6  1  0  0  0  0
 11 12  2  0  0  0  0
 13 11  2  0  0  0  0
 14 15  3  0  0  0  0
 16 19  2  0  0  0  0
 16 18  2  0  0  0  0
 17 16  1  0  0  0  0
 20 16  1  0  0  0  0
 21 17  1  0  0  0  0
 22 17  1  0  0  0  0
 23 17  1  0  0  0  0
M  END
