Coordinates from ORCA-job 4-NO2-Ph-N2-OTf-B3LYPG-6-31G_dp-MTMO-d009-169-n800
 OpenBabel09051908473D

 23 22  0  0  0  0  0  0  0  0999 V2000
   -2.4639   -1.0763   -6.2459 C   0  0  0  0  0  0  0  0  0  0  0  0
   -1.0998   -0.8104   -6.1854 C   0  0  0  0  0  0  0  0  0  0  0  0
   -0.5442   -0.3868   -4.9781 C   0  0  0  0  0  0  0  0  0  0  0  0
   -1.3128   -0.2209   -3.8257 C   0  0  0  0  0  0  0  0  0  0  0  0
   -2.6793   -0.4770   -3.8888 C   0  0  0  0  0  0  0  0  0  0  0  0
   -3.2318   -0.9020   -5.0957 C   0  0  0  0  0  0  0  0  0  0  0  0
   -2.9381   -1.4105   -7.1597 H   0  0  0  0  0  0  0  0  0  0  0  0
   -0.4641   -0.9304   -7.0549 H   0  0  0  0  0  0  0  0  0  0  0  0
   -0.8494    0.1047   -2.9027 H   0  0  0  0  0  0  0  0  0  0  0  0
   -3.3174   -0.3596   -3.0221 H   0  0  0  0  0  0  0  0  0  0  0  0
   -4.6770   -1.1793   -5.1577 N   0  0  0  0  0  0  0  0  0  0  0  0
   -5.3312   -1.0183   -4.1292 O   0  0  0  0  0  0  0  0  0  0  0  0
   -5.1373   -1.5544   -6.2347 O   0  0  0  0  0  0  0  0  0  0  0  0
    5.3084    4.5185   -8.9976 N   0  0  0  0  0  0  0  0  0  0  0  0
    4.5369    3.8905   -8.5158 N   0  0  0  0  0  0  0  0  0  0  0  0
    1.5296    1.2606   -4.6662 S   0  0  0  0  0  0  0  0  0  0  0  0
    1.7866    1.7849   -6.4452 C   0  0  0  0  0  0  0  0  0  0  0  0
    0.5583    2.1655   -4.0763 O   0  0  0  0  0  0  0  0  0  0  0  0
    2.8316    0.9915   -4.0932 O   0  0  0  0  0  0  0  0  0  0  0  0
    0.8479   -0.2240   -4.9369 O   0  0  0  0  0  0  0  0  0  0  0  0
    0.6081    1.7974   -7.0714 F   0  0  0  0  0  0  0  0  0  0  0  0
    2.3121    3.0051   -6.4462 F   0  0  0  0  0  0  0  0  0  0  0  0
    2.6059    0.9322   -7.0486 F   0  0  0  0  0  0  0  0  0  0  0  0
  1  2  2  0  0  0  0
  1  6  1  0  0  0  0
  2  3  1  0  0  0  0
  3 20  1  0  0  0  0
  3  4  2  0  0  0  0
  4  9  1  0  0  0  0
  5  4  1  0  0  0  0
  5 10  1  0  0  0  0
  6  5  2  0  0  0  0
  7  1  1  0  0  0  0
  8  2  1  0  0  0  0
 11  6  1  0  0  0  0
 11 12  2  0  0  0  0
 13 11  2  0  0  0  0
 14 15  3  0  0  0  0
 16 19  2  0  0  0  0
 16 18  2  0  0  0  0
 17 16  1  0  0  0  0
 20 16  1  0  0  0  0
 21 17  1  0  0  0  0
 22 17  1  0  0  0  0
 23 17  1  0  0  0  0
M  END
