Coordinates from ORCA-job 4-NO2-Ph-N2-OTf-B3LYPG-6-31G_dp-MTMO-d009-169-n800
 OpenBabel09051908473D

 23 22  0  0  0  0  0  0  0  0999 V2000
   -1.9765   -0.3672   -6.3524 C   0  0  0  0  0  0  0  0  0  0  0  0
   -1.0368    0.6545   -6.4798 C   0  0  0  0  0  0  0  0  0  0  0  0
   -1.0488    1.6069   -5.4745 C   0  0  0  0  0  0  0  0  0  0  0  0
   -1.8749    1.6382   -4.3582 C   0  0  0  0  0  0  0  0  0  0  0  0
   -2.7984    0.6018   -4.2544 C   0  0  0  0  0  0  0  0  0  0  0  0
   -2.8332   -0.3706   -5.2534 C   0  0  0  0  0  0  0  0  0  0  0  0
   -2.0424   -1.1600   -7.0869 H   0  0  0  0  0  0  0  0  0  0  0  0
   -0.2967    0.7060   -7.2718 H   0  0  0  0  0  0  0  0  0  0  0  0
   -1.8001    2.4159   -3.6080 H   0  0  0  0  0  0  0  0  0  0  0  0
   -3.4838    0.5380   -3.4187 H   0  0  0  0  0  0  0  0  0  0  0  0
   -3.8268   -1.4625   -5.1327 N   0  0  0  0  0  0  0  0  0  0  0  0
   -4.5547   -1.4494   -4.1444 O   0  0  0  0  0  0  0  0  0  0  0  0
   -3.8516   -2.2984   -6.0297 O   0  0  0  0  0  0  0  0  0  0  0  0
   -0.0953    2.8092   -5.6136 N   0  0  0  0  0  0  0  0  0  0  0  0
    0.2087    3.8701   -5.7522 N   0  0  0  0  0  0  0  0  0  0  0  0
    2.4761    1.2403   -6.0425 S   0  0  0  0  0  0  0  0  0  0  0  0
    2.6155   -0.6112   -5.9618 C   0  0  0  0  0  0  0  0  0  0  0  0
    1.6962    1.4843   -7.2877 O   0  0  0  0  0  0  0  0  0  0  0  0
    3.8501    1.7378   -6.0014 O   0  0  0  0  0  0  0  0  0  0  0  0
    1.6411    1.5528   -4.8203 O   0  0  0  0  0  0  0  0  0  0  0  0
    1.3845   -1.1669   -6.0024 F   0  0  0  0  0  0  0  0  0  0  0  0
    3.3161   -1.0731   -7.0014 F   0  0  0  0  0  0  0  0  0  0  0  0
    3.2107   -0.9953   -4.8295 F   0  0  0  0  0  0  0  0  0  0  0  0
  1  6  1  0  0  0  0
  2  1  2  0  0  0  0
  2  3  1  0  0  0  0
  3  4  2  0  0  0  0
  4  5  1  0  0  0  0
  4  9  1  0  0  0  0
  5 10  1  0  0  0  0
  6 11  1  0  0  0  0
  6  5  2  0  0  0  0
  7  1  1  0  0  0  0
  8  2  1  0  0  0  0
 11 12  2  0  0  0  0
 13 11  2  0  0  0  0
 14  3  1  0  0  0  0
 15 14  1  0  0  0  0
 16 19  2  0  0  0  0
 16 17  1  0  0  0  0
 16 20  1  0  0  0  0
 17 23  1  0  0  0  0
 18 16  2  0  0  0  0
 21 17  1  0  0  0  0
 22 17  1  0  0  0  0
M  RAD  3  14   2  15   3  20   2
M  END
