Coordinates from ORCA-job 4-NO2-Ph-N2-OTf-B3LYPG-6-31G_dp-MTMO-d009-169-n800
 OpenBabel09051908473D

 23 22  0  0  0  0  0  0  0  0999 V2000
   -1.9895   -1.6421   -5.6617 C   0  0  0  0  0  0  0  0  0  0  0  0
   -0.6532   -1.3363   -5.4254 C   0  0  0  0  0  0  0  0  0  0  0  0
   -0.3248   -0.0746   -4.9299 C   0  0  0  0  0  0  0  0  0  0  0  0
   -1.2923    0.8937   -4.6615 C   0  0  0  0  0  0  0  0  0  0  0  0
   -2.6282    0.5908   -4.9078 C   0  0  0  0  0  0  0  0  0  0  0  0
   -2.9548   -0.6711   -5.4008 C   0  0  0  0  0  0  0  0  0  0  0  0
   -2.2935   -2.6087   -6.0425 H   0  0  0  0  0  0  0  0  0  0  0  0
    0.1321   -2.0589   -5.6148 H   0  0  0  0  0  0  0  0  0  0  0  0
   -1.0026    1.8622   -4.2740 H   0  0  0  0  0  0  0  0  0  0  0  0
   -3.4153    1.3092   -4.7179 H   0  0  0  0  0  0  0  0  0  0  0  0
   -4.3703   -0.9917   -5.6526 N   0  0  0  0  0  0  0  0  0  0  0  0
   -5.2015   -0.1178   -5.4139 O   0  0  0  0  0  0  0  0  0  0  0  0
   -4.6294   -2.1131   -6.0855 O   0  0  0  0  0  0  0  0  0  0  0  0
    0.5006    5.4089   -5.0023 N   0  0  0  0  0  0  0  0  0  0  0  0
    1.2511    5.8134   -5.7055 N   0  0  0  0  0  0  0  0  0  0  0  0
    1.9078    1.3059   -5.4053 S   0  0  0  0  0  0  0  0  0  0  0  0
    2.5796    0.2442   -6.7925 C   0  0  0  0  0  0  0  0  0  0  0  0
    1.0357    2.3048   -5.9996 O   0  0  0  0  0  0  0  0  0  0  0  0
    3.0063    1.6237   -4.5179 O   0  0  0  0  0  0  0  0  0  0  0  0
    1.0229    0.1544   -4.6149 O   0  0  0  0  0  0  0  0  0  0  0  0
    1.5620   -0.2153   -7.5226 F   0  0  0  0  0  0  0  0  0  0  0  0
    3.3750    0.9951   -7.5466 F   0  0  0  0  0  0  0  0  0  0  0  0
    3.2613   -0.7757   -6.2825 F   0  0  0  0  0  0  0  0  0  0  0  0
  1  2  2  0  0  0  0
  1  6  1  0  0  0  0
  2  3  1  0  0  0  0
  3  4  2  0  0  0  0
  3 20  1  0  0  0  0
  4  9  1  0  0  0  0
  5 10  1  0  0  0  0
  5  4  1  0  0  0  0
  6  5  2  0  0  0  0
  7  1  1  0  0  0  0
  8  2  1  0  0  0  0
 11 12  2  0  0  0  0
 11  6  1  0  0  0  0
 13 11  2  0  0  0  0
 15 14  3  0  0  0  0
 16 20  1  0  0  0  0
 16 19  2  0  0  0  0
 17 23  1  0  0  0  0
 17 16  1  0  0  0  0
 18 16  2  0  0  0  0
 21 17  1  0  0  0  0
 22 17  1  0  0  0  0
M  END
