Coordinates from ORCA-job 4-NO2-Ph-N2-OTf-B3LYPG-6-31G_dp-MTMO-d009-169-n800
 OpenBabel09051908473D

 23 22  0  0  0  0  0  0  0  0999 V2000
   -2.5620   -1.2246   -6.1531 C   0  0  0  0  0  0  0  0  0  0  0  0
   -1.1903   -1.0092   -6.0683 C   0  0  0  0  0  0  0  0  0  0  0  0
   -0.6521   -0.5244   -4.8763 C   0  0  0  0  0  0  0  0  0  0  0  0
   -1.4449   -0.2497   -3.7618 C   0  0  0  0  0  0  0  0  0  0  0  0
   -2.8187   -0.4555   -3.8499 C   0  0  0  0  0  0  0  0  0  0  0  0
   -3.3540   -0.9408   -5.0417 C   0  0  0  0  0  0  0  0  0  0  0  0
   -3.0237   -1.6021   -7.0564 H   0  0  0  0  0  0  0  0  0  0  0  0
   -0.5353   -1.2143   -6.9071 H   0  0  0  0  0  0  0  0  0  0  0  0
   -0.9945    0.1211   -2.8495 H   0  0  0  0  0  0  0  0  0  0  0  0
   -3.4756   -0.2535   -3.0135 H   0  0  0  0  0  0  0  0  0  0  0  0
   -4.8073   -1.1644   -5.1293 N   0  0  0  0  0  0  0  0  0  0  0  0
   -5.4825   -0.9085   -4.1344 O   0  0  0  0  0  0  0  0  0  0  0  0
   -5.2523   -1.5936   -6.1925 O   0  0  0  0  0  0  0  0  0  0  0  0
    6.3582    5.9128   -9.5704 N   0  0  0  0  0  0  0  0  0  0  0  0
    5.5612    5.2684   -9.1567 N   0  0  0  0  0  0  0  0  0  0  0  0
    1.4779    1.0564   -4.6106 S   0  0  0  0  0  0  0  0  0  0  0  0
    1.7115    1.4987   -6.4142 C   0  0  0  0  0  0  0  0  0  0  0  0
    0.5510    2.0178   -4.0387 O   0  0  0  0  0  0  0  0  0  0  0  0
    2.7816    0.7644   -4.0537 O   0  0  0  0  0  0  0  0  0  0  0  0
    0.7439   -0.4137   -4.8058 O   0  0  0  0  0  0  0  0  0  0  0  0
    0.5173    1.5674   -7.0053 F   0  0  0  0  0  0  0  0  0  0  0  0
    2.3179    2.6786   -6.4801 F   0  0  0  0  0  0  0  0  0  0  0  0
    2.4521    0.5696   -7.0087 F   0  0  0  0  0  0  0  0  0  0  0  0
  1  2  2  0  0  0  0
  1  6  1  0  0  0  0
  2  3  1  0  0  0  0
  3 20  1  0  0  0  0
  3  4  2  0  0  0  0
  4  9  1  0  0  0  0
  5  4  1  0  0  0  0
  5 10  1  0  0  0  0
  6  5  2  0  0  0  0
  7  1  1  0  0  0  0
  8  2  1  0  0  0  0
 11  6  1  0  0  0  0
 11 12  2  0  0  0  0
 13 11  2  0  0  0  0
 14 15  3  0  0  0  0
 16 19  2  0  0  0  0
 16 18  2  0  0  0  0
 17 16  1  0  0  0  0
 20 16  1  0  0  0  0
 21 17  1  0  0  0  0
 22 17  1  0  0  0  0
 23 17  1  0  0  0  0
M  END
