Coordinates from ORCA-job 4-NO2-Ph-N2-OTf-B3LYPG-6-31G_dp-MTMO-d009-169-n800
 OpenBabel09051908473D

 23 22  0  0  0  0  0  0  0  0999 V2000
   -1.9744   -1.5651   -5.5537 C   0  0  0  0  0  0  0  0  0  0  0  0
   -0.6328   -1.2573   -5.3528 C   0  0  0  0  0  0  0  0  0  0  0  0
   -0.2829    0.0443   -4.9949 C   0  0  0  0  0  0  0  0  0  0  0  0
   -1.2335    1.0516   -4.8297 C   0  0  0  0  0  0  0  0  0  0  0  0
   -2.5749    0.7450   -5.0397 C   0  0  0  0  0  0  0  0  0  0  0  0
   -2.9232   -0.5564   -5.3957 C   0  0  0  0  0  0  0  0  0  0  0  0
   -2.2947   -2.5614   -5.8304 H   0  0  0  0  0  0  0  0  0  0  0  0
    0.1400   -2.0087   -5.4661 H   0  0  0  0  0  0  0  0  0  0  0  0
   -0.9295    2.0518   -4.5459 H   0  0  0  0  0  0  0  0  0  0  0  0
   -3.3500    1.4920   -4.9257 H   0  0  0  0  0  0  0  0  0  0  0  0
   -4.3444   -0.8791   -5.6095 N   0  0  0  0  0  0  0  0  0  0  0  0
   -5.1613    0.0277   -5.4616 O   0  0  0  0  0  0  0  0  0  0  0  0
   -4.6227   -2.0355   -5.9223 O   0  0  0  0  0  0  0  0  0  0  0  0
    0.0208    4.8027   -4.5949 N   0  0  0  0  0  0  0  0  0  0  0  0
    0.6068    5.6630   -4.9658 N   0  0  0  0  0  0  0  0  0  0  0  0
    1.9733    1.3084   -5.6408 S   0  0  0  0  0  0  0  0  0  0  0  0
    2.6852    0.0484   -6.8279 C   0  0  0  0  0  0  0  0  0  0  0  0
    1.1164    2.1984   -6.4054 O   0  0  0  0  0  0  0  0  0  0  0  0
    3.0491    1.7661   -4.7869 O   0  0  0  0  0  0  0  0  0  0  0  0
    1.0685    0.2878   -4.7066 O   0  0  0  0  0  0  0  0  0  0  0  0
    1.6876   -0.5492   -7.4828 F   0  0  0  0  0  0  0  0  0  0  0  0
    3.4736    0.6838   -7.6881 F   0  0  0  0  0  0  0  0  0  0  0  0
    3.3822   -0.8572   -6.1508 F   0  0  0  0  0  0  0  0  0  0  0  0
  1  6  2  0  0  0  0
  1  2  1  0  0  0  0
  2  3  2  0  0  0  0
  3  4  1  0  0  0  0
  3 20  1  0  0  0  0
  4  9  1  0  0  0  0
  5 10  1  0  0  0  0
  5  4  2  0  0  0  0
  6  5  1  0  0  0  0
  7  1  1  0  0  0  0
  8  2  1  0  0  0  0
 11 12  2  0  0  0  0
 11  6  1  0  0  0  0
 13 11  2  0  0  0  0
 15 14  3  0  0  0  0
 16 19  2  0  0  0  0
 16 20  1  0  0  0  0
 17 23  1  0  0  0  0
 17 16  1  0  0  0  0
 18 16  2  0  0  0  0
 21 17  1  0  0  0  0
 22 17  1  0  0  0  0
M  END
