Coordinates from ORCA-job 4-NO2-Ph-N2-OTf-B3LYPG-6-31G_dp-MTMO-d009-169-n800
 OpenBabel09051908473D

 23 22  0  0  0  0  0  0  0  0999 V2000
   -2.6754   -1.3010   -6.0995 C   0  0  0  0  0  0  0  0  0  0  0  0
   -1.3042   -1.0862   -6.0071 C   0  0  0  0  0  0  0  0  0  0  0  0
   -0.7696   -0.6232   -4.8047 C   0  0  0  0  0  0  0  0  0  0  0  0
   -1.5655   -0.3703   -3.6873 C   0  0  0  0  0  0  0  0  0  0  0  0
   -2.9389   -0.5755   -3.7830 C   0  0  0  0  0  0  0  0  0  0  0  0
   -3.4707   -1.0386   -4.9851 C   0  0  0  0  0  0  0  0  0  0  0  0
   -3.1344   -1.6620   -7.0109 H   0  0  0  0  0  0  0  0  0  0  0  0
   -0.6467   -1.2753   -6.8477 H   0  0  0  0  0  0  0  0  0  0  0  0
   -1.1179   -0.0165   -2.7670 H   0  0  0  0  0  0  0  0  0  0  0  0
   -3.5982   -0.3898   -2.9447 H   0  0  0  0  0  0  0  0  0  0  0  0
   -4.9235   -1.2616   -5.0809 N   0  0  0  0  0  0  0  0  0  0  0  0
   -5.6018   -1.0237   -4.0835 O   0  0  0  0  0  0  0  0  0  0  0  0
   -5.3652   -1.6721   -6.1528 O   0  0  0  0  0  0  0  0  0  0  0  0
    7.6140    6.8726  -10.3856 N   0  0  0  0  0  0  0  0  0  0  0  0
    6.7967    6.2305  -10.0096 N   0  0  0  0  0  0  0  0  0  0  0  0
    1.3582    0.9545   -4.5033 S   0  0  0  0  0  0  0  0  0  0  0  0
    1.5878    1.4372   -6.2969 C   0  0  0  0  0  0  0  0  0  0  0  0
    0.4310    1.9018   -3.9090 O   0  0  0  0  0  0  0  0  0  0  0  0
    2.6635    0.6523   -3.9555 O   0  0  0  0  0  0  0  0  0  0  0  0
    0.6262   -0.5122   -4.7287 O   0  0  0  0  0  0  0  0  0  0  0  0
    0.3925    1.5172   -6.8844 F   0  0  0  0  0  0  0  0  0  0  0  0
    2.1918    2.6197   -6.3371 F   0  0  0  0  0  0  0  0  0  0  0  0
    2.3292    0.5234   -6.9136 F   0  0  0  0  0  0  0  0  0  0  0  0
  1  2  2  0  0  0  0
  1  6  1  0  0  0  0
  2  3  1  0  0  0  0
  3 20  1  0  0  0  0
  3  4  2  0  0  0  0
  4  9  1  0  0  0  0
  5  4  1  0  0  0  0
  5 10  1  0  0  0  0
  6  5  2  0  0  0  0
  7  1  1  0  0  0  0
  8  2  1  0  0  0  0
 11  6  1  0  0  0  0
 11 12  2  0  0  0  0
 13 11  2  0  0  0  0
 14 15  3  0  0  0  0
 16 19  2  0  0  0  0
 16 18  2  0  0  0  0
 17 16  1  0  0  0  0
 20 16  1  0  0  0  0
 21 17  1  0  0  0  0
 22 17  1  0  0  0  0
 23 17  1  0  0  0  0
M  END
