Coordinates from ORCA-job 4-NO2-Ph-N2-OTf-B3LYPG-6-31G_dp-MTMO-d009-169-n800
 OpenBabel09051908483D

 23 22  0  0  0  0  0  0  0  0999 V2000
   -2.8659   -1.4527   -5.9824 C   0  0  0  0  0  0  0  0  0  0  0  0
   -1.4951   -1.2312   -5.9006 C   0  0  0  0  0  0  0  0  0  0  0  0
   -0.9534   -0.7663   -4.7021 C   0  0  0  0  0  0  0  0  0  0  0  0
   -1.7420   -0.5176   -3.5785 C   0  0  0  0  0  0  0  0  0  0  0  0
   -3.1150   -0.7295   -3.6637 C   0  0  0  0  0  0  0  0  0  0  0  0
   -3.6538   -1.1947   -4.8618 C   0  0  0  0  0  0  0  0  0  0  0  0
   -3.3302   -1.8155   -6.8905 H   0  0  0  0  0  0  0  0  0  0  0  0
   -0.8433   -1.4167   -6.7464 H   0  0  0  0  0  0  0  0  0  0  0  0
   -1.2889   -0.1621   -2.6615 H   0  0  0  0  0  0  0  0  0  0  0  0
   -3.7687   -0.5473   -2.8202 H   0  0  0  0  0  0  0  0  0  0  0  0
   -5.1063   -1.4249   -4.9465 N   0  0  0  0  0  0  0  0  0  0  0  0
   -5.7779   -1.1905   -3.9438 O   0  0  0  0  0  0  0  0  0  0  0  0
   -5.5541   -1.8371   -6.0150 O   0  0  0  0  0  0  0  0  0  0  0  0
    9.5891    8.3997  -11.5049 N   0  0  0  0  0  0  0  0  0  0  0  0
    8.7710    7.7587  -11.1288 N   0  0  0  0  0  0  0  0  0  0  0  0
    1.1696    0.8207   -4.4155 S   0  0  0  0  0  0  0  0  0  0  0  0
    1.3847    1.3049   -6.2105 C   0  0  0  0  0  0  0  0  0  0  0  0
    0.2425    1.7638   -3.8145 O   0  0  0  0  0  0  0  0  0  0  0  0
    2.4799    0.5240   -3.8768 O   0  0  0  0  0  0  0  0  0  0  0  0
    0.4424   -0.6490   -4.6368 O   0  0  0  0  0  0  0  0  0  0  0  0
    0.1851    1.3796   -6.7898 F   0  0  0  0  0  0  0  0  0  0  0  0
    1.9832    2.4902   -6.2546 F   0  0  0  0  0  0  0  0  0  0  0  0
    2.1261    0.3947   -6.8327 F   0  0  0  0  0  0  0  0  0  0  0  0
  1  2  2  0  0  0  0
  1  6  1  0  0  0  0
  2  3  1  0  0  0  0
  3 20  1  0  0  0  0
  3  4  2  0  0  0  0
  4  9  1  0  0  0  0
  5  4  1  0  0  0  0
  5 10  1  0  0  0  0
  6  5  2  0  0  0  0
  7  1  1  0  0  0  0
  8  2  1  0  0  0  0
 11  6  1  0  0  0  0
 11 12  2  0  0  0  0
 13 11  2  0  0  0  0
 14 15  3  0  0  0  0
 16 19  2  0  0  0  0
 16 18  2  0  0  0  0
 17 16  1  0  0  0  0
 20 16  1  0  0  0  0
 21 17  1  0  0  0  0
 22 17  1  0  0  0  0
 23 17  1  0  0  0  0
M  END
