Coordinates from ORCA-job 4-NO2-Ph-N2-OTf-B3LYPG-6-31G_dp-MTMO-d009-169-n800
 OpenBabel09051908473D

 23 22  0  0  0  0  0  0  0  0999 V2000
   -1.9872   -1.6911   -5.7064 C   0  0  0  0  0  0  0  0  0  0  0  0
   -0.6640   -1.3430   -5.4555 C   0  0  0  0  0  0  0  0  0  0  0  0
   -0.3855   -0.0935   -4.9020 C   0  0  0  0  0  0  0  0  0  0  0  0
   -1.3910    0.8211   -4.5886 C   0  0  0  0  0  0  0  0  0  0  0  0
   -2.7141    0.4765   -4.8490 C   0  0  0  0  0  0  0  0  0  0  0  0
   -2.9904   -0.7729   -5.4007 C   0  0  0  0  0  0  0  0  0  0  0  0
   -2.2525   -2.6504   -6.1319 H   0  0  0  0  0  0  0  0  0  0  0  0
    0.1496   -2.0236   -5.6779 H   0  0  0  0  0  0  0  0  0  0  0  0
   -1.1397    1.7810   -4.1554 H   0  0  0  0  0  0  0  0  0  0  0  0
   -3.5293    1.1528   -4.6258 H   0  0  0  0  0  0  0  0  0  0  0  0
   -4.3923   -1.1379   -5.6683 N   0  0  0  0  0  0  0  0  0  0  0  0
   -5.2575   -0.3100   -5.3895 O   0  0  0  0  0  0  0  0  0  0  0  0
   -4.6068   -2.2474   -6.1531 O   0  0  0  0  0  0  0  0  0  0  0  0
    1.1975    5.6929   -5.2008 N   0  0  0  0  0  0  0  0  0  0  0  0
    1.9211    5.5775   -6.0282 N   0  0  0  0  0  0  0  0  0  0  0  0
    1.7911    1.3906   -5.3203 S   0  0  0  0  0  0  0  0  0  0  0  0
    2.4842    0.4200   -6.7625 C   0  0  0  0  0  0  0  0  0  0  0  0
    0.8800    2.3866   -5.8584 O   0  0  0  0  0  0  0  0  0  0  0  0
    2.8867    1.7025   -4.4276 O   0  0  0  0  0  0  0  0  0  0  0  0
    0.9524    0.1745   -4.5771 O   0  0  0  0  0  0  0  0  0  0  0  0
    1.4756   -0.0384   -7.5055 F   0  0  0  0  0  0  0  0  0  0  0  0
    3.2464    1.2327   -7.4858 F   0  0  0  0  0  0  0  0  0  0  0  0
    3.2049   -0.5994   -6.3077 F   0  0  0  0  0  0  0  0  0  0  0  0
  1  2  2  0  0  0  0
  1  6  1  0  0  0  0
  2  3  1  0  0  0  0
  3  4  2  0  0  0  0
  3 20  1  0  0  0  0
  4  9  1  0  0  0  0
  5 10  1  0  0  0  0
  5  4  1  0  0  0  0
  6  5  2  0  0  0  0
  7  1  1  0  0  0  0
  8  2  1  0  0  0  0
 11  6  1  0  0  0  0
 11 12  2  0  0  0  0
 13 11  2  0  0  0  0
 15 14  3  0  0  0  0
 16 20  1  0  0  0  0
 16 19  2  0  0  0  0
 17 23  1  0  0  0  0
 17 16  1  0  0  0  0
 18 16  2  0  0  0  0
 21 17  1  0  0  0  0
 22 17  1  0  0  0  0
M  END
