Coordinates from ORCA-job 4-NO2-Ph-N2-OTf-B3LYPG-6-31G_dp-MTMO-d009-169-n800
 OpenBabel09051908473D

 23 23  0  0  1  0  0  0  0  0999 V2000
   -1.3768   -0.3343   -5.8759 C   0  0  0  0  0  0  0  0  0  0  0  0
   -0.5109    0.8623   -6.0203 C   0  0  1  0  0  0  0  0  0  0  0  0
   -1.1763    2.0980   -5.5126 C   0  0  0  0  0  0  0  0  0  0  0  0
   -2.2980    2.0477   -4.6072 C   0  0  0  0  0  0  0  0  0  0  0  0
   -2.9246    0.8684   -4.3719 C   0  0  0  0  0  0  0  0  0  0  0  0
   -2.4568   -0.3015   -5.0673 C   0  0  0  0  0  0  0  0  0  0  0  0
   -1.0941   -1.2456   -6.3856 H   0  0  0  0  0  0  0  0  0  0  0  0
   -0.1120    0.9877   -7.0263 H   0  0  0  0  0  0  0  0  0  0  0  0
   -2.6325    2.9685   -4.1415 H   0  0  0  0  0  0  0  0  0  0  0  0
   -3.7759    0.7855   -3.7115 H   0  0  0  0  0  0  0  0  0  0  0  0
   -3.2410   -1.5513   -4.9069 N   0  0  0  0  0  0  0  0  0  0  0  0
   -4.2054   -1.5084   -4.1468 O   0  0  0  0  0  0  0  0  0  0  0  0
   -2.8794   -2.5420   -5.5350 O   0  0  0  0  0  0  0  0  0  0  0  0
   -0.6739    3.2261   -5.8509 N   0  0  0  0  0  0  0  0  0  0  0  0
   -0.2197    4.2237   -6.1572 N   0  0  0  0  0  0  0  0  0  0  0  0
    2.2034    0.8051   -5.7628 S   0  0  0  0  0  0  0  0  0  0  0  0
    2.5175   -0.8955   -6.4654 C   0  0  0  0  0  0  0  0  0  0  0  0
    2.1250    1.7159   -6.9019 O   0  0  0  0  0  0  0  0  0  0  0  0
    3.1260    1.0047   -4.6622 O   0  0  0  0  0  0  0  0  0  0  0  0
    0.7332    0.5697   -5.1411 O   0  0  0  0  0  0  0  0  0  0  0  0
    1.5119   -1.2099   -7.2978 F   0  0  0  0  0  0  0  0  0  0  0  0
    3.6618   -0.8816   -7.1418 F   0  0  0  0  0  0  0  0  0  0  0  0
    2.5774   -1.7921   -5.4879 F   0  0  0  0  0  0  0  0  0  0  0  0
  1  6  2  0  0  0  0
  2  8  1  6  0  0  0
  2  1  1  0  0  0  0
  2  3  1  0  0  0  0
  2 20  1  0  0  0  0
  3  4  2  0  0  0  0
  4  5  1  0  0  0  0
  4  9  1  0  0  0  0
  5 10  1  0  0  0  0
  6 11  1  0  0  0  0
  6  5  1  0  0  0  0
  7  1  1  0  0  0  0
 11 12  2  0  0  0  0
 13 11  2  0  0  0  0
 14  3  1  0  0  0  0
 15 14  1  0  0  0  0
 16 20  1  0  0  0  0
 16 19  2  0  0  0  0
 17 16  1  0  0  0  0
 17 23  1  0  0  0  0
 18 16  2  0  0  0  0
 21 17  1  0  0  0  0
 22 17  1  0  0  0  0
M  RAD  3   5   2  14   2  15   3
M  END
