Coordinates from ORCA-job 4-NO2-Ph-N2-OTf-B3LYPG-6-31G_dp-MTMO-d009-169-n800
 OpenBabel09051908473D

 23 22  0  0  0  0  0  0  0  0999 V2000
   -1.9691   -0.3939   -6.3060 C   0  0  0  0  0  0  0  0  0  0  0  0
   -1.0122    0.6152   -6.4152 C   0  0  0  0  0  0  0  0  0  0  0  0
   -1.0640    1.5826   -5.4304 C   0  0  0  0  0  0  0  0  0  0  0  0
   -1.9299    1.6538   -4.3505 C   0  0  0  0  0  0  0  0  0  0  0  0
   -2.8686    0.6274   -4.2650 C   0  0  0  0  0  0  0  0  0  0  0  0
   -2.8710   -0.3656   -5.2437 C   0  0  0  0  0  0  0  0  0  0  0  0
   -2.0137   -1.2006   -7.0269 H   0  0  0  0  0  0  0  0  0  0  0  0
   -0.2420    0.6495   -7.1806 H   0  0  0  0  0  0  0  0  0  0  0  0
   -1.8791    2.4479   -3.6160 H   0  0  0  0  0  0  0  0  0  0  0  0
   -3.5899    0.5886   -3.4584 H   0  0  0  0  0  0  0  0  0  0  0  0
   -3.8802   -1.4451   -5.1420 N   0  0  0  0  0  0  0  0  0  0  0  0
   -4.6493   -1.4034   -4.1861 O   0  0  0  0  0  0  0  0  0  0  0  0
   -3.8756   -2.3003   -6.0208 O   0  0  0  0  0  0  0  0  0  0  0  0
   -0.0598    2.7976   -5.5507 N   0  0  0  0  0  0  0  0  0  0  0  0
    0.2177    3.8686   -5.6703 N   0  0  0  0  0  0  0  0  0  0  0  0
    2.4964    1.2398   -6.0909 S   0  0  0  0  0  0  0  0  0  0  0  0
    2.6871   -0.6076   -6.0084 C   0  0  0  0  0  0  0  0  0  0  0  0
    1.6979    1.4627   -7.3267 O   0  0  0  0  0  0  0  0  0  0  0  0
    3.8555    1.7772   -6.0586 O   0  0  0  0  0  0  0  0  0  0  0  0
    1.6633    1.5257   -4.8576 O   0  0  0  0  0  0  0  0  0  0  0  0
    1.4717   -1.1959   -6.0423 F   0  0  0  0  0  0  0  0  0  0  0  0
    3.3948   -1.0497   -7.0516 F   0  0  0  0  0  0  0  0  0  0  0  0
    3.2990   -0.9733   -4.8792 F   0  0  0  0  0  0  0  0  0  0  0  0
  1  6  1  0  0  0  0
  2  1  2  0  0  0  0
  2  3  1  0  0  0  0
  3  4  2  0  0  0  0
  4  5  1  0  0  0  0
  4  9  1  0  0  0  0
  5 10  1  0  0  0  0
  6 11  1  0  0  0  0
  6  5  2  0  0  0  0
  7  1  1  0  0  0  0
  8  2  1  0  0  0  0
 11 12  2  0  0  0  0
 13 11  2  0  0  0  0
 14  3  1  0  0  0  0
 15 14  1  0  0  0  0
 16 19  2  0  0  0  0
 16 17  1  0  0  0  0
 16 20  1  0  0  0  0
 17 23  1  0  0  0  0
 18 16  2  0  0  0  0
 21 17  1  0  0  0  0
 22 17  1  0  0  0  0
M  RAD  3  14   2  15   3  20   2
M  END
