Coordinates from ORCA-job 4-NO2-Ph-N2-OTf-B3LYPG-6-31G_dp-MTMO-d009-169-n800
 OpenBabel09051908473D

 23 22  0  0  0  0  0  0  0  0999 V2000
   -2.4995   -1.1698   -6.1799 C   0  0  0  0  0  0  0  0  0  0  0  0
   -1.1290   -0.9388   -6.1226 C   0  0  0  0  0  0  0  0  0  0  0  0
   -0.5746   -0.4353   -4.9458 C   0  0  0  0  0  0  0  0  0  0  0  0
   -1.3505   -0.1548   -3.8210 C   0  0  0  0  0  0  0  0  0  0  0  0
   -2.7233   -0.3763   -3.8816 C   0  0  0  0  0  0  0  0  0  0  0  0
   -3.2745   -0.8817   -5.0577 C   0  0  0  0  0  0  0  0  0  0  0  0
   -2.9734   -1.5627   -7.0704 H   0  0  0  0  0  0  0  0  0  0  0  0
   -0.4871   -1.1461   -6.9710 H   0  0  0  0  0  0  0  0  0  0  0  0
   -0.8878    0.2316   -2.9213 H   0  0  0  0  0  0  0  0  0  0  0  0
   -3.3673   -0.1710   -3.0360 H   0  0  0  0  0  0  0  0  0  0  0  0
   -4.7265   -1.1224   -5.1162 N   0  0  0  0  0  0  0  0  0  0  0  0
   -5.3865   -0.8624   -4.1121 O   0  0  0  0  0  0  0  0  0  0  0  0
   -5.1858   -1.5689   -6.1661 O   0  0  0  0  0  0  0  0  0  0  0  0
    5.4588    5.1776   -8.8771 N   0  0  0  0  0  0  0  0  0  0  0  0
    4.6980    4.5071   -8.4372 N   0  0  0  0  0  0  0  0  0  0  0  0
    1.5446    1.1706   -4.7383 S   0  0  0  0  0  0  0  0  0  0  0  0
    1.8261    1.5469   -6.5509 C   0  0  0  0  0  0  0  0  0  0  0  0
    0.5977    2.1461   -4.2262 O   0  0  0  0  0  0  0  0  0  0  0  0
    2.8352    0.9077   -4.1373 O   0  0  0  0  0  0  0  0  0  0  0  0
    0.8211   -0.3098   -4.9001 O   0  0  0  0  0  0  0  0  0  0  0  0
    0.6486    1.5769   -7.1779 F   0  0  0  0  0  0  0  0  0  0  0  0
    2.4201    2.7314   -6.6446 F   0  0  0  0  0  0  0  0  0  0  0  0
    2.5947    0.6052   -7.0866 F   0  0  0  0  0  0  0  0  0  0  0  0
  1  2  2  0  0  0  0
  1  6  1  0  0  0  0
  2  3  1  0  0  0  0
  3 20  1  0  0  0  0
  3  4  2  0  0  0  0
  4  9  1  0  0  0  0
  5  4  1  0  0  0  0
  5 10  1  0  0  0  0
  6  5  2  0  0  0  0
  7  1  1  0  0  0  0
  8  2  1  0  0  0  0
 11  6  1  0  0  0  0
 11 12  2  0  0  0  0
 13 11  2  0  0  0  0
 14 15  3  0  0  0  0
 16 18  2  0  0  0  0
 16 19  2  0  0  0  0
 17 16  1  0  0  0  0
 20 16  1  0  0  0  0
 21 17  1  0  0  0  0
 22 17  1  0  0  0  0
 23 17  1  0  0  0  0
M  END
