Coordinates from ORCA-job 4-NO2-Ph-N2-OTf-B3LYPG-6-31G_dp-MTMO-d009-169-n800
 OpenBabel09051908473D

 23 22  0  0  0  0  0  0  0  0999 V2000
   -2.5373   -1.2127   -6.1594 C   0  0  0  0  0  0  0  0  0  0  0  0
   -1.1654   -0.9963   -6.0808 C   0  0  0  0  0  0  0  0  0  0  0  0
   -0.6239   -0.4987   -4.8955 C   0  0  0  0  0  0  0  0  0  0  0  0
   -1.4138   -0.2117   -3.7820 C   0  0  0  0  0  0  0  0  0  0  0  0
   -2.7878   -0.4186   -3.8641 C   0  0  0  0  0  0  0  0  0  0  0  0
   -3.3263   -0.9169   -5.0490 C   0  0  0  0  0  0  0  0  0  0  0  0
   -3.0015   -1.5999   -7.0574 H   0  0  0  0  0  0  0  0  0  0  0  0
   -0.5126   -1.2103   -6.9191 H   0  0  0  0  0  0  0  0  0  0  0  0
   -0.9608    0.1691   -2.8751 H   0  0  0  0  0  0  0  0  0  0  0  0
   -3.4424   -0.2075   -3.0282 H   0  0  0  0  0  0  0  0  0  0  0  0
   -4.7798   -1.1417   -5.1302 N   0  0  0  0  0  0  0  0  0  0  0  0
   -5.4522   -0.8757   -4.1359 O   0  0  0  0  0  0  0  0  0  0  0  0
   -5.2277   -1.5818   -6.1876 O   0  0  0  0  0  0  0  0  0  0  0  0
    6.0568    5.6918   -9.3333 N   0  0  0  0  0  0  0  0  0  0  0  0
    5.2665    5.0456   -8.9097 N   0  0  0  0  0  0  0  0  0  0  0  0
    1.5069    1.0846   -4.6528 S   0  0  0  0  0  0  0  0  0  0  0  0
    1.7411    1.5035   -6.4619 C   0  0  0  0  0  0  0  0  0  0  0  0
    0.5802    2.0534   -4.0932 O   0  0  0  0  0  0  0  0  0  0  0  0
    2.8104    0.7991   -4.0918 O   0  0  0  0  0  0  0  0  0  0  0  0
    0.7722   -0.3874   -4.8299 O   0  0  0  0  0  0  0  0  0  0  0  0
    0.5471    1.5643   -7.0542 F   0  0  0  0  0  0  0  0  0  0  0  0
    2.3476    2.6824   -6.5431 F   0  0  0  0  0  0  0  0  0  0  0  0
    2.4819    0.5665   -7.0439 F   0  0  0  0  0  0  0  0  0  0  0  0
  1  2  2  0  0  0  0
  1  6  1  0  0  0  0
  2  3  1  0  0  0  0
  3 20  1  0  0  0  0
  3  4  2  0  0  0  0
  4  9  1  0  0  0  0
  5  4  1  0  0  0  0
  5 10  1  0  0  0  0
  6  5  2  0  0  0  0
  7  1  1  0  0  0  0
  8  2  1  0  0  0  0
 11  6  1  0  0  0  0
 11 12  2  0  0  0  0
 13 11  2  0  0  0  0
 14 15  3  0  0  0  0
 16 18  2  0  0  0  0
 16 19  2  0  0  0  0
 17 16  1  0  0  0  0
 20 16  1  0  0  0  0
 21 17  1  0  0  0  0
 22 17  1  0  0  0  0
 23 17  1  0  0  0  0
M  END
