Coordinates from ORCA-job 4-NO2-Ph-N2-OTf-B3LYPG-6-31G_dp-MTMO-d009-169-n800
 OpenBabel09051908473D

 23 22  0  0  0  0  0  0  0  0999 V2000
   -1.9664   -1.7143   -5.7835 C   0  0  0  0  0  0  0  0  0  0  0  0
   -0.6689   -1.2912   -5.5145 C   0  0  0  0  0  0  0  0  0  0  0  0
   -0.4739   -0.0717   -4.8661 C   0  0  0  0  0  0  0  0  0  0  0  0
   -1.5391    0.7392   -4.4741 C   0  0  0  0  0  0  0  0  0  0  0  0
   -2.8371    0.3207   -4.7524 C   0  0  0  0  0  0  0  0  0  0  0  0
   -3.0294   -0.8984   -5.3997 C   0  0  0  0  0  0  0  0  0  0  0  0
   -2.1668   -2.6544   -6.2810 H   0  0  0  0  0  0  0  0  0  0  0  0
    0.1887   -1.8915   -5.7947 H   0  0  0  0  0  0  0  0  0  0  0  0
   -1.3530    1.6781   -3.9680 H   0  0  0  0  0  0  0  0  0  0  0  0
   -3.6960    0.9163   -4.4715 H   0  0  0  0  0  0  0  0  0  0  0  0
   -4.4046   -1.3422   -5.6865 N   0  0  0  0  0  0  0  0  0  0  0  0
   -5.3237   -0.6042   -5.3369 O   0  0  0  0  0  0  0  0  0  0  0  0
   -4.5445   -2.4224   -6.2572 O   0  0  0  0  0  0  0  0  0  0  0  0
    2.3134    5.4749   -5.7246 N   0  0  0  0  0  0  0  0  0  0  0  0
    2.8244    4.7554   -6.3895 N   0  0  0  0  0  0  0  0  0  0  0  0
    1.5768    1.5939   -5.1908 S   0  0  0  0  0  0  0  0  0  0  0  0
    2.3463    0.7814   -6.6910 C   0  0  0  0  0  0  0  0  0  0  0  0
    0.5809    2.5394   -5.6655 O   0  0  0  0  0  0  0  0  0  0  0  0
    2.6441    1.9408   -4.2766 O   0  0  0  0  0  0  0  0  0  0  0  0
    0.8449    0.2666   -4.5305 O   0  0  0  0  0  0  0  0  0  0  0  0
    1.3763    0.2904   -7.4646 F   0  0  0  0  0  0  0  0  0  0  0  0
    3.0377    1.6977   -7.3582 F   0  0  0  0  0  0  0  0  0  0  0  0
    3.1488   -0.2035   -6.3007 F   0  0  0  0  0  0  0  0  0  0  0  0
  1  2  2  0  0  0  0
  1  6  1  0  0  0  0
  2  3  1  0  0  0  0
  3 20  1  0  0  0  0
  3  4  2  0  0  0  0
  4  9  1  0  0  0  0
  5  4  1  0  0  0  0
  5 10  1  0  0  0  0
  6  5  2  0  0  0  0
  7  1  1  0  0  0  0
  8  2  1  0  0  0  0
 11  6  1  0  0  0  0
 11 12  2  0  0  0  0
 13 11  2  0  0  0  0
 15 14  3  0  0  0  0
 16 20  1  0  0  0  0
 16 19  2  0  0  0  0
 17 23  1  0  0  0  0
 17 16  1  0  0  0  0
 18 16  2  0  0  0  0
 21 17  1  0  0  0  0
 22 17  1  0  0  0  0
M  END
