Coordinates from ORCA-job 4-NO2-Ph-N2-OTf-B3LYPG-6-31G_dp-MTMO-d009-169-n800
 OpenBabel09051908473D

 23 22  0  0  0  0  0  0  0  0999 V2000
   -1.9814   -1.5945   -5.5691 C   0  0  0  0  0  0  0  0  0  0  0  0
   -0.6401   -1.2909   -5.3602 C   0  0  0  0  0  0  0  0  0  0  0  0
   -0.2902    0.0049   -4.9814 C   0  0  0  0  0  0  0  0  0  0  0  0
   -1.2408    1.0100   -4.8030 C   0  0  0  0  0  0  0  0  0  0  0  0
   -2.5818    0.7080   -5.0217 C   0  0  0  0  0  0  0  0  0  0  0  0
   -2.9300   -0.5877   -5.3984 C   0  0  0  0  0  0  0  0  0  0  0  0
   -2.3017   -2.5862   -5.8617 H   0  0  0  0  0  0  0  0  0  0  0  0
    0.1326   -2.0409   -5.4830 H   0  0  0  0  0  0  0  0  0  0  0  0
   -0.9360    2.0056   -4.5047 H   0  0  0  0  0  0  0  0  0  0  0  0
   -3.3567    1.4538   -4.8987 H   0  0  0  0  0  0  0  0  0  0  0  0
   -4.3508   -0.9059   -5.6213 N   0  0  0  0  0  0  0  0  0  0  0  0
   -5.1674   -0.0006   -5.4625 O   0  0  0  0  0  0  0  0  0  0  0  0
   -4.6290   -2.0573   -5.9519 O   0  0  0  0  0  0  0  0  0  0  0  0
    0.1212    5.0035   -4.6700 N   0  0  0  0  0  0  0  0  0  0  0  0
    0.7362    5.8153   -5.0988 N   0  0  0  0  0  0  0  0  0  0  0  0
    1.9640    1.2956   -5.5851 S   0  0  0  0  0  0  0  0  0  0  0  0
    2.6600    0.0823   -6.8292 C   0  0  0  0  0  0  0  0  0  0  0  0
    1.1065    2.2208   -6.3059 O   0  0  0  0  0  0  0  0  0  0  0  0
    3.0475    1.7121   -4.7200 O   0  0  0  0  0  0  0  0  0  0  0  0
    1.0610    0.2411   -4.6872 O   0  0  0  0  0  0  0  0  0  0  0  0
    1.6536   -0.4855   -7.4966 F   0  0  0  0  0  0  0  0  0  0  0  0
    3.4416    0.7493   -7.6715 F   0  0  0  0  0  0  0  0  0  0  0  0
    3.3609   -0.8516   -6.1960 F   0  0  0  0  0  0  0  0  0  0  0  0
  1  6  2  0  0  0  0
  1  2  1  0  0  0  0
  2  3  2  0  0  0  0
  3  4  1  0  0  0  0
  3 20  1  0  0  0  0
  4  9  1  0  0  0  0
  5 10  1  0  0  0  0
  5  4  2  0  0  0  0
  6  5  1  0  0  0  0
  7  1  1  0  0  0  0
  8  2  1  0  0  0  0
 11 12  2  0  0  0  0
 11  6  1  0  0  0  0
 13 11  2  0  0  0  0
 15 14  3  0  0  0  0
 16 19  2  0  0  0  0
 16 20  1  0  0  0  0
 17 23  1  0  0  0  0
 17 16  1  0  0  0  0
 18 16  2  0  0  0  0
 21 17  1  0  0  0  0
 22 17  1  0  0  0  0
M  END
