Coordinates from ORCA-job 4-NO2-Ph-N2-OTf-B3LYPG-6-31G_dp-MTMO-d009-169-n800
 OpenBabel09051908473D

 23 22  0  0  0  0  0  0  0  0999 V2000
   -2.5234   -1.2028   -6.1629 C   0  0  0  0  0  0  0  0  0  0  0  0
   -1.1516   -0.9835   -6.0923 C   0  0  0  0  0  0  0  0  0  0  0  0
   -0.6054   -0.4773   -4.9128 C   0  0  0  0  0  0  0  0  0  0  0  0
   -1.3905   -0.1840   -3.7976 C   0  0  0  0  0  0  0  0  0  0  0  0
   -2.7645   -0.3939   -3.8717 C   0  0  0  0  0  0  0  0  0  0  0  0
   -3.3077   -0.9012   -5.0507 C   0  0  0  0  0  0  0  0  0  0  0  0
   -2.9912   -1.5968   -7.0561 H   0  0  0  0  0  0  0  0  0  0  0  0
   -0.5024   -1.2018   -6.9323 H   0  0  0  0  0  0  0  0  0  0  0  0
   -0.9340    0.2037   -2.8954 H   0  0  0  0  0  0  0  0  0  0  0  0
   -3.4156   -0.1782   -3.0342 H   0  0  0  0  0  0  0  0  0  0  0  0
   -4.7611   -1.1293   -5.1234 N   0  0  0  0  0  0  0  0  0  0  0  0
   -5.4292   -0.8581   -4.1277 O   0  0  0  0  0  0  0  0  0  0  0  0
   -5.2133   -1.5769   -6.1758 O   0  0  0  0  0  0  0  0  0  0  0  0
    5.8354    5.5295   -9.1446 N   0  0  0  0  0  0  0  0  0  0  0  0
    5.0552    4.8738   -8.7169 N   0  0  0  0  0  0  0  0  0  0  0  0
    1.5244    1.1109   -4.6905 S   0  0  0  0  0  0  0  0  0  0  0  0
    1.7709    1.5062   -6.5035 C   0  0  0  0  0  0  0  0  0  0  0  0
    0.5937    2.0862   -4.1494 O   0  0  0  0  0  0  0  0  0  0  0  0
    2.8245    0.8335   -4.1175 O   0  0  0  0  0  0  0  0  0  0  0  0
    0.7908   -0.3635   -4.8540 O   0  0  0  0  0  0  0  0  0  0  0  0
    0.5809    1.5550   -7.1052 F   0  0  0  0  0  0  0  0  0  0  0  0
    2.3741    2.6859   -6.5963 F   0  0  0  0  0  0  0  0  0  0  0  0
    2.5189    0.5638   -7.0670 F   0  0  0  0  0  0  0  0  0  0  0  0
  1  2  2  0  0  0  0
  1  6  1  0  0  0  0
  2  3  1  0  0  0  0
  3 20  1  0  0  0  0
  3  4  2  0  0  0  0
  4  9  1  0  0  0  0
  5  4  1  0  0  0  0
  5 10  1  0  0  0  0
  6  5  2  0  0  0  0
  7  1  1  0  0  0  0
  8  2  1  0  0  0  0
 11  6  1  0  0  0  0
 11 12  2  0  0  0  0
 13 11  2  0  0  0  0
 14 15  3  0  0  0  0
 16 18  2  0  0  0  0
 16 19  2  0  0  0  0
 17 16  1  0  0  0  0
 20 16  1  0  0  0  0
 21 17  1  0  0  0  0
 22 17  1  0  0  0  0
 23 17  1  0  0  0  0
M  END
