Coordinates from ORCA-job 4-NO2-Ph-N2-OTf-B3LYPG-6-31G_dp-MTMO-d009-169-n800
 OpenBabel09051908473D

 23 22  0  0  0  0  0  0  0  0999 V2000
   -1.9690   -1.5625   -5.5219 C   0  0  0  0  0  0  0  0  0  0  0  0
   -0.6308   -1.2351   -5.3291 C   0  0  0  0  0  0  0  0  0  0  0  0
   -0.2942    0.0809   -5.0135 C   0  0  0  0  0  0  0  0  0  0  0  0
   -1.2547    1.0838   -4.8825 C   0  0  0  0  0  0  0  0  0  0  0  0
   -2.5928    0.7571   -5.0838 C   0  0  0  0  0  0  0  0  0  0  0  0
   -2.9278   -0.5585   -5.3979 C   0  0  0  0  0  0  0  0  0  0  0  0
   -2.2790   -2.5703   -5.7667 H   0  0  0  0  0  0  0  0  0  0  0  0
    0.1495   -1.9822   -5.4164 H   0  0  0  0  0  0  0  0  0  0  0  0
   -0.9605    2.0953   -4.6303 H   0  0  0  0  0  0  0  0  0  0  0  0
   -3.3755    1.4996   -4.9951 H   0  0  0  0  0  0  0  0  0  0  0  0
   -4.3454   -0.9020   -5.6029 N   0  0  0  0  0  0  0  0  0  0  0  0
   -5.1715    0.0008   -5.4842 O   0  0  0  0  0  0  0  0  0  0  0  0
   -4.6118   -2.0703   -5.8794 O   0  0  0  0  0  0  0  0  0  0  0  0
    0.1122    4.6998   -4.5034 N   0  0  0  0  0  0  0  0  0  0  0  0
    0.6552    5.6292   -4.7530 N   0  0  0  0  0  0  0  0  0  0  0  0
    1.9533    1.3357   -5.7039 S   0  0  0  0  0  0  0  0  0  0  0  0
    2.6887    0.0319   -6.8272 C   0  0  0  0  0  0  0  0  0  0  0  0
    1.0912    2.1791   -6.5141 O   0  0  0  0  0  0  0  0  0  0  0  0
    3.0178    1.8450   -4.8650 O   0  0  0  0  0  0  0  0  0  0  0  0
    1.0539    0.3473   -4.7307 O   0  0  0  0  0  0  0  0  0  0  0  0
    1.7034   -0.6025   -7.4660 F   0  0  0  0  0  0  0  0  0  0  0  0
    3.4808    0.6366   -7.7061 F   0  0  0  0  0  0  0  0  0  0  0  0
    3.3863   -0.8375   -6.1047 F   0  0  0  0  0  0  0  0  0  0  0  0
  1  6  2  0  0  0  0
  1  2  1  0  0  0  0
  2  3  2  0  0  0  0
  3  4  1  0  0  0  0
  3 20  1  0  0  0  0
  4  9  1  0  0  0  0
  5 10  1  0  0  0  0
  5  4  2  0  0  0  0
  6  5  1  0  0  0  0
  7  1  1  0  0  0  0
  8  2  1  0  0  0  0
 11 12  2  0  0  0  0
 11  6  1  0  0  0  0
 13 11  2  0  0  0  0
 15 14  3  0  0  0  0
 16 19  2  0  0  0  0
 16 20  1  0  0  0  0
 17 23  1  0  0  0  0
 17 16  1  0  0  0  0
 18 16  2  0  0  0  0
 21 17  1  0  0  0  0
 22 17  1  0  0  0  0
M  END
