Coordinates from ORCA-job 4-NO2-Ph-N2-OTf-B3LYPG-6-31G_dp-MTMO-d009-169-n800
 OpenBabel09051908473D

 23 22  0  0  0  0  0  0  0  0999 V2000
   -2.6766   -1.3020   -6.0987 C   0  0  0  0  0  0  0  0  0  0  0  0
   -1.3054   -1.0871   -6.0063 C   0  0  0  0  0  0  0  0  0  0  0  0
   -0.7708   -0.6242   -4.8040 C   0  0  0  0  0  0  0  0  0  0  0  0
   -1.5668   -0.3713   -3.6866 C   0  0  0  0  0  0  0  0  0  0  0  0
   -2.9401   -0.5765   -3.7822 C   0  0  0  0  0  0  0  0  0  0  0  0
   -3.4719   -1.0396   -4.9844 C   0  0  0  0  0  0  0  0  0  0  0  0
   -3.1357   -1.6629   -7.0102 H   0  0  0  0  0  0  0  0  0  0  0  0
   -0.6480   -1.2762   -6.8470 H   0  0  0  0  0  0  0  0  0  0  0  0
   -1.1191   -0.0175   -2.7663 H   0  0  0  0  0  0  0  0  0  0  0  0
   -3.5994   -0.3909   -2.9439 H   0  0  0  0  0  0  0  0  0  0  0  0
   -4.9248   -1.2627   -5.0801 N   0  0  0  0  0  0  0  0  0  0  0  0
   -5.6030   -1.0248   -4.0827 O   0  0  0  0  0  0  0  0  0  0  0  0
   -5.3664   -1.6731   -6.1520 O   0  0  0  0  0  0  0  0  0  0  0  0
    7.6271    6.8829  -10.3932 N   0  0  0  0  0  0  0  0  0  0  0  0
    6.8098    6.2407  -10.0174 N   0  0  0  0  0  0  0  0  0  0  0  0
    1.3570    0.9535   -4.5026 S   0  0  0  0  0  0  0  0  0  0  0  0
    1.5865    1.4363   -6.2962 C   0  0  0  0  0  0  0  0  0  0  0  0
    0.4298    1.9008   -3.9082 O   0  0  0  0  0  0  0  0  0  0  0  0
    2.6622    0.6513   -3.9548 O   0  0  0  0  0  0  0  0  0  0  0  0
    0.6250   -0.5132   -4.7280 O   0  0  0  0  0  0  0  0  0  0  0  0
    0.3912    1.5163   -6.8836 F   0  0  0  0  0  0  0  0  0  0  0  0
    2.1905    2.6188   -6.3364 F   0  0  0  0  0  0  0  0  0  0  0  0
    2.3279    0.5225   -6.9130 F   0  0  0  0  0  0  0  0  0  0  0  0
  1  2  2  0  0  0  0
  1  6  1  0  0  0  0
  2  3  1  0  0  0  0
  3 20  1  0  0  0  0
  3  4  2  0  0  0  0
  4  9  1  0  0  0  0
  5  4  1  0  0  0  0
  5 10  1  0  0  0  0
  6  5  2  0  0  0  0
  7  1  1  0  0  0  0
  8  2  1  0  0  0  0
 11  6  1  0  0  0  0
 11 12  2  0  0  0  0
 13 11  2  0  0  0  0
 14 15  3  0  0  0  0
 16 19  2  0  0  0  0
 16 18  2  0  0  0  0
 17 16  1  0  0  0  0
 20 16  1  0  0  0  0
 21 17  1  0  0  0  0
 22 17  1  0  0  0  0
 23 17  1  0  0  0  0
M  END
