Coordinates from ORCA-job 4-NO2-Ph-N2-OTf-B3LYPG-6-31G_dp-MTMO-d009-169-n800
 OpenBabel09051908473D

 23 22  0  0  0  0  0  0  0  0999 V2000
   -2.6321   -1.2681   -6.1241 C   0  0  0  0  0  0  0  0  0  0  0  0
   -1.2608   -1.0539   -6.0314 C   0  0  0  0  0  0  0  0  0  0  0  0
   -0.7266   -0.5887   -4.8298 C   0  0  0  0  0  0  0  0  0  0  0  0
   -1.5230   -0.3330   -3.7133 C   0  0  0  0  0  0  0  0  0  0  0  0
   -2.8964   -0.5377   -3.8093 C   0  0  0  0  0  0  0  0  0  0  0  0
   -3.4278   -1.0030   -5.0108 C   0  0  0  0  0  0  0  0  0  0  0  0
   -3.0908   -1.6308   -7.0351 H   0  0  0  0  0  0  0  0  0  0  0  0
   -0.6030   -1.2450   -6.8714 H   0  0  0  0  0  0  0  0  0  0  0  0
   -1.0756    0.0225   -2.7935 H   0  0  0  0  0  0  0  0  0  0  0  0
   -3.5560   -0.3499   -2.9718 H   0  0  0  0  0  0  0  0  0  0  0  0
   -4.8808   -1.2255   -5.1068 N   0  0  0  0  0  0  0  0  0  0  0  0
   -5.5594   -0.9852   -4.1102 O   0  0  0  0  0  0  0  0  0  0  0  0
   -5.3221   -1.6378   -6.1781 O   0  0  0  0  0  0  0  0  0  0  0  0
    7.1537    6.5152  -10.1162 N   0  0  0  0  0  0  0  0  0  0  0  0
    6.3417    5.8750   -9.7257 N   0  0  0  0  0  0  0  0  0  0  0  0
    1.4019    0.9886   -4.5306 S   0  0  0  0  0  0  0  0  0  0  0  0
    1.6336    1.4666   -6.3252 C   0  0  0  0  0  0  0  0  0  0  0  0
    0.4746    1.9378   -3.9396 O   0  0  0  0  0  0  0  0  0  0  0  0
    2.7063    0.6869   -3.9807 O   0  0  0  0  0  0  0  0  0  0  0  0
    0.6692   -0.4783   -4.7533 O   0  0  0  0  0  0  0  0  0  0  0  0
    0.4390    1.5456   -6.9142 F   0  0  0  0  0  0  0  0  0  0  0  0
    2.2382    2.6488   -6.3678 F   0  0  0  0  0  0  0  0  0  0  0  0
    2.3753    0.5509   -6.9388 F   0  0  0  0  0  0  0  0  0  0  0  0
  1  2  2  0  0  0  0
  1  6  1  0  0  0  0
  2  3  1  0  0  0  0
  3 20  1  0  0  0  0
  3  4  2  0  0  0  0
  4  9  1  0  0  0  0
  5  4  1  0  0  0  0
  5 10  1  0  0  0  0
  6  5  2  0  0  0  0
  7  1  1  0  0  0  0
  8  2  1  0  0  0  0
 11  6  1  0  0  0  0
 11 12  2  0  0  0  0
 13 11  2  0  0  0  0
 14 15  3  0  0  0  0
 16 19  2  0  0  0  0
 16 18  2  0  0  0  0
 17 16  1  0  0  0  0
 20 16  1  0  0  0  0
 21 17  1  0  0  0  0
 22 17  1  0  0  0  0
 23 17  1  0  0  0  0
M  END
