Coordinates from ORCA-job 4-NO2-Ph-N2-OTf-B3LYPG-6-31G_dp-MTMO-d009-169-n800
 OpenBabel09051908473D

 23 22  0  0  0  0  0  0  0  0999 V2000
   -2.0773   -0.3996   -6.3570 C   0  0  0  0  0  0  0  0  0  0  0  0
   -0.7431   -0.0127   -6.3044 C   0  0  0  0  0  0  0  0  0  0  0  0
   -0.2940    0.7067   -5.1888 C   0  0  0  0  0  0  0  0  0  0  0  0
   -1.1114    0.8779   -4.0619 C   0  0  0  0  0  0  0  0  0  0  0  0
   -2.4387    0.4809   -4.1137 C   0  0  0  0  0  0  0  0  0  0  0  0
   -2.9127   -0.1342   -5.2733 C   0  0  0  0  0  0  0  0  0  0  0  0
   -2.4751   -0.9217   -7.2182 H   0  0  0  0  0  0  0  0  0  0  0  0
   -0.0822   -0.2175   -7.1350 H   0  0  0  0  0  0  0  0  0  0  0  0
   -0.6990    1.3576   -3.1819 H   0  0  0  0  0  0  0  0  0  0  0  0
   -3.1076    0.6294   -3.2755 H   0  0  0  0  0  0  0  0  0  0  0  0
   -4.3195   -0.5523   -5.3355 N   0  0  0  0  0  0  0  0  0  0  0  0
   -5.0240   -0.3226   -4.3533 O   0  0  0  0  0  0  0  0  0  0  0  0
   -4.7037   -1.1057   -6.3649 O   0  0  0  0  0  0  0  0  0  0  0  0
   -0.5970    2.6992   -5.9703 N   0  0  0  0  0  0  0  0  0  0  0  0
   -1.5033    3.2292   -6.3260 N   0  0  0  0  0  0  0  0  0  0  0  0
    2.2081    1.3155   -6.0656 S   0  0  0  0  0  0  0  0  0  0  0  0
    3.0940   -0.3289   -5.9694 C   0  0  0  0  0  0  0  0  0  0  0  0
    1.6447    1.4265   -7.4010 O   0  0  0  0  0  0  0  0  0  0  0  0
    3.0703    2.3183   -5.4769 O   0  0  0  0  0  0  0  0  0  0  0  0
    1.0539    0.9843   -4.9341 O   0  0  0  0  0  0  0  0  0  0  0  0
    2.2469   -1.3001   -6.3143 F   0  0  0  0  0  0  0  0  0  0  0  0
    4.1138   -0.2966   -6.8220 F   0  0  0  0  0  0  0  0  0  0  0  0
    3.5362   -0.5325   -4.7350 F   0  0  0  0  0  0  0  0  0  0  0  0
  1  2  2  0  0  0  0
  1  6  1  0  0  0  0
  2  3  1  0  0  0  0
  3 20  1  0  0  0  0
  3  4  2  0  0  0  0
  4  9  1  0  0  0  0
  5  4  1  0  0  0  0
  5 10  1  0  0  0  0
  6  5  2  0  0  0  0
  7  1  1  0  0  0  0
  8  2  1  0  0  0  0
 11  6  1  0  0  0  0
 11 12  2  0  0  0  0
 13 11  2  0  0  0  0
 15 14  3  0  0  0  0
 16 17  1  0  0  0  0
 16 19  2  0  0  0  0
 16 20  1  0  0  0  0
 17 23  1  0  0  0  0
 18 16  2  0  0  0  0
 21 17  1  0  0  0  0
 22 17  1  0  0  0  0
M  END
