Coordinates from ORCA-job 4-NO2-Ph-N2-OTf-B3LYPG-6-31G_dp-MTMO-d009-169-n800
 OpenBabel09051908473D

 23 22  0  0  0  0  0  0  0  0999 V2000
   -1.9852   -1.6343   -5.6302 C   0  0  0  0  0  0  0  0  0  0  0  0
   -0.6478   -1.3296   -5.3991 C   0  0  0  0  0  0  0  0  0  0  0  0
   -0.3127   -0.0555   -4.9414 C   0  0  0  0  0  0  0  0  0  0  0  0
   -1.2748    0.9266   -4.7057 C   0  0  0  0  0  0  0  0  0  0  0  0
   -2.6119    0.6245   -4.9468 C   0  0  0  0  0  0  0  0  0  0  0  0
   -2.9451   -0.6497   -5.4021 C   0  0  0  0  0  0  0  0  0  0  0  0
   -2.2941   -2.6100   -5.9825 H   0  0  0  0  0  0  0  0  0  0  0  0
    0.1335   -2.0626   -5.5639 H   0  0  0  0  0  0  0  0  0  0  0  0
   -0.9808    1.9051   -4.3473 H   0  0  0  0  0  0  0  0  0  0  0  0
   -3.3950    1.3532   -4.7814 H   0  0  0  0  0  0  0  0  0  0  0  0
   -4.3619   -0.9690   -5.6483 N   0  0  0  0  0  0  0  0  0  0  0  0
   -5.1883   -0.0832   -5.4389 O   0  0  0  0  0  0  0  0  0  0  0  0
   -4.6268   -2.1016   -6.0475 O   0  0  0  0  0  0  0  0  0  0  0  0
    0.3742    5.3262   -4.8906 N   0  0  0  0  0  0  0  0  0  0  0  0
    1.1092    5.8160   -5.5548 N   0  0  0  0  0  0  0  0  0  0  0  0
    1.9296    1.2998   -5.4461 S   0  0  0  0  0  0  0  0  0  0  0  0
    2.5928    0.2012   -6.8087 C   0  0  0  0  0  0  0  0  0  0  0  0
    1.0664    2.2922   -6.0638 O   0  0  0  0  0  0  0  0  0  0  0  0
    3.0303    1.6288   -4.5656 O   0  0  0  0  0  0  0  0  0  0  0  0
    1.0356    0.1740   -4.6297 O   0  0  0  0  0  0  0  0  0  0  0  0
    1.5714   -0.2673   -7.5275 F   0  0  0  0  0  0  0  0  0  0  0  0
    3.3936    0.9283   -7.5803 F   0  0  0  0  0  0  0  0  0  0  0  0
    3.2670   -0.8119   -6.2756 F   0  0  0  0  0  0  0  0  0  0  0  0
  1  6  2  0  0  0  0
  1  2  1  0  0  0  0
  2  3  2  0  0  0  0
  3  4  1  0  0  0  0
  3 20  1  0  0  0  0
  4  9  1  0  0  0  0
  5 10  1  0  0  0  0
  5  4  2  0  0  0  0
  6  5  1  0  0  0  0
  7  1  1  0  0  0  0
  8  2  1  0  0  0  0
 11 12  2  0  0  0  0
 11  6  1  0  0  0  0
 13 11  2  0  0  0  0
 15 14  3  0  0  0  0
 16 20  1  0  0  0  0
 16 19  2  0  0  0  0
 17 23  1  0  0  0  0
 17 16  1  0  0  0  0
 18 16  2  0  0  0  0
 21 17  1  0  0  0  0
 22 17  1  0  0  0  0
M  END
