Coordinates from ORCA-job 4-NO2-Ph-N2-OTf-B3LYPG-6-31G_dp-MTMO-d009-169-n800
 OpenBabel09051908483D

 23 22  0  0  0  0  0  0  0  0999 V2000
   -2.9271   -1.5016   -5.9442 C   0  0  0  0  0  0  0  0  0  0  0  0
   -1.5564   -1.2772   -5.8673 C   0  0  0  0  0  0  0  0  0  0  0  0
   -1.0115   -0.8108   -4.6709 C   0  0  0  0  0  0  0  0  0  0  0  0
   -1.7966   -0.5634   -3.5446 C   0  0  0  0  0  0  0  0  0  0  0  0
   -3.1695   -0.7781   -3.6248 C   0  0  0  0  0  0  0  0  0  0  0  0
   -3.7115   -1.2449   -4.8209 C   0  0  0  0  0  0  0  0  0  0  0  0
   -3.3938   -1.8658   -6.8505 H   0  0  0  0  0  0  0  0  0  0  0  0
   -0.9073   -1.4616   -6.7154 H   0  0  0  0  0  0  0  0  0  0  0  0
   -1.3411   -0.2066   -2.6293 H   0  0  0  0  0  0  0  0  0  0  0  0
   -3.8205   -0.5971   -2.7791 H   0  0  0  0  0  0  0  0  0  0  0  0
   -5.1638   -1.4783   -4.9003 N   0  0  0  0  0  0  0  0  0  0  0  0
   -5.8324   -1.2449   -3.8953 O   0  0  0  0  0  0  0  0  0  0  0  0
   -5.6145   -1.8921   -5.9670 O   0  0  0  0  0  0  0  0  0  0  0  0
   10.2137    8.8819  -11.8556 N   0  0  0  0  0  0  0  0  0  0  0  0
    9.4009    8.2387  -11.4718 N   0  0  0  0  0  0  0  0  0  0  0  0
    1.1095    0.7803   -4.3915 S   0  0  0  0  0  0  0  0  0  0  0  0
    1.3191    1.2639   -6.1872 C   0  0  0  0  0  0  0  0  0  0  0  0
    0.1822    1.7220   -3.7885 O   0  0  0  0  0  0  0  0  0  0  0  0
    2.4216    0.4863   -3.8557 O   0  0  0  0  0  0  0  0  0  0  0  0
    0.3843   -0.6908   -4.6105 O   0  0  0  0  0  0  0  0  0  0  0  0
    0.1180    1.3349   -6.7638 F   0  0  0  0  0  0  0  0  0  0  0  0
    1.9141    2.4509   -6.2335 F   0  0  0  0  0  0  0  0  0  0  0  0
    2.0617    0.3555   -6.8104 F   0  0  0  0  0  0  0  0  0  0  0  0
  1  2  2  0  0  0  0
  1  6  1  0  0  0  0
  2  3  1  0  0  0  0
  3 20  1  0  0  0  0
  3  4  2  0  0  0  0
  4  9  1  0  0  0  0
  5  4  1  0  0  0  0
  5 10  1  0  0  0  0
  6  5  2  0  0  0  0
  7  1  1  0  0  0  0
  8  2  1  0  0  0  0
 11  6  1  0  0  0  0
 11 12  2  0  0  0  0
 13 11  2  0  0  0  0
 14 15  3  0  0  0  0
 16 19  2  0  0  0  0
 16 18  2  0  0  0  0
 17 16  1  0  0  0  0
 20 16  1  0  0  0  0
 21 17  1  0  0  0  0
 22 17  1  0  0  0  0
 23 17  1  0  0  0  0
M  END
