Coordinates from ORCA-job 4-NO2-Ph-N2-OTf-B3LYPG-6-31G_dp-MTMO-d009-169-n800
 OpenBabel09051908483D

 23 22  0  0  0  0  0  0  0  0999 V2000
   -2.7590   -1.3673   -6.0486 C   0  0  0  0  0  0  0  0  0  0  0  0
   -1.3879   -1.1505   -5.9596 C   0  0  0  0  0  0  0  0  0  0  0  0
   -0.8509   -0.6873   -4.7584 C   0  0  0  0  0  0  0  0  0  0  0  0
   -1.6445   -0.4359   -3.6389 C   0  0  0  0  0  0  0  0  0  0  0  0
   -3.0178   -0.6431   -3.7312 C   0  0  0  0  0  0  0  0  0  0  0  0
   -3.5519   -1.1065   -4.9322 C   0  0  0  0  0  0  0  0  0  0  0  0
   -3.2198   -1.7286   -6.9591 H   0  0  0  0  0  0  0  0  0  0  0  0
   -0.7323   -1.3383   -6.8020 H   0  0  0  0  0  0  0  0  0  0  0  0
   -1.1950   -0.0818   -2.7196 H   0  0  0  0  0  0  0  0  0  0  0  0
   -3.6752   -0.4587   -2.8912 H   0  0  0  0  0  0  0  0  0  0  0  0
   -5.0047   -1.3316   -5.0244 N   0  0  0  0  0  0  0  0  0  0  0  0
   -5.6808   -1.0951   -4.0252 O   0  0  0  0  0  0  0  0  0  0  0  0
   -5.4484   -1.7424   -6.0953 O   0  0  0  0  0  0  0  0  0  0  0  0
    8.4861    7.5501  -10.8834 N   0  0  0  0  0  0  0  0  0  0  0  0
    7.6650    6.9093  -10.5136 N   0  0  0  0  0  0  0  0  0  0  0  0
    1.2755    0.8931   -4.4615 S   0  0  0  0  0  0  0  0  0  0  0  0
    1.4995    1.3772   -6.2554 C   0  0  0  0  0  0  0  0  0  0  0  0
    0.3487    1.8389   -3.8641 O   0  0  0  0  0  0  0  0  0  0  0  0
    2.5826    0.5923   -3.9174 O   0  0  0  0  0  0  0  0  0  0  0  0
    0.5449   -0.5744   -4.6858 O   0  0  0  0  0  0  0  0  0  0  0  0
    0.3025    1.4563   -6.8395 F   0  0  0  0  0  0  0  0  0  0  0  0
    2.1021    2.5605   -6.2965 F   0  0  0  0  0  0  0  0  0  0  0  0
    2.2403    0.4648   -6.8748 F   0  0  0  0  0  0  0  0  0  0  0  0
  1  2  2  0  0  0  0
  1  6  1  0  0  0  0
  2  3  1  0  0  0  0
  3 20  1  0  0  0  0
  3  4  2  0  0  0  0
  4  9  1  0  0  0  0
  5  4  1  0  0  0  0
  5 10  1  0  0  0  0
  6  5  2  0  0  0  0
  7  1  1  0  0  0  0
  8  2  1  0  0  0  0
 11  6  1  0  0  0  0
 11 12  2  0  0  0  0
 13 11  2  0  0  0  0
 14 15  3  0  0  0  0
 16 19  2  0  0  0  0
 16 18  2  0  0  0  0
 17 16  1  0  0  0  0
 20 16  1  0  0  0  0
 21 17  1  0  0  0  0
 22 17  1  0  0  0  0
 23 17  1  0  0  0  0
M  END
