Coordinates from ORCA-job 4-NO2-Ph-N2-OTf-B3LYPG-6-31G_dp-MTMO-d009-169-n800
 OpenBabel09051908473D

 23 22  0  0  0  0  0  0  0  0999 V2000
   -2.4982   -1.1680   -6.1812 C   0  0  0  0  0  0  0  0  0  0  0  0
   -1.1277   -0.9366   -6.1239 C   0  0  0  0  0  0  0  0  0  0  0  0
   -0.5734   -0.4341   -4.9467 C   0  0  0  0  0  0  0  0  0  0  0  0
   -1.3493   -0.1549   -3.8214 C   0  0  0  0  0  0  0  0  0  0  0  0
   -2.7220   -0.3768   -3.8821 C   0  0  0  0  0  0  0  0  0  0  0  0
   -3.2731   -0.8813   -5.0586 C   0  0  0  0  0  0  0  0  0  0  0  0
   -2.9720   -1.5602   -7.0721 H   0  0  0  0  0  0  0  0  0  0  0  0
   -0.4858   -1.1428   -6.9725 H   0  0  0  0  0  0  0  0  0  0  0  0
   -0.8866    0.2307   -2.9214 H   0  0  0  0  0  0  0  0  0  0  0  0
   -3.3660   -0.1726   -3.0363 H   0  0  0  0  0  0  0  0  0  0  0  0
   -4.7250   -1.1225   -5.1173 N   0  0  0  0  0  0  0  0  0  0  0  0
   -5.3850   -0.8636   -4.1129 O   0  0  0  0  0  0  0  0  0  0  0  0
   -5.1843   -1.5682   -6.1675 O   0  0  0  0  0  0  0  0  0  0  0  0
    5.4477    5.1621   -8.8743 N   0  0  0  0  0  0  0  0  0  0  0  0
    4.6865    4.4929   -8.4331 N   0  0  0  0  0  0  0  0  0  0  0  0
    1.5452    1.1724   -4.7378 S   0  0  0  0  0  0  0  0  0  0  0  0
    1.8268    1.5505   -6.5500 C   0  0  0  0  0  0  0  0  0  0  0  0
    0.5980    2.1471   -4.2249 O   0  0  0  0  0  0  0  0  0  0  0  0
    2.8359    0.9095   -4.1369 O   0  0  0  0  0  0  0  0  0  0  0  0
    0.8222   -0.3081   -4.9010 O   0  0  0  0  0  0  0  0  0  0  0  0
    0.6494    1.5805   -7.1771 F   0  0  0  0  0  0  0  0  0  0  0  0
    2.4202    2.7354   -6.6425 F   0  0  0  0  0  0  0  0  0  0  0  0
    2.5960    0.6098   -7.0865 F   0  0  0  0  0  0  0  0  0  0  0  0
  1  2  2  0  0  0  0
  1  6  1  0  0  0  0
  2  3  1  0  0  0  0
  3 20  1  0  0  0  0
  3  4  2  0  0  0  0
  4  9  1  0  0  0  0
  5  4  1  0  0  0  0
  5 10  1  0  0  0  0
  6  5  2  0  0  0  0
  7  1  1  0  0  0  0
  8  2  1  0  0  0  0
 11  6  1  0  0  0  0
 11 12  2  0  0  0  0
 13 11  2  0  0  0  0
 14 15  3  0  0  0  0
 16 18  2  0  0  0  0
 16 19  2  0  0  0  0
 17 16  1  0  0  0  0
 20 16  1  0  0  0  0
 21 17  1  0  0  0  0
 22 17  1  0  0  0  0
 23 17  1  0  0  0  0
M  END
