Coordinates from ORCA-job 4-NO2-Ph-N2-OTf-B3LYPG-6-31G_dp-MTMO-d009-169-n800
 OpenBabel09051908473D

 23 22  0  0  0  0  0  0  0  0999 V2000
   -1.9885   -1.6684   -5.6940 C   0  0  0  0  0  0  0  0  0  0  0  0
   -0.6602   -1.3347   -5.4507 C   0  0  0  0  0  0  0  0  0  0  0  0
   -0.3638   -0.0817   -4.9147 C   0  0  0  0  0  0  0  0  0  0  0  0
   -1.3562    0.8506   -4.6121 C   0  0  0  0  0  0  0  0  0  0  0  0
   -2.6844    0.5204   -4.8648 C   0  0  0  0  0  0  0  0  0  0  0  0
   -2.9787   -0.7328   -5.3987 C   0  0  0  0  0  0  0  0  0  0  0  0
   -2.2677   -2.6297   -6.1058 H   0  0  0  0  0  0  0  0  0  0  0  0
    0.1435   -2.0294   -5.6657 H   0  0  0  0  0  0  0  0  0  0  0  0
   -1.0909    1.8128   -4.1927 H   0  0  0  0  0  0  0  0  0  0  0  0
   -3.4900    1.2105   -4.6493 H   0  0  0  0  0  0  0  0  0  0  0  0
   -4.3860   -1.0827   -5.6580 N   0  0  0  0  0  0  0  0  0  0  0  0
   -5.2394   -0.2396   -5.3885 O   0  0  0  0  0  0  0  0  0  0  0  0
   -4.6163   -2.1957   -6.1272 O   0  0  0  0  0  0  0  0  0  0  0  0
    0.9093    5.5795   -5.1177 N   0  0  0  0  0  0  0  0  0  0  0  0
    1.6903    5.6204   -5.8986 N   0  0  0  0  0  0  0  0  0  0  0  0
    1.8307    1.3652   -5.3622 S   0  0  0  0  0  0  0  0  0  0  0  0
    2.5300    0.3526   -6.7721 C   0  0  0  0  0  0  0  0  0  0  0  0
    0.9297    2.3513   -5.9344 O   0  0  0  0  0  0  0  0  0  0  0  0
    2.9212    1.6947   -4.4694 O   0  0  0  0  0  0  0  0  0  0  0  0
    0.9779    0.1738   -4.5951 O   0  0  0  0  0  0  0  0  0  0  0  0
    1.5249   -0.1185   -7.5120 F   0  0  0  0  0  0  0  0  0  0  0  0
    3.3039    1.1415   -7.5095 F   0  0  0  0  0  0  0  0  0  0  0  0
    3.2399   -0.6591   -6.2847 F   0  0  0  0  0  0  0  0  0  0  0  0
  1  2  2  0  0  0  0
  1  6  1  0  0  0  0
  2  3  1  0  0  0  0
  3  4  2  0  0  0  0
  3 20  1  0  0  0  0
  4  9  1  0  0  0  0
  5 10  1  0  0  0  0
  5  4  1  0  0  0  0
  6  5  2  0  0  0  0
  7  1  1  0  0  0  0
  8  2  1  0  0  0  0
 11  6  1  0  0  0  0
 11 12  2  0  0  0  0
 13 11  2  0  0  0  0
 15 14  3  0  0  0  0
 16 20  1  0  0  0  0
 16 19  2  0  0  0  0
 17 23  1  0  0  0  0
 17 16  1  0  0  0  0
 18 16  2  0  0  0  0
 21 17  1  0  0  0  0
 22 17  1  0  0  0  0
M  END
