Coordinates from ORCA-job 4-NO2-Ph-N2-OTf-B3LYPG-6-31G_dp-MTMO-d009-169-n800
 OpenBabel09051908473D

 23 22  0  0  0  0  0  0  0  0999 V2000
   -1.9574   -1.3911   -6.1557 C   0  0  0  0  0  0  0  0  0  0  0  0
   -0.6378   -1.1653   -5.7778 C   0  0  0  0  0  0  0  0  0  0  0  0
   -0.3743   -0.2787   -4.7338 C   0  0  0  0  0  0  0  0  0  0  0  0
   -1.3910    0.3905   -4.0528 C   0  0  0  0  0  0  0  0  0  0  0  0
   -2.7109    0.1710   -4.4363 C   0  0  0  0  0  0  0  0  0  0  0  0
   -2.9721   -0.7162   -5.4789 C   0  0  0  0  0  0  0  0  0  0  0  0
   -2.2115   -2.0713   -6.9590 H   0  0  0  0  0  0  0  0  0  0  0  0
    0.1851   -1.6657   -6.2746 H   0  0  0  0  0  0  0  0  0  0  0  0
   -1.1490    1.0692   -3.2442 H   0  0  0  0  0  0  0  0  0  0  0  0
   -3.5347    0.6674   -3.9403 H   0  0  0  0  0  0  0  0  0  0  0  0
   -4.3702   -0.9516   -5.8788 N   0  0  0  0  0  0  0  0  0  0  0  0
   -5.2460   -0.3442   -5.2658 O   0  0  0  0  0  0  0  0  0  0  0  0
   -4.5713   -1.7405   -6.8005 O   0  0  0  0  0  0  0  0  0  0  0  0
    1.4815    5.2615   -8.1483 N   0  0  0  0  0  0  0  0  0  0  0  0
    1.5779    4.2081   -7.8284 N   0  0  0  0  0  0  0  0  0  0  0  0
    1.7822    1.2722   -4.5191 S   0  0  0  0  0  0  0  0  0  0  0  0
    2.4506    0.9852   -6.2448 C   0  0  0  0  0  0  0  0  0  0  0  0
    0.8576    2.3909   -4.5810 O   0  0  0  0  0  0  0  0  0  0  0  0
    2.8964    1.1979   -3.5979 O   0  0  0  0  0  0  0  0  0  0  0  0
    0.9606   -0.1510   -4.3246 O   0  0  0  0  0  0  0  0  0  0  0  0
    1.4364    0.9734   -7.1100 F   0  0  0  0  0  0  0  0  0  0  0  0
    3.2899    1.9714   -6.5394 F   0  0  0  0  0  0  0  0  0  0  0  0
    3.0871   -0.1820   -6.2859 F   0  0  0  0  0  0  0  0  0  0  0  0
  1  2  2  0  0  0  0
  1  6  1  0  0  0  0
  2  3  1  0  0  0  0
  3 20  1  0  0  0  0
  3  4  2  0  0  0  0
  4  9  1  0  0  0  0
  5  4  1  0  0  0  0
  5 10  1  0  0  0  0
  6  5  2  0  0  0  0
  7  1  1  0  0  0  0
  8  2  1  0  0  0  0
 11  6  1  0  0  0  0
 11 12  2  0  0  0  0
 13 11  2  0  0  0  0
 14 15  3  0  0  0  0
 16 20  1  0  0  0  0
 16 19  2  0  0  0  0
 17 16  1  0  0  0  0
 18 16  2  0  0  0  0
 21 17  1  0  0  0  0
 22 17  1  0  0  0  0
 23 17  1  0  0  0  0
M  END
