Coordinates from ORCA-job 4-NO2-Ph-N2-OTf-B3LYPG-6-31G_dp-MTMO-d009-169-n800
 OpenBabel09051908473D

 23 22  0  0  0  0  0  0  0  0999 V2000
   -2.4639   -1.0602   -6.2542 C   0  0  0  0  0  0  0  0  0  0  0  0
   -1.1015   -0.7853   -6.1963 C   0  0  0  0  0  0  0  0  0  0  0  0
   -0.5431   -0.3761   -4.9853 C   0  0  0  0  0  0  0  0  0  0  0  0
   -1.3072   -0.2333   -3.8269 C   0  0  0  0  0  0  0  0  0  0  0  0
   -2.6721   -0.4987   -3.8872 C   0  0  0  0  0  0  0  0  0  0  0  0
   -3.2273   -0.9093   -5.0977 C   0  0  0  0  0  0  0  0  0  0  0  0
   -2.9402   -1.3840   -7.1707 H   0  0  0  0  0  0  0  0  0  0  0  0
   -0.4693   -0.8872   -7.0707 H   0  0  0  0  0  0  0  0  0  0  0  0
   -0.8416    0.0813   -2.9012 H   0  0  0  0  0  0  0  0  0  0  0  0
   -3.3067   -0.3993   -3.0157 H   0  0  0  0  0  0  0  0  0  0  0  0
   -4.6707   -1.1972   -5.1569 N   0  0  0  0  0  0  0  0  0  0  0  0
   -5.3207   -1.0579   -4.1227 O   0  0  0  0  0  0  0  0  0  0  0  0
   -5.1334   -1.5592   -6.2373 O   0  0  0  0  0  0  0  0  0  0  0  0
    5.3132    4.4106   -9.0139 N   0  0  0  0  0  0  0  0  0  0  0  0
    4.5337    3.7997   -8.5230 N   0  0  0  0  0  0  0  0  0  0  0  0
    1.5203    1.2818   -4.6603 S   0  0  0  0  0  0  0  0  0  0  0  0
    1.7823    1.8239   -6.4334 C   0  0  0  0  0  0  0  0  0  0  0  0
    0.5410    2.1755   -4.0665 O   0  0  0  0  0  0  0  0  0  0  0  0
    2.8215    1.0155   -4.0842 O   0  0  0  0  0  0  0  0  0  0  0  0
    0.8481   -0.2043   -4.9476 O   0  0  0  0  0  0  0  0  0  0  0  0
    0.6078    1.8278   -7.0672 F   0  0  0  0  0  0  0  0  0  0  0  0
    2.2930    3.0503   -6.4203 F   0  0  0  0  0  0  0  0  0  0  0  0
    2.6159    0.9866   -7.0385 F   0  0  0  0  0  0  0  0  0  0  0  0
  1  2  2  0  0  0  0
  1  6  1  0  0  0  0
  2  3  1  0  0  0  0
  3 20  1  0  0  0  0
  3  4  2  0  0  0  0
  4  9  1  0  0  0  0
  5  4  1  0  0  0  0
  5 10  1  0  0  0  0
  6  5  2  0  0  0  0
  7  1  1  0  0  0  0
  8  2  1  0  0  0  0
 11  6  1  0  0  0  0
 11 12  2  0  0  0  0
 13 11  2  0  0  0  0
 14 15  3  0  0  0  0
 16 19  2  0  0  0  0
 16 18  2  0  0  0  0
 17 22  1  0  0  0  0
 17 16  1  0  0  0  0
 20 16  1  0  0  0  0
 21 17  1  0  0  0  0
 23 17  1  0  0  0  0
M  END
