Coordinates from ORCA-job 4-NO2-Ph-N2-OTf-B3LYPG-6-31G_dp-MTMO-d009-169-n800
 OpenBabel09051908473D

 23 22  0  0  0  0  0  0  0  0999 V2000
   -2.2855   -0.8742   -6.3825 C   0  0  0  0  0  0  0  0  0  0  0  0
   -0.9291   -0.6209   -6.2051 C   0  0  0  0  0  0  0  0  0  0  0  0
   -0.4559   -0.3299   -4.9259 C   0  0  0  0  0  0  0  0  0  0  0  0
   -1.2994   -0.2831   -3.8160 C   0  0  0  0  0  0  0  0  0  0  0  0
   -2.6577   -0.5276   -3.9944 C   0  0  0  0  0  0  0  0  0  0  0  0
   -3.1277   -0.8208   -5.2732 C   0  0  0  0  0  0  0  0  0  0  0  0
   -2.6981   -1.1083   -7.3555 H   0  0  0  0  0  0  0  0  0  0  0  0
   -0.2379   -0.6487   -7.0392 H   0  0  0  0  0  0  0  0  0  0  0  0
   -0.8978   -0.0585   -2.8354 H   0  0  0  0  0  0  0  0  0  0  0  0
   -3.3517   -0.5006   -3.1640 H   0  0  0  0  0  0  0  0  0  0  0  0
   -4.5646   -1.0867   -5.4589 N   0  0  0  0  0  0  0  0  0  0  0  0
   -5.2848   -1.0368   -4.4638 O   0  0  0  0  0  0  0  0  0  0  0  0
   -4.9518   -1.3424   -6.5978 O   0  0  0  0  0  0  0  0  0  0  0  0
    3.8522    3.7389   -9.7298 N   0  0  0  0  0  0  0  0  0  0  0  0
    3.3155    3.1846   -8.9386 N   0  0  0  0  0  0  0  0  0  0  0  0
    1.5774    1.2891   -4.3481 S   0  0  0  0  0  0  0  0  0  0  0  0
    2.0699    1.8776   -6.0570 C   0  0  0  0  0  0  0  0  0  0  0  0
    0.5399    2.1774   -3.8532 O   0  0  0  0  0  0  0  0  0  0  0  0
    2.7934    0.9887   -3.6217 O   0  0  0  0  0  0  0  0  0  0  0  0
    0.9289   -0.1759   -4.7696 O   0  0  0  0  0  0  0  0  0  0  0  0
    0.9883    1.9223   -6.8363 F   0  0  0  0  0  0  0  0  0  0  0  0
    2.5922    3.0938   -5.9378 F   0  0  0  0  0  0  0  0  0  0  0  0
    2.9632    1.0433   -6.5743 F   0  0  0  0  0  0  0  0  0  0  0  0
  1  2  2  0  0  0  0
  1  6  1  0  0  0  0
  2  3  1  0  0  0  0
  3 20  1  0  0  0  0
  3  4  2  0  0  0  0
  4  9  1  0  0  0  0
  5  4  1  0  0  0  0
  5 10  1  0  0  0  0
  6  5  2  0  0  0  0
  7  1  1  0  0  0  0
  8  2  1  0  0  0  0
 11  6  1  0  0  0  0
 11 12  2  0  0  0  0
 13 11  2  0  0  0  0
 14 15  3  0  0  0  0
 16 18  2  0  0  0  0
 16 19  2  0  0  0  0
 17 22  1  0  0  0  0
 17 16  1  0  0  0  0
 20 16  1  0  0  0  0
 21 17  1  0  0  0  0
 23 17  1  0  0  0  0
M  END
