Coordinates from ORCA-job 4-NO2-Ph-N2-OTf-B3LYPG-6-31G_dp-MTMO-d009-169-n800
 OpenBabel09051908473D

 23 22  0  0  0  0  0  0  0  0999 V2000
   -2.3556   -0.9479   -6.3377 C   0  0  0  0  0  0  0  0  0  0  0  0
   -0.9972   -0.6771   -6.2093 C   0  0  0  0  0  0  0  0  0  0  0  0
   -0.4875   -0.3454   -4.9540 C   0  0  0  0  0  0  0  0  0  0  0  0
   -1.2964   -0.2773   -3.8196 C   0  0  0  0  0  0  0  0  0  0  0  0
   -2.6571   -0.5391   -3.9495 C   0  0  0  0  0  0  0  0  0  0  0  0
   -3.1637   -0.8715   -5.2046 C   0  0  0  0  0  0  0  0  0  0  0  0
   -2.7952   -1.2127   -7.2908 H   0  0  0  0  0  0  0  0  0  0  0  0
   -0.3314   -0.7228   -7.0632 H   0  0  0  0  0  0  0  0  0  0  0  0
   -0.8676   -0.0217   -2.8586 H   0  0  0  0  0  0  0  0  0  0  0  0
   -3.3251   -0.4961   -3.0987 H   0  0  0  0  0  0  0  0  0  0  0  0
   -4.6029   -1.1552   -5.3382 N   0  0  0  0  0  0  0  0  0  0  0  0
   -5.2927   -1.0849   -4.3229 O   0  0  0  0  0  0  0  0  0  0  0  0
   -5.0227   -1.4449   -6.4573 O   0  0  0  0  0  0  0  0  0  0  0  0
    4.6001    3.8656   -9.5200 N   0  0  0  0  0  0  0  0  0  0  0  0
    3.9063    3.3606   -8.8235 N   0  0  0  0  0  0  0  0  0  0  0  0
    1.5532    1.2951   -4.4547 S   0  0  0  0  0  0  0  0  0  0  0  0
    1.8795    1.9347   -6.1843 C   0  0  0  0  0  0  0  0  0  0  0  0
    0.5476    2.1510   -3.8492 O   0  0  0  0  0  0  0  0  0  0  0  0
    2.8332    1.0013   -3.8453 O   0  0  0  0  0  0  0  0  0  0  0  0
    0.9004   -0.1744   -4.8507 O   0  0  0  0  0  0  0  0  0  0  0  0
    0.7288    1.9798   -6.8583 F   0  0  0  0  0  0  0  0  0  0  0  0
    2.3928    3.1560   -6.0834 F   0  0  0  0  0  0  0  0  0  0  0  0
    2.7322    1.1281   -6.8042 F   0  0  0  0  0  0  0  0  0  0  0  0
  1  2  2  0  0  0  0
  1  6  1  0  0  0  0
  2  3  1  0  0  0  0
  3 20  1  0  0  0  0
  3  4  2  0  0  0  0
  4  9  1  0  0  0  0
  5  4  1  0  0  0  0
  5 10  1  0  0  0  0
  6  5  2  0  0  0  0
  7  1  1  0  0  0  0
  8  2  1  0  0  0  0
 11  6  1  0  0  0  0
 11 12  2  0  0  0  0
 13 11  2  0  0  0  0
 14 15  3  0  0  0  0
 16 18  2  0  0  0  0
 16 19  2  0  0  0  0
 17 22  1  0  0  0  0
 17 16  1  0  0  0  0
 20 16  1  0  0  0  0
 21 17  1  0  0  0  0
 23 17  1  0  0  0  0
M  END
