Coordinates from ORCA-job 4-NO2-Ph-N2-OTf-B3LYPG-6-31G_dp-MTMO-d009-169-n800
 OpenBabel09051908473D

 23 22  0  0  0  0  0  0  0  0999 V2000
   -2.5401   -1.2137   -6.1591 C   0  0  0  0  0  0  0  0  0  0  0  0
   -1.1683   -0.9974   -6.0795 C   0  0  0  0  0  0  0  0  0  0  0  0
   -0.6274   -0.5019   -4.8931 C   0  0  0  0  0  0  0  0  0  0  0  0
   -1.4177   -0.2171   -3.7793 C   0  0  0  0  0  0  0  0  0  0  0  0
   -2.7916   -0.4240   -3.8624 C   0  0  0  0  0  0  0  0  0  0  0  0
   -3.3296   -0.9201   -5.0485 C   0  0  0  0  0  0  0  0  0  0  0  0
   -3.0039   -1.5993   -7.0580 H   0  0  0  0  0  0  0  0  0  0  0  0
   -0.5151   -1.2097   -6.9179 H   0  0  0  0  0  0  0  0  0  0  0  0
   -0.9652    0.1619   -2.8715 H   0  0  0  0  0  0  0  0  0  0  0  0
   -3.4466   -0.2146   -3.0264 H   0  0  0  0  0  0  0  0  0  0  0  0
   -4.7830   -1.1449   -5.1307 N   0  0  0  0  0  0  0  0  0  0  0  0
   -5.4559   -0.8807   -4.1363 O   0  0  0  0  0  0  0  0  0  0  0  0
   -5.2305   -1.5831   -6.1891 O   0  0  0  0  0  0  0  0  0  0  0  0
    6.0951    5.7167   -9.3660 N   0  0  0  0  0  0  0  0  0  0  0  0
    5.3033    5.0719   -8.9430 N   0  0  0  0  0  0  0  0  0  0  0  0
    1.5032    1.0812   -4.6464 S   0  0  0  0  0  0  0  0  0  0  0  0
    1.7369    1.5043   -6.4546 C   0  0  0  0  0  0  0  0  0  0  0  0
    0.5765    2.0486   -4.0845 O   0  0  0  0  0  0  0  0  0  0  0  0
    2.8068    0.7946   -4.0864 O   0  0  0  0  0  0  0  0  0  0  0  0
    0.7687   -0.3906   -4.8267 O   0  0  0  0  0  0  0  0  0  0  0  0
    0.5427    1.5666   -7.0464 F   0  0  0  0  0  0  0  0  0  0  0  0
    2.3433    2.6835   -6.5331 F   0  0  0  0  0  0  0  0  0  0  0  0
    2.4775    0.5689   -7.0390 F   0  0  0  0  0  0  0  0  0  0  0  0
  1  2  2  0  0  0  0
  1  6  1  0  0  0  0
  2  3  1  0  0  0  0
  3 20  1  0  0  0  0
  3  4  2  0  0  0  0
  4  9  1  0  0  0  0
  5  4  1  0  0  0  0
  5 10  1  0  0  0  0
  6  5  2  0  0  0  0
  7  1  1  0  0  0  0
  8  2  1  0  0  0  0
 11  6  1  0  0  0  0
 11 12  2  0  0  0  0
 13 11  2  0  0  0  0
 14 15  3  0  0  0  0
 16 19  2  0  0  0  0
 16 18  2  0  0  0  0
 17 16  1  0  0  0  0
 20 16  1  0  0  0  0
 21 17  1  0  0  0  0
 22 17  1  0  0  0  0
 23 17  1  0  0  0  0
M  END
