Coordinates from ORCA-job 4-NO2-Ph-N2-OTf-B3LYPG-6-31G_dp-MTMO-d009-169-n800
 OpenBabel09051908483D

 23 22  0  0  0  0  0  0  0  0999 V2000
   -2.8241   -1.4195   -6.0085 C   0  0  0  0  0  0  0  0  0  0  0  0
   -1.4532   -1.2001   -5.9232 C   0  0  0  0  0  0  0  0  0  0  0  0
   -0.9137   -0.7361   -4.7234 C   0  0  0  0  0  0  0  0  0  0  0  0
   -1.7046   -0.4864   -3.6017 C   0  0  0  0  0  0  0  0  0  0  0  0
   -3.0778   -0.6961   -3.6902 C   0  0  0  0  0  0  0  0  0  0  0  0
   -3.6143   -1.1604   -4.8897 C   0  0  0  0  0  0  0  0  0  0  0  0
   -3.2868   -1.7815   -6.9177 H   0  0  0  0  0  0  0  0  0  0  0  0
   -0.7996   -1.3866   -6.7675 H   0  0  0  0  0  0  0  0  0  0  0  0
   -1.2532   -0.1317   -2.6835 H   0  0  0  0  0  0  0  0  0  0  0  0
   -3.7332   -0.5131   -2.8483 H   0  0  0  0  0  0  0  0  0  0  0  0
   -5.0670   -1.3883   -4.9779 N   0  0  0  0  0  0  0  0  0  0  0  0
   -5.7407   -1.1532   -3.9768 O   0  0  0  0  0  0  0  0  0  0  0  0
   -5.5129   -1.7998   -6.0476 O   0  0  0  0  0  0  0  0  0  0  0  0
    9.1632    8.0716  -11.2669 N   0  0  0  0  0  0  0  0  0  0  0  0
    8.3430    7.4313  -10.8940 N   0  0  0  0  0  0  0  0  0  0  0  0
    1.2108    0.8479   -4.4320 S   0  0  0  0  0  0  0  0  0  0  0  0
    1.4287    1.3330   -6.2264 C   0  0  0  0  0  0  0  0  0  0  0  0
    0.2840    1.7919   -3.8317 O   0  0  0  0  0  0  0  0  0  0  0  0
    2.5200    0.5492   -3.8919 O   0  0  0  0  0  0  0  0  0  0  0  0
    0.4821   -0.6208   -4.6547 O   0  0  0  0  0  0  0  0  0  0  0  0
    0.2299    1.4104   -6.8070 F   0  0  0  0  0  0  0  0  0  0  0  0
    2.0293    2.5173   -6.2689 F   0  0  0  0  0  0  0  0  0  0  0  0
    2.1691    0.4220   -6.8484 F   0  0  0  0  0  0  0  0  0  0  0  0
  1  2  2  0  0  0  0
  1  6  1  0  0  0  0
  2  3  1  0  0  0  0
  3 20  1  0  0  0  0
  3  4  2  0  0  0  0
  4  9  1  0  0  0  0
  5  4  1  0  0  0  0
  5 10  1  0  0  0  0
  6  5  2  0  0  0  0
  7  1  1  0  0  0  0
  8  2  1  0  0  0  0
 11  6  1  0  0  0  0
 11 12  2  0  0  0  0
 13 11  2  0  0  0  0
 14 15  3  0  0  0  0
 16 19  2  0  0  0  0
 16 18  2  0  0  0  0
 17 16  1  0  0  0  0
 20 16  1  0  0  0  0
 21 17  1  0  0  0  0
 22 17  1  0  0  0  0
 23 17  1  0  0  0  0
M  END
