Coordinates from ORCA-job 4-NO2-Ph-N2-OTf-B3LYPG-6-31G_dp-MTMO-d009-169-n800
 OpenBabel09051908473D

 23 22  0  0  0  0  0  0  0  0999 V2000
   -2.0707   -0.6627   -6.2616 C   0  0  0  0  0  0  0  0  0  0  0  0
   -0.7166   -0.3551   -6.1615 C   0  0  0  0  0  0  0  0  0  0  0  0
   -0.2812    0.4126   -5.0805 C   0  0  0  0  0  0  0  0  0  0  0  0
   -1.1581    0.8537   -4.0878 C   0  0  0  0  0  0  0  0  0  0  0  0
   -2.5076    0.5340   -4.1822 C   0  0  0  0  0  0  0  0  0  0  0  0
   -2.9448   -0.2160   -5.2731 C   0  0  0  0  0  0  0  0  0  0  0  0
   -2.4541   -1.2515   -7.0855 H   0  0  0  0  0  0  0  0  0  0  0  0
   -0.0185   -0.7046   -6.9098 H   0  0  0  0  0  0  0  0  0  0  0  0
   -0.7722    1.4378   -3.2605 H   0  0  0  0  0  0  0  0  0  0  0  0
   -3.2211    0.8563   -3.4347 H   0  0  0  0  0  0  0  0  0  0  0  0
   -4.3732   -0.5530   -5.3789 N   0  0  0  0  0  0  0  0  0  0  0  0
   -5.1189   -0.1509   -4.4872 O   0  0  0  0  0  0  0  0  0  0  0  0
   -4.7304   -1.2159   -6.3512 O   0  0  0  0  0  0  0  0  0  0  0  0
   -0.4860    3.3523   -5.8381 N   0  0  0  0  0  0  0  0  0  0  0  0
   -1.2279    4.0188   -6.3139 N   0  0  0  0  0  0  0  0  0  0  0  0
    2.1055    1.2618   -6.0051 S   0  0  0  0  0  0  0  0  0  0  0  0
    3.1779   -0.2668   -6.1116 C   0  0  0  0  0  0  0  0  0  0  0  0
    1.4330    1.4154   -7.2839 O   0  0  0  0  0  0  0  0  0  0  0  0
    2.8943    2.3046   -5.3832 O   0  0  0  0  0  0  0  0  0  0  0  0
    1.0701    0.6940   -4.8471 O   0  0  0  0  0  0  0  0  0  0  0  0
    2.4327   -1.2997   -6.5134 F   0  0  0  0  0  0  0  0  0  0  0  0
    4.1371   -0.0334   -7.0021 F   0  0  0  0  0  0  0  0  0  0  0  0
    3.7097   -0.5306   -4.9251 F   0  0  0  0  0  0  0  0  0  0  0  0
  1  2  2  0  0  0  0
  1  6  1  0  0  0  0
  2  3  1  0  0  0  0
  3 20  1  0  0  0  0
  3  4  2  0  0  0  0
  4  9  1  0  0  0  0
  5  4  1  0  0  0  0
  5 10  1  0  0  0  0
  6  5  2  0  0  0  0
  7  1  1  0  0  0  0
  8  2  1  0  0  0  0
 11  6  1  0  0  0  0
 11 12  2  0  0  0  0
 13 11  2  0  0  0  0
 15 14  3  0  0  0  0
 16 19  2  0  0  0  0
 16 20  1  0  0  0  0
 17 16  1  0  0  0  0
 17 23  1  0  0  0  0
 18 16  2  0  0  0  0
 21 17  1  0  0  0  0
 22 17  1  0  0  0  0
M  END
