Coordinates from ORCA-job 4-NO2-Ph-N2-OTf-B3LYPG-6-31G_dp-MTMO-d009-169-n800
 OpenBabel09051908473D

 23 22  0  0  0  0  0  0  0  0999 V2000
   -2.5472   -1.2167   -6.1577 C   0  0  0  0  0  0  0  0  0  0  0  0
   -1.1755   -1.0005   -6.0762 C   0  0  0  0  0  0  0  0  0  0  0  0
   -0.6356   -0.5094   -4.8875 C   0  0  0  0  0  0  0  0  0  0  0  0
   -1.4268   -0.2289   -3.7733 C   0  0  0  0  0  0  0  0  0  0  0  0
   -2.8006   -0.4356   -3.8582 C   0  0  0  0  0  0  0  0  0  0  0  0
   -3.3376   -0.9273   -5.0466 C   0  0  0  0  0  0  0  0  0  0  0  0
   -3.0102   -1.5990   -7.0584 H   0  0  0  0  0  0  0  0  0  0  0  0
   -0.5216   -1.2097   -6.9149 H   0  0  0  0  0  0  0  0  0  0  0  0
   -0.9750    0.1468   -2.8637 H   0  0  0  0  0  0  0  0  0  0  0  0
   -3.4563   -0.2294   -3.0220 H   0  0  0  0  0  0  0  0  0  0  0  0
   -4.7910   -1.1519   -5.1309 N   0  0  0  0  0  0  0  0  0  0  0  0
   -5.4647   -0.8913   -4.1361 O   0  0  0  0  0  0  0  0  0  0  0  0
   -5.2375   -1.5865   -6.1912 O   0  0  0  0  0  0  0  0  0  0  0  0
    6.1837    5.7788   -9.4375 N   0  0  0  0  0  0  0  0  0  0  0  0
    5.3895    5.1353   -9.0171 N   0  0  0  0  0  0  0  0  0  0  0  0
    1.4945    1.0732   -4.6333 S   0  0  0  0  0  0  0  0  0  0  0  0
    1.7280    1.5043   -6.4396 C   0  0  0  0  0  0  0  0  0  0  0  0
    0.5676    2.0380   -4.0671 O   0  0  0  0  0  0  0  0  0  0  0  0
    2.7983    0.7846   -4.0747 O   0  0  0  0  0  0  0  0  0  0  0  0
    0.7605   -0.3980   -4.8196 O   0  0  0  0  0  0  0  0  0  0  0  0
    0.5337    1.5689   -7.0311 F   0  0  0  0  0  0  0  0  0  0  0  0
    2.3341    2.6839   -6.5130 F   0  0  0  0  0  0  0  0  0  0  0  0
    2.4688    0.5716   -7.0282 F   0  0  0  0  0  0  0  0  0  0  0  0
  1  2  2  0  0  0  0
  1  6  1  0  0  0  0
  2  3  1  0  0  0  0
  3 20  1  0  0  0  0
  3  4  2  0  0  0  0
  4  9  1  0  0  0  0
  5  4  1  0  0  0  0
  5 10  1  0  0  0  0
  6  5  2  0  0  0  0
  7  1  1  0  0  0  0
  8  2  1  0  0  0  0
 11  6  1  0  0  0  0
 11 12  2  0  0  0  0
 13 11  2  0  0  0  0
 14 15  3  0  0  0  0
 16 19  2  0  0  0  0
 16 18  2  0  0  0  0
 17 16  1  0  0  0  0
 20 16  1  0  0  0  0
 21 17  1  0  0  0  0
 22 17  1  0  0  0  0
 23 17  1  0  0  0  0
M  END
