Coordinates from ORCA-job 4-NO2-Ph-N2-OTf-B3LYPG-6-31G_dp-MTMO-d009-169-n800
 OpenBabel09051908483D

 23 22  0  0  0  0  0  0  0  0999 V2000
   -2.9539   -1.5226   -5.9280 C   0  0  0  0  0  0  0  0  0  0  0  0
   -1.5834   -1.2964   -5.8530 C   0  0  0  0  0  0  0  0  0  0  0  0
   -1.0372   -0.8306   -4.6570 C   0  0  0  0  0  0  0  0  0  0  0  0
   -1.8209   -0.5854   -3.5292 C   0  0  0  0  0  0  0  0  0  0  0  0
   -3.1936   -0.8019   -3.6074 C   0  0  0  0  0  0  0  0  0  0  0  0
   -3.7369   -1.2682   -4.8032 C   0  0  0  0  0  0  0  0  0  0  0  0
   -3.4215   -1.8864   -6.8339 H   0  0  0  0  0  0  0  0  0  0  0  0
   -0.9354   -1.4790   -6.7023 H   0  0  0  0  0  0  0  0  0  0  0  0
   -1.3644   -0.2290   -2.6142 H   0  0  0  0  0  0  0  0  0  0  0  0
   -3.8435   -0.6226   -2.7605 H   0  0  0  0  0  0  0  0  0  0  0  0
   -5.1890   -1.5034   -4.8805 N   0  0  0  0  0  0  0  0  0  0  0  0
   -5.8563   -1.2722   -3.8742 O   0  0  0  0  0  0  0  0  0  0  0  0
   -5.6408   -1.9167   -5.9470 O   0  0  0  0  0  0  0  0  0  0  0  0
   10.4940    9.0943  -12.0147 N   0  0  0  0  0  0  0  0  0  0  0  0
    9.6832    8.4510  -11.6271 N   0  0  0  0  0  0  0  0  0  0  0  0
    1.0822    0.7629   -4.3796 S   0  0  0  0  0  0  0  0  0  0  0  0
    1.2885    1.2481   -6.1753 C   0  0  0  0  0  0  0  0  0  0  0  0
    0.1546    1.7031   -3.7745 O   0  0  0  0  0  0  0  0  0  0  0  0
    2.3955    0.4702   -3.8460 O   0  0  0  0  0  0  0  0  0  0  0  0
    0.3585   -0.7088   -4.5986 O   0  0  0  0  0  0  0  0  0  0  0  0
    0.0863    1.3189   -6.7497 F   0  0  0  0  0  0  0  0  0  0  0  0
    1.8828    2.4354   -6.2217 F   0  0  0  0  0  0  0  0  0  0  0  0
    2.0304    0.3405   -6.8005 F   0  0  0  0  0  0  0  0  0  0  0  0
  1  2  2  0  0  0  0
  1  6  1  0  0  0  0
  2  3  1  0  0  0  0
  3 20  1  0  0  0  0
  3  4  2  0  0  0  0
  4  9  1  0  0  0  0
  5  4  1  0  0  0  0
  5 10  1  0  0  0  0
  6  5  2  0  0  0  0
  7  1  1  0  0  0  0
  8  2  1  0  0  0  0
 11  6  1  0  0  0  0
 11 12  2  0  0  0  0
 13 11  2  0  0  0  0
 14 15  3  0  0  0  0
 16 19  2  0  0  0  0
 16 18  2  0  0  0  0
 17 16  1  0  0  0  0
 20 16  1  0  0  0  0
 21 17  1  0  0  0  0
 22 17  1  0  0  0  0
 23 17  1  0  0  0  0
M  END
