Coordinates from ORCA-job 4-NO2-Ph-N2-OTf-B3LYPG-6-31G_dp-MTMO-d009-169-n800
 OpenBabel09051908473D

 23 22  0  0  0  0  0  0  0  0999 V2000
   -2.2538   -0.8723   -6.3952 C   0  0  0  0  0  0  0  0  0  0  0  0
   -0.8980   -0.6285   -6.2008 C   0  0  0  0  0  0  0  0  0  0  0  0
   -0.4403   -0.3303   -4.9176 C   0  0  0  0  0  0  0  0  0  0  0  0
   -1.2987   -0.2676   -3.8200 C   0  0  0  0  0  0  0  0  0  0  0  0
   -2.6563   -0.5025   -4.0155 C   0  0  0  0  0  0  0  0  0  0  0  0
   -3.1109   -0.8027   -5.2983 C   0  0  0  0  0  0  0  0  0  0  0  0
   -2.6546   -1.1114   -7.3719 H   0  0  0  0  0  0  0  0  0  0  0  0
   -0.1953   -0.6691   -7.0248 H   0  0  0  0  0  0  0  0  0  0  0  0
   -0.9092   -0.0377   -2.8358 H   0  0  0  0  0  0  0  0  0  0  0  0
   -3.3615   -0.4629   -3.1952 H   0  0  0  0  0  0  0  0  0  0  0  0
   -4.5472   -1.0585   -5.5018 N   0  0  0  0  0  0  0  0  0  0  0  0
   -5.2808   -0.9941   -4.5173 O   0  0  0  0  0  0  0  0  0  0  0  0
   -4.9206   -1.3207   -6.6438 O   0  0  0  0  0  0  0  0  0  0  0  0
    3.6243    3.6940   -9.7815 N   0  0  0  0  0  0  0  0  0  0  0  0
    3.1659    3.1404   -8.9422 N   0  0  0  0  0  0  0  0  0  0  0  0
    1.5999    1.2718   -4.3140 S   0  0  0  0  0  0  0  0  0  0  0  0
    2.0891    1.8718   -6.0199 C   0  0  0  0  0  0  0  0  0  0  0  0
    0.5685    2.1612   -3.8085 O   0  0  0  0  0  0  0  0  0  0  0  0
    2.8164    0.9588   -3.5937 O   0  0  0  0  0  0  0  0  0  0  0  0
    0.9437   -0.1868   -4.7448 O   0  0  0  0  0  0  0  0  0  0  0  0
    1.0032    1.9339   -6.7919 F   0  0  0  0  0  0  0  0  0  0  0  0
    2.6244    3.0814   -5.8932 F   0  0  0  0  0  0  0  0  0  0  0  0
    2.9708    1.0329   -6.5500 F   0  0  0  0  0  0  0  0  0  0  0  0
  1  2  2  0  0  0  0
  1  6  1  0  0  0  0
  2  3  1  0  0  0  0
  3 20  1  0  0  0  0
  3  4  2  0  0  0  0
  4  9  1  0  0  0  0
  5  4  1  0  0  0  0
  5 10  1  0  0  0  0
  6  5  2  0  0  0  0
  7  1  1  0  0  0  0
  8  2  1  0  0  0  0
 11  6  1  0  0  0  0
 11 12  2  0  0  0  0
 13 11  2  0  0  0  0
 14 15  3  0  0  0  0
 16 18  2  0  0  0  0
 16 19  2  0  0  0  0
 17 22  1  0  0  0  0
 17 16  1  0  0  0  0
 20 16  1  0  0  0  0
 21 17  1  0  0  0  0
 23 17  1  0  0  0  0
M  END
