Coordinates from ORCA-job 4-NO2-Ph-N2-OTf-B3LYPG-6-31G_dp-MTMO-d009-169-n800
 OpenBabel09051908483D

 23 22  0  0  0  0  0  0  0  0999 V2000
   -2.7769   -1.3816   -6.0376 C   0  0  0  0  0  0  0  0  0  0  0  0
   -1.4058   -1.1641   -5.9496 C   0  0  0  0  0  0  0  0  0  0  0  0
   -0.8682   -0.7007   -4.7487 C   0  0  0  0  0  0  0  0  0  0  0  0
   -1.6610   -0.4497   -3.6287 C   0  0  0  0  0  0  0  0  0  0  0  0
   -3.0343   -0.6575   -3.7200 C   0  0  0  0  0  0  0  0  0  0  0  0
   -3.5690   -1.1212   -4.9206 C   0  0  0  0  0  0  0  0  0  0  0  0
   -3.2381   -1.7431   -6.9478 H   0  0  0  0  0  0  0  0  0  0  0  0
   -0.7507   -1.3517   -6.7924 H   0  0  0  0  0  0  0  0  0  0  0  0
   -1.2111   -0.0955   -2.7096 H   0  0  0  0  0  0  0  0  0  0  0  0
   -3.6912   -0.4735   -2.8795 H   0  0  0  0  0  0  0  0  0  0  0  0
   -5.0218   -1.3470   -5.0118 N   0  0  0  0  0  0  0  0  0  0  0  0
   -5.6973   -1.1108   -4.0121 O   0  0  0  0  0  0  0  0  0  0  0  0
   -5.4661   -1.7579   -6.0824 O   0  0  0  0  0  0  0  0  0  0  0  0
    8.6717    7.6934  -10.9887 N   0  0  0  0  0  0  0  0  0  0  0  0
    7.8506    7.0529  -10.6184 N   0  0  0  0  0  0  0  0  0  0  0  0
    1.2578    0.8806   -4.4532 S   0  0  0  0  0  0  0  0  0  0  0  0
    1.4803    1.3649   -6.2473 C   0  0  0  0  0  0  0  0  0  0  0  0
    0.3310    1.8259   -3.8552 O   0  0  0  0  0  0  0  0  0  0  0  0
    2.5655    0.5803   -3.9102 O   0  0  0  0  0  0  0  0  0  0  0  0
    0.5277   -0.5872   -4.6771 O   0  0  0  0  0  0  0  0  0  0  0  0
    0.2829    1.4435   -6.8306 F   0  0  0  0  0  0  0  0  0  0  0  0
    2.0824    2.5484   -6.2888 F   0  0  0  0  0  0  0  0  0  0  0  0
    2.2209    0.4527   -6.8674 F   0  0  0  0  0  0  0  0  0  0  0  0
  1  2  2  0  0  0  0
  1  6  1  0  0  0  0
  2  3  1  0  0  0  0
  3 20  1  0  0  0  0
  3  4  2  0  0  0  0
  4  9  1  0  0  0  0
  5  4  1  0  0  0  0
  5 10  1  0  0  0  0
  6  5  2  0  0  0  0
  7  1  1  0  0  0  0
  8  2  1  0  0  0  0
 11  6  1  0  0  0  0
 11 12  2  0  0  0  0
 13 11  2  0  0  0  0
 14 15  3  0  0  0  0
 16 19  2  0  0  0  0
 16 18  2  0  0  0  0
 17 16  1  0  0  0  0
 20 16  1  0  0  0  0
 21 17  1  0  0  0  0
 22 17  1  0  0  0  0
 23 17  1  0  0  0  0
M  END
