Coordinates from ORCA-job 4-NO2-Ph-N2-OTf-B3LYPG-6-31G_dp-MTMO-d009-169-n800
 OpenBabel09051908473D

 23 22  0  0  0  0  0  0  0  0999 V2000
   -2.0658   -0.8149   -6.2030 C   0  0  0  0  0  0  0  0  0  0  0  0
   -0.7105   -0.5200   -6.0887 C   0  0  0  0  0  0  0  0  0  0  0  0
   -0.2919    0.3327   -5.0668 C   0  0  0  0  0  0  0  0  0  0  0  0
   -1.1878    0.8814   -4.1489 C   0  0  0  0  0  0  0  0  0  0  0  0
   -2.5406    0.5760   -4.2557 C   0  0  0  0  0  0  0  0  0  0  0  0
   -2.9588   -0.2647   -5.2857 C   0  0  0  0  0  0  0  0  0  0  0  0
   -2.4370   -1.4691   -6.9820 H   0  0  0  0  0  0  0  0  0  0  0  0
    0.0057   -0.9456   -6.7789 H   0  0  0  0  0  0  0  0  0  0  0  0
   -0.8150    1.5317   -3.3661 H   0  0  0  0  0  0  0  0  0  0  0  0
   -3.2702    0.9773   -3.5643 H   0  0  0  0  0  0  0  0  0  0  0  0
   -4.3902   -0.5873   -5.4041 N   0  0  0  0  0  0  0  0  0  0  0  0
   -5.1539   -0.0924   -4.5769 O   0  0  0  0  0  0  0  0  0  0  0  0
   -4.7311   -1.3316   -6.3217 O   0  0  0  0  0  0  0  0  0  0  0  0
   -0.3642    3.6150   -5.6971 N   0  0  0  0  0  0  0  0  0  0  0  0
   -0.9883    4.4224   -6.1208 N   0  0  0  0  0  0  0  0  0  0  0  0
    2.0523    1.2462   -5.9970 S   0  0  0  0  0  0  0  0  0  0  0  0
    3.1792   -0.2355   -6.1786 C   0  0  0  0  0  0  0  0  0  0  0  0
    1.3362    1.4166   -7.2495 O   0  0  0  0  0  0  0  0  0  0  0  0
    2.8227    2.2962   -5.3632 O   0  0  0  0  0  0  0  0  0  0  0  0
    1.0632    0.6026   -4.8353 O   0  0  0  0  0  0  0  0  0  0  0  0
    2.4717   -1.2815   -6.6138 F   0  0  0  0  0  0  0  0  0  0  0  0
    4.1169    0.0710   -7.0699 F   0  0  0  0  0  0  0  0  0  0  0  0
    3.7365   -0.5253   -5.0099 F   0  0  0  0  0  0  0  0  0  0  0  0
  1  2  2  0  0  0  0
  1  6  1  0  0  0  0
  2  3  1  0  0  0  0
  3 20  1  0  0  0  0
  3  4  2  0  0  0  0
  4  9  1  0  0  0  0
  5  4  1  0  0  0  0
  5 10  1  0  0  0  0
  6  5  2  0  0  0  0
  7  1  1  0  0  0  0
  8  2  1  0  0  0  0
 11  6  1  0  0  0  0
 11 12  2  0  0  0  0
 13 11  2  0  0  0  0
 15 14  3  0  0  0  0
 16 19  2  0  0  0  0
 16 20  1  0  0  0  0
 17 16  1  0  0  0  0
 17 23  1  0  0  0  0
 18 16  2  0  0  0  0
 21 17  1  0  0  0  0
 22 17  1  0  0  0  0
M  END
