Coordinates from ORCA-job 4-NO2-Ph-N2-OTf-B3LYPG-6-31G_dp-MTMO-d009-169-n800
 OpenBabel09051908473D

 23 22  0  0  0  0  0  0  0  0999 V2000
   -1.9763   -1.7226   -5.7255 C   0  0  0  0  0  0  0  0  0  0  0  0
   -0.6690   -1.3194   -5.4736 C   0  0  0  0  0  0  0  0  0  0  0  0
   -0.4445   -0.0717   -4.8923 C   0  0  0  0  0  0  0  0  0  0  0  0
   -1.4891    0.7875   -4.5514 C   0  0  0  0  0  0  0  0  0  0  0  0
   -2.7967    0.3883   -4.8127 C   0  0  0  0  0  0  0  0  0  0  0  0
   -3.0188   -0.8593   -5.3925 C   0  0  0  0  0  0  0  0  0  0  0  0
   -2.1997   -2.6828   -6.1722 H   0  0  0  0  0  0  0  0  0  0  0  0
    0.1736   -1.9563   -5.7162 H   0  0  0  0  0  0  0  0  0  0  0  0
   -1.2799    1.7476   -4.0970 H   0  0  0  0  0  0  0  0  0  0  0  0
   -3.6407    1.0207   -4.5693 H   0  0  0  0  0  0  0  0  0  0  0  0
   -4.4041   -1.2823   -5.6611 N   0  0  0  0  0  0  0  0  0  0  0  0
   -5.3046   -0.5020   -5.3577 O   0  0  0  0  0  0  0  0  0  0  0  0
   -4.5704   -2.3886   -6.1712 O   0  0  0  0  0  0  0  0  0  0  0  0
    1.8734    5.6634   -5.3999 N   0  0  0  0  0  0  0  0  0  0  0  0
    2.5642    5.1480   -6.0915 N   0  0  0  0  0  0  0  0  0  0  0  0
    1.6556    1.5190   -5.2929 S   0  0  0  0  0  0  0  0  0  0  0  0
    2.3981    0.6093   -6.7499 C   0  0  0  0  0  0  0  0  0  0  0  0
    0.6919    2.4723   -5.8161 O   0  0  0  0  0  0  0  0  0  0  0  0
    2.7336    1.8756   -4.3951 O   0  0  0  0  0  0  0  0  0  0  0  0
    0.8816    0.2501   -4.5682 O   0  0  0  0  0  0  0  0  0  0  0  0
    1.4137    0.1093   -7.4989 F   0  0  0  0  0  0  0  0  0  0  0  0
    3.1146    1.4724   -7.4609 F   0  0  0  0  0  0  0  0  0  0  0  0
    3.1728   -0.3774   -6.3118 F   0  0  0  0  0  0  0  0  0  0  0  0
  1  2  2  0  0  0  0
  1  6  1  0  0  0  0
  2  3  1  0  0  0  0
  3 20  1  0  0  0  0
  3  4  2  0  0  0  0
  4  9  1  0  0  0  0
  5 10  1  0  0  0  0
  5  4  1  0  0  0  0
  6  5  2  0  0  0  0
  7  1  1  0  0  0  0
  8  2  1  0  0  0  0
 11  6  1  0  0  0  0
 11 12  2  0  0  0  0
 13 11  2  0  0  0  0
 15 14  3  0  0  0  0
 16 20  1  0  0  0  0
 16 19  2  0  0  0  0
 17 23  1  0  0  0  0
 17 16  1  0  0  0  0
 18 16  2  0  0  0  0
 21 17  1  0  0  0  0
 22 17  1  0  0  0  0
M  END
