Coordinates from ORCA-job 4-NO2-Ph-N2-OTf-B3LYPG-6-31G_dp-MTMO-d009-169-n800
 OpenBabel09051908473D

 23 22  0  0  0  0  0  0  0  0999 V2000
   -2.4969   -1.1663   -6.1826 C   0  0  0  0  0  0  0  0  0  0  0  0
   -1.1265   -0.9344   -6.1251 C   0  0  0  0  0  0  0  0  0  0  0  0
   -0.5722   -0.4328   -4.9475 C   0  0  0  0  0  0  0  0  0  0  0  0
   -1.3481   -0.1550   -3.8219 C   0  0  0  0  0  0  0  0  0  0  0  0
   -2.7207   -0.3773   -3.8826 C   0  0  0  0  0  0  0  0  0  0  0  0
   -3.2718   -0.8808   -5.0596 C   0  0  0  0  0  0  0  0  0  0  0  0
   -2.9706   -1.5577   -7.0737 H   0  0  0  0  0  0  0  0  0  0  0  0
   -0.4846   -1.1396   -6.9740 H   0  0  0  0  0  0  0  0  0  0  0  0
   -0.8855    0.2299   -2.9215 H   0  0  0  0  0  0  0  0  0  0  0  0
   -3.3647   -0.1741   -3.0366 H   0  0  0  0  0  0  0  0  0  0  0  0
   -4.7236   -1.1225   -5.1184 N   0  0  0  0  0  0  0  0  0  0  0  0
   -5.3836   -0.8647   -4.1137 O   0  0  0  0  0  0  0  0  0  0  0  0
   -5.1828   -1.5674   -6.1689 O   0  0  0  0  0  0  0  0  0  0  0  0
    5.4364    5.1467   -8.8715 N   0  0  0  0  0  0  0  0  0  0  0  0
    4.6748    4.4788   -8.4290 N   0  0  0  0  0  0  0  0  0  0  0  0
    1.5459    1.1742   -4.7373 S   0  0  0  0  0  0  0  0  0  0  0  0
    1.8275    1.5540   -6.5491 C   0  0  0  0  0  0  0  0  0  0  0  0
    0.5983    2.1481   -4.2235 O   0  0  0  0  0  0  0  0  0  0  0  0
    2.8366    0.9111   -4.1366 O   0  0  0  0  0  0  0  0  0  0  0  0
    0.8234   -0.3064   -4.9018 O   0  0  0  0  0  0  0  0  0  0  0  0
    0.6501    1.5840   -7.1763 F   0  0  0  0  0  0  0  0  0  0  0  0
    2.4202    2.7393   -6.6404 F   0  0  0  0  0  0  0  0  0  0  0  0
    2.5972    0.6142   -7.0864 F   0  0  0  0  0  0  0  0  0  0  0  0
  1  2  2  0  0  0  0
  1  6  1  0  0  0  0
  2  3  1  0  0  0  0
  3 20  1  0  0  0  0
  3  4  2  0  0  0  0
  4  9  1  0  0  0  0
  5  4  1  0  0  0  0
  5 10  1  0  0  0  0
  6  5  2  0  0  0  0
  7  1  1  0  0  0  0
  8  2  1  0  0  0  0
 11  6  1  0  0  0  0
 11 12  2  0  0  0  0
 13 11  2  0  0  0  0
 14 15  3  0  0  0  0
 16 18  2  0  0  0  0
 16 19  2  0  0  0  0
 17 16  1  0  0  0  0
 20 16  1  0  0  0  0
 21 17  1  0  0  0  0
 22 17  1  0  0  0  0
 23 17  1  0  0  0  0
M  END
