Coordinates from ORCA-job 4-NO2-Ph-N2-OTf-B3LYPG-6-31G_dp-MTMO-d009-169-n800
 OpenBabel09051908473D

 23 22  0  0  0  0  0  0  0  0999 V2000
   -2.4388   -1.0014   -6.2904 C   0  0  0  0  0  0  0  0  0  0  0  0
   -1.0797   -0.7136   -6.2171 C   0  0  0  0  0  0  0  0  0  0  0  0
   -0.5283   -0.3529   -4.9877 C   0  0  0  0  0  0  0  0  0  0  0  0
   -1.2961   -0.2710   -3.8260 C   0  0  0  0  0  0  0  0  0  0  0  0
   -2.6577   -0.5493   -3.9010 C   0  0  0  0  0  0  0  0  0  0  0  0
   -3.2060   -0.9115   -5.1301 C   0  0  0  0  0  0  0  0  0  0  0  0
   -2.9096   -1.2891   -7.2216 H   0  0  0  0  0  0  0  0  0  0  0  0
   -0.4451   -0.7684   -7.0939 H   0  0  0  0  0  0  0  0  0  0  0  0
   -0.8358    0.0071   -2.8860 H   0  0  0  0  0  0  0  0  0  0  0  0
   -3.2949   -0.4965   -3.0273 H   0  0  0  0  0  0  0  0  0  0  0  0
   -4.6458   -1.2129   -5.2055 N   0  0  0  0  0  0  0  0  0  0  0  0
   -5.2991   -1.1287   -4.1674 O   0  0  0  0  0  0  0  0  0  0  0  0
   -5.1025   -1.5302   -6.3024 O   0  0  0  0  0  0  0  0  0  0  0  0
    5.1356    4.1000   -9.2070 N   0  0  0  0  0  0  0  0  0  0  0  0
    4.3651    3.5490   -8.6374 N   0  0  0  0  0  0  0  0  0  0  0  0
    1.5120    1.3165   -4.5896 S   0  0  0  0  0  0  0  0  0  0  0  0
    1.8094    1.9146   -6.3394 C   0  0  0  0  0  0  0  0  0  0  0  0
    0.5102    2.1822   -3.9918 O   0  0  0  0  0  0  0  0  0  0  0  0
    2.8028    1.0464   -3.9920 O   0  0  0  0  0  0  0  0  0  0  0  0
    0.8607   -0.1661   -4.9381 O   0  0  0  0  0  0  0  0  0  0  0  0
    0.6530    1.9104   -7.0056 F   0  0  0  0  0  0  0  0  0  0  0  0
    2.2903    3.1516   -6.2766 F   0  0  0  0  0  0  0  0  0  0  0  0
    2.6792    1.1149   -6.9440 F   0  0  0  0  0  0  0  0  0  0  0  0
  1  2  2  0  0  0  0
  1  6  1  0  0  0  0
  2  3  1  0  0  0  0
  3 20  1  0  0  0  0
  3  4  2  0  0  0  0
  4  9  1  0  0  0  0
  5  4  1  0  0  0  0
  5 10  1  0  0  0  0
  6  5  2  0  0  0  0
  7  1  1  0  0  0  0
  8  2  1  0  0  0  0
 11  6  1  0  0  0  0
 11 12  2  0  0  0  0
 13 11  2  0  0  0  0
 14 15  3  0  0  0  0
 16 19  2  0  0  0  0
 16 18  2  0  0  0  0
 17 22  1  0  0  0  0
 17 16  1  0  0  0  0
 20 16  1  0  0  0  0
 21 17  1  0  0  0  0
 23 17  1  0  0  0  0
M  END
