Coordinates from ORCA-job 4-NO2-Ph-N2-OTf-B3LYPG-6-31G_dp-MTMO-d009-169-n800
 OpenBabel09051908473D

 23 22  0  0  0  0  0  0  0  0999 V2000
   -1.9735   -1.5370   -5.4607 C   0  0  0  0  0  0  0  0  0  0  0  0
   -0.6467   -1.1446   -5.3141 C   0  0  0  0  0  0  0  0  0  0  0  0
   -0.3598    0.2035   -5.1029 C   0  0  0  0  0  0  0  0  0  0  0  0
   -1.3581    1.1746   -5.0327 C   0  0  0  0  0  0  0  0  0  0  0  0
   -2.6848    0.7831   -5.1868 C   0  0  0  0  0  0  0  0  0  0  0  0
   -2.9701   -0.5648   -5.3967 C   0  0  0  0  0  0  0  0  0  0  0  0
   -2.2464   -2.5715   -5.6255 H   0  0  0  0  0  0  0  0  0  0  0  0
    0.1612   -1.8652   -5.3600 H   0  0  0  0  0  0  0  0  0  0  0  0
   -1.0956    2.2106   -4.8556 H   0  0  0  0  0  0  0  0  0  0  0  0
   -3.4956    1.4987   -5.1414 H   0  0  0  0  0  0  0  0  0  0  0  0
   -4.3753   -0.9780   -5.5536 N   0  0  0  0  0  0  0  0  0  0  0  0
   -5.2354   -0.1017   -5.4903 O   0  0  0  0  0  0  0  0  0  0  0  0
   -4.5980   -2.1734   -5.7376 O   0  0  0  0  0  0  0  0  0  0  0  0
    0.4662    4.3971   -4.2203 N   0  0  0  0  0  0  0  0  0  0  0  0
    1.0289    5.3273   -4.0238 N   0  0  0  0  0  0  0  0  0  0  0  0
    1.8286    1.4268   -5.9838 S   0  0  0  0  0  0  0  0  0  0  0  0
    2.7732    0.0115   -6.7604 C   0  0  0  0  0  0  0  0  0  0  0  0
    0.9352    1.9710   -6.9915 O   0  0  0  0  0  0  0  0  0  0  0  0
    2.7775    2.2251   -5.2350 O   0  0  0  0  0  0  0  0  0  0  0  0
    0.9771    0.5554   -4.8644 O   0  0  0  0  0  0  0  0  0  0  0  0
    1.9069   -0.8658   -7.2727 F   0  0  0  0  0  0  0  0  0  0  0  0
    3.5406    0.5031   -7.7278 F   0  0  0  0  0  0  0  0  0  0  0  0
    3.5229   -0.5846   -5.8404 F   0  0  0  0  0  0  0  0  0  0  0  0
  1  6  2  0  0  0  0
  1  2  1  0  0  0  0
  2  3  2  0  0  0  0
  3  4  1  0  0  0  0
  3 20  1  0  0  0  0
  4  9  1  0  0  0  0
  5 10  1  0  0  0  0
  5  4  2  0  0  0  0
  6  5  1  0  0  0  0
  7  1  1  0  0  0  0
  8  2  1  0  0  0  0
 11 12  2  0  0  0  0
 11  6  1  0  0  0  0
 13 11  2  0  0  0  0
 14 15  3  0  0  0  0
 16 19  2  0  0  0  0
 16 20  1  0  0  0  0
 17 16  1  0  0  0  0
 17 23  1  0  0  0  0
 18 16  2  0  0  0  0
 21 17  1  0  0  0  0
 22 17  1  0  0  0  0
M  END
