Coordinates from ORCA-job 4-NO2-Ph-N2-OTf-B3LYPG-6-31G_dp-MTMO-d009-169-n800
 OpenBabel09051908473D

 23 22  0  0  0  0  0  0  0  0999 V2000
   -2.6055   -1.2515   -6.1354 C   0  0  0  0  0  0  0  0  0  0  0  0
   -1.2340   -1.0381   -6.0445 C   0  0  0  0  0  0  0  0  0  0  0  0
   -0.6988   -0.5657   -4.8461 C   0  0  0  0  0  0  0  0  0  0  0  0
   -1.4947   -0.3017   -3.7311 C   0  0  0  0  0  0  0  0  0  0  0  0
   -2.8683   -0.5055   -3.8253 C   0  0  0  0  0  0  0  0  0  0  0  0
   -3.4006   -0.9782   -5.0235 C   0  0  0  0  0  0  0  0  0  0  0  0
   -3.0649   -1.6195   -7.0438 H   0  0  0  0  0  0  0  0  0  0  0  0
   -0.5766   -1.2354   -6.8834 H   0  0  0  0  0  0  0  0  0  0  0  0
   -1.0466    0.0594   -2.8138 H   0  0  0  0  0  0  0  0  0  0  0  0
   -3.5275   -0.3114   -2.9889 H   0  0  0  0  0  0  0  0  0  0  0  0
   -4.8538   -1.1996   -5.1177 N   0  0  0  0  0  0  0  0  0  0  0  0
   -5.5318   -0.9525   -4.1224 O   0  0  0  0  0  0  0  0  0  0  0  0
   -5.2960   -1.6182   -6.1862 O   0  0  0  0  0  0  0  0  0  0  0  0
    6.8505    6.2966   -9.9174 N   0  0  0  0  0  0  0  0  0  0  0  0
    6.0447    5.6548   -9.5169 N   0  0  0  0  0  0  0  0  0  0  0  0
    1.4314    1.0111   -4.5582 S   0  0  0  0  0  0  0  0  0  0  0  0
    1.6654    1.4750   -6.3563 C   0  0  0  0  0  0  0  0  0  0  0  0
    0.5047    1.9659   -3.9752 O   0  0  0  0  0  0  0  0  0  0  0  0
    2.7350    0.7120   -4.0048 O   0  0  0  0  0  0  0  0  0  0  0  0
    0.6971   -0.4565   -4.7706 O   0  0  0  0  0  0  0  0  0  0  0  0
    0.4714    1.5514   -6.9468 F   0  0  0  0  0  0  0  0  0  0  0  0
    2.2721    2.6557   -6.4075 F   0  0  0  0  0  0  0  0  0  0  0  0
    2.4060    0.5533   -6.9621 F   0  0  0  0  0  0  0  0  0  0  0  0
  1  2  2  0  0  0  0
  1  6  1  0  0  0  0
  2  3  1  0  0  0  0
  3 20  1  0  0  0  0
  3  4  2  0  0  0  0
  4  9  1  0  0  0  0
  5  4  1  0  0  0  0
  5 10  1  0  0  0  0
  6  5  2  0  0  0  0
  7  1  1  0  0  0  0
  8  2  1  0  0  0  0
 11  6  1  0  0  0  0
 11 12  2  0  0  0  0
 13 11  2  0  0  0  0
 14 15  3  0  0  0  0
 16 19  2  0  0  0  0
 16 18  2  0  0  0  0
 17 16  1  0  0  0  0
 20 16  1  0  0  0  0
 21 17  1  0  0  0  0
 22 17  1  0  0  0  0
 23 17  1  0  0  0  0
M  END
