Coordinates from ORCA-job 4-NO2-Ph-N2-OTf-B3LYPG-6-31G_dp-MTMO-d009-169-n800
 OpenBabel09051908483D

 23 22  0  0  0  0  0  0  0  0999 V2000
   -2.8833   -1.4662   -5.9715 C   0  0  0  0  0  0  0  0  0  0  0  0
   -1.5126   -1.2434   -5.8916 C   0  0  0  0  0  0  0  0  0  0  0  0
   -0.9697   -0.7782   -4.6939 C   0  0  0  0  0  0  0  0  0  0  0  0
   -1.7568   -0.5304   -3.5691 C   0  0  0  0  0  0  0  0  0  0  0  0
   -3.1298   -0.7436   -3.6523 C   0  0  0  0  0  0  0  0  0  0  0  0
   -3.6698   -1.2092   -4.8497 C   0  0  0  0  0  0  0  0  0  0  0  0
   -3.3485   -1.8294   -6.8790 H   0  0  0  0  0  0  0  0  0  0  0  0
   -0.8618   -1.4281   -6.7384 H   0  0  0  0  0  0  0  0  0  0  0  0
   -1.3029   -0.1746   -2.6526 H   0  0  0  0  0  0  0  0  0  0  0  0
   -3.7824   -0.5623   -2.8078 H   0  0  0  0  0  0  0  0  0  0  0  0
   -5.1222   -1.4408   -4.9323 N   0  0  0  0  0  0  0  0  0  0  0  0
   -5.7926   -1.2074   -3.9286 O   0  0  0  0  0  0  0  0  0  0  0  0
   -5.5712   -1.8535   -6.0002 O   0  0  0  0  0  0  0  0  0  0  0  0
    9.7636    8.5328  -11.6004 N   0  0  0  0  0  0  0  0  0  0  0  0
    8.9470    7.8910  -11.2224 N   0  0  0  0  0  0  0  0  0  0  0  0
    1.1523    0.8107   -4.4100 S   0  0  0  0  0  0  0  0  0  0  0  0
    1.3667    1.2938   -6.2053 C   0  0  0  0  0  0  0  0  0  0  0  0
    0.2245    1.7535   -3.8094 O   0  0  0  0  0  0  0  0  0  0  0  0
    2.4628    0.5155   -3.8711 O   0  0  0  0  0  0  0  0  0  0  0  0
    0.4262   -0.6596   -4.6304 O   0  0  0  0  0  0  0  0  0  0  0  0
    0.1670    1.3671   -6.7845 F   0  0  0  0  0  0  0  0  0  0  0  0
    1.9642    2.4796   -6.2505 F   0  0  0  0  0  0  0  0  0  0  0  0
    2.1087    0.3838   -6.8269 F   0  0  0  0  0  0  0  0  0  0  0  0
  1  2  2  0  0  0  0
  1  6  1  0  0  0  0
  2  3  1  0  0  0  0
  3 20  1  0  0  0  0
  3  4  2  0  0  0  0
  4  9  1  0  0  0  0
  5  4  1  0  0  0  0
  5 10  1  0  0  0  0
  6  5  2  0  0  0  0
  7  1  1  0  0  0  0
  8  2  1  0  0  0  0
 11  6  1  0  0  0  0
 11 12  2  0  0  0  0
 13 11  2  0  0  0  0
 14 15  3  0  0  0  0
 16 19  2  0  0  0  0
 16 18  2  0  0  0  0
 17 16  1  0  0  0  0
 20 16  1  0  0  0  0
 21 17  1  0  0  0  0
 22 17  1  0  0  0  0
 23 17  1  0  0  0  0
M  END
