Coordinates from ORCA-job 4-NO2-Ph-N2-OTf-B3LYPG-6-31G_dp-MTMO-d009-169-n800
 OpenBabel09051908473D

 23 22  0  0  0  0  0  0  0  0999 V2000
   -2.0705   -0.6193   -6.2749 C   0  0  0  0  0  0  0  0  0  0  0  0
   -0.7169   -0.3083   -6.1780 C   0  0  0  0  0  0  0  0  0  0  0  0
   -0.2761    0.4319   -5.0800 C   0  0  0  0  0  0  0  0  0  0  0  0
   -1.1468    0.8397   -4.0677 C   0  0  0  0  0  0  0  0  0  0  0  0
   -2.4954    0.5162   -4.1593 C   0  0  0  0  0  0  0  0  0  0  0  0
   -2.9385   -0.2049   -5.2672 C   0  0  0  0  0  0  0  0  0  0  0  0
   -2.4581   -1.1868   -7.1116 H   0  0  0  0  0  0  0  0  0  0  0  0
   -0.0246   -0.6331   -6.9426 H   0  0  0  0  0  0  0  0  0  0  0  0
   -0.7566    1.4024   -3.2276 H   0  0  0  0  0  0  0  0  0  0  0  0
   -3.2039    0.8140   -3.3970 H   0  0  0  0  0  0  0  0  0  0  0  0
   -4.3659   -0.5460   -5.3705 N   0  0  0  0  0  0  0  0  0  0  0  0
   -5.1057   -0.1743   -4.4608 O   0  0  0  0  0  0  0  0  0  0  0  0
   -4.7286   -1.1821   -6.3586 O   0  0  0  0  0  0  0  0  0  0  0  0
   -0.5385    3.3068   -5.9058 N   0  0  0  0  0  0  0  0  0  0  0  0
   -1.3035    3.9339   -6.3985 N   0  0  0  0  0  0  0  0  0  0  0  0
    2.1242    1.2651   -5.9986 S   0  0  0  0  0  0  0  0  0  0  0  0
    3.1735   -0.2802   -6.0950 C   0  0  0  0  0  0  0  0  0  0  0  0
    1.4648    1.4267   -7.2831 O   0  0  0  0  0  0  0  0  0  0  0  0
    2.9229    2.2972   -5.3718 O   0  0  0  0  0  0  0  0  0  0  0  0
    1.0739    0.7174   -4.8456 O   0  0  0  0  0  0  0  0  0  0  0  0
    2.4137   -1.3024   -6.4963 F   0  0  0  0  0  0  0  0  0  0  0  0
    4.1401   -0.0648   -6.9821 F   0  0  0  0  0  0  0  0  0  0  0  0
    3.6959   -0.5480   -4.9052 F   0  0  0  0  0  0  0  0  0  0  0  0
  1  2  2  0  0  0  0
  1  6  1  0  0  0  0
  2  3  1  0  0  0  0
  3 20  1  0  0  0  0
  3  4  2  0  0  0  0
  4  9  1  0  0  0  0
  5  4  1  0  0  0  0
  5 10  1  0  0  0  0
  6  5  2  0  0  0  0
  7  1  1  0  0  0  0
  8  2  1  0  0  0  0
 11  6  1  0  0  0  0
 11 12  2  0  0  0  0
 13 11  2  0  0  0  0
 15 14  3  0  0  0  0
 16 19  2  0  0  0  0
 16 20  1  0  0  0  0
 17 16  1  0  0  0  0
 17 23  1  0  0  0  0
 18 16  2  0  0  0  0
 21 17  1  0  0  0  0
 22 17  1  0  0  0  0
M  END
