Coordinates from ORCA-job 4-NO2-Ph-N2-OTf-B3LYPG-6-31G_dp-MTMO-d009-169-n800
 OpenBabel09051908473D

 23 22  0  0  0  0  0  0  0  0999 V2000
   -2.0705   -0.4825   -6.3231 C   0  0  0  0  0  0  0  0  0  0  0  0
   -0.7250   -0.1314   -6.2493 C   0  0  0  0  0  0  0  0  0  0  0  0
   -0.2728    0.5519   -5.1188 C   0  0  0  0  0  0  0  0  0  0  0  0
   -1.1209    0.8404   -4.0458 C   0  0  0  0  0  0  0  0  0  0  0  0
   -2.4594    0.4779   -4.1176 C   0  0  0  0  0  0  0  0  0  0  0  0
   -2.9183   -0.1733   -5.2624 C   0  0  0  0  0  0  0  0  0  0  0  0
   -2.4666   -1.0030   -7.1860 H   0  0  0  0  0  0  0  0  0  0  0  0
   -0.0540   -0.3737   -7.0614 H   0  0  0  0  0  0  0  0  0  0  0  0
   -0.7202    1.3521   -3.1785 H   0  0  0  0  0  0  0  0  0  0  0  0
   -3.1487    0.6910   -3.3105 H   0  0  0  0  0  0  0  0  0  0  0  0
   -4.3356   -0.5557   -5.3455 N   0  0  0  0  0  0  0  0  0  0  0  0
   -5.0556   -0.2782   -4.3874 O   0  0  0  0  0  0  0  0  0  0  0  0
   -4.7111   -1.1298   -6.3664 O   0  0  0  0  0  0  0  0  0  0  0  0
   -0.6082    3.0428   -5.9965 N   0  0  0  0  0  0  0  0  0  0  0  0
   -1.4650    3.5844   -6.4379 N   0  0  0  0  0  0  0  0  0  0  0  0
    2.1777    1.2889   -6.0339 S   0  0  0  0  0  0  0  0  0  0  0  0
    3.1290   -0.3213   -6.0183 C   0  0  0  0  0  0  0  0  0  0  0  0
    1.5732    1.4242   -7.3483 O   0  0  0  0  0  0  0  0  0  0  0  0
    3.0174    2.3023   -5.4314 O   0  0  0  0  0  0  0  0  0  0  0  0
    1.0666    0.8781   -4.8850 O   0  0  0  0  0  0  0  0  0  0  0  0
    2.3144   -1.3132   -6.3851 F   0  0  0  0  0  0  0  0  0  0  0  0
    4.1295   -0.2163   -6.8876 F   0  0  0  0  0  0  0  0  0  0  0  0
    3.6031   -0.5546   -4.8012 F   0  0  0  0  0  0  0  0  0  0  0  0
  1  2  2  0  0  0  0
  1  6  1  0  0  0  0
  2  3  1  0  0  0  0
  3 20  1  0  0  0  0
  3  4  2  0  0  0  0
  4  9  1  0  0  0  0
  5  4  1  0  0  0  0
  5 10  1  0  0  0  0
  6  5  2  0  0  0  0
  7  1  1  0  0  0  0
  8  2  1  0  0  0  0
 11  6  1  0  0  0  0
 11 12  2  0  0  0  0
 13 11  2  0  0  0  0
 15 14  3  0  0  0  0
 16 17  1  0  0  0  0
 16 19  2  0  0  0  0
 16 20  1  0  0  0  0
 17 23  1  0  0  0  0
 18 16  2  0  0  0  0
 21 17  1  0  0  0  0
 22 17  1  0  0  0  0
M  END
