Coordinates from ORCA-job 4-NO2-Ph-N2-OTf-B3LYPG-6-31G_dp-MTMO-d009-169-n800
 OpenBabel09051908473D

 23 22  0  0  0  0  0  0  0  0999 V2000
   -2.6517   -1.2827   -6.1134 C   0  0  0  0  0  0  0  0  0  0  0  0
   -1.2804   -1.0681   -6.0205 C   0  0  0  0  0  0  0  0  0  0  0  0
   -0.7462   -0.6045   -4.8183 C   0  0  0  0  0  0  0  0  0  0  0  0
   -1.5425   -0.3507   -3.7014 C   0  0  0  0  0  0  0  0  0  0  0  0
   -2.9159   -0.5556   -3.7975 C   0  0  0  0  0  0  0  0  0  0  0  0
   -3.4473   -1.0193   -4.9995 C   0  0  0  0  0  0  0  0  0  0  0  0
   -3.1104   -1.6441   -7.0248 H   0  0  0  0  0  0  0  0  0  0  0  0
   -0.6227   -1.2580   -6.8608 H   0  0  0  0  0  0  0  0  0  0  0  0
   -1.0951    0.0036   -2.7811 H   0  0  0  0  0  0  0  0  0  0  0  0
   -3.5755   -0.3692   -2.9596 H   0  0  0  0  0  0  0  0  0  0  0  0
   -4.9002   -1.2420   -5.0957 N   0  0  0  0  0  0  0  0  0  0  0  0
   -5.5788   -1.0033   -4.0987 O   0  0  0  0  0  0  0  0  0  0  0  0
   -5.3415   -1.6531   -6.1675 O   0  0  0  0  0  0  0  0  0  0  0  0
    7.3639    6.6776  -10.2411 N   0  0  0  0  0  0  0  0  0  0  0  0
    6.5491    6.0362   -9.8583 N   0  0  0  0  0  0  0  0  0  0  0  0
    1.3819    0.9728   -4.5171 S   0  0  0  0  0  0  0  0  0  0  0  0
    1.6126    1.4540   -6.3110 C   0  0  0  0  0  0  0  0  0  0  0  0
    0.4546    1.9209   -3.9241 O   0  0  0  0  0  0  0  0  0  0  0  0
    2.6867    0.6707   -3.9683 O   0  0  0  0  0  0  0  0  0  0  0  0
    0.6496   -0.4939   -4.7418 O   0  0  0  0  0  0  0  0  0  0  0  0
    0.4177    1.5337   -6.8992 F   0  0  0  0  0  0  0  0  0  0  0  0
    2.2169    2.6364   -6.3518 F   0  0  0  0  0  0  0  0  0  0  0  0
    2.3542    0.5396   -6.9265 F   0  0  0  0  0  0  0  0  0  0  0  0
  1  2  2  0  0  0  0
  1  6  1  0  0  0  0
  2  3  1  0  0  0  0
  3 20  1  0  0  0  0
  3  4  2  0  0  0  0
  4  9  1  0  0  0  0
  5  4  1  0  0  0  0
  5 10  1  0  0  0  0
  6  5  2  0  0  0  0
  7  1  1  0  0  0  0
  8  2  1  0  0  0  0
 11  6  1  0  0  0  0
 11 12  2  0  0  0  0
 13 11  2  0  0  0  0
 14 15  3  0  0  0  0
 16 19  2  0  0  0  0
 16 18  2  0  0  0  0
 17 16  1  0  0  0  0
 20 16  1  0  0  0  0
 21 17  1  0  0  0  0
 22 17  1  0  0  0  0
 23 17  1  0  0  0  0
M  END
