Coordinates from ORCA-job 4-NO2-Ph-N2-OTf-B3LYPG-6-31G_dp-MTMO-d009-169-n800
 OpenBabel09051908473D

 23 22  0  0  0  0  0  0  0  0999 V2000
   -2.2328   -0.8869   -6.3981 C   0  0  0  0  0  0  0  0  0  0  0  0
   -0.8774   -0.6501   -6.1932 C   0  0  0  0  0  0  0  0  0  0  0  0
   -0.4307   -0.3347   -4.9101 C   0  0  0  0  0  0  0  0  0  0  0  0
   -1.2998   -0.2484   -3.8226 C   0  0  0  0  0  0  0  0  0  0  0  0
   -2.6572   -0.4760   -4.0290 C   0  0  0  0  0  0  0  0  0  0  0  0
   -3.1008   -0.7931   -5.3115 C   0  0  0  0  0  0  0  0  0  0  0  0
   -2.6252   -1.1386   -7.3750 H   0  0  0  0  0  0  0  0  0  0  0  0
   -0.1662   -0.7099   -7.0087 H   0  0  0  0  0  0  0  0  0  0  0  0
   -0.9190   -0.0055   -2.8383 H   0  0  0  0  0  0  0  0  0  0  0  0
   -3.3706   -0.4181   -3.2169 H   0  0  0  0  0  0  0  0  0  0  0  0
   -4.5368   -1.0412   -5.5261 N   0  0  0  0  0  0  0  0  0  0  0  0
   -5.2802   -0.9550   -4.5507 O   0  0  0  0  0  0  0  0  0  0  0  0
   -4.9001   -1.3193   -6.6676 O   0  0  0  0  0  0  0  0  0  0  0  0
    3.5339    3.6962   -9.7894 N   0  0  0  0  0  0  0  0  0  0  0  0
    3.0938    3.1421   -8.9407 N   0  0  0  0  0  0  0  0  0  0  0  0
    1.6185    1.2546   -4.2981 S   0  0  0  0  0  0  0  0  0  0  0  0
    2.0803    1.8673   -6.0071 C   0  0  0  0  0  0  0  0  0  0  0  0
    0.5982    2.1430   -3.7687 O   0  0  0  0  0  0  0  0  0  0  0  0
    2.8455    0.9321   -3.6004 O   0  0  0  0  0  0  0  0  0  0  0  0
    0.9528   -0.1996   -4.7274 O   0  0  0  0  0  0  0  0  0  0  0  0
    0.9789    1.9544   -6.7540 F   0  0  0  0  0  0  0  0  0  0  0  0
    2.6371    3.0669   -5.8786 F   0  0  0  0  0  0  0  0  0  0  0  0
    2.9371    1.0211   -6.5658 F   0  0  0  0  0  0  0  0  0  0  0  0
  1  2  2  0  0  0  0
  1  6  1  0  0  0  0
  2  3  1  0  0  0  0
  3 20  1  0  0  0  0
  3  4  2  0  0  0  0
  4  9  1  0  0  0  0
  5  4  1  0  0  0  0
  5 10  1  0  0  0  0
  6  5  2  0  0  0  0
  7  1  1  0  0  0  0
  8  2  1  0  0  0  0
 11  6  1  0  0  0  0
 11 12  2  0  0  0  0
 13 11  2  0  0  0  0
 14 15  3  0  0  0  0
 16 18  2  0  0  0  0
 16 19  2  0  0  0  0
 17 22  1  0  0  0  0
 17 16  1  0  0  0  0
 20 16  1  0  0  0  0
 21 17  1  0  0  0  0
 23 17  1  0  0  0  0
M  END
