Coordinates from ORCA-job 4-NO2-Ph-N2-OTf-B3LYPG-6-31G_dp-MTMO-d009-169-n800
 OpenBabel09051908473D

 23 22  0  0  0  0  0  0  0  0999 V2000
   -1.9764   -1.5466   -5.4647 C   0  0  0  0  0  0  0  0  0  0  0  0
   -0.6477   -1.1629   -5.3123 C   0  0  0  0  0  0  0  0  0  0  0  0
   -0.3538    0.1822   -5.0923 C   0  0  0  0  0  0  0  0  0  0  0  0
   -1.3465    1.1588   -5.0192 C   0  0  0  0  0  0  0  0  0  0  0  0
   -2.6749    0.7760   -5.1796 C   0  0  0  0  0  0  0  0  0  0  0  0
   -2.9676   -0.5691   -5.3979 C   0  0  0  0  0  0  0  0  0  0  0  0
   -2.2550   -2.5786   -5.6362 H   0  0  0  0  0  0  0  0  0  0  0  0
    0.1561   -1.8880   -5.3597 H   0  0  0  0  0  0  0  0  0  0  0  0
   -1.0786    2.1926   -4.8374 H   0  0  0  0  0  0  0  0  0  0  0  0
   -3.4817    1.4961   -5.1326 H   0  0  0  0  0  0  0  0  0  0  0  0
   -4.3747   -0.9732   -5.5609 N   0  0  0  0  0  0  0  0  0  0  0  0
   -5.2298   -0.0923   -5.4948 O   0  0  0  0  0  0  0  0  0  0  0  0
   -4.6039   -2.1662   -5.7522 O   0  0  0  0  0  0  0  0  0  0  0  0
    0.4364    4.4530   -4.2489 N   0  0  0  0  0  0  0  0  0  0  0  0
    1.0188    5.3823   -4.1157 N   0  0  0  0  0  0  0  0  0  0  0  0
    1.8400    1.4196   -5.9432 S   0  0  0  0  0  0  0  0  0  0  0  0
    2.7624    0.0189   -6.7717 C   0  0  0  0  0  0  0  0  0  0  0  0
    0.9480    2.0072   -6.9275 O   0  0  0  0  0  0  0  0  0  0  0  0
    2.8016    2.1822   -5.1738 O   0  0  0  0  0  0  0  0  0  0  0  0
    0.9849    0.5229   -4.8470 O   0  0  0  0  0  0  0  0  0  0  0  0
    1.8815   -0.8304   -7.3055 F   0  0  0  0  0  0  0  0  0  0  0  0
    3.5293    0.5319   -7.7282 F   0  0  0  0  0  0  0  0  0  0  0  0
    3.5106   -0.6153   -5.8765 F   0  0  0  0  0  0  0  0  0  0  0  0
  1  6  2  0  0  0  0
  1  2  1  0  0  0  0
  2  3  2  0  0  0  0
  3  4  1  0  0  0  0
  3 20  1  0  0  0  0
  4  9  1  0  0  0  0
  5 10  1  0  0  0  0
  5  4  2  0  0  0  0
  6  5  1  0  0  0  0
  7  1  1  0  0  0  0
  8  2  1  0  0  0  0
 11 12  2  0  0  0  0
 11  6  1  0  0  0  0
 13 11  2  0  0  0  0
 14 15  3  0  0  0  0
 16 19  2  0  0  0  0
 16 20  1  0  0  0  0
 17 16  1  0  0  0  0
 17 23  1  0  0  0  0
 18 16  2  0  0  0  0
 21 17  1  0  0  0  0
 22 17  1  0  0  0  0
M  END
