Coordinates from ORCA-job 4-NO2-Ph-N2-OTf-B3LYPG-6-31G_dp-MTMO-d009-169-n800
 OpenBabel09051908473D

 23 22  0  0  0  0  0  0  0  0999 V2000
   -1.9469   -1.3811   -6.1491 C   0  0  0  0  0  0  0  0  0  0  0  0
   -0.6269   -1.1611   -5.7689 C   0  0  0  0  0  0  0  0  0  0  0  0
   -0.3582   -0.2437   -4.7532 C   0  0  0  0  0  0  0  0  0  0  0  0
   -1.3705    0.4615   -4.1027 C   0  0  0  0  0  0  0  0  0  0  0  0
   -2.6906    0.2477   -4.4885 C   0  0  0  0  0  0  0  0  0  0  0  0
   -2.9568   -0.6702   -5.5029 C   0  0  0  0  0  0  0  0  0  0  0  0
   -2.2047   -2.0844   -6.9311 H   0  0  0  0  0  0  0  0  0  0  0  0
    0.1919   -1.6895   -6.2428 H   0  0  0  0  0  0  0  0  0  0  0  0
   -1.1251    1.1633   -3.3150 H   0  0  0  0  0  0  0  0  0  0  0  0
   -3.5108    0.7716   -4.0155 H   0  0  0  0  0  0  0  0  0  0  0  0
   -4.3553   -0.8996   -5.9053 N   0  0  0  0  0  0  0  0  0  0  0  0
   -5.2268   -0.2603   -5.3193 O   0  0  0  0  0  0  0  0  0  0  0  0
   -4.5608   -1.7162   -6.8015 O   0  0  0  0  0  0  0  0  0  0  0  0
    1.0356    5.1002   -7.7987 N   0  0  0  0  0  0  0  0  0  0  0  0
    1.3736    4.0611   -7.6335 N   0  0  0  0  0  0  0  0  0  0  0  0
    1.8173    1.2842   -4.5696 S   0  0  0  0  0  0  0  0  0  0  0  0
    2.5292    0.9110   -6.2610 C   0  0  0  0  0  0  0  0  0  0  0  0
    0.9062    2.4075   -4.7058 O   0  0  0  0  0  0  0  0  0  0  0  0
    2.9055    1.2417   -3.6158 O   0  0  0  0  0  0  0  0  0  0  0  0
    0.9751   -0.1214   -4.3372 O   0  0  0  0  0  0  0  0  0  0  0  0
    1.5346    0.8276   -7.1453 F   0  0  0  0  0  0  0  0  0  0  0  0
    3.3558    1.8946   -6.5964 F   0  0  0  0  0  0  0  0  0  0  0  0
    3.1880   -0.2435   -6.2190 F   0  0  0  0  0  0  0  0  0  0  0  0
  1  2  2  0  0  0  0
  1  6  1  0  0  0  0
  2  3  1  0  0  0  0
  3 20  1  0  0  0  0
  3  4  2  0  0  0  0
  4  9  1  0  0  0  0
  5  4  1  0  0  0  0
  5 10  1  0  0  0  0
  6  5  2  0  0  0  0
  7  1  1  0  0  0  0
  8  2  1  0  0  0  0
 11  6  1  0  0  0  0
 11 12  2  0  0  0  0
 13 11  2  0  0  0  0
 14 15  3  0  0  0  0
 16 20  1  0  0  0  0
 16 19  2  0  0  0  0
 17 23  1  0  0  0  0
 17 16  1  0  0  0  0
 18 16  2  0  0  0  0
 21 17  1  0  0  0  0
 22 17  1  0  0  0  0
M  END
