Coordinates from ORCA-job 4-NO2-Ph-N2-OTf-B3LYPG-6-31G_dp-MTMO-d009-169-n800
 OpenBabel09051908473D

 23 22  0  0  0  0  0  0  0  0999 V2000
   -1.9586   -0.4564   -6.3127 C   0  0  0  0  0  0  0  0  0  0  0  0
   -1.0151    0.5589   -6.5111 C   0  0  0  0  0  0  0  0  0  0  0  0
   -1.0703    1.5217   -5.5495 C   0  0  0  0  0  0  0  0  0  0  0  0
   -1.8645    1.6956   -4.4495 C   0  0  0  0  0  0  0  0  0  0  0  0
   -2.7908    0.6578   -4.2875 C   0  0  0  0  0  0  0  0  0  0  0  0
   -2.8207   -0.3812   -5.2182 C   0  0  0  0  0  0  0  0  0  0  0  0
   -2.0186   -1.2989   -6.9906 H   0  0  0  0  0  0  0  0  0  0  0  0
   -0.2622    0.5696   -7.2910 H   0  0  0  0  0  0  0  0  0  0  0  0
   -1.7790    2.5236   -3.7586 H   0  0  0  0  0  0  0  0  0  0  0  0
   -3.4785    0.6529   -3.4505 H   0  0  0  0  0  0  0  0  0  0  0  0
   -3.8151   -1.4598   -5.0288 N   0  0  0  0  0  0  0  0  0  0  0  0
   -4.5534   -1.3754   -4.0517 O   0  0  0  0  0  0  0  0  0  0  0  0
   -3.8321   -2.3580   -5.8640 O   0  0  0  0  0  0  0  0  0  0  0  0
   -0.0043    2.9780   -5.9137 N   0  0  0  0  0  0  0  0  0  0  0  0
    0.2033    4.0672   -5.8723 N   0  0  0  0  0  0  0  0  0  0  0  0
    2.3856    1.1908   -5.7286 S   0  0  0  0  0  0  0  0  0  0  0  0
    2.6325   -0.6070   -6.1380 C   0  0  0  0  0  0  0  0  0  0  0  0
    1.6880    1.7123   -6.9636 O   0  0  0  0  0  0  0  0  0  0  0  0
    3.7302    1.7211   -5.5054 O   0  0  0  0  0  0  0  0  0  0  0  0
    1.4586    1.1723   -4.5649 O   0  0  0  0  0  0  0  0  0  0  0  0
    1.4466   -1.1820   -6.4443 F   0  0  0  0  0  0  0  0  0  0  0  0
    3.4444   -0.7449   -7.1890 F   0  0  0  0  0  0  0  0  0  0  0  0
    3.1532   -1.2571   -5.0944 F   0  0  0  0  0  0  0  0  0  0  0  0
  1  6  1  0  0  0  0
  2  1  2  0  0  0  0
  2  3  1  0  0  0  0
  3  4  2  0  0  0  0
  4  5  1  0  0  0  0
  4  9  1  0  0  0  0
  5 10  1  0  0  0  0
  6 11  1  0  0  0  0
  6  5  2  0  0  0  0
  7  1  1  0  0  0  0
  8  2  1  0  0  0  0
 11 12  2  0  0  0  0
 13 11  2  0  0  0  0
 14 15  2  0  0  0  0
 14  3  1  0  0  0  0
 16 19  2  0  0  0  0
 16 20  1  0  0  0  0
 17 16  1  0  0  0  0
 17 23  1  0  0  0  0
 18 16  2  0  0  0  0
 21 17  1  0  0  0  0
 22 17  1  0  0  0  0
M  RAD  2  15   2  20   2
M  END
