Coordinates from ORCA-job 4-NO2-Ph-N2-OTf-B3LYPG-6-31G_dp-MTMO-d009-169-n800
 OpenBabel09051908483D

 23 22  0  0  0  0  0  0  0  0999 V2000
   -2.7973   -1.3979   -6.0250 C   0  0  0  0  0  0  0  0  0  0  0  0
   -1.4263   -1.1797   -5.9381 C   0  0  0  0  0  0  0  0  0  0  0  0
   -0.8879   -0.7160   -4.7378 C   0  0  0  0  0  0  0  0  0  0  0  0
   -1.6799   -0.4656   -3.6170 C   0  0  0  0  0  0  0  0  0  0  0  0
   -3.0531   -0.6742   -3.7072 C   0  0  0  0  0  0  0  0  0  0  0  0
   -3.5886   -1.1381   -4.9073 C   0  0  0  0  0  0  0  0  0  0  0  0
   -3.2591   -1.7597   -6.9348 H   0  0  0  0  0  0  0  0  0  0  0  0
   -0.7718   -1.3668   -6.7816 H   0  0  0  0  0  0  0  0  0  0  0  0
   -1.2294   -0.1111   -2.6983 H   0  0  0  0  0  0  0  0  0  0  0  0
   -3.7094   -0.4905   -2.8661 H   0  0  0  0  0  0  0  0  0  0  0  0
   -5.0414   -1.3647   -4.9973 N   0  0  0  0  0  0  0  0  0  0  0  0
   -5.7161   -1.1290   -3.9970 O   0  0  0  0  0  0  0  0  0  0  0  0
   -5.4863   -1.7759   -6.0675 O   0  0  0  0  0  0  0  0  0  0  0  0
    8.8841    7.8570  -11.1091 N   0  0  0  0  0  0  0  0  0  0  0  0
    8.0633    7.2167  -10.7378 N   0  0  0  0  0  0  0  0  0  0  0  0
    1.2375    0.8664   -4.4440 S   0  0  0  0  0  0  0  0  0  0  0  0
    1.4581    1.3510   -6.2382 C   0  0  0  0  0  0  0  0  0  0  0  0
    0.3107    1.8111   -3.8450 O   0  0  0  0  0  0  0  0  0  0  0  0
    2.5458    0.5667   -3.9022 O   0  0  0  0  0  0  0  0  0  0  0  0
    0.5080   -0.6018   -4.6674 O   0  0  0  0  0  0  0  0  0  0  0  0
    0.2601    1.4291   -6.8203 F   0  0  0  0  0  0  0  0  0  0  0  0
    2.0596    2.5348   -6.2801 F   0  0  0  0  0  0  0  0  0  0  0  0
    2.1986    0.4393   -6.8590 F   0  0  0  0  0  0  0  0  0  0  0  0
  1  2  2  0  0  0  0
  1  6  1  0  0  0  0
  2  3  1  0  0  0  0
  3 20  1  0  0  0  0
  3  4  2  0  0  0  0
  4  9  1  0  0  0  0
  5  4  1  0  0  0  0
  5 10  1  0  0  0  0
  6  5  2  0  0  0  0
  7  1  1  0  0  0  0
  8  2  1  0  0  0  0
 11  6  1  0  0  0  0
 11 12  2  0  0  0  0
 13 11  2  0  0  0  0
 14 15  3  0  0  0  0
 16 19  2  0  0  0  0
 16 18  2  0  0  0  0
 17 16  1  0  0  0  0
 20 16  1  0  0  0  0
 21 17  1  0  0  0  0
 22 17  1  0  0  0  0
 23 17  1  0  0  0  0
M  END
