Coordinates from ORCA-job 4-NO2-Ph-N2-OTf-B3LYPG-6-31G_dp-MTMO-d009-169-n800
 OpenBabel09051908473D

 23 22  0  0  0  0  0  0  0  0999 V2000
   -2.5039   -1.1752   -6.1757 C   0  0  0  0  0  0  0  0  0  0  0  0
   -1.1331   -0.9455   -6.1189 C   0  0  0  0  0  0  0  0  0  0  0  0
   -0.5784   -0.4391   -4.9435 C   0  0  0  0  0  0  0  0  0  0  0  0
   -1.3542   -0.1543   -3.8196 C   0  0  0  0  0  0  0  0  0  0  0  0
   -2.7272   -0.3745   -3.8798 C   0  0  0  0  0  0  0  0  0  0  0  0
   -3.2787   -0.8829   -5.0545 C   0  0  0  0  0  0  0  0  0  0  0  0
   -2.9780   -1.5702   -7.0651 H   0  0  0  0  0  0  0  0  0  0  0  0
   -0.4912   -1.1560   -6.9665 H   0  0  0  0  0  0  0  0  0  0  0  0
   -0.8913    0.2343   -2.9210 H   0  0  0  0  0  0  0  0  0  0  0  0
   -3.3712   -0.1660   -3.0350 H   0  0  0  0  0  0  0  0  0  0  0  0
   -4.7310   -1.1223   -5.1126 N   0  0  0  0  0  0  0  0  0  0  0  0
   -5.3908   -0.8587   -4.1094 O   0  0  0  0  0  0  0  0  0  0  0  0
   -5.1906   -1.5712   -6.1613 O   0  0  0  0  0  0  0  0  0  0  0  0
    5.4919    5.2253   -8.8841 N   0  0  0  0  0  0  0  0  0  0  0  0
    4.7325    4.5505   -8.4484 N   0  0  0  0  0  0  0  0  0  0  0  0
    1.5425    1.1652   -4.7405 S   0  0  0  0  0  0  0  0  0  0  0  0
    1.8248    1.5354   -6.5542 C   0  0  0  0  0  0  0  0  0  0  0  0
    0.5965    2.1433   -4.2317 O   0  0  0  0  0  0  0  0  0  0  0  0
    2.8326    0.9029   -4.1383 O   0  0  0  0  0  0  0  0  0  0  0  0
    0.8174   -0.3149   -4.8979 O   0  0  0  0  0  0  0  0  0  0  0  0
    0.6475    1.5655   -7.1813 F   0  0  0  0  0  0  0  0  0  0  0  0
    2.4209    2.7186   -6.6518 F   0  0  0  0  0  0  0  0  0  0  0  0
    2.5919    0.5907   -7.0869 F   0  0  0  0  0  0  0  0  0  0  0  0
  1  2  2  0  0  0  0
  1  6  1  0  0  0  0
  2  3  1  0  0  0  0
  3 20  1  0  0  0  0
  3  4  2  0  0  0  0
  4  9  1  0  0  0  0
  5  4  1  0  0  0  0
  5 10  1  0  0  0  0
  6  5  2  0  0  0  0
  7  1  1  0  0  0  0
  8  2  1  0  0  0  0
 11  6  1  0  0  0  0
 11 12  2  0  0  0  0
 13 11  2  0  0  0  0
 14 15  3  0  0  0  0
 16 18  2  0  0  0  0
 16 19  2  0  0  0  0
 17 16  1  0  0  0  0
 20 16  1  0  0  0  0
 21 17  1  0  0  0  0
 22 17  1  0  0  0  0
 23 17  1  0  0  0  0
M  END
