Coordinates from ORCA-job 4-NO2-Ph-N2-OTf-B3LYPG-6-31G_dp-MTMO-d009-169-n800
 OpenBabel09051908473D

 23 22  0  0  0  0  0  0  0  0999 V2000
   -2.5904   -1.2433   -6.1402 C   0  0  0  0  0  0  0  0  0  0  0  0
   -1.2187   -1.0301   -6.0517 C   0  0  0  0  0  0  0  0  0  0  0  0
   -0.6823   -0.5512   -4.8564 C   0  0  0  0  0  0  0  0  0  0  0  0
   -1.4770   -0.2804   -3.7423 C   0  0  0  0  0  0  0  0  0  0  0  0
   -2.8509   -0.4840   -3.8342 C   0  0  0  0  0  0  0  0  0  0  0  0
   -3.3844   -0.9633   -5.0292 C   0  0  0  0  0  0  0  0  0  0  0  0
   -3.0508   -1.6162   -7.0461 H   0  0  0  0  0  0  0  0  0  0  0  0
   -0.5622   -1.2324   -6.8900 H   0  0  0  0  0  0  0  0  0  0  0  0
   -1.0280    0.0858   -2.8275 H   0  0  0  0  0  0  0  0  0  0  0  0
   -3.5092   -0.2848   -2.9982 H   0  0  0  0  0  0  0  0  0  0  0  0
   -4.8378   -1.1846   -5.1208 N   0  0  0  0  0  0  0  0  0  0  0  0
   -5.5148   -0.9318   -4.1262 O   0  0  0  0  0  0  0  0  0  0  0  0
   -5.2811   -1.6086   -6.1867 O   0  0  0  0  0  0  0  0  0  0  0  0
    6.6691    6.1691   -9.7847 N   0  0  0  0  0  0  0  0  0  0  0  0
    5.8681    5.5223   -9.3826 N   0  0  0  0  0  0  0  0  0  0  0  0
    1.4490    1.0260   -4.5795 S   0  0  0  0  0  0  0  0  0  0  0  0
    1.6845    1.4773   -6.3806 C   0  0  0  0  0  0  0  0  0  0  0  0
    0.5226    1.9854   -4.0036 O   0  0  0  0  0  0  0  0  0  0  0  0
    2.7520    0.7299   -4.0232 O   0  0  0  0  0  0  0  0  0  0  0  0
    0.7137   -0.4423   -4.7827 O   0  0  0  0  0  0  0  0  0  0  0  0
    0.4909    1.5505   -6.9724 F   0  0  0  0  0  0  0  0  0  0  0  0
    2.2923    2.6570   -6.4398 F   0  0  0  0  0  0  0  0  0  0  0  0
    2.4246    0.5507   -6.9795 F   0  0  0  0  0  0  0  0  0  0  0  0
  1  2  2  0  0  0  0
  1  6  1  0  0  0  0
  2  3  1  0  0  0  0
  3 20  1  0  0  0  0
  3  4  2  0  0  0  0
  4  9  1  0  0  0  0
  5  4  1  0  0  0  0
  5 10  1  0  0  0  0
  6  5  2  0  0  0  0
  7  1  1  0  0  0  0
  8  2  1  0  0  0  0
 11  6  1  0  0  0  0
 11 12  2  0  0  0  0
 13 11  2  0  0  0  0
 14 15  3  0  0  0  0
 16 19  2  0  0  0  0
 16 18  2  0  0  0  0
 17 16  1  0  0  0  0
 20 16  1  0  0  0  0
 21 17  1  0  0  0  0
 22 17  1  0  0  0  0
 23 17  1  0  0  0  0
M  END
