Coordinates from ORCA-job 4-NO2-Ph-N2-OTf-B3LYPG-6-31G_dp-MTMO-d009-169-n800
 OpenBabel09051908473D

 23 22  0  0  0  0  0  0  0  0999 V2000
   -2.0686   -0.6776   -6.2554 C   0  0  0  0  0  0  0  0  0  0  0  0
   -0.7143   -0.3725   -6.1530 C   0  0  0  0  0  0  0  0  0  0  0  0
   -0.2804    0.4011   -5.0756 C   0  0  0  0  0  0  0  0  0  0  0  0
   -1.1594    0.8526   -4.0899 C   0  0  0  0  0  0  0  0  0  0  0  0
   -2.5095    0.5354   -4.1862 C   0  0  0  0  0  0  0  0  0  0  0  0
   -2.9447   -0.2216   -5.2729 C   0  0  0  0  0  0  0  0  0  0  0  0
   -2.4510   -1.2711   -7.0764 H   0  0  0  0  0  0  0  0  0  0  0  0
   -0.0143   -0.7286   -6.8965 H   0  0  0  0  0  0  0  0  0  0  0  0
   -0.7748    1.4415   -3.2653 H   0  0  0  0  0  0  0  0  0  0  0  0
   -3.2249    0.8651   -3.4438 H   0  0  0  0  0  0  0  0  0  0  0  0
   -4.3736   -0.5562   -5.3810 N   0  0  0  0  0  0  0  0  0  0  0  0
   -5.1214   -0.1458   -4.4948 O   0  0  0  0  0  0  0  0  0  0  0  0
   -4.7292   -1.2253   -6.3496 O   0  0  0  0  0  0  0  0  0  0  0  0
   -0.4869    3.4006   -5.8422 N   0  0  0  0  0  0  0  0  0  0  0  0
   -1.2209    4.0781   -6.3149 N   0  0  0  0  0  0  0  0  0  0  0  0
    2.1027    1.2580   -5.9986 S   0  0  0  0  0  0  0  0  0  0  0  0
    3.1783   -0.2674   -6.1198 C   0  0  0  0  0  0  0  0  0  0  0  0
    1.4254    1.4200   -7.2737 O   0  0  0  0  0  0  0  0  0  0  0  0
    2.8917    2.2975   -5.3712 O   0  0  0  0  0  0  0  0  0  0  0  0
    1.0715    0.6802   -4.8418 O   0  0  0  0  0  0  0  0  0  0  0  0
    2.4353   -1.2990   -6.5289 F   0  0  0  0  0  0  0  0  0  0  0  0
    4.1353   -0.0241   -7.0100 F   0  0  0  0  0  0  0  0  0  0  0  0
    3.7129   -0.5398   -4.9364 F   0  0  0  0  0  0  0  0  0  0  0  0
  1  2  2  0  0  0  0
  1  6  1  0  0  0  0
  2  3  1  0  0  0  0
  3 20  1  0  0  0  0
  3  4  2  0  0  0  0
  4  9  1  0  0  0  0
  5  4  1  0  0  0  0
  5 10  1  0  0  0  0
  6  5  2  0  0  0  0
  7  1  1  0  0  0  0
  8  2  1  0  0  0  0
 11  6  1  0  0  0  0
 11 12  2  0  0  0  0
 13 11  2  0  0  0  0
 15 14  3  0  0  0  0
 16 19  2  0  0  0  0
 16 20  1  0  0  0  0
 17 16  1  0  0  0  0
 17 23  1  0  0  0  0
 18 16  2  0  0  0  0
 21 17  1  0  0  0  0
 22 17  1  0  0  0  0
M  END
