Coordinates from ORCA-job 4-NO2-Ph-N2-OTf-B3LYPG-6-31G_dp-MTMO-d009-169-n800
 OpenBabel09051908473D

 23 22  0  0  0  0  0  0  0  0999 V2000
   -2.3297   -0.9058   -6.3585 C   0  0  0  0  0  0  0  0  0  0  0  0
   -0.9722   -0.6410   -6.2084 C   0  0  0  0  0  0  0  0  0  0  0  0
   -0.4771   -0.3371   -4.9404 C   0  0  0  0  0  0  0  0  0  0  0  0
   -1.2996   -0.2895   -3.8149 C   0  0  0  0  0  0  0  0  0  0  0  0
   -2.6591   -0.5455   -3.9661 C   0  0  0  0  0  0  0  0  0  0  0  0
   -3.1511   -0.8510   -5.2337 C   0  0  0  0  0  0  0  0  0  0  0  0
   -2.7586   -1.1497   -7.3219 H   0  0  0  0  0  0  0  0  0  0  0  0
   -0.2966   -0.6697   -7.0552 H   0  0  0  0  0  0  0  0  0  0  0  0
   -0.8815   -0.0549   -2.8437 H   0  0  0  0  0  0  0  0  0  0  0  0
   -3.3374   -0.5181   -3.1228 H   0  0  0  0  0  0  0  0  0  0  0  0
   -4.5892   -1.1288   -5.3904 N   0  0  0  0  0  0  0  0  0  0  0  0
   -5.2908   -1.0782   -4.3821 O   0  0  0  0  0  0  0  0  0  0  0  0
   -4.9961   -1.3942   -6.5202 O   0  0  0  0  0  0  0  0  0  0  0  0
    4.2762    3.8031   -9.6502 N   0  0  0  0  0  0  0  0  0  0  0  0
    3.6445    3.2878   -8.9040 N   0  0  0  0  0  0  0  0  0  0  0  0
    1.5567    1.2965   -4.4016 S   0  0  0  0  0  0  0  0  0  0  0  0
    1.9793    1.9091   -6.1205 C   0  0  0  0  0  0  0  0  0  0  0  0
    0.5289    2.1686   -3.8597 O   0  0  0  0  0  0  0  0  0  0  0  0
    2.8015    1.0014   -3.7235 O   0  0  0  0  0  0  0  0  0  0  0  0
    0.9095   -0.1715   -4.8136 O   0  0  0  0  0  0  0  0  0  0  0  0
    0.8684    1.9475   -6.8585 F   0  0  0  0  0  0  0  0  0  0  0  0
    2.4903    3.1305   -6.0083 F   0  0  0  0  0  0  0  0  0  0  0  0
    2.8628    1.0915   -6.6797 F   0  0  0  0  0  0  0  0  0  0  0  0
  1  2  2  0  0  0  0
  1  6  1  0  0  0  0
  2  3  1  0  0  0  0
  3 20  1  0  0  0  0
  3  4  2  0  0  0  0
  4  9  1  0  0  0  0
  5  4  1  0  0  0  0
  5 10  1  0  0  0  0
  6  5  2  0  0  0  0
  7  1  1  0  0  0  0
  8  2  1  0  0  0  0
 11  6  1  0  0  0  0
 11 12  2  0  0  0  0
 13 11  2  0  0  0  0
 14 15  3  0  0  0  0
 16 18  2  0  0  0  0
 16 19  2  0  0  0  0
 17 22  1  0  0  0  0
 17 16  1  0  0  0  0
 20 16  1  0  0  0  0
 21 17  1  0  0  0  0
 23 17  1  0  0  0  0
M  END
