Coordinates from ORCA-job 4-NO2-Ph-N2-OTf-B3LYPG-6-31G_dp-MTMO-d009-169-n800
 OpenBabel09051908473D

 23 22  0  0  0  0  0  0  0  0999 V2000
   -2.5421   -1.2145   -6.1588 C   0  0  0  0  0  0  0  0  0  0  0  0
   -1.1703   -0.9981   -6.0786 C   0  0  0  0  0  0  0  0  0  0  0  0
   -0.6297   -0.5040   -4.8915 C   0  0  0  0  0  0  0  0  0  0  0  0
   -1.4203   -0.2206   -3.7776 C   0  0  0  0  0  0  0  0  0  0  0  0
   -2.7942   -0.4275   -3.8612 C   0  0  0  0  0  0  0  0  0  0  0  0
   -3.3319   -0.9222   -5.0480 C   0  0  0  0  0  0  0  0  0  0  0  0
   -3.0057   -1.5991   -7.0582 H   0  0  0  0  0  0  0  0  0  0  0  0
   -0.5170   -1.2095   -6.9172 H   0  0  0  0  0  0  0  0  0  0  0  0
   -0.9680    0.1574   -2.8692 H   0  0  0  0  0  0  0  0  0  0  0  0
   -3.4494   -0.2191   -3.0251 H   0  0  0  0  0  0  0  0  0  0  0  0
   -4.7853   -1.1470   -5.1308 N   0  0  0  0  0  0  0  0  0  0  0  0
   -5.4584   -0.8839   -4.1363 O   0  0  0  0  0  0  0  0  0  0  0  0
   -5.2324   -1.5841   -6.1898 O   0  0  0  0  0  0  0  0  0  0  0  0
    6.1206    5.7339   -9.3868 N   0  0  0  0  0  0  0  0  0  0  0  0
    5.3280    5.0898   -8.9645 N   0  0  0  0  0  0  0  0  0  0  0  0
    1.5007    1.0790   -4.6425 S   0  0  0  0  0  0  0  0  0  0  0  0
    1.7343    1.5046   -6.4501 C   0  0  0  0  0  0  0  0  0  0  0  0
    0.5738    2.0455   -4.0793 O   0  0  0  0  0  0  0  0  0  0  0  0
    2.8044    0.7918   -4.0829 O   0  0  0  0  0  0  0  0  0  0  0  0
    0.7664   -0.3927   -4.8247 O   0  0  0  0  0  0  0  0  0  0  0  0
    0.5401    1.5675   -7.0419 F   0  0  0  0  0  0  0  0  0  0  0  0
    2.3406    2.6839   -6.5270 F   0  0  0  0  0  0  0  0  0  0  0  0
    2.4751    0.5700   -7.0358 F   0  0  0  0  0  0  0  0  0  0  0  0
  1  2  2  0  0  0  0
  1  6  1  0  0  0  0
  2  3  1  0  0  0  0
  3 20  1  0  0  0  0
  3  4  2  0  0  0  0
  4  9  1  0  0  0  0
  5  4  1  0  0  0  0
  5 10  1  0  0  0  0
  6  5  2  0  0  0  0
  7  1  1  0  0  0  0
  8  2  1  0  0  0  0
 11  6  1  0  0  0  0
 11 12  2  0  0  0  0
 13 11  2  0  0  0  0
 14 15  3  0  0  0  0
 16 19  2  0  0  0  0
 16 18  2  0  0  0  0
 17 16  1  0  0  0  0
 20 16  1  0  0  0  0
 21 17  1  0  0  0  0
 22 17  1  0  0  0  0
 23 17  1  0  0  0  0
M  END
