Coordinates from ORCA-job 4-NO2-Ph-N2-OTf-B3LYPG-6-31G_dp-MTMO-d009-169-n800
 OpenBabel09051908483D

 23 22  0  0  0  0  0  0  0  0999 V2000
   -2.7170   -1.3338   -6.0744 C   0  0  0  0  0  0  0  0  0  0  0  0
   -1.3458   -1.1182   -5.9833 C   0  0  0  0  0  0  0  0  0  0  0  0
   -0.8102   -0.6554   -4.7814 C   0  0  0  0  0  0  0  0  0  0  0  0
   -1.6052   -0.4033   -3.6631 C   0  0  0  0  0  0  0  0  0  0  0  0
   -2.9785   -0.6093   -3.7574 C   0  0  0  0  0  0  0  0  0  0  0  0
   -3.5113   -1.0723   -4.9591 C   0  0  0  0  0  0  0  0  0  0  0  0
   -3.1768   -1.6948   -6.9855 H   0  0  0  0  0  0  0  0  0  0  0  0
   -0.6892   -1.3067   -6.8248 H   0  0  0  0  0  0  0  0  0  0  0  0
   -1.1568   -0.0496   -2.7431 H   0  0  0  0  0  0  0  0  0  0  0  0
   -3.6370   -0.4243   -2.9183 H   0  0  0  0  0  0  0  0  0  0  0  0
   -4.9641   -1.2962   -5.0534 N   0  0  0  0  0  0  0  0  0  0  0  0
   -5.6415   -1.0590   -4.0552 O   0  0  0  0  0  0  0  0  0  0  0  0
   -5.4066   -1.7065   -6.1250 O   0  0  0  0  0  0  0  0  0  0  0  0
    8.0494    7.2116  -10.6349 N   0  0  0  0  0  0  0  0  0  0  0  0
    7.2293    6.5699  -10.2644 N   0  0  0  0  0  0  0  0  0  0  0  0
    1.3170    0.9233   -4.4815 S   0  0  0  0  0  0  0  0  0  0  0  0
    1.5441    1.4070   -6.2752 C   0  0  0  0  0  0  0  0  0  0  0  0
    0.3900    1.8699   -3.8857 O   0  0  0  0  0  0  0  0  0  0  0  0
    2.6231    0.6216   -3.9355 O   0  0  0  0  0  0  0  0  0  0  0  0
    0.5856   -0.5436   -4.7068 O   0  0  0  0  0  0  0  0  0  0  0  0
    0.3481    1.4868   -6.8612 F   0  0  0  0  0  0  0  0  0  0  0  0
    2.1476    2.5899   -6.3156 F   0  0  0  0  0  0  0  0  0  0  0  0
    2.2851    0.4939   -6.8934 F   0  0  0  0  0  0  0  0  0  0  0  0
  1  2  2  0  0  0  0
  1  6  1  0  0  0  0
  2  3  1  0  0  0  0
  3 20  1  0  0  0  0
  3  4  2  0  0  0  0
  4  9  1  0  0  0  0
  5  4  1  0  0  0  0
  5 10  1  0  0  0  0
  6  5  2  0  0  0  0
  7  1  1  0  0  0  0
  8  2  1  0  0  0  0
 11  6  1  0  0  0  0
 11 12  2  0  0  0  0
 13 11  2  0  0  0  0
 14 15  3  0  0  0  0
 16 19  2  0  0  0  0
 16 18  2  0  0  0  0
 17 16  1  0  0  0  0
 20 16  1  0  0  0  0
 21 17  1  0  0  0  0
 22 17  1  0  0  0  0
 23 17  1  0  0  0  0
M  END
