Coordinates from ORCA-job 4-NO2-Ph-N2-OTf-B3LYPG-6-31G_dp-MTMO-d009-169-n800
 OpenBabel09051908473D

 23 22  0  0  0  0  0  0  0  0999 V2000
   -2.0993   -0.8882   -6.4408 C   0  0  0  0  0  0  0  0  0  0  0  0
   -0.7500   -0.6919   -6.1660 C   0  0  0  0  0  0  0  0  0  0  0  0
   -0.3653   -0.3418   -4.8717 C   0  0  0  0  0  0  0  0  0  0  0  0
   -1.2905   -0.1832   -3.8398 C   0  0  0  0  0  0  0  0  0  0  0  0
   -2.6416   -0.3696   -4.1173 C   0  0  0  0  0  0  0  0  0  0  0  0
   -3.0234   -0.7207   -5.4107 C   0  0  0  0  0  0  0  0  0  0  0  0
   -2.4448   -1.1647   -7.4286 H   0  0  0  0  0  0  0  0  0  0  0  0
    0.0049   -0.8109   -6.9347 H   0  0  0  0  0  0  0  0  0  0  0  0
   -0.9571    0.0846   -2.8450 H   0  0  0  0  0  0  0  0  0  0  0  0
   -3.3974   -0.2552   -3.3509 H   0  0  0  0  0  0  0  0  0  0  0  0
   -4.4532   -0.9252   -5.6994 N   0  0  0  0  0  0  0  0  0  0  0  0
   -5.2472   -0.7719   -4.7733 O   0  0  0  0  0  0  0  0  0  0  0  0
   -4.7610   -1.2363   -6.8486 O   0  0  0  0  0  0  0  0  0  0  0  0
    2.6790    3.4165   -9.9426 N   0  0  0  0  0  0  0  0  0  0  0  0
    2.6313    3.0489   -8.9018 N   0  0  0  0  0  0  0  0  0  0  0  0
    1.7129    1.1786   -4.1745 S   0  0  0  0  0  0  0  0  0  0  0  0
    2.0801    1.8594   -5.8808 C   0  0  0  0  0  0  0  0  0  0  0  0
    0.7367    2.0555   -3.5511 O   0  0  0  0  0  0  0  0  0  0  0  0
    2.9714    0.8102   -3.5617 O   0  0  0  0  0  0  0  0  0  0  0  0
    1.0108   -0.2516   -4.6202 O   0  0  0  0  0  0  0  0  0  0  0  0
    0.9289    2.0553   -6.5254 F   0  0  0  0  0  0  0  0  0  0  0  0
    2.7248    3.0117   -5.7411 F   0  0  0  0  0  0  0  0  0  0  0  0
    2.8291    0.9917   -6.5519 F   0  0  0  0  0  0  0  0  0  0  0  0
  1  2  2  0  0  0  0
  1  6  1  0  0  0  0
  2  3  1  0  0  0  0
  3 20  1  0  0  0  0
  3  4  2  0  0  0  0
  4  9  1  0  0  0  0
  5  4  1  0  0  0  0
  5 10  1  0  0  0  0
  6  5  2  0  0  0  0
  7  1  1  0  0  0  0
  8  2  1  0  0  0  0
 11  6  1  0  0  0  0
 11 12  2  0  0  0  0
 13 11  2  0  0  0  0
 14 15  3  0  0  0  0
 16 19  2  0  0  0  0
 16 18  2  0  0  0  0
 17 22  1  0  0  0  0
 17 16  1  0  0  0  0
 20 16  1  0  0  0  0
 21 17  1  0  0  0  0
 23 17  1  0  0  0  0
M  END
