Coordinates from ORCA-job 4-NO2-Ph-N2-OTf-B3LYPG-6-31G_dp-MTMO-d009-169-n800
 OpenBabel09051908473D

 23 22  0  0  0  0  0  0  0  0999 V2000
   -2.0717   -0.6134   -6.2773 C   0  0  0  0  0  0  0  0  0  0  0  0
   -0.7181   -0.3017   -6.1815 C   0  0  0  0  0  0  0  0  0  0  0  0
   -0.2763    0.4354   -5.0819 C   0  0  0  0  0  0  0  0  0  0  0  0
   -1.1460    0.8390   -4.0668 C   0  0  0  0  0  0  0  0  0  0  0  0
   -2.4944    0.5149   -4.1575 C   0  0  0  0  0  0  0  0  0  0  0  0
   -2.9386   -0.2030   -5.2671 C   0  0  0  0  0  0  0  0  0  0  0  0
   -2.4601   -1.1786   -7.1153 H   0  0  0  0  0  0  0  0  0  0  0  0
   -0.0269   -0.6236   -6.9483 H   0  0  0  0  0  0  0  0  0  0  0  0
   -0.7549    1.3996   -3.2258 H   0  0  0  0  0  0  0  0  0  0  0  0
   -3.2020    0.8097   -3.3932 H   0  0  0  0  0  0  0  0  0  0  0  0
   -4.3659   -0.5448   -5.3694 N   0  0  0  0  0  0  0  0  0  0  0  0
   -5.1046   -0.1768   -4.4573 O   0  0  0  0  0  0  0  0  0  0  0  0
   -4.7296   -1.1777   -6.3592 O   0  0  0  0  0  0  0  0  0  0  0  0
   -0.5383    3.2902   -5.9050 N   0  0  0  0  0  0  0  0  0  0  0  0
   -1.3061    3.9132   -6.3988 N   0  0  0  0  0  0  0  0  0  0  0  0
    2.1253    1.2665   -6.0016 S   0  0  0  0  0  0  0  0  0  0  0  0
    3.1734   -0.2800   -6.0913 C   0  0  0  0  0  0  0  0  0  0  0  0
    1.4688    1.4249   -7.2880 O   0  0  0  0  0  0  0  0  0  0  0  0
    2.9234    2.3003   -5.3767 O   0  0  0  0  0  0  0  0  0  0  0  0
    1.0733    0.7226   -4.8482 O   0  0  0  0  0  0  0  0  0  0  0  0
    2.4129   -1.3025   -6.4904 F   0  0  0  0  0  0  0  0  0  0  0  0
    4.1416   -0.0687   -6.9776 F   0  0  0  0  0  0  0  0  0  0  0  0
    3.6936   -0.5444   -4.8998 F   0  0  0  0  0  0  0  0  0  0  0  0
  1  2  2  0  0  0  0
  1  6  1  0  0  0  0
  2  3  1  0  0  0  0
  3 20  1  0  0  0  0
  3  4  2  0  0  0  0
  4  9  1  0  0  0  0
  5  4  1  0  0  0  0
  5 10  1  0  0  0  0
  6  5  2  0  0  0  0
  7  1  1  0  0  0  0
  8  2  1  0  0  0  0
 11  6  1  0  0  0  0
 11 12  2  0  0  0  0
 13 11  2  0  0  0  0
 15 14  3  0  0  0  0
 16 19  2  0  0  0  0
 16 20  1  0  0  0  0
 17 16  1  0  0  0  0
 17 23  1  0  0  0  0
 18 16  2  0  0  0  0
 21 17  1  0  0  0  0
 22 17  1  0  0  0  0
M  END
