Coordinates from ORCA-job 4-NO2-Ph-N2-OTf-B3LYPG-6-31G_dp-MTMO-d009-169-n800
 OpenBabel09051908473D

 23 22  0  0  0  0  0  0  0  0999 V2000
   -2.0812   -0.3956   -6.3589 C   0  0  0  0  0  0  0  0  0  0  0  0
   -0.7483   -0.0069   -6.3088 C   0  0  0  0  0  0  0  0  0  0  0  0
   -0.3013    0.7308   -5.2014 C   0  0  0  0  0  0  0  0  0  0  0  0
   -1.1134    0.8836   -4.0654 C   0  0  0  0  0  0  0  0  0  0  0  0
   -2.4395    0.4848   -4.1148 C   0  0  0  0  0  0  0  0  0  0  0  0
   -2.9165   -0.1271   -5.2753 C   0  0  0  0  0  0  0  0  0  0  0  0
   -2.4785   -0.9240   -7.2166 H   0  0  0  0  0  0  0  0  0  0  0  0
   -0.0864   -0.2142   -7.1381 H   0  0  0  0  0  0  0  0  0  0  0  0
   -0.6984    1.3599   -3.1847 H   0  0  0  0  0  0  0  0  0  0  0  0
   -3.1055    0.6267   -3.2730 H   0  0  0  0  0  0  0  0  0  0  0  0
   -4.3225   -0.5462   -5.3350 N   0  0  0  0  0  0  0  0  0  0  0  0
   -5.0257   -0.3169   -4.3515 O   0  0  0  0  0  0  0  0  0  0  0  0
   -4.7081   -1.1001   -6.3637 O   0  0  0  0  0  0  0  0  0  0  0  0
   -0.5858    2.6490   -5.9578 N   0  0  0  0  0  0  0  0  0  0  0  0
   -1.4915    3.1832   -6.3122 N   0  0  0  0  0  0  0  0  0  0  0  0
    2.2088    1.3188   -6.0663 S   0  0  0  0  0  0  0  0  0  0  0  0
    3.0970   -0.3243   -5.9684 C   0  0  0  0  0  0  0  0  0  0  0  0
    1.6475    1.4288   -7.4030 O   0  0  0  0  0  0  0  0  0  0  0  0
    3.0686    2.3233   -5.4767 O   0  0  0  0  0  0  0  0  0  0  0  0
    1.0522    0.9811   -4.9386 O   0  0  0  0  0  0  0  0  0  0  0  0
    2.2529   -1.2962   -6.3184 F   0  0  0  0  0  0  0  0  0  0  0  0
    4.1202   -0.2887   -6.8169 F   0  0  0  0  0  0  0  0  0  0  0  0
    3.5345   -0.5287   -4.7325 F   0  0  0  0  0  0  0  0  0  0  0  0
  1  2  2  0  0  0  0
  1  6  1  0  0  0  0
  2  3  1  0  0  0  0
  3 20  1  0  0  0  0
  3  4  2  0  0  0  0
  4  9  1  0  0  0  0
  5  4  1  0  0  0  0
  5 10  1  0  0  0  0
  6  5  2  0  0  0  0
  7  1  1  0  0  0  0
  8  2  1  0  0  0  0
 11  6  1  0  0  0  0
 11 12  2  0  0  0  0
 13 11  2  0  0  0  0
 15 14  3  0  0  0  0
 16 17  1  0  0  0  0
 16 19  2  0  0  0  0
 16 20  1  0  0  0  0
 17 23  1  0  0  0  0
 18 16  2  0  0  0  0
 21 17  1  0  0  0  0
 22 17  1  0  0  0  0
M  END
