Coordinates from ORCA-job 4-NO2-Ph-N2-OTf-B3LYPG-6-31G_dp-MTMO-d009-169-n800
 OpenBabel09051908483D

 23 22  0  0  0  0  0  0  0  0999 V2000
   -2.7794   -1.3836   -6.0361 C   0  0  0  0  0  0  0  0  0  0  0  0
   -1.4083   -1.1661   -5.9481 C   0  0  0  0  0  0  0  0  0  0  0  0
   -0.8706   -0.7026   -4.7474 C   0  0  0  0  0  0  0  0  0  0  0  0
   -1.6634   -0.4517   -3.6272 C   0  0  0  0  0  0  0  0  0  0  0  0
   -3.0367   -0.6596   -3.7184 C   0  0  0  0  0  0  0  0  0  0  0  0
   -3.5715   -1.1233   -4.9190 C   0  0  0  0  0  0  0  0  0  0  0  0
   -3.2407   -1.7451   -6.9462 H   0  0  0  0  0  0  0  0  0  0  0  0
   -0.7533   -1.3536   -6.7911 H   0  0  0  0  0  0  0  0  0  0  0  0
   -1.2134   -0.0974   -2.7082 H   0  0  0  0  0  0  0  0  0  0  0  0
   -3.6935   -0.4756   -2.8778 H   0  0  0  0  0  0  0  0  0  0  0  0
   -5.0243   -1.3492   -5.0100 N   0  0  0  0  0  0  0  0  0  0  0  0
   -5.6996   -1.1130   -4.0103 O   0  0  0  0  0  0  0  0  0  0  0  0
   -5.4686   -1.7602   -6.0806 O   0  0  0  0  0  0  0  0  0  0  0  0
    8.6983    7.7138  -11.0038 N   0  0  0  0  0  0  0  0  0  0  0  0
    7.8772    7.0734  -10.6334 N   0  0  0  0  0  0  0  0  0  0  0  0
    1.2553    0.8788   -4.4521 S   0  0  0  0  0  0  0  0  0  0  0  0
    1.4775    1.3631   -6.2461 C   0  0  0  0  0  0  0  0  0  0  0  0
    0.3285    1.8240   -3.8539 O   0  0  0  0  0  0  0  0  0  0  0  0
    2.5630    0.5786   -3.9092 O   0  0  0  0  0  0  0  0  0  0  0  0
    0.5252   -0.5891   -4.6759 O   0  0  0  0  0  0  0  0  0  0  0  0
    0.2800    1.4417   -6.8293 F   0  0  0  0  0  0  0  0  0  0  0  0
    2.0796    2.5467   -6.2877 F   0  0  0  0  0  0  0  0  0  0  0  0
    2.2182    0.4510   -6.8663 F   0  0  0  0  0  0  0  0  0  0  0  0
  1  2  2  0  0  0  0
  1  6  1  0  0  0  0
  2  3  1  0  0  0  0
  3 20  1  0  0  0  0
  3  4  2  0  0  0  0
  4  9  1  0  0  0  0
  5  4  1  0  0  0  0
  5 10  1  0  0  0  0
  6  5  2  0  0  0  0
  7  1  1  0  0  0  0
  8  2  1  0  0  0  0
 11  6  1  0  0  0  0
 11 12  2  0  0  0  0
 13 11  2  0  0  0  0
 14 15  3  0  0  0  0
 16 19  2  0  0  0  0
 16 18  2  0  0  0  0
 17 16  1  0  0  0  0
 20 16  1  0  0  0  0
 21 17  1  0  0  0  0
 22 17  1  0  0  0  0
 23 17  1  0  0  0  0
M  END
