Coordinates from ORCA-job 4-NO2-Ph-N2-OTf-B3LYPG-6-31G_dp-MTMO-d009-169-n800
 OpenBabel09051908483D

 23 22  0  0  0  0  0  0  0  0999 V2000
   -2.8672   -1.4537   -5.9817 C   0  0  0  0  0  0  0  0  0  0  0  0
   -1.4964   -1.2320   -5.8999 C   0  0  0  0  0  0  0  0  0  0  0  0
   -0.9546   -0.7672   -4.7015 C   0  0  0  0  0  0  0  0  0  0  0  0
   -1.7431   -0.5188   -3.5778 C   0  0  0  0  0  0  0  0  0  0  0  0
   -3.1161   -0.7308   -3.6628 C   0  0  0  0  0  0  0  0  0  0  0  0
   -3.6550   -1.1959   -4.8610 C   0  0  0  0  0  0  0  0  0  0  0  0
   -3.3315   -1.8165   -6.8897 H   0  0  0  0  0  0  0  0  0  0  0  0
   -0.8446   -1.4173   -6.7459 H   0  0  0  0  0  0  0  0  0  0  0  0
   -1.2900   -0.1633   -2.6607 H   0  0  0  0  0  0  0  0  0  0  0  0
   -3.7697   -0.5489   -2.8192 H   0  0  0  0  0  0  0  0  0  0  0  0
   -5.1074   -1.4264   -4.9454 N   0  0  0  0  0  0  0  0  0  0  0  0
   -5.7790   -1.1923   -3.9426 O   0  0  0  0  0  0  0  0  0  0  0  0
   -5.5553   -1.8386   -6.0140 O   0  0  0  0  0  0  0  0  0  0  0  0
    9.6029    8.4095  -11.5125 N   0  0  0  0  0  0  0  0  0  0  0  0
    8.7849    7.7685  -11.1362 N   0  0  0  0  0  0  0  0  0  0  0  0
    1.1682    0.8200   -4.4150 S   0  0  0  0  0  0  0  0  0  0  0  0
    1.3830    1.3045   -6.2100 C   0  0  0  0  0  0  0  0  0  0  0  0
    0.2411    1.7630   -3.8138 O   0  0  0  0  0  0  0  0  0  0  0  0
    2.4786    0.5235   -3.8765 O   0  0  0  0  0  0  0  0  0  0  0  0
    0.4412   -0.6497   -4.6363 O   0  0  0  0  0  0  0  0  0  0  0  0
    0.1833    1.3795   -6.7890 F   0  0  0  0  0  0  0  0  0  0  0  0
    1.9816    2.4897   -6.2540 F   0  0  0  0  0  0  0  0  0  0  0  0
    2.1241    0.3943   -6.8324 F   0  0  0  0  0  0  0  0  0  0  0  0
  1  2  2  0  0  0  0
  1  6  1  0  0  0  0
  2  3  1  0  0  0  0
  3 20  1  0  0  0  0
  3  4  2  0  0  0  0
  4  9  1  0  0  0  0
  5  4  1  0  0  0  0
  5 10  1  0  0  0  0
  6  5  2  0  0  0  0
  7  1  1  0  0  0  0
  8  2  1  0  0  0  0
 11  6  1  0  0  0  0
 11 12  2  0  0  0  0
 13 11  2  0  0  0  0
 14 15  3  0  0  0  0
 16 19  2  0  0  0  0
 16 18  2  0  0  0  0
 17 16  1  0  0  0  0
 20 16  1  0  0  0  0
 21 17  1  0  0  0  0
 22 17  1  0  0  0  0
 23 17  1  0  0  0  0
M  END
