Coordinates from ORCA-job 4-NO2-Ph-N2-OTf-B3LYPG-6-31G_dp-MTMO-d009-169-n800
 OpenBabel09051908473D

 23 22  0  0  0  0  0  0  0  0999 V2000
   -1.9407   -1.4090   -6.1275 C   0  0  0  0  0  0  0  0  0  0  0  0
   -0.6239   -1.1767   -5.7439 C   0  0  0  0  0  0  0  0  0  0  0  0
   -0.3655   -0.2460   -4.7377 C   0  0  0  0  0  0  0  0  0  0  0  0
   -1.3846    0.4610   -4.1000 C   0  0  0  0  0  0  0  0  0  0  0  0
   -2.7017    0.2346   -4.4892 C   0  0  0  0  0  0  0  0  0  0  0  0
   -2.9577   -0.6967   -5.4940 C   0  0  0  0  0  0  0  0  0  0  0  0
   -2.1910   -2.1228   -6.9024 H   0  0  0  0  0  0  0  0  0  0  0  0
    0.2007   -1.7054   -6.2075 H   0  0  0  0  0  0  0  0  0  0  0  0
   -1.1464    1.1739   -3.3200 H   0  0  0  0  0  0  0  0  0  0  0  0
   -3.5273    0.7591   -4.0261 H   0  0  0  0  0  0  0  0  0  0  0  0
   -4.3529   -0.9393   -5.8999 N   0  0  0  0  0  0  0  0  0  0  0  0
   -5.2310   -0.2988   -5.3251 O   0  0  0  0  0  0  0  0  0  0  0  0
   -4.5494   -1.7672   -6.7877 O   0  0  0  0  0  0  0  0  0  0  0  0
    1.2289    5.2213   -7.8018 N   0  0  0  0  0  0  0  0  0  0  0  0
    1.4889    4.1602   -7.6352 N   0  0  0  0  0  0  0  0  0  0  0  0
    1.8044    1.2921   -4.5783 S   0  0  0  0  0  0  0  0  0  0  0  0
    2.4731    0.9153   -6.2870 C   0  0  0  0  0  0  0  0  0  0  0  0
    0.8931    2.4175   -4.6948 O   0  0  0  0  0  0  0  0  0  0  0  0
    2.9158    1.2487   -3.6518 O   0  0  0  0  0  0  0  0  0  0  0  0
    0.9653   -0.1100   -4.3178 O   0  0  0  0  0  0  0  0  0  0  0  0
    1.4619    0.8840   -7.1552 F   0  0  0  0  0  0  0  0  0  0  0  0
    3.3326    1.8703   -6.6223 F   0  0  0  0  0  0  0  0  0  0  0  0
    3.0865   -0.2651   -6.2728 F   0  0  0  0  0  0  0  0  0  0  0  0
  1  2  2  0  0  0  0
  1  6  1  0  0  0  0
  2  3  1  0  0  0  0
  3 20  1  0  0  0  0
  3  4  2  0  0  0  0
  4  9  1  0  0  0  0
  5  4  1  0  0  0  0
  5 10  1  0  0  0  0
  6  5  2  0  0  0  0
  7  1  1  0  0  0  0
  8  2  1  0  0  0  0
 11  6  1  0  0  0  0
 11 12  2  0  0  0  0
 13 11  2  0  0  0  0
 14 15  3  0  0  0  0
 16 20  1  0  0  0  0
 16 19  2  0  0  0  0
 17 23  1  0  0  0  0
 17 16  1  0  0  0  0
 18 16  2  0  0  0  0
 21 17  1  0  0  0  0
 22 17  1  0  0  0  0
M  END
