Coordinates from ORCA-job 4-NO2-Ph-N2-OTf-B3LYPG-6-31G_dp-MTMO-d009-169-n800
 OpenBabel09051908473D

 23 22  0  0  0  0  0  0  0  0999 V2000
   -2.6088   -1.2531   -6.1345 C   0  0  0  0  0  0  0  0  0  0  0  0
   -1.2373   -1.0396   -6.0431 C   0  0  0  0  0  0  0  0  0  0  0  0
   -0.7024   -0.5687   -4.8440 C   0  0  0  0  0  0  0  0  0  0  0  0
   -1.4984   -0.3065   -3.7287 C   0  0  0  0  0  0  0  0  0  0  0  0
   -2.8720   -0.5106   -3.8234 C   0  0  0  0  0  0  0  0  0  0  0  0
   -3.4040   -0.9816   -5.0223 C   0  0  0  0  0  0  0  0  0  0  0  0
   -3.0680   -1.6200   -7.0435 H   0  0  0  0  0  0  0  0  0  0  0  0
   -0.5798   -1.2355   -6.8822 H   0  0  0  0  0  0  0  0  0  0  0  0
   -1.0505    0.0533   -2.8109 H   0  0  0  0  0  0  0  0  0  0  0  0
   -3.5313   -0.3178   -2.9867 H   0  0  0  0  0  0  0  0  0  0  0  0
   -4.8572   -1.2033   -5.1169 N   0  0  0  0  0  0  0  0  0  0  0  0
   -5.5354   -0.9576   -4.1213 O   0  0  0  0  0  0  0  0  0  0  0  0
   -5.2991   -1.6205   -6.1861 O   0  0  0  0  0  0  0  0  0  0  0  0
    6.8903    6.3230   -9.9460 N   0  0  0  0  0  0  0  0  0  0  0  0
    6.0834    5.6821   -9.5463 N   0  0  0  0  0  0  0  0  0  0  0  0
    1.4274    1.0082   -4.5536 S   0  0  0  0  0  0  0  0  0  0  0  0
    1.6610    1.4752   -6.3509 C   0  0  0  0  0  0  0  0  0  0  0  0
    0.5006    1.9618   -3.9689 O   0  0  0  0  0  0  0  0  0  0  0  0
    2.7312    0.7085   -4.0008 O   0  0  0  0  0  0  0  0  0  0  0  0
    0.6935   -0.4592   -4.7682 O   0  0  0  0  0  0  0  0  0  0  0  0
    0.4669    1.5521   -6.9411 F   0  0  0  0  0  0  0  0  0  0  0  0
    2.2672    2.6562   -6.4002 F   0  0  0  0  0  0  0  0  0  0  0  0
    2.4019    0.5548   -6.9584 F   0  0  0  0  0  0  0  0  0  0  0  0
  1  2  2  0  0  0  0
  1  6  1  0  0  0  0
  2  3  1  0  0  0  0
  3 20  1  0  0  0  0
  3  4  2  0  0  0  0
  4  9  1  0  0  0  0
  5  4  1  0  0  0  0
  5 10  1  0  0  0  0
  6  5  2  0  0  0  0
  7  1  1  0  0  0  0
  8  2  1  0  0  0  0
 11  6  1  0  0  0  0
 11 12  2  0  0  0  0
 13 11  2  0  0  0  0
 14 15  3  0  0  0  0
 16 19  2  0  0  0  0
 16 18  2  0  0  0  0
 17 16  1  0  0  0  0
 20 16  1  0  0  0  0
 21 17  1  0  0  0  0
 22 17  1  0  0  0  0
 23 17  1  0  0  0  0
M  END
