Coordinates from ORCA-job 4-NO2-Ph-N2-OTf-B3LYPG-6-31G_dp-MTMO-d009-169-n800
 OpenBabel09051908473D

 23 22  0  0  0  0  0  0  0  0999 V2000
   -1.9586   -1.3678   -6.1720 C   0  0  0  0  0  0  0  0  0  0  0  0
   -0.6371   -1.1523   -5.7945 C   0  0  0  0  0  0  0  0  0  0  0  0
   -0.3666   -0.2733   -4.7458 C   0  0  0  0  0  0  0  0  0  0  0  0
   -1.3786    0.3980   -4.0598 C   0  0  0  0  0  0  0  0  0  0  0  0
   -2.7003    0.1890   -4.4429 C   0  0  0  0  0  0  0  0  0  0  0  0
   -2.9683   -0.6906   -5.4902 C   0  0  0  0  0  0  0  0  0  0  0  0
   -2.2177   -2.0419   -6.9788 H   0  0  0  0  0  0  0  0  0  0  0  0
    0.1817   -1.6550   -6.2955 H   0  0  0  0  0  0  0  0  0  0  0  0
   -1.1319    1.0703   -3.2473 H   0  0  0  0  0  0  0  0  0  0  0  0
   -3.5204    0.6876   -3.9429 H   0  0  0  0  0  0  0  0  0  0  0  0
   -4.3683   -0.9150   -5.8897 N   0  0  0  0  0  0  0  0  0  0  0  0
   -5.2395   -0.3056   -5.2722 O   0  0  0  0  0  0  0  0  0  0  0  0
   -4.5755   -1.6974   -6.8155 O   0  0  0  0  0  0  0  0  0  0  0  0
    1.2835    5.1643   -8.1168 N   0  0  0  0  0  0  0  0  0  0  0  0
    1.4555    4.1169   -7.8087 N   0  0  0  0  0  0  0  0  0  0  0  0
    1.7973    1.2650   -4.5140 S   0  0  0  0  0  0  0  0  0  0  0  0
    2.5005    0.9718   -6.2243 C   0  0  0  0  0  0  0  0  0  0  0  0
    0.8759    2.3849   -4.5969 O   0  0  0  0  0  0  0  0  0  0  0  0
    2.8920    1.1911   -3.5696 O   0  0  0  0  0  0  0  0  0  0  0  0
    0.9693   -0.1570   -4.3369 O   0  0  0  0  0  0  0  0  0  0  0  0
    1.5005    0.9178   -7.1046 F   0  0  0  0  0  0  0  0  0  0  0  0
    3.3157    1.9773   -6.5218 F   0  0  0  0  0  0  0  0  0  0  0  0
    3.1703   -0.1769   -6.2371 F   0  0  0  0  0  0  0  0  0  0  0  0
  1  2  2  0  0  0  0
  1  6  1  0  0  0  0
  2  3  1  0  0  0  0
  3 20  1  0  0  0  0
  3  4  2  0  0  0  0
  4  9  1  0  0  0  0
  5  4  1  0  0  0  0
  5 10  1  0  0  0  0
  6  5  2  0  0  0  0
  7  1  1  0  0  0  0
  8  2  1  0  0  0  0
 11  6  1  0  0  0  0
 11 12  2  0  0  0  0
 13 11  2  0  0  0  0
 14 15  3  0  0  0  0
 16 20  1  0  0  0  0
 16 19  2  0  0  0  0
 17 16  1  0  0  0  0
 18 16  2  0  0  0  0
 21 17  1  0  0  0  0
 22 17  1  0  0  0  0
 23 17  1  0  0  0  0
M  END
