Coordinates from ORCA-job 4-NO2-Ph-N2-OTf-B3LYPG-6-31G_dp-MTMO-d009-169-n800
 OpenBabel09051908473D

 23 22  0  0  0  0  0  0  0  0999 V2000
   -2.4905   -1.1598   -6.1878 C   0  0  0  0  0  0  0  0  0  0  0  0
   -1.1203   -0.9270   -6.1293 C   0  0  0  0  0  0  0  0  0  0  0  0
   -0.5668   -0.4284   -4.9500 C   0  0  0  0  0  0  0  0  0  0  0  0
   -1.3431   -0.1546   -3.8238 C   0  0  0  0  0  0  0  0  0  0  0  0
   -2.7156   -0.3778   -3.8856 C   0  0  0  0  0  0  0  0  0  0  0  0
   -3.2660   -0.8783   -5.0642 C   0  0  0  0  0  0  0  0  0  0  0  0
   -2.9637   -1.5490   -7.0802 H   0  0  0  0  0  0  0  0  0  0  0  0
   -0.4781   -1.1292   -6.9786 H   0  0  0  0  0  0  0  0  0  0  0  0
   -0.8811    0.2280   -2.9222 H   0  0  0  0  0  0  0  0  0  0  0  0
   -3.3600   -0.1776   -3.0391 H   0  0  0  0  0  0  0  0  0  0  0  0
   -4.7176   -1.1209   -5.1241 N   0  0  0  0  0  0  0  0  0  0  0  0
   -5.3781   -0.8665   -4.1188 O   0  0  0  0  0  0  0  0  0  0  0  0
   -5.1761   -1.5632   -6.1760 O   0  0  0  0  0  0  0  0  0  0  0  0
    5.3882    5.0873   -8.8611 N   0  0  0  0  0  0  0  0  0  0  0  0
    4.6254    4.4249   -8.4127 N   0  0  0  0  0  0  0  0  0  0  0  0
    1.5500    1.1796   -4.7343 S   0  0  0  0  0  0  0  0  0  0  0  0
    1.8291    1.5670   -6.5449 C   0  0  0  0  0  0  0  0  0  0  0  0
    0.6020    2.1507   -4.2158 O   0  0  0  0  0  0  0  0  0  0  0  0
    2.8415    0.9154   -4.1360 O   0  0  0  0  0  0  0  0  0  0  0  0
    0.8287   -0.3010   -4.9037 O   0  0  0  0  0  0  0  0  0  0  0  0
    0.6512    1.5977   -7.1709 F   0  0  0  0  0  0  0  0  0  0  0  0
    2.4200    2.7535   -6.6319 F   0  0  0  0  0  0  0  0  0  0  0  0
    2.5998    0.6304   -7.0867 F   0  0  0  0  0  0  0  0  0  0  0  0
  1  2  2  0  0  0  0
  1  6  1  0  0  0  0
  2  3  1  0  0  0  0
  3 20  1  0  0  0  0
  3  4  2  0  0  0  0
  4  9  1  0  0  0  0
  5  4  1  0  0  0  0
  5 10  1  0  0  0  0
  6  5  2  0  0  0  0
  7  1  1  0  0  0  0
  8  2  1  0  0  0  0
 11  6  1  0  0  0  0
 11 12  2  0  0  0  0
 13 11  2  0  0  0  0
 14 15  3  0  0  0  0
 16 18  2  0  0  0  0
 16 19  2  0  0  0  0
 17 16  1  0  0  0  0
 20 16  1  0  0  0  0
 21 17  1  0  0  0  0
 22 17  1  0  0  0  0
 23 17  1  0  0  0  0
M  END
