Coordinates from ORCA-job 4-NO2-Ph-N2-OTf-B3LYPG-6-31G_dp-MTMO-d009-169-n800
 OpenBabel09051908473D

 23 22  0  0  0  0  0  0  0  0999 V2000
   -2.1716   -0.9036   -6.4124 C   0  0  0  0  0  0  0  0  0  0  0  0
   -0.8183   -0.6863   -6.1752 C   0  0  0  0  0  0  0  0  0  0  0  0
   -0.4018   -0.3422   -4.8892 C   0  0  0  0  0  0  0  0  0  0  0  0
   -1.2991   -0.2093   -3.8295 C   0  0  0  0  0  0  0  0  0  0  0  0
   -2.6543   -0.4170   -4.0690 C   0  0  0  0  0  0  0  0  0  0  0  0
   -3.0678   -0.7624   -5.3542 C   0  0  0  0  0  0  0  0  0  0  0  0
   -2.5410   -1.1764   -7.3926 H   0  0  0  0  0  0  0  0  0  0  0  0
   -0.0849   -0.7842   -6.9672 H   0  0  0  0  0  0  0  0  0  0  0  0
   -0.9417    0.0548   -2.8421 H   0  0  0  0  0  0  0  0  0  0  0  0
   -3.3891   -0.3230   -3.2797 H   0  0  0  0  0  0  0  0  0  0  0  0
   -4.5017   -0.9895   -5.6030 N   0  0  0  0  0  0  0  0  0  0  0  0
   -5.2707   -0.8597   -4.6525 O   0  0  0  0  0  0  0  0  0  0  0  0
   -4.8378   -1.2948   -6.7459 O   0  0  0  0  0  0  0  0  0  0  0  0
    3.1991    3.6269   -9.8577 N   0  0  0  0  0  0  0  0  0  0  0  0
    2.8811    3.1202   -8.9287 N   0  0  0  0  0  0  0  0  0  0  0  0
    1.6659    1.2137   -4.2441 S   0  0  0  0  0  0  0  0  0  0  0  0
    2.0696    1.8592   -5.9558 C   0  0  0  0  0  0  0  0  0  0  0  0
    0.6713    2.0981   -3.6616 O   0  0  0  0  0  0  0  0  0  0  0  0
    2.9133    0.8677   -3.5962 O   0  0  0  0  0  0  0  0  0  0  0  0
    0.9790   -0.2291   -4.6752 O   0  0  0  0  0  0  0  0  0  0  0  0
    0.9369    2.0092   -6.6434 F   0  0  0  0  0  0  0  0  0  0  0  0
    2.6792    3.0321   -5.8231 F   0  0  0  0  0  0  0  0  0  0  0  0
    2.8635    0.9968   -6.5796 F   0  0  0  0  0  0  0  0  0  0  0  0
  1  2  2  0  0  0  0
  1  6  1  0  0  0  0
  2  3  1  0  0  0  0
  3 20  1  0  0  0  0
  3  4  2  0  0  0  0
  4  9  1  0  0  0  0
  5  4  1  0  0  0  0
  5 10  1  0  0  0  0
  6  5  2  0  0  0  0
  7  1  1  0  0  0  0
  8  2  1  0  0  0  0
 11  6  1  0  0  0  0
 11 12  2  0  0  0  0
 13 11  2  0  0  0  0
 14 15  3  0  0  0  0
 16 18  2  0  0  0  0
 16 19  2  0  0  0  0
 17 22  1  0  0  0  0
 17 16  1  0  0  0  0
 20 16  1  0  0  0  0
 21 17  1  0  0  0  0
 23 17  1  0  0  0  0
M  END
