Coordinates from ORCA-job 4-NO2-Ph-N2-OTf-B3LYPG-6-31G_dp-MTMO-d009-169-n800
 OpenBabel09051908473D

 23 22  0  0  0  0  0  0  0  0999 V2000
   -2.0708   -1.1801   -6.0098 C   0  0  0  0  0  0  0  0  0  0  0  0
   -0.7216   -0.8620   -5.8891 C   0  0  0  0  0  0  0  0  0  0  0  0
   -0.3527    0.2130   -5.0817 C   0  0  0  0  0  0  0  0  0  0  0  0
   -1.2897    0.9757   -4.3869 C   0  0  0  0  0  0  0  0  0  0  0  0
   -2.6391    0.6547   -4.5025 C   0  0  0  0  0  0  0  0  0  0  0  0
   -3.0066   -0.4174   -5.3132 C   0  0  0  0  0  0  0  0  0  0  0  0
   -2.4066   -2.0058   -6.6245 H   0  0  0  0  0  0  0  0  0  0  0  0
    0.0351   -1.4365   -6.4084 H   0  0  0  0  0  0  0  0  0  0  0  0
   -0.9565    1.8039   -3.7732 H   0  0  0  0  0  0  0  0  0  0  0  0
   -3.4035    1.2169   -3.9820 H   0  0  0  0  0  0  0  0  0  0  0  0
   -4.4344   -0.7587   -5.4364 N   0  0  0  0  0  0  0  0  0  0  0  0
   -5.2383   -0.0725   -4.8079 O   0  0  0  0  0  0  0  0  0  0  0  0
   -4.7309   -1.7085   -6.1588 O   0  0  0  0  0  0  0  0  0  0  0  0
   -0.0557    4.1844   -5.1847 N   0  0  0  0  0  0  0  0  0  0  0  0
    0.1880    5.2086   -5.5203 N   0  0  0  0  0  0  0  0  0  0  0  0
    1.8934    1.2593   -6.0409 S   0  0  0  0  0  0  0  0  0  0  0  0
    3.1219   -0.1214   -6.3273 C   0  0  0  0  0  0  0  0  0  0  0  0
    1.1001    1.4225   -7.2468 O   0  0  0  0  0  0  0  0  0  0  0  0
    2.6163    2.3437   -5.4062 O   0  0  0  0  0  0  0  0  0  0  0  0
    1.0042    0.5028   -4.8665 O   0  0  0  0  0  0  0  0  0  0  0  0
    2.4868   -1.1962   -6.8022 F   0  0  0  0  0  0  0  0  0  0  0  0
    4.0108    0.3006   -7.2214 F   0  0  0  0  0  0  0  0  0  0  0  0
    3.7290   -0.4257   -5.1872 F   0  0  0  0  0  0  0  0  0  0  0  0
  1  2  2  0  0  0  0
  1  6  1  0  0  0  0
  2  3  1  0  0  0  0
  3 20  1  0  0  0  0
  3  4  2  0  0  0  0
  4  9  1  0  0  0  0
  5  4  1  0  0  0  0
  5 10  1  0  0  0  0
  6  5  2  0  0  0  0
  7  1  1  0  0  0  0
  8  2  1  0  0  0  0
 11  6  1  0  0  0  0
 11 12  2  0  0  0  0
 13 11  2  0  0  0  0
 15 14  3  0  0  0  0
 16 19  2  0  0  0  0
 16 20  1  0  0  0  0
 17 16  1  0  0  0  0
 17 23  1  0  0  0  0
 18 16  2  0  0  0  0
 21 17  1  0  0  0  0
 22 17  1  0  0  0  0
M  END
