Coordinates from ORCA-job 4-NO2-Ph-N2-OTf-B3LYPG-6-31G_dp-MTMO-d009-169-n800
 OpenBabel09051908483D

 23 22  0  0  0  0  0  0  0  0999 V2000
   -2.7335   -1.3470   -6.0643 C   0  0  0  0  0  0  0  0  0  0  0  0
   -1.3624   -1.1309   -5.9740 C   0  0  0  0  0  0  0  0  0  0  0  0
   -0.8263   -0.6680   -4.7723 C   0  0  0  0  0  0  0  0  0  0  0  0
   -1.6207   -0.4162   -3.6535 C   0  0  0  0  0  0  0  0  0  0  0  0
   -2.9940   -0.6226   -3.7471 C   0  0  0  0  0  0  0  0  0  0  0  0
   -3.5273   -1.0857   -4.9486 C   0  0  0  0  0  0  0  0  0  0  0  0
   -3.1937   -1.7080   -6.9752 H   0  0  0  0  0  0  0  0  0  0  0  0
   -0.7061   -1.3191   -6.8157 H   0  0  0  0  0  0  0  0  0  0  0  0
   -1.1719   -0.0623   -2.7338 H   0  0  0  0  0  0  0  0  0  0  0  0
   -3.6522   -0.4378   -2.9077 H   0  0  0  0  0  0  0  0  0  0  0  0
   -4.9801   -1.3100   -5.0422 N   0  0  0  0  0  0  0  0  0  0  0  0
   -5.6570   -1.0731   -4.0436 O   0  0  0  0  0  0  0  0  0  0  0  0
   -5.4231   -1.7205   -6.1135 O   0  0  0  0  0  0  0  0  0  0  0  0
    8.2213    7.3450  -10.7329 N   0  0  0  0  0  0  0  0  0  0  0  0
    7.4006    6.7037  -10.3630 N   0  0  0  0  0  0  0  0  0  0  0  0
    1.3007    0.9113   -4.4735 S   0  0  0  0  0  0  0  0  0  0  0  0
    1.5266    1.3952   -6.2672 C   0  0  0  0  0  0  0  0  0  0  0  0
    0.3738    1.8576   -3.8771 O   0  0  0  0  0  0  0  0  0  0  0  0
    2.6072    0.6099   -3.9282 O   0  0  0  0  0  0  0  0  0  0  0  0
    0.5696   -0.5558   -4.6984 O   0  0  0  0  0  0  0  0  0  0  0  0
    0.3303    1.4748   -6.8525 F   0  0  0  0  0  0  0  0  0  0  0  0
    2.1298    2.5782   -6.3078 F   0  0  0  0  0  0  0  0  0  0  0  0
    2.2676    0.4823   -6.8859 F   0  0  0  0  0  0  0  0  0  0  0  0
  1  2  2  0  0  0  0
  1  6  1  0  0  0  0
  2  3  1  0  0  0  0
  3 20  1  0  0  0  0
  3  4  2  0  0  0  0
  4  9  1  0  0  0  0
  5  4  1  0  0  0  0
  5 10  1  0  0  0  0
  6  5  2  0  0  0  0
  7  1  1  0  0  0  0
  8  2  1  0  0  0  0
 11  6  1  0  0  0  0
 11 12  2  0  0  0  0
 13 11  2  0  0  0  0
 14 15  3  0  0  0  0
 16 19  2  0  0  0  0
 16 18  2  0  0  0  0
 17 16  1  0  0  0  0
 20 16  1  0  0  0  0
 21 17  1  0  0  0  0
 22 17  1  0  0  0  0
 23 17  1  0  0  0  0
M  END
