Coordinates from ORCA-job 4-NO2-Ph-N2-OTf-B3LYPG-6-31G_dp-MTMO-d009-169-n800
 OpenBabel09051908483D

 23 22  0  0  0  0  0  0  0  0999 V2000
   -2.8790   -1.4634   -5.9740 C   0  0  0  0  0  0  0  0  0  0  0  0
   -1.5082   -1.2418   -5.8931 C   0  0  0  0  0  0  0  0  0  0  0  0
   -0.9659   -0.7760   -4.6953 C   0  0  0  0  0  0  0  0  0  0  0  0
   -1.7538   -0.5266   -3.5715 C   0  0  0  0  0  0  0  0  0  0  0  0
   -3.1268   -0.7385   -3.6557 C   0  0  0  0  0  0  0  0  0  0  0  0
   -3.6663   -1.2047   -4.8532 C   0  0  0  0  0  0  0  0  0  0  0  0
   -3.3438   -1.8269   -6.8816 H   0  0  0  0  0  0  0  0  0  0  0  0
   -0.8569   -1.4278   -6.7392 H   0  0  0  0  0  0  0  0  0  0  0  0
   -1.3002   -0.1704   -2.6549 H   0  0  0  0  0  0  0  0  0  0  0  0
   -3.7800   -0.5558   -2.8119 H   0  0  0  0  0  0  0  0  0  0  0  0
   -5.1188   -1.4350   -4.9368 N   0  0  0  0  0  0  0  0  0  0  0  0
   -5.7899   -1.2000   -3.9339 O   0  0  0  0  0  0  0  0  0  0  0  0
   -5.5672   -1.8483   -6.0047 O   0  0  0  0  0  0  0  0  0  0  0  0
    9.7204    8.5042  -11.5789 N   0  0  0  0  0  0  0  0  0  0  0  0
    8.9037    7.8623  -11.2014 N   0  0  0  0  0  0  0  0  0  0  0  0
    1.1573    0.8112   -4.4105 S   0  0  0  0  0  0  0  0  0  0  0  0
    1.3717    1.2946   -6.2058 C   0  0  0  0  0  0  0  0  0  0  0  0
    0.2303    1.7545   -3.8095 O   0  0  0  0  0  0  0  0  0  0  0  0
    2.4678    0.5150   -3.8720 O   0  0  0  0  0  0  0  0  0  0  0  0
    0.4300   -0.6586   -4.6308 O   0  0  0  0  0  0  0  0  0  0  0  0
    0.1719    1.3678   -6.7849 F   0  0  0  0  0  0  0  0  0  0  0  0
    1.9690    2.4805   -6.2507 F   0  0  0  0  0  0  0  0  0  0  0  0
    2.1139    0.3848   -6.8275 F   0  0  0  0  0  0  0  0  0  0  0  0
  1  2  2  0  0  0  0
  1  6  1  0  0  0  0
  2  3  1  0  0  0  0
  3 20  1  0  0  0  0
  3  4  2  0  0  0  0
  4  9  1  0  0  0  0
  5  4  1  0  0  0  0
  5 10  1  0  0  0  0
  6  5  2  0  0  0  0
  7  1  1  0  0  0  0
  8  2  1  0  0  0  0
 11  6  1  0  0  0  0
 11 12  2  0  0  0  0
 13 11  2  0  0  0  0
 14 15  3  0  0  0  0
 16 19  2  0  0  0  0
 16 18  2  0  0  0  0
 17 16  1  0  0  0  0
 20 16  1  0  0  0  0
 21 17  1  0  0  0  0
 22 17  1  0  0  0  0
 23 17  1  0  0  0  0
M  END
