Coordinates from ORCA-job 4-NO2-Ph-N2-OTf-B3LYPG-6-31G_dp-MTMO-d009-169-n800
 OpenBabel09051908473D

 23 22  0  0  0  0  0  0  0  0999 V2000
   -1.9870   -1.6960   -5.7151 C   0  0  0  0  0  0  0  0  0  0  0  0
   -0.6657   -1.3426   -5.4618 C   0  0  0  0  0  0  0  0  0  0  0  0
   -0.3939   -0.0964   -4.8976 C   0  0  0  0  0  0  0  0  0  0  0  0
   -1.4043    0.8098   -4.5757 C   0  0  0  0  0  0  0  0  0  0  0  0
   -2.7256    0.4600   -4.8385 C   0  0  0  0  0  0  0  0  0  0  0  0
   -2.9952   -0.7861   -5.4010 C   0  0  0  0  0  0  0  0  0  0  0  0
   -2.2471   -2.6530   -6.1489 H   0  0  0  0  0  0  0  0  0  0  0  0
    0.1516   -2.0166   -5.6905 H   0  0  0  0  0  0  0  0  0  0  0  0
   -1.1582    1.7672   -4.1343 H   0  0  0  0  0  0  0  0  0  0  0  0
   -3.5445    1.1297   -4.6091 H   0  0  0  0  0  0  0  0  0  0  0  0
   -4.3952   -1.1566   -5.6711 N   0  0  0  0  0  0  0  0  0  0  0  0
   -5.2648   -0.3359   -5.3848 O   0  0  0  0  0  0  0  0  0  0  0  0
   -4.6037   -2.2629   -6.1656 O   0  0  0  0  0  0  0  0  0  0  0  0
    1.3114    5.7155   -5.2393 N   0  0  0  0  0  0  0  0  0  0  0  0
    1.9974    5.5281   -6.0852 N   0  0  0  0  0  0  0  0  0  0  0  0
    1.7739    1.4034   -5.3045 S   0  0  0  0  0  0  0  0  0  0  0  0
    2.4712    0.4495   -6.7558 C   0  0  0  0  0  0  0  0  0  0  0  0
    0.8565    2.3987   -5.8331 O   0  0  0  0  0  0  0  0  0  0  0  0
    2.8685    1.7138   -4.4100 O   0  0  0  0  0  0  0  0  0  0  0  0
    0.9428    0.1762   -4.5712 O   0  0  0  0  0  0  0  0  0  0  0  0
    1.4646   -0.0093   -7.5011 F   0  0  0  0  0  0  0  0  0  0  0  0
    3.2269    1.2734   -7.4734 F   0  0  0  0  0  0  0  0  0  0  0  0
    3.1996   -0.5688   -6.3107 F   0  0  0  0  0  0  0  0  0  0  0  0
  1  2  2  0  0  0  0
  1  6  1  0  0  0  0
  2  3  1  0  0  0  0
  3  4  2  0  0  0  0
  3 20  1  0  0  0  0
  4  9  1  0  0  0  0
  5 10  1  0  0  0  0
  5  4  1  0  0  0  0
  6  5  2  0  0  0  0
  7  1  1  0  0  0  0
  8  2  1  0  0  0  0
 11  6  1  0  0  0  0
 11 12  2  0  0  0  0
 13 11  2  0  0  0  0
 15 14  3  0  0  0  0
 16 20  1  0  0  0  0
 16 19  2  0  0  0  0
 17 23  1  0  0  0  0
 17 16  1  0  0  0  0
 18 16  2  0  0  0  0
 21 17  1  0  0  0  0
 22 17  1  0  0  0  0
M  END
