Coordinates from ORCA-job 4-NO2-Ph-N2-OTf-B3LYPG-6-31G_dp-MTMO-d009-169-n800
 OpenBabel09051908483D

 23 22  0  0  0  0  0  0  0  0999 V2000
   -2.7158   -1.3328   -6.0751 C   0  0  0  0  0  0  0  0  0  0  0  0
   -1.3446   -1.1172   -5.9840 C   0  0  0  0  0  0  0  0  0  0  0  0
   -0.8090   -0.6544   -4.7821 C   0  0  0  0  0  0  0  0  0  0  0  0
   -1.6040   -0.4023   -3.6638 C   0  0  0  0  0  0  0  0  0  0  0  0
   -2.9773   -0.6083   -3.7582 C   0  0  0  0  0  0  0  0  0  0  0  0
   -3.5100   -1.0713   -4.9599 C   0  0  0  0  0  0  0  0  0  0  0  0
   -3.1755   -1.6938   -6.9863 H   0  0  0  0  0  0  0  0  0  0  0  0
   -0.6879   -1.3057   -6.8255 H   0  0  0  0  0  0  0  0  0  0  0  0
   -1.1556   -0.0486   -2.7438 H   0  0  0  0  0  0  0  0  0  0  0  0
   -3.6359   -0.4233   -2.9191 H   0  0  0  0  0  0  0  0  0  0  0  0
   -4.9629   -1.2951   -5.0543 N   0  0  0  0  0  0  0  0  0  0  0  0
   -5.6403   -1.0579   -4.0561 O   0  0  0  0  0  0  0  0  0  0  0  0
   -5.4054   -1.7055   -6.1258 O   0  0  0  0  0  0  0  0  0  0  0  0
    8.0362    7.2013  -10.6274 N   0  0  0  0  0  0  0  0  0  0  0  0
    7.2161    6.5596  -10.2567 N   0  0  0  0  0  0  0  0  0  0  0  0
    1.3183    0.9243   -4.4822 S   0  0  0  0  0  0  0  0  0  0  0  0
    1.5454    1.4080   -6.2758 C   0  0  0  0  0  0  0  0  0  0  0  0
    0.3913    1.8708   -3.8864 O   0  0  0  0  0  0  0  0  0  0  0  0
    2.6243    0.6225   -3.9361 O   0  0  0  0  0  0  0  0  0  0  0  0
    0.5868   -0.5427   -4.7074 O   0  0  0  0  0  0  0  0  0  0  0  0
    0.3494    1.4878   -6.8618 F   0  0  0  0  0  0  0  0  0  0  0  0
    2.1490    2.5908   -6.3162 F   0  0  0  0  0  0  0  0  0  0  0  0
    2.2865    0.4948   -6.8940 F   0  0  0  0  0  0  0  0  0  0  0  0
  1  2  2  0  0  0  0
  1  6  1  0  0  0  0
  2  3  1  0  0  0  0
  3 20  1  0  0  0  0
  3  4  2  0  0  0  0
  4  9  1  0  0  0  0
  5  4  1  0  0  0  0
  5 10  1  0  0  0  0
  6  5  2  0  0  0  0
  7  1  1  0  0  0  0
  8  2  1  0  0  0  0
 11  6  1  0  0  0  0
 11 12  2  0  0  0  0
 13 11  2  0  0  0  0
 14 15  3  0  0  0  0
 16 19  2  0  0  0  0
 16 18  2  0  0  0  0
 17 16  1  0  0  0  0
 20 16  1  0  0  0  0
 21 17  1  0  0  0  0
 22 17  1  0  0  0  0
 23 17  1  0  0  0  0
M  END
