Coordinates from ORCA-job 4-NO2-Ph-N2-OTf-B3LYPG-6-31G_dp-MTMO-d009-169-n800
 OpenBabel09051908473D

 23 22  0  0  0  0  0  0  0  0999 V2000
   -2.1559   -0.8983   -6.4192 C   0  0  0  0  0  0  0  0  0  0  0  0
   -0.8035   -0.6854   -6.1737 C   0  0  0  0  0  0  0  0  0  0  0  0
   -0.3938   -0.3420   -4.8853 C   0  0  0  0  0  0  0  0  0  0  0  0
   -1.2972   -0.2056   -3.8312 C   0  0  0  0  0  0  0  0  0  0  0  0
   -2.6515   -0.4088   -4.0791 C   0  0  0  0  0  0  0  0  0  0  0  0
   -3.0582   -0.7535   -5.3666 C   0  0  0  0  0  0  0  0  0  0  0  0
   -2.5202   -1.1705   -7.4015 H   0  0  0  0  0  0  0  0  0  0  0  0
   -0.0653   -0.7863   -6.9610 H   0  0  0  0  0  0  0  0  0  0  0  0
   -0.9448    0.0579   -2.8418 H   0  0  0  0  0  0  0  0  0  0  0  0
   -3.3909   -0.3119   -3.2944 H   0  0  0  0  0  0  0  0  0  0  0  0
   -4.4912   -0.9759   -5.6242 N   0  0  0  0  0  0  0  0  0  0  0  0
   -5.2657   -0.8427   -4.6787 O   0  0  0  0  0  0  0  0  0  0  0  0
   -4.8212   -1.2809   -6.7690 O   0  0  0  0  0  0  0  0  0  0  0  0
    3.0935    3.5732   -9.8896 N   0  0  0  0  0  0  0  0  0  0  0  0
    2.8212    3.1040   -8.9269 N   0  0  0  0  0  0  0  0  0  0  0  0
    1.6758    1.2060   -4.2270 S   0  0  0  0  0  0  0  0  0  0  0  0
    2.0716    1.8617   -5.9367 C   0  0  0  0  0  0  0  0  0  0  0  0
    0.6847    2.0876   -3.6344 O   0  0  0  0  0  0  0  0  0  0  0  0
    2.9258    0.8547   -3.5870 O   0  0  0  0  0  0  0  0  0  0  0  0
    0.9861   -0.2338   -4.6631 O   0  0  0  0  0  0  0  0  0  0  0  0
    0.9347    2.0251   -6.6143 F   0  0  0  0  0  0  0  0  0  0  0  0
    2.6911    3.0288   -5.8002 F   0  0  0  0  0  0  0  0  0  0  0  0
    2.8542    0.9979   -6.5730 F   0  0  0  0  0  0  0  0  0  0  0  0
  1  2  2  0  0  0  0
  1  6  1  0  0  0  0
  2  3  1  0  0  0  0
  3 20  1  0  0  0  0
  3  4  2  0  0  0  0
  4  9  1  0  0  0  0
  5  4  1  0  0  0  0
  5 10  1  0  0  0  0
  6  5  2  0  0  0  0
  7  1  1  0  0  0  0
  8  2  1  0  0  0  0
 11  6  1  0  0  0  0
 11 12  2  0  0  0  0
 13 11  2  0  0  0  0
 14 15  3  0  0  0  0
 16 18  2  0  0  0  0
 16 19  2  0  0  0  0
 17 22  1  0  0  0  0
 17 16  1  0  0  0  0
 20 16  1  0  0  0  0
 21 17  1  0  0  0  0
 23 17  1  0  0  0  0
M  END
