Coordinates from ORCA-job 4-NO2-Ph-N2-OTf-B3LYPG-6-31G_dp-MTMO-d009-169-n800
 OpenBabel09051908473D

 23 22  0  0  0  0  0  0  0  0999 V2000
   -2.2993   -0.8760   -6.3764 C   0  0  0  0  0  0  0  0  0  0  0  0
   -0.9427   -0.6190   -6.2062 C   0  0  0  0  0  0  0  0  0  0  0  0
   -0.4628   -0.3305   -4.9289 C   0  0  0  0  0  0  0  0  0  0  0  0
   -1.2999   -0.2900   -3.8139 C   0  0  0  0  0  0  0  0  0  0  0  0
   -2.6584   -0.5383   -3.9849 C   0  0  0  0  0  0  0  0  0  0  0  0
   -3.1350   -0.8289   -5.2619 C   0  0  0  0  0  0  0  0  0  0  0  0
   -2.7169   -1.1082   -7.3477 H   0  0  0  0  0  0  0  0  0  0  0  0
   -0.2565   -0.6418   -7.0446 H   0  0  0  0  0  0  0  0  0  0  0  0
   -0.8929   -0.0674   -2.8351 H   0  0  0  0  0  0  0  0  0  0  0  0
   -3.3475   -0.5162   -3.1504 H   0  0  0  0  0  0  0  0  0  0  0  0
   -4.5722   -1.0988   -5.4400 N   0  0  0  0  0  0  0  0  0  0  0  0
   -5.2867   -1.0545   -4.4405 O   0  0  0  0  0  0  0  0  0  0  0  0
   -4.9653   -1.3519   -6.5774 O   0  0  0  0  0  0  0  0  0  0  0  0
    3.9565    3.7584   -9.7105 N   0  0  0  0  0  0  0  0  0  0  0  0
    3.3907    3.2084   -8.9368 N   0  0  0  0  0  0  0  0  0  0  0  0
    1.5677    1.2957   -4.3631 S   0  0  0  0  0  0  0  0  0  0  0  0
    2.0579    1.8810   -6.0737 C   0  0  0  0  0  0  0  0  0  0  0  0
    0.5283    2.1827   -3.8699 O   0  0  0  0  0  0  0  0  0  0  0  0
    2.7853    1.0007   -3.6371 O   0  0  0  0  0  0  0  0  0  0  0  0
    0.9224   -0.1722   -4.7794 O   0  0  0  0  0  0  0  0  0  0  0  0
    0.9766    1.9185   -6.8541 F   0  0  0  0  0  0  0  0  0  0  0  0
    2.5743    3.1000   -5.9575 F   0  0  0  0  0  0  0  0  0  0  0  0
    2.9555    1.0496   -6.5882 F   0  0  0  0  0  0  0  0  0  0  0  0
  1  2  2  0  0  0  0
  1  6  1  0  0  0  0
  2  3  1  0  0  0  0
  3 20  1  0  0  0  0
  3  4  2  0  0  0  0
  4  9  1  0  0  0  0
  5  4  1  0  0  0  0
  5 10  1  0  0  0  0
  6  5  2  0  0  0  0
  7  1  1  0  0  0  0
  8  2  1  0  0  0  0
 11  6  1  0  0  0  0
 11 12  2  0  0  0  0
 13 11  2  0  0  0  0
 14 15  3  0  0  0  0
 16 18  2  0  0  0  0
 16 19  2  0  0  0  0
 17 22  1  0  0  0  0
 17 16  1  0  0  0  0
 20 16  1  0  0  0  0
 21 17  1  0  0  0  0
 23 17  1  0  0  0  0
M  END
