Coordinates from ORCA-job 4-NO2-Ph-N2-OTf-B3LYPG-6-31G_dp-MTMO-d009-169-n800
 OpenBabel09051908483D

 23 22  0  0  0  0  0  0  0  0999 V2000
   -2.8050   -1.4041   -6.0203 C   0  0  0  0  0  0  0  0  0  0  0  0
   -1.4339   -1.1855   -5.9339 C   0  0  0  0  0  0  0  0  0  0  0  0
   -0.8953   -0.7218   -4.7337 C   0  0  0  0  0  0  0  0  0  0  0  0
   -1.6870   -0.4715   -3.6126 C   0  0  0  0  0  0  0  0  0  0  0  0
   -3.0602   -0.6804   -3.7023 C   0  0  0  0  0  0  0  0  0  0  0  0
   -3.5960   -1.1444   -4.9023 C   0  0  0  0  0  0  0  0  0  0  0  0
   -3.2670   -1.7659   -6.9299 H   0  0  0  0  0  0  0  0  0  0  0  0
   -0.7797   -1.3725   -6.7776 H   0  0  0  0  0  0  0  0  0  0  0  0
   -1.2362   -0.1170   -2.6941 H   0  0  0  0  0  0  0  0  0  0  0  0
   -3.7162   -0.4970   -2.8610 H   0  0  0  0  0  0  0  0  0  0  0  0
   -5.0487   -1.3714   -4.9918 N   0  0  0  0  0  0  0  0  0  0  0  0
   -5.7231   -1.1358   -3.9912 O   0  0  0  0  0  0  0  0  0  0  0  0
   -5.4939   -1.7827   -6.0618 O   0  0  0  0  0  0  0  0  0  0  0  0
    8.9638    7.9183  -11.1542 N   0  0  0  0  0  0  0  0  0  0  0  0
    8.1431    7.2781  -10.7825 N   0  0  0  0  0  0  0  0  0  0  0  0
    1.2299    0.8611   -4.4405 S   0  0  0  0  0  0  0  0  0  0  0  0
    1.4497    1.3458   -6.2348 C   0  0  0  0  0  0  0  0  0  0  0  0
    0.3031    1.8056   -3.8411 O   0  0  0  0  0  0  0  0  0  0  0  0
    2.5384    0.5617   -3.8992 O   0  0  0  0  0  0  0  0  0  0  0  0
    0.5006   -0.6072   -4.6637 O   0  0  0  0  0  0  0  0  0  0  0  0
    0.2515    1.4237   -6.8165 F   0  0  0  0  0  0  0  0  0  0  0  0
    2.0510    2.5298   -6.2768 F   0  0  0  0  0  0  0  0  0  0  0  0
    2.1902    0.4343   -6.8560 F   0  0  0  0  0  0  0  0  0  0  0  0
  1  2  2  0  0  0  0
  1  6  1  0  0  0  0
  2  3  1  0  0  0  0
  3 20  1  0  0  0  0
  3  4  2  0  0  0  0
  4  9  1  0  0  0  0
  5  4  1  0  0  0  0
  5 10  1  0  0  0  0
  6  5  2  0  0  0  0
  7  1  1  0  0  0  0
  8  2  1  0  0  0  0
 11  6  1  0  0  0  0
 11 12  2  0  0  0  0
 13 11  2  0  0  0  0
 14 15  3  0  0  0  0
 16 19  2  0  0  0  0
 16 18  2  0  0  0  0
 17 16  1  0  0  0  0
 20 16  1  0  0  0  0
 21 17  1  0  0  0  0
 22 17  1  0  0  0  0
 23 17  1  0  0  0  0
M  END
