Coordinates from ORCA-job 4-NO2-Ph-N2-OTf-B3LYPG-6-31G_dp-MTMO-d009-169-n800
 OpenBabel09051908473D

 23 22  0  0  0  0  0  0  0  0999 V2000
   -1.9903   -1.6544   -5.6794 C   0  0  0  0  0  0  0  0  0  0  0  0
   -0.6566   -1.3407   -5.4385 C   0  0  0  0  0  0  0  0  0  0  0  0
   -0.3391   -0.0852   -4.9209 C   0  0  0  0  0  0  0  0  0  0  0  0
   -1.3152    0.8693   -4.6346 C   0  0  0  0  0  0  0  0  0  0  0  0
   -2.6485    0.5588   -4.8853 C   0  0  0  0  0  0  0  0  0  0  0  0
   -2.9641   -0.6969   -5.4005 C   0  0  0  0  0  0  0  0  0  0  0  0
   -2.2859   -2.6167   -6.0771 H   0  0  0  0  0  0  0  0  0  0  0  0
    0.1351   -2.0527   -5.6413 H   0  0  0  0  0  0  0  0  0  0  0  0
   -1.0339    1.8333   -4.2299 H   0  0  0  0  0  0  0  0  0  0  0  0
   -3.4420    1.2665   -4.6820 H   0  0  0  0  0  0  0  0  0  0  0  0
   -4.3769   -1.0258   -5.6571 N   0  0  0  0  0  0  0  0  0  0  0  0
   -5.2157   -0.1638   -5.4024 O   0  0  0  0  0  0  0  0  0  0  0  0
   -4.6262   -2.1416   -6.1098 O   0  0  0  0  0  0  0  0  0  0  0  0
    0.6501    5.4914   -5.0800 N   0  0  0  0  0  0  0  0  0  0  0  0
    1.4278    5.7961   -5.8037 N   0  0  0  0  0  0  0  0  0  0  0  0
    1.8816    1.3207   -5.3765 S   0  0  0  0  0  0  0  0  0  0  0  0
    2.5572    0.2867   -6.7826 C   0  0  0  0  0  0  0  0  0  0  0  0
    1.0011    2.3232   -5.9521 O   0  0  0  0  0  0  0  0  0  0  0  0
    2.9801    1.6315   -4.4868 O   0  0  0  0  0  0  0  0  0  0  0  0
    1.0065    0.1506   -4.6024 O   0  0  0  0  0  0  0  0  0  0  0  0
    1.5413   -0.1667   -7.5188 F   0  0  0  0  0  0  0  0  0  0  0  0
    3.3467    1.0551   -7.5253 F   0  0  0  0  0  0  0  0  0  0  0  0
    3.2461   -0.7374   -6.2910 F   0  0  0  0  0  0  0  0  0  0  0  0
  1  2  2  0  0  0  0
  1  6  1  0  0  0  0
  2  3  1  0  0  0  0
  3  4  2  0  0  0  0
  3 20  1  0  0  0  0
  4  9  1  0  0  0  0
  5 10  1  0  0  0  0
  5  4  1  0  0  0  0
  6  5  2  0  0  0  0
  7  1  1  0  0  0  0
  8  2  1  0  0  0  0
 11 12  2  0  0  0  0
 11  6  1  0  0  0  0
 13 11  2  0  0  0  0
 15 14  3  0  0  0  0
 16 20  1  0  0  0  0
 16 19  2  0  0  0  0
 17 23  1  0  0  0  0
 17 16  1  0  0  0  0
 18 16  2  0  0  0  0
 21 17  1  0  0  0  0
 22 17  1  0  0  0  0
M  END
