Coordinates from ORCA-job 4-NO2-Ph-N2-OTf-B3LYPG-6-31G_dp-MTMO-d009-169-n800
 OpenBabel09051908473D

 23 22  0  0  0  0  0  0  0  0999 V2000
   -2.0669   -0.8038   -6.2072 C   0  0  0  0  0  0  0  0  0  0  0  0
   -0.7116   -0.5083   -6.0935 C   0  0  0  0  0  0  0  0  0  0  0  0
   -0.2921    0.3388   -5.0673 C   0  0  0  0  0  0  0  0  0  0  0  0
   -1.1871    0.8806   -4.1444 C   0  0  0  0  0  0  0  0  0  0  0  0
   -2.5397    0.5746   -4.2507 C   0  0  0  0  0  0  0  0  0  0  0  0
   -2.9589   -0.2602   -5.2852 C   0  0  0  0  0  0  0  0  0  0  0  0
   -2.4386   -1.4537   -6.9896 H   0  0  0  0  0  0  0  0  0  0  0  0
    0.0035   -0.9292   -6.7876 H   0  0  0  0  0  0  0  0  0  0  0  0
   -0.8137    1.5266   -3.3584 H   0  0  0  0  0  0  0  0  0  0  0  0
   -3.2686    0.9709   -3.5556 H   0  0  0  0  0  0  0  0  0  0  0  0
   -4.3901   -0.5834   -5.4032 N   0  0  0  0  0  0  0  0  0  0  0  0
   -5.1531   -0.0944   -4.5717 O   0  0  0  0  0  0  0  0  0  0  0  0
   -4.7319   -1.3223   -6.3249 O   0  0  0  0  0  0  0  0  0  0  0  0
   -0.3638    3.5795   -5.7018 N   0  0  0  0  0  0  0  0  0  0  0  0
   -0.9942    4.3789   -6.1316 N   0  0  0  0  0  0  0  0  0  0  0  0
    2.0535    1.2485   -5.9982 S   0  0  0  0  0  0  0  0  0  0  0  0
    3.1802   -0.2339   -6.1744 C   0  0  0  0  0  0  0  0  0  0  0  0
    1.3390    1.4140   -7.2523 O   0  0  0  0  0  0  0  0  0  0  0  0
    2.8230    2.3008   -5.3671 O   0  0  0  0  0  0  0  0  0  0  0  0
    1.0628    0.6088   -4.8356 O   0  0  0  0  0  0  0  0  0  0  0  0
    2.4716   -1.2819   -6.6031 F   0  0  0  0  0  0  0  0  0  0  0  0
    4.1160    0.0682   -7.0690 F   0  0  0  0  0  0  0  0  0  0  0  0
    3.7398   -0.5181   -5.0054 F   0  0  0  0  0  0  0  0  0  0  0  0
  1  2  2  0  0  0  0
  1  6  1  0  0  0  0
  2  3  1  0  0  0  0
  3 20  1  0  0  0  0
  3  4  2  0  0  0  0
  4  9  1  0  0  0  0
  5  4  1  0  0  0  0
  5 10  1  0  0  0  0
  6  5  2  0  0  0  0
  7  1  1  0  0  0  0
  8  2  1  0  0  0  0
 11  6  1  0  0  0  0
 11 12  2  0  0  0  0
 13 11  2  0  0  0  0
 15 14  3  0  0  0  0
 16 19  2  0  0  0  0
 16 20  1  0  0  0  0
 17 16  1  0  0  0  0
 17 23  1  0  0  0  0
 18 16  2  0  0  0  0
 21 17  1  0  0  0  0
 22 17  1  0  0  0  0
M  END
