Coordinates from ORCA-job 4-NO2-Ph-N2-OTf-B3LYPG-6-31G_dp-MTMO-d009-169-n800
 OpenBabel09051908473D

 23 22  0  0  0  0  0  0  0  0999 V2000
   -2.3183   -0.8810   -6.3688 C   0  0  0  0  0  0  0  0  0  0  0  0
   -0.9614   -0.6184   -6.2093 C   0  0  0  0  0  0  0  0  0  0  0  0
   -0.4721   -0.3309   -4.9354 C   0  0  0  0  0  0  0  0  0  0  0  0
   -1.2999   -0.2968   -3.8133 C   0  0  0  0  0  0  0  0  0  0  0  0
   -2.6587   -0.5507   -3.9736 C   0  0  0  0  0  0  0  0  0  0  0  0
   -3.1448   -0.8403   -5.2472 C   0  0  0  0  0  0  0  0  0  0  0  0
   -2.7429   -1.1126   -7.3372 H   0  0  0  0  0  0  0  0  0  0  0  0
   -0.2821   -0.6359   -7.0535 H   0  0  0  0  0  0  0  0  0  0  0  0
   -0.8860   -0.0748   -2.8372 H   0  0  0  0  0  0  0  0  0  0  0  0
   -3.3409   -0.5336   -3.1332 H   0  0  0  0  0  0  0  0  0  0  0  0
   -4.5822   -1.1160   -5.4139 N   0  0  0  0  0  0  0  0  0  0  0  0
   -5.2884   -1.0778   -4.4082 O   0  0  0  0  0  0  0  0  0  0  0  0
   -4.9839   -1.3675   -6.5487 O   0  0  0  0  0  0  0  0  0  0  0  0
    4.0968    3.7778   -9.6887 N   0  0  0  0  0  0  0  0  0  0  0  0
    3.4992    3.2391   -8.9311 N   0  0  0  0  0  0  0  0  0  0  0  0
    1.5560    1.3027   -4.3818 S   0  0  0  0  0  0  0  0  0  0  0  0
    2.0391    1.8902   -6.0937 C   0  0  0  0  0  0  0  0  0  0  0  0
    0.5154    2.1862   -3.8849 O   0  0  0  0  0  0  0  0  0  0  0  0
    2.7767    1.0112   -3.6594 O   0  0  0  0  0  0  0  0  0  0  0  0
    0.9136   -0.1667   -4.7977 O   0  0  0  0  0  0  0  0  0  0  0  0
    0.9555    1.9199   -6.8715 F   0  0  0  0  0  0  0  0  0  0  0  0
    2.5475    3.1127   -5.9798 F   0  0  0  0  0  0  0  0  0  0  0  0
    2.9409    1.0644   -6.6096 F   0  0  0  0  0  0  0  0  0  0  0  0
  1  2  2  0  0  0  0
  1  6  1  0  0  0  0
  2  3  1  0  0  0  0
  3 20  1  0  0  0  0
  3  4  2  0  0  0  0
  4  9  1  0  0  0  0
  5  4  1  0  0  0  0
  5 10  1  0  0  0  0
  6  5  2  0  0  0  0
  7  1  1  0  0  0  0
  8  2  1  0  0  0  0
 11  6  1  0  0  0  0
 11 12  2  0  0  0  0
 13 11  2  0  0  0  0
 14 15  3  0  0  0  0
 16 18  2  0  0  0  0
 16 19  2  0  0  0  0
 17 22  1  0  0  0  0
 17 16  1  0  0  0  0
 20 16  1  0  0  0  0
 21 17  1  0  0  0  0
 23 17  1  0  0  0  0
M  END
