Coordinates from ORCA-job 4-NO2-Ph-N2-OTf-B3LYPG-6-31G_dp-MTMO-d009-169-n800
 OpenBabel09051908473D

 23 22  0  0  0  0  0  0  0  0999 V2000
   -2.6261   -1.2639   -6.1272 C   0  0  0  0  0  0  0  0  0  0  0  0
   -1.2548   -1.0497   -6.0347 C   0  0  0  0  0  0  0  0  0  0  0  0
   -0.7205   -0.5837   -4.8334 C   0  0  0  0  0  0  0  0  0  0  0  0
   -1.5169   -0.3271   -3.7171 C   0  0  0  0  0  0  0  0  0  0  0  0
   -2.8903   -0.5317   -3.8129 C   0  0  0  0  0  0  0  0  0  0  0  0
   -3.4217   -0.9978   -5.0140 C   0  0  0  0  0  0  0  0  0  0  0  0
   -3.0849   -1.6272   -7.0379 H   0  0  0  0  0  0  0  0  0  0  0  0
   -0.5970   -1.2416   -6.8745 H   0  0  0  0  0  0  0  0  0  0  0  0
   -1.0694    0.0291   -2.7976 H   0  0  0  0  0  0  0  0  0  0  0  0
   -3.5499   -0.3432   -2.9755 H   0  0  0  0  0  0  0  0  0  0  0  0
   -4.8747   -1.2202   -5.1099 N   0  0  0  0  0  0  0  0  0  0  0  0
   -5.5533   -0.9791   -4.1135 O   0  0  0  0  0  0  0  0  0  0  0  0
   -5.3161   -1.6333   -6.1809 O   0  0  0  0  0  0  0  0  0  0  0  0
    7.0880    6.4653  -10.0760 N   0  0  0  0  0  0  0  0  0  0  0  0
    6.2770    5.8255   -9.6828 N   0  0  0  0  0  0  0  0  0  0  0  0
    1.4082    0.9935   -4.5355 S   0  0  0  0  0  0  0  0  0  0  0  0
    1.6402    1.4699   -6.3304 C   0  0  0  0  0  0  0  0  0  0  0  0
    0.4809    1.9434   -3.9454 O   0  0  0  0  0  0  0  0  0  0  0  0
    2.7125    0.6922   -3.9850 O   0  0  0  0  0  0  0  0  0  0  0  0
    0.6754   -0.4734   -4.7569 O   0  0  0  0  0  0  0  0  0  0  0  0
    0.4457    1.5486   -6.9196 F   0  0  0  0  0  0  0  0  0  0  0  0
    2.2450    2.6519   -6.3740 F   0  0  0  0  0  0  0  0  0  0  0  0
    2.3818    0.5535   -6.9431 F   0  0  0  0  0  0  0  0  0  0  0  0
  1  2  2  0  0  0  0
  1  6  1  0  0  0  0
  2  3  1  0  0  0  0
  3 20  1  0  0  0  0
  3  4  2  0  0  0  0
  4  9  1  0  0  0  0
  5  4  1  0  0  0  0
  5 10  1  0  0  0  0
  6  5  2  0  0  0  0
  7  1  1  0  0  0  0
  8  2  1  0  0  0  0
 11  6  1  0  0  0  0
 11 12  2  0  0  0  0
 13 11  2  0  0  0  0
 14 15  3  0  0  0  0
 16 19  2  0  0  0  0
 16 18  2  0  0  0  0
 17 16  1  0  0  0  0
 20 16  1  0  0  0  0
 21 17  1  0  0  0  0
 22 17  1  0  0  0  0
 23 17  1  0  0  0  0
M  END
