Coordinates from ORCA-job 4-NO2-Ph-N2-OTf-B3LYPG-6-31G_dp-MTMO-d009-169-n800
 OpenBabel09051908473D

 23 22  0  0  0  0  0  0  0  0999 V2000
   -1.9804   -0.3398   -6.3941 C   0  0  0  0  0  0  0  0  0  0  0  0
   -1.0607    0.6965   -6.5381 C   0  0  0  0  0  0  0  0  0  0  0  0
   -1.0368    1.6354   -5.5152 C   0  0  0  0  0  0  0  0  0  0  0  0
   -1.8247    1.6267   -4.3670 C   0  0  0  0  0  0  0  0  0  0  0  0
   -2.7303    0.5784   -4.2471 C   0  0  0  0  0  0  0  0  0  0  0  0
   -2.7929   -0.3754   -5.2631 C   0  0  0  0  0  0  0  0  0  0  0  0
   -2.0646   -1.1201   -7.1400 H   0  0  0  0  0  0  0  0  0  0  0  0
   -0.3520    0.7660   -7.3558 H   0  0  0  0  0  0  0  0  0  0  0  0
   -1.7283    2.3887   -3.6031 H   0  0  0  0  0  0  0  0  0  0  0  0
   -3.3805    0.4888   -3.3862 H   0  0  0  0  0  0  0  0  0  0  0  0
   -3.7676   -1.4824   -5.1253 N   0  0  0  0  0  0  0  0  0  0  0  0
   -4.4579   -1.4961   -4.1105 O   0  0  0  0  0  0  0  0  0  0  0  0
   -3.8160   -2.3021   -6.0361 O   0  0  0  0  0  0  0  0  0  0  0  0
   -0.1332    2.8236   -5.6700 N   0  0  0  0  0  0  0  0  0  0  0  0
    0.2024    3.8724   -5.8239 N   0  0  0  0  0  0  0  0  0  0  0  0
    2.4560    1.2381   -5.9988 S   0  0  0  0  0  0  0  0  0  0  0  0
    2.5410   -0.6161   -5.9166 C   0  0  0  0  0  0  0  0  0  0  0  0
    1.6952    1.5004   -7.2532 O   0  0  0  0  0  0  0  0  0  0  0  0
    3.8446    1.6932   -5.9502 O   0  0  0  0  0  0  0  0  0  0  0  0
    1.6213    1.5799   -4.7878 O   0  0  0  0  0  0  0  0  0  0  0  0
    1.2937   -1.1361   -5.9596 F   0  0  0  0  0  0  0  0  0  0  0  0
    3.2297   -1.1013   -6.9539 F   0  0  0  0  0  0  0  0  0  0  0  0
    3.1212   -1.0177   -4.7824 F   0  0  0  0  0  0  0  0  0  0  0  0
  1  6  1  0  0  0  0
  2  1  2  0  0  0  0
  2  3  1  0  0  0  0
  3  4  2  0  0  0  0
  4  5  1  0  0  0  0
  4  9  1  0  0  0  0
  5 10  1  0  0  0  0
  6 11  1  0  0  0  0
  6  5  2  0  0  0  0
  7  1  1  0  0  0  0
  8  2  1  0  0  0  0
 11 12  2  0  0  0  0
 13 11  2  0  0  0  0
 14  3  1  0  0  0  0
 15 14  1  0  0  0  0
 16 19  2  0  0  0  0
 16 17  1  0  0  0  0
 16 20  1  0  0  0  0
 17 23  1  0  0  0  0
 18 16  2  0  0  0  0
 21 17  1  0  0  0  0
 22 17  1  0  0  0  0
M  RAD  3  14   2  15   3  20   2
M  END
