Coordinates from ORCA-job 4-NO2-Ph-N2-OTf-B3LYPG-6-31G_dp-MTMO-d009-169-n800
 OpenBabel09051908473D

 23 22  0  0  0  0  0  0  0  0999 V2000
   -2.0727   -0.9185   -6.1606 C   0  0  0  0  0  0  0  0  0  0  0  0
   -0.7189   -0.6190   -6.0411 C   0  0  0  0  0  0  0  0  0  0  0  0
   -0.3144    0.2874   -5.0611 C   0  0  0  0  0  0  0  0  0  0  0  0
   -1.2219    0.8893   -4.1901 C   0  0  0  0  0  0  0  0  0  0  0  0
   -2.5739    0.5812   -4.3019 C   0  0  0  0  0  0  0  0  0  0  0  0
   -2.9778   -0.3157   -5.2894 C   0  0  0  0  0  0  0  0  0  0  0  0
   -2.4340   -1.6142   -6.9077 H   0  0  0  0  0  0  0  0  0  0  0  0
    0.0092   -1.0821   -6.6942 H   0  0  0  0  0  0  0  0  0  0  0  0
   -0.8601    1.5830   -3.4402 H   0  0  0  0  0  0  0  0  0  0  0  0
   -3.3135    1.0223   -3.6464 H   0  0  0  0  0  0  0  0  0  0  0  0
   -4.4084   -0.6414   -5.4122 N   0  0  0  0  0  0  0  0  0  0  0  0
   -5.1837   -0.0984   -4.6269 O   0  0  0  0  0  0  0  0  0  0  0  0
   -4.7369   -1.4362   -6.2911 O   0  0  0  0  0  0  0  0  0  0  0  0
   -0.2831    3.7478   -5.6064 N   0  0  0  0  0  0  0  0  0  0  0  0
   -0.5528    4.7288   -6.0374 N   0  0  0  0  0  0  0  0  0  0  0  0
    1.9983    1.2532   -5.9930 S   0  0  0  0  0  0  0  0  0  0  0  0
    3.1646   -0.1912   -6.2189 C   0  0  0  0  0  0  0  0  0  0  0  0
    1.2578    1.4288   -7.2304 O   0  0  0  0  0  0  0  0  0  0  0  0
    2.7493    2.3128   -5.3510 O   0  0  0  0  0  0  0  0  0  0  0  0
    1.0419    0.5594   -4.8329 O   0  0  0  0  0  0  0  0  0  0  0  0
    2.4851   -1.2460   -6.6768 F   0  0  0  0  0  0  0  0  0  0  0  0
    4.0877    0.1641   -7.1073 F   0  0  0  0  0  0  0  0  0  0  0  0
    3.7372   -0.4942   -5.0609 F   0  0  0  0  0  0  0  0  0  0  0  0
  1  2  2  0  0  0  0
  1  6  1  0  0  0  0
  2  3  1  0  0  0  0
  3 20  1  0  0  0  0
  3  4  2  0  0  0  0
  4  9  1  0  0  0  0
  5  4  1  0  0  0  0
  5 10  1  0  0  0  0
  6  5  2  0  0  0  0
  7  1  1  0  0  0  0
  8  2  1  0  0  0  0
 11  6  1  0  0  0  0
 11 12  2  0  0  0  0
 13 11  2  0  0  0  0
 15 14  3  0  0  0  0
 16 19  2  0  0  0  0
 16 20  1  0  0  0  0
 17 16  1  0  0  0  0
 17 23  1  0  0  0  0
 18 16  2  0  0  0  0
 21 17  1  0  0  0  0
 22 17  1  0  0  0  0
M  END
