Coordinates from ORCA-job 4-NO2-Ph-N2-OTf-B3LYPG-6-31G_dp-MTMO-d009-169-n800
 OpenBabel09051908473D

 23 22  0  0  0  0  0  0  0  0999 V2000
   -2.0703   -0.4898   -6.3203 C   0  0  0  0  0  0  0  0  0  0  0  0
   -0.7245   -0.1400   -6.2454 C   0  0  0  0  0  0  0  0  0  0  0  0
   -0.2727    0.5437   -5.1152 C   0  0  0  0  0  0  0  0  0  0  0  0
   -1.1222    0.8379   -4.0452 C   0  0  0  0  0  0  0  0  0  0  0  0
   -2.4612    0.4766   -4.1179 C   0  0  0  0  0  0  0  0  0  0  0  0
   -2.9191   -0.1774   -5.2614 C   0  0  0  0  0  0  0  0  0  0  0  0
   -2.4659   -1.0114   -7.1828 H   0  0  0  0  0  0  0  0  0  0  0  0
   -0.0527   -0.3844   -7.0562 H   0  0  0  0  0  0  0  0  0  0  0  0
   -0.7223    1.3510   -3.1784 H   0  0  0  0  0  0  0  0  0  0  0  0
   -3.1515    0.6927   -3.3124 H   0  0  0  0  0  0  0  0  0  0  0  0
   -4.3367   -0.5587   -5.3454 N   0  0  0  0  0  0  0  0  0  0  0  0
   -5.0576   -0.2782   -4.3888 O   0  0  0  0  0  0  0  0  0  0  0  0
   -4.7114   -1.1349   -6.3654 O   0  0  0  0  0  0  0  0  0  0  0  0
   -0.6052    3.0746   -6.0017 N   0  0  0  0  0  0  0  0  0  0  0  0
   -1.4554    3.6218   -6.4486 N   0  0  0  0  0  0  0  0  0  0  0  0
    2.1752    1.2867   -6.0307 S   0  0  0  0  0  0  0  0  0  0  0  0
    3.1305   -0.3213   -6.0217 C   0  0  0  0  0  0  0  0  0  0  0  0
    1.5679    1.4242   -7.3435 O   0  0  0  0  0  0  0  0  0  0  0  0
    3.0137    2.3001   -5.4266 O   0  0  0  0  0  0  0  0  0  0  0  0
    1.0666    0.8702   -4.8814 O   0  0  0  0  0  0  0  0  0  0  0  0
    2.3177   -1.3142   -6.3902 F   0  0  0  0  0  0  0  0  0  0  0  0
    4.1291   -0.2110   -6.8924 F   0  0  0  0  0  0  0  0  0  0  0  0
    3.6072   -0.5573   -4.8062 F   0  0  0  0  0  0  0  0  0  0  0  0
  1  2  2  0  0  0  0
  1  6  1  0  0  0  0
  2  3  1  0  0  0  0
  3 20  1  0  0  0  0
  3  4  2  0  0  0  0
  4  9  1  0  0  0  0
  5  4  1  0  0  0  0
  5 10  1  0  0  0  0
  6  5  2  0  0  0  0
  7  1  1  0  0  0  0
  8  2  1  0  0  0  0
 11  6  1  0  0  0  0
 11 12  2  0  0  0  0
 13 11  2  0  0  0  0
 15 14  3  0  0  0  0
 16 17  1  0  0  0  0
 16 19  2  0  0  0  0
 16 20  1  0  0  0  0
 17 23  1  0  0  0  0
 18 16  2  0  0  0  0
 21 17  1  0  0  0  0
 22 17  1  0  0  0  0
M  END
