Coordinates from ORCA-job 4-NO2-Ph-N2-OTf-B3LYPG-6-31G_dp-MTMO-d009-169-n800
 OpenBabel09051908473D

 23 23  0  0  1  0  0  0  0  0999 V2000
   -1.4258   -0.3772   -5.8652 C   0  0  0  0  0  0  0  0  0  0  0  0
   -0.5437    0.7935   -6.0356 C   0  0  1  0  0  0  0  0  0  0  0  0
   -1.1878    2.0184   -5.5453 C   0  0  1  0  0  0  0  0  0  0  0  0
   -2.2922    2.0438   -4.6417 C   0  0  0  0  0  0  0  0  0  0  0  0
   -2.9429    0.8788   -4.3710 C   0  0  0  0  0  0  0  0  0  0  0  0
   -2.4995   -0.3084   -5.0423 C   0  0  0  0  0  0  0  0  0  0  0  0
   -1.1699   -1.3028   -6.3628 H   0  0  0  0  0  0  0  0  0  0  0  0
   -0.1006    0.8848   -7.0242 H   0  0  0  0  0  0  0  0  0  0  0  0
   -2.6050    2.9844   -4.2025 H   0  0  0  0  0  0  0  0  0  0  0  0
   -3.7923    0.8288   -3.7053 H   0  0  0  0  0  0  0  0  0  0  0  0
   -3.3041   -1.5413   -4.8519 N   0  0  0  0  0  0  0  0  0  0  0  0
   -4.2584   -1.4696   -4.0813 O   0  0  0  0  0  0  0  0  0  0  0  0
   -2.9678   -2.5480   -5.4682 O   0  0  0  0  0  0  0  0  0  0  0  0
   -0.6008    3.2333   -5.9210 N   0  0  0  0  0  0  0  0  0  0  0  0
   -0.1208    4.2066   -6.2317 N   0  0  0  0  0  0  0  0  0  0  0  0
    2.1894    0.7968   -5.6785 S   0  0  0  0  0  0  0  0  0  0  0  0
    2.5789   -0.8191   -6.5245 C   0  0  0  0  0  0  0  0  0  0  0  0
    2.0954    1.7996   -6.7405 O   0  0  0  0  0  0  0  0  0  0  0  0
    3.1074    0.9394   -4.5632 O   0  0  0  0  0  0  0  0  0  0  0  0
    0.7328    0.4632   -5.1105 O   0  0  0  0  0  0  0  0  0  0  0  0
    1.5876   -1.1050   -7.3859 F   0  0  0  0  0  0  0  0  0  0  0  0
    3.7220   -0.7018   -7.1946 F   0  0  0  0  0  0  0  0  0  0  0  0
    2.6770   -1.7969   -5.6302 F   0  0  0  0  0  0  0  0  0  0  0  0
  1  6  2  0  0  0  0
  2  8  1  6  0  0  0
  2  1  1  0  0  0  0
  2  3  1  0  0  0  0
  2 20  1  0  0  0  0
  3 14  1  1  0  0  0
  3  4  1  0  0  0  0
  4  5  2  0  0  0  0
  4  9  1  0  0  0  0
  5 10  1  0  0  0  0
  6 11  1  0  0  0  0
  6  5  1  0  0  0  0
  7  1  1  0  0  0  0
 11 12  2  0  0  0  0
 13 11  2  0  0  0  0
 15 14  1  0  0  0  0
 16 20  1  0  0  0  0
 16 19  2  0  0  0  0
 17 16  1  0  0  0  0
 17 23  1  0  0  0  0
 18 16  2  0  0  0  0
 21 17  1  0  0  0  0
 22 17  1  0  0  0  0
M  RAD  3   3   2  14   2  15   3
M  END
