Coordinates from ORCA-job 4-NO2-Ph-N2-OTf-B3LYPG-6-31G_dp-MTMO-d009-169-n800
 OpenBabel09051908473D

 23 22  0  0  0  0  0  0  0  0999 V2000
   -2.0830   -0.3926   -6.3602 C   0  0  0  0  0  0  0  0  0  0  0  0
   -0.7523   -0.0003   -6.3128 C   0  0  0  0  0  0  0  0  0  0  0  0
   -0.3088    0.7597   -5.2152 C   0  0  0  0  0  0  0  0  0  0  0  0
   -1.1153    0.8909   -4.0688 C   0  0  0  0  0  0  0  0  0  0  0  0
   -2.4394    0.4886   -4.1157 C   0  0  0  0  0  0  0  0  0  0  0  0
   -2.9190   -0.1204   -5.2772 C   0  0  0  0  0  0  0  0  0  0  0  0
   -2.4788   -0.9290   -7.2135 H   0  0  0  0  0  0  0  0  0  0  0  0
   -0.0891   -0.2095   -7.1406 H   0  0  0  0  0  0  0  0  0  0  0  0
   -0.6979    1.3640   -3.1876 H   0  0  0  0  0  0  0  0  0  0  0  0
   -3.1023    0.6224   -3.2701 H   0  0  0  0  0  0  0  0  0  0  0  0
   -4.3236   -0.5421   -5.3342 N   0  0  0  0  0  0  0  0  0  0  0  0
   -5.0259   -0.3131   -4.3499 O   0  0  0  0  0  0  0  0  0  0  0  0
   -4.7100   -1.0976   -6.3620 O   0  0  0  0  0  0  0  0  0  0  0  0
   -0.5782    2.6025   -5.9480 N   0  0  0  0  0  0  0  0  0  0  0  0
   -1.4840    3.1404   -6.3012 N   0  0  0  0  0  0  0  0  0  0  0  0
    2.2111    1.3227   -6.0655 S   0  0  0  0  0  0  0  0  0  0  0  0
    3.0964   -0.3219   -5.9682 C   0  0  0  0  0  0  0  0  0  0  0  0
    1.6524    1.4358   -7.4033 O   0  0  0  0  0  0  0  0  0  0  0  0
    3.0718    2.3251   -5.4733 O   0  0  0  0  0  0  0  0  0  0  0  0
    1.0504    0.9824   -4.9427 O   0  0  0  0  0  0  0  0  0  0  0  0
    2.2529   -1.2917   -6.3247 F   0  0  0  0  0  0  0  0  0  0  0  0
    4.1233   -0.2849   -6.8122 F   0  0  0  0  0  0  0  0  0  0  0  0
    3.5284   -0.5302   -4.7310 F   0  0  0  0  0  0  0  0  0  0  0  0
  1  2  2  0  0  0  0
  1  6  1  0  0  0  0
  2  3  1  0  0  0  0
  3 20  1  0  0  0  0
  3  4  2  0  0  0  0
  4  9  1  0  0  0  0
  5  4  1  0  0  0  0
  5 10  1  0  0  0  0
  6  5  2  0  0  0  0
  7  1  1  0  0  0  0
  8  2  1  0  0  0  0
 11  6  1  0  0  0  0
 11 12  2  0  0  0  0
 13 11  2  0  0  0  0
 15 14  3  0  0  0  0
 16 17  1  0  0  0  0
 16 19  2  0  0  0  0
 16 20  1  0  0  0  0
 17 23  1  0  0  0  0
 18 16  2  0  0  0  0
 21 17  1  0  0  0  0
 22 17  1  0  0  0  0
M  END
