Coordinates from ORCA-job 4-NO2-Ph-N2-OTf-B3LYPG-6-31G_dp-MTMO-d009-169-n800
 OpenBabel09051908483D

 23 22  0  0  0  0  0  0  0  0999 V2000
   -2.8408   -1.4328   -5.9982 C   0  0  0  0  0  0  0  0  0  0  0  0
   -1.4699   -1.2127   -5.9140 C   0  0  0  0  0  0  0  0  0  0  0  0
   -0.9297   -0.7485   -4.7146 C   0  0  0  0  0  0  0  0  0  0  0  0
   -1.7198   -0.4993   -3.5922 C   0  0  0  0  0  0  0  0  0  0  0  0
   -3.0930   -0.7098   -3.6797 C   0  0  0  0  0  0  0  0  0  0  0  0
   -3.6302   -1.1743   -4.8788 C   0  0  0  0  0  0  0  0  0  0  0  0
   -3.3039   -1.7951   -6.9070 H   0  0  0  0  0  0  0  0  0  0  0  0
   -0.8168   -1.3987   -6.7588 H   0  0  0  0  0  0  0  0  0  0  0  0
   -1.2679   -0.1444   -2.6744 H   0  0  0  0  0  0  0  0  0  0  0  0
   -3.7478   -0.5272   -2.8372 H   0  0  0  0  0  0  0  0  0  0  0  0
   -5.0828   -1.4030   -4.9659 N   0  0  0  0  0  0  0  0  0  0  0  0
   -5.7559   -1.1683   -3.9642 O   0  0  0  0  0  0  0  0  0  0  0  0
   -5.5293   -1.8146   -6.0352 O   0  0  0  0  0  0  0  0  0  0  0  0
    9.3360    8.2043  -11.3646 N   0  0  0  0  0  0  0  0  0  0  0  0
    8.5164    7.5640  -10.9904 N   0  0  0  0  0  0  0  0  0  0  0  0
    1.1942    0.8366   -4.4247 S   0  0  0  0  0  0  0  0  0  0  0  0
    1.4104    1.3220   -6.2192 C   0  0  0  0  0  0  0  0  0  0  0  0
    0.2675    1.7800   -3.8235 O   0  0  0  0  0  0  0  0  0  0  0  0
    2.5040    0.5385   -3.8857 O   0  0  0  0  0  0  0  0  0  0  0  0
    0.4661   -0.6324   -4.6470 O   0  0  0  0  0  0  0  0  0  0  0  0
    0.2111    1.3989   -6.7988 F   0  0  0  0  0  0  0  0  0  0  0  0
    2.0105    2.5066   -6.2620 F   0  0  0  0  0  0  0  0  0  0  0  0
    2.1507    0.4114   -6.8419 F   0  0  0  0  0  0  0  0  0  0  0  0
  1  2  2  0  0  0  0
  1  6  1  0  0  0  0
  2  3  1  0  0  0  0
  3 20  1  0  0  0  0
  3  4  2  0  0  0  0
  4  9  1  0  0  0  0
  5  4  1  0  0  0  0
  5 10  1  0  0  0  0
  6  5  2  0  0  0  0
  7  1  1  0  0  0  0
  8  2  1  0  0  0  0
 11  6  1  0  0  0  0
 11 12  2  0  0  0  0
 13 11  2  0  0  0  0
 14 15  3  0  0  0  0
 16 19  2  0  0  0  0
 16 18  2  0  0  0  0
 17 16  1  0  0  0  0
 20 16  1  0  0  0  0
 21 17  1  0  0  0  0
 22 17  1  0  0  0  0
 23 17  1  0  0  0  0
M  END
