Coordinates from ORCA-job 4-NO2-Ph-N2-OTf-B3LYPG-6-31G_dp-MTMO-d009-169-n800
 OpenBabel09051908483D

 23 22  0  0  0  0  0  0  0  0999 V2000
   -2.9436   -1.5151   -5.9344 C   0  0  0  0  0  0  0  0  0  0  0  0
   -1.5730   -1.2902   -5.8574 C   0  0  0  0  0  0  0  0  0  0  0  0
   -1.0281   -0.8247   -4.6607 C   0  0  0  0  0  0  0  0  0  0  0  0
   -1.8131   -0.5787   -3.5340 C   0  0  0  0  0  0  0  0  0  0  0  0
   -3.1859   -0.7940   -3.6143 C   0  0  0  0  0  0  0  0  0  0  0  0
   -3.7279   -1.2598   -4.8107 C   0  0  0  0  0  0  0  0  0  0  0  0
   -3.4103   -1.8786   -6.8409 H   0  0  0  0  0  0  0  0  0  0  0  0
   -0.9239   -1.4735   -6.7058 H   0  0  0  0  0  0  0  0  0  0  0  0
   -1.3576   -0.2226   -2.6185 H   0  0  0  0  0  0  0  0  0  0  0  0
   -3.8369   -0.6140   -2.7682 H   0  0  0  0  0  0  0  0  0  0  0  0
   -5.1801   -1.4937   -4.8901 N   0  0  0  0  0  0  0  0  0  0  0  0
   -5.8487   -1.2618   -3.8848 O   0  0  0  0  0  0  0  0  0  0  0  0
   -5.6309   -1.9065   -5.9572 O   0  0  0  0  0  0  0  0  0  0  0  0
   10.3987    9.0223  -11.9652 N   0  0  0  0  0  0  0  0  0  0  0  0
    9.5871    8.3796  -11.5783 N   0  0  0  0  0  0  0  0  0  0  0  0
    1.0922    0.7672   -4.3812 S   0  0  0  0  0  0  0  0  0  0  0  0
    1.2971    1.2542   -6.1766 C   0  0  0  0  0  0  0  0  0  0  0  0
    0.1656    1.7073   -3.7745 O   0  0  0  0  0  0  0  0  0  0  0  0
    2.4059    0.4732   -3.8494 O   0  0  0  0  0  0  0  0  0  0  0  0
    0.3677   -0.7040   -4.6004 O   0  0  0  0  0  0  0  0  0  0  0  0
    0.0945    1.3270   -6.7498 F   0  0  0  0  0  0  0  0  0  0  0  0
    1.8926    2.4410   -6.2220 F   0  0  0  0  0  0  0  0  0  0  0  0
    2.0375    0.3466   -6.8036 F   0  0  0  0  0  0  0  0  0  0  0  0
  1  2  2  0  0  0  0
  1  6  1  0  0  0  0
  2  3  1  0  0  0  0
  3 20  1  0  0  0  0
  3  4  2  0  0  0  0
  4  9  1  0  0  0  0
  5  4  1  0  0  0  0
  5 10  1  0  0  0  0
  6  5  2  0  0  0  0
  7  1  1  0  0  0  0
  8  2  1  0  0  0  0
 11  6  1  0  0  0  0
 11 12  2  0  0  0  0
 13 11  2  0  0  0  0
 14 15  3  0  0  0  0
 16 19  2  0  0  0  0
 16 18  2  0  0  0  0
 17 16  1  0  0  0  0
 20 16  1  0  0  0  0
 21 17  1  0  0  0  0
 22 17  1  0  0  0  0
 23 17  1  0  0  0  0
M  END
