Coordinates from ORCA-job 4-NO2-Ph-N2-OTf-B3LYPG-6-31G_dp-MTMO-d009-169-n800
 OpenBabel09051908483D

 23 22  0  0  0  0  0  0  0  0999 V2000
   -2.7705   -1.3765   -6.0416 C   0  0  0  0  0  0  0  0  0  0  0  0
   -1.3994   -1.1593   -5.9531 C   0  0  0  0  0  0  0  0  0  0  0  0
   -0.8620   -0.6959   -4.7522 C   0  0  0  0  0  0  0  0  0  0  0  0
   -1.6551   -0.4448   -3.6323 C   0  0  0  0  0  0  0  0  0  0  0  0
   -3.0284   -0.6524   -3.7240 C   0  0  0  0  0  0  0  0  0  0  0  0
   -3.5629   -1.1159   -4.9248 C   0  0  0  0  0  0  0  0  0  0  0  0
   -3.2316   -1.7379   -6.9518 H   0  0  0  0  0  0  0  0  0  0  0  0
   -0.7441   -1.3469   -6.7958 H   0  0  0  0  0  0  0  0  0  0  0  0
   -1.2054   -0.0906   -2.7132 H   0  0  0  0  0  0  0  0  0  0  0  0
   -3.6855   -0.4682   -2.8837 H   0  0  0  0  0  0  0  0  0  0  0  0
   -5.0157   -1.3415   -5.0163 N   0  0  0  0  0  0  0  0  0  0  0  0
   -5.6914   -1.1051   -4.0168 O   0  0  0  0  0  0  0  0  0  0  0  0
   -5.4598   -1.7524   -6.0870 O   0  0  0  0  0  0  0  0  0  0  0  0
    8.6054    7.6422  -10.9511 N   0  0  0  0  0  0  0  0  0  0  0  0
    7.7843    7.0016  -10.5810 N   0  0  0  0  0  0  0  0  0  0  0  0
    1.2641    0.8850   -4.4562 S   0  0  0  0  0  0  0  0  0  0  0  0
    1.4871    1.3693   -6.2502 C   0  0  0  0  0  0  0  0  0  0  0  0
    0.3373    1.8305   -3.8584 O   0  0  0  0  0  0  0  0  0  0  0  0
    2.5716    0.5846   -3.9128 O   0  0  0  0  0  0  0  0  0  0  0  0
    0.5338   -0.5827   -4.6802 O   0  0  0  0  0  0  0  0  0  0  0  0
    0.2899    1.4481   -6.8338 F   0  0  0  0  0  0  0  0  0  0  0  0
    2.0895    2.5527   -6.2915 F   0  0  0  0  0  0  0  0  0  0  0  0
    2.2279    0.4570   -6.8700 F   0  0  0  0  0  0  0  0  0  0  0  0
  1  2  2  0  0  0  0
  1  6  1  0  0  0  0
  2  3  1  0  0  0  0
  3 20  1  0  0  0  0
  3  4  2  0  0  0  0
  4  9  1  0  0  0  0
  5  4  1  0  0  0  0
  5 10  1  0  0  0  0
  6  5  2  0  0  0  0
  7  1  1  0  0  0  0
  8  2  1  0  0  0  0
 11  6  1  0  0  0  0
 11 12  2  0  0  0  0
 13 11  2  0  0  0  0
 14 15  3  0  0  0  0
 16 19  2  0  0  0  0
 16 18  2  0  0  0  0
 17 16  1  0  0  0  0
 20 16  1  0  0  0  0
 21 17  1  0  0  0  0
 22 17  1  0  0  0  0
 23 17  1  0  0  0  0
M  END
