Coordinates from ORCA-job 4-NO2-Ph-N2-OTf-B3LYPG-6-31G_dp-MTMO-d009-169-n800
 OpenBabel09051908473D

 23 22  0  0  0  0  0  0  0  0999 V2000
   -2.5608   -1.2240   -6.1535 C   0  0  0  0  0  0  0  0  0  0  0  0
   -1.1891   -1.0087   -6.0688 C   0  0  0  0  0  0  0  0  0  0  0  0
   -0.6509   -0.5234   -4.8770 C   0  0  0  0  0  0  0  0  0  0  0  0
   -1.4437   -0.2482   -3.7626 C   0  0  0  0  0  0  0  0  0  0  0  0
   -2.8174   -0.4540   -3.8506 C   0  0  0  0  0  0  0  0  0  0  0  0
   -3.3528   -0.9397   -5.0422 C   0  0  0  0  0  0  0  0  0  0  0  0
   -3.0226   -1.6019   -7.0567 H   0  0  0  0  0  0  0  0  0  0  0  0
   -0.5341   -1.2142   -6.9075 H   0  0  0  0  0  0  0  0  0  0  0  0
   -0.9932    0.1230   -2.8505 H   0  0  0  0  0  0  0  0  0  0  0  0
   -3.4743   -0.2516   -3.0143 H   0  0  0  0  0  0  0  0  0  0  0  0
   -4.8061   -1.1633   -5.1297 N   0  0  0  0  0  0  0  0  0  0  0  0
   -5.4813   -0.9069   -4.1348 O   0  0  0  0  0  0  0  0  0  0  0  0
   -5.2511   -1.5928   -6.1927 O   0  0  0  0  0  0  0  0  0  0  0  0
    6.3453    5.9033   -9.5614 N   0  0  0  0  0  0  0  0  0  0  0  0
    5.5485    5.2589   -9.1472 N   0  0  0  0  0  0  0  0  0  0  0  0
    1.4792    1.0574   -4.6119 S   0  0  0  0  0  0  0  0  0  0  0  0
    1.7126    1.4991   -6.4157 C   0  0  0  0  0  0  0  0  0  0  0  0
    0.5524    2.0189   -4.0402 O   0  0  0  0  0  0  0  0  0  0  0  0
    2.7830    0.7655   -4.0551 O   0  0  0  0  0  0  0  0  0  0  0  0
    0.7451   -0.4127   -4.8066 O   0  0  0  0  0  0  0  0  0  0  0  0
    0.5183    1.5675   -7.0067 F   0  0  0  0  0  0  0  0  0  0  0  0
    2.3189    2.6791   -6.4820 F   0  0  0  0  0  0  0  0  0  0  0  0
    2.4532    0.5699   -7.0100 F   0  0  0  0  0  0  0  0  0  0  0  0
  1  2  2  0  0  0  0
  1  6  1  0  0  0  0
  2  3  1  0  0  0  0
  3 20  1  0  0  0  0
  3  4  2  0  0  0  0
  4  9  1  0  0  0  0
  5  4  1  0  0  0  0
  5 10  1  0  0  0  0
  6  5  2  0  0  0  0
  7  1  1  0  0  0  0
  8  2  1  0  0  0  0
 11  6  1  0  0  0  0
 11 12  2  0  0  0  0
 13 11  2  0  0  0  0
 14 15  3  0  0  0  0
 16 19  2  0  0  0  0
 16 18  2  0  0  0  0
 17 16  1  0  0  0  0
 20 16  1  0  0  0  0
 21 17  1  0  0  0  0
 22 17  1  0  0  0  0
 23 17  1  0  0  0  0
M  END
