Coordinates from ORCA-job 4-NO2-Ph-N2-OTf-B3LYPG-6-31G_dp-MTMO-d009-169-n800
 OpenBabel09051908473D

 23 22  0  0  0  0  0  0  0  0999 V2000
   -2.5534   -1.2198   -6.1560 C   0  0  0  0  0  0  0  0  0  0  0  0
   -1.1817   -1.0040   -6.0730 C   0  0  0  0  0  0  0  0  0  0  0  0
   -0.6426   -0.5158   -4.8827 C   0  0  0  0  0  0  0  0  0  0  0  0
   -1.4346   -0.2382   -3.7683 C   0  0  0  0  0  0  0  0  0  0  0  0
   -2.8084   -0.4446   -3.8547 C   0  0  0  0  0  0  0  0  0  0  0  0
   -3.3446   -0.9332   -5.0447 C   0  0  0  0  0  0  0  0  0  0  0  0
   -3.0158   -1.5999   -7.0580 H   0  0  0  0  0  0  0  0  0  0  0  0
   -0.5273   -1.2111   -6.9117 H   0  0  0  0  0  0  0  0  0  0  0  0
   -0.9834    0.1352   -2.8574 H   0  0  0  0  0  0  0  0  0  0  0  0
   -3.4647   -0.2404   -3.0184 H   0  0  0  0  0  0  0  0  0  0  0  0
   -4.7979   -1.1574   -5.1306 N   0  0  0  0  0  0  0  0  0  0  0  0
   -5.4723   -0.8990   -4.1357 O   0  0  0  0  0  0  0  0  0  0  0  0
   -5.2437   -1.5894   -6.1922 O   0  0  0  0  0  0  0  0  0  0  0  0
    6.2586    5.8351   -9.4959 N   0  0  0  0  0  0  0  0  0  0  0  0
    5.4631    5.1914   -9.0783 N   0  0  0  0  0  0  0  0  0  0  0  0
    1.4874    1.0660   -4.6230 S   0  0  0  0  0  0  0  0  0  0  0  0
    1.7207    1.5026   -6.4280 C   0  0  0  0  0  0  0  0  0  0  0  0
    0.5604    2.0290   -4.0539 O   0  0  0  0  0  0  0  0  0  0  0  0
    2.7912    0.7758   -4.0653 O   0  0  0  0  0  0  0  0  0  0  0  0
    0.7534   -0.4047   -4.8136 O   0  0  0  0  0  0  0  0  0  0  0  0
    0.5264    1.5692   -7.0191 F   0  0  0  0  0  0  0  0  0  0  0  0
    2.3268    2.6824   -6.4978 F   0  0  0  0  0  0  0  0  0  0  0  0
    2.4614    0.5717   -7.0196 F   0  0  0  0  0  0  0  0  0  0  0  0
  1  2  2  0  0  0  0
  1  6  1  0  0  0  0
  2  3  1  0  0  0  0
  3 20  1  0  0  0  0
  3  4  2  0  0  0  0
  4  9  1  0  0  0  0
  5  4  1  0  0  0  0
  5 10  1  0  0  0  0
  6  5  2  0  0  0  0
  7  1  1  0  0  0  0
  8  2  1  0  0  0  0
 11  6  1  0  0  0  0
 11 12  2  0  0  0  0
 13 11  2  0  0  0  0
 14 15  3  0  0  0  0
 16 19  2  0  0  0  0
 16 18  2  0  0  0  0
 17 16  1  0  0  0  0
 20 16  1  0  0  0  0
 21 17  1  0  0  0  0
 22 17  1  0  0  0  0
 23 17  1  0  0  0  0
M  END
