Coordinates from ORCA-job 4-NO2-Ph-N2-OTf-B3LYPG-6-31G_dp-MTMO-d009-169-n800
 OpenBabel09051908483D

 23 22  0  0  0  0  0  0  0  0999 V2000
   -2.9173   -1.4938   -5.9507 C   0  0  0  0  0  0  0  0  0  0  0  0
   -1.5467   -1.2695   -5.8725 C   0  0  0  0  0  0  0  0  0  0  0  0
   -1.0025   -0.8042   -4.6754 C   0  0  0  0  0  0  0  0  0  0  0  0
   -1.7884   -0.5577   -3.5494 C   0  0  0  0  0  0  0  0  0  0  0  0
   -3.1613   -0.7723   -3.6308 C   0  0  0  0  0  0  0  0  0  0  0  0
   -3.7025   -1.2380   -4.8277 C   0  0  0  0  0  0  0  0  0  0  0  0
   -3.3834   -1.8571   -6.8576 H   0  0  0  0  0  0  0  0  0  0  0  0
   -0.8969   -1.4533   -6.7203 H   0  0  0  0  0  0  0  0  0  0  0  0
   -1.3335   -0.2018   -2.6335 H   0  0  0  0  0  0  0  0  0  0  0  0
   -3.8129   -0.5919   -2.7854 H   0  0  0  0  0  0  0  0  0  0  0  0
   -5.1547   -1.4711   -4.9083 N   0  0  0  0  0  0  0  0  0  0  0  0
   -5.8240   -1.2388   -3.9036 O   0  0  0  0  0  0  0  0  0  0  0  0
   -5.6048   -1.8839   -5.9758 O   0  0  0  0  0  0  0  0  0  0  0  0
   10.1215    8.8076  -11.8056 N   0  0  0  0  0  0  0  0  0  0  0  0
    9.3076    8.1655  -11.4226 N   0  0  0  0  0  0  0  0  0  0  0  0
    1.1183    0.7866   -4.3938 S   0  0  0  0  0  0  0  0  0  0  0  0
    1.3273    1.2721   -6.1892 C   0  0  0  0  0  0  0  0  0  0  0  0
    0.1912    1.7276   -3.7896 O   0  0  0  0  0  0  0  0  0  0  0  0
    2.4307    0.4921   -3.8590 O   0  0  0  0  0  0  0  0  0  0  0  0
    0.3933   -0.6843   -4.6138 O   0  0  0  0  0  0  0  0  0  0  0  0
    0.1259    1.3453   -6.7648 F   0  0  0  0  0  0  0  0  0  0  0  0
    1.9237    2.4585   -6.2344 F   0  0  0  0  0  0  0  0  0  0  0  0
    2.0683    0.3635   -6.8141 F   0  0  0  0  0  0  0  0  0  0  0  0
  1  2  2  0  0  0  0
  1  6  1  0  0  0  0
  2  3  1  0  0  0  0
  3 20  1  0  0  0  0
  3  4  2  0  0  0  0
  4  9  1  0  0  0  0
  5  4  1  0  0  0  0
  5 10  1  0  0  0  0
  6  5  2  0  0  0  0
  7  1  1  0  0  0  0
  8  2  1  0  0  0  0
 11  6  1  0  0  0  0
 11 12  2  0  0  0  0
 13 11  2  0  0  0  0
 14 15  3  0  0  0  0
 16 19  2  0  0  0  0
 16 18  2  0  0  0  0
 17 16  1  0  0  0  0
 20 16  1  0  0  0  0
 21 17  1  0  0  0  0
 22 17  1  0  0  0  0
 23 17  1  0  0  0  0
M  END
