Coordinates from ORCA-job 4-NO2-Ph-N2-OTf-B3LYPG-6-31G_dp-MTMO-d009-169-n800
 OpenBabel09051908483D

 23 22  0  0  0  0  0  0  0  0999 V2000
   -2.8280   -1.4226   -6.0061 C   0  0  0  0  0  0  0  0  0  0  0  0
   -1.4570   -1.2030   -5.9211 C   0  0  0  0  0  0  0  0  0  0  0  0
   -0.9174   -0.7390   -4.7214 C   0  0  0  0  0  0  0  0  0  0  0  0
   -1.7081   -0.4894   -3.5995 C   0  0  0  0  0  0  0  0  0  0  0  0
   -3.0813   -0.6993   -3.6878 C   0  0  0  0  0  0  0  0  0  0  0  0
   -3.6180   -1.1636   -4.8872 C   0  0  0  0  0  0  0  0  0  0  0  0
   -3.2907   -1.7846   -6.9152 H   0  0  0  0  0  0  0  0  0  0  0  0
   -0.8036   -1.3894   -6.7655 H   0  0  0  0  0  0  0  0  0  0  0  0
   -1.2566   -0.1346   -2.6814 H   0  0  0  0  0  0  0  0  0  0  0  0
   -3.7366   -0.5164   -2.8457 H   0  0  0  0  0  0  0  0  0  0  0  0
   -5.0706   -1.3917   -4.9751 N   0  0  0  0  0  0  0  0  0  0  0  0
   -5.7442   -1.1567   -3.9739 O   0  0  0  0  0  0  0  0  0  0  0  0
   -5.5167   -1.8032   -6.0448 O   0  0  0  0  0  0  0  0  0  0  0  0
    9.2031    8.1022  -11.2894 N   0  0  0  0  0  0  0  0  0  0  0  0
    8.3830    7.4620  -10.9162 N   0  0  0  0  0  0  0  0  0  0  0  0
    1.2070    0.8453   -4.4303 S   0  0  0  0  0  0  0  0  0  0  0  0
    1.4245    1.3305   -6.2247 C   0  0  0  0  0  0  0  0  0  0  0  0
    0.2802    1.7891   -3.8298 O   0  0  0  0  0  0  0  0  0  0  0  0
    2.5163    0.5468   -3.8905 O   0  0  0  0  0  0  0  0  0  0  0  0
    0.4784   -0.6235   -4.6529 O   0  0  0  0  0  0  0  0  0  0  0  0
    0.2256    1.4077   -6.8051 F   0  0  0  0  0  0  0  0  0  0  0  0
    2.0250    2.5148   -6.2673 F   0  0  0  0  0  0  0  0  0  0  0  0
    2.1649    0.4195   -6.8469 F   0  0  0  0  0  0  0  0  0  0  0  0
  1  2  2  0  0  0  0
  1  6  1  0  0  0  0
  2  3  1  0  0  0  0
  3 20  1  0  0  0  0
  3  4  2  0  0  0  0
  4  9  1  0  0  0  0
  5  4  1  0  0  0  0
  5 10  1  0  0  0  0
  6  5  2  0  0  0  0
  7  1  1  0  0  0  0
  8  2  1  0  0  0  0
 11  6  1  0  0  0  0
 11 12  2  0  0  0  0
 13 11  2  0  0  0  0
 14 15  3  0  0  0  0
 16 19  2  0  0  0  0
 16 18  2  0  0  0  0
 17 16  1  0  0  0  0
 20 16  1  0  0  0  0
 21 17  1  0  0  0  0
 22 17  1  0  0  0  0
 23 17  1  0  0  0  0
M  END
