Coordinates from ORCA-job 4-NO2-Ph-N2-OTf-B3LYPG-6-31G_dp-MTMO-d009-169-n800
 OpenBabel09051908473D

 23 22  0  0  0  0  0  0  0  0999 V2000
   -2.3094   -0.8878   -6.3704 C   0  0  0  0  0  0  0  0  0  0  0  0
   -0.9524   -0.6286   -6.2067 C   0  0  0  0  0  0  0  0  0  0  0  0
   -0.4678   -0.3330   -4.9327 C   0  0  0  0  0  0  0  0  0  0  0  0
   -1.3005   -0.2878   -3.8146 C   0  0  0  0  0  0  0  0  0  0  0  0
   -2.6595   -0.5382   -3.9793 C   0  0  0  0  0  0  0  0  0  0  0  0
   -3.1408   -0.8358   -5.2529 C   0  0  0  0  0  0  0  0  0  0  0  0
   -2.7304   -1.1253   -7.3389 H   0  0  0  0  0  0  0  0  0  0  0  0
   -0.2693   -0.6551   -7.0475 H   0  0  0  0  0  0  0  0  0  0  0  0
   -0.8904   -0.0596   -2.8384 H   0  0  0  0  0  0  0  0  0  0  0  0
   -3.3453   -0.5125   -3.1422 H   0  0  0  0  0  0  0  0  0  0  0  0
   -4.5784   -1.1078   -5.4240 N   0  0  0  0  0  0  0  0  0  0  0  0
   -5.2890   -1.0595   -4.4219 O   0  0  0  0  0  0  0  0  0  0  0  0
   -4.9758   -1.3666   -6.5586 O   0  0  0  0  0  0  0  0  0  0  0  0
    4.0574    3.7807   -9.6908 N   0  0  0  0  0  0  0  0  0  0  0  0
    3.4662    3.2404   -8.9292 N   0  0  0  0  0  0  0  0  0  0  0  0
    1.5648    1.2942   -4.3751 S   0  0  0  0  0  0  0  0  0  0  0  0
    2.0360    1.8878   -6.0883 C   0  0  0  0  0  0  0  0  0  0  0  0
    0.5292    2.1775   -3.8675 O   0  0  0  0  0  0  0  0  0  0  0  0
    2.7902    0.9979   -3.6627 O   0  0  0  0  0  0  0  0  0  0  0  0
    0.9179   -0.1729   -4.7911 O   0  0  0  0  0  0  0  0  0  0  0  0
    0.9461    1.9244   -6.8567 F   0  0  0  0  0  0  0  0  0  0  0  0
    2.5497    3.1078   -5.9733 F   0  0  0  0  0  0  0  0  0  0  0  0
    2.9306    1.0609   -6.6152 F   0  0  0  0  0  0  0  0  0  0  0  0
  1  2  2  0  0  0  0
  1  6  1  0  0  0  0
  2  3  1  0  0  0  0
  3 20  1  0  0  0  0
  3  4  2  0  0  0  0
  4  9  1  0  0  0  0
  5  4  1  0  0  0  0
  5 10  1  0  0  0  0
  6  5  2  0  0  0  0
  7  1  1  0  0  0  0
  8  2  1  0  0  0  0
 11  6  1  0  0  0  0
 11 12  2  0  0  0  0
 13 11  2  0  0  0  0
 14 15  3  0  0  0  0
 16 18  2  0  0  0  0
 16 19  2  0  0  0  0
 17 22  1  0  0  0  0
 17 16  1  0  0  0  0
 20 16  1  0  0  0  0
 21 17  1  0  0  0  0
 23 17  1  0  0  0  0
M  END
