Coordinates from ORCA-job 4-NO2-Ph-N2-OTf-B3LYPG-6-31G_dp-MTMO-d009-169-n800
 OpenBabel09051908473D

 23 22  0  0  0  0  0  0  0  0999 V2000
   -2.0697   -0.4280   -6.3445 C   0  0  0  0  0  0  0  0  0  0  0  0
   -0.7307   -0.0521   -6.2833 C   0  0  0  0  0  0  0  0  0  0  0  0
   -0.2772    0.6284   -5.1506 C   0  0  0  0  0  0  0  0  0  0  0  0
   -1.1107    0.8560   -4.0505 C   0  0  0  0  0  0  0  0  0  0  0  0
   -2.4425    0.4701   -4.1109 C   0  0  0  0  0  0  0  0  0  0  0  0
   -2.9084   -0.1581   -5.2659 C   0  0  0  0  0  0  0  0  0  0  0  0
   -2.4678   -0.9393   -7.2120 H   0  0  0  0  0  0  0  0  0  0  0  0
   -0.0689   -0.2613   -7.1118 H   0  0  0  0  0  0  0  0  0  0  0  0
   -0.7050    1.3482   -3.1743 H   0  0  0  0  0  0  0  0  0  0  0  0
   -3.1210    0.6438   -3.2853 H   0  0  0  0  0  0  0  0  0  0  0  0
   -4.3188   -0.5657   -5.3372 N   0  0  0  0  0  0  0  0  0  0  0  0
   -5.0293   -0.3248   -4.3622 O   0  0  0  0  0  0  0  0  0  0  0  0
   -4.6988   -1.1227   -6.3660 O   0  0  0  0  0  0  0  0  0  0  0  0
   -0.6208    2.8885   -6.0090 N   0  0  0  0  0  0  0  0  0  0  0  0
   -1.5139    3.4179   -6.3911 N   0  0  0  0  0  0  0  0  0  0  0  0
    2.2002    1.3018   -6.0542 S   0  0  0  0  0  0  0  0  0  0  0  0
    3.0989   -0.3371   -5.9828 C   0  0  0  0  0  0  0  0  0  0  0  0
    1.6232    1.4222   -7.3824 O   0  0  0  0  0  0  0  0  0  0  0  0
    3.0610    2.3037   -5.4628 O   0  0  0  0  0  0  0  0  0  0  0  0
    1.0595    0.9607   -4.9130 O   0  0  0  0  0  0  0  0  0  0  0  0
    2.2552   -1.3120   -6.3277 F   0  0  0  0  0  0  0  0  0  0  0  0
    4.1095   -0.2901   -6.8453 F   0  0  0  0  0  0  0  0  0  0  0  0
    3.5550   -0.5491   -4.7549 F   0  0  0  0  0  0  0  0  0  0  0  0
  1  2  2  0  0  0  0
  1  6  1  0  0  0  0
  2  3  1  0  0  0  0
  3 20  1  0  0  0  0
  3  4  2  0  0  0  0
  4  9  1  0  0  0  0
  5  4  1  0  0  0  0
  5 10  1  0  0  0  0
  6  5  2  0  0  0  0
  7  1  1  0  0  0  0
  8  2  1  0  0  0  0
 11  6  1  0  0  0  0
 11 12  2  0  0  0  0
 13 11  2  0  0  0  0
 15 14  3  0  0  0  0
 16 17  1  0  0  0  0
 16 19  2  0  0  0  0
 16 20  1  0  0  0  0
 17 23  1  0  0  0  0
 18 16  2  0  0  0  0
 21 17  1  0  0  0  0
 22 17  1  0  0  0  0
M  END
