Coordinates from ORCA-job 4-NO2-Ph-N2-OTf-B3LYPG-6-31G_dp-MTMO-d009-169-n800
 OpenBabel09051908473D

 23 22  0  0  0  0  0  0  0  0999 V2000
   -2.1602   -0.9045   -6.4159 C   0  0  0  0  0  0  0  0  0  0  0  0
   -0.8074   -0.6908   -6.1730 C   0  0  0  0  0  0  0  0  0  0  0  0
   -0.3960   -0.3429   -4.8864 C   0  0  0  0  0  0  0  0  0  0  0  0
   -1.2980   -0.2030   -3.8315 C   0  0  0  0  0  0  0  0  0  0  0  0
   -2.6527   -0.4070   -4.0769 C   0  0  0  0  0  0  0  0  0  0  0  0
   -3.0611   -0.7560   -5.3627 C   0  0  0  0  0  0  0  0  0  0  0  0
   -2.5258   -1.1800   -7.3968 H   0  0  0  0  0  0  0  0  0  0  0  0
   -0.0705   -0.7945   -6.9610 H   0  0  0  0  0  0  0  0  0  0  0  0
   -0.9444    0.0639   -2.8434 H   0  0  0  0  0  0  0  0  0  0  0  0
   -3.3910   -0.3074   -3.2915 H   0  0  0  0  0  0  0  0  0  0  0  0
   -4.4945   -0.9792   -5.6176 N   0  0  0  0  0  0  0  0  0  0  0  0
   -5.2677   -0.8429   -4.6714 O   0  0  0  0  0  0  0  0  0  0  0  0
   -4.8260   -1.2883   -6.7608 O   0  0  0  0  0  0  0  0  0  0  0  0
    3.1303    3.6029   -9.8683 N   0  0  0  0  0  0  0  0  0  0  0  0
    2.8382    3.1122   -8.9223 N   0  0  0  0  0  0  0  0  0  0  0  0
    1.6746    1.2067   -4.2340 S   0  0  0  0  0  0  0  0  0  0  0  0
    2.0686    1.8590   -5.9456 C   0  0  0  0  0  0  0  0  0  0  0  0
    0.6841    2.0896   -3.6423 O   0  0  0  0  0  0  0  0  0  0  0  0
    2.9253    0.8565   -3.5949 O   0  0  0  0  0  0  0  0  0  0  0  0
    0.9842   -0.2339   -4.6667 O   0  0  0  0  0  0  0  0  0  0  0  0
    0.9312    2.0156   -6.6240 F   0  0  0  0  0  0  0  0  0  0  0  0
    2.6832    3.0289   -5.8121 F   0  0  0  0  0  0  0  0  0  0  0  0
    2.8549    0.9963   -6.5787 F   0  0  0  0  0  0  0  0  0  0  0  0
  1  2  2  0  0  0  0
  1  6  1  0  0  0  0
  2  3  1  0  0  0  0
  3 20  1  0  0  0  0
  3  4  2  0  0  0  0
  4  9  1  0  0  0  0
  5  4  1  0  0  0  0
  5 10  1  0  0  0  0
  6  5  2  0  0  0  0
  7  1  1  0  0  0  0
  8  2  1  0  0  0  0
 11  6  1  0  0  0  0
 11 12  2  0  0  0  0
 13 11  2  0  0  0  0
 14 15  3  0  0  0  0
 16 18  2  0  0  0  0
 16 19  2  0  0  0  0
 17 22  1  0  0  0  0
 17 16  1  0  0  0  0
 20 16  1  0  0  0  0
 21 17  1  0  0  0  0
 23 17  1  0  0  0  0
M  END
