Coordinates from ORCA-job 4-NO2-Ph-N2-OTf-B3LYPG-6-31G_dp-MTMO-d009-169-n800
 OpenBabel09051908473D

 23 22  0  0  0  0  0  0  0  0999 V2000
   -2.0690   -0.7252   -6.2395 C   0  0  0  0  0  0  0  0  0  0  0  0
   -0.7149   -0.4201   -6.1347 C   0  0  0  0  0  0  0  0  0  0  0  0
   -0.2875    0.3850   -5.0780 C   0  0  0  0  0  0  0  0  0  0  0  0
   -1.1736    0.8706   -4.1153 C   0  0  0  0  0  0  0  0  0  0  0  0
   -2.5238    0.5538   -4.2132 C   0  0  0  0  0  0  0  0  0  0  0  0
   -2.9518   -0.2363   -5.2790 C   0  0  0  0  0  0  0  0  0  0  0  0
   -2.4463   -1.3431   -7.0448 H   0  0  0  0  0  0  0  0  0  0  0  0
   -0.0088   -0.8011   -6.8600 H   0  0  0  0  0  0  0  0  0  0  0  0
   -0.7941    1.4842   -3.3065 H   0  0  0  0  0  0  0  0  0  0  0  0
   -3.2448    0.9087   -3.4881 H   0  0  0  0  0  0  0  0  0  0  0  0
   -4.3807   -0.5708   -5.3884 N   0  0  0  0  0  0  0  0  0  0  0  0
   -5.1348   -0.1305   -4.5222 O   0  0  0  0  0  0  0  0  0  0  0  0
   -4.7300   -1.2697   -6.3381 O   0  0  0  0  0  0  0  0  0  0  0  0
   -0.4209    3.4488   -5.7652 N   0  0  0  0  0  0  0  0  0  0  0  0
   -1.1194    4.1745   -6.2195 N   0  0  0  0  0  0  0  0  0  0  0  0
    2.0823    1.2567   -6.0073 S   0  0  0  0  0  0  0  0  0  0  0  0
    3.1783   -0.2534   -6.1373 C   0  0  0  0  0  0  0  0  0  0  0  0
    1.3923    1.4110   -7.2765 O   0  0  0  0  0  0  0  0  0  0  0  0
    2.8629    2.3057   -5.3850 O   0  0  0  0  0  0  0  0  0  0  0  0
    1.0650    0.6625   -4.8453 O   0  0  0  0  0  0  0  0  0  0  0  0
    2.4489   -1.2947   -6.5467 F   0  0  0  0  0  0  0  0  0  0  0  0
    4.1282    0.0061   -7.0305 F   0  0  0  0  0  0  0  0  0  0  0  0
    3.7214   -0.5216   -4.9569 F   0  0  0  0  0  0  0  0  0  0  0  0
  1  2  2  0  0  0  0
  1  6  1  0  0  0  0
  2  3  1  0  0  0  0
  3 20  1  0  0  0  0
  3  4  2  0  0  0  0
  4  9  1  0  0  0  0
  5  4  1  0  0  0  0
  5 10  1  0  0  0  0
  6  5  2  0  0  0  0
  7  1  1  0  0  0  0
  8  2  1  0  0  0  0
 11  6  1  0  0  0  0
 11 12  2  0  0  0  0
 13 11  2  0  0  0  0
 15 14  3  0  0  0  0
 16 19  2  0  0  0  0
 16 20  1  0  0  0  0
 17 16  1  0  0  0  0
 17 23  1  0  0  0  0
 18 16  2  0  0  0  0
 21 17  1  0  0  0  0
 22 17  1  0  0  0  0
M  END
