Coordinates from ORCA-job 4-NO2-Ph-N2-OTf-B3LYPG-6-31G_dp-MTMO-d009-169-n800
 OpenBabel09051908483D

 23 22  0  0  0  0  0  0  0  0999 V2000
   -2.8536   -1.4431   -5.9903 C   0  0  0  0  0  0  0  0  0  0  0  0
   -1.4827   -1.2224   -5.9069 C   0  0  0  0  0  0  0  0  0  0  0  0
   -0.9420   -0.7580   -4.7078 C   0  0  0  0  0  0  0  0  0  0  0  0
   -1.7315   -0.5093   -3.5849 C   0  0  0  0  0  0  0  0  0  0  0  0
   -3.1046   -0.7204   -3.6715 C   0  0  0  0  0  0  0  0  0  0  0  0
   -3.6424   -1.1850   -4.8704 C   0  0  0  0  0  0  0  0  0  0  0  0
   -3.3171   -1.8055   -6.8989 H   0  0  0  0  0  0  0  0  0  0  0  0
   -0.8301   -1.4081   -6.7521 H   0  0  0  0  0  0  0  0  0  0  0  0
   -1.2792   -0.1542   -2.6674 H   0  0  0  0  0  0  0  0  0  0  0  0
   -3.7590   -0.5381   -2.8287 H   0  0  0  0  0  0  0  0  0  0  0  0
   -5.0949   -1.4143   -4.9565 N   0  0  0  0  0  0  0  0  0  0  0  0
   -5.7675   -1.1800   -3.9544 O   0  0  0  0  0  0  0  0  0  0  0  0
   -5.5420   -1.8261   -6.0257 O   0  0  0  0  0  0  0  0  0  0  0  0
    9.4690    8.3064  -11.4397 N   0  0  0  0  0  0  0  0  0  0  0  0
    8.6499    7.6660  -11.0646 N   0  0  0  0  0  0  0  0  0  0  0  0
    1.1814    0.8279   -4.4191 S   0  0  0  0  0  0  0  0  0  0  0  0
    1.3963    1.3136   -6.2137 C   0  0  0  0  0  0  0  0  0  0  0  0
    0.2547    1.7709   -3.8172 O   0  0  0  0  0  0  0  0  0  0  0  0
    2.4917    0.5303   -3.8809 O   0  0  0  0  0  0  0  0  0  0  0  0
    0.4538   -0.6414   -4.6411 O   0  0  0  0  0  0  0  0  0  0  0  0
    0.1966    1.3901   -6.7925 F   0  0  0  0  0  0  0  0  0  0  0  0
    1.9959    2.4984   -6.2567 F   0  0  0  0  0  0  0  0  0  0  0  0
    2.1365    0.4033   -6.8370 F   0  0  0  0  0  0  0  0  0  0  0  0
  1  2  2  0  0  0  0
  1  6  1  0  0  0  0
  2  3  1  0  0  0  0
  3 20  1  0  0  0  0
  3  4  2  0  0  0  0
  4  9  1  0  0  0  0
  5  4  1  0  0  0  0
  5 10  1  0  0  0  0
  6  5  2  0  0  0  0
  7  1  1  0  0  0  0
  8  2  1  0  0  0  0
 11  6  1  0  0  0  0
 11 12  2  0  0  0  0
 13 11  2  0  0  0  0
 14 15  3  0  0  0  0
 16 19  2  0  0  0  0
 16 18  2  0  0  0  0
 17 16  1  0  0  0  0
 20 16  1  0  0  0  0
 21 17  1  0  0  0  0
 22 17  1  0  0  0  0
 23 17  1  0  0  0  0
M  END
