Coordinates from ORCA-job 4-NO2-Ph-N2-OTf-B3LYPG-6-31G_dp-MTMO-d009-169-n800
 OpenBabel09051908483D

 23 22  0  0  0  0  0  0  0  0999 V2000
   -2.7679   -1.3744   -6.0431 C   0  0  0  0  0  0  0  0  0  0  0  0
   -1.3968   -1.1573   -5.9546 C   0  0  0  0  0  0  0  0  0  0  0  0
   -0.8596   -0.6940   -4.7536 C   0  0  0  0  0  0  0  0  0  0  0  0
   -1.6528   -0.4428   -3.6338 C   0  0  0  0  0  0  0  0  0  0  0  0
   -3.0261   -0.6503   -3.7256 C   0  0  0  0  0  0  0  0  0  0  0  0
   -3.5605   -1.1138   -4.9264 C   0  0  0  0  0  0  0  0  0  0  0  0
   -3.2289   -1.7358   -6.9534 H   0  0  0  0  0  0  0  0  0  0  0  0
   -0.7415   -1.3450   -6.7972 H   0  0  0  0  0  0  0  0  0  0  0  0
   -1.2031   -0.0887   -2.7146 H   0  0  0  0  0  0  0  0  0  0  0  0
   -3.6832   -0.4661   -2.8854 H   0  0  0  0  0  0  0  0  0  0  0  0
   -5.0132   -1.3393   -5.0181 N   0  0  0  0  0  0  0  0  0  0  0  0
   -5.6890   -1.1029   -4.0187 O   0  0  0  0  0  0  0  0  0  0  0  0
   -5.4572   -1.7501   -6.0889 O   0  0  0  0  0  0  0  0  0  0  0  0
    8.5789    7.6217  -10.9361 N   0  0  0  0  0  0  0  0  0  0  0  0
    7.7577    6.9811  -10.5661 N   0  0  0  0  0  0  0  0  0  0  0  0
    1.2667    0.8868   -4.4573 S   0  0  0  0  0  0  0  0  0  0  0  0
    1.4899    1.3710   -6.2513 C   0  0  0  0  0  0  0  0  0  0  0  0
    0.3398    1.8324   -3.8596 O   0  0  0  0  0  0  0  0  0  0  0  0
    2.5740    0.5863   -3.9138 O   0  0  0  0  0  0  0  0  0  0  0  0
    0.5363   -0.5808   -4.6815 O   0  0  0  0  0  0  0  0  0  0  0  0
    0.2927    1.4499   -6.8350 F   0  0  0  0  0  0  0  0  0  0  0  0
    2.0923    2.5544   -6.2926 F   0  0  0  0  0  0  0  0  0  0  0  0
    2.2306    0.4587   -6.8711 F   0  0  0  0  0  0  0  0  0  0  0  0
  1  2  2  0  0  0  0
  1  6  1  0  0  0  0
  2  3  1  0  0  0  0
  3 20  1  0  0  0  0
  3  4  2  0  0  0  0
  4  9  1  0  0  0  0
  5  4  1  0  0  0  0
  5 10  1  0  0  0  0
  6  5  2  0  0  0  0
  7  1  1  0  0  0  0
  8  2  1  0  0  0  0
 11  6  1  0  0  0  0
 11 12  2  0  0  0  0
 13 11  2  0  0  0  0
 14 15  3  0  0  0  0
 16 19  2  0  0  0  0
 16 18  2  0  0  0  0
 17 16  1  0  0  0  0
 20 16  1  0  0  0  0
 21 17  1  0  0  0  0
 22 17  1  0  0  0  0
 23 17  1  0  0  0  0
M  END
