Coordinates from ORCA-job 4-NO2-Ph-N2-OTf-B3LYPG-6-31G_dp-MTMO-d009-169-n800
 OpenBabel09051908483D

 23 22  0  0  0  0  0  0  0  0999 V2000
   -2.9017   -1.4813   -5.9602 C   0  0  0  0  0  0  0  0  0  0  0  0
   -1.5312   -1.2568   -5.8814 C   0  0  0  0  0  0  0  0  0  0  0  0
   -0.9875   -0.7924   -4.6837 C   0  0  0  0  0  0  0  0  0  0  0  0
   -1.7739   -0.5471   -3.5578 C   0  0  0  0  0  0  0  0  0  0  0  0
   -3.1467   -0.7620   -3.6398 C   0  0  0  0  0  0  0  0  0  0  0  0
   -3.6874   -1.2268   -4.8373 C   0  0  0  0  0  0  0  0  0  0  0  0
   -3.3674   -1.8440   -6.8676 H   0  0  0  0  0  0  0  0  0  0  0  0
   -0.8810   -1.4397   -6.7292 H   0  0  0  0  0  0  0  0  0  0  0  0
   -1.3194   -0.1920   -2.6413 H   0  0  0  0  0  0  0  0  0  0  0  0
   -3.7986   -0.5827   -2.7944 H   0  0  0  0  0  0  0  0  0  0  0  0
   -5.1395   -1.4603   -4.9186 N   0  0  0  0  0  0  0  0  0  0  0  0
   -5.8095   -1.2271   -3.9145 O   0  0  0  0  0  0  0  0  0  0  0  0
   -5.5894   -1.8700   -5.9873 O   0  0  0  0  0  0  0  0  0  0  0  0
    9.9652    8.6824  -11.7154 N   0  0  0  0  0  0  0  0  0  0  0  0
    9.1496    8.0410  -11.3342 N   0  0  0  0  0  0  0  0  0  0  0  0
    1.1324    0.7990   -4.4009 S   0  0  0  0  0  0  0  0  0  0  0  0
    1.3428    1.2843   -6.1961 C   0  0  0  0  0  0  0  0  0  0  0  0
    0.2044    1.7400   -3.7977 O   0  0  0  0  0  0  0  0  0  0  0  0
    2.4442    0.5050   -3.8647 O   0  0  0  0  0  0  0  0  0  0  0  0
    0.4082   -0.6720   -4.6217 O   0  0  0  0  0  0  0  0  0  0  0  0
    0.1418    1.3588   -6.7725 F   0  0  0  0  0  0  0  0  0  0  0  0
    1.9405    2.4700   -6.2409 F   0  0  0  0  0  0  0  0  0  0  0  0
    2.0831    0.3748   -6.8205 F   0  0  0  0  0  0  0  0  0  0  0  0
  1  2  2  0  0  0  0
  1  6  1  0  0  0  0
  2  3  1  0  0  0  0
  3 20  1  0  0  0  0
  3  4  2  0  0  0  0
  4  9  1  0  0  0  0
  5  4  1  0  0  0  0
  5 10  1  0  0  0  0
  6  5  2  0  0  0  0
  7  1  1  0  0  0  0
  8  2  1  0  0  0  0
 11  6  1  0  0  0  0
 11 12  2  0  0  0  0
 13 11  2  0  0  0  0
 14 15  3  0  0  0  0
 16 19  2  0  0  0  0
 16 18  2  0  0  0  0
 17 16  1  0  0  0  0
 20 16  1  0  0  0  0
 21 17  1  0  0  0  0
 22 17  1  0  0  0  0
 23 17  1  0  0  0  0
M  END
