Coordinates from ORCA-job 4-NO2-Ph-N2-OTf-B3LYPG-6-31G_dp-MTMO-d009-169-n800
 OpenBabel09051908483D

 23 22  0  0  0  0  0  0  0  0999 V2000
   -2.9079   -1.4862   -5.9566 C   0  0  0  0  0  0  0  0  0  0  0  0
   -1.5373   -1.2621   -5.8777 C   0  0  0  0  0  0  0  0  0  0  0  0
   -0.9937   -0.7974   -4.6801 C   0  0  0  0  0  0  0  0  0  0  0  0
   -1.7801   -0.5514   -3.5543 C   0  0  0  0  0  0  0  0  0  0  0  0
   -3.1530   -0.7659   -3.6365 C   0  0  0  0  0  0  0  0  0  0  0  0
   -3.6936   -1.2309   -4.8339 C   0  0  0  0  0  0  0  0  0  0  0  0
   -3.3736   -1.8491   -6.8639 H   0  0  0  0  0  0  0  0  0  0  0  0
   -0.8871   -1.4455   -6.7253 H   0  0  0  0  0  0  0  0  0  0  0  0
   -1.3256   -0.1960   -2.6380 H   0  0  0  0  0  0  0  0  0  0  0  0
   -3.8050   -0.5860   -2.7913 H   0  0  0  0  0  0  0  0  0  0  0  0
   -5.1458   -1.4639   -4.9153 N   0  0  0  0  0  0  0  0  0  0  0  0
   -5.8155   -1.2330   -3.9105 O   0  0  0  0  0  0  0  0  0  0  0  0
   -5.5953   -1.8769   -5.9830 O   0  0  0  0  0  0  0  0  0  0  0  0
   10.0300    8.7342  -11.7539 N   0  0  0  0  0  0  0  0  0  0  0  0
    9.2150    8.0927  -11.3719 N   0  0  0  0  0  0  0  0  0  0  0  0
    1.1269    0.7933   -4.3973 S   0  0  0  0  0  0  0  0  0  0  0  0
    1.3360    1.2796   -6.1924 C   0  0  0  0  0  0  0  0  0  0  0  0
    0.1997    1.7342   -3.7929 O   0  0  0  0  0  0  0  0  0  0  0  0
    2.4392    0.4986   -3.8625 O   0  0  0  0  0  0  0  0  0  0  0  0
    0.4020   -0.6775   -4.6179 O   0  0  0  0  0  0  0  0  0  0  0  0
    0.1345    1.3544   -6.7679 F   0  0  0  0  0  0  0  0  0  0  0  0
    1.9336    2.4653   -6.2370 F   0  0  0  0  0  0  0  0  0  0  0  0
    2.0758    0.3705   -6.8179 F   0  0  0  0  0  0  0  0  0  0  0  0
  1  2  2  0  0  0  0
  1  6  1  0  0  0  0
  2  3  1  0  0  0  0
  3 20  1  0  0  0  0
  3  4  2  0  0  0  0
  4  9  1  0  0  0  0
  5  4  1  0  0  0  0
  5 10  1  0  0  0  0
  6  5  2  0  0  0  0
  7  1  1  0  0  0  0
  8  2  1  0  0  0  0
 11  6  1  0  0  0  0
 11 12  2  0  0  0  0
 13 11  2  0  0  0  0
 14 15  3  0  0  0  0
 16 19  2  0  0  0  0
 16 18  2  0  0  0  0
 17 16  1  0  0  0  0
 20 16  1  0  0  0  0
 21 17  1  0  0  0  0
 22 17  1  0  0  0  0
 23 17  1  0  0  0  0
M  END
