Coordinates from ORCA-job 4-NO2-Ph-N2-OTf-B3LYPG-6-31G_dp-MTMO-d009-169-n800
 OpenBabel09051908473D

 23 22  0  0  0  0  0  0  0  0999 V2000
   -2.0847   -0.3913   -6.3606 C   0  0  0  0  0  0  0  0  0  0  0  0
   -0.7568    0.0058   -6.3165 C   0  0  0  0  0  0  0  0  0  0  0  0
   -0.3171    0.7915   -5.2299 C   0  0  0  0  0  0  0  0  0  0  0  0
   -1.1181    0.8988   -4.0723 C   0  0  0  0  0  0  0  0  0  0  0  0
   -2.4396    0.4919   -4.1164 C   0  0  0  0  0  0  0  0  0  0  0  0
   -2.9220   -0.1147   -5.2788 C   0  0  0  0  0  0  0  0  0  0  0  0
   -2.4784   -0.9373   -7.2089 H   0  0  0  0  0  0  0  0  0  0  0  0
   -0.0918   -0.2053   -7.1425 H   0  0  0  0  0  0  0  0  0  0  0  0
   -0.6983    1.3693   -3.1908 H   0  0  0  0  0  0  0  0  0  0  0  0
   -3.0992    0.6172   -3.2669 H   0  0  0  0  0  0  0  0  0  0  0  0
   -4.3247   -0.5394   -5.3329 N   0  0  0  0  0  0  0  0  0  0  0  0
   -5.0266   -0.3096   -4.3482 O   0  0  0  0  0  0  0  0  0  0  0  0
   -4.7117   -1.0968   -6.3597 O   0  0  0  0  0  0  0  0  0  0  0  0
   -0.5700    2.5595   -5.9382 N   0  0  0  0  0  0  0  0  0  0  0  0
   -1.4730    3.1035   -6.2950 N   0  0  0  0  0  0  0  0  0  0  0  0
    2.2136    1.3266   -6.0631 S   0  0  0  0  0  0  0  0  0  0  0  0
    3.0955   -0.3201   -5.9691 C   0  0  0  0  0  0  0  0  0  0  0  0
    1.6569    1.4450   -7.4018 O   0  0  0  0  0  0  0  0  0  0  0  0
    3.0762    2.3255   -5.4674 O   0  0  0  0  0  0  0  0  0  0  0  0
    1.0484    0.9826   -4.9461 O   0  0  0  0  0  0  0  0  0  0  0  0
    2.2526   -1.2869   -6.3343 F   0  0  0  0  0  0  0  0  0  0  0  0
    4.1265   -0.2803   -6.8079 F   0  0  0  0  0  0  0  0  0  0  0  0
    3.5212   -0.5346   -4.7307 F   0  0  0  0  0  0  0  0  0  0  0  0
  1  2  2  0  0  0  0
  1  6  1  0  0  0  0
  2  3  1  0  0  0  0
  3 20  1  0  0  0  0
  3  4  2  0  0  0  0
  4  9  1  0  0  0  0
  5  4  1  0  0  0  0
  5 10  1  0  0  0  0
  6  5  2  0  0  0  0
  7  1  1  0  0  0  0
  8  2  1  0  0  0  0
 11  6  1  0  0  0  0
 11 12  2  0  0  0  0
 13 11  2  0  0  0  0
 15 14  3  0  0  0  0
 16 17  1  0  0  0  0
 16 19  2  0  0  0  0
 16 20  1  0  0  0  0
 17 23  1  0  0  0  0
 18 16  2  0  0  0  0
 21 17  1  0  0  0  0
 22 17  1  0  0  0  0
M  END
