Coordinates from ORCA-job 4-NO2-Ph-N2-OTf-B3LYPG-6-31G_dp-MTMO-d009-169-n800
 OpenBabel09051908483D

 23 22  0  0  0  0  0  0  0  0999 V2000
   -2.8344   -1.4277   -6.0021 C   0  0  0  0  0  0  0  0  0  0  0  0
   -1.4634   -1.2079   -5.9175 C   0  0  0  0  0  0  0  0  0  0  0  0
   -0.9236   -0.7437   -4.7180 C   0  0  0  0  0  0  0  0  0  0  0  0
   -1.7140   -0.4943   -3.5959 C   0  0  0  0  0  0  0  0  0  0  0  0
   -3.0871   -0.7046   -3.6837 C   0  0  0  0  0  0  0  0  0  0  0  0
   -3.6241   -1.1689   -4.8830 C   0  0  0  0  0  0  0  0  0  0  0  0
   -3.2973   -1.7899   -6.9111 H   0  0  0  0  0  0  0  0  0  0  0  0
   -0.8102   -1.3941   -6.7621 H   0  0  0  0  0  0  0  0  0  0  0  0
   -1.2623   -0.1395   -2.6779 H   0  0  0  0  0  0  0  0  0  0  0  0
   -3.7422   -0.5218   -2.8415 H   0  0  0  0  0  0  0  0  0  0  0  0
   -5.0767   -1.3973   -4.9705 N   0  0  0  0  0  0  0  0  0  0  0  0
   -5.7500   -1.1625   -3.9690 O   0  0  0  0  0  0  0  0  0  0  0  0
   -5.5230   -1.8089   -6.0400 O   0  0  0  0  0  0  0  0  0  0  0  0
    9.2695    8.1532  -11.3270 N   0  0  0  0  0  0  0  0  0  0  0  0
    8.4497    7.5130  -10.9533 N   0  0  0  0  0  0  0  0  0  0  0  0
    1.2006    0.8409   -4.4275 S   0  0  0  0  0  0  0  0  0  0  0  0
    1.4174    1.3262   -6.2220 C   0  0  0  0  0  0  0  0  0  0  0  0
    0.2739    1.7846   -3.8266 O   0  0  0  0  0  0  0  0  0  0  0  0
    2.5102    0.5426   -3.8881 O   0  0  0  0  0  0  0  0  0  0  0  0
    0.4723   -0.6280   -4.6500 O   0  0  0  0  0  0  0  0  0  0  0  0
    0.2184    1.4033   -6.8019 F   0  0  0  0  0  0  0  0  0  0  0  0
    2.0177    2.5107   -6.2646 F   0  0  0  0  0  0  0  0  0  0  0  0
    2.1578    0.4155   -6.8444 F   0  0  0  0  0  0  0  0  0  0  0  0
  1  2  2  0  0  0  0
  1  6  1  0  0  0  0
  2  3  1  0  0  0  0
  3 20  1  0  0  0  0
  3  4  2  0  0  0  0
  4  9  1  0  0  0  0
  5  4  1  0  0  0  0
  5 10  1  0  0  0  0
  6  5  2  0  0  0  0
  7  1  1  0  0  0  0
  8  2  1  0  0  0  0
 11  6  1  0  0  0  0
 11 12  2  0  0  0  0
 13 11  2  0  0  0  0
 14 15  3  0  0  0  0
 16 19  2  0  0  0  0
 16 18  2  0  0  0  0
 17 16  1  0  0  0  0
 20 16  1  0  0  0  0
 21 17  1  0  0  0  0
 22 17  1  0  0  0  0
 23 17  1  0  0  0  0
M  END
