Coordinates from ORCA-job 4-NO2-Ph-N2-OTf-B3LYPG-6-31G_dp-MTMO-d009-169-n800
 OpenBabel09051908473D

 23 22  0  0  0  0  0  0  0  0999 V2000
   -2.0727   -0.5653   -6.2933 C   0  0  0  0  0  0  0  0  0  0  0  0
   -0.7207   -0.2442   -6.2038 C   0  0  0  0  0  0  0  0  0  0  0  0
   -0.2740    0.4690   -5.0904 C   0  0  0  0  0  0  0  0  0  0  0  0
   -1.1365    0.8340   -4.0542 C   0  0  0  0  0  0  0  0  0  0  0  0
   -2.4826    0.5005   -4.1395 C   0  0  0  0  0  0  0  0  0  0  0  0
   -2.9328   -0.1904   -5.2640 C   0  0  0  0  0  0  0  0  0  0  0  0
   -2.4646   -1.1114   -7.1422 H   0  0  0  0  0  0  0  0  0  0  0  0
   -0.0362   -0.5388   -6.9873 H   0  0  0  0  0  0  0  0  0  0  0  0
   -0.7414    1.3748   -3.2022 H   0  0  0  0  0  0  0  0  0  0  0  0
   -3.1841    0.7674   -3.3594 H   0  0  0  0  0  0  0  0  0  0  0  0
   -4.3578   -0.5420   -5.3608 N   0  0  0  0  0  0  0  0  0  0  0  0
   -5.0898   -0.2064   -4.4309 O   0  0  0  0  0  0  0  0  0  0  0  0
   -4.7267   -1.1504   -6.3641 O   0  0  0  0  0  0  0  0  0  0  0  0
   -0.5713    3.2056   -5.9457 N   0  0  0  0  0  0  0  0  0  0  0  0
   -1.3678    3.7905   -6.4406 N   0  0  0  0  0  0  0  0  0  0  0  0
    2.1432    1.2734   -6.0077 S   0  0  0  0  0  0  0  0  0  0  0  0
    3.1646   -0.2922   -6.0680 C   0  0  0  0  0  0  0  0  0  0  0  0
    1.5024    1.4261   -7.3027 O   0  0  0  0  0  0  0  0  0  0  0  0
    2.9524    2.3015   -5.3880 O   0  0  0  0  0  0  0  0  0  0  0  0
    1.0731    0.7652   -4.8559 O   0  0  0  0  0  0  0  0  0  0  0  0
    2.3883   -1.3064   -6.4577 F   0  0  0  0  0  0  0  0  0  0  0  0
    4.1425   -0.1108   -6.9503 F   0  0  0  0  0  0  0  0  0  0  0  0
    3.6719   -0.5485   -4.8691 F   0  0  0  0  0  0  0  0  0  0  0  0
  1  2  2  0  0  0  0
  1  6  1  0  0  0  0
  2  3  1  0  0  0  0
  3 20  1  0  0  0  0
  3  4  2  0  0  0  0
  4  9  1  0  0  0  0
  5  4  1  0  0  0  0
  5 10  1  0  0  0  0
  6  5  2  0  0  0  0
  7  1  1  0  0  0  0
  8  2  1  0  0  0  0
 11  6  1  0  0  0  0
 11 12  2  0  0  0  0
 13 11  2  0  0  0  0
 15 14  3  0  0  0  0
 16 19  2  0  0  0  0
 16 20  1  0  0  0  0
 17 16  1  0  0  0  0
 17 23  1  0  0  0  0
 18 16  2  0  0  0  0
 21 17  1  0  0  0  0
 22 17  1  0  0  0  0
M  END
