Coordinates from ORCA-job 4-NO2-Ph-N2-OTf-B3LYPG-6-31G_dp-MTMO-d009-169-n800
 OpenBabel09051908483D

 23 22  0  0  0  0  0  0  0  0999 V2000
   -2.7132   -1.3308   -6.0767 C   0  0  0  0  0  0  0  0  0  0  0  0
   -1.3420   -1.1153   -5.9855 C   0  0  0  0  0  0  0  0  0  0  0  0
   -0.8065   -0.6525   -4.7835 C   0  0  0  0  0  0  0  0  0  0  0  0
   -1.6016   -0.4003   -3.6653 C   0  0  0  0  0  0  0  0  0  0  0  0
   -2.9750   -0.6062   -3.7597 C   0  0  0  0  0  0  0  0  0  0  0  0
   -3.5076   -1.0692   -4.9615 C   0  0  0  0  0  0  0  0  0  0  0  0
   -3.1729   -1.6917   -6.9878 H   0  0  0  0  0  0  0  0  0  0  0  0
   -0.6853   -1.3038   -6.8268 H   0  0  0  0  0  0  0  0  0  0  0  0
   -1.1533   -0.0466   -2.7452 H   0  0  0  0  0  0  0  0  0  0  0  0
   -3.6335   -0.4212   -2.9207 H   0  0  0  0  0  0  0  0  0  0  0  0
   -4.9605   -1.2930   -5.0560 N   0  0  0  0  0  0  0  0  0  0  0  0
   -5.6379   -1.0557   -4.0579 O   0  0  0  0  0  0  0  0  0  0  0  0
   -5.4029   -1.7034   -6.1276 O   0  0  0  0  0  0  0  0  0  0  0  0
    8.0097    7.1808  -10.6123 N   0  0  0  0  0  0  0  0  0  0  0  0
    7.1898    6.5390  -10.2415 N   0  0  0  0  0  0  0  0  0  0  0  0
    1.3208    0.9261   -4.4834 S   0  0  0  0  0  0  0  0  0  0  0  0
    1.5481    1.4098   -6.2771 C   0  0  0  0  0  0  0  0  0  0  0  0
    0.3938    1.8728   -3.8877 O   0  0  0  0  0  0  0  0  0  0  0  0
    2.6268    0.6243   -3.9372 O   0  0  0  0  0  0  0  0  0  0  0  0
    0.5893   -0.5408   -4.7087 O   0  0  0  0  0  0  0  0  0  0  0  0
    0.3522    1.4896   -6.8632 F   0  0  0  0  0  0  0  0  0  0  0  0
    2.1517    2.5926   -6.3174 F   0  0  0  0  0  0  0  0  0  0  0  0
    2.2892    0.4966   -6.8951 F   0  0  0  0  0  0  0  0  0  0  0  0
  1  2  2  0  0  0  0
  1  6  1  0  0  0  0
  2  3  1  0  0  0  0
  3 20  1  0  0  0  0
  3  4  2  0  0  0  0
  4  9  1  0  0  0  0
  5  4  1  0  0  0  0
  5 10  1  0  0  0  0
  6  5  2  0  0  0  0
  7  1  1  0  0  0  0
  8  2  1  0  0  0  0
 11  6  1  0  0  0  0
 11 12  2  0  0  0  0
 13 11  2  0  0  0  0
 14 15  3  0  0  0  0
 16 19  2  0  0  0  0
 16 18  2  0  0  0  0
 17 16  1  0  0  0  0
 20 16  1  0  0  0  0
 21 17  1  0  0  0  0
 22 17  1  0  0  0  0
 23 17  1  0  0  0  0
M  END
