Coordinates from ORCA-job 4-NO2-Ph-N2-OTf-B3LYPG-6-31G_dp-MTMO-d009-169-n800
 OpenBabel09051908473D

 23 22  0  0  0  0  0  0  0  0999 V2000
   -2.0688   -0.4370   -6.3409 C   0  0  0  0  0  0  0  0  0  0  0  0
   -0.7288   -0.0645   -6.2775 C   0  0  0  0  0  0  0  0  0  0  0  0
   -0.2749    0.6122   -5.1429 C   0  0  0  0  0  0  0  0  0  0  0  0
   -1.1117    0.8512   -4.0480 C   0  0  0  0  0  0  0  0  0  0  0  0
   -2.4446    0.4685   -4.1106 C   0  0  0  0  0  0  0  0  0  0  0  0
   -2.9089   -0.1630   -5.2643 C   0  0  0  0  0  0  0  0  0  0  0  0
   -2.4666   -0.9477   -7.2088 H   0  0  0  0  0  0  0  0  0  0  0  0
   -0.0660   -0.2768   -7.1045 H   0  0  0  0  0  0  0  0  0  0  0  0
   -0.7073    1.3464   -3.1729 H   0  0  0  0  0  0  0  0  0  0  0  0
   -3.1252    0.6485   -3.2881 H   0  0  0  0  0  0  0  0  0  0  0  0
   -4.3202   -0.5672   -5.3379 N   0  0  0  0  0  0  0  0  0  0  0  0
   -5.0324   -0.3218   -4.3651 O   0  0  0  0  0  0  0  0  0  0  0  0
   -4.6992   -1.1262   -6.3659 O   0  0  0  0  0  0  0  0  0  0  0  0
   -0.6225    2.9311   -6.0156 N   0  0  0  0  0  0  0  0  0  0  0  0
   -1.5103    3.4623   -6.4067 N   0  0  0  0  0  0  0  0  0  0  0  0
    2.1974    1.2986   -6.0505 S   0  0  0  0  0  0  0  0  0  0  0  0
    3.1021   -0.3372   -5.9877 C   0  0  0  0  0  0  0  0  0  0  0  0
    1.6160    1.4222   -7.3765 O   0  0  0  0  0  0  0  0  0  0  0  0
    3.0563    2.3013   -5.4577 O   0  0  0  0  0  0  0  0  0  0  0  0
    1.0610    0.9497   -4.9074 O   0  0  0  0  0  0  0  0  0  0  0  0
    2.2615   -1.3139   -6.3350 F   0  0  0  0  0  0  0  0  0  0  0  0
    4.1110   -0.2830   -6.8519 F   0  0  0  0  0  0  0  0  0  0  0  0
    3.5613   -0.5526   -4.7615 F   0  0  0  0  0  0  0  0  0  0  0  0
  1  2  2  0  0  0  0
  1  6  1  0  0  0  0
  2  3  1  0  0  0  0
  3 20  1  0  0  0  0
  3  4  2  0  0  0  0
  4  9  1  0  0  0  0
  5  4  1  0  0  0  0
  5 10  1  0  0  0  0
  6  5  2  0  0  0  0
  7  1  1  0  0  0  0
  8  2  1  0  0  0  0
 11  6  1  0  0  0  0
 11 12  2  0  0  0  0
 13 11  2  0  0  0  0
 15 14  3  0  0  0  0
 16 17  1  0  0  0  0
 16 19  2  0  0  0  0
 16 20  1  0  0  0  0
 17 23  1  0  0  0  0
 18 16  2  0  0  0  0
 21 17  1  0  0  0  0
 22 17  1  0  0  0  0
M  END
