Coordinates from ORCA-job 4-NO2-Ph-N2-OTf-B3LYPG-6-31G_dp-MTMO-d009-169-n800
 OpenBabel09051908483D

 23 22  0  0  0  0  0  0  0  0999 V2000
   -2.7374   -1.3500   -6.0619 C   0  0  0  0  0  0  0  0  0  0  0  0
   -1.3662   -1.1339   -5.9718 C   0  0  0  0  0  0  0  0  0  0  0  0
   -0.8300   -0.6709   -4.7702 C   0  0  0  0  0  0  0  0  0  0  0  0
   -1.6243   -0.4191   -3.6513 C   0  0  0  0  0  0  0  0  0  0  0  0
   -2.9976   -0.6256   -3.7448 C   0  0  0  0  0  0  0  0  0  0  0  0
   -3.5310   -1.0888   -4.9461 C   0  0  0  0  0  0  0  0  0  0  0  0
   -3.1976   -1.7111   -6.9728 H   0  0  0  0  0  0  0  0  0  0  0  0
   -0.7100   -1.3220   -6.8137 H   0  0  0  0  0  0  0  0  0  0  0  0
   -1.1754   -0.0653   -2.7316 H   0  0  0  0  0  0  0  0  0  0  0  0
   -3.6556   -0.4409   -2.9052 H   0  0  0  0  0  0  0  0  0  0  0  0
   -4.9838   -1.3132   -5.0395 N   0  0  0  0  0  0  0  0  0  0  0  0
   -5.6606   -1.0763   -4.0409 O   0  0  0  0  0  0  0  0  0  0  0  0
   -5.4269   -1.7238   -6.1108 O   0  0  0  0  0  0  0  0  0  0  0  0
    8.2610    7.3758  -10.7555 N   0  0  0  0  0  0  0  0  0  0  0  0
    7.4402    6.7346  -10.3857 N   0  0  0  0  0  0  0  0  0  0  0  0
    1.2969    0.9086   -4.4717 S   0  0  0  0  0  0  0  0  0  0  0  0
    1.5226    1.3925   -6.2654 C   0  0  0  0  0  0  0  0  0  0  0  0
    0.3700    1.8548   -3.8751 O   0  0  0  0  0  0  0  0  0  0  0  0
    2.6035    0.6072   -3.9265 O   0  0  0  0  0  0  0  0  0  0  0  0
    0.5659   -0.5586   -4.6965 O   0  0  0  0  0  0  0  0  0  0  0  0
    0.3262    1.4720   -6.8505 F   0  0  0  0  0  0  0  0  0  0  0  0
    2.1257    2.5755   -6.3061 F   0  0  0  0  0  0  0  0  0  0  0  0
    2.2635    0.4797   -6.8842 F   0  0  0  0  0  0  0  0  0  0  0  0
  1  2  2  0  0  0  0
  1  6  1  0  0  0  0
  2  3  1  0  0  0  0
  3 20  1  0  0  0  0
  3  4  2  0  0  0  0
  4  9  1  0  0  0  0
  5  4  1  0  0  0  0
  5 10  1  0  0  0  0
  6  5  2  0  0  0  0
  7  1  1  0  0  0  0
  8  2  1  0  0  0  0
 11  6  1  0  0  0  0
 11 12  2  0  0  0  0
 13 11  2  0  0  0  0
 14 15  3  0  0  0  0
 16 19  2  0  0  0  0
 16 18  2  0  0  0  0
 17 16  1  0  0  0  0
 20 16  1  0  0  0  0
 21 17  1  0  0  0  0
 22 17  1  0  0  0  0
 23 17  1  0  0  0  0
M  END
