Coordinates from ORCA-job 4-NO2-Ph-N2-OTf-B3LYPG-6-31G_dp-MTMO-d009-169-n800
 OpenBabel09051908473D

 23 22  0  0  0  0  0  0  0  0999 V2000
   -1.9826   -1.6251   -5.5916 C   0  0  0  0  0  0  0  0  0  0  0  0
   -0.6440   -1.3177   -5.3707 C   0  0  0  0  0  0  0  0  0  0  0  0
   -0.3039   -0.0288   -4.9610 C   0  0  0  0  0  0  0  0  0  0  0  0
   -1.2618    0.9658   -4.7632 C   0  0  0  0  0  0  0  0  0  0  0  0
   -2.6000    0.6604   -4.9940 C   0  0  0  0  0  0  0  0  0  0  0  0
   -2.9383   -0.6285   -5.4016 C   0  0  0  0  0  0  0  0  0  0  0  0
   -2.2954   -2.6119   -5.9077 H   0  0  0  0  0  0  0  0  0  0  0  0
    0.1341   -2.0598   -5.5070 H   0  0  0  0  0  0  0  0  0  0  0  0
   -0.9640    1.9557   -4.4410 H   0  0  0  0  0  0  0  0  0  0  0  0
   -3.3801    1.3982   -4.8568 H   0  0  0  0  0  0  0  0  0  0  0  0
   -4.3562   -0.9507   -5.6370 N   0  0  0  0  0  0  0  0  0  0  0  0
   -5.1791   -0.0543   -5.4614 O   0  0  0  0  0  0  0  0  0  0  0  0
   -4.6258   -2.0962   -5.9941 O   0  0  0  0  0  0  0  0  0  0  0  0
    0.2809    5.2009   -4.7785 N   0  0  0  0  0  0  0  0  0  0  0  0
    0.9558    5.9111   -5.2897 N   0  0  0  0  0  0  0  0  0  0  0  0
    1.9445    1.2959   -5.5166 S   0  0  0  0  0  0  0  0  0  0  0  0
    2.6161    0.1378   -6.8250 C   0  0  0  0  0  0  0  0  0  0  0  0
    1.0858    2.2600   -6.1833 O   0  0  0  0  0  0  0  0  0  0  0  0
    3.0403    1.6634   -4.6452 O   0  0  0  0  0  0  0  0  0  0  0  0
    1.0450    0.2074   -4.6568 O   0  0  0  0  0  0  0  0  0  0  0  0
    1.5984   -0.3727   -7.5204 F   0  0  0  0  0  0  0  0  0  0  0  0
    3.4111    0.8333   -7.6310 F   0  0  0  0  0  0  0  0  0  0  0  0
    3.2983   -0.8431   -6.2442 F   0  0  0  0  0  0  0  0  0  0  0  0
  1  6  2  0  0  0  0
  1  2  1  0  0  0  0
  2  3  2  0  0  0  0
  3  4  1  0  0  0  0
  3 20  1  0  0  0  0
  4  9  1  0  0  0  0
  5 10  1  0  0  0  0
  5  4  2  0  0  0  0
  6  5  1  0  0  0  0
  7  1  1  0  0  0  0
  8  2  1  0  0  0  0
 11 12  2  0  0  0  0
 11  6  1  0  0  0  0
 13 11  2  0  0  0  0
 15 14  3  0  0  0  0
 16 20  1  0  0  0  0
 16 19  2  0  0  0  0
 17 23  1  0  0  0  0
 17 16  1  0  0  0  0
 18 16  2  0  0  0  0
 21 17  1  0  0  0  0
 22 17  1  0  0  0  0
M  END
