Coordinates from ORCA-job 4-NO2-Ph-N2-OTf-B3LYPG-6-31G_dp-MTMO-d009-169-n800
 OpenBabel09051908483D

 23 22  0  0  0  0  0  0  0  0999 V2000
   -2.6955   -1.3168   -6.0874 C   0  0  0  0  0  0  0  0  0  0  0  0
   -1.3243   -1.1016   -5.9956 C   0  0  0  0  0  0  0  0  0  0  0  0
   -0.7893   -0.6388   -4.7933 C   0  0  0  0  0  0  0  0  0  0  0  0
   -1.5848   -0.3864   -3.6755 C   0  0  0  0  0  0  0  0  0  0  0  0
   -2.9582   -0.5919   -3.7707 C   0  0  0  0  0  0  0  0  0  0  0  0
   -3.4903   -1.0549   -4.9726 C   0  0  0  0  0  0  0  0  0  0  0  0
   -3.1548   -1.6777   -6.9988 H   0  0  0  0  0  0  0  0  0  0  0  0
   -0.6672   -1.2904   -6.8366 H   0  0  0  0  0  0  0  0  0  0  0  0
   -1.1368   -0.0327   -2.7553 H   0  0  0  0  0  0  0  0  0  0  0  0
   -3.6171   -0.4066   -2.9320 H   0  0  0  0  0  0  0  0  0  0  0  0
   -4.9432   -1.2783   -5.0678 N   0  0  0  0  0  0  0  0  0  0  0  0
   -5.6211   -1.0407   -4.0701 O   0  0  0  0  0  0  0  0  0  0  0  0
   -5.3852   -1.6886   -6.1396 O   0  0  0  0  0  0  0  0  0  0  0  0
    7.8249    7.0370  -10.5067 N   0  0  0  0  0  0  0  0  0  0  0  0
    7.0060    6.3949  -10.1341 N   0  0  0  0  0  0  0  0  0  0  0  0
    1.3383    0.9393   -4.4925 S   0  0  0  0  0  0  0  0  0  0  0  0
    1.5667    1.4226   -6.2860 C   0  0  0  0  0  0  0  0  0  0  0  0
    0.4112    1.8862   -3.8974 O   0  0  0  0  0  0  0  0  0  0  0  0
    2.6439    0.6372   -3.9455 O   0  0  0  0  0  0  0  0  0  0  0  0
    0.6065   -0.5275   -4.7179 O   0  0  0  0  0  0  0  0  0  0  0  0
    0.3711    1.5026   -6.8728 F   0  0  0  0  0  0  0  0  0  0  0  0
    2.1706    2.6052   -6.3262 F   0  0  0  0  0  0  0  0  0  0  0  0
    2.3079    0.5091   -6.9035 F   0  0  0  0  0  0  0  0  0  0  0  0
  1  2  2  0  0  0  0
  1  6  1  0  0  0  0
  2  3  1  0  0  0  0
  3 20  1  0  0  0  0
  3  4  2  0  0  0  0
  4  9  1  0  0  0  0
  5  4  1  0  0  0  0
  5 10  1  0  0  0  0
  6  5  2  0  0  0  0
  7  1  1  0  0  0  0
  8  2  1  0  0  0  0
 11  6  1  0  0  0  0
 11 12  2  0  0  0  0
 13 11  2  0  0  0  0
 14 15  3  0  0  0  0
 16 19  2  0  0  0  0
 16 18  2  0  0  0  0
 17 16  1  0  0  0  0
 20 16  1  0  0  0  0
 21 17  1  0  0  0  0
 22 17  1  0  0  0  0
 23 17  1  0  0  0  0
M  END
