Coordinates from ORCA-job 4-NO2-Ph-N2-OTf-B3LYPG-6-31G_dp-MTMO-d009-169-n800
 OpenBabel09051908473D

 23 22  0  0  0  0  0  0  0  0999 V2000
   -2.6273   -1.2647   -6.1266 C   0  0  0  0  0  0  0  0  0  0  0  0
   -1.2560   -1.0505   -6.0340 C   0  0  0  0  0  0  0  0  0  0  0  0
   -0.7217   -0.5847   -4.8327 C   0  0  0  0  0  0  0  0  0  0  0  0
   -1.5181   -0.3283   -3.7164 C   0  0  0  0  0  0  0  0  0  0  0  0
   -2.8915   -0.5329   -3.8122 C   0  0  0  0  0  0  0  0  0  0  0  0
   -3.4229   -0.9989   -5.0134 C   0  0  0  0  0  0  0  0  0  0  0  0
   -3.0860   -1.6278   -7.0374 H   0  0  0  0  0  0  0  0  0  0  0  0
   -0.5982   -1.2422   -6.8739 H   0  0  0  0  0  0  0  0  0  0  0  0
   -1.0707    0.0277   -2.7968 H   0  0  0  0  0  0  0  0  0  0  0  0
   -3.5511   -0.3446   -2.9748 H   0  0  0  0  0  0  0  0  0  0  0  0
   -4.8759   -1.2213   -5.1093 N   0  0  0  0  0  0  0  0  0  0  0  0
   -5.5545   -0.9804   -4.1129 O   0  0  0  0  0  0  0  0  0  0  0  0
   -5.3173   -1.6342   -6.1804 O   0  0  0  0  0  0  0  0  0  0  0  0
    7.1012    6.4752  -10.0841 N   0  0  0  0  0  0  0  0  0  0  0  0
    6.2899    5.8354   -9.6915 N   0  0  0  0  0  0  0  0  0  0  0  0
    1.4069    0.9925   -4.5345 S   0  0  0  0  0  0  0  0  0  0  0  0
    1.6389    1.4693   -6.3294 C   0  0  0  0  0  0  0  0  0  0  0  0
    0.4796    1.9423   -3.9442 O   0  0  0  0  0  0  0  0  0  0  0  0
    2.7113    0.6911   -3.9841 O   0  0  0  0  0  0  0  0  0  0  0  0
    0.6741   -0.4744   -4.7562 O   0  0  0  0  0  0  0  0  0  0  0  0
    0.4444    1.5480   -6.9185 F   0  0  0  0  0  0  0  0  0  0  0  0
    2.2437    2.6513   -6.3727 F   0  0  0  0  0  0  0  0  0  0  0  0
    2.3805    0.5531   -6.9422 F   0  0  0  0  0  0  0  0  0  0  0  0
  1  2  2  0  0  0  0
  1  6  1  0  0  0  0
  2  3  1  0  0  0  0
  3 20  1  0  0  0  0
  3  4  2  0  0  0  0
  4  9  1  0  0  0  0
  5  4  1  0  0  0  0
  5 10  1  0  0  0  0
  6  5  2  0  0  0  0
  7  1  1  0  0  0  0
  8  2  1  0  0  0  0
 11  6  1  0  0  0  0
 11 12  2  0  0  0  0
 13 11  2  0  0  0  0
 14 15  3  0  0  0  0
 16 19  2  0  0  0  0
 16 18  2  0  0  0  0
 17 16  1  0  0  0  0
 20 16  1  0  0  0  0
 21 17  1  0  0  0  0
 22 17  1  0  0  0  0
 23 17  1  0  0  0  0
M  END
