Coordinates from ORCA-job 4-NO2-Ph-N2-OTf-B3LYPG-6-31G_dp-MTMO-d009-169-n800
 OpenBabel09051908473D

 23 22  0  0  0  0  0  0  0  0999 V2000
   -2.4808   -1.1415   -6.2023 C   0  0  0  0  0  0  0  0  0  0  0  0
   -1.1114   -0.9056   -6.1387 C   0  0  0  0  0  0  0  0  0  0  0  0
   -0.5606   -0.4229   -4.9515 C   0  0  0  0  0  0  0  0  0  0  0  0
   -1.3391   -0.1682   -3.8222 C   0  0  0  0  0  0  0  0  0  0  0  0
   -2.7108   -0.3945   -3.8890 C   0  0  0  0  0  0  0  0  0  0  0  0
   -3.2584   -0.8789   -5.0756 C   0  0  0  0  0  0  0  0  0  0  0  0
   -2.9518   -1.5188   -7.1009 H   0  0  0  0  0  0  0  0  0  0  0  0
   -0.4676   -1.0933   -6.9902 H   0  0  0  0  0  0  0  0  0  0  0  0
   -0.8792    0.2021   -2.9144 H   0  0  0  0  0  0  0  0  0  0  0  0
   -3.3567   -0.2088   -3.0403 H   0  0  0  0  0  0  0  0  0  0  0  0
   -4.7092   -1.1247   -5.1408 N   0  0  0  0  0  0  0  0  0  0  0  0
   -5.3718   -0.8864   -4.1329 O   0  0  0  0  0  0  0  0  0  0  0  0
   -5.1652   -1.5534   -6.1995 O   0  0  0  0  0  0  0  0  0  0  0  0
    5.3415    4.9788   -8.9179 N   0  0  0  0  0  0  0  0  0  0  0  0
    4.5772    4.3281   -8.4551 N   0  0  0  0  0  0  0  0  0  0  0  0
    1.5508    1.1883   -4.7095 S   0  0  0  0  0  0  0  0  0  0  0  0
    1.8281    1.6058   -6.5136 C   0  0  0  0  0  0  0  0  0  0  0  0
    0.5998    2.1479   -4.1755 O   0  0  0  0  0  0  0  0  0  0  0  0
    2.8434    0.9190   -4.1157 O   0  0  0  0  0  0  0  0  0  0  0  0
    0.8345   -0.2920   -4.9017 O   0  0  0  0  0  0  0  0  0  0  0  0
    0.6503    1.6391   -7.1398 F   0  0  0  0  0  0  0  0  0  0  0  0
    2.4112    2.7975   -6.5809 F   0  0  0  0  0  0  0  0  0  0  0  0
    2.6050    0.6832   -7.0699 F   0  0  0  0  0  0  0  0  0  0  0  0
  1  2  2  0  0  0  0
  1  6  1  0  0  0  0
  2  3  1  0  0  0  0
  3 20  1  0  0  0  0
  3  4  2  0  0  0  0
  4  9  1  0  0  0  0
  5  4  1  0  0  0  0
  5 10  1  0  0  0  0
  6  5  2  0  0  0  0
  7  1  1  0  0  0  0
  8  2  1  0  0  0  0
 11  6  1  0  0  0  0
 11 12  2  0  0  0  0
 13 11  2  0  0  0  0
 14 15  3  0  0  0  0
 16 18  2  0  0  0  0
 16 19  2  0  0  0  0
 17 16  1  0  0  0  0
 20 16  1  0  0  0  0
 21 17  1  0  0  0  0
 22 17  1  0  0  0  0
 23 17  1  0  0  0  0
M  END
