Coordinates from ORCA-job 4-NO2-Ph-N2-OTf-B3LYPG-6-31G_dp-MTMO-d009-169-n800
 OpenBabel09051908483D

 23 22  0  0  0  0  0  0  0  0999 V2000
   -2.8707   -1.4568   -5.9794 C   0  0  0  0  0  0  0  0  0  0  0  0
   -1.4999   -1.2350   -5.8977 C   0  0  0  0  0  0  0  0  0  0  0  0
   -0.9582   -0.7701   -4.6993 C   0  0  0  0  0  0  0  0  0  0  0  0
   -1.7466   -0.5217   -3.5755 C   0  0  0  0  0  0  0  0  0  0  0  0
   -3.1196   -0.7339   -3.6605 C   0  0  0  0  0  0  0  0  0  0  0  0
   -3.6585   -1.1991   -4.8586 C   0  0  0  0  0  0  0  0  0  0  0  0
   -3.3351   -1.8197   -6.8874 H   0  0  0  0  0  0  0  0  0  0  0  0
   -0.8482   -1.4203   -6.7437 H   0  0  0  0  0  0  0  0  0  0  0  0
   -1.2935   -0.1662   -2.6585 H   0  0  0  0  0  0  0  0  0  0  0  0
   -3.7732   -0.5520   -2.8169 H   0  0  0  0  0  0  0  0  0  0  0  0
   -5.1109   -1.4297   -4.9430 N   0  0  0  0  0  0  0  0  0  0  0  0
   -5.7825   -1.1957   -3.9401 O   0  0  0  0  0  0  0  0  0  0  0  0
   -5.5589   -1.8419   -6.0115 O   0  0  0  0  0  0  0  0  0  0  0  0
    9.6427    8.4399  -11.5354 N   0  0  0  0  0  0  0  0  0  0  0  0
    8.8249    7.7989  -11.1585 N   0  0  0  0  0  0  0  0  0  0  0  0
    1.1646    0.8173   -4.4132 S   0  0  0  0  0  0  0  0  0  0  0  0
    1.3782    1.3022   -6.2081 C   0  0  0  0  0  0  0  0  0  0  0  0
    0.2376    1.7600   -3.8112 O   0  0  0  0  0  0  0  0  0  0  0  0
    2.4753    0.5207   -3.8755 O   0  0  0  0  0  0  0  0  0  0  0  0
    0.4376   -0.6525   -4.6342 O   0  0  0  0  0  0  0  0  0  0  0  0
    0.1782    1.3776   -6.7864 F   0  0  0  0  0  0  0  0  0  0  0  0
    1.9771    2.4873   -6.2521 F   0  0  0  0  0  0  0  0  0  0  0  0
    2.1187    0.3920   -6.8313 F   0  0  0  0  0  0  0  0  0  0  0  0
  1  2  2  0  0  0  0
  1  6  1  0  0  0  0
  2  3  1  0  0  0  0
  3 20  1  0  0  0  0
  3  4  2  0  0  0  0
  4  9  1  0  0  0  0
  5  4  1  0  0  0  0
  5 10  1  0  0  0  0
  6  5  2  0  0  0  0
  7  1  1  0  0  0  0
  8  2  1  0  0  0  0
 11  6  1  0  0  0  0
 11 12  2  0  0  0  0
 13 11  2  0  0  0  0
 14 15  3  0  0  0  0
 16 19  2  0  0  0  0
 16 18  2  0  0  0  0
 17 16  1  0  0  0  0
 20 16  1  0  0  0  0
 21 17  1  0  0  0  0
 22 17  1  0  0  0  0
 23 17  1  0  0  0  0
M  END
