Coordinates from ORCA-job 4-NO2-Ph-N2-OTf-B3LYPG-6-31G_dp-MTMO-d009-169-n800
 OpenBabel09051908473D

 23 22  0  0  0  0  0  0  0  0999 V2000
   -2.0682   -0.4683   -6.3281 C   0  0  0  0  0  0  0  0  0  0  0  0
   -0.7251   -0.1077   -6.2579 C   0  0  0  0  0  0  0  0  0  0  0  0
   -0.2725    0.5701   -5.1243 C   0  0  0  0  0  0  0  0  0  0  0  0
   -1.1177    0.8421   -4.0447 C   0  0  0  0  0  0  0  0  0  0  0  0
   -2.4539    0.4707   -4.1133 C   0  0  0  0  0  0  0  0  0  0  0  0
   -2.9136   -0.1741   -5.2613 C   0  0  0  0  0  0  0  0  0  0  0  0
   -2.4644   -0.9844   -7.1937 H   0  0  0  0  0  0  0  0  0  0  0  0
   -0.0571   -0.3369   -7.0763 H   0  0  0  0  0  0  0  0  0  0  0  0
   -0.7167    1.3478   -3.1741 H   0  0  0  0  0  0  0  0  0  0  0  0
   -3.1406    0.6713   -3.3008 H   0  0  0  0  0  0  0  0  0  0  0  0
   -4.3283   -0.5663   -5.3412 N   0  0  0  0  0  0  0  0  0  0  0  0
   -5.0460   -0.3018   -4.3776 O   0  0  0  0  0  0  0  0  0  0  0  0
   -4.7042   -1.1350   -6.3650 O   0  0  0  0  0  0  0  0  0  0  0  0
   -0.6161    3.0338   -6.0150 N   0  0  0  0  0  0  0  0  0  0  0  0
   -1.4807    3.5730   -6.4438 N   0  0  0  0  0  0  0  0  0  0  0  0
    2.1854    1.2910   -6.0374 S   0  0  0  0  0  0  0  0  0  0  0  0
    3.1162   -0.3312   -6.0078 C   0  0  0  0  0  0  0  0  0  0  0  0
    1.5888    1.4255   -7.3554 O   0  0  0  0  0  0  0  0  0  0  0  0
    3.0353    2.2970   -5.4373 O   0  0  0  0  0  0  0  0  0  0  0  0
    1.0642    0.9064   -4.8904 O   0  0  0  0  0  0  0  0  0  0  0  0
    2.2898   -1.3155   -6.3685 F   0  0  0  0  0  0  0  0  0  0  0  0
    4.1195   -0.2453   -6.8758 F   0  0  0  0  0  0  0  0  0  0  0  0
    3.5849   -0.5611   -4.7880 F   0  0  0  0  0  0  0  0  0  0  0  0
  1  2  2  0  0  0  0
  1  6  1  0  0  0  0
  2  3  1  0  0  0  0
  3 20  1  0  0  0  0
  3  4  2  0  0  0  0
  4  9  1  0  0  0  0
  5  4  1  0  0  0  0
  5 10  1  0  0  0  0
  6  5  2  0  0  0  0
  7  1  1  0  0  0  0
  8  2  1  0  0  0  0
 11  6  1  0  0  0  0
 11 12  2  0  0  0  0
 13 11  2  0  0  0  0
 15 14  3  0  0  0  0
 16 17  1  0  0  0  0
 16 19  2  0  0  0  0
 16 20  1  0  0  0  0
 17 23  1  0  0  0  0
 18 16  2  0  0  0  0
 21 17  1  0  0  0  0
 22 17  1  0  0  0  0
M  END
