Coordinates from ORCA-job 4-NO2-Ph-N2-OTf-B3LYPG-6-31G_dp-MTMO-d009-169-n800
 OpenBabel09051908473D

 23 22  0  0  0  0  0  0  0  0999 V2000
   -2.0211   -1.3922   -5.6711 C   0  0  0  0  0  0  0  0  0  0  0  0
   -0.7066   -0.9377   -5.6313 C   0  0  0  0  0  0  0  0  0  0  0  0
   -0.4638    0.3902   -5.2840 C   0  0  0  0  0  0  0  0  0  0  0  0
   -1.4911    1.2784   -4.9716 C   0  0  0  0  0  0  0  0  0  0  0  0
   -2.8064    0.8234   -5.0076 C   0  0  0  0  0  0  0  0  0  0  0  0
   -3.0483   -0.5036   -5.3577 C   0  0  0  0  0  0  0  0  0  0  0  0
   -2.2619   -2.4136   -5.9364 H   0  0  0  0  0  0  0  0  0  0  0  0
    0.1208   -1.5967   -5.8643 H   0  0  0  0  0  0  0  0  0  0  0  0
   -1.2516    2.2995   -4.6998 H   0  0  0  0  0  0  0  0  0  0  0  0
   -3.6392    1.4733   -4.7717 H   0  0  0  0  0  0  0  0  0  0  0  0
   -4.4401   -0.9859   -5.3954 N   0  0  0  0  0  0  0  0  0  0  0  0
   -5.3271   -0.1824   -5.1136 O   0  0  0  0  0  0  0  0  0  0  0  0
   -4.6249   -2.1614   -5.7054 O   0  0  0  0  0  0  0  0  0  0  0  0
    0.4920    4.1595   -4.0361 N   0  0  0  0  0  0  0  0  0  0  0  0
    1.3548    4.7725   -3.7194 N   0  0  0  0  0  0  0  0  0  0  0  0
    1.7078    1.2953   -6.5054 S   0  0  0  0  0  0  0  0  0  0  0  0
    3.0590    0.0086   -6.3720 C   0  0  0  0  0  0  0  0  0  0  0  0
    0.9314    1.0195   -7.7017 O   0  0  0  0  0  0  0  0  0  0  0  0
    2.3150    2.5819   -6.2252 O   0  0  0  0  0  0  0  0  0  0  0  0
    0.8588    0.8465   -5.1562 O   0  0  0  0  0  0  0  0  0  0  0  0
    2.5274   -1.2118   -6.4804 F   0  0  0  0  0  0  0  0  0  0  0  0
    3.9164    0.2108   -7.3676 F   0  0  0  0  0  0  0  0  0  0  0  0
    3.6779    0.1267   -5.2040 F   0  0  0  0  0  0  0  0  0  0  0  0
  1  2  2  0  0  0  0
  1  6  1  0  0  0  0
  2  3  1  0  0  0  0
  3 20  1  0  0  0  0
  3  4  2  0  0  0  0
  4  9  1  0  0  0  0
  5  4  1  0  0  0  0
  5 10  1  0  0  0  0
  6  5  2  0  0  0  0
  7  1  1  0  0  0  0
  8  2  1  0  0  0  0
 11  6  1  0  0  0  0
 11 12  2  0  0  0  0
 13 11  2  0  0  0  0
 14 15  3  0  0  0  0
 16 17  1  0  0  0  0
 16 19  2  0  0  0  0
 16 20  1  0  0  0  0
 17 23  1  0  0  0  0
 18 16  2  0  0  0  0
 21 17  1  0  0  0  0
 22 17  1  0  0  0  0
M  END
