Coordinates from ORCA-job 4-NO2-Ph-N2-OTf-B3LYPG-6-31G_dp-MTMO-d009-169-n800
 OpenBabel09051908483D

 23 22  0  0  0  0  0  0  0  0999 V2000
   -2.7386   -1.3510   -6.0612 C   0  0  0  0  0  0  0  0  0  0  0  0
   -1.3675   -1.1348   -5.9711 C   0  0  0  0  0  0  0  0  0  0  0  0
   -0.8312   -0.6718   -4.7695 C   0  0  0  0  0  0  0  0  0  0  0  0
   -1.6255   -0.4201   -3.6506 C   0  0  0  0  0  0  0  0  0  0  0  0
   -2.9988   -0.6267   -3.7440 C   0  0  0  0  0  0  0  0  0  0  0  0
   -3.5322   -1.0898   -4.9453 C   0  0  0  0  0  0  0  0  0  0  0  0
   -3.1989   -1.7121   -6.9720 H   0  0  0  0  0  0  0  0  0  0  0  0
   -0.7113   -1.3230   -6.8130 H   0  0  0  0  0  0  0  0  0  0  0  0
   -1.1765   -0.0662   -2.7309 H   0  0  0  0  0  0  0  0  0  0  0  0
   -3.6568   -0.4420   -2.9044 H   0  0  0  0  0  0  0  0  0  0  0  0
   -4.9850   -1.3143   -5.0386 N   0  0  0  0  0  0  0  0  0  0  0  0
   -5.6618   -1.0774   -4.0399 O   0  0  0  0  0  0  0  0  0  0  0  0
   -5.4281   -1.7249   -6.1099 O   0  0  0  0  0  0  0  0  0  0  0  0
    8.2742    7.3860  -10.7630 N   0  0  0  0  0  0  0  0  0  0  0  0
    7.4534    6.7448  -10.3932 N   0  0  0  0  0  0  0  0  0  0  0  0
    1.2957    0.9077   -4.4711 S   0  0  0  0  0  0  0  0  0  0  0  0
    1.5212    1.3916   -6.2648 C   0  0  0  0  0  0  0  0  0  0  0  0
    0.3688    1.8538   -3.8744 O   0  0  0  0  0  0  0  0  0  0  0  0
    2.6023    0.6064   -3.9260 O   0  0  0  0  0  0  0  0  0  0  0  0
    0.5646   -0.5596   -4.6959 O   0  0  0  0  0  0  0  0  0  0  0  0
    0.3248    1.4711   -6.8499 F   0  0  0  0  0  0  0  0  0  0  0  0
    2.1243    2.5746   -6.3055 F   0  0  0  0  0  0  0  0  0  0  0  0
    2.2622    0.4788   -6.8836 F   0  0  0  0  0  0  0  0  0  0  0  0
  1  2  2  0  0  0  0
  1  6  1  0  0  0  0
  2  3  1  0  0  0  0
  3 20  1  0  0  0  0
  3  4  2  0  0  0  0
  4  9  1  0  0  0  0
  5  4  1  0  0  0  0
  5 10  1  0  0  0  0
  6  5  2  0  0  0  0
  7  1  1  0  0  0  0
  8  2  1  0  0  0  0
 11  6  1  0  0  0  0
 11 12  2  0  0  0  0
 13 11  2  0  0  0  0
 14 15  3  0  0  0  0
 16 19  2  0  0  0  0
 16 18  2  0  0  0  0
 17 16  1  0  0  0  0
 20 16  1  0  0  0  0
 21 17  1  0  0  0  0
 22 17  1  0  0  0  0
 23 17  1  0  0  0  0
M  END
