Coordinates from ORCA-job 4-NO2-Ph-N2-OTf-B3LYPG-6-31G_dp-MTMO-d009-169-n800
 OpenBabel09051908473D

 23 22  0  0  0  0  0  0  0  0999 V2000
   -2.2656   -0.8714   -6.3911 C   0  0  0  0  0  0  0  0  0  0  0  0
   -0.9096   -0.6240   -6.2027 C   0  0  0  0  0  0  0  0  0  0  0  0
   -0.4461   -0.3298   -4.9207 C   0  0  0  0  0  0  0  0  0  0  0  0
   -1.2990   -0.2742   -3.8184 C   0  0  0  0  0  0  0  0  0  0  0  0
   -2.6569   -0.5127   -4.0078 C   0  0  0  0  0  0  0  0  0  0  0  0
   -3.1172   -0.8091   -5.2894 C   0  0  0  0  0  0  0  0  0  0  0  0
   -2.6708   -1.1076   -7.3666 H   0  0  0  0  0  0  0  0  0  0  0  0
   -0.2112   -0.6587   -7.0306 H   0  0  0  0  0  0  0  0  0  0  0  0
   -0.9051   -0.0473   -2.8353 H   0  0  0  0  0  0  0  0  0  0  0  0
   -3.3580   -0.4788   -3.1837 H   0  0  0  0  0  0  0  0  0  0  0  0
   -4.5537   -1.0686   -5.4866 N   0  0  0  0  0  0  0  0  0  0  0  0
   -5.2824   -1.0107   -4.4980 O   0  0  0  0  0  0  0  0  0  0  0  0
   -4.9322   -1.3273   -6.6277 O   0  0  0  0  0  0  0  0  0  0  0  0
    3.6987    3.7101   -9.7660 N   0  0  0  0  0  0  0  0  0  0  0  0
    3.2154    3.1543   -8.9421 N   0  0  0  0  0  0  0  0  0  0  0  0
    1.5909    1.2789   -4.3259 S   0  0  0  0  0  0  0  0  0  0  0  0
    2.0867    1.8728   -6.0321 C   0  0  0  0  0  0  0  0  0  0  0  0
    0.5561    2.1688   -3.8282 O   0  0  0  0  0  0  0  0  0  0  0  0
    2.8051    0.9710   -3.5996 O   0  0  0  0  0  0  0  0  0  0  0  0
    0.9381   -0.1822   -4.7537 O   0  0  0  0  0  0  0  0  0  0  0  0
    1.0050    1.9264   -6.8108 F   0  0  0  0  0  0  0  0  0  0  0  0
    2.6156    3.0855   -5.9078 F   0  0  0  0  0  0  0  0  0  0  0  0
    2.9754    1.0358   -6.5532 F   0  0  0  0  0  0  0  0  0  0  0  0
  1  2  2  0  0  0  0
  1  6  1  0  0  0  0
  2  3  1  0  0  0  0
  3 20  1  0  0  0  0
  3  4  2  0  0  0  0
  4  9  1  0  0  0  0
  5  4  1  0  0  0  0
  5 10  1  0  0  0  0
  6  5  2  0  0  0  0
  7  1  1  0  0  0  0
  8  2  1  0  0  0  0
 11  6  1  0  0  0  0
 11 12  2  0  0  0  0
 13 11  2  0  0  0  0
 14 15  3  0  0  0  0
 16 18  2  0  0  0  0
 16 19  2  0  0  0  0
 17 22  1  0  0  0  0
 17 16  1  0  0  0  0
 20 16  1  0  0  0  0
 21 17  1  0  0  0  0
 23 17  1  0  0  0  0
M  END
