Coordinates from ORCA-job 4-NO2-Ph-N2-OTf-B3LYPG-6-31G_dp-MTMO-d009-169-n800
 OpenBabel09051908473D

 23 22  0  0  0  0  0  0  0  0999 V2000
   -1.9809   -1.6094   -5.5730 C   0  0  0  0  0  0  0  0  0  0  0  0
   -0.6405   -1.3060   -5.3582 C   0  0  0  0  0  0  0  0  0  0  0  0
   -0.2925   -0.0119   -4.9721 C   0  0  0  0  0  0  0  0  0  0  0  0
   -1.2443    0.9919   -4.7920 C   0  0  0  0  0  0  0  0  0  0  0  0
   -2.5843    0.6901   -5.0168 C   0  0  0  0  0  0  0  0  0  0  0  0
   -2.9306   -0.6039   -5.4008 C   0  0  0  0  0  0  0  0  0  0  0  0
   -2.2996   -2.6000   -5.8713 H   0  0  0  0  0  0  0  0  0  0  0  0
    0.1332   -2.0551   -5.4815 H   0  0  0  0  0  0  0  0  0  0  0  0
   -0.9409    1.9861   -4.4881 H   0  0  0  0  0  0  0  0  0  0  0  0
   -3.3599    1.4350   -4.8928 H   0  0  0  0  0  0  0  0  0  0  0  0
   -4.3505   -0.9218   -5.6301 N   0  0  0  0  0  0  0  0  0  0  0  0
   -5.1680   -0.0175   -5.4702 O   0  0  0  0  0  0  0  0  0  0  0  0
   -4.6270   -2.0719   -5.9665 O   0  0  0  0  0  0  0  0  0  0  0  0
    0.1659    5.1059   -4.7044 N   0  0  0  0  0  0  0  0  0  0  0  0
    0.8042    5.8793   -5.1689 N   0  0  0  0  0  0  0  0  0  0  0  0
    1.9625    1.2895   -5.5540 S   0  0  0  0  0  0  0  0  0  0  0  0
    2.6373    0.1004   -6.8326 C   0  0  0  0  0  0  0  0  0  0  0  0
    1.1078    2.2392   -6.2459 O   0  0  0  0  0  0  0  0  0  0  0  0
    3.0560    1.6755   -4.6876 O   0  0  0  0  0  0  0  0  0  0  0  0
    1.0579    0.2223   -4.6729 O   0  0  0  0  0  0  0  0  0  0  0  0
    1.6208   -0.4340   -7.5119 F   0  0  0  0  0  0  0  0  0  0  0  0
    3.4265    0.7785   -7.6588 F   0  0  0  0  0  0  0  0  0  0  0  0
    3.3261   -0.8608   -6.2274 F   0  0  0  0  0  0  0  0  0  0  0  0
  1  6  2  0  0  0  0
  1  2  1  0  0  0  0
  2  3  2  0  0  0  0
  3  4  1  0  0  0  0
  3 20  1  0  0  0  0
  4  9  1  0  0  0  0
  5 10  1  0  0  0  0
  5  4  2  0  0  0  0
  6  5  1  0  0  0  0
  7  1  1  0  0  0  0
  8  2  1  0  0  0  0
 11 12  2  0  0  0  0
 11  6  1  0  0  0  0
 13 11  2  0  0  0  0
 15 14  3  0  0  0  0
 16 19  2  0  0  0  0
 16 20  1  0  0  0  0
 17 23  1  0  0  0  0
 17 16  1  0  0  0  0
 18 16  2  0  0  0  0
 21 17  1  0  0  0  0
 22 17  1  0  0  0  0
M  END
