Coordinates from ORCA-job 4-NO2-Ph-N2-OTf-B3LYPG-6-31G_dp-MTMO-d009-169-n800
 OpenBabel09051908473D

 23 22  0  0  0  0  0  0  0  0999 V2000
   -2.4454   -1.0090   -6.2847 C   0  0  0  0  0  0  0  0  0  0  0  0
   -1.0861   -0.7212   -6.2155 C   0  0  0  0  0  0  0  0  0  0  0  0
   -0.5320   -0.3552   -4.9888 C   0  0  0  0  0  0  0  0  0  0  0  0
   -1.2974   -0.2681   -3.8259 C   0  0  0  0  0  0  0  0  0  0  0  0
   -2.6592   -0.5464   -3.8969 C   0  0  0  0  0  0  0  0  0  0  0  0
   -3.2101   -0.9139   -5.1232 C   0  0  0  0  0  0  0  0  0  0  0  0
   -2.9182   -1.3007   -7.2137 H   0  0  0  0  0  0  0  0  0  0  0  0
   -0.4532   -0.7801   -7.0933 H   0  0  0  0  0  0  0  0  0  0  0  0
   -0.8351    0.0141   -2.8881 H   0  0  0  0  0  0  0  0  0  0  0  0
   -3.2946   -0.4896   -3.0221 H   0  0  0  0  0  0  0  0  0  0  0  0
   -4.6501   -1.2153   -5.1944 N   0  0  0  0  0  0  0  0  0  0  0  0
   -5.3013   -1.1263   -4.1553 O   0  0  0  0  0  0  0  0  0  0  0  0
   -5.1091   -1.5375   -6.2889 O   0  0  0  0  0  0  0  0  0  0  0  0
    5.1818    4.1385   -9.1768 N   0  0  0  0  0  0  0  0  0  0  0  0
    4.4078    3.5796   -8.6198 N   0  0  0  0  0  0  0  0  0  0  0  0
    1.5098    1.3151   -4.6027 S   0  0  0  0  0  0  0  0  0  0  0  0
    1.8028    1.9067   -6.3554 C   0  0  0  0  0  0  0  0  0  0  0  0
    0.5099    2.1837   -4.0058 O   0  0  0  0  0  0  0  0  0  0  0  0
    2.8021    1.0465   -4.0077 O   0  0  0  0  0  0  0  0  0  0  0  0
    0.8571   -0.1686   -4.9428 O   0  0  0  0  0  0  0  0  0  0  0  0
    0.6448    1.9005   -7.0188 F   0  0  0  0  0  0  0  0  0  0  0  0
    2.2841    3.1438   -6.2981 F   0  0  0  0  0  0  0  0  0  0  0  0
    2.6709    1.1048   -6.9594 F   0  0  0  0  0  0  0  0  0  0  0  0
  1  2  2  0  0  0  0
  1  6  1  0  0  0  0
  2  3  1  0  0  0  0
  3 20  1  0  0  0  0
  3  4  2  0  0  0  0
  4  9  1  0  0  0  0
  5  4  1  0  0  0  0
  5 10  1  0  0  0  0
  6  5  2  0  0  0  0
  7  1  1  0  0  0  0
  8  2  1  0  0  0  0
 11  6  1  0  0  0  0
 11 12  2  0  0  0  0
 13 11  2  0  0  0  0
 14 15  3  0  0  0  0
 16 19  2  0  0  0  0
 16 18  2  0  0  0  0
 17 22  1  0  0  0  0
 17 16  1  0  0  0  0
 20 16  1  0  0  0  0
 21 17  1  0  0  0  0
 23 17  1  0  0  0  0
M  END
