Coordinates from ORCA-job 4-NO2-Ph-N2-OTf-B3LYPG-6-31G_dp-MTMO-d009-169-n800
 OpenBabel09051908483D

 23 22  0  0  0  0  0  0  0  0999 V2000
   -2.6905   -1.3128   -6.0904 C   0  0  0  0  0  0  0  0  0  0  0  0
   -1.3193   -1.0978   -5.9984 C   0  0  0  0  0  0  0  0  0  0  0  0
   -0.7843   -0.6349   -4.7962 C   0  0  0  0  0  0  0  0  0  0  0  0
   -1.5800   -0.3824   -3.6785 C   0  0  0  0  0  0  0  0  0  0  0  0
   -2.9534   -0.5878   -3.7738 C   0  0  0  0  0  0  0  0  0  0  0  0
   -3.4854   -1.0508   -4.9758 C   0  0  0  0  0  0  0  0  0  0  0  0
   -3.1497   -1.6737   -7.0018 H   0  0  0  0  0  0  0  0  0  0  0  0
   -0.6621   -1.2866   -6.8394 H   0  0  0  0  0  0  0  0  0  0  0  0
   -1.1321   -0.0287   -2.7582 H   0  0  0  0  0  0  0  0  0  0  0  0
   -3.6124   -0.4024   -2.9352 H   0  0  0  0  0  0  0  0  0  0  0  0
   -4.9383   -1.2741   -5.0712 N   0  0  0  0  0  0  0  0  0  0  0  0
   -5.6163   -1.0365   -4.0735 O   0  0  0  0  0  0  0  0  0  0  0  0
   -5.3802   -1.6844   -6.1429 O   0  0  0  0  0  0  0  0  0  0  0  0
    7.7721    6.9959  -10.4764 N   0  0  0  0  0  0  0  0  0  0  0  0
    6.9536    6.3538  -10.1031 N   0  0  0  0  0  0  0  0  0  0  0  0
    1.3433    0.9430   -4.4951 S   0  0  0  0  0  0  0  0  0  0  0  0
    1.5720    1.4262   -6.2887 C   0  0  0  0  0  0  0  0  0  0  0  0
    0.4162    1.8901   -3.9002 O   0  0  0  0  0  0  0  0  0  0  0  0
    2.6488    0.6409   -3.9479 O   0  0  0  0  0  0  0  0  0  0  0  0
    0.6115   -0.5237   -4.7206 O   0  0  0  0  0  0  0  0  0  0  0  0
    0.3765    1.5062   -6.8756 F   0  0  0  0  0  0  0  0  0  0  0  0
    2.1759    2.6088   -6.3288 F   0  0  0  0  0  0  0  0  0  0  0  0
    2.3133    0.5127   -6.9060 F   0  0  0  0  0  0  0  0  0  0  0  0
  1  2  2  0  0  0  0
  1  6  1  0  0  0  0
  2  3  1  0  0  0  0
  3 20  1  0  0  0  0
  3  4  2  0  0  0  0
  4  9  1  0  0  0  0
  5  4  1  0  0  0  0
  5 10  1  0  0  0  0
  6  5  2  0  0  0  0
  7  1  1  0  0  0  0
  8  2  1  0  0  0  0
 11  6  1  0  0  0  0
 11 12  2  0  0  0  0
 13 11  2  0  0  0  0
 14 15  3  0  0  0  0
 16 19  2  0  0  0  0
 16 18  2  0  0  0  0
 17 16  1  0  0  0  0
 20 16  1  0  0  0  0
 21 17  1  0  0  0  0
 22 17  1  0  0  0  0
 23 17  1  0  0  0  0
M  END
