Coordinates from ORCA-job 4-NO2-Ph-N2-OTf-B3LYPG-6-31G_dp-MTMO-d009-169-n800
 OpenBabel09051908473D

 23 22  0  0  0  0  0  0  0  0999 V2000
   -1.9771   -1.5496   -5.4655 C   0  0  0  0  0  0  0  0  0  0  0  0
   -0.6490   -1.1643   -5.3121 C   0  0  0  0  0  0  0  0  0  0  0  0
   -0.3566    0.1811   -5.0918 C   0  0  0  0  0  0  0  0  0  0  0  0
   -1.3506    1.1565   -5.0193 C   0  0  0  0  0  0  0  0  0  0  0  0
   -2.6785    0.7721   -5.1805 C   0  0  0  0  0  0  0  0  0  0  0  0
   -2.9695   -0.5733   -5.3991 C   0  0  0  0  0  0  0  0  0  0  0  0
   -2.2542   -2.5819   -5.6372 H   0  0  0  0  0  0  0  0  0  0  0  0
    0.1558   -1.8884   -5.3591 H   0  0  0  0  0  0  0  0  0  0  0  0
   -1.0848    2.1909   -4.8370 H   0  0  0  0  0  0  0  0  0  0  0  0
   -3.4861    1.4912   -5.1339 H   0  0  0  0  0  0  0  0  0  0  0  0
   -4.3760   -0.9790   -5.5629 N   0  0  0  0  0  0  0  0  0  0  0  0
   -5.2322   -0.0991   -5.4971 O   0  0  0  0  0  0  0  0  0  0  0  0
   -4.6036   -2.1723   -5.7547 O   0  0  0  0  0  0  0  0  0  0  0  0
    0.4605    4.4678   -4.2494 N   0  0  0  0  0  0  0  0  0  0  0  0
    1.0466    5.3952   -4.1191 N   0  0  0  0  0  0  0  0  0  0  0  0
    1.8366    1.4212   -5.9407 S   0  0  0  0  0  0  0  0  0  0  0  0
    2.7598    0.0219   -6.7706 C   0  0  0  0  0  0  0  0  0  0  0  0
    0.9445    2.0094   -6.9245 O   0  0  0  0  0  0  0  0  0  0  0  0
    2.7978    2.1831   -5.1702 O   0  0  0  0  0  0  0  0  0  0  0  0
    0.9814    0.5230   -4.8457 O   0  0  0  0  0  0  0  0  0  0  0  0
    1.8795   -0.8272   -7.3057 F   0  0  0  0  0  0  0  0  0  0  0  0
    3.5269    0.5364   -7.7261 F   0  0  0  0  0  0  0  0  0  0  0  0
    3.5080   -0.6132   -5.8759 F   0  0  0  0  0  0  0  0  0  0  0  0
  1  6  2  0  0  0  0
  1  2  1  0  0  0  0
  2  3  2  0  0  0  0
  3  4  1  0  0  0  0
  3 20  1  0  0  0  0
  4  9  1  0  0  0  0
  5 10  1  0  0  0  0
  5  4  2  0  0  0  0
  6  5  1  0  0  0  0
  7  1  1  0  0  0  0
  8  2  1  0  0  0  0
 11 12  2  0  0  0  0
 11  6  1  0  0  0  0
 13 11  2  0  0  0  0
 14 15  3  0  0  0  0
 16 19  2  0  0  0  0
 16 20  1  0  0  0  0
 17 16  1  0  0  0  0
 17 23  1  0  0  0  0
 18 16  2  0  0  0  0
 21 17  1  0  0  0  0
 22 17  1  0  0  0  0
M  END
