Coordinates from ORCA-job 4-NO2-Ph-N2-OTf-B3LYPG-6-31G_dp-MTMO-d009-169-n800
 OpenBabel09051908473D

 23 22  0  0  0  0  0  0  0  0999 V2000
   -1.9878   -1.6374   -5.6490 C   0  0  0  0  0  0  0  0  0  0  0  0
   -0.6507   -1.3333   -5.4149 C   0  0  0  0  0  0  0  0  0  0  0  0
   -0.3183   -0.0668   -4.9346 C   0  0  0  0  0  0  0  0  0  0  0  0
   -1.2827    0.9082   -4.6794 C   0  0  0  0  0  0  0  0  0  0  0  0
   -2.6194    0.6068   -4.9236 C   0  0  0  0  0  0  0  0  0  0  0  0
   -2.9499   -0.6598   -5.4013 C   0  0  0  0  0  0  0  0  0  0  0  0
   -2.2947   -2.6075   -6.0183 H   0  0  0  0  0  0  0  0  0  0  0  0
    0.1322   -2.0610   -5.5944 H   0  0  0  0  0  0  0  0  0  0  0  0
   -0.9905    1.8807   -4.3038 H   0  0  0  0  0  0  0  0  0  0  0  0
   -3.4042    1.3303   -4.7435 H   0  0  0  0  0  0  0  0  0  0  0  0
   -4.3663   -0.9786   -5.6507 N   0  0  0  0  0  0  0  0  0  0  0  0
   -5.1947   -0.0990   -5.4236 O   0  0  0  0  0  0  0  0  0  0  0  0
   -4.6288   -2.1043   -6.0701 O   0  0  0  0  0  0  0  0  0  0  0  0
    0.4346    5.3670   -4.9569 N   0  0  0  0  0  0  0  0  0  0  0  0
    1.1758    5.8136   -5.6442 N   0  0  0  0  0  0  0  0  0  0  0  0
    1.9197    1.3014   -5.4216 S   0  0  0  0  0  0  0  0  0  0  0  0
    2.5868    0.2245   -6.7993 C   0  0  0  0  0  0  0  0  0  0  0  0
    1.0522    2.2989   -6.0250 O   0  0  0  0  0  0  0  0  0  0  0  0
    3.0194    1.6222   -4.5369 O   0  0  0  0  0  0  0  0  0  0  0  0
    1.0298    0.1609   -4.6210 O   0  0  0  0  0  0  0  0  0  0  0  0
    1.5672   -0.2367   -7.5255 F   0  0  0  0  0  0  0  0  0  0  0  0
    3.3858    0.9650   -7.5599 F   0  0  0  0  0  0  0  0  0  0  0  0
    3.2637   -0.7941   -6.2803 F   0  0  0  0  0  0  0  0  0  0  0  0
  1  2  2  0  0  0  0
  1  6  1  0  0  0  0
  2  3  1  0  0  0  0
  3  4  2  0  0  0  0
  3 20  1  0  0  0  0
  4  9  1  0  0  0  0
  5 10  1  0  0  0  0
  5  4  1  0  0  0  0
  6  5  2  0  0  0  0
  7  1  1  0  0  0  0
  8  2  1  0  0  0  0
 11 12  2  0  0  0  0
 11  6  1  0  0  0  0
 13 11  2  0  0  0  0
 15 14  3  0  0  0  0
 16 20  1  0  0  0  0
 16 19  2  0  0  0  0
 17 23  1  0  0  0  0
 17 16  1  0  0  0  0
 18 16  2  0  0  0  0
 21 17  1  0  0  0  0
 22 17  1  0  0  0  0
M  END
