Coordinates from ORCA-job 4-NO2-Ph-N2-OTf-B3LYPG-6-31G_dp-MTMO-d009-169-n800
 OpenBabel09051908473D

 23 22  0  0  0  0  0  0  0  0999 V2000
   -2.2943   -0.8690   -6.3810 C   0  0  0  0  0  0  0  0  0  0  0  0
   -0.9380   -0.6126   -6.2078 C   0  0  0  0  0  0  0  0  0  0  0  0
   -0.4601   -0.3281   -4.9288 C   0  0  0  0  0  0  0  0  0  0  0  0
   -1.2990   -0.2907   -3.8151 C   0  0  0  0  0  0  0  0  0  0  0  0
   -2.6573   -0.5384   -3.9891 C   0  0  0  0  0  0  0  0  0  0  0  0
   -3.1318   -0.8252   -5.2677 C   0  0  0  0  0  0  0  0  0  0  0  0
   -2.7104   -1.0983   -7.3536 H   0  0  0  0  0  0  0  0  0  0  0  0
   -0.2503   -0.6327   -7.0451 H   0  0  0  0  0  0  0  0  0  0  0  0
   -0.8938   -0.0711   -2.8349 H   0  0  0  0  0  0  0  0  0  0  0  0
   -3.3477   -0.5186   -3.1557 H   0  0  0  0  0  0  0  0  0  0  0  0
   -4.5687   -1.0944   -5.4489 N   0  0  0  0  0  0  0  0  0  0  0  0
   -5.2848   -1.0531   -4.4503 O   0  0  0  0  0  0  0  0  0  0  0  0
   -4.9601   -1.3440   -6.5877 O   0  0  0  0  0  0  0  0  0  0  0  0
    3.8909    3.7387   -9.7276 N   0  0  0  0  0  0  0  0  0  0  0  0
    3.3469    3.1852   -8.9409 N   0  0  0  0  0  0  0  0  0  0  0  0
    1.5694    1.2961   -4.3546 S   0  0  0  0  0  0  0  0  0  0  0  0
    2.0733    1.8800   -6.0619 C   0  0  0  0  0  0  0  0  0  0  0  0
    0.5277    2.1846   -3.8691 O   0  0  0  0  0  0  0  0  0  0  0  0
    2.7811    0.9995   -3.6192 O   0  0  0  0  0  0  0  0  0  0  0  0
    0.9248   -0.1705   -4.7770 O   0  0  0  0  0  0  0  0  0  0  0  0
    0.9977    1.9174   -6.8502 F   0  0  0  0  0  0  0  0  0  0  0  0
    2.5896    3.0988   -5.9430 F   0  0  0  0  0  0  0  0  0  0  0  0
    2.9741    1.0475   -6.5687 F   0  0  0  0  0  0  0  0  0  0  0  0
  1  2  2  0  0  0  0
  1  6  1  0  0  0  0
  2  3  1  0  0  0  0
  3 20  1  0  0  0  0
  3  4  2  0  0  0  0
  4  9  1  0  0  0  0
  5  4  1  0  0  0  0
  5 10  1  0  0  0  0
  6  5  2  0  0  0  0
  7  1  1  0  0  0  0
  8  2  1  0  0  0  0
 11  6  1  0  0  0  0
 11 12  2  0  0  0  0
 13 11  2  0  0  0  0
 14 15  3  0  0  0  0
 16 18  2  0  0  0  0
 16 19  2  0  0  0  0
 17 22  1  0  0  0  0
 17 16  1  0  0  0  0
 20 16  1  0  0  0  0
 21 17  1  0  0  0  0
 23 17  1  0  0  0  0
M  END
