Coordinates from ORCA-job 4-NO2-Ph-N2-OTf-B3LYPG-6-31G_dp-MTMO-d009-169-n800
 OpenBabel09051908473D

 23 22  0  0  0  0  0  0  0  0999 V2000
   -1.9900   -1.6529   -5.6717 C   0  0  0  0  0  0  0  0  0  0  0  0
   -0.6555   -1.3419   -5.4320 C   0  0  0  0  0  0  0  0  0  0  0  0
   -0.3342   -0.0837   -4.9234 C   0  0  0  0  0  0  0  0  0  0  0  0
   -1.3072    0.8763   -4.6452 C   0  0  0  0  0  0  0  0  0  0  0  0
   -2.6414    0.5685   -4.8949 C   0  0  0  0  0  0  0  0  0  0  0  0
   -2.9608   -0.6899   -5.4010 C   0  0  0  0  0  0  0  0  0  0  0  0
   -2.2885   -2.6171   -6.0625 H   0  0  0  0  0  0  0  0  0  0  0  0
    0.1339   -2.0581   -5.6287 H   0  0  0  0  0  0  0  0  0  0  0  0
   -1.0228    1.8423   -4.2475 H   0  0  0  0  0  0  0  0  0  0  0  0
   -3.4326    1.2805   -4.6978 H   0  0  0  0  0  0  0  0  0  0  0  0
   -4.3744   -1.0159   -5.6565 N   0  0  0  0  0  0  0  0  0  0  0  0
   -5.2106   -0.1491   -5.4091 O   0  0  0  0  0  0  0  0  0  0  0  0
   -4.6271   -2.1342   -6.1010 O   0  0  0  0  0  0  0  0  0  0  0  0
    0.6015    5.4827   -5.0522 N   0  0  0  0  0  0  0  0  0  0  0  0
    1.3722    5.8195   -5.7691 N   0  0  0  0  0  0  0  0  0  0  0  0
    1.8912    1.3136   -5.3849 S   0  0  0  0  0  0  0  0  0  0  0  0
    2.5621    0.2713   -6.7872 C   0  0  0  0  0  0  0  0  0  0  0  0
    1.0146    2.3173   -5.9642 O   0  0  0  0  0  0  0  0  0  0  0  0
    2.9912    1.6234   -4.4968 O   0  0  0  0  0  0  0  0  0  0  0  0
    1.0121    0.1497   -4.6060 O   0  0  0  0  0  0  0  0  0  0  0  0
    1.5440   -0.1807   -7.5212 F   0  0  0  0  0  0  0  0  0  0  0  0
    3.3546    1.0334   -7.5331 F   0  0  0  0  0  0  0  0  0  0  0  0
    3.2468   -0.7539   -6.2918 F   0  0  0  0  0  0  0  0  0  0  0  0
  1  2  2  0  0  0  0
  1  6  1  0  0  0  0
  2  3  1  0  0  0  0
  3  4  2  0  0  0  0
  3 20  1  0  0  0  0
  4  9  1  0  0  0  0
  5 10  1  0  0  0  0
  5  4  1  0  0  0  0
  6  5  2  0  0  0  0
  7  1  1  0  0  0  0
  8  2  1  0  0  0  0
 11 12  2  0  0  0  0
 11  6  1  0  0  0  0
 13 11  2  0  0  0  0
 15 14  3  0  0  0  0
 16 20  1  0  0  0  0
 16 19  2  0  0  0  0
 17 23  1  0  0  0  0
 17 16  1  0  0  0  0
 18 16  2  0  0  0  0
 21 17  1  0  0  0  0
 22 17  1  0  0  0  0
M  END
