Coordinates from ORCA-job 4-NO2-Ph-N2-OTf-B3LYPG-6-31G_dp-MTMO-d009-169-n800
 OpenBabel09051908473D

 23 22  0  0  0  0  0  0  0  0999 V2000
   -1.9874   -1.6399   -5.6474 C   0  0  0  0  0  0  0  0  0  0  0  0
   -0.6506   -1.3354   -5.4128 C   0  0  0  0  0  0  0  0  0  0  0  0
   -0.3186   -0.0682   -4.9341 C   0  0  0  0  0  0  0  0  0  0  0  0
   -1.2832    0.9071   -4.6809 C   0  0  0  0  0  0  0  0  0  0  0  0
   -2.6197    0.6053   -4.9256 C   0  0  0  0  0  0  0  0  0  0  0  0
   -2.9498   -0.6620   -5.4017 C   0  0  0  0  0  0  0  0  0  0  0  0
   -2.2940   -2.6106   -6.0155 H   0  0  0  0  0  0  0  0  0  0  0  0
    0.1326   -2.0633   -5.5908 H   0  0  0  0  0  0  0  0  0  0  0  0
   -0.9911    1.8800   -4.3064 H   0  0  0  0  0  0  0  0  0  0  0  0
   -3.4047    1.3290   -4.7471 H   0  0  0  0  0  0  0  0  0  0  0  0
   -4.3660   -0.9812   -5.6517 N   0  0  0  0  0  0  0  0  0  0  0  0
   -5.1946   -0.1012   -5.4266 O   0  0  0  0  0  0  0  0  0  0  0  0
   -4.6282   -2.1076   -6.0696 O   0  0  0  0  0  0  0  0  0  0  0  0
    0.4399    5.3850   -4.9548 N   0  0  0  0  0  0  0  0  0  0  0  0
    1.1832    5.8287   -5.6418 N   0  0  0  0  0  0  0  0  0  0  0  0
    1.9197    1.3003   -5.4207 S   0  0  0  0  0  0  0  0  0  0  0  0
    2.5836    0.2239   -6.8005 C   0  0  0  0  0  0  0  0  0  0  0  0
    1.0530    2.2997   -6.0221 O   0  0  0  0  0  0  0  0  0  0  0  0
    3.0208    1.6186   -4.5370 O   0  0  0  0  0  0  0  0  0  0  0  0
    1.0294    0.1601   -4.6201 O   0  0  0  0  0  0  0  0  0  0  0  0
    1.5625   -0.2344   -7.5264 F   0  0  0  0  0  0  0  0  0  0  0  0
    3.3834    0.9638   -7.5608 F   0  0  0  0  0  0  0  0  0  0  0  0
    3.2589   -0.7967   -6.2834 F   0  0  0  0  0  0  0  0  0  0  0  0
  1  2  2  0  0  0  0
  1  6  1  0  0  0  0
  2  3  1  0  0  0  0
  3  4  2  0  0  0  0
  3 20  1  0  0  0  0
  4  9  1  0  0  0  0
  5 10  1  0  0  0  0
  5  4  1  0  0  0  0
  6  5  2  0  0  0  0
  7  1  1  0  0  0  0
  8  2  1  0  0  0  0
 11 12  2  0  0  0  0
 11  6  1  0  0  0  0
 13 11  2  0  0  0  0
 15 14  3  0  0  0  0
 16 20  1  0  0  0  0
 16 19  2  0  0  0  0
 17 23  1  0  0  0  0
 17 16  1  0  0  0  0
 18 16  2  0  0  0  0
 21 17  1  0  0  0  0
 22 17  1  0  0  0  0
M  END
