Coordinates from ORCA-job 4-NO2-Ph-N2-OTf-B3LYPG-6-31G_dp-MTMO-d009-169-n800
 OpenBabel09051908483D

 23 22  0  0  0  0  0  0  0  0999 V2000
   -2.9363   -1.5092   -5.9388 C   0  0  0  0  0  0  0  0  0  0  0  0
   -1.5658   -1.2839   -5.8620 C   0  0  0  0  0  0  0  0  0  0  0  0
   -1.0209   -0.8185   -4.6653 C   0  0  0  0  0  0  0  0  0  0  0  0
   -1.8058   -0.5728   -3.5385 C   0  0  0  0  0  0  0  0  0  0  0  0
   -3.1786   -0.7885   -3.6186 C   0  0  0  0  0  0  0  0  0  0  0  0
   -3.7206   -1.2543   -4.8150 C   0  0  0  0  0  0  0  0  0  0  0  0
   -3.4030   -1.8727   -6.8454 H   0  0  0  0  0  0  0  0  0  0  0  0
   -0.9167   -1.4670   -6.7105 H   0  0  0  0  0  0  0  0  0  0  0  0
   -1.3503   -0.2168   -2.6229 H   0  0  0  0  0  0  0  0  0  0  0  0
   -3.8296   -0.6089   -2.7724 H   0  0  0  0  0  0  0  0  0  0  0  0
   -5.1727   -1.4887   -4.8943 N   0  0  0  0  0  0  0  0  0  0  0  0
   -5.8412   -1.2573   -3.8888 O   0  0  0  0  0  0  0  0  0  0  0  0
   -5.6235   -1.9016   -5.9614 O   0  0  0  0  0  0  0  0  0  0  0  0
   10.3214    8.9600  -11.9188 N   0  0  0  0  0  0  0  0  0  0  0  0
    9.5089    8.3176  -11.5330 N   0  0  0  0  0  0  0  0  0  0  0  0
    1.0992    0.7737   -4.3856 S   0  0  0  0  0  0  0  0  0  0  0  0
    1.3053    1.2606   -6.1809 C   0  0  0  0  0  0  0  0  0  0  0  0
    0.1723    1.7139   -3.7795 O   0  0  0  0  0  0  0  0  0  0  0  0
    2.4126    0.4797   -3.8529 O   0  0  0  0  0  0  0  0  0  0  0  0
    0.3748   -0.6976   -4.6051 O   0  0  0  0  0  0  0  0  0  0  0  0
    0.1029    1.3340   -6.7546 F   0  0  0  0  0  0  0  0  0  0  0  0
    1.9015    2.4470   -6.2262 F   0  0  0  0  0  0  0  0  0  0  0  0
    2.0454    0.3525   -6.8076 F   0  0  0  0  0  0  0  0  0  0  0  0
  1  2  2  0  0  0  0
  1  6  1  0  0  0  0
  2  3  1  0  0  0  0
  3 20  1  0  0  0  0
  3  4  2  0  0  0  0
  4  9  1  0  0  0  0
  5  4  1  0  0  0  0
  5 10  1  0  0  0  0
  6  5  2  0  0  0  0
  7  1  1  0  0  0  0
  8  2  1  0  0  0  0
 11  6  1  0  0  0  0
 11 12  2  0  0  0  0
 13 11  2  0  0  0  0
 14 15  3  0  0  0  0
 16 19  2  0  0  0  0
 16 18  2  0  0  0  0
 17 16  1  0  0  0  0
 20 16  1  0  0  0  0
 21 17  1  0  0  0  0
 22 17  1  0  0  0  0
 23 17  1  0  0  0  0
M  END
