Coordinates from ORCA-job 4-NO2-Ph-N2-OTf-B3LYPG-6-31G_dp-MTMO-d009-169-n800
 OpenBabel09051908483D

 23 22  0  0  0  0  0  0  0  0999 V2000
   -2.6880   -1.3108   -6.0920 C   0  0  0  0  0  0  0  0  0  0  0  0
   -1.3167   -1.0958   -5.9999 C   0  0  0  0  0  0  0  0  0  0  0  0
   -0.7819   -0.6330   -4.7976 C   0  0  0  0  0  0  0  0  0  0  0  0
   -1.5776   -0.3804   -3.6799 C   0  0  0  0  0  0  0  0  0  0  0  0
   -2.9510   -0.5858   -3.7753 C   0  0  0  0  0  0  0  0  0  0  0  0
   -3.4830   -1.0488   -4.9774 C   0  0  0  0  0  0  0  0  0  0  0  0
   -3.1472   -1.6717   -7.0034 H   0  0  0  0  0  0  0  0  0  0  0  0
   -0.6595   -1.2847   -6.8408 H   0  0  0  0  0  0  0  0  0  0  0  0
   -1.1297   -0.0267   -2.7597 H   0  0  0  0  0  0  0  0  0  0  0  0
   -3.6100   -0.4003   -2.9368 H   0  0  0  0  0  0  0  0  0  0  0  0
   -4.9359   -1.2720   -5.0728 N   0  0  0  0  0  0  0  0  0  0  0  0
   -5.6139   -1.0343   -4.0752 O   0  0  0  0  0  0  0  0  0  0  0  0
   -5.3777   -1.6824   -6.1446 O   0  0  0  0  0  0  0  0  0  0  0  0
    7.7457    6.9754  -10.4613 N   0  0  0  0  0  0  0  0  0  0  0  0
    6.9274    6.3332  -10.0876 N   0  0  0  0  0  0  0  0  0  0  0  0
    1.3458    0.9449   -4.4964 S   0  0  0  0  0  0  0  0  0  0  0  0
    1.5746    1.4281   -6.2900 C   0  0  0  0  0  0  0  0  0  0  0  0
    0.4187    1.8920   -3.9016 O   0  0  0  0  0  0  0  0  0  0  0  0
    2.6513    0.6428   -3.9492 O   0  0  0  0  0  0  0  0  0  0  0  0
    0.6139   -0.5218   -4.7219 O   0  0  0  0  0  0  0  0  0  0  0  0
    0.3792    1.5081   -6.8771 F   0  0  0  0  0  0  0  0  0  0  0  0
    2.1786    2.6106   -6.3302 F   0  0  0  0  0  0  0  0  0  0  0  0
    2.3159    0.5145   -6.9073 F   0  0  0  0  0  0  0  0  0  0  0  0
  1  2  2  0  0  0  0
  1  6  1  0  0  0  0
  2  3  1  0  0  0  0
  3 20  1  0  0  0  0
  3  4  2  0  0  0  0
  4  9  1  0  0  0  0
  5  4  1  0  0  0  0
  5 10  1  0  0  0  0
  6  5  2  0  0  0  0
  7  1  1  0  0  0  0
  8  2  1  0  0  0  0
 11  6  1  0  0  0  0
 11 12  2  0  0  0  0
 13 11  2  0  0  0  0
 14 15  3  0  0  0  0
 16 19  2  0  0  0  0
 16 18  2  0  0  0  0
 17 16  1  0  0  0  0
 20 16  1  0  0  0  0
 21 17  1  0  0  0  0
 22 17  1  0  0  0  0
 23 17  1  0  0  0  0
M  END
