Coordinates from ORCA-job 4-NO2-Ph-N2-OTf-B3LYPG-6-31G_dp-MTMO-d009-169-n800
 OpenBabel09051908473D

 23 22  0  0  0  0  0  0  0  0999 V2000
   -2.5266   -1.2066   -6.1613 C   0  0  0  0  0  0  0  0  0  0  0  0
   -1.1547   -0.9888   -6.0881 C   0  0  0  0  0  0  0  0  0  0  0  0
   -0.6101   -0.4837   -4.9074 C   0  0  0  0  0  0  0  0  0  0  0  0
   -1.3969   -0.1904   -3.7934 C   0  0  0  0  0  0  0  0  0  0  0  0
   -2.7709   -0.3988   -3.8701 C   0  0  0  0  0  0  0  0  0  0  0  0
   -3.3126   -0.9047   -5.0503 C   0  0  0  0  0  0  0  0  0  0  0  0
   -2.9932   -1.5996   -7.0556 H   0  0  0  0  0  0  0  0  0  0  0  0
   -0.5042   -1.2072   -6.9270 H   0  0  0  0  0  0  0  0  0  0  0  0
   -0.9415    0.1963   -2.8902 H   0  0  0  0  0  0  0  0  0  0  0  0
   -3.4233   -0.1830   -3.0336 H   0  0  0  0  0  0  0  0  0  0  0  0
   -4.7661   -1.1313   -5.1258 N   0  0  0  0  0  0  0  0  0  0  0  0
   -5.4357   -0.8601   -4.1311 O   0  0  0  0  0  0  0  0  0  0  0  0
   -5.2168   -1.5779   -6.1793 O   0  0  0  0  0  0  0  0  0  0  0  0
    5.8950    5.5787   -9.1937 N   0  0  0  0  0  0  0  0  0  0  0  0
    5.1124    4.9243   -8.7683 N   0  0  0  0  0  0  0  0  0  0  0  0
    1.5206    1.1024   -4.6806 S   0  0  0  0  0  0  0  0  0  0  0  0
    1.7615    1.5033   -6.4930 C   0  0  0  0  0  0  0  0  0  0  0  0
    0.5920    2.0766   -4.1337 O   0  0  0  0  0  0  0  0  0  0  0  0
    2.8222    0.8225   -4.1124 O   0  0  0  0  0  0  0  0  0  0  0  0
    0.7861   -0.3712   -4.8462 O   0  0  0  0  0  0  0  0  0  0  0  0
    0.5696    1.5565   -7.0905 F   0  0  0  0  0  0  0  0  0  0  0  0
    2.3668    2.6821   -6.5839 F   0  0  0  0  0  0  0  0  0  0  0  0
    2.5057    0.5614   -7.0624 F   0  0  0  0  0  0  0  0  0  0  0  0
  1  2  2  0  0  0  0
  1  6  1  0  0  0  0
  2  3  1  0  0  0  0
  3 20  1  0  0  0  0
  3  4  2  0  0  0  0
  4  9  1  0  0  0  0
  5  4  1  0  0  0  0
  5 10  1  0  0  0  0
  6  5  2  0  0  0  0
  7  1  1  0  0  0  0
  8  2  1  0  0  0  0
 11  6  1  0  0  0  0
 11 12  2  0  0  0  0
 13 11  2  0  0  0  0
 14 15  3  0  0  0  0
 16 18  2  0  0  0  0
 16 19  2  0  0  0  0
 17 16  1  0  0  0  0
 20 16  1  0  0  0  0
 21 17  1  0  0  0  0
 22 17  1  0  0  0  0
 23 17  1  0  0  0  0
M  END
