Coordinates from ORCA-job 4-NO2-Ph-N2-OTf-B3LYPG-6-31G_dp-MTMO-d009-169-n800
 OpenBabel09051908473D

 23 22  0  0  0  0  0  0  0  0999 V2000
   -2.0733   -0.5437   -6.3009 C   0  0  0  0  0  0  0  0  0  0  0  0
   -0.7223   -0.2171   -6.2149 C   0  0  0  0  0  0  0  0  0  0  0  0
   -0.2738    0.4873   -5.0965 C   0  0  0  0  0  0  0  0  0  0  0  0
   -1.1328    0.8345   -4.0509 C   0  0  0  0  0  0  0  0  0  0  0  0
   -2.4775    0.4954   -4.1333 C   0  0  0  0  0  0  0  0  0  0  0  0
   -2.9303   -0.1846   -5.2634 C   0  0  0  0  0  0  0  0  0  0  0  0
   -2.4667   -1.0826   -7.1537 H   0  0  0  0  0  0  0  0  0  0  0  0
   -0.0410   -0.4995   -7.0055 H   0  0  0  0  0  0  0  0  0  0  0  0
   -0.7361    1.3675   -3.1947 H   0  0  0  0  0  0  0  0  0  0  0  0
   -3.1760    0.7499   -3.3464 H   0  0  0  0  0  0  0  0  0  0  0  0
   -4.3539   -0.5419   -5.3572 N   0  0  0  0  0  0  0  0  0  0  0  0
   -5.0828   -0.2204   -4.4199 O   0  0  0  0  0  0  0  0  0  0  0  0
   -4.7249   -1.1407   -6.3654 O   0  0  0  0  0  0  0  0  0  0  0  0
   -0.5808    3.1573   -5.9584 N   0  0  0  0  0  0  0  0  0  0  0  0
   -1.3922    3.7298   -6.4436 N   0  0  0  0  0  0  0  0  0  0  0  0
    2.1511    1.2774   -6.0135 S   0  0  0  0  0  0  0  0  0  0  0  0
    3.1591   -0.2974   -6.0563 C   0  0  0  0  0  0  0  0  0  0  0  0
    1.5189    1.4252   -7.3133 O   0  0  0  0  0  0  0  0  0  0  0  0
    2.9655    2.3037   -5.3978 O   0  0  0  0  0  0  0  0  0  0  0  0
    1.0721    0.7888   -4.8624 O   0  0  0  0  0  0  0  0  0  0  0  0
    2.3754   -1.3077   -6.4407 F   0  0  0  0  0  0  0  0  0  0  0  0
    4.1423   -0.1319   -6.9359 F   0  0  0  0  0  0  0  0  0  0  0  0
    3.6591   -0.5480   -4.8532 F   0  0  0  0  0  0  0  0  0  0  0  0
  1  2  2  0  0  0  0
  1  6  1  0  0  0  0
  2  3  1  0  0  0  0
  3 20  1  0  0  0  0
  3  4  2  0  0  0  0
  4  9  1  0  0  0  0
  5  4  1  0  0  0  0
  5 10  1  0  0  0  0
  6  5  2  0  0  0  0
  7  1  1  0  0  0  0
  8  2  1  0  0  0  0
 11  6  1  0  0  0  0
 11 12  2  0  0  0  0
 13 11  2  0  0  0  0
 15 14  3  0  0  0  0
 16 19  2  0  0  0  0
 16 20  1  0  0  0  0
 17 16  1  0  0  0  0
 17 23  1  0  0  0  0
 18 16  2  0  0  0  0
 21 17  1  0  0  0  0
 22 17  1  0  0  0  0
M  END
