Coordinates from ORCA-job 4-NO2-Ph-N2-OTf-B3LYPG-6-31G_dp-MTMO-d009-169-n800
 OpenBabel09051908473D

 23 22  0  0  0  0  0  0  0  0999 V2000
   -2.5940   -1.2457   -6.1384 C   0  0  0  0  0  0  0  0  0  0  0  0
   -1.2222   -1.0328   -6.0496 C   0  0  0  0  0  0  0  0  0  0  0  0
   -0.6860   -0.5544   -4.8540 C   0  0  0  0  0  0  0  0  0  0  0  0
   -1.4809   -0.2837   -3.7400 C   0  0  0  0  0  0  0  0  0  0  0  0
   -2.8547   -0.4871   -3.8322 C   0  0  0  0  0  0  0  0  0  0  0  0
   -3.3881   -0.9659   -5.0274 C   0  0  0  0  0  0  0  0  0  0  0  0
   -3.0543   -1.6183   -7.0445 H   0  0  0  0  0  0  0  0  0  0  0  0
   -0.5656   -1.2350   -6.8878 H   0  0  0  0  0  0  0  0  0  0  0  0
   -1.0319    0.0821   -2.8250 H   0  0  0  0  0  0  0  0  0  0  0  0
   -3.5132   -0.2881   -2.9964 H   0  0  0  0  0  0  0  0  0  0  0  0
   -4.8415   -1.1870   -5.1194 N   0  0  0  0  0  0  0  0  0  0  0  0
   -5.5186   -0.9343   -4.1249 O   0  0  0  0  0  0  0  0  0  0  0  0
   -5.2847   -1.6106   -6.1855 O   0  0  0  0  0  0  0  0  0  0  0  0
    6.7065    6.2005   -9.8093 N   0  0  0  0  0  0  0  0  0  0  0  0
    5.9051    5.5536   -9.4083 N   0  0  0  0  0  0  0  0  0  0  0  0
    1.4455    1.0224   -4.5764 S   0  0  0  0  0  0  0  0  0  0  0  0
    1.6813    1.4742   -6.3772 C   0  0  0  0  0  0  0  0  0  0  0  0
    0.5192    1.9818   -4.0002 O   0  0  0  0  0  0  0  0  0  0  0  0
    2.7484    0.7259   -4.0199 O   0  0  0  0  0  0  0  0  0  0  0  0
    0.7101   -0.4458   -4.7800 O   0  0  0  0  0  0  0  0  0  0  0  0
    0.4879    1.5478   -6.9691 F   0  0  0  0  0  0  0  0  0  0  0  0
    2.2893    2.6539   -6.4360 F   0  0  0  0  0  0  0  0  0  0  0  0
    2.4214    0.5476   -6.9763 F   0  0  0  0  0  0  0  0  0  0  0  0
  1  2  2  0  0  0  0
  1  6  1  0  0  0  0
  2  3  1  0  0  0  0
  3 20  1  0  0  0  0
  3  4  2  0  0  0  0
  4  9  1  0  0  0  0
  5  4  1  0  0  0  0
  5 10  1  0  0  0  0
  6  5  2  0  0  0  0
  7  1  1  0  0  0  0
  8  2  1  0  0  0  0
 11  6  1  0  0  0  0
 11 12  2  0  0  0  0
 13 11  2  0  0  0  0
 14 15  3  0  0  0  0
 16 19  2  0  0  0  0
 16 18  2  0  0  0  0
 17 16  1  0  0  0  0
 20 16  1  0  0  0  0
 21 17  1  0  0  0  0
 22 17  1  0  0  0  0
 23 17  1  0  0  0  0
M  END
