Coordinates from ORCA-job 4-NO2-Ph-N2-OTf-B3LYPG-6-31G_dp-MTMO-d009-169-n800
 OpenBabel09051908473D

 23 22  0  0  0  0  0  0  0  0999 V2000
   -2.5118   -1.1842   -6.1683 C   0  0  0  0  0  0  0  0  0  0  0  0
   -1.1406   -0.9569   -6.1127 C   0  0  0  0  0  0  0  0  0  0  0  0
   -0.5849   -0.4453   -4.9401 C   0  0  0  0  0  0  0  0  0  0  0  0
   -1.3602   -0.1528   -3.8179 C   0  0  0  0  0  0  0  0  0  0  0  0
   -2.7336   -0.3706   -3.8768 C   0  0  0  0  0  0  0  0  0  0  0  0
   -3.2861   -0.8843   -5.0487 C   0  0  0  0  0  0  0  0  0  0  0  0
   -2.9867   -1.5830   -7.0556 H   0  0  0  0  0  0  0  0  0  0  0  0
   -0.4992   -1.1731   -6.9592 H   0  0  0  0  0  0  0  0  0  0  0  0
   -0.8965    0.2398   -2.9213 H   0  0  0  0  0  0  0  0  0  0  0  0
   -3.3771   -0.1561   -3.0332 H   0  0  0  0  0  0  0  0  0  0  0  0
   -4.7388   -1.1210   -5.1056 N   0  0  0  0  0  0  0  0  0  0  0  0
   -5.3981   -0.8508   -4.1037 O   0  0  0  0  0  0  0  0  0  0  0  0
   -5.1994   -1.5745   -6.1519 O   0  0  0  0  0  0  0  0  0  0  0  0
    5.5445    5.3097   -8.8925 N   0  0  0  0  0  0  0  0  0  0  0  0
    4.7877    4.6279   -8.4632 N   0  0  0  0  0  0  0  0  0  0  0  0
    1.5390    1.1559   -4.7453 S   0  0  0  0  0  0  0  0  0  0  0  0
    1.8250    1.5127   -6.5610 C   0  0  0  0  0  0  0  0  0  0  0  0
    0.5941    2.1392   -4.2445 O   0  0  0  0  0  0  0  0  0  0  0  0
    2.8275    0.8956   -4.1387 O   0  0  0  0  0  0  0  0  0  0  0  0
    0.8112   -0.3237   -4.8950 O   0  0  0  0  0  0  0  0  0  0  0  0
    0.6485    1.5403   -7.1899 F   0  0  0  0  0  0  0  0  0  0  0  0
    2.4237    2.6939   -6.6670 F   0  0  0  0  0  0  0  0  0  0  0  0
    2.5910    0.5625   -7.0857 F   0  0  0  0  0  0  0  0  0  0  0  0
  1  2  2  0  0  0  0
  1  6  1  0  0  0  0
  2  3  1  0  0  0  0
  3 20  1  0  0  0  0
  3  4  2  0  0  0  0
  4  9  1  0  0  0  0
  5  4  1  0  0  0  0
  5 10  1  0  0  0  0
  6  5  2  0  0  0  0
  7  1  1  0  0  0  0
  8  2  1  0  0  0  0
 11  6  1  0  0  0  0
 11 12  2  0  0  0  0
 13 11  2  0  0  0  0
 14 15  3  0  0  0  0
 16 18  2  0  0  0  0
 16 19  2  0  0  0  0
 17 16  1  0  0  0  0
 20 16  1  0  0  0  0
 21 17  1  0  0  0  0
 22 17  1  0  0  0  0
 23 17  1  0  0  0  0
M  END
