Coordinates from ORCA-job 4-NO2-Ph-N2-OTf-B3LYPG-6-31G_dp-MTMO-d009-169-n800
 OpenBabel09051908473D

 23 22  0  0  0  0  0  0  0  0999 V2000
   -1.9660   -0.3911   -6.3072 C   0  0  0  0  0  0  0  0  0  0  0  0
   -1.0123    0.6201   -6.4185 C   0  0  0  0  0  0  0  0  0  0  0  0
   -1.0607    1.5910   -5.4346 C   0  0  0  0  0  0  0  0  0  0  0  0
   -1.9275    1.6565   -4.3530 C   0  0  0  0  0  0  0  0  0  0  0  0
   -2.8632    0.6284   -4.2646 C   0  0  0  0  0  0  0  0  0  0  0  0
   -2.8656   -0.3648   -5.2431 C   0  0  0  0  0  0  0  0  0  0  0  0
   -2.0101   -1.1983   -7.0276 H   0  0  0  0  0  0  0  0  0  0  0  0
   -0.2443    0.6540   -7.1858 H   0  0  0  0  0  0  0  0  0  0  0  0
   -1.8775    2.4507   -3.6183 H   0  0  0  0  0  0  0  0  0  0  0  0
   -3.5825    0.5881   -3.4563 H   0  0  0  0  0  0  0  0  0  0  0  0
   -3.8721   -1.4467   -5.1387 N   0  0  0  0  0  0  0  0  0  0  0  0
   -4.6389   -1.4067   -4.1810 O   0  0  0  0  0  0  0  0  0  0  0  0
   -3.8677   -2.3019   -6.0176 O   0  0  0  0  0  0  0  0  0  0  0  0
   -0.0740    2.7942   -5.5569 N   0  0  0  0  0  0  0  0  0  0  0  0
    0.2158    3.8616   -5.6790 N   0  0  0  0  0  0  0  0  0  0  0  0
    2.4937    1.2386   -6.0837 S   0  0  0  0  0  0  0  0  0  0  0  0
    2.6800   -0.6094   -6.0097 C   0  0  0  0  0  0  0  0  0  0  0  0
    1.7016    1.4691   -7.3225 O   0  0  0  0  0  0  0  0  0  0  0  0
    3.8541    1.7723   -6.0431 O   0  0  0  0  0  0  0  0  0  0  0  0
    1.6558    1.5214   -4.8538 O   0  0  0  0  0  0  0  0  0  0  0  0
    1.4634   -1.1951   -6.0523 F   0  0  0  0  0  0  0  0  0  0  0  0
    3.3918   -1.0484   -7.0515 F   0  0  0  0  0  0  0  0  0  0  0  0
    3.2855   -0.9824   -4.8793 F   0  0  0  0  0  0  0  0  0  0  0  0
  1  6  1  0  0  0  0
  2  1  2  0  0  0  0
  2  3  1  0  0  0  0
  3  4  2  0  0  0  0
  4  5  1  0  0  0  0
  4  9  1  0  0  0  0
  5 10  1  0  0  0  0
  6 11  1  0  0  0  0
  6  5  2  0  0  0  0
  7  1  1  0  0  0  0
  8  2  1  0  0  0  0
 11 12  2  0  0  0  0
 13 11  2  0  0  0  0
 14  3  1  0  0  0  0
 15 14  1  0  0  0  0
 16 19  2  0  0  0  0
 16 17  1  0  0  0  0
 16 20  1  0  0  0  0
 17 23  1  0  0  0  0
 18 16  2  0  0  0  0
 21 17  1  0  0  0  0
 22 17  1  0  0  0  0
M  RAD  3  14   2  15   3  20   2
M  END
