Coordinates from ORCA-job 4-NO2-Ph-N2-OTf-B3LYPG-6-31G_dp-MTMO-d009-169-n800
 OpenBabel09051908483D

 23 22  0  0  0  0  0  0  0  0999 V2000
   -2.8735   -1.4589   -5.9777 C   0  0  0  0  0  0  0  0  0  0  0  0
   -1.5027   -1.2370   -5.8963 C   0  0  0  0  0  0  0  0  0  0  0  0
   -0.9608   -0.7720   -4.6980 C   0  0  0  0  0  0  0  0  0  0  0  0
   -1.7490   -0.5236   -3.5741 C   0  0  0  0  0  0  0  0  0  0  0  0
   -3.1220   -0.7359   -3.6588 C   0  0  0  0  0  0  0  0  0  0  0  0
   -3.6610   -1.2012   -4.8568 C   0  0  0  0  0  0  0  0  0  0  0  0
   -3.3379   -1.8219   -6.8856 H   0  0  0  0  0  0  0  0  0  0  0  0
   -0.8511   -1.4224   -6.7423 H   0  0  0  0  0  0  0  0  0  0  0  0
   -1.2957   -0.1680   -2.6572 H   0  0  0  0  0  0  0  0  0  0  0  0
   -3.7754   -0.5540   -2.8151 H   0  0  0  0  0  0  0  0  0  0  0  0
   -5.1135   -1.4318   -4.9409 N   0  0  0  0  0  0  0  0  0  0  0  0
   -5.7849   -1.1977   -3.9380 O   0  0  0  0  0  0  0  0  0  0  0  0
   -5.5616   -1.8441   -6.0094 O   0  0  0  0  0  0  0  0  0  0  0  0
    9.6689    8.4607  -11.5502 N   0  0  0  0  0  0  0  0  0  0  0  0
    8.8514    7.8196  -11.1731 N   0  0  0  0  0  0  0  0  0  0  0  0
    1.1620    0.8155   -4.4122 S   0  0  0  0  0  0  0  0  0  0  0  0
    1.3759    1.3002   -6.2072 C   0  0  0  0  0  0  0  0  0  0  0  0
    0.2351    1.7583   -3.8104 O   0  0  0  0  0  0  0  0  0  0  0  0
    2.4727    0.5189   -3.8744 O   0  0  0  0  0  0  0  0  0  0  0  0
    0.4351   -0.6544   -4.6331 O   0  0  0  0  0  0  0  0  0  0  0  0
    0.1759    1.3752   -6.7856 F   0  0  0  0  0  0  0  0  0  0  0  0
    1.9744    2.4854   -6.2513 F   0  0  0  0  0  0  0  0  0  0  0  0
    2.1168    0.3901   -6.8301 F   0  0  0  0  0  0  0  0  0  0  0  0
  1  2  2  0  0  0  0
  1  6  1  0  0  0  0
  2  3  1  0  0  0  0
  3 20  1  0  0  0  0
  3  4  2  0  0  0  0
  4  9  1  0  0  0  0
  5  4  1  0  0  0  0
  5 10  1  0  0  0  0
  6  5  2  0  0  0  0
  7  1  1  0  0  0  0
  8  2  1  0  0  0  0
 11  6  1  0  0  0  0
 11 12  2  0  0  0  0
 13 11  2  0  0  0  0
 14 15  3  0  0  0  0
 16 19  2  0  0  0  0
 16 18  2  0  0  0  0
 17 16  1  0  0  0  0
 20 16  1  0  0  0  0
 21 17  1  0  0  0  0
 22 17  1  0  0  0  0
 23 17  1  0  0  0  0
M  END
