Coordinates from ORCA-job 4-NO2-Ph-N2-OTf-B3LYPG-6-31G_dp-MTMO-d009-169-n800
 OpenBabel09051908473D

 23 22  0  0  0  0  0  0  0  0999 V2000
   -2.0759   -0.4040   -6.3550 C   0  0  0  0  0  0  0  0  0  0  0  0
   -0.7404   -0.0196   -6.3006 C   0  0  0  0  0  0  0  0  0  0  0  0
   -0.2896    0.6879   -5.1800 C   0  0  0  0  0  0  0  0  0  0  0  0
   -1.1106    0.8726   -4.0594 C   0  0  0  0  0  0  0  0  0  0  0  0
   -2.4390    0.4782   -4.1130 C   0  0  0  0  0  0  0  0  0  0  0  0
   -2.9115   -0.1392   -5.2718 C   0  0  0  0  0  0  0  0  0  0  0  0
   -2.4742   -0.9222   -7.2183 H   0  0  0  0  0  0  0  0  0  0  0  0
   -0.0800   -0.2243   -7.1316 H   0  0  0  0  0  0  0  0  0  0  0  0
   -0.6996    1.3547   -3.1800 H   0  0  0  0  0  0  0  0  0  0  0  0
   -3.1100    0.6322   -3.2774 H   0  0  0  0  0  0  0  0  0  0  0  0
   -4.3192   -0.5550   -5.3359 N   0  0  0  0  0  0  0  0  0  0  0  0
   -5.0247   -0.3238   -4.3547 O   0  0  0  0  0  0  0  0  0  0  0  0
   -4.7028   -1.1082   -6.3655 O   0  0  0  0  0  0  0  0  0  0  0  0
   -0.6029    2.7369   -5.9793 N   0  0  0  0  0  0  0  0  0  0  0  0
   -1.5077    3.2664   -6.3376 N   0  0  0  0  0  0  0  0  0  0  0  0
    2.2066    1.3126   -6.0644 S   0  0  0  0  0  0  0  0  0  0  0  0
    3.0950   -0.3307   -5.9709 C   0  0  0  0  0  0  0  0  0  0  0  0
    1.6409    1.4239   -7.3987 O   0  0  0  0  0  0  0  0  0  0  0  0
    3.0681    2.3160   -5.4760 O   0  0  0  0  0  0  0  0  0  0  0  0
    1.0551    0.9808   -4.9304 O   0  0  0  0  0  0  0  0  0  0  0  0
    2.2482   -1.3030   -6.3138 F   0  0  0  0  0  0  0  0  0  0  0  0
    4.1126   -0.2970   -6.8260 F   0  0  0  0  0  0  0  0  0  0  0  0
    3.5405   -0.5340   -4.7377 F   0  0  0  0  0  0  0  0  0  0  0  0
  1  2  2  0  0  0  0
  1  6  1  0  0  0  0
  2  3  1  0  0  0  0
  3 20  1  0  0  0  0
  3  4  2  0  0  0  0
  4  9  1  0  0  0  0
  5  4  1  0  0  0  0
  5 10  1  0  0  0  0
  6  5  2  0  0  0  0
  7  1  1  0  0  0  0
  8  2  1  0  0  0  0
 11  6  1  0  0  0  0
 11 12  2  0  0  0  0
 13 11  2  0  0  0  0
 15 14  3  0  0  0  0
 16 17  1  0  0  0  0
 16 19  2  0  0  0  0
 16 20  1  0  0  0  0
 17 23  1  0  0  0  0
 18 16  2  0  0  0  0
 21 17  1  0  0  0  0
 22 17  1  0  0  0  0
M  END
