Coordinates from ORCA-job 4-NO2-Ph-N2-OTf-B3LYPG-6-31G_dp-MTMO-d009-169-n800
 OpenBabel09051908473D

 23 22  0  0  0  0  0  0  0  0999 V2000
   -2.0695   -0.6256   -6.2723 C   0  0  0  0  0  0  0  0  0  0  0  0
   -0.7158   -0.3160   -6.1742 C   0  0  0  0  0  0  0  0  0  0  0  0
   -0.2757    0.4271   -5.0779 C   0  0  0  0  0  0  0  0  0  0  0  0
   -1.1476    0.8400   -4.0687 C   0  0  0  0  0  0  0  0  0  0  0  0
   -2.4965    0.5179   -4.1614 C   0  0  0  0  0  0  0  0  0  0  0  0
   -2.9386   -0.2067   -5.2674 C   0  0  0  0  0  0  0  0  0  0  0  0
   -2.4566   -1.1954   -7.1077 H   0  0  0  0  0  0  0  0  0  0  0  0
   -0.0225   -0.6442   -6.9365 H   0  0  0  0  0  0  0  0  0  0  0  0
   -0.7580    1.4050   -3.2299 H   0  0  0  0  0  0  0  0  0  0  0  0
   -3.2059    0.8192   -3.4014 H   0  0  0  0  0  0  0  0  0  0  0  0
   -4.3663   -0.5464   -5.3718 N   0  0  0  0  0  0  0  0  0  0  0  0
   -5.1071   -0.1704   -4.4647 O   0  0  0  0  0  0  0  0  0  0  0  0
   -4.7281   -1.1855   -6.3582 O   0  0  0  0  0  0  0  0  0  0  0  0
   -0.5385    3.3224   -5.9054 N   0  0  0  0  0  0  0  0  0  0  0  0
   -1.3010    3.9537   -6.3967 N   0  0  0  0  0  0  0  0  0  0  0  0
    2.1226    1.2637   -5.9959 S   0  0  0  0  0  0  0  0  0  0  0  0
    3.1742   -0.2797   -6.0989 C   0  0  0  0  0  0  0  0  0  0  0  0
    1.4607    1.4284   -7.2787 O   0  0  0  0  0  0  0  0  0  0  0  0
    2.9213    2.2949   -5.3674 O   0  0  0  0  0  0  0  0  0  0  0  0
    1.0745    0.7113   -4.8431 O   0  0  0  0  0  0  0  0  0  0  0  0
    2.4156   -1.3019   -6.5027 F   0  0  0  0  0  0  0  0  0  0  0  0
    4.1393   -0.0598   -6.9864 F   0  0  0  0  0  0  0  0  0  0  0  0
    3.6985   -0.5507   -4.9106 F   0  0  0  0  0  0  0  0  0  0  0  0
  1  2  2  0  0  0  0
  1  6  1  0  0  0  0
  2  3  1  0  0  0  0
  3 20  1  0  0  0  0
  3  4  2  0  0  0  0
  4  9  1  0  0  0  0
  5  4  1  0  0  0  0
  5 10  1  0  0  0  0
  6  5  2  0  0  0  0
  7  1  1  0  0  0  0
  8  2  1  0  0  0  0
 11  6  1  0  0  0  0
 11 12  2  0  0  0  0
 13 11  2  0  0  0  0
 15 14  3  0  0  0  0
 16 19  2  0  0  0  0
 16 20  1  0  0  0  0
 17 16  1  0  0  0  0
 17 23  1  0  0  0  0
 18 16  2  0  0  0  0
 21 17  1  0  0  0  0
 22 17  1  0  0  0  0
M  END
