Coordinates from ORCA-job 4-NO2-Ph-N2-OTf-B3LYPG-6-31G_dp-MTMO-d009-169-n800
 OpenBabel09051908483D

 23 22  0  0  0  0  0  0  0  0999 V2000
   -2.7399   -1.3520   -6.0604 C   0  0  0  0  0  0  0  0  0  0  0  0
   -1.3687   -1.1358   -5.9704 C   0  0  0  0  0  0  0  0  0  0  0  0
   -0.8324   -0.6728   -4.7688 C   0  0  0  0  0  0  0  0  0  0  0  0
   -1.6267   -0.4211   -3.6499 C   0  0  0  0  0  0  0  0  0  0  0  0
   -3.0000   -0.6277   -3.7432 C   0  0  0  0  0  0  0  0  0  0  0  0
   -3.5334   -1.0909   -4.9445 C   0  0  0  0  0  0  0  0  0  0  0  0
   -3.2002   -1.7131   -6.9712 H   0  0  0  0  0  0  0  0  0  0  0  0
   -0.7126   -1.3239   -6.8123 H   0  0  0  0  0  0  0  0  0  0  0  0
   -1.1777   -0.0672   -2.7302 H   0  0  0  0  0  0  0  0  0  0  0  0
   -3.6579   -0.4430   -2.9036 H   0  0  0  0  0  0  0  0  0  0  0  0
   -4.9863   -1.3154   -5.0378 N   0  0  0  0  0  0  0  0  0  0  0  0
   -5.6630   -1.0785   -4.0390 O   0  0  0  0  0  0  0  0  0  0  0  0
   -5.4294   -1.7259   -6.1090 O   0  0  0  0  0  0  0  0  0  0  0  0
    8.2874    7.3963  -10.7706 N   0  0  0  0  0  0  0  0  0  0  0  0
    7.4666    6.7551  -10.4008 N   0  0  0  0  0  0  0  0  0  0  0  0
    1.2944    0.9068   -4.4704 S   0  0  0  0  0  0  0  0  0  0  0  0
    1.5199    1.3907   -6.2642 C   0  0  0  0  0  0  0  0  0  0  0  0
    0.3675    1.8529   -3.8738 O   0  0  0  0  0  0  0  0  0  0  0  0
    2.6010    0.6055   -3.9255 O   0  0  0  0  0  0  0  0  0  0  0  0
    0.5634   -0.5605   -4.6952 O   0  0  0  0  0  0  0  0  0  0  0  0
    0.3234    1.4701   -6.8492 F   0  0  0  0  0  0  0  0  0  0  0  0
    2.1230    2.5737   -6.3049 F   0  0  0  0  0  0  0  0  0  0  0  0
    2.2608    0.4779   -6.8831 F   0  0  0  0  0  0  0  0  0  0  0  0
  1  2  2  0  0  0  0
  1  6  1  0  0  0  0
  2  3  1  0  0  0  0
  3 20  1  0  0  0  0
  3  4  2  0  0  0  0
  4  9  1  0  0  0  0
  5  4  1  0  0  0  0
  5 10  1  0  0  0  0
  6  5  2  0  0  0  0
  7  1  1  0  0  0  0
  8  2  1  0  0  0  0
 11  6  1  0  0  0  0
 11 12  2  0  0  0  0
 13 11  2  0  0  0  0
 14 15  3  0  0  0  0
 16 19  2  0  0  0  0
 16 18  2  0  0  0  0
 17 16  1  0  0  0  0
 20 16  1  0  0  0  0
 21 17  1  0  0  0  0
 22 17  1  0  0  0  0
 23 17  1  0  0  0  0
M  END
