Coordinates from ORCA-job 4-NO2-Ph-N2-OTf-B3LYPG-6-31G_dp-MTMO-d009-169-n800
 OpenBabel09051908473D

 23 22  0  0  0  0  0  0  0  0999 V2000
   -2.4511   -1.0891   -6.2419 C   0  0  0  0  0  0  0  0  0  0  0  0
   -1.0838   -0.8453   -6.1637 C   0  0  0  0  0  0  0  0  0  0  0  0
   -0.5411   -0.4060   -4.9562 C   0  0  0  0  0  0  0  0  0  0  0  0
   -1.3255   -0.2033   -3.8205 C   0  0  0  0  0  0  0  0  0  0  0  0
   -2.6952   -0.4373   -3.9016 C   0  0  0  0  0  0  0  0  0  0  0  0
   -3.2348   -0.8778   -5.1087 C   0  0  0  0  0  0  0  0  0  0  0  0
   -2.9158   -1.4341   -7.1567 H   0  0  0  0  0  0  0  0  0  0  0  0
   -0.4358   -0.9943   -7.0196 H   0  0  0  0  0  0  0  0  0  0  0  0
   -0.8720    0.1336   -2.8967 H   0  0  0  0  0  0  0  0  0  0  0  0
   -3.3454   -0.2911   -3.0485 H   0  0  0  0  0  0  0  0  0  0  0  0
   -4.6834   -1.1320   -5.1894 N   0  0  0  0  0  0  0  0  0  0  0  0
   -5.3516   -0.9383   -4.1757 O   0  0  0  0  0  0  0  0  0  0  0  0
   -5.1320   -1.5224   -6.2659 O   0  0  0  0  0  0  0  0  0  0  0  0
    5.1921    4.6705   -9.0637 N   0  0  0  0  0  0  0  0  0  0  0  0
    4.4259    4.0497   -8.5645 N   0  0  0  0  0  0  0  0  0  0  0  0
    1.5558    1.2116   -4.6418 S   0  0  0  0  0  0  0  0  0  0  0  0
    1.8238    1.7111   -6.4262 C   0  0  0  0  0  0  0  0  0  0  0  0
    0.5974    2.1381   -4.0642 O   0  0  0  0  0  0  0  0  0  0  0  0
    2.8524    0.9289   -4.0632 O   0  0  0  0  0  0  0  0  0  0  0  0
    0.8528   -0.2658   -4.8959 O   0  0  0  0  0  0  0  0  0  0  0  0
    0.6452    1.7495   -7.0507 F   0  0  0  0  0  0  0  0  0  0  0  0
    2.3834    2.9157   -6.4407 F   0  0  0  0  0  0  0  0  0  0  0  0
    2.6178    0.8291   -7.0219 F   0  0  0  0  0  0  0  0  0  0  0  0
  1  2  2  0  0  0  0
  1  6  1  0  0  0  0
  2  3  1  0  0  0  0
  3 20  1  0  0  0  0
  3  4  2  0  0  0  0
  4  9  1  0  0  0  0
  5  4  1  0  0  0  0
  5 10  1  0  0  0  0
  6  5  2  0  0  0  0
  7  1  1  0  0  0  0
  8  2  1  0  0  0  0
 11  6  1  0  0  0  0
 11 12  2  0  0  0  0
 13 11  2  0  0  0  0
 14 15  3  0  0  0  0
 16 18  2  0  0  0  0
 16 19  2  0  0  0  0
 17 16  1  0  0  0  0
 20 16  1  0  0  0  0
 21 17  1  0  0  0  0
 22 17  1  0  0  0  0
 23 17  1  0  0  0  0
M  END
