Coordinates from ORCA-job 4-NO2-Ph-N2-OTf-B3LYPG-6-31G_dp-MTMO-d009-169-n800
 OpenBabel09051908473D

 23 22  0  0  0  0  0  0  0  0999 V2000
   -2.3158   -0.8665   -6.3732 C   0  0  0  0  0  0  0  0  0  0  0  0
   -0.9593   -0.6032   -6.2111 C   0  0  0  0  0  0  0  0  0  0  0  0
   -0.4708   -0.3268   -4.9344 C   0  0  0  0  0  0  0  0  0  0  0  0
   -1.2989   -0.3039   -3.8124 C   0  0  0  0  0  0  0  0  0  0  0  0
   -2.6573   -0.5586   -3.9751 C   0  0  0  0  0  0  0  0  0  0  0  0
   -3.1426   -0.8374   -5.2515 C   0  0  0  0  0  0  0  0  0  0  0  0
   -2.7399   -1.0898   -7.3437 H   0  0  0  0  0  0  0  0  0  0  0  0
   -0.2800   -0.6116   -7.0553 H   0  0  0  0  0  0  0  0  0  0  0  0
   -0.8854   -0.0905   -2.8342 H   0  0  0  0  0  0  0  0  0  0  0  0
   -3.3397   -0.5502   -3.1348 H   0  0  0  0  0  0  0  0  0  0  0  0
   -4.5795   -1.1139   -5.4210 N   0  0  0  0  0  0  0  0  0  0  0  0
   -5.2860   -1.0861   -4.4152 O   0  0  0  0  0  0  0  0  0  0  0  0
   -4.9805   -1.3559   -6.5581 O   0  0  0  0  0  0  0  0  0  0  0  0
    4.0334    3.7572   -9.7055 N   0  0  0  0  0  0  0  0  0  0  0  0
    3.4533    3.2104   -8.9401 N   0  0  0  0  0  0  0  0  0  0  0  0
    1.5527    1.3093   -4.3753 S   0  0  0  0  0  0  0  0  0  0  0  0
    2.0619    1.8858   -6.0835 C   0  0  0  0  0  0  0  0  0  0  0  0
    0.5057    2.1964   -3.8987 O   0  0  0  0  0  0  0  0  0  0  0  0
    2.7625    1.0215   -3.6333 O   0  0  0  0  0  0  0  0  0  0  0  0
    0.9145   -0.1615   -4.7935 O   0  0  0  0  0  0  0  0  0  0  0  0
    0.9901    1.9125   -6.8775 F   0  0  0  0  0  0  0  0  0  0  0  0
    2.5705    3.1082   -5.9694 F   0  0  0  0  0  0  0  0  0  0  0  0
    2.9701    1.0557   -6.5810 F   0  0  0  0  0  0  0  0  0  0  0  0
  1  2  2  0  0  0  0
  1  6  1  0  0  0  0
  2  3  1  0  0  0  0
  3 20  1  0  0  0  0
  3  4  2  0  0  0  0
  4  9  1  0  0  0  0
  5  4  1  0  0  0  0
  5 10  1  0  0  0  0
  6  5  2  0  0  0  0
  7  1  1  0  0  0  0
  8  2  1  0  0  0  0
 11  6  1  0  0  0  0
 11 12  2  0  0  0  0
 13 11  2  0  0  0  0
 14 15  3  0  0  0  0
 16 18  2  0  0  0  0
 16 19  2  0  0  0  0
 17 22  1  0  0  0  0
 17 16  1  0  0  0  0
 20 16  1  0  0  0  0
 21 17  1  0  0  0  0
 23 17  1  0  0  0  0
M  END
