Coordinates from ORCA-job 4-NO2-Ph-N2-OTf-B3LYPG-6-31G_dp-MTMO-d009-169-n800
 OpenBabel09051908473D

 23 22  0  0  0  0  0  0  0  0999 V2000
   -2.4486   -1.0157   -6.2806 C   0  0  0  0  0  0  0  0  0  0  0  0
   -1.0890   -0.7288   -6.2139 C   0  0  0  0  0  0  0  0  0  0  0  0
   -0.5336   -0.3572   -4.9896 C   0  0  0  0  0  0  0  0  0  0  0  0
   -1.2980   -0.2637   -3.8264 C   0  0  0  0  0  0  0  0  0  0  0  0
   -2.6601   -0.5411   -3.8949 C   0  0  0  0  0  0  0  0  0  0  0  0
   -3.2123   -0.9142   -5.1190 C   0  0  0  0  0  0  0  0  0  0  0  0
   -2.9224   -1.3116   -7.2077 H   0  0  0  0  0  0  0  0  0  0  0  0
   -0.4569   -0.7926   -7.0919 H   0  0  0  0  0  0  0  0  0  0  0  0
   -0.8347    0.0226   -2.8903 H   0  0  0  0  0  0  0  0  0  0  0  0
   -3.2947   -0.4795   -3.0200 H   0  0  0  0  0  0  0  0  0  0  0  0
   -4.6526   -1.2147   -5.1874 N   0  0  0  0  0  0  0  0  0  0  0  0
   -5.3029   -1.1197   -4.1484 O   0  0  0  0  0  0  0  0  0  0  0  0
   -5.1128   -1.5422   -6.2799 O   0  0  0  0  0  0  0  0  0  0  0  0
    5.2047    4.1700   -9.1481 N   0  0  0  0  0  0  0  0  0  0  0  0
    4.4292    3.6035   -8.6009 N   0  0  0  0  0  0  0  0  0  0  0  0
    1.5104    1.3128   -4.6124 S   0  0  0  0  0  0  0  0  0  0  0  0
    1.7982    1.8979   -6.3681 C   0  0  0  0  0  0  0  0  0  0  0  0
    0.5129    2.1839   -4.0152 O   0  0  0  0  0  0  0  0  0  0  0  0
    2.8044    1.0453   -4.0206 O   0  0  0  0  0  0  0  0  0  0  0  0
    0.8557   -0.1718   -4.9458 O   0  0  0  0  0  0  0  0  0  0  0  0
    0.6376    1.8923   -7.0270 F   0  0  0  0  0  0  0  0  0  0  0  0
    2.2828    3.1340   -6.3170 F   0  0  0  0  0  0  0  0  0  0  0  0
    2.6619    1.0917   -6.9727 F   0  0  0  0  0  0  0  0  0  0  0  0
  1  2  2  0  0  0  0
  1  6  1  0  0  0  0
  2  3  1  0  0  0  0
  3 20  1  0  0  0  0
  3  4  2  0  0  0  0
  4  9  1  0  0  0  0
  5  4  1  0  0  0  0
  5 10  1  0  0  0  0
  6  5  2  0  0  0  0
  7  1  1  0  0  0  0
  8  2  1  0  0  0  0
 11  6  1  0  0  0  0
 11 12  2  0  0  0  0
 13 11  2  0  0  0  0
 14 15  3  0  0  0  0
 16 19  2  0  0  0  0
 16 18  2  0  0  0  0
 17 22  1  0  0  0  0
 17 16  1  0  0  0  0
 20 16  1  0  0  0  0
 21 17  1  0  0  0  0
 23 17  1  0  0  0  0
M  END
