Coordinates from ORCA-job 4-NO2-Ph-N2-OTf-B3LYPG-6-31G_dp-MTMO-d009-169-n800
 OpenBabel09051908473D

 23 22  0  0  0  0  0  0  0  0999 V2000
   -2.5765   -1.2338   -6.1469 C   0  0  0  0  0  0  0  0  0  0  0  0
   -1.2048   -1.0195   -6.0599 C   0  0  0  0  0  0  0  0  0  0  0  0
   -0.6677   -0.5384   -4.8659 C   0  0  0  0  0  0  0  0  0  0  0  0
   -1.4617   -0.2663   -3.7516 C   0  0  0  0  0  0  0  0  0  0  0  0
   -2.8355   -0.4710   -3.8419 C   0  0  0  0  0  0  0  0  0  0  0  0
   -3.3697   -0.9525   -5.0357 C   0  0  0  0  0  0  0  0  0  0  0  0
   -3.0374   -1.6084   -7.0519 H   0  0  0  0  0  0  0  0  0  0  0  0
   -0.5489   -1.2227   -6.8985 H   0  0  0  0  0  0  0  0  0  0  0  0
   -1.0121    0.1016   -2.8377 H   0  0  0  0  0  0  0  0  0  0  0  0
   -3.4932   -0.2710   -3.0057 H   0  0  0  0  0  0  0  0  0  0  0  0
   -4.8230   -1.1750   -5.1257 N   0  0  0  0  0  0  0  0  0  0  0  0
   -5.4993   -0.9212   -4.1308 O   0  0  0  0  0  0  0  0  0  0  0  0
   -5.2670   -1.6010   -6.1905 O   0  0  0  0  0  0  0  0  0  0  0  0
    6.5196    6.0445   -9.6844 N   0  0  0  0  0  0  0  0  0  0  0  0
    5.7204    5.3987   -9.2773 N   0  0  0  0  0  0  0  0  0  0  0  0
    1.4629    1.0405   -4.5933 S   0  0  0  0  0  0  0  0  0  0  0  0
    1.6972    1.4887   -6.3953 C   0  0  0  0  0  0  0  0  0  0  0  0
    0.5362    2.0004   -4.0185 O   0  0  0  0  0  0  0  0  0  0  0  0
    2.7663    0.7460   -4.0370 O   0  0  0  0  0  0  0  0  0  0  0  0
    0.7283   -0.4286   -4.7935 O   0  0  0  0  0  0  0  0  0  0  0  0
    0.5033    1.5601   -6.9865 F   0  0  0  0  0  0  0  0  0  0  0  0
    2.3042    2.6687   -6.4569 F   0  0  0  0  0  0  0  0  0  0  0  0
    2.4376    0.5614   -6.9928 F   0  0  0  0  0  0  0  0  0  0  0  0
  1  2  2  0  0  0  0
  1  6  1  0  0  0  0
  2  3  1  0  0  0  0
  3 20  1  0  0  0  0
  3  4  2  0  0  0  0
  4  9  1  0  0  0  0
  5  4  1  0  0  0  0
  5 10  1  0  0  0  0
  6  5  2  0  0  0  0
  7  1  1  0  0  0  0
  8  2  1  0  0  0  0
 11  6  1  0  0  0  0
 11 12  2  0  0  0  0
 13 11  2  0  0  0  0
 14 15  3  0  0  0  0
 16 19  2  0  0  0  0
 16 18  2  0  0  0  0
 17 16  1  0  0  0  0
 20 16  1  0  0  0  0
 21 17  1  0  0  0  0
 22 17  1  0  0  0  0
 23 17  1  0  0  0  0
M  END
