Coordinates from ORCA-job 4-NO2-Ph-N2-OTf-B3LYPG-6-31G_dp-MTMO-d009-169-n800
 OpenBabel09051908483D

 23 22  0  0  0  0  0  0  0  0999 V2000
   -2.8773   -1.4621   -5.9752 C   0  0  0  0  0  0  0  0  0  0  0  0
   -1.5065   -1.2405   -5.8939 C   0  0  0  0  0  0  0  0  0  0  0  0
   -0.9644   -0.7751   -4.6958 C   0  0  0  0  0  0  0  0  0  0  0  0
   -1.7526   -0.5261   -3.5720 C   0  0  0  0  0  0  0  0  0  0  0  0
   -3.1256   -0.7381   -3.6566 C   0  0  0  0  0  0  0  0  0  0  0  0
   -3.6648   -1.2038   -4.8545 C   0  0  0  0  0  0  0  0  0  0  0  0
   -3.3418   -1.8254   -6.8830 H   0  0  0  0  0  0  0  0  0  0  0  0
   -0.8549   -1.4263   -6.7399 H   0  0  0  0  0  0  0  0  0  0  0  0
   -1.2993   -0.1703   -2.6553 H   0  0  0  0  0  0  0  0  0  0  0  0
   -3.7790   -0.5558   -2.8130 H   0  0  0  0  0  0  0  0  0  0  0  0
   -5.1173   -1.4341   -4.9385 N   0  0  0  0  0  0  0  0  0  0  0  0
   -5.7886   -1.1994   -3.9357 O   0  0  0  0  0  0  0  0  0  0  0  0
   -5.5655   -1.8468   -6.0067 O   0  0  0  0  0  0  0  0  0  0  0  0
    9.7073    8.4928  -11.5728 N   0  0  0  0  0  0  0  0  0  0  0  0
    8.8904    7.8512  -11.1952 N   0  0  0  0  0  0  0  0  0  0  0  0
    1.1586    0.8121   -4.4103 S   0  0  0  0  0  0  0  0  0  0  0  0
    1.3722    1.2964   -6.2054 C   0  0  0  0  0  0  0  0  0  0  0  0
    0.2318    1.7551   -3.8086 O   0  0  0  0  0  0  0  0  0  0  0  0
    2.4693    0.5157   -3.8725 O   0  0  0  0  0  0  0  0  0  0  0  0
    0.4315   -0.6577   -4.6310 O   0  0  0  0  0  0  0  0  0  0  0  0
    0.1722    1.3708   -6.7838 F   0  0  0  0  0  0  0  0  0  0  0  0
    1.9702    2.4819   -6.2499 F   0  0  0  0  0  0  0  0  0  0  0  0
    2.1134    0.3865   -6.8281 F   0  0  0  0  0  0  0  0  0  0  0  0
  1  2  2  0  0  0  0
  1  6  1  0  0  0  0
  2  3  1  0  0  0  0
  3 20  1  0  0  0  0
  3  4  2  0  0  0  0
  4  9  1  0  0  0  0
  5  4  1  0  0  0  0
  5 10  1  0  0  0  0
  6  5  2  0  0  0  0
  7  1  1  0  0  0  0
  8  2  1  0  0  0  0
 11  6  1  0  0  0  0
 11 12  2  0  0  0  0
 13 11  2  0  0  0  0
 14 15  3  0  0  0  0
 16 19  2  0  0  0  0
 16 18  2  0  0  0  0
 17 16  1  0  0  0  0
 20 16  1  0  0  0  0
 21 17  1  0  0  0  0
 22 17  1  0  0  0  0
 23 17  1  0  0  0  0
M  END
