Coordinates from ORCA-job 4-NO2-Ph-N2-OTf-B3LYPG-6-31G_dp-MTMO-d009-169-n800
 OpenBabel09051908473D

 23 22  0  0  0  0  0  0  0  0999 V2000
   -2.0978   -0.8822   -6.4436 C   0  0  0  0  0  0  0  0  0  0  0  0
   -0.7486   -0.6860   -6.1681 C   0  0  0  0  0  0  0  0  0  0  0  0
   -0.3643   -0.3404   -4.8725 C   0  0  0  0  0  0  0  0  0  0  0  0
   -1.2895   -0.1861   -3.8401 C   0  0  0  0  0  0  0  0  0  0  0  0
   -2.6405   -0.3723   -4.1184 C   0  0  0  0  0  0  0  0  0  0  0  0
   -3.0220   -0.7190   -5.4130 C   0  0  0  0  0  0  0  0  0  0  0  0
   -2.4431   -1.1554   -7.4325 H   0  0  0  0  0  0  0  0  0  0  0  0
    0.0064   -0.8017   -6.9372 H   0  0  0  0  0  0  0  0  0  0  0  0
   -0.9564    0.0784   -2.8444 H   0  0  0  0  0  0  0  0  0  0  0  0
   -3.3965   -0.2611   -3.3516 H   0  0  0  0  0  0  0  0  0  0  0  0
   -4.4516   -0.9234   -5.7025 N   0  0  0  0  0  0  0  0  0  0  0  0
   -5.2458   -0.7739   -4.7759 O   0  0  0  0  0  0  0  0  0  0  0  0
   -4.7592   -1.2306   -6.8529 O   0  0  0  0  0  0  0  0  0  0  0  0
    2.6492    3.3951   -9.9511 N   0  0  0  0  0  0  0  0  0  0  0  0
    2.6219    3.0364   -8.9064 N   0  0  0  0  0  0  0  0  0  0  0  0
    1.7127    1.1794   -4.1704 S   0  0  0  0  0  0  0  0  0  0  0  0
    2.0857    1.8616   -5.8748 C   0  0  0  0  0  0  0  0  0  0  0  0
    0.7345    2.0556   -3.5491 O   0  0  0  0  0  0  0  0  0  0  0  0
    2.9689    0.8104   -3.5533 O   0  0  0  0  0  0  0  0  0  0  0  0
    1.0118   -0.2502   -4.6204 O   0  0  0  0  0  0  0  0  0  0  0  0
    0.9364    2.0581   -6.5227 F   0  0  0  0  0  0  0  0  0  0  0  0
    2.7302    3.0138   -5.7325 F   0  0  0  0  0  0  0  0  0  0  0  0
    2.8367    0.9944   -6.5443 F   0  0  0  0  0  0  0  0  0  0  0  0
  1  2  2  0  0  0  0
  1  6  1  0  0  0  0
  2  3  1  0  0  0  0
  3 20  1  0  0  0  0
  3  4  2  0  0  0  0
  4  9  1  0  0  0  0
  5  4  1  0  0  0  0
  5 10  1  0  0  0  0
  6  5  2  0  0  0  0
  7  1  1  0  0  0  0
  8  2  1  0  0  0  0
 11  6  1  0  0  0  0
 11 12  2  0  0  0  0
 13 11  2  0  0  0  0
 14 15  3  0  0  0  0
 16 19  2  0  0  0  0
 16 18  2  0  0  0  0
 17 22  1  0  0  0  0
 17 16  1  0  0  0  0
 20 16  1  0  0  0  0
 21 17  1  0  0  0  0
 23 17  1  0  0  0  0
M  END
