Coordinates from ORCA-job 4-NO2-Ph-N2-OTf-B3LYPG-6-31G_dp-MTMO-d009-169-n800
 OpenBabel09051908473D

 23 22  0  0  0  0  0  0  0  0999 V2000
   -2.1355   -0.8959   -6.4268 C   0  0  0  0  0  0  0  0  0  0  0  0
   -0.7840   -0.6890   -6.1712 C   0  0  0  0  0  0  0  0  0  0  0  0
   -0.3831   -0.3420   -4.8810 C   0  0  0  0  0  0  0  0  0  0  0  0
   -1.2941   -0.1967   -3.8348 C   0  0  0  0  0  0  0  0  0  0  0  0
   -2.6475   -0.3938   -4.0930 C   0  0  0  0  0  0  0  0  0  0  0  0
   -3.0456   -0.7418   -5.3823 C   0  0  0  0  0  0  0  0  0  0  0  0
   -2.4932   -1.1704   -7.4109 H   0  0  0  0  0  0  0  0  0  0  0  0
   -0.0399   -0.7972   -6.9519 H   0  0  0  0  0  0  0  0  0  0  0  0
   -0.9485    0.0691   -2.8437 H   0  0  0  0  0  0  0  0  0  0  0  0
   -3.3927   -0.2899   -3.3147 H   0  0  0  0  0  0  0  0  0  0  0  0
   -4.4776   -0.9579   -5.6506 N   0  0  0  0  0  0  0  0  0  0  0  0
   -5.2590   -0.8167   -4.7119 O   0  0  0  0  0  0  0  0  0  0  0  0
   -4.7998   -1.2662   -6.7967 O   0  0  0  0  0  0  0  0  0  0  0  0
    2.9675    3.5163   -9.9075 N   0  0  0  0  0  0  0  0  0  0  0  0
    2.7418    3.0828   -8.9166 N   0  0  0  0  0  0  0  0  0  0  0  0
    1.6905    1.1952   -4.2083 S   0  0  0  0  0  0  0  0  0  0  0  0
    2.0700    1.8631   -5.9170 C   0  0  0  0  0  0  0  0  0  0  0  0
    0.7062    2.0735   -3.5997 O   0  0  0  0  0  0  0  0  0  0  0  0
    2.9456    0.8369   -3.5827 O   0  0  0  0  0  0  0  0  0  0  0  0
    0.9957   -0.2406   -4.6488 O   0  0  0  0  0  0  0  0  0  0  0  0
    0.9252    2.0385   -6.5783 F   0  0  0  0  0  0  0  0  0  0  0  0
    2.6985    3.0249   -5.7798 F   0  0  0  0  0  0  0  0  0  0  0  0
    2.8387    0.9989   -6.5698 F   0  0  0  0  0  0  0  0  0  0  0  0
  1  2  2  0  0  0  0
  1  6  1  0  0  0  0
  2  3  1  0  0  0  0
  3 20  1  0  0  0  0
  3  4  2  0  0  0  0
  4  9  1  0  0  0  0
  5  4  1  0  0  0  0
  5 10  1  0  0  0  0
  6  5  2  0  0  0  0
  7  1  1  0  0  0  0
  8  2  1  0  0  0  0
 11  6  1  0  0  0  0
 11 12  2  0  0  0  0
 13 11  2  0  0  0  0
 14 15  3  0  0  0  0
 16 18  2  0  0  0  0
 16 19  2  0  0  0  0
 17 22  1  0  0  0  0
 17 16  1  0  0  0  0
 20 16  1  0  0  0  0
 21 17  1  0  0  0  0
 23 17  1  0  0  0  0
M  END
