Coordinates from ORCA-job 4-NO2-Ph-N2-OTf-B3LYPG-6-31G_dp-MTMO-d009-169-n800
 OpenBabel09051908473D

 23 22  0  0  0  0  0  0  0  0999 V2000
   -2.3709   -0.9436   -6.3336 C   0  0  0  0  0  0  0  0  0  0  0  0
   -1.0127   -0.6678   -6.2131 C   0  0  0  0  0  0  0  0  0  0  0  0
   -0.4954   -0.3431   -4.9591 C   0  0  0  0  0  0  0  0  0  0  0  0
   -1.2965   -0.2861   -3.8186 C   0  0  0  0  0  0  0  0  0  0  0  0
   -2.6570   -0.5530   -3.9405 C   0  0  0  0  0  0  0  0  0  0  0  0
   -3.1712   -0.8788   -5.1942 C   0  0  0  0  0  0  0  0  0  0  0  0
   -2.8162   -1.2034   -7.2854 H   0  0  0  0  0  0  0  0  0  0  0  0
   -0.3530   -0.7041   -7.0721 H   0  0  0  0  0  0  0  0  0  0  0  0
   -0.8619   -0.0356   -2.8587 H   0  0  0  0  0  0  0  0  0  0  0  0
   -3.3191   -0.5187   -3.0847 H   0  0  0  0  0  0  0  0  0  0  0  0
   -4.6101   -1.1678   -5.3196 N   0  0  0  0  0  0  0  0  0  0  0  0
   -5.2927   -1.1081   -4.2988 O   0  0  0  0  0  0  0  0  0  0  0  0
   -5.0366   -1.4511   -6.4377 O   0  0  0  0  0  0  0  0  0  0  0  0
    4.6642    3.8804   -9.5031 N   0  0  0  0  0  0  0  0  0  0  0  0
    3.9618    3.3721   -8.8177 N   0  0  0  0  0  0  0  0  0  0  0  0
    1.5402    1.3055   -4.4684 S   0  0  0  0  0  0  0  0  0  0  0  0
    1.8862    1.9342   -6.1984 C   0  0  0  0  0  0  0  0  0  0  0  0
    0.5268    2.1640   -3.8798 O   0  0  0  0  0  0  0  0  0  0  0  0
    2.8138    1.0178   -3.8425 O   0  0  0  0  0  0  0  0  0  0  0  0
    0.8924   -0.1667   -4.8633 O   0  0  0  0  0  0  0  0  0  0  0  0
    0.7447    1.9653   -6.8889 F   0  0  0  0  0  0  0  0  0  0  0  0
    2.3886    3.1602   -6.0998 F   0  0  0  0  0  0  0  0  0  0  0  0
    2.7538    1.1297   -6.7999 F   0  0  0  0  0  0  0  0  0  0  0  0
  1  2  2  0  0  0  0
  1  6  1  0  0  0  0
  2  3  1  0  0  0  0
  3 20  1  0  0  0  0
  3  4  2  0  0  0  0
  4  9  1  0  0  0  0
  5  4  1  0  0  0  0
  5 10  1  0  0  0  0
  6  5  2  0  0  0  0
  7  1  1  0  0  0  0
  8  2  1  0  0  0  0
 11  6  1  0  0  0  0
 11 12  2  0  0  0  0
 13 11  2  0  0  0  0
 14 15  3  0  0  0  0
 16 18  2  0  0  0  0
 16 19  2  0  0  0  0
 17 22  1  0  0  0  0
 17 16  1  0  0  0  0
 20 16  1  0  0  0  0
 21 17  1  0  0  0  0
 23 17  1  0  0  0  0
M  END
