Coordinates from ORCA-job 4-NO2-Ph-N2-OTf-B3LYPG-6-31G_dp-MTMO-d009-169-n800
 OpenBabel09051908483D

 23 22  0  0  0  0  0  0  0  0999 V2000
   -2.7896   -1.3918   -6.0298 C   0  0  0  0  0  0  0  0  0  0  0  0
   -1.4186   -1.1739   -5.9424 C   0  0  0  0  0  0  0  0  0  0  0  0
   -0.8805   -0.7103   -4.7419 C   0  0  0  0  0  0  0  0  0  0  0  0
   -1.6728   -0.4596   -3.6214 C   0  0  0  0  0  0  0  0  0  0  0  0
   -3.0461   -0.6679   -3.7120 C   0  0  0  0  0  0  0  0  0  0  0  0
   -3.5813   -1.1317   -4.9123 C   0  0  0  0  0  0  0  0  0  0  0  0
   -3.2512   -1.7534   -6.9397 H   0  0  0  0  0  0  0  0  0  0  0  0
   -0.7639   -1.3611   -6.7856 H   0  0  0  0  0  0  0  0  0  0  0  0
   -1.2225   -0.1052   -2.7026 H   0  0  0  0  0  0  0  0  0  0  0  0
   -3.7026   -0.4841   -2.8711 H   0  0  0  0  0  0  0  0  0  0  0  0
   -5.0340   -1.3581   -5.0027 N   0  0  0  0  0  0  0  0  0  0  0  0
   -5.7091   -1.1221   -4.0027 O   0  0  0  0  0  0  0  0  0  0  0  0
   -5.4787   -1.7691   -6.0731 O   0  0  0  0  0  0  0  0  0  0  0  0
    8.8045    7.7957  -11.0639 N   0  0  0  0  0  0  0  0  0  0  0  0
    7.9835    7.1553  -10.6931 N   0  0  0  0  0  0  0  0  0  0  0  0
    1.2451    0.8717   -4.4474 S   0  0  0  0  0  0  0  0  0  0  0  0
    1.4664    1.3562   -6.2416 C   0  0  0  0  0  0  0  0  0  0  0  0
    0.3183    1.8167   -3.8488 O   0  0  0  0  0  0  0  0  0  0  0  0
    2.5532    0.5718   -3.9051 O   0  0  0  0  0  0  0  0  0  0  0  0
    0.5153   -0.5964   -4.6710 O   0  0  0  0  0  0  0  0  0  0  0  0
    0.2687    1.4345   -6.8242 F   0  0  0  0  0  0  0  0  0  0  0  0
    2.0682    2.5399   -6.2833 F   0  0  0  0  0  0  0  0  0  0  0  0
    2.2070    0.4443   -6.8621 F   0  0  0  0  0  0  0  0  0  0  0  0
  1  2  2  0  0  0  0
  1  6  1  0  0  0  0
  2  3  1  0  0  0  0
  3 20  1  0  0  0  0
  3  4  2  0  0  0  0
  4  9  1  0  0  0  0
  5  4  1  0  0  0  0
  5 10  1  0  0  0  0
  6  5  2  0  0  0  0
  7  1  1  0  0  0  0
  8  2  1  0  0  0  0
 11  6  1  0  0  0  0
 11 12  2  0  0  0  0
 13 11  2  0  0  0  0
 14 15  3  0  0  0  0
 16 19  2  0  0  0  0
 16 18  2  0  0  0  0
 17 16  1  0  0  0  0
 20 16  1  0  0  0  0
 21 17  1  0  0  0  0
 22 17  1  0  0  0  0
 23 17  1  0  0  0  0
M  END
