Coordinates from ORCA-job 4-NO2-Ph-N2-OTf-B3LYPG-6-31G_dp-MTMO-d009-169-n800
 OpenBabel09051908483D

 23 22  0  0  0  0  0  0  0  0999 V2000
   -2.6842   -1.3079   -6.0942 C   0  0  0  0  0  0  0  0  0  0  0  0
   -1.3130   -1.0929   -6.0020 C   0  0  0  0  0  0  0  0  0  0  0  0
   -0.7782   -0.6301   -4.7997 C   0  0  0  0  0  0  0  0  0  0  0  0
   -1.5740   -0.3773   -3.6822 C   0  0  0  0  0  0  0  0  0  0  0  0
   -2.9474   -0.5827   -3.7776 C   0  0  0  0  0  0  0  0  0  0  0  0
   -3.4793   -1.0457   -4.9797 C   0  0  0  0  0  0  0  0  0  0  0  0
   -3.1433   -1.6688   -7.0057 H   0  0  0  0  0  0  0  0  0  0  0  0
   -0.6557   -1.2818   -6.8429 H   0  0  0  0  0  0  0  0  0  0  0  0
   -1.1262   -0.0236   -2.7619 H   0  0  0  0  0  0  0  0  0  0  0  0
   -3.6065   -0.3972   -2.9392 H   0  0  0  0  0  0  0  0  0  0  0  0
   -4.9322   -1.2689   -5.0753 N   0  0  0  0  0  0  0  0  0  0  0  0
   -5.6102   -1.0312   -4.0777 O   0  0  0  0  0  0  0  0  0  0  0  0
   -5.3739   -1.6793   -6.1471 O   0  0  0  0  0  0  0  0  0  0  0  0
    7.7062    6.9446  -10.4386 N   0  0  0  0  0  0  0  0  0  0  0  0
    6.8882    6.3024  -10.0643 N   0  0  0  0  0  0  0  0  0  0  0  0
    1.3495    0.9478   -4.4985 S   0  0  0  0  0  0  0  0  0  0  0  0
    1.5786    1.4308   -6.2921 C   0  0  0  0  0  0  0  0  0  0  0  0
    0.4224    1.8949   -3.9038 O   0  0  0  0  0  0  0  0  0  0  0  0
    2.6549    0.6456   -3.9510 O   0  0  0  0  0  0  0  0  0  0  0  0
    0.6176   -0.5189   -4.7239 O   0  0  0  0  0  0  0  0  0  0  0  0
    0.3832    1.5108   -6.8792 F   0  0  0  0  0  0  0  0  0  0  0  0
    2.1826    2.6134   -6.3322 F   0  0  0  0  0  0  0  0  0  0  0  0
    2.3199    0.5172   -6.9092 F   0  0  0  0  0  0  0  0  0  0  0  0
  1  2  2  0  0  0  0
  1  6  1  0  0  0  0
  2  3  1  0  0  0  0
  3 20  1  0  0  0  0
  3  4  2  0  0  0  0
  4  9  1  0  0  0  0
  5  4  1  0  0  0  0
  5 10  1  0  0  0  0
  6  5  2  0  0  0  0
  7  1  1  0  0  0  0
  8  2  1  0  0  0  0
 11  6  1  0  0  0  0
 11 12  2  0  0  0  0
 13 11  2  0  0  0  0
 14 15  3  0  0  0  0
 16 19  2  0  0  0  0
 16 18  2  0  0  0  0
 17 16  1  0  0  0  0
 20 16  1  0  0  0  0
 21 17  1  0  0  0  0
 22 17  1  0  0  0  0
 23 17  1  0  0  0  0
M  END
