Coordinates from ORCA-job 4-NO2-Ph-N2-OTf-B3LYPG-6-31G_dp-MTMO-d009-169-n800
 OpenBabel09051908473D

 23 22  0  0  0  0  0  0  0  0999 V2000
   -1.9811   -1.5895   -5.5674 C   0  0  0  0  0  0  0  0  0  0  0  0
   -0.6396   -1.2856   -5.3603 C   0  0  0  0  0  0  0  0  0  0  0  0
   -0.2892    0.0108   -4.9843 C   0  0  0  0  0  0  0  0  0  0  0  0
   -1.2395    1.0165   -4.8071 C   0  0  0  0  0  0  0  0  0  0  0  0
   -2.5807    0.7141   -5.0239 C   0  0  0  0  0  0  0  0  0  0  0  0
   -2.9295   -0.5822   -5.3977 C   0  0  0  0  0  0  0  0  0  0  0  0
   -2.3017   -2.5817   -5.8579 H   0  0  0  0  0  0  0  0  0  0  0  0
    0.1330   -2.0358   -5.4825 H   0  0  0  0  0  0  0  0  0  0  0  0
   -0.9344    2.0126   -4.5108 H   0  0  0  0  0  0  0  0  0  0  0  0
   -3.3554    1.4602   -4.9015 H   0  0  0  0  0  0  0  0  0  0  0  0
   -4.3505   -0.9008   -5.6186 N   0  0  0  0  0  0  0  0  0  0  0  0
   -5.1668    0.0049   -5.4606 O   0  0  0  0  0  0  0  0  0  0  0  0
   -4.6292   -2.0528   -5.9467 O   0  0  0  0  0  0  0  0  0  0  0  0
    0.1051    4.9696   -4.6585 N   0  0  0  0  0  0  0  0  0  0  0  0
    0.7125    5.7934   -5.0751 N   0  0  0  0  0  0  0  0  0  0  0  0
    1.9651    1.2975   -5.5952 S   0  0  0  0  0  0  0  0  0  0  0  0
    2.6664    0.0760   -6.8283 C   0  0  0  0  0  0  0  0  0  0  0  0
    1.1072    2.2154   -6.3248 O   0  0  0  0  0  0  0  0  0  0  0  0
    3.0460    1.7228   -4.7311 O   0  0  0  0  0  0  0  0  0  0  0  0
    1.0622    0.2478   -4.6915 O   0  0  0  0  0  0  0  0  0  0  0  0
    1.6627   -0.5000   -7.4929 F   0  0  0  0  0  0  0  0  0  0  0  0
    3.4475    0.7385   -7.6748 F   0  0  0  0  0  0  0  0  0  0  0  0
    3.3690   -0.8506   -6.1865 F   0  0  0  0  0  0  0  0  0  0  0  0
  1  6  2  0  0  0  0
  1  2  1  0  0  0  0
  2  3  2  0  0  0  0
  3  4  1  0  0  0  0
  3 20  1  0  0  0  0
  4  9  1  0  0  0  0
  5 10  1  0  0  0  0
  5  4  2  0  0  0  0
  6  5  1  0  0  0  0
  7  1  1  0  0  0  0
  8  2  1  0  0  0  0
 11 12  2  0  0  0  0
 11  6  1  0  0  0  0
 13 11  2  0  0  0  0
 15 14  3  0  0  0  0
 16 19  2  0  0  0  0
 16 20  1  0  0  0  0
 17 23  1  0  0  0  0
 17 16  1  0  0  0  0
 18 16  2  0  0  0  0
 21 17  1  0  0  0  0
 22 17  1  0  0  0  0
M  END
