Coordinates from ORCA-job 4-NO2-Ph-N2-OTf-B3LYPG-6-31G_dp-MTMO-d009-169-n800
 OpenBabel09051908473D

 23 22  0  0  0  0  0  0  0  0999 V2000
   -1.9686   -1.5464   -5.5284 C   0  0  0  0  0  0  0  0  0  0  0  0
   -0.6300   -1.2183   -5.3396 C   0  0  0  0  0  0  0  0  0  0  0  0
   -0.2941    0.0964   -5.0177 C   0  0  0  0  0  0  0  0  0  0  0  0
   -1.2553    1.0967   -4.8762 C   0  0  0  0  0  0  0  0  0  0  0  0
   -2.5938    0.7696   -5.0737 C   0  0  0  0  0  0  0  0  0  0  0  0
   -2.9283   -0.5446   -5.3943 C   0  0  0  0  0  0  0  0  0  0  0  0
   -2.2783   -2.5532   -5.7777 H   0  0  0  0  0  0  0  0  0  0  0  0
    0.1506   -1.9639   -5.4350 H   0  0  0  0  0  0  0  0  0  0  0  0
   -0.9601    2.1060   -4.6174 H   0  0  0  0  0  0  0  0  0  0  0  0
   -3.3772    1.5104   -4.9769 H   0  0  0  0  0  0  0  0  0  0  0  0
   -4.3464   -0.8889   -5.5950 N   0  0  0  0  0  0  0  0  0  0  0  0
   -5.1730    0.0124   -5.4690 O   0  0  0  0  0  0  0  0  0  0  0  0
   -4.6125   -2.0563   -5.8754 O   0  0  0  0  0  0  0  0  0  0  0  0
    0.0857    4.5957   -4.5035 N   0  0  0  0  0  0  0  0  0  0  0  0
    0.6169    5.5336   -4.7462 N   0  0  0  0  0  0  0  0  0  0  0  0
    1.9510    1.3442   -5.7240 S   0  0  0  0  0  0  0  0  0  0  0  0
    2.7070    0.0269   -6.8174 C   0  0  0  0  0  0  0  0  0  0  0  0
    1.0858    2.1634   -6.5555 O   0  0  0  0  0  0  0  0  0  0  0  0
    3.0054    1.8801   -4.8888 O   0  0  0  0  0  0  0  0  0  0  0  0
    1.0546    0.3650   -4.7389 O   0  0  0  0  0  0  0  0  0  0  0  0
    1.7327   -0.6275   -7.4530 F   0  0  0  0  0  0  0  0  0  0  0  0
    3.5010    0.6228   -7.7006 F   0  0  0  0  0  0  0  0  0  0  0  0
    3.4061   -0.8232   -6.0738 F   0  0  0  0  0  0  0  0  0  0  0  0
  1  6  2  0  0  0  0
  1  2  1  0  0  0  0
  2  3  2  0  0  0  0
  3  4  1  0  0  0  0
  3 20  1  0  0  0  0
  4  9  1  0  0  0  0
  5 10  1  0  0  0  0
  5  4  2  0  0  0  0
  6  5  1  0  0  0  0
  7  1  1  0  0  0  0
  8  2  1  0  0  0  0
 11 12  2  0  0  0  0
 11  6  1  0  0  0  0
 13 11  2  0  0  0  0
 15 14  3  0  0  0  0
 16 19  2  0  0  0  0
 16 20  1  0  0  0  0
 17 23  1  0  0  0  0
 17 16  1  0  0  0  0
 18 16  2  0  0  0  0
 21 17  1  0  0  0  0
 22 17  1  0  0  0  0
M  END
