Coordinates from ORCA-job 4-NO2-Ph-N2-OTf-B3LYPG-6-31G_dp-MTMO-d009-169-n800
 OpenBabel09051908473D

 23 22  0  0  0  0  0  0  0  0999 V2000
   -2.5492   -1.2177   -6.1572 C   0  0  0  0  0  0  0  0  0  0  0  0
   -1.1775   -1.0016   -6.0752 C   0  0  0  0  0  0  0  0  0  0  0  0
   -0.6379   -0.5115   -4.8859 C   0  0  0  0  0  0  0  0  0  0  0  0
   -1.4294   -0.2321   -3.7716 C   0  0  0  0  0  0  0  0  0  0  0  0
   -2.8032   -0.4387   -3.8571 C   0  0  0  0  0  0  0  0  0  0  0  0
   -3.3399   -0.9293   -5.0460 C   0  0  0  0  0  0  0  0  0  0  0  0
   -3.0120   -1.5992   -7.0583 H   0  0  0  0  0  0  0  0  0  0  0  0
   -0.5235   -1.2100   -6.9139 H   0  0  0  0  0  0  0  0  0  0  0  0
   -0.9779    0.1428   -2.8616 H   0  0  0  0  0  0  0  0  0  0  0  0
   -3.4591   -0.2332   -3.0208 H   0  0  0  0  0  0  0  0  0  0  0  0
   -4.7933   -1.1538   -5.1308 N   0  0  0  0  0  0  0  0  0  0  0  0
   -5.4672   -0.8940   -4.1360 O   0  0  0  0  0  0  0  0  0  0  0  0
   -5.2395   -1.5874   -6.1916 O   0  0  0  0  0  0  0  0  0  0  0  0
    6.2088    5.7973   -9.4572 N   0  0  0  0  0  0  0  0  0  0  0  0
    5.4141    5.1538   -9.0378 N   0  0  0  0  0  0  0  0  0  0  0  0
    1.4921    1.0709   -4.6297 S   0  0  0  0  0  0  0  0  0  0  0  0
    1.7255    1.5039   -6.4356 C   0  0  0  0  0  0  0  0  0  0  0  0
    0.5652    2.0349   -4.0625 O   0  0  0  0  0  0  0  0  0  0  0  0
    2.7959    0.7817   -4.0715 O   0  0  0  0  0  0  0  0  0  0  0  0
    0.7581   -0.4002   -4.8176 O   0  0  0  0  0  0  0  0  0  0  0  0
    0.5312    1.5692   -7.0269 F   0  0  0  0  0  0  0  0  0  0  0  0
    2.3316    2.6836   -6.5077 F   0  0  0  0  0  0  0  0  0  0  0  0
    2.4663    0.5718   -7.0253 F   0  0  0  0  0  0  0  0  0  0  0  0
  1  2  2  0  0  0  0
  1  6  1  0  0  0  0
  2  3  1  0  0  0  0
  3 20  1  0  0  0  0
  3  4  2  0  0  0  0
  4  9  1  0  0  0  0
  5  4  1  0  0  0  0
  5 10  1  0  0  0  0
  6  5  2  0  0  0  0
  7  1  1  0  0  0  0
  8  2  1  0  0  0  0
 11  6  1  0  0  0  0
 11 12  2  0  0  0  0
 13 11  2  0  0  0  0
 14 15  3  0  0  0  0
 16 19  2  0  0  0  0
 16 18  2  0  0  0  0
 17 16  1  0  0  0  0
 20 16  1  0  0  0  0
 21 17  1  0  0  0  0
 22 17  1  0  0  0  0
 23 17  1  0  0  0  0
M  END
