Coordinates from ORCA-job 4-NO2-Ph-N2-OTf-B3LYPG-6-31G_dp-MTMO-d009-169-n800
 OpenBabel09051908483D

 23 22  0  0  0  0  0  0  0  0999 V2000
   -2.9301   -1.5044   -5.9425 C   0  0  0  0  0  0  0  0  0  0  0  0
   -1.5595   -1.2797   -5.8652 C   0  0  0  0  0  0  0  0  0  0  0  0
   -1.0148   -0.8139   -4.6685 C   0  0  0  0  0  0  0  0  0  0  0  0
   -1.8001   -0.5672   -3.5422 C   0  0  0  0  0  0  0  0  0  0  0  0
   -3.1729   -0.7822   -3.6227 C   0  0  0  0  0  0  0  0  0  0  0  0
   -3.7147   -1.2484   -4.8192 C   0  0  0  0  0  0  0  0  0  0  0  0
   -3.3966   -1.8681   -6.8490 H   0  0  0  0  0  0  0  0  0  0  0  0
   -0.9101   -1.4636   -6.7133 H   0  0  0  0  0  0  0  0  0  0  0  0
   -1.3448   -0.2109   -2.6266 H   0  0  0  0  0  0  0  0  0  0  0  0
   -3.8241   -0.6017   -2.7770 H   0  0  0  0  0  0  0  0  0  0  0  0
   -5.1669   -1.4819   -4.8989 N   0  0  0  0  0  0  0  0  0  0  0  0
   -5.8357   -1.2493   -3.8939 O   0  0  0  0  0  0  0  0  0  0  0  0
   -5.6175   -1.8951   -5.9660 O   0  0  0  0  0  0  0  0  0  0  0  0
   10.2538    8.9105  -11.8804 N   0  0  0  0  0  0  0  0  0  0  0  0
    9.4410    8.2679  -11.4957 N   0  0  0  0  0  0  0  0  0  0  0  0
    1.1058    0.7775   -4.3885 S   0  0  0  0  0  0  0  0  0  0  0  0
    1.3132    1.2631   -6.1840 C   0  0  0  0  0  0  0  0  0  0  0  0
    0.1789    1.7183   -3.7836 O   0  0  0  0  0  0  0  0  0  0  0  0
    2.4187    0.4834   -3.8547 O   0  0  0  0  0  0  0  0  0  0  0  0
    0.3810   -0.6936   -4.6078 O   0  0  0  0  0  0  0  0  0  0  0  0
    0.1113    1.3358   -6.7588 F   0  0  0  0  0  0  0  0  0  0  0  0
    1.9090    2.4497   -6.2297 F   0  0  0  0  0  0  0  0  0  0  0  0
    2.0541    0.3549   -6.8094 F   0  0  0  0  0  0  0  0  0  0  0  0
  1  2  2  0  0  0  0
  1  6  1  0  0  0  0
  2  3  1  0  0  0  0
  3 20  1  0  0  0  0
  3  4  2  0  0  0  0
  4  9  1  0  0  0  0
  5  4  1  0  0  0  0
  5 10  1  0  0  0  0
  6  5  2  0  0  0  0
  7  1  1  0  0  0  0
  8  2  1  0  0  0  0
 11  6  1  0  0  0  0
 11 12  2  0  0  0  0
 13 11  2  0  0  0  0
 14 15  3  0  0  0  0
 16 19  2  0  0  0  0
 16 18  2  0  0  0  0
 17 16  1  0  0  0  0
 20 16  1  0  0  0  0
 21 17  1  0  0  0  0
 22 17  1  0  0  0  0
 23 17  1  0  0  0  0
M  END
