Coordinates from ORCA-job 4-NO2-Ph-N2-OTf-B3LYPG-6-31G_dp-MTMO-d009-169-n800
 OpenBabel09051908483D

 23 22  0  0  0  0  0  0  0  0999 V2000
   -2.8075   -1.4061   -6.0187 C   0  0  0  0  0  0  0  0  0  0  0  0
   -1.4365   -1.1875   -5.9324 C   0  0  0  0  0  0  0  0  0  0  0  0
   -0.8977   -0.7237   -4.7323 C   0  0  0  0  0  0  0  0  0  0  0  0
   -1.6893   -0.4735   -3.6112 C   0  0  0  0  0  0  0  0  0  0  0  0
   -3.0625   -0.6825   -3.7007 C   0  0  0  0  0  0  0  0  0  0  0  0
   -3.5984   -1.1465   -4.9006 C   0  0  0  0  0  0  0  0  0  0  0  0
   -3.2697   -1.7680   -6.9283 H   0  0  0  0  0  0  0  0  0  0  0  0
   -0.7824   -1.3744   -6.7762 H   0  0  0  0  0  0  0  0  0  0  0  0
   -1.2385   -0.1189   -2.6927 H   0  0  0  0  0  0  0  0  0  0  0  0
   -3.7185   -0.4991   -2.8593 H   0  0  0  0  0  0  0  0  0  0  0  0
   -5.0511   -1.3737   -4.9899 N   0  0  0  0  0  0  0  0  0  0  0  0
   -5.7255   -1.1381   -3.9893 O   0  0  0  0  0  0  0  0  0  0  0  0
   -5.4964   -1.7850   -6.0599 O   0  0  0  0  0  0  0  0  0  0  0  0
    8.9904    7.9388  -11.1692 N   0  0  0  0  0  0  0  0  0  0  0  0
    8.1698    7.2985  -10.7974 N   0  0  0  0  0  0  0  0  0  0  0  0
    1.2273    0.8593   -4.4394 S   0  0  0  0  0  0  0  0  0  0  0  0
    1.4469    1.3441   -6.2337 C   0  0  0  0  0  0  0  0  0  0  0  0
    0.3006    1.8038   -3.8399 O   0  0  0  0  0  0  0  0  0  0  0  0
    2.5360    0.5600   -3.8982 O   0  0  0  0  0  0  0  0  0  0  0  0
    0.4981   -0.6091   -4.6625 O   0  0  0  0  0  0  0  0  0  0  0  0
    0.2486    1.4220   -6.8152 F   0  0  0  0  0  0  0  0  0  0  0  0
    2.0481    2.5281   -6.2758 F   0  0  0  0  0  0  0  0  0  0  0  0
    2.1874    0.4326   -6.8550 F   0  0  0  0  0  0  0  0  0  0  0  0
  1  2  2  0  0  0  0
  1  6  1  0  0  0  0
  2  3  1  0  0  0  0
  3 20  1  0  0  0  0
  3  4  2  0  0  0  0
  4  9  1  0  0  0  0
  5  4  1  0  0  0  0
  5 10  1  0  0  0  0
  6  5  2  0  0  0  0
  7  1  1  0  0  0  0
  8  2  1  0  0  0  0
 11  6  1  0  0  0  0
 11 12  2  0  0  0  0
 13 11  2  0  0  0  0
 14 15  3  0  0  0  0
 16 19  2  0  0  0  0
 16 18  2  0  0  0  0
 17 16  1  0  0  0  0
 20 16  1  0  0  0  0
 21 17  1  0  0  0  0
 22 17  1  0  0  0  0
 23 17  1  0  0  0  0
M  END
