Coordinates from ORCA-job 4-NO2-Ph-N2-OTf-B3LYPG-6-31G_dp-MTMO-d009-169-n800
 OpenBabel09051908473D

 23 22  0  0  0  0  0  0  0  0999 V2000
   -2.0742   -1.0121   -6.1138 C   0  0  0  0  0  0  0  0  0  0  0  0
   -0.7198   -0.7193   -5.9869 C   0  0  0  0  0  0  0  0  0  0  0  0
   -0.3223    0.2356   -5.0517 C   0  0  0  0  0  0  0  0  0  0  0  0
   -1.2369    0.8980   -4.2344 C   0  0  0  0  0  0  0  0  0  0  0  0
   -2.5906    0.5990   -4.3544 C   0  0  0  0  0  0  0  0  0  0  0  0
   -2.9869   -0.3498   -5.2950 C   0  0  0  0  0  0  0  0  0  0  0  0
   -2.4310   -1.7451   -6.8266 H   0  0  0  0  0  0  0  0  0  0  0  0
    0.0167   -1.2233   -6.5996 H   0  0  0  0  0  0  0  0  0  0  0  0
   -0.8808    1.6309   -3.5199 H   0  0  0  0  0  0  0  0  0  0  0  0
   -3.3369    1.0859   -3.7401 H   0  0  0  0  0  0  0  0  0  0  0  0
   -4.4192   -0.6665   -5.4253 N   0  0  0  0  0  0  0  0  0  0  0  0
   -5.2019   -0.0699   -4.6878 O   0  0  0  0  0  0  0  0  0  0  0  0
   -4.7413   -1.5077   -6.2624 O   0  0  0  0  0  0  0  0  0  0  0  0
   -0.2242    3.9292   -5.5121 N   0  0  0  0  0  0  0  0  0  0  0  0
   -0.3244    4.9279   -5.9741 N   0  0  0  0  0  0  0  0  0  0  0  0
    1.9633    1.2514   -5.9726 S   0  0  0  0  0  0  0  0  0  0  0  0
    3.1538   -0.1607   -6.2665 C   0  0  0  0  0  0  0  0  0  0  0  0
    1.1968    1.4575   -7.1893 O   0  0  0  0  0  0  0  0  0  0  0  0
    2.7061    2.3024   -5.3065 O   0  0  0  0  0  0  0  0  0  0  0  0
    1.0368    0.4988   -4.8247 O   0  0  0  0  0  0  0  0  0  0  0  0
    2.4916   -1.2094   -6.7624 F   0  0  0  0  0  0  0  0  0  0  0  0
    4.0634    0.2475   -7.1462 F   0  0  0  0  0  0  0  0  0  0  0  0
    3.7408   -0.4990   -5.1255 F   0  0  0  0  0  0  0  0  0  0  0  0
  1  2  2  0  0  0  0
  1  6  1  0  0  0  0
  2  3  1  0  0  0  0
  3 20  1  0  0  0  0
  3  4  2  0  0  0  0
  4  9  1  0  0  0  0
  5  4  1  0  0  0  0
  5 10  1  0  0  0  0
  6  5  2  0  0  0  0
  7  1  1  0  0  0  0
  8  2  1  0  0  0  0
 11  6  1  0  0  0  0
 11 12  2  0  0  0  0
 13 11  2  0  0  0  0
 15 14  3  0  0  0  0
 16 19  2  0  0  0  0
 16 20  1  0  0  0  0
 17 16  1  0  0  0  0
 17 23  1  0  0  0  0
 18 16  2  0  0  0  0
 21 17  1  0  0  0  0
 22 17  1  0  0  0  0
M  END
