Coordinates from ORCA-job 4-NO2-Ph-N2-OTf-B3LYPG-6-31G_dp-MTMO-d009-169-n800
 OpenBabel09051908483D

 23 22  0  0  0  0  0  0  0  0999 V2000
   -2.7488   -1.3591   -6.0549 C   0  0  0  0  0  0  0  0  0  0  0  0
   -1.3777   -1.1427   -5.9653 C   0  0  0  0  0  0  0  0  0  0  0  0
   -0.8411   -0.6795   -4.7639 C   0  0  0  0  0  0  0  0  0  0  0  0
   -1.6350   -0.4280   -3.6447 C   0  0  0  0  0  0  0  0  0  0  0  0
   -3.0083   -0.6349   -3.7376 C   0  0  0  0  0  0  0  0  0  0  0  0
   -3.5420   -1.0981   -4.9388 C   0  0  0  0  0  0  0  0  0  0  0  0
   -3.2093   -1.7203   -6.9655 H   0  0  0  0  0  0  0  0  0  0  0  0
   -0.7218   -1.3307   -6.8075 H   0  0  0  0  0  0  0  0  0  0  0  0
   -1.1858   -0.0740   -2.7252 H   0  0  0  0  0  0  0  0  0  0  0  0
   -3.6660   -0.4503   -2.8978 H   0  0  0  0  0  0  0  0  0  0  0  0
   -4.9949   -1.3229   -5.0316 N   0  0  0  0  0  0  0  0  0  0  0  0
   -5.6713   -1.0862   -4.0326 O   0  0  0  0  0  0  0  0  0  0  0  0
   -5.4382   -1.7336   -6.1026 O   0  0  0  0  0  0  0  0  0  0  0  0
    8.3801    7.4681  -10.8232 N   0  0  0  0  0  0  0  0  0  0  0  0
    7.5591    6.8271  -10.4535 N   0  0  0  0  0  0  0  0  0  0  0  0
    1.2856    0.9004   -4.4662 S   0  0  0  0  0  0  0  0  0  0  0  0
    1.5104    1.3844   -6.2601 C   0  0  0  0  0  0  0  0  0  0  0  0
    0.3587    1.8463   -3.8693 O   0  0  0  0  0  0  0  0  0  0  0  0
    2.5924    0.5993   -3.9217 O   0  0  0  0  0  0  0  0  0  0  0  0
    0.5548   -0.5670   -4.6908 O   0  0  0  0  0  0  0  0  0  0  0  0
    0.3137    1.4637   -6.8447 F   0  0  0  0  0  0  0  0  0  0  0  0
    2.1133    2.5675   -6.3010 F   0  0  0  0  0  0  0  0  0  0  0  0
    2.2512    0.4718   -6.8792 F   0  0  0  0  0  0  0  0  0  0  0  0
  1  2  2  0  0  0  0
  1  6  1  0  0  0  0
  2  3  1  0  0  0  0
  3 20  1  0  0  0  0
  3  4  2  0  0  0  0
  4  9  1  0  0  0  0
  5  4  1  0  0  0  0
  5 10  1  0  0  0  0
  6  5  2  0  0  0  0
  7  1  1  0  0  0  0
  8  2  1  0  0  0  0
 11  6  1  0  0  0  0
 11 12  2  0  0  0  0
 13 11  2  0  0  0  0
 14 15  3  0  0  0  0
 16 19  2  0  0  0  0
 16 18  2  0  0  0  0
 17 16  1  0  0  0  0
 20 16  1  0  0  0  0
 21 17  1  0  0  0  0
 22 17  1  0  0  0  0
 23 17  1  0  0  0  0
M  END
