Coordinates from ORCA-job 4-NO2-Ph-N2-OTf-B3LYPG-6-31G_dp-MTMO-d009-169-n800
 OpenBabel09051908483D

 23 22  0  0  0  0  0  0  0  0999 V2000
   -2.9476   -1.5184   -5.9319 C   0  0  0  0  0  0  0  0  0  0  0  0
   -1.5772   -1.2926   -5.8556 C   0  0  0  0  0  0  0  0  0  0  0  0
   -1.0318   -0.8272   -4.6591 C   0  0  0  0  0  0  0  0  0  0  0  0
   -1.8163   -0.5820   -3.5319 C   0  0  0  0  0  0  0  0  0  0  0  0
   -3.1891   -0.7980   -3.6114 C   0  0  0  0  0  0  0  0  0  0  0  0
   -3.7315   -1.2639   -4.8077 C   0  0  0  0  0  0  0  0  0  0  0  0
   -3.4146   -1.8819   -6.8382 H   0  0  0  0  0  0  0  0  0  0  0  0
   -0.9284   -1.4754   -6.7044 H   0  0  0  0  0  0  0  0  0  0  0  0
   -1.3605   -0.2259   -2.6165 H   0  0  0  0  0  0  0  0  0  0  0  0
   -3.8397   -0.6188   -2.7649 H   0  0  0  0  0  0  0  0  0  0  0  0
   -5.1836   -1.4986   -4.8863 N   0  0  0  0  0  0  0  0  0  0  0  0
   -5.8517   -1.2674   -3.8805 O   0  0  0  0  0  0  0  0  0  0  0  0
   -5.6347   -1.9114   -5.9533 O   0  0  0  0  0  0  0  0  0  0  0  0
   10.4405    9.0518  -11.9871 N   0  0  0  0  0  0  0  0  0  0  0  0
    9.6290    8.4092  -11.5998 N   0  0  0  0  0  0  0  0  0  0  0  0
    1.0878    0.7657   -4.3802 S   0  0  0  0  0  0  0  0  0  0  0  0
    1.2923    1.2530   -6.1755 C   0  0  0  0  0  0  0  0  0  0  0  0
    0.1609    1.7053   -3.7732 O   0  0  0  0  0  0  0  0  0  0  0  0
    2.4017    0.4721   -3.8486 O   0  0  0  0  0  0  0  0  0  0  0  0
    0.3639   -0.7058   -4.5995 O   0  0  0  0  0  0  0  0  0  0  0  0
    0.0895    1.3263   -6.7484 F   0  0  0  0  0  0  0  0  0  0  0  0
    1.8881    2.4396   -6.2209 F   0  0  0  0  0  0  0  0  0  0  0  0
    2.0322    0.3453   -6.8030 F   0  0  0  0  0  0  0  0  0  0  0  0
  1  2  2  0  0  0  0
  1  6  1  0  0  0  0
  2  3  1  0  0  0  0
  3 20  1  0  0  0  0
  3  4  2  0  0  0  0
  4  9  1  0  0  0  0
  5  4  1  0  0  0  0
  5 10  1  0  0  0  0
  6  5  2  0  0  0  0
  7  1  1  0  0  0  0
  8  2  1  0  0  0  0
 11  6  1  0  0  0  0
 11 12  2  0  0  0  0
 13 11  2  0  0  0  0
 14 15  3  0  0  0  0
 16 19  2  0  0  0  0
 16 18  2  0  0  0  0
 17 16  1  0  0  0  0
 20 16  1  0  0  0  0
 21 17  1  0  0  0  0
 22 17  1  0  0  0  0
 23 17  1  0  0  0  0
M  END
