Coordinates from ORCA-job 4-NO2-Ph-N2-OTf-B3LYPG-6-31G_dp-MTMO-d009-169-n800
 OpenBabel09051908473D

 23 22  0  0  0  0  0  0  0  0999 V2000
   -2.0715   -0.4177   -6.3489 C   0  0  0  0  0  0  0  0  0  0  0  0
   -0.7338   -0.0382   -6.2903 C   0  0  0  0  0  0  0  0  0  0  0  0
   -0.2809    0.6496   -5.1608 C   0  0  0  0  0  0  0  0  0  0  0  0
   -1.1101    0.8621   -4.0537 C   0  0  0  0  0  0  0  0  0  0  0  0
   -2.4406    0.4727   -4.1115 C   0  0  0  0  0  0  0  0  0  0  0  0
   -2.9087   -0.1513   -5.2680 C   0  0  0  0  0  0  0  0  0  0  0  0
   -2.4699   -0.9304   -7.2155 H   0  0  0  0  0  0  0  0  0  0  0  0
   -0.0729   -0.2445   -7.1204 H   0  0  0  0  0  0  0  0  0  0  0  0
   -0.7026    1.3506   -3.1762 H   0  0  0  0  0  0  0  0  0  0  0  0
   -3.1164    0.6389   -3.2822 H   0  0  0  0  0  0  0  0  0  0  0  0
   -4.3180   -0.5626   -5.3366 N   0  0  0  0  0  0  0  0  0  0  0  0
   -5.0265   -0.3264   -4.3590 O   0  0  0  0  0  0  0  0  0  0  0  0
   -4.6993   -1.1176   -6.3661 O   0  0  0  0  0  0  0  0  0  0  0  0
   -0.6159    2.8321   -5.9989 N   0  0  0  0  0  0  0  0  0  0  0  0
   -1.5146    3.3604   -6.3705 N   0  0  0  0  0  0  0  0  0  0  0  0
    2.2031    1.3058   -6.0586 S   0  0  0  0  0  0  0  0  0  0  0  0
    3.0962   -0.3356   -5.9774 C   0  0  0  0  0  0  0  0  0  0  0  0
    1.6309    1.4222   -7.3894 O   0  0  0  0  0  0  0  0  0  0  0  0
    3.0650    2.3079   -5.4689 O   0  0  0  0  0  0  0  0  0  0  0  0
    1.0579    0.9714   -4.9199 O   0  0  0  0  0  0  0  0  0  0  0  0
    2.2501   -1.3090   -6.3200 F   0  0  0  0  0  0  0  0  0  0  0  0
    4.1092   -0.2958   -6.8376 F   0  0  0  0  0  0  0  0  0  0  0  0
    3.5486   -0.5435   -4.7474 F   0  0  0  0  0  0  0  0  0  0  0  0
  1  2  2  0  0  0  0
  1  6  1  0  0  0  0
  2  3  1  0  0  0  0
  3 20  1  0  0  0  0
  3  4  2  0  0  0  0
  4  9  1  0  0  0  0
  5  4  1  0  0  0  0
  5 10  1  0  0  0  0
  6  5  2  0  0  0  0
  7  1  1  0  0  0  0
  8  2  1  0  0  0  0
 11  6  1  0  0  0  0
 11 12  2  0  0  0  0
 13 11  2  0  0  0  0
 15 14  3  0  0  0  0
 16 17  1  0  0  0  0
 16 19  2  0  0  0  0
 16 20  1  0  0  0  0
 17 23  1  0  0  0  0
 18 16  2  0  0  0  0
 21 17  1  0  0  0  0
 22 17  1  0  0  0  0
M  END
