Coordinates from ORCA-job 4-NO2-Ph-N2-OTf-B3LYPG-6-31G_dp-MTMO-d009-169-n800
 OpenBabel09051908473D

 23 22  0  0  0  0  0  0  0  0999 V2000
   -1.9885   -1.6759   -5.6962 C   0  0  0  0  0  0  0  0  0  0  0  0
   -0.6616   -1.3383   -5.4510 C   0  0  0  0  0  0  0  0  0  0  0  0
   -0.3698   -0.0857   -4.9116 C   0  0  0  0  0  0  0  0  0  0  0  0
   -1.3656    0.8424   -4.6072 C   0  0  0  0  0  0  0  0  0  0  0  0
   -2.6925    0.5083   -4.8620 C   0  0  0  0  0  0  0  0  0  0  0  0
   -2.9821   -0.7444   -5.3994 C   0  0  0  0  0  0  0  0  0  0  0  0
   -2.2641   -2.6371   -6.1108 H   0  0  0  0  0  0  0  0  0  0  0  0
    0.1448   -2.0295   -5.6671 H   0  0  0  0  0  0  0  0  0  0  0  0
   -1.1042    1.8045   -4.1850 H   0  0  0  0  0  0  0  0  0  0  0  0
   -3.5005    1.1951   -4.6453 H   0  0  0  0  0  0  0  0  0  0  0  0
   -4.3879   -1.0984   -5.6608 N   0  0  0  0  0  0  0  0  0  0  0  0
   -5.2444   -0.2589   -5.3900 O   0  0  0  0  0  0  0  0  0  0  0  0
   -4.6141   -2.2109   -6.1331 O   0  0  0  0  0  0  0  0  0  0  0  0
    0.9891    5.6165   -5.1372 N   0  0  0  0  0  0  0  0  0  0  0  0
    1.7548    5.6161   -5.9340 N   0  0  0  0  0  0  0  0  0  0  0  0
    1.8204    1.3713   -5.3503 S   0  0  0  0  0  0  0  0  0  0  0  0
    2.5170    0.3707   -6.7701 C   0  0  0  0  0  0  0  0  0  0  0  0
    0.9175    2.3616   -5.9121 O   0  0  0  0  0  0  0  0  0  0  0  0
    2.9125    1.6943   -4.4570 O   0  0  0  0  0  0  0  0  0  0  0  0
    0.9710    0.1729   -4.5908 O   0  0  0  0  0  0  0  0  0  0  0  0
    1.5102   -0.0967   -7.5100 F   0  0  0  0  0  0  0  0  0  0  0  0
    3.2870    1.1664   -7.5043 F   0  0  0  0  0  0  0  0  0  0  0  0
    3.2303   -0.6433   -6.2925 F   0  0  0  0  0  0  0  0  0  0  0  0
  1  2  2  0  0  0  0
  1  6  1  0  0  0  0
  2  3  1  0  0  0  0
  3  4  2  0  0  0  0
  3 20  1  0  0  0  0
  4  9  1  0  0  0  0
  5 10  1  0  0  0  0
  5  4  1  0  0  0  0
  6  5  2  0  0  0  0
  7  1  1  0  0  0  0
  8  2  1  0  0  0  0
 11  6  1  0  0  0  0
 11 12  2  0  0  0  0
 13 11  2  0  0  0  0
 15 14  3  0  0  0  0
 16 20  1  0  0  0  0
 16 19  2  0  0  0  0
 17 23  1  0  0  0  0
 17 16  1  0  0  0  0
 18 16  2  0  0  0  0
 21 17  1  0  0  0  0
 22 17  1  0  0  0  0
M  END
