Coordinates from ORCA-job 4-NO2-Ph-N2-OTf-B3LYPG-6-31G_dp-MTMO-d009-169-n800
 OpenBabel09051908473D

 23 22  0  0  0  0  0  0  0  0999 V2000
   -1.9517   -0.4397   -6.2028 C   0  0  0  0  0  0  0  0  0  0  0  0
   -0.9687    0.5556   -6.2695 C   0  0  0  0  0  0  0  0  0  0  0  0
   -1.1358    1.5322   -5.3285 C   0  0  0  0  0  0  0  0  0  0  0  0
   -2.0690    1.6983   -4.3338 C   0  0  0  0  0  0  0  0  0  0  0  0
   -3.0263    0.6793   -4.2985 C   0  0  0  0  0  0  0  0  0  0  0  0
   -2.9476   -0.3557   -5.2300 C   0  0  0  0  0  0  0  0  0  0  0  0
   -1.9397   -1.2755   -6.8916 H   0  0  0  0  0  0  0  0  0  0  0  0
   -0.1292    0.5718   -6.9685 H   0  0  0  0  0  0  0  0  0  0  0  0
   -2.0716    2.5275   -3.6385 H   0  0  0  0  0  0  0  0  0  0  0  0
   -3.8215    0.6840   -3.5633 H   0  0  0  0  0  0  0  0  0  0  0  0
   -3.9758   -1.4203   -5.1768 N   0  0  0  0  0  0  0  0  0  0  0  0
   -4.8334   -1.3259   -4.3036 O   0  0  0  0  0  0  0  0  0  0  0  0
   -3.8968   -2.3163   -6.0098 O   0  0  0  0  0  0  0  0  0  0  0  0
    0.0268    2.8527   -5.4066 N   0  0  0  0  0  0  0  0  0  0  0  0
    0.2988    3.9281   -5.4575 N   0  0  0  0  0  0  0  0  0  0  0  0
    2.5152    1.2100   -6.1975 S   0  0  0  0  0  0  0  0  0  0  0  0
    2.8503   -0.6166   -6.0979 C   0  0  0  0  0  0  0  0  0  0  0  0
    1.6358    1.3413   -7.3933 O   0  0  0  0  0  0  0  0  0  0  0  0
    3.8255    1.8560   -6.2584 O   0  0  0  0  0  0  0  0  0  0  0  0
    1.7326    1.4457   -4.9238 O   0  0  0  0  0  0  0  0  0  0  0  0
    1.6810   -1.2914   -6.0694 F   0  0  0  0  0  0  0  0  0  0  0  0
    3.5428   -1.0228   -7.1657 F   0  0  0  0  0  0  0  0  0  0  0  0
    3.5374   -0.9174   -4.9926 F   0  0  0  0  0  0  0  0  0  0  0  0
  1  6  1  0  0  0  0
  2  1  2  0  0  0  0
  2  3  1  0  0  0  0
  3  4  2  0  0  0  0
  4  5  1  0  0  0  0
  4  9  1  0  0  0  0
  5 10  1  0  0  0  0
  6 11  1  0  0  0  0
  6  5  2  0  0  0  0
  7  1  1  0  0  0  0
  8  2  1  0  0  0  0
 11 12  2  0  0  0  0
 13 11  2  0  0  0  0
 14  3  1  0  0  0  0
 15 14  2  0  0  0  0
 16 17  1  0  0  0  0
 16 20  1  0  0  0  0
 17 21  1  0  0  0  0
 17 23  1  0  0  0  0
 18 16  2  0  0  0  0
 19 16  2  0  0  0  0
 22 17  1  0  0  0  0
M  RAD  2  15   2  20   2
M  END
