Coordinates from ORCA-job 4-NO2-Ph-N2-OTf-B3LYPG-6-31G_dp-MTMO-d009-169-n800
 OpenBabel09051908473D

 23 22  0  0  0  0  0  0  0  0999 V2000
   -2.0688   -0.4594   -6.3315 C   0  0  0  0  0  0  0  0  0  0  0  0
   -0.7262   -0.0962   -6.2630 C   0  0  0  0  0  0  0  0  0  0  0  0
   -0.2732    0.5807   -5.1289 C   0  0  0  0  0  0  0  0  0  0  0  0
   -1.1161    0.8441   -4.0452 C   0  0  0  0  0  0  0  0  0  0  0  0
   -2.4516    0.4703   -4.1124 C   0  0  0  0  0  0  0  0  0  0  0  0
   -2.9127   -0.1705   -5.2620 C   0  0  0  0  0  0  0  0  0  0  0  0
   -2.4655   -0.9737   -7.1978 H   0  0  0  0  0  0  0  0  0  0  0  0
   -0.0597   -0.3211   -7.0836 H   0  0  0  0  0  0  0  0  0  0  0  0
   -0.7140    1.3469   -3.1734 H   0  0  0  0  0  0  0  0  0  0  0  0
   -3.1366    0.6655   -3.2971 H   0  0  0  0  0  0  0  0  0  0  0  0
   -4.3267   -0.5653   -5.3403 N   0  0  0  0  0  0  0  0  0  0  0  0
   -5.0428   -0.3058   -4.3743 O   0  0  0  0  0  0  0  0  0  0  0  0
   -4.7036   -1.1311   -6.3655 O   0  0  0  0  0  0  0  0  0  0  0  0
   -0.6175    3.0035   -6.0133 N   0  0  0  0  0  0  0  0  0  0  0  0
   -1.4879    3.5376   -6.4374 N   0  0  0  0  0  0  0  0  0  0  0  0
    2.1884    1.2933   -6.0405 S   0  0  0  0  0  0  0  0  0  0  0  0
    3.1132   -0.3320   -6.0028 C   0  0  0  0  0  0  0  0  0  0  0  0
    1.5956    1.4251   -7.3606 O   0  0  0  0  0  0  0  0  0  0  0  0
    3.0402    2.2988   -5.4421 O   0  0  0  0  0  0  0  0  0  0  0  0
    1.0634    0.9169   -4.8946 O   0  0  0  0  0  0  0  0  0  0  0  0
    2.2836   -1.3146   -6.3606 F   0  0  0  0  0  0  0  0  0  0  0  0
    4.1181   -0.2534   -6.8697 F   0  0  0  0  0  0  0  0  0  0  0  0
    3.5794   -0.5585   -4.7814 F   0  0  0  0  0  0  0  0  0  0  0  0
  1  2  2  0  0  0  0
  1  6  1  0  0  0  0
  2  3  1  0  0  0  0
  3 20  1  0  0  0  0
  3  4  2  0  0  0  0
  4  9  1  0  0  0  0
  5  4  1  0  0  0  0
  5 10  1  0  0  0  0
  6  5  2  0  0  0  0
  7  1  1  0  0  0  0
  8  2  1  0  0  0  0
 11  6  1  0  0  0  0
 11 12  2  0  0  0  0
 13 11  2  0  0  0  0
 15 14  3  0  0  0  0
 16 17  1  0  0  0  0
 16 19  2  0  0  0  0
 16 20  1  0  0  0  0
 17 23  1  0  0  0  0
 18 16  2  0  0  0  0
 21 17  1  0  0  0  0
 22 17  1  0  0  0  0
M  END
