Coordinates from ORCA-job 4-NO2-Ph-N2-OTf-B3LYPG-6-31G_dp-MTMO-d009-169-n800
 OpenBabel09051908483D

 23 22  0  0  0  0  0  0  0  0999 V2000
   -2.6829   -1.3069   -6.0950 C   0  0  0  0  0  0  0  0  0  0  0  0
   -1.3117   -1.0919   -6.0027 C   0  0  0  0  0  0  0  0  0  0  0  0
   -0.7770   -0.6291   -4.8004 C   0  0  0  0  0  0  0  0  0  0  0  0
   -1.5728   -0.3763   -3.6829 C   0  0  0  0  0  0  0  0  0  0  0  0
   -2.9461   -0.5817   -3.7784 C   0  0  0  0  0  0  0  0  0  0  0  0
   -3.4780   -1.0447   -4.9805 C   0  0  0  0  0  0  0  0  0  0  0  0
   -3.1420   -1.6678   -7.0064 H   0  0  0  0  0  0  0  0  0  0  0  0
   -0.6544   -1.2809   -6.8436 H   0  0  0  0  0  0  0  0  0  0  0  0
   -1.1250   -0.0226   -2.7626 H   0  0  0  0  0  0  0  0  0  0  0  0
   -3.6053   -0.3961   -2.9400 H   0  0  0  0  0  0  0  0  0  0  0  0
   -4.9309   -1.2678   -5.0761 N   0  0  0  0  0  0  0  0  0  0  0  0
   -5.6090   -1.0301   -4.0785 O   0  0  0  0  0  0  0  0  0  0  0  0
   -5.3727   -1.6782   -6.1479 O   0  0  0  0  0  0  0  0  0  0  0  0
    7.6930    6.9343  -10.4311 N   0  0  0  0  0  0  0  0  0  0  0  0
    6.8751    6.2921  -10.0565 N   0  0  0  0  0  0  0  0  0  0  0  0
    1.3508    0.9488   -4.4992 S   0  0  0  0  0  0  0  0  0  0  0  0
    1.5799    1.4317   -6.2927 C   0  0  0  0  0  0  0  0  0  0  0  0
    0.4236    1.8959   -3.9045 O   0  0  0  0  0  0  0  0  0  0  0  0
    2.6561    0.6465   -3.9517 O   0  0  0  0  0  0  0  0  0  0  0  0
    0.6189   -0.5180   -4.7246 O   0  0  0  0  0  0  0  0  0  0  0  0
    0.3845    1.5117   -6.8800 F   0  0  0  0  0  0  0  0  0  0  0  0
    2.1839    2.6143   -6.3329 F   0  0  0  0  0  0  0  0  0  0  0  0
    2.3212    0.5181   -6.9098 F   0  0  0  0  0  0  0  0  0  0  0  0
  1  2  2  0  0  0  0
  1  6  1  0  0  0  0
  2  3  1  0  0  0  0
  3 20  1  0  0  0  0
  3  4  2  0  0  0  0
  4  9  1  0  0  0  0
  5  4  1  0  0  0  0
  5 10  1  0  0  0  0
  6  5  2  0  0  0  0
  7  1  1  0  0  0  0
  8  2  1  0  0  0  0
 11  6  1  0  0  0  0
 11 12  2  0  0  0  0
 13 11  2  0  0  0  0
 14 15  3  0  0  0  0
 16 19  2  0  0  0  0
 16 18  2  0  0  0  0
 17 16  1  0  0  0  0
 20 16  1  0  0  0  0
 21 17  1  0  0  0  0
 22 17  1  0  0  0  0
 23 17  1  0  0  0  0
M  END
