Coordinates from ORCA-job 4-NO2-Ph-N2-OTf-B3LYPG-6-31G_dp-MTMO-d009-169-n800
 OpenBabel09051908483D

 23 22  0  0  0  0  0  0  0  0999 V2000
   -2.9456   -1.5168   -5.9329 C   0  0  0  0  0  0  0  0  0  0  0  0
   -1.5750   -1.2919   -5.8566 C   0  0  0  0  0  0  0  0  0  0  0  0
   -1.0296   -0.8256   -4.6604 C   0  0  0  0  0  0  0  0  0  0  0  0
   -1.8142   -0.5787   -3.5337 C   0  0  0  0  0  0  0  0  0  0  0  0
   -3.1870   -0.7940   -3.6132 C   0  0  0  0  0  0  0  0  0  0  0  0
   -3.7296   -1.2607   -4.8091 C   0  0  0  0  0  0  0  0  0  0  0  0
   -3.4127   -1.8810   -6.8390 H   0  0  0  0  0  0  0  0  0  0  0  0
   -0.9262   -1.4759   -6.7051 H   0  0  0  0  0  0  0  0  0  0  0  0
   -1.3583   -0.2220   -2.6185 H   0  0  0  0  0  0  0  0  0  0  0  0
   -3.8377   -0.6134   -2.7671 H   0  0  0  0  0  0  0  0  0  0  0  0
   -5.1818   -1.4945   -4.8878 N   0  0  0  0  0  0  0  0  0  0  0  0
   -5.8500   -1.2615   -3.8825 O   0  0  0  0  0  0  0  0  0  0  0  0
   -5.6329   -1.9083   -5.9544 O   0  0  0  0  0  0  0  0  0  0  0  0
   10.4118    9.0344  -11.9706 N   0  0  0  0  0  0  0  0  0  0  0  0
    9.6005    8.3911  -11.5838 N   0  0  0  0  0  0  0  0  0  0  0  0
    1.0908    0.7663   -4.3818 S   0  0  0  0  0  0  0  0  0  0  0  0
    1.2970    1.2520   -6.1774 C   0  0  0  0  0  0  0  0  0  0  0  0
    0.1641    1.7069   -3.7763 O   0  0  0  0  0  0  0  0  0  0  0  0
    2.4041    0.4726   -3.8487 O   0  0  0  0  0  0  0  0  0  0  0  0
    0.3662   -0.7050   -4.6007 O   0  0  0  0  0  0  0  0  0  0  0  0
    0.0949    1.3234   -6.7517 F   0  0  0  0  0  0  0  0  0  0  0  0
    1.8917    2.4392   -6.2235 F   0  0  0  0  0  0  0  0  0  0  0  0
    2.0386    0.3444   -6.8031 F   0  0  0  0  0  0  0  0  0  0  0  0
  1  2  2  0  0  0  0
  1  6  1  0  0  0  0
  2  3  1  0  0  0  0
  3 20  1  0  0  0  0
  3  4  2  0  0  0  0
  4  9  1  0  0  0  0
  5  4  1  0  0  0  0
  5 10  1  0  0  0  0
  6  5  2  0  0  0  0
  7  1  1  0  0  0  0
  8  2  1  0  0  0  0
 11  6  1  0  0  0  0
 11 12  2  0  0  0  0
 13 11  2  0  0  0  0
 14 15  3  0  0  0  0
 16 19  2  0  0  0  0
 16 18  2  0  0  0  0
 17 16  1  0  0  0  0
 20 16  1  0  0  0  0
 21 17  1  0  0  0  0
 22 17  1  0  0  0  0
 23 17  1  0  0  0  0
M  END
