Coordinates from ORCA-job 4-MeO-Ph-N2-OTs-B3LYPG-6-31G_dp-MTMO-d009-169-n800
 OpenBabel09051908173D

 35 35  0  0  0  0  0  0  0  0999 V2000
    3.2149   -3.9364    0.6795 C   0  0  0  0  0  0  0  0  0  0  0  0
    2.2654   -3.9105   -0.3459 C   0  0  0  0  0  0  0  0  0  0  0  0
    2.5594   -4.4780   -1.5808 C   0  0  0  0  0  0  0  0  0  0  0  0
    3.7994   -5.0810   -1.8134 C   0  0  0  0  0  0  0  0  0  0  0  0
    4.7403   -5.1161   -0.7934 C   0  0  0  0  0  0  0  0  0  0  0  0
    4.4567   -4.5443    0.4578 C   0  0  0  0  0  0  0  0  0  0  0  0
    2.9750   -3.4834    1.6336 H   0  0  0  0  0  0  0  0  0  0  0  0
    1.3002   -3.4396   -0.1934 H   0  0  0  0  0  0  0  0  0  0  0  0
    4.0089   -5.5185   -2.7818 H   0  0  0  0  0  0  0  0  0  0  0  0
    5.7106   -5.5770   -0.9429 H   0  0  0  0  0  0  0  0  0  0  0  0
   -6.8639   -5.1742    0.2826 N   0  0  0  0  0  0  0  0  0  0  0  0
   -7.9636   -5.0789    0.2309 N   0  0  0  0  0  0  0  0  0  0  0  0
   -0.0957   -6.8537   -0.7584 C   0  0  0  0  0  0  0  0  0  0  0  0
   -1.0204   -7.0390    0.2668 C   0  0  0  0  0  0  0  0  0  0  0  0
   -2.2406   -6.3462    0.2798 C   0  0  0  0  0  0  0  0  0  0  0  0
   -2.5186   -5.4597   -0.7712 C   0  0  0  0  0  0  0  0  0  0  0  0
   -1.6070   -5.2586   -1.8058 C   0  0  0  0  0  0  0  0  0  0  0  0
   -0.3996   -5.9595   -1.7876 C   0  0  0  0  0  0  0  0  0  0  0  0
    0.8382   -7.4034   -0.7781 H   0  0  0  0  0  0  0  0  0  0  0  0
   -0.7937   -7.7397    1.0664 H   0  0  0  0  0  0  0  0  0  0  0  0
   -3.4660   -4.9284   -0.7844 H   0  0  0  0  0  0  0  0  0  0  0  0
   -1.8308   -4.5869   -2.6275 H   0  0  0  0  0  0  0  0  0  0  0  0
    0.7704   -5.7081   -3.1090 S   0  0  0  0  0  0  0  0  0  0  0  0
    1.6180   -4.3565   -2.6108 O   0  0  0  0  0  0  0  0  0  0  0  0
    0.0701   -5.2354   -4.2938 O   0  0  0  0  0  0  0  0  0  0  0  0
    1.6851   -6.8460   -3.1475 O   0  0  0  0  0  0  0  0  0  0  0  0
   -3.2253   -6.5455    1.4067 C   0  0  0  0  0  0  0  0  0  0  0  0
   -2.9072   -6.0011    2.3041 H   0  0  0  0  0  0  0  0  0  0  0  0
   -4.2211   -6.1845    1.1375 H   0  0  0  0  0  0  0  0  0  0  0  0
   -3.3061   -7.6013    1.6823 H   0  0  0  0  0  0  0  0  0  0  0  0
    5.4543   -4.6306    1.3844 O   0  0  0  0  0  0  0  0  0  0  0  0
    5.2337   -4.0619    2.6651 C   0  0  0  0  0  0  0  0  0  0  0  0
    6.1463   -4.2421    3.2359 H   0  0  0  0  0  0  0  0  0  0  0  0
    5.0544   -2.9808    2.6033 H   0  0  0  0  0  0  0  0  0  0  0  0
    4.3880   -4.5365    3.1795 H   0  0  0  0  0  0  0  0  0  0  0  0
  1  7  1  0  0  0  0
  2  8  1  0  0  0  0
  2  1  2  0  0  0  0
  3  2  1  0  0  0  0
  4  3  2  0  0  0  0
  4  5  1  0  0  0  0
  5  6  2  0  0  0  0
  6  1  1  0  0  0  0
  6 31  1  0  0  0  0
  9  4  1  0  0  0  0
 10  5  1  0  0  0  0
 12 11  3  0  0  0  0
 13 14  2  0  0  0  0
 14 15  1  0  0  0  0
 14 20  1  0  0  0  0
 15 27  1  0  0  0  0
 16 15  2  0  0  0  0
 17 18  2  0  0  0  0
 17 16  1  0  0  0  0
 18 13  1  0  0  0  0
 19 13  1  0  0  0  0
 21 16  1  0  0  0  0
 22 17  1  0  0  0  0
 23 24  1  0  0  0  0
 23 18  1  0  0  0  0
 24  3  1  0  0  0  0
 25 23  2  0  0  0  0
 26 23  2  0  0  0  0
 27 30  1  0  0  0  0
 27 28  1  0  0  0  0
 29 27  1  0  0  0  0
 31 32  1  0  0  0  0
 32 35  1  0  0  0  0
 32 33  1  0  0  0  0
 34 32  1  0  0  0  0
M  END
