Coordinates from ORCA-job 4-MeO-Ph-N2-OTs-B3LYPG-6-31G_dp-MTMO-d009-169-n800
 OpenBabel09051908173D

 35 35  0  0  0  0  0  0  0  0999 V2000
    2.9268   -3.9216    0.6930 C   0  0  0  0  0  0  0  0  0  0  0  0
    1.7831   -3.9031   -0.1102 C   0  0  0  0  0  0  0  0  0  0  0  0
    1.8640   -4.2837   -1.4452 C   0  0  0  0  0  0  0  0  0  0  0  0
    3.0811   -4.6920   -2.0000 C   0  0  0  0  0  0  0  0  0  0  0  0
    4.2159   -4.7213   -1.2010 C   0  0  0  0  0  0  0  0  0  0  0  0
    4.1488   -4.3352    0.1478 C   0  0  0  0  0  0  0  0  0  0  0  0
    2.8508   -3.6116    1.7278 H   0  0  0  0  0  0  0  0  0  0  0  0
    0.8295   -3.5803    0.2936 H   0  0  0  0  0  0  0  0  0  0  0  0
    3.1231   -4.9868   -3.0413 H   0  0  0  0  0  0  0  0  0  0  0  0
    5.1739   -5.0345   -1.6019 H   0  0  0  0  0  0  0  0  0  0  0  0
   -3.3554   -2.7986   -3.2090 N   0  0  0  0  0  0  0  0  0  0  0  0
   -3.1530   -2.2731   -4.1595 N   0  0  0  0  0  0  0  0  0  0  0  0
   -0.2684   -7.1334   -0.5300 C   0  0  0  0  0  0  0  0  0  0  0  0
   -0.9099   -7.5817    0.6243 C   0  0  0  0  0  0  0  0  0  0  0  0
   -2.1397   -7.0445    1.0262 C   0  0  0  0  0  0  0  0  0  0  0  0
   -2.7248   -6.0418    0.2353 C   0  0  0  0  0  0  0  0  0  0  0  0
   -2.1029   -5.5799   -0.9204 C   0  0  0  0  0  0  0  0  0  0  0  0
   -0.8732   -6.1330   -1.2909 C   0  0  0  0  0  0  0  0  0  0  0  0
    0.6751   -7.5598   -0.8495 H   0  0  0  0  0  0  0  0  0  0  0  0
   -0.4493   -8.3667    1.2180 H   0  0  0  0  0  0  0  0  0  0  0  0
   -3.6852   -5.6248    0.5252 H   0  0  0  0  0  0  0  0  0  0  0  0
   -2.5658   -4.8181   -1.5385 H   0  0  0  0  0  0  0  0  0  0  0  0
   -0.0647   -5.5433   -2.7664 S   0  0  0  0  0  0  0  0  0  0  0  0
    0.7169   -4.1641   -2.2405 O   0  0  0  0  0  0  0  0  0  0  0  0
   -1.0589   -5.0186   -3.6913 O   0  0  0  0  0  0  0  0  0  0  0  0
    0.9365   -6.5235   -3.1773 O   0  0  0  0  0  0  0  0  0  0  0  0
   -2.8231   -7.5214    2.2848 C   0  0  0  0  0  0  0  0  0  0  0  0
   -2.7543   -6.7672    3.0787 H   0  0  0  0  0  0  0  0  0  0  0  0
   -3.8875   -7.7107    2.1123 H   0  0  0  0  0  0  0  0  0  0  0  0
   -2.3710   -8.4416    2.6620 H   0  0  0  0  0  0  0  0  0  0  0  0
    5.3247   -4.3945    0.8367 O   0  0  0  0  0  0  0  0  0  0  0  0
    5.3253   -4.0062    2.2011 C   0  0  0  0  0  0  0  0  0  0  0  0
    6.3529   -4.1250    2.5478 H   0  0  0  0  0  0  0  0  0  0  0  0
    5.0225   -2.9583    2.3245 H   0  0  0  0  0  0  0  0  0  0  0  0
    4.6661   -4.6433    2.8044 H   0  0  0  0  0  0  0  0  0  0  0  0
  1  7  1  0  0  0  0
  2  8  1  0  0  0  0
  2  1  2  0  0  0  0
  3  2  1  0  0  0  0
  4  3  2  0  0  0  0
  4  5  1  0  0  0  0
  5  6  2  0  0  0  0
  6  1  1  0  0  0  0
  6 31  1  0  0  0  0
  9  4  1  0  0  0  0
 10  5  1  0  0  0  0
 12 11  3  0  0  0  0
 13 14  2  0  0  0  0
 14 15  1  0  0  0  0
 14 20  1  0  0  0  0
 15 27  1  0  0  0  0
 16 21  1  0  0  0  0
 16 15  2  0  0  0  0
 17 16  1  0  0  0  0
 18 17  2  0  0  0  0
 18 13  1  0  0  0  0
 19 13  1  0  0  0  0
 22 17  1  0  0  0  0
 23 24  1  0  0  0  0
 23 18  1  0  0  0  0
 24  3  1  0  0  0  0
 25 23  2  0  0  0  0
 26 23  2  0  0  0  0
 27 30  1  0  0  0  0
 27 28  1  0  0  0  0
 29 27  1  0  0  0  0
 31 32  1  0  0  0  0
 32 34  1  0  0  0  0
 32 33  1  0  0  0  0
 32 35  1  0  0  0  0
M  END
