Coordinates from ORCA-job 4-MeO-Ph-N2-OTs-B3LYPG-6-31G_dp-MTMO-d009-169-n800
 OpenBabel09051908173D

 35 35  0  0  0  0  0  0  0  0999 V2000
    3.2313   -3.9406    0.6832 C   0  0  0  0  0  0  0  0  0  0  0  0
    2.2766   -3.9115   -0.3373 C   0  0  0  0  0  0  0  0  0  0  0  0
    2.5642   -4.4756   -1.5754 C   0  0  0  0  0  0  0  0  0  0  0  0
    3.8030   -5.0782   -1.8159 C   0  0  0  0  0  0  0  0  0  0  0  0
    4.7489   -5.1164   -0.8007 C   0  0  0  0  0  0  0  0  0  0  0  0
    4.4718   -4.5482    0.4535 C   0  0  0  0  0  0  0  0  0  0  0  0
    2.9964   -3.4901    1.6397 H   0  0  0  0  0  0  0  0  0  0  0  0
    1.3125   -3.4405   -0.1787 H   0  0  0  0  0  0  0  0  0  0  0  0
    4.0075   -5.5130   -2.7865 H   0  0  0  0  0  0  0  0  0  0  0  0
    5.7184   -5.5771   -0.9564 H   0  0  0  0  0  0  0  0  0  0  0  0
   -6.9039   -5.2114    0.2524 N   0  0  0  0  0  0  0  0  0  0  0  0
   -8.0046   -5.1326    0.1929 N   0  0  0  0  0  0  0  0  0  0  0  0
   -0.0971   -6.8328   -0.7413 C   0  0  0  0  0  0  0  0  0  0  0  0
   -1.0245   -7.0178    0.2815 C   0  0  0  0  0  0  0  0  0  0  0  0
   -2.2516   -6.3370    0.2829 C   0  0  0  0  0  0  0  0  0  0  0  0
   -2.5334   -5.4625   -0.7769 C   0  0  0  0  0  0  0  0  0  0  0  0
   -1.6187   -5.2611   -1.8089 C   0  0  0  0  0  0  0  0  0  0  0  0
   -0.4048   -5.9502   -1.7795 C   0  0  0  0  0  0  0  0  0  0  0  0
    0.8416   -7.3745   -0.7523 H   0  0  0  0  0  0  0  0  0  0  0  0
   -0.7947   -7.7094    1.0881 H   0  0  0  0  0  0  0  0  0  0  0  0
   -3.4862   -4.9412   -0.7994 H   0  0  0  0  0  0  0  0  0  0  0  0
   -1.8451   -4.5988   -2.6375 H   0  0  0  0  0  0  0  0  0  0  0  0
    0.7677   -5.7009   -3.0991 S   0  0  0  0  0  0  0  0  0  0  0  0
    1.6177   -4.3509   -2.6002 O   0  0  0  0  0  0  0  0  0  0  0  0
    0.0695   -5.2272   -4.2847 O   0  0  0  0  0  0  0  0  0  0  0  0
    1.6803   -6.8404   -3.1362 O   0  0  0  0  0  0  0  0  0  0  0  0
   -3.2393   -6.5367    1.4069 C   0  0  0  0  0  0  0  0  0  0  0  0
   -2.9319   -5.9801    2.3006 H   0  0  0  0  0  0  0  0  0  0  0  0
   -4.2380   -6.1897    1.1299 H   0  0  0  0  0  0  0  0  0  0  0  0
   -3.3095   -7.5907    1.6923 H   0  0  0  0  0  0  0  0  0  0  0  0
    5.4739   -4.6375    1.3748 O   0  0  0  0  0  0  0  0  0  0  0  0
    5.2598   -4.0729    2.6585 C   0  0  0  0  0  0  0  0  0  0  0  0
    6.1750   -4.2554    3.2243 H   0  0  0  0  0  0  0  0  0  0  0  0
    5.0808   -2.9915    2.6011 H   0  0  0  0  0  0  0  0  0  0  0  0
    4.4163   -4.5487    3.1754 H   0  0  0  0  0  0  0  0  0  0  0  0
  1  7  1  0  0  0  0
  2  8  1  0  0  0  0
  2  1  2  0  0  0  0
  3  2  1  0  0  0  0
  4  3  2  0  0  0  0
  4  5  1  0  0  0  0
  5  6  2  0  0  0  0
  6  1  1  0  0  0  0
  6 31  1  0  0  0  0
  9  4  1  0  0  0  0
 10  5  1  0  0  0  0
 12 11  3  0  0  0  0
 13 14  2  0  0  0  0
 14 15  1  0  0  0  0
 14 20  1  0  0  0  0
 15 27  1  0  0  0  0
 16 15  2  0  0  0  0
 17 18  2  0  0  0  0
 17 16  1  0  0  0  0
 18 13  1  0  0  0  0
 19 13  1  0  0  0  0
 21 16  1  0  0  0  0
 22 17  1  0  0  0  0
 23 24  1  0  0  0  0
 23 18  1  0  0  0  0
 24  3  1  0  0  0  0
 25 23  2  0  0  0  0
 26 23  2  0  0  0  0
 27 30  1  0  0  0  0
 27 28  1  0  0  0  0
 29 27  1  0  0  0  0
 31 32  1  0  0  0  0
 32 35  1  0  0  0  0
 32 33  1  0  0  0  0
 34 32  1  0  0  0  0
M  END
