Coordinates from ORCA-job 4-MeO-Ph-N2-OTs-B3LYPG-6-31G_dp-MTMO-d009-169-n800
 OpenBabel09051908173D

 35 35  0  0  0  0  0  0  0  0999 V2000
    3.1638   -3.9163    0.6890 C   0  0  0  0  0  0  0  0  0  0  0  0
    2.2057   -3.9075   -0.3287 C   0  0  0  0  0  0  0  0  0  0  0  0
    2.5045   -4.4575   -1.5703 C   0  0  0  0  0  0  0  0  0  0  0  0
    3.7581   -5.0260   -1.8174 C   0  0  0  0  0  0  0  0  0  0  0  0
    4.7075   -5.0444   -0.8049 C   0  0  0  0  0  0  0  0  0  0  0  0
    4.4192   -4.4897    0.4529 C   0  0  0  0  0  0  0  0  0  0  0  0
    2.9198   -3.4769    1.6484 H   0  0  0  0  0  0  0  0  0  0  0  0
    1.2300   -3.4630   -0.1651 H   0  0  0  0  0  0  0  0  0  0  0  0
    3.9713   -5.4503   -2.7908 H   0  0  0  0  0  0  0  0  0  0  0  0
    5.6882   -5.4789   -0.9656 H   0  0  0  0  0  0  0  0  0  0  0  0
   -6.5634   -4.6912    0.1379 N   0  0  0  0  0  0  0  0  0  0  0  0
   -7.6185   -4.3654    0.0958 N   0  0  0  0  0  0  0  0  0  0  0  0
   -0.0725   -6.9168   -0.7555 C   0  0  0  0  0  0  0  0  0  0  0  0
   -0.9833   -7.1422    0.2737 C   0  0  0  0  0  0  0  0  0  0  0  0
   -2.2263   -6.4910    0.3005 C   0  0  0  0  0  0  0  0  0  0  0  0
   -2.5406   -5.6038   -0.7392 C   0  0  0  0  0  0  0  0  0  0  0  0
   -1.6427   -5.3627   -1.7778 C   0  0  0  0  0  0  0  0  0  0  0  0
   -0.4130   -6.0233   -1.7744 C   0  0  0  0  0  0  0  0  0  0  0  0
    0.8793   -7.4343   -0.7860 H   0  0  0  0  0  0  0  0  0  0  0  0
   -0.7277   -7.8417    1.0657 H   0  0  0  0  0  0  0  0  0  0  0  0
   -3.5046   -5.1032   -0.7393 H   0  0  0  0  0  0  0  0  0  0  0  0
   -1.8935   -4.6899   -2.5908 H   0  0  0  0  0  0  0  0  0  0  0  0
    0.7395   -5.7208   -3.1005 S   0  0  0  0  0  0  0  0  0  0  0  0
    1.5517   -4.3517   -2.5914 O   0  0  0  0  0  0  0  0  0  0  0  0
    0.0168   -5.2536   -4.2740 O   0  0  0  0  0  0  0  0  0  0  0  0
    1.6863   -6.8312   -3.1603 O   0  0  0  0  0  0  0  0  0  0  0  0
   -3.1987   -6.7415    1.4281 C   0  0  0  0  0  0  0  0  0  0  0  0
   -2.8279   -6.3152    2.3676 H   0  0  0  0  0  0  0  0  0  0  0  0
   -4.1742   -6.2950    1.2215 H   0  0  0  0  0  0  0  0  0  0  0  0
   -3.3433   -7.8136    1.5965 H   0  0  0  0  0  0  0  0  0  0  0  0
    5.4260   -4.5569    1.3710 O   0  0  0  0  0  0  0  0  0  0  0  0
    5.2018   -4.0013    2.6568 C   0  0  0  0  0  0  0  0  0  0  0  0
    6.1232   -4.1618    3.2192 H   0  0  0  0  0  0  0  0  0  0  0  0
    4.9951   -2.9247    2.6028 H   0  0  0  0  0  0  0  0  0  0  0  0
    4.3724   -4.4998    3.1752 H   0  0  0  0  0  0  0  0  0  0  0  0
  1  7  1  0  0  0  0
  2  8  1  0  0  0  0
  2  1  2  0  0  0  0
  3  2  1  0  0  0  0
  4  3  2  0  0  0  0
  4  5  1  0  0  0  0
  5  6  2  0  0  0  0
  6  1  1  0  0  0  0
  6 31  1  0  0  0  0
  9  4  1  0  0  0  0
 10  5  1  0  0  0  0
 12 11  3  0  0  0  0
 13 14  2  0  0  0  0
 14 15  1  0  0  0  0
 14 20  1  0  0  0  0
 15 27  1  0  0  0  0
 16 15  2  0  0  0  0
 17 18  2  0  0  0  0
 17 16  1  0  0  0  0
 18 13  1  0  0  0  0
 19 13  1  0  0  0  0
 21 16  1  0  0  0  0
 22 17  1  0  0  0  0
 23 24  1  0  0  0  0
 23 18  1  0  0  0  0
 24  3  1  0  0  0  0
 25 23  2  0  0  0  0
 26 23  2  0  0  0  0
 27 30  1  0  0  0  0
 27 28  1  0  0  0  0
 29 27  1  0  0  0  0
 31 32  1  0  0  0  0
 32 35  1  0  0  0  0
 32 33  1  0  0  0  0
 34 32  1  0  0  0  0
M  END
