Coordinates from ORCA-job 4-MeO-Ph-N2-OTs-B3LYPG-6-31G_dp-MTMO-d009-169-n800
 OpenBabel09051908173D

 35 35  0  0  0  0  0  0  0  0999 V2000
    3.6266   -3.9809    0.6204 C   0  0  0  0  0  0  0  0  0  0  0  0
    2.6606   -3.8825   -0.3852 C   0  0  0  0  0  0  0  0  0  0  0  0
    2.8684   -4.5026   -1.6122 C   0  0  0  0  0  0  0  0  0  0  0  0
    4.0362   -5.2319   -1.8561 C   0  0  0  0  0  0  0  0  0  0  0  0
    4.9930   -5.3377   -0.8561 C   0  0  0  0  0  0  0  0  0  0  0  0
    4.7969   -4.7132    0.3867 C   0  0  0  0  0  0  0  0  0  0  0  0
    3.4554   -3.4858    1.5685 H   0  0  0  0  0  0  0  0  0  0  0  0
    1.7505   -3.3146   -0.2235 H   0  0  0  0  0  0  0  0  0  0  0  0
    4.1779   -5.7094   -2.8179 H   0  0  0  0  0  0  0  0  0  0  0  0
    5.9097   -5.8953   -1.0152 H   0  0  0  0  0  0  0  0  0  0  0  0
  -10.7256   -8.4611    0.3701 N   0  0  0  0  0  0  0  0  0  0  0  0
  -11.6761   -8.9761    0.1398 N   0  0  0  0  0  0  0  0  0  0  0  0
   -0.0866   -6.5018   -0.6740 C   0  0  0  0  0  0  0  0  0  0  0  0
   -1.0193   -6.5122    0.3630 C   0  0  0  0  0  0  0  0  0  0  0  0
   -2.1242   -5.6509    0.3544 C   0  0  0  0  0  0  0  0  0  0  0  0
   -2.2777   -4.7676   -0.7268 C   0  0  0  0  0  0  0  0  0  0  0  0
   -1.3593   -4.7411   -1.7714 C   0  0  0  0  0  0  0  0  0  0  0  0
   -0.2670   -5.6126   -1.7333 C   0  0  0  0  0  0  0  0  0  0  0  0
    0.7604   -7.1787   -0.6737 H   0  0  0  0  0  0  0  0  0  0  0  0
   -0.8869   -7.2046    1.1903 H   0  0  0  0  0  0  0  0  0  0  0  0
   -3.1325   -4.0966   -0.7519 H   0  0  0  0  0  0  0  0  0  0  0  0
   -1.4866   -4.0696   -2.6139 H   0  0  0  0  0  0  0  0  0  0  0  0
    0.9204   -5.5723   -3.0631 S   0  0  0  0  0  0  0  0  0  0  0  0
    1.9227   -4.3091   -2.6270 O   0  0  0  0  0  0  0  0  0  0  0  0
    0.2770   -5.0771   -4.2708 O   0  0  0  0  0  0  0  0  0  0  0  0
    1.6912   -6.8123   -3.0433 O   0  0  0  0  0  0  0  0  0  0  0  0
   -3.1457   -5.6839    1.4652 C   0  0  0  0  0  0  0  0  0  0  0  0
   -3.4219   -4.6739    1.7834 H   0  0  0  0  0  0  0  0  0  0  0  0
   -4.0662   -6.1801    1.1350 H   0  0  0  0  0  0  0  0  0  0  0  0
   -2.7728   -6.2260    2.3380 H   0  0  0  0  0  0  0  0  0  0  0  0
    5.8036   -4.8766    1.2928 O   0  0  0  0  0  0  0  0  0  0  0  0
    5.6687   -4.2649    2.5656 C   0  0  0  0  0  0  0  0  0  0  0  0
    6.5745   -4.5184    3.1191 H   0  0  0  0  0  0  0  0  0  0  0  0
    5.5888   -3.1731    2.4846 H   0  0  0  0  0  0  0  0  0  0  0  0
    4.7956   -4.6486    3.1095 H   0  0  0  0  0  0  0  0  0  0  0  0
  1  7  1  0  0  0  0
  2  8  1  0  0  0  0
  2  1  2  0  0  0  0
  3  2  1  0  0  0  0
  4  3  2  0  0  0  0
  4  5  1  0  0  0  0
  5  6  2  0  0  0  0
  6  1  1  0  0  0  0
  6 31  1  0  0  0  0
  9  4  1  0  0  0  0
 10  5  1  0  0  0  0
 12 11  3  0  0  0  0
 13 19  1  0  0  0  0
 13 14  2  0  0  0  0
 14 20  1  0  0  0  0
 15 14  1  0  0  0  0
 15 27  1  0  0  0  0
 16 15  2  0  0  0  0
 17 18  2  0  0  0  0
 17 16  1  0  0  0  0
 18 13  1  0  0  0  0
 21 16  1  0  0  0  0
 22 17  1  0  0  0  0
 23 26  2  0  0  0  0
 23 24  1  0  0  0  0
 23 18  1  0  0  0  0
 24  3  1  0  0  0  0
 25 23  2  0  0  0  0
 27 28  1  0  0  0  0
 27 30  1  0  0  0  0
 29 27  1  0  0  0  0
 31 32  1  0  0  0  0
 32 35  1  0  0  0  0
 32 33  1  0  0  0  0
 34 32  1  0  0  0  0
M  END
