Coordinates from ORCA-job 4-MeO-Ph-N2-OTs-B3LYPG-6-31G_dp-MTMO-d009-169-n800
 OpenBabel09051908173D

 35 34  0  0  0  0  0  0  0  0999 V2000
    3.9351   -2.7651    0.4452 C   0  0  0  0  0  0  0  0  0  0  0  0
    2.8602   -2.0361   -0.1114 C   0  0  0  0  0  0  0  0  0  0  0  0
    2.1360   -2.8903   -0.8896 C   0  0  0  0  0  0  0  0  0  0  0  0
    2.1851   -4.1107   -1.2096 C   0  0  0  0  0  0  0  0  0  0  0  0
    3.2408   -4.8605   -0.6776 C   0  0  0  0  0  0  0  0  0  0  0  0
    4.1223   -4.1416    0.1687 C   0  0  0  0  0  0  0  0  0  0  0  0
    4.6236   -2.2374    1.0947 H   0  0  0  0  0  0  0  0  0  0  0  0
    2.6841   -0.9846    0.0742 H   0  0  0  0  0  0  0  0  0  0  0  0
    0.8877   -4.9839   -2.3246 H   0  0  0  0  0  0  0  0  0  0  0  0
    3.4174   -5.9147   -0.8639 H   0  0  0  0  0  0  0  0  0  0  0  0
    0.4389   -1.1968   -1.9998 N   0  0  0  0  0  0  0  0  0  0  0  0
   -0.1261   -0.9796   -2.9243 N   0  0  0  0  0  0  0  0  0  0  0  0
   -1.6474   -5.7930    0.0496 C   0  0  0  0  0  0  0  0  0  0  0  0
   -2.0144   -6.6387    1.0944 C   0  0  0  0  0  0  0  0  0  0  0  0
   -2.4590   -7.9456    0.8487 C   0  0  0  0  0  0  0  0  0  0  0  0
   -2.5375   -8.3857   -0.4809 C   0  0  0  0  0  0  0  0  0  0  0  0
   -2.1756   -7.5547   -1.5385 C   0  0  0  0  0  0  0  0  0  0  0  0
   -1.7278   -6.2619   -1.2623 C   0  0  0  0  0  0  0  0  0  0  0  0
   -1.3206   -4.7770    0.2402 H   0  0  0  0  0  0  0  0  0  0  0  0
   -1.9621   -6.2748    2.1174 H   0  0  0  0  0  0  0  0  0  0  0  0
   -2.8950   -9.3899   -0.6912 H   0  0  0  0  0  0  0  0  0  0  0  0
   -2.2552   -7.8900   -2.5669 H   0  0  0  0  0  0  0  0  0  0  0  0
   -1.2552   -5.1908   -2.6130 S   0  0  0  0  0  0  0  0  0  0  0  0
   -1.3082   -3.8055   -2.1394 O   0  0  0  0  0  0  0  0  0  0  0  0
   -1.9678   -5.6171   -3.8095 O   0  0  0  0  0  0  0  0  0  0  0  0
    0.3005   -5.5792   -2.8659 O   0  0  0  0  0  0  0  0  0  0  0  0
   -2.8288   -8.8627    1.9895 C   0  0  0  0  0  0  0  0  0  0  0  0
   -3.5869   -9.5915    1.6883 H   0  0  0  0  0  0  0  0  0  0  0  0
   -1.9546   -9.4269    2.3378 H   0  0  0  0  0  0  0  0  0  0  0  0
   -3.2154   -8.3020    2.8453 H   0  0  0  0  0  0  0  0  0  0  0  0
    5.1452   -4.8801    0.6832 O   0  0  0  0  0  0  0  0  0  0  0  0
    6.0813   -4.2520    1.5453 C   0  0  0  0  0  0  0  0  0  0  0  0
    6.7979   -5.0251    1.8261 H   0  0  0  0  0  0  0  0  0  0  0  0
    6.6119   -3.4352    1.0394 H   0  0  0  0  0  0  0  0  0  0  0  0
    5.5987   -3.8628    2.4512 H   0  0  0  0  0  0  0  0  0  0  0  0
  1  7  1  0  0  0  0
  2  8  1  0  0  0  0
  2  1  2  0  0  0  0
  3  2  1  0  0  0  0
  4  3  2  0  0  0  0
  4  5  1  0  0  0  0
  5  6  2  0  0  0  0
  6  1  1  0  0  0  0
  6 31  1  0  0  0  0
 10  5  1  0  0  0  0
 12 11  3  0  0  0  0
 13 19  1  0  0  0  0
 13 14  2  0  0  0  0
 14 20  1  0  0  0  0
 15 14  1  0  0  0  0
 15 27  1  0  0  0  0
 16 15  2  0  0  0  0
 17 18  2  0  0  0  0
 17 16  1  0  0  0  0
 18 13  1  0  0  0  0
 21 16  1  0  0  0  0
 22 17  1  0  0  0  0
 23 24  2  0  0  0  0
 23 18  1  0  0  0  0
 25 23  2  0  0  0  0
 26 23  1  0  0  0  0
 26  9  1  0  0  0  0
 27 29  1  0  0  0  0
 27 30  1  0  0  0  0
 28 27  1  0  0  0  0
 31 32  1  0  0  0  0
 32 33  1  0  0  0  0
 32 35  1  0  0  0  0
 34 32  1  0  0  0  0
M  RAD  2   3   2   4   2
M  END
