Coordinates from ORCA-job 4-MeO-Ph-N2-OTs-B3LYPG-6-31G_dp-MTMO-d009-169-n800
 OpenBabel09051908173D

 35 35  0  0  0  0  0  0  0  0999 V2000
    3.0027   -3.9555    0.7588 C   0  0  0  0  0  0  0  0  0  0  0  0
    1.8551   -3.8811   -0.0354 C   0  0  0  0  0  0  0  0  0  0  0  0
    1.9187   -4.2168   -1.3833 C   0  0  0  0  0  0  0  0  0  0  0  0
    3.1221   -4.6346   -1.9603 C   0  0  0  0  0  0  0  0  0  0  0  0
    4.2606   -4.7194   -1.1704 C   0  0  0  0  0  0  0  0  0  0  0  0
    4.2109   -4.3793    0.1915 C   0  0  0  0  0  0  0  0  0  0  0  0
    2.9405   -3.6798    1.8044 H   0  0  0  0  0  0  0  0  0  0  0  0
    0.9120   -3.5494    0.3855 H   0  0  0  0  0  0  0  0  0  0  0  0
    3.1511   -4.8937   -3.0116 H   0  0  0  0  0  0  0  0  0  0  0  0
    5.2083   -5.0414   -1.5885 H   0  0  0  0  0  0  0  0  0  0  0  0
   -3.8728   -3.2677   -3.5230 N   0  0  0  0  0  0  0  0  0  0  0  0
   -3.8027   -2.9216   -4.5699 N   0  0  0  0  0  0  0  0  0  0  0  0
   -0.2591   -7.0270   -0.5419 C   0  0  0  0  0  0  0  0  0  0  0  0
   -0.9048   -7.5056    0.5967 C   0  0  0  0  0  0  0  0  0  0  0  0
   -2.1384   -6.9805    1.0064 C   0  0  0  0  0  0  0  0  0  0  0  0
   -2.7218   -5.9611    0.2377 C   0  0  0  0  0  0  0  0  0  0  0  0
   -2.0946   -5.4677   -0.9030 C   0  0  0  0  0  0  0  0  0  0  0  0
   -0.8621   -6.0078   -1.2807 C   0  0  0  0  0  0  0  0  0  0  0  0
    0.6858   -7.4449   -0.8685 H   0  0  0  0  0  0  0  0  0  0  0  0
   -0.4461   -8.3056    1.1717 H   0  0  0  0  0  0  0  0  0  0  0  0
   -3.6858   -5.5553    0.5315 H   0  0  0  0  0  0  0  0  0  0  0  0
   -2.5590   -4.6938   -1.5048 H   0  0  0  0  0  0  0  0  0  0  0  0
   -0.0472   -5.3816   -2.7373 S   0  0  0  0  0  0  0  0  0  0  0  0
    0.7696   -4.0415   -2.1657 O   0  0  0  0  0  0  0  0  0  0  0  0
   -1.0340   -4.8015   -3.6364 O   0  0  0  0  0  0  0  0  0  0  0  0
    0.9295   -6.3686   -3.1895 O   0  0  0  0  0  0  0  0  0  0  0  0
   -2.8184   -7.4872    2.2552 C   0  0  0  0  0  0  0  0  0  0  0  0
   -2.5726   -6.8551    3.1175 H   0  0  0  0  0  0  0  0  0  0  0  0
   -3.9075   -7.4814    2.1483 H   0  0  0  0  0  0  0  0  0  0  0  0
   -2.5036   -8.5058    2.4965 H   0  0  0  0  0  0  0  0  0  0  0  0
    5.3889   -4.4910    0.8703 O   0  0  0  0  0  0  0  0  0  0  0  0
    5.4065   -4.1485    2.2467 C   0  0  0  0  0  0  0  0  0  0  0  0
    6.4331   -4.3027    2.5826 H   0  0  0  0  0  0  0  0  0  0  0  0
    5.1287   -3.0987    2.4066 H   0  0  0  0  0  0  0  0  0  0  0  0
    4.7361   -4.7900    2.8329 H   0  0  0  0  0  0  0  0  0  0  0  0
  1  7  1  0  0  0  0
  2  8  1  0  0  0  0
  2  1  2  0  0  0  0
  3  2  1  0  0  0  0
  4  3  2  0  0  0  0
  4  5  1  0  0  0  0
  5  6  2  0  0  0  0
  6  1  1  0  0  0  0
  6 31  1  0  0  0  0
  9  4  1  0  0  0  0
 10  5  1  0  0  0  0
 12 11  3  0  0  0  0
 13 14  2  0  0  0  0
 14 15  1  0  0  0  0
 14 20  1  0  0  0  0
 15 27  1  0  0  0  0
 16 21  1  0  0  0  0
 16 15  2  0  0  0  0
 17 16  1  0  0  0  0
 18 17  2  0  0  0  0
 18 13  1  0  0  0  0
 19 13  1  0  0  0  0
 22 17  1  0  0  0  0
 23 24  1  0  0  0  0
 23 18  1  0  0  0  0
 24  3  1  0  0  0  0
 25 23  2  0  0  0  0
 26 23  2  0  0  0  0
 27 30  1  0  0  0  0
 27 28  1  0  0  0  0
 29 27  1  0  0  0  0
 31 32  1  0  0  0  0
 32 34  1  0  0  0  0
 32 33  1  0  0  0  0
 32 35  1  0  0  0  0
M  END
