Coordinates from ORCA-job 4-MeO-Ph-N2-OTs-B3LYPG-6-31G_dp-MTMO-d009-169-n800
 OpenBabel09051908173D

 35 35  0  0  0  0  0  0  0  0999 V2000
    3.4332   -4.0568    0.7020 C   0  0  0  0  0  0  0  0  0  0  0  0
    2.4933   -3.9305   -0.3249 C   0  0  0  0  0  0  0  0  0  0  0  0
    2.7357   -4.5112   -1.5649 C   0  0  0  0  0  0  0  0  0  0  0  0
    3.9125   -5.2286   -1.8006 C   0  0  0  0  0  0  0  0  0  0  0  0
    4.8432   -5.3622   -0.7796 C   0  0  0  0  0  0  0  0  0  0  0  0
    4.6123   -4.7775    0.4764 C   0  0  0  0  0  0  0  0  0  0  0  0
    3.2351   -3.5917    1.6600 H   0  0  0  0  0  0  0  0  0  0  0  0
    1.5771   -3.3708   -0.1695 H   0  0  0  0  0  0  0  0  0  0  0  0
    4.0815   -5.6756   -2.7727 H   0  0  0  0  0  0  0  0  0  0  0  0
    5.7662   -5.9113   -0.9320 H   0  0  0  0  0  0  0  0  0  0  0  0
   -7.6561   -7.5547    0.8425 N   0  0  0  0  0  0  0  0  0  0  0  0
   -8.6650   -7.9890    0.7200 N   0  0  0  0  0  0  0  0  0  0  0  0
   -0.2620   -6.5390   -0.7818 C   0  0  0  0  0  0  0  0  0  0  0  0
   -1.2382   -6.5873    0.2128 C   0  0  0  0  0  0  0  0  0  0  0  0
   -2.3525   -5.7380    0.1791 C   0  0  0  0  0  0  0  0  0  0  0  0
   -2.4683   -4.8267   -0.8829 C   0  0  0  0  0  0  0  0  0  0  0  0
   -1.5056   -4.7619   -1.8856 C   0  0  0  0  0  0  0  0  0  0  0  0
   -0.4064   -5.6229   -1.8239 C   0  0  0  0  0  0  0  0  0  0  0  0
    0.5915   -7.2075   -0.7631 H   0  0  0  0  0  0  0  0  0  0  0  0
   -1.1333   -7.3005    1.0263 H   0  0  0  0  0  0  0  0  0  0  0  0
   -3.3283   -4.1633   -0.9268 H   0  0  0  0  0  0  0  0  0  0  0  0
   -1.6041   -4.0687   -2.7143 H   0  0  0  0  0  0  0  0  0  0  0  0
    0.8324   -5.5408   -3.1044 S   0  0  0  0  0  0  0  0  0  0  0  0
    1.8159   -4.2886   -2.5974 O   0  0  0  0  0  0  0  0  0  0  0  0
    0.2332   -5.0130   -4.3210 O   0  0  0  0  0  0  0  0  0  0  0  0
    1.6055   -6.7795   -3.0900 O   0  0  0  0  0  0  0  0  0  0  0  0
   -3.4209   -5.8160    1.2426 C   0  0  0  0  0  0  0  0  0  0  0  0
   -3.7848   -4.8211    1.5164 H   0  0  0  0  0  0  0  0  0  0  0  0
   -4.2863   -6.3906    0.8901 H   0  0  0  0  0  0  0  0  0  0  0  0
   -3.0502   -6.3039    2.1479 H   0  0  0  0  0  0  0  0  0  0  0  0
    5.5956   -4.9657    1.4031 O   0  0  0  0  0  0  0  0  0  0  0  0
    5.4257   -4.3930    2.6898 C   0  0  0  0  0  0  0  0  0  0  0  0
    6.3176   -4.6606    3.2588 H   0  0  0  0  0  0  0  0  0  0  0  0
    5.3441   -3.2995    2.6394 H   0  0  0  0  0  0  0  0  0  0  0  0
    4.5401   -4.7952    3.1990 H   0  0  0  0  0  0  0  0  0  0  0  0
  1  7  1  0  0  0  0
  2  8  1  0  0  0  0
  2  1  2  0  0  0  0
  3  2  1  0  0  0  0
  4  3  2  0  0  0  0
  4  5  1  0  0  0  0
  5  6  2  0  0  0  0
  6  1  1  0  0  0  0
  6 31  1  0  0  0  0
  9  4  1  0  0  0  0
 10  5  1  0  0  0  0
 12 11  3  0  0  0  0
 13 19  1  0  0  0  0
 13 14  2  0  0  0  0
 14 20  1  0  0  0  0
 15 14  1  0  0  0  0
 15 27  1  0  0  0  0
 16 15  2  0  0  0  0
 17 18  2  0  0  0  0
 17 16  1  0  0  0  0
 18 13  1  0  0  0  0
 21 16  1  0  0  0  0
 22 17  1  0  0  0  0
 23 26  2  0  0  0  0
 23 24  1  0  0  0  0
 23 18  1  0  0  0  0
 24  3  1  0  0  0  0
 25 23  2  0  0  0  0
 27 28  1  0  0  0  0
 27 30  1  0  0  0  0
 29 27  1  0  0  0  0
 31 32  1  0  0  0  0
 32 35  1  0  0  0  0
 32 33  1  0  0  0  0
 34 32  1  0  0  0  0
M  END
