Coordinates from ORCA-job 4-MeO-Ph-N2-OTs-B3LYPG-6-31G_dp-MTMO-d009-169-n800
 OpenBabel09051908173D

 35 34  0  0  0  0  0  0  0  0999 V2000
    3.9602   -2.8045    0.4598 C   0  0  0  0  0  0  0  0  0  0  0  0
    2.7930   -2.1907   -0.0495 C   0  0  0  0  0  0  0  0  0  0  0  0
    2.1267   -3.1194   -0.7965 C   0  0  0  0  0  0  0  0  0  0  0  0
    2.3071   -4.3240   -1.1168 C   0  0  0  0  0  0  0  0  0  0  0  0
    3.4498   -4.9688   -0.6373 C   0  0  0  0  0  0  0  0  0  0  0  0
    4.2815   -4.1549    0.1743 C   0  0  0  0  0  0  0  0  0  0  0  0
    4.6153   -2.2074    1.0835 H   0  0  0  0  0  0  0  0  0  0  0  0
    2.5186   -1.1628    0.1463 H   0  0  0  0  0  0  0  0  0  0  0  0
    0.9740   -5.1726   -2.2773 H   0  0  0  0  0  0  0  0  0  0  0  0
    3.7303   -5.9973   -0.8360 H   0  0  0  0  0  0  0  0  0  0  0  0
    0.1909   -1.0574   -1.8628 N   0  0  0  0  0  0  0  0  0  0  0  0
   -0.4467   -0.7512   -2.7115 N   0  0  0  0  0  0  0  0  0  0  0  0
   -1.6747   -5.8192    0.0394 C   0  0  0  0  0  0  0  0  0  0  0  0
   -2.1109   -6.6434    1.0750 C   0  0  0  0  0  0  0  0  0  0  0  0
   -2.6019   -7.9316    0.8200 C   0  0  0  0  0  0  0  0  0  0  0  0
   -2.6569   -8.3746   -0.5099 C   0  0  0  0  0  0  0  0  0  0  0  0
   -2.2269   -7.5650   -1.5584 C   0  0  0  0  0  0  0  0  0  0  0  0
   -1.7330   -6.2911   -1.2725 C   0  0  0  0  0  0  0  0  0  0  0  0
   -1.3102   -4.8175    0.2367 H   0  0  0  0  0  0  0  0  0  0  0  0
   -2.0760   -6.2768    2.0978 H   0  0  0  0  0  0  0  0  0  0  0  0
   -3.0486   -9.3642   -0.7279 H   0  0  0  0  0  0  0  0  0  0  0  0
   -2.2878   -7.9022   -2.5875 H   0  0  0  0  0  0  0  0  0  0  0  0
   -1.1675   -5.2508   -2.6110 S   0  0  0  0  0  0  0  0  0  0  0  0
   -1.1457   -3.8641   -2.1395 O   0  0  0  0  0  0  0  0  0  0  0  0
   -1.8748   -5.6350   -3.8244 O   0  0  0  0  0  0  0  0  0  0  0  0
    0.3686   -5.7351   -2.8275 O   0  0  0  0  0  0  0  0  0  0  0  0
   -3.0440   -8.8276    1.9518 C   0  0  0  0  0  0  0  0  0  0  0  0
   -3.8253   -9.5231    1.6313 H   0  0  0  0  0  0  0  0  0  0  0  0
   -2.2056   -9.4292    2.3247 H   0  0  0  0  0  0  0  0  0  0  0  0
   -3.4285   -8.2476    2.7955 H   0  0  0  0  0  0  0  0  0  0  0  0
    5.3975   -4.7785    0.6463 O   0  0  0  0  0  0  0  0  0  0  0  0
    6.3079   -4.0438    1.4504 C   0  0  0  0  0  0  0  0  0  0  0  0
    7.1146   -4.7345    1.6995 H   0  0  0  0  0  0  0  0  0  0  0  0
    6.7226   -3.1848    0.9077 H   0  0  0  0  0  0  0  0  0  0  0  0
    5.8361   -3.6922    2.3769 H   0  0  0  0  0  0  0  0  0  0  0  0
  1  7  1  0  0  0  0
  2  8  1  0  0  0  0
  2  1  2  0  0  0  0
  3  2  1  0  0  0  0
  4  3  2  0  0  0  0
  4  5  1  0  0  0  0
  5  6  2  0  0  0  0
  6  1  1  0  0  0  0
  6 31  1  0  0  0  0
 10  5  1  0  0  0  0
 12 11  3  0  0  0  0
 13 19  1  0  0  0  0
 13 14  2  0  0  0  0
 14 20  1  0  0  0  0
 15 14  1  0  0  0  0
 15 27  1  0  0  0  0
 16 15  2  0  0  0  0
 17 18  2  0  0  0  0
 17 16  1  0  0  0  0
 18 13  1  0  0  0  0
 21 16  1  0  0  0  0
 22 17  1  0  0  0  0
 23 24  2  0  0  0  0
 23 18  1  0  0  0  0
 25 23  2  0  0  0  0
 26 23  1  0  0  0  0
 26  9  1  0  0  0  0
 27 29  1  0  0  0  0
 27 30  1  0  0  0  0
 28 27  1  0  0  0  0
 31 32  1  0  0  0  0
 32 33  1  0  0  0  0
 32 35  1  0  0  0  0
 34 32  1  0  0  0  0
M  RAD  2   3   2   4   2
M  END
