Coordinates from ORCA-job 4-MeO-Ph-N2-OTs-B3LYPG-6-31G_dp-MTMO-d009-169-n800
 OpenBabel09051908173D

 35 35  0  0  0  0  0  0  0  0999 V2000
    3.4496   -4.0465    0.6982 C   0  0  0  0  0  0  0  0  0  0  0  0
    2.5200   -3.9164   -0.3376 C   0  0  0  0  0  0  0  0  0  0  0  0
    2.7716   -4.4986   -1.5750 C   0  0  0  0  0  0  0  0  0  0  0  0
    3.9476   -5.2210   -1.7994 C   0  0  0  0  0  0  0  0  0  0  0  0
    4.8680   -5.3584   -0.7697 C   0  0  0  0  0  0  0  0  0  0  0  0
    4.6277   -4.7722    0.4840 C   0  0  0  0  0  0  0  0  0  0  0  0
    3.2444   -3.5802    1.6541 H   0  0  0  0  0  0  0  0  0  0  0  0
    1.6048   -3.3528   -0.1910 H   0  0  0  0  0  0  0  0  0  0  0  0
    4.1238   -5.6688   -2.7698 H   0  0  0  0  0  0  0  0  0  0  0  0
    5.7901   -5.9113   -0.9133 H   0  0  0  0  0  0  0  0  0  0  0  0
   -8.2356   -7.7227    0.9926 N   0  0  0  0  0  0  0  0  0  0  0  0
   -9.2649   -8.1173    0.9128 N   0  0  0  0  0  0  0  0  0  0  0  0
   -0.2117   -6.5312   -0.8124 C   0  0  0  0  0  0  0  0  0  0  0  0
   -1.1845   -6.5823    0.1853 C   0  0  0  0  0  0  0  0  0  0  0  0
   -2.2970   -5.7304    0.1593 C   0  0  0  0  0  0  0  0  0  0  0  0
   -2.4147   -4.8137   -0.8978 C   0  0  0  0  0  0  0  0  0  0  0  0
   -1.4553   -4.7461   -1.9034 C   0  0  0  0  0  0  0  0  0  0  0  0
   -0.3578   -5.6097   -1.8495 C   0  0  0  0  0  0  0  0  0  0  0  0
    0.6408   -7.2012   -0.7997 H   0  0  0  0  0  0  0  0  0  0  0  0
   -1.0784   -7.2997    0.9950 H   0  0  0  0  0  0  0  0  0  0  0  0
   -3.2735   -4.1485   -0.9355 H   0  0  0  0  0  0  0  0  0  0  0  0
   -1.5549   -4.0484   -2.7282 H   0  0  0  0  0  0  0  0  0  0  0  0
    0.8790   -5.5211   -3.1311 S   0  0  0  0  0  0  0  0  0  0  0  0
    1.8627   -4.2723   -2.6164 O   0  0  0  0  0  0  0  0  0  0  0  0
    0.2797   -4.9859   -4.3444 O   0  0  0  0  0  0  0  0  0  0  0  0
    1.6517   -6.7602   -3.1249 O   0  0  0  0  0  0  0  0  0  0  0  0
   -3.3633   -5.8134    1.2246 C   0  0  0  0  0  0  0  0  0  0  0  0
   -3.7361   -4.8210    1.4952 H   0  0  0  0  0  0  0  0  0  0  0  0
   -4.2229   -6.3970    0.8728 H   0  0  0  0  0  0  0  0  0  0  0  0
   -2.9883   -6.2957    2.1311 H   0  0  0  0  0  0  0  0  0  0  0  0
    5.6013   -4.9644    1.4200 O   0  0  0  0  0  0  0  0  0  0  0  0
    5.4221   -4.3900    2.7046 C   0  0  0  0  0  0  0  0  0  0  0  0
    6.3075   -4.6611    3.2821 H   0  0  0  0  0  0  0  0  0  0  0  0
    5.3460   -3.2961    2.6526 H   0  0  0  0  0  0  0  0  0  0  0  0
    4.5301   -4.7877    3.2059 H   0  0  0  0  0  0  0  0  0  0  0  0
  1  7  1  0  0  0  0
  2  8  1  0  0  0  0
  2  1  2  0  0  0  0
  3  2  1  0  0  0  0
  4  3  2  0  0  0  0
  4  5  1  0  0  0  0
  5  6  2  0  0  0  0
  6  1  1  0  0  0  0
  6 31  1  0  0  0  0
  9  4  1  0  0  0  0
 10  5  1  0  0  0  0
 12 11  3  0  0  0  0
 13 19  1  0  0  0  0
 13 14  2  0  0  0  0
 14 20  1  0  0  0  0
 15 14  1  0  0  0  0
 15 27  1  0  0  0  0
 16 15  2  0  0  0  0
 17 18  2  0  0  0  0
 17 16  1  0  0  0  0
 18 13  1  0  0  0  0
 21 16  1  0  0  0  0
 22 17  1  0  0  0  0
 23 26  2  0  0  0  0
 23 24  1  0  0  0  0
 23 18  1  0  0  0  0
 24  3  1  0  0  0  0
 25 23  2  0  0  0  0
 27 28  1  0  0  0  0
 27 30  1  0  0  0  0
 29 27  1  0  0  0  0
 31 32  1  0  0  0  0
 32 35  1  0  0  0  0
 32 33  1  0  0  0  0
 34 32  1  0  0  0  0
M  END
