Coordinates from ORCA-job 4-MeO-Ph-N2-OTs-B3LYPG-6-31G_dp-MTMO-d009-169-n800
 OpenBabel09051908173D

 35 35  0  0  0  0  0  0  0  0999 V2000
    3.1439   -3.9237    0.7092 C   0  0  0  0  0  0  0  0  0  0  0  0
    2.1636   -3.9091   -0.2869 C   0  0  0  0  0  0  0  0  0  0  0  0
    2.4443   -4.4257   -1.5470 C   0  0  0  0  0  0  0  0  0  0  0  0
    3.7014   -4.9667   -1.8339 C   0  0  0  0  0  0  0  0  0  0  0  0
    4.6731   -4.9911   -0.8430 C   0  0  0  0  0  0  0  0  0  0  0  0
    4.4035   -4.4695    0.4328 C   0  0  0  0  0  0  0  0  0  0  0  0
    2.9139   -3.5099    1.6833 H   0  0  0  0  0  0  0  0  0  0  0  0
    1.1843   -3.4854   -0.0922 H   0  0  0  0  0  0  0  0  0  0  0  0
    3.9002   -5.3656   -2.8211 H   0  0  0  0  0  0  0  0  0  0  0  0
    5.6572   -5.4051   -1.0347 H   0  0  0  0  0  0  0  0  0  0  0  0
   -6.3346   -4.4514   -0.2797 N   0  0  0  0  0  0  0  0  0  0  0  0
   -7.3507   -4.0470   -0.4389 N   0  0  0  0  0  0  0  0  0  0  0  0
   -0.0860   -6.9659   -0.7532 C   0  0  0  0  0  0  0  0  0  0  0  0
   -0.9723   -7.2302    0.2894 C   0  0  0  0  0  0  0  0  0  0  0  0
   -2.2112   -6.5783    0.3729 C   0  0  0  0  0  0  0  0  0  0  0  0
   -2.5506   -5.6515   -0.6250 C   0  0  0  0  0  0  0  0  0  0  0  0
   -1.6789   -5.3725   -1.6749 C   0  0  0  0  0  0  0  0  0  0  0  0
   -0.4497   -6.0342   -1.7274 C   0  0  0  0  0  0  0  0  0  0  0  0
    0.8628   -7.4846   -0.8280 H   0  0  0  0  0  0  0  0  0  0  0  0
   -0.7005   -7.9619    1.0460 H   0  0  0  0  0  0  0  0  0  0  0  0
   -3.5144   -5.1521   -0.5837 H   0  0  0  0  0  0  0  0  0  0  0  0
   -1.9490   -4.6704   -2.4563 H   0  0  0  0  0  0  0  0  0  0  0  0
    0.6687   -5.6825   -3.0703 S   0  0  0  0  0  0  0  0  0  0  0  0
    1.4681   -4.3123   -2.5449 O   0  0  0  0  0  0  0  0  0  0  0  0
   -0.0861   -5.1994   -4.2168 O   0  0  0  0  0  0  0  0  0  0  0  0
    1.6317   -6.7753   -3.1775 O   0  0  0  0  0  0  0  0  0  0  0  0
   -3.1536   -6.8558    1.5190 C   0  0  0  0  0  0  0  0  0  0  0  0
   -2.9249   -6.2121    2.3775 H   0  0  0  0  0  0  0  0  0  0  0  0
   -4.1928   -6.6650    1.2369 H   0  0  0  0  0  0  0  0  0  0  0  0
   -3.0747   -7.8920    1.8602 H   0  0  0  0  0  0  0  0  0  0  0  0
    5.4315   -4.5390    1.3269 O   0  0  0  0  0  0  0  0  0  0  0  0
    5.2274   -4.0133    2.6286 C   0  0  0  0  0  0  0  0  0  0  0  0
    6.1637   -4.1698    3.1671 H   0  0  0  0  0  0  0  0  0  0  0  0
    5.0024   -2.9393    2.6013 H   0  0  0  0  0  0  0  0  0  0  0  0
    4.4180   -4.5356    3.1549 H   0  0  0  0  0  0  0  0  0  0  0  0
  1  7  1  0  0  0  0
  2  8  1  0  0  0  0
  2  1  2  0  0  0  0
  3  2  1  0  0  0  0
  4  3  2  0  0  0  0
  4  5  1  0  0  0  0
  5  6  2  0  0  0  0
  6  1  1  0  0  0  0
  6 31  1  0  0  0  0
  9  4  1  0  0  0  0
 10  5  1  0  0  0  0
 12 11  3  0  0  0  0
 13 14  2  0  0  0  0
 14 15  1  0  0  0  0
 14 20  1  0  0  0  0
 15 27  1  0  0  0  0
 16 21  1  0  0  0  0
 16 15  2  0  0  0  0
 17 16  1  0  0  0  0
 18 17  2  0  0  0  0
 18 13  1  0  0  0  0
 19 13  1  0  0  0  0
 22 17  1  0  0  0  0
 23 24  1  0  0  0  0
 23 18  1  0  0  0  0
 24  3  1  0  0  0  0
 25 23  2  0  0  0  0
 26 23  2  0  0  0  0
 27 30  1  0  0  0  0
 27 28  1  0  0  0  0
 29 27  1  0  0  0  0
 31 32  1  0  0  0  0
 32 35  1  0  0  0  0
 32 33  1  0  0  0  0
 34 32  1  0  0  0  0
M  END
