Coordinates from ORCA-job 4-MeO-Ph-N2-OTs-B3LYPG-6-31G_dp-MTMO-d009-169-n800
 OpenBabel09051908173D

 35 35  0  0  0  0  0  0  0  0999 V2000
    3.5608   -4.0153    0.6390 C   0  0  0  0  0  0  0  0  0  0  0  0
    2.6058   -3.9039   -0.3756 C   0  0  0  0  0  0  0  0  0  0  0  0
    2.8201   -4.5208   -1.6031 C   0  0  0  0  0  0  0  0  0  0  0  0
    3.9835   -5.2598   -1.8385 C   0  0  0  0  0  0  0  0  0  0  0  0
    4.9294   -5.3784   -0.8296 C   0  0  0  0  0  0  0  0  0  0  0  0
    4.7267   -4.7572    0.4138 C   0  0  0  0  0  0  0  0  0  0  0  0
    3.3847   -3.5225    1.5874 H   0  0  0  0  0  0  0  0  0  0  0  0
    1.6993   -3.3284   -0.2205 H   0  0  0  0  0  0  0  0  0  0  0  0
    4.1305   -5.7346   -2.8010 H   0  0  0  0  0  0  0  0  0  0  0  0
    5.8426   -5.9436   -0.9821 H   0  0  0  0  0  0  0  0  0  0  0  0
   -9.6138   -8.2605    0.5121 N   0  0  0  0  0  0  0  0  0  0  0  0
  -10.5623   -8.7785    0.2806 N   0  0  0  0  0  0  0  0  0  0  0  0
   -0.1619   -6.4990   -0.7045 C   0  0  0  0  0  0  0  0  0  0  0  0
   -1.1046   -6.5064    0.3232 C   0  0  0  0  0  0  0  0  0  0  0  0
   -2.2017   -5.6350    0.3084 C   0  0  0  0  0  0  0  0  0  0  0  0
   -2.3363   -4.7444   -0.7691 C   0  0  0  0  0  0  0  0  0  0  0  0
   -1.4075   -4.7207   -1.8047 C   0  0  0  0  0  0  0  0  0  0  0  0
   -0.3238   -5.6024   -1.7607 C   0  0  0  0  0  0  0  0  0  0  0  0
    0.6791   -7.1834   -0.6996 H   0  0  0  0  0  0  0  0  0  0  0  0
   -0.9866   -7.2043    1.1481 H   0  0  0  0  0  0  0  0  0  0  0  0
   -3.1844   -4.0651   -0.7986 H   0  0  0  0  0  0  0  0  0  0  0  0
   -1.5202   -4.0433   -2.6444 H   0  0  0  0  0  0  0  0  0  0  0  0
    0.8770   -5.5659   -3.0787 S   0  0  0  0  0  0  0  0  0  0  0  0
    1.8864   -4.3141   -2.6265 O   0  0  0  0  0  0  0  0  0  0  0  0
    0.2500   -5.0589   -4.2901 O   0  0  0  0  0  0  0  0  0  0  0  0
    1.6363   -6.8130   -3.0578 O   0  0  0  0  0  0  0  0  0  0  0  0
   -3.2351   -5.6671    1.4082 C   0  0  0  0  0  0  0  0  0  0  0  0
   -3.5400   -4.6575    1.6995 H   0  0  0  0  0  0  0  0  0  0  0  0
   -4.1387   -6.1946    1.0795 H   0  0  0  0  0  0  0  0  0  0  0  0
   -2.8594   -6.1798    2.2975 H   0  0  0  0  0  0  0  0  0  0  0  0
    5.7229   -4.9334    1.3291 O   0  0  0  0  0  0  0  0  0  0  0  0
    5.5810   -4.3256    2.6029 C   0  0  0  0  0  0  0  0  0  0  0  0
    6.4792   -4.5891    3.1641 H   0  0  0  0  0  0  0  0  0  0  0  0
    5.5113   -3.2328    2.5255 H   0  0  0  0  0  0  0  0  0  0  0  0
    4.6994   -4.7038    3.1369 H   0  0  0  0  0  0  0  0  0  0  0  0
  1  7  1  0  0  0  0
  2  8  1  0  0  0  0
  2  1  2  0  0  0  0
  3  2  1  0  0  0  0
  4  3  2  0  0  0  0
  4  5  1  0  0  0  0
  5  6  2  0  0  0  0
  6  1  1  0  0  0  0
  6 31  1  0  0  0  0
  9  4  1  0  0  0  0
 10  5  1  0  0  0  0
 12 11  3  0  0  0  0
 13 19  1  0  0  0  0
 13 14  2  0  0  0  0
 14 20  1  0  0  0  0
 15 14  1  0  0  0  0
 15 27  1  0  0  0  0
 16 15  2  0  0  0  0
 17 18  2  0  0  0  0
 17 16  1  0  0  0  0
 18 13  1  0  0  0  0
 21 16  1  0  0  0  0
 22 17  1  0  0  0  0
 23 26  2  0  0  0  0
 23 24  1  0  0  0  0
 23 18  1  0  0  0  0
 24  3  1  0  0  0  0
 25 23  2  0  0  0  0
 27 28  1  0  0  0  0
 27 30  1  0  0  0  0
 29 27  1  0  0  0  0
 31 32  1  0  0  0  0
 32 35  1  0  0  0  0
 32 33  1  0  0  0  0
 34 32  1  0  0  0  0
M  END
