Coordinates from ORCA-job 4-MeO-Ph-N2-OTs-B3LYPG-6-31G_dp-MTMO-d009-169-n800
 OpenBabel09051908173D

 35 35  0  0  0  0  0  0  0  0999 V2000
    2.8049   -3.8676    0.6093 C   0  0  0  0  0  0  0  0  0  0  0  0
    1.6614   -3.9170   -0.1929 C   0  0  0  0  0  0  0  0  0  0  0  0
    1.7573   -4.3332   -1.5161 C   0  0  0  0  0  0  0  0  0  0  0  0
    2.9891   -4.7107   -2.0599 C   0  0  0  0  0  0  0  0  0  0  0  0
    4.1242   -4.6723   -1.2619 C   0  0  0  0  0  0  0  0  0  0  0  0
    4.0420   -4.2494    0.0751 C   0  0  0  0  0  0  0  0  0  0  0  0
    2.7170   -3.5311    1.6348 H   0  0  0  0  0  0  0  0  0  0  0  0
    0.6960   -3.6199    0.2025 H   0  0  0  0  0  0  0  0  0  0  0  0
    3.0422   -5.0345   -3.0920 H   0  0  0  0  0  0  0  0  0  0  0  0
    5.0936   -4.9602   -1.6542 H   0  0  0  0  0  0  0  0  0  0  0  0
   -2.3446   -2.3892   -2.8272 N   0  0  0  0  0  0  0  0  0  0  0  0
   -1.9214   -1.7888   -3.6525 N   0  0  0  0  0  0  0  0  0  0  0  0
   -0.3257   -7.2836   -0.5413 C   0  0  0  0  0  0  0  0  0  0  0  0
   -0.9554   -7.7116    0.6274 C   0  0  0  0  0  0  0  0  0  0  0  0
   -2.1571   -7.1344    1.0571 C   0  0  0  0  0  0  0  0  0  0  0  0
   -2.7257   -6.1108    0.2805 C   0  0  0  0  0  0  0  0  0  0  0  0
   -2.1161   -5.6700   -0.8894 C   0  0  0  0  0  0  0  0  0  0  0  0
   -0.9146   -6.2644   -1.2887 C   0  0  0  0  0  0  0  0  0  0  0  0
    0.5975   -7.7376   -0.8816 H   0  0  0  0  0  0  0  0  0  0  0  0
   -0.5072   -8.5111    1.2109 H   0  0  0  0  0  0  0  0  0  0  0  0
   -3.6633   -5.6602    0.5942 H   0  0  0  0  0  0  0  0  0  0  0  0
   -2.5636   -4.8872   -1.4924 H   0  0  0  0  0  0  0  0  0  0  0  0
   -0.1258   -5.7071   -2.7877 S   0  0  0  0  0  0  0  0  0  0  0  0
    0.6073   -4.2825   -2.3148 O   0  0  0  0  0  0  0  0  0  0  0  0
   -1.1356   -5.2512   -3.7317 O   0  0  0  0  0  0  0  0  0  0  0  0
    0.9071   -6.6692   -3.1612 O   0  0  0  0  0  0  0  0  0  0  0  0
   -2.8287   -7.5901    2.3297 C   0  0  0  0  0  0  0  0  0  0  0  0
   -2.7467   -6.8259    3.1126 H   0  0  0  0  0  0  0  0  0  0  0  0
   -3.8962   -7.7752    2.1716 H   0  0  0  0  0  0  0  0  0  0  0  0
   -2.3783   -8.5084    2.7137 H   0  0  0  0  0  0  0  0  0  0  0  0
    5.2195   -4.2431    0.7638 O   0  0  0  0  0  0  0  0  0  0  0  0
    5.2054   -3.8174    2.1169 C   0  0  0  0  0  0  0  0  0  0  0  0
    6.2367   -3.8884    2.4659 H   0  0  0  0  0  0  0  0  0  0  0  0
    4.8644   -2.7783    2.2117 H   0  0  0  0  0  0  0  0  0  0  0  0
    4.5701   -4.4616    2.7383 H   0  0  0  0  0  0  0  0  0  0  0  0
  1  7  1  0  0  0  0
  2  8  1  0  0  0  0
  2  1  2  0  0  0  0
  3  2  1  0  0  0  0
  4  3  2  0  0  0  0
  4  5  1  0  0  0  0
  5  6  2  0  0  0  0
  6  1  1  0  0  0  0
  6 31  1  0  0  0  0
  9  4  1  0  0  0  0
 10  5  1  0  0  0  0
 12 11  3  0  0  0  0
 13 14  2  0  0  0  0
 14 15  1  0  0  0  0
 14 20  1  0  0  0  0
 15 27  1  0  0  0  0
 16 21  1  0  0  0  0
 16 15  2  0  0  0  0
 17 16  1  0  0  0  0
 18 17  2  0  0  0  0
 18 13  1  0  0  0  0
 19 13  1  0  0  0  0
 22 17  1  0  0  0  0
 23 24  1  0  0  0  0
 23 18  1  0  0  0  0
 24  3  1  0  0  0  0
 25 23  2  0  0  0  0
 26 23  2  0  0  0  0
 27 30  1  0  0  0  0
 27 28  1  0  0  0  0
 29 27  1  0  0  0  0
 31 32  1  0  0  0  0
 32 34  1  0  0  0  0
 32 33  1  0  0  0  0
 32 35  1  0  0  0  0
M  END
