Coordinates from ORCA-job 4-MeO-Ph-N2-OTs-B3LYPG-6-31G_dp-MTMO-d009-169-n800
 OpenBabel09051908173D

 35 34  0  0  0  0  0  0  0  0999 V2000
    3.9913   -2.8120    0.4389 C   0  0  0  0  0  0  0  0  0  0  0  0
    2.7786   -2.2736   -0.0494 C   0  0  0  0  0  0  0  0  0  0  0  0
    2.1418   -3.2558   -0.7535 C   0  0  0  0  0  0  0  0  0  0  0  0
    2.3834   -4.4546   -1.0527 C   0  0  0  0  0  0  0  0  0  0  0  0
    3.5706   -5.0276   -0.5931 C   0  0  0  0  0  0  0  0  0  0  0  0
    4.3782   -4.1497    0.1752 C   0  0  0  0  0  0  0  0  0  0  0  0
    4.6296   -2.1656    1.0301 H   0  0  0  0  0  0  0  0  0  0  0  0
    2.4546   -1.2575    0.1312 H   0  0  0  0  0  0  0  0  0  0  0  0
    1.0404   -5.3001   -2.2233 H   0  0  0  0  0  0  0  0  0  0  0  0
    3.9026   -6.0431   -0.7783 H   0  0  0  0  0  0  0  0  0  0  0  0
    0.0651   -1.0163   -1.7181 N   0  0  0  0  0  0  0  0  0  0  0  0
   -0.6407   -0.6770   -2.4974 N   0  0  0  0  0  0  0  0  0  0  0  0
   -1.6892   -5.8455    0.0438 C   0  0  0  0  0  0  0  0  0  0  0  0
   -2.1780   -6.6572    1.0660 C   0  0  0  0  0  0  0  0  0  0  0  0
   -2.7038   -7.9282    0.7951 C   0  0  0  0  0  0  0  0  0  0  0  0
   -2.7401   -8.3663   -0.5372 C   0  0  0  0  0  0  0  0  0  0  0  0
   -2.2584   -7.5689   -1.5723 C   0  0  0  0  0  0  0  0  0  0  0  0
   -1.7302   -6.3123   -1.2704 C   0  0  0  0  0  0  0  0  0  0  0  0
   -1.2964   -4.8569    0.2531 H   0  0  0  0  0  0  0  0  0  0  0  0
   -2.1566   -6.2942    2.0903 H   0  0  0  0  0  0  0  0  0  0  0  0
   -3.1575   -9.3425   -0.7679 H   0  0  0  0  0  0  0  0  0  0  0  0
   -2.3046   -7.9019   -2.6035 H   0  0  0  0  0  0  0  0  0  0  0  0
   -1.0959   -5.2900   -2.5915 S   0  0  0  0  0  0  0  0  0  0  0  0
   -1.0240   -3.9075   -2.1121 O   0  0  0  0  0  0  0  0  0  0  0  0
   -1.7957   -5.6371   -3.8203 O   0  0  0  0  0  0  0  0  0  0  0  0
    0.4219   -5.8393   -2.7811 O   0  0  0  0  0  0  0  0  0  0  0  0
   -3.2022   -8.8128    1.9122 C   0  0  0  0  0  0  0  0  0  0  0  0
   -4.0145   -9.4642    1.5761 H   0  0  0  0  0  0  0  0  0  0  0  0
   -2.3993   -9.4607    2.2857 H   0  0  0  0  0  0  0  0  0  0  0  0
   -3.5656   -8.2236    2.7588 H   0  0  0  0  0  0  0  0  0  0  0  0
    5.5400   -4.6999    0.6279 O   0  0  0  0  0  0  0  0  0  0  0  0
    6.4357   -3.8945    1.3792 C   0  0  0  0  0  0  0  0  0  0  0  0
    7.2864   -4.5338    1.6189 H   0  0  0  0  0  0  0  0  0  0  0  0
    6.7853   -3.0312    0.7987 H   0  0  0  0  0  0  0  0  0  0  0  0
    5.9769   -3.5414    2.3116 H   0  0  0  0  0  0  0  0  0  0  0  0
  1  7  1  0  0  0  0
  2  8  1  0  0  0  0
  2  1  2  0  0  0  0
  3  2  1  0  0  0  0
  4  3  2  0  0  0  0
  4  5  1  0  0  0  0
  5  6  2  0  0  0  0
  6  1  1  0  0  0  0
  6 31  1  0  0  0  0
 10  5  1  0  0  0  0
 12 11  3  0  0  0  0
 13 19  1  0  0  0  0
 13 14  2  0  0  0  0
 14 20  1  0  0  0  0
 15 14  1  0  0  0  0
 15 27  1  0  0  0  0
 16 15  2  0  0  0  0
 17 18  2  0  0  0  0
 17 16  1  0  0  0  0
 18 13  1  0  0  0  0
 21 16  1  0  0  0  0
 22 17  1  0  0  0  0
 23 24  2  0  0  0  0
 23 18  1  0  0  0  0
 25 23  2  0  0  0  0
 26 23  1  0  0  0  0
 26  9  1  0  0  0  0
 27 29  1  0  0  0  0
 27 30  1  0  0  0  0
 28 27  1  0  0  0  0
 31 32  1  0  0  0  0
 32 33  1  0  0  0  0
 32 35  1  0  0  0  0
 34 32  1  0  0  0  0
M  RAD  2   3   2   4   2
M  END
