Coordinates from ORCA-job 4-MeO-Ph-N2-OTs-B3LYPG-6-31G_dp-MTMO-d009-169-n800
 OpenBabel09051908173D

 35 35  0  0  0  0  0  0  0  0999 V2000
    3.6759   -3.9562    0.6097 C   0  0  0  0  0  0  0  0  0  0  0  0
    2.7041   -3.8655   -0.3910 C   0  0  0  0  0  0  0  0  0  0  0  0
    2.9091   -4.4868   -1.6179 C   0  0  0  0  0  0  0  0  0  0  0  0
    4.0799   -5.2097   -1.8665 C   0  0  0  0  0  0  0  0  0  0  0  0
    5.0425   -5.3079   -0.8714 C   0  0  0  0  0  0  0  0  0  0  0  0
    4.8493   -4.6820    0.3711 C   0  0  0  0  0  0  0  0  0  0  0  0
    3.5069   -3.4603    1.5577 H   0  0  0  0  0  0  0  0  0  0  0  0
    1.7915   -3.3027   -0.2256 H   0  0  0  0  0  0  0  0  0  0  0  0
    4.2194   -5.6882   -2.8282 H   0  0  0  0  0  0  0  0  0  0  0  0
    5.9616   -5.8604   -1.0343 H   0  0  0  0  0  0  0  0  0  0  0  0
  -11.5886   -8.6203    0.3073 N   0  0  0  0  0  0  0  0  0  0  0  0
  -12.5360   -9.1392    0.0732 N   0  0  0  0  0  0  0  0  0  0  0  0
   -0.0278   -6.5017   -0.6592 C   0  0  0  0  0  0  0  0  0  0  0  0
   -0.9546   -6.5156    0.3831 C   0  0  0  0  0  0  0  0  0  0  0  0
   -2.0649   -5.6613    0.3789 C   0  0  0  0  0  0  0  0  0  0  0  0
   -2.2301   -4.7816   -0.7035 C   0  0  0  0  0  0  0  0  0  0  0  0
   -1.3178   -4.7516   -1.7533 C   0  0  0  0  0  0  0  0  0  0  0  0
   -0.2198   -5.6162   -1.7194 C   0  0  0  0  0  0  0  0  0  0  0  0
    0.8234   -7.1733   -0.6621 H   0  0  0  0  0  0  0  0  0  0  0  0
   -0.8132   -7.2053    1.2112 H   0  0  0  0  0  0  0  0  0  0  0  0
   -3.0894   -4.1161   -0.7255 H   0  0  0  0  0  0  0  0  0  0  0  0
   -1.4543   -4.0831   -2.5967 H   0  0  0  0  0  0  0  0  0  0  0  0
    0.9598   -5.5713   -3.0560 S   0  0  0  0  0  0  0  0  0  0  0  0
    1.9567   -4.3011   -2.6279 O   0  0  0  0  0  0  0  0  0  0  0  0
    0.3066   -5.0826   -4.2611 O   0  0  0  0  0  0  0  0  0  0  0  0
    1.7384   -6.8066   -3.0380 O   0  0  0  0  0  0  0  0  0  0  0  0
   -3.0794   -5.6970    1.4960 C   0  0  0  0  0  0  0  0  0  0  0  0
   -3.3452   -4.6877    1.8256 H   0  0  0  0  0  0  0  0  0  0  0  0
   -4.0062   -6.1820    1.1670 H   0  0  0  0  0  0  0  0  0  0  0  0
   -2.7053   -6.2504    2.3611 H   0  0  0  0  0  0  0  0  0  0  0  0
    5.8616   -4.8378    1.2723 O   0  0  0  0  0  0  0  0  0  0  0  0
    5.7299   -4.2245    2.5446 C   0  0  0  0  0  0  0  0  0  0  0  0
    6.6399   -4.4720    3.0939 H   0  0  0  0  0  0  0  0  0  0  0  0
    5.6436   -3.1333    2.4620 H   0  0  0  0  0  0  0  0  0  0  0  0
    4.8618   -4.6120    3.0937 H   0  0  0  0  0  0  0  0  0  0  0  0
  1  7  1  0  0  0  0
  2  8  1  0  0  0  0
  2  1  2  0  0  0  0
  3  2  1  0  0  0  0
  4  3  2  0  0  0  0
  4  5  1  0  0  0  0
  5  6  2  0  0  0  0
  6  1  1  0  0  0  0
  6 31  1  0  0  0  0
  9  4  1  0  0  0  0
 10  5  1  0  0  0  0
 12 11  3  0  0  0  0
 13 14  2  0  0  0  0
 14 20  1  0  0  0  0
 15 14  1  0  0  0  0
 15 27  1  0  0  0  0
 16 15  2  0  0  0  0
 17 18  2  0  0  0  0
 17 16  1  0  0  0  0
 18 13  1  0  0  0  0
 19 13  1  0  0  0  0
 21 16  1  0  0  0  0
 22 17  1  0  0  0  0
 23 26  2  0  0  0  0
 23 24  1  0  0  0  0
 23 18  1  0  0  0  0
 24  3  1  0  0  0  0
 25 23  2  0  0  0  0
 27 28  1  0  0  0  0
 27 30  1  0  0  0  0
 29 27  1  0  0  0  0
 31 32  1  0  0  0  0
 32 35  1  0  0  0  0
 32 33  1  0  0  0  0
 34 32  1  0  0  0  0
M  END
