Coordinates from ORCA-job 4-MeO-Ph-N2-OTs-B3LYPG-6-31G_dp-MTMO-d009-169-n800
 OpenBabel09051908173D

 35 35  0  0  0  0  0  0  0  0999 V2000
    2.7977   -3.8638    0.6043 C   0  0  0  0  0  0  0  0  0  0  0  0
    1.6546   -3.9158   -0.1984 C   0  0  0  0  0  0  0  0  0  0  0  0
    1.7515   -4.3353   -1.5205 C   0  0  0  0  0  0  0  0  0  0  0  0
    2.9837   -4.7136   -2.0627 C   0  0  0  0  0  0  0  0  0  0  0  0
    4.1184   -4.6725   -1.2642 C   0  0  0  0  0  0  0  0  0  0  0  0
    4.0352   -4.2463    0.0717 C   0  0  0  0  0  0  0  0  0  0  0  0
    2.7091   -3.5248    1.6288 H   0  0  0  0  0  0  0  0  0  0  0  0
    0.6889   -3.6183    0.1956 H   0  0  0  0  0  0  0  0  0  0  0  0
    3.0375   -5.0399   -3.0940 H   0  0  0  0  0  0  0  0  0  0  0  0
    5.0882   -4.9610   -1.6552 H   0  0  0  0  0  0  0  0  0  0  0  0
   -2.2849   -2.3762   -2.7967 N   0  0  0  0  0  0  0  0  0  0  0  0
   -1.8557   -1.7751   -3.6183 N   0  0  0  0  0  0  0  0  0  0  0  0
   -0.3277   -7.2885   -0.5427 C   0  0  0  0  0  0  0  0  0  0  0  0
   -0.9561   -7.7157    0.6269 C   0  0  0  0  0  0  0  0  0  0  0  0
   -2.1570   -7.1379    1.0579 C   0  0  0  0  0  0  0  0  0  0  0  0
   -2.7261   -6.1143    0.2816 C   0  0  0  0  0  0  0  0  0  0  0  0
   -2.1178   -5.6744   -0.8893 C   0  0  0  0  0  0  0  0  0  0  0  0
   -0.9170   -6.2694   -1.2898 C   0  0  0  0  0  0  0  0  0  0  0  0
    0.5950   -7.7430   -0.8839 H   0  0  0  0  0  0  0  0  0  0  0  0
   -0.5075   -8.5152    1.2103 H   0  0  0  0  0  0  0  0  0  0  0  0
   -3.6631   -5.6632    0.5962 H   0  0  0  0  0  0  0  0  0  0  0  0
   -2.5655   -4.8915   -1.4920 H   0  0  0  0  0  0  0  0  0  0  0  0
   -0.1300   -5.7132   -2.7902 S   0  0  0  0  0  0  0  0  0  0  0  0
    0.6018   -4.2871   -2.3199 O   0  0  0  0  0  0  0  0  0  0  0  0
   -1.1410   -5.2598   -3.7342 O   0  0  0  0  0  0  0  0  0  0  0  0
    0.9038   -6.6747   -3.1631 O   0  0  0  0  0  0  0  0  0  0  0  0
   -2.8272   -7.5927    2.3315 C   0  0  0  0  0  0  0  0  0  0  0  0
   -2.7429   -6.8286    3.1143 H   0  0  0  0  0  0  0  0  0  0  0  0
   -3.8952   -7.7763    2.1751 H   0  0  0  0  0  0  0  0  0  0  0  0
   -2.3774   -8.5116    2.7148 H   0  0  0  0  0  0  0  0  0  0  0  0
    5.2124   -4.2376    0.7610 O   0  0  0  0  0  0  0  0  0  0  0  0
    5.1974   -3.8081    2.1129 C   0  0  0  0  0  0  0  0  0  0  0  0
    6.2286   -3.8776    2.4626 H   0  0  0  0  0  0  0  0  0  0  0  0
    4.8558   -2.7690    2.2047 H   0  0  0  0  0  0  0  0  0  0  0  0
    4.5622   -4.4510    2.7358 H   0  0  0  0  0  0  0  0  0  0  0  0
  1  7  1  0  0  0  0
  2  8  1  0  0  0  0
  2  1  2  0  0  0  0
  3  2  1  0  0  0  0
  4  3  2  0  0  0  0
  4  5  1  0  0  0  0
  5  6  2  0  0  0  0
  6  1  1  0  0  0  0
  6 31  1  0  0  0  0
  9  4  1  0  0  0  0
 10  5  1  0  0  0  0
 12 11  3  0  0  0  0
 13 14  2  0  0  0  0
 14 15  1  0  0  0  0
 14 20  1  0  0  0  0
 15 27  1  0  0  0  0
 16 21  1  0  0  0  0
 16 15  2  0  0  0  0
 17 16  1  0  0  0  0
 18 17  2  0  0  0  0
 18 13  1  0  0  0  0
 19 13  1  0  0  0  0
 22 17  1  0  0  0  0
 23 24  1  0  0  0  0
 23 18  1  0  0  0  0
 24  3  1  0  0  0  0
 25 23  2  0  0  0  0
 26 23  2  0  0  0  0
 27 30  1  0  0  0  0
 27 28  1  0  0  0  0
 29 27  1  0  0  0  0
 31 32  1  0  0  0  0
 32 34  1  0  0  0  0
 32 33  1  0  0  0  0
 32 35  1  0  0  0  0
M  END
