Coordinates from ORCA-job 4-MeO-Ph-N2-OTs-B3LYPG-6-31G_dp-MTMO-d009-169-n800
 OpenBabel09051908173D

 35 35  0  0  0  0  0  0  0  0999 V2000
    3.6288   -3.9803    0.6206 C   0  0  0  0  0  0  0  0  0  0  0  0
    2.6628   -3.8819   -0.3849 C   0  0  0  0  0  0  0  0  0  0  0  0
    2.8707   -4.5017   -1.6121 C   0  0  0  0  0  0  0  0  0  0  0  0
    4.0387   -5.2307   -1.8562 C   0  0  0  0  0  0  0  0  0  0  0  0
    4.9955   -5.3363   -0.8563 C   0  0  0  0  0  0  0  0  0  0  0  0
    4.7993   -4.7121    0.3866 C   0  0  0  0  0  0  0  0  0  0  0  0
    3.4575   -3.4854    1.5687 H   0  0  0  0  0  0  0  0  0  0  0  0
    1.7525   -3.3144   -0.2231 H   0  0  0  0  0  0  0  0  0  0  0  0
    4.1805   -5.7079   -2.8182 H   0  0  0  0  0  0  0  0  0  0  0  0
    5.9124   -5.8936   -1.0156 H   0  0  0  0  0  0  0  0  0  0  0  0
  -10.7624   -8.4695    0.3727 N   0  0  0  0  0  0  0  0  0  0  0  0
  -11.7127   -8.9846    0.1420 N   0  0  0  0  0  0  0  0  0  0  0  0
   -0.0843   -6.5014   -0.6741 C   0  0  0  0  0  0  0  0  0  0  0  0
   -1.0172   -6.5119    0.3628 C   0  0  0  0  0  0  0  0  0  0  0  0
   -2.1223   -5.6509    0.3540 C   0  0  0  0  0  0  0  0  0  0  0  0
   -2.2758   -4.7677   -0.7273 C   0  0  0  0  0  0  0  0  0  0  0  0
   -1.3573   -4.7410   -1.7718 C   0  0  0  0  0  0  0  0  0  0  0  0
   -0.2648   -5.6123   -1.7334 C   0  0  0  0  0  0  0  0  0  0  0  0
    0.7629   -7.1780   -0.6736 H   0  0  0  0  0  0  0  0  0  0  0  0
   -0.8847   -7.2042    1.1902 H   0  0  0  0  0  0  0  0  0  0  0  0
   -3.1307   -4.0969   -0.7525 H   0  0  0  0  0  0  0  0  0  0  0  0
   -1.4846   -4.0697   -2.6143 H   0  0  0  0  0  0  0  0  0  0  0  0
    0.9228   -5.5718   -3.0631 S   0  0  0  0  0  0  0  0  0  0  0  0
    1.9248   -4.3083   -2.6268 O   0  0  0  0  0  0  0  0  0  0  0  0
    0.2795   -5.0768   -4.2709 O   0  0  0  0  0  0  0  0  0  0  0  0
    1.6939   -6.8117   -3.0433 O   0  0  0  0  0  0  0  0  0  0  0  0
   -3.1439   -5.6840    1.4647 C   0  0  0  0  0  0  0  0  0  0  0  0
   -3.4205   -4.6740    1.7826 H   0  0  0  0  0  0  0  0  0  0  0  0
   -4.0641   -6.1807    1.1344 H   0  0  0  0  0  0  0  0  0  0  0  0
   -2.7710   -6.2258    2.3376 H   0  0  0  0  0  0  0  0  0  0  0  0
    5.8061   -4.8754    1.2926 O   0  0  0  0  0  0  0  0  0  0  0  0
    5.6711   -4.2642    2.5656 C   0  0  0  0  0  0  0  0  0  0  0  0
    6.5770   -4.5175    3.1190 H   0  0  0  0  0  0  0  0  0  0  0  0
    5.5909   -3.1723    2.4849 H   0  0  0  0  0  0  0  0  0  0  0  0
    4.7981   -4.6482    3.1094 H   0  0  0  0  0  0  0  0  0  0  0  0
  1  7  1  0  0  0  0
  2  8  1  0  0  0  0
  2  1  2  0  0  0  0
  3  2  1  0  0  0  0
  4  3  2  0  0  0  0
  4  5  1  0  0  0  0
  5  6  2  0  0  0  0
  6  1  1  0  0  0  0
  6 31  1  0  0  0  0
  9  4  1  0  0  0  0
 10  5  1  0  0  0  0
 12 11  3  0  0  0  0
 13 19  1  0  0  0  0
 13 14  2  0  0  0  0
 14 20  1  0  0  0  0
 15 14  1  0  0  0  0
 15 27  1  0  0  0  0
 16 15  2  0  0  0  0
 17 18  2  0  0  0  0
 17 16  1  0  0  0  0
 18 13  1  0  0  0  0
 21 16  1  0  0  0  0
 22 17  1  0  0  0  0
 23 26  2  0  0  0  0
 23 24  1  0  0  0  0
 23 18  1  0  0  0  0
 24  3  1  0  0  0  0
 25 23  2  0  0  0  0
 27 28  1  0  0  0  0
 27 30  1  0  0  0  0
 29 27  1  0  0  0  0
 31 32  1  0  0  0  0
 32 35  1  0  0  0  0
 32 33  1  0  0  0  0
 34 32  1  0  0  0  0
M  END
