Coordinates from ORCA-job 4-MeO-Ph-N2-OTs-B3LYPG-6-31G_dp-MTMO-d009-169-n800
 OpenBabel09051908173D

 35 35  0  0  0  0  0  0  0  0999 V2000
    3.1145   -3.9992    0.8364 C   0  0  0  0  0  0  0  0  0  0  0  0
    1.9628   -3.8565    0.0575 C   0  0  0  0  0  0  0  0  0  0  0  0
    2.0056   -4.1323   -1.3048 C   0  0  0  0  0  0  0  0  0  0  0  0
    3.1919   -4.5564   -1.9119 C   0  0  0  0  0  0  0  0  0  0  0  0
    4.3340   -4.7093   -1.1375 C   0  0  0  0  0  0  0  0  0  0  0  0
    4.3053   -4.4307    0.2389 C   0  0  0  0  0  0  0  0  0  0  0  0
    3.0690   -3.7695    1.8940 H   0  0  0  0  0  0  0  0  0  0  0  0
    1.0333   -3.5176    0.5020 H   0  0  0  0  0  0  0  0  0  0  0  0
    3.2050   -4.7680   -2.9741 H   0  0  0  0  0  0  0  0  0  0  0  0
    5.2687   -5.0381   -1.5788 H   0  0  0  0  0  0  0  0  0  0  0  0
   -4.5563   -3.9534   -3.6997 N   0  0  0  0  0  0  0  0  0  0  0  0
   -4.5963   -3.8711   -4.8009 N   0  0  0  0  0  0  0  0  0  0  0  0
   -0.2459   -6.8748   -0.5522 C   0  0  0  0  0  0  0  0  0  0  0  0
   -0.9132   -7.3855    0.5597 C   0  0  0  0  0  0  0  0  0  0  0  0
   -2.1615   -6.8822    0.9523 C   0  0  0  0  0  0  0  0  0  0  0  0
   -2.7375   -5.8513    0.1935 C   0  0  0  0  0  0  0  0  0  0  0  0
   -2.0877   -5.3250   -0.9196 C   0  0  0  0  0  0  0  0  0  0  0  0
   -0.8414   -5.8436   -1.2806 C   0  0  0  0  0  0  0  0  0  0  0  0
    0.7094   -7.2782   -0.8666 H   0  0  0  0  0  0  0  0  0  0  0  0
   -0.4603   -8.1946    1.1265 H   0  0  0  0  0  0  0  0  0  0  0  0
   -3.7127   -5.4625    0.4726 H   0  0  0  0  0  0  0  0  0  0  0  0
   -2.5450   -4.5436   -1.5169 H   0  0  0  0  0  0  0  0  0  0  0  0
   -0.0016   -5.1740   -2.7029 S   0  0  0  0  0  0  0  0  0  0  0  0
    0.8545   -3.8887   -2.0659 O   0  0  0  0  0  0  0  0  0  0  0  0
   -0.9684   -4.5229   -3.5745 O   0  0  0  0  0  0  0  0  0  0  0  0
    0.9470   -6.1674   -3.1993 O   0  0  0  0  0  0  0  0  0  0  0  0
   -2.8657   -7.4251    2.1720 C   0  0  0  0  0  0  0  0  0  0  0  0
   -2.6581   -6.8035    3.0519 H   0  0  0  0  0  0  0  0  0  0  0  0
   -3.9513   -7.4395    2.0341 H   0  0  0  0  0  0  0  0  0  0  0  0
   -2.5368   -8.4413    2.4045 H   0  0  0  0  0  0  0  0  0  0  0  0
    5.4849   -4.6071    0.9009 O   0  0  0  0  0  0  0  0  0  0  0  0
    5.5225   -4.3323    2.2920 C   0  0  0  0  0  0  0  0  0  0  0  0
    6.5464   -4.5326    2.6112 H   0  0  0  0  0  0  0  0  0  0  0  0
    5.2769   -3.2838    2.5048 H   0  0  0  0  0  0  0  0  0  0  0  0
    4.8375   -4.9815    2.8522 H   0  0  0  0  0  0  0  0  0  0  0  0
  1  7  1  0  0  0  0
  2  8  1  0  0  0  0
  2  1  2  0  0  0  0
  3  2  1  0  0  0  0
  4  3  2  0  0  0  0
  4  5  1  0  0  0  0
  5  6  2  0  0  0  0
  6  1  1  0  0  0  0
  6 31  1  0  0  0  0
  9  4  1  0  0  0  0
 10  5  1  0  0  0  0
 12 11  3  0  0  0  0
 13 14  2  0  0  0  0
 14 15  1  0  0  0  0
 14 20  1  0  0  0  0
 15 27  1  0  0  0  0
 16 21  1  0  0  0  0
 16 15  2  0  0  0  0
 17 16  1  0  0  0  0
 18 17  2  0  0  0  0
 18 13  1  0  0  0  0
 19 13  1  0  0  0  0
 22 17  1  0  0  0  0
 23 24  1  0  0  0  0
 23 18  1  0  0  0  0
 24  3  1  0  0  0  0
 25 23  2  0  0  0  0
 26 23  2  0  0  0  0
 27 30  1  0  0  0  0
 27 28  1  0  0  0  0
 29 27  1  0  0  0  0
 31 32  1  0  0  0  0
 32 34  1  0  0  0  0
 32 33  1  0  0  0  0
 32 35  1  0  0  0  0
M  END
