Coordinates from ORCA-job 4-MeO-Ph-N2-OTs-B3LYPG-6-31G_dp-MTMO-d009-169-n800
 OpenBabel09051908173D

 35 35  0  0  0  0  0  0  0  0999 V2000
    3.6295   -3.9797    0.6206 C   0  0  0  0  0  0  0  0  0  0  0  0
    2.6637   -3.8813   -0.3851 C   0  0  0  0  0  0  0  0  0  0  0  0
    2.8718   -4.5012   -1.6122 C   0  0  0  0  0  0  0  0  0  0  0  0
    4.0398   -5.2302   -1.8560 C   0  0  0  0  0  0  0  0  0  0  0  0
    4.9964   -5.3359   -0.8559 C   0  0  0  0  0  0  0  0  0  0  0  0
    4.8001   -4.7116    0.3869 C   0  0  0  0  0  0  0  0  0  0  0  0
    3.4581   -3.4847    1.5687 H   0  0  0  0  0  0  0  0  0  0  0  0
    1.7534   -3.3137   -0.2235 H   0  0  0  0  0  0  0  0  0  0  0  0
    4.1818   -5.7075   -2.8179 H   0  0  0  0  0  0  0  0  0  0  0  0
    5.9133   -5.8933   -1.0150 H   0  0  0  0  0  0  0  0  0  0  0  0
  -10.7808   -8.4728    0.3754 N   0  0  0  0  0  0  0  0  0  0  0  0
  -11.7313   -8.9876    0.1449 N   0  0  0  0  0  0  0  0  0  0  0  0
   -0.0827   -6.5013   -0.6748 C   0  0  0  0  0  0  0  0  0  0  0  0
   -1.0156   -6.5122    0.3621 C   0  0  0  0  0  0  0  0  0  0  0  0
   -2.1208   -5.6513    0.3534 C   0  0  0  0  0  0  0  0  0  0  0  0
   -2.2744   -4.7679   -0.7276 C   0  0  0  0  0  0  0  0  0  0  0  0
   -1.3559   -4.7409   -1.7721 C   0  0  0  0  0  0  0  0  0  0  0  0
   -0.2633   -5.6121   -1.7339 C   0  0  0  0  0  0  0  0  0  0  0  0
    0.7645   -7.1780   -0.6744 H   0  0  0  0  0  0  0  0  0  0  0  0
   -0.8831   -7.2047    1.1893 H   0  0  0  0  0  0  0  0  0  0  0  0
   -3.1294   -4.0972   -0.7528 H   0  0  0  0  0  0  0  0  0  0  0  0
   -1.4833   -4.0694   -2.6145 H   0  0  0  0  0  0  0  0  0  0  0  0
    0.9243   -5.5712   -3.0636 S   0  0  0  0  0  0  0  0  0  0  0  0
    1.9262   -4.3078   -2.6271 O   0  0  0  0  0  0  0  0  0  0  0  0
    0.2809   -5.0760   -4.2713 O   0  0  0  0  0  0  0  0  0  0  0  0
    1.6954   -6.8110   -3.0439 O   0  0  0  0  0  0  0  0  0  0  0  0
   -3.1424   -5.6849    1.4641 C   0  0  0  0  0  0  0  0  0  0  0  0
   -3.4193   -4.6750    1.7822 H   0  0  0  0  0  0  0  0  0  0  0  0
   -4.0626   -6.1816    1.1337 H   0  0  0  0  0  0  0  0  0  0  0  0
   -2.7694   -6.2267    2.3370 H   0  0  0  0  0  0  0  0  0  0  0  0
    5.8066   -4.8749    1.2932 O   0  0  0  0  0  0  0  0  0  0  0  0
    5.6714   -4.2635    2.5660 C   0  0  0  0  0  0  0  0  0  0  0  0
    6.5772   -4.5169    3.1196 H   0  0  0  0  0  0  0  0  0  0  0  0
    5.5913   -3.1717    2.4852 H   0  0  0  0  0  0  0  0  0  0  0  0
    4.7983   -4.6475    3.1097 H   0  0  0  0  0  0  0  0  0  0  0  0
  1  7  1  0  0  0  0
  2  8  1  0  0  0  0
  2  1  2  0  0  0  0
  3  2  1  0  0  0  0
  4  3  2  0  0  0  0
  4  5  1  0  0  0  0
  5  6  2  0  0  0  0
  6  1  1  0  0  0  0
  6 31  1  0  0  0  0
  9  4  1  0  0  0  0
 10  5  1  0  0  0  0
 12 11  3  0  0  0  0
 13 19  1  0  0  0  0
 13 14  2  0  0  0  0
 14 20  1  0  0  0  0
 15 14  1  0  0  0  0
 15 27  1  0  0  0  0
 16 15  2  0  0  0  0
 17 18  2  0  0  0  0
 17 16  1  0  0  0  0
 18 13  1  0  0  0  0
 21 16  1  0  0  0  0
 22 17  1  0  0  0  0
 23 26  2  0  0  0  0
 23 24  1  0  0  0  0
 23 18  1  0  0  0  0
 24  3  1  0  0  0  0
 25 23  2  0  0  0  0
 27 28  1  0  0  0  0
 27 30  1  0  0  0  0
 29 27  1  0  0  0  0
 31 32  1  0  0  0  0
 32 35  1  0  0  0  0
 32 33  1  0  0  0  0
 34 32  1  0  0  0  0
M  END
