Coordinates from ORCA-job 4-MeO-Ph-N2-OTs-B3LYPG-6-31G_dp-MTMO-d009-169-n800
 OpenBabel09051908173D

 35 35  0  0  0  0  0  0  0  0999 V2000
    3.4289   -4.0600    0.7019 C   0  0  0  0  0  0  0  0  0  0  0  0
    2.4867   -3.9341   -0.3229 C   0  0  0  0  0  0  0  0  0  0  0  0
    2.7265   -4.5152   -1.5632 C   0  0  0  0  0  0  0  0  0  0  0  0
    3.9028   -5.2326   -1.8013 C   0  0  0  0  0  0  0  0  0  0  0  0
    4.8359   -5.3656   -0.7824 C   0  0  0  0  0  0  0  0  0  0  0  0
    4.6076   -4.7805    0.4739 C   0  0  0  0  0  0  0  0  0  0  0  0
    3.2329   -3.5946    1.6602 H   0  0  0  0  0  0  0  0  0  0  0  0
    1.5707   -3.3746   -0.1657 H   0  0  0  0  0  0  0  0  0  0  0  0
    4.0696   -5.6799   -2.7736 H   0  0  0  0  0  0  0  0  0  0  0  0
    5.7586   -5.9146   -0.9367 H   0  0  0  0  0  0  0  0  0  0  0  0
   -7.5151   -7.5242    0.7984 N   0  0  0  0  0  0  0  0  0  0  0  0
   -8.5161   -7.9721    0.6613 N   0  0  0  0  0  0  0  0  0  0  0  0
   -0.2738   -6.5383   -0.7725 C   0  0  0  0  0  0  0  0  0  0  0  0
   -1.2499   -6.5843    0.2224 C   0  0  0  0  0  0  0  0  0  0  0  0
   -2.3646   -5.7357    0.1866 C   0  0  0  0  0  0  0  0  0  0  0  0
   -2.4809   -4.8273   -0.8778 C   0  0  0  0  0  0  0  0  0  0  0  0
   -1.5184   -4.7646   -1.8807 C   0  0  0  0  0  0  0  0  0  0  0  0
   -0.4187   -5.6249   -1.8169 C   0  0  0  0  0  0  0  0  0  0  0  0
    0.5800   -7.2064   -0.7522 H   0  0  0  0  0  0  0  0  0  0  0  0
   -1.1445   -7.2954    1.0377 H   0  0  0  0  0  0  0  0  0  0  0  0
   -3.3412   -4.1645   -0.9233 H   0  0  0  0  0  0  0  0  0  0  0  0
   -1.6173   -4.0736   -2.7112 H   0  0  0  0  0  0  0  0  0  0  0  0
    0.8197   -5.5459   -3.0980 S   0  0  0  0  0  0  0  0  0  0  0  0
    1.8041   -4.2933   -2.5937 O   0  0  0  0  0  0  0  0  0  0  0  0
    0.2203   -5.0201   -4.3154 O   0  0  0  0  0  0  0  0  0  0  0  0
    1.5921   -6.7850   -3.0817 O   0  0  0  0  0  0  0  0  0  0  0  0
   -3.4328   -5.8112    1.2506 C   0  0  0  0  0  0  0  0  0  0  0  0
   -3.7945   -4.8155    1.5242 H   0  0  0  0  0  0  0  0  0  0  0  0
   -4.2996   -6.3840    0.8988 H   0  0  0  0  0  0  0  0  0  0  0  0
   -3.0626   -6.2995    2.1559 H   0  0  0  0  0  0  0  0  0  0  0  0
    5.5931   -4.9682    1.3985 O   0  0  0  0  0  0  0  0  0  0  0  0
    5.4258   -4.3953    2.6854 C   0  0  0  0  0  0  0  0  0  0  0  0
    6.3191   -4.6625    3.2525 H   0  0  0  0  0  0  0  0  0  0  0  0
    5.3438   -3.3018    2.6350 H   0  0  0  0  0  0  0  0  0  0  0  0
    4.5415   -4.7976    3.1966 H   0  0  0  0  0  0  0  0  0  0  0  0
  1  7  1  0  0  0  0
  2  8  1  0  0  0  0
  2  1  2  0  0  0  0
  3  2  1  0  0  0  0
  4  3  2  0  0  0  0
  4  5  1  0  0  0  0
  5  6  2  0  0  0  0
  6  1  1  0  0  0  0
  6 31  1  0  0  0  0
  9  4  1  0  0  0  0
 10  5  1  0  0  0  0
 12 11  3  0  0  0  0
 13 19  1  0  0  0  0
 13 14  2  0  0  0  0
 14 20  1  0  0  0  0
 15 14  1  0  0  0  0
 15 27  1  0  0  0  0
 16 15  2  0  0  0  0
 17 18  2  0  0  0  0
 17 16  1  0  0  0  0
 18 13  1  0  0  0  0
 21 16  1  0  0  0  0
 22 17  1  0  0  0  0
 23 26  2  0  0  0  0
 23 24  1  0  0  0  0
 23 18  1  0  0  0  0
 24  3  1  0  0  0  0
 25 23  2  0  0  0  0
 27 28  1  0  0  0  0
 27 30  1  0  0  0  0
 29 27  1  0  0  0  0
 31 32  1  0  0  0  0
 32 35  1  0  0  0  0
 32 33  1  0  0  0  0
 34 32  1  0  0  0  0
M  END
