Coordinates from ORCA-job 4-MeO-Ph-N2-OTs-B3LYPG-6-31G_dp-MTMO-d009-169-n800
 OpenBabel09051908173D

 35 35  0  0  0  0  0  0  0  0999 V2000
    3.4259   -4.0607    0.6996 C   0  0  0  0  0  0  0  0  0  0  0  0
    2.4818   -3.9359   -0.3236 C   0  0  0  0  0  0  0  0  0  0  0  0
    2.7184   -4.5198   -1.5632 C   0  0  0  0  0  0  0  0  0  0  0  0
    3.8934   -5.2391   -1.8022 C   0  0  0  0  0  0  0  0  0  0  0  0
    4.8283   -5.3712   -0.7849 C   0  0  0  0  0  0  0  0  0  0  0  0
    4.6033   -4.7831    0.4707 C   0  0  0  0  0  0  0  0  0  0  0  0
    3.2325   -3.5932    1.6573 H   0  0  0  0  0  0  0  0  0  0  0  0
    1.5668   -3.3750   -0.1657 H   0  0  0  0  0  0  0  0  0  0  0  0
    4.0577   -5.6886   -2.7739 H   0  0  0  0  0  0  0  0  0  0  0  0
    5.7500   -5.9216   -0.9398 H   0  0  0  0  0  0  0  0  0  0  0  0
   -7.4130   -7.5086    0.7458 N   0  0  0  0  0  0  0  0  0  0  0  0
   -8.4059   -7.9683    0.5900 N   0  0  0  0  0  0  0  0  0  0  0  0
   -0.2839   -6.5397   -0.7643 C   0  0  0  0  0  0  0  0  0  0  0  0
   -1.2585   -6.5831    0.2322 C   0  0  0  0  0  0  0  0  0  0  0  0
   -2.3715   -5.7323    0.1978 C   0  0  0  0  0  0  0  0  0  0  0  0
   -2.4877   -4.8244   -0.8671 C   0  0  0  0  0  0  0  0  0  0  0  0
   -1.5267   -4.7644   -1.8717 C   0  0  0  0  0  0  0  0  0  0  0  0
   -0.4287   -5.6268   -1.8091 C   0  0  0  0  0  0  0  0  0  0  0  0
    0.5686   -7.2095   -0.7449 H   0  0  0  0  0  0  0  0  0  0  0  0
   -1.1532   -7.2939    1.0478 H   0  0  0  0  0  0  0  0  0  0  0  0
   -3.3468   -4.1598   -0.9117 H   0  0  0  0  0  0  0  0  0  0  0  0
   -1.6257   -4.0738   -2.7025 H   0  0  0  0  0  0  0  0  0  0  0  0
    0.8076   -5.5513   -3.0925 S   0  0  0  0  0  0  0  0  0  0  0  0
    1.7943   -4.2989   -2.5922 O   0  0  0  0  0  0  0  0  0  0  0  0
    0.2066   -5.0270   -4.3097 O   0  0  0  0  0  0  0  0  0  0  0  0
    1.5787   -6.7913   -3.0754 O   0  0  0  0  0  0  0  0  0  0  0  0
   -3.4379   -5.8046    1.2637 C   0  0  0  0  0  0  0  0  0  0  0  0
   -3.7938   -4.8075    1.5400 H   0  0  0  0  0  0  0  0  0  0  0  0
   -4.3085   -6.3722    0.9129 H   0  0  0  0  0  0  0  0  0  0  0  0
   -3.0682   -6.2962    2.1674 H   0  0  0  0  0  0  0  0  0  0  0  0
    5.5904   -4.9701    1.3937 O   0  0  0  0  0  0  0  0  0  0  0  0
    5.4264   -4.3944    2.6797 C   0  0  0  0  0  0  0  0  0  0  0  0
    6.3206   -4.6614    3.2456 H   0  0  0  0  0  0  0  0  0  0  0  0
    5.3456   -3.3009    2.6272 H   0  0  0  0  0  0  0  0  0  0  0  0
    4.5427   -4.7946    3.1935 H   0  0  0  0  0  0  0  0  0  0  0  0
  1  7  1  0  0  0  0
  2  8  1  0  0  0  0
  2  1  2  0  0  0  0
  3  2  1  0  0  0  0
  4  3  2  0  0  0  0
  4  5  1  0  0  0  0
  5  6  2  0  0  0  0
  6  1  1  0  0  0  0
  6 31  1  0  0  0  0
  9  4  1  0  0  0  0
 10  5  1  0  0  0  0
 12 11  3  0  0  0  0
 13 19  1  0  0  0  0
 13 14  2  0  0  0  0
 14 20  1  0  0  0  0
 15 14  1  0  0  0  0
 15 27  1  0  0  0  0
 16 15  2  0  0  0  0
 17 18  2  0  0  0  0
 17 16  1  0  0  0  0
 18 13  1  0  0  0  0
 21 16  1  0  0  0  0
 22 17  1  0  0  0  0
 23 26  2  0  0  0  0
 23 24  1  0  0  0  0
 23 18  1  0  0  0  0
 24  3  1  0  0  0  0
 25 23  2  0  0  0  0
 27 28  1  0  0  0  0
 27 30  1  0  0  0  0
 29 27  1  0  0  0  0
 31 32  1  0  0  0  0
 32 35  1  0  0  0  0
 32 33  1  0  0  0  0
 34 32  1  0  0  0  0
M  END
