Coordinates from ORCA-job 4-MeO-Ph-N2-OTs-B3LYPG-6-31G_dp-MTMO-d009-169-n800
 OpenBabel09051908173D

 35 35  0  0  0  0  0  0  0  0999 V2000
    3.6952   -3.9455    0.6094 C   0  0  0  0  0  0  0  0  0  0  0  0
    2.7232   -3.8569   -0.3912 C   0  0  0  0  0  0  0  0  0  0  0  0
    2.9299   -4.4770   -1.6184 C   0  0  0  0  0  0  0  0  0  0  0  0
    4.1028   -5.1963   -1.8675 C   0  0  0  0  0  0  0  0  0  0  0  0
    5.0657   -5.2924   -0.8724 C   0  0  0  0  0  0  0  0  0  0  0  0
    4.8707   -4.6679    0.3705 C   0  0  0  0  0  0  0  0  0  0  0  0
    3.5248   -3.4506    1.5577 H   0  0  0  0  0  0  0  0  0  0  0  0
    1.8090   -3.2968   -0.2255 H   0  0  0  0  0  0  0  0  0  0  0  0
    4.2436   -5.6739   -2.8294 H   0  0  0  0  0  0  0  0  0  0  0  0
    5.9863   -5.8422   -1.0356 H   0  0  0  0  0  0  0  0  0  0  0  0
  -11.9657   -8.6806    0.3201 N   0  0  0  0  0  0  0  0  0  0  0  0
  -12.9141   -9.1987    0.0881 N   0  0  0  0  0  0  0  0  0  0  0  0
    0.0006   -6.5016   -0.6607 C   0  0  0  0  0  0  0  0  0  0  0  0
   -0.9261   -6.5197    0.3817 C   0  0  0  0  0  0  0  0  0  0  0  0
   -2.0399   -5.6699    0.3778 C   0  0  0  0  0  0  0  0  0  0  0  0
   -2.2088   -4.7905   -0.7043 C   0  0  0  0  0  0  0  0  0  0  0  0
   -1.2967   -4.7564   -1.7541 C   0  0  0  0  0  0  0  0  0  0  0  0
   -0.1951   -5.6165   -1.7205 C   0  0  0  0  0  0  0  0  0  0  0  0
    0.8545   -7.1698   -0.6639 H   0  0  0  0  0  0  0  0  0  0  0  0
   -0.7819   -7.2091    1.2095 H   0  0  0  0  0  0  0  0  0  0  0  0
   -3.0708   -4.1286   -0.7260 H   0  0  0  0  0  0  0  0  0  0  0  0
   -1.4359   -4.0882   -2.5972 H   0  0  0  0  0  0  0  0  0  0  0  0
    0.9841   -5.5666   -3.0573 S   0  0  0  0  0  0  0  0  0  0  0  0
    1.9770   -4.2935   -2.6283 O   0  0  0  0  0  0  0  0  0  0  0  0
    0.3290   -5.0789   -4.2618 O   0  0  0  0  0  0  0  0  0  0  0  0
    1.7667   -6.7993   -3.0406 O   0  0  0  0  0  0  0  0  0  0  0  0
   -3.0542   -5.7101    1.4950 C   0  0  0  0  0  0  0  0  0  0  0  0
   -3.3210   -4.7021    1.8277 H   0  0  0  0  0  0  0  0  0  0  0  0
   -3.9805   -6.1951    1.1645 H   0  0  0  0  0  0  0  0  0  0  0  0
   -2.6795   -6.2657    2.3583 H   0  0  0  0  0  0  0  0  0  0  0  0
    5.8834   -4.8214    1.2716 O   0  0  0  0  0  0  0  0  0  0  0  0
    5.7499   -4.2093    2.5443 C   0  0  0  0  0  0  0  0  0  0  0  0
    6.6605   -4.4547    3.0936 H   0  0  0  0  0  0  0  0  0  0  0  0
    5.6607   -3.1182    2.4624 H   0  0  0  0  0  0  0  0  0  0  0  0
    4.8827   -4.5993    3.0930 H   0  0  0  0  0  0  0  0  0  0  0  0
  1  7  1  0  0  0  0
  2  8  1  0  0  0  0
  2  1  2  0  0  0  0
  3  2  1  0  0  0  0
  4  3  2  0  0  0  0
  4  5  1  0  0  0  0
  5  6  2  0  0  0  0
  6  1  1  0  0  0  0
  6 31  1  0  0  0  0
  9  4  1  0  0  0  0
 10  5  1  0  0  0  0
 12 11  3  0  0  0  0
 13 14  2  0  0  0  0
 14 20  1  0  0  0  0
 15 14  1  0  0  0  0
 15 27  1  0  0  0  0
 16 15  2  0  0  0  0
 17 18  2  0  0  0  0
 17 16  1  0  0  0  0
 18 13  1  0  0  0  0
 19 13  1  0  0  0  0
 21 16  1  0  0  0  0
 22 17  1  0  0  0  0
 23 26  2  0  0  0  0
 23 24  1  0  0  0  0
 23 18  1  0  0  0  0
 24  3  1  0  0  0  0
 25 23  2  0  0  0  0
 27 28  1  0  0  0  0
 27 30  1  0  0  0  0
 29 27  1  0  0  0  0
 31 32  1  0  0  0  0
 32 35  1  0  0  0  0
 32 33  1  0  0  0  0
 34 32  1  0  0  0  0
M  END
