Coordinates from ORCA-job 4-MeO-Ph-N2-OTs-B3LYPG-6-31G_dp-MTMO-d009-169-n800
 OpenBabel09051908173D

 35 35  0  0  0  0  0  0  0  0999 V2000
    4.2502   -2.0845   -0.2968 C   0  0  0  0  0  0  0  0  0  0  0  0
    2.9773   -2.1252   -0.8563 C   0  0  0  0  0  0  0  0  0  0  0  0
    2.3485   -3.3636   -0.9530 C   0  0  0  0  0  0  0  0  0  0  0  0
    2.9072   -4.5696   -0.5384 C   0  0  0  0  0  0  0  0  0  0  0  0
    4.1828   -4.5070   -0.0002 C   0  0  0  0  0  0  0  0  0  0  0  0
    4.8580   -3.2781    0.1341 C   0  0  0  0  0  0  0  0  0  0  0  0
    4.7529   -1.1303   -0.2040 H   0  0  0  0  0  0  0  0  0  0  0  0
    2.4903   -1.2205   -1.2007 H   0  0  0  0  0  0  0  0  0  0  0  0
    2.3730   -5.5104   -0.6486 H   0  0  0  0  0  0  0  0  0  0  0  0
    4.6820   -5.4092    0.3342 H   0  0  0  0  0  0  0  0  0  0  0  0
    0.9754   -3.3293   -1.6059 N   0  0  0  0  0  0  0  0  0  0  0  0
    0.2672   -2.7986   -2.2955 N   0  0  0  0  0  0  0  0  0  0  0  0
   -1.3981   -7.8640    0.3484 C   0  0  0  0  0  0  0  0  0  0  0  0
   -2.5196   -8.4710    0.9086 C   0  0  0  0  0  0  0  0  0  0  0  0
   -3.8095   -8.1889    0.4351 C   0  0  0  0  0  0  0  0  0  0  0  0
   -3.9455   -7.2874   -0.6296 C   0  0  0  0  0  0  0  0  0  0  0  0
   -2.8325   -6.6713   -1.1997 C   0  0  0  0  0  0  0  0  0  0  0  0
   -1.5614   -6.9604   -0.7032 C   0  0  0  0  0  0  0  0  0  0  0  0
   -0.3997   -8.0972    0.7015 H   0  0  0  0  0  0  0  0  0  0  0  0
   -2.3924   -9.1803    1.7231 H   0  0  0  0  0  0  0  0  0  0  0  0
   -4.9359   -7.0703   -1.0220 H   0  0  0  0  0  0  0  0  0  0  0  0
   -2.9359   -5.9882   -2.0359 H   0  0  0  0  0  0  0  0  0  0  0  0
   -0.1270   -6.1439   -1.4071 S   0  0  0  0  0  0  0  0  0  0  0  0
    0.0545   -4.9159   -0.4986 O   0  0  0  0  0  0  0  0  0  0  0  0
   -0.4665   -5.7387   -2.7867 O   0  0  0  0  0  0  0  0  0  0  0  0
    1.0197   -7.0722   -1.2514 O   0  0  0  0  0  0  0  0  0  0  0  0
   -5.0214   -8.8287    1.0708 C   0  0  0  0  0  0  0  0  0  0  0  0
   -5.8673   -8.8617    0.3776 H   0  0  0  0  0  0  0  0  0  0  0  0
   -4.8094   -9.8514    1.3967 H   0  0  0  0  0  0  0  0  0  0  0  0
   -5.3455   -8.2675    1.9559 H   0  0  0  0  0  0  0  0  0  0  0  0
    6.0867   -3.3474    0.6875 O   0  0  0  0  0  0  0  0  0  0  0  0
    6.8364   -2.1486    0.8665 C   0  0  0  0  0  0  0  0  0  0  0  0
    7.7773   -2.4535    1.3240 H   0  0  0  0  0  0  0  0  0  0  0  0
    7.0410   -1.6589   -0.0925 H   0  0  0  0  0  0  0  0  0  0  0  0
    6.3169   -1.4497    1.5329 H   0  0  0  0  0  0  0  0  0  0  0  0
  1  7  1  0  0  0  0
  1  6  2  0  0  0  0
  2  1  1  0  0  0  0
  3  2  2  0  0  0  0
  3  4  1  0  0  0  0
  4  5  2  0  0  0  0
  5  6  1  0  0  0  0
  5 10  1  0  0  0  0
  6 31  1  0  0  0  0
  8  2  1  0  0  0  0
  9  4  1  0  0  0  0
 11  3  1  0  0  0  0
 12 11  2  0  0  0  0
 13 19  1  0  0  0  0
 13 14  2  0  0  0  0
 14 20  1  0  0  0  0
 15 14  1  0  0  0  0
 15 27  1  0  0  0  0
 16 15  2  0  0  0  0
 17 18  2  0  0  0  0
 17 16  1  0  0  0  0
 18 13  1  0  0  0  0
 21 16  1  0  0  0  0
 22 17  1  0  0  0  0
 23 26  2  0  0  0  0
 23 18  1  0  0  0  0
 23 24  1  0  0  0  0
 25 23  2  0  0  0  0
 27 29  1  0  0  0  0
 27 30  1  0  0  0  0
 28 27  1  0  0  0  0
 31 32  1  0  0  0  0
 32 33  1  0  0  0  0
 32 35  1  0  0  0  0
 34 32  1  0  0  0  0
M  RAD  2  12   2  24   2
M  END
