Coordinates from ORCA-job 4-MeO-Ph-N2-OTs-B3LYPG-6-31G_dp-MTMO-d009-169-n800
 OpenBabel09051908173D

 35 35  0  0  0  0  0  0  0  0999 V2000
    2.9551   -3.9329    0.7093 C   0  0  0  0  0  0  0  0  0  0  0  0
    1.8094   -3.9011   -0.0907 C   0  0  0  0  0  0  0  0  0  0  0  0
    1.8841   -4.2731   -1.4285 C   0  0  0  0  0  0  0  0  0  0  0  0
    3.0969   -4.6860   -1.9892 C   0  0  0  0  0  0  0  0  0  0  0  0
    4.2335   -4.7288   -1.1934 C   0  0  0  0  0  0  0  0  0  0  0  0
    4.1727   -4.3514    0.1582 C   0  0  0  0  0  0  0  0  0  0  0  0
    2.8839   -3.6293    1.7464 H   0  0  0  0  0  0  0  0  0  0  0  0
    0.8592   -3.5742    0.3178 H   0  0  0  0  0  0  0  0  0  0  0  0
    3.1343   -4.9738   -3.0326 H   0  0  0  0  0  0  0  0  0  0  0  0
    5.1883   -5.0459   -1.5989 H   0  0  0  0  0  0  0  0  0  0  0  0
   -3.5370   -2.8975   -3.2637 N   0  0  0  0  0  0  0  0  0  0  0  0
   -3.3428   -2.3705   -4.2152 N   0  0  0  0  0  0  0  0  0  0  0  0
   -0.2528   -7.0873   -0.5148 C   0  0  0  0  0  0  0  0  0  0  0  0
   -0.8987   -7.5402    0.6349 C   0  0  0  0  0  0  0  0  0  0  0  0
   -2.1454   -7.0274    1.0170 C   0  0  0  0  0  0  0  0  0  0  0  0
   -2.7431   -6.0455    0.2099 C   0  0  0  0  0  0  0  0  0  0  0  0
   -2.1166   -5.5788   -0.9415 C   0  0  0  0  0  0  0  0  0  0  0  0
   -0.8700   -6.1063   -1.2915 C   0  0  0  0  0  0  0  0  0  0  0  0
    0.7032   -7.4965   -0.8192 H   0  0  0  0  0  0  0  0  0  0  0  0
   -0.4285   -8.3101    1.2407 H   0  0  0  0  0  0  0  0  0  0  0  0
   -3.7168   -5.6489    0.4833 H   0  0  0  0  0  0  0  0  0  0  0  0
   -2.5896   -4.8352   -1.5741 H   0  0  0  0  0  0  0  0  0  0  0  0
   -0.0553   -5.5076   -2.7598 S   0  0  0  0  0  0  0  0  0  0  0  0
    0.7357   -4.1391   -2.2196 O   0  0  0  0  0  0  0  0  0  0  0  0
   -1.0450   -4.9677   -3.6808 O   0  0  0  0  0  0  0  0  0  0  0  0
    0.9404   -6.4902   -3.1783 O   0  0  0  0  0  0  0  0  0  0  0  0
   -2.8322   -7.5080    2.2723 C   0  0  0  0  0  0  0  0  0  0  0  0
   -2.7574   -6.7595    3.0712 H   0  0  0  0  0  0  0  0  0  0  0  0
   -3.8977   -7.6890    2.0990 H   0  0  0  0  0  0  0  0  0  0  0  0
   -2.3858   -8.4335    2.6438 H   0  0  0  0  0  0  0  0  0  0  0  0
    5.3500   -4.4234    0.8436 O   0  0  0  0  0  0  0  0  0  0  0  0
    5.3569   -4.0425    2.2101 C   0  0  0  0  0  0  0  0  0  0  0  0
    6.3847   -4.1699    2.5533 H   0  0  0  0  0  0  0  0  0  0  0  0
    5.0611   -2.9934    2.3400 H   0  0  0  0  0  0  0  0  0  0  0  0
    4.6952   -4.6787    2.8118 H   0  0  0  0  0  0  0  0  0  0  0  0
  1  7  1  0  0  0  0
  2  8  1  0  0  0  0
  2  1  2  0  0  0  0
  3  2  1  0  0  0  0
  4  3  2  0  0  0  0
  4  5  1  0  0  0  0
  5  6  2  0  0  0  0
  6  1  1  0  0  0  0
  6 31  1  0  0  0  0
  9  4  1  0  0  0  0
 10  5  1  0  0  0  0
 12 11  3  0  0  0  0
 13 14  2  0  0  0  0
 14 15  1  0  0  0  0
 14 20  1  0  0  0  0
 15 27  1  0  0  0  0
 16 21  1  0  0  0  0
 16 15  2  0  0  0  0
 17 16  1  0  0  0  0
 18 17  2  0  0  0  0
 18 13  1  0  0  0  0
 19 13  1  0  0  0  0
 22 17  1  0  0  0  0
 23 24  1  0  0  0  0
 23 18  1  0  0  0  0
 24  3  1  0  0  0  0
 25 23  2  0  0  0  0
 26 23  2  0  0  0  0
 27 30  1  0  0  0  0
 27 28  1  0  0  0  0
 29 27  1  0  0  0  0
 31 32  1  0  0  0  0
 32 34  1  0  0  0  0
 32 33  1  0  0  0  0
 32 35  1  0  0  0  0
M  END
