Coordinates from ORCA-job 4-MeO-Ph-N2-OTs-B3LYPG-6-31G_dp-MTMO-d009-169-n800
 OpenBabel09051908173D

 35 35  0  0  0  0  0  0  0  0999 V2000
    3.4458   -4.0477    0.6995 C   0  0  0  0  0  0  0  0  0  0  0  0
    2.5146   -3.9185   -0.3350 C   0  0  0  0  0  0  0  0  0  0  0  0
    2.7652   -4.4999   -1.5729 C   0  0  0  0  0  0  0  0  0  0  0  0
    3.9418   -5.2207   -1.7993 C   0  0  0  0  0  0  0  0  0  0  0  0
    4.8639   -5.3572   -0.7709 C   0  0  0  0  0  0  0  0  0  0  0  0
    4.6246   -4.7718    0.4833 C   0  0  0  0  0  0  0  0  0  0  0  0
    3.2414   -3.5820    1.6558 H   0  0  0  0  0  0  0  0  0  0  0  0
    1.5988   -3.3562   -0.1868 H   0  0  0  0  0  0  0  0  0  0  0  0
    4.1173   -5.6679   -2.7701 H   0  0  0  0  0  0  0  0  0  0  0  0
    5.7865   -5.9088   -0.9160 H   0  0  0  0  0  0  0  0  0  0  0  0
   -8.1313   -7.6828    0.9708 N   0  0  0  0  0  0  0  0  0  0  0  0
   -9.1594   -8.0801    0.8882 N   0  0  0  0  0  0  0  0  0  0  0  0
   -0.2200   -6.5347   -0.8088 C   0  0  0  0  0  0  0  0  0  0  0  0
   -1.1937   -6.5865    0.1880 C   0  0  0  0  0  0  0  0  0  0  0  0
   -2.3068   -5.7355    0.1611 C   0  0  0  0  0  0  0  0  0  0  0  0
   -2.4240   -4.8187   -0.8960 C   0  0  0  0  0  0  0  0  0  0  0  0
   -1.4638   -4.7503   -1.9008 C   0  0  0  0  0  0  0  0  0  0  0  0
   -0.3657   -5.6132   -1.8460 C   0  0  0  0  0  0  0  0  0  0  0  0
    0.6329   -7.2042   -0.7955 H   0  0  0  0  0  0  0  0  0  0  0  0
   -1.0878   -7.3040    0.9977 H   0  0  0  0  0  0  0  0  0  0  0  0
   -3.2832   -4.1540   -0.9344 H   0  0  0  0  0  0  0  0  0  0  0  0
   -1.5631   -4.0527   -2.7256 H   0  0  0  0  0  0  0  0  0  0  0  0
    0.8717   -5.5242   -3.1270 S   0  0  0  0  0  0  0  0  0  0  0  0
    1.8544   -4.2745   -2.6129 O   0  0  0  0  0  0  0  0  0  0  0  0
    0.2724   -4.9902   -4.3408 O   0  0  0  0  0  0  0  0  0  0  0  0
    1.6453   -6.7628   -3.1199 O   0  0  0  0  0  0  0  0  0  0  0  0
   -3.3736   -5.8187    1.2257 C   0  0  0  0  0  0  0  0  0  0  0  0
   -3.7442   -4.8261    1.4987 H   0  0  0  0  0  0  0  0  0  0  0  0
   -4.2347   -6.3993    0.8726 H   0  0  0  0  0  0  0  0  0  0  0  0
   -2.9999   -6.3040    2.1312 H   0  0  0  0  0  0  0  0  0  0  0  0
    5.5998   -4.9631    1.4179 O   0  0  0  0  0  0  0  0  0  0  0  0
    5.4216   -4.3893    2.7029 C   0  0  0  0  0  0  0  0  0  0  0  0
    6.3082   -4.6596    3.2791 H   0  0  0  0  0  0  0  0  0  0  0  0
    5.3439   -3.2956    2.6515 H   0  0  0  0  0  0  0  0  0  0  0  0
    4.5308   -4.7885    3.2053 H   0  0  0  0  0  0  0  0  0  0  0  0
  1  7  1  0  0  0  0
  2  8  1  0  0  0  0
  2  1  2  0  0  0  0
  3  2  1  0  0  0  0
  4  3  2  0  0  0  0
  4  5  1  0  0  0  0
  5  6  2  0  0  0  0
  6  1  1  0  0  0  0
  6 31  1  0  0  0  0
  9  4  1  0  0  0  0
 10  5  1  0  0  0  0
 12 11  3  0  0  0  0
 13 19  1  0  0  0  0
 13 14  2  0  0  0  0
 14 20  1  0  0  0  0
 15 14  1  0  0  0  0
 15 27  1  0  0  0  0
 16 15  2  0  0  0  0
 17 18  2  0  0  0  0
 17 16  1  0  0  0  0
 18 13  1  0  0  0  0
 21 16  1  0  0  0  0
 22 17  1  0  0  0  0
 23 26  2  0  0  0  0
 23 24  1  0  0  0  0
 23 18  1  0  0  0  0
 24  3  1  0  0  0  0
 25 23  2  0  0  0  0
 27 28  1  0  0  0  0
 27 30  1  0  0  0  0
 29 27  1  0  0  0  0
 31 32  1  0  0  0  0
 32 35  1  0  0  0  0
 32 33  1  0  0  0  0
 34 32  1  0  0  0  0
M  END
