Coordinates from ORCA-job 4-MeO-Ph-N2-OTs-B3LYPG-6-31G_dp-MTMO-d009-169-n800
 OpenBabel09051908173D

 35 35  0  0  0  0  0  0  0  0999 V2000
    4.3603   -2.0772   -0.2989 C   0  0  0  0  0  0  0  0  0  0  0  0
    3.0810   -2.0205   -0.8705 C   0  0  0  0  0  0  0  0  0  0  0  0
    2.4486   -3.2317   -0.9242 C   0  0  0  0  0  0  0  0  0  0  0  0
    2.8323   -4.4779   -0.5250 C   0  0  0  0  0  0  0  0  0  0  0  0
    4.1146   -4.4882    0.0288 C   0  0  0  0  0  0  0  0  0  0  0  0
    4.8738   -3.3073    0.1495 C   0  0  0  0  0  0  0  0  0  0  0  0
    4.9301   -1.1601   -0.2163 H   0  0  0  0  0  0  0  0  0  0  0  0
    2.6485   -1.0965   -1.2308 H   0  0  0  0  0  0  0  0  0  0  0  0
    2.2200   -5.3812   -0.6395 H   0  0  0  0  0  0  0  0  0  0  0  0
    4.5430   -5.4212    0.3782 H   0  0  0  0  0  0  0  0  0  0  0  0
    0.7689   -3.1059   -1.7161 N   0  0  0  0  0  0  0  0  0  0  0  0
    0.1279   -2.5196   -2.4125 N   0  0  0  0  0  0  0  0  0  0  0  0
   -1.4179   -7.7057    0.4377 C   0  0  0  0  0  0  0  0  0  0  0  0
   -2.5033   -8.3779    0.9943 C   0  0  0  0  0  0  0  0  0  0  0  0
   -3.7870   -8.2681    0.4387 C   0  0  0  0  0  0  0  0  0  0  0  0
   -3.9521   -7.4726   -0.7032 C   0  0  0  0  0  0  0  0  0  0  0  0
   -2.8750   -6.7929   -1.2712 C   0  0  0  0  0  0  0  0  0  0  0  0
   -1.6111   -6.9108   -0.6938 C   0  0  0  0  0  0  0  0  0  0  0  0
   -0.4224   -7.8064    0.8559 H   0  0  0  0  0  0  0  0  0  0  0  0
   -2.3526   -9.0029    1.8713 H   0  0  0  0  0  0  0  0  0  0  0  0
   -4.9362   -7.3899   -1.1581 H   0  0  0  0  0  0  0  0  0  0  0  0
   -2.9985   -6.1921   -2.1655 H   0  0  0  0  0  0  0  0  0  0  0  0
   -0.2297   -6.0048   -1.3987 S   0  0  0  0  0  0  0  0  0  0  0  0
   -0.1969   -4.7133   -0.5793 O   0  0  0  0  0  0  0  0  0  0  0  0
   -0.5346   -5.7497   -2.8198 O   0  0  0  0  0  0  0  0  0  0  0  0
    0.9896   -6.8181   -1.1250 O   0  0  0  0  0  0  0  0  0  0  0  0
   -4.9621   -8.9783    1.0687 C   0  0  0  0  0  0  0  0  0  0  0  0
   -5.7828   -9.1041    0.3564 H   0  0  0  0  0  0  0  0  0  0  0  0
   -4.6796   -9.9686    1.4388 H   0  0  0  0  0  0  0  0  0  0  0  0
   -5.3530   -8.4133    1.9240 H   0  0  0  0  0  0  0  0  0  0  0  0
    6.0943   -3.4610    0.7125 O   0  0  0  0  0  0  0  0  0  0  0  0
    6.9256   -2.3169    0.8773 C   0  0  0  0  0  0  0  0  0  0  0  0
    7.8406   -2.6795    1.3455 H   0  0  0  0  0  0  0  0  0  0  0  0
    7.1705   -1.8578   -0.0880 H   0  0  0  0  0  0  0  0  0  0  0  0
    6.4547   -1.5710    1.5295 H   0  0  0  0  0  0  0  0  0  0  0  0
  1  7  1  0  0  0  0
  1  6  2  0  0  0  0
  2  1  1  0  0  0  0
  3  2  2  0  0  0  0
  3  4  1  0  0  0  0
  4  5  2  0  0  0  0
  5  6  1  0  0  0  0
  5 10  1  0  0  0  0
  6 31  1  0  0  0  0
  8  2  1  0  0  0  0
  9  4  1  0  0  0  0
 11  3  1  0  0  0  0
 12 11  2  0  0  0  0
 13 19  1  0  0  0  0
 13 14  1  0  0  0  0
 14 20  1  0  0  0  0
 15 14  2  0  0  0  0
 15 27  1  0  0  0  0
 16 15  1  0  0  0  0
 17 16  2  0  0  0  0
 17 18  1  0  0  0  0
 18 13  2  0  0  0  0
 21 16  1  0  0  0  0
 22 17  1  0  0  0  0
 23 26  2  0  0  0  0
 23 18  1  0  0  0  0
 23 24  1  0  0  0  0
 25 23  2  0  0  0  0
 27 29  1  0  0  0  0
 27 30  1  0  0  0  0
 28 27  1  0  0  0  0
 31 32  1  0  0  0  0
 32 33  1  0  0  0  0
 32 35  1  0  0  0  0
 34 32  1  0  0  0  0
M  RAD  2  12   2  24   2
M  END
