Coordinates from ORCA-job 4-MeO-Ph-N2-OTs-B3LYPG-6-31G_dp-MTMO-d009-169-n800
 OpenBabel09051908173D

 35 35  0  0  0  0  0  0  0  0999 V2000
    3.7483   -3.8942    0.5903 C   0  0  0  0  0  0  0  0  0  0  0  0
    2.7656   -3.8255   -0.4014 C   0  0  0  0  0  0  0  0  0  0  0  0
    2.9716   -4.4457   -1.6287 C   0  0  0  0  0  0  0  0  0  0  0  0
    4.1546   -5.1451   -1.8868 C   0  0  0  0  0  0  0  0  0  0  0  0
    5.1281   -5.2216   -0.9004 C   0  0  0  0  0  0  0  0  0  0  0  0
    4.9337   -4.5970    0.3426 C   0  0  0  0  0  0  0  0  0  0  0  0
    3.5780   -3.3998    1.5389 H   0  0  0  0  0  0  0  0  0  0  0  0
    1.8433   -3.2810   -0.2288 H   0  0  0  0  0  0  0  0  0  0  0  0
    4.2948   -5.6231   -2.8486 H   0  0  0  0  0  0  0  0  0  0  0  0
    6.0565   -5.7561   -1.0705 H   0  0  0  0  0  0  0  0  0  0  0  0
  -13.1270   -8.7399    0.1842 N   0  0  0  0  0  0  0  0  0  0  0  0
  -14.0769   -9.2550   -0.0480 N   0  0  0  0  0  0  0  0  0  0  0  0
    0.1011   -6.5241   -0.6346 C   0  0  0  0  0  0  0  0  0  0  0  0
   -0.8126   -6.5604    0.4190 C   0  0  0  0  0  0  0  0  0  0  0  0
   -1.9463   -5.7377    0.4255 C   0  0  0  0  0  0  0  0  0  0  0  0
   -2.1494   -4.8670   -0.6580 C   0  0  0  0  0  0  0  0  0  0  0  0
   -1.2509   -4.8149   -1.7186 C   0  0  0  0  0  0  0  0  0  0  0  0
   -0.1284   -5.6481   -1.6951 C   0  0  0  0  0  0  0  0  0  0  0  0
    0.9705   -7.1717   -0.6458 H   0  0  0  0  0  0  0  0  0  0  0  0
   -0.6420   -7.2432    1.2472 H   0  0  0  0  0  0  0  0  0  0  0  0
   -3.0279   -4.2269   -0.6723 H   0  0  0  0  0  0  0  0  0  0  0  0
   -1.4166   -4.1540   -2.5627 H   0  0  0  0  0  0  0  0  0  0  0  0
    1.0331   -5.5754   -3.0463 S   0  0  0  0  0  0  0  0  0  0  0  0
    2.0056   -4.2826   -2.6298 O   0  0  0  0  0  0  0  0  0  0  0  0
    0.3538   -5.1017   -4.2429 O   0  0  0  0  0  0  0  0  0  0  0  0
    1.8403   -6.7922   -3.0386 O   0  0  0  0  0  0  0  0  0  0  0  0
   -2.9445   -5.7941    1.5565 C   0  0  0  0  0  0  0  0  0  0  0  0
   -3.1814   -4.7921    1.9285 H   0  0  0  0  0  0  0  0  0  0  0  0
   -3.8874   -6.2440    1.2241 H   0  0  0  0  0  0  0  0  0  0  0  0
   -2.5698   -6.3879    2.3940 H   0  0  0  0  0  0  0  0  0  0  0  0
    5.9570   -4.7307    1.2348 O   0  0  0  0  0  0  0  0  0  0  0  0
    5.8248   -4.1171    2.5070 C   0  0  0  0  0  0  0  0  0  0  0  0
    6.7439   -4.3464    3.0490 H   0  0  0  0  0  0  0  0  0  0  0  0
    5.7176   -3.0279    2.4229 H   0  0  0  0  0  0  0  0  0  0  0  0
    4.9687   -4.5193    3.0643 H   0  0  0  0  0  0  0  0  0  0  0  0
  1  7  1  0  0  0  0
  2  8  1  0  0  0  0
  2  1  2  0  0  0  0
  3  2  1  0  0  0  0
  4  3  2  0  0  0  0
  4  5  1  0  0  0  0
  5  6  2  0  0  0  0
  6  1  1  0  0  0  0
  6 31  1  0  0  0  0
  9  4  1  0  0  0  0
 10  5  1  0  0  0  0
 12 11  3  0  0  0  0
 13 14  2  0  0  0  0
 14 15  1  0  0  0  0
 14 20  1  0  0  0  0
 15 27  1  0  0  0  0
 16 15  2  0  0  0  0
 17 18  2  0  0  0  0
 17 16  1  0  0  0  0
 18 13  1  0  0  0  0
 19 13  1  0  0  0  0
 21 16  1  0  0  0  0
 22 17  1  0  0  0  0
 23 26  2  0  0  0  0
 23 24  1  0  0  0  0
 23 18  1  0  0  0  0
 24  3  1  0  0  0  0
 25 23  2  0  0  0  0
 27 28  1  0  0  0  0
 27 30  1  0  0  0  0
 29 27  1  0  0  0  0
 31 32  1  0  0  0  0
 32 33  1  0  0  0  0
 32 35  1  0  0  0  0
 34 32  1  0  0  0  0
M  END
