Coordinates from ORCA-job 4-MeO-Ph-N2-OTs-B3LYPG-6-31G_dp-MTMO-d009-169-n800
 OpenBabel09051908173D

 35 35  0  0  0  0  0  0  0  0999 V2000
    2.8374   -3.8806    0.6314 C   0  0  0  0  0  0  0  0  0  0  0  0
    1.6955   -3.9114   -0.1741 C   0  0  0  0  0  0  0  0  0  0  0  0
    1.7894   -4.3235   -1.4987 C   0  0  0  0  0  0  0  0  0  0  0  0
    3.0176   -4.7149   -2.0408 C   0  0  0  0  0  0  0  0  0  0  0  0
    4.1509   -4.6950   -1.2395 C   0  0  0  0  0  0  0  0  0  0  0  0
    4.0706   -4.2767    0.0990 C   0  0  0  0  0  0  0  0  0  0  0  0
    2.7510   -3.5471    1.6580 H   0  0  0  0  0  0  0  0  0  0  0  0
    0.7331   -3.6032    0.2200 H   0  0  0  0  0  0  0  0  0  0  0  0
    3.0692   -5.0349   -3.0742 H   0  0  0  0  0  0  0  0  0  0  0  0
    5.1174   -4.9941   -1.6305 H   0  0  0  0  0  0  0  0  0  0  0  0
   -2.6585   -2.4789   -2.9361 N   0  0  0  0  0  0  0  0  0  0  0  0
   -2.3074   -1.8903   -3.8027 N   0  0  0  0  0  0  0  0  0  0  0  0
   -0.3080   -7.2485   -0.5432 C   0  0  0  0  0  0  0  0  0  0  0  0
   -0.9400   -7.6803    0.6228 C   0  0  0  0  0  0  0  0  0  0  0  0
   -2.1459   -7.1090    1.0487 C   0  0  0  0  0  0  0  0  0  0  0  0
   -2.7165   -6.0876    0.2708 C   0  0  0  0  0  0  0  0  0  0  0  0
   -2.1046   -5.6429   -0.8964 C   0  0  0  0  0  0  0  0  0  0  0  0
   -0.8988   -6.2312   -1.2917 C   0  0  0  0  0  0  0  0  0  0  0  0
    0.6182   -7.6985   -0.8805 H   0  0  0  0  0  0  0  0  0  0  0  0
   -0.4904   -8.4784    1.2072 H   0  0  0  0  0  0  0  0  0  0  0  0
   -3.6576   -5.6421    0.5810 H   0  0  0  0  0  0  0  0  0  0  0  0
   -2.5541   -4.8628   -1.5015 H   0  0  0  0  0  0  0  0  0  0  0  0
   -0.1057   -5.6662   -2.7854 S   0  0  0  0  0  0  0  0  0  0  0  0
    0.6419   -4.2539   -2.2996 O   0  0  0  0  0  0  0  0  0  0  0  0
   -1.1120   -5.1912   -3.7240 O   0  0  0  0  0  0  0  0  0  0  0  0
    0.9175   -6.6346   -3.1695 O   0  0  0  0  0  0  0  0  0  0  0  0
   -2.8202   -7.5692    2.3183 C   0  0  0  0  0  0  0  0  0  0  0  0
   -2.7468   -6.8044    3.1015 H   0  0  0  0  0  0  0  0  0  0  0  0
   -3.8857   -7.7612    2.1553 H   0  0  0  0  0  0  0  0  0  0  0  0
   -2.3655   -8.4845    2.7043 H   0  0  0  0  0  0  0  0  0  0  0  0
    5.2462   -4.2890    0.7910 O   0  0  0  0  0  0  0  0  0  0  0  0
    5.2339   -3.8689    2.1459 C   0  0  0  0  0  0  0  0  0  0  0  0
    6.2632   -3.9548    2.4974 H   0  0  0  0  0  0  0  0  0  0  0  0
    4.9060   -2.8259    2.2442 H   0  0  0  0  0  0  0  0  0  0  0  0
    4.5886   -4.5074    2.7627 H   0  0  0  0  0  0  0  0  0  0  0  0
  1  7  1  0  0  0  0
  2  8  1  0  0  0  0
  2  1  2  0  0  0  0
  3  2  1  0  0  0  0
  4  3  2  0  0  0  0
  4  5  1  0  0  0  0
  5  6  2  0  0  0  0
  6  1  1  0  0  0  0
  6 31  1  0  0  0  0
  9  4  1  0  0  0  0
 10  5  1  0  0  0  0
 12 11  3  0  0  0  0
 13 14  2  0  0  0  0
 14 15  1  0  0  0  0
 14 20  1  0  0  0  0
 15 27  1  0  0  0  0
 16 21  1  0  0  0  0
 16 15  2  0  0  0  0
 17 16  1  0  0  0  0
 18 17  2  0  0  0  0
 18 13  1  0  0  0  0
 19 13  1  0  0  0  0
 22 17  1  0  0  0  0
 23 24  1  0  0  0  0
 23 18  1  0  0  0  0
 24  3  1  0  0  0  0
 25 23  2  0  0  0  0
 26 23  2  0  0  0  0
 27 30  1  0  0  0  0
 27 28  1  0  0  0  0
 29 27  1  0  0  0  0
 31 32  1  0  0  0  0
 32 34  1  0  0  0  0
 32 33  1  0  0  0  0
 32 35  1  0  0  0  0
M  END
