Coordinates from ORCA-job 4-MeO-Ph-N2-OTs-B3LYPG-6-31G_dp-MTMO-d009-169-n800
 OpenBabel09051908173D

 35 35  0  0  0  0  0  0  0  0999 V2000
    3.7106   -3.9324    0.6006 C   0  0  0  0  0  0  0  0  0  0  0  0
    2.7334   -3.8502   -0.3956 C   0  0  0  0  0  0  0  0  0  0  0  0
    2.9373   -4.4716   -1.6226 C   0  0  0  0  0  0  0  0  0  0  0  0
    4.1123   -5.1860   -1.8759 C   0  0  0  0  0  0  0  0  0  0  0  0
    5.0803   -5.2757   -0.8852 C   0  0  0  0  0  0  0  0  0  0  0  0
    4.8882   -4.6498    0.3575 C   0  0  0  0  0  0  0  0  0  0  0  0
    3.5423   -3.4366    1.5488 H   0  0  0  0  0  0  0  0  0  0  0  0
    1.8174   -3.2941   -0.2266 H   0  0  0  0  0  0  0  0  0  0  0  0
    4.2508   -5.6647   -2.8376 H   0  0  0  0  0  0  0  0  0  0  0  0
    6.0027   -5.8217   -1.0516 H   0  0  0  0  0  0  0  0  0  0  0  0
  -12.2547   -8.6964    0.2453 N   0  0  0  0  0  0  0  0  0  0  0  0
  -13.2012   -9.2198    0.0176 N   0  0  0  0  0  0  0  0  0  0  0  0
    0.0229   -6.5087   -0.6469 C   0  0  0  0  0  0  0  0  0  0  0  0
   -0.8984   -6.5292    0.4004 C   0  0  0  0  0  0  0  0  0  0  0  0
   -2.0160   -5.6846    0.4007 C   0  0  0  0  0  0  0  0  0  0  0  0
   -2.1946   -4.8079   -0.6821 C   0  0  0  0  0  0  0  0  0  0  0  0
   -1.2881   -4.7715   -1.7367 C   0  0  0  0  0  0  0  0  0  0  0  0
   -0.1823   -5.6264   -1.7072 C   0  0  0  0  0  0  0  0  0  0  0  0
    0.8798   -7.1729   -0.6533 H   0  0  0  0  0  0  0  0  0  0  0  0
   -0.7467   -7.2165    1.2285 H   0  0  0  0  0  0  0  0  0  0  0  0
   -3.0599   -4.1503   -0.7007 H   0  0  0  0  0  0  0  0  0  0  0  0
   -1.4349   -4.1056   -2.5804 H   0  0  0  0  0  0  0  0  0  0  0  0
    0.9898   -5.5733   -3.0501 S   0  0  0  0  0  0  0  0  0  0  0  0
    1.9786   -4.2947   -2.6283 O   0  0  0  0  0  0  0  0  0  0  0  0
    0.3264   -5.0911   -4.2522 O   0  0  0  0  0  0  0  0  0  0  0  0
    1.7784   -6.8022   -3.0352 O   0  0  0  0  0  0  0  0  0  0  0  0
   -3.0240   -5.7262    1.5236 C   0  0  0  0  0  0  0  0  0  0  0  0
   -3.2783   -4.7189    1.8683 H   0  0  0  0  0  0  0  0  0  0  0  0
   -3.9573   -6.1978    1.1937 H   0  0  0  0  0  0  0  0  0  0  0  0
   -2.6497   -6.2944    2.3789 H   0  0  0  0  0  0  0  0  0  0  0  0
    5.9058   -4.7970    1.2542 O   0  0  0  0  0  0  0  0  0  0  0  0
    5.7755   -4.1830    2.5263 C   0  0  0  0  0  0  0  0  0  0  0  0
    6.6896   -4.4235    3.0718 H   0  0  0  0  0  0  0  0  0  0  0  0
    5.6813   -3.0926    2.4428 H   0  0  0  0  0  0  0  0  0  0  0  0
    4.9125   -4.5758    3.0798 H   0  0  0  0  0  0  0  0  0  0  0  0
  1  7  1  0  0  0  0
  2  8  1  0  0  0  0
  2  1  2  0  0  0  0
  3  2  1  0  0  0  0
  4  3  2  0  0  0  0
  4  5  1  0  0  0  0
  5  6  2  0  0  0  0
  6  1  1  0  0  0  0
  6 31  1  0  0  0  0
  9  4  1  0  0  0  0
 10  5  1  0  0  0  0
 12 11  3  0  0  0  0
 13 14  2  0  0  0  0
 14 15  1  0  0  0  0
 14 20  1  0  0  0  0
 15 27  1  0  0  0  0
 16 15  2  0  0  0  0
 17 18  2  0  0  0  0
 17 16  1  0  0  0  0
 18 13  1  0  0  0  0
 19 13  1  0  0  0  0
 21 16  1  0  0  0  0
 22 17  1  0  0  0  0
 23 26  2  0  0  0  0
 23 24  1  0  0  0  0
 23 18  1  0  0  0  0
 24  3  1  0  0  0  0
 25 23  2  0  0  0  0
 27 28  1  0  0  0  0
 27 30  1  0  0  0  0
 29 27  1  0  0  0  0
 31 32  1  0  0  0  0
 32 33  1  0  0  0  0
 32 35  1  0  0  0  0
 34 32  1  0  0  0  0
M  END
