Coordinates from ORCA-job 4-MeO-Ph-N2-OTs-B3LYPG-6-31G_dp-MTMO-d009-169-n800
 OpenBabel09051908173D

 35 34  0  0  0  0  0  0  0  0999 V2000
    3.9965   -2.8016    0.4360 C   0  0  0  0  0  0  0  0  0  0  0  0
    2.7821   -2.2634   -0.0482 C   0  0  0  0  0  0  0  0  0  0  0  0
    2.1441   -3.2449   -0.7520 C   0  0  0  0  0  0  0  0  0  0  0  0
    2.3843   -4.4440   -1.0521 C   0  0  0  0  0  0  0  0  0  0  0  0
    3.5736   -5.0162   -0.5964 C   0  0  0  0  0  0  0  0  0  0  0  0
    4.3833   -4.1387    0.1702 C   0  0  0  0  0  0  0  0  0  0  0  0
    4.6368   -2.1556    1.0255 H   0  0  0  0  0  0  0  0  0  0  0  0
    2.4581   -1.2477    0.1337 H   0  0  0  0  0  0  0  0  0  0  0  0
    1.0462   -5.3035   -2.2127 H   0  0  0  0  0  0  0  0  0  0  0  0
    3.9054   -6.0316   -0.7828 H   0  0  0  0  0  0  0  0  0  0  0  0
    0.0934   -1.0347   -1.7075 N   0  0  0  0  0  0  0  0  0  0  0  0
   -0.6131   -0.6997   -2.4880 N   0  0  0  0  0  0  0  0  0  0  0  0
   -1.6934   -5.8537    0.0494 C   0  0  0  0  0  0  0  0  0  0  0  0
   -2.1882   -6.6656    1.0685 C   0  0  0  0  0  0  0  0  0  0  0  0
   -2.7176   -7.9343    0.7935 C   0  0  0  0  0  0  0  0  0  0  0  0
   -2.7514   -8.3697   -0.5397 C   0  0  0  0  0  0  0  0  0  0  0  0
   -2.2638   -7.5719   -1.5718 C   0  0  0  0  0  0  0  0  0  0  0  0
   -1.7322   -6.3178   -1.2658 C   0  0  0  0  0  0  0  0  0  0  0  0
   -1.2979   -4.8669    0.2618 H   0  0  0  0  0  0  0  0  0  0  0  0
   -2.1687   -6.3047    2.0936 H   0  0  0  0  0  0  0  0  0  0  0  0
   -3.1715   -9.3439   -0.7735 H   0  0  0  0  0  0  0  0  0  0  0  0
   -2.3079   -7.9028   -2.6038 H   0  0  0  0  0  0  0  0  0  0  0  0
   -1.0900   -5.2950   -2.5829 S   0  0  0  0  0  0  0  0  0  0  0  0
   -1.0170   -3.9134   -2.1015 O   0  0  0  0  0  0  0  0  0  0  0  0
   -1.7857   -5.6389   -3.8150 O   0  0  0  0  0  0  0  0  0  0  0  0
    0.4272   -5.8473   -2.7658 O   0  0  0  0  0  0  0  0  0  0  0  0
   -3.2226   -8.8192    1.9074 C   0  0  0  0  0  0  0  0  0  0  0  0
   -4.0352   -9.4680    1.5674 H   0  0  0  0  0  0  0  0  0  0  0  0
   -2.4227   -9.4696    2.2831 H   0  0  0  0  0  0  0  0  0  0  0  0
   -3.5878   -8.2303    2.7535 H   0  0  0  0  0  0  0  0  0  0  0  0
    5.5466   -4.6888    0.6192 O   0  0  0  0  0  0  0  0  0  0  0  0
    6.4439   -3.8841    1.3692 C   0  0  0  0  0  0  0  0  0  0  0  0
    7.2952   -4.5235    1.6063 H   0  0  0  0  0  0  0  0  0  0  0  0
    6.7922   -3.0202    0.7889 H   0  0  0  0  0  0  0  0  0  0  0  0
    5.9873   -3.5319    2.3031 H   0  0  0  0  0  0  0  0  0  0  0  0
  1  7  1  0  0  0  0
  2  8  1  0  0  0  0
  2  1  2  0  0  0  0
  3  2  1  0  0  0  0
  4  3  2  0  0  0  0
  4  5  1  0  0  0  0
  5  6  2  0  0  0  0
  6  1  1  0  0  0  0
  6 31  1  0  0  0  0
 10  5  1  0  0  0  0
 12 11  3  0  0  0  0
 13 19  1  0  0  0  0
 13 14  2  0  0  0  0
 14 20  1  0  0  0  0
 15 14  1  0  0  0  0
 15 27  1  0  0  0  0
 16 15  2  0  0  0  0
 17 18  2  0  0  0  0
 17 16  1  0  0  0  0
 18 13  1  0  0  0  0
 21 16  1  0  0  0  0
 22 17  1  0  0  0  0
 23 24  2  0  0  0  0
 23 18  1  0  0  0  0
 25 23  2  0  0  0  0
 26 23  1  0  0  0  0
 26  9  1  0  0  0  0
 27 29  1  0  0  0  0
 27 30  1  0  0  0  0
 28 27  1  0  0  0  0
 31 32  1  0  0  0  0
 32 33  1  0  0  0  0
 32 35  1  0  0  0  0
 34 32  1  0  0  0  0
M  RAD  2   3   2   4   2
M  END
