Coordinates from ORCA-job 4-MeO-Ph-N2-OTs-B3LYPG-6-31G_dp-MTMO-d009-169-n800
 OpenBabel09051908173D

 35 35  0  0  0  0  0  0  0  0999 V2000
    2.7394   -3.8322    0.5605 C   0  0  0  0  0  0  0  0  0  0  0  0
    1.6065   -3.8985   -0.2553 C   0  0  0  0  0  0  0  0  0  0  0  0
    1.7167   -4.3587   -1.5628 C   0  0  0  0  0  0  0  0  0  0  0  0
    2.9524   -4.7640   -2.0770 C   0  0  0  0  0  0  0  0  0  0  0  0
    4.0769   -4.7091   -1.2648 C   0  0  0  0  0  0  0  0  0  0  0  0
    3.9801   -4.2417    0.0563 C   0  0  0  0  0  0  0  0  0  0  0  0
    2.6406   -3.4622    1.5733 H   0  0  0  0  0  0  0  0  0  0  0  0
    0.6383   -3.5807    0.1163 H   0  0  0  0  0  0  0  0  0  0  0  0
    3.0166   -5.1213   -3.0974 H   0  0  0  0  0  0  0  0  0  0  0  0
    5.0490   -5.0175   -1.6340 H   0  0  0  0  0  0  0  0  0  0  0  0
   -1.8556   -2.2682   -2.5015 N   0  0  0  0  0  0  0  0  0  0  0  0
   -1.5201   -1.6594   -3.3603 N   0  0  0  0  0  0  0  0  0  0  0  0
   -0.3254   -7.3097   -0.5597 C   0  0  0  0  0  0  0  0  0  0  0  0
   -0.9398   -7.7292    0.6201 C   0  0  0  0  0  0  0  0  0  0  0  0
   -2.1388   -7.1527    1.0585 C   0  0  0  0  0  0  0  0  0  0  0  0
   -2.7208   -6.1391    0.2789 C   0  0  0  0  0  0  0  0  0  0  0  0
   -2.1262   -5.7070   -0.9019 C   0  0  0  0  0  0  0  0  0  0  0  0
   -0.9270   -6.2997   -1.3097 C   0  0  0  0  0  0  0  0  0  0  0  0
    0.5954   -7.7636   -0.9064 H   0  0  0  0  0  0  0  0  0  0  0  0
   -0.4816   -8.5214    1.2059 H   0  0  0  0  0  0  0  0  0  0  0  0
   -3.6568   -5.6896    0.5989 H   0  0  0  0  0  0  0  0  0  0  0  0
   -2.5831   -4.9317   -1.5073 H   0  0  0  0  0  0  0  0  0  0  0  0
   -0.1594   -5.7547   -2.8242 S   0  0  0  0  0  0  0  0  0  0  0  0
    0.5780   -4.3239   -2.3774 O   0  0  0  0  0  0  0  0  0  0  0  0
   -1.1818   -5.3088   -3.7592 O   0  0  0  0  0  0  0  0  0  0  0  0
    0.8705   -6.7186   -3.2015 O   0  0  0  0  0  0  0  0  0  0  0  0
   -2.7920   -7.5979    2.3443 C   0  0  0  0  0  0  0  0  0  0  0  0
   -2.6786   -6.8365    3.1261 H   0  0  0  0  0  0  0  0  0  0  0  0
   -3.8658   -7.7629    2.2088 H   0  0  0  0  0  0  0  0  0  0  0  0
   -2.3503   -8.5247    2.7180 H   0  0  0  0  0  0  0  0  0  0  0  0
    5.1482   -4.2226    0.7607 O   0  0  0  0  0  0  0  0  0  0  0  0
    5.1200   -3.7490    2.0978 C   0  0  0  0  0  0  0  0  0  0  0  0
    6.1462   -3.8153    2.4625 H   0  0  0  0  0  0  0  0  0  0  0  0
    4.7860   -2.7049    2.1511 H   0  0  0  0  0  0  0  0  0  0  0  0
    4.4719   -4.3662    2.7332 H   0  0  0  0  0  0  0  0  0  0  0  0
  1  7  1  0  0  0  0
  2  8  1  0  0  0  0
  2  1  2  0  0  0  0
  3  2  1  0  0  0  0
  4  3  2  0  0  0  0
  4  5  1  0  0  0  0
  5  6  2  0  0  0  0
  6  1  1  0  0  0  0
  6 31  1  0  0  0  0
  9  4  1  0  0  0  0
 10  5  1  0  0  0  0
 12 11  3  0  0  0  0
 13 14  2  0  0  0  0
 14 15  1  0  0  0  0
 14 20  1  0  0  0  0
 15 27  1  0  0  0  0
 16 21  1  0  0  0  0
 16 15  2  0  0  0  0
 17 16  1  0  0  0  0
 18 17  2  0  0  0  0
 18 13  1  0  0  0  0
 19 13  1  0  0  0  0
 22 17  1  0  0  0  0
 23 24  1  0  0  0  0
 23 18  1  0  0  0  0
 24  3  1  0  0  0  0
 25 23  2  0  0  0  0
 26 23  2  0  0  0  0
 27 30  1  0  0  0  0
 27 28  1  0  0  0  0
 29 27  1  0  0  0  0
 31 32  1  0  0  0  0
 32 34  1  0  0  0  0
 32 33  1  0  0  0  0
 32 35  1  0  0  0  0
M  END
