Coordinates from ORCA-job 4-MeO-Ph-N2-OTs-B3LYPG-6-31G_dp-MTMO-d009-169-n800
 OpenBabel09051908173D

 35 34  0  0  0  0  0  0  0  0999 V2000
    3.9406   -2.8084    0.4669 C   0  0  0  0  0  0  0  0  0  0  0  0
    2.7913   -2.1679   -0.0500 C   0  0  0  0  0  0  0  0  0  0  0  0
    2.1196   -3.0750   -0.8179 C   0  0  0  0  0  0  0  0  0  0  0  0
    2.2799   -4.2795   -1.1500 C   0  0  0  0  0  0  0  0  0  0  0  0
    3.4055   -4.9492   -0.6632 C   0  0  0  0  0  0  0  0  0  0  0  0
    4.2411   -4.1608    0.1691 C   0  0  0  0  0  0  0  0  0  0  0  0
    4.5984   -2.2303    1.1055 H   0  0  0  0  0  0  0  0  0  0  0  0
    2.5325   -1.1375    0.1545 H   0  0  0  0  0  0  0  0  0  0  0  0
    0.9484   -5.1271   -2.3053 H   0  0  0  0  0  0  0  0  0  0  0  0
    3.6693   -5.9806   -0.8696 H   0  0  0  0  0  0  0  0  0  0  0  0
    0.2282   -1.0734   -1.9103 N   0  0  0  0  0  0  0  0  0  0  0  0
   -0.3776   -0.7796   -2.7863 N   0  0  0  0  0  0  0  0  0  0  0  0
   -1.6618   -5.8042    0.0352 C   0  0  0  0  0  0  0  0  0  0  0  0
   -2.0751   -6.6314    1.0777 C   0  0  0  0  0  0  0  0  0  0  0  0
   -2.5530   -7.9263    0.8312 C   0  0  0  0  0  0  0  0  0  0  0  0
   -2.6182   -8.3730   -0.4969 C   0  0  0  0  0  0  0  0  0  0  0  0
   -2.2108   -7.5604   -1.5523 C   0  0  0  0  0  0  0  0  0  0  0  0
   -1.7298   -6.2797   -1.2749 C   0  0  0  0  0  0  0  0  0  0  0  0
   -1.3078   -4.7974    0.2261 H   0  0  0  0  0  0  0  0  0  0  0  0
   -2.0326   -6.2622    2.0992 H   0  0  0  0  0  0  0  0  0  0  0  0
   -3.0004   -9.3678   -0.7081 H   0  0  0  0  0  0  0  0  0  0  0  0
   -2.2798   -7.9006   -2.5798 H   0  0  0  0  0  0  0  0  0  0  0  0
   -1.1947   -5.2346   -2.6223 S   0  0  0  0  0  0  0  0  0  0  0  0
   -1.1903   -3.8466   -2.1545 O   0  0  0  0  0  0  0  0  0  0  0  0
   -1.9086   -5.6336   -3.8272 O   0  0  0  0  0  0  0  0  0  0  0  0
    0.3464   -5.6947   -2.8545 O   0  0  0  0  0  0  0  0  0  0  0  0
   -2.9711   -8.8248    1.9701 C   0  0  0  0  0  0  0  0  0  0  0  0
   -3.7436   -9.5340    1.6588 H   0  0  0  0  0  0  0  0  0  0  0  0
   -2.1200   -9.4112    2.3386 H   0  0  0  0  0  0  0  0  0  0  0  0
   -3.3579   -8.2477    2.8148 H   0  0  0  0  0  0  0  0  0  0  0  0
    5.3390   -4.8106    0.6481 O   0  0  0  0  0  0  0  0  0  0  0  0
    6.2444   -4.1071    1.4848 C   0  0  0  0  0  0  0  0  0  0  0  0
    7.0325   -4.8170    1.7395 H   0  0  0  0  0  0  0  0  0  0  0  0
    6.6874   -3.2468    0.9670 H   0  0  0  0  0  0  0  0  0  0  0  0
    5.7584   -3.7626    2.4068 H   0  0  0  0  0  0  0  0  0  0  0  0
  1  7  1  0  0  0  0
  2  8  1  0  0  0  0
  2  1  2  0  0  0  0
  3  2  1  0  0  0  0
  4  3  2  0  0  0  0
  4  5  1  0  0  0  0
  5  6  2  0  0  0  0
  6  1  1  0  0  0  0
  6 31  1  0  0  0  0
 10  5  1  0  0  0  0
 12 11  3  0  0  0  0
 13 19  1  0  0  0  0
 13 14  2  0  0  0  0
 14 20  1  0  0  0  0
 15 14  1  0  0  0  0
 15 27  1  0  0  0  0
 16 15  2  0  0  0  0
 17 18  2  0  0  0  0
 17 16  1  0  0  0  0
 18 13  1  0  0  0  0
 21 16  1  0  0  0  0
 22 17  1  0  0  0  0
 23 24  2  0  0  0  0
 23 18  1  0  0  0  0
 25 23  2  0  0  0  0
 26 23  1  0  0  0  0
 26  9  1  0  0  0  0
 27 29  1  0  0  0  0
 27 30  1  0  0  0  0
 28 27  1  0  0  0  0
 31 32  1  0  0  0  0
 32 33  1  0  0  0  0
 32 35  1  0  0  0  0
 34 32  1  0  0  0  0
M  RAD  2   3   2   4   2
M  END
