Coordinates from ORCA-job 4-MeO-Ph-N2-OTs-B3LYPG-6-31G_dp-MTMO-d009-169-n800
 OpenBabel09051908173D

 35 35  0  0  0  0  0  0  0  0999 V2000
    3.5253   -4.0312    0.6438 C   0  0  0  0  0  0  0  0  0  0  0  0
    2.5728   -3.9160   -0.3729 C   0  0  0  0  0  0  0  0  0  0  0  0
    2.7874   -4.5334   -1.6001 C   0  0  0  0  0  0  0  0  0  0  0  0
    3.9485   -5.2768   -1.8332 C   0  0  0  0  0  0  0  0  0  0  0  0
    4.8917   -5.3993   -0.8222 C   0  0  0  0  0  0  0  0  0  0  0  0
    4.6888   -4.7775    0.4208 C   0  0  0  0  0  0  0  0  0  0  0  0
    3.3491   -3.5378    1.5918 H   0  0  0  0  0  0  0  0  0  0  0  0
    1.6683   -3.3370   -0.2196 H   0  0  0  0  0  0  0  0  0  0  0  0
    4.0957   -5.7520   -2.7954 H   0  0  0  0  0  0  0  0  0  0  0  0
    5.8031   -5.9678   -0.9729 H   0  0  0  0  0  0  0  0  0  0  0  0
   -8.9874   -8.1377    0.5152 N   0  0  0  0  0  0  0  0  0  0  0  0
   -9.9437   -8.6443    0.2905 N   0  0  0  0  0  0  0  0  0  0  0  0
   -0.2036   -6.5011   -0.7089 C   0  0  0  0  0  0  0  0  0  0  0  0
   -1.1484   -6.5057    0.3168 C   0  0  0  0  0  0  0  0  0  0  0  0
   -2.2424   -5.6303    0.3003 C   0  0  0  0  0  0  0  0  0  0  0  0
   -2.3714   -4.7386   -0.7768 C   0  0  0  0  0  0  0  0  0  0  0  0
   -1.4404   -4.7177   -1.8105 C   0  0  0  0  0  0  0  0  0  0  0  0
   -0.3601   -5.6033   -1.7649 C   0  0  0  0  0  0  0  0  0  0  0  0
    0.6349   -7.1886   -0.7027 H   0  0  0  0  0  0  0  0  0  0  0  0
   -1.0345   -7.2045    1.1416 H   0  0  0  0  0  0  0  0  0  0  0  0
   -3.2169   -4.0560   -0.8075 H   0  0  0  0  0  0  0  0  0  0  0  0
   -1.5489   -4.0392   -2.6500 H   0  0  0  0  0  0  0  0  0  0  0  0
    0.8435   -5.5705   -3.0803 S   0  0  0  0  0  0  0  0  0  0  0  0
    1.8568   -4.3227   -2.6254 O   0  0  0  0  0  0  0  0  0  0  0  0
    0.2209   -5.0603   -4.2927 O   0  0  0  0  0  0  0  0  0  0  0  0
    1.5981   -6.8204   -3.0587 O   0  0  0  0  0  0  0  0  0  0  0  0
   -3.2781   -5.6600    1.3979 C   0  0  0  0  0  0  0  0  0  0  0  0
   -3.5920   -4.6502    1.6787 H   0  0  0  0  0  0  0  0  0  0  0  0
   -4.1765   -6.1984    1.0724 H   0  0  0  0  0  0  0  0  0  0  0  0
   -2.9005   -6.1611    2.2930 H   0  0  0  0  0  0  0  0  0  0  0  0
    5.6824   -4.9576    1.3382 O   0  0  0  0  0  0  0  0  0  0  0  0
    5.5402   -4.3493    2.6117 C   0  0  0  0  0  0  0  0  0  0  0  0
    6.4363   -4.6161    3.1747 H   0  0  0  0  0  0  0  0  0  0  0  0
    5.4747   -3.2563    2.5342 H   0  0  0  0  0  0  0  0  0  0  0  0
    4.6562   -4.7243    3.1439 H   0  0  0  0  0  0  0  0  0  0  0  0
  1  7  1  0  0  0  0
  2  8  1  0  0  0  0
  2  1  2  0  0  0  0
  3  2  1  0  0  0  0
  4  3  2  0  0  0  0
  4  5  1  0  0  0  0
  5  6  2  0  0  0  0
  6  1  1  0  0  0  0
  6 31  1  0  0  0  0
  9  4  1  0  0  0  0
 10  5  1  0  0  0  0
 12 11  3  0  0  0  0
 13 19  1  0  0  0  0
 13 14  2  0  0  0  0
 14 20  1  0  0  0  0
 15 14  1  0  0  0  0
 15 27  1  0  0  0  0
 16 15  2  0  0  0  0
 17 18  2  0  0  0  0
 17 16  1  0  0  0  0
 18 13  1  0  0  0  0
 21 16  1  0  0  0  0
 22 17  1  0  0  0  0
 23 26  2  0  0  0  0
 23 24  1  0  0  0  0
 23 18  1  0  0  0  0
 24  3  1  0  0  0  0
 25 23  2  0  0  0  0
 27 28  1  0  0  0  0
 27 30  1  0  0  0  0
 29 27  1  0  0  0  0
 31 32  1  0  0  0  0
 32 35  1  0  0  0  0
 32 33  1  0  0  0  0
 34 32  1  0  0  0  0
M  END
