Coordinates from ORCA-job 4-MeO-Ph-N2-OTs-B3LYPG-6-31G_dp-MTMO-d009-169-n800
 OpenBabel09051908173D

 35 35  0  0  0  0  0  0  0  0999 V2000
    3.6780   -3.7548    0.5294 C   0  0  0  0  0  0  0  0  0  0  0  0
    2.6772   -3.7704   -0.4462 C   0  0  0  0  0  0  0  0  0  0  0  0
    2.8996   -4.4102   -1.6607 C   0  0  0  0  0  0  0  0  0  0  0  0
    4.1181   -5.0447   -1.9218 C   0  0  0  0  0  0  0  0  0  0  0  0
    5.1098   -5.0382   -0.9507 C   0  0  0  0  0  0  0  0  0  0  0  0
    4.8986   -4.3937    0.2793 C   0  0  0  0  0  0  0  0  0  0  0  0
    3.4938   -3.2469    1.4682 H   0  0  0  0  0  0  0  0  0  0  0  0
    1.7274   -3.2766   -0.2715 H   0  0  0  0  0  0  0  0  0  0  0  0
    4.2712   -5.5386   -2.8736 H   0  0  0  0  0  0  0  0  0  0  0  0
    6.0650   -5.5223   -1.1231 H   0  0  0  0  0  0  0  0  0  0  0  0
  -13.5116   -7.9017   -0.2243 N   0  0  0  0  0  0  0  0  0  0  0  0
  -14.4563   -8.4278   -0.4535 N   0  0  0  0  0  0  0  0  0  0  0  0
    0.2579   -6.6636   -0.5564 C   0  0  0  0  0  0  0  0  0  0  0  0
   -0.6150   -6.7599    0.5278 C   0  0  0  0  0  0  0  0  0  0  0  0
   -1.8227   -6.0505    0.5529 C   0  0  0  0  0  0  0  0  0  0  0  0
   -2.1451   -5.2355   -0.5452 C   0  0  0  0  0  0  0  0  0  0  0  0
   -1.2882   -5.1238   -1.6355 C   0  0  0  0  0  0  0  0  0  0  0  0
   -0.0887   -5.8423   -1.6291 C   0  0  0  0  0  0  0  0  0  0  0  0
    1.1844   -7.2254   -0.5820 H   0  0  0  0  0  0  0  0  0  0  0  0
   -0.3540   -7.4017    1.3650 H   0  0  0  0  0  0  0  0  0  0  0  0
   -3.0841   -4.6885   -0.5478 H   0  0  0  0  0  0  0  0  0  0  0  0
   -1.5446   -4.5078   -2.4905 H   0  0  0  0  0  0  0  0  0  0  0  0
    1.0177   -5.6966   -3.0197 S   0  0  0  0  0  0  0  0  0  0  0  0
    1.9075   -4.3326   -2.6462 O   0  0  0  0  0  0  0  0  0  0  0  0
    0.2661   -5.2857   -4.1960 O   0  0  0  0  0  0  0  0  0  0  0  0
    1.9120   -6.8510   -3.0307 O   0  0  0  0  0  0  0  0  0  0  0  0
   -2.7641   -6.1539    1.7286 C   0  0  0  0  0  0  0  0  0  0  0  0
   -2.8447   -5.1951    2.2544 H   0  0  0  0  0  0  0  0  0  0  0  0
   -3.7738   -6.4272    1.4042 H   0  0  0  0  0  0  0  0  0  0  0  0
   -2.4260   -6.9031    2.4489 H   0  0  0  0  0  0  0  0  0  0  0  0
    5.9410   -4.4453    1.1578 O   0  0  0  0  0  0  0  0  0  0  0  0
    5.7943   -3.8029    2.4140 C   0  0  0  0  0  0  0  0  0  0  0  0
    6.7321   -3.9670    2.9476 H   0  0  0  0  0  0  0  0  0  0  0  0
    5.6276   -2.7238    2.3009 H   0  0  0  0  0  0  0  0  0  0  0  0
    4.9691   -4.2337    2.9961 H   0  0  0  0  0  0  0  0  0  0  0  0
  1  7  1  0  0  0  0
  2  8  1  0  0  0  0
  2  1  2  0  0  0  0
  3  2  1  0  0  0  0
  4  3  2  0  0  0  0
  4  5  1  0  0  0  0
  5  6  2  0  0  0  0
  6  1  1  0  0  0  0
  6 31  1  0  0  0  0
  9  4  1  0  0  0  0
 10  5  1  0  0  0  0
 12 11  3  0  0  0  0
 13 14  2  0  0  0  0
 14 15  1  0  0  0  0
 14 20  1  0  0  0  0
 15 27  1  0  0  0  0
 16 15  2  0  0  0  0
 17 18  2  0  0  0  0
 17 16  1  0  0  0  0
 18 13  1  0  0  0  0
 19 13  1  0  0  0  0
 21 16  1  0  0  0  0
 22 17  1  0  0  0  0
 23 24  1  0  0  0  0
 23 18  1  0  0  0  0
 24  3  1  0  0  0  0
 25 23  2  0  0  0  0
 26 23  2  0  0  0  0
 27 28  1  0  0  0  0
 27 30  1  0  0  0  0
 29 27  1  0  0  0  0
 31 32  1  0  0  0  0
 32 33  1  0  0  0  0
 32 35  1  0  0  0  0
 34 32  1  0  0  0  0
M  END
