Coordinates from ORCA-job 4-MeO-Ph-N2-OTs-B3LYPG-6-31G_dp-MTMO-d009-169-n800
 OpenBabel09051908173D

 35 35  0  0  0  0  0  0  0  0999 V2000
    3.4352   -4.0548    0.7019 C   0  0  0  0  0  0  0  0  0  0  0  0
    2.4969   -3.9282   -0.3264 C   0  0  0  0  0  0  0  0  0  0  0  0
    2.7412   -4.5085   -1.5662 C   0  0  0  0  0  0  0  0  0  0  0  0
    3.9184   -5.2258   -1.8004 C   0  0  0  0  0  0  0  0  0  0  0  0
    4.8476   -5.3596   -0.7781 C   0  0  0  0  0  0  0  0  0  0  0  0
    4.6146   -4.7753    0.4778 C   0  0  0  0  0  0  0  0  0  0  0  0
    3.2356   -3.5901    1.6597 H   0  0  0  0  0  0  0  0  0  0  0  0
    1.5803   -3.3687   -0.1722 H   0  0  0  0  0  0  0  0  0  0  0  0
    4.0888   -5.6723   -2.7724 H   0  0  0  0  0  0  0  0  0  0  0  0
    5.7708   -5.9086   -0.9292 H   0  0  0  0  0  0  0  0  0  0  0  0
   -7.7456   -7.5714    0.8681 N   0  0  0  0  0  0  0  0  0  0  0  0
   -8.7597   -7.9960    0.7543 N   0  0  0  0  0  0  0  0  0  0  0  0
   -0.2536   -6.5395   -0.7874 C   0  0  0  0  0  0  0  0  0  0  0  0
   -1.2295   -6.5892    0.2074 C   0  0  0  0  0  0  0  0  0  0  0  0
   -2.3439   -5.7401    0.1751 C   0  0  0  0  0  0  0  0  0  0  0  0
   -2.4602   -4.8274   -0.8857 C   0  0  0  0  0  0  0  0  0  0  0  0
   -1.4978   -4.7612   -1.8886 C   0  0  0  0  0  0  0  0  0  0  0  0
   -0.3984   -5.6220   -1.8283 C   0  0  0  0  0  0  0  0  0  0  0  0
    0.6001   -7.2078   -0.7698 H   0  0  0  0  0  0  0  0  0  0  0  0
   -1.1242   -7.3035    1.0200 H   0  0  0  0  0  0  0  0  0  0  0  0
   -3.3203   -4.1642   -0.9285 H   0  0  0  0  0  0  0  0  0  0  0  0
   -1.5967   -4.0669   -2.7163 H   0  0  0  0  0  0  0  0  0  0  0  0
    0.8402   -5.5378   -3.1087 S   0  0  0  0  0  0  0  0  0  0  0  0
    1.8229   -4.2857   -2.6000 O   0  0  0  0  0  0  0  0  0  0  0  0
    0.2408   -5.0089   -4.3248 O   0  0  0  0  0  0  0  0  0  0  0  0
    1.6140   -6.7761   -3.0958 O   0  0  0  0  0  0  0  0  0  0  0  0
   -3.4120   -5.8196    1.2388 C   0  0  0  0  0  0  0  0  0  0  0  0
   -3.7760   -4.8252    1.5140 H   0  0  0  0  0  0  0  0  0  0  0  0
   -4.2773   -6.3938    0.8853 H   0  0  0  0  0  0  0  0  0  0  0  0
   -3.0412   -6.3090    2.1432 H   0  0  0  0  0  0  0  0  0  0  0  0
    5.5966   -4.9638    1.4060 O   0  0  0  0  0  0  0  0  0  0  0  0
    5.4247   -4.3915    2.6925 C   0  0  0  0  0  0  0  0  0  0  0  0
    6.3158   -4.6592    3.2628 H   0  0  0  0  0  0  0  0  0  0  0  0
    5.3432   -3.2979    2.6423 H   0  0  0  0  0  0  0  0  0  0  0  0
    4.5384   -4.7938    3.2003 H   0  0  0  0  0  0  0  0  0  0  0  0
  1  7  1  0  0  0  0
  2  8  1  0  0  0  0
  2  1  2  0  0  0  0
  3  2  1  0  0  0  0
  4  3  2  0  0  0  0
  4  5  1  0  0  0  0
  5  6  2  0  0  0  0
  6  1  1  0  0  0  0
  6 31  1  0  0  0  0
  9  4  1  0  0  0  0
 10  5  1  0  0  0  0
 12 11  3  0  0  0  0
 13 19  1  0  0  0  0
 13 14  2  0  0  0  0
 14 20  1  0  0  0  0
 15 14  1  0  0  0  0
 15 27  1  0  0  0  0
 16 15  2  0  0  0  0
 17 18  2  0  0  0  0
 17 16  1  0  0  0  0
 18 13  1  0  0  0  0
 21 16  1  0  0  0  0
 22 17  1  0  0  0  0
 23 26  2  0  0  0  0
 23 24  1  0  0  0  0
 23 18  1  0  0  0  0
 24  3  1  0  0  0  0
 25 23  2  0  0  0  0
 27 28  1  0  0  0  0
 27 30  1  0  0  0  0
 29 27  1  0  0  0  0
 31 32  1  0  0  0  0
 32 35  1  0  0  0  0
 32 33  1  0  0  0  0
 34 32  1  0  0  0  0
M  END
