Coordinates from ORCA-job 4-MeO-Ph-N2-OTs-B3LYPG-6-31G_dp-MTMO-d009-169-n800
 OpenBabel09051908173D

 35 35  0  0  0  0  0  0  0  0999 V2000
    3.0260   -3.9639    0.7743 C   0  0  0  0  0  0  0  0  0  0  0  0
    1.8767   -3.8759   -0.0159 C   0  0  0  0  0  0  0  0  0  0  0  0
    1.9343   -4.2010   -1.3667 C   0  0  0  0  0  0  0  0  0  0  0  0
    3.1334   -4.6218   -1.9504 C   0  0  0  0  0  0  0  0  0  0  0  0
    4.2735   -4.7205   -1.1645 C   0  0  0  0  0  0  0  0  0  0  0  0
    4.2299   -4.3909    0.2002 C   0  0  0  0  0  0  0  0  0  0  0  0
    2.9686   -3.6961    1.8222 H   0  0  0  0  0  0  0  0  0  0  0  0
    0.9371   -3.5414    0.4105 H   0  0  0  0  0  0  0  0  0  0  0  0
    3.1577   -4.8727   -3.0038 H   0  0  0  0  0  0  0  0  0  0  0  0
    5.2180   -5.0451   -1.5879 H   0  0  0  0  0  0  0  0  0  0  0  0
   -4.0044   -3.3973   -3.5755 N   0  0  0  0  0  0  0  0  0  0  0  0
   -3.9468   -3.0767   -4.6313 N   0  0  0  0  0  0  0  0  0  0  0  0
   -0.2550   -6.9936   -0.5395 C   0  0  0  0  0  0  0  0  0  0  0  0
   -0.9039   -7.4791    0.5944 C   0  0  0  0  0  0  0  0  0  0  0  0
   -2.1433   -6.9634    0.9985 C   0  0  0  0  0  0  0  0  0  0  0  0
   -2.7294   -5.9463    0.2288 C   0  0  0  0  0  0  0  0  0  0  0  0
   -2.0989   -5.4458   -0.9070 C   0  0  0  0  0  0  0  0  0  0  0  0
   -0.8607   -5.9765   -1.2791 C   0  0  0  0  0  0  0  0  0  0  0  0
    0.6941   -7.4049   -0.8619 H   0  0  0  0  0  0  0  0  0  0  0  0
   -0.4431   -8.2774    1.1700 H   0  0  0  0  0  0  0  0  0  0  0  0
   -3.6979   -5.5481    0.5178 H   0  0  0  0  0  0  0  0  0  0  0  0
   -2.5655   -4.6744   -1.5103 H   0  0  0  0  0  0  0  0  0  0  0  0
   -0.0419   -5.3406   -2.7292 S   0  0  0  0  0  0  0  0  0  0  0  0
    0.7839   -4.0117   -2.1441 O   0  0  0  0  0  0  0  0  0  0  0  0
   -1.0253   -4.7455   -3.6223 O   0  0  0  0  0  0  0  0  0  0  0  0
    0.9287   -6.3289   -3.1913 O   0  0  0  0  0  0  0  0  0  0  0  0
   -2.8267   -7.4779    2.2421 C   0  0  0  0  0  0  0  0  0  0  0  0
   -2.5912   -6.8456    3.1072 H   0  0  0  0  0  0  0  0  0  0  0  0
   -3.9152   -7.4805    2.1288 H   0  0  0  0  0  0  0  0  0  0  0  0
   -2.5054   -8.4945    2.4833 H   0  0  0  0  0  0  0  0  0  0  0  0
    5.4090   -4.5156    0.8748 O   0  0  0  0  0  0  0  0  0  0  0  0
    5.4327   -4.1837    2.2538 C   0  0  0  0  0  0  0  0  0  0  0  0
    6.4591   -4.3470    2.5855 H   0  0  0  0  0  0  0  0  0  0  0  0
    5.1619   -3.1334    2.4223 H   0  0  0  0  0  0  0  0  0  0  0  0
    4.7598   -4.8253    2.8369 H   0  0  0  0  0  0  0  0  0  0  0  0
  1  7  1  0  0  0  0
  2  8  1  0  0  0  0
  2  1  2  0  0  0  0
  3  2  1  0  0  0  0
  4  3  2  0  0  0  0
  4  5  1  0  0  0  0
  5  6  2  0  0  0  0
  6  1  1  0  0  0  0
  6 31  1  0  0  0  0
  9  4  1  0  0  0  0
 10  5  1  0  0  0  0
 12 11  3  0  0  0  0
 13 14  2  0  0  0  0
 14 15  1  0  0  0  0
 14 20  1  0  0  0  0
 15 27  1  0  0  0  0
 16 21  1  0  0  0  0
 16 15  2  0  0  0  0
 17 16  1  0  0  0  0
 18 17  2  0  0  0  0
 18 13  1  0  0  0  0
 19 13  1  0  0  0  0
 22 17  1  0  0  0  0
 23 24  1  0  0  0  0
 23 18  1  0  0  0  0
 24  3  1  0  0  0  0
 25 23  2  0  0  0  0
 26 23  2  0  0  0  0
 27 30  1  0  0  0  0
 27 28  1  0  0  0  0
 29 27  1  0  0  0  0
 31 32  1  0  0  0  0
 32 34  1  0  0  0  0
 32 33  1  0  0  0  0
 32 35  1  0  0  0  0
M  END
