Coordinates from ORCA-job 4-MeO-Ph-N2-OTs-B3LYPG-6-31G_dp-MTMO-d009-169-n800
 OpenBabel09051908173D

 35 35  0  0  0  0  0  0  0  0999 V2000
    3.4285   -4.0598    0.7012 C   0  0  0  0  0  0  0  0  0  0  0  0
    2.4856   -3.9343   -0.3230 C   0  0  0  0  0  0  0  0  0  0  0  0
    2.7239   -4.5167   -1.5629 C   0  0  0  0  0  0  0  0  0  0  0  0
    3.8996   -5.2350   -1.8014 C   0  0  0  0  0  0  0  0  0  0  0  0
    4.8334   -5.3677   -0.7832 C   0  0  0  0  0  0  0  0  0  0  0  0
    4.6066   -4.7813    0.4728 C   0  0  0  0  0  0  0  0  0  0  0  0
    3.2337   -3.5934    1.6592 H   0  0  0  0  0  0  0  0  0  0  0  0
    1.5701   -3.3741   -0.1655 H   0  0  0  0  0  0  0  0  0  0  0  0
    4.0653   -5.6833   -2.7734 H   0  0  0  0  0  0  0  0  0  0  0  0
    5.7556   -5.9175   -0.9377 H   0  0  0  0  0  0  0  0  0  0  0  0
   -7.4813   -7.5183    0.7803 N   0  0  0  0  0  0  0  0  0  0  0  0
   -8.4798   -7.9699    0.6369 N   0  0  0  0  0  0  0  0  0  0  0  0
   -0.2774   -6.5388   -0.7696 C   0  0  0  0  0  0  0  0  0  0  0  0
   -1.2532   -6.5843    0.2256 C   0  0  0  0  0  0  0  0  0  0  0  0
   -2.3674   -5.7351    0.1903 C   0  0  0  0  0  0  0  0  0  0  0  0
   -2.4836   -4.8266   -0.8742 C   0  0  0  0  0  0  0  0  0  0  0  0
   -1.5214   -4.7646   -1.8775 C   0  0  0  0  0  0  0  0  0  0  0  0
   -0.4222   -5.6255   -1.8140 C   0  0  0  0  0  0  0  0  0  0  0  0
    0.5760   -7.2074   -0.7495 H   0  0  0  0  0  0  0  0  0  0  0  0
   -1.1479   -7.2954    1.0410 H   0  0  0  0  0  0  0  0  0  0  0  0
   -3.3436   -4.1633   -0.9195 H   0  0  0  0  0  0  0  0  0  0  0  0
   -1.6202   -4.0736   -2.7080 H   0  0  0  0  0  0  0  0  0  0  0  0
    0.8156   -5.5475   -3.0958 S   0  0  0  0  0  0  0  0  0  0  0  0
    1.8009   -4.2951   -2.5928 O   0  0  0  0  0  0  0  0  0  0  0  0
    0.2156   -5.0221   -4.3131 O   0  0  0  0  0  0  0  0  0  0  0  0
    1.5875   -6.7870   -3.0793 O   0  0  0  0  0  0  0  0  0  0  0  0
   -3.4352   -5.8098    1.2546 C   0  0  0  0  0  0  0  0  0  0  0  0
   -3.7949   -4.8137    1.5295 H   0  0  0  0  0  0  0  0  0  0  0  0
   -4.3033   -6.3807    0.9030 H   0  0  0  0  0  0  0  0  0  0  0  0
   -3.0653   -6.2995    2.1593 H   0  0  0  0  0  0  0  0  0  0  0  0
    5.5927   -4.9688    1.3968 O   0  0  0  0  0  0  0  0  0  0  0  0
    5.4269   -4.3945    2.6832 C   0  0  0  0  0  0  0  0  0  0  0  0
    6.3205   -4.6618    3.2499 H   0  0  0  0  0  0  0  0  0  0  0  0
    5.3456   -3.3010    2.6319 H   0  0  0  0  0  0  0  0  0  0  0  0
    4.5428   -4.7958    3.1956 H   0  0  0  0  0  0  0  0  0  0  0  0
  1  7  1  0  0  0  0
  2  8  1  0  0  0  0
  2  1  2  0  0  0  0
  3  2  1  0  0  0  0
  4  3  2  0  0  0  0
  4  5  1  0  0  0  0
  5  6  2  0  0  0  0
  6  1  1  0  0  0  0
  6 31  1  0  0  0  0
  9  4  1  0  0  0  0
 10  5  1  0  0  0  0
 12 11  3  0  0  0  0
 13 19  1  0  0  0  0
 13 14  2  0  0  0  0
 14 20  1  0  0  0  0
 15 14  1  0  0  0  0
 15 27  1  0  0  0  0
 16 15  2  0  0  0  0
 17 18  2  0  0  0  0
 17 16  1  0  0  0  0
 18 13  1  0  0  0  0
 21 16  1  0  0  0  0
 22 17  1  0  0  0  0
 23 26  2  0  0  0  0
 23 24  1  0  0  0  0
 23 18  1  0  0  0  0
 24  3  1  0  0  0  0
 25 23  2  0  0  0  0
 27 28  1  0  0  0  0
 27 30  1  0  0  0  0
 29 27  1  0  0  0  0
 31 32  1  0  0  0  0
 32 35  1  0  0  0  0
 32 33  1  0  0  0  0
 34 32  1  0  0  0  0
M  END
