Coordinates from ORCA-job 4-MeO-Ph-N2-OTs-B3LYPG-6-31G_dp-MTMO-d009-169-n800
 OpenBabel09051908173D

 35 35  0  0  0  0  0  0  0  0999 V2000
    2.8699   -3.8941    0.6547 C   0  0  0  0  0  0  0  0  0  0  0  0
    1.7293   -3.9055   -0.1530 C   0  0  0  0  0  0  0  0  0  0  0  0
    1.8205   -4.3096   -1.4803 C   0  0  0  0  0  0  0  0  0  0  0  0
    3.0450   -4.7122   -2.0228 C   0  0  0  0  0  0  0  0  0  0  0  0
    4.1769   -4.7117   -1.2193 C   0  0  0  0  0  0  0  0  0  0  0  0
    4.0993   -4.3017    0.1219 C   0  0  0  0  0  0  0  0  0  0  0  0
    2.7857   -3.5665    1.6834 H   0  0  0  0  0  0  0  0  0  0  0  0
    0.7699   -3.5883    0.2414 H   0  0  0  0  0  0  0  0  0  0  0  0
    3.0948   -5.0257   -3.0583 H   0  0  0  0  0  0  0  0  0  0  0  0
    5.1405   -5.0199   -1.6106 H   0  0  0  0  0  0  0  0  0  0  0  0
   -2.9483   -2.5877   -3.0430 N   0  0  0  0  0  0  0  0  0  0  0  0
   -2.6890   -2.0387   -3.9660 N   0  0  0  0  0  0  0  0  0  0  0  0
   -0.2937   -7.2125   -0.5466 C   0  0  0  0  0  0  0  0  0  0  0  0
   -0.9283   -7.6502    0.6157 C   0  0  0  0  0  0  0  0  0  0  0  0
   -2.1367   -7.0830    1.0402 C   0  0  0  0  0  0  0  0  0  0  0  0
   -2.7071   -6.0598    0.2646 C   0  0  0  0  0  0  0  0  0  0  0  0
   -2.0924   -5.6089   -0.8989 C   0  0  0  0  0  0  0  0  0  0  0  0
   -0.8843   -6.1931   -1.2928 C   0  0  0  0  0  0  0  0  0  0  0  0
    0.6340   -7.6598   -0.8832 H   0  0  0  0  0  0  0  0  0  0  0  0
   -0.4789   -8.4498    1.1982 H   0  0  0  0  0  0  0  0  0  0  0  0
   -3.6503   -5.6178    0.5734 H   0  0  0  0  0  0  0  0  0  0  0  0
   -2.5424   -4.8281   -1.5027 H   0  0  0  0  0  0  0  0  0  0  0  0
   -0.0871   -5.6202   -2.7813 S   0  0  0  0  0  0  0  0  0  0  0  0
    0.6754   -4.2208   -2.2824 O   0  0  0  0  0  0  0  0  0  0  0  0
   -1.0896   -5.1260   -3.7140 O   0  0  0  0  0  0  0  0  0  0  0  0
    0.9260   -6.5948   -3.1763 O   0  0  0  0  0  0  0  0  0  0  0  0
   -2.8135   -7.5495    2.3062 C   0  0  0  0  0  0  0  0  0  0  0  0
   -2.7383   -6.7902    3.0945 H   0  0  0  0  0  0  0  0  0  0  0  0
   -3.8795   -7.7370    2.1411 H   0  0  0  0  0  0  0  0  0  0  0  0
   -2.3620   -8.4687    2.6865 H   0  0  0  0  0  0  0  0  0  0  0  0
    5.2732   -4.3332    0.8161 O   0  0  0  0  0  0  0  0  0  0  0  0
    5.2632   -3.9222    2.1738 C   0  0  0  0  0  0  0  0  0  0  0  0
    6.2907   -4.0227    2.5267 H   0  0  0  0  0  0  0  0  0  0  0  0
    4.9475   -2.8761    2.2786 H   0  0  0  0  0  0  0  0  0  0  0  0
    4.6091   -4.5572    2.7850 H   0  0  0  0  0  0  0  0  0  0  0  0
  1  7  1  0  0  0  0
  2  8  1  0  0  0  0
  2  1  2  0  0  0  0
  3  2  1  0  0  0  0
  4  3  2  0  0  0  0
  4  5  1  0  0  0  0
  5  6  2  0  0  0  0
  6  1  1  0  0  0  0
  6 31  1  0  0  0  0
  9  4  1  0  0  0  0
 10  5  1  0  0  0  0
 12 11  3  0  0  0  0
 13 14  2  0  0  0  0
 14 15  1  0  0  0  0
 14 20  1  0  0  0  0
 15 27  1  0  0  0  0
 16 21  1  0  0  0  0
 16 15  2  0  0  0  0
 17 16  1  0  0  0  0
 18 17  2  0  0  0  0
 18 13  1  0  0  0  0
 19 13  1  0  0  0  0
 22 17  1  0  0  0  0
 23 24  1  0  0  0  0
 23 18  1  0  0  0  0
 24  3  1  0  0  0  0
 25 23  2  0  0  0  0
 26 23  2  0  0  0  0
 27 30  1  0  0  0  0
 27 28  1  0  0  0  0
 29 27  1  0  0  0  0
 31 32  1  0  0  0  0
 32 34  1  0  0  0  0
 32 33  1  0  0  0  0
 32 35  1  0  0  0  0
M  END
