Coordinates from ORCA-job 4-MeO-Ph-N2-OTs-B3LYPG-6-31G_dp-MTMO-d009-169-n800
 OpenBabel09051908173D

 35 34  0  0  0  0  0  0  0  0999 V2000
    3.9293   -2.7978    0.4670 C   0  0  0  0  0  0  0  0  0  0  0  0
    2.8120   -2.1141   -0.0639 C   0  0  0  0  0  0  0  0  0  0  0  0
    2.1206   -2.9919   -0.8473 C   0  0  0  0  0  0  0  0  0  0  0  0
    2.2365   -4.2011   -1.1837 C   0  0  0  0  0  0  0  0  0  0  0  0
    3.3315   -4.9109   -0.6819 C   0  0  0  0  0  0  0  0  0  0  0  0
    4.1839   -4.1588    0.1663 C   0  0  0  0  0  0  0  0  0  0  0  0
    4.5986   -2.2465    1.1171 H   0  0  0  0  0  0  0  0  0  0  0  0
    2.5871   -1.0759    0.1419 H   0  0  0  0  0  0  0  0  0  0  0  0
    0.9144   -5.0564   -2.3252 H   0  0  0  0  0  0  0  0  0  0  0  0
    3.5595   -5.9510   -0.8885 H   0  0  0  0  0  0  0  0  0  0  0  0
    0.2975   -1.1172   -1.9614 N   0  0  0  0  0  0  0  0  0  0  0  0
   -0.2658   -0.8505   -2.8737 N   0  0  0  0  0  0  0  0  0  0  0  0
   -1.6525   -5.7914    0.0350 C   0  0  0  0  0  0  0  0  0  0  0  0
   -2.0390   -6.6247    1.0828 C   0  0  0  0  0  0  0  0  0  0  0  0
   -2.4972   -7.9279    0.8428 C   0  0  0  0  0  0  0  0  0  0  0  0
   -2.5695   -8.3770   -0.4841 C   0  0  0  0  0  0  0  0  0  0  0  0
   -2.1884   -7.5585   -1.5447 C   0  0  0  0  0  0  0  0  0  0  0  0
   -1.7272   -6.2692   -1.2740 C   0  0  0  0  0  0  0  0  0  0  0  0
   -1.3146   -4.7781    0.2210 H   0  0  0  0  0  0  0  0  0  0  0  0
   -1.9913   -6.2537    2.1034 H   0  0  0  0  0  0  0  0  0  0  0  0
   -2.9370   -9.3785   -0.6901 H   0  0  0  0  0  0  0  0  0  0  0  0
   -2.2631   -7.9007   -2.5712 H   0  0  0  0  0  0  0  0  0  0  0  0
   -1.2284   -5.2149   -2.6283 S   0  0  0  0  0  0  0  0  0  0  0  0
   -1.2549   -3.8263   -2.1631 O   0  0  0  0  0  0  0  0  0  0  0  0
   -1.9424   -5.6343   -3.8262 O   0  0  0  0  0  0  0  0  0  0  0  0
    0.3214   -5.6366   -2.8726 O   0  0  0  0  0  0  0  0  0  0  0  0
   -2.8875   -8.8322    1.9871 C   0  0  0  0  0  0  0  0  0  0  0  0
   -3.6515   -9.5543    1.6847 H   0  0  0  0  0  0  0  0  0  0  0  0
   -2.0228   -9.4038    2.3468 H   0  0  0  0  0  0  0  0  0  0  0  0
   -3.2746   -8.2606    2.8355 H   0  0  0  0  0  0  0  0  0  0  0  0
    5.2496   -4.8513    0.6576 O   0  0  0  0  0  0  0  0  0  0  0  0
    6.1617   -4.1895    1.5205 C   0  0  0  0  0  0  0  0  0  0  0  0
    6.9183   -4.9299    1.7837 H   0  0  0  0  0  0  0  0  0  0  0  0
    6.6464   -3.3404    1.0217 H   0  0  0  0  0  0  0  0  0  0  0  0
    5.6690   -3.8371    2.4359 H   0  0  0  0  0  0  0  0  0  0  0  0
  1  7  1  0  0  0  0
  2  8  1  0  0  0  0
  2  1  2  0  0  0  0
  3  2  1  0  0  0  0
  4  3  2  0  0  0  0
  4  5  1  0  0  0  0
  5  6  2  0  0  0  0
  6  1  1  0  0  0  0
  6 31  1  0  0  0  0
 10  5  1  0  0  0  0
 12 11  3  0  0  0  0
 13 19  1  0  0  0  0
 13 14  2  0  0  0  0
 14 20  1  0  0  0  0
 15 14  1  0  0  0  0
 15 27  1  0  0  0  0
 16 15  2  0  0  0  0
 17 18  2  0  0  0  0
 17 16  1  0  0  0  0
 18 13  1  0  0  0  0
 21 16  1  0  0  0  0
 22 17  1  0  0  0  0
 23 24  2  0  0  0  0
 23 18  1  0  0  0  0
 25 23  2  0  0  0  0
 26 23  1  0  0  0  0
 26  9  1  0  0  0  0
 27 29  1  0  0  0  0
 27 30  1  0  0  0  0
 28 27  1  0  0  0  0
 31 32  1  0  0  0  0
 32 33  1  0  0  0  0
 32 35  1  0  0  0  0
 34 32  1  0  0  0  0
M  RAD  2   3   2   4   2
M  END
