Coordinates from ORCA-job 4-MeO-Ph-N2-OTs-B3LYPG-6-31G_dp-MTMO-d009-169-n800
 OpenBabel09051908173D

 35 35  0  0  0  0  0  0  0  0999 V2000
    3.6059   -3.9956    0.6291 C   0  0  0  0  0  0  0  0  0  0  0  0
    2.6454   -3.8903   -0.3810 C   0  0  0  0  0  0  0  0  0  0  0  0
    2.8561   -4.5089   -1.6083 C   0  0  0  0  0  0  0  0  0  0  0  0
    4.0214   -5.2436   -1.8480 C   0  0  0  0  0  0  0  0  0  0  0  0
    4.9727   -5.3562   -0.8435 C   0  0  0  0  0  0  0  0  0  0  0  0
    4.7737   -4.7332    0.3995 C   0  0  0  0  0  0  0  0  0  0  0  0
    3.4326   -3.5016    1.5773 H   0  0  0  0  0  0  0  0  0  0  0  0
    1.7373   -3.3182   -0.2225 H   0  0  0  0  0  0  0  0  0  0  0  0
    4.1655   -5.7198   -2.8101 H   0  0  0  0  0  0  0  0  0  0  0  0
    5.8875   -5.9179   -0.9994 H   0  0  0  0  0  0  0  0  0  0  0  0
  -10.3592   -8.4241    0.4523 N   0  0  0  0  0  0  0  0  0  0  0  0
  -11.3066   -8.9432    0.2186 N   0  0  0  0  0  0  0  0  0  0  0  0
   -0.1141   -6.4960   -0.6898 C   0  0  0  0  0  0  0  0  0  0  0  0
   -1.0519   -6.5041    0.3425 C   0  0  0  0  0  0  0  0  0  0  0  0
   -2.1521   -5.6367    0.3308 C   0  0  0  0  0  0  0  0  0  0  0  0
   -2.2952   -4.7495   -0.7484 C   0  0  0  0  0  0  0  0  0  0  0  0
   -1.3716   -4.7252   -1.7885 C   0  0  0  0  0  0  0  0  0  0  0  0
   -0.2844   -5.6029   -1.7475 C   0  0  0  0  0  0  0  0  0  0  0  0
    0.7293   -7.1774   -0.6872 H   0  0  0  0  0  0  0  0  0  0  0  0
   -0.9273   -7.1994    1.1686 H   0  0  0  0  0  0  0  0  0  0  0  0
   -3.1460   -4.0734   -0.7757 H   0  0  0  0  0  0  0  0  0  0  0  0
   -1.4909   -4.0505   -2.6296 H   0  0  0  0  0  0  0  0  0  0  0  0
    0.9098   -5.5654   -3.0714 S   0  0  0  0  0  0  0  0  0  0  0  0
    1.9164   -4.3084   -2.6274 O   0  0  0  0  0  0  0  0  0  0  0  0
    0.2750   -5.0642   -4.2811 O   0  0  0  0  0  0  0  0  0  0  0  0
    1.6742   -6.8095   -3.0507 O   0  0  0  0  0  0  0  0  0  0  0  0
   -3.1797   -5.6685    1.4361 C   0  0  0  0  0  0  0  0  0  0  0  0
   -3.4715   -4.6583    1.7392 H   0  0  0  0  0  0  0  0  0  0  0  0
   -4.0912   -6.1819    1.1071 H   0  0  0  0  0  0  0  0  0  0  0  0
   -2.8049   -6.1942    2.3181 H   0  0  0  0  0  0  0  0  0  0  0  0
    5.7751   -4.9034    1.3102 O   0  0  0  0  0  0  0  0  0  0  0  0
    5.6372   -4.2937    2.5835 C   0  0  0  0  0  0  0  0  0  0  0  0
    6.5391   -4.5525    3.1408 H   0  0  0  0  0  0  0  0  0  0  0  0
    5.5627   -3.2013    2.5043 H   0  0  0  0  0  0  0  0  0  0  0  0
    4.7597   -4.6743    3.1225 H   0  0  0  0  0  0  0  0  0  0  0  0
  1  7  1  0  0  0  0
  2  8  1  0  0  0  0
  2  1  2  0  0  0  0
  3  2  1  0  0  0  0
  4  3  2  0  0  0  0
  4  5  1  0  0  0  0
  5  6  2  0  0  0  0
  6  1  1  0  0  0  0
  6 31  1  0  0  0  0
  9  4  1  0  0  0  0
 10  5  1  0  0  0  0
 12 11  3  0  0  0  0
 13 19  1  0  0  0  0
 13 14  2  0  0  0  0
 14 20  1  0  0  0  0
 15 14  1  0  0  0  0
 15 27  1  0  0  0  0
 16 15  2  0  0  0  0
 17 18  2  0  0  0  0
 17 16  1  0  0  0  0
 18 13  1  0  0  0  0
 21 16  1  0  0  0  0
 22 17  1  0  0  0  0
 23 26  2  0  0  0  0
 23 24  1  0  0  0  0
 23 18  1  0  0  0  0
 24  3  1  0  0  0  0
 25 23  2  0  0  0  0
 27 28  1  0  0  0  0
 27 30  1  0  0  0  0
 29 27  1  0  0  0  0
 31 32  1  0  0  0  0
 32 35  1  0  0  0  0
 32 33  1  0  0  0  0
 34 32  1  0  0  0  0
M  END
