Coordinates from ORCA-job 4-MeO-Ph-N2-OTs-B3LYPG-6-31G_dp-MTMO-d009-169-n800
 OpenBabel09051908173D

 35 35  0  0  0  0  0  0  0  0999 V2000
    3.7215   -3.9235    0.6007 C   0  0  0  0  0  0  0  0  0  0  0  0
    2.7444   -3.8434   -0.3957 C   0  0  0  0  0  0  0  0  0  0  0  0
    2.9503   -4.4637   -1.6230 C   0  0  0  0  0  0  0  0  0  0  0  0
    4.1273   -5.1747   -1.8763 C   0  0  0  0  0  0  0  0  0  0  0  0
    5.0952   -5.2623   -0.8854 C   0  0  0  0  0  0  0  0  0  0  0  0
    4.9011   -4.6376    0.3576 C   0  0  0  0  0  0  0  0  0  0  0  0
    3.5515   -3.4287    1.5492 H   0  0  0  0  0  0  0  0  0  0  0  0
    1.8268   -3.2898   -0.2267 H   0  0  0  0  0  0  0  0  0  0  0  0
    4.2674   -5.6525   -2.8382 H   0  0  0  0  0  0  0  0  0  0  0  0
    6.0191   -5.8057   -1.0518 H   0  0  0  0  0  0  0  0  0  0  0  0
  -12.5032   -8.7209    0.2572 N   0  0  0  0  0  0  0  0  0  0  0  0
  -13.4516   -9.2391    0.0256 N   0  0  0  0  0  0  0  0  0  0  0  0
    0.0448   -6.5101   -0.6481 C   0  0  0  0  0  0  0  0  0  0  0  0
   -0.8763   -6.5351    0.3993 C   0  0  0  0  0  0  0  0  0  0  0  0
   -1.9982   -5.6963    0.3995 C   0  0  0  0  0  0  0  0  0  0  0  0
   -2.1814   -4.8207   -0.6835 C   0  0  0  0  0  0  0  0  0  0  0  0
   -1.2751   -4.7798   -1.7380 C   0  0  0  0  0  0  0  0  0  0  0  0
   -0.1650   -5.6290   -1.7085 C   0  0  0  0  0  0  0  0  0  0  0  0
    0.9050   -7.1700   -0.6545 H   0  0  0  0  0  0  0  0  0  0  0  0
   -0.7210   -7.2215    1.2275 H   0  0  0  0  0  0  0  0  0  0  0  0
   -3.0502   -4.1677   -0.7022 H   0  0  0  0  0  0  0  0  0  0  0  0
   -1.4255   -4.1149   -2.5819 H   0  0  0  0  0  0  0  0  0  0  0  0
    1.0066   -5.5704   -3.0517 S   0  0  0  0  0  0  0  0  0  0  0  0
    1.9913   -4.2889   -2.6288 O   0  0  0  0  0  0  0  0  0  0  0  0
    0.3411   -5.0890   -4.2530 O   0  0  0  0  0  0  0  0  0  0  0  0
    1.7994   -6.7966   -3.0383 O   0  0  0  0  0  0  0  0  0  0  0  0
   -3.0057   -5.7426    1.5227 C   0  0  0  0  0  0  0  0  0  0  0  0
   -3.2598   -4.7366    1.8716 H   0  0  0  0  0  0  0  0  0  0  0  0
   -3.9392   -6.2128    1.1915 H   0  0  0  0  0  0  0  0  0  0  0  0
   -2.6308   -6.3141    2.3756 H   0  0  0  0  0  0  0  0  0  0  0  0
    5.9187   -4.7826    1.2545 O   0  0  0  0  0  0  0  0  0  0  0  0
    5.7864   -4.1698    2.5270 C   0  0  0  0  0  0  0  0  0  0  0  0
    6.7009   -4.4084    3.0728 H   0  0  0  0  0  0  0  0  0  0  0  0
    5.6895   -3.0795    2.4441 H   0  0  0  0  0  0  0  0  0  0  0  0
    4.9241   -4.5650    3.0798 H   0  0  0  0  0  0  0  0  0  0  0  0
  1  7  1  0  0  0  0
  2  8  1  0  0  0  0
  2  1  2  0  0  0  0
  3  2  1  0  0  0  0
  4  3  2  0  0  0  0
  4  5  1  0  0  0  0
  5  6  2  0  0  0  0
  6  1  1  0  0  0  0
  6 31  1  0  0  0  0
  9  4  1  0  0  0  0
 10  5  1  0  0  0  0
 12 11  3  0  0  0  0
 13 14  2  0  0  0  0
 14 15  1  0  0  0  0
 14 20  1  0  0  0  0
 15 27  1  0  0  0  0
 16 15  2  0  0  0  0
 17 18  2  0  0  0  0
 17 16  1  0  0  0  0
 18 13  1  0  0  0  0
 19 13  1  0  0  0  0
 21 16  1  0  0  0  0
 22 17  1  0  0  0  0
 23 26  2  0  0  0  0
 23 24  1  0  0  0  0
 23 18  1  0  0  0  0
 24  3  1  0  0  0  0
 25 23  2  0  0  0  0
 27 28  1  0  0  0  0
 27 30  1  0  0  0  0
 29 27  1  0  0  0  0
 31 32  1  0  0  0  0
 32 33  1  0  0  0  0
 32 35  1  0  0  0  0
 34 32  1  0  0  0  0
M  END
