Coordinates from ORCA-job 4-MeO-Ph-N2-OTs-B3LYPG-6-31G_dp-MTMO-d009-169-n800
 OpenBabel09051908173D

 35 35  0  0  0  0  0  0  0  0999 V2000
    3.0815   -3.9883    0.8139 C   0  0  0  0  0  0  0  0  0  0  0  0
    1.9260   -3.8646    0.0375 C   0  0  0  0  0  0  0  0  0  0  0  0
    1.9669   -4.1532   -1.3222 C   0  0  0  0  0  0  0  0  0  0  0  0
    3.1554   -4.5719   -1.9289 C   0  0  0  0  0  0  0  0  0  0  0  0
    4.3014   -4.7059   -1.1570 C   0  0  0  0  0  0  0  0  0  0  0  0
    4.2746   -4.4139    0.2166 C   0  0  0  0  0  0  0  0  0  0  0  0
    3.0372   -3.7486    1.8693 H   0  0  0  0  0  0  0  0  0  0  0  0
    0.9946   -3.5304    0.4819 H   0  0  0  0  0  0  0  0  0  0  0  0
    3.1669   -4.7938   -2.9890 H   0  0  0  0  0  0  0  0  0  0  0  0
    5.2379   -5.0300   -1.5982 H   0  0  0  0  0  0  0  0  0  0  0  0
   -4.2974   -3.7476   -3.7409 N   0  0  0  0  0  0  0  0  0  0  0  0
   -4.2398   -3.5359   -4.8238 N   0  0  0  0  0  0  0  0  0  0  0  0
   -0.2533   -6.9129   -0.5347 C   0  0  0  0  0  0  0  0  0  0  0  0
   -0.9087   -7.4182    0.5867 C   0  0  0  0  0  0  0  0  0  0  0  0
   -2.1571   -6.9192    0.9847 C   0  0  0  0  0  0  0  0  0  0  0  0
   -2.7454   -5.8986    0.2216 C   0  0  0  0  0  0  0  0  0  0  0  0
   -2.1079   -5.3779   -0.9013 C   0  0  0  0  0  0  0  0  0  0  0  0
   -0.8611   -5.8919   -1.2674 C   0  0  0  0  0  0  0  0  0  0  0  0
    0.7022   -7.3126   -0.8529 H   0  0  0  0  0  0  0  0  0  0  0  0
   -0.4464   -8.2194    1.1568 H   0  0  0  0  0  0  0  0  0  0  0  0
   -3.7208   -5.5135    0.5051 H   0  0  0  0  0  0  0  0  0  0  0  0
   -2.5755   -4.6048   -1.5014 H   0  0  0  0  0  0  0  0  0  0  0  0
   -0.0353   -5.2292   -2.7013 S   0  0  0  0  0  0  0  0  0  0  0  0
    0.8112   -3.9285   -2.0825 O   0  0  0  0  0  0  0  0  0  0  0  0
   -1.0124   -4.5975   -3.5758 O   0  0  0  0  0  0  0  0  0  0  0  0
    0.9208   -6.2185   -3.1913 O   0  0  0  0  0  0  0  0  0  0  0  0
   -2.8478   -7.4558    2.2149 C   0  0  0  0  0  0  0  0  0  0  0  0
   -2.6273   -6.8319    3.0900 H   0  0  0  0  0  0  0  0  0  0  0  0
   -3.9350   -7.4676    2.0904 H   0  0  0  0  0  0  0  0  0  0  0  0
   -2.5189   -8.4721    2.4469 H   0  0  0  0  0  0  0  0  0  0  0  0
    5.4580   -4.5720    0.8763 O   0  0  0  0  0  0  0  0  0  0  0  0
    5.4976   -4.2822    2.2643 C   0  0  0  0  0  0  0  0  0  0  0  0
    6.5244   -4.4693    2.5822 H   0  0  0  0  0  0  0  0  0  0  0  0
    5.2427   -3.2338    2.4668 H   0  0  0  0  0  0  0  0  0  0  0  0
    4.8207   -4.9318    2.8337 H   0  0  0  0  0  0  0  0  0  0  0  0
  1  7  1  0  0  0  0
  2  8  1  0  0  0  0
  2  1  2  0  0  0  0
  3  2  1  0  0  0  0
  4  3  2  0  0  0  0
  4  5  1  0  0  0  0
  5  6  2  0  0  0  0
  6  1  1  0  0  0  0
  6 31  1  0  0  0  0
  9  4  1  0  0  0  0
 10  5  1  0  0  0  0
 12 11  3  0  0  0  0
 13 14  2  0  0  0  0
 14 15  1  0  0  0  0
 14 20  1  0  0  0  0
 15 27  1  0  0  0  0
 16 21  1  0  0  0  0
 16 15  2  0  0  0  0
 17 16  1  0  0  0  0
 18 17  2  0  0  0  0
 18 13  1  0  0  0  0
 19 13  1  0  0  0  0
 22 17  1  0  0  0  0
 23 24  1  0  0  0  0
 23 18  1  0  0  0  0
 24  3  1  0  0  0  0
 25 23  2  0  0  0  0
 26 23  2  0  0  0  0
 27 30  1  0  0  0  0
 27 28  1  0  0  0  0
 29 27  1  0  0  0  0
 31 32  1  0  0  0  0
 32 34  1  0  0  0  0
 32 33  1  0  0  0  0
 32 35  1  0  0  0  0
M  END
