Coordinates from ORCA-job 4-MeO-Ph-N2-OTs-B3LYPG-6-31G_dp-MTMO-d009-169-n800
 OpenBabel09051908173D

 35 35  0  0  0  0  0  0  0  0999 V2000
    3.6898   -3.9480    0.6105 C   0  0  0  0  0  0  0  0  0  0  0  0
    2.7182   -3.8587   -0.3906 C   0  0  0  0  0  0  0  0  0  0  0  0
    2.9253   -4.4786   -1.6178 C   0  0  0  0  0  0  0  0  0  0  0  0
    4.0979   -5.1986   -1.8665 C   0  0  0  0  0  0  0  0  0  0  0  0
    5.0602   -5.2953   -0.8710 C   0  0  0  0  0  0  0  0  0  0  0  0
    4.8649   -4.6709    0.3720 C   0  0  0  0  0  0  0  0  0  0  0  0
    3.5191   -3.4532    1.5588 H   0  0  0  0  0  0  0  0  0  0  0  0
    1.8043   -3.2981   -0.2252 H   0  0  0  0  0  0  0  0  0  0  0  0
    4.2389   -5.6761   -2.8284 H   0  0  0  0  0  0  0  0  0  0  0  0
    5.9807   -5.8456   -1.0338 H   0  0  0  0  0  0  0  0  0  0  0  0
  -11.8706   -8.6621    0.3255 N   0  0  0  0  0  0  0  0  0  0  0  0
  -12.8197   -9.1789    0.0939 N   0  0  0  0  0  0  0  0  0  0  0  0
   -0.0057   -6.5018   -0.6619 C   0  0  0  0  0  0  0  0  0  0  0  0
   -0.9330   -6.5196    0.3800 C   0  0  0  0  0  0  0  0  0  0  0  0
   -2.0463   -5.6693    0.3755 C   0  0  0  0  0  0  0  0  0  0  0  0
   -2.2142   -4.7896   -0.7065 C   0  0  0  0  0  0  0  0  0  0  0  0
   -1.3015   -4.7558   -1.7558 C   0  0  0  0  0  0  0  0  0  0  0  0
   -0.2004   -5.6165   -1.7218 C   0  0  0  0  0  0  0  0  0  0  0  0
    0.8479   -7.1704   -0.6648 H   0  0  0  0  0  0  0  0  0  0  0  0
   -0.7895   -7.2092    1.2077 H   0  0  0  0  0  0  0  0  0  0  0  0
   -3.0759   -4.1274   -0.7286 H   0  0  0  0  0  0  0  0  0  0  0  0
   -1.4400   -4.0874   -2.5989 H   0  0  0  0  0  0  0  0  0  0  0  0
    0.9796   -5.5669   -3.0580 S   0  0  0  0  0  0  0  0  0  0  0  0
    1.9729   -4.2945   -2.6282 O   0  0  0  0  0  0  0  0  0  0  0  0
    0.3254   -5.0787   -4.2627 O   0  0  0  0  0  0  0  0  0  0  0  0
    1.7615   -6.8000   -3.0411 O   0  0  0  0  0  0  0  0  0  0  0  0
   -3.0614   -5.7093    1.4921 C   0  0  0  0  0  0  0  0  0  0  0  0
   -3.3288   -4.7012    1.8240 H   0  0  0  0  0  0  0  0  0  0  0  0
   -3.9872   -6.1949    1.1613 H   0  0  0  0  0  0  0  0  0  0  0  0
   -2.6869   -6.2642    2.3560 H   0  0  0  0  0  0  0  0  0  0  0  0
    5.8771   -4.8251    1.2735 O   0  0  0  0  0  0  0  0  0  0  0  0
    5.7433   -4.2132    2.5463 C   0  0  0  0  0  0  0  0  0  0  0  0
    6.6535   -4.4591    3.0960 H   0  0  0  0  0  0  0  0  0  0  0  0
    5.6547   -3.1221    2.4646 H   0  0  0  0  0  0  0  0  0  0  0  0
    4.8757   -4.6029    3.0946 H   0  0  0  0  0  0  0  0  0  0  0  0
  1  7  1  0  0  0  0
  2  8  1  0  0  0  0
  2  1  2  0  0  0  0
  3  2  1  0  0  0  0
  4  3  2  0  0  0  0
  4  5  1  0  0  0  0
  5  6  2  0  0  0  0
  6  1  1  0  0  0  0
  6 31  1  0  0  0  0
  9  4  1  0  0  0  0
 10  5  1  0  0  0  0
 12 11  3  0  0  0  0
 13 14  2  0  0  0  0
 14 20  1  0  0  0  0
 15 14  1  0  0  0  0
 15 27  1  0  0  0  0
 16 15  2  0  0  0  0
 17 18  2  0  0  0  0
 17 16  1  0  0  0  0
 18 13  1  0  0  0  0
 19 13  1  0  0  0  0
 21 16  1  0  0  0  0
 22 17  1  0  0  0  0
 23 26  2  0  0  0  0
 23 24  1  0  0  0  0
 23 18  1  0  0  0  0
 24  3  1  0  0  0  0
 25 23  2  0  0  0  0
 27 28  1  0  0  0  0
 27 30  1  0  0  0  0
 29 27  1  0  0  0  0
 31 32  1  0  0  0  0
 32 35  1  0  0  0  0
 32 33  1  0  0  0  0
 34 32  1  0  0  0  0
M  END
