Coordinates from ORCA-job 4-MeO-Ph-N2-OTs-B3LYPG-6-31G_dp-MTMO-d009-169-n800
 OpenBabel09051908173D

 35 35  0  0  0  0  0  0  0  0999 V2000
    2.8876   -3.9030    0.6661 C   0  0  0  0  0  0  0  0  0  0  0  0
    1.7459   -3.9061   -0.1402 C   0  0  0  0  0  0  0  0  0  0  0  0
    1.8342   -4.3031   -1.4698 C   0  0  0  0  0  0  0  0  0  0  0  0
    3.0566   -4.7068   -2.0161 C   0  0  0  0  0  0  0  0  0  0  0  0
    4.1895   -4.7147   -1.2140 C   0  0  0  0  0  0  0  0  0  0  0  0
    4.1149   -4.3118    0.1296 C   0  0  0  0  0  0  0  0  0  0  0  0
    2.8057   -3.5806    1.6967 H   0  0  0  0  0  0  0  0  0  0  0  0
    0.7882   -3.5876    0.2571 H   0  0  0  0  0  0  0  0  0  0  0  0
    3.1041   -5.0148   -3.0534 H   0  0  0  0  0  0  0  0  0  0  0  0
    5.1515   -5.0239   -1.6082 H   0  0  0  0  0  0  0  0  0  0  0  0
   -3.0699   -2.6406   -3.0897 N   0  0  0  0  0  0  0  0  0  0  0  0
   -2.8363   -2.1000   -4.0245 N   0  0  0  0  0  0  0  0  0  0  0  0
   -0.2854   -7.1891   -0.5404 C   0  0  0  0  0  0  0  0  0  0  0  0
   -0.9224   -7.6294    0.6196 C   0  0  0  0  0  0  0  0  0  0  0  0
   -2.1381   -7.0718    1.0361 C   0  0  0  0  0  0  0  0  0  0  0  0
   -2.7135   -6.0560    0.2545 C   0  0  0  0  0  0  0  0  0  0  0  0
   -2.0963   -5.6025   -0.9067 C   0  0  0  0  0  0  0  0  0  0  0  0
   -0.8808   -6.1767   -1.2923 C   0  0  0  0  0  0  0  0  0  0  0  0
    0.6477   -7.6297   -0.8708 H   0  0  0  0  0  0  0  0  0  0  0  0
   -0.4693   -8.4236    1.2065 H   0  0  0  0  0  0  0  0  0  0  0  0
   -3.6625   -5.6220    0.5567 H   0  0  0  0  0  0  0  0  0  0  0  0
   -2.5505   -4.8285   -1.5161 H   0  0  0  0  0  0  0  0  0  0  0  0
   -0.0796   -5.5991   -2.7767 S   0  0  0  0  0  0  0  0  0  0  0  0
    0.6883   -4.2054   -2.2699 O   0  0  0  0  0  0  0  0  0  0  0  0
   -1.0794   -5.0961   -3.7076 O   0  0  0  0  0  0  0  0  0  0  0  0
    0.9302   -6.5754   -3.1758 O   0  0  0  0  0  0  0  0  0  0  0  0
   -2.8175   -7.5409    2.2997 C   0  0  0  0  0  0  0  0  0  0  0  0
   -2.7489   -6.7808    3.0879 H   0  0  0  0  0  0  0  0  0  0  0  0
   -3.8819   -7.7337    2.1308 H   0  0  0  0  0  0  0  0  0  0  0  0
   -2.3629   -8.4577    2.6823 H   0  0  0  0  0  0  0  0  0  0  0  0
    5.2896   -4.3509    0.8221 O   0  0  0  0  0  0  0  0  0  0  0  0
    5.2827   -3.9465    2.1817 C   0  0  0  0  0  0  0  0  0  0  0  0
    6.3104   -4.0519    2.5327 H   0  0  0  0  0  0  0  0  0  0  0  0
    4.9703   -2.9000    2.2920 H   0  0  0  0  0  0  0  0  0  0  0  0
    4.6276   -4.5825    2.7908 H   0  0  0  0  0  0  0  0  0  0  0  0
  1  7  1  0  0  0  0
  2  8  1  0  0  0  0
  2  1  2  0  0  0  0
  3  2  1  0  0  0  0
  4  3  2  0  0  0  0
  4  5  1  0  0  0  0
  5  6  2  0  0  0  0
  6  1  1  0  0  0  0
  6 31  1  0  0  0  0
  9  4  1  0  0  0  0
 10  5  1  0  0  0  0
 12 11  3  0  0  0  0
 13 14  2  0  0  0  0
 14 15  1  0  0  0  0
 14 20  1  0  0  0  0
 15 27  1  0  0  0  0
 16 21  1  0  0  0  0
 16 15  2  0  0  0  0
 17 16  1  0  0  0  0
 18 17  2  0  0  0  0
 18 13  1  0  0  0  0
 19 13  1  0  0  0  0
 22 17  1  0  0  0  0
 23 24  1  0  0  0  0
 23 18  1  0  0  0  0
 24  3  1  0  0  0  0
 25 23  2  0  0  0  0
 26 23  2  0  0  0  0
 27 30  1  0  0  0  0
 27 28  1  0  0  0  0
 29 27  1  0  0  0  0
 31 32  1  0  0  0  0
 32 34  1  0  0  0  0
 32 33  1  0  0  0  0
 32 35  1  0  0  0  0
M  END
