Coordinates from ORCA-job 4-MeO-Ph-N2-OTs-B3LYPG-6-31G_dp-MTMO-d009-169-n800
 OpenBabel09051908173D

 35 35  0  0  0  0  0  0  0  0999 V2000
    3.6532   -3.9700    0.6182 C   0  0  0  0  0  0  0  0  0  0  0  0
    2.6862   -3.8734   -0.3866 C   0  0  0  0  0  0  0  0  0  0  0  0
    2.8943   -4.4933   -1.6137 C   0  0  0  0  0  0  0  0  0  0  0  0
    4.0632   -5.2204   -1.8585 C   0  0  0  0  0  0  0  0  0  0  0  0
    5.0210   -5.3243   -0.8593 C   0  0  0  0  0  0  0  0  0  0  0  0
    4.8247   -4.7000    0.3836 C   0  0  0  0  0  0  0  0  0  0  0  0
    3.4818   -3.4751    1.5664 H   0  0  0  0  0  0  0  0  0  0  0  0
    1.7751   -3.3073   -0.2243 H   0  0  0  0  0  0  0  0  0  0  0  0
    4.2051   -5.6977   -2.8205 H   0  0  0  0  0  0  0  0  0  0  0  0
    5.9386   -5.8801   -1.0191 H   0  0  0  0  0  0  0  0  0  0  0  0
  -11.1927   -8.5632    0.3749 N   0  0  0  0  0  0  0  0  0  0  0  0
  -12.1413   -9.0808    0.1428 N   0  0  0  0  0  0  0  0  0  0  0  0
   -0.0557   -6.4985   -0.6730 C   0  0  0  0  0  0  0  0  0  0  0  0
   -0.9875   -6.5108    0.3648 C   0  0  0  0  0  0  0  0  0  0  0  0
   -2.0942   -5.6519    0.3572 C   0  0  0  0  0  0  0  0  0  0  0  0
   -2.2504   -4.7689   -0.7238 C   0  0  0  0  0  0  0  0  0  0  0  0
   -1.3331   -4.7405   -1.7693 C   0  0  0  0  0  0  0  0  0  0  0  0
   -0.2389   -5.6097   -1.7321 C   0  0  0  0  0  0  0  0  0  0  0  0
    0.7927   -7.1736   -0.6735 H   0  0  0  0  0  0  0  0  0  0  0  0
   -0.8529   -7.2030    1.1920 H   0  0  0  0  0  0  0  0  0  0  0  0
   -3.1067   -4.0997   -0.7482 H   0  0  0  0  0  0  0  0  0  0  0  0
   -1.4626   -4.0693   -2.6116 H   0  0  0  0  0  0  0  0  0  0  0  0
    0.9472   -5.5669   -3.0631 S   0  0  0  0  0  0  0  0  0  0  0  0
    1.9473   -4.3017   -2.6278 O   0  0  0  0  0  0  0  0  0  0  0  0
    0.3016   -5.0731   -4.2702 O   0  0  0  0  0  0  0  0  0  0  0  0
    1.7205   -6.8054   -3.0440 O   0  0  0  0  0  0  0  0  0  0  0  0
   -3.1146   -5.6870    1.4689 C   0  0  0  0  0  0  0  0  0  0  0  0
   -3.3915   -4.6775    1.7884 H   0  0  0  0  0  0  0  0  0  0  0  0
   -4.0349   -6.1836    1.1389 H   0  0  0  0  0  0  0  0  0  0  0  0
   -2.7405   -6.2297    2.3408 H   0  0  0  0  0  0  0  0  0  0  0  0
    5.8323   -4.8615    1.2889 O   0  0  0  0  0  0  0  0  0  0  0  0
    5.6974   -4.2500    2.5618 C   0  0  0  0  0  0  0  0  0  0  0  0
    6.6040   -4.5019    3.1146 H   0  0  0  0  0  0  0  0  0  0  0  0
    5.6155   -3.1583    2.4808 H   0  0  0  0  0  0  0  0  0  0  0  0
    4.8254   -4.6352    3.1064 H   0  0  0  0  0  0  0  0  0  0  0  0
  1  7  1  0  0  0  0
  2  8  1  0  0  0  0
  2  1  2  0  0  0  0
  3  2  1  0  0  0  0
  4  3  2  0  0  0  0
  4  5  1  0  0  0  0
  5  6  2  0  0  0  0
  6  1  1  0  0  0  0
  6 31  1  0  0  0  0
  9  4  1  0  0  0  0
 10  5  1  0  0  0  0
 12 11  3  0  0  0  0
 13 14  2  0  0  0  0
 14 20  1  0  0  0  0
 15 14  1  0  0  0  0
 15 27  1  0  0  0  0
 16 15  2  0  0  0  0
 17 18  2  0  0  0  0
 17 16  1  0  0  0  0
 18 13  1  0  0  0  0
 19 13  1  0  0  0  0
 21 16  1  0  0  0  0
 22 17  1  0  0  0  0
 23 26  2  0  0  0  0
 23 24  1  0  0  0  0
 23 18  1  0  0  0  0
 24  3  1  0  0  0  0
 25 23  2  0  0  0  0
 27 28  1  0  0  0  0
 27 30  1  0  0  0  0
 29 27  1  0  0  0  0
 31 32  1  0  0  0  0
 32 35  1  0  0  0  0
 32 33  1  0  0  0  0
 34 32  1  0  0  0  0
M  END
