Coordinates from ORCA-job 4-MeO-Ph-N2-OTs-B3LYPG-6-31G_dp-MTMO-d009-169-n800
 OpenBabel09051908173D

 35 35  0  0  0  0  0  0  0  0999 V2000
    3.0915   -3.9482    0.7696 C   0  0  0  0  0  0  0  0  0  0  0  0
    2.0263   -3.8929   -0.1336 C   0  0  0  0  0  0  0  0  0  0  0  0
    2.2099   -4.2952   -1.4520 C   0  0  0  0  0  0  0  0  0  0  0  0
    3.4531   -4.7618   -1.8904 C   0  0  0  0  0  0  0  0  0  0  0  0
    4.5095   -4.8271   -0.9923 C   0  0  0  0  0  0  0  0  0  0  0  0
    4.3383   -4.4199    0.3410 C   0  0  0  0  0  0  0  0  0  0  0  0
    2.9364   -3.6215    1.7905 H   0  0  0  0  0  0  0  0  0  0  0  0
    1.0552   -3.5250    0.1794 H   0  0  0  0  0  0  0  0  0  0  0  0
    3.5757   -5.0731   -2.9206 H   0  0  0  0  0  0  0  0  0  0  0  0
    5.4853   -5.1856   -1.3020 H   0  0  0  0  0  0  0  0  0  0  0  0
   -5.3873   -3.8097   -1.9428 N   0  0  0  0  0  0  0  0  0  0  0  0
   -6.1592   -3.3804   -2.6069 N   0  0  0  0  0  0  0  0  0  0  0  0
   -0.1325   -7.0023   -0.6729 C   0  0  0  0  0  0  0  0  0  0  0  0
   -0.9045   -7.3943    0.4200 C   0  0  0  0  0  0  0  0  0  0  0  0
   -2.1529   -6.8109    0.6739 C   0  0  0  0  0  0  0  0  0  0  0  0
   -2.6220   -5.8203   -0.2040 C   0  0  0  0  0  0  0  0  0  0  0  0
   -1.8672   -5.4141   -1.2999 C   0  0  0  0  0  0  0  0  0  0  0  0
   -0.6232   -6.0108   -1.5228 C   0  0  0  0  0  0  0  0  0  0  0  0
    0.8250   -7.4668   -0.8789 H   0  0  0  0  0  0  0  0  0  0  0  0
   -0.5326   -8.1723    1.0815 H   0  0  0  0  0  0  0  0  0  0  0  0
   -3.5951   -5.3679   -0.0357 H   0  0  0  0  0  0  0  0  0  0  0  0
   -2.2400   -4.6618   -1.9867 H   0  0  0  0  0  0  0  0  0  0  0  0
    0.3504   -5.4925   -2.9232 S   0  0  0  0  0  0  0  0  0  0  0  0
    1.1444   -4.1397   -2.3479 O   0  0  0  0  0  0  0  0  0  0  0  0
   -0.5259   -4.9445   -3.9477 O   0  0  0  0  0  0  0  0  0  0  0  0
    1.3387   -6.5269   -3.2164 O   0  0  0  0  0  0  0  0  0  0  0  0
   -2.9755   -7.2253    1.8694 C   0  0  0  0  0  0  0  0  0  0  0  0
   -2.9038   -6.4802    2.6720 H   0  0  0  0  0  0  0  0  0  0  0  0
   -4.0349   -7.3195    1.6110 H   0  0  0  0  0  0  0  0  0  0  0  0
   -2.6377   -8.1814    2.2767 H   0  0  0  0  0  0  0  0  0  0  0  0
    5.4443   -4.5192    1.1336 O   0  0  0  0  0  0  0  0  0  0  0  0
    5.3395   -4.1137    2.4889 C   0  0  0  0  0  0  0  0  0  0  0  0
    6.3259   -4.2716    2.9279 H   0  0  0  0  0  0  0  0  0  0  0  0
    5.0728   -3.0524    2.5755 H   0  0  0  0  0  0  0  0  0  0  0  0
    4.6019   -4.7144    3.0365 H   0  0  0  0  0  0  0  0  0  0  0  0
  1  7  1  0  0  0  0
  2  8  1  0  0  0  0
  2  1  2  0  0  0  0
  3  2  1  0  0  0  0
  4  3  2  0  0  0  0
  4  5  1  0  0  0  0
  5  6  2  0  0  0  0
  6  1  1  0  0  0  0
  6 31  1  0  0  0  0
  9  4  1  0  0  0  0
 10  5  1  0  0  0  0
 12 11  3  0  0  0  0
 13 14  2  0  0  0  0
 14 15  1  0  0  0  0
 14 20  1  0  0  0  0
 15 27  1  0  0  0  0
 16 21  1  0  0  0  0
 16 15  2  0  0  0  0
 17 16  1  0  0  0  0
 18 17  2  0  0  0  0
 18 13  1  0  0  0  0
 19 13  1  0  0  0  0
 22 17  1  0  0  0  0
 23 24  1  0  0  0  0
 23 18  1  0  0  0  0
 24  3  1  0  0  0  0
 25 23  2  0  0  0  0
 26 23  2  0  0  0  0
 27 30  1  0  0  0  0
 27 28  1  0  0  0  0
 29 27  1  0  0  0  0
 31 32  1  0  0  0  0
 32 34  1  0  0  0  0
 32 33  1  0  0  0  0
 32 35  1  0  0  0  0
M  END
