Coordinates from ORCA-job 4-MeO-Ph-N2-OTs-B3LYPG-6-31G_dp-MTMO-d009-169-n800
 OpenBabel09051908173D

 35 35  0  0  0  0  0  0  0  0999 V2000
    3.0829   -3.9185    0.7270 C   0  0  0  0  0  0  0  0  0  0  0  0
    2.0761   -3.9115   -0.2424 C   0  0  0  0  0  0  0  0  0  0  0  0
    2.3389   -4.3874   -1.5221 C   0  0  0  0  0  0  0  0  0  0  0  0
    3.6042   -4.8804   -1.8556 C   0  0  0  0  0  0  0  0  0  0  0  0
    4.6026   -4.8974   -0.8914 C   0  0  0  0  0  0  0  0  0  0  0  0
    4.3513   -4.4157    0.4037 C   0  0  0  0  0  0  0  0  0  0  0  0
    2.8662   -3.5361    1.7169 H   0  0  0  0  0  0  0  0  0  0  0  0
    1.0894   -3.5249   -0.0114 H   0  0  0  0  0  0  0  0  0  0  0  0
    3.7888   -5.2486   -2.8574 H   0  0  0  0  0  0  0  0  0  0  0  0
    5.5937   -5.2747   -1.1192 H   0  0  0  0  0  0  0  0  0  0  0  0
   -5.9436   -3.8757   -0.8043 N   0  0  0  0  0  0  0  0  0  0  0  0
   -6.8201   -3.3111   -1.1703 N   0  0  0  0  0  0  0  0  0  0  0  0
   -0.0871   -7.0628   -0.7535 C   0  0  0  0  0  0  0  0  0  0  0  0
   -0.9288   -7.3850    0.3106 C   0  0  0  0  0  0  0  0  0  0  0  0
   -2.1657   -6.7478    0.4772 C   0  0  0  0  0  0  0  0  0  0  0  0
   -2.5519   -5.7745   -0.4590 C   0  0  0  0  0  0  0  0  0  0  0  0
   -1.7266   -5.4392   -1.5283 C   0  0  0  0  0  0  0  0  0  0  0  0
   -0.4965   -6.0884   -1.6642 C   0  0  0  0  0  0  0  0  0  0  0  0
    0.8616   -7.5687   -0.8916 H   0  0  0  0  0  0  0  0  0  0  0  0
   -0.6219   -8.1501    1.0188 H   0  0  0  0  0  0  0  0  0  0  0  0
   -3.5141   -5.2809   -0.3557 H   0  0  0  0  0  0  0  0  0  0  0  0
   -2.0325   -4.7014   -2.2625 H   0  0  0  0  0  0  0  0  0  0  0  0
    0.5637   -5.6606   -3.0321 S   0  0  0  0  0  0  0  0  0  0  0  0
    1.3329   -4.2799   -2.4907 O   0  0  0  0  0  0  0  0  0  0  0  0
   -0.2447   -5.1694   -4.1380 O   0  0  0  0  0  0  0  0  0  0  0  0
    1.5580   -6.7164   -3.2043 O   0  0  0  0  0  0  0  0  0  0  0  0
   -3.0617   -7.0866    1.6436 C   0  0  0  0  0  0  0  0  0  0  0  0
   -2.9531   -6.3484    2.4484 H   0  0  0  0  0  0  0  0  0  0  0  0
   -4.1156   -7.0906    1.3490 H   0  0  0  0  0  0  0  0  0  0  0  0
   -2.8204   -8.0668    2.0630 H   0  0  0  0  0  0  0  0  0  0  0  0
    5.4051   -4.4731    1.2683 O   0  0  0  0  0  0  0  0  0  0  0  0
    5.2201   -3.9846    2.5873 C   0  0  0  0  0  0  0  0  0  0  0  0
    6.1755   -4.1222    3.0963 H   0  0  0  0  0  0  0  0  0  0  0  0
    4.9597   -2.9183    2.5918 H   0  0  0  0  0  0  0  0  0  0  0  0
    4.4432   -4.5456    3.1227 H   0  0  0  0  0  0  0  0  0  0  0  0
  1  7  1  0  0  0  0
  2  8  1  0  0  0  0
  2  1  2  0  0  0  0
  3  2  1  0  0  0  0
  4  3  2  0  0  0  0
  4  5  1  0  0  0  0
  5  6  2  0  0  0  0
  6  1  1  0  0  0  0
  6 31  1  0  0  0  0
  9  4  1  0  0  0  0
 10  5  1  0  0  0  0
 12 11  3  0  0  0  0
 13 14  2  0  0  0  0
 14 15  1  0  0  0  0
 14 20  1  0  0  0  0
 15 27  1  0  0  0  0
 16 21  1  0  0  0  0
 16 15  2  0  0  0  0
 17 16  1  0  0  0  0
 18 17  2  0  0  0  0
 18 13  1  0  0  0  0
 19 13  1  0  0  0  0
 22 17  1  0  0  0  0
 23 24  1  0  0  0  0
 23 18  1  0  0  0  0
 24  3  1  0  0  0  0
 25 23  2  0  0  0  0
 26 23  2  0  0  0  0
 27 30  1  0  0  0  0
 27 28  1  0  0  0  0
 29 27  1  0  0  0  0
 31 32  1  0  0  0  0
 32 34  1  0  0  0  0
 32 33  1  0  0  0  0
 32 35  1  0  0  0  0
M  END
