Coordinates from ORCA-job 4-MeO-Ph-N2-OTs-B3LYPG-6-31G_dp-MTMO-d009-169-n800
 OpenBabel09051908173D

 35 35  0  0  0  0  0  0  0  0999 V2000
    3.1341   -3.9214    0.7103 C   0  0  0  0  0  0  0  0  0  0  0  0
    2.1522   -3.9106   -0.2843 C   0  0  0  0  0  0  0  0  0  0  0  0
    2.4338   -4.4235   -1.5456 C   0  0  0  0  0  0  0  0  0  0  0  0
    3.6934   -4.9572   -1.8354 C   0  0  0  0  0  0  0  0  0  0  0  0
    4.6668   -4.9779   -0.8460 C   0  0  0  0  0  0  0  0  0  0  0  0
    4.3962   -4.4597    0.4311 C   0  0  0  0  0  0  0  0  0  0  0  0
    2.9033   -3.5104    1.6854 H   0  0  0  0  0  0  0  0  0  0  0  0
    1.1710   -3.4924   -0.0874 H   0  0  0  0  0  0  0  0  0  0  0  0
    3.8929   -5.3534   -2.8235 H   0  0  0  0  0  0  0  0  0  0  0  0
    5.6527   -5.3862   -1.0398 H   0  0  0  0  0  0  0  0  0  0  0  0
   -6.2883   -4.3623   -0.3068 N   0  0  0  0  0  0  0  0  0  0  0  0
   -7.2867   -3.9176   -0.4703 N   0  0  0  0  0  0  0  0  0  0  0  0
   -0.0824   -6.9793   -0.7527 C   0  0  0  0  0  0  0  0  0  0  0  0
   -0.9659   -7.2499    0.2907 C   0  0  0  0  0  0  0  0  0  0  0  0
   -2.2074   -6.6035    0.3777 C   0  0  0  0  0  0  0  0  0  0  0  0
   -2.5526   -5.6758   -0.6174 C   0  0  0  0  0  0  0  0  0  0  0  0
   -1.6837   -5.3907   -1.6681 C   0  0  0  0  0  0  0  0  0  0  0  0
   -0.4519   -6.0469   -1.7242 C   0  0  0  0  0  0  0  0  0  0  0  0
    0.8685   -7.4937   -0.8303 H   0  0  0  0  0  0  0  0  0  0  0  0
   -0.6897   -7.9820    1.0451 H   0  0  0  0  0  0  0  0  0  0  0  0
   -3.5183   -5.1805   -0.5736 H   0  0  0  0  0  0  0  0  0  0  0  0
   -1.9581   -4.6881   -2.4475 H   0  0  0  0  0  0  0  0  0  0  0  0
    0.6627   -5.6873   -3.0683 S   0  0  0  0  0  0  0  0  0  0  0  0
    1.4556   -4.3137   -2.5419 O   0  0  0  0  0  0  0  0  0  0  0  0
   -0.0965   -5.2063   -4.2128 O   0  0  0  0  0  0  0  0  0  0  0  0
    1.6313   -6.7748   -3.1785 O   0  0  0  0  0  0  0  0  0  0  0  0
   -3.1465   -6.8877    1.5249 C   0  0  0  0  0  0  0  0  0  0  0  0
   -2.9185   -6.2457    2.3848 H   0  0  0  0  0  0  0  0  0  0  0  0
   -4.1871   -6.7001    1.2456 H   0  0  0  0  0  0  0  0  0  0  0  0
   -3.0632   -7.9246    1.8629 H   0  0  0  0  0  0  0  0  0  0  0  0
    5.4260   -4.5251    1.3235 O   0  0  0  0  0  0  0  0  0  0  0  0
    5.2212   -4.0020    2.6262 C   0  0  0  0  0  0  0  0  0  0  0  0
    6.1592   -4.1540    3.1629 H   0  0  0  0  0  0  0  0  0  0  0  0
    4.9902   -2.9293    2.6005 H   0  0  0  0  0  0  0  0  0  0  0  0
    4.4155   -4.5294    3.1532 H   0  0  0  0  0  0  0  0  0  0  0  0
  1  7  1  0  0  0  0
  2  8  1  0  0  0  0
  2  1  2  0  0  0  0
  3  2  1  0  0  0  0
  4  3  2  0  0  0  0
  4  5  1  0  0  0  0
  5  6  2  0  0  0  0
  6  1  1  0  0  0  0
  6 31  1  0  0  0  0
  9  4  1  0  0  0  0
 10  5  1  0  0  0  0
 12 11  3  0  0  0  0
 13 14  2  0  0  0  0
 14 15  1  0  0  0  0
 14 20  1  0  0  0  0
 15 27  1  0  0  0  0
 16 21  1  0  0  0  0
 16 15  2  0  0  0  0
 17 16  1  0  0  0  0
 18 17  2  0  0  0  0
 18 13  1  0  0  0  0
 19 13  1  0  0  0  0
 22 17  1  0  0  0  0
 23 24  1  0  0  0  0
 23 18  1  0  0  0  0
 24  3  1  0  0  0  0
 25 23  2  0  0  0  0
 26 23  2  0  0  0  0
 27 30  1  0  0  0  0
 27 28  1  0  0  0  0
 29 27  1  0  0  0  0
 31 32  1  0  0  0  0
 32 35  1  0  0  0  0
 32 33  1  0  0  0  0
 34 32  1  0  0  0  0
M  END
