Coordinates from ORCA-job 4-MeO-Ph-N2-OTs-B3LYPG-6-31G_dp-MTMO-d009-169-n800
 OpenBabel09051908173D

 35 35  0  0  0  0  0  0  0  0999 V2000
    3.6101   -3.9937    0.6287 C   0  0  0  0  0  0  0  0  0  0  0  0
    2.6494   -3.8888   -0.3812 C   0  0  0  0  0  0  0  0  0  0  0  0
    2.8603   -4.5073   -1.6085 C   0  0  0  0  0  0  0  0  0  0  0  0
    4.0258   -5.2415   -1.8484 C   0  0  0  0  0  0  0  0  0  0  0  0
    4.9773   -5.3538   -0.8441 C   0  0  0  0  0  0  0  0  0  0  0  0
    4.7782   -4.7309    0.3990 C   0  0  0  0  0  0  0  0  0  0  0  0
    3.4367   -3.4997    1.5770 H   0  0  0  0  0  0  0  0  0  0  0  0
    1.7412   -3.3171   -0.2227 H   0  0  0  0  0  0  0  0  0  0  0  0
    4.1699   -5.7177   -2.8106 H   0  0  0  0  0  0  0  0  0  0  0  0
    5.8922   -5.9152   -1.0001 H   0  0  0  0  0  0  0  0  0  0  0  0
  -10.4342   -8.4400    0.4532 N   0  0  0  0  0  0  0  0  0  0  0  0
  -11.3819   -8.9587    0.2200 N   0  0  0  0  0  0  0  0  0  0  0  0
   -0.1091   -6.4956   -0.6897 C   0  0  0  0  0  0  0  0  0  0  0  0
   -1.0467   -6.5042    0.3428 C   0  0  0  0  0  0  0  0  0  0  0  0
   -2.1472   -5.6372    0.3313 C   0  0  0  0  0  0  0  0  0  0  0  0
   -2.2909   -4.7501   -0.7480 C   0  0  0  0  0  0  0  0  0  0  0  0
   -1.3674   -4.7253   -1.7882 C   0  0  0  0  0  0  0  0  0  0  0  0
   -0.2799   -5.6026   -1.7473 C   0  0  0  0  0  0  0  0  0  0  0  0
    0.7346   -7.1767   -0.6872 H   0  0  0  0  0  0  0  0  0  0  0  0
   -0.9217   -7.1995    1.1688 H   0  0  0  0  0  0  0  0  0  0  0  0
   -3.1420   -4.0743   -0.7751 H   0  0  0  0  0  0  0  0  0  0  0  0
   -1.4871   -4.0507   -2.6292 H   0  0  0  0  0  0  0  0  0  0  0  0
    0.9142   -5.5646   -3.0714 S   0  0  0  0  0  0  0  0  0  0  0  0
    1.9203   -4.3071   -2.6275 O   0  0  0  0  0  0  0  0  0  0  0  0
    0.2789   -5.0636   -4.2810 O   0  0  0  0  0  0  0  0  0  0  0  0
    1.6790   -6.8083   -3.0509 O   0  0  0  0  0  0  0  0  0  0  0  0
   -3.1747   -5.6695    1.4366 C   0  0  0  0  0  0  0  0  0  0  0  0
   -3.4662   -4.6594    1.7403 H   0  0  0  0  0  0  0  0  0  0  0  0
   -4.0863   -6.1826    1.1074 H   0  0  0  0  0  0  0  0  0  0  0  0
   -2.7999   -6.1958    2.3183 H   0  0  0  0  0  0  0  0  0  0  0  0
    5.7798   -4.9007    1.3095 O   0  0  0  0  0  0  0  0  0  0  0  0
    5.6417   -4.2910    2.5829 C   0  0  0  0  0  0  0  0  0  0  0  0
    6.5438   -4.5495    3.1401 H   0  0  0  0  0  0  0  0  0  0  0  0
    5.5669   -3.1987    2.5037 H   0  0  0  0  0  0  0  0  0  0  0  0
    4.7645   -4.6719    3.1220 H   0  0  0  0  0  0  0  0  0  0  0  0
  1  7  1  0  0  0  0
  2  8  1  0  0  0  0
  2  1  2  0  0  0  0
  3  2  1  0  0  0  0
  4  3  2  0  0  0  0
  4  5  1  0  0  0  0
  5  6  2  0  0  0  0
  6  1  1  0  0  0  0
  6 31  1  0  0  0  0
  9  4  1  0  0  0  0
 10  5  1  0  0  0  0
 12 11  3  0  0  0  0
 13 19  1  0  0  0  0
 13 14  2  0  0  0  0
 14 20  1  0  0  0  0
 15 14  1  0  0  0  0
 15 27  1  0  0  0  0
 16 15  2  0  0  0  0
 17 18  2  0  0  0  0
 17 16  1  0  0  0  0
 18 13  1  0  0  0  0
 21 16  1  0  0  0  0
 22 17  1  0  0  0  0
 23 26  2  0  0  0  0
 23 24  1  0  0  0  0
 23 18  1  0  0  0  0
 24  3  1  0  0  0  0
 25 23  2  0  0  0  0
 27 28  1  0  0  0  0
 27 30  1  0  0  0  0
 29 27  1  0  0  0  0
 31 32  1  0  0  0  0
 32 35  1  0  0  0  0
 32 33  1  0  0  0  0
 34 32  1  0  0  0  0
M  END
