Coordinates from ORCA-job 4-MeO-Ph-N2-OTs-B3LYPG-6-31G_dp-MTMO-d009-169-n800
 OpenBabel09051908173D

 35 35  0  0  0  0  0  0  0  0999 V2000
    2.8460   -3.8846    0.6376 C   0  0  0  0  0  0  0  0  0  0  0  0
    1.7046   -3.9104   -0.1687 C   0  0  0  0  0  0  0  0  0  0  0  0
    1.7982   -4.3200   -1.4941 C   0  0  0  0  0  0  0  0  0  0  0  0
    3.0256   -4.7139   -2.0362 C   0  0  0  0  0  0  0  0  0  0  0  0
    4.1584   -4.6991   -1.2340 C   0  0  0  0  0  0  0  0  0  0  0  0
    4.0785   -4.2834    0.1053 C   0  0  0  0  0  0  0  0  0  0  0  0
    2.7599   -3.5530    1.6649 H   0  0  0  0  0  0  0  0  0  0  0  0
    0.7428   -3.6002    0.2254 H   0  0  0  0  0  0  0  0  0  0  0  0
    3.0771   -5.0320   -3.0702 H   0  0  0  0  0  0  0  0  0  0  0  0
    5.1243   -5.0002   -1.6249 H   0  0  0  0  0  0  0  0  0  0  0  0
   -2.7428   -2.5086   -2.9646 N   0  0  0  0  0  0  0  0  0  0  0  0
   -2.4142   -1.9292   -3.8461 N   0  0  0  0  0  0  0  0  0  0  0  0
   -0.3042   -7.2397   -0.5445 C   0  0  0  0  0  0  0  0  0  0  0  0
   -0.9371   -7.6728    0.6205 C   0  0  0  0  0  0  0  0  0  0  0  0
   -2.1431   -7.1015    1.0463 C   0  0  0  0  0  0  0  0  0  0  0  0
   -2.7128   -6.0790    0.2693 C   0  0  0  0  0  0  0  0  0  0  0  0
   -2.1000   -5.6330   -0.8970 C   0  0  0  0  0  0  0  0  0  0  0  0
   -0.8942   -6.2212   -1.2922 C   0  0  0  0  0  0  0  0  0  0  0  0
    0.6220   -7.6898   -0.8819 H   0  0  0  0  0  0  0  0  0  0  0  0
   -0.4881   -8.4717    1.2042 H   0  0  0  0  0  0  0  0  0  0  0  0
   -3.6540   -5.6336    0.5794 H   0  0  0  0  0  0  0  0  0  0  0  0
   -2.5490   -4.8523   -1.5016 H   0  0  0  0  0  0  0  0  0  0  0  0
   -0.0998   -5.6546   -2.7846 S   0  0  0  0  0  0  0  0  0  0  0  0
    0.6514   -4.2455   -2.2956 O   0  0  0  0  0  0  0  0  0  0  0  0
   -1.1050   -5.1750   -3.7220 O   0  0  0  0  0  0  0  0  0  0  0  0
    0.9209   -6.6247   -3.1711 O   0  0  0  0  0  0  0  0  0  0  0  0
   -2.8182   -7.5630    2.3150 C   0  0  0  0  0  0  0  0  0  0  0  0
   -2.7435   -6.7998    3.0997 H   0  0  0  0  0  0  0  0  0  0  0  0
   -3.8841   -7.7527    2.1517 H   0  0  0  0  0  0  0  0  0  0  0  0
   -2.3652   -8.4798    2.6993 H   0  0  0  0  0  0  0  0  0  0  0  0
    5.2535   -4.3007    0.7982 O   0  0  0  0  0  0  0  0  0  0  0  0
    5.2413   -3.8835    2.1539 C   0  0  0  0  0  0  0  0  0  0  0  0
    6.2701   -3.9732    2.5061 H   0  0  0  0  0  0  0  0  0  0  0  0
    4.9165   -2.8398    2.2544 H   0  0  0  0  0  0  0  0  0  0  0  0
    4.5937   -4.5215    2.7689 H   0  0  0  0  0  0  0  0  0  0  0  0
  1  7  1  0  0  0  0
  2  8  1  0  0  0  0
  2  1  2  0  0  0  0
  3  2  1  0  0  0  0
  4  3  2  0  0  0  0
  4  5  1  0  0  0  0
  5  6  2  0  0  0  0
  6  1  1  0  0  0  0
  6 31  1  0  0  0  0
  9  4  1  0  0  0  0
 10  5  1  0  0  0  0
 12 11  3  0  0  0  0
 13 14  2  0  0  0  0
 14 15  1  0  0  0  0
 14 20  1  0  0  0  0
 15 27  1  0  0  0  0
 16 21  1  0  0  0  0
 16 15  2  0  0  0  0
 17 16  1  0  0  0  0
 18 17  2  0  0  0  0
 18 13  1  0  0  0  0
 19 13  1  0  0  0  0
 22 17  1  0  0  0  0
 23 24  1  0  0  0  0
 23 18  1  0  0  0  0
 24  3  1  0  0  0  0
 25 23  2  0  0  0  0
 26 23  2  0  0  0  0
 27 30  1  0  0  0  0
 27 28  1  0  0  0  0
 29 27  1  0  0  0  0
 31 32  1  0  0  0  0
 32 34  1  0  0  0  0
 32 33  1  0  0  0  0
 32 35  1  0  0  0  0
M  END
