Coordinates from ORCA-job 4-MeO-Ph-N2-OTs-B3LYPG-6-31G_dp-MTMO-d009-169-n800
 OpenBabel09051908173D

 35 34  0  0  0  0  0  0  0  0999 V2000
    3.9387   -2.7700    0.4543 C   0  0  0  0  0  0  0  0  0  0  0  0
    2.8420   -2.0604   -0.0852 C   0  0  0  0  0  0  0  0  0  0  0  0
    2.1317   -2.9234   -0.8672 C   0  0  0  0  0  0  0  0  0  0  0  0
    2.2111   -4.1380   -1.1997 C   0  0  0  0  0  0  0  0  0  0  0  0
    3.2873   -4.8704   -0.6865 C   0  0  0  0  0  0  0  0  0  0  0  0
    4.1573   -4.1386    0.1612 C   0  0  0  0  0  0  0  0  0  0  0  0
    4.6200   -2.2333    1.1041 H   0  0  0  0  0  0  0  0  0  0  0  0
    2.6432   -1.0156    0.1140 H   0  0  0  0  0  0  0  0  0  0  0  0
    0.9052   -5.0157   -2.3165 H   0  0  0  0  0  0  0  0  0  0  0  0
    3.4880   -5.9176   -0.8862 H   0  0  0  0  0  0  0  0  0  0  0  0
    0.3918   -1.1742   -1.9695 N   0  0  0  0  0  0  0  0  0  0  0  0
   -0.1691   -0.9394   -2.8922 N   0  0  0  0  0  0  0  0  0  0  0  0
   -1.6576   -5.7987    0.0467 C   0  0  0  0  0  0  0  0  0  0  0  0
   -2.0395   -6.6384    1.0910 C   0  0  0  0  0  0  0  0  0  0  0  0
   -2.4905   -7.9431    0.8458 C   0  0  0  0  0  0  0  0  0  0  0  0
   -2.5602   -8.3873   -0.4830 C   0  0  0  0  0  0  0  0  0  0  0  0
   -2.1834   -7.5624   -1.5402 C   0  0  0  0  0  0  0  0  0  0  0  0
   -1.7294   -6.2717   -1.2643 C   0  0  0  0  0  0  0  0  0  0  0  0
   -1.3256   -4.7843    0.2368 H   0  0  0  0  0  0  0  0  0  0  0  0
   -1.9941   -6.2713    2.1132 H   0  0  0  0  0  0  0  0  0  0  0  0
   -2.9223   -9.3899   -0.6931 H   0  0  0  0  0  0  0  0  0  0  0  0
   -2.2562   -7.9007   -2.5681 H   0  0  0  0  0  0  0  0  0  0  0  0
   -1.2370   -5.2086   -2.6141 S   0  0  0  0  0  0  0  0  0  0  0  0
   -1.2798   -3.8215   -2.1451 O   0  0  0  0  0  0  0  0  0  0  0  0
   -1.9441   -5.6317   -3.8149 O   0  0  0  0  0  0  0  0  0  0  0  0
    0.3174   -5.6129   -2.8534 O   0  0  0  0  0  0  0  0  0  0  0  0
   -2.8762   -8.8540    1.9864 C   0  0  0  0  0  0  0  0  0  0  0  0
   -3.6373   -9.5781    1.6814 H   0  0  0  0  0  0  0  0  0  0  0  0
   -2.0089   -9.4235    2.3432 H   0  0  0  0  0  0  0  0  0  0  0  0
   -3.2653   -8.2878    2.8374 H   0  0  0  0  0  0  0  0  0  0  0  0
    5.2020   -4.8573    0.6597 O   0  0  0  0  0  0  0  0  0  0  0  0
    6.1281   -4.2167    1.5234 C   0  0  0  0  0  0  0  0  0  0  0  0
    6.8642   -4.9757    1.7917 H   0  0  0  0  0  0  0  0  0  0  0  0
    6.6365   -3.3822    1.0234 H   0  0  0  0  0  0  0  0  0  0  0  0
    5.6418   -3.8484    2.4360 H   0  0  0  0  0  0  0  0  0  0  0  0
  1  7  1  0  0  0  0
  2  8  1  0  0  0  0
  2  1  2  0  0  0  0
  3  2  1  0  0  0  0
  4  3  2  0  0  0  0
  4  5  1  0  0  0  0
  5  6  2  0  0  0  0
  6  1  1  0  0  0  0
  6 31  1  0  0  0  0
 10  5  1  0  0  0  0
 12 11  3  0  0  0  0
 13 19  1  0  0  0  0
 13 14  2  0  0  0  0
 14 20  1  0  0  0  0
 15 14  1  0  0  0  0
 15 27  1  0  0  0  0
 16 15  2  0  0  0  0
 17 18  2  0  0  0  0
 17 16  1  0  0  0  0
 18 13  1  0  0  0  0
 21 16  1  0  0  0  0
 22 17  1  0  0  0  0
 23 24  2  0  0  0  0
 23 18  1  0  0  0  0
 25 23  2  0  0  0  0
 26 23  1  0  0  0  0
 26  9  1  0  0  0  0
 27 29  1  0  0  0  0
 27 30  1  0  0  0  0
 28 27  1  0  0  0  0
 31 32  1  0  0  0  0
 32 33  1  0  0  0  0
 32 35  1  0  0  0  0
 34 32  1  0  0  0  0
M  RAD  2   3   2   4   2
M  END
