Coordinates from ORCA-job 4-MeO-Ph-N2-OTs-B3LYPG-6-31G_dp-MTMO-d009-169-n800
 OpenBabel09051908173D

 35 35  0  0  0  0  0  0  0  0999 V2000
    3.6773   -3.9547    0.6103 C   0  0  0  0  0  0  0  0  0  0  0  0
    2.7057   -3.8642   -0.3906 C   0  0  0  0  0  0  0  0  0  0  0  0
    2.9115   -4.4851   -1.6176 C   0  0  0  0  0  0  0  0  0  0  0  0
    4.0828   -5.2072   -1.8662 C   0  0  0  0  0  0  0  0  0  0  0  0
    5.0451   -5.3051   -0.8708 C   0  0  0  0  0  0  0  0  0  0  0  0
    4.8512   -4.6798    0.3719 C   0  0  0  0  0  0  0  0  0  0  0  0
    3.5076   -3.4592    1.5584 H   0  0  0  0  0  0  0  0  0  0  0  0
    1.7927   -3.3021   -0.2253 H   0  0  0  0  0  0  0  0  0  0  0  0
    4.2228   -5.6853   -2.8279 H   0  0  0  0  0  0  0  0  0  0  0  0
    5.9646   -5.8570   -1.0335 H   0  0  0  0  0  0  0  0  0  0  0  0
  -11.6264   -8.6218    0.3140 N   0  0  0  0  0  0  0  0  0  0  0  0
  -12.5749   -9.1393    0.0812 N   0  0  0  0  0  0  0  0  0  0  0  0
   -0.0240   -6.5022   -0.6604 C   0  0  0  0  0  0  0  0  0  0  0  0
   -0.9512   -6.5172    0.3816 C   0  0  0  0  0  0  0  0  0  0  0  0
   -2.0624   -5.6641    0.3771 C   0  0  0  0  0  0  0  0  0  0  0  0
   -2.2281   -4.7843   -0.7052 C   0  0  0  0  0  0  0  0  0  0  0  0
   -1.3155   -4.7532   -1.7546 C   0  0  0  0  0  0  0  0  0  0  0  0
   -0.2166   -5.6166   -1.7205 C   0  0  0  0  0  0  0  0  0  0  0  0
    0.8278   -7.1729   -0.6632 H   0  0  0  0  0  0  0  0  0  0  0  0
   -0.8094   -7.2070    1.2095 H   0  0  0  0  0  0  0  0  0  0  0  0
   -3.0880   -4.1197   -0.7273 H   0  0  0  0  0  0  0  0  0  0  0  0
   -1.4523   -4.0846   -2.5979 H   0  0  0  0  0  0  0  0  0  0  0  0
    0.9634   -5.5704   -3.0568 S   0  0  0  0  0  0  0  0  0  0  0  0
    1.9593   -4.2997   -2.6279 O   0  0  0  0  0  0  0  0  0  0  0  0
    0.3101   -5.0817   -4.2618 O   0  0  0  0  0  0  0  0  0  0  0  0
    1.7428   -6.8051   -3.0391 O   0  0  0  0  0  0  0  0  0  0  0  0
   -3.0772   -5.7010    1.4939 C   0  0  0  0  0  0  0  0  0  0  0  0
   -3.3435   -4.6922    1.8242 H   0  0  0  0  0  0  0  0  0  0  0  0
   -4.0037   -6.1862    1.1641 H   0  0  0  0  0  0  0  0  0  0  0  0
   -2.7032   -6.2550    2.3586 H   0  0  0  0  0  0  0  0  0  0  0  0
    5.8633   -4.8353    1.2733 O   0  0  0  0  0  0  0  0  0  0  0  0
    5.7308   -4.2225    2.5458 C   0  0  0  0  0  0  0  0  0  0  0  0
    6.6408   -4.4696    3.0953 H   0  0  0  0  0  0  0  0  0  0  0  0
    5.6439   -3.1313    2.4636 H   0  0  0  0  0  0  0  0  0  0  0  0
    4.8627   -4.6106    3.0945 H   0  0  0  0  0  0  0  0  0  0  0  0
  1  7  1  0  0  0  0
  2  8  1  0  0  0  0
  2  1  2  0  0  0  0
  3  2  1  0  0  0  0
  4  3  2  0  0  0  0
  4  5  1  0  0  0  0
  5  6  2  0  0  0  0
  6  1  1  0  0  0  0
  6 31  1  0  0  0  0
  9  4  1  0  0  0  0
 10  5  1  0  0  0  0
 12 11  3  0  0  0  0
 13 14  2  0  0  0  0
 14 20  1  0  0  0  0
 15 14  1  0  0  0  0
 15 27  1  0  0  0  0
 16 15  2  0  0  0  0
 17 18  2  0  0  0  0
 17 16  1  0  0  0  0
 18 13  1  0  0  0  0
 19 13  1  0  0  0  0
 21 16  1  0  0  0  0
 22 17  1  0  0  0  0
 23 26  2  0  0  0  0
 23 24  1  0  0  0  0
 23 18  1  0  0  0  0
 24  3  1  0  0  0  0
 25 23  2  0  0  0  0
 27 28  1  0  0  0  0
 27 30  1  0  0  0  0
 29 27  1  0  0  0  0
 31 32  1  0  0  0  0
 32 35  1  0  0  0  0
 32 33  1  0  0  0  0
 34 32  1  0  0  0  0
M  END
