Coordinates from ORCA-job 4-MeO-Ph-N2-OTs-B3LYPG-6-31G_dp-MTMO-d009-169-n800
 OpenBabel09051908173D

 35 34  0  0  0  0  0  0  0  0999 V2000
    3.9787   -2.7982    0.4509 C   0  0  0  0  0  0  0  0  0  0  0  0
    2.7938   -2.2106   -0.0484 C   0  0  0  0  0  0  0  0  0  0  0  0
    2.1336   -3.1594   -0.7756 C   0  0  0  0  0  0  0  0  0  0  0  0
    2.3328   -4.3634   -1.0865 C   0  0  0  0  0  0  0  0  0  0  0  0
    3.4928   -4.9831   -0.6161 C   0  0  0  0  0  0  0  0  0  0  0  0
    4.3206   -4.1455    0.1753 C   0  0  0  0  0  0  0  0  0  0  0  0
    4.6311   -2.1829    1.0597 H   0  0  0  0  0  0  0  0  0  0  0  0
    2.5037   -1.1857    0.1402 H   0  0  0  0  0  0  0  0  0  0  0  0
    1.0007   -5.2182   -2.2472 H   0  0  0  0  0  0  0  0  0  0  0  0
    3.7898   -6.0081   -0.8087 H   0  0  0  0  0  0  0  0  0  0  0  0
    0.1645   -1.0529   -1.8080 N   0  0  0  0  0  0  0  0  0  0  0  0
   -0.5001   -0.7355   -2.6314 N   0  0  0  0  0  0  0  0  0  0  0  0
   -1.6871   -5.8349    0.0447 C   0  0  0  0  0  0  0  0  0  0  0  0
   -2.1468   -6.6554    1.0730 C   0  0  0  0  0  0  0  0  0  0  0  0
   -2.6508   -7.9368    0.8091 C   0  0  0  0  0  0  0  0  0  0  0  0
   -2.6950   -8.3764   -0.5224 C   0  0  0  0  0  0  0  0  0  0  0  0
   -2.2419   -7.5701   -1.5637 C   0  0  0  0  0  0  0  0  0  0  0  0
   -1.7352   -6.3032   -1.2688 C   0  0  0  0  0  0  0  0  0  0  0  0
   -1.3119   -4.8384    0.2487 H   0  0  0  0  0  0  0  0  0  0  0  0
   -2.1200   -6.2915    2.0969 H   0  0  0  0  0  0  0  0  0  0  0  0
   -3.0963   -9.3605   -0.7475 H   0  0  0  0  0  0  0  0  0  0  0  0
   -2.2942   -7.9045   -2.5942 H   0  0  0  0  0  0  0  0  0  0  0  0
   -1.1386   -5.2683   -2.5979 S   0  0  0  0  0  0  0  0  0  0  0  0
   -1.0999   -3.8832   -2.1225 O   0  0  0  0  0  0  0  0  0  0  0  0
   -1.8386   -5.6379   -3.8201 O   0  0  0  0  0  0  0  0  0  0  0  0
    0.3920   -5.7765   -2.7978 O   0  0  0  0  0  0  0  0  0  0  0  0
   -3.1179   -8.8299    1.9331 C   0  0  0  0  0  0  0  0  0  0  0  0
   -3.9112   -9.5076    1.6041 H   0  0  0  0  0  0  0  0  0  0  0  0
   -2.2941   -9.4505    2.3074 H   0  0  0  0  0  0  0  0  0  0  0  0
   -3.4958   -8.2470    2.7778 H   0  0  0  0  0  0  0  0  0  0  0  0
    5.4543   -4.7437    0.6381 O   0  0  0  0  0  0  0  0  0  0  0  0
    6.3662   -3.9814    1.4144 C   0  0  0  0  0  0  0  0  0  0  0  0
    7.1900   -4.6539    1.6575 H   0  0  0  0  0  0  0  0  0  0  0  0
    6.7548   -3.1230    0.8519 H   0  0  0  0  0  0  0  0  0  0  0  0
    5.9057   -3.6253    2.3449 H   0  0  0  0  0  0  0  0  0  0  0  0
  1  7  1  0  0  0  0
  2  8  1  0  0  0  0
  2  1  2  0  0  0  0
  3  2  1  0  0  0  0
  4  3  2  0  0  0  0
  4  5  1  0  0  0  0
  5  6  2  0  0  0  0
  6  1  1  0  0  0  0
  6 31  1  0  0  0  0
 10  5  1  0  0  0  0
 12 11  3  0  0  0  0
 13 19  1  0  0  0  0
 13 14  2  0  0  0  0
 14 20  1  0  0  0  0
 15 14  1  0  0  0  0
 15 27  1  0  0  0  0
 16 15  2  0  0  0  0
 17 18  2  0  0  0  0
 17 16  1  0  0  0  0
 18 13  1  0  0  0  0
 21 16  1  0  0  0  0
 22 17  1  0  0  0  0
 23 24  2  0  0  0  0
 23 18  1  0  0  0  0
 25 23  2  0  0  0  0
 26 23  1  0  0  0  0
 26  9  1  0  0  0  0
 27 29  1  0  0  0  0
 27 30  1  0  0  0  0
 28 27  1  0  0  0  0
 31 32  1  0  0  0  0
 32 33  1  0  0  0  0
 32 35  1  0  0  0  0
 34 32  1  0  0  0  0
M  RAD  2   3   2   4   2
M  END
