Coordinates from ORCA-job 4-MeO-Ph-N2-OTs-B3LYPG-6-31G_dp-MTMO-d009-169-n800
 OpenBabel09051908173D

 35 35  0  0  0  0  0  0  0  0999 V2000
    3.4440   -4.0486    0.6998 C   0  0  0  0  0  0  0  0  0  0  0  0
    2.5122   -3.9194   -0.3341 C   0  0  0  0  0  0  0  0  0  0  0  0
    2.7621   -4.5010   -1.5722 C   0  0  0  0  0  0  0  0  0  0  0  0
    3.9385   -5.2219   -1.7991 C   0  0  0  0  0  0  0  0  0  0  0  0
    4.8612   -5.3583   -0.7712 C   0  0  0  0  0  0  0  0  0  0  0  0
    4.6226   -4.7728    0.4830 C   0  0  0  0  0  0  0  0  0  0  0  0
    3.2401   -3.5828    1.6562 H   0  0  0  0  0  0  0  0  0  0  0  0
    1.5965   -3.3571   -0.1856 H   0  0  0  0  0  0  0  0  0  0  0  0
    4.1134   -5.6692   -2.7700 H   0  0  0  0  0  0  0  0  0  0  0  0
    5.7836   -5.9101   -0.9167 H   0  0  0  0  0  0  0  0  0  0  0  0
   -8.0777   -7.6683    0.9597 N   0  0  0  0  0  0  0  0  0  0  0  0
   -9.1043   -8.0688    0.8746 N   0  0  0  0  0  0  0  0  0  0  0  0
   -0.2239   -6.5347   -0.8065 C   0  0  0  0  0  0  0  0  0  0  0  0
   -1.1979   -6.5864    0.1900 C   0  0  0  0  0  0  0  0  0  0  0  0
   -2.3115   -5.7360    0.1623 C   0  0  0  0  0  0  0  0  0  0  0  0
   -2.4289   -4.8200   -0.8954 C   0  0  0  0  0  0  0  0  0  0  0  0
   -1.4683   -4.7516   -1.8999 C   0  0  0  0  0  0  0  0  0  0  0  0
   -0.3698   -5.6139   -1.8443 C   0  0  0  0  0  0  0  0  0  0  0  0
    0.6293   -7.2037   -0.7925 H   0  0  0  0  0  0  0  0  0  0  0  0
   -1.0919   -7.3033    1.0001 H   0  0  0  0  0  0  0  0  0  0  0  0
   -3.2884   -4.1558   -0.9345 H   0  0  0  0  0  0  0  0  0  0  0  0
   -1.5678   -4.0545   -2.7252 H   0  0  0  0  0  0  0  0  0  0  0  0
    0.8677   -5.5253   -3.1252 S   0  0  0  0  0  0  0  0  0  0  0  0
    1.8508   -4.2756   -2.6116 O   0  0  0  0  0  0  0  0  0  0  0  0
    0.2683   -4.9913   -4.3390 O   0  0  0  0  0  0  0  0  0  0  0  0
    1.6411   -6.7639   -3.1176 O   0  0  0  0  0  0  0  0  0  0  0  0
   -3.3785   -5.8190    1.2267 C   0  0  0  0  0  0  0  0  0  0  0  0
   -3.7485   -4.8263    1.4998 H   0  0  0  0  0  0  0  0  0  0  0  0
   -4.2399   -6.3993    0.8739 H   0  0  0  0  0  0  0  0  0  0  0  0
   -3.0048   -6.3045    2.1321 H   0  0  0  0  0  0  0  0  0  0  0  0
    5.5983   -4.9639    1.4171 O   0  0  0  0  0  0  0  0  0  0  0  0
    5.4209   -4.3901    2.7022 C   0  0  0  0  0  0  0  0  0  0  0  0
    6.3078   -4.6603    3.2779 H   0  0  0  0  0  0  0  0  0  0  0  0
    5.3432   -3.2963    2.6507 H   0  0  0  0  0  0  0  0  0  0  0  0
    4.5304   -4.7892    3.2051 H   0  0  0  0  0  0  0  0  0  0  0  0
  1  7  1  0  0  0  0
  2  8  1  0  0  0  0
  2  1  2  0  0  0  0
  3  2  1  0  0  0  0
  4  3  2  0  0  0  0
  4  5  1  0  0  0  0
  5  6  2  0  0  0  0
  6  1  1  0  0  0  0
  6 31  1  0  0  0  0
  9  4  1  0  0  0  0
 10  5  1  0  0  0  0
 12 11  3  0  0  0  0
 13 19  1  0  0  0  0
 13 14  2  0  0  0  0
 14 20  1  0  0  0  0
 15 14  1  0  0  0  0
 15 27  1  0  0  0  0
 16 15  2  0  0  0  0
 17 18  2  0  0  0  0
 17 16  1  0  0  0  0
 18 13  1  0  0  0  0
 21 16  1  0  0  0  0
 22 17  1  0  0  0  0
 23 26  2  0  0  0  0
 23 24  1  0  0  0  0
 23 18  1  0  0  0  0
 24  3  1  0  0  0  0
 25 23  2  0  0  0  0
 27 28  1  0  0  0  0
 27 30  1  0  0  0  0
 29 27  1  0  0  0  0
 31 32  1  0  0  0  0
 32 35  1  0  0  0  0
 32 33  1  0  0  0  0
 34 32  1  0  0  0  0
M  END
