Coordinates from ORCA-job 4-MeO-Ph-N2-OTs-B3LYPG-6-31G_dp-MTMO-d009-169-n800
 OpenBabel09051908173D

 35 35  0  0  0  0  0  0  0  0999 V2000
    2.7933   -3.8620    0.6008 C   0  0  0  0  0  0  0  0  0  0  0  0
    1.6504   -3.9164   -0.2018 C   0  0  0  0  0  0  0  0  0  0  0  0
    1.7478   -4.3372   -1.5235 C   0  0  0  0  0  0  0  0  0  0  0  0
    2.9806   -4.7144   -2.0652 C   0  0  0  0  0  0  0  0  0  0  0  0
    4.1152   -4.6710   -1.2666 C   0  0  0  0  0  0  0  0  0  0  0  0
    4.0313   -4.2434    0.0687 C   0  0  0  0  0  0  0  0  0  0  0  0
    2.7042   -3.5220    1.6251 H   0  0  0  0  0  0  0  0  0  0  0  0
    0.6842   -3.6197    0.1918 H   0  0  0  0  0  0  0  0  0  0  0  0
    3.0349   -5.0418   -3.0962 H   0  0  0  0  0  0  0  0  0  0  0  0
    5.0853   -4.9585   -1.6573 H   0  0  0  0  0  0  0  0  0  0  0  0
   -2.2446   -2.3663   -2.7741 N   0  0  0  0  0  0  0  0  0  0  0  0
   -1.8100   -1.7635   -3.5917 N   0  0  0  0  0  0  0  0  0  0  0  0
   -0.3293   -7.2924   -0.5428 C   0  0  0  0  0  0  0  0  0  0  0  0
   -0.9575   -7.7187    0.6274 C   0  0  0  0  0  0  0  0  0  0  0  0
   -2.1581   -7.1403    1.0583 C   0  0  0  0  0  0  0  0  0  0  0  0
   -2.7273   -6.1172    0.2815 C   0  0  0  0  0  0  0  0  0  0  0  0
   -2.1192   -5.6782   -0.8898 C   0  0  0  0  0  0  0  0  0  0  0  0
   -0.9187   -6.2737   -1.2904 C   0  0  0  0  0  0  0  0  0  0  0  0
    0.5932   -7.7472   -0.8839 H   0  0  0  0  0  0  0  0  0  0  0  0
   -0.5089   -8.5178    1.2111 H   0  0  0  0  0  0  0  0  0  0  0  0
   -3.6641   -5.6657    0.5961 H   0  0  0  0  0  0  0  0  0  0  0  0
   -2.5669   -4.8956   -1.4930 H   0  0  0  0  0  0  0  0  0  0  0  0
   -0.1322   -5.7188   -2.7915 S   0  0  0  0  0  0  0  0  0  0  0  0
    0.5981   -4.2912   -2.3230 O   0  0  0  0  0  0  0  0  0  0  0  0
   -1.1435   -5.2676   -3.7362 O   0  0  0  0  0  0  0  0  0  0  0  0
    0.9026   -6.6797   -3.1631 O   0  0  0  0  0  0  0  0  0  0  0  0
   -2.8279   -7.5941    2.3325 C   0  0  0  0  0  0  0  0  0  0  0  0
   -2.7420   -6.8299    3.1151 H   0  0  0  0  0  0  0  0  0  0  0  0
   -3.8963   -7.7763    2.1770 H   0  0  0  0  0  0  0  0  0  0  0  0
   -2.3790   -8.5134    2.7157 H   0  0  0  0  0  0  0  0  0  0  0  0
    5.2085   -4.2324    0.7581 O   0  0  0  0  0  0  0  0  0  0  0  0
    5.1929   -3.8012    2.1095 C   0  0  0  0  0  0  0  0  0  0  0  0
    6.2242   -3.8689    2.4592 H   0  0  0  0  0  0  0  0  0  0  0  0
    4.8499   -2.7625    2.1999 H   0  0  0  0  0  0  0  0  0  0  0  0
    4.5585   -4.4441    2.7331 H   0  0  0  0  0  0  0  0  0  0  0  0
  1  7  1  0  0  0  0
  2  8  1  0  0  0  0
  2  1  2  0  0  0  0
  3  2  1  0  0  0  0
  4  3  2  0  0  0  0
  4  5  1  0  0  0  0
  5  6  2  0  0  0  0
  6  1  1  0  0  0  0
  6 31  1  0  0  0  0
  9  4  1  0  0  0  0
 10  5  1  0  0  0  0
 12 11  3  0  0  0  0
 13 14  2  0  0  0  0
 14 15  1  0  0  0  0
 14 20  1  0  0  0  0
 15 27  1  0  0  0  0
 16 21  1  0  0  0  0
 16 15  2  0  0  0  0
 17 16  1  0  0  0  0
 18 17  2  0  0  0  0
 18 13  1  0  0  0  0
 19 13  1  0  0  0  0
 22 17  1  0  0  0  0
 23 24  1  0  0  0  0
 23 18  1  0  0  0  0
 24  3  1  0  0  0  0
 25 23  2  0  0  0  0
 26 23  2  0  0  0  0
 27 30  1  0  0  0  0
 27 28  1  0  0  0  0
 29 27  1  0  0  0  0
 31 32  1  0  0  0  0
 32 34  1  0  0  0  0
 32 33  1  0  0  0  0
 32 35  1  0  0  0  0
M  END
