Coordinates from ORCA-job 4-MeO-Ph-N2-OTs-B3LYPG-6-31G_dp-MTMO-d009-169-n800
 OpenBabel09051908173D

 35 35  0  0  0  0  0  0  0  0999 V2000
    3.6089   -3.9941    0.6289 C   0  0  0  0  0  0  0  0  0  0  0  0
    2.6484   -3.8891   -0.3811 C   0  0  0  0  0  0  0  0  0  0  0  0
    2.8593   -4.5076   -1.6084 C   0  0  0  0  0  0  0  0  0  0  0  0
    4.0247   -5.2419   -1.8481 C   0  0  0  0  0  0  0  0  0  0  0  0
    4.9761   -5.3543   -0.8437 C   0  0  0  0  0  0  0  0  0  0  0  0
    4.7769   -4.7314    0.3993 C   0  0  0  0  0  0  0  0  0  0  0  0
    3.4355   -3.5001    1.5772 H   0  0  0  0  0  0  0  0  0  0  0  0
    1.7401   -3.3173   -0.2227 H   0  0  0  0  0  0  0  0  0  0  0  0
    4.1689   -5.7181   -2.8103 H   0  0  0  0  0  0  0  0  0  0  0  0
    5.8910   -5.9158   -0.9996 H   0  0  0  0  0  0  0  0  0  0  0  0
  -10.4154   -8.4353    0.4543 N   0  0  0  0  0  0  0  0  0  0  0  0
  -11.3633   -8.9538    0.2214 N   0  0  0  0  0  0  0  0  0  0  0  0
   -0.1101   -6.4958   -0.6901 C   0  0  0  0  0  0  0  0  0  0  0  0
   -1.0479   -6.5044    0.3423 C   0  0  0  0  0  0  0  0  0  0  0  0
   -2.1484   -5.6374    0.3308 C   0  0  0  0  0  0  0  0  0  0  0  0
   -2.2919   -4.7501   -0.7484 C   0  0  0  0  0  0  0  0  0  0  0  0
   -1.3683   -4.7254   -1.7885 C   0  0  0  0  0  0  0  0  0  0  0  0
   -0.2808   -5.6026   -1.7476 C   0  0  0  0  0  0  0  0  0  0  0  0
    0.7335   -7.1769   -0.6876 H   0  0  0  0  0  0  0  0  0  0  0  0
   -0.9230   -7.1998    1.1683 H   0  0  0  0  0  0  0  0  0  0  0  0
   -3.1430   -4.0744   -0.7755 H   0  0  0  0  0  0  0  0  0  0  0  0
   -1.4879   -4.0506   -2.6295 H   0  0  0  0  0  0  0  0  0  0  0  0
    0.9133   -5.5646   -3.0715 S   0  0  0  0  0  0  0  0  0  0  0  0
    1.9195   -4.3073   -2.6275 O   0  0  0  0  0  0  0  0  0  0  0  0
    0.2782   -5.0635   -4.2812 O   0  0  0  0  0  0  0  0  0  0  0  0
    1.6781   -6.8084   -3.0511 O   0  0  0  0  0  0  0  0  0  0  0  0
   -3.1759   -5.6698    1.4360 C   0  0  0  0  0  0  0  0  0  0  0  0
   -3.4677   -4.6598    1.7397 H   0  0  0  0  0  0  0  0  0  0  0  0
   -4.0874   -6.1830    1.1067 H   0  0  0  0  0  0  0  0  0  0  0  0
   -2.8012   -6.1959    2.3177 H   0  0  0  0  0  0  0  0  0  0  0  0
    5.7784   -4.9013    1.3100 O   0  0  0  0  0  0  0  0  0  0  0  0
    5.6403   -4.2916    2.5833 C   0  0  0  0  0  0  0  0  0  0  0  0
    6.5423   -4.5502    3.1406 H   0  0  0  0  0  0  0  0  0  0  0  0
    5.5656   -3.1993    2.5041 H   0  0  0  0  0  0  0  0  0  0  0  0
    4.7629   -4.6725    3.1224 H   0  0  0  0  0  0  0  0  0  0  0  0
  1  7  1  0  0  0  0
  2  8  1  0  0  0  0
  2  1  2  0  0  0  0
  3  2  1  0  0  0  0
  4  3  2  0  0  0  0
  4  5  1  0  0  0  0
  5  6  2  0  0  0  0
  6  1  1  0  0  0  0
  6 31  1  0  0  0  0
  9  4  1  0  0  0  0
 10  5  1  0  0  0  0
 12 11  3  0  0  0  0
 13 19  1  0  0  0  0
 13 14  2  0  0  0  0
 14 20  1  0  0  0  0
 15 14  1  0  0  0  0
 15 27  1  0  0  0  0
 16 15  2  0  0  0  0
 17 18  2  0  0  0  0
 17 16  1  0  0  0  0
 18 13  1  0  0  0  0
 21 16  1  0  0  0  0
 22 17  1  0  0  0  0
 23 26  2  0  0  0  0
 23 24  1  0  0  0  0
 23 18  1  0  0  0  0
 24  3  1  0  0  0  0
 25 23  2  0  0  0  0
 27 28  1  0  0  0  0
 27 30  1  0  0  0  0
 29 27  1  0  0  0  0
 31 32  1  0  0  0  0
 32 35  1  0  0  0  0
 32 33  1  0  0  0  0
 34 32  1  0  0  0  0
M  END
