Coordinates from ORCA-job 4-MeO-Ph-N2-OTs-B3LYPG-6-31G_dp-MTMO-d009-169-n800
 OpenBabel09051908173D

 35 35  0  0  0  0  0  0  0  0999 V2000
    2.7745   -3.8508    0.5871 C   0  0  0  0  0  0  0  0  0  0  0  0
    1.6343   -3.9101   -0.2191 C   0  0  0  0  0  0  0  0  0  0  0  0
    1.7355   -4.3440   -1.5362 C   0  0  0  0  0  0  0  0  0  0  0  0
    2.9692   -4.7296   -2.0699 C   0  0  0  0  0  0  0  0  0  0  0  0
    4.1009   -4.6814   -1.2676 C   0  0  0  0  0  0  0  0  0  0  0  0
    4.0135   -4.2406    0.0632 C   0  0  0  0  0  0  0  0  0  0  0  0
    2.6826   -3.5008    1.6077 H   0  0  0  0  0  0  0  0  0  0  0  0
    0.6675   -3.6072    0.1681 H   0  0  0  0  0  0  0  0  0  0  0  0
    3.0263   -5.0669   -3.0974 H   0  0  0  0  0  0  0  0  0  0  0  0
    5.0718   -4.9752   -1.6519 H   0  0  0  0  0  0  0  0  0  0  0  0
   -2.1046   -2.3348   -2.6883 N   0  0  0  0  0  0  0  0  0  0  0  0
   -1.6849   -1.7242   -3.5078 N   0  0  0  0  0  0  0  0  0  0  0  0
   -0.3304   -7.3013   -0.5487 C   0  0  0  0  0  0  0  0  0  0  0  0
   -0.9541   -7.7256    0.6245 C   0  0  0  0  0  0  0  0  0  0  0  0
   -2.1532   -7.1466    1.0590 C   0  0  0  0  0  0  0  0  0  0  0  0
   -2.7255   -6.1249    0.2825 C   0  0  0  0  0  0  0  0  0  0  0  0
   -2.1218   -5.6879   -0.8918 C   0  0  0  0  0  0  0  0  0  0  0  0
   -0.9227   -6.2839   -1.2959 C   0  0  0  0  0  0  0  0  0  0  0  0
    0.5908   -7.7566   -0.8925 H   0  0  0  0  0  0  0  0  0  0  0  0
   -0.5032   -8.5236    1.2080 H   0  0  0  0  0  0  0  0  0  0  0  0
   -3.6611   -5.6729    0.5998 H   0  0  0  0  0  0  0  0  0  0  0  0
   -2.5715   -4.9063   -1.4946 H   0  0  0  0  0  0  0  0  0  0  0  0
   -0.1424   -5.7321   -2.8014 S   0  0  0  0  0  0  0  0  0  0  0  0
    0.5886   -4.3025   -2.3398 O   0  0  0  0  0  0  0  0  0  0  0  0
   -1.1573   -5.2840   -3.7435 O   0  0  0  0  0  0  0  0  0  0  0  0
    0.8919   -6.6930   -3.1741 O   0  0  0  0  0  0  0  0  0  0  0  0
   -2.8178   -7.5980    2.3368 C   0  0  0  0  0  0  0  0  0  0  0  0
   -2.7244   -6.8342    3.1190 H   0  0  0  0  0  0  0  0  0  0  0  0
   -3.8877   -7.7760    2.1872 H   0  0  0  0  0  0  0  0  0  0  0  0
   -2.3703   -8.5191    2.7173 H   0  0  0  0  0  0  0  0  0  0  0  0
    5.1881   -4.2259    0.7567 O   0  0  0  0  0  0  0  0  0  0  0  0
    5.1690   -3.7806    2.1035 C   0  0  0  0  0  0  0  0  0  0  0  0
    6.1990   -3.8470    2.4574 H   0  0  0  0  0  0  0  0  0  0  0  0
    4.8282   -2.7402    2.1818 H   0  0  0  0  0  0  0  0  0  0  0  0
    4.5311   -4.4155    2.7317 H   0  0  0  0  0  0  0  0  0  0  0  0
  1  7  1  0  0  0  0
  2  8  1  0  0  0  0
  2  1  2  0  0  0  0
  3  2  1  0  0  0  0
  4  3  2  0  0  0  0
  4  5  1  0  0  0  0
  5  6  2  0  0  0  0
  6  1  1  0  0  0  0
  6 31  1  0  0  0  0
  9  4  1  0  0  0  0
 10  5  1  0  0  0  0
 12 11  3  0  0  0  0
 13 14  2  0  0  0  0
 14 15  1  0  0  0  0
 14 20  1  0  0  0  0
 15 27  1  0  0  0  0
 16 21  1  0  0  0  0
 16 15  2  0  0  0  0
 17 16  1  0  0  0  0
 18 17  2  0  0  0  0
 18 13  1  0  0  0  0
 19 13  1  0  0  0  0
 22 17  1  0  0  0  0
 23 24  1  0  0  0  0
 23 18  1  0  0  0  0
 24  3  1  0  0  0  0
 25 23  2  0  0  0  0
 26 23  2  0  0  0  0
 27 30  1  0  0  0  0
 27 28  1  0  0  0  0
 29 27  1  0  0  0  0
 31 32  1  0  0  0  0
 32 34  1  0  0  0  0
 32 33  1  0  0  0  0
 32 35  1  0  0  0  0
M  END
