Coordinates from ORCA-job 4-MeO-Ph-N2-OTs-B3LYPG-6-31G_dp-MTMO-d009-169-n800
 OpenBabel09051908173D

 35 35  0  0  0  0  0  0  0  0999 V2000
    3.1695   -3.9186    0.6905 C   0  0  0  0  0  0  0  0  0  0  0  0
    2.2097   -3.9087   -0.3255 C   0  0  0  0  0  0  0  0  0  0  0  0
    2.5067   -4.4567   -1.5685 C   0  0  0  0  0  0  0  0  0  0  0  0
    3.7601   -5.0241   -1.8185 C   0  0  0  0  0  0  0  0  0  0  0  0
    4.7113   -5.0436   -0.8077 C   0  0  0  0  0  0  0  0  0  0  0  0
    4.4249   -4.4910    0.4514 C   0  0  0  0  0  0  0  0  0  0  0  0
    2.9270   -3.4807    1.6510 H   0  0  0  0  0  0  0  0  0  0  0  0
    1.2341   -3.4648   -0.1596 H   0  0  0  0  0  0  0  0  0  0  0  0
    3.9719   -5.4469   -2.7929 H   0  0  0  0  0  0  0  0  0  0  0  0
    5.6919   -5.4774   -0.9707 H   0  0  0  0  0  0  0  0  0  0  0  0
   -6.5831   -4.7050    0.1297 N   0  0  0  0  0  0  0  0  0  0  0  0
   -7.6403   -4.3861    0.0849 N   0  0  0  0  0  0  0  0  0  0  0  0
   -0.0730   -6.9097   -0.7498 C   0  0  0  0  0  0  0  0  0  0  0  0
   -0.9849   -7.1347    0.2784 C   0  0  0  0  0  0  0  0  0  0  0  0
   -2.2300   -6.4870    0.3011 C   0  0  0  0  0  0  0  0  0  0  0  0
   -2.5450   -5.6039   -0.7418 C   0  0  0  0  0  0  0  0  0  0  0  0
   -1.6459   -5.3632   -1.7795 C   0  0  0  0  0  0  0  0  0  0  0  0
   -0.4143   -6.0202   -1.7720 C   0  0  0  0  0  0  0  0  0  0  0  0
    0.8801   -7.4249   -0.7772 H   0  0  0  0  0  0  0  0  0  0  0  0
   -0.7287   -7.8310    1.0729 H   0  0  0  0  0  0  0  0  0  0  0  0
   -3.5107   -5.1065   -0.7455 H   0  0  0  0  0  0  0  0  0  0  0  0
   -1.8971   -4.6936   -2.5949 H   0  0  0  0  0  0  0  0  0  0  0  0
    0.7394   -5.7187   -3.0973 S   0  0  0  0  0  0  0  0  0  0  0  0
    1.5522   -4.3499   -2.5879 O   0  0  0  0  0  0  0  0  0  0  0  0
    0.0178   -5.2515   -4.2714 O   0  0  0  0  0  0  0  0  0  0  0  0
    1.6856   -6.8297   -3.1560 O   0  0  0  0  0  0  0  0  0  0  0  0
   -3.2033   -6.7374    1.4279 C   0  0  0  0  0  0  0  0  0  0  0  0
   -2.8355   -6.3065    2.3666 H   0  0  0  0  0  0  0  0  0  0  0  0
   -4.1804   -6.2954    1.2187 H   0  0  0  0  0  0  0  0  0  0  0  0
   -3.3439   -7.8095    1.5998 H   0  0  0  0  0  0  0  0  0  0  0  0
    5.4332   -4.5591    1.3677 O   0  0  0  0  0  0  0  0  0  0  0  0
    5.2109   -4.0058    2.6548 C   0  0  0  0  0  0  0  0  0  0  0  0
    6.1333   -4.1669    3.2155 H   0  0  0  0  0  0  0  0  0  0  0  0
    5.0036   -2.9292    2.6030 H   0  0  0  0  0  0  0  0  0  0  0  0
    4.3825   -4.5055    3.1737 H   0  0  0  0  0  0  0  0  0  0  0  0
  1  7  1  0  0  0  0
  2  8  1  0  0  0  0
  2  1  2  0  0  0  0
  3  2  1  0  0  0  0
  4  3  2  0  0  0  0
  4  5  1  0  0  0  0
  5  6  2  0  0  0  0
  6  1  1  0  0  0  0
  6 31  1  0  0  0  0
  9  4  1  0  0  0  0
 10  5  1  0  0  0  0
 12 11  3  0  0  0  0
 13 14  2  0  0  0  0
 14 15  1  0  0  0  0
 14 20  1  0  0  0  0
 15 27  1  0  0  0  0
 16 15  2  0  0  0  0
 17 18  2  0  0  0  0
 17 16  1  0  0  0  0
 18 13  1  0  0  0  0
 19 13  1  0  0  0  0
 21 16  1  0  0  0  0
 22 17  1  0  0  0  0
 23 24  1  0  0  0  0
 23 18  1  0  0  0  0
 24  3  1  0  0  0  0
 25 23  2  0  0  0  0
 26 23  2  0  0  0  0
 27 30  1  0  0  0  0
 27 28  1  0  0  0  0
 29 27  1  0  0  0  0
 31 32  1  0  0  0  0
 32 35  1  0  0  0  0
 32 33  1  0  0  0  0
 34 32  1  0  0  0  0
M  END
