Coordinates from ORCA-job 4-MeO-Ph-N2-OTs-B3LYPG-6-31G_dp-MTMO-d009-169-n800
 OpenBabel09051908173D

 35 35  0  0  0  0  0  0  0  0999 V2000
    3.6776   -3.7554    0.5291 C   0  0  0  0  0  0  0  0  0  0  0  0
    2.6767   -3.7707   -0.4464 C   0  0  0  0  0  0  0  0  0  0  0  0
    2.8985   -4.4108   -1.6607 C   0  0  0  0  0  0  0  0  0  0  0  0
    4.1166   -5.0462   -1.9219 C   0  0  0  0  0  0  0  0  0  0  0  0
    5.1084   -5.0401   -0.9509 C   0  0  0  0  0  0  0  0  0  0  0  0
    4.8978   -4.3952    0.2790 C   0  0  0  0  0  0  0  0  0  0  0  0
    3.4938   -3.2473    1.4679 H   0  0  0  0  0  0  0  0  0  0  0  0
    1.7271   -3.2763   -0.2717 H   0  0  0  0  0  0  0  0  0  0  0  0
    4.2693   -5.5404   -2.8736 H   0  0  0  0  0  0  0  0  0  0  0  0
    6.0633   -5.5248   -1.1234 H   0  0  0  0  0  0  0  0  0  0  0  0
  -13.4923   -7.9026   -0.2262 N   0  0  0  0  0  0  0  0  0  0  0  0
  -14.4362   -8.4293   -0.4567 N   0  0  0  0  0  0  0  0  0  0  0  0
    0.2559   -6.6630   -0.5561 C   0  0  0  0  0  0  0  0  0  0  0  0
   -0.6168   -6.7590    0.5283 C   0  0  0  0  0  0  0  0  0  0  0  0
   -1.8242   -6.0490    0.5537 C   0  0  0  0  0  0  0  0  0  0  0  0
   -2.1463   -5.2337   -0.5442 C   0  0  0  0  0  0  0  0  0  0  0  0
   -1.2896   -5.1224   -1.6348 C   0  0  0  0  0  0  0  0  0  0  0  0
   -0.0905   -5.8416   -1.6287 C   0  0  0  0  0  0  0  0  0  0  0  0
    1.1821   -7.2253   -0.5820 H   0  0  0  0  0  0  0  0  0  0  0  0
   -0.3559   -7.4010    1.3654 H   0  0  0  0  0  0  0  0  0  0  0  0
   -3.0850   -4.6862   -0.5465 H   0  0  0  0  0  0  0  0  0  0  0  0
   -1.5460   -4.5062   -2.4896 H   0  0  0  0  0  0  0  0  0  0  0  0
    1.0158   -5.6963   -3.0194 S   0  0  0  0  0  0  0  0  0  0  0  0
    1.9062   -4.3328   -2.6461 O   0  0  0  0  0  0  0  0  0  0  0  0
    0.2641   -5.2850   -4.1956 O   0  0  0  0  0  0  0  0  0  0  0  0
    1.9094   -6.8512   -3.0308 O   0  0  0  0  0  0  0  0  0  0  0  0
   -2.7654   -6.1521    1.7295 C   0  0  0  0  0  0  0  0  0  0  0  0
   -2.8461   -5.1932    2.2551 H   0  0  0  0  0  0  0  0  0  0  0  0
   -3.7751   -6.4257    1.4051 H   0  0  0  0  0  0  0  0  0  0  0  0
   -2.4273   -6.9012    2.4500 H   0  0  0  0  0  0  0  0  0  0  0  0
    5.9403   -4.4472    1.1573 O   0  0  0  0  0  0  0  0  0  0  0  0
    5.7942   -3.8041    2.4133 C   0  0  0  0  0  0  0  0  0  0  0  0
    6.7321   -3.9686    2.9467 H   0  0  0  0  0  0  0  0  0  0  0  0
    5.6282   -2.7250    2.2997 H   0  0  0  0  0  0  0  0  0  0  0  0
    4.9689   -4.2342    2.9958 H   0  0  0  0  0  0  0  0  0  0  0  0
  1  7  1  0  0  0  0
  2  8  1  0  0  0  0
  2  1  2  0  0  0  0
  3  2  1  0  0  0  0
  4  3  2  0  0  0  0
  4  5  1  0  0  0  0
  5  6  2  0  0  0  0
  6  1  1  0  0  0  0
  6 31  1  0  0  0  0
  9  4  1  0  0  0  0
 10  5  1  0  0  0  0
 12 11  3  0  0  0  0
 13 14  2  0  0  0  0
 14 15  1  0  0  0  0
 14 20  1  0  0  0  0
 15 27  1  0  0  0  0
 16 15  2  0  0  0  0
 17 18  2  0  0  0  0
 17 16  1  0  0  0  0
 18 13  1  0  0  0  0
 19 13  1  0  0  0  0
 21 16  1  0  0  0  0
 22 17  1  0  0  0  0
 23 24  1  0  0  0  0
 23 18  1  0  0  0  0
 24  3  1  0  0  0  0
 25 23  2  0  0  0  0
 26 23  2  0  0  0  0
 27 28  1  0  0  0  0
 27 30  1  0  0  0  0
 29 27  1  0  0  0  0
 31 32  1  0  0  0  0
 32 33  1  0  0  0  0
 32 35  1  0  0  0  0
 34 32  1  0  0  0  0
M  END
