Coordinates from ORCA-job 4-MeO-Ph-N2-OTs-B3LYPG-6-31G_dp-MTMO-d009-169-n800
 OpenBabel09051908173D

 35 35  0  0  0  0  0  0  0  0999 V2000
    2.8217   -3.8741    0.6213 C   0  0  0  0  0  0  0  0  0  0  0  0
    1.6790   -3.9137   -0.1826 C   0  0  0  0  0  0  0  0  0  0  0  0
    1.7739   -4.3274   -1.5066 C   0  0  0  0  0  0  0  0  0  0  0  0
    3.0038   -4.7120   -2.0497 C   0  0  0  0  0  0  0  0  0  0  0  0
    4.1380   -4.6834   -1.2500 C   0  0  0  0  0  0  0  0  0  0  0  0
    4.0568   -4.2633    0.0879 C   0  0  0  0  0  0  0  0  0  0  0  0
    2.7346   -3.5394    1.6475 H   0  0  0  0  0  0  0  0  0  0  0  0
    0.7152   -3.6110    0.2122 H   0  0  0  0  0  0  0  0  0  0  0  0
    3.0560   -5.0336   -3.0825 H   0  0  0  0  0  0  0  0  0  0  0  0
    5.1059   -4.9770   -1.6417 H   0  0  0  0  0  0  0  0  0  0  0  0
   -2.5109   -2.4350   -2.8930 N   0  0  0  0  0  0  0  0  0  0  0  0
   -2.1250   -1.8430   -3.7423 N   0  0  0  0  0  0  0  0  0  0  0  0
   -0.3176   -7.2672   -0.5434 C   0  0  0  0  0  0  0  0  0  0  0  0
   -0.9484   -7.6977    0.6238 C   0  0  0  0  0  0  0  0  0  0  0  0
   -2.1507   -7.1218    1.0534 C   0  0  0  0  0  0  0  0  0  0  0  0
   -2.7188   -6.0968    0.2783 C   0  0  0  0  0  0  0  0  0  0  0  0
   -2.1081   -5.6534   -0.8900 C   0  0  0  0  0  0  0  0  0  0  0  0
   -0.9061   -6.2465   -1.2893 C   0  0  0  0  0  0  0  0  0  0  0  0
    0.6059   -7.7204   -0.8838 H   0  0  0  0  0  0  0  0  0  0  0  0
   -0.5005   -8.4983    1.2061 H   0  0  0  0  0  0  0  0  0  0  0  0
   -3.6569   -5.6473    0.5918 H   0  0  0  0  0  0  0  0  0  0  0  0
   -2.5556   -4.8698   -1.4920 H   0  0  0  0  0  0  0  0  0  0  0  0
   -0.1153   -5.6852   -2.7857 S   0  0  0  0  0  0  0  0  0  0  0  0
    0.6252   -4.2669   -2.3065 O   0  0  0  0  0  0  0  0  0  0  0  0
   -1.1236   -5.2196   -3.7268 O   0  0  0  0  0  0  0  0  0  0  0  0
    0.9124   -6.6507   -3.1648 O   0  0  0  0  0  0  0  0  0  0  0  0
   -2.8236   -7.5805    2.3242 C   0  0  0  0  0  0  0  0  0  0  0  0
   -2.7459   -6.8165    3.1078 H   0  0  0  0  0  0  0  0  0  0  0  0
   -3.8902   -7.7689    2.1635 H   0  0  0  0  0  0  0  0  0  0  0  0
   -2.3712   -8.4976    2.7086 H   0  0  0  0  0  0  0  0  0  0  0  0
    5.2334   -4.2668    0.7783 O   0  0  0  0  0  0  0  0  0  0  0  0
    5.2201   -3.8447    2.1326 C   0  0  0  0  0  0  0  0  0  0  0  0
    6.2504   -3.9237    2.4829 H   0  0  0  0  0  0  0  0  0  0  0  0
    4.8860   -2.8036    2.2298 H   0  0  0  0  0  0  0  0  0  0  0  0
    4.5796   -4.4863    2.7512 H   0  0  0  0  0  0  0  0  0  0  0  0
  1  7  1  0  0  0  0
  2  8  1  0  0  0  0
  2  1  2  0  0  0  0
  3  2  1  0  0  0  0
  4  3  2  0  0  0  0
  4  5  1  0  0  0  0
  5  6  2  0  0  0  0
  6  1  1  0  0  0  0
  6 31  1  0  0  0  0
  9  4  1  0  0  0  0
 10  5  1  0  0  0  0
 12 11  3  0  0  0  0
 13 14  2  0  0  0  0
 14 15  1  0  0  0  0
 14 20  1  0  0  0  0
 15 27  1  0  0  0  0
 16 21  1  0  0  0  0
 16 15  2  0  0  0  0
 17 16  1  0  0  0  0
 18 17  2  0  0  0  0
 18 13  1  0  0  0  0
 19 13  1  0  0  0  0
 22 17  1  0  0  0  0
 23 24  1  0  0  0  0
 23 18  1  0  0  0  0
 24  3  1  0  0  0  0
 25 23  2  0  0  0  0
 26 23  2  0  0  0  0
 27 30  1  0  0  0  0
 27 28  1  0  0  0  0
 29 27  1  0  0  0  0
 31 32  1  0  0  0  0
 32 34  1  0  0  0  0
 32 33  1  0  0  0  0
 32 35  1  0  0  0  0
M  END
