Coordinates from ORCA-job 4-MeO-Ph-N2-OTs-B3LYPG-6-31G_dp-MTMO-d009-169-n800
 OpenBabel09051908173D

 35 35  0  0  0  0  0  0  0  0999 V2000
    3.4339   -4.0563    0.7021 C   0  0  0  0  0  0  0  0  0  0  0  0
    2.4946   -3.9300   -0.3253 C   0  0  0  0  0  0  0  0  0  0  0  0
    2.7379   -4.5101   -1.5654 C   0  0  0  0  0  0  0  0  0  0  0  0
    3.9151   -5.2270   -1.8007 C   0  0  0  0  0  0  0  0  0  0  0  0
    4.8453   -5.3606   -0.7793 C   0  0  0  0  0  0  0  0  0  0  0  0
    4.6134   -4.7764    0.4768 C   0  0  0  0  0  0  0  0  0  0  0  0
    3.2351   -3.5917    1.6601 H   0  0  0  0  0  0  0  0  0  0  0  0
    1.5780   -3.3708   -0.1702 H   0  0  0  0  0  0  0  0  0  0  0  0
    4.0848   -5.6734   -2.7729 H   0  0  0  0  0  0  0  0  0  0  0  0
    5.7686   -5.9092   -0.9314 H   0  0  0  0  0  0  0  0  0  0  0  0
   -7.6920   -7.5611    0.8528 N   0  0  0  0  0  0  0  0  0  0  0  0
   -8.7030   -7.9915    0.7337 N   0  0  0  0  0  0  0  0  0  0  0  0
   -0.2588   -6.5393   -0.7839 C   0  0  0  0  0  0  0  0  0  0  0  0
   -1.2349   -6.5880    0.2107 C   0  0  0  0  0  0  0  0  0  0  0  0
   -2.3492   -5.7388    0.1775 C   0  0  0  0  0  0  0  0  0  0  0  0
   -2.4651   -4.8271   -0.8842 C   0  0  0  0  0  0  0  0  0  0  0  0
   -1.5025   -4.7619   -1.8869 C   0  0  0  0  0  0  0  0  0  0  0  0
   -0.4033   -5.6228   -1.8256 C   0  0  0  0  0  0  0  0  0  0  0  0
    0.5948   -7.2078   -0.7655 H   0  0  0  0  0  0  0  0  0  0  0  0
   -1.1299   -7.3016    1.0239 H   0  0  0  0  0  0  0  0  0  0  0  0
   -3.3251   -4.1637   -0.9277 H   0  0  0  0  0  0  0  0  0  0  0  0
   -1.6011   -4.0683   -2.7152 H   0  0  0  0  0  0  0  0  0  0  0  0
    0.8356   -5.5399   -3.1059 S   0  0  0  0  0  0  0  0  0  0  0  0
    1.8185   -4.2876   -2.5983 O   0  0  0  0  0  0  0  0  0  0  0  0
    0.2364   -5.0119   -4.3225 O   0  0  0  0  0  0  0  0  0  0  0  0
    1.6091   -6.7784   -3.0919 O   0  0  0  0  0  0  0  0  0  0  0  0
   -3.4175   -5.8172    1.2411 C   0  0  0  0  0  0  0  0  0  0  0  0
   -3.7814   -4.8225    1.5153 H   0  0  0  0  0  0  0  0  0  0  0  0
   -4.2829   -6.3917    0.8882 H   0  0  0  0  0  0  0  0  0  0  0  0
   -3.0468   -6.3056    2.1461 H   0  0  0  0  0  0  0  0  0  0  0  0
    5.5963   -4.9646    1.4041 O   0  0  0  0  0  0  0  0  0  0  0  0
    5.4254   -4.3925    2.6908 C   0  0  0  0  0  0  0  0  0  0  0  0
    6.3171   -4.6599    3.2603 H   0  0  0  0  0  0  0  0  0  0  0  0
    5.3434   -3.2990    2.6408 H   0  0  0  0  0  0  0  0  0  0  0  0
    4.5398   -4.7952    3.1994 H   0  0  0  0  0  0  0  0  0  0  0  0
  1  7  1  0  0  0  0
  2  8  1  0  0  0  0
  2  1  2  0  0  0  0
  3  2  1  0  0  0  0
  4  3  2  0  0  0  0
  4  5  1  0  0  0  0
  5  6  2  0  0  0  0
  6  1  1  0  0  0  0
  6 31  1  0  0  0  0
  9  4  1  0  0  0  0
 10  5  1  0  0  0  0
 12 11  3  0  0  0  0
 13 19  1  0  0  0  0
 13 14  2  0  0  0  0
 14 20  1  0  0  0  0
 15 14  1  0  0  0  0
 15 27  1  0  0  0  0
 16 15  2  0  0  0  0
 17 18  2  0  0  0  0
 17 16  1  0  0  0  0
 18 13  1  0  0  0  0
 21 16  1  0  0  0  0
 22 17  1  0  0  0  0
 23 26  2  0  0  0  0
 23 24  1  0  0  0  0
 23 18  1  0  0  0  0
 24  3  1  0  0  0  0
 25 23  2  0  0  0  0
 27 28  1  0  0  0  0
 27 30  1  0  0  0  0
 29 27  1  0  0  0  0
 31 32  1  0  0  0  0
 32 35  1  0  0  0  0
 32 33  1  0  0  0  0
 34 32  1  0  0  0  0
M  END
