Coordinates from ORCA-job 4-MeO-Ph-N2-OTs-B3LYPG-6-31G_dp-MTMO-d009-169-n800
 OpenBabel09051908173D

 35 35  0  0  0  0  0  0  0  0999 V2000
    3.4020   -4.0737    0.6708 C   0  0  0  0  0  0  0  0  0  0  0  0
    2.4499   -3.9519   -0.3453 C   0  0  0  0  0  0  0  0  0  0  0  0
    2.6644   -4.5619   -1.5762 C   0  0  0  0  0  0  0  0  0  0  0  0
    3.8251   -5.3045   -1.8136 C   0  0  0  0  0  0  0  0  0  0  0  0
    4.7681   -5.4334   -0.8033 C   0  0  0  0  0  0  0  0  0  0  0  0
    4.5653   -4.8191    0.4435 C   0  0  0  0  0  0  0  0  0  0  0  0
    3.2259   -3.5860    1.6217 H   0  0  0  0  0  0  0  0  0  0  0  0
    1.5454   -3.3736   -0.1886 H   0  0  0  0  0  0  0  0  0  0  0  0
    3.9722   -5.7739   -2.7786 H   0  0  0  0  0  0  0  0  0  0  0  0
    5.6793   -6.0014   -0.9572 H   0  0  0  0  0  0  0  0  0  0  0  0
   -6.8763   -7.5869    0.3454 N   0  0  0  0  0  0  0  0  0  0  0  0
   -7.7432   -8.1764   -0.0045 N   0  0  0  0  0  0  0  0  0  0  0  0
   -0.3429   -6.5255   -0.7008 C   0  0  0  0  0  0  0  0  0  0  0  0
   -1.2937   -6.5323    0.3192 C   0  0  0  0  0  0  0  0  0  0  0  0
   -2.3858   -5.6544    0.3004 C   0  0  0  0  0  0  0  0  0  0  0  0
   -2.5062   -4.7580   -0.7739 C   0  0  0  0  0  0  0  0  0  0  0  0
   -1.5691   -4.7348   -1.8020 C   0  0  0  0  0  0  0  0  0  0  0  0
   -0.4909   -5.6229   -1.7539 C   0  0  0  0  0  0  0  0  0  0  0  0
    0.4941   -7.2149   -0.6925 H   0  0  0  0  0  0  0  0  0  0  0  0
   -1.1861   -7.2347    1.1418 H   0  0  0  0  0  0  0  0  0  0  0  0
   -3.3498   -4.0732   -0.8065 H   0  0  0  0  0  0  0  0  0  0  0  0
   -1.6712   -4.0524   -2.6392 H   0  0  0  0  0  0  0  0  0  0  0  0
    0.7194   -5.5885   -3.0630 S   0  0  0  0  0  0  0  0  0  0  0  0
    1.7340   -4.3445   -2.6003 O   0  0  0  0  0  0  0  0  0  0  0  0
    0.1037   -5.0733   -4.2768 O   0  0  0  0  0  0  0  0  0  0  0  0
    1.4711   -6.8403   -3.0416 O   0  0  0  0  0  0  0  0  0  0  0  0
   -3.4273   -5.6860    1.3923 C   0  0  0  0  0  0  0  0  0  0  0  0
   -3.7443   -4.6762    1.6701 H   0  0  0  0  0  0  0  0  0  0  0  0
   -4.3231   -6.2271    1.0648 H   0  0  0  0  0  0  0  0  0  0  0  0
   -3.0515   -6.1837    2.2902 H   0  0  0  0  0  0  0  0  0  0  0  0
    5.5587   -5.0051    1.3599 O   0  0  0  0  0  0  0  0  0  0  0  0
    5.4165   -4.4045    2.6371 C   0  0  0  0  0  0  0  0  0  0  0  0
    6.3124   -4.6748    3.1986 H   0  0  0  0  0  0  0  0  0  0  0  0
    5.3511   -3.3110    2.5661 H   0  0  0  0  0  0  0  0  0  0  0  0
    4.5323   -4.7825    3.1668 H   0  0  0  0  0  0  0  0  0  0  0  0
  1  7  1  0  0  0  0
  2  8  1  0  0  0  0
  2  1  2  0  0  0  0
  3  2  1  0  0  0  0
  4  3  2  0  0  0  0
  4  5  1  0  0  0  0
  5  6  2  0  0  0  0
  6  1  1  0  0  0  0
  6 31  1  0  0  0  0
  9  4  1  0  0  0  0
 10  5  1  0  0  0  0
 12 11  3  0  0  0  0
 13 19  1  0  0  0  0
 13 14  2  0  0  0  0
 14 20  1  0  0  0  0
 15 14  1  0  0  0  0
 15 27  1  0  0  0  0
 16 15  2  0  0  0  0
 17 18  2  0  0  0  0
 17 16  1  0  0  0  0
 18 13  1  0  0  0  0
 21 16  1  0  0  0  0
 22 17  1  0  0  0  0
 23 26  2  0  0  0  0
 23 24  1  0  0  0  0
 23 18  1  0  0  0  0
 24  3  1  0  0  0  0
 25 23  2  0  0  0  0
 27 28  1  0  0  0  0
 27 30  1  0  0  0  0
 29 27  1  0  0  0  0
 31 32  1  0  0  0  0
 32 35  1  0  0  0  0
 32 33  1  0  0  0  0
 34 32  1  0  0  0  0
M  END
