Coordinates from ORCA-job 4-MeO-Ph-N2-OTs-B3LYPG-6-31G_dp-MTMO-d009-169-n800
 OpenBabel09051908173D

 35 35  0  0  0  0  0  0  0  0999 V2000
    3.0902   -3.9379    0.7526 C   0  0  0  0  0  0  0  0  0  0  0  0
    2.0493   -3.9040   -0.1794 C   0  0  0  0  0  0  0  0  0  0  0  0
    2.2681   -4.3349   -1.4832 C   0  0  0  0  0  0  0  0  0  0  0  0
    3.5229   -4.8092   -1.8782 C   0  0  0  0  0  0  0  0  0  0  0  0
    4.5553   -4.8530   -0.9514 C   0  0  0  0  0  0  0  0  0  0  0  0
    4.3484   -4.4168    0.3676 C   0  0  0  0  0  0  0  0  0  0  0  0
    2.9077   -3.5897    1.7618 H   0  0  0  0  0  0  0  0  0  0  0  0
    1.0698   -3.5309    0.0997 H   0  0  0  0  0  0  0  0  0  0  0  0
    3.6730   -5.1428   -2.8977 H   0  0  0  0  0  0  0  0  0  0  0  0
    5.5392   -5.2168   -1.2271 H   0  0  0  0  0  0  0  0  0  0  0  0
   -5.6841   -3.8238   -1.4272 N   0  0  0  0  0  0  0  0  0  0  0  0
   -6.4853   -3.3740   -2.0412 N   0  0  0  0  0  0  0  0  0  0  0  0
   -0.1153   -7.0375   -0.7124 C   0  0  0  0  0  0  0  0  0  0  0  0
   -0.9182   -7.3980    0.3694 C   0  0  0  0  0  0  0  0  0  0  0  0
   -2.1565   -6.7816    0.5920 C   0  0  0  0  0  0  0  0  0  0  0  0
   -2.5843   -5.7896   -0.3056 C   0  0  0  0  0  0  0  0  0  0  0  0
   -1.7983   -5.4156   -1.3910 C   0  0  0  0  0  0  0  0  0  0  0  0
   -0.5653   -6.0451   -1.5831 C   0  0  0  0  0  0  0  0  0  0  0  0
    0.8347   -7.5272   -0.8937 H   0  0  0  0  0  0  0  0  0  0  0  0
   -0.5787   -8.1769    1.0469 H   0  0  0  0  0  0  0  0  0  0  0  0
   -3.5489   -5.3113   -0.1612 H   0  0  0  0  0  0  0  0  0  0  0  0
   -2.1371   -4.6625   -2.0945 H   0  0  0  0  0  0  0  0  0  0  0  0
    0.4460   -5.5671   -2.9712 S   0  0  0  0  0  0  0  0  0  0  0  0
    1.2274   -4.2008   -2.4110 O   0  0  0  0  0  0  0  0  0  0  0  0
   -0.4016   -5.0445   -4.0324 O   0  0  0  0  0  0  0  0  0  0  0  0
    1.4384   -6.6112   -3.2112 O   0  0  0  0  0  0  0  0  0  0  0  0
   -3.0121   -7.1628    1.7754 C   0  0  0  0  0  0  0  0  0  0  0  0
   -2.9352   -6.4128    2.5728 H   0  0  0  0  0  0  0  0  0  0  0  0
   -4.0686   -7.2310    1.4979 H   0  0  0  0  0  0  0  0  0  0  0  0
   -2.7076   -8.1240    2.1971 H   0  0  0  0  0  0  0  0  0  0  0  0
    5.4330   -4.4972    1.1913 O   0  0  0  0  0  0  0  0  0  0  0  0
    5.2924   -4.0601    2.5335 C   0  0  0  0  0  0  0  0  0  0  0  0
    6.2665   -4.2087    3.0024 H   0  0  0  0  0  0  0  0  0  0  0  0
    5.0252   -2.9969    2.5882 H   0  0  0  0  0  0  0  0  0  0  0  0
    4.5394   -4.6472    3.0749 H   0  0  0  0  0  0  0  0  0  0  0  0
  1  7  1  0  0  0  0
  2  8  1  0  0  0  0
  2  1  2  0  0  0  0
  3  2  1  0  0  0  0
  4  3  2  0  0  0  0
  4  5  1  0  0  0  0
  5  6  2  0  0  0  0
  6  1  1  0  0  0  0
  6 31  1  0  0  0  0
  9  4  1  0  0  0  0
 10  5  1  0  0  0  0
 12 11  3  0  0  0  0
 13 14  2  0  0  0  0
 14 15  1  0  0  0  0
 14 20  1  0  0  0  0
 15 27  1  0  0  0  0
 16 21  1  0  0  0  0
 16 15  2  0  0  0  0
 17 16  1  0  0  0  0
 18 17  2  0  0  0  0
 18 13  1  0  0  0  0
 19 13  1  0  0  0  0
 22 17  1  0  0  0  0
 23 24  1  0  0  0  0
 23 18  1  0  0  0  0
 24  3  1  0  0  0  0
 25 23  2  0  0  0  0
 26 23  2  0  0  0  0
 27 30  1  0  0  0  0
 27 28  1  0  0  0  0
 29 27  1  0  0  0  0
 31 32  1  0  0  0  0
 32 34  1  0  0  0  0
 32 33  1  0  0  0  0
 32 35  1  0  0  0  0
M  END
