Coordinates from ORCA-job 4-MeO-Ph-N2-OTs-B3LYPG-6-31G_dp-MTMO-d009-169-n800
 OpenBabel09051908173D

 35 35  0  0  0  0  0  0  0  0999 V2000
    2.7554   -3.8399    0.5735 C   0  0  0  0  0  0  0  0  0  0  0  0
    1.6191   -3.9026   -0.2378 C   0  0  0  0  0  0  0  0  0  0  0  0
    1.7249   -4.3510   -1.5497 C   0  0  0  0  0  0  0  0  0  0  0  0
    2.9595   -4.7477   -2.0731 C   0  0  0  0  0  0  0  0  0  0  0  0
    4.0874   -4.6963   -1.2655 C   0  0  0  0  0  0  0  0  0  0  0  0
    3.9952   -4.2409    0.0601 C   0  0  0  0  0  0  0  0  0  0  0  0
    2.6600   -3.4789    1.5899 H   0  0  0  0  0  0  0  0  0  0  0  0
    0.6516   -3.5913    0.1410 H   0  0  0  0  0  0  0  0  0  0  0  0
    3.0201   -5.0960   -3.0968 H   0  0  0  0  0  0  0  0  0  0  0  0
    5.0588   -4.9984   -1.6418 H   0  0  0  0  0  0  0  0  0  0  0  0
   -1.9840   -2.3071   -2.6053 N   0  0  0  0  0  0  0  0  0  0  0  0
   -1.5851   -1.6897   -3.4302 N   0  0  0  0  0  0  0  0  0  0  0  0
   -0.3295   -7.3082   -0.5568 C   0  0  0  0  0  0  0  0  0  0  0  0
   -0.9477   -7.7305    0.6200 C   0  0  0  0  0  0  0  0  0  0  0  0
   -2.1446   -7.1503    1.0593 C   0  0  0  0  0  0  0  0  0  0  0  0
   -2.7202   -6.1297    0.2840 C   0  0  0  0  0  0  0  0  0  0  0  0
   -2.1218   -5.6947   -0.8939 C   0  0  0  0  0  0  0  0  0  0  0  0
   -0.9249   -6.2917   -1.3027 C   0  0  0  0  0  0  0  0  0  0  0  0
    0.5899   -7.7645   -0.9042 H   0  0  0  0  0  0  0  0  0  0  0  0
   -0.4943   -8.5277    1.2026 H   0  0  0  0  0  0  0  0  0  0  0  0
   -3.6542   -5.6769    0.6050 H   0  0  0  0  0  0  0  0  0  0  0  0
   -2.5739   -4.9139   -1.4958 H   0  0  0  0  0  0  0  0  0  0  0  0
   -0.1520   -5.7429   -2.8131 S   0  0  0  0  0  0  0  0  0  0  0  0
    0.5822   -4.3127   -2.3591 O   0  0  0  0  0  0  0  0  0  0  0  0
   -1.1713   -5.2957   -3.7510 O   0  0  0  0  0  0  0  0  0  0  0  0
    0.8800   -6.7052   -3.1891 O   0  0  0  0  0  0  0  0  0  0  0  0
   -2.8029   -7.5993    2.3412 C   0  0  0  0  0  0  0  0  0  0  0  0
   -2.7017   -6.8359    3.1227 H   0  0  0  0  0  0  0  0  0  0  0  0
   -3.8744   -7.7734    2.1982 H   0  0  0  0  0  0  0  0  0  0  0  0
   -2.3563   -8.5220    2.7190 H   0  0  0  0  0  0  0  0  0  0  0  0
    5.1664   -4.2242    0.7593 O   0  0  0  0  0  0  0  0  0  0  0  0
    5.1426   -3.7637    2.1010 C   0  0  0  0  0  0  0  0  0  0  0  0
    6.1706   -3.8305    2.4607 H   0  0  0  0  0  0  0  0  0  0  0  0
    4.8058   -2.7210    2.1659 H   0  0  0  0  0  0  0  0  0  0  0  0
    4.4989   -4.3888    2.7331 H   0  0  0  0  0  0  0  0  0  0  0  0
  1  7  1  0  0  0  0
  2  8  1  0  0  0  0
  2  1  2  0  0  0  0
  3  2  1  0  0  0  0
  4  3  2  0  0  0  0
  4  5  1  0  0  0  0
  5  6  2  0  0  0  0
  6  1  1  0  0  0  0
  6 31  1  0  0  0  0
  9  4  1  0  0  0  0
 10  5  1  0  0  0  0
 12 11  3  0  0  0  0
 13 14  2  0  0  0  0
 14 15  1  0  0  0  0
 14 20  1  0  0  0  0
 15 27  1  0  0  0  0
 16 21  1  0  0  0  0
 16 15  2  0  0  0  0
 17 16  1  0  0  0  0
 18 17  2  0  0  0  0
 18 13  1  0  0  0  0
 19 13  1  0  0  0  0
 22 17  1  0  0  0  0
 23 24  1  0  0  0  0
 23 18  1  0  0  0  0
 24  3  1  0  0  0  0
 25 23  2  0  0  0  0
 26 23  2  0  0  0  0
 27 30  1  0  0  0  0
 27 28  1  0  0  0  0
 29 27  1  0  0  0  0
 31 32  1  0  0  0  0
 32 34  1  0  0  0  0
 32 33  1  0  0  0  0
 32 35  1  0  0  0  0
M  END
