Coordinates from ORCA-job 4-MeO-Ph-N2-OTs-B3LYPG-6-31G_dp-MTMO-d009-169-n800
 OpenBabel09051908173D

 35 35  0  0  0  0  0  0  0  0999 V2000
    3.4280   -4.0609    0.7012 C   0  0  0  0  0  0  0  0  0  0  0  0
    2.4845   -3.9357   -0.3225 C   0  0  0  0  0  0  0  0  0  0  0  0
    2.7226   -4.5174   -1.5628 C   0  0  0  0  0  0  0  0  0  0  0  0
    3.8987   -5.2348   -1.8021 C   0  0  0  0  0  0  0  0  0  0  0  0
    4.8331   -5.3673   -0.7844 C   0  0  0  0  0  0  0  0  0  0  0  0
    4.6065   -4.7815    0.4720 C   0  0  0  0  0  0  0  0  0  0  0  0
    3.2333   -3.5951    1.6595 H   0  0  0  0  0  0  0  0  0  0  0  0
    1.5687   -3.3761   -0.1643 H   0  0  0  0  0  0  0  0  0  0  0  0
    4.0642   -5.6826   -2.7743 H   0  0  0  0  0  0  0  0  0  0  0  0
    5.7556   -5.9163   -0.9396 H   0  0  0  0  0  0  0  0  0  0  0  0
   -7.4641   -7.5160    0.7717 N   0  0  0  0  0  0  0  0  0  0  0  0
   -8.4611   -7.9700    0.6253 N   0  0  0  0  0  0  0  0  0  0  0  0
   -0.2792   -6.5385   -0.7674 C   0  0  0  0  0  0  0  0  0  0  0  0
   -1.2549   -6.5832    0.2279 C   0  0  0  0  0  0  0  0  0  0  0  0
   -2.3692   -5.7340    0.1920 C   0  0  0  0  0  0  0  0  0  0  0  0
   -2.4854   -4.8265   -0.8733 C   0  0  0  0  0  0  0  0  0  0  0  0
   -1.5233   -4.7652   -1.8767 C   0  0  0  0  0  0  0  0  0  0  0  0
   -0.4241   -5.6260   -1.8126 C   0  0  0  0  0  0  0  0  0  0  0  0
    0.5742   -7.2071   -0.7468 H   0  0  0  0  0  0  0  0  0  0  0  0
   -1.1496   -7.2936    1.0439 H   0  0  0  0  0  0  0  0  0  0  0  0
   -3.3454   -4.1632   -0.9190 H   0  0  0  0  0  0  0  0  0  0  0  0
   -1.6222   -4.0749   -2.7077 H   0  0  0  0  0  0  0  0  0  0  0  0
    0.8137   -5.5489   -3.0943 S   0  0  0  0  0  0  0  0  0  0  0  0
    1.7989   -4.2961   -2.5921 O   0  0  0  0  0  0  0  0  0  0  0  0
    0.2138   -5.0243   -4.3121 O   0  0  0  0  0  0  0  0  0  0  0  0
    1.5857   -6.7883   -3.0770 O   0  0  0  0  0  0  0  0  0  0  0  0
   -3.4368   -5.8077    1.2565 C   0  0  0  0  0  0  0  0  0  0  0  0
   -3.7959   -4.8113    1.5310 H   0  0  0  0  0  0  0  0  0  0  0  0
   -4.3053   -6.3782    0.9053 H   0  0  0  0  0  0  0  0  0  0  0  0
   -3.0670   -6.2973    2.1613 H   0  0  0  0  0  0  0  0  0  0  0  0
    5.5932   -4.9687    1.3953 O   0  0  0  0  0  0  0  0  0  0  0  0
    5.4276   -4.3952    2.6822 C   0  0  0  0  0  0  0  0  0  0  0  0
    6.3216   -4.6621    3.2483 H   0  0  0  0  0  0  0  0  0  0  0  0
    5.3454   -3.3018    2.6314 H   0  0  0  0  0  0  0  0  0  0  0  0
    4.5440   -4.7974    3.1947 H   0  0  0  0  0  0  0  0  0  0  0  0
  1  7  1  0  0  0  0
  2  8  1  0  0  0  0
  2  1  2  0  0  0  0
  3  2  1  0  0  0  0
  4  3  2  0  0  0  0
  4  5  1  0  0  0  0
  5  6  2  0  0  0  0
  6  1  1  0  0  0  0
  6 31  1  0  0  0  0
  9  4  1  0  0  0  0
 10  5  1  0  0  0  0
 12 11  3  0  0  0  0
 13 19  1  0  0  0  0
 13 14  2  0  0  0  0
 14 20  1  0  0  0  0
 15 14  1  0  0  0  0
 15 27  1  0  0  0  0
 16 15  2  0  0  0  0
 17 18  2  0  0  0  0
 17 16  1  0  0  0  0
 18 13  1  0  0  0  0
 21 16  1  0  0  0  0
 22 17  1  0  0  0  0
 23 26  2  0  0  0  0
 23 24  1  0  0  0  0
 23 18  1  0  0  0  0
 24  3  1  0  0  0  0
 25 23  2  0  0  0  0
 27 28  1  0  0  0  0
 27 30  1  0  0  0  0
 29 27  1  0  0  0  0
 31 32  1  0  0  0  0
 32 35  1  0  0  0  0
 32 33  1  0  0  0  0
 34 32  1  0  0  0  0
M  END
