Coordinates from ORCA-job 4-MeO-Ph-N2-OTs-B3LYPG-6-31G_dp-MTMO-d009-169-n800
 OpenBabel09051908173D

 35 35  0  0  0  0  0  0  0  0999 V2000
    2.6756   -3.8110    0.4780 C   0  0  0  0  0  0  0  0  0  0  0  0
    1.5539   -3.9220   -0.3484 C   0  0  0  0  0  0  0  0  0  0  0  0
    1.6882   -4.4243   -1.6382 C   0  0  0  0  0  0  0  0  0  0  0  0
    2.9361   -4.8285   -2.1228 C   0  0  0  0  0  0  0  0  0  0  0  0
    4.0493   -4.7289   -1.2994 C   0  0  0  0  0  0  0  0  0  0  0  0
    3.9287   -4.2182    0.0034 C   0  0  0  0  0  0  0  0  0  0  0  0
    2.5586   -3.4090    1.4766 H   0  0  0  0  0  0  0  0  0  0  0  0
    0.5770   -3.6046   -0.0006 H   0  0  0  0  0  0  0  0  0  0  0  0
    3.0184   -5.2190   -3.1296 H   0  0  0  0  0  0  0  0  0  0  0  0
    5.0305   -5.0348   -1.6461 H   0  0  0  0  0  0  0  0  0  0  0  0
   -1.2444   -1.9735   -1.7548 N   0  0  0  0  0  0  0  0  0  0  0  0
   -1.0859   -1.3540   -2.6561 N   0  0  0  0  0  0  0  0  0  0  0  0
   -0.3071   -7.3345   -0.5313 C   0  0  0  0  0  0  0  0  0  0  0  0
   -0.9304   -7.7161    0.6563 C   0  0  0  0  0  0  0  0  0  0  0  0
   -2.1611   -7.1668    1.0392 C   0  0  0  0  0  0  0  0  0  0  0  0
   -2.7664   -6.2221    0.1942 C   0  0  0  0  0  0  0  0  0  0  0  0
   -2.1626   -5.8289   -0.9958 C   0  0  0  0  0  0  0  0  0  0  0  0
   -0.9316   -6.3907   -1.3466 C   0  0  0  0  0  0  0  0  0  0  0  0
    0.6380   -7.7693   -0.8348 H   0  0  0  0  0  0  0  0  0  0  0  0
   -0.4541   -8.4573    1.2925 H   0  0  0  0  0  0  0  0  0  0  0  0
   -3.7277   -5.7972    0.4694 H   0  0  0  0  0  0  0  0  0  0  0  0
   -2.6396   -5.1116   -1.6551 H   0  0  0  0  0  0  0  0  0  0  0  0
   -0.1525   -5.8915   -2.8708 S   0  0  0  0  0  0  0  0  0  0  0  0
    0.5605   -4.4353   -2.4692 O   0  0  0  0  0  0  0  0  0  0  0  0
   -1.1701   -5.4966   -3.8332 O   0  0  0  0  0  0  0  0  0  0  0  0
    0.8955   -6.8541   -3.1986 O   0  0  0  0  0  0  0  0  0  0  0  0
   -2.8202   -7.5664    2.3366 C   0  0  0  0  0  0  0  0  0  0  0  0
   -2.6716   -6.7965    3.1044 H   0  0  0  0  0  0  0  0  0  0  0  0
   -3.9002   -7.6949    2.2127 H   0  0  0  0  0  0  0  0  0  0  0  0
   -2.4081   -8.5014    2.7241 H   0  0  0  0  0  0  0  0  0  0  0  0
    5.0872   -4.1566    0.7213 O   0  0  0  0  0  0  0  0  0  0  0  0
    5.0352   -3.6323    2.0387 C   0  0  0  0  0  0  0  0  0  0  0  0
    6.0579   -3.6670    2.4173 H   0  0  0  0  0  0  0  0  0  0  0  0
    4.6830   -2.5929    2.0474 H   0  0  0  0  0  0  0  0  0  0  0  0
    4.3898   -4.2356    2.6902 H   0  0  0  0  0  0  0  0  0  0  0  0
  1  7  1  0  0  0  0
  2  8  1  0  0  0  0
  2  1  2  0  0  0  0
  3  2  1  0  0  0  0
  4  3  2  0  0  0  0
  4  5  1  0  0  0  0
  5  6  2  0  0  0  0
  6  1  1  0  0  0  0
  6 31  1  0  0  0  0
  9  4  1  0  0  0  0
 10  5  1  0  0  0  0
 12 11  3  0  0  0  0
 13 14  2  0  0  0  0
 14 15  1  0  0  0  0
 14 20  1  0  0  0  0
 15 27  1  0  0  0  0
 16 21  1  0  0  0  0
 16 15  2  0  0  0  0
 17 16  1  0  0  0  0
 18 17  2  0  0  0  0
 18 13  1  0  0  0  0
 19 13  1  0  0  0  0
 22 17  1  0  0  0  0
 23 24  1  0  0  0  0
 23 18  1  0  0  0  0
 24  3  1  0  0  0  0
 25 23  2  0  0  0  0
 26 23  2  0  0  0  0
 27 30  1  0  0  0  0
 27 28  1  0  0  0  0
 29 27  1  0  0  0  0
 31 32  1  0  0  0  0
 32 34  1  0  0  0  0
 32 33  1  0  0  0  0
 32 35  1  0  0  0  0
M  END
