Coordinates from ORCA-job 4-MeO-Ph-N2-OTs-B3LYPG-6-31G_dp-MTMO-d009-169-n800
 OpenBabel09051908173D

 35 35  0  0  0  0  0  0  0  0999 V2000
    3.1867   -3.9226    0.6898 C   0  0  0  0  0  0  0  0  0  0  0  0
    2.2282   -3.9090   -0.3274 C   0  0  0  0  0  0  0  0  0  0  0  0
    2.5235   -4.4608   -1.5691 C   0  0  0  0  0  0  0  0  0  0  0  0
    3.7740   -5.0358   -1.8166 C   0  0  0  0  0  0  0  0  0  0  0  0
    4.7238   -5.0589   -0.8047 C   0  0  0  0  0  0  0  0  0  0  0  0
    4.4390   -4.5026    0.4532 C   0  0  0  0  0  0  0  0  0  0  0  0
    2.9455   -3.4817    1.6492 H   0  0  0  0  0  0  0  0  0  0  0  0
    1.2549   -3.4592   -0.1634 H   0  0  0  0  0  0  0  0  0  0  0  0
    3.9845   -5.4615   -2.7900 H   0  0  0  0  0  0  0  0  0  0  0  0
    5.7022   -5.4985   -0.9658 H   0  0  0  0  0  0  0  0  0  0  0  0
   -6.6755   -4.8055    0.1825 N   0  0  0  0  0  0  0  0  0  0  0  0
   -7.7492   -4.5463    0.1464 N   0  0  0  0  0  0  0  0  0  0  0  0
   -0.0759   -6.8888   -0.7461 C   0  0  0  0  0  0  0  0  0  0  0  0
   -0.9936   -7.1051    0.2787 C   0  0  0  0  0  0  0  0  0  0  0  0
   -2.2377   -6.4553    0.2904 C   0  0  0  0  0  0  0  0  0  0  0  0
   -2.5456   -5.5790   -0.7602 C   0  0  0  0  0  0  0  0  0  0  0  0
   -1.6404   -5.3466   -1.7945 C   0  0  0  0  0  0  0  0  0  0  0  0
   -0.4100   -6.0056   -1.7760 C   0  0  0  0  0  0  0  0  0  0  0  0
    0.8763   -7.4062   -0.7650 H   0  0  0  0  0  0  0  0  0  0  0  0
   -0.7428   -7.7966    1.0792 H   0  0  0  0  0  0  0  0  0  0  0  0
   -3.5107   -5.0804   -0.7732 H   0  0  0  0  0  0  0  0  0  0  0  0
   -1.8862   -4.6822   -2.6160 H   0  0  0  0  0  0  0  0  0  0  0  0
    0.7509   -5.7158   -3.0977 S   0  0  0  0  0  0  0  0  0  0  0  0
    1.5707   -4.3506   -2.5898 O   0  0  0  0  0  0  0  0  0  0  0  0
    0.0368   -5.2481   -4.2762 O   0  0  0  0  0  0  0  0  0  0  0  0
    1.6901   -6.8331   -3.1490 O   0  0  0  0  0  0  0  0  0  0  0  0
   -3.2171   -6.6957    1.4141 C   0  0  0  0  0  0  0  0  0  0  0  0
   -2.8600   -6.2459    2.3480 H   0  0  0  0  0  0  0  0  0  0  0  0
   -4.1964   -6.2657    1.1908 H   0  0  0  0  0  0  0  0  0  0  0  0
   -3.3495   -7.7659    1.6029 H   0  0  0  0  0  0  0  0  0  0  0  0
    5.4459   -4.5750    1.3708 O   0  0  0  0  0  0  0  0  0  0  0  0
    5.2249   -4.0191    2.6571 C   0  0  0  0  0  0  0  0  0  0  0  0
    6.1456   -4.1848    3.2191 H   0  0  0  0  0  0  0  0  0  0  0  0
    5.0237   -2.9414    2.6039 H   0  0  0  0  0  0  0  0  0  0  0  0
    4.3930   -4.5136    3.1753 H   0  0  0  0  0  0  0  0  0  0  0  0
  1  7  1  0  0  0  0
  2  8  1  0  0  0  0
  2  1  2  0  0  0  0
  3  2  1  0  0  0  0
  4  3  2  0  0  0  0
  4  5  1  0  0  0  0
  5  6  2  0  0  0  0
  6  1  1  0  0  0  0
  6 31  1  0  0  0  0
  9  4  1  0  0  0  0
 10  5  1  0  0  0  0
 12 11  3  0  0  0  0
 13 14  2  0  0  0  0
 14 15  1  0  0  0  0
 14 20  1  0  0  0  0
 15 27  1  0  0  0  0
 16 15  2  0  0  0  0
 17 18  2  0  0  0  0
 17 16  1  0  0  0  0
 18 13  1  0  0  0  0
 19 13  1  0  0  0  0
 21 16  1  0  0  0  0
 22 17  1  0  0  0  0
 23 24  1  0  0  0  0
 23 18  1  0  0  0  0
 24  3  1  0  0  0  0
 25 23  2  0  0  0  0
 26 23  2  0  0  0  0
 27 30  1  0  0  0  0
 27 28  1  0  0  0  0
 29 27  1  0  0  0  0
 31 32  1  0  0  0  0
 32 35  1  0  0  0  0
 32 33  1  0  0  0  0
 34 32  1  0  0  0  0
M  END
