Coordinates from ORCA-job 4-MeO-Ph-N2-OTs-B3LYPG-6-31G_dp-MTMO-d009-169-n800
 OpenBabel09051908173D

 35 35  0  0  0  0  0  0  0  0999 V2000
    3.4559   -4.0446    0.6946 C   0  0  0  0  0  0  0  0  0  0  0  0
    2.5281   -3.9136   -0.3427 C   0  0  0  0  0  0  0  0  0  0  0  0
    2.7796   -4.4988   -1.5787 C   0  0  0  0  0  0  0  0  0  0  0  0
    3.9537   -5.2252   -1.8003 C   0  0  0  0  0  0  0  0  0  0  0  0
    4.8723   -5.3634   -0.7690 C   0  0  0  0  0  0  0  0  0  0  0  0
    4.6321   -4.7742    0.4832 C   0  0  0  0  0  0  0  0  0  0  0  0
    3.2509   -3.5760    1.6493 H   0  0  0  0  0  0  0  0  0  0  0  0
    1.6143   -3.3471   -0.1983 H   0  0  0  0  0  0  0  0  0  0  0  0
    4.1299   -5.6751   -2.7696 H   0  0  0  0  0  0  0  0  0  0  0  0
    5.7930   -5.9192   -0.9104 H   0  0  0  0  0  0  0  0  0  0  0  0
   -8.3751   -7.7901    1.0056 N   0  0  0  0  0  0  0  0  0  0  0  0
   -9.4040   -8.1850    0.9213 N   0  0  0  0  0  0  0  0  0  0  0  0
   -0.2030   -6.5263   -0.8147 C   0  0  0  0  0  0  0  0  0  0  0  0
   -1.1737   -6.5744    0.1852 C   0  0  0  0  0  0  0  0  0  0  0  0
   -2.2836   -5.7191    0.1617 C   0  0  0  0  0  0  0  0  0  0  0  0
   -2.4009   -4.8021   -0.8951 C   0  0  0  0  0  0  0  0  0  0  0  0
   -1.4436   -4.7374   -1.9030 C   0  0  0  0  0  0  0  0  0  0  0  0
   -0.3488   -5.6044   -1.8515 C   0  0  0  0  0  0  0  0  0  0  0  0
    0.6475   -7.1987   -0.8040 H   0  0  0  0  0  0  0  0  0  0  0  0
   -1.0680   -7.2921    0.9946 H   0  0  0  0  0  0  0  0  0  0  0  0
   -3.2578   -4.1342   -0.9308 H   0  0  0  0  0  0  0  0  0  0  0  0
   -1.5429   -4.0393   -2.7275 H   0  0  0  0  0  0  0  0  0  0  0  0
    0.8861   -5.5186   -3.1351 S   0  0  0  0  0  0  0  0  0  0  0  0
    1.8727   -4.2717   -2.6218 O   0  0  0  0  0  0  0  0  0  0  0  0
    0.2863   -4.9824   -4.3477 O   0  0  0  0  0  0  0  0  0  0  0  0
    1.6563   -6.7592   -3.1299 O   0  0  0  0  0  0  0  0  0  0  0  0
   -3.3480   -5.7994    1.2289 C   0  0  0  0  0  0  0  0  0  0  0  0
   -3.7233   -4.8069    1.4952 H   0  0  0  0  0  0  0  0  0  0  0  0
   -4.2062   -6.3872    0.8808 H   0  0  0  0  0  0  0  0  0  0  0  0
   -2.9707   -6.2765    2.1372 H   0  0  0  0  0  0  0  0  0  0  0  0
    5.6039   -4.9676    1.4209 O   0  0  0  0  0  0  0  0  0  0  0  0
    5.4248   -4.3901    2.7041 C   0  0  0  0  0  0  0  0  0  0  0  0
    6.3087   -4.6627    3.2832 H   0  0  0  0  0  0  0  0  0  0  0  0
    5.3519   -3.2962    2.6499 H   0  0  0  0  0  0  0  0  0  0  0  0
    4.5310   -4.7844    3.2051 H   0  0  0  0  0  0  0  0  0  0  0  0
  1  7  1  0  0  0  0
  2  8  1  0  0  0  0
  2  1  2  0  0  0  0
  3  2  1  0  0  0  0
  4  3  2  0  0  0  0
  4  5  1  0  0  0  0
  5  6  2  0  0  0  0
  6  1  1  0  0  0  0
  6 31  1  0  0  0  0
  9  4  1  0  0  0  0
 10  5  1  0  0  0  0
 12 11  3  0  0  0  0
 13 19  1  0  0  0  0
 13 14  2  0  0  0  0
 14 20  1  0  0  0  0
 15 14  1  0  0  0  0
 15 27  1  0  0  0  0
 16 15  2  0  0  0  0
 17 18  2  0  0  0  0
 17 16  1  0  0  0  0
 18 13  1  0  0  0  0
 21 16  1  0  0  0  0
 22 17  1  0  0  0  0
 23 26  2  0  0  0  0
 23 24  1  0  0  0  0
 23 18  1  0  0  0  0
 24  3  1  0  0  0  0
 25 23  2  0  0  0  0
 27 28  1  0  0  0  0
 27 30  1  0  0  0  0
 29 27  1  0  0  0  0
 31 32  1  0  0  0  0
 32 35  1  0  0  0  0
 32 33  1  0  0  0  0
 34 32  1  0  0  0  0
M  END
