Coordinates from ORCA-job 4-MeO-Ph-N2-OTs-B3LYPG-6-31G_dp-MTMO-d009-169-n800
 OpenBabel09051908173D

 35 36  0  0  1  0  0  0  0  0999 V2000
    3.7402   -3.0702   -0.7608 C   0  0  0  0  0  0  0  0  0  0  0  0
    3.0073   -1.9907   -0.4356 C   0  0  0  0  0  0  0  0  0  0  0  0
    1.8081   -2.0710    0.4502 C   0  0  2  0  0  0  0  0  0  0  0  0
    1.2491   -3.5299    0.6489 C   0  0  2  0  0  0  0  0  0  0  0  0
    2.2614   -4.5930    0.4584 C   0  0  0  0  0  0  0  0  0  0  0  0
    3.3982   -4.3916   -0.2453 C   0  0  0  0  0  0  0  0  0  0  0  0
    4.6016   -2.9475   -1.4062 H   0  0  0  0  0  0  0  0  0  0  0  0
    3.2579   -0.9948   -0.7895 H   0  0  0  0  0  0  0  0  0  0  0  0
    0.7740   -3.5629    1.6319 H   0  0  0  0  0  0  0  0  0  0  0  0
    2.0393   -5.5810    0.8469 H   0  0  0  0  0  0  0  0  0  0  0  0
    1.3657   -1.3328    0.8284 N   0  0  0  0  0  0  0  0  0  0  0  0
    0.8098   -0.4093    1.3031 N   0  0  0  0  0  0  0  0  0  0  0  0
   -1.6058   -6.4617    1.0524 C   0  0  0  0  0  0  0  0  0  0  0  0
   -1.7793   -7.8352    0.8815 C   0  0  0  0  0  0  0  0  0  0  0  0
   -1.9708   -8.3894   -0.3906 C   0  0  0  0  0  0  0  0  0  0  0  0
   -1.9872   -7.5290   -1.5005 C   0  0  0  0  0  0  0  0  0  0  0  0
   -1.8188   -6.1563   -1.3514 C   0  0  0  0  0  0  0  0  0  0  0  0
   -1.6239   -5.6342   -0.0700 C   0  0  0  0  0  0  0  0  0  0  0  0
   -1.4732   -6.0315    2.0390 H   0  0  0  0  0  0  0  0  0  0  0  0
   -1.7703   -8.4850    1.7524 H   0  0  0  0  0  0  0  0  0  0  0  0
   -2.1391   -7.9416   -2.4945 H   0  0  0  0  0  0  0  0  0  0  0  0
   -1.8475   -5.4937   -2.2095 H   0  0  0  0  0  0  0  0  0  0  0  0
   -1.3934   -3.8749    0.1295 S   0  0  0  0  0  0  0  0  0  0  0  0
   -1.4866   -3.5498    1.5543 O   0  0  0  0  0  0  0  0  0  0  0  0
   -2.1901   -3.1804   -0.8720 O   0  0  0  0  0  0  0  0  0  0  0  0
    0.1702   -3.6720   -0.3562 O   0  0  0  0  0  0  0  0  0  0  0  0
   -2.1835   -9.8732   -0.5681 C   0  0  0  0  0  0  0  0  0  0  0  0
   -1.6225  -10.2568   -1.4260 H   0  0  0  0  0  0  0  0  0  0  0  0
   -1.8731  -10.4320    0.3188 H   0  0  0  0  0  0  0  0  0  0  0  0
   -3.2418  -10.0980   -0.7473 H   0  0  0  0  0  0  0  0  0  0  0  0
    4.2146   -5.4650   -0.4450 O   0  0  0  0  0  0  0  0  0  0  0  0
    5.5242   -5.2696   -0.9646 C   0  0  0  0  0  0  0  0  0  0  0  0
    6.0068   -6.2473   -0.9208 H   0  0  0  0  0  0  0  0  0  0  0  0
    5.5058   -4.9337   -2.0086 H   0  0  0  0  0  0  0  0  0  0  0  0
    6.1026   -4.5584   -0.3627 H   0  0  0  0  0  0  0  0  0  0  0  0
  1  2  2  0  0  0  0
  1  6  1  0  0  0  0
  2  3  1  0  0  0  0
  3  4  1  0  0  0  0
  3 11  1  6  0  0  0
  4  9  1  1  0  0  0
  5  4  1  0  0  0  0
  5 10  1  0  0  0  0
  6  5  2  0  0  0  0
  7  1  1  0  0  0  0
  8  2  1  0  0  0  0
 11 12  1  0  0  0  0
 13 19  1  0  0  0  0
 14 13  1  0  0  0  0
 14 20  1  0  0  0  0
 15 14  2  0  0  0  0
 16 17  2  0  0  0  0
 16 15  1  0  0  0  0
 17 18  1  0  0  0  0
 18 23  1  0  0  0  0
 18 13  2  0  0  0  0
 21 16  1  0  0  0  0
 22 17  1  0  0  0  0
 23 24  2  0  0  0  0
 25 23  2  0  0  0  0
 26 23  1  0  0  0  0
 26  4  1  0  0  0  0
 27 15  1  0  0  0  0
 27 29  1  0  0  0  0
 28 27  1  0  0  0  0
 30 27  1  0  0  0  0
 31  6  1  0  0  0  0
 32 33  1  0  0  0  0
 32 31  1  0  0  0  0
 32 35  1  0  0  0  0
 34 32  1  0  0  0  0
M  RAD  3   3   2  11   2  12   3
M  END
