Coordinates from ORCA-job 4-MeO-Ph-N2-OTs-B3LYPG-6-31G_dp-MTMO-d009-169-n800
 OpenBabel09051908173D

 35 34  0  0  0  0  0  0  0  0999 V2000
    3.9157   -2.8995    0.3959 C   0  0  0  0  0  0  0  0  0  0  0  0
    2.6589   -2.4948   -0.1099 C   0  0  0  0  0  0  0  0  0  0  0  0
    2.1365   -3.5473   -0.8069 C   0  0  0  0  0  0  0  0  0  0  0  0
    2.5047   -4.7179   -1.0886 C   0  0  0  0  0  0  0  0  0  0  0  0
    3.7395   -5.1594   -0.6113 C   0  0  0  0  0  0  0  0  0  0  0  0
    4.4426   -4.1928    0.1538 C   0  0  0  0  0  0  0  0  0  0  0  0
    4.4781   -2.1824    0.9825 H   0  0  0  0  0  0  0  0  0  0  0  0
    2.2282   -1.5162    0.0524 H   0  0  0  0  0  0  0  0  0  0  0  0
    1.1437   -5.5249   -2.2930 H   0  0  0  0  0  0  0  0  0  0  0  0
    4.1778   -6.1372   -0.7791 H   0  0  0  0  0  0  0  0  0  0  0  0
   -0.1265   -0.9521   -1.4523 N   0  0  0  0  0  0  0  0  0  0  0  0
   -0.9582   -0.6764   -2.1251 N   0  0  0  0  0  0  0  0  0  0  0  0
   -1.5833   -5.8393    0.0277 C   0  0  0  0  0  0  0  0  0  0  0  0
   -2.1094   -6.6237    1.0543 C   0  0  0  0  0  0  0  0  0  0  0  0
   -2.7193   -7.8557    0.7863 C   0  0  0  0  0  0  0  0  0  0  0  0
   -2.8007   -8.2856   -0.5483 C   0  0  0  0  0  0  0  0  0  0  0  0
   -2.2841   -7.5162   -1.5859 C   0  0  0  0  0  0  0  0  0  0  0  0
   -1.6724   -6.2959   -1.2863 C   0  0  0  0  0  0  0  0  0  0  0  0
   -1.1224   -4.8806    0.2363 H   0  0  0  0  0  0  0  0  0  0  0  0
   -2.0484   -6.2696    2.0800 H   0  0  0  0  0  0  0  0  0  0  0  0
   -3.2794   -9.2340   -0.7768 H   0  0  0  0  0  0  0  0  0  0  0  0
   -2.3630   -7.8422   -2.6173 H   0  0  0  0  0  0  0  0  0  0  0  0
   -0.9890   -5.3142   -2.6136 S   0  0  0  0  0  0  0  0  0  0  0  0
   -0.7885   -3.9473   -2.1225 O   0  0  0  0  0  0  0  0  0  0  0  0
   -1.7491   -5.5830   -3.8257 O   0  0  0  0  0  0  0  0  0  0  0  0
    0.4692   -5.9885   -2.8531 O   0  0  0  0  0  0  0  0  0  0  0  0
   -3.2744   -8.7100    1.9005 C   0  0  0  0  0  0  0  0  0  0  0  0
   -4.3068   -9.0111    1.6944 H   0  0  0  0  0  0  0  0  0  0  0  0
   -2.6894   -9.6291    2.0198 H   0  0  0  0  0  0  0  0  0  0  0  0
   -3.2612   -8.1798    2.8564 H   0  0  0  0  0  0  0  0  0  0  0  0
    5.6501   -4.6134    0.6260 O   0  0  0  0  0  0  0  0  0  0  0  0
    6.4370   -3.7187    1.3976 C   0  0  0  0  0  0  0  0  0  0  0  0
    7.3415   -4.2668    1.6642 H   0  0  0  0  0  0  0  0  0  0  0  0
    6.7137   -2.8254    0.8232 H   0  0  0  0  0  0  0  0  0  0  0  0
    5.9182   -3.4121    2.3149 H   0  0  0  0  0  0  0  0  0  0  0  0
  1  7  1  0  0  0  0
  2  8  1  0  0  0  0
  2  1  2  0  0  0  0
  3  2  1  0  0  0  0
  4  3  2  0  0  0  0
  4  5  1  0  0  0  0
  5  6  2  0  0  0  0
  6  1  1  0  0  0  0
  6 31  1  0  0  0  0
 10  5  1  0  0  0  0
 12 11  3  0  0  0  0
 13 19  1  0  0  0  0
 13 14  2  0  0  0  0
 14 20  1  0  0  0  0
 15 14  1  0  0  0  0
 15 27  1  0  0  0  0
 16 15  2  0  0  0  0
 17 18  2  0  0  0  0
 17 16  1  0  0  0  0
 18 13  1  0  0  0  0
 21 16  1  0  0  0  0
 22 17  1  0  0  0  0
 23 24  2  0  0  0  0
 23 18  1  0  0  0  0
 25 23  2  0  0  0  0
 26 23  1  0  0  0  0
 26  9  1  0  0  0  0
 27 29  1  0  0  0  0
 27 30  1  0  0  0  0
 28 27  1  0  0  0  0
 31 32  1  0  0  0  0
 32 33  1  0  0  0  0
 32 35  1  0  0  0  0
 34 32  1  0  0  0  0
M  RAD  2   3   2   4   2
M  END
