Coordinates from ORCA-job 4-MeO-Ph-N2-OTs-B3LYPG-6-31G_dp-MTMO-d009-169-n800
 OpenBabel09051908173D

 35 35  0  0  0  0  0  0  0  0999 V2000
    3.5709   -4.0114    0.6376 C   0  0  0  0  0  0  0  0  0  0  0  0
    2.6152   -3.9008   -0.3765 C   0  0  0  0  0  0  0  0  0  0  0  0
    2.8292   -4.5179   -1.6040 C   0  0  0  0  0  0  0  0  0  0  0  0
    3.9929   -5.2563   -1.8399 C   0  0  0  0  0  0  0  0  0  0  0  0
    4.9393   -5.3741   -0.8315 C   0  0  0  0  0  0  0  0  0  0  0  0
    4.7371   -4.7527    0.4118 C   0  0  0  0  0  0  0  0  0  0  0  0
    3.3951   -3.5185    1.5859 H   0  0  0  0  0  0  0  0  0  0  0  0
    1.7085   -3.3258   -0.2210 H   0  0  0  0  0  0  0  0  0  0  0  0
    4.1395   -5.7312   -2.8023 H   0  0  0  0  0  0  0  0  0  0  0  0
    5.8528   -5.9388   -0.9844 H   0  0  0  0  0  0  0  0  0  0  0  0
   -9.7824   -8.3016    0.5099 N   0  0  0  0  0  0  0  0  0  0  0  0
  -10.7302   -8.8205    0.2775 N   0  0  0  0  0  0  0  0  0  0  0  0
   -0.1513   -6.4975   -0.7032 C   0  0  0  0  0  0  0  0  0  0  0  0
   -1.0934   -6.5051    0.3251 C   0  0  0  0  0  0  0  0  0  0  0  0
   -2.1909   -5.6342    0.3108 C   0  0  0  0  0  0  0  0  0  0  0  0
   -2.3265   -4.7439   -0.7668 C   0  0  0  0  0  0  0  0  0  0  0  0
   -1.3983   -4.7200   -1.8029 C   0  0  0  0  0  0  0  0  0  0  0  0
   -0.3142   -5.6012   -1.7594 C   0  0  0  0  0  0  0  0  0  0  0  0
    0.6900   -7.1815   -0.6986 H   0  0  0  0  0  0  0  0  0  0  0  0
   -0.9745   -7.2027    1.1501 H   0  0  0  0  0  0  0  0  0  0  0  0
   -3.1750   -4.0650   -0.7960 H   0  0  0  0  0  0  0  0  0  0  0  0
   -1.5119   -4.0428   -2.6428 H   0  0  0  0  0  0  0  0  0  0  0  0
    0.8858   -5.5645   -3.0781 S   0  0  0  0  0  0  0  0  0  0  0  0
    1.8948   -4.3119   -2.6269 O   0  0  0  0  0  0  0  0  0  0  0  0
    0.2577   -5.0582   -4.2893 O   0  0  0  0  0  0  0  0  0  0  0  0
    1.6458   -6.8112   -3.0573 O   0  0  0  0  0  0  0  0  0  0  0  0
   -3.2235   -5.6664    1.4113 C   0  0  0  0  0  0  0  0  0  0  0  0
   -3.5272   -4.6567    1.7039 H   0  0  0  0  0  0  0  0  0  0  0  0
   -4.1280   -6.1925    1.0826 H   0  0  0  0  0  0  0  0  0  0  0  0
   -2.8479   -6.1805    2.2997 H   0  0  0  0  0  0  0  0  0  0  0  0
    5.7338   -4.9282    1.3266 O   0  0  0  0  0  0  0  0  0  0  0  0
    5.5924   -4.3201    2.6004 C   0  0  0  0  0  0  0  0  0  0  0  0
    6.4910   -4.5830    3.1611 H   0  0  0  0  0  0  0  0  0  0  0  0
    5.5221   -3.2274    2.5227 H   0  0  0  0  0  0  0  0  0  0  0  0
    4.7113   -4.6987    3.1349 H   0  0  0  0  0  0  0  0  0  0  0  0
  1  7  1  0  0  0  0
  2  8  1  0  0  0  0
  2  1  2  0  0  0  0
  3  2  1  0  0  0  0
  4  3  2  0  0  0  0
  4  5  1  0  0  0  0
  5  6  2  0  0  0  0
  6  1  1  0  0  0  0
  6 31  1  0  0  0  0
  9  4  1  0  0  0  0
 10  5  1  0  0  0  0
 12 11  3  0  0  0  0
 13 19  1  0  0  0  0
 13 14  2  0  0  0  0
 14 20  1  0  0  0  0
 15 14  1  0  0  0  0
 15 27  1  0  0  0  0
 16 15  2  0  0  0  0
 17 18  2  0  0  0  0
 17 16  1  0  0  0  0
 18 13  1  0  0  0  0
 21 16  1  0  0  0  0
 22 17  1  0  0  0  0
 23 26  2  0  0  0  0
 23 24  1  0  0  0  0
 23 18  1  0  0  0  0
 24  3  1  0  0  0  0
 25 23  2  0  0  0  0
 27 28  1  0  0  0  0
 27 30  1  0  0  0  0
 29 27  1  0  0  0  0
 31 32  1  0  0  0  0
 32 35  1  0  0  0  0
 32 33  1  0  0  0  0
 34 32  1  0  0  0  0
M  END
