Coordinates from ORCA-job 4-MeO-Ph-N2-OTs-B3LYPG-6-31G_dp-MTMO-d009-169-n800
 OpenBabel09051908173D

 35 35  0  0  0  0  0  0  0  0999 V2000
    3.1078   -3.9994    0.8327 C   0  0  0  0  0  0  0  0  0  0  0  0
    1.9534   -3.8590    0.0575 C   0  0  0  0  0  0  0  0  0  0  0  0
    1.9930   -4.1319   -1.3054 C   0  0  0  0  0  0  0  0  0  0  0  0
    3.1790   -4.5510   -1.9167 C   0  0  0  0  0  0  0  0  0  0  0  0
    4.3238   -4.7016   -1.1461 C   0  0  0  0  0  0  0  0  0  0  0  0
    4.2982   -4.4258    0.2309 C   0  0  0  0  0  0  0  0  0  0  0  0
    3.0647   -3.7719    1.8909 H   0  0  0  0  0  0  0  0  0  0  0  0
    1.0241   -3.5238    0.5055 H   0  0  0  0  0  0  0  0  0  0  0  0
    3.1894   -4.7605   -2.9794 H   0  0  0  0  0  0  0  0  0  0  0  0
    5.2583   -5.0266   -1.5908 H   0  0  0  0  0  0  0  0  0  0  0  0
   -4.4873   -3.9411   -3.7468 N   0  0  0  0  0  0  0  0  0  0  0  0
   -4.4750   -3.8068   -4.8436 N   0  0  0  0  0  0  0  0  0  0  0  0
   -0.2505   -6.8792   -0.5454 C   0  0  0  0  0  0  0  0  0  0  0  0
   -0.9134   -7.3907    0.5688 C   0  0  0  0  0  0  0  0  0  0  0  0
   -2.1614   -6.8895    0.9651 C   0  0  0  0  0  0  0  0  0  0  0  0
   -2.7418   -5.8600    0.2077 C   0  0  0  0  0  0  0  0  0  0  0  0
   -2.0965   -5.3330   -0.9077 C   0  0  0  0  0  0  0  0  0  0  0  0
   -0.8503   -5.8494   -1.2724 C   0  0  0  0  0  0  0  0  0  0  0  0
    0.7045   -7.2808   -0.8626 H   0  0  0  0  0  0  0  0  0  0  0  0
   -0.4573   -8.1986    1.1344 H   0  0  0  0  0  0  0  0  0  0  0  0
   -3.7169   -5.4730    0.4897 H   0  0  0  0  0  0  0  0  0  0  0  0
   -2.5574   -4.5529   -1.5039 H   0  0  0  0  0  0  0  0  0  0  0  0
   -0.0158   -5.1787   -2.6974 S   0  0  0  0  0  0  0  0  0  0  0  0
    0.8391   -3.8909   -2.0634 O   0  0  0  0  0  0  0  0  0  0  0  0
   -0.9862   -4.5303   -3.5672 O   0  0  0  0  0  0  0  0  0  0  0  0
    0.9338   -6.1703   -3.1954 O   0  0  0  0  0  0  0  0  0  0  0  0
   -2.8606   -7.4332    2.1874 C   0  0  0  0  0  0  0  0  0  0  0  0
   -2.6488   -6.8126    3.0670 H   0  0  0  0  0  0  0  0  0  0  0  0
   -3.9468   -7.4469    2.0541 H   0  0  0  0  0  0  0  0  0  0  0  0
   -2.5312   -8.4497    2.4174 H   0  0  0  0  0  0  0  0  0  0  0  0
    5.4803   -4.5998    0.8891 O   0  0  0  0  0  0  0  0  0  0  0  0
    5.5205   -4.3300    2.2810 C   0  0  0  0  0  0  0  0  0  0  0  0
    6.5456   -4.5290    2.5971 H   0  0  0  0  0  0  0  0  0  0  0  0
    5.2731   -3.2828    2.4983 H   0  0  0  0  0  0  0  0  0  0  0  0
    4.8383   -4.9826    2.8405 H   0  0  0  0  0  0  0  0  0  0  0  0
  1  7  1  0  0  0  0
  2  8  1  0  0  0  0
  2  1  2  0  0  0  0
  3  2  1  0  0  0  0
  4  3  2  0  0  0  0
  4  5  1  0  0  0  0
  5  6  2  0  0  0  0
  6  1  1  0  0  0  0
  6 31  1  0  0  0  0
  9  4  1  0  0  0  0
 10  5  1  0  0  0  0
 12 11  3  0  0  0  0
 13 14  2  0  0  0  0
 14 15  1  0  0  0  0
 14 20  1  0  0  0  0
 15 27  1  0  0  0  0
 16 21  1  0  0  0  0
 16 15  2  0  0  0  0
 17 16  1  0  0  0  0
 18 17  2  0  0  0  0
 18 13  1  0  0  0  0
 19 13  1  0  0  0  0
 22 17  1  0  0  0  0
 23 24  1  0  0  0  0
 23 18  1  0  0  0  0
 24  3  1  0  0  0  0
 25 23  2  0  0  0  0
 26 23  2  0  0  0  0
 27 30  1  0  0  0  0
 27 28  1  0  0  0  0
 29 27  1  0  0  0  0
 31 32  1  0  0  0  0
 32 34  1  0  0  0  0
 32 33  1  0  0  0  0
 32 35  1  0  0  0  0
M  END
