Coordinates from ORCA-job 4-MeO-Ph-N2-OTs-B3LYPG-6-31G_dp-MTMO-d009-169-n800
 OpenBabel09051908173D

 35 34  0  0  0  0  0  0  0  0999 V2000
    3.9424   -2.8001    0.4649 C   0  0  0  0  0  0  0  0  0  0  0  0
    2.7934   -2.1574   -0.0498 C   0  0  0  0  0  0  0  0  0  0  0  0
    2.1199   -3.0622   -0.8187 C   0  0  0  0  0  0  0  0  0  0  0  0
    2.2766   -4.2669   -1.1528 C   0  0  0  0  0  0  0  0  0  0  0  0
    3.4021   -4.9383   -0.6673 C   0  0  0  0  0  0  0  0  0  0  0  0
    4.2403   -4.1525    0.1650 C   0  0  0  0  0  0  0  0  0  0  0  0
    4.6022   -2.2238    1.1031 H   0  0  0  0  0  0  0  0  0  0  0  0
    2.5365   -1.1269    0.1561 H   0  0  0  0  0  0  0  0  0  0  0  0
    0.9518   -5.1271   -2.2990 H   0  0  0  0  0  0  0  0  0  0  0  0
    3.6641   -5.9700   -0.8750 H   0  0  0  0  0  0  0  0  0  0  0  0
    0.2569   -1.0887   -1.9029 N   0  0  0  0  0  0  0  0  0  0  0  0
   -0.3465   -0.7998   -2.7822 N   0  0  0  0  0  0  0  0  0  0  0  0
   -1.6649   -5.8089    0.0392 C   0  0  0  0  0  0  0  0  0  0  0  0
   -2.0811   -6.6368    1.0800 C   0  0  0  0  0  0  0  0  0  0  0  0
   -2.5598   -7.9309    0.8312 C   0  0  0  0  0  0  0  0  0  0  0  0
   -2.6228   -8.3761   -0.4976 C   0  0  0  0  0  0  0  0  0  0  0  0
   -2.2126   -7.5628   -1.5512 C   0  0  0  0  0  0  0  0  0  0  0  0
   -1.7308   -6.2829   -1.2716 C   0  0  0  0  0  0  0  0  0  0  0  0
   -1.3103   -4.8027    0.2318 H   0  0  0  0  0  0  0  0  0  0  0  0
   -2.0402   -6.2686    2.1019 H   0  0  0  0  0  0  0  0  0  0  0  0
   -3.0055   -9.3704   -0.7106 H   0  0  0  0  0  0  0  0  0  0  0  0
   -2.2798   -7.9019   -2.5793 H   0  0  0  0  0  0  0  0  0  0  0  0
   -1.1917   -5.2370   -2.6168 S   0  0  0  0  0  0  0  0  0  0  0  0
   -1.1877   -3.8493   -2.1479 O   0  0  0  0  0  0  0  0  0  0  0  0
   -1.9030   -5.6343   -3.8237 O   0  0  0  0  0  0  0  0  0  0  0  0
    0.3495   -5.6980   -2.8449 O   0  0  0  0  0  0  0  0  0  0  0  0
   -2.9809   -8.8303    1.9684 C   0  0  0  0  0  0  0  0  0  0  0  0
   -3.7538   -9.5381    1.6550 H   0  0  0  0  0  0  0  0  0  0  0  0
   -2.1311   -9.4181    2.3375 H   0  0  0  0  0  0  0  0  0  0  0  0
   -3.3683   -8.2536    2.8131 H   0  0  0  0  0  0  0  0  0  0  0  0
    5.3375   -4.8048    0.6418 O   0  0  0  0  0  0  0  0  0  0  0  0
    6.2451   -4.1041    1.4786 C   0  0  0  0  0  0  0  0  0  0  0  0
    7.0322   -4.8158    1.7314 H   0  0  0  0  0  0  0  0  0  0  0  0
    6.6891   -3.2439    0.9614 H   0  0  0  0  0  0  0  0  0  0  0  0
    5.7608   -3.7601    2.4015 H   0  0  0  0  0  0  0  0  0  0  0  0
  1  7  1  0  0  0  0
  2  8  1  0  0  0  0
  2  1  2  0  0  0  0
  3  2  1  0  0  0  0
  4  3  2  0  0  0  0
  4  5  1  0  0  0  0
  5  6  2  0  0  0  0
  6  1  1  0  0  0  0
  6 31  1  0  0  0  0
 10  5  1  0  0  0  0
 12 11  3  0  0  0  0
 13 19  1  0  0  0  0
 13 14  2  0  0  0  0
 14 20  1  0  0  0  0
 15 14  1  0  0  0  0
 15 27  1  0  0  0  0
 16 15  2  0  0  0  0
 17 18  2  0  0  0  0
 17 16  1  0  0  0  0
 18 13  1  0  0  0  0
 21 16  1  0  0  0  0
 22 17  1  0  0  0  0
 23 24  2  0  0  0  0
 23 18  1  0  0  0  0
 25 23  2  0  0  0  0
 26 23  1  0  0  0  0
 26  9  1  0  0  0  0
 27 29  1  0  0  0  0
 27 30  1  0  0  0  0
 28 27  1  0  0  0  0
 31 32  1  0  0  0  0
 32 33  1  0  0  0  0
 32 35  1  0  0  0  0
 34 32  1  0  0  0  0
M  RAD  2   3   2   4   2
M  END
