Coordinates from ORCA-job 4-MeO-Ph-N2-OTs-B3LYPG-6-31G_dp-MTMO-d009-169-n800
 OpenBabel09051908173D

 35 35  0  0  0  0  0  0  0  0999 V2000
    2.8229   -3.8739    0.6222 C   0  0  0  0  0  0  0  0  0  0  0  0
    1.6807   -3.9120   -0.1826 C   0  0  0  0  0  0  0  0  0  0  0  0
    1.7758   -4.3273   -1.5062 C   0  0  0  0  0  0  0  0  0  0  0  0
    3.0054   -4.7150   -2.0478 C   0  0  0  0  0  0  0  0  0  0  0  0
    4.1390   -4.6879   -1.2471 C   0  0  0  0  0  0  0  0  0  0  0  0
    4.0576   -4.2663    0.0902 C   0  0  0  0  0  0  0  0  0  0  0  0
    2.7356   -3.5380    1.6479 H   0  0  0  0  0  0  0  0  0  0  0  0
    0.7172   -3.6069    0.2111 H   0  0  0  0  0  0  0  0  0  0  0  0
    3.0579   -5.0377   -3.0803 H   0  0  0  0  0  0  0  0  0  0  0  0
    5.1066   -4.9840   -1.6378 H   0  0  0  0  0  0  0  0  0  0  0  0
   -2.5319   -2.4390   -2.8979 N   0  0  0  0  0  0  0  0  0  0  0  0
   -2.1514   -1.8471   -3.7496 N   0  0  0  0  0  0  0  0  0  0  0  0
   -0.3157   -7.2646   -0.5447 C   0  0  0  0  0  0  0  0  0  0  0  0
   -0.9459   -7.6954    0.6227 C   0  0  0  0  0  0  0  0  0  0  0  0
   -2.1483   -7.1199    1.0527 C   0  0  0  0  0  0  0  0  0  0  0  0
   -2.7171   -6.0952    0.2778 C   0  0  0  0  0  0  0  0  0  0  0  0
   -2.1070   -5.6516   -0.8908 C   0  0  0  0  0  0  0  0  0  0  0  0
   -0.9048   -6.2443   -1.2905 C   0  0  0  0  0  0  0  0  0  0  0  0
    0.6079   -7.7176   -0.8853 H   0  0  0  0  0  0  0  0  0  0  0  0
   -0.4976   -8.4957    1.2049 H   0  0  0  0  0  0  0  0  0  0  0  0
   -3.6554   -5.6461    0.5915 H   0  0  0  0  0  0  0  0  0  0  0  0
   -2.5551   -4.8684   -1.4930 H   0  0  0  0  0  0  0  0  0  0  0  0
   -0.1145   -5.6823   -2.7869 S   0  0  0  0  0  0  0  0  0  0  0  0
    0.6277   -4.2652   -2.3068 O   0  0  0  0  0  0  0  0  0  0  0  0
   -1.1230   -5.2148   -3.7268 O   0  0  0  0  0  0  0  0  0  0  0  0
    0.9121   -6.6483   -3.1677 O   0  0  0  0  0  0  0  0  0  0  0  0
   -2.8206   -7.5789    2.3238 C   0  0  0  0  0  0  0  0  0  0  0  0
   -2.7430   -6.8148    3.1073 H   0  0  0  0  0  0  0  0  0  0  0  0
   -3.8871   -7.7678    2.1634 H   0  0  0  0  0  0  0  0  0  0  0  0
   -2.3676   -8.4957    2.7081 H   0  0  0  0  0  0  0  0  0  0  0  0
    5.2335   -4.2716    0.7816 O   0  0  0  0  0  0  0  0  0  0  0  0
    5.2201   -3.8479    2.1354 C   0  0  0  0  0  0  0  0  0  0  0  0
    6.2499   -3.9286    2.4867 H   0  0  0  0  0  0  0  0  0  0  0  0
    4.8880   -2.8060    2.2311 H   0  0  0  0  0  0  0  0  0  0  0  0
    4.5778   -4.4875    2.7543 H   0  0  0  0  0  0  0  0  0  0  0  0
  1  7  1  0  0  0  0
  2  8  1  0  0  0  0
  2  1  2  0  0  0  0
  3  2  1  0  0  0  0
  4  3  2  0  0  0  0
  4  5  1  0  0  0  0
  5  6  2  0  0  0  0
  6  1  1  0  0  0  0
  6 31  1  0  0  0  0
  9  4  1  0  0  0  0
 10  5  1  0  0  0  0
 12 11  3  0  0  0  0
 13 14  2  0  0  0  0
 14 15  1  0  0  0  0
 14 20  1  0  0  0  0
 15 27  1  0  0  0  0
 16 21  1  0  0  0  0
 16 15  2  0  0  0  0
 17 16  1  0  0  0  0
 18 17  2  0  0  0  0
 18 13  1  0  0  0  0
 19 13  1  0  0  0  0
 22 17  1  0  0  0  0
 23 24  1  0  0  0  0
 23 18  1  0  0  0  0
 24  3  1  0  0  0  0
 25 23  2  0  0  0  0
 26 23  2  0  0  0  0
 27 30  1  0  0  0  0
 27 28  1  0  0  0  0
 29 27  1  0  0  0  0
 31 32  1  0  0  0  0
 32 34  1  0  0  0  0
 32 33  1  0  0  0  0
 32 35  1  0  0  0  0
M  END
