Coordinates from ORCA-job 4-MeO-Ph-N2-OTs-B3LYPG-6-31G_dp-MTMO-d009-169-n800
 OpenBabel09051908173D

 35 35  0  0  0  0  0  0  0  0999 V2000
    3.6023   -3.9969    0.6297 C   0  0  0  0  0  0  0  0  0  0  0  0
    2.6421   -3.8913   -0.3807 C   0  0  0  0  0  0  0  0  0  0  0  0
    2.8532   -4.5098   -1.6080 C   0  0  0  0  0  0  0  0  0  0  0  0
    4.0183   -5.2448   -1.8473 C   0  0  0  0  0  0  0  0  0  0  0  0
    4.9692   -5.3577   -0.8425 C   0  0  0  0  0  0  0  0  0  0  0  0
    4.7700   -4.7348    0.4005 C   0  0  0  0  0  0  0  0  0  0  0  0
    3.4287   -3.5029    1.5779 H   0  0  0  0  0  0  0  0  0  0  0  0
    1.7342   -3.3189   -0.2226 H   0  0  0  0  0  0  0  0  0  0  0  0
    4.1626   -5.7210   -2.8095 H   0  0  0  0  0  0  0  0  0  0  0  0
    5.8839   -5.9197   -0.9981 H   0  0  0  0  0  0  0  0  0  0  0  0
  -10.3028   -8.4103    0.4554 N   0  0  0  0  0  0  0  0  0  0  0  0
  -11.2505   -8.9290    0.2223 N   0  0  0  0  0  0  0  0  0  0  0  0
   -0.1175   -6.4965   -0.6908 C   0  0  0  0  0  0  0  0  0  0  0  0
   -1.0555   -6.5046    0.3413 C   0  0  0  0  0  0  0  0  0  0  0  0
   -2.1555   -5.6370    0.3295 C   0  0  0  0  0  0  0  0  0  0  0  0
   -2.2982   -4.7496   -0.7496 C   0  0  0  0  0  0  0  0  0  0  0  0
   -1.3743   -4.7252   -1.7894 C   0  0  0  0  0  0  0  0  0  0  0  0
   -0.2873   -5.6031   -1.7483 C   0  0  0  0  0  0  0  0  0  0  0  0
    0.7258   -7.1781   -0.6882 H   0  0  0  0  0  0  0  0  0  0  0  0
   -0.9313   -7.2002    1.1672 H   0  0  0  0  0  0  0  0  0  0  0  0
   -3.1488   -4.0733   -0.7769 H   0  0  0  0  0  0  0  0  0  0  0  0
   -1.4933   -4.0503   -2.6304 H   0  0  0  0  0  0  0  0  0  0  0  0
    0.9072   -5.5656   -3.0719 S   0  0  0  0  0  0  0  0  0  0  0  0
    1.9139   -4.3089   -2.6274 O   0  0  0  0  0  0  0  0  0  0  0  0
    0.2727   -5.0640   -4.2817 O   0  0  0  0  0  0  0  0  0  0  0  0
    1.6713   -6.8098   -3.0513 O   0  0  0  0  0  0  0  0  0  0  0  0
   -3.1834   -5.6690    1.4345 C   0  0  0  0  0  0  0  0  0  0  0  0
   -3.4757   -4.6589    1.7372 H   0  0  0  0  0  0  0  0  0  0  0  0
   -4.0946   -6.1829    1.1053 H   0  0  0  0  0  0  0  0  0  0  0  0
   -2.8087   -6.1943    2.3167 H   0  0  0  0  0  0  0  0  0  0  0  0
    5.7710   -4.9053    1.3115 O   0  0  0  0  0  0  0  0  0  0  0  0
    5.6327   -4.2956    2.5848 C   0  0  0  0  0  0  0  0  0  0  0  0
    6.5344   -4.5547    3.1424 H   0  0  0  0  0  0  0  0  0  0  0  0
    5.5586   -3.2032    2.5057 H   0  0  0  0  0  0  0  0  0  0  0  0
    4.7549   -4.6760    3.1235 H   0  0  0  0  0  0  0  0  0  0  0  0
  1  7  1  0  0  0  0
  2  8  1  0  0  0  0
  2  1  2  0  0  0  0
  3  2  1  0  0  0  0
  4  3  2  0  0  0  0
  4  5  1  0  0  0  0
  5  6  2  0  0  0  0
  6  1  1  0  0  0  0
  6 31  1  0  0  0  0
  9  4  1  0  0  0  0
 10  5  1  0  0  0  0
 12 11  3  0  0  0  0
 13 19  1  0  0  0  0
 13 14  2  0  0  0  0
 14 20  1  0  0  0  0
 15 14  1  0  0  0  0
 15 27  1  0  0  0  0
 16 15  2  0  0  0  0
 17 18  2  0  0  0  0
 17 16  1  0  0  0  0
 18 13  1  0  0  0  0
 21 16  1  0  0  0  0
 22 17  1  0  0  0  0
 23 26  2  0  0  0  0
 23 24  1  0  0  0  0
 23 18  1  0  0  0  0
 24  3  1  0  0  0  0
 25 23  2  0  0  0  0
 27 28  1  0  0  0  0
 27 30  1  0  0  0  0
 29 27  1  0  0  0  0
 31 32  1  0  0  0  0
 32 35  1  0  0  0  0
 32 33  1  0  0  0  0
 34 32  1  0  0  0  0
M  END
