Coordinates from ORCA-job 4-MeO-Ph-N2-OTs-B3LYPG-6-31G_dp-MTMO-d009-169-n800
 OpenBabel09051908173D

 35 35  0  0  0  0  0  0  0  0999 V2000
    2.8077   -3.8693    0.6111 C   0  0  0  0  0  0  0  0  0  0  0  0
    1.6638   -3.9181   -0.1907 C   0  0  0  0  0  0  0  0  0  0  0  0
    1.7593   -4.3325   -1.5145 C   0  0  0  0  0  0  0  0  0  0  0  0
    2.9910   -4.7089   -2.0592 C   0  0  0  0  0  0  0  0  0  0  0  0
    4.1265   -4.6711   -1.2616 C   0  0  0  0  0  0  0  0  0  0  0  0
    4.0446   -4.2500    0.0759 C   0  0  0  0  0  0  0  0  0  0  0  0
    2.7201   -3.5341    1.6370 H   0  0  0  0  0  0  0  0  0  0  0  0
    0.6985   -3.6218    0.2055 H   0  0  0  0  0  0  0  0  0  0  0  0
    3.0438   -5.0315   -3.0918 H   0  0  0  0  0  0  0  0  0  0  0  0
    5.0958   -4.9582   -1.6547 H   0  0  0  0  0  0  0  0  0  0  0  0
   -2.3641   -2.3934   -2.8374 N   0  0  0  0  0  0  0  0  0  0  0  0
   -1.9419   -1.7926   -3.6629 N   0  0  0  0  0  0  0  0  0  0  0  0
   -0.3253   -7.2822   -0.5403 C   0  0  0  0  0  0  0  0  0  0  0  0
   -0.9557   -7.7103    0.6280 C   0  0  0  0  0  0  0  0  0  0  0  0
   -2.1578   -7.1334    1.0569 C   0  0  0  0  0  0  0  0  0  0  0  0
   -2.7261   -6.1099    0.2799 C   0  0  0  0  0  0  0  0  0  0  0  0
   -2.1158   -5.6690   -0.8896 C   0  0  0  0  0  0  0  0  0  0  0  0
   -0.9139   -6.2631   -1.2881 C   0  0  0  0  0  0  0  0  0  0  0  0
    0.5982   -7.7360   -0.8800 H   0  0  0  0  0  0  0  0  0  0  0  0
   -0.5077   -8.5097    1.2118 H   0  0  0  0  0  0  0  0  0  0  0  0
   -3.6640   -5.6596    0.5929 H   0  0  0  0  0  0  0  0  0  0  0  0
   -2.5632   -4.8864   -1.4930 H   0  0  0  0  0  0  0  0  0  0  0  0
   -0.1242   -5.7055   -2.7865 S   0  0  0  0  0  0  0  0  0  0  0  0
    0.6090   -4.2813   -2.3127 O   0  0  0  0  0  0  0  0  0  0  0  0
   -1.1335   -5.2491   -3.7308 O   0  0  0  0  0  0  0  0  0  0  0  0
    0.9087   -6.6677   -3.1598 O   0  0  0  0  0  0  0  0  0  0  0  0
   -2.8302   -7.5893    2.3290 C   0  0  0  0  0  0  0  0  0  0  0  0
   -2.7491   -6.8249    3.1119 H   0  0  0  0  0  0  0  0  0  0  0  0
   -3.8975   -7.7747    2.1701 H   0  0  0  0  0  0  0  0  0  0  0  0
   -2.3797   -8.5073    2.7135 H   0  0  0  0  0  0  0  0  0  0  0  0
    5.2224   -4.2441    0.7641 O   0  0  0  0  0  0  0  0  0  0  0  0
    5.2087   -3.8201    2.1178 C   0  0  0  0  0  0  0  0  0  0  0  0
    6.2402   -3.8913    2.4663 H   0  0  0  0  0  0  0  0  0  0  0  0
    4.8674   -2.7813    2.2141 H   0  0  0  0  0  0  0  0  0  0  0  0
    4.5739   -4.4654    2.7386 H   0  0  0  0  0  0  0  0  0  0  0  0
  1  7  1  0  0  0  0
  2  8  1  0  0  0  0
  2  1  2  0  0  0  0
  3  2  1  0  0  0  0
  4  3  2  0  0  0  0
  4  5  1  0  0  0  0
  5  6  2  0  0  0  0
  6  1  1  0  0  0  0
  6 31  1  0  0  0  0
  9  4  1  0  0  0  0
 10  5  1  0  0  0  0
 12 11  3  0  0  0  0
 13 14  2  0  0  0  0
 14 15  1  0  0  0  0
 14 20  1  0  0  0  0
 15 27  1  0  0  0  0
 16 21  1  0  0  0  0
 16 15  2  0  0  0  0
 17 16  1  0  0  0  0
 18 17  2  0  0  0  0
 18 13  1  0  0  0  0
 19 13  1  0  0  0  0
 22 17  1  0  0  0  0
 23 24  1  0  0  0  0
 23 18  1  0  0  0  0
 24  3  1  0  0  0  0
 25 23  2  0  0  0  0
 26 23  2  0  0  0  0
 27 30  1  0  0  0  0
 27 28  1  0  0  0  0
 29 27  1  0  0  0  0
 31 32  1  0  0  0  0
 32 34  1  0  0  0  0
 32 33  1  0  0  0  0
 32 35  1  0  0  0  0
M  END
