Coordinates from ORCA-job 4-MeO-Ph-N2-OTs-B3LYPG-6-31G_dp-MTMO-d009-169-n800
 OpenBabel09051908173D

 35 34  0  0  0  0  0  0  0  0999 V2000
    4.3759   -2.0906   -0.2842 C   0  0  0  0  0  0  0  0  0  0  0  0
    3.1097   -1.9955   -0.8839 C   0  0  0  0  0  0  0  0  0  0  0  0
    2.4707   -3.1976   -0.9670 C   0  0  0  0  0  0  0  0  0  0  0  0
    2.8031   -4.4585   -0.5877 C   0  0  0  0  0  0  0  0  0  0  0  0
    4.0742   -4.5023   -0.0050 C   0  0  0  0  0  0  0  0  0  0  0  0
    4.8539   -3.3391    0.1533 C   0  0  0  0  0  0  0  0  0  0  0  0
    4.9611   -1.1864   -0.1721 H   0  0  0  0  0  0  0  0  0  0  0  0
    2.7010   -1.0583   -1.2368 H   0  0  0  0  0  0  0  0  0  0  0  0
    2.1710   -5.3502   -0.7303 H   0  0  0  0  0  0  0  0  0  0  0  0
    4.4741   -5.4504    0.3378 H   0  0  0  0  0  0  0  0  0  0  0  0
    0.7584   -3.0212   -1.8204 N   0  0  0  0  0  0  0  0  0  0  0  0
    0.1256   -2.4433   -2.5281 N   0  0  0  0  0  0  0  0  0  0  0  0
   -1.4317   -7.5419    0.5062 C   0  0  0  0  0  0  0  0  0  0  0  0
   -2.4931   -8.2313    1.0850 C   0  0  0  0  0  0  0  0  0  0  0  0
   -3.7567   -8.2643    0.4737 C   0  0  0  0  0  0  0  0  0  0  0  0
   -3.9262   -7.5854   -0.7391 C   0  0  0  0  0  0  0  0  0  0  0  0
   -2.8716   -6.8880   -1.3302 C   0  0  0  0  0  0  0  0  0  0  0  0
   -1.6279   -6.8690   -0.7023 C   0  0  0  0  0  0  0  0  0  0  0  0
   -0.4523   -7.5320    0.9723 H   0  0  0  0  0  0  0  0  0  0  0  0
   -2.3410   -8.7555    2.0254 H   0  0  0  0  0  0  0  0  0  0  0  0
   -4.8957   -7.6056   -1.2309 H   0  0  0  0  0  0  0  0  0  0  0  0
   -2.9969   -6.3727   -2.2759 H   0  0  0  0  0  0  0  0  0  0  0  0
   -0.2789   -5.9385   -1.4389 S   0  0  0  0  0  0  0  0  0  0  0  0
   -0.2553   -4.6379   -0.6456 O   0  0  0  0  0  0  0  0  0  0  0  0
   -0.6057   -5.7249   -2.8621 O   0  0  0  0  0  0  0  0  0  0  0  0
    0.9614   -6.7282   -1.1695 O   0  0  0  0  0  0  0  0  0  0  0  0
   -4.8940   -9.0335    1.1036 C   0  0  0  0  0  0  0  0  0  0  0  0
   -5.8477   -8.8048    0.6200 H   0  0  0  0  0  0  0  0  0  0  0  0
   -4.7337  -10.1163    1.0232 H   0  0  0  0  0  0  0  0  0  0  0  0
   -4.9918   -8.8017    2.1698 H   0  0  0  0  0  0  0  0  0  0  0  0
    6.0578   -3.5278    0.7407 O   0  0  0  0  0  0  0  0  0  0  0  0
    6.9076   -2.4040    0.9459 C   0  0  0  0  0  0  0  0  0  0  0  0
    7.8039   -2.7934    1.4283 H   0  0  0  0  0  0  0  0  0  0  0  0
    7.1843   -1.9327   -0.0049 H   0  0  0  0  0  0  0  0  0  0  0  0
    6.4362   -1.6606    1.6008 H   0  0  0  0  0  0  0  0  0  0  0  0
  1  7  1  0  0  0  0
  1  6  2  0  0  0  0
  2  1  1  0  0  0  0
  3  2  2  0  0  0  0
  3  4  1  0  0  0  0
  4  5  2  0  0  0  0
  5  6  1  0  0  0  0
  5 10  1  0  0  0  0
  6 31  1  0  0  0  0
  8  2  1  0  0  0  0
  9  4  1  0  0  0  0
 12 11  3  0  0  0  0
 13 19  1  0  0  0  0
 13 14  1  0  0  0  0
 14 20  1  0  0  0  0
 15 14  2  0  0  0  0
 15 27  1  0  0  0  0
 16 15  1  0  0  0  0
 17 16  2  0  0  0  0
 17 18  1  0  0  0  0
 18 13  2  0  0  0  0
 21 16  1  0  0  0  0
 22 17  1  0  0  0  0
 23 26  2  0  0  0  0
 23 18  1  0  0  0  0
 23 24  1  0  0  0  0
 25 23  2  0  0  0  0
 27 30  1  0  0  0  0
 28 27  1  0  0  0  0
 29 27  1  0  0  0  0
 31 32  1  0  0  0  0
 32 33  1  0  0  0  0
 32 35  1  0  0  0  0
 34 32  1  0  0  0  0
M  RAD  2   3   2  24   2
M  END
