Coordinates from ORCA-job 4-MeO-Ph-N2-OTs-B3LYPG-6-31G_dp-MTMO-d009-169-n800
 OpenBabel09051908173D

 35 35  0  0  0  0  0  0  0  0999 V2000
    3.4005   -4.0734    0.6697 C   0  0  0  0  0  0  0  0  0  0  0  0
    2.4486   -3.9515   -0.3466 C   0  0  0  0  0  0  0  0  0  0  0  0
    2.6627   -4.5629   -1.5770 C   0  0  0  0  0  0  0  0  0  0  0  0
    3.8227   -5.3070   -1.8134 C   0  0  0  0  0  0  0  0  0  0  0  0
    4.7653   -5.4360   -0.8028 C   0  0  0  0  0  0  0  0  0  0  0  0
    4.5630   -4.8203    0.4434 C   0  0  0  0  0  0  0  0  0  0  0  0
    3.2247   -3.5846    1.6202 H   0  0  0  0  0  0  0  0  0  0  0  0
    1.5448   -3.3720   -0.1907 H   0  0  0  0  0  0  0  0  0  0  0  0
    3.9694   -5.7775   -2.7779 H   0  0  0  0  0  0  0  0  0  0  0  0
    5.6759   -6.0052   -0.9560 H   0  0  0  0  0  0  0  0  0  0  0  0
   -6.8588   -7.5848    0.3385 N   0  0  0  0  0  0  0  0  0  0  0  0
   -7.7223   -8.1765   -0.0158 N   0  0  0  0  0  0  0  0  0  0  0  0
   -0.3436   -6.5255   -0.7004 C   0  0  0  0  0  0  0  0  0  0  0  0
   -1.2936   -6.5319    0.3205 C   0  0  0  0  0  0  0  0  0  0  0  0
   -2.3853   -5.6534    0.3026 C   0  0  0  0  0  0  0  0  0  0  0  0
   -2.5061   -4.7568   -0.7715 C   0  0  0  0  0  0  0  0  0  0  0  0
   -1.5699   -4.7340   -1.8004 C   0  0  0  0  0  0  0  0  0  0  0  0
   -0.4922   -5.6227   -1.7534 C   0  0  0  0  0  0  0  0  0  0  0  0
    0.4930   -7.2153   -0.6928 H   0  0  0  0  0  0  0  0  0  0  0  0
   -1.1856   -7.2344    1.1428 H   0  0  0  0  0  0  0  0  0  0  0  0
   -3.3494   -4.0715   -0.8033 H   0  0  0  0  0  0  0  0  0  0  0  0
   -1.6723   -4.0515   -2.6375 H   0  0  0  0  0  0  0  0  0  0  0  0
    0.7171   -5.5888   -3.0634 S   0  0  0  0  0  0  0  0  0  0  0  0
    1.7328   -4.3454   -2.6014 O   0  0  0  0  0  0  0  0  0  0  0  0
    0.1007   -5.0731   -4.2767 O   0  0  0  0  0  0  0  0  0  0  0  0
    1.4682   -6.8410   -3.0428 O   0  0  0  0  0  0  0  0  0  0  0  0
   -3.4260   -5.6847    1.3953 C   0  0  0  0  0  0  0  0  0  0  0  0
   -3.7430   -4.6748    1.6729 H   0  0  0  0  0  0  0  0  0  0  0  0
   -4.3218   -6.2262    1.0686 H   0  0  0  0  0  0  0  0  0  0  0  0
   -3.0494   -6.1819    2.2931 H   0  0  0  0  0  0  0  0  0  0  0  0
    5.5560   -5.0066    1.3602 O   0  0  0  0  0  0  0  0  0  0  0  0
    5.4142   -4.4045    2.6367 C   0  0  0  0  0  0  0  0  0  0  0  0
    6.3097   -4.6754    3.1987 H   0  0  0  0  0  0  0  0  0  0  0  0
    5.3501   -3.3110    2.5647 H   0  0  0  0  0  0  0  0  0  0  0  0
    4.5295   -4.7810    3.1667 H   0  0  0  0  0  0  0  0  0  0  0  0
  1  7  1  0  0  0  0
  2  8  1  0  0  0  0
  2  1  2  0  0  0  0
  3  2  1  0  0  0  0
  4  3  2  0  0  0  0
  4  5  1  0  0  0  0
  5  6  2  0  0  0  0
  6  1  1  0  0  0  0
  6 31  1  0  0  0  0
  9  4  1  0  0  0  0
 10  5  1  0  0  0  0
 12 11  3  0  0  0  0
 13 19  1  0  0  0  0
 13 14  2  0  0  0  0
 14 20  1  0  0  0  0
 15 14  1  0  0  0  0
 15 27  1  0  0  0  0
 16 15  2  0  0  0  0
 17 18  2  0  0  0  0
 17 16  1  0  0  0  0
 18 13  1  0  0  0  0
 21 16  1  0  0  0  0
 22 17  1  0  0  0  0
 23 26  2  0  0  0  0
 23 24  1  0  0  0  0
 23 18  1  0  0  0  0
 24  3  1  0  0  0  0
 25 23  2  0  0  0  0
 27 28  1  0  0  0  0
 27 30  1  0  0  0  0
 29 27  1  0  0  0  0
 31 32  1  0  0  0  0
 32 35  1  0  0  0  0
 32 33  1  0  0  0  0
 34 32  1  0  0  0  0
M  END
