Coordinates from ORCA-job 4-MeO-Ph-N2-OTs-B3LYPG-6-31G_dp-MTMO-d009-169-n800
 OpenBabel09051908173D

 35 35  0  0  0  0  0  0  0  0999 V2000
    3.6788   -3.9532    0.6106 C   0  0  0  0  0  0  0  0  0  0  0  0
    2.7075   -3.8629   -0.3906 C   0  0  0  0  0  0  0  0  0  0  0  0
    2.9137   -4.4837   -1.6176 C   0  0  0  0  0  0  0  0  0  0  0  0
    4.0852   -5.2054   -1.8658 C   0  0  0  0  0  0  0  0  0  0  0  0
    5.0474   -5.3031   -0.8702 C   0  0  0  0  0  0  0  0  0  0  0  0
    4.8530   -4.6779    0.3724 C   0  0  0  0  0  0  0  0  0  0  0  0
    3.5088   -3.4577    1.5587 H   0  0  0  0  0  0  0  0  0  0  0  0
    1.7943   -3.3010   -0.2255 H   0  0  0  0  0  0  0  0  0  0  0  0
    4.2256   -5.6835   -2.8276 H   0  0  0  0  0  0  0  0  0  0  0  0
    5.9671   -5.8549   -1.0328 H   0  0  0  0  0  0  0  0  0  0  0  0
  -11.6643   -8.6251    0.3185 N   0  0  0  0  0  0  0  0  0  0  0  0
  -12.6135   -9.1417    0.0865 N   0  0  0  0  0  0  0  0  0  0  0  0
   -0.0206   -6.5027   -0.6615 C   0  0  0  0  0  0  0  0  0  0  0  0
   -0.9479   -6.5186    0.3804 C   0  0  0  0  0  0  0  0  0  0  0  0
   -2.0596   -5.6662    0.3761 C   0  0  0  0  0  0  0  0  0  0  0  0
   -2.2257   -4.7861   -0.7059 C   0  0  0  0  0  0  0  0  0  0  0  0
   -1.3130   -4.7541   -1.7553 C   0  0  0  0  0  0  0  0  0  0  0  0
   -0.2136   -5.6169   -1.7213 C   0  0  0  0  0  0  0  0  0  0  0  0
    0.8316   -7.1729   -0.6644 H   0  0  0  0  0  0  0  0  0  0  0  0
   -0.8058   -7.2086    1.2082 H   0  0  0  0  0  0  0  0  0  0  0  0
   -3.0861   -4.1221   -0.7279 H   0  0  0  0  0  0  0  0  0  0  0  0
   -1.4502   -4.0854   -2.5984 H   0  0  0  0  0  0  0  0  0  0  0  0
    0.9664   -5.5696   -3.0574 S   0  0  0  0  0  0  0  0  0  0  0  0
    1.9616   -4.2985   -2.6281 O   0  0  0  0  0  0  0  0  0  0  0  0
    0.3131   -5.0808   -4.2624 O   0  0  0  0  0  0  0  0  0  0  0  0
    1.7465   -6.8039   -3.0401 O   0  0  0  0  0  0  0  0  0  0  0  0
   -3.0747   -5.7042    1.4927 C   0  0  0  0  0  0  0  0  0  0  0  0
   -3.3413   -4.6956    1.8236 H   0  0  0  0  0  0  0  0  0  0  0  0
   -4.0009   -6.1893    1.1623 H   0  0  0  0  0  0  0  0  0  0  0  0
   -2.7007   -6.2586    2.3571 H   0  0  0  0  0  0  0  0  0  0  0  0
    5.8649   -4.8332    1.2741 O   0  0  0  0  0  0  0  0  0  0  0  0
    5.7320   -4.2205    2.5466 C   0  0  0  0  0  0  0  0  0  0  0  0
    6.6418   -4.4674    3.0963 H   0  0  0  0  0  0  0  0  0  0  0  0
    5.6449   -3.1293    2.4643 H   0  0  0  0  0  0  0  0  0  0  0  0
    4.8637   -4.6088    3.0950 H   0  0  0  0  0  0  0  0  0  0  0  0
  1  7  1  0  0  0  0
  2  8  1  0  0  0  0
  2  1  2  0  0  0  0
  3  2  1  0  0  0  0
  4  3  2  0  0  0  0
  4  5  1  0  0  0  0
  5  6  2  0  0  0  0
  6  1  1  0  0  0  0
  6 31  1  0  0  0  0
  9  4  1  0  0  0  0
 10  5  1  0  0  0  0
 12 11  3  0  0  0  0
 13 14  2  0  0  0  0
 14 20  1  0  0  0  0
 15 14  1  0  0  0  0
 15 27  1  0  0  0  0
 16 15  2  0  0  0  0
 17 18  2  0  0  0  0
 17 16  1  0  0  0  0
 18 13  1  0  0  0  0
 19 13  1  0  0  0  0
 21 16  1  0  0  0  0
 22 17  1  0  0  0  0
 23 26  2  0  0  0  0
 23 24  1  0  0  0  0
 23 18  1  0  0  0  0
 24  3  1  0  0  0  0
 25 23  2  0  0  0  0
 27 28  1  0  0  0  0
 27 30  1  0  0  0  0
 29 27  1  0  0  0  0
 31 32  1  0  0  0  0
 32 35  1  0  0  0  0
 32 33  1  0  0  0  0
 34 32  1  0  0  0  0
M  END
