Coordinates from ORCA-job 4-MeO-Ph-N2-OTs-B3LYPG-6-31G_dp-MTMO-d009-169-n800
 OpenBabel09051908173D

 35 36  0  0  1  0  0  0  0  0999 V2000
    3.8902   -2.9075   -0.6112 C   0  0  0  0  0  0  0  0  0  0  0  0
    3.0516   -1.9570   -0.1366 C   0  0  0  0  0  0  0  0  0  0  0  0
    1.8445   -2.3270    0.5766 C   0  0  0  0  0  0  0  0  0  0  0  0
    1.3633   -3.7615    0.5490 C   0  0  2  0  0  0  0  0  0  0  0  0
    2.4511   -4.7094    0.2282 C   0  0  0  0  0  0  0  0  0  0  0  0
    3.6027   -4.3126   -0.3707 C   0  0  0  0  0  0  0  0  0  0  0  0
    4.7819   -2.6137   -1.1489 H   0  0  0  0  0  0  0  0  0  0  0  0
    3.2624   -0.9004   -0.2708 H   0  0  0  0  0  0  0  0  0  0  0  0
    0.8398   -4.0072    1.4738 H   0  0  0  0  0  0  0  0  0  0  0  0
    2.2829   -5.7639    0.4154 H   0  0  0  0  0  0  0  0  0  0  0  0
    1.1762   -1.4979    1.1306 N   0  0  0  0  0  0  0  0  0  0  0  0
    0.5331   -0.7128    1.6633 N   0  0  0  0  0  0  0  0  0  0  0  0
   -1.7711   -6.3812    1.0050 C   0  0  0  0  0  0  0  0  0  0  0  0
   -2.0493   -7.7473    0.9569 C   0  0  0  0  0  0  0  0  0  0  0  0
   -2.1992   -8.4144   -0.2658 C   0  0  0  0  0  0  0  0  0  0  0  0
   -2.0643   -7.6753   -1.4522 C   0  0  0  0  0  0  0  0  0  0  0  0
   -1.7894   -6.3117   -1.4250 C   0  0  0  0  0  0  0  0  0  0  0  0
   -1.6392   -5.6749   -0.1902 C   0  0  0  0  0  0  0  0  0  0  0  0
   -1.6707   -5.8620    1.9517 H   0  0  0  0  0  0  0  0  0  0  0  0
   -2.1560   -8.3017    1.8856 H   0  0  0  0  0  0  0  0  0  0  0  0
   -2.1806   -8.1758   -2.4100 H   0  0  0  0  0  0  0  0  0  0  0  0
   -1.7009   -5.7420   -2.3438 H   0  0  0  0  0  0  0  0  0  0  0  0
   -1.2723   -3.9267   -0.1479 S   0  0  0  0  0  0  0  0  0  0  0  0
   -1.4201   -3.4582    1.2350 O   0  0  0  0  0  0  0  0  0  0  0  0
   -1.9750   -3.2764   -1.2473 O   0  0  0  0  0  0  0  0  0  0  0  0
    0.3098   -3.8816   -0.5492 O   0  0  0  0  0  0  0  0  0  0  0  0
   -2.5289   -9.8869   -0.3117 C   0  0  0  0  0  0  0  0  0  0  0  0
   -2.0050  -10.3881   -1.1310 H   0  0  0  0  0  0  0  0  0  0  0  0
   -2.2592  -10.3872    0.6224 H   0  0  0  0  0  0  0  0  0  0  0  0
   -3.6031  -10.0425   -0.4701 H   0  0  0  0  0  0  0  0  0  0  0  0
    4.4900   -5.2909   -0.7138 O   0  0  0  0  0  0  0  0  0  0  0  0
    5.7968   -4.9361   -1.1457 C   0  0  0  0  0  0  0  0  0  0  0  0
    6.3367   -5.8779   -1.2552 H   0  0  0  0  0  0  0  0  0  0  0  0
    5.7843   -4.4235   -2.1157 H   0  0  0  0  0  0  0  0  0  0  0  0
    6.3165   -4.3097   -0.4101 H   0  0  0  0  0  0  0  0  0  0  0  0
  1  6  2  0  0  0  0
  1  2  1  0  0  0  0
  2  3  2  0  0  0  0
  3 11  1  0  0  0  0
  4  3  1  0  0  0  0
  4  9  1  1  0  0  0
  5 10  1  0  0  0  0
  5  4  1  0  0  0  0
  6  5  1  0  0  0  0
  7  1  1  0  0  0  0
  8  2  1  0  0  0  0
 11 12  1  0  0  0  0
 13 19  1  0  0  0  0
 14 13  1  0  0  0  0
 14 20  1  0  0  0  0
 15 14  2  0  0  0  0
 16 17  2  0  0  0  0
 16 15  1  0  0  0  0
 17 18  1  0  0  0  0
 18 23  1  0  0  0  0
 18 13  2  0  0  0  0
 21 16  1  0  0  0  0
 22 17  1  0  0  0  0
 23 24  2  0  0  0  0
 25 23  2  0  0  0  0
 26 23  1  0  0  0  0
 26  4  1  0  0  0  0
 27 15  1  0  0  0  0
 27 29  1  0  0  0  0
 28 27  1  0  0  0  0
 30 27  1  0  0  0  0
 31  6  1  0  0  0  0
 32 31  1  0  0  0  0
 32 35  1  0  0  0  0
 33 32  1  0  0  0  0
 34 32  1  0  0  0  0
M  RAD  3   5   2  11   2  12   3
M  END
