Coordinates from ORCA-job 4-MeO-Ph-N2-OTs-B3LYPG-6-31G_dp-MTMO-d009-169-n800
 OpenBabel09051908173D

 35 35  0  0  0  0  0  0  0  0999 V2000
    3.7011   -3.9426    0.6074 C   0  0  0  0  0  0  0  0  0  0  0  0
    2.7279   -3.8551   -0.3923 C   0  0  0  0  0  0  0  0  0  0  0  0
    2.9339   -4.4756   -1.6194 C   0  0  0  0  0  0  0  0  0  0  0  0
    4.1069   -5.1943   -1.8694 C   0  0  0  0  0  0  0  0  0  0  0  0
    5.0709   -5.2893   -0.8752 C   0  0  0  0  0  0  0  0  0  0  0  0
    4.8767   -4.6643    0.3676 C   0  0  0  0  0  0  0  0  0  0  0  0
    3.5312   -3.4474    1.5556 H   0  0  0  0  0  0  0  0  0  0  0  0
    1.8136   -3.2955   -0.2260 H   0  0  0  0  0  0  0  0  0  0  0  0
    4.2471   -5.6723   -2.8312 H   0  0  0  0  0  0  0  0  0  0  0  0
    5.9917   -5.8387   -1.0390 H   0  0  0  0  0  0  0  0  0  0  0  0
  -12.0633   -8.6977    0.3047 N   0  0  0  0  0  0  0  0  0  0  0  0
  -13.0105   -9.2181    0.0733 N   0  0  0  0  0  0  0  0  0  0  0  0
    0.0070   -6.5017   -0.6576 C   0  0  0  0  0  0  0  0  0  0  0  0
   -0.9186   -6.5199    0.3859 C   0  0  0  0  0  0  0  0  0  0  0  0
   -2.0328   -5.6708    0.3828 C   0  0  0  0  0  0  0  0  0  0  0  0
   -2.2035   -4.7920   -0.6995 C   0  0  0  0  0  0  0  0  0  0  0  0
   -1.2926   -4.7579   -1.7504 C   0  0  0  0  0  0  0  0  0  0  0  0
   -0.1905   -5.6173   -1.7176 C   0  0  0  0  0  0  0  0  0  0  0  0
    0.8613   -7.1694   -0.6615 H   0  0  0  0  0  0  0  0  0  0  0  0
   -0.7729   -7.2089    1.2138 H   0  0  0  0  0  0  0  0  0  0  0  0
   -3.0660   -4.1307   -0.7206 H   0  0  0  0  0  0  0  0  0  0  0  0
   -1.4332   -4.0902   -2.5937 H   0  0  0  0  0  0  0  0  0  0  0  0
    0.9872   -5.5672   -3.0558 S   0  0  0  0  0  0  0  0  0  0  0  0
    1.9797   -4.2933   -2.6285 O   0  0  0  0  0  0  0  0  0  0  0  0
    0.3305   -5.0805   -4.2598 O   0  0  0  0  0  0  0  0  0  0  0  0
    1.7706   -6.7994   -3.0394 O   0  0  0  0  0  0  0  0  0  0  0  0
   -3.0458   -5.7109    1.5012 C   0  0  0  0  0  0  0  0  0  0  0  0
   -3.3104   -4.7029    1.8357 H   0  0  0  0  0  0  0  0  0  0  0  0
   -3.9733   -6.1938    1.1713 H   0  0  0  0  0  0  0  0  0  0  0  0
   -2.6708   -6.2683    2.3634 H   0  0  0  0  0  0  0  0  0  0  0  0
    5.8904   -4.8168    1.2677 O   0  0  0  0  0  0  0  0  0  0  0  0
    5.7579   -4.2041    2.5403 C   0  0  0  0  0  0  0  0  0  0  0  0
    6.6691   -4.4487    3.0888 H   0  0  0  0  0  0  0  0  0  0  0  0
    5.6680   -3.1132    2.4580 H   0  0  0  0  0  0  0  0  0  0  0  0
    4.8914   -4.5944    3.0901 H   0  0  0  0  0  0  0  0  0  0  0  0
  1  7  1  0  0  0  0
  2  8  1  0  0  0  0
  2  1  2  0  0  0  0
  3  2  1  0  0  0  0
  4  3  2  0  0  0  0
  4  5  1  0  0  0  0
  5  6  2  0  0  0  0
  6  1  1  0  0  0  0
  6 31  1  0  0  0  0
  9  4  1  0  0  0  0
 10  5  1  0  0  0  0
 12 11  3  0  0  0  0
 13 14  2  0  0  0  0
 14 20  1  0  0  0  0
 15 14  1  0  0  0  0
 15 27  1  0  0  0  0
 16 15  2  0  0  0  0
 17 18  2  0  0  0  0
 17 16  1  0  0  0  0
 18 13  1  0  0  0  0
 19 13  1  0  0  0  0
 21 16  1  0  0  0  0
 22 17  1  0  0  0  0
 23 26  2  0  0  0  0
 23 24  1  0  0  0  0
 23 18  1  0  0  0  0
 24  3  1  0  0  0  0
 25 23  2  0  0  0  0
 27 28  1  0  0  0  0
 27 30  1  0  0  0  0
 29 27  1  0  0  0  0
 31 32  1  0  0  0  0
 32 33  1  0  0  0  0
 32 35  1  0  0  0  0
 34 32  1  0  0  0  0
M  END
