Coordinates from ORCA-job 4-MeO-Ph-N2-OTs-B3LYPG-6-31G_dp-MTMO-d009-169-n800
 OpenBabel09051908173D

 35 35  0  0  0  0  0  0  0  0999 V2000
    3.7315   -3.9159    0.5997 C   0  0  0  0  0  0  0  0  0  0  0  0
    2.7538   -3.8381   -0.3962 C   0  0  0  0  0  0  0  0  0  0  0  0
    2.9606   -4.4577   -1.6237 C   0  0  0  0  0  0  0  0  0  0  0  0
    4.1392   -5.1659   -1.8776 C   0  0  0  0  0  0  0  0  0  0  0  0
    5.1077   -5.2514   -0.8871 C   0  0  0  0  0  0  0  0  0  0  0  0
    4.9126   -4.6273    0.3560 C   0  0  0  0  0  0  0  0  0  0  0  0
    3.5608   -3.4216    1.5483 H   0  0  0  0  0  0  0  0  0  0  0  0
    1.8350   -3.2867   -0.2268 H   0  0  0  0  0  0  0  0  0  0  0  0
    4.2800   -5.6433   -2.8397 H   0  0  0  0  0  0  0  0  0  0  0  0
    6.0328   -5.7926   -1.0540 H   0  0  0  0  0  0  0  0  0  0  0  0
  -12.7153   -8.7431    0.2549 N   0  0  0  0  0  0  0  0  0  0  0  0
  -13.6646   -9.2598    0.0233 N   0  0  0  0  0  0  0  0  0  0  0  0
    0.0623   -6.5118   -0.6473 C   0  0  0  0  0  0  0  0  0  0  0  0
   -0.8580   -6.5400    0.4007 C   0  0  0  0  0  0  0  0  0  0  0  0
   -1.9829   -5.7051    0.4016 C   0  0  0  0  0  0  0  0  0  0  0  0
   -2.1699   -4.8304   -0.6814 C   0  0  0  0  0  0  0  0  0  0  0  0
   -1.2645   -4.7863   -1.7366 C   0  0  0  0  0  0  0  0  0  0  0  0
   -0.1513   -5.6316   -1.7077 C   0  0  0  0  0  0  0  0  0  0  0  0
    0.9248   -7.1687   -0.6543 H   0  0  0  0  0  0  0  0  0  0  0  0
   -0.6998   -7.2258    1.2289 H   0  0  0  0  0  0  0  0  0  0  0  0
   -3.0410   -4.1805   -0.6997 H   0  0  0  0  0  0  0  0  0  0  0  0
   -1.4177   -4.1221   -2.5804 H   0  0  0  0  0  0  0  0  0  0  0  0
    1.0191   -5.5691   -3.0517 S   0  0  0  0  0  0  0  0  0  0  0  0
    2.0006   -4.2852   -2.6290 O   0  0  0  0  0  0  0  0  0  0  0  0
    0.3514   -5.0891   -4.2523 O   0  0  0  0  0  0  0  0  0  0  0  0
    1.8153   -6.7932   -3.0395 O   0  0  0  0  0  0  0  0  0  0  0  0
   -2.9894   -5.7545    1.5256 C   0  0  0  0  0  0  0  0  0  0  0  0
   -3.2422   -4.7496    1.8782 H   0  0  0  0  0  0  0  0  0  0  0  0
   -3.9236   -6.2227    1.1935 H   0  0  0  0  0  0  0  0  0  0  0  0
   -2.6142   -6.3293    2.3761 H   0  0  0  0  0  0  0  0  0  0  0  0
    5.9310   -4.7701    1.2525 O   0  0  0  0  0  0  0  0  0  0  0  0
    5.7978   -4.1577    2.5251 C   0  0  0  0  0  0  0  0  0  0  0  0
    6.7129   -4.3944    3.0706 H   0  0  0  0  0  0  0  0  0  0  0  0
    5.6985   -3.0676    2.4424 H   0  0  0  0  0  0  0  0  0  0  0  0
    4.9365   -4.5549    3.0782 H   0  0  0  0  0  0  0  0  0  0  0  0
  1  7  1  0  0  0  0
  2  8  1  0  0  0  0
  2  1  2  0  0  0  0
  3  2  1  0  0  0  0
  4  3  2  0  0  0  0
  4  5  1  0  0  0  0
  5  6  2  0  0  0  0
  6  1  1  0  0  0  0
  6 31  1  0  0  0  0
  9  4  1  0  0  0  0
 10  5  1  0  0  0  0
 12 11  3  0  0  0  0
 13 14  2  0  0  0  0
 14 15  1  0  0  0  0
 14 20  1  0  0  0  0
 15 27  1  0  0  0  0
 16 15  2  0  0  0  0
 17 18  2  0  0  0  0
 17 16  1  0  0  0  0
 18 13  1  0  0  0  0
 19 13  1  0  0  0  0
 21 16  1  0  0  0  0
 22 17  1  0  0  0  0
 23 26  2  0  0  0  0
 23 24  1  0  0  0  0
 23 18  1  0  0  0  0
 24  3  1  0  0  0  0
 25 23  2  0  0  0  0
 27 28  1  0  0  0  0
 27 30  1  0  0  0  0
 29 27  1  0  0  0  0
 31 32  1  0  0  0  0
 32 33  1  0  0  0  0
 32 35  1  0  0  0  0
 34 32  1  0  0  0  0
M  END
