Coordinates from ORCA-job 4-MeO-Ph-N2-OTs-B3LYPG-6-31G_dp-MTMO-d009-169-n800
 OpenBabel09051908173D

 35 35  0  0  0  0  0  0  0  0999 V2000
    3.0901   -3.9932    0.8208 C   0  0  0  0  0  0  0  0  0  0  0  0
    1.9343   -3.8591    0.0466 C   0  0  0  0  0  0  0  0  0  0  0  0
    1.9726   -4.1384   -1.3151 C   0  0  0  0  0  0  0  0  0  0  0  0
    3.1585   -4.5576   -1.9262 C   0  0  0  0  0  0  0  0  0  0  0  0
    4.3049   -4.7019   -1.1566 C   0  0  0  0  0  0  0  0  0  0  0  0
    4.2807   -4.4197    0.2191 C   0  0  0  0  0  0  0  0  0  0  0  0
    3.0481   -3.7608    1.8779 H   0  0  0  0  0  0  0  0  0  0  0  0
    1.0048   -3.5241    0.4942 H   0  0  0  0  0  0  0  0  0  0  0  0
    3.1680   -4.7721   -2.9879 H   0  0  0  0  0  0  0  0  0  0  0  0
    5.2394   -5.0269   -1.6011 H   0  0  0  0  0  0  0  0  0  0  0  0
   -4.3209   -3.8755   -3.7337 N   0  0  0  0  0  0  0  0  0  0  0  0
   -4.2683   -3.6878   -4.8214 N   0  0  0  0  0  0  0  0  0  0  0  0
   -0.2563   -6.8923   -0.5406 C   0  0  0  0  0  0  0  0  0  0  0  0
   -0.9133   -7.4030    0.5774 C   0  0  0  0  0  0  0  0  0  0  0  0
   -2.1612   -6.9044    0.9774 C   0  0  0  0  0  0  0  0  0  0  0  0
   -2.7475   -5.8784    0.2199 C   0  0  0  0  0  0  0  0  0  0  0  0
   -2.1081   -5.3520   -0.8993 C   0  0  0  0  0  0  0  0  0  0  0  0
   -0.8620   -5.8660   -1.2676 C   0  0  0  0  0  0  0  0  0  0  0  0
    0.6986   -7.2920   -0.8605 H   0  0  0  0  0  0  0  0  0  0  0  0
   -0.4527   -8.2083    1.1432 H   0  0  0  0  0  0  0  0  0  0  0  0
   -3.7226   -5.4935    0.5048 H   0  0  0  0  0  0  0  0  0  0  0  0
   -2.5731   -4.5748   -1.4959 H   0  0  0  0  0  0  0  0  0  0  0  0
   -0.0358   -5.1968   -2.6982 S   0  0  0  0  0  0  0  0  0  0  0  0
    0.8170   -3.9036   -2.0725 O   0  0  0  0  0  0  0  0  0  0  0  0
   -1.0122   -4.5549   -3.5662 O   0  0  0  0  0  0  0  0  0  0  0  0
    0.9153   -6.1865   -3.1971 O   0  0  0  0  0  0  0  0  0  0  0  0
   -2.8538   -7.4473    2.2038 C   0  0  0  0  0  0  0  0  0  0  0  0
   -2.6327   -6.8291    3.0829 H   0  0  0  0  0  0  0  0  0  0  0  0
   -3.9410   -7.4562    2.0786 H   0  0  0  0  0  0  0  0  0  0  0  0
   -2.5269   -8.4656    2.4298 H   0  0  0  0  0  0  0  0  0  0  0  0
    5.4641   -4.5877    0.8764 O   0  0  0  0  0  0  0  0  0  0  0  0
    5.5062   -4.3091    2.2666 C   0  0  0  0  0  0  0  0  0  0  0  0
    6.5324   -4.5034    2.5820 H   0  0  0  0  0  0  0  0  0  0  0  0
    5.2563   -3.2613    2.4777 H   0  0  0  0  0  0  0  0  0  0  0  0
    4.8268   -4.9601    2.8314 H   0  0  0  0  0  0  0  0  0  0  0  0
  1  7  1  0  0  0  0
  2  8  1  0  0  0  0
  2  1  2  0  0  0  0
  3  2  1  0  0  0  0
  4  3  2  0  0  0  0
  4  5  1  0  0  0  0
  5  6  2  0  0  0  0
  6  1  1  0  0  0  0
  6 31  1  0  0  0  0
  9  4  1  0  0  0  0
 10  5  1  0  0  0  0
 12 11  3  0  0  0  0
 13 14  2  0  0  0  0
 14 15  1  0  0  0  0
 14 20  1  0  0  0  0
 15 27  1  0  0  0  0
 16 21  1  0  0  0  0
 16 15  2  0  0  0  0
 17 16  1  0  0  0  0
 18 17  2  0  0  0  0
 18 13  1  0  0  0  0
 19 13  1  0  0  0  0
 22 17  1  0  0  0  0
 23 24  1  0  0  0  0
 23 18  1  0  0  0  0
 24  3  1  0  0  0  0
 25 23  2  0  0  0  0
 26 23  2  0  0  0  0
 27 30  1  0  0  0  0
 27 28  1  0  0  0  0
 29 27  1  0  0  0  0
 31 32  1  0  0  0  0
 32 34  1  0  0  0  0
 32 33  1  0  0  0  0
 32 35  1  0  0  0  0
M  END
