Coordinates from ORCA-job 4-MeO-Ph-N2-OTs-B3LYPG-6-31G_dp-MTMO-d009-169-n800
 OpenBabel09051908173D

 35 35  0  0  0  0  0  0  0  0999 V2000
    3.4398   -4.0509    0.7005 C   0  0  0  0  0  0  0  0  0  0  0  0
    2.5066   -3.9223   -0.3322 C   0  0  0  0  0  0  0  0  0  0  0  0
    2.7554   -4.5032   -1.5708 C   0  0  0  0  0  0  0  0  0  0  0  0
    3.9321   -5.2230   -1.7994 C   0  0  0  0  0  0  0  0  0  0  0  0
    4.8562   -5.3589   -0.7728 C   0  0  0  0  0  0  0  0  0  0  0  0
    4.6187   -4.7740    0.4820 C   0  0  0  0  0  0  0  0  0  0  0  0
    3.2367   -3.5856    1.6573 H   0  0  0  0  0  0  0  0  0  0  0  0
    1.5906   -3.3608   -0.1823 H   0  0  0  0  0  0  0  0  0  0  0  0
    4.1061   -5.6699   -2.7706 H   0  0  0  0  0  0  0  0  0  0  0  0
    5.7790   -5.9098   -0.9196 H   0  0  0  0  0  0  0  0  0  0  0  0
   -7.9716   -7.6380    0.9353 N   0  0  0  0  0  0  0  0  0  0  0  0
   -8.9951   -8.0450    0.8436 N   0  0  0  0  0  0  0  0  0  0  0  0
   -0.2321   -6.5357   -0.8016 C   0  0  0  0  0  0  0  0  0  0  0  0
   -1.2064   -6.5868    0.1946 C   0  0  0  0  0  0  0  0  0  0  0  0
   -2.3204   -5.7370    0.1656 C   0  0  0  0  0  0  0  0  0  0  0  0
   -2.4379   -4.8223   -0.8933 C   0  0  0  0  0  0  0  0  0  0  0  0
   -1.4771   -4.7546   -1.8975 C   0  0  0  0  0  0  0  0  0  0  0  0
   -0.3782   -5.6162   -1.8405 C   0  0  0  0  0  0  0  0  0  0  0  0
    0.6214   -7.2043   -0.7865 H   0  0  0  0  0  0  0  0  0  0  0  0
   -1.1002   -7.3026    1.0057 H   0  0  0  0  0  0  0  0  0  0  0  0
   -3.2978   -4.1585   -0.9335 H   0  0  0  0  0  0  0  0  0  0  0  0
   -1.5767   -4.0586   -2.7237 H   0  0  0  0  0  0  0  0  0  0  0  0
    0.8596   -5.5287   -3.1214 S   0  0  0  0  0  0  0  0  0  0  0  0
    1.8425   -4.2784   -2.6090 O   0  0  0  0  0  0  0  0  0  0  0  0
    0.2602   -4.9960   -4.3358 O   0  0  0  0  0  0  0  0  0  0  0  0
    1.6331   -6.7672   -3.1125 O   0  0  0  0  0  0  0  0  0  0  0  0
   -3.3875   -5.8190    1.2300 C   0  0  0  0  0  0  0  0  0  0  0  0
   -3.7562   -4.8258    1.5033 H   0  0  0  0  0  0  0  0  0  0  0  0
   -4.2497   -6.3980    0.8772 H   0  0  0  0  0  0  0  0  0  0  0  0
   -3.0143   -6.3051    2.1353 H   0  0  0  0  0  0  0  0  0  0  0  0
    5.5958   -4.9646    1.4148 O   0  0  0  0  0  0  0  0  0  0  0  0
    5.4194   -4.3915    2.7003 C   0  0  0  0  0  0  0  0  0  0  0  0
    6.3073   -4.6611    3.2748 H   0  0  0  0  0  0  0  0  0  0  0  0
    5.3406   -3.2978    2.6494 H   0  0  0  0  0  0  0  0  0  0  0  0
    4.5299   -4.7917    3.2041 H   0  0  0  0  0  0  0  0  0  0  0  0
  1  7  1  0  0  0  0
  2  8  1  0  0  0  0
  2  1  2  0  0  0  0
  3  2  1  0  0  0  0
  4  3  2  0  0  0  0
  4  5  1  0  0  0  0
  5  6  2  0  0  0  0
  6  1  1  0  0  0  0
  6 31  1  0  0  0  0
  9  4  1  0  0  0  0
 10  5  1  0  0  0  0
 12 11  3  0  0  0  0
 13 19  1  0  0  0  0
 13 14  2  0  0  0  0
 14 20  1  0  0  0  0
 15 14  1  0  0  0  0
 15 27  1  0  0  0  0
 16 15  2  0  0  0  0
 17 18  2  0  0  0  0
 17 16  1  0  0  0  0
 18 13  1  0  0  0  0
 21 16  1  0  0  0  0
 22 17  1  0  0  0  0
 23 26  2  0  0  0  0
 23 24  1  0  0  0  0
 23 18  1  0  0  0  0
 24  3  1  0  0  0  0
 25 23  2  0  0  0  0
 27 28  1  0  0  0  0
 27 30  1  0  0  0  0
 29 27  1  0  0  0  0
 31 32  1  0  0  0  0
 32 35  1  0  0  0  0
 32 33  1  0  0  0  0
 34 32  1  0  0  0  0
M  END
