Coordinates from ORCA-job 4-MeO-Ph-N2-OTs-B3LYPG-6-31G_dp-MTMO-d009-169-n800
 OpenBabel09051908173D

 35 35  0  0  0  0  0  0  0  0999 V2000
    2.8397   -3.8816    0.6329 C   0  0  0  0  0  0  0  0  0  0  0  0
    1.6979   -3.9112   -0.1727 C   0  0  0  0  0  0  0  0  0  0  0  0
    1.7916   -4.3227   -1.4975 C   0  0  0  0  0  0  0  0  0  0  0  0
    3.0196   -4.7148   -2.0396 C   0  0  0  0  0  0  0  0  0  0  0  0
    4.1528   -4.6962   -1.2382 C   0  0  0  0  0  0  0  0  0  0  0  0
    4.0727   -4.2785    0.1005 C   0  0  0  0  0  0  0  0  0  0  0  0
    2.7535   -3.5485    1.6597 H   0  0  0  0  0  0  0  0  0  0  0  0
    0.7357   -3.6024    0.2214 H   0  0  0  0  0  0  0  0  0  0  0  0
    3.0711   -5.0345   -3.0731 H   0  0  0  0  0  0  0  0  0  0  0  0
    5.1191   -4.9960   -1.6291 H   0  0  0  0  0  0  0  0  0  0  0  0
   -2.6797   -2.4861   -2.9428 N   0  0  0  0  0  0  0  0  0  0  0  0
   -2.3336   -1.8986   -3.8122 N   0  0  0  0  0  0  0  0  0  0  0  0
   -0.3068   -7.2459   -0.5431 C   0  0  0  0  0  0  0  0  0  0  0  0
   -0.9390   -7.6779    0.6226 C   0  0  0  0  0  0  0  0  0  0  0  0
   -2.1454   -7.1072    1.0480 C   0  0  0  0  0  0  0  0  0  0  0  0
   -2.7161   -6.0861    0.2699 C   0  0  0  0  0  0  0  0  0  0  0  0
   -2.1040   -5.6411   -0.8971 C   0  0  0  0  0  0  0  0  0  0  0  0
   -0.8978   -6.2288   -1.2919 C   0  0  0  0  0  0  0  0  0  0  0  0
    0.6198   -7.6955   -0.8802 H   0  0  0  0  0  0  0  0  0  0  0  0
   -0.4892   -8.4757    1.2072 H   0  0  0  0  0  0  0  0  0  0  0  0
   -3.6576   -5.6410    0.5797 H   0  0  0  0  0  0  0  0  0  0  0  0
   -2.5537   -4.8614   -1.5025 H   0  0  0  0  0  0  0  0  0  0  0  0
   -0.1042   -5.6633   -2.7852 S   0  0  0  0  0  0  0  0  0  0  0  0
    0.6442   -4.2519   -2.2985 O   0  0  0  0  0  0  0  0  0  0  0  0
   -1.1102   -5.1870   -3.7235 O   0  0  0  0  0  0  0  0  0  0  0  0
    0.9183   -6.6321   -3.1700 O   0  0  0  0  0  0  0  0  0  0  0  0
   -2.8198   -7.5676    2.3174 C   0  0  0  0  0  0  0  0  0  0  0  0
   -2.7468   -6.8029    3.1007 H   0  0  0  0  0  0  0  0  0  0  0  0
   -3.8853   -7.7597    2.1542 H   0  0  0  0  0  0  0  0  0  0  0  0
   -2.3651   -8.4829    2.7034 H   0  0  0  0  0  0  0  0  0  0  0  0
    5.2482   -4.2921    0.7927 O   0  0  0  0  0  0  0  0  0  0  0  0
    5.2359   -3.8725    2.1477 C   0  0  0  0  0  0  0  0  0  0  0  0
    6.2652   -3.9593    2.4994 H   0  0  0  0  0  0  0  0  0  0  0  0
    4.9089   -2.8293    2.2465 H   0  0  0  0  0  0  0  0  0  0  0  0
    4.5901   -4.5108    2.7642 H   0  0  0  0  0  0  0  0  0  0  0  0
  1  7  1  0  0  0  0
  2  8  1  0  0  0  0
  2  1  2  0  0  0  0
  3  2  1  0  0  0  0
  4  3  2  0  0  0  0
  4  5  1  0  0  0  0
  5  6  2  0  0  0  0
  6  1  1  0  0  0  0
  6 31  1  0  0  0  0
  9  4  1  0  0  0  0
 10  5  1  0  0  0  0
 12 11  3  0  0  0  0
 13 14  2  0  0  0  0
 14 15  1  0  0  0  0
 14 20  1  0  0  0  0
 15 27  1  0  0  0  0
 16 21  1  0  0  0  0
 16 15  2  0  0  0  0
 17 16  1  0  0  0  0
 18 17  2  0  0  0  0
 18 13  1  0  0  0  0
 19 13  1  0  0  0  0
 22 17  1  0  0  0  0
 23 24  1  0  0  0  0
 23 18  1  0  0  0  0
 24  3  1  0  0  0  0
 25 23  2  0  0  0  0
 26 23  2  0  0  0  0
 27 30  1  0  0  0  0
 27 28  1  0  0  0  0
 29 27  1  0  0  0  0
 31 32  1  0  0  0  0
 32 34  1  0  0  0  0
 32 33  1  0  0  0  0
 32 35  1  0  0  0  0
M  END
