Coordinates from ORCA-job 4-MeO-Ph-N2-OTs-B3LYPG-6-31G_dp-MTMO-d009-169-n800
 OpenBabel09051908173D

 35 35  0  0  0  0  0  0  0  0999 V2000
    3.5313   -4.0286    0.6439 C   0  0  0  0  0  0  0  0  0  0  0  0
    2.5786   -3.9140   -0.3725 C   0  0  0  0  0  0  0  0  0  0  0  0
    2.7939   -4.5304   -1.6001 C   0  0  0  0  0  0  0  0  0  0  0  0
    3.9558   -5.2723   -1.8337 C   0  0  0  0  0  0  0  0  0  0  0  0
    4.8993   -5.3941   -0.8230 C   0  0  0  0  0  0  0  0  0  0  0  0
    4.6957   -4.7734    0.4204 C   0  0  0  0  0  0  0  0  0  0  0  0
    3.3546   -3.5360    1.5923 H   0  0  0  0  0  0  0  0  0  0  0  0
    1.6734   -3.3362   -0.2189 H   0  0  0  0  0  0  0  0  0  0  0  0
    4.1035   -5.7467   -2.7963 H   0  0  0  0  0  0  0  0  0  0  0  0
    5.8114   -5.9615   -0.9741 H   0  0  0  0  0  0  0  0  0  0  0  0
   -9.1001   -8.1562    0.5252 N   0  0  0  0  0  0  0  0  0  0  0  0
  -10.0555   -8.6638    0.2992 N   0  0  0  0  0  0  0  0  0  0  0  0
   -0.1958   -6.5010   -0.7096 C   0  0  0  0  0  0  0  0  0  0  0  0
   -1.1408   -6.5067    0.3159 C   0  0  0  0  0  0  0  0  0  0  0  0
   -2.2356   -5.6324    0.2992 C   0  0  0  0  0  0  0  0  0  0  0  0
   -2.3653   -4.7406   -0.7778 C   0  0  0  0  0  0  0  0  0  0  0  0
   -1.4340   -4.7186   -1.8112 C   0  0  0  0  0  0  0  0  0  0  0  0
   -0.3529   -5.6032   -1.7655 C   0  0  0  0  0  0  0  0  0  0  0  0
    0.6434   -7.1877   -0.7033 H   0  0  0  0  0  0  0  0  0  0  0  0
   -1.0264   -7.2055    1.1405 H   0  0  0  0  0  0  0  0  0  0  0  0
   -3.2115   -4.0589   -0.8086 H   0  0  0  0  0  0  0  0  0  0  0  0
   -1.5430   -4.0401   -2.6507 H   0  0  0  0  0  0  0  0  0  0  0  0
    0.8510   -5.5690   -3.0807 S   0  0  0  0  0  0  0  0  0  0  0  0
    1.8629   -4.3203   -2.6253 O   0  0  0  0  0  0  0  0  0  0  0  0
    0.2282   -5.0593   -4.2931 O   0  0  0  0  0  0  0  0  0  0  0  0
    1.6069   -6.8182   -3.0590 O   0  0  0  0  0  0  0  0  0  0  0  0
   -3.2717   -5.6634    1.3964 C   0  0  0  0  0  0  0  0  0  0  0  0
   -3.5851   -4.6539    1.6788 H   0  0  0  0  0  0  0  0  0  0  0  0
   -4.1703   -6.2007    1.0696 H   0  0  0  0  0  0  0  0  0  0  0  0
   -2.8947   -6.1662    2.2908 H   0  0  0  0  0  0  0  0  0  0  0  0
    5.6896   -4.9528    1.3376 O   0  0  0  0  0  0  0  0  0  0  0  0
    5.5468   -4.3455    2.6116 C   0  0  0  0  0  0  0  0  0  0  0  0
    6.4432   -4.6116    3.1744 H   0  0  0  0  0  0  0  0  0  0  0  0
    5.4799   -3.2525    2.5348 H   0  0  0  0  0  0  0  0  0  0  0  0
    4.6632   -4.7219    3.1436 H   0  0  0  0  0  0  0  0  0  0  0  0
  1  7  1  0  0  0  0
  2  8  1  0  0  0  0
  2  1  2  0  0  0  0
  3  2  1  0  0  0  0
  4  3  2  0  0  0  0
  4  5  1  0  0  0  0
  5  6  2  0  0  0  0
  6  1  1  0  0  0  0
  6 31  1  0  0  0  0
  9  4  1  0  0  0  0
 10  5  1  0  0  0  0
 12 11  3  0  0  0  0
 13 19  1  0  0  0  0
 13 14  2  0  0  0  0
 14 20  1  0  0  0  0
 15 14  1  0  0  0  0
 15 27  1  0  0  0  0
 16 15  2  0  0  0  0
 17 18  2  0  0  0  0
 17 16  1  0  0  0  0
 18 13  1  0  0  0  0
 21 16  1  0  0  0  0
 22 17  1  0  0  0  0
 23 26  2  0  0  0  0
 23 24  1  0  0  0  0
 23 18  1  0  0  0  0
 24  3  1  0  0  0  0
 25 23  2  0  0  0  0
 27 28  1  0  0  0  0
 27 30  1  0  0  0  0
 29 27  1  0  0  0  0
 31 32  1  0  0  0  0
 32 35  1  0  0  0  0
 32 33  1  0  0  0  0
 34 32  1  0  0  0  0
M  END
