Coordinates from ORCA-job 4-MeO-Ph-N2-OTs-B3LYPG-6-31G_dp-MTMO-d009-169-n800
 OpenBabel09051908173D

 35 35  0  0  0  0  0  0  0  0999 V2000
    2.9238   -3.9201    0.6912 C   0  0  0  0  0  0  0  0  0  0  0  0
    1.7802   -3.9032   -0.1122 C   0  0  0  0  0  0  0  0  0  0  0  0
    1.8617   -4.2849   -1.4469 C   0  0  0  0  0  0  0  0  0  0  0  0
    3.0792   -4.6926   -2.0011 C   0  0  0  0  0  0  0  0  0  0  0  0
    4.2139   -4.7203   -1.2019 C   0  0  0  0  0  0  0  0  0  0  0  0
    4.1462   -4.3332    0.1466 C   0  0  0  0  0  0  0  0  0  0  0  0
    2.8473   -3.6094    1.7258 H   0  0  0  0  0  0  0  0  0  0  0  0
    0.8263   -3.5810    0.2912 H   0  0  0  0  0  0  0  0  0  0  0  0
    3.1217   -4.9882   -3.0422 H   0  0  0  0  0  0  0  0  0  0  0  0
    5.1722   -5.0331   -1.6023 H   0  0  0  0  0  0  0  0  0  0  0  0
   -3.3348   -2.7877   -3.2033 N   0  0  0  0  0  0  0  0  0  0  0  0
   -3.1307   -2.2624   -4.1537 N   0  0  0  0  0  0  0  0  0  0  0  0
   -0.2704   -7.1387   -0.5316 C   0  0  0  0  0  0  0  0  0  0  0  0
   -0.9115   -7.5866    0.6231 C   0  0  0  0  0  0  0  0  0  0  0  0
   -2.1394   -7.0466    1.0272 C   0  0  0  0  0  0  0  0  0  0  0  0
   -2.7229   -6.0416    0.2381 C   0  0  0  0  0  0  0  0  0  0  0  0
   -2.1015   -5.5801   -0.9179 C   0  0  0  0  0  0  0  0  0  0  0  0
   -0.8737   -6.1361   -1.2907 C   0  0  0  0  0  0  0  0  0  0  0  0
    0.6716   -7.5671   -0.8528 H   0  0  0  0  0  0  0  0  0  0  0  0
   -0.4521   -8.3733    1.2154 H   0  0  0  0  0  0  0  0  0  0  0  0
   -3.6817   -5.6223    0.5298 H   0  0  0  0  0  0  0  0  0  0  0  0
   -2.5631   -4.8162   -1.5343 H   0  0  0  0  0  0  0  0  0  0  0  0
   -0.0658   -5.5472   -2.7669 S   0  0  0  0  0  0  0  0  0  0  0  0
    0.7147   -4.1669   -2.2425 O   0  0  0  0  0  0  0  0  0  0  0  0
   -1.0605   -5.0243   -3.6923 O   0  0  0  0  0  0  0  0  0  0  0  0
    0.9361   -6.5272   -3.1770 O   0  0  0  0  0  0  0  0  0  0  0  0
   -2.8224   -7.5231    2.2861 C   0  0  0  0  0  0  0  0  0  0  0  0
   -2.7519   -6.7693    3.0803 H   0  0  0  0  0  0  0  0  0  0  0  0
   -3.8872   -7.7109    2.1144 H   0  0  0  0  0  0  0  0  0  0  0  0
   -2.3712   -8.4442    2.6626 H   0  0  0  0  0  0  0  0  0  0  0  0
    5.3221   -4.3910    0.8358 O   0  0  0  0  0  0  0  0  0  0  0  0
    5.3220   -4.0018    2.1999 C   0  0  0  0  0  0  0  0  0  0  0  0
    6.3497   -4.1196    2.5469 H   0  0  0  0  0  0  0  0  0  0  0  0
    5.0185   -2.9540    2.3226 H   0  0  0  0  0  0  0  0  0  0  0  0
    4.6632   -4.6391    2.8034 H   0  0  0  0  0  0  0  0  0  0  0  0
  1  7  1  0  0  0  0
  2  8  1  0  0  0  0
  2  1  2  0  0  0  0
  3  2  1  0  0  0  0
  4  3  2  0  0  0  0
  4  5  1  0  0  0  0
  5  6  2  0  0  0  0
  6  1  1  0  0  0  0
  6 31  1  0  0  0  0
  9  4  1  0  0  0  0
 10  5  1  0  0  0  0
 12 11  3  0  0  0  0
 13 14  2  0  0  0  0
 14 15  1  0  0  0  0
 14 20  1  0  0  0  0
 15 27  1  0  0  0  0
 16 21  1  0  0  0  0
 16 15  2  0  0  0  0
 17 16  1  0  0  0  0
 18 17  2  0  0  0  0
 18 13  1  0  0  0  0
 19 13  1  0  0  0  0
 22 17  1  0  0  0  0
 23 24  1  0  0  0  0
 23 18  1  0  0  0  0
 24  3  1  0  0  0  0
 25 23  2  0  0  0  0
 26 23  2  0  0  0  0
 27 30  1  0  0  0  0
 27 28  1  0  0  0  0
 29 27  1  0  0  0  0
 31 32  1  0  0  0  0
 32 34  1  0  0  0  0
 32 33  1  0  0  0  0
 32 35  1  0  0  0  0
M  END
