Coordinates from ORCA-job 4-MeO-Ph-N2-OTs-B3LYPG-6-31G_dp-MTMO-d009-169-n800
 OpenBabel09051908173D

 35 35  0  0  0  0  0  0  0  0999 V2000
    3.6497   -3.9722    0.6177 C   0  0  0  0  0  0  0  0  0  0  0  0
    2.6825   -3.8753   -0.3869 C   0  0  0  0  0  0  0  0  0  0  0  0
    2.8898   -4.4958   -1.6139 C   0  0  0  0  0  0  0  0  0  0  0  0
    4.0581   -5.2238   -1.8587 C   0  0  0  0  0  0  0  0  0  0  0  0
    5.0161   -5.3280   -0.8597 C   0  0  0  0  0  0  0  0  0  0  0  0
    4.8206   -4.7031    0.3830 C   0  0  0  0  0  0  0  0  0  0  0  0
    3.4789   -3.4769    1.5657 H   0  0  0  0  0  0  0  0  0  0  0  0
    1.7719   -3.3085   -0.2245 H   0  0  0  0  0  0  0  0  0  0  0  0
    4.1994   -5.7015   -2.8206 H   0  0  0  0  0  0  0  0  0  0  0  0
    5.9333   -5.8846   -1.0196 H   0  0  0  0  0  0  0  0  0  0  0  0
  -11.1179   -8.5529    0.3668 N   0  0  0  0  0  0  0  0  0  0  0  0
  -12.0653   -9.0721    0.1332 N   0  0  0  0  0  0  0  0  0  0  0  0
   -0.0618   -6.4983   -0.6717 C   0  0  0  0  0  0  0  0  0  0  0  0
   -0.9933   -6.5094    0.3665 C   0  0  0  0  0  0  0  0  0  0  0  0
   -2.0990   -5.6492    0.3590 C   0  0  0  0  0  0  0  0  0  0  0  0
   -2.2546   -4.7663   -0.7222 C   0  0  0  0  0  0  0  0  0  0  0  0
   -1.3376   -4.7392   -1.7680 C   0  0  0  0  0  0  0  0  0  0  0  0
   -0.2444   -5.6096   -1.7309 C   0  0  0  0  0  0  0  0  0  0  0  0
    0.7859   -7.1744   -0.6722 H   0  0  0  0  0  0  0  0  0  0  0  0
   -0.8592   -7.2015    1.1937 H   0  0  0  0  0  0  0  0  0  0  0  0
   -3.1101   -4.0961   -0.7465 H   0  0  0  0  0  0  0  0  0  0  0  0
   -1.4666   -4.0681   -2.6104 H   0  0  0  0  0  0  0  0  0  0  0  0
    0.9414   -5.5684   -3.0622 S   0  0  0  0  0  0  0  0  0  0  0  0
    1.9426   -4.3038   -2.6278 O   0  0  0  0  0  0  0  0  0  0  0  0
    0.2960   -5.0746   -4.2694 O   0  0  0  0  0  0  0  0  0  0  0  0
    1.7137   -6.8075   -3.0428 O   0  0  0  0  0  0  0  0  0  0  0  0
   -3.1191   -5.6829    1.4711 C   0  0  0  0  0  0  0  0  0  0  0  0
   -3.3953   -4.6730    1.7898 H   0  0  0  0  0  0  0  0  0  0  0  0
   -4.0398   -6.1793    1.1418 H   0  0  0  0  0  0  0  0  0  0  0  0
   -2.7450   -6.2250    2.3433 H   0  0  0  0  0  0  0  0  0  0  0  0
    5.8284   -4.8650    1.2881 O   0  0  0  0  0  0  0  0  0  0  0  0
    5.6942   -4.2530    2.5607 C   0  0  0  0  0  0  0  0  0  0  0  0
    6.6009   -4.5052    3.1134 H   0  0  0  0  0  0  0  0  0  0  0  0
    5.6130   -3.1613    2.4794 H   0  0  0  0  0  0  0  0  0  0  0  0
    4.8221   -4.6374    3.1057 H   0  0  0  0  0  0  0  0  0  0  0  0
  1  7  1  0  0  0  0
  2  8  1  0  0  0  0
  2  1  2  0  0  0  0
  3  2  1  0  0  0  0
  4  3  2  0  0  0  0
  4  5  1  0  0  0  0
  5  6  2  0  0  0  0
  6  1  1  0  0  0  0
  6 31  1  0  0  0  0
  9  4  1  0  0  0  0
 10  5  1  0  0  0  0
 12 11  3  0  0  0  0
 13 14  2  0  0  0  0
 14 20  1  0  0  0  0
 15 14  1  0  0  0  0
 15 27  1  0  0  0  0
 16 15  2  0  0  0  0
 17 18  2  0  0  0  0
 17 16  1  0  0  0  0
 18 13  1  0  0  0  0
 19 13  1  0  0  0  0
 21 16  1  0  0  0  0
 22 17  1  0  0  0  0
 23 26  2  0  0  0  0
 23 24  1  0  0  0  0
 23 18  1  0  0  0  0
 24  3  1  0  0  0  0
 25 23  2  0  0  0  0
 27 28  1  0  0  0  0
 27 30  1  0  0  0  0
 29 27  1  0  0  0  0
 31 32  1  0  0  0  0
 32 35  1  0  0  0  0
 32 33  1  0  0  0  0
 34 32  1  0  0  0  0
M  END
