Coordinates from ORCA-job 4-MeO-Ph-N2-OTs-B3LYPG-6-31G_dp-MTMO-d009-169-n800
 OpenBabel09051908173D

 35 35  0  0  0  0  0  0  0  0999 V2000
    3.4226   -4.0620    0.6984 C   0  0  0  0  0  0  0  0  0  0  0  0
    2.4782   -3.9374   -0.3246 C   0  0  0  0  0  0  0  0  0  0  0  0
    2.7141   -4.5223   -1.5639 C   0  0  0  0  0  0  0  0  0  0  0  0
    3.8887   -5.2422   -1.8028 C   0  0  0  0  0  0  0  0  0  0  0  0
    4.8240   -5.3740   -0.7858 C   0  0  0  0  0  0  0  0  0  0  0  0
    4.5996   -4.7850    0.4695 C   0  0  0  0  0  0  0  0  0  0  0  0
    3.2297   -3.5937    1.6558 H   0  0  0  0  0  0  0  0  0  0  0  0
    1.5635   -3.3760   -0.1667 H   0  0  0  0  0  0  0  0  0  0  0  0
    4.0524   -5.6924   -2.7743 H   0  0  0  0  0  0  0  0  0  0  0  0
    5.7454   -5.9249   -0.9407 H   0  0  0  0  0  0  0  0  0  0  0  0
   -7.3605   -7.5028    0.7234 N   0  0  0  0  0  0  0  0  0  0  0  0
   -8.3494   -7.9684    0.5597 N   0  0  0  0  0  0  0  0  0  0  0  0
   -0.2880   -6.5399   -0.7613 C   0  0  0  0  0  0  0  0  0  0  0  0
   -1.2613   -6.5816    0.2365 C   0  0  0  0  0  0  0  0  0  0  0  0
   -2.3733   -5.7294    0.2031 C   0  0  0  0  0  0  0  0  0  0  0  0
   -2.4898   -4.8221   -0.8623 C   0  0  0  0  0  0  0  0  0  0  0  0
   -1.5302   -4.7638   -1.8682 C   0  0  0  0  0  0  0  0  0  0  0  0
   -0.4330   -5.6275   -1.8065 C   0  0  0  0  0  0  0  0  0  0  0  0
    0.5638   -7.2107   -0.7426 H   0  0  0  0  0  0  0  0  0  0  0  0
   -1.1557   -7.2919    1.0525 H   0  0  0  0  0  0  0  0  0  0  0  0
   -3.3482   -4.1565   -0.9061 H   0  0  0  0  0  0  0  0  0  0  0  0
   -1.6294   -4.0736   -2.6992 H   0  0  0  0  0  0  0  0  0  0  0  0
    0.8019   -5.5539   -3.0912 S   0  0  0  0  0  0  0  0  0  0  0  0
    1.7897   -4.3017   -2.5928 O   0  0  0  0  0  0  0  0  0  0  0  0
    0.2000   -5.0301   -4.3083 O   0  0  0  0  0  0  0  0  0  0  0  0
    1.5723   -6.7943   -3.0739 O   0  0  0  0  0  0  0  0  0  0  0  0
   -3.4384   -5.7997    1.2704 C   0  0  0  0  0  0  0  0  0  0  0  0
   -3.7921   -4.8019    1.5471 H   0  0  0  0  0  0  0  0  0  0  0  0
   -4.3104   -6.3657    0.9207 H   0  0  0  0  0  0  0  0  0  0  0  0
   -3.0684   -6.2920    2.1737 H   0  0  0  0  0  0  0  0  0  0  0  0
    5.5870   -4.9717    1.3922 O   0  0  0  0  0  0  0  0  0  0  0  0
    5.4237   -4.3952    2.6780 C   0  0  0  0  0  0  0  0  0  0  0  0
    6.3179   -4.6622    3.2437 H   0  0  0  0  0  0  0  0  0  0  0  0
    5.3432   -3.3017    2.6248 H   0  0  0  0  0  0  0  0  0  0  0  0
    4.5400   -4.7948    3.1924 H   0  0  0  0  0  0  0  0  0  0  0  0
  1  7  1  0  0  0  0
  2  8  1  0  0  0  0
  2  1  2  0  0  0  0
  3  2  1  0  0  0  0
  4  3  2  0  0  0  0
  4  5  1  0  0  0  0
  5  6  2  0  0  0  0
  6  1  1  0  0  0  0
  6 31  1  0  0  0  0
  9  4  1  0  0  0  0
 10  5  1  0  0  0  0
 12 11  3  0  0  0  0
 13 19  1  0  0  0  0
 13 14  2  0  0  0  0
 14 20  1  0  0  0  0
 15 14  1  0  0  0  0
 15 27  1  0  0  0  0
 16 15  2  0  0  0  0
 17 18  2  0  0  0  0
 17 16  1  0  0  0  0
 18 13  1  0  0  0  0
 21 16  1  0  0  0  0
 22 17  1  0  0  0  0
 23 26  2  0  0  0  0
 23 24  1  0  0  0  0
 23 18  1  0  0  0  0
 24  3  1  0  0  0  0
 25 23  2  0  0  0  0
 27 28  1  0  0  0  0
 27 30  1  0  0  0  0
 29 27  1  0  0  0  0
 31 32  1  0  0  0  0
 32 35  1  0  0  0  0
 32 33  1  0  0  0  0
 34 32  1  0  0  0  0
M  END
