Coordinates from ORCA-job 4-MeO-Ph-N2-OTs-B3LYPG-6-31G_dp-MTMO-d009-169-n800
 OpenBabel09051908173D

 35 35  0  0  0  0  0  0  0  0999 V2000
    3.0955   -3.8971    0.6895 C   0  0  0  0  0  0  0  0  0  0  0  0
    2.1492   -3.9114   -0.3391 C   0  0  0  0  0  0  0  0  0  0  0  0
    2.4741   -4.4577   -1.5758 C   0  0  0  0  0  0  0  0  0  0  0  0
    3.7424   -4.9995   -1.8069 C   0  0  0  0  0  0  0  0  0  0  0  0
    4.6803   -4.9952   -0.7836 C   0  0  0  0  0  0  0  0  0  0  0  0
    4.3657   -4.4439    0.4693 C   0  0  0  0  0  0  0  0  0  0  0  0
    2.8310   -3.4608    1.6449 H   0  0  0  0  0  0  0  0  0  0  0  0
    1.1624   -3.4875   -0.1879 H   0  0  0  0  0  0  0  0  0  0  0  0
    3.9760   -5.4213   -2.7768 H   0  0  0  0  0  0  0  0  0  0  0  0
    5.6718   -5.4090   -0.9318 H   0  0  0  0  0  0  0  0  0  0  0  0
   -6.3016   -4.3302    0.2769 N   0  0  0  0  0  0  0  0  0  0  0  0
   -7.2526   -3.7843    0.4144 N   0  0  0  0  0  0  0  0  0  0  0  0
   -0.0475   -6.9794   -0.7859 C   0  0  0  0  0  0  0  0  0  0  0  0
   -0.9584   -7.2214    0.2391 C   0  0  0  0  0  0  0  0  0  0  0  0
   -2.2129   -6.5919    0.2609 C   0  0  0  0  0  0  0  0  0  0  0  0
   -2.5379   -5.7089   -0.7788 C   0  0  0  0  0  0  0  0  0  0  0  0
   -1.6399   -5.4518   -1.8137 C   0  0  0  0  0  0  0  0  0  0  0  0
   -0.3992   -6.0912   -1.8058 C   0  0  0  0  0  0  0  0  0  0  0  0
    0.9140   -7.4789   -0.8118 H   0  0  0  0  0  0  0  0  0  0  0  0
   -0.6935   -7.9156    1.0327 H   0  0  0  0  0  0  0  0  0  0  0  0
   -3.5091   -5.2225   -0.7811 H   0  0  0  0  0  0  0  0  0  0  0  0
   -1.8982   -4.7814   -2.6263 H   0  0  0  0  0  0  0  0  0  0  0  0
    0.7557   -5.7630   -3.1234 S   0  0  0  0  0  0  0  0  0  0  0  0
    1.5310   -4.3750   -2.6079 O   0  0  0  0  0  0  0  0  0  0  0  0
    0.0319   -5.3131   -4.3029 O   0  0  0  0  0  0  0  0  0  0  0  0
    1.7286   -6.8510   -3.1755 O   0  0  0  0  0  0  0  0  0  0  0  0
   -3.1882   -6.8679    1.3800 C   0  0  0  0  0  0  0  0  0  0  0  0
   -2.7762   -6.5572    2.3470 H   0  0  0  0  0  0  0  0  0  0  0  0
   -4.1304   -6.3360    1.2301 H   0  0  0  0  0  0  0  0  0  0  0  0
   -3.4111   -7.9378    1.4549 H   0  0  0  0  0  0  0  0  0  0  0  0
    5.3630   -4.4872    1.3991 O   0  0  0  0  0  0  0  0  0  0  0  0
    5.1122   -3.9330    2.6807 C   0  0  0  0  0  0  0  0  0  0  0  0
    6.0306   -4.0717    3.2538 H   0  0  0  0  0  0  0  0  0  0  0  0
    4.8826   -2.8614    2.6210 H   0  0  0  0  0  0  0  0  0  0  0  0
    4.2881   -4.4480    3.1913 H   0  0  0  0  0  0  0  0  0  0  0  0
  1  7  1  0  0  0  0
  2  8  1  0  0  0  0
  2  1  2  0  0  0  0
  3  2  1  0  0  0  0
  4  3  2  0  0  0  0
  4  5  1  0  0  0  0
  5  6  2  0  0  0  0
  6  1  1  0  0  0  0
  6 31  1  0  0  0  0
  9  4  1  0  0  0  0
 10  5  1  0  0  0  0
 11 12  3  0  0  0  0
 13 14  2  0  0  0  0
 14 15  1  0  0  0  0
 14 20  1  0  0  0  0
 15 27  1  0  0  0  0
 16 15  2  0  0  0  0
 17 18  2  0  0  0  0
 17 16  1  0  0  0  0
 18 13  1  0  0  0  0
 19 13  1  0  0  0  0
 21 16  1  0  0  0  0
 22 17  1  0  0  0  0
 23 24  1  0  0  0  0
 23 18  1  0  0  0  0
 24  3  1  0  0  0  0
 25 23  2  0  0  0  0
 26 23  2  0  0  0  0
 27 30  1  0  0  0  0
 27 28  1  0  0  0  0
 29 27  1  0  0  0  0
 31 32  1  0  0  0  0
 32 35  1  0  0  0  0
 32 33  1  0  0  0  0
 34 32  1  0  0  0  0
M  END
