Coordinates from ORCA-job 4-MeO-Ph-N2-OTs-B3LYPG-6-31G_dp-MTMO-d009-169-n800
 OpenBabel09051908173D

 35 35  0  0  0  0  0  0  0  0999 V2000
    4.2684   -2.0804   -0.3013 C   0  0  0  0  0  0  0  0  0  0  0  0
    2.9867   -2.1137   -0.8464 C   0  0  0  0  0  0  0  0  0  0  0  0
    2.3604   -3.3494   -0.9183 C   0  0  0  0  0  0  0  0  0  0  0  0
    2.9001   -4.5579   -0.5038 C   0  0  0  0  0  0  0  0  0  0  0  0
    4.1834   -4.4993    0.0211 C   0  0  0  0  0  0  0  0  0  0  0  0
    4.8701   -3.2747    0.1345 C   0  0  0  0  0  0  0  0  0  0  0  0
    4.7808   -1.1298   -0.2246 H   0  0  0  0  0  0  0  0  0  0  0  0
    2.5017   -1.2099   -1.1948 H   0  0  0  0  0  0  0  0  0  0  0  0
    2.3556   -5.4950   -0.6014 H   0  0  0  0  0  0  0  0  0  0  0  0
    4.6789   -5.4023    0.3590 H   0  0  0  0  0  0  0  0  0  0  0  0
    0.9238   -3.3124   -1.5769 N   0  0  0  0  0  0  0  0  0  0  0  0
    0.2322   -2.7540   -2.2599 N   0  0  0  0  0  0  0  0  0  0  0  0
   -1.4078   -7.8558    0.3625 C   0  0  0  0  0  0  0  0  0  0  0  0
   -2.5306   -8.4685    0.9139 C   0  0  0  0  0  0  0  0  0  0  0  0
   -3.8172   -8.2015    0.4229 C   0  0  0  0  0  0  0  0  0  0  0  0
   -3.9485   -7.3091   -0.6502 C   0  0  0  0  0  0  0  0  0  0  0  0
   -2.8343   -6.6874   -1.2118 C   0  0  0  0  0  0  0  0  0  0  0  0
   -1.5669   -6.9619   -0.6979 C   0  0  0  0  0  0  0  0  0  0  0  0
   -0.4116   -8.0772    0.7292 H   0  0  0  0  0  0  0  0  0  0  0  0
   -2.4069   -9.1705    1.7353 H   0  0  0  0  0  0  0  0  0  0  0  0
   -4.9360   -7.1037   -1.0558 H   0  0  0  0  0  0  0  0  0  0  0  0
   -2.9340   -6.0116   -2.0543 H   0  0  0  0  0  0  0  0  0  0  0  0
   -0.1317   -6.1386   -1.3919 S   0  0  0  0  0  0  0  0  0  0  0  0
    0.0187   -4.8962   -0.4935 O   0  0  0  0  0  0  0  0  0  0  0  0
   -0.4533   -5.7550   -2.7809 O   0  0  0  0  0  0  0  0  0  0  0  0
    1.0238   -7.0497   -1.2032 O   0  0  0  0  0  0  0  0  0  0  0  0
   -5.0308   -8.8472    1.0492 C   0  0  0  0  0  0  0  0  0  0  0  0
   -5.8695   -8.8889    0.3478 H   0  0  0  0  0  0  0  0  0  0  0  0
   -4.8149   -9.8671    1.3813 H   0  0  0  0  0  0  0  0  0  0  0  0
   -5.3673   -8.2846    1.9288 H   0  0  0  0  0  0  0  0  0  0  0  0
    6.1057   -3.3498    0.6747 O   0  0  0  0  0  0  0  0  0  0  0  0
    6.8663   -2.1555    0.8322 C   0  0  0  0  0  0  0  0  0  0  0  0
    7.8101   -2.4623    1.2826 H   0  0  0  0  0  0  0  0  0  0  0  0
    7.0642   -1.6774   -0.1342 H   0  0  0  0  0  0  0  0  0  0  0  0
    6.3601   -1.4448    1.4966 H   0  0  0  0  0  0  0  0  0  0  0  0
  1  7  1  0  0  0  0
  1  6  2  0  0  0  0
  2  1  1  0  0  0  0
  3  2  2  0  0  0  0
  3  4  1  0  0  0  0
  4  5  2  0  0  0  0
  5  6  1  0  0  0  0
  5 10  1  0  0  0  0
  6 31  1  0  0  0  0
  8  2  1  0  0  0  0
  9  4  1  0  0  0  0
 11  3  1  0  0  0  0
 12 11  2  0  0  0  0
 13 19  1  0  0  0  0
 13 14  2  0  0  0  0
 14 20  1  0  0  0  0
 15 14  1  0  0  0  0
 15 27  1  0  0  0  0
 16 15  2  0  0  0  0
 17 18  2  0  0  0  0
 17 16  1  0  0  0  0
 18 13  1  0  0  0  0
 21 16  1  0  0  0  0
 22 17  1  0  0  0  0
 23 26  2  0  0  0  0
 23 18  1  0  0  0  0
 23 24  1  0  0  0  0
 25 23  2  0  0  0  0
 27 29  1  0  0  0  0
 27 30  1  0  0  0  0
 28 27  1  0  0  0  0
 31 32  1  0  0  0  0
 32 33  1  0  0  0  0
 32 35  1  0  0  0  0
 34 32  1  0  0  0  0
M  RAD  2  12   2  24   2
M  END
