Coordinates from ORCA-job 4-MeO-Ph-N2-OTs-B3LYPG-6-31G_dp-MTMO-d009-169-n800
 OpenBabel09051908173D

 35 35  0  0  0  0  0  0  0  0999 V2000
    2.7777   -3.8529    0.5892 C   0  0  0  0  0  0  0  0  0  0  0  0
    1.6369   -3.9119   -0.2161 C   0  0  0  0  0  0  0  0  0  0  0  0
    1.7374   -4.3431   -1.5342 C   0  0  0  0  0  0  0  0  0  0  0  0
    2.9711   -4.7264   -2.0696 C   0  0  0  0  0  0  0  0  0  0  0  0
    4.1035   -4.6785   -1.2682 C   0  0  0  0  0  0  0  0  0  0  0  0
    4.0166   -4.2403    0.0635 C   0  0  0  0  0  0  0  0  0  0  0  0
    2.6863   -3.5049    1.6106 H   0  0  0  0  0  0  0  0  0  0  0  0
    0.6701   -3.6107    0.1724 H   0  0  0  0  0  0  0  0  0  0  0  0
    3.0277   -5.0618   -3.0978 H   0  0  0  0  0  0  0  0  0  0  0  0
    5.0743   -4.9705   -1.6539 H   0  0  0  0  0  0  0  0  0  0  0  0
   -2.1245   -2.3388   -2.7002 N   0  0  0  0  0  0  0  0  0  0  0  0
   -1.7019   -1.7287   -3.5187 N   0  0  0  0  0  0  0  0  0  0  0  0
   -0.3307   -7.3005   -0.5472 C   0  0  0  0  0  0  0  0  0  0  0  0
   -0.9555   -7.7250    0.6254 C   0  0  0  0  0  0  0  0  0  0  0  0
   -2.1549   -7.1459    1.0589 C   0  0  0  0  0  0  0  0  0  0  0  0
   -2.7263   -6.1241    0.2820 C   0  0  0  0  0  0  0  0  0  0  0  0
   -2.1216   -5.6869   -0.8917 C   0  0  0  0  0  0  0  0  0  0  0  0
   -0.9222   -6.2830   -1.2948 C   0  0  0  0  0  0  0  0  0  0  0  0
    0.5908   -7.7559   -0.8903 H   0  0  0  0  0  0  0  0  0  0  0  0
   -0.5051   -8.5231    1.2091 H   0  0  0  0  0  0  0  0  0  0  0  0
   -3.6623   -5.6720    0.5986 H   0  0  0  0  0  0  0  0  0  0  0  0
   -2.5708   -4.9052   -1.4948 H   0  0  0  0  0  0  0  0  0  0  0  0
   -0.1405   -5.7310   -2.7995 S   0  0  0  0  0  0  0  0  0  0  0  0
    0.5898   -4.3014   -2.3369 O   0  0  0  0  0  0  0  0  0  0  0  0
   -1.1546   -5.2829   -3.7425 O   0  0  0  0  0  0  0  0  0  0  0  0
    0.8943   -6.6918   -3.1713 O   0  0  0  0  0  0  0  0  0  0  0  0
   -2.8207   -7.5974    2.3360 C   0  0  0  0  0  0  0  0  0  0  0  0
   -2.7282   -6.8336    3.1183 H   0  0  0  0  0  0  0  0  0  0  0  0
   -3.8904   -7.7756    2.1853 H   0  0  0  0  0  0  0  0  0  0  0  0
   -2.3734   -8.5184    2.7170 H   0  0  0  0  0  0  0  0  0  0  0  0
    5.1918   -4.2257    0.7561 O   0  0  0  0  0  0  0  0  0  0  0  0
    5.1734   -3.7831    2.1038 C   0  0  0  0  0  0  0  0  0  0  0  0
    6.2036   -3.8492    2.4568 H   0  0  0  0  0  0  0  0  0  0  0  0
    4.8315   -2.7432    2.1845 H   0  0  0  0  0  0  0  0  0  0  0  0
    4.5366   -4.4199    2.7312 H   0  0  0  0  0  0  0  0  0  0  0  0
  1  7  1  0  0  0  0
  2  8  1  0  0  0  0
  2  1  2  0  0  0  0
  3  2  1  0  0  0  0
  4  3  2  0  0  0  0
  4  5  1  0  0  0  0
  5  6  2  0  0  0  0
  6  1  1  0  0  0  0
  6 31  1  0  0  0  0
  9  4  1  0  0  0  0
 10  5  1  0  0  0  0
 12 11  3  0  0  0  0
 13 14  2  0  0  0  0
 14 15  1  0  0  0  0
 14 20  1  0  0  0  0
 15 27  1  0  0  0  0
 16 21  1  0  0  0  0
 16 15  2  0  0  0  0
 17 16  1  0  0  0  0
 18 17  2  0  0  0  0
 18 13  1  0  0  0  0
 19 13  1  0  0  0  0
 22 17  1  0  0  0  0
 23 24  1  0  0  0  0
 23 18  1  0  0  0  0
 24  3  1  0  0  0  0
 25 23  2  0  0  0  0
 26 23  2  0  0  0  0
 27 30  1  0  0  0  0
 27 28  1  0  0  0  0
 29 27  1  0  0  0  0
 31 32  1  0  0  0  0
 32 34  1  0  0  0  0
 32 33  1  0  0  0  0
 32 35  1  0  0  0  0
M  END
