Coordinates from ORCA-job 4-MeO-Ph-N2-OTs-B3LYPG-6-31G_dp-MTMO-d009-169-n800
 OpenBabel09051908173D

 35 35  0  0  0  0  0  0  0  0999 V2000
    2.8102   -3.8689    0.6132 C   0  0  0  0  0  0  0  0  0  0  0  0
    1.6675   -3.9143   -0.1903 C   0  0  0  0  0  0  0  0  0  0  0  0
    1.7634   -4.3313   -1.5133 C   0  0  0  0  0  0  0  0  0  0  0  0
    2.9944   -4.7135   -2.0555 C   0  0  0  0  0  0  0  0  0  0  0  0
    4.1287   -4.6791   -1.2561 C   0  0  0  0  0  0  0  0  0  0  0  0
    4.0464   -4.2556    0.0806 C   0  0  0  0  0  0  0  0  0  0  0  0
    2.7223   -3.5318    1.6385 H   0  0  0  0  0  0  0  0  0  0  0  0
    0.7027   -3.6136    0.2038 H   0  0  0  0  0  0  0  0  0  0  0  0
    3.0475   -5.0378   -3.0875 H   0  0  0  0  0  0  0  0  0  0  0  0
    5.0974   -4.9708   -1.6472 H   0  0  0  0  0  0  0  0  0  0  0  0
   -2.4069   -2.4035   -2.8503 N   0  0  0  0  0  0  0  0  0  0  0  0
   -2.0000   -1.8080   -3.6873 N   0  0  0  0  0  0  0  0  0  0  0  0
   -0.3223   -7.2777   -0.5435 C   0  0  0  0  0  0  0  0  0  0  0  0
   -0.9517   -7.7068    0.6250 C   0  0  0  0  0  0  0  0  0  0  0  0
   -2.1530   -7.1296    1.0558 C   0  0  0  0  0  0  0  0  0  0  0  0
   -2.7215   -6.1049    0.2806 C   0  0  0  0  0  0  0  0  0  0  0  0
   -2.1121   -5.6630   -0.8890 C   0  0  0  0  0  0  0  0  0  0  0  0
   -0.9110   -6.2574   -1.2895 C   0  0  0  0  0  0  0  0  0  0  0  0
    0.6006   -7.7318   -0.8846 H   0  0  0  0  0  0  0  0  0  0  0  0
   -0.5037   -8.5072    1.2074 H   0  0  0  0  0  0  0  0  0  0  0  0
   -3.6588   -5.6544    0.5950 H   0  0  0  0  0  0  0  0  0  0  0  0
   -2.5597   -4.8794   -1.4910 H   0  0  0  0  0  0  0  0  0  0  0  0
   -0.1223   -5.6986   -2.7879 S   0  0  0  0  0  0  0  0  0  0  0  0
    0.6143   -4.2766   -2.3131 O   0  0  0  0  0  0  0  0  0  0  0  0
   -1.1320   -5.2387   -3.7302 O   0  0  0  0  0  0  0  0  0  0  0  0
    0.9081   -6.6622   -3.1644 O   0  0  0  0  0  0  0  0  0  0  0  0
   -2.8245   -7.5867    2.3280 C   0  0  0  0  0  0  0  0  0  0  0  0
   -2.7432   -6.8228    3.1113 H   0  0  0  0  0  0  0  0  0  0  0  0
   -3.8918   -7.7725    2.1695 H   0  0  0  0  0  0  0  0  0  0  0  0
   -2.3734   -8.5048    2.7115 H   0  0  0  0  0  0  0  0  0  0  0  0
    5.2231   -4.2535    0.7708 O   0  0  0  0  0  0  0  0  0  0  0  0
    5.2090   -3.8275    2.1238 C   0  0  0  0  0  0  0  0  0  0  0  0
    6.2396   -3.9023    2.4741 H   0  0  0  0  0  0  0  0  0  0  0  0
    4.8717   -2.7872    2.2180 H   0  0  0  0  0  0  0  0  0  0  0  0
    4.5706   -4.4693    2.7445 H   0  0  0  0  0  0  0  0  0  0  0  0
  1  7  1  0  0  0  0
  2  8  1  0  0  0  0
  2  1  2  0  0  0  0
  3  2  1  0  0  0  0
  4  3  2  0  0  0  0
  4  5  1  0  0  0  0
  5  6  2  0  0  0  0
  6  1  1  0  0  0  0
  6 31  1  0  0  0  0
  9  4  1  0  0  0  0
 10  5  1  0  0  0  0
 12 11  3  0  0  0  0
 13 14  2  0  0  0  0
 14 15  1  0  0  0  0
 14 20  1  0  0  0  0
 15 27  1  0  0  0  0
 16 21  1  0  0  0  0
 16 15  2  0  0  0  0
 17 16  1  0  0  0  0
 18 17  2  0  0  0  0
 18 13  1  0  0  0  0
 19 13  1  0  0  0  0
 22 17  1  0  0  0  0
 23 24  1  0  0  0  0
 23 18  1  0  0  0  0
 24  3  1  0  0  0  0
 25 23  2  0  0  0  0
 26 23  2  0  0  0  0
 27 30  1  0  0  0  0
 27 28  1  0  0  0  0
 29 27  1  0  0  0  0
 31 32  1  0  0  0  0
 32 34  1  0  0  0  0
 32 33  1  0  0  0  0
 32 35  1  0  0  0  0
M  END
