Coordinates from ORCA-job 4-MeO-Ph-N2-OTs-B3LYPG-6-31G_dp-MTMO-d009-169-n800
 OpenBabel09051908173D

 35 35  0  0  0  0  0  0  0  0999 V2000
    3.0575   -3.9403    0.7631 C   0  0  0  0  0  0  0  0  0  0  0  0
    1.9870   -3.8931   -0.1343 C   0  0  0  0  0  0  0  0  0  0  0  0
    2.1668   -4.2925   -1.4540 C   0  0  0  0  0  0  0  0  0  0  0  0
    3.4115   -4.7482   -1.8997 C   0  0  0  0  0  0  0  0  0  0  0  0
    4.4733   -4.8056   -1.0073 C   0  0  0  0  0  0  0  0  0  0  0  0
    4.3059   -4.4013    0.3273 C   0  0  0  0  0  0  0  0  0  0  0  0
    2.9052   -3.6160    1.7852 H   0  0  0  0  0  0  0  0  0  0  0  0
    1.0145   -3.5337    0.1844 H   0  0  0  0  0  0  0  0  0  0  0  0
    3.5311   -5.0574   -2.9309 H   0  0  0  0  0  0  0  0  0  0  0  0
    5.4503   -5.1557   -1.3227 H   0  0  0  0  0  0  0  0  0  0  0  0
   -5.1067   -3.6395   -2.0618 N   0  0  0  0  0  0  0  0  0  0  0  0
   -5.8299   -3.1677   -2.7515 N   0  0  0  0  0  0  0  0  0  0  0  0
   -0.1397   -7.0325   -0.6696 C   0  0  0  0  0  0  0  0  0  0  0  0
   -0.8961   -7.4341    0.4308 C   0  0  0  0  0  0  0  0  0  0  0  0
   -2.1419   -6.8552    0.7059 C   0  0  0  0  0  0  0  0  0  0  0  0
   -2.6247   -5.8591   -0.1585 C   0  0  0  0  0  0  0  0  0  0  0  0
   -1.8861   -5.4436   -1.2616 C   0  0  0  0  0  0  0  0  0  0  0  0
   -0.6441   -6.0363   -1.5057 C   0  0  0  0  0  0  0  0  0  0  0  0
    0.8162   -7.4925   -0.8917 H   0  0  0  0  0  0  0  0  0  0  0  0
   -0.5134   -8.2157    1.0817 H   0  0  0  0  0  0  0  0  0  0  0  0
   -3.5958   -5.4090    0.0274 H   0  0  0  0  0  0  0  0  0  0  0  0
   -2.2705   -4.6869   -1.9369 H   0  0  0  0  0  0  0  0  0  0  0  0
    0.3094   -5.5048   -2.9149 S   0  0  0  0  0  0  0  0  0  0  0  0
    1.0952   -4.1454   -2.3440 O   0  0  0  0  0  0  0  0  0  0  0  0
   -0.5827   -4.9629   -3.9289 O   0  0  0  0  0  0  0  0  0  0  0  0
    1.3049   -6.5283   -3.2211 O   0  0  0  0  0  0  0  0  0  0  0  0
   -2.9485   -7.2801    1.9086 C   0  0  0  0  0  0  0  0  0  0  0  0
   -2.8937   -6.5261    2.7041 H   0  0  0  0  0  0  0  0  0  0  0  0
   -4.0061   -7.4044    1.6553 H   0  0  0  0  0  0  0  0  0  0  0  0
   -2.5845   -8.2235    2.3227 H   0  0  0  0  0  0  0  0  0  0  0  0
    5.4168   -4.4923    1.1139 O   0  0  0  0  0  0  0  0  0  0  0  0
    5.3157   -4.0900    2.4704 C   0  0  0  0  0  0  0  0  0  0  0  0
    6.3058   -4.2402    2.9039 H   0  0  0  0  0  0  0  0  0  0  0  0
    5.0405   -3.0312    2.5604 H   0  0  0  0  0  0  0  0  0  0  0  0
    4.5863   -4.6981    3.0208 H   0  0  0  0  0  0  0  0  0  0  0  0
  1  7  1  0  0  0  0
  2  8  1  0  0  0  0
  2  1  2  0  0  0  0
  3  2  1  0  0  0  0
  4  3  2  0  0  0  0
  4  5  1  0  0  0  0
  5  6  2  0  0  0  0
  6  1  1  0  0  0  0
  6 31  1  0  0  0  0
  9  4  1  0  0  0  0
 10  5  1  0  0  0  0
 12 11  3  0  0  0  0
 13 14  2  0  0  0  0
 14 15  1  0  0  0  0
 14 20  1  0  0  0  0
 15 27  1  0  0  0  0
 16 21  1  0  0  0  0
 16 15  2  0  0  0  0
 17 16  1  0  0  0  0
 18 17  2  0  0  0  0
 18 13  1  0  0  0  0
 19 13  1  0  0  0  0
 22 17  1  0  0  0  0
 23 24  1  0  0  0  0
 23 18  1  0  0  0  0
 24  3  1  0  0  0  0
 25 23  2  0  0  0  0
 26 23  2  0  0  0  0
 27 30  1  0  0  0  0
 27 28  1  0  0  0  0
 29 27  1  0  0  0  0
 31 32  1  0  0  0  0
 32 34  1  0  0  0  0
 32 33  1  0  0  0  0
 32 35  1  0  0  0  0
M  END
