Coordinates from ORCA-job 4-MeO-Ph-N2-OTs-B3LYPG-6-31G_dp-MTMO-d009-169-n800
 OpenBabel09051908173D

 35 35  0  0  0  0  0  0  0  0999 V2000
    4.2446   -2.0863   -0.2949 C   0  0  0  0  0  0  0  0  0  0  0  0
    2.9763   -2.1278   -0.8630 C   0  0  0  0  0  0  0  0  0  0  0  0
    2.3463   -3.3666   -0.9712 C   0  0  0  0  0  0  0  0  0  0  0  0
    2.9091   -4.5728   -0.5562 C   0  0  0  0  0  0  0  0  0  0  0  0
    4.1805   -4.5104   -0.0100 C   0  0  0  0  0  0  0  0  0  0  0  0
    4.8524   -3.2807    0.1346 C   0  0  0  0  0  0  0  0  0  0  0  0
    4.7444   -1.1314   -0.1942 H   0  0  0  0  0  0  0  0  0  0  0  0
    2.4901   -1.2221   -1.2062 H   0  0  0  0  0  0  0  0  0  0  0  0
    2.3778   -5.5144   -0.6730 H   0  0  0  0  0  0  0  0  0  0  0  0
    4.6794   -5.4131    0.3236 H   0  0  0  0  0  0  0  0  0  0  0  0
    0.9962   -3.3317   -1.6257 N   0  0  0  0  0  0  0  0  0  0  0  0
    0.2820   -2.8149   -2.3199 N   0  0  0  0  0  0  0  0  0  0  0  0
   -1.3936   -7.8633    0.3438 C   0  0  0  0  0  0  0  0  0  0  0  0
   -2.5131   -8.4698    0.9084 C   0  0  0  0  0  0  0  0  0  0  0  0
   -3.8050   -8.1852    0.4417 C   0  0  0  0  0  0  0  0  0  0  0  0
   -3.9449   -7.2816   -0.6208 C   0  0  0  0  0  0  0  0  0  0  0  0
   -2.8337   -6.6660   -1.1952 C   0  0  0  0  0  0  0  0  0  0  0  0
   -1.5606   -6.9575   -0.7054 C   0  0  0  0  0  0  0  0  0  0  0  0
   -0.3938   -8.0987    0.6916 H   0  0  0  0  0  0  0  0  0  0  0  0
   -2.3830   -9.1808    1.7210 H   0  0  0  0  0  0  0  0  0  0  0  0
   -4.9368   -7.0626   -1.0081 H   0  0  0  0  0  0  0  0  0  0  0  0
   -2.9401   -5.9813   -2.0297 H   0  0  0  0  0  0  0  0  0  0  0  0
   -0.1284   -6.1412   -1.4143 S   0  0  0  0  0  0  0  0  0  0  0  0
    0.0647   -4.9188   -0.5032 O   0  0  0  0  0  0  0  0  0  0  0  0
   -0.4765   -5.7291   -2.7902 O   0  0  0  0  0  0  0  0  0  0  0  0
    1.0161   -7.0748   -1.2726 O   0  0  0  0  0  0  0  0  0  0  0  0
   -5.0147   -8.8246    1.0820 C   0  0  0  0  0  0  0  0  0  0  0  0
   -5.8631   -8.8574    0.3920 H   0  0  0  0  0  0  0  0  0  0  0  0
   -4.8018   -9.8473    1.4073 H   0  0  0  0  0  0  0  0  0  0  0  0
   -5.3353   -8.2631    1.9683 H   0  0  0  0  0  0  0  0  0  0  0  0
    6.0769   -3.3498    0.6957 O   0  0  0  0  0  0  0  0  0  0  0  0
    6.8235   -2.1503    0.8854 C   0  0  0  0  0  0  0  0  0  0  0  0
    7.7619   -2.4561    1.3474 H   0  0  0  0  0  0  0  0  0  0  0  0
    7.0334   -1.6559   -0.0700 H   0  0  0  0  0  0  0  0  0  0  0  0
    6.2985   -1.4557    1.5518 H   0  0  0  0  0  0  0  0  0  0  0  0
  1  7  1  0  0  0  0
  1  6  2  0  0  0  0
  2  1  1  0  0  0  0
  3  2  2  0  0  0  0
  3  4  1  0  0  0  0
  4  5  2  0  0  0  0
  5  6  1  0  0  0  0
  5 10  1  0  0  0  0
  6 31  1  0  0  0  0
  8  2  1  0  0  0  0
  9  4  1  0  0  0  0
 11  3  1  0  0  0  0
 12 11  2  0  0  0  0
 13 19  1  0  0  0  0
 13 14  2  0  0  0  0
 14 20  1  0  0  0  0
 15 14  1  0  0  0  0
 15 27  1  0  0  0  0
 16 15  2  0  0  0  0
 17 18  2  0  0  0  0
 17 16  1  0  0  0  0
 18 13  1  0  0  0  0
 21 16  1  0  0  0  0
 22 17  1  0  0  0  0
 23 26  2  0  0  0  0
 23 18  1  0  0  0  0
 23 24  1  0  0  0  0
 25 23  2  0  0  0  0
 27 29  1  0  0  0  0
 27 30  1  0  0  0  0
 28 27  1  0  0  0  0
 31 32  1  0  0  0  0
 32 33  1  0  0  0  0
 32 35  1  0  0  0  0
 34 32  1  0  0  0  0
M  RAD  2  12   2  24   2
M  END
