Coordinates from ORCA-job 4-MeO-Ph-N2-OTs-B3LYPG-6-31G_dp-MTMO-d009-169-n800
 OpenBabel09051908173D

 35 35  0  0  0  0  0  0  0  0999 V2000
    3.0830   -3.9464    0.7682 C   0  0  0  0  0  0  0  0  0  0  0  0
    2.0164   -3.8924   -0.1334 C   0  0  0  0  0  0  0  0  0  0  0  0
    2.1987   -4.2937   -1.4522 C   0  0  0  0  0  0  0  0  0  0  0  0
    3.4420   -4.7579   -1.8928 C   0  0  0  0  0  0  0  0  0  0  0  0
    4.4999   -4.8219   -0.9962 C   0  0  0  0  0  0  0  0  0  0  0  0
    4.3300   -4.4158    0.3375 C   0  0  0  0  0  0  0  0  0  0  0  0
    2.9288   -3.6206    1.7896 H   0  0  0  0  0  0  0  0  0  0  0  0
    1.0450   -3.5264    0.1813 H   0  0  0  0  0  0  0  0  0  0  0  0
    3.5637   -5.0684   -2.9233 H   0  0  0  0  0  0  0  0  0  0  0  0
    5.4758   -5.1785   -1.3076 H   0  0  0  0  0  0  0  0  0  0  0  0
   -5.3135   -3.7770   -1.9793 N   0  0  0  0  0  0  0  0  0  0  0  0
   -6.0738   -3.3368   -2.6496 N   0  0  0  0  0  0  0  0  0  0  0  0
   -0.1353   -7.0094   -0.6728 C   0  0  0  0  0  0  0  0  0  0  0  0
   -0.9030   -7.4042    0.4221 C   0  0  0  0  0  0  0  0  0  0  0  0
   -2.1501   -6.8209    0.6827 C   0  0  0  0  0  0  0  0  0  0  0  0
   -2.6223   -5.8277   -0.1906 C   0  0  0  0  0  0  0  0  0  0  0  0
   -1.8718   -5.4188   -1.2884 C   0  0  0  0  0  0  0  0  0  0  0  0
   -0.6291   -6.0155   -1.5180 C   0  0  0  0  0  0  0  0  0  0  0  0
    0.8212   -7.4735   -0.8840 H   0  0  0  0  0  0  0  0  0  0  0  0
   -0.5287   -8.1841    1.0799 H   0  0  0  0  0  0  0  0  0  0  0  0
   -3.5944   -5.3752   -0.0169 H   0  0  0  0  0  0  0  0  0  0  0  0
   -2.2474   -4.6645   -1.9715 H   0  0  0  0  0  0  0  0  0  0  0  0
    0.3390   -5.4936   -2.9209 S   0  0  0  0  0  0  0  0  0  0  0  0
    1.1317   -4.1396   -2.3465 O   0  0  0  0  0  0  0  0  0  0  0  0
   -0.5415   -4.9464   -3.9422 O   0  0  0  0  0  0  0  0  0  0  0  0
    1.3288   -6.5254   -3.2181 O   0  0  0  0  0  0  0  0  0  0  0  0
   -2.9681   -7.2381    1.8804 C   0  0  0  0  0  0  0  0  0  0  0  0
   -2.8946   -6.4941    2.6838 H   0  0  0  0  0  0  0  0  0  0  0  0
   -4.0282   -7.3332    1.6255 H   0  0  0  0  0  0  0  0  0  0  0  0
   -2.6277   -8.1944    2.2851 H   0  0  0  0  0  0  0  0  0  0  0  0
    5.4372   -4.5137    1.1285 O   0  0  0  0  0  0  0  0  0  0  0  0
    5.3337   -4.1093    2.4842 C   0  0  0  0  0  0  0  0  0  0  0  0
    6.3210   -4.2658    2.9216 H   0  0  0  0  0  0  0  0  0  0  0  0
    5.0652   -3.0485    2.5720 H   0  0  0  0  0  0  0  0  0  0  0  0
    4.5980   -4.7117    3.0324 H   0  0  0  0  0  0  0  0  0  0  0  0
  1  7  1  0  0  0  0
  2  8  1  0  0  0  0
  2  1  2  0  0  0  0
  3  2  1  0  0  0  0
  4  3  2  0  0  0  0
  4  5  1  0  0  0  0
  5  6  2  0  0  0  0
  6  1  1  0  0  0  0
  6 31  1  0  0  0  0
  9  4  1  0  0  0  0
 10  5  1  0  0  0  0
 12 11  3  0  0  0  0
 13 14  2  0  0  0  0
 14 15  1  0  0  0  0
 14 20  1  0  0  0  0
 15 27  1  0  0  0  0
 16 21  1  0  0  0  0
 16 15  2  0  0  0  0
 17 16  1  0  0  0  0
 18 17  2  0  0  0  0
 18 13  1  0  0  0  0
 19 13  1  0  0  0  0
 22 17  1  0  0  0  0
 23 24  1  0  0  0  0
 23 18  1  0  0  0  0
 24  3  1  0  0  0  0
 25 23  2  0  0  0  0
 26 23  2  0  0  0  0
 27 30  1  0  0  0  0
 27 28  1  0  0  0  0
 29 27  1  0  0  0  0
 31 32  1  0  0  0  0
 32 34  1  0  0  0  0
 32 33  1  0  0  0  0
 32 35  1  0  0  0  0
M  END
