Coordinates from ORCA-job 4-MeO-Ph-N2-OTs-B3LYPG-6-31G_dp-MTMO-d009-169-n800
 OpenBabel09051908173D

 35 35  0  0  0  0  0  0  0  0999 V2000
    3.5434   -4.0232    0.6428 C   0  0  0  0  0  0  0  0  0  0  0  0
    2.5908   -3.9091   -0.3738 C   0  0  0  0  0  0  0  0  0  0  0  0
    2.8065   -4.5257   -1.6012 C   0  0  0  0  0  0  0  0  0  0  0  0
    3.9687   -5.2671   -1.8346 C   0  0  0  0  0  0  0  0  0  0  0  0
    4.9121   -5.3884   -0.8237 C   0  0  0  0  0  0  0  0  0  0  0  0
    4.7082   -4.7675    0.4196 C   0  0  0  0  0  0  0  0  0  0  0  0
    3.3664   -3.5305    1.5911 H   0  0  0  0  0  0  0  0  0  0  0  0
    1.6853   -3.3316   -0.2203 H   0  0  0  0  0  0  0  0  0  0  0  0
    4.1167   -5.7416   -2.7970 H   0  0  0  0  0  0  0  0  0  0  0  0
    5.8244   -5.9555   -0.9746 H   0  0  0  0  0  0  0  0  0  0  0  0
   -9.3235   -8.2051    0.5377 N   0  0  0  0  0  0  0  0  0  0  0  0
  -10.2759   -8.7174    0.3093 N   0  0  0  0  0  0  0  0  0  0  0  0
   -0.1805   -6.4992   -0.7109 C   0  0  0  0  0  0  0  0  0  0  0  0
   -1.1252   -6.5061    0.3150 C   0  0  0  0  0  0  0  0  0  0  0  0
   -2.2208   -5.6328    0.2991 C   0  0  0  0  0  0  0  0  0  0  0  0
   -2.3517   -4.7408   -0.7776 C   0  0  0  0  0  0  0  0  0  0  0  0
   -1.4209   -4.7175   -1.8114 C   0  0  0  0  0  0  0  0  0  0  0  0
   -0.3389   -5.6012   -1.7664 C   0  0  0  0  0  0  0  0  0  0  0  0
    0.6593   -7.1851   -0.7052 H   0  0  0  0  0  0  0  0  0  0  0  0
   -1.0099   -7.2051    1.1394 H   0  0  0  0  0  0  0  0  0  0  0  0
   -3.1985   -4.0598   -0.8078 H   0  0  0  0  0  0  0  0  0  0  0  0
   -1.5308   -4.0389   -2.6505 H   0  0  0  0  0  0  0  0  0  0  0  0
    0.8644   -5.5654   -3.0820 S   0  0  0  0  0  0  0  0  0  0  0  0
    1.8755   -4.3161   -2.6265 O   0  0  0  0  0  0  0  0  0  0  0  0
    0.2407   -5.0557   -4.2940 O   0  0  0  0  0  0  0  0  0  0  0  0
    1.6213   -6.8140   -3.0612 O   0  0  0  0  0  0  0  0  0  0  0  0
   -3.2564   -5.6650    1.3968 C   0  0  0  0  0  0  0  0  0  0  0  0
   -3.5686   -4.6557    1.6813 H   0  0  0  0  0  0  0  0  0  0  0  0
   -4.1557   -6.2005    1.0693 H   0  0  0  0  0  0  0  0  0  0  0  0
   -2.8795   -6.1699    2.2899 H   0  0  0  0  0  0  0  0  0  0  0  0
    5.7019   -4.9465    1.3369 O   0  0  0  0  0  0  0  0  0  0  0  0
    5.5588   -4.3390    2.6108 C   0  0  0  0  0  0  0  0  0  0  0  0
    6.4552   -4.6047    3.1737 H   0  0  0  0  0  0  0  0  0  0  0  0
    5.4916   -3.2460    2.5337 H   0  0  0  0  0  0  0  0  0  0  0  0
    4.6753   -4.7155    3.1427 H   0  0  0  0  0  0  0  0  0  0  0  0
  1  7  1  0  0  0  0
  2  8  1  0  0  0  0
  2  1  2  0  0  0  0
  3  2  1  0  0  0  0
  4  3  2  0  0  0  0
  4  5  1  0  0  0  0
  5  6  2  0  0  0  0
  6  1  1  0  0  0  0
  6 31  1  0  0  0  0
  9  4  1  0  0  0  0
 10  5  1  0  0  0  0
 12 11  3  0  0  0  0
 13 19  1  0  0  0  0
 13 14  2  0  0  0  0
 14 20  1  0  0  0  0
 15 14  1  0  0  0  0
 15 27  1  0  0  0  0
 16 15  2  0  0  0  0
 17 18  2  0  0  0  0
 17 16  1  0  0  0  0
 18 13  1  0  0  0  0
 21 16  1  0  0  0  0
 22 17  1  0  0  0  0
 23 26  2  0  0  0  0
 23 24  1  0  0  0  0
 23 18  1  0  0  0  0
 24  3  1  0  0  0  0
 25 23  2  0  0  0  0
 27 28  1  0  0  0  0
 27 30  1  0  0  0  0
 29 27  1  0  0  0  0
 31 32  1  0  0  0  0
 32 35  1  0  0  0  0
 32 33  1  0  0  0  0
 34 32  1  0  0  0  0
M  END
