Coordinates from ORCA-job 4-MeO-Ph-N2-OTs-B3LYPG-6-31G_dp-MTMO-d009-169-n800
 OpenBabel09051908173D

 35 35  0  0  0  0  0  0  0  0999 V2000
    2.7904   -3.8601    0.5990 C   0  0  0  0  0  0  0  0  0  0  0  0
    1.6479   -3.9149   -0.2043 C   0  0  0  0  0  0  0  0  0  0  0  0
    1.7459   -4.3379   -1.5252 C   0  0  0  0  0  0  0  0  0  0  0  0
    2.9787   -4.7168   -2.0656 C   0  0  0  0  0  0  0  0  0  0  0  0
    4.1128   -4.6731   -1.2664 C   0  0  0  0  0  0  0  0  0  0  0  0
    4.0285   -4.2433    0.0682 C   0  0  0  0  0  0  0  0  0  0  0  0
    2.7009   -3.5184    1.6226 H   0  0  0  0  0  0  0  0  0  0  0  0
    0.6818   -3.6169    0.1883 H   0  0  0  0  0  0  0  0  0  0  0  0
    3.0334   -5.0458   -3.0960 H   0  0  0  0  0  0  0  0  0  0  0  0
    5.0830   -4.9619   -1.6560 H   0  0  0  0  0  0  0  0  0  0  0  0
   -2.2251   -2.3628   -2.7636 N   0  0  0  0  0  0  0  0  0  0  0  0
   -1.7922   -1.7596   -3.5818 N   0  0  0  0  0  0  0  0  0  0  0  0
   -0.3294   -7.2934   -0.5440 C   0  0  0  0  0  0  0  0  0  0  0  0
   -0.9567   -7.7197    0.6266 C   0  0  0  0  0  0  0  0  0  0  0  0
   -2.1569   -7.1412    1.0585 C   0  0  0  0  0  0  0  0  0  0  0  0
   -2.7266   -6.1180    0.2821 C   0  0  0  0  0  0  0  0  0  0  0  0
   -2.1194   -5.6790   -0.8897 C   0  0  0  0  0  0  0  0  0  0  0  0
   -0.9193   -6.2746   -1.2912 C   0  0  0  0  0  0  0  0  0  0  0  0
    0.5928   -7.7484   -0.8859 H   0  0  0  0  0  0  0  0  0  0  0  0
   -0.5077   -8.5188    1.2100 H   0  0  0  0  0  0  0  0  0  0  0  0
   -3.6631   -5.6663    0.5975 H   0  0  0  0  0  0  0  0  0  0  0  0
   -2.5674   -4.8963   -1.4924 H   0  0  0  0  0  0  0  0  0  0  0  0
   -0.1339   -5.7200   -2.7930 S   0  0  0  0  0  0  0  0  0  0  0  0
    0.5967   -4.2922   -2.3254 O   0  0  0  0  0  0  0  0  0  0  0  0
   -1.1460   -5.2690   -3.7370 O   0  0  0  0  0  0  0  0  0  0  0  0
    0.9006   -6.6808   -3.1652 O   0  0  0  0  0  0  0  0  0  0  0  0
   -2.8257   -7.5949    2.3333 C   0  0  0  0  0  0  0  0  0  0  0  0
   -2.7388   -6.8308    3.1158 H   0  0  0  0  0  0  0  0  0  0  0  0
   -3.8943   -7.7767    2.1787 H   0  0  0  0  0  0  0  0  0  0  0  0
   -2.3768   -8.5144    2.7159 H   0  0  0  0  0  0  0  0  0  0  0  0
    5.2052   -4.2321    0.7583 O   0  0  0  0  0  0  0  0  0  0  0  0
    5.1892   -3.7987    2.1090 C   0  0  0  0  0  0  0  0  0  0  0  0
    6.2202   -3.8666    2.4594 H   0  0  0  0  0  0  0  0  0  0  0  0
    4.8469   -2.7595    2.1974 H   0  0  0  0  0  0  0  0  0  0  0  0
    4.5540   -4.4401    2.7333 H   0  0  0  0  0  0  0  0  0  0  0  0
  1  7  1  0  0  0  0
  2  8  1  0  0  0  0
  2  1  2  0  0  0  0
  3  2  1  0  0  0  0
  4  3  2  0  0  0  0
  4  5  1  0  0  0  0
  5  6  2  0  0  0  0
  6  1  1  0  0  0  0
  6 31  1  0  0  0  0
  9  4  1  0  0  0  0
 10  5  1  0  0  0  0
 12 11  3  0  0  0  0
 13 14  2  0  0  0  0
 14 15  1  0  0  0  0
 14 20  1  0  0  0  0
 15 27  1  0  0  0  0
 16 21  1  0  0  0  0
 16 15  2  0  0  0  0
 17 16  1  0  0  0  0
 18 17  2  0  0  0  0
 18 13  1  0  0  0  0
 19 13  1  0  0  0  0
 22 17  1  0  0  0  0
 23 24  1  0  0  0  0
 23 18  1  0  0  0  0
 24  3  1  0  0  0  0
 25 23  2  0  0  0  0
 26 23  2  0  0  0  0
 27 30  1  0  0  0  0
 27 28  1  0  0  0  0
 29 27  1  0  0  0  0
 31 32  1  0  0  0  0
 32 34  1  0  0  0  0
 32 33  1  0  0  0  0
 32 35  1  0  0  0  0
M  END
