Coordinates from ORCA-job 4-MeO-Ph-N2-OTs-B3LYPG-6-31G_dp-MTMO-d009-169-n800
 OpenBabel09051908173D

 35 35  0  0  0  0  0  0  0  0999 V2000
    3.5405   -4.0245    0.6432 C   0  0  0  0  0  0  0  0  0  0  0  0
    2.5878   -3.9103   -0.3733 C   0  0  0  0  0  0  0  0  0  0  0  0
    2.8034   -4.5268   -1.6009 C   0  0  0  0  0  0  0  0  0  0  0  0
    3.9657   -5.2681   -1.8344 C   0  0  0  0  0  0  0  0  0  0  0  0
    4.9091   -5.3894   -0.8236 C   0  0  0  0  0  0  0  0  0  0  0  0
    4.7053   -4.7687    0.4198 C   0  0  0  0  0  0  0  0  0  0  0  0
    3.3635   -3.5319    1.5915 H   0  0  0  0  0  0  0  0  0  0  0  0
    1.6822   -3.3330   -0.2197 H   0  0  0  0  0  0  0  0  0  0  0  0
    4.1136   -5.7424   -2.7969 H   0  0  0  0  0  0  0  0  0  0  0  0
    5.8215   -5.9564   -0.9747 H   0  0  0  0  0  0  0  0  0  0  0  0
   -9.2679   -8.1917    0.5349 N   0  0  0  0  0  0  0  0  0  0  0  0
  -10.2210   -8.7028    0.3067 N   0  0  0  0  0  0  0  0  0  0  0  0
   -0.1845   -6.5000   -0.7106 C   0  0  0  0  0  0  0  0  0  0  0  0
   -1.1293   -6.5067    0.3151 C   0  0  0  0  0  0  0  0  0  0  0  0
   -2.2247   -5.6331    0.2991 C   0  0  0  0  0  0  0  0  0  0  0  0
   -2.3552   -4.7410   -0.7776 C   0  0  0  0  0  0  0  0  0  0  0  0
   -1.4242   -4.7180   -1.8113 C   0  0  0  0  0  0  0  0  0  0  0  0
   -0.3424   -5.6020   -1.7661 C   0  0  0  0  0  0  0  0  0  0  0  0
    0.6552   -7.1861   -0.7048 H   0  0  0  0  0  0  0  0  0  0  0  0
   -1.0143   -7.2057    1.1395 H   0  0  0  0  0  0  0  0  0  0  0  0
   -3.2018   -4.0599   -0.8080 H   0  0  0  0  0  0  0  0  0  0  0  0
   -1.5338   -4.0393   -2.6505 H   0  0  0  0  0  0  0  0  0  0  0  0
    0.8612   -5.5665   -3.0816 S   0  0  0  0  0  0  0  0  0  0  0  0
    1.8722   -4.3171   -2.6260 O   0  0  0  0  0  0  0  0  0  0  0  0
    0.2377   -5.0569   -4.2937 O   0  0  0  0  0  0  0  0  0  0  0  0
    1.6179   -6.8151   -3.0605 O   0  0  0  0  0  0  0  0  0  0  0  0
   -3.2605   -5.6650    1.3966 C   0  0  0  0  0  0  0  0  0  0  0  0
   -3.5729   -4.6557    1.6807 H   0  0  0  0  0  0  0  0  0  0  0  0
   -4.1597   -6.2009    1.0691 H   0  0  0  0  0  0  0  0  0  0  0  0
   -2.8837   -6.1696    2.2900 H   0  0  0  0  0  0  0  0  0  0  0  0
    5.6991   -4.9477    1.3370 O   0  0  0  0  0  0  0  0  0  0  0  0
    5.5561   -4.3404    2.6109 C   0  0  0  0  0  0  0  0  0  0  0  0
    6.4525   -4.6061    3.1738 H   0  0  0  0  0  0  0  0  0  0  0  0
    5.4887   -3.2474    2.5341 H   0  0  0  0  0  0  0  0  0  0  0  0
    4.6726   -4.7171    3.1429 H   0  0  0  0  0  0  0  0  0  0  0  0
  1  7  1  0  0  0  0
  2  8  1  0  0  0  0
  2  1  2  0  0  0  0
  3  2  1  0  0  0  0
  4  3  2  0  0  0  0
  4  5  1  0  0  0  0
  5  6  2  0  0  0  0
  6  1  1  0  0  0  0
  6 31  1  0  0  0  0
  9  4  1  0  0  0  0
 10  5  1  0  0  0  0
 12 11  3  0  0  0  0
 13 19  1  0  0  0  0
 13 14  2  0  0  0  0
 14 20  1  0  0  0  0
 15 14  1  0  0  0  0
 15 27  1  0  0  0  0
 16 15  2  0  0  0  0
 17 18  2  0  0  0  0
 17 16  1  0  0  0  0
 18 13  1  0  0  0  0
 21 16  1  0  0  0  0
 22 17  1  0  0  0  0
 23 26  2  0  0  0  0
 23 24  1  0  0  0  0
 23 18  1  0  0  0  0
 24  3  1  0  0  0  0
 25 23  2  0  0  0  0
 27 28  1  0  0  0  0
 27 30  1  0  0  0  0
 29 27  1  0  0  0  0
 31 32  1  0  0  0  0
 32 35  1  0  0  0  0
 32 33  1  0  0  0  0
 34 32  1  0  0  0  0
M  END
