Coordinates from ORCA-job 4-MeO-Ph-N2-OTs-B3LYPG-6-31G_dp-MTMO-d009-169-n800
 OpenBabel09051908173D

 35 35  0  0  0  0  0  0  0  0999 V2000
    3.4267   -4.0614    0.7004 C   0  0  0  0  0  0  0  0  0  0  0  0
    2.4826   -3.9365   -0.3228 C   0  0  0  0  0  0  0  0  0  0  0  0
    2.7198   -4.5190   -1.5629 C   0  0  0  0  0  0  0  0  0  0  0  0
    3.8955   -5.2369   -1.8025 C   0  0  0  0  0  0  0  0  0  0  0  0
    4.8305   -5.3690   -0.7852 C   0  0  0  0  0  0  0  0  0  0  0  0
    4.6048   -4.7824    0.4709 C   0  0  0  0  0  0  0  0  0  0  0  0
    3.2326   -3.5950    1.6585 H   0  0  0  0  0  0  0  0  0  0  0  0
    1.5670   -3.3766   -0.1644 H   0  0  0  0  0  0  0  0  0  0  0  0
    4.0604   -5.6853   -2.7746 H   0  0  0  0  0  0  0  0  0  0  0  0
    5.7528   -5.9184   -0.9406 H   0  0  0  0  0  0  0  0  0  0  0  0
   -7.4300   -7.5112    0.7544 N   0  0  0  0  0  0  0  0  0  0  0  0
   -8.4242   -7.9692    0.6018 N   0  0  0  0  0  0  0  0  0  0  0  0
   -0.2825   -6.5390   -0.7648 C   0  0  0  0  0  0  0  0  0  0  0  0
   -1.2575   -6.5826    0.2312 C   0  0  0  0  0  0  0  0  0  0  0  0
   -2.3712   -5.7326    0.1958 C   0  0  0  0  0  0  0  0  0  0  0  0
   -2.4874   -4.8253   -0.8697 C   0  0  0  0  0  0  0  0  0  0  0  0
   -1.5260   -4.7651   -1.8738 C   0  0  0  0  0  0  0  0  0  0  0  0
   -0.4273   -5.6267   -1.8102 C   0  0  0  0  0  0  0  0  0  0  0  0
    0.5705   -7.2082   -0.7446 H   0  0  0  0  0  0  0  0  0  0  0  0
   -1.1521   -7.2928    1.0473 H   0  0  0  0  0  0  0  0  0  0  0  0
   -3.3470   -4.1614   -0.9150 H   0  0  0  0  0  0  0  0  0  0  0  0
   -1.6249   -4.0750   -2.7049 H   0  0  0  0  0  0  0  0  0  0  0  0
    0.8097   -5.5508   -3.0927 S   0  0  0  0  0  0  0  0  0  0  0  0
    1.7956   -4.2980   -2.5918 O   0  0  0  0  0  0  0  0  0  0  0  0
    0.2093   -5.0267   -4.3104 O   0  0  0  0  0  0  0  0  0  0  0  0
    1.5813   -6.7905   -3.0751 O   0  0  0  0  0  0  0  0  0  0  0  0
   -3.4380   -5.8051    1.2611 C   0  0  0  0  0  0  0  0  0  0  0  0
   -3.7952   -4.8082    1.5364 H   0  0  0  0  0  0  0  0  0  0  0  0
   -4.3078   -6.3739    0.9103 H   0  0  0  0  0  0  0  0  0  0  0  0
   -3.0683   -6.2956    2.1654 H   0  0  0  0  0  0  0  0  0  0  0  0
    5.5920   -4.9693    1.3938 O   0  0  0  0  0  0  0  0  0  0  0  0
    5.4273   -4.3951    2.6804 C   0  0  0  0  0  0  0  0  0  0  0  0
    6.3216   -4.6619    3.2462 H   0  0  0  0  0  0  0  0  0  0  0  0
    5.3453   -3.3017    2.6291 H   0  0  0  0  0  0  0  0  0  0  0  0
    4.5439   -4.7968    3.1937 H   0  0  0  0  0  0  0  0  0  0  0  0
  1  7  1  0  0  0  0
  2  8  1  0  0  0  0
  2  1  2  0  0  0  0
  3  2  1  0  0  0  0
  4  3  2  0  0  0  0
  4  5  1  0  0  0  0
  5  6  2  0  0  0  0
  6  1  1  0  0  0  0
  6 31  1  0  0  0  0
  9  4  1  0  0  0  0
 10  5  1  0  0  0  0
 12 11  3  0  0  0  0
 13 19  1  0  0  0  0
 13 14  2  0  0  0  0
 14 20  1  0  0  0  0
 15 14  1  0  0  0  0
 15 27  1  0  0  0  0
 16 15  2  0  0  0  0
 17 18  2  0  0  0  0
 17 16  1  0  0  0  0
 18 13  1  0  0  0  0
 21 16  1  0  0  0  0
 22 17  1  0  0  0  0
 23 26  2  0  0  0  0
 23 24  1  0  0  0  0
 23 18  1  0  0  0  0
 24  3  1  0  0  0  0
 25 23  2  0  0  0  0
 27 28  1  0  0  0  0
 27 30  1  0  0  0  0
 29 27  1  0  0  0  0
 31 32  1  0  0  0  0
 32 35  1  0  0  0  0
 32 33  1  0  0  0  0
 34 32  1  0  0  0  0
M  END
