Coordinates from ORCA-job 4-MeO-Ph-N2-OTs-B3LYPG-6-31G_dp-MTMO-d009-169-n800
 OpenBabel09051908173D

 35 35  0  0  0  0  0  0  0  0999 V2000
    3.1073   -3.9212    0.7253 C   0  0  0  0  0  0  0  0  0  0  0  0
    2.1066   -3.9152   -0.2504 C   0  0  0  0  0  0  0  0  0  0  0  0
    2.3753   -4.3997   -1.5257 C   0  0  0  0  0  0  0  0  0  0  0  0
    3.6405   -4.9002   -1.8483 C   0  0  0  0  0  0  0  0  0  0  0  0
    4.6327   -4.9163   -0.8778 C   0  0  0  0  0  0  0  0  0  0  0  0
    4.3754   -4.4261    0.4130 C   0  0  0  0  0  0  0  0  0  0  0  0
    2.8862   -3.5321    1.7116 H   0  0  0  0  0  0  0  0  0  0  0  0
    1.1204   -3.5224   -0.0279 H   0  0  0  0  0  0  0  0  0  0  0  0
    3.8298   -5.2750   -2.8468 H   0  0  0  0  0  0  0  0  0  0  0  0
    5.6235   -5.2994   -1.0971 H   0  0  0  0  0  0  0  0  0  0  0  0
   -6.0973   -3.9574   -0.6475 N   0  0  0  0  0  0  0  0  0  0  0  0
   -7.0478   -3.4425   -0.8770 N   0  0  0  0  0  0  0  0  0  0  0  0
   -0.0758   -7.0289   -0.7416 C   0  0  0  0  0  0  0  0  0  0  0  0
   -0.9353   -7.3368    0.3122 C   0  0  0  0  0  0  0  0  0  0  0  0
   -2.1847   -6.7135    0.4365 C   0  0  0  0  0  0  0  0  0  0  0  0
   -2.5640   -5.7697   -0.5317 C   0  0  0  0  0  0  0  0  0  0  0  0
   -1.7200   -5.4477   -1.5910 C   0  0  0  0  0  0  0  0  0  0  0  0
   -0.4786   -6.0822   -1.6845 C   0  0  0  0  0  0  0  0  0  0  0  0
    0.8817   -7.5257   -0.8478 H   0  0  0  0  0  0  0  0  0  0  0  0
   -0.6332   -8.0802    1.0452 H   0  0  0  0  0  0  0  0  0  0  0  0
   -3.5364   -5.2902   -0.4608 H   0  0  0  0  0  0  0  0  0  0  0  0
   -2.0201   -4.7328   -2.3496 H   0  0  0  0  0  0  0  0  0  0  0  0
    0.6045   -5.6740   -3.0404 S   0  0  0  0  0  0  0  0  0  0  0  0
    1.3761   -4.2935   -2.5013 O   0  0  0  0  0  0  0  0  0  0  0  0
   -0.1846   -5.1885   -4.1626 O   0  0  0  0  0  0  0  0  0  0  0  0
    1.5943   -6.7379   -3.1879 O   0  0  0  0  0  0  0  0  0  0  0  0
   -3.0992   -7.0363    1.5930 C   0  0  0  0  0  0  0  0  0  0  0  0
   -2.9663   -6.3158    2.4100 H   0  0  0  0  0  0  0  0  0  0  0  0
   -4.1508   -6.9962    1.2937 H   0  0  0  0  0  0  0  0  0  0  0  0
   -2.8967   -8.0312    1.9988 H   0  0  0  0  0  0  0  0  0  0  0  0
    5.4234   -4.4835    1.2846 O   0  0  0  0  0  0  0  0  0  0  0  0
    5.2324   -3.9863    2.5995 C   0  0  0  0  0  0  0  0  0  0  0  0
    6.1839   -4.1255    3.1154 H   0  0  0  0  0  0  0  0  0  0  0  0
    4.9771   -2.9188    2.5961 H   0  0  0  0  0  0  0  0  0  0  0  0
    4.4494   -4.5404    3.1332 H   0  0  0  0  0  0  0  0  0  0  0  0
  1  7  1  0  0  0  0
  2  8  1  0  0  0  0
  2  1  2  0  0  0  0
  3  2  1  0  0  0  0
  4  3  2  0  0  0  0
  4  5  1  0  0  0  0
  5  6  2  0  0  0  0
  6  1  1  0  0  0  0
  6 31  1  0  0  0  0
  9  4  1  0  0  0  0
 10  5  1  0  0  0  0
 12 11  3  0  0  0  0
 13 14  2  0  0  0  0
 14 15  1  0  0  0  0
 14 20  1  0  0  0  0
 15 27  1  0  0  0  0
 16 21  1  0  0  0  0
 16 15  2  0  0  0  0
 17 16  1  0  0  0  0
 18 17  2  0  0  0  0
 18 13  1  0  0  0  0
 19 13  1  0  0  0  0
 22 17  1  0  0  0  0
 23 24  1  0  0  0  0
 23 18  1  0  0  0  0
 24  3  1  0  0  0  0
 25 23  2  0  0  0  0
 26 23  2  0  0  0  0
 27 30  1  0  0  0  0
 27 28  1  0  0  0  0
 29 27  1  0  0  0  0
 31 32  1  0  0  0  0
 32 33  1  0  0  0  0
 32 35  1  0  0  0  0
 34 32  1  0  0  0  0
M  END
