Coordinates from ORCA-job 4-MeO-Ph-N2-OTs-B3LYPG-6-31G_dp-MTMO-d009-169-n800
 OpenBabel09051908173D

 35 35  0  0  0  0  0  0  0  0999 V2000
    3.7258   -3.9199    0.6009 C   0  0  0  0  0  0  0  0  0  0  0  0
    2.7488   -3.8407   -0.3956 C   0  0  0  0  0  0  0  0  0  0  0  0
    2.9554   -4.4606   -1.6230 C   0  0  0  0  0  0  0  0  0  0  0  0
    4.1332   -5.1704   -1.8762 C   0  0  0  0  0  0  0  0  0  0  0  0
    5.1010   -5.2572   -0.8851 C   0  0  0  0  0  0  0  0  0  0  0  0
    4.9061   -4.6329    0.3579 C   0  0  0  0  0  0  0  0  0  0  0  0
    3.5552   -3.4253    1.5494 H   0  0  0  0  0  0  0  0  0  0  0  0
    1.8306   -3.2880   -0.2268 H   0  0  0  0  0  0  0  0  0  0  0  0
    4.2739   -5.6480   -2.8381 H   0  0  0  0  0  0  0  0  0  0  0  0
    6.0255   -5.7997   -1.0514 H   0  0  0  0  0  0  0  0  0  0  0  0
  -12.5985   -8.7303    0.2625 N   0  0  0  0  0  0  0  0  0  0  0  0
  -13.5479   -9.2467    0.0309 N   0  0  0  0  0  0  0  0  0  0  0  0
    0.0529   -6.5111   -0.6491 C   0  0  0  0  0  0  0  0  0  0  0  0
   -0.8682   -6.5379    0.3982 C   0  0  0  0  0  0  0  0  0  0  0  0
   -1.9915   -5.7008    0.3987 C   0  0  0  0  0  0  0  0  0  0  0  0
   -2.1760   -4.8253   -0.6841 C   0  0  0  0  0  0  0  0  0  0  0  0
   -1.2697   -4.7825   -1.7386 C   0  0  0  0  0  0  0  0  0  0  0  0
   -0.1583   -5.6300   -1.7093 C   0  0  0  0  0  0  0  0  0  0  0  0
    0.9141   -7.1696   -0.6557 H   0  0  0  0  0  0  0  0  0  0  0  0
   -0.7120   -7.2244    1.2262 H   0  0  0  0  0  0  0  0  0  0  0  0
   -3.0458   -4.1736   -0.7027 H   0  0  0  0  0  0  0  0  0  0  0  0
   -1.4211   -4.1176   -2.5822 H   0  0  0  0  0  0  0  0  0  0  0  0
    1.0133   -5.5692   -3.0524 S   0  0  0  0  0  0  0  0  0  0  0  0
    1.9963   -4.2867   -2.6288 O   0  0  0  0  0  0  0  0  0  0  0  0
    0.3473   -5.0882   -4.2535 O   0  0  0  0  0  0  0  0  0  0  0  0
    1.8076   -6.7944   -3.0396 O   0  0  0  0  0  0  0  0  0  0  0  0
   -2.9991   -5.7491    1.5217 C   0  0  0  0  0  0  0  0  0  0  0  0
   -3.2535   -4.7437    1.8721 H   0  0  0  0  0  0  0  0  0  0  0  0
   -3.9324   -6.2191    1.1896 H   0  0  0  0  0  0  0  0  0  0  0  0
   -2.6241   -6.3217    2.3738 H   0  0  0  0  0  0  0  0  0  0  0  0
    5.9237   -4.7771    1.2550 O   0  0  0  0  0  0  0  0  0  0  0  0
    5.7906   -4.1645    2.5275 C   0  0  0  0  0  0  0  0  0  0  0  0
    6.7051   -4.4023    3.0735 H   0  0  0  0  0  0  0  0  0  0  0  0
    5.6928   -3.0743    2.4448 H   0  0  0  0  0  0  0  0  0  0  0  0
    4.9285   -4.5605    3.0801 H   0  0  0  0  0  0  0  0  0  0  0  0
  1  7  1  0  0  0  0
  2  8  1  0  0  0  0
  2  1  2  0  0  0  0
  3  2  1  0  0  0  0
  4  3  2  0  0  0  0
  4  5  1  0  0  0  0
  5  6  2  0  0  0  0
  6  1  1  0  0  0  0
  6 31  1  0  0  0  0
  9  4  1  0  0  0  0
 10  5  1  0  0  0  0
 12 11  3  0  0  0  0
 13 14  2  0  0  0  0
 14 15  1  0  0  0  0
 14 20  1  0  0  0  0
 15 27  1  0  0  0  0
 16 15  2  0  0  0  0
 17 18  2  0  0  0  0
 17 16  1  0  0  0  0
 18 13  1  0  0  0  0
 19 13  1  0  0  0  0
 21 16  1  0  0  0  0
 22 17  1  0  0  0  0
 23 26  2  0  0  0  0
 23 24  1  0  0  0  0
 23 18  1  0  0  0  0
 24  3  1  0  0  0  0
 25 23  2  0  0  0  0
 27 28  1  0  0  0  0
 27 30  1  0  0  0  0
 29 27  1  0  0  0  0
 31 32  1  0  0  0  0
 32 33  1  0  0  0  0
 32 35  1  0  0  0  0
 34 32  1  0  0  0  0
M  END
