Coordinates from ORCA-job 4-MeO-Ph-N2-OTs-B3LYPG-6-31G_dp-MTMO-d009-169-n800
 OpenBabel09051908173D

 35 35  0  0  0  0  0  0  0  0999 V2000
    3.4380   -4.0518    0.7008 C   0  0  0  0  0  0  0  0  0  0  0  0
    2.5040   -3.9234   -0.3312 C   0  0  0  0  0  0  0  0  0  0  0  0
    2.7521   -4.5043   -1.5700 C   0  0  0  0  0  0  0  0  0  0  0  0
    3.9288   -5.2238   -1.7995 C   0  0  0  0  0  0  0  0  0  0  0  0
    4.8537   -5.3594   -0.7735 C   0  0  0  0  0  0  0  0  0  0  0  0
    4.6170   -4.7745    0.4815 C   0  0  0  0  0  0  0  0  0  0  0  0
    3.2355   -3.5866    1.6578 H   0  0  0  0  0  0  0  0  0  0  0  0
    1.5880   -3.3621   -0.1806 H   0  0  0  0  0  0  0  0  0  0  0  0
    4.1023   -5.6706   -2.7708 H   0  0  0  0  0  0  0  0  0  0  0  0
    5.7765   -5.9101   -0.9210 H   0  0  0  0  0  0  0  0  0  0  0  0
   -7.9189   -7.6220    0.9228 N   0  0  0  0  0  0  0  0  0  0  0  0
   -8.9407   -8.0322    0.8271 N   0  0  0  0  0  0  0  0  0  0  0  0
   -0.2362   -6.5363   -0.7991 C   0  0  0  0  0  0  0  0  0  0  0  0
   -1.2107   -6.5872    0.1970 C   0  0  0  0  0  0  0  0  0  0  0  0
   -2.3250   -5.7378    0.1673 C   0  0  0  0  0  0  0  0  0  0  0  0
   -2.4427   -4.8238   -0.8921 C   0  0  0  0  0  0  0  0  0  0  0  0
   -1.4817   -4.7563   -1.8962 C   0  0  0  0  0  0  0  0  0  0  0  0
   -0.3824   -5.6174   -1.8385 C   0  0  0  0  0  0  0  0  0  0  0  0
    0.6175   -7.2046   -0.7835 H   0  0  0  0  0  0  0  0  0  0  0  0
   -1.1045   -7.3025    1.0084 H   0  0  0  0  0  0  0  0  0  0  0  0
   -3.3029   -4.1604   -0.9329 H   0  0  0  0  0  0  0  0  0  0  0  0
   -1.5814   -4.0607   -2.7227 H   0  0  0  0  0  0  0  0  0  0  0  0
    0.8555   -5.5303   -3.1193 S   0  0  0  0  0  0  0  0  0  0  0  0
    1.8383   -4.2797   -2.6075 O   0  0  0  0  0  0  0  0  0  0  0  0
    0.2560   -4.9981   -4.3339 O   0  0  0  0  0  0  0  0  0  0  0  0
    1.6291   -6.7688   -3.1099 O   0  0  0  0  0  0  0  0  0  0  0  0
   -3.3923   -5.8196    1.2316 C   0  0  0  0  0  0  0  0  0  0  0  0
   -3.7602   -4.8262    1.5055 H   0  0  0  0  0  0  0  0  0  0  0  0
   -4.2551   -6.3977    0.8786 H   0  0  0  0  0  0  0  0  0  0  0  0
   -3.0195   -6.3064    2.1366 H   0  0  0  0  0  0  0  0  0  0  0  0
    5.5948   -4.9649    1.4135 O   0  0  0  0  0  0  0  0  0  0  0  0
    5.4191   -4.3919    2.6992 C   0  0  0  0  0  0  0  0  0  0  0  0
    6.3074   -4.6613    3.2731 H   0  0  0  0  0  0  0  0  0  0  0  0
    5.3400   -3.2982    2.6485 H   0  0  0  0  0  0  0  0  0  0  0  0
    4.5301   -4.7924    3.2036 H   0  0  0  0  0  0  0  0  0  0  0  0
  1  7  1  0  0  0  0
  2  8  1  0  0  0  0
  2  1  2  0  0  0  0
  3  2  1  0  0  0  0
  4  3  2  0  0  0  0
  4  5  1  0  0  0  0
  5  6  2  0  0  0  0
  6  1  1  0  0  0  0
  6 31  1  0  0  0  0
  9  4  1  0  0  0  0
 10  5  1  0  0  0  0
 12 11  3  0  0  0  0
 13 19  1  0  0  0  0
 13 14  2  0  0  0  0
 14 20  1  0  0  0  0
 15 14  1  0  0  0  0
 15 27  1  0  0  0  0
 16 15  2  0  0  0  0
 17 18  2  0  0  0  0
 17 16  1  0  0  0  0
 18 13  1  0  0  0  0
 21 16  1  0  0  0  0
 22 17  1  0  0  0  0
 23 26  2  0  0  0  0
 23 24  1  0  0  0  0
 23 18  1  0  0  0  0
 24  3  1  0  0  0  0
 25 23  2  0  0  0  0
 27 28  1  0  0  0  0
 27 30  1  0  0  0  0
 29 27  1  0  0  0  0
 31 32  1  0  0  0  0
 32 35  1  0  0  0  0
 32 33  1  0  0  0  0
 34 32  1  0  0  0  0
M  END
