Coordinates from ORCA-job 4-MeO-Ph-N2-OTs-B3LYPG-6-31G_dp-MTMO-d009-169-n800
 OpenBabel09051908173D

 35 35  0  0  0  0  0  0  0  0999 V2000
    3.4610   -4.0437    0.6931 C   0  0  0  0  0  0  0  0  0  0  0  0
    2.5331   -3.9127   -0.3441 C   0  0  0  0  0  0  0  0  0  0  0  0
    2.7838   -4.4989   -1.5798 C   0  0  0  0  0  0  0  0  0  0  0  0
    3.9572   -5.2263   -1.8011 C   0  0  0  0  0  0  0  0  0  0  0  0
    4.8760   -5.3646   -0.7700 C   0  0  0  0  0  0  0  0  0  0  0  0
    4.6366   -4.7744    0.4819 C   0  0  0  0  0  0  0  0  0  0  0  0
    3.2565   -3.5743    1.6476 H   0  0  0  0  0  0  0  0  0  0  0  0
    1.6197   -3.3453   -0.1999 H   0  0  0  0  0  0  0  0  0  0  0  0
    4.1329   -5.6770   -2.7702 H   0  0  0  0  0  0  0  0  0  0  0  0
    5.7962   -5.9213   -0.9112 H   0  0  0  0  0  0  0  0  0  0  0  0
   -8.4462   -7.8229    1.0070 N   0  0  0  0  0  0  0  0  0  0  0  0
   -9.4749   -8.2175    0.9189 N   0  0  0  0  0  0  0  0  0  0  0  0
   -0.1999   -6.5238   -0.8138 C   0  0  0  0  0  0  0  0  0  0  0  0
   -1.1701   -6.5705    0.1866 C   0  0  0  0  0  0  0  0  0  0  0  0
   -2.2791   -5.7141    0.1634 C   0  0  0  0  0  0  0  0  0  0  0  0
   -2.3960   -4.7973   -0.8937 C   0  0  0  0  0  0  0  0  0  0  0  0
   -1.4392   -4.7340   -1.9021 C   0  0  0  0  0  0  0  0  0  0  0  0
   -0.3452   -5.6021   -1.8509 C   0  0  0  0  0  0  0  0  0  0  0  0
    0.6500   -7.1971   -0.8032 H   0  0  0  0  0  0  0  0  0  0  0  0
   -1.0646   -7.2880    0.9963 H   0  0  0  0  0  0  0  0  0  0  0  0
   -3.2522   -4.1286   -0.9291 H   0  0  0  0  0  0  0  0  0  0  0  0
   -1.5382   -4.0361   -2.7268 H   0  0  0  0  0  0  0  0  0  0  0  0
    0.8891   -5.5180   -3.1351 S   0  0  0  0  0  0  0  0  0  0  0  0
    1.8769   -4.2717   -2.6228 O   0  0  0  0  0  0  0  0  0  0  0  0
    0.2892   -4.9820   -4.3477 O   0  0  0  0  0  0  0  0  0  0  0  0
    1.6584   -6.7593   -3.1296 O   0  0  0  0  0  0  0  0  0  0  0  0
   -3.3430   -5.7930    1.2312 C   0  0  0  0  0  0  0  0  0  0  0  0
   -3.7189   -4.8002    1.4956 H   0  0  0  0  0  0  0  0  0  0  0  0
   -4.2009   -6.3821    0.8846 H   0  0  0  0  0  0  0  0  0  0  0  0
   -2.9650   -6.2680    2.1403 H   0  0  0  0  0  0  0  0  0  0  0  0
    5.6084   -4.9680    1.4195 O   0  0  0  0  0  0  0  0  0  0  0  0
    5.4300   -4.3895    2.7024 C   0  0  0  0  0  0  0  0  0  0  0  0
    6.3139   -4.6624    3.2815 H   0  0  0  0  0  0  0  0  0  0  0  0
    5.3579   -3.2956    2.6476 H   0  0  0  0  0  0  0  0  0  0  0  0
    4.5361   -4.7828    3.2039 H   0  0  0  0  0  0  0  0  0  0  0  0
  1  7  1  0  0  0  0
  2  8  1  0  0  0  0
  2  1  2  0  0  0  0
  3  2  1  0  0  0  0
  4  3  2  0  0  0  0
  4  5  1  0  0  0  0
  5  6  2  0  0  0  0
  6  1  1  0  0  0  0
  6 31  1  0  0  0  0
  9  4  1  0  0  0  0
 10  5  1  0  0  0  0
 12 11  3  0  0  0  0
 13 19  1  0  0  0  0
 13 14  2  0  0  0  0
 14 20  1  0  0  0  0
 15 14  1  0  0  0  0
 15 27  1  0  0  0  0
 16 15  2  0  0  0  0
 17 18  2  0  0  0  0
 17 16  1  0  0  0  0
 18 13  1  0  0  0  0
 21 16  1  0  0  0  0
 22 17  1  0  0  0  0
 23 26  2  0  0  0  0
 23 24  1  0  0  0  0
 23 18  1  0  0  0  0
 24  3  1  0  0  0  0
 25 23  2  0  0  0  0
 27 28  1  0  0  0  0
 27 30  1  0  0  0  0
 29 27  1  0  0  0  0
 31 32  1  0  0  0  0
 32 35  1  0  0  0  0
 32 33  1  0  0  0  0
 34 32  1  0  0  0  0
M  END
