Coordinates from ORCA-job 4-MeO-Ph-N2-OTs-B3LYPG-6-31G_dp-MTMO-d009-169-n800
 OpenBabel09051908173D

 35 35  0  0  0  0  0  0  0  0999 V2000
    3.5210   -4.0342    0.6436 C   0  0  0  0  0  0  0  0  0  0  0  0
    2.5683   -3.9186   -0.3728 C   0  0  0  0  0  0  0  0  0  0  0  0
    2.7821   -4.5366   -1.5999 C   0  0  0  0  0  0  0  0  0  0  0  0
    3.9425   -5.2809   -1.8331 C   0  0  0  0  0  0  0  0  0  0  0  0
    4.8860   -5.4037   -0.8225 C   0  0  0  0  0  0  0  0  0  0  0  0
    4.6840   -4.7814    0.4204 C   0  0  0  0  0  0  0  0  0  0  0  0
    3.3455   -3.5405    1.5915 H   0  0  0  0  0  0  0  0  0  0  0  0
    1.6642   -3.3390   -0.2194 H   0  0  0  0  0  0  0  0  0  0  0  0
    4.0890   -5.7564   -2.7953 H   0  0  0  0  0  0  0  0  0  0  0  0
    5.7969   -5.9729   -0.9733 H   0  0  0  0  0  0  0  0  0  0  0  0
   -8.8928   -8.1277    0.5030 N   0  0  0  0  0  0  0  0  0  0  0  0
   -9.8488   -8.6352    0.2789 N   0  0  0  0  0  0  0  0  0  0  0  0
   -0.2117   -6.5007   -0.7071 C   0  0  0  0  0  0  0  0  0  0  0  0
   -1.1563   -6.5035    0.3187 C   0  0  0  0  0  0  0  0  0  0  0  0
   -2.2489   -5.6263    0.3021 C   0  0  0  0  0  0  0  0  0  0  0  0
   -2.3768   -4.7349   -0.7754 C   0  0  0  0  0  0  0  0  0  0  0  0
   -1.4459   -4.7158   -1.8092 C   0  0  0  0  0  0  0  0  0  0  0  0
   -0.3669   -5.6031   -1.7635 C   0  0  0  0  0  0  0  0  0  0  0  0
    0.6259   -7.1894   -0.7008 H   0  0  0  0  0  0  0  0  0  0  0  0
   -1.0434   -7.2021    1.1437 H   0  0  0  0  0  0  0  0  0  0  0  0
   -3.2211   -4.0510   -0.8062 H   0  0  0  0  0  0  0  0  0  0  0  0
   -1.5534   -4.0374   -2.6490 H   0  0  0  0  0  0  0  0  0  0  0  0
    0.8367   -5.5725   -3.0790 S   0  0  0  0  0  0  0  0  0  0  0  0
    1.8513   -4.3255   -2.6250 O   0  0  0  0  0  0  0  0  0  0  0  0
    0.2145   -5.0625   -4.2917 O   0  0  0  0  0  0  0  0  0  0  0  0
    1.5899   -6.8232   -3.0565 O   0  0  0  0  0  0  0  0  0  0  0  0
   -3.2846   -5.6543    1.3998 C   0  0  0  0  0  0  0  0  0  0  0  0
   -3.5995   -4.6440    1.6779 H   0  0  0  0  0  0  0  0  0  0  0  0
   -4.1824   -6.1944    1.0757 H   0  0  0  0  0  0  0  0  0  0  0  0
   -2.9064   -6.1526    2.2962 H   0  0  0  0  0  0  0  0  0  0  0  0
    5.6777   -4.9619    1.3375 O   0  0  0  0  0  0  0  0  0  0  0  0
    5.5364   -4.3532    2.6109 C   0  0  0  0  0  0  0  0  0  0  0  0
    6.4325   -4.6204    3.1737 H   0  0  0  0  0  0  0  0  0  0  0  0
    5.4715   -3.2601    2.5331 H   0  0  0  0  0  0  0  0  0  0  0  0
    4.6524   -4.7274    3.1436 H   0  0  0  0  0  0  0  0  0  0  0  0
  1  7  1  0  0  0  0
  2  8  1  0  0  0  0
  2  1  2  0  0  0  0
  3  2  1  0  0  0  0
  4  3  2  0  0  0  0
  4  5  1  0  0  0  0
  5  6  2  0  0  0  0
  6  1  1  0  0  0  0
  6 31  1  0  0  0  0
  9  4  1  0  0  0  0
 10  5  1  0  0  0  0
 12 11  3  0  0  0  0
 13 19  1  0  0  0  0
 13 14  2  0  0  0  0
 14 20  1  0  0  0  0
 15 14  1  0  0  0  0
 15 27  1  0  0  0  0
 16 15  2  0  0  0  0
 17 18  2  0  0  0  0
 17 16  1  0  0  0  0
 18 13  1  0  0  0  0
 21 16  1  0  0  0  0
 22 17  1  0  0  0  0
 23 26  2  0  0  0  0
 23 24  1  0  0  0  0
 23 18  1  0  0  0  0
 24  3  1  0  0  0  0
 25 23  2  0  0  0  0
 27 28  1  0  0  0  0
 27 30  1  0  0  0  0
 29 27  1  0  0  0  0
 31 32  1  0  0  0  0
 32 35  1  0  0  0  0
 32 33  1  0  0  0  0
 34 32  1  0  0  0  0
M  END
