Coordinates from ORCA-job 4-MeO-Ph-N2-OTs-B3LYPG-6-31G_dp-MTMO-d009-169-n800
 OpenBabel09051908173D

 35 35  0  0  0  0  0  0  0  0999 V2000
    2.8931   -3.9059    0.6696 C   0  0  0  0  0  0  0  0  0  0  0  0
    1.7514   -3.9065   -0.1367 C   0  0  0  0  0  0  0  0  0  0  0  0
    1.8394   -4.3007   -1.4672 C   0  0  0  0  0  0  0  0  0  0  0  0
    3.0615   -4.7041   -2.0143 C   0  0  0  0  0  0  0  0  0  0  0  0
    4.1945   -4.7144   -1.2123 C   0  0  0  0  0  0  0  0  0  0  0  0
    4.1202   -4.3144    0.1321 C   0  0  0  0  0  0  0  0  0  0  0  0
    2.8116   -3.5857    1.7009 H   0  0  0  0  0  0  0  0  0  0  0  0
    0.7939   -3.5881    0.2613 H   0  0  0  0  0  0  0  0  0  0  0  0
    3.1088   -5.0099   -3.0522 H   0  0  0  0  0  0  0  0  0  0  0  0
    5.1563   -5.0235   -1.6072 H   0  0  0  0  0  0  0  0  0  0  0  0
   -3.1134   -2.6643   -3.1001 N   0  0  0  0  0  0  0  0  0  0  0  0
   -2.8910   -2.1271   -4.0396 N   0  0  0  0  0  0  0  0  0  0  0  0
   -0.2840   -7.1833   -0.5400 C   0  0  0  0  0  0  0  0  0  0  0  0
   -0.9222   -7.6242    0.6190 C   0  0  0  0  0  0  0  0  0  0  0  0
   -2.1387   -7.0673    1.0341 C   0  0  0  0  0  0  0  0  0  0  0  0
   -2.7135   -6.0517    0.2520 C   0  0  0  0  0  0  0  0  0  0  0  0
   -2.0950   -5.5974   -0.9083 C   0  0  0  0  0  0  0  0  0  0  0  0
   -0.8787   -6.1708   -1.2924 C   0  0  0  0  0  0  0  0  0  0  0  0
    0.6497   -7.6236   -0.8694 H   0  0  0  0  0  0  0  0  0  0  0  0
   -0.4694   -8.4185    1.2062 H   0  0  0  0  0  0  0  0  0  0  0  0
   -3.6632   -5.6183    0.5530 H   0  0  0  0  0  0  0  0  0  0  0  0
   -2.5492   -4.8234   -1.5177 H   0  0  0  0  0  0  0  0  0  0  0  0
   -0.0755   -5.5932   -2.7758 S   0  0  0  0  0  0  0  0  0  0  0  0
    0.6938   -4.2008   -2.2674 O   0  0  0  0  0  0  0  0  0  0  0  0
   -1.0734   -5.0886   -3.7079 O   0  0  0  0  0  0  0  0  0  0  0  0
    0.9335   -6.5707   -3.1740 O   0  0  0  0  0  0  0  0  0  0  0  0
   -2.8193   -7.5368    2.2969 C   0  0  0  0  0  0  0  0  0  0  0  0
   -2.7465   -6.7792    3.0872 H   0  0  0  0  0  0  0  0  0  0  0  0
   -3.8847   -7.7243    2.1284 H   0  0  0  0  0  0  0  0  0  0  0  0
   -2.3684   -8.4566    2.6768 H   0  0  0  0  0  0  0  0  0  0  0  0
    5.2948   -4.3558    0.8246 O   0  0  0  0  0  0  0  0  0  0  0  0
    5.2882   -3.9542    2.1851 C   0  0  0  0  0  0  0  0  0  0  0  0
    6.3159   -4.0610    2.5358 H   0  0  0  0  0  0  0  0  0  0  0  0
    4.9764   -2.9078    2.2976 H   0  0  0  0  0  0  0  0  0  0  0  0
    4.6327   -4.5911    2.7928 H   0  0  0  0  0  0  0  0  0  0  0  0
  1  7  1  0  0  0  0
  2  8  1  0  0  0  0
  2  1  2  0  0  0  0
  3  2  1  0  0  0  0
  4  3  2  0  0  0  0
  4  5  1  0  0  0  0
  5  6  2  0  0  0  0
  6  1  1  0  0  0  0
  6 31  1  0  0  0  0
  9  4  1  0  0  0  0
 10  5  1  0  0  0  0
 12 11  3  0  0  0  0
 13 14  2  0  0  0  0
 14 15  1  0  0  0  0
 14 20  1  0  0  0  0
 15 27  1  0  0  0  0
 16 21  1  0  0  0  0
 16 15  2  0  0  0  0
 17 16  1  0  0  0  0
 18 17  2  0  0  0  0
 18 13  1  0  0  0  0
 19 13  1  0  0  0  0
 22 17  1  0  0  0  0
 23 24  1  0  0  0  0
 23 18  1  0  0  0  0
 24  3  1  0  0  0  0
 25 23  2  0  0  0  0
 26 23  2  0  0  0  0
 27 30  1  0  0  0  0
 27 28  1  0  0  0  0
 29 27  1  0  0  0  0
 31 32  1  0  0  0  0
 32 34  1  0  0  0  0
 32 33  1  0  0  0  0
 32 35  1  0  0  0  0
M  END
