Coordinates from ORCA-job 4-MeO-Ph-N2-OTs-B3LYPG-6-31G_dp-MTMO-d009-169-n800
 OpenBabel09051908173D

 35 35  0  0  0  0  0  0  0  0999 V2000
    4.3192   -2.0755   -0.3027 C   0  0  0  0  0  0  0  0  0  0  0  0
    3.0332   -2.0672   -0.8527 C   0  0  0  0  0  0  0  0  0  0  0  0
    2.4091   -3.2915   -0.9027 C   0  0  0  0  0  0  0  0  0  0  0  0
    2.8709   -4.5188   -0.4936 C   0  0  0  0  0  0  0  0  0  0  0  0
    4.1580   -4.4900    0.0379 C   0  0  0  0  0  0  0  0  0  0  0  0
    4.8806   -3.2852    0.1427 C   0  0  0  0  0  0  0  0  0  0  0  0
    4.8608   -1.1406   -0.2325 H   0  0  0  0  0  0  0  0  0  0  0  0
    2.5706   -1.1560   -1.2097 H   0  0  0  0  0  0  0  0  0  0  0  0
    2.2921   -5.4392   -0.5925 H   0  0  0  0  0  0  0  0  0  0  0  0
    4.6238   -5.4060    0.3837 H   0  0  0  0  0  0  0  0  0  0  0  0
    0.8253   -3.2201   -1.6224 N   0  0  0  0  0  0  0  0  0  0  0  0
    0.1692   -2.6326   -2.3094 N   0  0  0  0  0  0  0  0  0  0  0  0
   -1.4169   -7.7924    0.3996 C   0  0  0  0  0  0  0  0  0  0  0  0
   -2.5248   -8.4332    0.9490 C   0  0  0  0  0  0  0  0  0  0  0  0
   -3.8106   -8.2373    0.4233 C   0  0  0  0  0  0  0  0  0  0  0  0
   -3.9557   -7.3879   -0.6823 C   0  0  0  0  0  0  0  0  0  0  0  0
   -2.8564   -6.7388   -1.2426 C   0  0  0  0  0  0  0  0  0  0  0  0
   -1.5901   -6.9424   -0.6942 C   0  0  0  0  0  0  0  0  0  0  0  0
   -0.4205   -7.9589    0.7937 H   0  0  0  0  0  0  0  0  0  0  0  0
   -2.3901   -9.1010    1.7966 H   0  0  0  0  0  0  0  0  0  0  0  0
   -4.9420   -7.2380   -1.1144 H   0  0  0  0  0  0  0  0  0  0  0  0
   -2.9659   -6.0964   -2.1095 H   0  0  0  0  0  0  0  0  0  0  0  0
   -0.1765   -6.0806   -1.3877 S   0  0  0  0  0  0  0  0  0  0  0  0
   -0.0956   -4.8067   -0.5300 O   0  0  0  0  0  0  0  0  0  0  0  0
   -0.4816   -5.7648   -2.7964 O   0  0  0  0  0  0  0  0  0  0  0  0
    1.0115   -6.9391   -1.1420 O   0  0  0  0  0  0  0  0  0  0  0  0
   -5.0093   -8.9128    1.0469 C   0  0  0  0  0  0  0  0  0  0  0  0
   -5.8353   -9.0007    0.3349 H   0  0  0  0  0  0  0  0  0  0  0  0
   -4.7616   -9.9166    1.4049 H   0  0  0  0  0  0  0  0  0  0  0  0
   -5.3787   -8.3438    1.9092 H   0  0  0  0  0  0  0  0  0  0  0  0
    6.1139   -3.3958    0.6867 O   0  0  0  0  0  0  0  0  0  0  0  0
    6.9100   -2.2246    0.8344 C   0  0  0  0  0  0  0  0  0  0  0  0
    7.8435   -2.5554    1.2893 H   0  0  0  0  0  0  0  0  0  0  0  0
    7.1243   -1.7614   -0.1361 H   0  0  0  0  0  0  0  0  0  0  0  0
    6.4253   -1.4919    1.4913 H   0  0  0  0  0  0  0  0  0  0  0  0
  1  7  1  0  0  0  0
  1  6  2  0  0  0  0
  2  1  1  0  0  0  0
  3  2  2  0  0  0  0
  3  4  1  0  0  0  0
  4  5  2  0  0  0  0
  5  6  1  0  0  0  0
  5 10  1  0  0  0  0
  6 31  1  0  0  0  0
  8  2  1  0  0  0  0
  9  4  1  0  0  0  0
 11  3  1  0  0  0  0
 12 11  2  0  0  0  0
 13 19  1  0  0  0  0
 13 14  2  0  0  0  0
 14 20  1  0  0  0  0
 15 14  1  0  0  0  0
 15 27  1  0  0  0  0
 16 15  2  0  0  0  0
 17 18  2  0  0  0  0
 17 16  1  0  0  0  0
 18 13  1  0  0  0  0
 21 16  1  0  0  0  0
 22 17  1  0  0  0  0
 23 26  2  0  0  0  0
 23 18  1  0  0  0  0
 23 24  1  0  0  0  0
 25 23  2  0  0  0  0
 27 29  1  0  0  0  0
 27 30  1  0  0  0  0
 28 27  1  0  0  0  0
 31 32  1  0  0  0  0
 32 33  1  0  0  0  0
 32 35  1  0  0  0  0
 34 32  1  0  0  0  0
M  RAD  2  12   2  24   2
M  END
