Coordinates from ORCA-job 4-MeO-Ph-N2-OTs-B3LYPG-6-31G_dp-MTMO-d009-169-n800
 OpenBabel09051908173D

 35 35  0  0  0  0  0  0  0  0999 V2000
    3.7188   -3.9243    0.6023 C   0  0  0  0  0  0  0  0  0  0  0  0
    2.7425   -3.8437   -0.3949 C   0  0  0  0  0  0  0  0  0  0  0  0
    2.9492   -4.4637   -1.6222 C   0  0  0  0  0  0  0  0  0  0  0  0
    4.1263   -5.1749   -1.8748 C   0  0  0  0  0  0  0  0  0  0  0  0
    5.0934   -5.2631   -0.8830 C   0  0  0  0  0  0  0  0  0  0  0  0
    4.8984   -4.6387    0.3600 C   0  0  0  0  0  0  0  0  0  0  0  0
    3.5482   -3.4297    1.5508 H   0  0  0  0  0  0  0  0  0  0  0  0
    1.8250   -3.2899   -0.2265 H   0  0  0  0  0  0  0  0  0  0  0  0
    4.2671   -5.6525   -2.8367 H   0  0  0  0  0  0  0  0  0  0  0  0
    6.0173   -5.8067   -1.0489 H   0  0  0  0  0  0  0  0  0  0  0  0
  -12.4632   -8.7125    0.2703 N   0  0  0  0  0  0  0  0  0  0  0  0
  -13.4131   -9.2282    0.0392 N   0  0  0  0  0  0  0  0  0  0  0  0
    0.0426   -6.5103   -0.6508 C   0  0  0  0  0  0  0  0  0  0  0  0
   -0.8794   -6.5359    0.3957 C   0  0  0  0  0  0  0  0  0  0  0  0
   -2.0013   -5.6970    0.3954 C   0  0  0  0  0  0  0  0  0  0  0  0
   -2.1834   -4.8208   -0.6872 C   0  0  0  0  0  0  0  0  0  0  0  0
   -1.2762   -4.7793   -1.7410 C   0  0  0  0  0  0  0  0  0  0  0  0
   -0.1662   -5.6287   -1.7110 C   0  0  0  0  0  0  0  0  0  0  0  0
    0.9028   -7.1703   -0.6569 H   0  0  0  0  0  0  0  0  0  0  0  0
   -0.7250   -7.2228    1.2237 H   0  0  0  0  0  0  0  0  0  0  0  0
   -3.0521   -4.1677   -0.7063 H   0  0  0  0  0  0  0  0  0  0  0  0
   -1.4257   -4.1139   -2.5846 H   0  0  0  0  0  0  0  0  0  0  0  0
    1.0066   -5.5695   -3.0531 S   0  0  0  0  0  0  0  0  0  0  0  0
    1.9911   -4.2883   -2.6287 O   0  0  0  0  0  0  0  0  0  0  0  0
    0.3423   -5.0874   -4.2547 O   0  0  0  0  0  0  0  0  0  0  0  0
    1.7992   -6.7958   -3.0397 O   0  0  0  0  0  0  0  0  0  0  0  0
   -3.0099   -5.7440    1.5176 C   0  0  0  0  0  0  0  0  0  0  0  0
   -3.2657   -4.7382    1.8657 H   0  0  0  0  0  0  0  0  0  0  0  0
   -3.9424   -6.2156    1.1854 H   0  0  0  0  0  0  0  0  0  0  0  0
   -2.6353   -6.3146    2.3711 H   0  0  0  0  0  0  0  0  0  0  0  0
    5.9152   -4.7843    1.2577 O   0  0  0  0  0  0  0  0  0  0  0  0
    5.7820   -4.1718    2.5302 C   0  0  0  0  0  0  0  0  0  0  0  0
    6.6960   -4.4108    3.0767 H   0  0  0  0  0  0  0  0  0  0  0  0
    5.6855   -3.0814    2.4476 H   0  0  0  0  0  0  0  0  0  0  0  0
    4.9192   -4.5669    3.0822 H   0  0  0  0  0  0  0  0  0  0  0  0
  1  7  1  0  0  0  0
  2  8  1  0  0  0  0
  2  1  2  0  0  0  0
  3  2  1  0  0  0  0
  4  3  2  0  0  0  0
  4  5  1  0  0  0  0
  5  6  2  0  0  0  0
  6  1  1  0  0  0  0
  6 31  1  0  0  0  0
  9  4  1  0  0  0  0
 10  5  1  0  0  0  0
 12 11  3  0  0  0  0
 13 14  2  0  0  0  0
 14 20  1  0  0  0  0
 15 14  1  0  0  0  0
 15 27  1  0  0  0  0
 16 15  2  0  0  0  0
 17 18  2  0  0  0  0
 17 16  1  0  0  0  0
 18 13  1  0  0  0  0
 19 13  1  0  0  0  0
 21 16  1  0  0  0  0
 22 17  1  0  0  0  0
 23 26  2  0  0  0  0
 23 24  1  0  0  0  0
 23 18  1  0  0  0  0
 24  3  1  0  0  0  0
 25 23  2  0  0  0  0
 27 28  1  0  0  0  0
 27 30  1  0  0  0  0
 29 27  1  0  0  0  0
 31 32  1  0  0  0  0
 32 33  1  0  0  0  0
 32 35  1  0  0  0  0
 34 32  1  0  0  0  0
M  END
