Coordinates from ORCA-job 4-MeO-Ph-N2-OTs-B3LYPG-6-31G_dp-MTMO-d009-169-n800
 OpenBabel09051908173D

 35 35  0  0  0  0  0  0  0  0999 V2000
    2.8062   -3.8658    0.6109 C   0  0  0  0  0  0  0  0  0  0  0  0
    1.6643   -3.9109   -0.1940 C   0  0  0  0  0  0  0  0  0  0  0  0
    1.7611   -4.3317   -1.5156 C   0  0  0  0  0  0  0  0  0  0  0  0
    2.9919   -4.7180   -2.0554 C   0  0  0  0  0  0  0  0  0  0  0  0
    4.1252   -4.6839   -1.2546 C   0  0  0  0  0  0  0  0  0  0  0  0
    4.0422   -4.2567    0.0809 C   0  0  0  0  0  0  0  0  0  0  0  0
    2.7177   -3.5257    1.6351 H   0  0  0  0  0  0  0  0  0  0  0  0
    0.6998   -3.6070    0.1981 H   0  0  0  0  0  0  0  0  0  0  0  0
    3.0456   -5.0450   -3.0865 H   0  0  0  0  0  0  0  0  0  0  0  0
    5.0939   -4.9787   -1.6437 H   0  0  0  0  0  0  0  0  0  0  0  0
   -2.3884   -2.4008   -2.8410 N   0  0  0  0  0  0  0  0  0  0  0  0
   -1.9817   -1.8060   -3.6786 N   0  0  0  0  0  0  0  0  0  0  0  0
   -0.3217   -7.2782   -0.5461 C   0  0  0  0  0  0  0  0  0  0  0  0
   -0.9495   -7.7077    0.6231 C   0  0  0  0  0  0  0  0  0  0  0  0
   -2.1499   -7.1303    1.0561 C   0  0  0  0  0  0  0  0  0  0  0  0
   -2.7192   -6.1049    0.2823 C   0  0  0  0  0  0  0  0  0  0  0  0
   -2.1114   -5.6627   -0.8880 C   0  0  0  0  0  0  0  0  0  0  0  0
   -0.9112   -6.2573   -1.2907 C   0  0  0  0  0  0  0  0  0  0  0  0
    0.6005   -7.7325   -0.8889 H   0  0  0  0  0  0  0  0  0  0  0  0
   -0.5008   -8.5085    1.2044 H   0  0  0  0  0  0  0  0  0  0  0  0
   -3.6558   -5.6542    0.5984 H   0  0  0  0  0  0  0  0  0  0  0  0
   -2.5596   -4.8786   -1.4890 H   0  0  0  0  0  0  0  0  0  0  0  0
   -0.1248   -5.6983   -2.7903 S   0  0  0  0  0  0  0  0  0  0  0  0
    0.6130   -4.2765   -2.3168 O   0  0  0  0  0  0  0  0  0  0  0  0
   -1.1359   -5.2381   -3.7309 O   0  0  0  0  0  0  0  0  0  0  0  0
    0.9047   -6.6623   -3.1686 O   0  0  0  0  0  0  0  0  0  0  0  0
   -2.8195   -7.5877    2.3291 C   0  0  0  0  0  0  0  0  0  0  0  0
   -2.7366   -6.8244    3.1128 H   0  0  0  0  0  0  0  0  0  0  0  0
   -3.8871   -7.7729    2.1723 H   0  0  0  0  0  0  0  0  0  0  0  0
   -2.3682   -8.5063    2.7113 H   0  0  0  0  0  0  0  0  0  0  0  0
    5.2180   -4.2554    0.7725 O   0  0  0  0  0  0  0  0  0  0  0  0
    5.2031   -3.8257    2.1244 C   0  0  0  0  0  0  0  0  0  0  0  0
    6.2331   -3.9018    2.4762 H   0  0  0  0  0  0  0  0  0  0  0  0
    4.8680   -2.7844    2.2154 H   0  0  0  0  0  0  0  0  0  0  0  0
    4.5626   -4.4644    2.7460 H   0  0  0  0  0  0  0  0  0  0  0  0
  1  7  1  0  0  0  0
  2  8  1  0  0  0  0
  2  1  2  0  0  0  0
  3  2  1  0  0  0  0
  4  3  2  0  0  0  0
  4  5  1  0  0  0  0
  5  6  2  0  0  0  0
  6  1  1  0  0  0  0
  6 31  1  0  0  0  0
  9  4  1  0  0  0  0
 10  5  1  0  0  0  0
 12 11  3  0  0  0  0
 13 14  2  0  0  0  0
 14 15  1  0  0  0  0
 14 20  1  0  0  0  0
 15 27  1  0  0  0  0
 16 21  1  0  0  0  0
 16 15  2  0  0  0  0
 17 16  1  0  0  0  0
 18 17  2  0  0  0  0
 18 13  1  0  0  0  0
 19 13  1  0  0  0  0
 22 17  1  0  0  0  0
 23 24  1  0  0  0  0
 23 18  1  0  0  0  0
 24  3  1  0  0  0  0
 25 23  2  0  0  0  0
 26 23  2  0  0  0  0
 27 30  1  0  0  0  0
 27 28  1  0  0  0  0
 29 27  1  0  0  0  0
 31 32  1  0  0  0  0
 32 34  1  0  0  0  0
 32 33  1  0  0  0  0
 32 35  1  0  0  0  0
M  END
