Coordinates from ORCA-job 4-MeO-Ph-N2-OTs-B3LYPG-6-31G_dp-MTMO-d009-169-n800
 OpenBabel09051908173D

 35 35  0  0  0  0  0  0  0  0999 V2000
    3.0954   -3.9110    0.7130 C   0  0  0  0  0  0  0  0  0  0  0  0
    2.1086   -3.9115   -0.2767 C   0  0  0  0  0  0  0  0  0  0  0  0
    2.3919   -4.4151   -1.5414 C   0  0  0  0  0  0  0  0  0  0  0  0
    3.6580   -4.9283   -1.8395 C   0  0  0  0  0  0  0  0  0  0  0  0
    4.6364   -4.9379   -0.8548 C   0  0  0  0  0  0  0  0  0  0  0  0
    4.3643   -4.4288    0.4256 C   0  0  0  0  0  0  0  0  0  0  0  0
    2.8631   -3.5074    1.6909 H   0  0  0  0  0  0  0  0  0  0  0  0
    1.1220   -3.5094   -0.0735 H   0  0  0  0  0  0  0  0  0  0  0  0
    3.8588   -5.3176   -2.8300 H   0  0  0  0  0  0  0  0  0  0  0  0
    5.6275   -5.3305   -1.0550 H   0  0  0  0  0  0  0  0  0  0  0  0
   -6.0982   -4.0336   -0.4412 N   0  0  0  0  0  0  0  0  0  0  0  0
   -7.0511   -3.5024   -0.6174 N   0  0  0  0  0  0  0  0  0  0  0  0
   -0.0732   -7.0336   -0.7604 C   0  0  0  0  0  0  0  0  0  0  0  0
   -0.9419   -7.3272    0.2893 C   0  0  0  0  0  0  0  0  0  0  0  0
   -2.1863   -6.6910    0.4022 C   0  0  0  0  0  0  0  0  0  0  0  0
   -2.5505   -5.7497   -0.5735 C   0  0  0  0  0  0  0  0  0  0  0  0
   -1.6969   -5.4423   -1.6300 C   0  0  0  0  0  0  0  0  0  0  0  0
   -0.4613   -6.0889   -1.7120 C   0  0  0  0  0  0  0  0  0  0  0  0
    0.8805   -7.5396   -0.8577 H   0  0  0  0  0  0  0  0  0  0  0  0
   -0.6515   -8.0693    1.0285 H   0  0  0  0  0  0  0  0  0  0  0  0
   -3.5181   -5.2602   -0.5106 H   0  0  0  0  0  0  0  0  0  0  0  0
   -1.9859   -4.7292   -2.3947 H   0  0  0  0  0  0  0  0  0  0  0  0
    0.6343   -5.6988   -3.0632 S   0  0  0  0  0  0  0  0  0  0  0  0
    1.4069   -4.3158   -2.5322 O   0  0  0  0  0  0  0  0  0  0  0  0
   -0.1436   -5.2217   -4.1967 O   0  0  0  0  0  0  0  0  0  0  0  0
    1.6208   -6.7681   -3.1915 O   0  0  0  0  0  0  0  0  0  0  0  0
   -3.1089   -6.9991    1.5565 C   0  0  0  0  0  0  0  0  0  0  0  0
   -2.9012   -6.3410    2.4094 H   0  0  0  0  0  0  0  0  0  0  0  0
   -4.1572   -6.8524    1.2806 H   0  0  0  0  0  0  0  0  0  0  0  0
   -2.9865   -8.0291    1.9033 H   0  0  0  0  0  0  0  0  0  0  0  0
    5.3994   -4.4815    1.3127 O   0  0  0  0  0  0  0  0  0  0  0  0
    5.1934   -3.9650    2.6178 C   0  0  0  0  0  0  0  0  0  0  0  0
    6.1364   -4.1039    3.1492 H   0  0  0  0  0  0  0  0  0  0  0  0
    4.9458   -2.8959    2.5961 H   0  0  0  0  0  0  0  0  0  0  0  0
    4.3988   -4.5062    3.1477 H   0  0  0  0  0  0  0  0  0  0  0  0
  1  7  1  0  0  0  0
  2  8  1  0  0  0  0
  2  1  2  0  0  0  0
  3  2  1  0  0  0  0
  4  3  2  0  0  0  0
  4  5  1  0  0  0  0
  5  6  2  0  0  0  0
  6  1  1  0  0  0  0
  6 31  1  0  0  0  0
  9  4  1  0  0  0  0
 10  5  1  0  0  0  0
 12 11  3  0  0  0  0
 13 14  2  0  0  0  0
 14 15  1  0  0  0  0
 14 20  1  0  0  0  0
 15 27  1  0  0  0  0
 16 21  1  0  0  0  0
 16 15  2  0  0  0  0
 17 16  1  0  0  0  0
 18 17  2  0  0  0  0
 18 13  1  0  0  0  0
 19 13  1  0  0  0  0
 22 17  1  0  0  0  0
 23 24  1  0  0  0  0
 23 18  1  0  0  0  0
 24  3  1  0  0  0  0
 25 23  2  0  0  0  0
 26 23  2  0  0  0  0
 27 30  1  0  0  0  0
 27 28  1  0  0  0  0
 29 27  1  0  0  0  0
 31 32  1  0  0  0  0
 32 35  1  0  0  0  0
 32 33  1  0  0  0  0
 34 32  1  0  0  0  0
M  END
