Coordinates from ORCA-job 4-MeO-Ph-N2-OTs-B3LYPG-6-31G_dp-MTMO-d009-169-n800
 OpenBabel09051908173D

 35 35  0  0  0  0  0  0  0  0999 V2000
    3.7035   -3.9405    0.6078 C   0  0  0  0  0  0  0  0  0  0  0  0
    2.7305   -3.8535   -0.3921 C   0  0  0  0  0  0  0  0  0  0  0  0
    2.9371   -4.4735   -1.6193 C   0  0  0  0  0  0  0  0  0  0  0  0
    4.1107   -5.1913   -1.8692 C   0  0  0  0  0  0  0  0  0  0  0  0
    5.0745   -5.2858   -0.8749 C   0  0  0  0  0  0  0  0  0  0  0  0
    4.8797   -4.6613    0.3680 C   0  0  0  0  0  0  0  0  0  0  0  0
    3.5331   -3.4457    1.5561 H   0  0  0  0  0  0  0  0  0  0  0  0
    1.8156   -3.2946   -0.2257 H   0  0  0  0  0  0  0  0  0  0  0  0
    4.2514   -5.6689   -2.8312 H   0  0  0  0  0  0  0  0  0  0  0  0
    5.9958   -5.8345   -1.0387 H   0  0  0  0  0  0  0  0  0  0  0  0
  -12.1202   -8.7028    0.3102 N   0  0  0  0  0  0  0  0  0  0  0  0
  -13.0685   -9.2213    0.0788 N   0  0  0  0  0  0  0  0  0  0  0  0
    0.0121   -6.5023   -0.6585 C   0  0  0  0  0  0  0  0  0  0  0  0
   -0.9136   -6.5217    0.3848 C   0  0  0  0  0  0  0  0  0  0  0  0
   -2.0289   -5.6739    0.3817 C   0  0  0  0  0  0  0  0  0  0  0  0
   -2.2004   -4.7952   -0.7006 C   0  0  0  0  0  0  0  0  0  0  0  0
   -1.2894   -4.7598   -1.7512 C   0  0  0  0  0  0  0  0  0  0  0  0
   -0.1862   -5.6179   -1.7184 C   0  0  0  0  0  0  0  0  0  0  0  0
    0.8671   -7.1689   -0.6623 H   0  0  0  0  0  0  0  0  0  0  0  0
   -0.7673   -7.2106    1.2127 H   0  0  0  0  0  0  0  0  0  0  0  0
   -3.0637   -4.1350   -0.7217 H   0  0  0  0  0  0  0  0  0  0  0  0
   -1.4307   -4.0921   -2.5945 H   0  0  0  0  0  0  0  0  0  0  0  0
    0.9916   -5.5663   -3.0564 S   0  0  0  0  0  0  0  0  0  0  0  0
    1.9830   -4.2917   -2.6285 O   0  0  0  0  0  0  0  0  0  0  0  0
    0.3346   -5.0798   -4.2603 O   0  0  0  0  0  0  0  0  0  0  0  0
    1.7761   -6.7978   -3.0403 O   0  0  0  0  0  0  0  0  0  0  0  0
   -3.0421   -5.7154    1.4999 C   0  0  0  0  0  0  0  0  0  0  0  0
   -3.3071   -4.7077    1.8352 H   0  0  0  0  0  0  0  0  0  0  0  0
   -3.9694   -6.1982    1.1693 H   0  0  0  0  0  0  0  0  0  0  0  0
   -2.6671   -6.2734    2.3615 H   0  0  0  0  0  0  0  0  0  0  0  0
    5.8933   -4.8133    1.2683 O   0  0  0  0  0  0  0  0  0  0  0  0
    5.7601   -4.2011    2.5410 C   0  0  0  0  0  0  0  0  0  0  0  0
    6.6714   -4.4452    3.0896 H   0  0  0  0  0  0  0  0  0  0  0  0
    5.6694   -3.1102    2.4590 H   0  0  0  0  0  0  0  0  0  0  0  0
    4.8938   -4.5921    3.0905 H   0  0  0  0  0  0  0  0  0  0  0  0
  1  7  1  0  0  0  0
  2  8  1  0  0  0  0
  2  1  2  0  0  0  0
  3  2  1  0  0  0  0
  4  3  2  0  0  0  0
  4  5  1  0  0  0  0
  5  6  2  0  0  0  0
  6  1  1  0  0  0  0
  6 31  1  0  0  0  0
  9  4  1  0  0  0  0
 10  5  1  0  0  0  0
 12 11  3  0  0  0  0
 13 14  2  0  0  0  0
 14 20  1  0  0  0  0
 15 14  1  0  0  0  0
 15 27  1  0  0  0  0
 16 15  2  0  0  0  0
 17 18  2  0  0  0  0
 17 16  1  0  0  0  0
 18 13  1  0  0  0  0
 19 13  1  0  0  0  0
 21 16  1  0  0  0  0
 22 17  1  0  0  0  0
 23 26  2  0  0  0  0
 23 24  1  0  0  0  0
 23 18  1  0  0  0  0
 24  3  1  0  0  0  0
 25 23  2  0  0  0  0
 27 28  1  0  0  0  0
 27 30  1  0  0  0  0
 29 27  1  0  0  0  0
 31 32  1  0  0  0  0
 32 33  1  0  0  0  0
 32 35  1  0  0  0  0
 34 32  1  0  0  0  0
M  END
