Coordinates from ORCA-job 4-MeO-Ph-N2-OTs-B3LYPG-6-31G_dp-MTMO-d009-169-n800
 OpenBabel09051908173D

 35 35  0  0  0  0  0  0  0  0999 V2000
    3.4547   -4.0448    0.6949 C   0  0  0  0  0  0  0  0  0  0  0  0
    2.5269   -3.9139   -0.3423 C   0  0  0  0  0  0  0  0  0  0  0  0
    2.7785   -4.4988   -1.5784 C   0  0  0  0  0  0  0  0  0  0  0  0
    3.9528   -5.2248   -1.8001 C   0  0  0  0  0  0  0  0  0  0  0  0
    4.8715   -5.3630   -0.7689 C   0  0  0  0  0  0  0  0  0  0  0  0
    4.6311   -4.7741    0.4835 C   0  0  0  0  0  0  0  0  0  0  0  0
    3.2495   -3.5764    1.6498 H   0  0  0  0  0  0  0  0  0  0  0  0
    1.6129   -3.3476   -0.1978 H   0  0  0  0  0  0  0  0  0  0  0  0
    4.1291   -5.6746   -2.7695 H   0  0  0  0  0  0  0  0  0  0  0  0
    5.7923   -5.9186   -0.9103 H   0  0  0  0  0  0  0  0  0  0  0  0
   -8.3574   -7.7817    1.0051 N   0  0  0  0  0  0  0  0  0  0  0  0
   -9.3864   -8.1765    0.9217 N   0  0  0  0  0  0  0  0  0  0  0  0
   -0.2038   -6.5269   -0.8149 C   0  0  0  0  0  0  0  0  0  0  0  0
   -1.1746   -6.5754    0.1849 C   0  0  0  0  0  0  0  0  0  0  0  0
   -2.2848   -5.7205    0.1613 C   0  0  0  0  0  0  0  0  0  0  0  0
   -2.4022   -4.8034   -0.8955 C   0  0  0  0  0  0  0  0  0  0  0  0
   -1.4448   -4.7383   -1.9032 C   0  0  0  0  0  0  0  0  0  0  0  0
   -0.3497   -5.6050   -1.8516 C   0  0  0  0  0  0  0  0  0  0  0  0
    0.6469   -7.1991   -0.8040 H   0  0  0  0  0  0  0  0  0  0  0  0
   -1.0688   -7.2931    0.9943 H   0  0  0  0  0  0  0  0  0  0  0  0
   -3.2593   -4.1358   -0.9312 H   0  0  0  0  0  0  0  0  0  0  0  0
   -1.5442   -4.0402   -2.7276 H   0  0  0  0  0  0  0  0  0  0  0  0
    0.8853   -5.5188   -3.1351 S   0  0  0  0  0  0  0  0  0  0  0  0
    1.8716   -4.2717   -2.6214 O   0  0  0  0  0  0  0  0  0  0  0  0
    0.2855   -4.9825   -4.3477 O   0  0  0  0  0  0  0  0  0  0  0  0
    1.6558   -6.7592   -3.1299 O   0  0  0  0  0  0  0  0  0  0  0  0
   -3.3493   -5.8011    1.2283 C   0  0  0  0  0  0  0  0  0  0  0  0
   -3.7244   -4.8086    1.4951 H   0  0  0  0  0  0  0  0  0  0  0  0
   -4.2076   -6.3885    0.8798 H   0  0  0  0  0  0  0  0  0  0  0  0
   -2.9722   -6.2788    2.1364 H   0  0  0  0  0  0  0  0  0  0  0  0
    5.6029   -4.9675    1.4212 O   0  0  0  0  0  0  0  0  0  0  0  0
    5.4236   -4.3903    2.7045 C   0  0  0  0  0  0  0  0  0  0  0  0
    6.3076   -4.6628    3.2836 H   0  0  0  0  0  0  0  0  0  0  0  0
    5.3505   -3.2963    2.6505 H   0  0  0  0  0  0  0  0  0  0  0  0
    4.5300   -4.7848    3.2054 H   0  0  0  0  0  0  0  0  0  0  0  0
  1  7  1  0  0  0  0
  2  8  1  0  0  0  0
  2  1  2  0  0  0  0
  3  2  1  0  0  0  0
  4  3  2  0  0  0  0
  4  5  1  0  0  0  0
  5  6  2  0  0  0  0
  6  1  1  0  0  0  0
  6 31  1  0  0  0  0
  9  4  1  0  0  0  0
 10  5  1  0  0  0  0
 12 11  3  0  0  0  0
 13 19  1  0  0  0  0
 13 14  2  0  0  0  0
 14 20  1  0  0  0  0
 15 14  1  0  0  0  0
 15 27  1  0  0  0  0
 16 15  2  0  0  0  0
 17 18  2  0  0  0  0
 17 16  1  0  0  0  0
 18 13  1  0  0  0  0
 21 16  1  0  0  0  0
 22 17  1  0  0  0  0
 23 26  2  0  0  0  0
 23 24  1  0  0  0  0
 23 18  1  0  0  0  0
 24  3  1  0  0  0  0
 25 23  2  0  0  0  0
 27 28  1  0  0  0  0
 27 30  1  0  0  0  0
 29 27  1  0  0  0  0
 31 32  1  0  0  0  0
 32 35  1  0  0  0  0
 32 33  1  0  0  0  0
 34 32  1  0  0  0  0
M  END
