Coordinates from ORCA-job 4-MeO-Ph-N2-OTs-B3LYPG-6-31G_dp-MTMO-d009-169-n800
 OpenBabel09051908173D

 35 35  0  0  0  0  0  0  0  0999 V2000
    2.9574   -3.9354    0.7112 C   0  0  0  0  0  0  0  0  0  0  0  0
    1.8117   -3.9013   -0.0886 C   0  0  0  0  0  0  0  0  0  0  0  0
    1.8860   -4.2714   -1.4269 C   0  0  0  0  0  0  0  0  0  0  0  0
    3.0984   -4.6846   -1.9885 C   0  0  0  0  0  0  0  0  0  0  0  0
    4.2350   -4.7296   -1.1928 C   0  0  0  0  0  0  0  0  0  0  0  0
    4.1746   -4.3541    0.1594 C   0  0  0  0  0  0  0  0  0  0  0  0
    2.8867   -3.6332    1.7488 H   0  0  0  0  0  0  0  0  0  0  0  0
    0.8619   -3.5740    0.3203 H   0  0  0  0  0  0  0  0  0  0  0  0
    3.1354   -4.9709   -3.0324 H   0  0  0  0  0  0  0  0  0  0  0  0
    5.1894   -5.0469   -1.5989 H   0  0  0  0  0  0  0  0  0  0  0  0
   -3.5567   -2.9106   -3.2731 N   0  0  0  0  0  0  0  0  0  0  0  0
   -3.3625   -2.3833   -4.2244 N   0  0  0  0  0  0  0  0  0  0  0  0
   -0.2501   -7.0795   -0.5125 C   0  0  0  0  0  0  0  0  0  0  0  0
   -0.8957   -7.5333    0.6370 C   0  0  0  0  0  0  0  0  0  0  0  0
   -2.1449   -7.0247    1.0167 C   0  0  0  0  0  0  0  0  0  0  0  0
   -2.7453   -6.0465    0.2072 C   0  0  0  0  0  0  0  0  0  0  0  0
   -2.1190   -5.5788   -0.9440 C   0  0  0  0  0  0  0  0  0  0  0  0
   -0.8699   -6.1019   -1.2914 C   0  0  0  0  0  0  0  0  0  0  0  0
    0.7078   -7.4856   -0.8149 H   0  0  0  0  0  0  0  0  0  0  0  0
   -0.4234   -8.3005    1.2445 H   0  0  0  0  0  0  0  0  0  0  0  0
   -3.7210   -5.6533    0.4785 H   0  0  0  0  0  0  0  0  0  0  0  0
   -2.5944   -4.8386   -1.5787 H   0  0  0  0  0  0  0  0  0  0  0  0
   -0.0549   -5.5022   -2.7591 S   0  0  0  0  0  0  0  0  0  0  0  0
    0.7376   -4.1349   -2.2176 O   0  0  0  0  0  0  0  0  0  0  0  0
   -1.0444   -4.9603   -3.6791 O   0  0  0  0  0  0  0  0  0  0  0  0
    0.9399   -6.4851   -3.1793 O   0  0  0  0  0  0  0  0  0  0  0  0
   -2.8315   -7.5061    2.2717 C   0  0  0  0  0  0  0  0  0  0  0  0
   -2.7593   -6.7569    3.0702 H   0  0  0  0  0  0  0  0  0  0  0  0
   -3.8965   -7.6898    2.0977 H   0  0  0  0  0  0  0  0  0  0  0  0
   -2.3832   -8.4302    2.6442 H   0  0  0  0  0  0  0  0  0  0  0  0
    5.3519   -4.4282    0.8445 O   0  0  0  0  0  0  0  0  0  0  0  0
    5.3594   -4.0490    2.2114 C   0  0  0  0  0  0  0  0  0  0  0  0
    6.3872   -4.1777    2.5543 H   0  0  0  0  0  0  0  0  0  0  0  0
    5.0646   -2.9998    2.3426 H   0  0  0  0  0  0  0  0  0  0  0  0
    4.6973   -4.6853    2.8125 H   0  0  0  0  0  0  0  0  0  0  0  0
  1  7  1  0  0  0  0
  2  8  1  0  0  0  0
  2  1  2  0  0  0  0
  3  2  1  0  0  0  0
  4  3  2  0  0  0  0
  4  5  1  0  0  0  0
  5  6  2  0  0  0  0
  6  1  1  0  0  0  0
  6 31  1  0  0  0  0
  9  4  1  0  0  0  0
 10  5  1  0  0  0  0
 12 11  3  0  0  0  0
 13 14  2  0  0  0  0
 14 15  1  0  0  0  0
 14 20  1  0  0  0  0
 15 27  1  0  0  0  0
 16 21  1  0  0  0  0
 16 15  2  0  0  0  0
 17 16  1  0  0  0  0
 18 17  2  0  0  0  0
 18 13  1  0  0  0  0
 19 13  1  0  0  0  0
 22 17  1  0  0  0  0
 23 24  1  0  0  0  0
 23 18  1  0  0  0  0
 24  3  1  0  0  0  0
 25 23  2  0  0  0  0
 26 23  2  0  0  0  0
 27 30  1  0  0  0  0
 27 28  1  0  0  0  0
 29 27  1  0  0  0  0
 31 32  1  0  0  0  0
 32 34  1  0  0  0  0
 32 33  1  0  0  0  0
 32 35  1  0  0  0  0
M  END
