Coordinates from ORCA-job 4-MeO-Ph-N2-OTs-B3LYPG-6-31G_dp-MTMO-d009-169-n800
 OpenBabel09051908173D

 35 35  0  0  0  0  0  0  0  0999 V2000
    3.6004   -3.9977    0.6297 C   0  0  0  0  0  0  0  0  0  0  0  0
    2.6403   -3.8920   -0.3806 C   0  0  0  0  0  0  0  0  0  0  0  0
    2.8511   -4.5107   -1.6078 C   0  0  0  0  0  0  0  0  0  0  0  0
    4.0160   -5.2460   -1.8471 C   0  0  0  0  0  0  0  0  0  0  0  0
    4.9670   -5.3590   -0.8424 C   0  0  0  0  0  0  0  0  0  0  0  0
    4.7679   -4.7359    0.4005 C   0  0  0  0  0  0  0  0  0  0  0  0
    3.4270   -3.5035    1.5778 H   0  0  0  0  0  0  0  0  0  0  0  0
    1.7324   -3.3194   -0.2225 H   0  0  0  0  0  0  0  0  0  0  0  0
    4.1602   -5.7223   -2.8092 H   0  0  0  0  0  0  0  0  0  0  0  0
    5.8815   -5.9212   -0.9980 H   0  0  0  0  0  0  0  0  0  0  0  0
  -10.2655   -8.4025    0.4532 N   0  0  0  0  0  0  0  0  0  0  0  0
  -11.2130   -8.9216    0.2197 N   0  0  0  0  0  0  0  0  0  0  0  0
   -0.1204   -6.4969   -0.6907 C   0  0  0  0  0  0  0  0  0  0  0  0
   -1.0584   -6.5048    0.3414 C   0  0  0  0  0  0  0  0  0  0  0  0
   -2.1581   -5.6367    0.3297 C   0  0  0  0  0  0  0  0  0  0  0  0
   -2.3004   -4.7491   -0.7493 C   0  0  0  0  0  0  0  0  0  0  0  0
   -1.3765   -4.7250   -1.7891 C   0  0  0  0  0  0  0  0  0  0  0  0
   -0.2899   -5.6034   -1.7481 C   0  0  0  0  0  0  0  0  0  0  0  0
    0.7226   -7.1789   -0.6881 H   0  0  0  0  0  0  0  0  0  0  0  0
   -0.9345   -7.2005    1.1673 H   0  0  0  0  0  0  0  0  0  0  0  0
   -3.1507   -4.0725   -0.7765 H   0  0  0  0  0  0  0  0  0  0  0  0
   -1.4952   -4.0500   -2.6300 H   0  0  0  0  0  0  0  0  0  0  0  0
    0.9048   -5.5663   -3.0717 S   0  0  0  0  0  0  0  0  0  0  0  0
    1.9118   -4.3097   -2.6273 O   0  0  0  0  0  0  0  0  0  0  0  0
    0.2704   -5.0646   -4.2815 O   0  0  0  0  0  0  0  0  0  0  0  0
    1.6685   -6.8106   -3.0510 O   0  0  0  0  0  0  0  0  0  0  0  0
   -3.1860   -5.6684    1.4347 C   0  0  0  0  0  0  0  0  0  0  0  0
   -3.4782   -4.6582    1.7372 H   0  0  0  0  0  0  0  0  0  0  0  0
   -4.0972   -6.1823    1.1057 H   0  0  0  0  0  0  0  0  0  0  0  0
   -2.8113   -6.1935    2.3171 H   0  0  0  0  0  0  0  0  0  0  0  0
    5.7690   -4.9065    1.3115 O   0  0  0  0  0  0  0  0  0  0  0  0
    5.6309   -4.2966    2.5848 C   0  0  0  0  0  0  0  0  0  0  0  0
    6.5326   -4.5558    3.1423 H   0  0  0  0  0  0  0  0  0  0  0  0
    5.5571   -3.2042    2.5055 H   0  0  0  0  0  0  0  0  0  0  0  0
    4.7531   -4.6767    3.1236 H   0  0  0  0  0  0  0  0  0  0  0  0
  1  7  1  0  0  0  0
  2  8  1  0  0  0  0
  2  1  2  0  0  0  0
  3  2  1  0  0  0  0
  4  3  2  0  0  0  0
  4  5  1  0  0  0  0
  5  6  2  0  0  0  0
  6  1  1  0  0  0  0
  6 31  1  0  0  0  0
  9  4  1  0  0  0  0
 10  5  1  0  0  0  0
 12 11  3  0  0  0  0
 13 19  1  0  0  0  0
 13 14  2  0  0  0  0
 14 20  1  0  0  0  0
 15 14  1  0  0  0  0
 15 27  1  0  0  0  0
 16 15  2  0  0  0  0
 17 18  2  0  0  0  0
 17 16  1  0  0  0  0
 18 13  1  0  0  0  0
 21 16  1  0  0  0  0
 22 17  1  0  0  0  0
 23 26  2  0  0  0  0
 23 24  1  0  0  0  0
 23 18  1  0  0  0  0
 24  3  1  0  0  0  0
 25 23  2  0  0  0  0
 27 28  1  0  0  0  0
 27 30  1  0  0  0  0
 29 27  1  0  0  0  0
 31 32  1  0  0  0  0
 32 35  1  0  0  0  0
 32 33  1  0  0  0  0
 34 32  1  0  0  0  0
M  END
