Coordinates from ORCA-job 4-MeO-Ph-N2-OTs-B3LYPG-6-31G_dp-MTMO-d009-169-n800
 OpenBabel09051908173D

 35 35  0  0  0  0  0  0  0  0999 V2000
    3.5965   -3.9999    0.6294 C   0  0  0  0  0  0  0  0  0  0  0  0
    2.6364   -3.8938   -0.3809 C   0  0  0  0  0  0  0  0  0  0  0  0
    2.8466   -4.5131   -1.6080 C   0  0  0  0  0  0  0  0  0  0  0  0
    4.0111   -5.2493   -1.8471 C   0  0  0  0  0  0  0  0  0  0  0  0
    4.9620   -5.3627   -0.8424 C   0  0  0  0  0  0  0  0  0  0  0  0
    4.7635   -4.7390    0.4004 C   0  0  0  0  0  0  0  0  0  0  0  0
    3.4235   -3.5053    1.5774 H   0  0  0  0  0  0  0  0  0  0  0  0
    1.7290   -3.3205   -0.2230 H   0  0  0  0  0  0  0  0  0  0  0  0
    4.1548   -5.7260   -2.8091 H   0  0  0  0  0  0  0  0  0  0  0  0
    5.8761   -5.9256   -0.9978 H   0  0  0  0  0  0  0  0  0  0  0  0
  -10.1905   -8.3911    0.4471 N   0  0  0  0  0  0  0  0  0  0  0  0
  -11.1364   -8.9120    0.2114 N   0  0  0  0  0  0  0  0  0  0  0  0
   -0.1260   -6.4967   -0.6897 C   0  0  0  0  0  0  0  0  0  0  0  0
   -1.0638   -6.5034    0.3426 C   0  0  0  0  0  0  0  0  0  0  0  0
   -2.1627   -5.6344    0.3309 C   0  0  0  0  0  0  0  0  0  0  0  0
   -2.3045   -4.7470   -0.7483 C   0  0  0  0  0  0  0  0  0  0  0  0
   -1.3808   -4.7240   -1.7884 C   0  0  0  0  0  0  0  0  0  0  0  0
   -0.2950   -5.6033   -1.7474 C   0  0  0  0  0  0  0  0  0  0  0  0
    0.7164   -7.1793   -0.6871 H   0  0  0  0  0  0  0  0  0  0  0  0
   -0.9403   -7.1990    1.1686 H   0  0  0  0  0  0  0  0  0  0  0  0
   -3.1543   -4.0696   -0.7756 H   0  0  0  0  0  0  0  0  0  0  0  0
   -1.4991   -4.0491   -2.6295 H   0  0  0  0  0  0  0  0  0  0  0  0
    0.8994   -5.5675   -3.0712 S   0  0  0  0  0  0  0  0  0  0  0  0
    1.9075   -4.3116   -2.6274 O   0  0  0  0  0  0  0  0  0  0  0  0
    0.2652   -5.0656   -4.2810 O   0  0  0  0  0  0  0  0  0  0  0  0
    1.6622   -6.8125   -3.0503 O   0  0  0  0  0  0  0  0  0  0  0  0
   -3.1902   -5.6648    1.4362 C   0  0  0  0  0  0  0  0  0  0  0  0
   -3.4823   -4.6542    1.7377 H   0  0  0  0  0  0  0  0  0  0  0  0
   -4.1016   -6.1790    1.1081 H   0  0  0  0  0  0  0  0  0  0  0  0
   -2.8154   -6.1890    2.3190 H   0  0  0  0  0  0  0  0  0  0  0  0
    5.7645   -4.9101    1.3114 O   0  0  0  0  0  0  0  0  0  0  0  0
    5.6269   -4.2996    2.5844 C   0  0  0  0  0  0  0  0  0  0  0  0
    6.5284   -4.5593    3.1420 H   0  0  0  0  0  0  0  0  0  0  0  0
    5.5538   -3.2072    2.5047 H   0  0  0  0  0  0  0  0  0  0  0  0
    4.7489   -4.6790    3.1234 H   0  0  0  0  0  0  0  0  0  0  0  0
  1  7  1  0  0  0  0
  2  8  1  0  0  0  0
  2  1  2  0  0  0  0
  3  2  1  0  0  0  0
  4  3  2  0  0  0  0
  4  5  1  0  0  0  0
  5  6  2  0  0  0  0
  6  1  1  0  0  0  0
  6 31  1  0  0  0  0
  9  4  1  0  0  0  0
 10  5  1  0  0  0  0
 12 11  3  0  0  0  0
 13 19  1  0  0  0  0
 13 14  2  0  0  0  0
 14 20  1  0  0  0  0
 15 14  1  0  0  0  0
 15 27  1  0  0  0  0
 16 15  2  0  0  0  0
 17 18  2  0  0  0  0
 17 16  1  0  0  0  0
 18 13  1  0  0  0  0
 21 16  1  0  0  0  0
 22 17  1  0  0  0  0
 23 26  2  0  0  0  0
 23 24  1  0  0  0  0
 23 18  1  0  0  0  0
 24  3  1  0  0  0  0
 25 23  2  0  0  0  0
 27 28  1  0  0  0  0
 27 30  1  0  0  0  0
 29 27  1  0  0  0  0
 31 32  1  0  0  0  0
 32 35  1  0  0  0  0
 32 33  1  0  0  0  0
 34 32  1  0  0  0  0
M  END
