Coordinates from ORCA-job 4-MeO-Ph-N2-OTs-B3LYPG-6-31G_dp-MTMO-d009-169-n800
 OpenBabel09051908173D

 35 35  0  0  0  0  0  0  0  0999 V2000
    2.7828   -3.8558    0.5934 C   0  0  0  0  0  0  0  0  0  0  0  0
    1.6413   -3.9130   -0.2111 C   0  0  0  0  0  0  0  0  0  0  0  0
    1.7406   -4.3407   -1.5304 C   0  0  0  0  0  0  0  0  0  0  0  0
    2.9739   -4.7221   -2.0680 C   0  0  0  0  0  0  0  0  0  0  0  0
    4.1071   -4.6760   -1.2675 C   0  0  0  0  0  0  0  0  0  0  0  0
    4.0214   -4.2414    0.0654 C   0  0  0  0  0  0  0  0  0  0  0  0
    2.6923   -3.5105    1.6157 H   0  0  0  0  0  0  0  0  0  0  0  0
    0.6747   -3.6132    0.1793 H   0  0  0  0  0  0  0  0  0  0  0  0
    3.0296   -5.0548   -3.0971 H   0  0  0  0  0  0  0  0  0  0  0  0
    5.0776   -4.9666   -1.6550 H   0  0  0  0  0  0  0  0  0  0  0  0
   -2.1648   -2.3492   -2.7280 N   0  0  0  0  0  0  0  0  0  0  0  0
   -1.7367   -1.7421   -3.5458 N   0  0  0  0  0  0  0  0  0  0  0  0
   -0.3303   -7.2977   -0.5460 C   0  0  0  0  0  0  0  0  0  0  0  0
   -0.9561   -7.7230    0.6258 C   0  0  0  0  0  0  0  0  0  0  0  0
   -2.1557   -7.1441    1.0588 C   0  0  0  0  0  0  0  0  0  0  0  0
   -2.7264   -6.1215    0.2824 C   0  0  0  0  0  0  0  0  0  0  0  0
   -2.1207   -5.6835   -0.8905 C   0  0  0  0  0  0  0  0  0  0  0  0
   -0.9212   -6.2795   -1.2932 C   0  0  0  0  0  0  0  0  0  0  0  0
    0.5914   -7.7529   -0.8887 H   0  0  0  0  0  0  0  0  0  0  0  0
   -0.5063   -8.5217    1.2092 H   0  0  0  0  0  0  0  0  0  0  0  0
   -3.6625   -5.6696    0.5986 H   0  0  0  0  0  0  0  0  0  0  0  0
   -2.5694   -4.9012   -1.4933 H   0  0  0  0  0  0  0  0  0  0  0  0
   -0.1380   -5.7262   -2.7966 S   0  0  0  0  0  0  0  0  0  0  0  0
    0.5923   -4.2973   -2.3319 O   0  0  0  0  0  0  0  0  0  0  0  0
   -1.1514   -5.2770   -3.7400 O   0  0  0  0  0  0  0  0  0  0  0  0
    0.8967   -6.6869   -3.1688 O   0  0  0  0  0  0  0  0  0  0  0  0
   -2.8227   -7.5967    2.3350 C   0  0  0  0  0  0  0  0  0  0  0  0
   -2.7325   -6.8329    3.1175 H   0  0  0  0  0  0  0  0  0  0  0  0
   -3.8920   -7.7764    2.1827 H   0  0  0  0  0  0  0  0  0  0  0  0
   -2.3747   -8.5171    2.7165 H   0  0  0  0  0  0  0  0  0  0  0  0
    5.1973   -4.2282    0.7568 O   0  0  0  0  0  0  0  0  0  0  0  0
    5.1799   -3.7895    2.1058 C   0  0  0  0  0  0  0  0  0  0  0  0
    6.2105   -3.8564    2.4577 H   0  0  0  0  0  0  0  0  0  0  0  0
    4.8378   -2.7499    2.1899 H   0  0  0  0  0  0  0  0  0  0  0  0
    4.5438   -4.4283    2.7320 H   0  0  0  0  0  0  0  0  0  0  0  0
  1  7  1  0  0  0  0
  2  8  1  0  0  0  0
  2  1  2  0  0  0  0
  3  2  1  0  0  0  0
  4  3  2  0  0  0  0
  4  5  1  0  0  0  0
  5  6  2  0  0  0  0
  6  1  1  0  0  0  0
  6 31  1  0  0  0  0
  9  4  1  0  0  0  0
 10  5  1  0  0  0  0
 12 11  3  0  0  0  0
 13 14  2  0  0  0  0
 14 15  1  0  0  0  0
 14 20  1  0  0  0  0
 15 27  1  0  0  0  0
 16 21  1  0  0  0  0
 16 15  2  0  0  0  0
 17 16  1  0  0  0  0
 18 17  2  0  0  0  0
 18 13  1  0  0  0  0
 19 13  1  0  0  0  0
 22 17  1  0  0  0  0
 23 24  1  0  0  0  0
 23 18  1  0  0  0  0
 24  3  1  0  0  0  0
 25 23  2  0  0  0  0
 26 23  2  0  0  0  0
 27 30  1  0  0  0  0
 27 28  1  0  0  0  0
 29 27  1  0  0  0  0
 31 32  1  0  0  0  0
 32 34  1  0  0  0  0
 32 33  1  0  0  0  0
 32 35  1  0  0  0  0
M  END
