Coordinates from ORCA-job 4-MeO-Ph-N2-OTs-B3LYPG-6-31G_dp-MTMO-d009-169-n800
 OpenBabel09051908173D

 35 35  0  0  0  0  0  0  0  0999 V2000
    3.0079   -3.9556    0.7606 C   0  0  0  0  0  0  0  0  0  0  0  0
    1.8601   -3.8799   -0.0333 C   0  0  0  0  0  0  0  0  0  0  0  0
    1.9228   -4.2165   -1.3811 C   0  0  0  0  0  0  0  0  0  0  0  0
    3.1254   -4.6366   -1.9581 C   0  0  0  0  0  0  0  0  0  0  0  0
    4.2639   -4.7229   -1.1684 C   0  0  0  0  0  0  0  0  0  0  0  0
    4.2152   -4.3818    0.1932 C   0  0  0  0  0  0  0  0  0  0  0  0
    2.9463   -3.6791    1.8060 H   0  0  0  0  0  0  0  0  0  0  0  0
    0.9179   -3.5463    0.3879 H   0  0  0  0  0  0  0  0  0  0  0  0
    3.1535   -4.8964   -3.0092 H   0  0  0  0  0  0  0  0  0  0  0  0
    5.2109   -5.0467   -1.5866 H   0  0  0  0  0  0  0  0  0  0  0  0
   -3.8957   -3.2829   -3.5130 N   0  0  0  0  0  0  0  0  0  0  0  0
   -3.8354   -2.9347   -4.5599 N   0  0  0  0  0  0  0  0  0  0  0  0
   -0.2567   -7.0197   -0.5401 C   0  0  0  0  0  0  0  0  0  0  0  0
   -0.9037   -7.4985    0.5977 C   0  0  0  0  0  0  0  0  0  0  0  0
   -2.1406   -6.9778    1.0028 C   0  0  0  0  0  0  0  0  0  0  0  0
   -2.7262   -5.9626    0.2301 C   0  0  0  0  0  0  0  0  0  0  0  0
   -2.0977   -5.4690   -0.9098 C   0  0  0  0  0  0  0  0  0  0  0  0
   -0.8619   -6.0046   -1.2828 C   0  0  0  0  0  0  0  0  0  0  0  0
    0.6907   -7.4344   -0.8633 H   0  0  0  0  0  0  0  0  0  0  0  0
   -0.4433   -8.2953    1.1757 H   0  0  0  0  0  0  0  0  0  0  0  0
   -3.6927   -5.5603    0.5202 H   0  0  0  0  0  0  0  0  0  0  0  0
   -2.5643   -4.6987   -1.5145 H   0  0  0  0  0  0  0  0  0  0  0  0
   -0.0444   -5.3774   -2.7376 S   0  0  0  0  0  0  0  0  0  0  0  0
    0.7734   -4.0395   -2.1626 O   0  0  0  0  0  0  0  0  0  0  0  0
   -1.0289   -4.7947   -3.6376 O   0  0  0  0  0  0  0  0  0  0  0  0
    0.9317   -6.3649   -3.1898 O   0  0  0  0  0  0  0  0  0  0  0  0
   -2.8220   -7.4847    2.2507 C   0  0  0  0  0  0  0  0  0  0  0  0
   -2.5854   -6.8468    3.1114 H   0  0  0  0  0  0  0  0  0  0  0  0
   -3.9106   -7.4884    2.1390 H   0  0  0  0  0  0  0  0  0  0  0  0
   -2.4999   -8.4996    2.4978 H   0  0  0  0  0  0  0  0  0  0  0  0
    5.3932   -4.4951    0.8718 O   0  0  0  0  0  0  0  0  0  0  0  0
    5.4118   -4.1517    2.2480 C   0  0  0  0  0  0  0  0  0  0  0  0
    6.4382   -4.3073    2.5836 H   0  0  0  0  0  0  0  0  0  0  0  0
    5.1357   -3.1013    2.4072 H   0  0  0  0  0  0  0  0  0  0  0  0
    4.7406   -4.7916    2.8348 H   0  0  0  0  0  0  0  0  0  0  0  0
  1  7  1  0  0  0  0
  2  8  1  0  0  0  0
  2  1  2  0  0  0  0
  3  2  1  0  0  0  0
  4  3  2  0  0  0  0
  4  5  1  0  0  0  0
  5  6  2  0  0  0  0
  6  1  1  0  0  0  0
  6 31  1  0  0  0  0
  9  4  1  0  0  0  0
 10  5  1  0  0  0  0
 12 11  3  0  0  0  0
 13 14  2  0  0  0  0
 14 15  1  0  0  0  0
 14 20  1  0  0  0  0
 15 27  1  0  0  0  0
 16 21  1  0  0  0  0
 16 15  2  0  0  0  0
 17 16  1  0  0  0  0
 18 17  2  0  0  0  0
 18 13  1  0  0  0  0
 19 13  1  0  0  0  0
 22 17  1  0  0  0  0
 23 24  1  0  0  0  0
 23 18  1  0  0  0  0
 24  3  1  0  0  0  0
 25 23  2  0  0  0  0
 26 23  2  0  0  0  0
 27 30  1  0  0  0  0
 27 28  1  0  0  0  0
 29 27  1  0  0  0  0
 31 32  1  0  0  0  0
 32 34  1  0  0  0  0
 32 33  1  0  0  0  0
 32 35  1  0  0  0  0
M  END
