Coordinates from ORCA-job 4-MeO-Ph-N2-OTs-B3LYPG-6-31G_dp-MTMO-d009-169-n800
 OpenBabel09051908173D

 35 35  0  0  0  0  0  0  0  0999 V2000
    3.7323   -3.9153    0.5998 C   0  0  0  0  0  0  0  0  0  0  0  0
    2.7546   -3.8376   -0.3962 C   0  0  0  0  0  0  0  0  0  0  0  0
    2.9616   -4.4571   -1.6237 C   0  0  0  0  0  0  0  0  0  0  0  0
    4.1404   -5.1650   -1.8776 C   0  0  0  0  0  0  0  0  0  0  0  0
    5.1089   -5.2503   -0.8871 C   0  0  0  0  0  0  0  0  0  0  0  0
    4.9136   -4.6264    0.3561 C   0  0  0  0  0  0  0  0  0  0  0  0
    3.5615   -3.4211    1.5484 H   0  0  0  0  0  0  0  0  0  0  0  0
    1.8357   -3.2864   -0.2268 H   0  0  0  0  0  0  0  0  0  0  0  0
    4.2813   -5.6423   -2.8397 H   0  0  0  0  0  0  0  0  0  0  0  0
    6.0341   -5.7913   -1.0540 H   0  0  0  0  0  0  0  0  0  0  0  0
  -12.7344   -8.7451    0.2559 N   0  0  0  0  0  0  0  0  0  0  0  0
  -13.6838   -9.2615    0.0243 N   0  0  0  0  0  0  0  0  0  0  0  0
    0.0639   -6.5120   -0.6475 C   0  0  0  0  0  0  0  0  0  0  0  0
   -0.8564   -6.5404    0.4005 C   0  0  0  0  0  0  0  0  0  0  0  0
   -1.9815   -5.7059    0.4015 C   0  0  0  0  0  0  0  0  0  0  0  0
   -2.1688   -4.8312   -0.6815 C   0  0  0  0  0  0  0  0  0  0  0  0
   -1.2634   -4.7868   -1.7367 C   0  0  0  0  0  0  0  0  0  0  0  0
   -0.1500   -5.6318   -1.7078 C   0  0  0  0  0  0  0  0  0  0  0  0
    0.9266   -7.1686   -0.6545 H   0  0  0  0  0  0  0  0  0  0  0  0
   -0.6980   -7.2263    1.2287 H   0  0  0  0  0  0  0  0  0  0  0  0
   -3.0402   -4.1816   -0.6998 H   0  0  0  0  0  0  0  0  0  0  0  0
   -1.4168   -4.1226   -2.5805 H   0  0  0  0  0  0  0  0  0  0  0  0
    1.0204   -5.5689   -3.0518 S   0  0  0  0  0  0  0  0  0  0  0  0
    2.0016   -4.2848   -2.6290 O   0  0  0  0  0  0  0  0  0  0  0  0
    0.3526   -5.0890   -4.2524 O   0  0  0  0  0  0  0  0  0  0  0  0
    1.8169   -6.7928   -3.0396 O   0  0  0  0  0  0  0  0  0  0  0  0
   -2.9880   -5.7557    1.5254 C   0  0  0  0  0  0  0  0  0  0  0  0
   -3.2409   -4.7509    1.8783 H   0  0  0  0  0  0  0  0  0  0  0  0
   -3.9222   -6.2238    1.1932 H   0  0  0  0  0  0  0  0  0  0  0  0
   -2.6128   -6.3307    2.3758 H   0  0  0  0  0  0  0  0  0  0  0  0
    5.9320   -4.7690    1.2526 O   0  0  0  0  0  0  0  0  0  0  0  0
    5.7986   -4.1567    2.5252 C   0  0  0  0  0  0  0  0  0  0  0  0
    6.7138   -4.3933    3.0707 H   0  0  0  0  0  0  0  0  0  0  0  0
    5.6991   -3.0667    2.4426 H   0  0  0  0  0  0  0  0  0  0  0  0
    4.9374   -4.5541    3.0782 H   0  0  0  0  0  0  0  0  0  0  0  0
  1  7  1  0  0  0  0
  2  8  1  0  0  0  0
  2  1  2  0  0  0  0
  3  2  1  0  0  0  0
  4  3  2  0  0  0  0
  4  5  1  0  0  0  0
  5  6  2  0  0  0  0
  6  1  1  0  0  0  0
  6 31  1  0  0  0  0
  9  4  1  0  0  0  0
 10  5  1  0  0  0  0
 12 11  3  0  0  0  0
 13 14  2  0  0  0  0
 14 15  1  0  0  0  0
 14 20  1  0  0  0  0
 15 27  1  0  0  0  0
 16 15  2  0  0  0  0
 17 18  2  0  0  0  0
 17 16  1  0  0  0  0
 18 13  1  0  0  0  0
 19 13  1  0  0  0  0
 21 16  1  0  0  0  0
 22 17  1  0  0  0  0
 23 26  2  0  0  0  0
 23 24  1  0  0  0  0
 23 18  1  0  0  0  0
 24  3  1  0  0  0  0
 25 23  2  0  0  0  0
 27 28  1  0  0  0  0
 27 30  1  0  0  0  0
 29 27  1  0  0  0  0
 31 32  1  0  0  0  0
 32 33  1  0  0  0  0
 32 35  1  0  0  0  0
 34 32  1  0  0  0  0
M  END
