Coordinates from ORCA-job 4-MeO-Ph-N2-OTs-B3LYPG-6-31G_dp-MTMO-d009-169-n800
 OpenBabel09051908173D

 35 35  0  0  0  0  0  0  0  0999 V2000
    2.7471   -3.8369    0.5674 C   0  0  0  0  0  0  0  0  0  0  0  0
    1.6119   -3.9027   -0.2454 C   0  0  0  0  0  0  0  0  0  0  0  0
    1.7200   -4.3547   -1.5559 C   0  0  0  0  0  0  0  0  0  0  0  0
    2.9556   -4.7522   -2.0762 C   0  0  0  0  0  0  0  0  0  0  0  0
    4.0823   -4.6978   -1.2671 C   0  0  0  0  0  0  0  0  0  0  0  0
    3.9878   -4.2387    0.0570 C   0  0  0  0  0  0  0  0  0  0  0  0
    2.6499   -3.4732    1.5827 H   0  0  0  0  0  0  0  0  0  0  0  0
    0.6437   -3.5908    0.1311 H   0  0  0  0  0  0  0  0  0  0  0  0
    3.0180   -5.1034   -3.0988 H   0  0  0  0  0  0  0  0  0  0  0  0
    5.0544   -5.0004   -1.6411 H   0  0  0  0  0  0  0  0  0  0  0  0
   -1.9203   -2.2899   -2.5617 N   0  0  0  0  0  0  0  0  0  0  0  0
   -1.5369   -1.6722   -3.3936 N   0  0  0  0  0  0  0  0  0  0  0  0
   -0.3304   -7.3135   -0.5589 C   0  0  0  0  0  0  0  0  0  0  0  0
   -0.9473   -7.7341    0.6192 C   0  0  0  0  0  0  0  0  0  0  0  0
   -2.1430   -7.1524    1.0597 C   0  0  0  0  0  0  0  0  0  0  0  0
   -2.7189   -6.1322    0.2841 C   0  0  0  0  0  0  0  0  0  0  0  0
   -2.1219   -5.6990   -0.8951 C   0  0  0  0  0  0  0  0  0  0  0  0
   -0.9261   -6.2974   -1.3051 C   0  0  0  0  0  0  0  0  0  0  0  0
    0.5881   -7.7709   -0.9073 H   0  0  0  0  0  0  0  0  0  0  0  0
   -0.4937   -8.5311    1.2020 H   0  0  0  0  0  0  0  0  0  0  0  0
   -3.6521   -5.6783    0.6060 H   0  0  0  0  0  0  0  0  0  0  0  0
   -2.5741   -4.9184   -1.4972 H   0  0  0  0  0  0  0  0  0  0  0  0
   -0.1552   -5.7511   -2.8175 S   0  0  0  0  0  0  0  0  0  0  0  0
    0.5787   -4.3195   -2.3671 O   0  0  0  0  0  0  0  0  0  0  0  0
   -1.1757   -5.3061   -3.7551 O   0  0  0  0  0  0  0  0  0  0  0  0
    0.8769   -6.7134   -3.1926 O   0  0  0  0  0  0  0  0  0  0  0  0
   -2.7996   -7.5994    2.3431 C   0  0  0  0  0  0  0  0  0  0  0  0
   -2.6942   -6.8363    3.1244 H   0  0  0  0  0  0  0  0  0  0  0  0
   -3.8720   -7.7702    2.2028 H   0  0  0  0  0  0  0  0  0  0  0  0
   -2.3549   -8.5234    2.7199 H   0  0  0  0  0  0  0  0  0  0  0  0
    5.1579   -4.2193    0.7581 O   0  0  0  0  0  0  0  0  0  0  0  0
    5.1320   -3.7546    2.0982 C   0  0  0  0  0  0  0  0  0  0  0  0
    6.1594   -3.8196    2.4596 H   0  0  0  0  0  0  0  0  0  0  0  0
    4.7944   -2.7120    2.1593 H   0  0  0  0  0  0  0  0  0  0  0  0
    4.4878   -4.3782    2.7314 H   0  0  0  0  0  0  0  0  0  0  0  0
  1  7  1  0  0  0  0
  2  8  1  0  0  0  0
  2  1  2  0  0  0  0
  3  2  1  0  0  0  0
  4  3  2  0  0  0  0
  4  5  1  0  0  0  0
  5  6  2  0  0  0  0
  6  1  1  0  0  0  0
  6 31  1  0  0  0  0
  9  4  1  0  0  0  0
 10  5  1  0  0  0  0
 12 11  3  0  0  0  0
 13 14  2  0  0  0  0
 14 15  1  0  0  0  0
 14 20  1  0  0  0  0
 15 27  1  0  0  0  0
 16 21  1  0  0  0  0
 16 15  2  0  0  0  0
 17 16  1  0  0  0  0
 18 17  2  0  0  0  0
 18 13  1  0  0  0  0
 19 13  1  0  0  0  0
 22 17  1  0  0  0  0
 23 24  1  0  0  0  0
 23 18  1  0  0  0  0
 24  3  1  0  0  0  0
 25 23  2  0  0  0  0
 26 23  2  0  0  0  0
 27 30  1  0  0  0  0
 27 28  1  0  0  0  0
 29 27  1  0  0  0  0
 31 32  1  0  0  0  0
 32 34  1  0  0  0  0
 32 33  1  0  0  0  0
 32 35  1  0  0  0  0
M  END
