Coordinates from ORCA-job 4-MeO-Ph-N2-OTs-B3LYPG-6-31G_dp-MTMO-d009-169-n800
 OpenBabel09051908173D

 35 35  0  0  0  0  0  0  0  0999 V2000
    2.7078   -3.8130    0.5175 C   0  0  0  0  0  0  0  0  0  0  0  0
    1.5841   -3.8966   -0.3093 C   0  0  0  0  0  0  0  0  0  0  0  0
    1.7078   -4.3920   -1.6027 C   0  0  0  0  0  0  0  0  0  0  0  0
    2.9477   -4.8155   -2.0914 C   0  0  0  0  0  0  0  0  0  0  0  0
    4.0628   -4.7434   -1.2678 C   0  0  0  0  0  0  0  0  0  0  0  0
    3.9527   -4.2404    0.0390 C   0  0  0  0  0  0  0  0  0  0  0  0
    2.5989   -3.4163    1.5192 H   0  0  0  0  0  0  0  0  0  0  0  0
    0.6130   -3.5652    0.0421 H   0  0  0  0  0  0  0  0  0  0  0  0
    3.0222   -5.1997   -3.1013 H   0  0  0  0  0  0  0  0  0  0  0  0
    5.0380   -5.0649   -1.6174 H   0  0  0  0  0  0  0  0  0  0  0  0
   -1.6407   -2.1579   -2.1611 N   0  0  0  0  0  0  0  0  0  0  0  0
   -1.3609   -1.5124   -3.0133 N   0  0  0  0  0  0  0  0  0  0  0  0
   -0.3155   -7.3252   -0.5601 C   0  0  0  0  0  0  0  0  0  0  0  0
   -0.9301   -7.7277    0.6253 C   0  0  0  0  0  0  0  0  0  0  0  0
   -2.1367   -7.1552    1.0479 C   0  0  0  0  0  0  0  0  0  0  0  0
   -2.7265   -6.1638    0.2460 C   0  0  0  0  0  0  0  0  0  0  0  0
   -2.1314   -5.7490   -0.9408 C   0  0  0  0  0  0  0  0  0  0  0  0
   -0.9244   -6.3362   -1.3322 C   0  0  0  0  0  0  0  0  0  0  0  0
    0.6111   -7.7767   -0.8945 H   0  0  0  0  0  0  0  0  0  0  0  0
   -0.4660   -8.5036    1.2281 H   0  0  0  0  0  0  0  0  0  0  0  0
   -3.6687   -5.7186    0.5531 H   0  0  0  0  0  0  0  0  0  0  0  0
   -2.5950   -4.9923   -1.5644 H   0  0  0  0  0  0  0  0  0  0  0  0
   -0.1569   -5.8130   -2.8545 S   0  0  0  0  0  0  0  0  0  0  0  0
    0.5785   -4.3744   -2.4309 O   0  0  0  0  0  0  0  0  0  0  0  0
   -1.1796   -5.3839   -3.7967 O   0  0  0  0  0  0  0  0  0  0  0  0
    0.8748   -6.7812   -3.2158 O   0  0  0  0  0  0  0  0  0  0  0  0
   -2.7882   -7.5799    2.3414 C   0  0  0  0  0  0  0  0  0  0  0  0
   -2.6473   -6.8188    3.1192 H   0  0  0  0  0  0  0  0  0  0  0  0
   -3.8670   -7.7186    2.2175 H   0  0  0  0  0  0  0  0  0  0  0  0
   -2.3653   -8.5156    2.7145 H   0  0  0  0  0  0  0  0  0  0  0  0
    5.1125   -4.2068    0.7565 O   0  0  0  0  0  0  0  0  0  0  0  0
    5.0711   -3.6941    2.0787 C   0  0  0  0  0  0  0  0  0  0  0  0
    6.0931   -3.7526    2.4566 H   0  0  0  0  0  0  0  0  0  0  0  0
    4.7397   -2.6480    2.0976 H   0  0  0  0  0  0  0  0  0  0  0  0
    4.4141   -4.2906    2.7247 H   0  0  0  0  0  0  0  0  0  0  0  0
  1  7  1  0  0  0  0
  2  8  1  0  0  0  0
  2  1  2  0  0  0  0
  3  2  1  0  0  0  0
  4  3  2  0  0  0  0
  4  5  1  0  0  0  0
  5  6  2  0  0  0  0
  6  1  1  0  0  0  0
  6 31  1  0  0  0  0
  9  4  1  0  0  0  0
 10  5  1  0  0  0  0
 12 11  3  0  0  0  0
 13 14  2  0  0  0  0
 14 15  1  0  0  0  0
 14 20  1  0  0  0  0
 15 27  1  0  0  0  0
 16 21  1  0  0  0  0
 16 15  2  0  0  0  0
 17 16  1  0  0  0  0
 18 17  2  0  0  0  0
 18 13  1  0  0  0  0
 19 13  1  0  0  0  0
 22 17  1  0  0  0  0
 23 24  1  0  0  0  0
 23 18  1  0  0  0  0
 24  3  1  0  0  0  0
 25 23  2  0  0  0  0
 26 23  2  0  0  0  0
 27 30  1  0  0  0  0
 27 28  1  0  0  0  0
 29 27  1  0  0  0  0
 31 32  1  0  0  0  0
 32 34  1  0  0  0  0
 32 33  1  0  0  0  0
 32 35  1  0  0  0  0
M  END
