Coordinates from ORCA-job 4-MeO-Ph-N2-OTs-B3LYPG-6-31G_dp-MTMO-d009-169-n800
 OpenBabel09051908173D

 35 35  0  0  0  0  0  0  0  0999 V2000
    3.1132   -3.9169    0.7174 C   0  0  0  0  0  0  0  0  0  0  0  0
    2.1227   -3.9138   -0.2687 C   0  0  0  0  0  0  0  0  0  0  0  0
    2.4010   -4.4131   -1.5362 C   0  0  0  0  0  0  0  0  0  0  0  0
    3.6659   -4.9258   -1.8406 C   0  0  0  0  0  0  0  0  0  0  0  0
    4.6479   -4.9391   -0.8597 C   0  0  0  0  0  0  0  0  0  0  0  0
    4.3808   -4.4341    0.4234 C   0  0  0  0  0  0  0  0  0  0  0  0
    2.8847   -3.5164    1.6973 H   0  0  0  0  0  0  0  0  0  0  0  0
    1.1371   -3.5117   -0.0605 H   0  0  0  0  0  0  0  0  0  0  0  0
    3.8627   -5.3119   -2.8332 H   0  0  0  0  0  0  0  0  0  0  0  0
    5.6381   -5.3313   -1.0649 H   0  0  0  0  0  0  0  0  0  0  0  0
   -6.1742   -4.0811   -0.4529 N   0  0  0  0  0  0  0  0  0  0  0  0
   -7.1347   -3.5647   -0.6317 N   0  0  0  0  0  0  0  0  0  0  0  0
   -0.0727   -7.0132   -0.7464 C   0  0  0  0  0  0  0  0  0  0  0  0
   -0.9450   -7.3055    0.3006 C   0  0  0  0  0  0  0  0  0  0  0  0
   -2.1953   -6.6786    0.4013 C   0  0  0  0  0  0  0  0  0  0  0  0
   -2.5612   -5.7480   -0.5839 C   0  0  0  0  0  0  0  0  0  0  0  0
   -1.7037   -5.4414   -1.6376 C   0  0  0  0  0  0  0  0  0  0  0  0
   -0.4625   -6.0786   -1.7074 C   0  0  0  0  0  0  0  0  0  0  0  0
    0.8851   -7.5129   -0.8345 H   0  0  0  0  0  0  0  0  0  0  0  0
   -0.6529   -8.0395    1.0472 H   0  0  0  0  0  0  0  0  0  0  0  0
   -3.5339   -5.2671   -0.5308 H   0  0  0  0  0  0  0  0  0  0  0  0
   -1.9938   -4.7366   -2.4095 H   0  0  0  0  0  0  0  0  0  0  0  0
    0.6373   -5.6912   -3.0559 S   0  0  0  0  0  0  0  0  0  0  0  0
    1.4126   -4.3102   -2.5231 O   0  0  0  0  0  0  0  0  0  0  0  0
   -0.1369   -5.2122   -4.1912 O   0  0  0  0  0  0  0  0  0  0  0  0
    1.6214   -6.7629   -3.1820 O   0  0  0  0  0  0  0  0  0  0  0  0
   -3.1223   -6.9856    1.5523 C   0  0  0  0  0  0  0  0  0  0  0  0
   -2.9220   -6.3226    2.4032 H   0  0  0  0  0  0  0  0  0  0  0  0
   -4.1698   -6.8451    1.2703 H   0  0  0  0  0  0  0  0  0  0  0  0
   -2.9969   -8.0134    1.9045 H   0  0  0  0  0  0  0  0  0  0  0  0
    5.4192   -4.4902    1.3064 O   0  0  0  0  0  0  0  0  0  0  0  0
    5.2182   -3.9784    2.6141 C   0  0  0  0  0  0  0  0  0  0  0  0
    6.1632   -4.1195    3.1415 H   0  0  0  0  0  0  0  0  0  0  0  0
    4.9709   -2.9091    2.5973 H   0  0  0  0  0  0  0  0  0  0  0  0
    4.4254   -4.5212    3.1450 H   0  0  0  0  0  0  0  0  0  0  0  0
  1  7  1  0  0  0  0
  2  8  1  0  0  0  0
  2  1  2  0  0  0  0
  3  2  1  0  0  0  0
  4  3  2  0  0  0  0
  4  5  1  0  0  0  0
  5  6  2  0  0  0  0
  6  1  1  0  0  0  0
  6 31  1  0  0  0  0
  9  4  1  0  0  0  0
 10  5  1  0  0  0  0
 12 11  3  0  0  0  0
 13 14  2  0  0  0  0
 14 15  1  0  0  0  0
 14 20  1  0  0  0  0
 15 27  1  0  0  0  0
 16 21  1  0  0  0  0
 16 15  2  0  0  0  0
 17 16  1  0  0  0  0
 18 17  2  0  0  0  0
 18 13  1  0  0  0  0
 19 13  1  0  0  0  0
 22 17  1  0  0  0  0
 23 24  1  0  0  0  0
 23 18  1  0  0  0  0
 24  3  1  0  0  0  0
 25 23  2  0  0  0  0
 26 23  2  0  0  0  0
 27 30  1  0  0  0  0
 27 28  1  0  0  0  0
 29 27  1  0  0  0  0
 31 32  1  0  0  0  0
 32 33  1  0  0  0  0
 32 35  1  0  0  0  0
 34 32  1  0  0  0  0
M  END
