Coordinates from ORCA-job 4-MeO-Ph-N2-OTs-B3LYPG-6-31G_dp-MTMO-d009-169-n800
 OpenBabel09051908173D

 35 35  0  0  0  0  0  0  0  0999 V2000
    3.6578   -3.9705    0.6140 C   0  0  0  0  0  0  0  0  0  0  0  0
    2.6884   -3.8750   -0.3885 C   0  0  0  0  0  0  0  0  0  0  0  0
    2.8938   -4.4957   -1.6157 C   0  0  0  0  0  0  0  0  0  0  0  0
    4.0624   -5.2225   -1.8628 C   0  0  0  0  0  0  0  0  0  0  0  0
    5.0226   -5.3252   -0.8658 C   0  0  0  0  0  0  0  0  0  0  0  0
    4.8291   -4.7002    0.3771 C   0  0  0  0  0  0  0  0  0  0  0  0
    3.4886   -3.4751    1.5623 H   0  0  0  0  0  0  0  0  0  0  0  0
    1.7775   -3.3092   -0.2244 H   0  0  0  0  0  0  0  0  0  0  0  0
    4.2022   -5.7004   -2.8247 H   0  0  0  0  0  0  0  0  0  0  0  0
    5.9401   -5.8808   -1.0274 H   0  0  0  0  0  0  0  0  0  0  0  0
  -11.2352   -8.5847    0.3340 N   0  0  0  0  0  0  0  0  0  0  0  0
  -12.1797   -9.1078    0.0975 N   0  0  0  0  0  0  0  0  0  0  0  0
   -0.0558   -6.4968   -0.6642 C   0  0  0  0  0  0  0  0  0  0  0  0
   -0.9852   -6.5059    0.3759 C   0  0  0  0  0  0  0  0  0  0  0  0
   -2.0910   -5.6459    0.3689 C   0  0  0  0  0  0  0  0  0  0  0  0
   -2.2491   -4.7654   -0.7139 C   0  0  0  0  0  0  0  0  0  0  0  0
   -1.3342   -4.7402   -1.7615 C   0  0  0  0  0  0  0  0  0  0  0  0
   -0.2407   -5.6103   -1.7248 C   0  0  0  0  0  0  0  0  0  0  0  0
    0.7921   -7.1725   -0.6650 H   0  0  0  0  0  0  0  0  0  0  0  0
   -0.8492   -7.1962    1.2044 H   0  0  0  0  0  0  0  0  0  0  0  0
   -3.1048   -4.0954   -0.7378 H   0  0  0  0  0  0  0  0  0  0  0  0
   -1.4651   -4.0709   -2.6051 H   0  0  0  0  0  0  0  0  0  0  0  0
    0.9427   -5.5710   -3.0583 S   0  0  0  0  0  0  0  0  0  0  0  0
    1.9442   -4.3053   -2.6276 O   0  0  0  0  0  0  0  0  0  0  0  0
    0.2950   -5.0793   -4.2651 O   0  0  0  0  0  0  0  0  0  0  0  0
    1.7155   -6.8098   -3.0382 O   0  0  0  0  0  0  0  0  0  0  0  0
   -3.1082   -5.6766    1.4838 C   0  0  0  0  0  0  0  0  0  0  0  0
   -3.3799   -4.6658    1.8034 H   0  0  0  0  0  0  0  0  0  0  0  0
   -4.0317   -6.1695    1.1574 H   0  0  0  0  0  0  0  0  0  0  0  0
   -2.7333   -6.2202    2.3547 H   0  0  0  0  0  0  0  0  0  0  0  0
    5.8390   -4.8605    1.2801 O   0  0  0  0  0  0  0  0  0  0  0  0
    5.7068   -4.2485    2.5529 C   0  0  0  0  0  0  0  0  0  0  0  0
    6.6149   -4.4995    3.1037 H   0  0  0  0  0  0  0  0  0  0  0  0
    5.6240   -3.1569    2.4716 H   0  0  0  0  0  0  0  0  0  0  0  0
    4.8363   -4.6339    3.0998 H   0  0  0  0  0  0  0  0  0  0  0  0
  1  7  1  0  0  0  0
  2  8  1  0  0  0  0
  2  1  2  0  0  0  0
  3  2  1  0  0  0  0
  4  3  2  0  0  0  0
  4  5  1  0  0  0  0
  5  6  2  0  0  0  0
  6  1  1  0  0  0  0
  6 31  1  0  0  0  0
  9  4  1  0  0  0  0
 10  5  1  0  0  0  0
 12 11  3  0  0  0  0
 13 14  2  0  0  0  0
 14 20  1  0  0  0  0
 15 14  1  0  0  0  0
 15 27  1  0  0  0  0
 16 15  2  0  0  0  0
 17 18  2  0  0  0  0
 17 16  1  0  0  0  0
 18 13  1  0  0  0  0
 19 13  1  0  0  0  0
 21 16  1  0  0  0  0
 22 17  1  0  0  0  0
 23 26  2  0  0  0  0
 23 24  1  0  0  0  0
 23 18  1  0  0  0  0
 24  3  1  0  0  0  0
 25 23  2  0  0  0  0
 27 28  1  0  0  0  0
 27 30  1  0  0  0  0
 29 27  1  0  0  0  0
 31 32  1  0  0  0  0
 32 35  1  0  0  0  0
 32 33  1  0  0  0  0
 34 32  1  0  0  0  0
M  END
