Coordinates from ORCA-job 4-MeO-Ph-N2-OTs-B3LYPG-6-31G_dp-MTMO-d009-169-n800
 OpenBabel09051908173D

 35 35  0  0  0  0  0  0  0  0999 V2000
    2.8303   -3.8775    0.6268 C   0  0  0  0  0  0  0  0  0  0  0  0
    1.6882   -3.9120   -0.1782 C   0  0  0  0  0  0  0  0  0  0  0  0
    1.7826   -4.3255   -1.5024 C   0  0  0  0  0  0  0  0  0  0  0  0
    3.0116   -4.7147   -2.0444 C   0  0  0  0  0  0  0  0  0  0  0  0
    4.1451   -4.6911   -1.2436 C   0  0  0  0  0  0  0  0  0  0  0  0
    4.0644   -4.2714    0.0944 C   0  0  0  0  0  0  0  0  0  0  0  0
    2.7436   -3.5429    1.6530 H   0  0  0  0  0  0  0  0  0  0  0  0
    0.7253   -3.6056    0.2159 H   0  0  0  0  0  0  0  0  0  0  0  0
    3.0636   -5.0360   -3.0774 H   0  0  0  0  0  0  0  0  0  0  0  0
    5.1122   -4.9885   -1.6345 H   0  0  0  0  0  0  0  0  0  0  0  0
   -2.5952   -2.4584   -2.9166 N   0  0  0  0  0  0  0  0  0  0  0  0
   -2.2292   -1.8674   -3.7754 N   0  0  0  0  0  0  0  0  0  0  0  0
   -0.3118   -7.2564   -0.5435 C   0  0  0  0  0  0  0  0  0  0  0  0
   -0.9430   -7.6876    0.6232 C   0  0  0  0  0  0  0  0  0  0  0  0
   -2.1475   -7.1145    1.0507 C   0  0  0  0  0  0  0  0  0  0  0  0
   -2.7173   -6.0918    0.2739 C   0  0  0  0  0  0  0  0  0  0  0  0
   -2.1061   -5.6478   -0.8940 C   0  0  0  0  0  0  0  0  0  0  0  0
   -0.9019   -6.2380   -1.2910 C   0  0  0  0  0  0  0  0  0  0  0  0
    0.6134   -7.7077   -0.8821 H   0  0  0  0  0  0  0  0  0  0  0  0
   -0.4939   -8.4865    1.2068 H   0  0  0  0  0  0  0  0  0  0  0  0
   -3.6572   -5.6447    0.5855 H   0  0  0  0  0  0  0  0  0  0  0  0
   -2.5551   -4.8665   -1.4980 H   0  0  0  0  0  0  0  0  0  0  0  0
   -0.1100   -5.6745   -2.7860 S   0  0  0  0  0  0  0  0  0  0  0  0
    0.6347   -4.2598   -2.3030 O   0  0  0  0  0  0  0  0  0  0  0  0
   -1.1172   -5.2034   -3.7255 O   0  0  0  0  0  0  0  0  0  0  0  0
    0.9150   -6.6417   -3.1682 O   0  0  0  0  0  0  0  0  0  0  0  0
   -2.8209   -7.5740    2.3209 C   0  0  0  0  0  0  0  0  0  0  0  0
   -2.7462   -6.8092    3.1040 H   0  0  0  0  0  0  0  0  0  0  0  0
   -3.8868   -7.7651    2.1590 H   0  0  0  0  0  0  0  0  0  0  0  0
   -2.3667   -8.4897    2.7066 H   0  0  0  0  0  0  0  0  0  0  0  0
    5.2402   -4.2800    0.7860 O   0  0  0  0  0  0  0  0  0  0  0  0
    5.2274   -3.8583    2.1404 C   0  0  0  0  0  0  0  0  0  0  0  0
    6.2570   -3.9414    2.4916 H   0  0  0  0  0  0  0  0  0  0  0  0
    4.8972   -2.8160    2.2376 H   0  0  0  0  0  0  0  0  0  0  0  0
    4.5838   -4.4976    2.7582 H   0  0  0  0  0  0  0  0  0  0  0  0
  1  7  1  0  0  0  0
  2  8  1  0  0  0  0
  2  1  2  0  0  0  0
  3  2  1  0  0  0  0
  4  3  2  0  0  0  0
  4  5  1  0  0  0  0
  5  6  2  0  0  0  0
  6  1  1  0  0  0  0
  6 31  1  0  0  0  0
  9  4  1  0  0  0  0
 10  5  1  0  0  0  0
 12 11  3  0  0  0  0
 13 14  2  0  0  0  0
 14 15  1  0  0  0  0
 14 20  1  0  0  0  0
 15 27  1  0  0  0  0
 16 21  1  0  0  0  0
 16 15  2  0  0  0  0
 17 16  1  0  0  0  0
 18 17  2  0  0  0  0
 18 13  1  0  0  0  0
 19 13  1  0  0  0  0
 22 17  1  0  0  0  0
 23 24  1  0  0  0  0
 23 18  1  0  0  0  0
 24  3  1  0  0  0  0
 25 23  2  0  0  0  0
 26 23  2  0  0  0  0
 27 30  1  0  0  0  0
 27 28  1  0  0  0  0
 29 27  1  0  0  0  0
 31 32  1  0  0  0  0
 32 34  1  0  0  0  0
 32 33  1  0  0  0  0
 32 35  1  0  0  0  0
M  END
