Coordinates from ORCA-job 4-MeO-Ph-N2-OTs-B3LYPG-6-31G_dp-MTMO-d009-169-n800
 OpenBabel09051908173D

 35 35  0  0  0  0  0  0  0  0999 V2000
    3.1043   -3.9126    0.7074 C   0  0  0  0  0  0  0  0  0  0  0  0
    2.1250   -3.9106   -0.2898 C   0  0  0  0  0  0  0  0  0  0  0  0
    2.4136   -4.4238   -1.5494 C   0  0  0  0  0  0  0  0  0  0  0  0
    3.6777   -4.9491   -1.8349 C   0  0  0  0  0  0  0  0  0  0  0  0
    4.6486   -4.9610   -0.8429 C   0  0  0  0  0  0  0  0  0  0  0  0
    4.3710   -4.4424    0.4325 C   0  0  0  0  0  0  0  0  0  0  0  0
    2.8679   -3.5016    1.6811 H   0  0  0  0  0  0  0  0  0  0  0  0
    1.1402   -3.4993   -0.0964 H   0  0  0  0  0  0  0  0  0  0  0  0
    3.8827   -5.3456   -2.8218 H   0  0  0  0  0  0  0  0  0  0  0  0
    5.6379   -5.3627   -1.0333 H   0  0  0  0  0  0  0  0  0  0  0  0
   -6.1654   -4.2025   -0.3182 N   0  0  0  0  0  0  0  0  0  0  0  0
   -7.1355   -3.6926   -0.4596 N   0  0  0  0  0  0  0  0  0  0  0  0
   -0.0767   -7.0153   -0.7665 C   0  0  0  0  0  0  0  0  0  0  0  0
   -0.9541   -7.2938    0.2800 C   0  0  0  0  0  0  0  0  0  0  0  0
   -2.1939   -6.6462    0.3806 C   0  0  0  0  0  0  0  0  0  0  0  0
   -2.5440   -5.7093   -0.6042 C   0  0  0  0  0  0  0  0  0  0  0  0
   -1.6816   -5.4169   -1.6580 C   0  0  0  0  0  0  0  0  0  0  0  0
   -0.4511   -6.0743   -1.7275 C   0  0  0  0  0  0  0  0  0  0  0  0
    0.8733   -7.5296   -0.8543 H   0  0  0  0  0  0  0  0  0  0  0  0
   -0.6744   -8.0329    1.0263 H   0  0  0  0  0  0  0  0  0  0  0  0
   -3.5081   -5.2119   -0.5497 H   0  0  0  0  0  0  0  0  0  0  0  0
   -1.9600   -4.7071   -2.4295 H   0  0  0  0  0  0  0  0  0  0  0  0
    0.6560   -5.7029   -3.0745 S   0  0  0  0  0  0  0  0  0  0  0  0
    1.4371   -4.3228   -2.5484 O   0  0  0  0  0  0  0  0  0  0  0  0
   -0.1106   -5.2272   -4.2163 O   0  0  0  0  0  0  0  0  0  0  0  0
    1.6342   -6.7814   -3.1891 O   0  0  0  0  0  0  0  0  0  0  0  0
   -3.1259   -6.9385    1.5316 C   0  0  0  0  0  0  0  0  0  0  0  0
   -2.8883   -6.3073    2.3968 H   0  0  0  0  0  0  0  0  0  0  0  0
   -4.1675   -6.7427    1.2620 H   0  0  0  0  0  0  0  0  0  0  0  0
   -3.0453   -7.9796    1.8575 H   0  0  0  0  0  0  0  0  0  0  0  0
    5.3988   -4.4987    1.3278 O   0  0  0  0  0  0  0  0  0  0  0  0
    5.1869   -3.9740    2.6287 C   0  0  0  0  0  0  0  0  0  0  0  0
    6.1247   -4.1179    3.1680 H   0  0  0  0  0  0  0  0  0  0  0  0
    4.9483   -2.9030    2.5998 H   0  0  0  0  0  0  0  0  0  0  0  0
    4.3838   -4.5060    3.1550 H   0  0  0  0  0  0  0  0  0  0  0  0
  1  7  1  0  0  0  0
  2  8  1  0  0  0  0
  2  1  2  0  0  0  0
  3  2  1  0  0  0  0
  4  3  2  0  0  0  0
  4  5  1  0  0  0  0
  5  6  2  0  0  0  0
  6  1  1  0  0  0  0
  6 31  1  0  0  0  0
  9  4  1  0  0  0  0
 10  5  1  0  0  0  0
 12 11  3  0  0  0  0
 13 14  2  0  0  0  0
 14 15  1  0  0  0  0
 14 20  1  0  0  0  0
 15 27  1  0  0  0  0
 16 21  1  0  0  0  0
 16 15  2  0  0  0  0
 17 16  1  0  0  0  0
 18 17  2  0  0  0  0
 18 13  1  0  0  0  0
 19 13  1  0  0  0  0
 22 17  1  0  0  0  0
 23 24  1  0  0  0  0
 23 18  1  0  0  0  0
 24  3  1  0  0  0  0
 25 23  2  0  0  0  0
 26 23  2  0  0  0  0
 27 30  1  0  0  0  0
 27 28  1  0  0  0  0
 29 27  1  0  0  0  0
 31 32  1  0  0  0  0
 32 35  1  0  0  0  0
 32 33  1  0  0  0  0
 34 32  1  0  0  0  0
M  END
