Coordinates from ORCA-job 4-MeO-Ph-N2-OTs-B3LYPG-6-31G_dp-MTMO-d009-169-n800
 OpenBabel09051908173D

 35 35  0  0  0  0  0  0  0  0999 V2000
    3.5844   -4.0061    0.6354 C   0  0  0  0  0  0  0  0  0  0  0  0
    2.6277   -3.8967   -0.3778 C   0  0  0  0  0  0  0  0  0  0  0  0
    2.8410   -4.5141   -1.6053 C   0  0  0  0  0  0  0  0  0  0  0  0
    4.0051   -5.2515   -1.8421 C   0  0  0  0  0  0  0  0  0  0  0  0
    4.9527   -5.3681   -0.8346 C   0  0  0  0  0  0  0  0  0  0  0  0
    4.7511   -4.7464    0.4087 C   0  0  0  0  0  0  0  0  0  0  0  0
    3.4092   -3.5129    1.5837 H   0  0  0  0  0  0  0  0  0  0  0  0
    1.7206   -3.3224   -0.2217 H   0  0  0  0  0  0  0  0  0  0  0  0
    4.1512   -5.7267   -2.8044 H   0  0  0  0  0  0  0  0  0  0  0  0
    5.8665   -5.9320   -0.9881 H   0  0  0  0  0  0  0  0  0  0  0  0
  -10.0083   -8.3554    0.5025 N   0  0  0  0  0  0  0  0  0  0  0  0
  -10.9556   -8.8749    0.2693 N   0  0  0  0  0  0  0  0  0  0  0  0
   -0.1370   -6.4957   -0.7006 C   0  0  0  0  0  0  0  0  0  0  0  0
   -1.0781   -6.5036    0.3286 C   0  0  0  0  0  0  0  0  0  0  0  0
   -2.1763   -5.6335    0.3150 C   0  0  0  0  0  0  0  0  0  0  0  0
   -2.3136   -4.7439   -0.7629 C   0  0  0  0  0  0  0  0  0  0  0  0
   -1.3865   -4.7197   -1.7999 C   0  0  0  0  0  0  0  0  0  0  0  0
   -0.3017   -5.6001   -1.7571 C   0  0  0  0  0  0  0  0  0  0  0  0
    0.7048   -7.1792   -0.6965 H   0  0  0  0  0  0  0  0  0  0  0  0
   -0.9579   -7.2008    1.1538 H   0  0  0  0  0  0  0  0  0  0  0  0
   -3.1626   -4.0655   -0.7915 H   0  0  0  0  0  0  0  0  0  0  0  0
   -1.5014   -4.0430   -2.6400 H   0  0  0  0  0  0  0  0  0  0  0  0
    0.8970   -5.5630   -3.0770 S   0  0  0  0  0  0  0  0  0  0  0  0
    1.9053   -4.3094   -2.6273 O   0  0  0  0  0  0  0  0  0  0  0  0
    0.2673   -5.0579   -4.2878 O   0  0  0  0  0  0  0  0  0  0  0  0
    1.6581   -6.8091   -3.0563 O   0  0  0  0  0  0  0  0  0  0  0  0
   -3.2078   -5.6659    1.4166 C   0  0  0  0  0  0  0  0  0  0  0  0
   -3.5091   -4.6561    1.7114 H   0  0  0  0  0  0  0  0  0  0  0  0
   -4.1136   -6.1895    1.0878 H   0  0  0  0  0  0  0  0  0  0  0  0
   -2.8322   -6.1823    2.3037 H   0  0  0  0  0  0  0  0  0  0  0  0
    5.7489   -4.9206    1.3225 O   0  0  0  0  0  0  0  0  0  0  0  0
    5.6082   -4.3122    2.5962 C   0  0  0  0  0  0  0  0  0  0  0  0
    6.5076   -4.5741    3.1562 H   0  0  0  0  0  0  0  0  0  0  0  0
    5.5369   -3.2195    2.5183 H   0  0  0  0  0  0  0  0  0  0  0  0
    4.7280   -4.6913    3.1318 H   0  0  0  0  0  0  0  0  0  0  0  0
  1  7  1  0  0  0  0
  2  8  1  0  0  0  0
  2  1  2  0  0  0  0
  3  2  1  0  0  0  0
  4  3  2  0  0  0  0
  4  5  1  0  0  0  0
  5  6  2  0  0  0  0
  6  1  1  0  0  0  0
  6 31  1  0  0  0  0
  9  4  1  0  0  0  0
 10  5  1  0  0  0  0
 12 11  3  0  0  0  0
 13 19  1  0  0  0  0
 13 14  2  0  0  0  0
 14 20  1  0  0  0  0
 15 14  1  0  0  0  0
 15 27  1  0  0  0  0
 16 15  2  0  0  0  0
 17 18  2  0  0  0  0
 17 16  1  0  0  0  0
 18 13  1  0  0  0  0
 21 16  1  0  0  0  0
 22 17  1  0  0  0  0
 23 26  2  0  0  0  0
 23 24  1  0  0  0  0
 23 18  1  0  0  0  0
 24  3  1  0  0  0  0
 25 23  2  0  0  0  0
 27 28  1  0  0  0  0
 27 30  1  0  0  0  0
 29 27  1  0  0  0  0
 31 32  1  0  0  0  0
 32 35  1  0  0  0  0
 32 33  1  0  0  0  0
 34 32  1  0  0  0  0
M  END
