Coordinates from ORCA-job 4-MeO-Ph-N2-OTs-B3LYPG-6-31G_dp-MTMO-d009-169-n800
 OpenBabel09051908173D

 35 35  0  0  0  0  0  0  0  0999 V2000
    2.8731   -3.8966    0.6570 C   0  0  0  0  0  0  0  0  0  0  0  0
    1.7320   -3.9066   -0.1502 C   0  0  0  0  0  0  0  0  0  0  0  0
    1.8227   -4.3084   -1.4782 C   0  0  0  0  0  0  0  0  0  0  0  0
    3.0468   -4.7101   -2.0221 C   0  0  0  0  0  0  0  0  0  0  0  0
    4.1791   -4.7110   -1.2191 C   0  0  0  0  0  0  0  0  0  0  0  0
    4.1022   -4.3033    0.1229 C   0  0  0  0  0  0  0  0  0  0  0  0
    2.7894   -3.5707    1.6863 H   0  0  0  0  0  0  0  0  0  0  0  0
    0.7729   -3.5899    0.2452 H   0  0  0  0  0  0  0  0  0  0  0  0
    3.0961   -5.0219   -3.0581 H   0  0  0  0  0  0  0  0  0  0  0  0
    5.1425   -5.0185   -1.6114 H   0  0  0  0  0  0  0  0  0  0  0  0
   -2.9677   -2.5960   -3.0533 N   0  0  0  0  0  0  0  0  0  0  0  0
   -2.7112   -2.0482   -3.9778 N   0  0  0  0  0  0  0  0  0  0  0  0
   -0.2920   -7.2075   -0.5444 C   0  0  0  0  0  0  0  0  0  0  0  0
   -0.9270   -7.6457    0.6175 C   0  0  0  0  0  0  0  0  0  0  0  0
   -2.1373   -7.0811    1.0399 C   0  0  0  0  0  0  0  0  0  0  0  0
   -2.7093   -6.0602    0.2625 C   0  0  0  0  0  0  0  0  0  0  0  0
   -2.0943   -5.6088   -0.9007 C   0  0  0  0  0  0  0  0  0  0  0  0
   -0.8841   -6.1903   -1.2923 C   0  0  0  0  0  0  0  0  0  0  0  0
    0.6372   -7.6530   -0.8794 H   0  0  0  0  0  0  0  0  0  0  0  0
   -0.4763   -8.4436    1.2013 H   0  0  0  0  0  0  0  0  0  0  0  0
   -3.6541   -5.6203    0.5696 H   0  0  0  0  0  0  0  0  0  0  0  0
   -2.5457   -4.8301   -1.5061 H   0  0  0  0  0  0  0  0  0  0  0  0
   -0.0860   -5.6165   -2.7800 S   0  0  0  0  0  0  0  0  0  0  0  0
    0.6771   -4.2179   -2.2796 O   0  0  0  0  0  0  0  0  0  0  0  0
   -1.0882   -5.1208   -3.7124 O   0  0  0  0  0  0  0  0  0  0  0  0
    0.9267   -6.5911   -3.1758 O   0  0  0  0  0  0  0  0  0  0  0  0
   -2.8147   -7.5481    2.3054 C   0  0  0  0  0  0  0  0  0  0  0  0
   -2.7426   -6.7877    3.0931 H   0  0  0  0  0  0  0  0  0  0  0  0
   -3.8799   -7.7386    2.1391 H   0  0  0  0  0  0  0  0  0  0  0  0
   -2.3612   -8.4657    2.6873 H   0  0  0  0  0  0  0  0  0  0  0  0
    5.2765   -4.3359    0.8164 O   0  0  0  0  0  0  0  0  0  0  0  0
    5.2672   -3.9270    2.1747 C   0  0  0  0  0  0  0  0  0  0  0  0
    6.2949   -4.0280    2.5269 H   0  0  0  0  0  0  0  0  0  0  0  0
    4.9514   -2.8811    2.2813 H   0  0  0  0  0  0  0  0  0  0  0  0
    4.6135   -4.5630    2.7853 H   0  0  0  0  0  0  0  0  0  0  0  0
  1  7  1  0  0  0  0
  2  8  1  0  0  0  0
  2  1  2  0  0  0  0
  3  2  1  0  0  0  0
  4  3  2  0  0  0  0
  4  5  1  0  0  0  0
  5  6  2  0  0  0  0
  6  1  1  0  0  0  0
  6 31  1  0  0  0  0
  9  4  1  0  0  0  0
 10  5  1  0  0  0  0
 12 11  3  0  0  0  0
 13 14  2  0  0  0  0
 14 15  1  0  0  0  0
 14 20  1  0  0  0  0
 15 27  1  0  0  0  0
 16 21  1  0  0  0  0
 16 15  2  0  0  0  0
 17 16  1  0  0  0  0
 18 17  2  0  0  0  0
 18 13  1  0  0  0  0
 19 13  1  0  0  0  0
 22 17  1  0  0  0  0
 23 24  1  0  0  0  0
 23 18  1  0  0  0  0
 24  3  1  0  0  0  0
 25 23  2  0  0  0  0
 26 23  2  0  0  0  0
 27 30  1  0  0  0  0
 27 28  1  0  0  0  0
 29 27  1  0  0  0  0
 31 32  1  0  0  0  0
 32 34  1  0  0  0  0
 32 33  1  0  0  0  0
 32 35  1  0  0  0  0
M  END
