Coordinates from ORCA-job 4-MeO-Ph-N2-OTs-B3LYPG-6-31G_dp-MTMO-d009-169-n800
 OpenBabel09051908173D

 35 35  0  0  0  0  0  0  0  0999 V2000
    3.1036   -3.9204    0.7246 C   0  0  0  0  0  0  0  0  0  0  0  0
    2.1034   -3.9150   -0.2516 C   0  0  0  0  0  0  0  0  0  0  0  0
    2.3729   -4.3997   -1.5266 C   0  0  0  0  0  0  0  0  0  0  0  0
    3.6384   -4.9000   -1.8486 C   0  0  0  0  0  0  0  0  0  0  0  0
    4.6301   -4.9155   -0.8775 C   0  0  0  0  0  0  0  0  0  0  0  0
    4.3720   -4.4251    0.4130 C   0  0  0  0  0  0  0  0  0  0  0  0
    2.8819   -3.5312    1.7107 H   0  0  0  0  0  0  0  0  0  0  0  0
    1.1169   -3.5225   -0.0297 H   0  0  0  0  0  0  0  0  0  0  0  0
    3.8282   -5.2750   -2.8468 H   0  0  0  0  0  0  0  0  0  0  0  0
    5.6211   -5.2984   -1.0963 H   0  0  0  0  0  0  0  0  0  0  0  0
   -6.0793   -3.9493   -0.6497 N   0  0  0  0  0  0  0  0  0  0  0  0
   -7.0282   -3.4332   -0.8830 N   0  0  0  0  0  0  0  0  0  0  0  0
   -0.0766   -7.0334   -0.7444 C   0  0  0  0  0  0  0  0  0  0  0  0
   -0.9350   -7.3416    0.3101 C   0  0  0  0  0  0  0  0  0  0  0  0
   -2.1827   -6.7157    0.4379 C   0  0  0  0  0  0  0  0  0  0  0  0
   -2.5616   -5.7689   -0.5275 C   0  0  0  0  0  0  0  0  0  0  0  0
   -1.7187   -5.4467   -1.5876 C   0  0  0  0  0  0  0  0  0  0  0  0
   -0.4788   -6.0839   -1.6847 C   0  0  0  0  0  0  0  0  0  0  0  0
    0.8797   -7.5320   -0.8532 H   0  0  0  0  0  0  0  0  0  0  0  0
   -0.6334   -8.0873    1.0411 H   0  0  0  0  0  0  0  0  0  0  0  0
   -3.5325   -5.2871   -0.4539 H   0  0  0  0  0  0  0  0  0  0  0  0
   -2.0185   -4.7295   -2.3442 H   0  0  0  0  0  0  0  0  0  0  0  0
    0.6029   -5.6750   -3.0415 S   0  0  0  0  0  0  0  0  0  0  0  0
    1.3741   -4.2941   -2.5028 O   0  0  0  0  0  0  0  0  0  0  0  0
   -0.1873   -5.1898   -4.1629 O   0  0  0  0  0  0  0  0  0  0  0  0
    1.5931   -6.7383   -3.1898 O   0  0  0  0  0  0  0  0  0  0  0  0
   -3.0960   -7.0389    1.5953 C   0  0  0  0  0  0  0  0  0  0  0  0
   -2.9625   -6.3184    2.4122 H   0  0  0  0  0  0  0  0  0  0  0  0
   -4.1480   -6.9990    1.2970 H   0  0  0  0  0  0  0  0  0  0  0  0
   -2.8929   -8.0338    2.0008 H   0  0  0  0  0  0  0  0  0  0  0  0
    5.4196   -4.4819    1.2851 O   0  0  0  0  0  0  0  0  0  0  0  0
    5.2278   -3.9844    2.5998 C   0  0  0  0  0  0  0  0  0  0  0  0
    6.1791   -4.1231    3.1162 H   0  0  0  0  0  0  0  0  0  0  0  0
    4.9722   -2.9170    2.5959 H   0  0  0  0  0  0  0  0  0  0  0  0
    4.4447   -4.5385    3.1333 H   0  0  0  0  0  0  0  0  0  0  0  0
  1  7  1  0  0  0  0
  2  8  1  0  0  0  0
  2  1  2  0  0  0  0
  3  2  1  0  0  0  0
  4  3  2  0  0  0  0
  4  5  1  0  0  0  0
  5  6  2  0  0  0  0
  6  1  1  0  0  0  0
  6 31  1  0  0  0  0
  9  4  1  0  0  0  0
 10  5  1  0  0  0  0
 12 11  3  0  0  0  0
 13 14  2  0  0  0  0
 14 15  1  0  0  0  0
 14 20  1  0  0  0  0
 15 27  1  0  0  0  0
 16 21  1  0  0  0  0
 16 15  2  0  0  0  0
 17 16  1  0  0  0  0
 18 17  2  0  0  0  0
 18 13  1  0  0  0  0
 19 13  1  0  0  0  0
 22 17  1  0  0  0  0
 23 24  1  0  0  0  0
 23 18  1  0  0  0  0
 24  3  1  0  0  0  0
 25 23  2  0  0  0  0
 26 23  2  0  0  0  0
 27 30  1  0  0  0  0
 27 28  1  0  0  0  0
 29 27  1  0  0  0  0
 31 32  1  0  0  0  0
 32 33  1  0  0  0  0
 32 35  1  0  0  0  0
 34 32  1  0  0  0  0
M  END
