Coordinates from ORCA-job 4-MeO-Ph-N2-OTs-B3LYPG-6-31G_dp-MTMO-d009-169-n800
 OpenBabel09051908173D

 35 35  0  0  0  0  0  0  0  0999 V2000
    3.0326   -3.9678    0.7790 C   0  0  0  0  0  0  0  0  0  0  0  0
    1.8825   -3.8756   -0.0098 C   0  0  0  0  0  0  0  0  0  0  0  0
    1.9386   -4.1956   -1.3619 C   0  0  0  0  0  0  0  0  0  0  0  0
    3.1368   -4.6152   -1.9484 C   0  0  0  0  0  0  0  0  0  0  0  0
    4.2775   -4.7180   -1.1639 C   0  0  0  0  0  0  0  0  0  0  0  0
    4.2355   -4.3937    0.2020 C   0  0  0  0  0  0  0  0  0  0  0  0
    2.9763   -3.7040    1.8280 H   0  0  0  0  0  0  0  0  0  0  0  0
    0.9436   -3.5419    0.4187 H   0  0  0  0  0  0  0  0  0  0  0  0
    3.1598   -4.8620   -3.0028 H   0  0  0  0  0  0  0  0  0  0  0  0
    5.2213   -5.0418   -1.5895 H   0  0  0  0  0  0  0  0  0  0  0  0
   -4.0411   -3.4393   -3.5928 N   0  0  0  0  0  0  0  0  0  0  0  0
   -3.9849   -3.1282   -4.6515 N   0  0  0  0  0  0  0  0  0  0  0  0
   -0.2541   -6.9832   -0.5381 C   0  0  0  0  0  0  0  0  0  0  0  0
   -0.9040   -7.4708    0.5943 C   0  0  0  0  0  0  0  0  0  0  0  0
   -2.1451   -6.9577    0.9967 C   0  0  0  0  0  0  0  0  0  0  0  0
   -2.7318   -5.9413    0.2267 C   0  0  0  0  0  0  0  0  0  0  0  0
   -2.1003   -5.4387   -0.9077 C   0  0  0  0  0  0  0  0  0  0  0  0
   -0.8605   -5.9667   -1.2780 C   0  0  0  0  0  0  0  0  0  0  0  0
    0.6962   -7.3927   -0.8593 H   0  0  0  0  0  0  0  0  0  0  0  0
   -0.4426   -8.2686    1.1701 H   0  0  0  0  0  0  0  0  0  0  0  0
   -3.7016   -5.5451    0.5143 H   0  0  0  0  0  0  0  0  0  0  0  0
   -2.5675   -4.6680   -1.5114 H   0  0  0  0  0  0  0  0  0  0  0  0
   -0.0404   -5.3281   -2.7262 S   0  0  0  0  0  0  0  0  0  0  0  0
    0.7875   -4.0022   -2.1373 O   0  0  0  0  0  0  0  0  0  0  0  0
   -1.0229   -4.7292   -3.6177 O   0  0  0  0  0  0  0  0  0  0  0  0
    0.9289   -6.3166   -3.1909 O   0  0  0  0  0  0  0  0  0  0  0  0
   -2.8296   -7.4744    2.2388 C   0  0  0  0  0  0  0  0  0  0  0  0
   -2.5963   -6.8425    3.1048 H   0  0  0  0  0  0  0  0  0  0  0  0
   -3.9179   -7.4785    2.1238 H   0  0  0  0  0  0  0  0  0  0  0  0
   -2.5071   -8.4907    2.4796 H   0  0  0  0  0  0  0  0  0  0  0  0
    5.4151   -4.5222    0.8751 O   0  0  0  0  0  0  0  0  0  0  0  0
    5.4403   -4.1959    2.2554 C   0  0  0  0  0  0  0  0  0  0  0  0
    6.4669   -4.3615    2.5855 H   0  0  0  0  0  0  0  0  0  0  0  0
    5.1707   -3.1460    2.4284 H   0  0  0  0  0  0  0  0  0  0  0  0
    4.7673   -4.8392    2.8365 H   0  0  0  0  0  0  0  0  0  0  0  0
  1  7  1  0  0  0  0
  2  8  1  0  0  0  0
  2  1  2  0  0  0  0
  3  2  1  0  0  0  0
  4  3  2  0  0  0  0
  4  5  1  0  0  0  0
  5  6  2  0  0  0  0
  6  1  1  0  0  0  0
  6 31  1  0  0  0  0
  9  4  1  0  0  0  0
 10  5  1  0  0  0  0
 12 11  3  0  0  0  0
 13 14  2  0  0  0  0
 14 15  1  0  0  0  0
 14 20  1  0  0  0  0
 15 27  1  0  0  0  0
 16 21  1  0  0  0  0
 16 15  2  0  0  0  0
 17 16  1  0  0  0  0
 18 17  2  0  0  0  0
 18 13  1  0  0  0  0
 19 13  1  0  0  0  0
 22 17  1  0  0  0  0
 23 24  1  0  0  0  0
 23 18  1  0  0  0  0
 24  3  1  0  0  0  0
 25 23  2  0  0  0  0
 26 23  2  0  0  0  0
 27 30  1  0  0  0  0
 27 28  1  0  0  0  0
 29 27  1  0  0  0  0
 31 32  1  0  0  0  0
 32 34  1  0  0  0  0
 32 33  1  0  0  0  0
 32 35  1  0  0  0  0
M  END
