Coordinates from ORCA-job 4-MeO-Ph-N2-OTs-B3LYPG-6-31G_dp-MTMO-d009-169-n800
 OpenBabel09051908173D

 35 35  0  0  0  0  0  0  0  0999 V2000
    3.7491   -3.8919    0.5907 C   0  0  0  0  0  0  0  0  0  0  0  0
    2.7666   -3.8239   -0.4012 C   0  0  0  0  0  0  0  0  0  0  0  0
    2.9735   -4.4436   -1.6286 C   0  0  0  0  0  0  0  0  0  0  0  0
    4.1572   -5.1419   -1.8866 C   0  0  0  0  0  0  0  0  0  0  0  0
    5.1306   -5.2176   -0.8999 C   0  0  0  0  0  0  0  0  0  0  0  0
    4.9353   -4.5935    0.3431 C   0  0  0  0  0  0  0  0  0  0  0  0
    3.5781   -3.3977    1.5393 H   0  0  0  0  0  0  0  0  0  0  0  0
    1.8438   -3.2803   -0.2288 H   0  0  0  0  0  0  0  0  0  0  0  0
    4.2981   -5.6195   -2.8485 H   0  0  0  0  0  0  0  0  0  0  0  0
    6.0595   -5.7512   -1.0699 H   0  0  0  0  0  0  0  0  0  0  0  0
  -13.1668   -8.7361    0.1882 N   0  0  0  0  0  0  0  0  0  0  0  0
  -14.1176   -9.2498   -0.0435 N   0  0  0  0  0  0  0  0  0  0  0  0
    0.1059   -6.5255   -0.6355 C   0  0  0  0  0  0  0  0  0  0  0  0
   -0.8079   -6.5634    0.4180 C   0  0  0  0  0  0  0  0  0  0  0  0
   -1.9430   -5.7425    0.4245 C   0  0  0  0  0  0  0  0  0  0  0  0
   -2.1474   -4.8720   -0.6589 C   0  0  0  0  0  0  0  0  0  0  0  0
   -1.2488   -4.8183   -1.7194 C   0  0  0  0  0  0  0  0  0  0  0  0
   -0.1250   -5.6497   -1.6959 C   0  0  0  0  0  0  0  0  0  0  0  0
    0.9762   -7.1717   -0.6466 H   0  0  0  0  0  0  0  0  0  0  0  0
   -0.6364   -7.2460    1.2462 H   0  0  0  0  0  0  0  0  0  0  0  0
   -3.0269   -4.2334   -0.6733 H   0  0  0  0  0  0  0  0  0  0  0  0
   -1.4155   -4.1576   -2.5635 H   0  0  0  0  0  0  0  0  0  0  0  0
    1.0365   -5.5751   -3.0469 S   0  0  0  0  0  0  0  0  0  0  0  0
    2.0076   -4.2813   -2.6299 O   0  0  0  0  0  0  0  0  0  0  0  0
    0.3568   -5.1017   -4.2434 O   0  0  0  0  0  0  0  0  0  0  0  0
    1.8452   -6.7909   -3.0397 O   0  0  0  0  0  0  0  0  0  0  0  0
   -2.9412   -5.8006    1.5553 C   0  0  0  0  0  0  0  0  0  0  0  0
   -3.1778   -4.7991    1.9290 H   0  0  0  0  0  0  0  0  0  0  0  0
   -3.8842   -6.2496    1.2221 H   0  0  0  0  0  0  0  0  0  0  0  0
   -2.5667   -6.3959    2.3919 H   0  0  0  0  0  0  0  0  0  0  0  0
    5.9584   -4.7264    1.2356 O   0  0  0  0  0  0  0  0  0  0  0  0
    5.8253   -4.1132    2.5078 C   0  0  0  0  0  0  0  0  0  0  0  0
    6.7445   -4.3418    3.0501 H   0  0  0  0  0  0  0  0  0  0  0  0
    5.7172   -3.0240    2.4240 H   0  0  0  0  0  0  0  0  0  0  0  0
    4.9694   -4.5163    3.0649 H   0  0  0  0  0  0  0  0  0  0  0  0
  1  7  1  0  0  0  0
  2  8  1  0  0  0  0
  2  1  2  0  0  0  0
  3  2  1  0  0  0  0
  4  3  2  0  0  0  0
  4  5  1  0  0  0  0
  5  6  2  0  0  0  0
  6  1  1  0  0  0  0
  6 31  1  0  0  0  0
  9  4  1  0  0  0  0
 10  5  1  0  0  0  0
 12 11  3  0  0  0  0
 13 14  2  0  0  0  0
 14 15  1  0  0  0  0
 14 20  1  0  0  0  0
 15 27  1  0  0  0  0
 16 15  2  0  0  0  0
 17 18  2  0  0  0  0
 17 16  1  0  0  0  0
 18 13  1  0  0  0  0
 19 13  1  0  0  0  0
 21 16  1  0  0  0  0
 22 17  1  0  0  0  0
 23 26  2  0  0  0  0
 23 24  1  0  0  0  0
 23 18  1  0  0  0  0
 24  3  1  0  0  0  0
 25 23  2  0  0  0  0
 27 28  1  0  0  0  0
 27 30  1  0  0  0  0
 29 27  1  0  0  0  0
 31 32  1  0  0  0  0
 32 33  1  0  0  0  0
 32 35  1  0  0  0  0
 34 32  1  0  0  0  0
M  END
