Coordinates from ORCA-job 4-MeO-Ph-N2-OTs-B3LYPG-6-31G_dp-MTMO-d009-169-n800
 OpenBabel09051908173D

 35 35  0  0  0  0  0  0  0  0999 V2000
    2.6455   -3.8090    0.4817 C   0  0  0  0  0  0  0  0  0  0  0  0
    1.5167   -3.9320   -0.3333 C   0  0  0  0  0  0  0  0  0  0  0  0
    1.6440   -4.4264   -1.6269 C   0  0  0  0  0  0  0  0  0  0  0  0
    2.8923   -4.8110   -2.1267 C   0  0  0  0  0  0  0  0  0  0  0  0
    4.0126   -4.7000   -1.3146 C   0  0  0  0  0  0  0  0  0  0  0  0
    3.8989   -4.1970   -0.0081 C   0  0  0  0  0  0  0  0  0  0  0  0
    2.5337   -3.4126    1.4831 H   0  0  0  0  0  0  0  0  0  0  0  0
    0.5395   -3.6279    0.0254 H   0  0  0  0  0  0  0  0  0  0  0  0
    2.9695   -5.1955   -3.1362 H   0  0  0  0  0  0  0  0  0  0  0  0
    4.9941   -4.9906   -1.6732 H   0  0  0  0  0  0  0  0  0  0  0  0
   -0.8620   -1.6531   -1.8329 N   0  0  0  0  0  0  0  0  0  0  0  0
   -0.6665   -1.1384   -2.7910 N   0  0  0  0  0  0  0  0  0  0  0  0
   -0.3113   -7.3488   -0.5081 C   0  0  0  0  0  0  0  0  0  0  0  0
   -0.9276   -7.7398    0.6799 C   0  0  0  0  0  0  0  0  0  0  0  0
   -2.1733   -7.2206    1.0569 C   0  0  0  0  0  0  0  0  0  0  0  0
   -2.8011   -6.2972    0.2049 C   0  0  0  0  0  0  0  0  0  0  0  0
   -2.2043   -5.8948   -0.9857 C   0  0  0  0  0  0  0  0  0  0  0  0
   -0.9581   -6.4259   -1.3302 C   0  0  0  0  0  0  0  0  0  0  0  0
    0.6450   -7.7614   -0.8070 H   0  0  0  0  0  0  0  0  0  0  0  0
   -0.4339   -8.4649    1.3214 H   0  0  0  0  0  0  0  0  0  0  0  0
   -3.7741   -5.8965    0.4750 H   0  0  0  0  0  0  0  0  0  0  0  0
   -2.6985   -5.1952   -1.6515 H   0  0  0  0  0  0  0  0  0  0  0  0
   -0.1873   -5.9112   -2.8535 S   0  0  0  0  0  0  0  0  0  0  0  0
    0.5071   -4.4479   -2.4454 O   0  0  0  0  0  0  0  0  0  0  0  0
   -1.2113   -5.5258   -3.8128 O   0  0  0  0  0  0  0  0  0  0  0  0
    0.8727   -6.8588   -3.1863 O   0  0  0  0  0  0  0  0  0  0  0  0
   -2.8235   -7.6292    2.3561 C   0  0  0  0  0  0  0  0  0  0  0  0
   -2.6680   -6.8652    3.1284 H   0  0  0  0  0  0  0  0  0  0  0  0
   -3.9043   -7.7561    2.2392 H   0  0  0  0  0  0  0  0  0  0  0  0
   -2.4089   -8.5671    2.7338 H   0  0  0  0  0  0  0  0  0  0  0  0
    5.0641   -4.1228    0.6976 O   0  0  0  0  0  0  0  0  0  0  0  0
    5.0192   -3.6046    2.0176 C   0  0  0  0  0  0  0  0  0  0  0  0
    6.0463   -3.6268    2.3851 H   0  0  0  0  0  0  0  0  0  0  0  0
    4.6531   -2.5700    2.0344 H   0  0  0  0  0  0  0  0  0  0  0  0
    4.3891   -4.2190    2.6736 H   0  0  0  0  0  0  0  0  0  0  0  0
  1  7  1  0  0  0  0
  2  8  1  0  0  0  0
  2  1  2  0  0  0  0
  3  2  1  0  0  0  0
  4  3  2  0  0  0  0
  4  5  1  0  0  0  0
  5  6  2  0  0  0  0
  6  1  1  0  0  0  0
  6 31  1  0  0  0  0
  9  4  1  0  0  0  0
 10  5  1  0  0  0  0
 12 11  3  0  0  0  0
 13 14  2  0  0  0  0
 14 15  1  0  0  0  0
 14 20  1  0  0  0  0
 15 27  1  0  0  0  0
 16 21  1  0  0  0  0
 16 15  2  0  0  0  0
 17 16  1  0  0  0  0
 18 17  2  0  0  0  0
 18 13  1  0  0  0  0
 19 13  1  0  0  0  0
 22 17  1  0  0  0  0
 23 24  1  0  0  0  0
 23 18  1  0  0  0  0
 24  3  1  0  0  0  0
 25 23  2  0  0  0  0
 26 23  2  0  0  0  0
 27 30  1  0  0  0  0
 27 28  1  0  0  0  0
 29 27  1  0  0  0  0
 31 32  1  0  0  0  0
 32 34  1  0  0  0  0
 32 33  1  0  0  0  0
 32 35  1  0  0  0  0
M  END
