Coordinates from ORCA-job 4-MeO-Ph-N2-OTs-B3LYPG-6-31G_dp-MTMO-d009-169-n800
 OpenBabel09051908173D

 35 36  0  0  1  0  0  0  0  0999 V2000
    3.9333   -2.8554   -0.5820 C   0  0  0  0  0  0  0  0  0  0  0  0
    3.0522   -1.9542   -0.0758 C   0  0  0  0  0  0  0  0  0  0  0  0
    1.8730   -2.4151    0.5985 C   0  0  0  0  0  0  0  0  0  0  0  0
    1.4337   -3.8407    0.5435 C   0  0  2  0  0  0  0  0  0  0  0  0
    2.5548   -4.7336    0.1988 C   0  0  0  0  0  0  0  0  0  0  0  0
    3.6926   -4.2732   -0.3893 C   0  0  0  0  0  0  0  0  0  0  0  0
    4.8175   -2.5099   -1.1001 H   0  0  0  0  0  0  0  0  0  0  0  0
    3.2242   -0.8861   -0.1645 H   0  0  0  0  0  0  0  0  0  0  0  0
    0.8983   -4.1381    1.4447 H   0  0  0  0  0  0  0  0  0  0  0  0
    2.4305   -5.7991    0.3534 H   0  0  0  0  0  0  0  0  0  0  0  0
    1.0938   -1.5406    1.2083 N   0  0  0  0  0  0  0  0  0  0  0  0
    0.4209   -0.7940    1.7393 N   0  0  0  0  0  0  0  0  0  0  0  0
   -1.8353   -6.3728    0.9918 C   0  0  0  0  0  0  0  0  0  0  0  0
   -2.1654   -7.7283    0.9729 C   0  0  0  0  0  0  0  0  0  0  0  0
   -2.2998   -8.4252   -0.2347 C   0  0  0  0  0  0  0  0  0  0  0  0
   -2.0956   -7.7270   -1.4360 C   0  0  0  0  0  0  0  0  0  0  0  0
   -1.7688   -6.3746   -1.4374 C   0  0  0  0  0  0  0  0  0  0  0  0
   -1.6355   -5.7071   -0.2169 C   0  0  0  0  0  0  0  0  0  0  0  0
   -1.7461   -5.8299    1.9263 H   0  0  0  0  0  0  0  0  0  0  0  0
   -2.3254   -8.2501    1.9127 H   0  0  0  0  0  0  0  0  0  0  0  0
   -2.1983   -8.2509   -2.3828 H   0  0  0  0  0  0  0  0  0  0  0  0
   -1.6265   -5.8368   -2.3686 H   0  0  0  0  0  0  0  0  0  0  0  0
   -1.2033   -3.9724   -0.2116 S   0  0  0  0  0  0  0  0  0  0  0  0
   -1.3547   -3.4676    1.1603 O   0  0  0  0  0  0  0  0  0  0  0  0
   -1.8825   -3.3228   -1.3277 O   0  0  0  0  0  0  0  0  0  0  0  0
    0.3752   -3.9905   -0.5889 O   0  0  0  0  0  0  0  0  0  0  0  0
   -2.6848   -9.8849   -0.2510 C   0  0  0  0  0  0  0  0  0  0  0  0
   -2.1526  -10.4294   -1.0366 H   0  0  0  0  0  0  0  0  0  0  0  0
   -2.4676  -10.3677    0.7058 H   0  0  0  0  0  0  0  0  0  0  0  0
   -3.7582  -10.0047   -0.4434 H   0  0  0  0  0  0  0  0  0  0  0  0
    4.6127   -5.2112   -0.7577 O   0  0  0  0  0  0  0  0  0  0  0  0
    5.8965   -4.7985   -1.2055 C   0  0  0  0  0  0  0  0  0  0  0  0
    6.4678   -5.7168   -1.3496 H   0  0  0  0  0  0  0  0  0  0  0  0
    5.8453   -4.2622   -2.1613 H   0  0  0  0  0  0  0  0  0  0  0  0
    6.4078   -4.1717   -0.4643 H   0  0  0  0  0  0  0  0  0  0  0  0
  1  6  2  0  0  0  0
  1  2  1  0  0  0  0
  2  3  2  0  0  0  0
  3 11  1  0  0  0  0
  4  3  1  0  0  0  0
  4  9  1  1  0  0  0
  5 10  1  0  0  0  0
  5  4  1  0  0  0  0
  6  5  1  0  0  0  0
  7  1  1  0  0  0  0
  8  2  1  0  0  0  0
 11 12  1  0  0  0  0
 13 19  1  0  0  0  0
 14 13  1  0  0  0  0
 14 20  1  0  0  0  0
 15 14  2  0  0  0  0
 16 15  1  0  0  0  0
 17 16  2  0  0  0  0
 17 18  1  0  0  0  0
 18 23  1  0  0  0  0
 18 13  2  0  0  0  0
 21 16  1  0  0  0  0
 22 17  1  0  0  0  0
 23 24  2  0  0  0  0
 25 23  2  0  0  0  0
 26 23  1  0  0  0  0
 26  4  1  0  0  0  0
 27 15  1  0  0  0  0
 27 29  1  0  0  0  0
 28 27  1  0  0  0  0
 30 27  1  0  0  0  0
 31  6  1  0  0  0  0
 32 31  1  0  0  0  0
 32 35  1  0  0  0  0
 33 32  1  0  0  0  0
 34 32  1  0  0  0  0
M  RAD  3   5   2  11   2  12   3
M  END
