Coordinates from ORCA-job 4-MeO-Ph-N2-OTs-B3LYPG-6-31G_dp-MTMO-d009-169-n800
 OpenBabel09051908173D

 35 34  0  0  0  0  0  0  0  0999 V2000
    3.9768   -2.8028    0.4518 C   0  0  0  0  0  0  0  0  0  0  0  0
    2.7922   -2.2161   -0.0492 C   0  0  0  0  0  0  0  0  0  0  0  0
    2.1329   -3.1658   -0.7761 C   0  0  0  0  0  0  0  0  0  0  0  0
    2.3336   -4.3698   -1.0857 C   0  0  0  0  0  0  0  0  0  0  0  0
    3.4932   -4.9889   -0.6140 C   0  0  0  0  0  0  0  0  0  0  0  0
    4.3197   -4.1503    0.1775 C   0  0  0  0  0  0  0  0  0  0  0  0
    4.6282   -2.1868    1.0608 H   0  0  0  0  0  0  0  0  0  0  0  0
    2.5015   -1.1912    0.1386 H   0  0  0  0  0  0  0  0  0  0  0  0
    0.9991   -5.2188   -2.2509 H   0  0  0  0  0  0  0  0  0  0  0  0
    3.7909   -6.0139   -0.8057 H   0  0  0  0  0  0  0  0  0  0  0  0
    0.1505   -1.0442   -1.8114 N   0  0  0  0  0  0  0  0  0  0  0  0
   -0.5146   -0.7238   -2.6334 N   0  0  0  0  0  0  0  0  0  0  0  0
   -1.6852   -5.8319    0.0425 C   0  0  0  0  0  0  0  0  0  0  0  0
   -2.1430   -6.6522    1.0719 C   0  0  0  0  0  0  0  0  0  0  0  0
   -2.6462   -7.9342    0.8094 C   0  0  0  0  0  0  0  0  0  0  0  0
   -2.6915   -8.3746   -0.5218 C   0  0  0  0  0  0  0  0  0  0  0  0
   -2.2403   -7.5687   -1.5642 C   0  0  0  0  0  0  0  0  0  0  0  0
   -1.7343   -6.3011   -1.2707 C   0  0  0  0  0  0  0  0  0  0  0  0
   -1.3106   -4.8350    0.2455 H   0  0  0  0  0  0  0  0  0  0  0  0
   -2.1152   -6.2877    2.0955 H   0  0  0  0  0  0  0  0  0  0  0  0
   -3.0922   -9.3593   -0.7458 H   0  0  0  0  0  0  0  0  0  0  0  0
   -2.2935   -7.9037   -2.5943 H   0  0  0  0  0  0  0  0  0  0  0  0
   -1.1403   -5.2665   -2.6011 S   0  0  0  0  0  0  0  0  0  0  0  0
   -1.1016   -3.8813   -2.1264 O   0  0  0  0  0  0  0  0  0  0  0  0
   -1.8420   -5.6370   -3.8221 O   0  0  0  0  0  0  0  0  0  0  0  0
    0.3901   -5.7743   -2.8037 O   0  0  0  0  0  0  0  0  0  0  0  0
   -3.1112   -8.8270    1.9344 C   0  0  0  0  0  0  0  0  0  0  0  0
   -3.9042   -9.5056    1.6067 H   0  0  0  0  0  0  0  0  0  0  0  0
   -2.2864   -9.4466    2.3082 H   0  0  0  0  0  0  0  0  0  0  0  0
   -3.4886   -8.2439    2.7792 H   0  0  0  0  0  0  0  0  0  0  0  0
    5.4533   -4.7474    0.6419 O   0  0  0  0  0  0  0  0  0  0  0  0
    6.3643   -3.9840    1.4181 C   0  0  0  0  0  0  0  0  0  0  0  0
    7.1883   -4.6557    1.6622 H   0  0  0  0  0  0  0  0  0  0  0  0
    6.7527   -3.1257    0.8550 H   0  0  0  0  0  0  0  0  0  0  0  0
    5.9031   -3.6273    2.3480 H   0  0  0  0  0  0  0  0  0  0  0  0
  1  7  1  0  0  0  0
  2  8  1  0  0  0  0
  2  1  2  0  0  0  0
  3  2  1  0  0  0  0
  4  3  2  0  0  0  0
  4  5  1  0  0  0  0
  5  6  2  0  0  0  0
  6  1  1  0  0  0  0
  6 31  1  0  0  0  0
 10  5  1  0  0  0  0
 12 11  3  0  0  0  0
 13 19  1  0  0  0  0
 13 14  2  0  0  0  0
 14 20  1  0  0  0  0
 15 14  1  0  0  0  0
 15 27  1  0  0  0  0
 16 15  2  0  0  0  0
 17 18  2  0  0  0  0
 17 16  1  0  0  0  0
 18 13  1  0  0  0  0
 21 16  1  0  0  0  0
 22 17  1  0  0  0  0
 23 24  2  0  0  0  0
 23 18  1  0  0  0  0
 25 23  2  0  0  0  0
 26 23  1  0  0  0  0
 26  9  1  0  0  0  0
 27 29  1  0  0  0  0
 27 30  1  0  0  0  0
 28 27  1  0  0  0  0
 31 32  1  0  0  0  0
 32 33  1  0  0  0  0
 32 35  1  0  0  0  0
 34 32  1  0  0  0  0
M  RAD  2   3   2   4   2
M  END
