Coordinates from ORCA-job 4-MeO-Ph-N2-OTs-B3LYPG-6-31G_dp-MTMO-d009-169-n800
 OpenBabel09051908173D

 35 35  0  0  0  0  0  0  0  0999 V2000
    3.0815   -3.9247    0.7339 C   0  0  0  0  0  0  0  0  0  0  0  0
    2.0647   -3.9104   -0.2249 C   0  0  0  0  0  0  0  0  0  0  0  0
    2.3157   -4.3720   -1.5122 C   0  0  0  0  0  0  0  0  0  0  0  0
    3.5789   -4.8580   -1.8639 C   0  0  0  0  0  0  0  0  0  0  0  0
    4.5872   -4.8822   -0.9102 C   0  0  0  0  0  0  0  0  0  0  0  0
    4.3478   -4.4149    0.3925 C   0  0  0  0  0  0  0  0  0  0  0  0
    2.8741   -3.5532    1.7299 H   0  0  0  0  0  0  0  0  0  0  0  0
    1.0795   -3.5290    0.0203 H   0  0  0  0  0  0  0  0  0  0  0  0
    3.7541   -5.2153   -2.8712 H   0  0  0  0  0  0  0  0  0  0  0  0
    5.5769   -5.2543   -1.1521 H   0  0  0  0  0  0  0  0  0  0  0  0
   -5.8585   -3.8348   -0.9810 N   0  0  0  0  0  0  0  0  0  0  0  0
   -6.7215   -3.3410   -1.4634 N   0  0  0  0  0  0  0  0  0  0  0  0
   -0.0974   -7.0633   -0.7460 C   0  0  0  0  0  0  0  0  0  0  0  0
   -0.9263   -7.3967    0.3248 C   0  0  0  0  0  0  0  0  0  0  0  0
   -2.1595   -6.7591    0.5147 C   0  0  0  0  0  0  0  0  0  0  0  0
   -2.5553   -5.7737   -0.4047 C   0  0  0  0  0  0  0  0  0  0  0  0
   -1.7431   -5.4273   -1.4803 C   0  0  0  0  0  0  0  0  0  0  0  0
   -0.5161   -6.0774   -1.6395 C   0  0  0  0  0  0  0  0  0  0  0  0
    0.8487   -7.5690   -0.9019 H   0  0  0  0  0  0  0  0  0  0  0  0
   -0.6119   -8.1709    1.0198 H   0  0  0  0  0  0  0  0  0  0  0  0
   -3.5148   -5.2790   -0.2838 H   0  0  0  0  0  0  0  0  0  0  0  0
   -2.0567   -4.6800   -2.2013 H   0  0  0  0  0  0  0  0  0  0  0  0
    0.5275   -5.6347   -3.0153 S   0  0  0  0  0  0  0  0  0  0  0  0
    1.2997   -4.2575   -2.4694 O   0  0  0  0  0  0  0  0  0  0  0  0
   -0.2942   -5.1348   -4.1073 O   0  0  0  0  0  0  0  0  0  0  0  0
    1.5220   -6.6867   -3.2086 O   0  0  0  0  0  0  0  0  0  0  0  0
   -3.0420   -7.1103    1.6876 C   0  0  0  0  0  0  0  0  0  0  0  0
   -2.9402   -6.3692    2.4906 H   0  0  0  0  0  0  0  0  0  0  0  0
   -4.0978   -7.1315    1.4000 H   0  0  0  0  0  0  0  0  0  0  0  0
   -2.7827   -8.0861    2.1065 H   0  0  0  0  0  0  0  0  0  0  0  0
    5.4107   -4.4783    1.2454 O   0  0  0  0  0  0  0  0  0  0  0  0
    5.2377   -4.0058    2.5719 C   0  0  0  0  0  0  0  0  0  0  0  0
    6.1988   -4.1460    3.0695 H   0  0  0  0  0  0  0  0  0  0  0  0
    4.9739   -2.9405    2.5916 H   0  0  0  0  0  0  0  0  0  0  0  0
    4.4682   -4.5756    3.1086 H   0  0  0  0  0  0  0  0  0  0  0  0
  1  7  1  0  0  0  0
  2  8  1  0  0  0  0
  2  1  2  0  0  0  0
  3  2  1  0  0  0  0
  4  3  2  0  0  0  0
  4  5  1  0  0  0  0
  5  6  2  0  0  0  0
  6  1  1  0  0  0  0
  6 31  1  0  0  0  0
  9  4  1  0  0  0  0
 10  5  1  0  0  0  0
 12 11  3  0  0  0  0
 13 14  2  0  0  0  0
 14 15  1  0  0  0  0
 14 20  1  0  0  0  0
 15 27  1  0  0  0  0
 16 21  1  0  0  0  0
 16 15  2  0  0  0  0
 17 16  1  0  0  0  0
 18 17  2  0  0  0  0
 18 13  1  0  0  0  0
 19 13  1  0  0  0  0
 22 17  1  0  0  0  0
 23 24  1  0  0  0  0
 23 18  1  0  0  0  0
 24  3  1  0  0  0  0
 25 23  2  0  0  0  0
 26 23  2  0  0  0  0
 27 30  1  0  0  0  0
 27 28  1  0  0  0  0
 29 27  1  0  0  0  0
 31 32  1  0  0  0  0
 32 34  1  0  0  0  0
 32 33  1  0  0  0  0
 32 35  1  0  0  0  0
M  END
