Coordinates from ORCA-job 4-MeO-Ph-N2-OTs-B3LYPG-6-31G_dp-MTMO-d009-169-n800
 OpenBabel09051908173D

 35 35  0  0  0  0  0  0  0  0999 V2000
    3.4031   -4.0726    0.6712 C   0  0  0  0  0  0  0  0  0  0  0  0
    2.4512   -3.9508   -0.3451 C   0  0  0  0  0  0  0  0  0  0  0  0
    2.6660   -4.5609   -1.5760 C   0  0  0  0  0  0  0  0  0  0  0  0
    3.8267   -5.3036   -1.8130 C   0  0  0  0  0  0  0  0  0  0  0  0
    4.7694   -5.4326   -0.8025 C   0  0  0  0  0  0  0  0  0  0  0  0
    4.5664   -4.8182    0.4442 C   0  0  0  0  0  0  0  0  0  0  0  0
    3.2268   -3.5849    1.6221 H   0  0  0  0  0  0  0  0  0  0  0  0
    1.5468   -3.3723   -0.1887 H   0  0  0  0  0  0  0  0  0  0  0  0
    3.9739   -5.7731   -2.7780 H   0  0  0  0  0  0  0  0  0  0  0  0
    5.6805   -6.0008   -0.9562 H   0  0  0  0  0  0  0  0  0  0  0  0
   -6.8939   -7.5878    0.3538 N   0  0  0  0  0  0  0  0  0  0  0  0
   -7.7647   -8.1741    0.0085 N   0  0  0  0  0  0  0  0  0  0  0  0
   -0.3414   -6.5261   -0.7026 C   0  0  0  0  0  0  0  0  0  0  0  0
   -1.2927   -6.5339    0.3169 C   0  0  0  0  0  0  0  0  0  0  0  0
   -2.3850   -5.6563    0.2982 C   0  0  0  0  0  0  0  0  0  0  0  0
   -2.5051   -4.7591   -0.7755 C   0  0  0  0  0  0  0  0  0  0  0  0
   -1.5675   -4.7348   -1.8031 C   0  0  0  0  0  0  0  0  0  0  0  0
   -0.4891   -5.6227   -1.7552 C   0  0  0  0  0  0  0  0  0  0  0  0
    0.4957   -7.2154   -0.6944 H   0  0  0  0  0  0  0  0  0  0  0  0
   -1.1853   -7.2370    1.1389 H   0  0  0  0  0  0  0  0  0  0  0  0
   -3.3488   -4.0744   -0.8080 H   0  0  0  0  0  0  0  0  0  0  0  0
   -1.6693   -4.0519   -2.6399 H   0  0  0  0  0  0  0  0  0  0  0  0
    0.7217   -5.5874   -3.0638 S   0  0  0  0  0  0  0  0  0  0  0  0
    1.7359   -4.3434   -2.6003 O   0  0  0  0  0  0  0  0  0  0  0  0
    0.1061   -5.0718   -4.2776 O   0  0  0  0  0  0  0  0  0  0  0  0
    1.4736   -6.8390   -3.0428 O   0  0  0  0  0  0  0  0  0  0  0  0
   -3.4269   -5.6888    1.3897 C   0  0  0  0  0  0  0  0  0  0  0  0
   -3.7434   -4.6792    1.6688 H   0  0  0  0  0  0  0  0  0  0  0  0
   -4.3230   -6.2288    1.0612 H   0  0  0  0  0  0  0  0  0  0  0  0
   -3.0518   -6.1880    2.2870 H   0  0  0  0  0  0  0  0  0  0  0  0
    5.5595   -5.0044    1.3609 O   0  0  0  0  0  0  0  0  0  0  0  0
    5.4171   -4.4036    2.6380 C   0  0  0  0  0  0  0  0  0  0  0  0
    6.3128   -4.6741    3.1998 H   0  0  0  0  0  0  0  0  0  0  0  0
    5.3520   -3.3100    2.5669 H   0  0  0  0  0  0  0  0  0  0  0  0
    4.5327   -4.7813    3.1675 H   0  0  0  0  0  0  0  0  0  0  0  0
  1  7  1  0  0  0  0
  2  8  1  0  0  0  0
  2  1  2  0  0  0  0
  3  2  1  0  0  0  0
  4  3  2  0  0  0  0
  4  5  1  0  0  0  0
  5  6  2  0  0  0  0
  6  1  1  0  0  0  0
  6 31  1  0  0  0  0
  9  4  1  0  0  0  0
 10  5  1  0  0  0  0
 12 11  3  0  0  0  0
 13 19  1  0  0  0  0
 13 14  2  0  0  0  0
 14 20  1  0  0  0  0
 15 14  1  0  0  0  0
 15 27  1  0  0  0  0
 16 15  2  0  0  0  0
 17 18  2  0  0  0  0
 17 16  1  0  0  0  0
 18 13  1  0  0  0  0
 21 16  1  0  0  0  0
 22 17  1  0  0  0  0
 23 26  2  0  0  0  0
 23 24  1  0  0  0  0
 23 18  1  0  0  0  0
 24  3  1  0  0  0  0
 25 23  2  0  0  0  0
 27 28  1  0  0  0  0
 27 30  1  0  0  0  0
 29 27  1  0  0  0  0
 31 32  1  0  0  0  0
 32 35  1  0  0  0  0
 32 33  1  0  0  0  0
 34 32  1  0  0  0  0
M  END
