Coordinates from ORCA-job 4-MeO-Ph-N2-OTs-B3LYPG-6-31G_dp-MTMO-d009-169-n800
 OpenBabel09051908173D

 35 35  0  0  0  0  0  0  0  0999 V2000
    2.6212   -3.8118    0.4901 C   0  0  0  0  0  0  0  0  0  0  0  0
    1.4830   -3.9431   -0.3104 C   0  0  0  0  0  0  0  0  0  0  0  0
    1.6010   -4.4126   -1.6141 C   0  0  0  0  0  0  0  0  0  0  0  0
    2.8490   -4.7643   -2.1382 C   0  0  0  0  0  0  0  0  0  0  0  0
    3.9789   -4.6447   -1.3408 C   0  0  0  0  0  0  0  0  0  0  0  0
    3.8746   -4.1663   -0.0243 C   0  0  0  0  0  0  0  0  0  0  0  0
    2.5165   -3.4344    1.4996 H   0  0  0  0  0  0  0  0  0  0  0  0
    0.5059   -3.6644    0.0679 H   0  0  0  0  0  0  0  0  0  0  0  0
    2.9186   -5.1308   -3.1549 H   0  0  0  0  0  0  0  0  0  0  0  0
    4.9605   -4.9101   -1.7183 H   0  0  0  0  0  0  0  0  0  0  0  0
   -0.4761   -1.5094   -1.9257 N   0  0  0  0  0  0  0  0  0  0  0  0
   -0.2529   -1.0520   -2.9066 N   0  0  0  0  0  0  0  0  0  0  0  0
   -0.3227   -7.3559   -0.4866 C   0  0  0  0  0  0  0  0  0  0  0  0
   -0.9339   -7.7576    0.7009 C   0  0  0  0  0  0  0  0  0  0  0  0
   -2.1895   -7.2617    1.0753 C   0  0  0  0  0  0  0  0  0  0  0  0
   -2.8326   -6.3497    0.2221 C   0  0  0  0  0  0  0  0  0  0  0  0
   -2.2414   -5.9368   -0.9674 C   0  0  0  0  0  0  0  0  0  0  0  0
   -0.9848   -6.4453   -1.3099 C   0  0  0  0  0  0  0  0  0  0  0  0
    0.6415   -7.7511   -0.7833 H   0  0  0  0  0  0  0  0  0  0  0  0
   -0.4279   -8.4730    1.3437 H   0  0  0  0  0  0  0  0  0  0  0  0
   -3.8130   -5.9663    0.4905 H   0  0  0  0  0  0  0  0  0  0  0  0
   -2.7469   -5.2467   -1.6346 H   0  0  0  0  0  0  0  0  0  0  0  0
   -0.2208   -5.9156   -2.8314 S   0  0  0  0  0  0  0  0  0  0  0  0
    0.4540   -4.4444   -2.4176 O   0  0  0  0  0  0  0  0  0  0  0  0
   -1.2504   -5.5411   -3.7890 O   0  0  0  0  0  0  0  0  0  0  0  0
    0.8519   -6.8475   -3.1674 O   0  0  0  0  0  0  0  0  0  0  0  0
   -2.8390   -7.6856    2.3701 C   0  0  0  0  0  0  0  0  0  0  0  0
   -2.7854   -6.8833    3.1168 H   0  0  0  0  0  0  0  0  0  0  0  0
   -3.8982   -7.9208    2.2257 H   0  0  0  0  0  0  0  0  0  0  0  0
   -2.3499   -8.5657    2.7945 H   0  0  0  0  0  0  0  0  0  0  0  0
    5.0484   -4.0809    0.6656 O   0  0  0  0  0  0  0  0  0  0  0  0
    5.0129   -3.5875    1.9954 C   0  0  0  0  0  0  0  0  0  0  0  0
    6.0454   -3.5969    2.3479 H   0  0  0  0  0  0  0  0  0  0  0  0
    4.6279   -2.5605    2.0364 H   0  0  0  0  0  0  0  0  0  0  0  0
    4.4039   -4.2255    2.6489 H   0  0  0  0  0  0  0  0  0  0  0  0
  1  7  1  0  0  0  0
  2  8  1  0  0  0  0
  2  1  2  0  0  0  0
  3  2  1  0  0  0  0
  4  3  2  0  0  0  0
  4  5  1  0  0  0  0
  5  6  2  0  0  0  0
  6  1  1  0  0  0  0
  6 31  1  0  0  0  0
  9  4  1  0  0  0  0
 10  5  1  0  0  0  0
 12 11  3  0  0  0  0
 13 14  2  0  0  0  0
 14 15  1  0  0  0  0
 14 20  1  0  0  0  0
 15 27  1  0  0  0  0
 16 21  1  0  0  0  0
 16 15  2  0  0  0  0
 17 16  1  0  0  0  0
 18 17  2  0  0  0  0
 18 13  1  0  0  0  0
 19 13  1  0  0  0  0
 22 17  1  0  0  0  0
 23 24  1  0  0  0  0
 23 18  1  0  0  0  0
 24  3  1  0  0  0  0
 25 23  2  0  0  0  0
 26 23  2  0  0  0  0
 27 30  1  0  0  0  0
 27 28  1  0  0  0  0
 29 27  1  0  0  0  0
 31 32  1  0  0  0  0
 32 34  1  0  0  0  0
 32 33  1  0  0  0  0
 32 35  1  0  0  0  0
M  END
