Coordinates from ORCA-job 4-MeO-Ph-N2-OTs-B3LYPG-6-31G_dp-MTMO-d009-169-n800
 OpenBabel09051908173D

 35 35  0  0  0  0  0  0  0  0999 V2000
    3.6216   -3.9837    0.6189 C   0  0  0  0  0  0  0  0  0  0  0  0
    2.6550   -3.8851   -0.3860 C   0  0  0  0  0  0  0  0  0  0  0  0
    2.8612   -4.5066   -1.6127 C   0  0  0  0  0  0  0  0  0  0  0  0
    4.0279   -5.2375   -1.8568 C   0  0  0  0  0  0  0  0  0  0  0  0
    4.9853   -5.3434   -0.8574 C   0  0  0  0  0  0  0  0  0  0  0  0
    4.7909   -4.7175    0.3849 C   0  0  0  0  0  0  0  0  0  0  0  0
    3.4517   -3.4876    1.5666 H   0  0  0  0  0  0  0  0  0  0  0  0
    1.7456   -3.3161   -0.2242 H   0  0  0  0  0  0  0  0  0  0  0  0
    4.1684   -5.7159   -2.8183 H   0  0  0  0  0  0  0  0  0  0  0  0
    5.9013   -5.9022   -1.0168 H   0  0  0  0  0  0  0  0  0  0  0  0
  -10.6150   -8.4454    0.3503 N   0  0  0  0  0  0  0  0  0  0  0  0
  -11.5636   -8.9628    0.1177 N   0  0  0  0  0  0  0  0  0  0  0  0
   -0.0958   -6.5020   -0.6709 C   0  0  0  0  0  0  0  0  0  0  0  0
   -1.0275   -6.5103    0.3670 C   0  0  0  0  0  0  0  0  0  0  0  0
   -2.1310   -5.6471    0.3590 C   0  0  0  0  0  0  0  0  0  0  0  0
   -2.2839   -4.7641   -0.7225 C   0  0  0  0  0  0  0  0  0  0  0  0
   -1.3664   -4.7397   -1.7679 C   0  0  0  0  0  0  0  0  0  0  0  0
   -0.2756   -5.6130   -1.7303 C   0  0  0  0  0  0  0  0  0  0  0  0
    0.7501   -7.1803   -0.6710 H   0  0  0  0  0  0  0  0  0  0  0  0
   -0.8956   -7.2026    1.1945 H   0  0  0  0  0  0  0  0  0  0  0  0
   -3.1376   -4.0916   -0.7471 H   0  0  0  0  0  0  0  0  0  0  0  0
   -1.4934   -4.0684   -2.6106 H   0  0  0  0  0  0  0  0  0  0  0  0
    0.9108   -5.5752   -3.0612 S   0  0  0  0  0  0  0  0  0  0  0  0
    1.9148   -4.3129   -2.6269 O   0  0  0  0  0  0  0  0  0  0  0  0
    0.2670   -5.0803   -4.2689 O   0  0  0  0  0  0  0  0  0  0  0  0
    1.6801   -6.8162   -3.0410 O   0  0  0  0  0  0  0  0  0  0  0  0
   -3.1514   -5.6777    1.4709 C   0  0  0  0  0  0  0  0  0  0  0  0
   -3.4256   -4.6670    1.7886 H   0  0  0  0  0  0  0  0  0  0  0  0
   -4.0730   -6.1726    1.1419 H   0  0  0  0  0  0  0  0  0  0  0  0
   -2.7785   -6.2198    2.3437 H   0  0  0  0  0  0  0  0  0  0  0  0
    5.7981   -4.8812    1.2904 O   0  0  0  0  0  0  0  0  0  0  0  0
    5.6649   -4.2683    2.5627 C   0  0  0  0  0  0  0  0  0  0  0  0
    6.5709   -4.5222    3.1157 H   0  0  0  0  0  0  0  0  0  0  0  0
    5.5861   -3.1764    2.4808 H   0  0  0  0  0  0  0  0  0  0  0  0
    4.7919   -4.6505    3.1077 H   0  0  0  0  0  0  0  0  0  0  0  0
  1  7  1  0  0  0  0
  2  8  1  0  0  0  0
  2  1  2  0  0  0  0
  3  2  1  0  0  0  0
  4  3  2  0  0  0  0
  4  5  1  0  0  0  0
  5  6  2  0  0  0  0
  6  1  1  0  0  0  0
  6 31  1  0  0  0  0
  9  4  1  0  0  0  0
 10  5  1  0  0  0  0
 12 11  3  0  0  0  0
 13 14  2  0  0  0  0
 14 20  1  0  0  0  0
 15 14  1  0  0  0  0
 15 27  1  0  0  0  0
 16 15  2  0  0  0  0
 17 18  2  0  0  0  0
 17 16  1  0  0  0  0
 18 13  1  0  0  0  0
 19 13  1  0  0  0  0
 21 16  1  0  0  0  0
 22 17  1  0  0  0  0
 23 26  2  0  0  0  0
 23 24  1  0  0  0  0
 23 18  1  0  0  0  0
 24  3  1  0  0  0  0
 25 23  2  0  0  0  0
 27 28  1  0  0  0  0
 27 30  1  0  0  0  0
 29 27  1  0  0  0  0
 31 32  1  0  0  0  0
 32 35  1  0  0  0  0
 32 33  1  0  0  0  0
 34 32  1  0  0  0  0
M  END
