Coordinates from ORCA-job 4-MeO-Ph-N2-OTs-B3LYPG-6-31G_dp-MTMO-d009-169-n800
 OpenBabel09051908173D

 35 35  0  0  0  0  0  0  0  0999 V2000
    2.8818   -3.9006    0.6624 C   0  0  0  0  0  0  0  0  0  0  0  0
    1.7404   -3.9064   -0.1443 C   0  0  0  0  0  0  0  0  0  0  0  0
    1.8296   -4.3054   -1.4733 C   0  0  0  0  0  0  0  0  0  0  0  0
    3.0527   -4.7084   -2.0186 C   0  0  0  0  0  0  0  0  0  0  0  0
    4.1853   -4.7135   -1.2161 C   0  0  0  0  0  0  0  0  0  0  0  0
    4.1099   -4.3086    0.1268 C   0  0  0  0  0  0  0  0  0  0  0  0
    2.7993   -3.5768    1.6925 H   0  0  0  0  0  0  0  0  0  0  0  0
    0.7822   -3.5886    0.2523 H   0  0  0  0  0  0  0  0  0  0  0  0
    3.1009   -5.0179   -3.0554 H   0  0  0  0  0  0  0  0  0  0  0  0
    5.1479   -5.0220   -1.6096 H   0  0  0  0  0  0  0  0  0  0  0  0
   -3.0292   -2.6222   -3.0744 N   0  0  0  0  0  0  0  0  0  0  0  0
   -2.7852   -2.0773   -4.0040 N   0  0  0  0  0  0  0  0  0  0  0  0
   -0.2876   -7.1956   -0.5414 C   0  0  0  0  0  0  0  0  0  0  0  0
   -0.9237   -7.6350    0.6194 C   0  0  0  0  0  0  0  0  0  0  0  0
   -2.1378   -7.0754    1.0376 C   0  0  0  0  0  0  0  0  0  0  0  0
   -2.7125   -6.0585    0.2570 C   0  0  0  0  0  0  0  0  0  0  0  0
   -2.0963   -5.6059   -0.9051 C   0  0  0  0  0  0  0  0  0  0  0  0
   -0.8823   -6.1822   -1.2925 C   0  0  0  0  0  0  0  0  0  0  0  0
    0.6445   -7.6377   -0.8732 H   0  0  0  0  0  0  0  0  0  0  0  0
   -0.4710   -8.4300    1.2056 H   0  0  0  0  0  0  0  0  0  0  0  0
   -3.6603   -5.6228    0.5606 H   0  0  0  0  0  0  0  0  0  0  0  0
   -2.5499   -4.8309   -1.5136 H   0  0  0  0  0  0  0  0  0  0  0  0
   -0.0823   -5.6060   -2.7781 S   0  0  0  0  0  0  0  0  0  0  0  0
    0.6838   -4.2105   -2.2737 O   0  0  0  0  0  0  0  0  0  0  0  0
   -1.0830   -5.1057   -3.7095 O   0  0  0  0  0  0  0  0  0  0  0  0
    0.9286   -6.5817   -3.1761 O   0  0  0  0  0  0  0  0  0  0  0  0
   -2.8164   -7.5436    2.3020 C   0  0  0  0  0  0  0  0  0  0  0  0
   -2.7487   -6.7824    3.0892 H   0  0  0  0  0  0  0  0  0  0  0  0
   -3.8806   -7.7380    2.1335 H   0  0  0  0  0  0  0  0  0  0  0  0
   -2.3607   -8.4593    2.6857 H   0  0  0  0  0  0  0  0  0  0  0  0
    5.2844   -4.3452    0.8197 O   0  0  0  0  0  0  0  0  0  0  0  0
    5.2766   -3.9389    2.1788 C   0  0  0  0  0  0  0  0  0  0  0  0
    6.3043   -4.0425    2.5302 H   0  0  0  0  0  0  0  0  0  0  0  0
    4.9628   -2.8926    2.2876 H   0  0  0  0  0  0  0  0  0  0  0  0
    4.6221   -4.5749    2.7885 H   0  0  0  0  0  0  0  0  0  0  0  0
  1  7  1  0  0  0  0
  2  8  1  0  0  0  0
  2  1  2  0  0  0  0
  3  2  1  0  0  0  0
  4  3  2  0  0  0  0
  4  5  1  0  0  0  0
  5  6  2  0  0  0  0
  6  1  1  0  0  0  0
  6 31  1  0  0  0  0
  9  4  1  0  0  0  0
 10  5  1  0  0  0  0
 12 11  3  0  0  0  0
 13 14  2  0  0  0  0
 14 15  1  0  0  0  0
 14 20  1  0  0  0  0
 15 27  1  0  0  0  0
 16 21  1  0  0  0  0
 16 15  2  0  0  0  0
 17 16  1  0  0  0  0
 18 17  2  0  0  0  0
 18 13  1  0  0  0  0
 19 13  1  0  0  0  0
 22 17  1  0  0  0  0
 23 24  1  0  0  0  0
 23 18  1  0  0  0  0
 24  3  1  0  0  0  0
 25 23  2  0  0  0  0
 26 23  2  0  0  0  0
 27 30  1  0  0  0  0
 27 28  1  0  0  0  0
 29 27  1  0  0  0  0
 31 32  1  0  0  0  0
 32 34  1  0  0  0  0
 32 33  1  0  0  0  0
 32 35  1  0  0  0  0
M  END
