Coordinates from ORCA-job 4-MeO-Ph-N2-OTs-B3LYPG-6-31G_dp-MTMO-d009-169-n800
 OpenBabel09051908173D

 35 35  0  0  0  0  0  0  0  0999 V2000
    3.4622   -4.0435    0.6927 C   0  0  0  0  0  0  0  0  0  0  0  0
    2.5343   -3.9124   -0.3444 C   0  0  0  0  0  0  0  0  0  0  0  0
    2.7848   -4.4989   -1.5800 C   0  0  0  0  0  0  0  0  0  0  0  0
    3.9581   -5.2265   -1.8013 C   0  0  0  0  0  0  0  0  0  0  0  0
    4.8770   -5.3648   -0.7702 C   0  0  0  0  0  0  0  0  0  0  0  0
    4.6377   -4.7744    0.4816 C   0  0  0  0  0  0  0  0  0  0  0  0
    3.2579   -3.5739    1.6471 H   0  0  0  0  0  0  0  0  0  0  0  0
    1.6211   -3.3449   -0.2002 H   0  0  0  0  0  0  0  0  0  0  0  0
    4.1336   -5.6775   -2.7704 H   0  0  0  0  0  0  0  0  0  0  0  0
    5.7970   -5.9217   -0.9114 H   0  0  0  0  0  0  0  0  0  0  0  0
   -8.4641   -7.8309    1.0073 N   0  0  0  0  0  0  0  0  0  0  0  0
   -9.4927   -8.2254    0.9182 N   0  0  0  0  0  0  0  0  0  0  0  0
   -0.1991   -6.5233   -0.8135 C   0  0  0  0  0  0  0  0  0  0  0  0
   -1.1691   -6.5696    0.1870 C   0  0  0  0  0  0  0  0  0  0  0  0
   -2.2779   -5.7129    0.1638 C   0  0  0  0  0  0  0  0  0  0  0  0
   -2.3948   -4.7962   -0.8933 C   0  0  0  0  0  0  0  0  0  0  0  0
   -1.4381   -4.7333   -1.9018 C   0  0  0  0  0  0  0  0  0  0  0  0
   -0.3443   -5.6016   -1.8507 C   0  0  0  0  0  0  0  0  0  0  0  0
    0.6507   -7.1967   -0.8030 H   0  0  0  0  0  0  0  0  0  0  0  0
   -1.0638   -7.2871    0.9968 H   0  0  0  0  0  0  0  0  0  0  0  0
   -3.2508   -4.1273   -0.9287 H   0  0  0  0  0  0  0  0  0  0  0  0
   -1.5370   -4.0354   -2.7266 H   0  0  0  0  0  0  0  0  0  0  0  0
    0.8899   -5.5179   -3.1351 S   0  0  0  0  0  0  0  0  0  0  0  0
    1.8779   -4.2716   -2.6230 O   0  0  0  0  0  0  0  0  0  0  0  0
    0.2899   -4.9819   -4.3477 O   0  0  0  0  0  0  0  0  0  0  0  0
    1.6589   -6.7593   -3.1295 O   0  0  0  0  0  0  0  0  0  0  0  0
   -3.3417   -5.7915    1.2318 C   0  0  0  0  0  0  0  0  0  0  0  0
   -3.7178   -4.7986    1.4958 H   0  0  0  0  0  0  0  0  0  0  0  0
   -4.1995   -6.3809    0.8855 H   0  0  0  0  0  0  0  0  0  0  0  0
   -2.9636   -6.2660    2.1411 H   0  0  0  0  0  0  0  0  0  0  0  0
    5.6096   -4.9680    1.4192 O   0  0  0  0  0  0  0  0  0  0  0  0
    5.4314   -4.3894    2.7020 C   0  0  0  0  0  0  0  0  0  0  0  0
    6.3152   -4.6623    3.2811 H   0  0  0  0  0  0  0  0  0  0  0  0
    5.3594   -3.2954    2.6470 H   0  0  0  0  0  0  0  0  0  0  0  0
    4.5374   -4.7823    3.2036 H   0  0  0  0  0  0  0  0  0  0  0  0
  1  7  1  0  0  0  0
  2  8  1  0  0  0  0
  2  1  2  0  0  0  0
  3  2  1  0  0  0  0
  4  3  2  0  0  0  0
  4  5  1  0  0  0  0
  5  6  2  0  0  0  0
  6  1  1  0  0  0  0
  6 31  1  0  0  0  0
  9  4  1  0  0  0  0
 10  5  1  0  0  0  0
 12 11  3  0  0  0  0
 13 19  1  0  0  0  0
 13 14  2  0  0  0  0
 14 20  1  0  0  0  0
 15 14  1  0  0  0  0
 15 27  1  0  0  0  0
 16 15  2  0  0  0  0
 17 18  2  0  0  0  0
 17 16  1  0  0  0  0
 18 13  1  0  0  0  0
 21 16  1  0  0  0  0
 22 17  1  0  0  0  0
 23 26  2  0  0  0  0
 23 24  1  0  0  0  0
 23 18  1  0  0  0  0
 24  3  1  0  0  0  0
 25 23  2  0  0  0  0
 27 28  1  0  0  0  0
 27 30  1  0  0  0  0
 29 27  1  0  0  0  0
 31 32  1  0  0  0  0
 32 35  1  0  0  0  0
 32 33  1  0  0  0  0
 34 32  1  0  0  0  0
M  END
