Coordinates from ORCA-job 4-MeO-Ph-N2-OTs-B3LYPG-6-31G_dp-MTMO-d009-169-n800
 OpenBabel09051908173D

 35 36  0  0  1  0  0  0  0  0999 V2000
    3.8823   -2.9166   -0.6214 C   0  0  0  0  0  0  0  0  0  0  0  0
    3.0502   -1.9559   -0.1583 C   0  0  0  0  0  0  0  0  0  0  0  0
    1.8412   -2.3066    0.5669 C   0  0  0  0  0  0  0  0  0  0  0  0
    1.3556   -3.7435    0.5560 C   0  0  2  0  0  0  0  0  0  0  0  0
    2.4380   -4.7009    0.2447 C   0  0  0  0  0  0  0  0  0  0  0  0
    3.5900   -4.3177   -0.3612 C   0  0  0  0  0  0  0  0  0  0  0  0
    4.7733   -2.6343   -1.1663 H   0  0  0  0  0  0  0  0  0  0  0  0
    3.2648   -0.9022   -0.3091 H   0  0  0  0  0  0  0  0  0  0  0  0
    0.8347   -3.9739    1.4864 H   0  0  0  0  0  0  0  0  0  0  0  0
    2.2647   -5.7520    0.4458 H   0  0  0  0  0  0  0  0  0  0  0  0
    1.1901   -1.4826    1.1058 N   0  0  0  0  0  0  0  0  0  0  0  0
    0.5520   -0.6876    1.6336 N   0  0  0  0  0  0  0  0  0  0  0  0
   -1.7567   -6.3896    1.0087 C   0  0  0  0  0  0  0  0  0  0  0  0
   -2.0279   -7.7568    0.9517 C   0  0  0  0  0  0  0  0  0  0  0  0
   -2.1849   -8.4146   -0.2751 C   0  0  0  0  0  0  0  0  0  0  0  0
   -2.0643   -7.6651   -1.4565 C   0  0  0  0  0  0  0  0  0  0  0  0
   -1.7965   -6.3003   -1.4205 C   0  0  0  0  0  0  0  0  0  0  0  0
   -1.6391   -5.6729   -0.1818 C   0  0  0  0  0  0  0  0  0  0  0  0
   -1.6509   -5.8777    1.9588 H   0  0  0  0  0  0  0  0  0  0  0  0
   -2.1235   -8.3193    1.8767 H   0  0  0  0  0  0  0  0  0  0  0  0
   -2.1864   -8.1584   -2.4173 H   0  0  0  0  0  0  0  0  0  0  0  0
   -1.7193   -5.7225   -2.3352 H   0  0  0  0  0  0  0  0  0  0  0  0
   -1.2813   -3.9233   -0.1282 S   0  0  0  0  0  0  0  0  0  0  0  0
   -1.4262   -3.4649    1.2581 O   0  0  0  0  0  0  0  0  0  0  0  0
   -1.9898   -3.2690   -1.2214 O   0  0  0  0  0  0  0  0  0  0  0  0
    0.3003   -3.8679   -0.5353 O   0  0  0  0  0  0  0  0  0  0  0  0
   -2.5071   -9.8884   -0.3301 C   0  0  0  0  0  0  0  0  0  0  0  0
   -1.9878  -10.3802   -1.1580 H   0  0  0  0  0  0  0  0  0  0  0  0
   -2.2267  -10.3948    0.5975 H   0  0  0  0  0  0  0  0  0  0  0  0
   -3.5818  -10.0485   -0.4806 H   0  0  0  0  0  0  0  0  0  0  0  0
    4.4726   -5.3038   -0.6937 O   0  0  0  0  0  0  0  0  0  0  0  0
    5.7807   -4.9599   -1.1308 C   0  0  0  0  0  0  0  0  0  0  0  0
    6.3164   -5.9053   -1.2293 H   0  0  0  0  0  0  0  0  0  0  0  0
    5.7696   -4.4591   -2.1069 H   0  0  0  0  0  0  0  0  0  0  0  0
    6.3037   -4.3270   -0.4032 H   0  0  0  0  0  0  0  0  0  0  0  0
  1  6  2  0  0  0  0
  1  2  1  0  0  0  0
  2  3  2  0  0  0  0
  3 11  1  0  0  0  0
  4  3  1  0  0  0  0
  4  9  1  1  0  0  0
  5 10  1  0  0  0  0
  5  4  1  0  0  0  0
  6  5  1  0  0  0  0
  7  1  1  0  0  0  0
  8  2  1  0  0  0  0
 11 12  1  0  0  0  0
 13 19  1  0  0  0  0
 14 13  1  0  0  0  0
 14 20  1  0  0  0  0
 15 14  2  0  0  0  0
 16 17  2  0  0  0  0
 16 15  1  0  0  0  0
 17 18  1  0  0  0  0
 18 23  1  0  0  0  0
 18 13  2  0  0  0  0
 21 16  1  0  0  0  0
 22 17  1  0  0  0  0
 23 24  2  0  0  0  0
 25 23  2  0  0  0  0
 26 23  1  0  0  0  0
 26  4  1  0  0  0  0
 27 15  1  0  0  0  0
 27 29  1  0  0  0  0
 28 27  1  0  0  0  0
 30 27  1  0  0  0  0
 31  6  1  0  0  0  0
 32 31  1  0  0  0  0
 32 35  1  0  0  0  0
 33 32  1  0  0  0  0
 34 32  1  0  0  0  0
M  RAD  3   5   2  11   2  12   3
M  END
