Coordinates from ORCA-job 4-MeO-Ph-N2-OTs-B3LYPG-6-31G_dp-MTMO-d009-169-n800
 OpenBabel09051908173D

 35 35  0  0  0  0  0  0  0  0999 V2000
    3.0970   -3.9958    0.8258 C   0  0  0  0  0  0  0  0  0  0  0  0
    1.9399   -3.8612    0.0534 C   0  0  0  0  0  0  0  0  0  0  0  0
    1.9765   -4.1380   -1.3088 C   0  0  0  0  0  0  0  0  0  0  0  0
    3.1620   -4.5553   -1.9222 C   0  0  0  0  0  0  0  0  0  0  0  0
    4.3095   -4.7001   -1.1544 C   0  0  0  0  0  0  0  0  0  0  0  0
    4.2870   -4.4203    0.2218 C   0  0  0  0  0  0  0  0  0  0  0  0
    3.0561   -3.7652    1.8834 H   0  0  0  0  0  0  0  0  0  0  0  0
    1.0109   -3.5277    0.5031 H   0  0  0  0  0  0  0  0  0  0  0  0
    3.1702   -4.7679   -2.9843 H   0  0  0  0  0  0  0  0  0  0  0  0
    5.2437   -5.0236   -1.6008 H   0  0  0  0  0  0  0  0  0  0  0  0
   -4.3955   -3.8651   -3.8010 N   0  0  0  0  0  0  0  0  0  0  0  0
   -4.3268   -3.6771   -4.8877 N   0  0  0  0  0  0  0  0  0  0  0  0
   -0.2537   -6.8909   -0.5357 C   0  0  0  0  0  0  0  0  0  0  0  0
   -0.9106   -7.4021    0.5821 C   0  0  0  0  0  0  0  0  0  0  0  0
   -2.1593   -6.9050    0.9814 C   0  0  0  0  0  0  0  0  0  0  0  0
   -2.7466   -5.8801    0.2231 C   0  0  0  0  0  0  0  0  0  0  0  0
   -2.1073   -5.3534   -0.8959 C   0  0  0  0  0  0  0  0  0  0  0  0
   -0.8602   -5.8656   -1.2635 C   0  0  0  0  0  0  0  0  0  0  0  0
    0.7020   -7.2893   -0.8549 H   0  0  0  0  0  0  0  0  0  0  0  0
   -0.4492   -8.2066    1.1484 H   0  0  0  0  0  0  0  0  0  0  0  0
   -3.7223   -5.4965    0.5074 H   0  0  0  0  0  0  0  0  0  0  0  0
   -2.5738   -4.5770   -1.4926 H   0  0  0  0  0  0  0  0  0  0  0  0
   -0.0329   -5.1949   -2.6927 S   0  0  0  0  0  0  0  0  0  0  0  0
    0.8196   -3.9028   -2.0642 O   0  0  0  0  0  0  0  0  0  0  0  0
   -1.0084   -4.5522   -3.5609 O   0  0  0  0  0  0  0  0  0  0  0  0
    0.9186   -6.1841   -3.1916 O   0  0  0  0  0  0  0  0  0  0  0  0
   -2.8518   -7.4483    2.2077 C   0  0  0  0  0  0  0  0  0  0  0  0
   -2.6341   -6.8279    3.0861 H   0  0  0  0  0  0  0  0  0  0  0  0
   -3.9387   -7.4612    2.0809 H   0  0  0  0  0  0  0  0  0  0  0  0
   -2.5217   -8.4651    2.4358 H   0  0  0  0  0  0  0  0  0  0  0  0
    5.4715   -4.5886    0.8772 O   0  0  0  0  0  0  0  0  0  0  0  0
    5.5150   -4.3135    2.2680 C   0  0  0  0  0  0  0  0  0  0  0  0
    6.5416   -4.5083    2.5819 H   0  0  0  0  0  0  0  0  0  0  0  0
    5.2650   -3.2663    2.4821 H   0  0  0  0  0  0  0  0  0  0  0  0
    4.8364   -4.9662    2.8319 H   0  0  0  0  0  0  0  0  0  0  0  0
  1  7  1  0  0  0  0
  2  8  1  0  0  0  0
  2  1  2  0  0  0  0
  3  2  1  0  0  0  0
  4  3  2  0  0  0  0
  4  5  1  0  0  0  0
  5  6  2  0  0  0  0
  6  1  1  0  0  0  0
  6 31  1  0  0  0  0
  9  4  1  0  0  0  0
 10  5  1  0  0  0  0
 12 11  3  0  0  0  0
 13 14  2  0  0  0  0
 14 15  1  0  0  0  0
 14 20  1  0  0  0  0
 15 27  1  0  0  0  0
 16 21  1  0  0  0  0
 16 15  2  0  0  0  0
 17 16  1  0  0  0  0
 18 17  2  0  0  0  0
 18 13  1  0  0  0  0
 19 13  1  0  0  0  0
 22 17  1  0  0  0  0
 23 24  1  0  0  0  0
 23 18  1  0  0  0  0
 24  3  1  0  0  0  0
 25 23  2  0  0  0  0
 26 23  2  0  0  0  0
 27 30  1  0  0  0  0
 27 28  1  0  0  0  0
 29 27  1  0  0  0  0
 31 32  1  0  0  0  0
 32 34  1  0  0  0  0
 32 33  1  0  0  0  0
 32 35  1  0  0  0  0
M  END
