Coordinates from ORCA-job 4-MeO-Ph-N2-OTs-B3LYPG-6-31G_dp-MTMO-d009-169-n800
 OpenBabel09051908173D

 35 35  0  0  0  0  0  0  0  0999 V2000
    3.1291   -3.9205    0.7094 C   0  0  0  0  0  0  0  0  0  0  0  0
    2.1482   -3.9110   -0.2862 C   0  0  0  0  0  0  0  0  0  0  0  0
    2.4316   -4.4242   -1.5470 C   0  0  0  0  0  0  0  0  0  0  0  0
    3.6919   -4.9568   -1.8353 C   0  0  0  0  0  0  0  0  0  0  0  0
    4.6643   -4.9762   -0.8450 C   0  0  0  0  0  0  0  0  0  0  0  0
    4.3920   -4.4578    0.4317 C   0  0  0  0  0  0  0  0  0  0  0  0
    2.8970   -3.5094    1.6841 H   0  0  0  0  0  0  0  0  0  0  0  0
    1.1664   -3.4938   -0.0905 H   0  0  0  0  0  0  0  0  0  0  0  0
    3.8927   -5.3532   -2.8231 H   0  0  0  0  0  0  0  0  0  0  0  0
    5.6509   -5.3837   -1.0376 H   0  0  0  0  0  0  0  0  0  0  0  0
   -6.2692   -4.3488   -0.3011 N   0  0  0  0  0  0  0  0  0  0  0  0
   -7.2647   -3.8972   -0.4626 N   0  0  0  0  0  0  0  0  0  0  0  0
   -0.0825   -6.9852   -0.7563 C   0  0  0  0  0  0  0  0  0  0  0  0
   -0.9653   -7.2558    0.2877 C   0  0  0  0  0  0  0  0  0  0  0  0
   -2.2053   -6.6069    0.3774 C   0  0  0  0  0  0  0  0  0  0  0  0
   -2.5497   -5.6767   -0.6156 C   0  0  0  0  0  0  0  0  0  0  0  0
   -1.6816   -5.3917   -1.6669 C   0  0  0  0  0  0  0  0  0  0  0  0
   -0.4512   -6.0504   -1.7257 C   0  0  0  0  0  0  0  0  0  0  0  0
    0.8673   -7.5012   -0.8359 H   0  0  0  0  0  0  0  0  0  0  0  0
   -0.6898   -7.9899    1.0405 H   0  0  0  0  0  0  0  0  0  0  0  0
   -3.5142   -5.1792   -0.5696 H   0  0  0  0  0  0  0  0  0  0  0  0
   -1.9555   -4.6871   -2.4447 H   0  0  0  0  0  0  0  0  0  0  0  0
    0.6626   -5.6902   -3.0702 S   0  0  0  0  0  0  0  0  0  0  0  0
    1.4543   -4.3158   -2.5444 O   0  0  0  0  0  0  0  0  0  0  0  0
   -0.0973   -5.2103   -4.2147 O   0  0  0  0  0  0  0  0  0  0  0  0
    1.6322   -6.7769   -3.1803 O   0  0  0  0  0  0  0  0  0  0  0  0
   -3.1436   -6.8910    1.5253 C   0  0  0  0  0  0  0  0  0  0  0  0
   -2.9132   -6.2509    2.3859 H   0  0  0  0  0  0  0  0  0  0  0  0
   -4.1841   -6.7008    1.2474 H   0  0  0  0  0  0  0  0  0  0  0  0
   -3.0620   -7.9287    1.8616 H   0  0  0  0  0  0  0  0  0  0  0  0
    5.4210   -4.5218    1.3251 O   0  0  0  0  0  0  0  0  0  0  0  0
    5.2143   -3.9984    2.6274 C   0  0  0  0  0  0  0  0  0  0  0  0
    6.1520   -4.1492    3.1650 H   0  0  0  0  0  0  0  0  0  0  0  0
    4.9823   -2.9259    2.6010 H   0  0  0  0  0  0  0  0  0  0  0  0
    4.4087   -4.5264    3.1538 H   0  0  0  0  0  0  0  0  0  0  0  0
  1  7  1  0  0  0  0
  2  8  1  0  0  0  0
  2  1  2  0  0  0  0
  3  2  1  0  0  0  0
  4  3  2  0  0  0  0
  4  5  1  0  0  0  0
  5  6  2  0  0  0  0
  6  1  1  0  0  0  0
  6 31  1  0  0  0  0
  9  4  1  0  0  0  0
 10  5  1  0  0  0  0
 12 11  3  0  0  0  0
 13 14  2  0  0  0  0
 14 15  1  0  0  0  0
 14 20  1  0  0  0  0
 15 27  1  0  0  0  0
 16 21  1  0  0  0  0
 16 15  2  0  0  0  0
 17 16  1  0  0  0  0
 18 17  2  0  0  0  0
 18 13  1  0  0  0  0
 19 13  1  0  0  0  0
 22 17  1  0  0  0  0
 23 24  1  0  0  0  0
 23 18  1  0  0  0  0
 24  3  1  0  0  0  0
 25 23  2  0  0  0  0
 26 23  2  0  0  0  0
 27 30  1  0  0  0  0
 27 28  1  0  0  0  0
 29 27  1  0  0  0  0
 31 32  1  0  0  0  0
 32 35  1  0  0  0  0
 32 33  1  0  0  0  0
 34 32  1  0  0  0  0
M  END
