Coordinates from ORCA-job 4-MeO-Ph-N2-OTs-B3LYPG-6-31G_dp-MTMO-d009-169-n800
 OpenBabel09051908173D

 35 35  0  0  0  0  0  0  0  0999 V2000
    2.6683   -3.8133    0.4793 C   0  0  0  0  0  0  0  0  0  0  0  0
    1.5448   -3.9284   -0.3442 C   0  0  0  0  0  0  0  0  0  0  0  0
    1.6788   -4.4236   -1.6367 C   0  0  0  0  0  0  0  0  0  0  0  0
    2.9281   -4.8165   -2.1271 C   0  0  0  0  0  0  0  0  0  0  0  0
    4.0431   -4.7128   -1.3068 C   0  0  0  0  0  0  0  0  0  0  0  0
    3.9228   -4.2091   -0.0012 C   0  0  0  0  0  0  0  0  0  0  0  0
    2.5515   -3.4168    1.4801 H   0  0  0  0  0  0  0  0  0  0  0  0
    0.5669   -3.6195    0.0083 H   0  0  0  0  0  0  0  0  0  0  0  0
    3.0099   -5.2017   -3.1360 H   0  0  0  0  0  0  0  0  0  0  0  0
    5.0254   -5.0100   -1.6579 H   0  0  0  0  0  0  0  0  0  0  0  0
   -1.1633   -1.9293   -1.7655 N   0  0  0  0  0  0  0  0  0  0  0  0
   -0.9891   -1.3318   -2.6786 N   0  0  0  0  0  0  0  0  0  0  0  0
   -0.3120   -7.3438   -0.5281 C   0  0  0  0  0  0  0  0  0  0  0  0
   -0.9353   -7.7260    0.6593 C   0  0  0  0  0  0  0  0  0  0  0  0
   -2.1654   -7.1761    1.0432 C   0  0  0  0  0  0  0  0  0  0  0  0
   -2.7702   -6.2300    0.1993 C   0  0  0  0  0  0  0  0  0  0  0  0
   -2.1665   -5.8362   -0.9905 C   0  0  0  0  0  0  0  0  0  0  0  0
   -0.9361   -6.3988   -1.3423 C   0  0  0  0  0  0  0  0  0  0  0  0
    0.6327   -7.7788   -0.8324 H   0  0  0  0  0  0  0  0  0  0  0  0
   -0.4593   -8.4681    1.2946 H   0  0  0  0  0  0  0  0  0  0  0  0
   -3.7309   -5.8044    0.4754 H   0  0  0  0  0  0  0  0  0  0  0  0
   -2.6430   -5.1178   -1.6490 H   0  0  0  0  0  0  0  0  0  0  0  0
   -0.1574   -5.8986   -2.8665 S   0  0  0  0  0  0  0  0  0  0  0  0
    0.5493   -4.4392   -2.4652 O   0  0  0  0  0  0  0  0  0  0  0  0
   -1.1757   -5.5087   -3.8301 O   0  0  0  0  0  0  0  0  0  0  0  0
    0.8946   -6.8574   -3.1921 O   0  0  0  0  0  0  0  0  0  0  0  0
   -2.8243   -7.5764    2.3405 C   0  0  0  0  0  0  0  0  0  0  0  0
   -2.6758   -6.8068    3.1086 H   0  0  0  0  0  0  0  0  0  0  0  0
   -3.9043   -7.7050    2.2165 H   0  0  0  0  0  0  0  0  0  0  0  0
   -2.4120   -8.5114    2.7275 H   0  0  0  0  0  0  0  0  0  0  0  0
    5.0831   -4.1426    0.7134 O   0  0  0  0  0  0  0  0  0  0  0  0
    5.0314   -3.6252    2.0335 C   0  0  0  0  0  0  0  0  0  0  0  0
    6.0555   -3.6545    2.4088 H   0  0  0  0  0  0  0  0  0  0  0  0
    4.6720   -2.5883    2.0484 H   0  0  0  0  0  0  0  0  0  0  0  0
    4.3923   -4.2362    2.6840 H   0  0  0  0  0  0  0  0  0  0  0  0
  1  7  1  0  0  0  0
  2  8  1  0  0  0  0
  2  1  2  0  0  0  0
  3  2  1  0  0  0  0
  4  3  2  0  0  0  0
  4  5  1  0  0  0  0
  5  6  2  0  0  0  0
  6  1  1  0  0  0  0
  6 31  1  0  0  0  0
  9  4  1  0  0  0  0
 10  5  1  0  0  0  0
 12 11  3  0  0  0  0
 13 14  2  0  0  0  0
 14 15  1  0  0  0  0
 14 20  1  0  0  0  0
 15 27  1  0  0  0  0
 16 21  1  0  0  0  0
 16 15  2  0  0  0  0
 17 16  1  0  0  0  0
 18 17  2  0  0  0  0
 18 13  1  0  0  0  0
 19 13  1  0  0  0  0
 22 17  1  0  0  0  0
 23 24  1  0  0  0  0
 23 18  1  0  0  0  0
 24  3  1  0  0  0  0
 25 23  2  0  0  0  0
 26 23  2  0  0  0  0
 27 30  1  0  0  0  0
 27 28  1  0  0  0  0
 29 27  1  0  0  0  0
 31 32  1  0  0  0  0
 32 34  1  0  0  0  0
 32 33  1  0  0  0  0
 32 35  1  0  0  0  0
M  END
