Coordinates from ORCA-job 4-MeO-Ph-N2-OTs-B3LYPG-6-31G_dp-MTMO-d009-169-n800
 OpenBabel09051908173D

 35 35  0  0  0  0  0  0  0  0999 V2000
    3.0920   -3.9939    0.8220 C   0  0  0  0  0  0  0  0  0  0  0  0
    1.9356   -3.8601    0.0485 C   0  0  0  0  0  0  0  0  0  0  0  0
    1.9733   -4.1384   -1.3134 C   0  0  0  0  0  0  0  0  0  0  0  0
    3.1592   -4.5564   -1.9254 C   0  0  0  0  0  0  0  0  0  0  0  0
    4.3061   -4.7004   -1.1565 C   0  0  0  0  0  0  0  0  0  0  0  0
    4.2825   -4.4191    0.2194 C   0  0  0  0  0  0  0  0  0  0  0  0
    3.0503   -3.7623    1.8793 H   0  0  0  0  0  0  0  0  0  0  0  0
    1.0062   -3.5260    0.4971 H   0  0  0  0  0  0  0  0  0  0  0  0
    3.1682   -4.7701   -2.9872 H   0  0  0  0  0  0  0  0  0  0  0  0
    5.2406   -5.0244   -1.6018 H   0  0  0  0  0  0  0  0  0  0  0  0
   -4.3351   -3.8726   -3.7486 N   0  0  0  0  0  0  0  0  0  0  0  0
   -4.2788   -3.6852   -4.8360 N   0  0  0  0  0  0  0  0  0  0  0  0
   -0.2564   -6.8925   -0.5394 C   0  0  0  0  0  0  0  0  0  0  0  0
   -0.9135   -7.4031    0.5785 C   0  0  0  0  0  0  0  0  0  0  0  0
   -2.1615   -6.9047    0.9783 C   0  0  0  0  0  0  0  0  0  0  0  0
   -2.7479   -5.8789    0.2206 C   0  0  0  0  0  0  0  0  0  0  0  0
   -2.1085   -5.3527   -0.8986 C   0  0  0  0  0  0  0  0  0  0  0  0
   -0.8622   -5.8664   -1.2667 C   0  0  0  0  0  0  0  0  0  0  0  0
    0.6986   -7.2920   -0.8592 H   0  0  0  0  0  0  0  0  0  0  0  0
   -0.4528   -8.2083    1.1445 H   0  0  0  0  0  0  0  0  0  0  0  0
   -3.7231   -5.4942    0.5053 H   0  0  0  0  0  0  0  0  0  0  0  0
   -2.5740   -4.5756   -1.4951 H   0  0  0  0  0  0  0  0  0  0  0  0
   -0.0352   -5.1970   -2.6967 S   0  0  0  0  0  0  0  0  0  0  0  0
    0.8171   -3.9039   -2.0699 O   0  0  0  0  0  0  0  0  0  0  0  0
   -1.0109   -4.5551   -3.5655 O   0  0  0  0  0  0  0  0  0  0  0  0
    0.9164   -6.1865   -3.1950 O   0  0  0  0  0  0  0  0  0  0  0  0
   -2.8541   -7.4474    2.2048 C   0  0  0  0  0  0  0  0  0  0  0  0
   -2.6337   -6.8287    3.0837 H   0  0  0  0  0  0  0  0  0  0  0  0
   -3.9412   -7.4572    2.0793 H   0  0  0  0  0  0  0  0  0  0  0  0
   -2.5266   -8.4654    2.4314 H   0  0  0  0  0  0  0  0  0  0  0  0
    5.4664   -4.5868    0.8759 O   0  0  0  0  0  0  0  0  0  0  0  0
    5.5089   -4.3098    2.2664 C   0  0  0  0  0  0  0  0  0  0  0  0
    6.5353   -4.5040    2.5812 H   0  0  0  0  0  0  0  0  0  0  0  0
    5.2586   -3.2623    2.4789 H   0  0  0  0  0  0  0  0  0  0  0  0
    4.8300   -4.9618    2.8307 H   0  0  0  0  0  0  0  0  0  0  0  0
  1  7  1  0  0  0  0
  2  8  1  0  0  0  0
  2  1  2  0  0  0  0
  3  2  1  0  0  0  0
  4  3  2  0  0  0  0
  4  5  1  0  0  0  0
  5  6  2  0  0  0  0
  6  1  1  0  0  0  0
  6 31  1  0  0  0  0
  9  4  1  0  0  0  0
 10  5  1  0  0  0  0
 12 11  3  0  0  0  0
 13 14  2  0  0  0  0
 14 15  1  0  0  0  0
 14 20  1  0  0  0  0
 15 27  1  0  0  0  0
 16 21  1  0  0  0  0
 16 15  2  0  0  0  0
 17 16  1  0  0  0  0
 18 17  2  0  0  0  0
 18 13  1  0  0  0  0
 19 13  1  0  0  0  0
 22 17  1  0  0  0  0
 23 24  1  0  0  0  0
 23 18  1  0  0  0  0
 24  3  1  0  0  0  0
 25 23  2  0  0  0  0
 26 23  2  0  0  0  0
 27 30  1  0  0  0  0
 27 28  1  0  0  0  0
 29 27  1  0  0  0  0
 31 32  1  0  0  0  0
 32 34  1  0  0  0  0
 32 33  1  0  0  0  0
 32 35  1  0  0  0  0
M  END
