Coordinates from ORCA-job 4-MeO-Ph-N2-OTs-B3LYPG-6-31G_dp-MTMO-d009-169-n800
 OpenBabel09051908173D

 35 35  0  0  0  0  0  0  0  0999 V2000
    3.4584   -4.0441    0.6938 C   0  0  0  0  0  0  0  0  0  0  0  0
    2.5306   -3.9131   -0.3434 C   0  0  0  0  0  0  0  0  0  0  0  0
    2.7817   -4.4989   -1.5792 C   0  0  0  0  0  0  0  0  0  0  0  0
    3.9555   -5.2258   -1.8007 C   0  0  0  0  0  0  0  0  0  0  0  0
    4.8742   -5.3640   -0.7695 C   0  0  0  0  0  0  0  0  0  0  0  0
    4.6343   -4.7744    0.4826 C   0  0  0  0  0  0  0  0  0  0  0  0
    3.2537   -3.5751    1.6484 H   0  0  0  0  0  0  0  0  0  0  0  0
    1.6170   -3.3462   -0.1991 H   0  0  0  0  0  0  0  0  0  0  0  0
    4.1314   -5.6761   -2.7699 H   0  0  0  0  0  0  0  0  0  0  0  0
    5.7946   -5.9203   -0.9108 H   0  0  0  0  0  0  0  0  0  0  0  0
   -8.4106   -7.8067    1.0064 N   0  0  0  0  0  0  0  0  0  0  0  0
   -9.4393   -8.2015    0.9202 N   0  0  0  0  0  0  0  0  0  0  0  0
   -0.2015   -6.5251   -0.8143 C   0  0  0  0  0  0  0  0  0  0  0  0
   -1.1719   -6.5724    0.1859 C   0  0  0  0  0  0  0  0  0  0  0  0
   -2.2813   -5.7165    0.1625 C   0  0  0  0  0  0  0  0  0  0  0  0
   -2.3984   -4.7996   -0.8944 C   0  0  0  0  0  0  0  0  0  0  0  0
   -1.4414   -4.7356   -1.9025 C   0  0  0  0  0  0  0  0  0  0  0  0
   -0.3470   -5.6032   -1.8512 C   0  0  0  0  0  0  0  0  0  0  0  0
    0.6487   -7.1979   -0.8036 H   0  0  0  0  0  0  0  0  0  0  0  0
   -1.0663   -7.2900    0.9955 H   0  0  0  0  0  0  0  0  0  0  0  0
   -3.2550   -4.1313   -0.9300 H   0  0  0  0  0  0  0  0  0  0  0  0
   -1.5405   -4.0376   -2.7271 H   0  0  0  0  0  0  0  0  0  0  0  0
    0.8876   -5.5183   -3.1351 S   0  0  0  0  0  0  0  0  0  0  0  0
    1.8748   -4.2717   -2.6223 O   0  0  0  0  0  0  0  0  0  0  0  0
    0.2878   -4.9822   -4.3477 O   0  0  0  0  0  0  0  0  0  0  0  0
    1.6573   -6.7593   -3.1298 O   0  0  0  0  0  0  0  0  0  0  0  0
   -3.3455   -5.7961    1.2301 C   0  0  0  0  0  0  0  0  0  0  0  0
   -3.7211   -4.8034    1.4953 H   0  0  0  0  0  0  0  0  0  0  0  0
   -4.2035   -6.3846    0.8827 H   0  0  0  0  0  0  0  0  0  0  0  0
   -2.9678   -6.2721    2.1388 H   0  0  0  0  0  0  0  0  0  0  0  0
    5.6061   -4.9679    1.4202 O   0  0  0  0  0  0  0  0  0  0  0  0
    5.4274   -4.3899    2.7033 C   0  0  0  0  0  0  0  0  0  0  0  0
    6.3113   -4.6626    3.2824 H   0  0  0  0  0  0  0  0  0  0  0  0
    5.3549   -3.2959    2.6488 H   0  0  0  0  0  0  0  0  0  0  0  0
    4.5335   -4.7836    3.2045 H   0  0  0  0  0  0  0  0  0  0  0  0
  1  7  1  0  0  0  0
  2  8  1  0  0  0  0
  2  1  2  0  0  0  0
  3  2  1  0  0  0  0
  4  3  2  0  0  0  0
  4  5  1  0  0  0  0
  5  6  2  0  0  0  0
  6  1  1  0  0  0  0
  6 31  1  0  0  0  0
  9  4  1  0  0  0  0
 10  5  1  0  0  0  0
 12 11  3  0  0  0  0
 13 19  1  0  0  0  0
 13 14  2  0  0  0  0
 14 20  1  0  0  0  0
 15 14  1  0  0  0  0
 15 27  1  0  0  0  0
 16 15  2  0  0  0  0
 17 18  2  0  0  0  0
 17 16  1  0  0  0  0
 18 13  1  0  0  0  0
 21 16  1  0  0  0  0
 22 17  1  0  0  0  0
 23 26  2  0  0  0  0
 23 24  1  0  0  0  0
 23 18  1  0  0  0  0
 24  3  1  0  0  0  0
 25 23  2  0  0  0  0
 27 28  1  0  0  0  0
 27 30  1  0  0  0  0
 29 27  1  0  0  0  0
 31 32  1  0  0  0  0
 32 35  1  0  0  0  0
 32 33  1  0  0  0  0
 34 32  1  0  0  0  0
M  END
