Coordinates from ORCA-job 4-MeO-Ph-N2-OTs-B3LYPG-6-31G_dp-MTMO-d009-169-n800
 OpenBabel09051908173D

 35 35  0  0  0  0  0  0  0  0999 V2000
    2.9863   -3.9459    0.7447 C   0  0  0  0  0  0  0  0  0  0  0  0
    1.8412   -3.8841   -0.0543 C   0  0  0  0  0  0  0  0  0  0  0  0
    1.9111   -4.2325   -1.3986 C   0  0  0  0  0  0  0  0  0  0  0  0
    3.1182   -4.6510   -1.9673 C   0  0  0  0  0  0  0  0  0  0  0  0
    4.2542   -4.7234   -1.1726 C   0  0  0  0  0  0  0  0  0  0  0  0
    4.1983   -4.3702    0.1857 C   0  0  0  0  0  0  0  0  0  0  0  0
    2.9192   -3.6604    1.7872 H   0  0  0  0  0  0  0  0  0  0  0  0
    0.8955   -3.5523    0.3603 H   0  0  0  0  0  0  0  0  0  0  0  0
    3.1518   -4.9203   -3.0158 H   0  0  0  0  0  0  0  0  0  0  0  0
    5.2047   -5.0456   -1.5841 H   0  0  0  0  0  0  0  0  0  0  0  0
   -3.7895   -3.1744   -3.4392 N   0  0  0  0  0  0  0  0  0  0  0  0
   -3.7084   -2.7928   -4.4729 N   0  0  0  0  0  0  0  0  0  0  0  0
   -0.2625   -7.0567   -0.5468 C   0  0  0  0  0  0  0  0  0  0  0  0
   -0.9087   -7.5278    0.5948 C   0  0  0  0  0  0  0  0  0  0  0  0
   -2.1369   -6.9924    1.0069 C   0  0  0  0  0  0  0  0  0  0  0  0
   -2.7146   -5.9700    0.2376 C   0  0  0  0  0  0  0  0  0  0  0  0
   -2.0872   -5.4842   -0.9061 C   0  0  0  0  0  0  0  0  0  0  0  0
   -0.8600   -6.0349   -1.2862 C   0  0  0  0  0  0  0  0  0  0  0  0
    0.6784   -7.4819   -0.8752 H   0  0  0  0  0  0  0  0  0  0  0  0
   -0.4544   -8.3298    1.1704 H   0  0  0  0  0  0  0  0  0  0  0  0
   -3.6743   -5.5559    0.5337 H   0  0  0  0  0  0  0  0  0  0  0  0
   -2.5467   -4.7074   -1.5078 H   0  0  0  0  0  0  0  0  0  0  0  0
   -0.0451   -5.4191   -2.7473 S   0  0  0  0  0  0  0  0  0  0  0  0
    0.7640   -4.0700   -2.1866 O   0  0  0  0  0  0  0  0  0  0  0  0
   -1.0322   -4.8517   -3.6543 O   0  0  0  0  0  0  0  0  0  0  0  0
    0.9367   -6.4060   -3.1882 O   0  0  0  0  0  0  0  0  0  0  0  0
   -2.8177   -7.4910    2.2584 C   0  0  0  0  0  0  0  0  0  0  0  0
   -2.5806   -6.8476    3.1148 H   0  0  0  0  0  0  0  0  0  0  0  0
   -3.9065   -7.4947    2.1472 H   0  0  0  0  0  0  0  0  0  0  0  0
   -2.4963   -8.5045    2.5117 H   0  0  0  0  0  0  0  0  0  0  0  0
    5.3744   -4.4706    0.8697 O   0  0  0  0  0  0  0  0  0  0  0  0
    5.3859   -4.1148    2.2428 C   0  0  0  0  0  0  0  0  0  0  0  0
    6.4120   -4.2613    2.5835 H   0  0  0  0  0  0  0  0  0  0  0  0
    5.1032   -3.0646    2.3917 H   0  0  0  0  0  0  0  0  0  0  0  0
    4.7163   -4.7534    2.8329 H   0  0  0  0  0  0  0  0  0  0  0  0
  1  7  1  0  0  0  0
  2  8  1  0  0  0  0
  2  1  2  0  0  0  0
  3  2  1  0  0  0  0
  4  3  2  0  0  0  0
  4  5  1  0  0  0  0
  5  6  2  0  0  0  0
  6  1  1  0  0  0  0
  6 31  1  0  0  0  0
  9  4  1  0  0  0  0
 10  5  1  0  0  0  0
 12 11  3  0  0  0  0
 13 14  2  0  0  0  0
 14 15  1  0  0  0  0
 14 20  1  0  0  0  0
 15 27  1  0  0  0  0
 16 21  1  0  0  0  0
 16 15  2  0  0  0  0
 17 16  1  0  0  0  0
 18 17  2  0  0  0  0
 18 13  1  0  0  0  0
 19 13  1  0  0  0  0
 22 17  1  0  0  0  0
 23 24  1  0  0  0  0
 23 18  1  0  0  0  0
 24  3  1  0  0  0  0
 25 23  2  0  0  0  0
 26 23  2  0  0  0  0
 27 30  1  0  0  0  0
 27 28  1  0  0  0  0
 29 27  1  0  0  0  0
 31 32  1  0  0  0  0
 32 34  1  0  0  0  0
 32 33  1  0  0  0  0
 32 35  1  0  0  0  0
M  END
