Coordinates from ORCA-job 4-MeO-Ph-N2-OTs-B3LYPG-6-31G_dp-MTMO-d009-169-n800
 OpenBabel09051908173D

 35 35  0  0  0  0  0  0  0  0999 V2000
    3.1478   -3.9255    0.7054 C   0  0  0  0  0  0  0  0  0  0  0  0
    2.1725   -3.9077   -0.2955 C   0  0  0  0  0  0  0  0  0  0  0  0
    2.4557   -4.4306   -1.5523 C   0  0  0  0  0  0  0  0  0  0  0  0
    3.7105   -4.9813   -1.8313 C   0  0  0  0  0  0  0  0  0  0  0  0
    4.6772   -5.0088   -0.8356 C   0  0  0  0  0  0  0  0  0  0  0  0
    4.4049   -4.4808    0.4371 C   0  0  0  0  0  0  0  0  0  0  0  0
    2.9159   -3.5067    1.6769 H   0  0  0  0  0  0  0  0  0  0  0  0
    1.1952   -3.4767   -0.1071 H   0  0  0  0  0  0  0  0  0  0  0  0
    3.9113   -5.3850   -2.8161 H   0  0  0  0  0  0  0  0  0  0  0  0
    5.6593   -5.4300   -1.0210 H   0  0  0  0  0  0  0  0  0  0  0  0
   -6.3543   -4.5652   -0.2283 N   0  0  0  0  0  0  0  0  0  0  0  0
   -7.3905   -4.2017   -0.3521 N   0  0  0  0  0  0  0  0  0  0  0  0
   -0.0911   -6.9549   -0.7603 C   0  0  0  0  0  0  0  0  0  0  0  0
   -0.9809   -7.2097    0.2817 C   0  0  0  0  0  0  0  0  0  0  0  0
   -2.2137   -6.5462    0.3630 C   0  0  0  0  0  0  0  0  0  0  0  0
   -2.5435   -5.6175   -0.6364 C   0  0  0  0  0  0  0  0  0  0  0  0
   -1.6682   -5.3481   -1.6859 C   0  0  0  0  0  0  0  0  0  0  0  0
   -0.4452   -6.0212   -1.7362 C   0  0  0  0  0  0  0  0  0  0  0  0
    0.8531   -7.4821   -0.8335 H   0  0  0  0  0  0  0  0  0  0  0  0
   -0.7167   -7.9428    1.0394 H   0  0  0  0  0  0  0  0  0  0  0  0
   -3.5025   -5.1091   -0.5964 H   0  0  0  0  0  0  0  0  0  0  0  0
   -1.9311   -4.6446   -2.4686 H   0  0  0  0  0  0  0  0  0  0  0  0
    0.6782   -5.6812   -3.0781 S   0  0  0  0  0  0  0  0  0  0  0  0
    1.4852   -4.3144   -2.5555 O   0  0  0  0  0  0  0  0  0  0  0  0
   -0.0711   -5.1971   -4.2278 O   0  0  0  0  0  0  0  0  0  0  0  0
    1.6343   -6.7805   -3.1795 O   0  0  0  0  0  0  0  0  0  0  0  0
   -3.1600   -6.8132    1.5084 C   0  0  0  0  0  0  0  0  0  0  0  0
   -2.9263   -6.1705    2.3662 H   0  0  0  0  0  0  0  0  0  0  0  0
   -4.1970   -6.6130    1.2247 H   0  0  0  0  0  0  0  0  0  0  0  0
   -3.0912   -7.8497    1.8512 H   0  0  0  0  0  0  0  0  0  0  0  0
    5.4281   -4.5542    1.3365 O   0  0  0  0  0  0  0  0  0  0  0  0
    5.2210   -4.0231    2.6355 C   0  0  0  0  0  0  0  0  0  0  0  0
    6.1536   -4.1842    3.1791 H   0  0  0  0  0  0  0  0  0  0  0  0
    5.0033   -2.9477    2.6037 H   0  0  0  0  0  0  0  0  0  0  0  0
    4.4056   -4.5384    3.1594 H   0  0  0  0  0  0  0  0  0  0  0  0
  1  7  1  0  0  0  0
  2  8  1  0  0  0  0
  2  1  2  0  0  0  0
  3  2  1  0  0  0  0
  4  3  2  0  0  0  0
  4  5  1  0  0  0  0
  5  6  2  0  0  0  0
  6  1  1  0  0  0  0
  6 31  1  0  0  0  0
  9  4  1  0  0  0  0
 10  5  1  0  0  0  0
 12 11  3  0  0  0  0
 13 14  2  0  0  0  0
 14 15  1  0  0  0  0
 14 20  1  0  0  0  0
 15 27  1  0  0  0  0
 16 21  1  0  0  0  0
 16 15  2  0  0  0  0
 17 16  1  0  0  0  0
 18 17  2  0  0  0  0
 18 13  1  0  0  0  0
 19 13  1  0  0  0  0
 22 17  1  0  0  0  0
 23 24  1  0  0  0  0
 23 18  1  0  0  0  0
 24  3  1  0  0  0  0
 25 23  2  0  0  0  0
 26 23  2  0  0  0  0
 27 30  1  0  0  0  0
 27 28  1  0  0  0  0
 29 27  1  0  0  0  0
 31 32  1  0  0  0  0
 32 35  1  0  0  0  0
 32 33  1  0  0  0  0
 34 32  1  0  0  0  0
M  END
