Coordinates from ORCA-job 4-MeO-Ph-N2-OTs-B3LYPG-6-31G_dp-MTMO-d009-169-n800
 OpenBabel09051908173D

 35 36  0  0  1  0  0  0  0  0999 V2000
    3.7645   -3.0630   -0.7274 C   0  0  0  0  0  0  0  0  0  0  0  0
    3.0331   -1.9857   -0.3789 C   0  0  0  0  0  0  0  0  0  0  0  0
    1.8268   -2.1064    0.4600 C   0  0  0  0  0  0  0  0  0  0  0  0
    1.2461   -3.5272    0.6396 C   0  0  2  0  0  0  0  0  0  0  0  0
    2.2453   -4.5988    0.4286 C   0  0  0  0  0  0  0  0  0  0  0  0
    3.3930   -4.3922   -0.2590 C   0  0  0  0  0  0  0  0  0  0  0  0
    4.6422   -2.9301   -1.3473 H   0  0  0  0  0  0  0  0  0  0  0  0
    3.3077   -0.9834   -0.6936 H   0  0  0  0  0  0  0  0  0  0  0  0
    0.7567   -3.5866    1.6137 H   0  0  0  0  0  0  0  0  0  0  0  0
    2.0058   -5.5952    0.7828 H   0  0  0  0  0  0  0  0  0  0  0  0
    1.3328   -1.2886    0.8714 N   0  0  0  0  0  0  0  0  0  0  0  0
    0.7763   -0.3782    1.3341 N   0  0  0  0  0  0  0  0  0  0  0  0
   -1.6108   -6.4461    1.0473 C   0  0  0  0  0  0  0  0  0  0  0  0
   -1.7776   -7.8220    0.8889 C   0  0  0  0  0  0  0  0  0  0  0  0
   -1.9586   -8.3894   -0.3789 C   0  0  0  0  0  0  0  0  0  0  0  0
   -1.9709   -7.5399   -1.4971 C   0  0  0  0  0  0  0  0  0  0  0  0
   -1.8085   -6.1652   -1.3602 C   0  0  0  0  0  0  0  0  0  0  0  0
   -1.6242   -5.6294   -0.0829 C   0  0  0  0  0  0  0  0  0  0  0  0
   -1.4864   -6.0057    2.0305 H   0  0  0  0  0  0  0  0  0  0  0  0
   -1.7716   -8.4633    1.7662 H   0  0  0  0  0  0  0  0  0  0  0  0
   -2.1143   -7.9628   -2.4881 H   0  0  0  0  0  0  0  0  0  0  0  0
   -1.8338   -5.5111   -2.2249 H   0  0  0  0  0  0  0  0  0  0  0  0
   -1.4005   -3.8666    0.0998 S   0  0  0  0  0  0  0  0  0  0  0  0
   -1.5044   -3.5295    1.5222 O   0  0  0  0  0  0  0  0  0  0  0  0
   -2.2037   -3.1869   -0.9076 O   0  0  0  0  0  0  0  0  0  0  0  0
    0.1559   -3.6544   -0.3803 O   0  0  0  0  0  0  0  0  0  0  0  0
   -2.1653   -9.8757   -0.5427 C   0  0  0  0  0  0  0  0  0  0  0  0
   -1.6129  -10.2630   -1.4045 H   0  0  0  0  0  0  0  0  0  0  0  0
   -1.8412  -10.4260    0.3447 H   0  0  0  0  0  0  0  0  0  0  0  0
   -3.2245  -10.1078   -0.7068 H   0  0  0  0  0  0  0  0  0  0  0  0
    4.1932   -5.4742   -0.4810 O   0  0  0  0  0  0  0  0  0  0  0  0
    5.5041   -5.2878   -0.9995 C   0  0  0  0  0  0  0  0  0  0  0  0
    5.9684   -6.2752   -0.9875 H   0  0  0  0  0  0  0  0  0  0  0  0
    5.4886   -4.9195   -2.0326 H   0  0  0  0  0  0  0  0  0  0  0  0
    6.0981   -4.6063   -0.3785 H   0  0  0  0  0  0  0  0  0  0  0  0
  1  2  1  0  0  0  0
  1  6  2  0  0  0  0
  2  3  2  0  0  0  0
  3  4  1  0  0  0  0
  3 11  1  0  0  0  0
  4  9  1  1  0  0  0
  5  4  1  0  0  0  0
  5 10  1  0  0  0  0
  6  5  1  0  0  0  0
  7  1  1  0  0  0  0
  8  2  1  0  0  0  0
 11 12  1  0  0  0  0
 13 19  1  0  0  0  0
 14 13  1  0  0  0  0
 14 20  1  0  0  0  0
 15 14  2  0  0  0  0
 16 17  2  0  0  0  0
 16 15  1  0  0  0  0
 17 18  1  0  0  0  0
 18 23  1  0  0  0  0
 18 13  2  0  0  0  0
 21 16  1  0  0  0  0
 22 17  1  0  0  0  0
 23 24  2  0  0  0  0
 25 23  2  0  0  0  0
 26 23  1  0  0  0  0
 26  4  1  0  0  0  0
 27 15  1  0  0  0  0
 27 29  1  0  0  0  0
 28 27  1  0  0  0  0
 30 27  1  0  0  0  0
 31  6  1  0  0  0  0
 32 33  1  0  0  0  0
 32 31  1  0  0  0  0
 32 35  1  0  0  0  0
 34 32  1  0  0  0  0
M  RAD  3   5   2  11   2  12   3
M  END
