Coordinates from ORCA-job 4-MeO-Ph-N2-OTs-B3LYPG-6-31G_dp-MTMO-d009-169-n800
 OpenBabel09051908173D

 35 34  0  0  0  0  0  0  0  0999 V2000
    3.9340   -2.7512    0.4334 C   0  0  0  0  0  0  0  0  0  0  0  0
    2.8785   -2.0054   -0.1371 C   0  0  0  0  0  0  0  0  0  0  0  0
    2.1417   -2.8500   -0.9131 C   0  0  0  0  0  0  0  0  0  0  0  0
    2.1614   -4.0748   -1.2254 C   0  0  0  0  0  0  0  0  0  0  0  0
    3.2000   -4.8384   -0.6768 C   0  0  0  0  0  0  0  0  0  0  0  0
    4.0924   -4.1335    0.1692 C   0  0  0  0  0  0  0  0  0  0  0  0
    4.6292   -2.2326    1.0830 H   0  0  0  0  0  0  0  0  0  0  0  0
    2.7226   -0.9488    0.0378 H   0  0  0  0  0  0  0  0  0  0  0  0
    0.8802   -4.9563   -2.3248 H   0  0  0  0  0  0  0  0  0  0  0  0
    3.3548   -5.8980   -0.8526 H   0  0  0  0  0  0  0  0  0  0  0  0
    0.5123   -1.2387   -2.0135 N   0  0  0  0  0  0  0  0  0  0  0  0
   -0.0608   -1.0459   -2.9386 N   0  0  0  0  0  0  0  0  0  0  0  0
   -1.6378   -5.7952    0.0582 C   0  0  0  0  0  0  0  0  0  0  0  0
   -1.9968   -6.6470    1.1008 C   0  0  0  0  0  0  0  0  0  0  0  0
   -2.4413   -7.9531    0.8509 C   0  0  0  0  0  0  0  0  0  0  0  0
   -2.5277   -8.3863   -0.4804 C   0  0  0  0  0  0  0  0  0  0  0  0
   -2.1736   -7.5491   -1.5359 C   0  0  0  0  0  0  0  0  0  0  0  0
   -1.7259   -6.2572   -1.2557 C   0  0  0  0  0  0  0  0  0  0  0  0
   -1.3113   -4.7798    0.2521 H   0  0  0  0  0  0  0  0  0  0  0  0
   -1.9385   -6.2885    2.1253 H   0  0  0  0  0  0  0  0  0  0  0  0
   -2.8852   -9.3898   -0.6938 H   0  0  0  0  0  0  0  0  0  0  0  0
   -2.2594   -7.8789   -2.5656 H   0  0  0  0  0  0  0  0  0  0  0  0
   -1.2637   -5.1780   -2.6037 S   0  0  0  0  0  0  0  0  0  0  0  0
   -1.3234   -3.7950   -2.1237 O   0  0  0  0  0  0  0  0  0  0  0  0
   -1.9796   -5.6027   -3.7990 O   0  0  0  0  0  0  0  0  0  0  0  0
    0.2924   -5.5561   -2.8636 O   0  0  0  0  0  0  0  0  0  0  0  0
   -2.8027   -8.8768    1.9893 C   0  0  0  0  0  0  0  0  0  0  0  0
   -3.5598   -9.6066    1.6882 H   0  0  0  0  0  0  0  0  0  0  0  0
   -1.9250   -9.4396    2.3310 H   0  0  0  0  0  0  0  0  0  0  0  0
   -3.1871   -8.3212    2.8495 H   0  0  0  0  0  0  0  0  0  0  0  0
    5.0956   -4.8902    0.6959 O   0  0  0  0  0  0  0  0  0  0  0  0
    6.0410   -4.2752    1.5572 C   0  0  0  0  0  0  0  0  0  0  0  0
    6.7396   -5.0610    1.8476 H   0  0  0  0  0  0  0  0  0  0  0  0
    6.5913   -3.4741    1.0470 H   0  0  0  0  0  0  0  0  0  0  0  0
    5.5629   -3.8682    2.4577 H   0  0  0  0  0  0  0  0  0  0  0  0
  1  7  1  0  0  0  0
  2  8  1  0  0  0  0
  2  1  2  0  0  0  0
  3  2  1  0  0  0  0
  4  3  2  0  0  0  0
  4  5  1  0  0  0  0
  5  6  2  0  0  0  0
  6  1  1  0  0  0  0
  6 31  1  0  0  0  0
 10  5  1  0  0  0  0
 12 11  3  0  0  0  0
 13 19  1  0  0  0  0
 13 14  2  0  0  0  0
 14 20  1  0  0  0  0
 15 14  1  0  0  0  0
 15 27  1  0  0  0  0
 16 15  2  0  0  0  0
 17 18  2  0  0  0  0
 17 16  1  0  0  0  0
 18 13  1  0  0  0  0
 21 16  1  0  0  0  0
 22 17  1  0  0  0  0
 23 24  2  0  0  0  0
 23 18  1  0  0  0  0
 25 23  2  0  0  0  0
 26 23  1  0  0  0  0
 26  9  1  0  0  0  0
 27 29  1  0  0  0  0
 27 30  1  0  0  0  0
 28 27  1  0  0  0  0
 31 32  1  0  0  0  0
 32 33  1  0  0  0  0
 32 35  1  0  0  0  0
 34 32  1  0  0  0  0
M  RAD  2   3   2   4   2
M  END
