Coordinates from ORCA-job 4-MeO-Ph-N2-OTs-B3LYPG-6-31G_dp-MTMO-d009-169-n800
 OpenBabel09051908173D

 35 35  0  0  0  0  0  0  0  0999 V2000
    3.4673   -4.0425    0.6912 C   0  0  0  0  0  0  0  0  0  0  0  0
    2.5392   -3.9114   -0.3457 C   0  0  0  0  0  0  0  0  0  0  0  0
    2.7889   -4.4988   -1.5810 C   0  0  0  0  0  0  0  0  0  0  0  0
    3.9617   -5.2274   -1.8022 C   0  0  0  0  0  0  0  0  0  0  0  0
    4.8807   -5.3657   -0.7713 C   0  0  0  0  0  0  0  0  0  0  0  0
    4.6422   -4.7744    0.4802 C   0  0  0  0  0  0  0  0  0  0  0  0
    3.2637   -3.5721    1.6454 H   0  0  0  0  0  0  0  0  0  0  0  0
    1.6264   -3.3431   -0.2016 H   0  0  0  0  0  0  0  0  0  0  0  0
    4.1365   -5.6791   -2.7711 H   0  0  0  0  0  0  0  0  0  0  0  0
    5.8004   -5.9233   -0.9125 H   0  0  0  0  0  0  0  0  0  0  0  0
   -8.5358   -7.8625    1.0076 N   0  0  0  0  0  0  0  0  0  0  0  0
   -9.5644   -8.2562    0.9143 N   0  0  0  0  0  0  0  0  0  0  0  0
   -0.1958   -6.5210   -0.8124 C   0  0  0  0  0  0  0  0  0  0  0  0
   -1.1653   -6.5660    0.1888 C   0  0  0  0  0  0  0  0  0  0  0  0
   -2.2733   -5.7083    0.1659 C   0  0  0  0  0  0  0  0  0  0  0  0
   -2.3900   -4.7920   -0.8916 C   0  0  0  0  0  0  0  0  0  0  0  0
   -1.4338   -4.7303   -1.9007 C   0  0  0  0  0  0  0  0  0  0  0  0
   -0.3408   -5.5996   -1.8498 C   0  0  0  0  0  0  0  0  0  0  0  0
    0.6534   -7.1951   -0.8020 H   0  0  0  0  0  0  0  0  0  0  0  0
   -1.0601   -7.2832    0.9988 H   0  0  0  0  0  0  0  0  0  0  0  0
   -3.2455   -4.1223   -0.9268 H   0  0  0  0  0  0  0  0  0  0  0  0
   -1.5326   -4.0328   -2.7257 H   0  0  0  0  0  0  0  0  0  0  0  0
    0.8928   -5.5175   -3.1349 S   0  0  0  0  0  0  0  0  0  0  0  0
    1.8819   -4.2716   -2.6239 O   0  0  0  0  0  0  0  0  0  0  0  0
    0.2926   -4.9817   -4.3475 O   0  0  0  0  0  0  0  0  0  0  0  0
    1.6610   -6.7594   -3.1290 O   0  0  0  0  0  0  0  0  0  0  0  0
   -3.3366   -5.7856    1.2344 C   0  0  0  0  0  0  0  0  0  0  0  0
   -3.7129   -4.7925    1.4971 H   0  0  0  0  0  0  0  0  0  0  0  0
   -4.1943   -6.3759    0.8893 H   0  0  0  0  0  0  0  0  0  0  0  0
   -2.9579   -6.2587    2.1443 H   0  0  0  0  0  0  0  0  0  0  0  0
    5.6142   -4.9681    1.4176 O   0  0  0  0  0  0  0  0  0  0  0  0
    5.4368   -4.3885    2.7001 C   0  0  0  0  0  0  0  0  0  0  0  0
    6.3207   -4.6616    3.2791 H   0  0  0  0  0  0  0  0  0  0  0  0
    5.3656   -3.2945    2.6444 H   0  0  0  0  0  0  0  0  0  0  0  0
    4.5427   -4.7806    3.2022 H   0  0  0  0  0  0  0  0  0  0  0  0
  1  7  1  0  0  0  0
  2  8  1  0  0  0  0
  2  1  2  0  0  0  0
  3  2  1  0  0  0  0
  4  3  2  0  0  0  0
  4  5  1  0  0  0  0
  5  6  2  0  0  0  0
  6  1  1  0  0  0  0
  6 31  1  0  0  0  0
  9  4  1  0  0  0  0
 10  5  1  0  0  0  0
 12 11  3  0  0  0  0
 13 19  1  0  0  0  0
 13 14  2  0  0  0  0
 14 20  1  0  0  0  0
 15 14  1  0  0  0  0
 15 27  1  0  0  0  0
 16 15  2  0  0  0  0
 17 18  2  0  0  0  0
 17 16  1  0  0  0  0
 18 13  1  0  0  0  0
 21 16  1  0  0  0  0
 22 17  1  0  0  0  0
 23 26  2  0  0  0  0
 23 24  1  0  0  0  0
 23 18  1  0  0  0  0
 24  3  1  0  0  0  0
 25 23  2  0  0  0  0
 27 28  1  0  0  0  0
 27 30  1  0  0  0  0
 29 27  1  0  0  0  0
 31 32  1  0  0  0  0
 32 35  1  0  0  0  0
 32 33  1  0  0  0  0
 34 32  1  0  0  0  0
M  END
