Coordinates from ORCA-job 4-MeO-Ph-N2-OTs-B3LYPG-6-31G_dp-MTMO-d009-169-n800
 OpenBabel09051908173D

 35 35  0  0  0  0  0  0  0  0999 V2000
    3.1150   -3.8989    0.6875 C   0  0  0  0  0  0  0  0  0  0  0  0
    2.1704   -3.9118   -0.3426 C   0  0  0  0  0  0  0  0  0  0  0  0
    2.4945   -4.4640   -1.5770 C   0  0  0  0  0  0  0  0  0  0  0  0
    3.7605   -5.0130   -1.8042 C   0  0  0  0  0  0  0  0  0  0  0  0
    4.6967   -5.0099   -0.7793 C   0  0  0  0  0  0  0  0  0  0  0  0
    4.3827   -4.4529    0.4713 C   0  0  0  0  0  0  0  0  0  0  0  0
    2.8511   -3.4581    1.6410 H   0  0  0  0  0  0  0  0  0  0  0  0
    1.1855   -3.4824   -0.1946 H   0  0  0  0  0  0  0  0  0  0  0  0
    3.9936   -5.4392   -2.7722 H   0  0  0  0  0  0  0  0  0  0  0  0
    5.6863   -5.4292   -0.9244 H   0  0  0  0  0  0  0  0  0  0  0  0
   -6.4097   -4.4128    0.3489 N   0  0  0  0  0  0  0  0  0  0  0  0
   -7.3787   -3.9122    0.5267 N   0  0  0  0  0  0  0  0  0  0  0  0
   -0.0472   -6.9558   -0.7774 C   0  0  0  0  0  0  0  0  0  0  0  0
   -0.9664   -7.1885    0.2422 C   0  0  0  0  0  0  0  0  0  0  0  0
   -2.2234   -6.5637    0.2449 C   0  0  0  0  0  0  0  0  0  0  0  0
   -2.5420   -5.6943   -0.8081 C   0  0  0  0  0  0  0  0  0  0  0  0
   -1.6354   -5.4460   -1.8377 C   0  0  0  0  0  0  0  0  0  0  0  0
   -0.3927   -6.0810   -1.8110 C   0  0  0  0  0  0  0  0  0  0  0  0
    0.9160   -7.4525   -0.7888 H   0  0  0  0  0  0  0  0  0  0  0  0
   -0.7062   -7.8720    1.0465 H   0  0  0  0  0  0  0  0  0  0  0  0
   -3.5153   -5.2123   -0.8255 H   0  0  0  0  0  0  0  0  0  0  0  0
   -1.8886   -4.7863   -2.6606 H   0  0  0  0  0  0  0  0  0  0  0  0
    0.7723   -5.7663   -3.1232 S   0  0  0  0  0  0  0  0  0  0  0  0
    1.5535   -4.3804   -2.6109 O   0  0  0  0  0  0  0  0  0  0  0  0
    0.0579   -5.3187   -4.3093 O   0  0  0  0  0  0  0  0  0  0  0  0
    1.7389   -6.8604   -3.1635 O   0  0  0  0  0  0  0  0  0  0  0  0
   -3.2085   -6.8315    1.3575 C   0  0  0  0  0  0  0  0  0  0  0  0
   -2.8020   -6.5207    2.3268 H   0  0  0  0  0  0  0  0  0  0  0  0
   -4.1468   -6.2952    1.1991 H   0  0  0  0  0  0  0  0  0  0  0  0
   -3.4376   -7.9000    1.4331 H   0  0  0  0  0  0  0  0  0  0  0  0
    5.3782   -4.4983    1.4029 O   0  0  0  0  0  0  0  0  0  0  0  0
    5.1280   -3.9391    2.6824 C   0  0  0  0  0  0  0  0  0  0  0  0
    6.0447   -4.0808    3.2576 H   0  0  0  0  0  0  0  0  0  0  0  0
    4.9038   -2.8665    2.6193 H   0  0  0  0  0  0  0  0  0  0  0  0
    4.3004   -4.4485    3.1930 H   0  0  0  0  0  0  0  0  0  0  0  0
  1  7  1  0  0  0  0
  2  8  1  0  0  0  0
  2  1  2  0  0  0  0
  3  2  1  0  0  0  0
  4  3  2  0  0  0  0
  4  5  1  0  0  0  0
  5  6  2  0  0  0  0
  6  1  1  0  0  0  0
  6 31  1  0  0  0  0
  9  4  1  0  0  0  0
 10  5  1  0  0  0  0
 11 12  3  0  0  0  0
 13 14  2  0  0  0  0
 14 15  1  0  0  0  0
 14 20  1  0  0  0  0
 15 27  1  0  0  0  0
 16 15  2  0  0  0  0
 17 18  2  0  0  0  0
 17 16  1  0  0  0  0
 18 13  1  0  0  0  0
 19 13  1  0  0  0  0
 21 16  1  0  0  0  0
 22 17  1  0  0  0  0
 23 24  1  0  0  0  0
 23 18  1  0  0  0  0
 24  3  1  0  0  0  0
 25 23  2  0  0  0  0
 26 23  2  0  0  0  0
 27 30  1  0  0  0  0
 27 28  1  0  0  0  0
 29 27  1  0  0  0  0
 31 32  1  0  0  0  0
 32 35  1  0  0  0  0
 32 33  1  0  0  0  0
 34 32  1  0  0  0  0
M  END
