Coordinates from ORCA-job 4-MeO-Ph-N2-OTs-B3LYPG-6-31G_dp-MTMO-d009-169-n800
 OpenBabel09051908173D

 35 34  0  0  0  0  0  0  0  0999 V2000
    3.9412   -2.8047    0.4662 C   0  0  0  0  0  0  0  0  0  0  0  0
    2.7923   -2.1624   -0.0496 C   0  0  0  0  0  0  0  0  0  0  0  0
    2.1195   -3.0680   -0.8183 C   0  0  0  0  0  0  0  0  0  0  0  0
    2.2780   -4.2726   -1.1515 C   0  0  0  0  0  0  0  0  0  0  0  0
    3.4032   -4.9438   -0.6656 C   0  0  0  0  0  0  0  0  0  0  0  0
    4.2401   -4.1571    0.1670 C   0  0  0  0  0  0  0  0  0  0  0  0
    4.6000   -2.2278    1.1049 H   0  0  0  0  0  0  0  0  0  0  0  0
    2.5346   -1.1320    0.1558 H   0  0  0  0  0  0  0  0  0  0  0  0
    0.9490   -5.1256   -2.3033 H   0  0  0  0  0  0  0  0  0  0  0  0
    3.6657   -5.9754   -0.8730 H   0  0  0  0  0  0  0  0  0  0  0  0
    0.2422   -1.0814   -1.9081 N   0  0  0  0  0  0  0  0  0  0  0  0
   -0.3625   -0.7905   -2.7859 N   0  0  0  0  0  0  0  0  0  0  0  0
   -1.6629   -5.8061    0.0369 C   0  0  0  0  0  0  0  0  0  0  0  0
   -2.0771   -6.6336    1.0787 C   0  0  0  0  0  0  0  0  0  0  0  0
   -2.5552   -7.9282    0.8314 C   0  0  0  0  0  0  0  0  0  0  0  0
   -2.6197   -8.3743   -0.4970 C   0  0  0  0  0  0  0  0  0  0  0  0
   -2.2115   -7.5614   -1.5517 C   0  0  0  0  0  0  0  0  0  0  0  0
   -1.7303   -6.2810   -1.2735 C   0  0  0  0  0  0  0  0  0  0  0  0
   -1.3087   -4.7995    0.2283 H   0  0  0  0  0  0  0  0  0  0  0  0
   -2.0351   -6.2648    2.1004 H   0  0  0  0  0  0  0  0  0  0  0  0
   -3.0020   -9.3690   -0.7088 H   0  0  0  0  0  0  0  0  0  0  0  0
   -2.2799   -7.9012   -2.5794 H   0  0  0  0  0  0  0  0  0  0  0  0
   -1.1940   -5.2355   -2.6201 S   0  0  0  0  0  0  0  0  0  0  0  0
   -1.1898   -3.8476   -2.1519 O   0  0  0  0  0  0  0  0  0  0  0  0
   -1.9069   -5.6340   -3.8257 O   0  0  0  0  0  0  0  0  0  0  0  0
    0.3474   -5.6954   -2.8508 O   0  0  0  0  0  0  0  0  0  0  0  0
   -2.9742   -8.8272    1.9697 C   0  0  0  0  0  0  0  0  0  0  0  0
   -3.7469   -9.5358    1.6576 H   0  0  0  0  0  0  0  0  0  0  0  0
   -2.1235   -9.4141    2.3382 H   0  0  0  0  0  0  0  0  0  0  0  0
   -3.3611   -8.2503    2.8145 H   0  0  0  0  0  0  0  0  0  0  0  0
    5.3375   -4.8084    0.6450 O   0  0  0  0  0  0  0  0  0  0  0  0
    6.2436   -4.1069    1.4827 C   0  0  0  0  0  0  0  0  0  0  0  0
    7.0309   -4.8181    1.7366 H   0  0  0  0  0  0  0  0  0  0  0  0
    6.6876   -3.2465    0.9659 H   0  0  0  0  0  0  0  0  0  0  0  0
    5.7579   -3.7630    2.4050 H   0  0  0  0  0  0  0  0  0  0  0  0
  1  7  1  0  0  0  0
  2  8  1  0  0  0  0
  2  1  2  0  0  0  0
  3  2  1  0  0  0  0
  4  3  2  0  0  0  0
  4  5  1  0  0  0  0
  5  6  2  0  0  0  0
  6  1  1  0  0  0  0
  6 31  1  0  0  0  0
 10  5  1  0  0  0  0
 12 11  3  0  0  0  0
 13 19  1  0  0  0  0
 13 14  2  0  0  0  0
 14 20  1  0  0  0  0
 15 14  1  0  0  0  0
 15 27  1  0  0  0  0
 16 15  2  0  0  0  0
 17 18  2  0  0  0  0
 17 16  1  0  0  0  0
 18 13  1  0  0  0  0
 21 16  1  0  0  0  0
 22 17  1  0  0  0  0
 23 24  2  0  0  0  0
 23 18  1  0  0  0  0
 25 23  2  0  0  0  0
 26 23  1  0  0  0  0
 26  9  1  0  0  0  0
 27 29  1  0  0  0  0
 27 30  1  0  0  0  0
 28 27  1  0  0  0  0
 31 32  1  0  0  0  0
 32 33  1  0  0  0  0
 32 35  1  0  0  0  0
 34 32  1  0  0  0  0
M  RAD  2   3   2   4   2
M  END
