Coordinates from ORCA-job 4-MeO-Ph-N2-OTs-B3LYPG-6-31G_dp-MTMO-d009-169-n800
 OpenBabel09051908173D

 35 35  0  0  0  0  0  0  0  0999 V2000
    3.0879   -3.9471    0.7682 C   0  0  0  0  0  0  0  0  0  0  0  0
    2.0233   -3.8929   -0.1359 C   0  0  0  0  0  0  0  0  0  0  0  0
    2.2081   -4.2961   -1.4537 C   0  0  0  0  0  0  0  0  0  0  0  0
    3.4518   -4.7625   -1.8909 C   0  0  0  0  0  0  0  0  0  0  0  0
    4.5077   -4.8266   -0.9919 C   0  0  0  0  0  0  0  0  0  0  0  0
    4.3352   -4.4185    0.3409 C   0  0  0  0  0  0  0  0  0  0  0  0
    2.9318   -3.6197    1.7888 H   0  0  0  0  0  0  0  0  0  0  0  0
    1.0518   -3.5253    0.1762 H   0  0  0  0  0  0  0  0  0  0  0  0
    3.5754   -5.0745   -2.9208 H   0  0  0  0  0  0  0  0  0  0  0  0
    5.4838   -5.1849   -1.3006 H   0  0  0  0  0  0  0  0  0  0  0  0
   -5.3691   -3.8036   -1.9349 N   0  0  0  0  0  0  0  0  0  0  0  0
   -6.1401   -3.3710   -2.5979 N   0  0  0  0  0  0  0  0  0  0  0  0
   -0.1336   -7.0069   -0.6757 C   0  0  0  0  0  0  0  0  0  0  0  0
   -0.9051   -7.3985    0.4177 C   0  0  0  0  0  0  0  0  0  0  0  0
   -2.1518   -6.8124    0.6738 C   0  0  0  0  0  0  0  0  0  0  0  0
   -2.6196   -5.8196   -0.2023 C   0  0  0  0  0  0  0  0  0  0  0  0
   -1.8653   -5.4138   -1.2986 C   0  0  0  0  0  0  0  0  0  0  0  0
   -0.6230   -6.0133   -1.5238 C   0  0  0  0  0  0  0  0  0  0  0  0
    0.8227   -7.4732   -0.8834 H   0  0  0  0  0  0  0  0  0  0  0  0
   -0.5342   -8.1781    1.0777 H   0  0  0  0  0  0  0  0  0  0  0  0
   -3.5915   -5.3650   -0.0322 H   0  0  0  0  0  0  0  0  0  0  0  0
   -2.2372   -4.6598   -1.9840 H   0  0  0  0  0  0  0  0  0  0  0  0
    0.3500   -5.4955   -2.9248 S   0  0  0  0  0  0  0  0  0  0  0  0
    1.1433   -4.1418   -2.3507 O   0  0  0  0  0  0  0  0  0  0  0  0
   -0.5268   -4.9486   -3.9495 O   0  0  0  0  0  0  0  0  0  0  0  0
    1.3388   -6.5295   -3.2174 O   0  0  0  0  0  0  0  0  0  0  0  0
   -2.9739   -7.2263    1.8699 C   0  0  0  0  0  0  0  0  0  0  0  0
   -2.8993   -6.4825    2.6733 H   0  0  0  0  0  0  0  0  0  0  0  0
   -4.0339   -7.3175    1.6127 H   0  0  0  0  0  0  0  0  0  0  0  0
   -2.6380   -8.1838    2.2755 H   0  0  0  0  0  0  0  0  0  0  0  0
    5.4406   -4.5168    1.1345 O   0  0  0  0  0  0  0  0  0  0  0  0
    5.3346   -4.1103    2.4894 C   0  0  0  0  0  0  0  0  0  0  0  0
    6.3207   -4.2676    2.9293 H   0  0  0  0  0  0  0  0  0  0  0  0
    5.0675   -3.0490    2.5751 H   0  0  0  0  0  0  0  0  0  0  0  0
    4.5968   -4.7109    3.0368 H   0  0  0  0  0  0  0  0  0  0  0  0
  1  7  1  0  0  0  0
  2  8  1  0  0  0  0
  2  1  2  0  0  0  0
  3  2  1  0  0  0  0
  4  3  2  0  0  0  0
  4  5  1  0  0  0  0
  5  6  2  0  0  0  0
  6  1  1  0  0  0  0
  6 31  1  0  0  0  0
  9  4  1  0  0  0  0
 10  5  1  0  0  0  0
 12 11  3  0  0  0  0
 13 14  2  0  0  0  0
 14 15  1  0  0  0  0
 14 20  1  0  0  0  0
 15 27  1  0  0  0  0
 16 21  1  0  0  0  0
 16 15  2  0  0  0  0
 17 16  1  0  0  0  0
 18 17  2  0  0  0  0
 18 13  1  0  0  0  0
 19 13  1  0  0  0  0
 22 17  1  0  0  0  0
 23 24  1  0  0  0  0
 23 18  1  0  0  0  0
 24  3  1  0  0  0  0
 25 23  2  0  0  0  0
 26 23  2  0  0  0  0
 27 30  1  0  0  0  0
 27 28  1  0  0  0  0
 29 27  1  0  0  0  0
 31 32  1  0  0  0  0
 32 34  1  0  0  0  0
 32 33  1  0  0  0  0
 32 35  1  0  0  0  0
M  END
