Coordinates from ORCA-job 4-MeO-Ph-N2-OTs-B3LYPG-6-31G_dp-MTMO-d009-169-n800
 OpenBabel09051908173D

 35 35  0  0  0  0  0  0  0  0999 V2000
    2.7329   -3.8292    0.5544 C   0  0  0  0  0  0  0  0  0  0  0  0
    1.6012   -3.8976   -0.2630 C   0  0  0  0  0  0  0  0  0  0  0  0
    1.7136   -4.3627   -1.5685 C   0  0  0  0  0  0  0  0  0  0  0  0
    2.9497   -4.7709   -2.0793 C   0  0  0  0  0  0  0  0  0  0  0  0
    4.0728   -4.7140   -1.2653 C   0  0  0  0  0  0  0  0  0  0  0  0
    3.9741   -4.2416    0.0538 C   0  0  0  0  0  0  0  0  0  0  0  0
    2.6326   -3.4555    1.5657 H   0  0  0  0  0  0  0  0  0  0  0  0
    0.6327   -3.5777    0.1059 H   0  0  0  0  0  0  0  0  0  0  0  0
    3.0149   -5.1319   -3.0983 H   0  0  0  0  0  0  0  0  0  0  0  0
    5.0453   -5.0245   -1.6318 H   0  0  0  0  0  0  0  0  0  0  0  0
   -1.8135   -2.2550   -2.4586 N   0  0  0  0  0  0  0  0  0  0  0  0
   -1.4798   -1.6392   -3.3132 N   0  0  0  0  0  0  0  0  0  0  0  0
   -0.3237   -7.3111   -0.5601 C   0  0  0  0  0  0  0  0  0  0  0  0
   -0.9371   -7.7287    0.6209 C   0  0  0  0  0  0  0  0  0  0  0  0
   -2.1373   -7.1536    1.0578 C   0  0  0  0  0  0  0  0  0  0  0  0
   -2.7216   -6.1434    0.2755 C   0  0  0  0  0  0  0  0  0  0  0  0
   -2.1280   -5.7133   -0.9065 C   0  0  0  0  0  0  0  0  0  0  0  0
   -0.9275   -6.3045   -1.3128 C   0  0  0  0  0  0  0  0  0  0  0  0
    0.5980   -7.7641   -0.9057 H   0  0  0  0  0  0  0  0  0  0  0  0
   -0.4772   -8.5183    1.2088 H   0  0  0  0  0  0  0  0  0  0  0  0
   -3.6585   -5.6952    0.5943 H   0  0  0  0  0  0  0  0  0  0  0  0
   -2.5866   -4.9409   -1.5143 H   0  0  0  0  0  0  0  0  0  0  0  0
   -0.1614   -5.7614   -2.8287 S   0  0  0  0  0  0  0  0  0  0  0  0
    0.5765   -4.3300   -2.3855 O   0  0  0  0  0  0  0  0  0  0  0  0
   -1.1850   -5.3165   -3.7629 O   0  0  0  0  0  0  0  0  0  0  0  0
    0.8682   -6.7259   -3.2056 O   0  0  0  0  0  0  0  0  0  0  0  0
   -2.7892   -7.5965    2.3450 C   0  0  0  0  0  0  0  0  0  0  0  0
   -2.6745   -6.8339    3.1255 H   0  0  0  0  0  0  0  0  0  0  0  0
   -3.8633   -7.7612    2.2111 H   0  0  0  0  0  0  0  0  0  0  0  0
   -2.3475   -8.5229    2.7196 H   0  0  0  0  0  0  0  0  0  0  0  0
    5.1411   -4.2208    0.7601 O   0  0  0  0  0  0  0  0  0  0  0  0
    5.1112   -3.7416    2.0951 C   0  0  0  0  0  0  0  0  0  0  0  0
    6.1368   -3.8071    2.4617 H   0  0  0  0  0  0  0  0  0  0  0  0
    4.7778   -2.6970    2.1435 H   0  0  0  0  0  0  0  0  0  0  0  0
    4.4616   -4.3556    2.7321 H   0  0  0  0  0  0  0  0  0  0  0  0
  1  7  1  0  0  0  0
  2  8  1  0  0  0  0
  2  1  2  0  0  0  0
  3  2  1  0  0  0  0
  4  3  2  0  0  0  0
  4  5  1  0  0  0  0
  5  6  2  0  0  0  0
  6  1  1  0  0  0  0
  6 31  1  0  0  0  0
  9  4  1  0  0  0  0
 10  5  1  0  0  0  0
 12 11  3  0  0  0  0
 13 14  2  0  0  0  0
 14 15  1  0  0  0  0
 14 20  1  0  0  0  0
 15 27  1  0  0  0  0
 16 21  1  0  0  0  0
 16 15  2  0  0  0  0
 17 16  1  0  0  0  0
 18 17  2  0  0  0  0
 18 13  1  0  0  0  0
 19 13  1  0  0  0  0
 22 17  1  0  0  0  0
 23 24  1  0  0  0  0
 23 18  1  0  0  0  0
 24  3  1  0  0  0  0
 25 23  2  0  0  0  0
 26 23  2  0  0  0  0
 27 30  1  0  0  0  0
 27 28  1  0  0  0  0
 29 27  1  0  0  0  0
 31 32  1  0  0  0  0
 32 34  1  0  0  0  0
 32 33  1  0  0  0  0
 32 35  1  0  0  0  0
M  END
