Coordinates from ORCA-job 4-MeO-Ph-N2-OTs-B3LYPG-6-31G_dp-MTMO-d009-169-n800
 OpenBabel09051908173D

 35 35  0  0  0  0  0  0  0  0999 V2000
    3.2676   -3.9585    0.6798 C   0  0  0  0  0  0  0  0  0  0  0  0
    2.3124   -3.9157   -0.3398 C   0  0  0  0  0  0  0  0  0  0  0  0
    2.5898   -4.4861   -1.5772 C   0  0  0  0  0  0  0  0  0  0  0  0
    3.8184   -5.1089   -1.8180 C   0  0  0  0  0  0  0  0  0  0  0  0
    4.7648   -5.1604   -0.8039 C   0  0  0  0  0  0  0  0  0  0  0  0
    4.4980   -4.5859    0.4498 C   0  0  0  0  0  0  0  0  0  0  0  0
    3.0408   -3.5029    1.6359 H   0  0  0  0  0  0  0  0  0  0  0  0
    1.3560   -3.4293   -0.1809 H   0  0  0  0  0  0  0  0  0  0  0  0
    4.0148   -5.5486   -2.7881 H   0  0  0  0  0  0  0  0  0  0  0  0
    5.7267   -5.6366   -0.9599 H   0  0  0  0  0  0  0  0  0  0  0  0
   -7.0485   -5.5817    0.2518 N   0  0  0  0  0  0  0  0  0  0  0  0
   -8.1482   -5.6064    0.1463 N   0  0  0  0  0  0  0  0  0  0  0  0
   -0.1264   -6.7962   -0.7389 C   0  0  0  0  0  0  0  0  0  0  0  0
   -1.0587   -6.9569    0.2845 C   0  0  0  0  0  0  0  0  0  0  0  0
   -2.2641   -6.2399    0.2893 C   0  0  0  0  0  0  0  0  0  0  0  0
   -2.5208   -5.3542   -0.7686 C   0  0  0  0  0  0  0  0  0  0  0  0
   -1.6022   -5.1774   -1.8003 C   0  0  0  0  0  0  0  0  0  0  0  0
   -0.4085   -5.9026   -1.7738 C   0  0  0  0  0  0  0  0  0  0  0  0
    0.7958   -7.3656   -0.7523 H   0  0  0  0  0  0  0  0  0  0  0  0
   -0.8497   -7.6578    1.0887 H   0  0  0  0  0  0  0  0  0  0  0  0
   -3.4580   -4.8050   -0.7890 H   0  0  0  0  0  0  0  0  0  0  0  0
   -1.8099   -4.5071   -2.6275 H   0  0  0  0  0  0  0  0  0  0  0  0
    0.7695   -5.6840   -3.0941 S   0  0  0  0  0  0  0  0  0  0  0  0
    1.6447   -4.3479   -2.6018 O   0  0  0  0  0  0  0  0  0  0  0  0
    0.0812   -5.2032   -4.2827 O   0  0  0  0  0  0  0  0  0  0  0  0
    1.6598   -6.8412   -3.1243 O   0  0  0  0  0  0  0  0  0  0  0  0
   -3.2570   -6.4057    1.4140 C   0  0  0  0  0  0  0  0  0  0  0  0
   -3.0408   -5.7065    2.2315 H   0  0  0  0  0  0  0  0  0  0  0  0
   -4.2790   -6.2090    1.0787 H   0  0  0  0  0  0  0  0  0  0  0  0
   -3.2208   -7.4156    1.8326 H   0  0  0  0  0  0  0  0  0  0  0  0
    5.4997   -4.6895    1.3700 O   0  0  0  0  0  0  0  0  0  0  0  0
    5.2956   -4.1206    2.6534 C   0  0  0  0  0  0  0  0  0  0  0  0
    6.2085   -4.3164    3.2184 H   0  0  0  0  0  0  0  0  0  0  0  0
    5.1328   -3.0366    2.5953 H   0  0  0  0  0  0  0  0  0  0  0  0
    4.4456   -4.5832    3.1716 H   0  0  0  0  0  0  0  0  0  0  0  0
  1  7  1  0  0  0  0
  2  8  1  0  0  0  0
  2  1  2  0  0  0  0
  3  2  1  0  0  0  0
  4  3  2  0  0  0  0
  4  5  1  0  0  0  0
  5  6  2  0  0  0  0
  6  1  1  0  0  0  0
  6 31  1  0  0  0  0
  9  4  1  0  0  0  0
 10  5  1  0  0  0  0
 12 11  3  0  0  0  0
 13 14  2  0  0  0  0
 14 15  1  0  0  0  0
 14 20  1  0  0  0  0
 15 27  1  0  0  0  0
 16 15  2  0  0  0  0
 17 18  2  0  0  0  0
 17 16  1  0  0  0  0
 18 13  1  0  0  0  0
 19 13  1  0  0  0  0
 21 16  1  0  0  0  0
 22 17  1  0  0  0  0
 23 24  1  0  0  0  0
 23 18  1  0  0  0  0
 24  3  1  0  0  0  0
 25 23  2  0  0  0  0
 26 23  2  0  0  0  0
 27 30  1  0  0  0  0
 27 28  1  0  0  0  0
 29 27  1  0  0  0  0
 31 32  1  0  0  0  0
 32 35  1  0  0  0  0
 32 33  1  0  0  0  0
 34 32  1  0  0  0  0
M  END
