Coordinates from ORCA-job 4-MeO-Ph-N2-OTs-B3LYPG-6-31G_dp-MTMO-d009-169-n800
 OpenBabel09051908173D

 35 35  0  0  0  0  0  0  0  0999 V2000
    3.7411   -3.9088    0.5925 C   0  0  0  0  0  0  0  0  0  0  0  0
    2.7600   -3.8343   -0.4004 C   0  0  0  0  0  0  0  0  0  0  0  0
    2.9636   -4.4561   -1.6273 C   0  0  0  0  0  0  0  0  0  0  0  0
    4.1423   -5.1631   -1.8838 C   0  0  0  0  0  0  0  0  0  0  0  0
    5.1143   -5.2453   -0.8963 C   0  0  0  0  0  0  0  0  0  0  0  0
    4.9225   -4.6190    0.3462 C   0  0  0  0  0  0  0  0  0  0  0  0
    3.5729   -3.4129    1.5406 H   0  0  0  0  0  0  0  0  0  0  0  0
    1.8410   -3.2839   -0.2290 H   0  0  0  0  0  0  0  0  0  0  0  0
    4.2806   -5.6423   -2.8453 H   0  0  0  0  0  0  0  0  0  0  0  0
    6.0395   -5.7856   -1.0653 H   0  0  0  0  0  0  0  0  0  0  0  0
  -12.8799   -8.7620    0.2000 N   0  0  0  0  0  0  0  0  0  0  0  0
  -13.8262   -9.2824   -0.0354 N   0  0  0  0  0  0  0  0  0  0  0  0
    0.0734   -6.5152   -0.6375 C   0  0  0  0  0  0  0  0  0  0  0  0
   -0.8423   -6.5433    0.4146 C   0  0  0  0  0  0  0  0  0  0  0  0
   -1.9681   -5.7098    0.4196 C   0  0  0  0  0  0  0  0  0  0  0  0
   -2.1610   -4.8365   -0.6637 C   0  0  0  0  0  0  0  0  0  0  0  0
   -1.2603   -4.7925   -1.7228 C   0  0  0  0  0  0  0  0  0  0  0  0
   -0.1459   -5.6365   -1.6979 C   0  0  0  0  0  0  0  0  0  0  0  0
    0.9367   -7.1709   -0.6476 H   0  0  0  0  0  0  0  0  0  0  0  0
   -0.6797   -7.2281    1.2428 H   0  0  0  0  0  0  0  0  0  0  0  0
   -3.0331   -4.1878   -0.6788 H   0  0  0  0  0  0  0  0  0  0  0  0
   -1.4182   -4.1295   -2.5668 H   0  0  0  0  0  0  0  0  0  0  0  0
    1.0190   -5.5736   -3.0467 S   0  0  0  0  0  0  0  0  0  0  0  0
    1.9998   -4.2871   -2.6295 O   0  0  0  0  0  0  0  0  0  0  0  0
    0.3456   -5.0965   -4.2454 O   0  0  0  0  0  0  0  0  0  0  0  0
    1.8175   -6.7961   -3.0364 O   0  0  0  0  0  0  0  0  0  0  0  0
   -2.9690   -5.7580    1.5487 C   0  0  0  0  0  0  0  0  0  0  0  0
   -3.2125   -4.7529    1.9076 H   0  0  0  0  0  0  0  0  0  0  0  0
   -3.9085   -6.2175    1.2196 H   0  0  0  0  0  0  0  0  0  0  0  0
   -2.5932   -6.3396    2.3942 H   0  0  0  0  0  0  0  0  0  0  0  0
    5.9440   -4.7587    1.2396 O   0  0  0  0  0  0  0  0  0  0  0  0
    5.8141   -4.1440    2.5114 C   0  0  0  0  0  0  0  0  0  0  0  0
    6.7314   -4.3785    3.0543 H   0  0  0  0  0  0  0  0  0  0  0  0
    5.7134   -3.0541    2.4269 H   0  0  0  0  0  0  0  0  0  0  0  0
    4.9552   -4.5410    3.0680 H   0  0  0  0  0  0  0  0  0  0  0  0
  1  7  1  0  0  0  0
  2  8  1  0  0  0  0
  2  1  2  0  0  0  0
  3  2  1  0  0  0  0
  4  3  2  0  0  0  0
  4  5  1  0  0  0  0
  5  6  2  0  0  0  0
  6  1  1  0  0  0  0
  6 31  1  0  0  0  0
  9  4  1  0  0  0  0
 10  5  1  0  0  0  0
 12 11  3  0  0  0  0
 13 14  2  0  0  0  0
 14 15  1  0  0  0  0
 14 20  1  0  0  0  0
 15 27  1  0  0  0  0
 16 15  2  0  0  0  0
 17 18  2  0  0  0  0
 17 16  1  0  0  0  0
 18 13  1  0  0  0  0
 19 13  1  0  0  0  0
 21 16  1  0  0  0  0
 22 17  1  0  0  0  0
 23 26  2  0  0  0  0
 23 24  1  0  0  0  0
 23 18  1  0  0  0  0
 24  3  1  0  0  0  0
 25 23  2  0  0  0  0
 27 28  1  0  0  0  0
 27 30  1  0  0  0  0
 29 27  1  0  0  0  0
 31 32  1  0  0  0  0
 32 33  1  0  0  0  0
 32 35  1  0  0  0  0
 34 32  1  0  0  0  0
M  END
