Coordinates from ORCA-job 4-MeO-Ph-N2-OTs-B3LYPG-6-31G_dp-MTMO-d009-169-n800
 OpenBabel09051908173D

 35 35  0  0  0  0  0  0  0  0999 V2000
    3.0877   -3.9317    0.7435 C   0  0  0  0  0  0  0  0  0  0  0  0
    2.0588   -3.9082   -0.2022 C   0  0  0  0  0  0  0  0  0  0  0  0
    2.2943   -4.3543   -1.4978 C   0  0  0  0  0  0  0  0  0  0  0  0
    3.5537   -4.8337   -1.8712 C   0  0  0  0  0  0  0  0  0  0  0  0
    4.5741   -4.8671   -0.9307 C   0  0  0  0  0  0  0  0  0  0  0  0
    4.3505   -4.4155    0.3803 C   0  0  0  0  0  0  0  0  0  0  0  0
    2.8924   -3.5720    1.7462 H   0  0  0  0  0  0  0  0  0  0  0  0
    1.0761   -3.5315    0.0600 H   0  0  0  0  0  0  0  0  0  0  0  0
    3.7167   -5.1791   -2.8847 H   0  0  0  0  0  0  0  0  0  0  0  0
    5.5613   -5.2345   -1.1895 H   0  0  0  0  0  0  0  0  0  0  0  0
   -5.7918   -3.8283   -1.1905 N   0  0  0  0  0  0  0  0  0  0  0  0
   -6.6222   -3.3549   -1.7451 N   0  0  0  0  0  0  0  0  0  0  0  0
   -0.1056   -7.0507   -0.7285 C   0  0  0  0  0  0  0  0  0  0  0  0
   -0.9228   -7.3967    0.3473 C   0  0  0  0  0  0  0  0  0  0  0  0
   -2.1590   -6.7697    0.5515 C   0  0  0  0  0  0  0  0  0  0  0  0
   -2.5700   -5.7818   -0.3585 C   0  0  0  0  0  0  0  0  0  0  0  0
   -1.7695   -5.4224   -1.4385 C   0  0  0  0  0  0  0  0  0  0  0  0
   -0.5391   -6.0623   -1.6121 C   0  0  0  0  0  0  0  0  0  0  0  0
    0.8428   -7.5485   -0.8956 H   0  0  0  0  0  0  0  0  0  0  0  0
   -0.5965   -8.1727    1.0347 H   0  0  0  0  0  0  0  0  0  0  0  0
   -3.5324   -5.2953   -0.2275 H   0  0  0  0  0  0  0  0  0  0  0  0
   -2.0948   -4.6729   -2.1520 H   0  0  0  0  0  0  0  0  0  0  0  0
    0.4899   -5.6030   -2.9935 S   0  0  0  0  0  0  0  0  0  0  0  0
    1.2659   -4.2307   -2.4407 O   0  0  0  0  0  0  0  0  0  0  0  0
   -0.3438   -5.0927   -4.0716 O   0  0  0  0  0  0  0  0  0  0  0  0
    1.4838   -6.6513   -3.2084 O   0  0  0  0  0  0  0  0  0  0  0  0
   -3.0295   -7.1351    1.7291 C   0  0  0  0  0  0  0  0  0  0  0  0
   -2.9410   -6.3886    2.5286 H   0  0  0  0  0  0  0  0  0  0  0  0
   -4.0855   -7.1802    1.4454 H   0  0  0  0  0  0  0  0  0  0  0  0
   -2.7477   -8.1034    2.1507 H   0  0  0  0  0  0  0  0  0  0  0  0
    5.4243   -4.4868    1.2188 O   0  0  0  0  0  0  0  0  0  0  0  0
    5.2670   -4.0321    2.5534 C   0  0  0  0  0  0  0  0  0  0  0  0
    6.2347   -4.1761    3.0368 H   0  0  0  0  0  0  0  0  0  0  0  0
    5.0007   -2.9679    2.5907 H   0  0  0  0  0  0  0  0  0  0  0  0
    4.5061   -4.6111    3.0924 H   0  0  0  0  0  0  0  0  0  0  0  0
  1  7  1  0  0  0  0
  2  8  1  0  0  0  0
  2  1  2  0  0  0  0
  3  2  1  0  0  0  0
  4  3  2  0  0  0  0
  4  5  1  0  0  0  0
  5  6  2  0  0  0  0
  6  1  1  0  0  0  0
  6 31  1  0  0  0  0
  9  4  1  0  0  0  0
 10  5  1  0  0  0  0
 12 11  3  0  0  0  0
 13 14  2  0  0  0  0
 14 15  1  0  0  0  0
 14 20  1  0  0  0  0
 15 27  1  0  0  0  0
 16 21  1  0  0  0  0
 16 15  2  0  0  0  0
 17 16  1  0  0  0  0
 18 17  2  0  0  0  0
 18 13  1  0  0  0  0
 19 13  1  0  0  0  0
 22 17  1  0  0  0  0
 23 24  1  0  0  0  0
 23 18  1  0  0  0  0
 24  3  1  0  0  0  0
 25 23  2  0  0  0  0
 26 23  2  0  0  0  0
 27 30  1  0  0  0  0
 27 28  1  0  0  0  0
 29 27  1  0  0  0  0
 31 32  1  0  0  0  0
 32 34  1  0  0  0  0
 32 33  1  0  0  0  0
 32 35  1  0  0  0  0
M  END
