Coordinates from ORCA-job 4-MeO-Ph-N2-OTs-B3LYPG-6-31G_dp-MTMO-d009-169-n800
 OpenBabel09051908173D

 35 35  0  0  0  0  0  0  0  0999 V2000
    3.5162   -4.0386    0.6429 C   0  0  0  0  0  0  0  0  0  0  0  0
    2.5636   -3.9219   -0.3733 C   0  0  0  0  0  0  0  0  0  0  0  0
    2.7758   -4.5414   -1.5999 C   0  0  0  0  0  0  0  0  0  0  0  0
    3.9346   -5.2884   -1.8327 C   0  0  0  0  0  0  0  0  0  0  0  0
    4.8780   -5.4123   -0.8221 C   0  0  0  0  0  0  0  0  0  0  0  0
    4.6776   -4.7884    0.4203 C   0  0  0  0  0  0  0  0  0  0  0  0
    3.3419   -3.5436    1.5905 H   0  0  0  0  0  0  0  0  0  0  0  0
    1.6607   -3.3402   -0.2203 H   0  0  0  0  0  0  0  0  0  0  0  0
    4.0800   -5.7650   -2.7945 H   0  0  0  0  0  0  0  0  0  0  0  0
    5.7878   -5.9836   -0.9726 H   0  0  0  0  0  0  0  0  0  0  0  0
   -8.7754   -8.1283    0.4880 N   0  0  0  0  0  0  0  0  0  0  0  0
   -9.7290   -8.6408    0.2652 N   0  0  0  0  0  0  0  0  0  0  0  0
   -0.2227   -6.4983   -0.7053 C   0  0  0  0  0  0  0  0  0  0  0  0
   -1.1670   -6.4977    0.3209 C   0  0  0  0  0  0  0  0  0  0  0  0
   -2.2569   -5.6172    0.3042 C   0  0  0  0  0  0  0  0  0  0  0  0
   -2.3824   -4.7258   -0.7735 C   0  0  0  0  0  0  0  0  0  0  0  0
   -1.4518   -4.7101   -1.8077 C   0  0  0  0  0  0  0  0  0  0  0  0
   -0.3756   -5.6006   -1.7620 C   0  0  0  0  0  0  0  0  0  0  0  0
    0.6127   -7.1895   -0.6989 H   0  0  0  0  0  0  0  0  0  0  0  0
   -1.0560   -7.1963    1.1462 H   0  0  0  0  0  0  0  0  0  0  0  0
   -3.2246   -4.0392   -0.8043 H   0  0  0  0  0  0  0  0  0  0  0  0
   -1.5575   -4.0317   -2.6477 H   0  0  0  0  0  0  0  0  0  0  0  0
    0.8278   -5.5741   -3.0778 S   0  0  0  0  0  0  0  0  0  0  0  0
    1.8454   -4.3291   -2.6251 O   0  0  0  0  0  0  0  0  0  0  0  0
    0.2066   -5.0638   -4.2908 O   0  0  0  0  0  0  0  0  0  0  0  0
    1.5781   -6.8266   -3.0543 O   0  0  0  0  0  0  0  0  0  0  0  0
   -3.2922   -5.6417    1.4023 C   0  0  0  0  0  0  0  0  0  0  0  0
   -3.6100   -4.6309    1.6747 H   0  0  0  0  0  0  0  0  0  0  0  0
   -4.1886   -6.1865    1.0817 H   0  0  0  0  0  0  0  0  0  0  0  0
   -2.9125   -6.1339    2.3015 H   0  0  0  0  0  0  0  0  0  0  0  0
    5.6711   -4.9702    1.3373 O   0  0  0  0  0  0  0  0  0  0  0  0
    5.5314   -4.3600    2.6102 C   0  0  0  0  0  0  0  0  0  0  0  0
    6.4270   -4.6284    3.1730 H   0  0  0  0  0  0  0  0  0  0  0  0
    5.4686   -3.2669    2.5314 H   0  0  0  0  0  0  0  0  0  0  0  0
    4.6466   -4.7320    3.1434 H   0  0  0  0  0  0  0  0  0  0  0  0
  1  7  1  0  0  0  0
  2  8  1  0  0  0  0
  2  1  2  0  0  0  0
  3  2  1  0  0  0  0
  4  3  2  0  0  0  0
  4  5  1  0  0  0  0
  5  6  2  0  0  0  0
  6  1  1  0  0  0  0
  6 31  1  0  0  0  0
  9  4  1  0  0  0  0
 10  5  1  0  0  0  0
 12 11  3  0  0  0  0
 13 19  1  0  0  0  0
 13 14  2  0  0  0  0
 14 20  1  0  0  0  0
 15 14  1  0  0  0  0
 15 27  1  0  0  0  0
 16 15  2  0  0  0  0
 17 18  2  0  0  0  0
 17 16  1  0  0  0  0
 18 13  1  0  0  0  0
 21 16  1  0  0  0  0
 22 17  1  0  0  0  0
 23 26  2  0  0  0  0
 23 24  1  0  0  0  0
 23 18  1  0  0  0  0
 24  3  1  0  0  0  0
 25 23  2  0  0  0  0
 27 28  1  0  0  0  0
 27 30  1  0  0  0  0
 29 27  1  0  0  0  0
 31 32  1  0  0  0  0
 32 35  1  0  0  0  0
 32 33  1  0  0  0  0
 34 32  1  0  0  0  0
M  END
