Coordinates from ORCA-job 4-MeO-Ph-N2-OTs-B3LYPG-6-31G_dp-MTMO-d009-169-n800
 OpenBabel09051908173D

 35 35  0  0  0  0  0  0  0  0999 V2000
    2.7653   -3.8449    0.5803 C   0  0  0  0  0  0  0  0  0  0  0  0
    1.6270   -3.9059   -0.2284 C   0  0  0  0  0  0  0  0  0  0  0  0
    1.7303   -4.3475   -1.5427 C   0  0  0  0  0  0  0  0  0  0  0  0
    2.9643   -4.7393   -2.0712 C   0  0  0  0  0  0  0  0  0  0  0  0
    4.0942   -4.6896   -1.2664 C   0  0  0  0  0  0  0  0  0  0  0  0
    4.0045   -4.2410    0.0617 C   0  0  0  0  0  0  0  0  0  0  0  0
    2.6718   -3.4890    1.5987 H   0  0  0  0  0  0  0  0  0  0  0  0
    0.6599   -3.5983    0.1545 H   0  0  0  0  0  0  0  0  0  0  0  0
    3.0229   -5.0824   -3.0968 H   0  0  0  0  0  0  0  0  0  0  0  0
    5.0652   -4.9879   -1.6467 H   0  0  0  0  0  0  0  0  0  0  0  0
   -2.0449   -2.3214   -2.6464 N   0  0  0  0  0  0  0  0  0  0  0  0
   -1.6348   -1.7065   -3.4677 N   0  0  0  0  0  0  0  0  0  0  0  0
   -0.3297   -7.3042   -0.5525 C   0  0  0  0  0  0  0  0  0  0  0  0
   -0.9507   -7.7276    0.6225 C   0  0  0  0  0  0  0  0  0  0  0  0
   -2.1491   -7.1486    1.0590 C   0  0  0  0  0  0  0  0  0  0  0  0
   -2.7234   -6.1279    0.2827 C   0  0  0  0  0  0  0  0  0  0  0  0
   -2.1224   -5.6918   -0.8933 C   0  0  0  0  0  0  0  0  0  0  0  0
   -0.9240   -6.2877   -1.2994 C   0  0  0  0  0  0  0  0  0  0  0  0
    0.5908   -7.7597   -0.8979 H   0  0  0  0  0  0  0  0  0  0  0  0
   -0.4983   -8.5248    1.2057 H   0  0  0  0  0  0  0  0  0  0  0  0
   -3.6586   -5.6760    0.6016 H   0  0  0  0  0  0  0  0  0  0  0  0
   -2.5736   -4.9110   -1.4960 H   0  0  0  0  0  0  0  0  0  0  0  0
   -0.1473   -5.7372   -2.8072 S   0  0  0  0  0  0  0  0  0  0  0  0
    0.5854   -4.3074   -2.3492 O   0  0  0  0  0  0  0  0  0  0  0  0
   -1.1643   -5.2889   -3.7470 O   0  0  0  0  0  0  0  0  0  0  0  0
    0.8857   -6.6989   -3.1817 O   0  0  0  0  0  0  0  0  0  0  0  0
   -2.8106   -7.5988    2.3388 C   0  0  0  0  0  0  0  0  0  0  0  0
   -2.7136   -6.8351    3.1206 H   0  0  0  0  0  0  0  0  0  0  0  0
   -3.8812   -7.7752    2.1924 H   0  0  0  0  0  0  0  0  0  0  0  0
   -2.3632   -8.5205    2.7182 H   0  0  0  0  0  0  0  0  0  0  0  0
    5.1775   -4.2253    0.7580 O   0  0  0  0  0  0  0  0  0  0  0  0
    5.1563   -3.7720    2.1021 C   0  0  0  0  0  0  0  0  0  0  0  0
    6.1852   -3.8387    2.4589 H   0  0  0  0  0  0  0  0  0  0  0  0
    4.8177   -2.7303    2.1734 H   0  0  0  0  0  0  0  0  0  0  0  0
    4.5153   -4.4016    2.7325 H   0  0  0  0  0  0  0  0  0  0  0  0
  1  7  1  0  0  0  0
  2  8  1  0  0  0  0
  2  1  2  0  0  0  0
  3  2  1  0  0  0  0
  4  3  2  0  0  0  0
  4  5  1  0  0  0  0
  5  6  2  0  0  0  0
  6  1  1  0  0  0  0
  6 31  1  0  0  0  0
  9  4  1  0  0  0  0
 10  5  1  0  0  0  0
 12 11  3  0  0  0  0
 13 14  2  0  0  0  0
 14 15  1  0  0  0  0
 14 20  1  0  0  0  0
 15 27  1  0  0  0  0
 16 21  1  0  0  0  0
 16 15  2  0  0  0  0
 17 16  1  0  0  0  0
 18 17  2  0  0  0  0
 18 13  1  0  0  0  0
 19 13  1  0  0  0  0
 22 17  1  0  0  0  0
 23 24  1  0  0  0  0
 23 18  1  0  0  0  0
 24  3  1  0  0  0  0
 25 23  2  0  0  0  0
 26 23  2  0  0  0  0
 27 30  1  0  0  0  0
 27 28  1  0  0  0  0
 29 27  1  0  0  0  0
 31 32  1  0  0  0  0
 32 34  1  0  0  0  0
 32 33  1  0  0  0  0
 32 35  1  0  0  0  0
M  END
