Coordinates from ORCA-job 4-MeO-Ph-N2-OTs-B3LYPG-6-31G_dp-MTMO-d009-169-n800
 OpenBabel09051908173D

 35 35  0  0  0  0  0  0  0  0999 V2000
    3.4371   -4.0537    0.7019 C   0  0  0  0  0  0  0  0  0  0  0  0
    2.5001   -3.9265   -0.3275 C   0  0  0  0  0  0  0  0  0  0  0  0
    2.7457   -4.5064   -1.5671 C   0  0  0  0  0  0  0  0  0  0  0  0
    3.9230   -5.2240   -1.8001 C   0  0  0  0  0  0  0  0  0  0  0  0
    4.8510   -5.3584   -0.7768 C   0  0  0  0  0  0  0  0  0  0  0  0
    4.6167   -4.7744    0.4790 C   0  0  0  0  0  0  0  0  0  0  0  0
    3.2366   -3.5891    1.6596 H   0  0  0  0  0  0  0  0  0  0  0  0
    1.5836   -3.3667   -0.1742 H   0  0  0  0  0  0  0  0  0  0  0  0
    4.0945   -5.6703   -2.7721 H   0  0  0  0  0  0  0  0  0  0  0  0
    5.7743   -5.9075   -0.9270 H   0  0  0  0  0  0  0  0  0  0  0  0
   -7.8156   -7.5890    0.8894 N   0  0  0  0  0  0  0  0  0  0  0  0
   -8.8332   -8.0072    0.7830 N   0  0  0  0  0  0  0  0  0  0  0  0
   -0.2469   -6.5382   -0.7913 C   0  0  0  0  0  0  0  0  0  0  0  0
   -1.2227   -6.5886    0.2036 C   0  0  0  0  0  0  0  0  0  0  0  0
   -2.3376   -5.7402    0.1716 C   0  0  0  0  0  0  0  0  0  0  0  0
   -2.4545   -4.8273   -0.8890 C   0  0  0  0  0  0  0  0  0  0  0  0
   -1.4922   -4.7603   -1.8919 C   0  0  0  0  0  0  0  0  0  0  0  0
   -0.3923   -5.6205   -1.8319 C   0  0  0  0  0  0  0  0  0  0  0  0
    0.6072   -7.2060   -0.7738 H   0  0  0  0  0  0  0  0  0  0  0  0
   -1.1169   -7.3031    1.0160 H   0  0  0  0  0  0  0  0  0  0  0  0
   -3.3150   -4.1646   -0.9315 H   0  0  0  0  0  0  0  0  0  0  0  0
   -1.5915   -4.0658   -2.7194 H   0  0  0  0  0  0  0  0  0  0  0  0
    0.8464   -5.5349   -3.1120 S   0  0  0  0  0  0  0  0  0  0  0  0
    1.8287   -4.2831   -2.6020 O   0  0  0  0  0  0  0  0  0  0  0  0
    0.2472   -5.0050   -4.3277 O   0  0  0  0  0  0  0  0  0  0  0  0
    1.6205   -6.7731   -3.1001 O   0  0  0  0  0  0  0  0  0  0  0  0
   -3.4057   -5.8208    1.2352 C   0  0  0  0  0  0  0  0  0  0  0  0
   -3.7710   -4.8269    1.5103 H   0  0  0  0  0  0  0  0  0  0  0  0
   -4.2701   -6.3962    0.8815 H   0  0  0  0  0  0  0  0  0  0  0  0
   -3.0344   -6.3096    2.1397 H   0  0  0  0  0  0  0  0  0  0  0  0
    5.5974   -4.9635    1.4083 O   0  0  0  0  0  0  0  0  0  0  0  0
    5.4243   -4.3914    2.6948 C   0  0  0  0  0  0  0  0  0  0  0  0
    6.3146   -4.6596    3.2661 H   0  0  0  0  0  0  0  0  0  0  0  0
    5.3432   -3.2978    2.6448 H   0  0  0  0  0  0  0  0  0  0  0  0
    4.5372   -4.7936    3.2014 H   0  0  0  0  0  0  0  0  0  0  0  0
  1  7  1  0  0  0  0
  2  8  1  0  0  0  0
  2  1  2  0  0  0  0
  3  2  1  0  0  0  0
  4  3  2  0  0  0  0
  4  5  1  0  0  0  0
  5  6  2  0  0  0  0
  6  1  1  0  0  0  0
  6 31  1  0  0  0  0
  9  4  1  0  0  0  0
 10  5  1  0  0  0  0
 12 11  3  0  0  0  0
 13 19  1  0  0  0  0
 13 14  2  0  0  0  0
 14 20  1  0  0  0  0
 15 14  1  0  0  0  0
 15 27  1  0  0  0  0
 16 15  2  0  0  0  0
 17 18  2  0  0  0  0
 17 16  1  0  0  0  0
 18 13  1  0  0  0  0
 21 16  1  0  0  0  0
 22 17  1  0  0  0  0
 23 26  2  0  0  0  0
 23 24  1  0  0  0  0
 23 18  1  0  0  0  0
 24  3  1  0  0  0  0
 25 23  2  0  0  0  0
 27 28  1  0  0  0  0
 27 30  1  0  0  0  0
 29 27  1  0  0  0  0
 31 32  1  0  0  0  0
 32 35  1  0  0  0  0
 32 33  1  0  0  0  0
 34 32  1  0  0  0  0
M  END
