Coordinates from ORCA-job 4-MeO-Ph-N2-OTs-B3LYPG-6-31G_dp-MTMO-d009-169-n800
 OpenBabel09051908173D

 35 35  0  0  0  0  0  0  0  0999 V2000
    3.5630   -4.0145    0.6388 C   0  0  0  0  0  0  0  0  0  0  0  0
    2.6079   -3.9033   -0.3758 C   0  0  0  0  0  0  0  0  0  0  0  0
    2.8222   -4.5202   -1.6033 C   0  0  0  0  0  0  0  0  0  0  0  0
    3.9856   -5.2590   -1.8388 C   0  0  0  0  0  0  0  0  0  0  0  0
    4.9316   -5.3775   -0.8300 C   0  0  0  0  0  0  0  0  0  0  0  0
    4.7290   -4.7562    0.4134 C   0  0  0  0  0  0  0  0  0  0  0  0
    3.3870   -3.5216    1.5871 H   0  0  0  0  0  0  0  0  0  0  0  0
    1.7014   -3.3278   -0.2206 H   0  0  0  0  0  0  0  0  0  0  0  0
    4.1325   -5.7338   -2.8012 H   0  0  0  0  0  0  0  0  0  0  0  0
    5.8449   -5.9425   -0.9825 H   0  0  0  0  0  0  0  0  0  0  0  0
   -9.6512   -8.2696    0.5120 N   0  0  0  0  0  0  0  0  0  0  0  0
  -10.5995   -8.7878    0.2803 N   0  0  0  0  0  0  0  0  0  0  0  0
   -0.1595   -6.4986   -0.7043 C   0  0  0  0  0  0  0  0  0  0  0  0
   -1.1022   -6.5061    0.3235 C   0  0  0  0  0  0  0  0  0  0  0  0
   -2.1993   -5.6348    0.3088 C   0  0  0  0  0  0  0  0  0  0  0  0
   -2.3341   -4.7443   -0.7687 C   0  0  0  0  0  0  0  0  0  0  0  0
   -1.4054   -4.7205   -1.8043 C   0  0  0  0  0  0  0  0  0  0  0  0
   -0.3217   -5.6021   -1.7605 C   0  0  0  0  0  0  0  0  0  0  0  0
    0.6815   -7.1830   -0.6995 H   0  0  0  0  0  0  0  0  0  0  0  0
   -0.9839   -7.2040    1.1484 H   0  0  0  0  0  0  0  0  0  0  0  0
   -3.1823   -4.0650   -0.7981 H   0  0  0  0  0  0  0  0  0  0  0  0
   -1.5183   -4.0431   -2.6441 H   0  0  0  0  0  0  0  0  0  0  0  0
    0.8790   -5.5656   -3.0786 S   0  0  0  0  0  0  0  0  0  0  0  0
    1.8883   -4.3136   -2.6266 O   0  0  0  0  0  0  0  0  0  0  0  0
    0.2518   -5.0587   -4.2899 O   0  0  0  0  0  0  0  0  0  0  0  0
    1.6385   -6.8126   -3.0577 O   0  0  0  0  0  0  0  0  0  0  0  0
   -3.2325   -5.6670    1.4088 C   0  0  0  0  0  0  0  0  0  0  0  0
   -3.5372   -4.6573    1.7003 H   0  0  0  0  0  0  0  0  0  0  0  0
   -4.1363   -6.1942    1.0801 H   0  0  0  0  0  0  0  0  0  0  0  0
   -2.8569   -6.1800    2.2979 H   0  0  0  0  0  0  0  0  0  0  0  0
    5.7253   -4.9323    1.3286 O   0  0  0  0  0  0  0  0  0  0  0  0
    5.5835   -4.3244    2.6024 C   0  0  0  0  0  0  0  0  0  0  0  0
    6.4817   -4.5878    3.1635 H   0  0  0  0  0  0  0  0  0  0  0  0
    5.5137   -3.2316    2.5249 H   0  0  0  0  0  0  0  0  0  0  0  0
    4.7020   -4.7027    3.1365 H   0  0  0  0  0  0  0  0  0  0  0  0
  1  7  1  0  0  0  0
  2  8  1  0  0  0  0
  2  1  2  0  0  0  0
  3  2  1  0  0  0  0
  4  3  2  0  0  0  0
  4  5  1  0  0  0  0
  5  6  2  0  0  0  0
  6  1  1  0  0  0  0
  6 31  1  0  0  0  0
  9  4  1  0  0  0  0
 10  5  1  0  0  0  0
 12 11  3  0  0  0  0
 13 19  1  0  0  0  0
 13 14  2  0  0  0  0
 14 20  1  0  0  0  0
 15 14  1  0  0  0  0
 15 27  1  0  0  0  0
 16 15  2  0  0  0  0
 17 18  2  0  0  0  0
 17 16  1  0  0  0  0
 18 13  1  0  0  0  0
 21 16  1  0  0  0  0
 22 17  1  0  0  0  0
 23 26  2  0  0  0  0
 23 24  1  0  0  0  0
 23 18  1  0  0  0  0
 24  3  1  0  0  0  0
 25 23  2  0  0  0  0
 27 28  1  0  0  0  0
 27 30  1  0  0  0  0
 29 27  1  0  0  0  0
 31 32  1  0  0  0  0
 32 35  1  0  0  0  0
 32 33  1  0  0  0  0
 34 32  1  0  0  0  0
M  END
