Coordinates from ORCA-job 4-MeO-Ph-N2-OTs-B3LYPG-6-31G_dp-MTMO-d009-169-n800
 OpenBabel09051908173D

 35 35  0  0  0  0  0  0  0  0999 V2000
    2.8207   -3.8747    0.6202 C   0  0  0  0  0  0  0  0  0  0  0  0
    1.6772   -3.9167   -0.1825 C   0  0  0  0  0  0  0  0  0  0  0  0
    1.7718   -4.3285   -1.5072 C   0  0  0  0  0  0  0  0  0  0  0  0
    3.0024   -4.7087   -2.0520 C   0  0  0  0  0  0  0  0  0  0  0  0
    4.1374   -4.6776   -1.2535 C   0  0  0  0  0  0  0  0  0  0  0  0
    4.0564   -4.2594    0.0850 C   0  0  0  0  0  0  0  0  0  0  0  0
    2.7337   -3.5415    1.6469 H   0  0  0  0  0  0  0  0  0  0  0  0
    0.7129   -3.6174    0.2137 H   0  0  0  0  0  0  0  0  0  0  0  0
    3.0545   -5.0290   -3.0853 H   0  0  0  0  0  0  0  0  0  0  0  0
    5.1058   -4.9679   -1.6466 H   0  0  0  0  0  0  0  0  0  0  0  0
   -2.4877   -2.4251   -2.8860 N   0  0  0  0  0  0  0  0  0  0  0  0
   -2.0932   -1.8312   -3.7300 N   0  0  0  0  0  0  0  0  0  0  0  0
   -0.3200   -7.2711   -0.5414 C   0  0  0  0  0  0  0  0  0  0  0  0
   -0.9517   -7.7009    0.6256 C   0  0  0  0  0  0  0  0  0  0  0  0
   -2.1541   -7.1243    1.0542 C   0  0  0  0  0  0  0  0  0  0  0  0
   -2.7213   -6.0995    0.2782 C   0  0  0  0  0  0  0  0  0  0  0  0
   -2.1098   -5.6569   -0.8899 C   0  0  0  0  0  0  0  0  0  0  0  0
   -0.9076   -6.2507   -1.2881 C   0  0  0  0  0  0  0  0  0  0  0  0
    0.6037   -7.7247   -0.8808 H   0  0  0  0  0  0  0  0  0  0  0  0
   -0.5045   -8.5013    1.2086 H   0  0  0  0  0  0  0  0  0  0  0  0
   -3.6595   -5.6495    0.5909 H   0  0  0  0  0  0  0  0  0  0  0  0
   -2.5566   -4.8734   -1.4926 H   0  0  0  0  0  0  0  0  0  0  0  0
   -0.1158   -5.6905   -2.7845 S   0  0  0  0  0  0  0  0  0  0  0  0
    0.6222   -4.2706   -2.3059 O   0  0  0  0  0  0  0  0  0  0  0  0
   -1.1236   -5.2276   -3.7274 O   0  0  0  0  0  0  0  0  0  0  0  0
    0.9137   -6.6550   -3.1611 O   0  0  0  0  0  0  0  0  0  0  0  0
   -2.8280   -7.5822    2.3248 C   0  0  0  0  0  0  0  0  0  0  0  0
   -2.7501   -6.8181    3.1082 H   0  0  0  0  0  0  0  0  0  0  0  0
   -3.8947   -7.7697    2.1636 H   0  0  0  0  0  0  0  0  0  0  0  0
   -2.3765   -8.4995    2.7096 H   0  0  0  0  0  0  0  0  0  0  0  0
    5.2337   -4.2602    0.7741 O   0  0  0  0  0  0  0  0  0  0  0  0
    5.2207   -3.8398    2.1289 C   0  0  0  0  0  0  0  0  0  0  0  0
    6.2516   -3.9161    2.4780 H   0  0  0  0  0  0  0  0  0  0  0  0
    4.8836   -2.7998    2.2276 H   0  0  0  0  0  0  0  0  0  0  0  0
    4.5827   -4.4839    2.7474 H   0  0  0  0  0  0  0  0  0  0  0  0
  1  7  1  0  0  0  0
  2  8  1  0  0  0  0
  2  1  2  0  0  0  0
  3  2  1  0  0  0  0
  4  3  2  0  0  0  0
  4  5  1  0  0  0  0
  5  6  2  0  0  0  0
  6  1  1  0  0  0  0
  6 31  1  0  0  0  0
  9  4  1  0  0  0  0
 10  5  1  0  0  0  0
 12 11  3  0  0  0  0
 13 14  2  0  0  0  0
 14 15  1  0  0  0  0
 14 20  1  0  0  0  0
 15 27  1  0  0  0  0
 16 21  1  0  0  0  0
 16 15  2  0  0  0  0
 17 16  1  0  0  0  0
 18 17  2  0  0  0  0
 18 13  1  0  0  0  0
 19 13  1  0  0  0  0
 22 17  1  0  0  0  0
 23 24  1  0  0  0  0
 23 18  1  0  0  0  0
 24  3  1  0  0  0  0
 25 23  2  0  0  0  0
 26 23  2  0  0  0  0
 27 30  1  0  0  0  0
 27 28  1  0  0  0  0
 29 27  1  0  0  0  0
 31 32  1  0  0  0  0
 32 34  1  0  0  0  0
 32 33  1  0  0  0  0
 32 35  1  0  0  0  0
M  END
