Coordinates from ORCA-job 4-MeO-Ph-N2-OTs-B3LYPG-6-31G_dp-MTMO-d009-169-n800
 OpenBabel09051908173D

 35 34  0  0  0  0  0  0  0  0999 V2000
    3.9973   -2.8390    0.4141 C   0  0  0  0  0  0  0  0  0  0  0  0
    2.7461   -2.3790   -0.0570 C   0  0  0  0  0  0  0  0  0  0  0  0
    2.1558   -3.4073   -0.7358 C   0  0  0  0  0  0  0  0  0  0  0  0
    2.4639   -4.5929   -1.0256 C   0  0  0  0  0  0  0  0  0  0  0  0
    3.6905   -5.0897   -0.5824 C   0  0  0  0  0  0  0  0  0  0  0  0
    4.4582   -4.1551    0.1599 C   0  0  0  0  0  0  0  0  0  0  0  0
    4.6074   -2.1478    0.9839 H   0  0  0  0  0  0  0  0  0  0  0  0
    2.3657   -1.3815    0.1165 H   0  0  0  0  0  0  0  0  0  0  0  0
    1.1106   -5.4329   -2.2029 H   0  0  0  0  0  0  0  0  0  0  0  0
    4.0793   -6.0860   -0.7617 H   0  0  0  0  0  0  0  0  0  0  0  0
   -0.0692   -0.9822   -1.5194 N   0  0  0  0  0  0  0  0  0  0  0  0
   -0.8851   -0.6857   -2.2027 N   0  0  0  0  0  0  0  0  0  0  0  0
   -1.6775   -5.8534    0.0359 C   0  0  0  0  0  0  0  0  0  0  0  0
   -2.2119   -6.6448    1.0513 C   0  0  0  0  0  0  0  0  0  0  0  0
   -2.7737   -7.8989    0.7747 C   0  0  0  0  0  0  0  0  0  0  0  0
   -2.7991   -8.3408   -0.5569 C   0  0  0  0  0  0  0  0  0  0  0  0
   -2.2728   -7.5633   -1.5851 C   0  0  0  0  0  0  0  0  0  0  0  0
   -1.7096   -6.3232   -1.2772 C   0  0  0  0  0  0  0  0  0  0  0  0
   -1.2561   -4.8777    0.2496 H   0  0  0  0  0  0  0  0  0  0  0  0
   -2.1979   -6.2789    2.0748 H   0  0  0  0  0  0  0  0  0  0  0  0
   -3.2432   -9.3040   -0.7923 H   0  0  0  0  0  0  0  0  0  0  0  0
   -2.3107   -7.8988   -2.6158 H   0  0  0  0  0  0  0  0  0  0  0  0
   -1.0192   -5.3273   -2.5903 S   0  0  0  0  0  0  0  0  0  0  0  0
   -0.8921   -3.9495   -2.1077 O   0  0  0  0  0  0  0  0  0  0  0  0
   -1.7227   -5.6409   -3.8258 O   0  0  0  0  0  0  0  0  0  0  0  0
    0.4743   -5.9424   -2.7680 O   0  0  0  0  0  0  0  0  0  0  0  0
   -3.3228   -8.7631    1.8839 C   0  0  0  0  0  0  0  0  0  0  0  0
   -4.1689   -9.3657    1.5405 H   0  0  0  0  0  0  0  0  0  0  0  0
   -2.5582   -9.4578    2.2535 H   0  0  0  0  0  0  0  0  0  0  0  0
   -3.6556   -8.1615    2.7342 H   0  0  0  0  0  0  0  0  0  0  0  0
    5.6587   -4.6296    0.5973 O   0  0  0  0  0  0  0  0  0  0  0  0
    6.5136   -3.7668    1.3320 C   0  0  0  0  0  0  0  0  0  0  0  0
    7.4017   -4.3539    1.5692 H   0  0  0  0  0  0  0  0  0  0  0  0
    6.8085   -2.8907    0.7404 H   0  0  0  0  0  0  0  0  0  0  0  0
    6.0442   -3.4313    2.2656 H   0  0  0  0  0  0  0  0  0  0  0  0
  1  7  1  0  0  0  0
  2  8  1  0  0  0  0
  2  1  2  0  0  0  0
  3  2  1  0  0  0  0
  4  3  2  0  0  0  0
  4  5  1  0  0  0  0
  5  6  2  0  0  0  0
  6  1  1  0  0  0  0
  6 31  1  0  0  0  0
 10  5  1  0  0  0  0
 12 11  3  0  0  0  0
 13 19  1  0  0  0  0
 13 14  2  0  0  0  0
 14 20  1  0  0  0  0
 15 14  1  0  0  0  0
 15 27  1  0  0  0  0
 16 15  2  0  0  0  0
 17 18  2  0  0  0  0
 17 16  1  0  0  0  0
 18 13  1  0  0  0  0
 21 16  1  0  0  0  0
 22 17  1  0  0  0  0
 23 24  2  0  0  0  0
 23 18  1  0  0  0  0
 25 23  2  0  0  0  0
 26 23  1  0  0  0  0
 26  9  1  0  0  0  0
 27 29  1  0  0  0  0
 27 30  1  0  0  0  0
 28 27  1  0  0  0  0
 31 32  1  0  0  0  0
 32 33  1  0  0  0  0
 32 35  1  0  0  0  0
 34 32  1  0  0  0  0
M  RAD  2   3   2   4   2
M  END
