Coordinates from ORCA-job 4-MeO-Ph-N2-OTs-B3LYPG-6-31G_dp-MTMO-d009-169-n800
 OpenBabel09051908173D

 35 35  0  0  0  0  0  0  0  0999 V2000
    3.0642   -3.9807    0.8018 C   0  0  0  0  0  0  0  0  0  0  0  0
    1.9115   -3.8661    0.0199 C   0  0  0  0  0  0  0  0  0  0  0  0
    1.9583   -4.1664   -1.3371 C   0  0  0  0  0  0  0  0  0  0  0  0
    3.1500   -4.5878   -1.9355 C   0  0  0  0  0  0  0  0  0  0  0  0
    4.2933   -4.7128   -1.1581 C   0  0  0  0  0  0  0  0  0  0  0  0
    4.2605   -4.4089    0.2128 C   0  0  0  0  0  0  0  0  0  0  0  0
    3.0153   -3.7321    1.8549 H   0  0  0  0  0  0  0  0  0  0  0  0
    0.9777   -3.5302    0.4578 H   0  0  0  0  0  0  0  0  0  0  0  0
    3.1660   -4.8188   -2.9936 H   0  0  0  0  0  0  0  0  0  0  0  0
    5.2321   -5.0387   -1.5928 H   0  0  0  0  0  0  0  0  0  0  0  0
   -4.2041   -3.6636   -3.6666 N   0  0  0  0  0  0  0  0  0  0  0  0
   -4.1599   -3.4211   -4.7436 N   0  0  0  0  0  0  0  0  0  0  0  0
   -0.2534   -6.9341   -0.5395 C   0  0  0  0  0  0  0  0  0  0  0  0
   -0.9071   -7.4336    0.5854 C   0  0  0  0  0  0  0  0  0  0  0  0
   -2.1526   -6.9292    0.9855 C   0  0  0  0  0  0  0  0  0  0  0  0
   -2.7398   -5.9091    0.2208 C   0  0  0  0  0  0  0  0  0  0  0  0
   -2.1040   -5.3942   -0.9057 C   0  0  0  0  0  0  0  0  0  0  0  0
   -0.8601   -5.9137   -1.2739 C   0  0  0  0  0  0  0  0  0  0  0  0
    0.7000   -7.3377   -0.8592 H   0  0  0  0  0  0  0  0  0  0  0  0
   -0.4456   -8.2345    1.1569 H   0  0  0  0  0  0  0  0  0  0  0  0
   -3.7130   -5.5198    0.5061 H   0  0  0  0  0  0  0  0  0  0  0  0
   -2.5709   -4.6213   -1.5066 H   0  0  0  0  0  0  0  0  0  0  0  0
   -0.0363   -5.2591   -2.7127 S   0  0  0  0  0  0  0  0  0  0  0  0
    0.8053   -3.9507   -2.1038 O   0  0  0  0  0  0  0  0  0  0  0  0
   -1.0151   -4.6369   -3.5922 O   0  0  0  0  0  0  0  0  0  0  0  0
    0.9231   -6.2487   -3.1951 O   0  0  0  0  0  0  0  0  0  0  0  0
   -2.8413   -7.4595    2.2196 C   0  0  0  0  0  0  0  0  0  0  0  0
   -2.6133   -6.8354    3.0926 H   0  0  0  0  0  0  0  0  0  0  0  0
   -3.9291   -7.4649    2.0998 H   0  0  0  0  0  0  0  0  0  0  0  0
   -2.5175   -8.4773    2.4519 H   0  0  0  0  0  0  0  0  0  0  0  0
    5.4418   -4.5586    0.8784 O   0  0  0  0  0  0  0  0  0  0  0  0
    5.4757   -4.2550    2.2637 C   0  0  0  0  0  0  0  0  0  0  0  0
    6.5019   -4.4361    2.5868 H   0  0  0  0  0  0  0  0  0  0  0  0
    5.2172   -3.2055    2.4548 H   0  0  0  0  0  0  0  0  0  0  0  0
    4.7987   -4.9010    2.8371 H   0  0  0  0  0  0  0  0  0  0  0  0
  1  7  1  0  0  0  0
  2  8  1  0  0  0  0
  2  1  2  0  0  0  0
  3  2  1  0  0  0  0
  4  3  2  0  0  0  0
  4  5  1  0  0  0  0
  5  6  2  0  0  0  0
  6  1  1  0  0  0  0
  6 31  1  0  0  0  0
  9  4  1  0  0  0  0
 10  5  1  0  0  0  0
 12 11  3  0  0  0  0
 13 14  2  0  0  0  0
 14 15  1  0  0  0  0
 14 20  1  0  0  0  0
 15 27  1  0  0  0  0
 16 21  1  0  0  0  0
 16 15  2  0  0  0  0
 17 16  1  0  0  0  0
 18 17  2  0  0  0  0
 18 13  1  0  0  0  0
 19 13  1  0  0  0  0
 22 17  1  0  0  0  0
 23 24  1  0  0  0  0
 23 18  1  0  0  0  0
 24  3  1  0  0  0  0
 25 23  2  0  0  0  0
 26 23  2  0  0  0  0
 27 30  1  0  0  0  0
 27 28  1  0  0  0  0
 29 27  1  0  0  0  0
 31 32  1  0  0  0  0
 32 34  1  0  0  0  0
 32 33  1  0  0  0  0
 32 35  1  0  0  0  0
M  END
