Coordinates from ORCA-job 4-MeO-Ph-N2-OTs-B3LYPG-6-31G_dp-MTMO-d009-169-n800
 OpenBabel09051908173D

 35 35  0  0  0  0  0  0  0  0999 V2000
    3.4739   -4.0412    0.6892 C   0  0  0  0  0  0  0  0  0  0  0  0
    2.5453   -3.9102   -0.3474 C   0  0  0  0  0  0  0  0  0  0  0  0
    2.7940   -4.4988   -1.5823 C   0  0  0  0  0  0  0  0  0  0  0  0
    3.9660   -5.2286   -1.8035 C   0  0  0  0  0  0  0  0  0  0  0  0
    4.8854   -5.3669   -0.7729 C   0  0  0  0  0  0  0  0  0  0  0  0
    4.6480   -4.7744    0.4783 C   0  0  0  0  0  0  0  0  0  0  0  0
    3.2710   -3.5700    1.6431 H   0  0  0  0  0  0  0  0  0  0  0  0
    1.6331   -3.3410   -0.2033 H   0  0  0  0  0  0  0  0  0  0  0  0
    4.1400   -5.6812   -2.7721 H   0  0  0  0  0  0  0  0  0  0  0  0
    5.8045   -5.9254   -0.9140 H   0  0  0  0  0  0  0  0  0  0  0  0
   -8.6257   -7.9025    1.0066 N   0  0  0  0  0  0  0  0  0  0  0  0
   -9.6540   -8.2953    0.9075 N   0  0  0  0  0  0  0  0  0  0  0  0
   -0.1916   -6.5179   -0.8105 C   0  0  0  0  0  0  0  0  0  0  0  0
   -1.1604   -6.5612    0.1914 C   0  0  0  0  0  0  0  0  0  0  0  0
   -2.2676   -5.7024    0.1687 C   0  0  0  0  0  0  0  0  0  0  0  0
   -2.3842   -4.7867   -0.8893 C   0  0  0  0  0  0  0  0  0  0  0  0
   -1.4287   -4.7268   -1.8992 C   0  0  0  0  0  0  0  0  0  0  0  0
   -0.3365   -5.5971   -1.8485 C   0  0  0  0  0  0  0  0  0  0  0  0
    0.6569   -7.1929   -0.8003 H   0  0  0  0  0  0  0  0  0  0  0  0
   -1.0553   -7.2779    1.0019 H   0  0  0  0  0  0  0  0  0  0  0  0
   -3.2390   -4.1162   -0.9243 H   0  0  0  0  0  0  0  0  0  0  0  0
   -1.5274   -4.0297   -2.7246 H   0  0  0  0  0  0  0  0  0  0  0  0
    0.8963   -5.5170   -3.1344 S   0  0  0  0  0  0  0  0  0  0  0  0
    1.8867   -4.2716   -2.6250 O   0  0  0  0  0  0  0  0  0  0  0  0
    0.2958   -4.9816   -4.3471 O   0  0  0  0  0  0  0  0  0  0  0  0
    1.6634   -6.7596   -3.1282 O   0  0  0  0  0  0  0  0  0  0  0  0
   -3.3302   -5.7779    1.2381 C   0  0  0  0  0  0  0  0  0  0  0  0
   -3.7066   -4.7844    1.4992 H   0  0  0  0  0  0  0  0  0  0  0  0
   -4.1879   -6.3691    0.8946 H   0  0  0  0  0  0  0  0  0  0  0  0
   -2.9509   -6.2493    2.1486 H   0  0  0  0  0  0  0  0  0  0  0  0
    5.6203   -4.9681    1.4154 O   0  0  0  0  0  0  0  0  0  0  0  0
    5.4439   -4.3874    2.6975 C   0  0  0  0  0  0  0  0  0  0  0  0
    6.3279   -4.6608    3.2763 H   0  0  0  0  0  0  0  0  0  0  0  0
    5.3735   -3.2934    2.6410 H   0  0  0  0  0  0  0  0  0  0  0  0
    4.5498   -4.7784    3.2003 H   0  0  0  0  0  0  0  0  0  0  0  0
  1  7  1  0  0  0  0
  2  8  1  0  0  0  0
  2  1  2  0  0  0  0
  3  2  1  0  0  0  0
  4  3  2  0  0  0  0
  4  5  1  0  0  0  0
  5  6  2  0  0  0  0
  6  1  1  0  0  0  0
  6 31  1  0  0  0  0
  9  4  1  0  0  0  0
 10  5  1  0  0  0  0
 12 11  3  0  0  0  0
 13 19  1  0  0  0  0
 13 14  2  0  0  0  0
 14 20  1  0  0  0  0
 15 14  1  0  0  0  0
 15 27  1  0  0  0  0
 16 15  2  0  0  0  0
 17 18  2  0  0  0  0
 17 16  1  0  0  0  0
 18 13  1  0  0  0  0
 21 16  1  0  0  0  0
 22 17  1  0  0  0  0
 23 26  2  0  0  0  0
 23 24  1  0  0  0  0
 23 18  1  0  0  0  0
 24  3  1  0  0  0  0
 25 23  2  0  0  0  0
 27 28  1  0  0  0  0
 27 30  1  0  0  0  0
 29 27  1  0  0  0  0
 31 32  1  0  0  0  0
 32 35  1  0  0  0  0
 32 33  1  0  0  0  0
 34 32  1  0  0  0  0
M  END
