Coordinates from ORCA-job 4-MeO-Ph-N2-OTs-B3LYPG-6-31G_dp-MTMO-d009-169-n800
 OpenBabel09051908173D

 35 35  0  0  0  0  0  0  0  0999 V2000
    3.0892   -3.9198    0.7260 C   0  0  0  0  0  0  0  0  0  0  0  0
    2.0851   -3.9136   -0.2462 C   0  0  0  0  0  0  0  0  0  0  0  0
    2.3510   -4.3920   -1.5243 C   0  0  0  0  0  0  0  0  0  0  0  0
    3.6168   -4.8868   -1.8534 C   0  0  0  0  0  0  0  0  0  0  0  0
    4.6125   -4.9030   -0.8864 C   0  0  0  0  0  0  0  0  0  0  0  0
    4.3580   -4.4188    0.4072 C   0  0  0  0  0  0  0  0  0  0  0  0
    2.8702   -3.5355    1.7146 H   0  0  0  0  0  0  0  0  0  0  0  0
    1.0982   -3.5255   -0.0186 H   0  0  0  0  0  0  0  0  0  0  0  0
    3.8038   -5.2570   -2.8540 H   0  0  0  0  0  0  0  0  0  0  0  0
    5.6039   -5.2817   -1.1108 H   0  0  0  0  0  0  0  0  0  0  0  0
   -5.9876   -3.9051   -0.7423 N   0  0  0  0  0  0  0  0  0  0  0  0
   -6.8909   -3.3530   -1.0590 N   0  0  0  0  0  0  0  0  0  0  0  0
   -0.0832   -7.0527   -0.7507 C   0  0  0  0  0  0  0  0  0  0  0  0
   -0.9312   -7.3693    0.3100 C   0  0  0  0  0  0  0  0  0  0  0  0
   -2.1718   -6.7356    0.4623 C   0  0  0  0  0  0  0  0  0  0  0  0
   -2.5551   -5.7720   -0.4849 C   0  0  0  0  0  0  0  0  0  0  0  0
   -1.7233   -5.4420   -1.5509 C   0  0  0  0  0  0  0  0  0  0  0  0
   -0.4897   -6.0875   -1.6725 C   0  0  0  0  0  0  0  0  0  0  0  0
    0.8683   -7.5563   -0.8780 H   0  0  0  0  0  0  0  0  0  0  0  0
   -0.6263   -8.1273    1.0268 H   0  0  0  0  0  0  0  0  0  0  0  0
   -3.5203   -5.2821   -0.3925 H   0  0  0  0  0  0  0  0  0  0  0  0
   -2.0267   -4.7117   -2.2935 H   0  0  0  0  0  0  0  0  0  0  0  0
    0.5787   -5.6668   -3.0362 S   0  0  0  0  0  0  0  0  0  0  0  0
    1.3480   -4.2856   -2.4961 O   0  0  0  0  0  0  0  0  0  0  0  0
   -0.2229   -5.1784   -4.1483 O   0  0  0  0  0  0  0  0  0  0  0  0
    1.5719   -6.7251   -3.1992 O   0  0  0  0  0  0  0  0  0  0  0  0
   -3.0744   -7.0681    1.6255 C   0  0  0  0  0  0  0  0  0  0  0  0
   -2.9611   -6.3324    2.4318 H   0  0  0  0  0  0  0  0  0  0  0  0
   -4.1274   -7.0620    1.3278 H   0  0  0  0  0  0  0  0  0  0  0  0
   -2.8433   -8.0512    2.0441 H   0  0  0  0  0  0  0  0  0  0  0  0
    5.4093   -4.4757    1.2748 O   0  0  0  0  0  0  0  0  0  0  0  0
    5.2211   -3.9848    2.5924 C   0  0  0  0  0  0  0  0  0  0  0  0
    6.1750   -4.1224    3.1044 H   0  0  0  0  0  0  0  0  0  0  0  0
    4.9617   -2.9183    2.5944 H   0  0  0  0  0  0  0  0  0  0  0  0
    4.4421   -4.5441    3.1265 H   0  0  0  0  0  0  0  0  0  0  0  0
  1  7  1  0  0  0  0
  2  8  1  0  0  0  0
  2  1  2  0  0  0  0
  3  2  1  0  0  0  0
  4  3  2  0  0  0  0
  4  5  1  0  0  0  0
  5  6  2  0  0  0  0
  6  1  1  0  0  0  0
  6 31  1  0  0  0  0
  9  4  1  0  0  0  0
 10  5  1  0  0  0  0
 12 11  3  0  0  0  0
 13 14  2  0  0  0  0
 14 15  1  0  0  0  0
 14 20  1  0  0  0  0
 15 27  1  0  0  0  0
 16 21  1  0  0  0  0
 16 15  2  0  0  0  0
 17 16  1  0  0  0  0
 18 17  2  0  0  0  0
 18 13  1  0  0  0  0
 19 13  1  0  0  0  0
 22 17  1  0  0  0  0
 23 24  1  0  0  0  0
 23 18  1  0  0  0  0
 24  3  1  0  0  0  0
 25 23  2  0  0  0  0
 26 23  2  0  0  0  0
 27 30  1  0  0  0  0
 27 28  1  0  0  0  0
 29 27  1  0  0  0  0
 31 32  1  0  0  0  0
 32 34  1  0  0  0  0
 32 33  1  0  0  0  0
 32 35  1  0  0  0  0
M  END
