Coordinates from ORCA-job 4-MeO-Ph-N2-OTs-B3LYPG-6-31G_dp-MTMO-d009-169-n800
 OpenBabel09051908173D

 35 35  0  0  0  0  0  0  0  0999 V2000
    3.5521   -4.0197    0.6384 C   0  0  0  0  0  0  0  0  0  0  0  0
    2.5969   -3.9078   -0.3760 C   0  0  0  0  0  0  0  0  0  0  0  0
    2.8100   -4.5259   -1.6031 C   0  0  0  0  0  0  0  0  0  0  0  0
    3.9723   -5.2666   -1.8384 C   0  0  0  0  0  0  0  0  0  0  0  0
    4.9183   -5.3858   -0.8297 C   0  0  0  0  0  0  0  0  0  0  0  0
    4.7169   -4.7633    0.4133 C   0  0  0  0  0  0  0  0  0  0  0  0
    3.3770   -3.5259    1.5864 H   0  0  0  0  0  0  0  0  0  0  0  0
    1.6913   -3.3309   -0.2211 H   0  0  0  0  0  0  0  0  0  0  0  0
    4.1183   -5.7423   -2.8005 H   0  0  0  0  0  0  0  0  0  0  0  0
    5.8308   -5.9523   -0.9820 H   0  0  0  0  0  0  0  0  0  0  0  0
   -9.4463   -8.2320    0.4950 N   0  0  0  0  0  0  0  0  0  0  0  0
  -10.3916   -8.7532    0.2578 N   0  0  0  0  0  0  0  0  0  0  0  0
   -0.1745   -6.4992   -0.7021 C   0  0  0  0  0  0  0  0  0  0  0  0
   -1.1167   -6.5043    0.3262 C   0  0  0  0  0  0  0  0  0  0  0  0
   -2.2121   -5.6309    0.3116 C   0  0  0  0  0  0  0  0  0  0  0  0
   -2.3457   -4.7407   -0.7663 C   0  0  0  0  0  0  0  0  0  0  0  0
   -1.4175   -4.7193   -1.8024 C   0  0  0  0  0  0  0  0  0  0  0  0
   -0.3354   -5.6029   -1.7586 C   0  0  0  0  0  0  0  0  0  0  0  0
    0.6652   -7.1852   -0.6973 H   0  0  0  0  0  0  0  0  0  0  0  0
   -0.9994   -7.2020    1.1514 H   0  0  0  0  0  0  0  0  0  0  0  0
   -3.1926   -4.0598   -0.7957 H   0  0  0  0  0  0  0  0  0  0  0  0
   -1.5294   -4.0421   -2.6425 H   0  0  0  0  0  0  0  0  0  0  0  0
    0.8648   -5.5692   -3.0772 S   0  0  0  0  0  0  0  0  0  0  0  0
    1.8763   -4.3186   -2.6264 O   0  0  0  0  0  0  0  0  0  0  0  0
    0.2380   -5.0621   -4.2886 O   0  0  0  0  0  0  0  0  0  0  0  0
    1.6223   -6.8174   -3.0557 O   0  0  0  0  0  0  0  0  0  0  0  0
   -3.2447   -5.6605    1.4121 C   0  0  0  0  0  0  0  0  0  0  0  0
   -3.5493   -4.6502    1.7014 H   0  0  0  0  0  0  0  0  0  0  0  0
   -4.1487   -6.1886    1.0854 H   0  0  0  0  0  0  0  0  0  0  0  0
   -2.8686   -6.1713    2.3023 H   0  0  0  0  0  0  0  0  0  0  0  0
    5.7132   -4.9402    1.3284 O   0  0  0  0  0  0  0  0  0  0  0  0
    5.5726   -4.3312    2.6018 C   0  0  0  0  0  0  0  0  0  0  0  0
    6.4706   -4.5953    3.1629 H   0  0  0  0  0  0  0  0  0  0  0  0
    5.5042   -3.2384    2.5235 H   0  0  0  0  0  0  0  0  0  0  0  0
    4.6907   -4.7078    3.1364 H   0  0  0  0  0  0  0  0  0  0  0  0
  1  7  1  0  0  0  0
  2  8  1  0  0  0  0
  2  1  2  0  0  0  0
  3  2  1  0  0  0  0
  4  3  2  0  0  0  0
  4  5  1  0  0  0  0
  5  6  2  0  0  0  0
  6  1  1  0  0  0  0
  6 31  1  0  0  0  0
  9  4  1  0  0  0  0
 10  5  1  0  0  0  0
 12 11  3  0  0  0  0
 13 19  1  0  0  0  0
 13 14  2  0  0  0  0
 14 20  1  0  0  0  0
 15 14  1  0  0  0  0
 15 27  1  0  0  0  0
 16 15  2  0  0  0  0
 17 18  2  0  0  0  0
 17 16  1  0  0  0  0
 18 13  1  0  0  0  0
 21 16  1  0  0  0  0
 22 17  1  0  0  0  0
 23 26  2  0  0  0  0
 23 24  1  0  0  0  0
 23 18  1  0  0  0  0
 24  3  1  0  0  0  0
 25 23  2  0  0  0  0
 27 28  1  0  0  0  0
 27 30  1  0  0  0  0
 29 27  1  0  0  0  0
 31 32  1  0  0  0  0
 32 35  1  0  0  0  0
 32 33  1  0  0  0  0
 34 32  1  0  0  0  0
M  END
