Coordinates from ORCA-job 4-MeO-Ph-N2-OTs-B3LYPG-6-31G_dp-MTMO-d009-169-n800
 OpenBabel09051908173D

 35 34  0  0  0  0  0  0  0  0999 V2000
    4.3893   -2.0991   -0.2761 C   0  0  0  0  0  0  0  0  0  0  0  0
    3.1295   -1.9760   -0.8871 C   0  0  0  0  0  0  0  0  0  0  0  0
    2.4812   -3.1699   -0.9806 C   0  0  0  0  0  0  0  0  0  0  0  0
    2.7771   -4.4388   -0.6133 C   0  0  0  0  0  0  0  0  0  0  0  0
    4.0433   -4.5078   -0.0186 C   0  0  0  0  0  0  0  0  0  0  0  0
    4.8415   -3.3595    0.1557 C   0  0  0  0  0  0  0  0  0  0  0  0
    4.9886   -1.2058   -0.1517 H   0  0  0  0  0  0  0  0  0  0  0  0
    2.7385   -1.0302   -1.2364 H   0  0  0  0  0  0  0  0  0  0  0  0
    2.1279   -5.3215   -0.7684 H   0  0  0  0  0  0  0  0  0  0  0  0
    4.4222   -5.4659    0.3206 H   0  0  0  0  0  0  0  0  0  0  0  0
    0.7463   -2.9522   -1.8693 N   0  0  0  0  0  0  0  0  0  0  0  0
    0.1135   -2.3784   -2.5785 N   0  0  0  0  0  0  0  0  0  0  0  0
   -1.4367   -7.4700    0.5252 C   0  0  0  0  0  0  0  0  0  0  0  0
   -2.4810   -8.1790    1.1115 C   0  0  0  0  0  0  0  0  0  0  0  0
   -3.7338   -8.2767    0.4848 C   0  0  0  0  0  0  0  0  0  0  0  0
   -3.9098   -7.6419   -0.7504 C   0  0  0  0  0  0  0  0  0  0  0  0
   -2.8719   -6.9256   -1.3492 C   0  0  0  0  0  0  0  0  0  0  0  0
   -1.6388   -6.8424   -0.7064 C   0  0  0  0  0  0  0  0  0  0  0  0
   -0.4656   -7.4108    1.0051 H   0  0  0  0  0  0  0  0  0  0  0  0
   -2.3236   -8.6678    2.0699 H   0  0  0  0  0  0  0  0  0  0  0  0
   -4.8709   -7.7111   -1.2542 H   0  0  0  0  0  0  0  0  0  0  0  0
   -3.0018   -6.4437   -2.3118 H   0  0  0  0  0  0  0  0  0  0  0  0
   -0.3127   -5.8882   -1.4554 S   0  0  0  0  0  0  0  0  0  0  0  0
   -0.2993   -4.5866   -0.6724 O   0  0  0  0  0  0  0  0  0  0  0  0
   -0.6505   -5.6954   -2.8792 O   0  0  0  0  0  0  0  0  0  0  0  0
    0.9431   -6.6613   -1.1914 O   0  0  0  0  0  0  0  0  0  0  0  0
   -4.8513   -9.0678    1.1228 C   0  0  0  0  0  0  0  0  0  0  0  0
   -5.8063   -8.8866    0.6218 H   0  0  0  0  0  0  0  0  0  0  0  0
   -4.6523  -10.1461    1.0751 H   0  0  0  0  0  0  0  0  0  0  0  0
   -4.9707   -8.8102    2.1809 H   0  0  0  0  0  0  0  0  0  0  0  0
    6.0364   -3.5736    0.7526 O   0  0  0  0  0  0  0  0  0  0  0  0
    6.9036   -2.4662    0.9739 C   0  0  0  0  0  0  0  0  0  0  0  0
    7.7883   -2.8747    1.4620 H   0  0  0  0  0  0  0  0  0  0  0  0
    7.1976   -1.9932    0.0292 H   0  0  0  0  0  0  0  0  0  0  0  0
    6.4390   -1.7194    1.6298 H   0  0  0  0  0  0  0  0  0  0  0  0
  1  7  1  0  0  0  0
  1  6  2  0  0  0  0
  2  1  1  0  0  0  0
  3  2  2  0  0  0  0
  3  4  1  0  0  0  0
  4  5  2  0  0  0  0
  5  6  1  0  0  0  0
  5 10  1  0  0  0  0
  6 31  1  0  0  0  0
  8  2  1  0  0  0  0
  9  4  1  0  0  0  0
 12 11  3  0  0  0  0
 13 19  1  0  0  0  0
 13 14  1  0  0  0  0
 14 20  1  0  0  0  0
 15 14  2  0  0  0  0
 15 27  1  0  0  0  0
 16 15  1  0  0  0  0
 17 16  2  0  0  0  0
 17 18  1  0  0  0  0
 18 13  2  0  0  0  0
 21 16  1  0  0  0  0
 22 17  1  0  0  0  0
 23 26  2  0  0  0  0
 23 18  1  0  0  0  0
 23 24  1  0  0  0  0
 25 23  2  0  0  0  0
 27 30  1  0  0  0  0
 28 27  1  0  0  0  0
 29 27  1  0  0  0  0
 31 32  1  0  0  0  0
 32 33  1  0  0  0  0
 32 35  1  0  0  0  0
 34 32  1  0  0  0  0
M  RAD  2   3   2  24   2
M  END
