Coordinates from ORCA-job 4-MeO-Ph-N2-OTs-B3LYPG-6-31G_dp-MTMO-d009-169-n800
 OpenBabel09051908173D

 35 35  0  0  0  0  0  0  0  0999 V2000
    3.4313   -4.0580    0.7020 C   0  0  0  0  0  0  0  0  0  0  0  0
    2.4908   -3.9316   -0.3244 C   0  0  0  0  0  0  0  0  0  0  0  0
    2.7324   -4.5126   -1.5643 C   0  0  0  0  0  0  0  0  0  0  0  0
    3.9088   -5.2304   -1.8006 C   0  0  0  0  0  0  0  0  0  0  0  0
    4.8402   -5.3640   -0.7802 C   0  0  0  0  0  0  0  0  0  0  0  0
    4.6101   -4.7789    0.4758 C   0  0  0  0  0  0  0  0  0  0  0  0
    3.2339   -3.5926    1.6600 H   0  0  0  0  0  0  0  0  0  0  0  0
    1.5748   -3.3718   -0.1685 H   0  0  0  0  0  0  0  0  0  0  0  0
    4.0771   -5.6776   -2.7727 H   0  0  0  0  0  0  0  0  0  0  0  0
    5.7629   -5.9133   -0.9330 H   0  0  0  0  0  0  0  0  0  0  0  0
   -7.6023   -7.5437    0.8288 N   0  0  0  0  0  0  0  0  0  0  0  0
   -8.6084   -7.9832    0.7019 N   0  0  0  0  0  0  0  0  0  0  0  0
   -0.2662   -6.5385   -0.7790 C   0  0  0  0  0  0  0  0  0  0  0  0
   -1.2424   -6.5860    0.2157 C   0  0  0  0  0  0  0  0  0  0  0  0
   -2.3568   -5.7370    0.1813 C   0  0  0  0  0  0  0  0  0  0  0  0
   -2.4728   -4.8267   -0.8815 C   0  0  0  0  0  0  0  0  0  0  0  0
   -1.5101   -4.7626   -1.8843 C   0  0  0  0  0  0  0  0  0  0  0  0
   -0.4108   -5.6233   -1.8219 C   0  0  0  0  0  0  0  0  0  0  0  0
    0.5874   -7.2069   -0.7597 H   0  0  0  0  0  0  0  0  0  0  0  0
   -1.1373   -7.2985    1.0299 H   0  0  0  0  0  0  0  0  0  0  0  0
   -3.3329   -4.1635   -0.9260 H   0  0  0  0  0  0  0  0  0  0  0  0
   -1.6088   -4.0701   -2.7135 H   0  0  0  0  0  0  0  0  0  0  0  0
    0.8279   -5.5423   -3.1025 S   0  0  0  0  0  0  0  0  0  0  0  0
    1.8119   -4.2902   -2.5963 O   0  0  0  0  0  0  0  0  0  0  0  0
    0.2287   -5.0149   -4.3194 O   0  0  0  0  0  0  0  0  0  0  0  0
    1.6006   -6.7812   -3.0876 O   0  0  0  0  0  0  0  0  0  0  0  0
   -3.4252   -5.8142    1.2449 C   0  0  0  0  0  0  0  0  0  0  0  0
   -3.7889   -4.8192    1.5182 H   0  0  0  0  0  0  0  0  0  0  0  0
   -4.2907   -6.3889    0.8928 H   0  0  0  0  0  0  0  0  0  0  0  0
   -3.0544   -6.3017    2.1504 H   0  0  0  0  0  0  0  0  0  0  0  0
    5.5939   -4.9671    1.4020 O   0  0  0  0  0  0  0  0  0  0  0  0
    5.4249   -4.3942    2.6886 C   0  0  0  0  0  0  0  0  0  0  0  0
    6.3171   -4.6618    3.2572 H   0  0  0  0  0  0  0  0  0  0  0  0
    5.3435   -3.3006    2.6381 H   0  0  0  0  0  0  0  0  0  0  0  0
    4.5396   -4.7961    3.1984 H   0  0  0  0  0  0  0  0  0  0  0  0
  1  7  1  0  0  0  0
  2  8  1  0  0  0  0
  2  1  2  0  0  0  0
  3  2  1  0  0  0  0
  4  3  2  0  0  0  0
  4  5  1  0  0  0  0
  5  6  2  0  0  0  0
  6  1  1  0  0  0  0
  6 31  1  0  0  0  0
  9  4  1  0  0  0  0
 10  5  1  0  0  0  0
 12 11  3  0  0  0  0
 13 19  1  0  0  0  0
 13 14  2  0  0  0  0
 14 20  1  0  0  0  0
 15 14  1  0  0  0  0
 15 27  1  0  0  0  0
 16 15  2  0  0  0  0
 17 18  2  0  0  0  0
 17 16  1  0  0  0  0
 18 13  1  0  0  0  0
 21 16  1  0  0  0  0
 22 17  1  0  0  0  0
 23 26  2  0  0  0  0
 23 24  1  0  0  0  0
 23 18  1  0  0  0  0
 24  3  1  0  0  0  0
 25 23  2  0  0  0  0
 27 28  1  0  0  0  0
 27 30  1  0  0  0  0
 29 27  1  0  0  0  0
 31 32  1  0  0  0  0
 32 35  1  0  0  0  0
 32 33  1  0  0  0  0
 34 32  1  0  0  0  0
M  END
