Coordinates from ORCA-job 4-MeO-Ph-N2-OTs-B3LYPG-6-31G_dp-MTMO-d009-169-n800
 OpenBabel09051908173D

 35 34  0  0  0  0  0  0  0  0999 V2000
    4.4053   -2.3189   -0.0899 C   0  0  0  0  0  0  0  0  0  0  0  0
    3.2252   -1.8610   -0.7116 C   0  0  0  0  0  0  0  0  0  0  0  0
    2.4554   -2.9230   -1.0495 C   0  0  0  0  0  0  0  0  0  0  0  0
    2.4711   -4.2409   -0.9751 C   0  0  0  0  0  0  0  0  0  0  0  0
    3.6719   -4.6438   -0.3518 C   0  0  0  0  0  0  0  0  0  0  0  0
    4.6241   -3.7004    0.0857 C   0  0  0  0  0  0  0  0  0  0  0  0
    5.1247   -1.5804    0.2413 H   0  0  0  0  0  0  0  0  0  0  0  0
    3.0011   -0.8162   -0.8756 H   0  0  0  0  0  0  0  0  0  0  0  0
    1.6444   -5.0144   -1.3332 H   0  0  0  0  0  0  0  0  0  0  0  0
    3.8645   -5.7012   -0.1983 H   0  0  0  0  0  0  0  0  0  0  0  0
    0.7332   -2.1305   -2.0880 N   0  0  0  0  0  0  0  0  0  0  0  0
   -0.0110   -1.6122   -2.7175 N   0  0  0  0  0  0  0  0  0  0  0  0
   -2.0311   -6.2540    0.5725 C   0  0  0  0  0  0  0  0  0  0  0  0
   -2.8037   -7.1838    1.2706 C   0  0  0  0  0  0  0  0  0  0  0  0
   -3.3226   -8.3180    0.6344 C   0  0  0  0  0  0  0  0  0  0  0  0
   -3.0575   -8.4940   -0.7328 C   0  0  0  0  0  0  0  0  0  0  0  0
   -2.2919   -7.5730   -1.4425 C   0  0  0  0  0  0  0  0  0  0  0  0
   -1.7754   -6.4553   -0.7823 C   0  0  0  0  0  0  0  0  0  0  0  0
   -1.6412   -5.3670    1.0593 H   0  0  0  0  0  0  0  0  0  0  0  0
   -3.0120   -7.0214    2.3255 H   0  0  0  0  0  0  0  0  0  0  0  0
   -3.4633   -9.3615   -1.2482 H   0  0  0  0  0  0  0  0  0  0  0  0
   -2.1059   -7.7027   -2.5035 H   0  0  0  0  0  0  0  0  0  0  0  0
   -0.7611   -5.2852   -1.6923 S   0  0  0  0  0  0  0  0  0  0  0  0
   -0.6895   -4.0489   -0.8675 O   0  0  0  0  0  0  0  0  0  0  0  0
   -1.3569   -5.1455   -3.0316 O   0  0  0  0  0  0  0  0  0  0  0  0
    0.6183   -5.9585   -1.7468 O   0  0  0  0  0  0  0  0  0  0  0  0
   -4.1383   -9.3363    1.3961 C   0  0  0  0  0  0  0  0  0  0  0  0
   -5.0232   -9.6451    0.8301 H   0  0  0  0  0  0  0  0  0  0  0  0
   -3.5534  -10.2425    1.5970 H   0  0  0  0  0  0  0  0  0  0  0  0
   -4.4739   -8.9420    2.3589 H   0  0  0  0  0  0  0  0  0  0  0  0
    5.7287   -4.2240    0.6693 O   0  0  0  0  0  0  0  0  0  0  0  0
    6.7390   -3.3421    1.1449 C   0  0  0  0  0  0  0  0  0  0  0  0
    7.5154   -3.9795    1.5683 H   0  0  0  0  0  0  0  0  0  0  0  0
    7.1659   -2.7455    0.3294 H   0  0  0  0  0  0  0  0  0  0  0  0
    6.3533   -2.6746    1.9255 H   0  0  0  0  0  0  0  0  0  0  0  0
  1  6  1  0  0  0  0
  1  7  1  0  0  0  0
  2  1  2  0  0  0  0
  3  4  2  0  0  0  0
  3  2  1  0  0  0  0
  4  5  1  0  0  0  0
  5 10  1  0  0  0  0
  5  6  2  0  0  0  0
  6 31  1  0  0  0  0
  8  2  1  0  0  0  0
  9  4  1  0  0  0  0
 12 11  3  0  0  0  0
 13 19  1  0  0  0  0
 13 14  2  0  0  0  0
 14 20  1  0  0  0  0
 15 14  1  0  0  0  0
 15 27  1  0  0  0  0
 16 15  2  0  0  0  0
 17 18  2  0  0  0  0
 17 16  1  0  0  0  0
 18 13  1  0  0  0  0
 21 16  1  0  0  0  0
 22 17  1  0  0  0  0
 23 24  1  0  0  0  0
 23 18  1  0  0  0  0
 25 23  2  0  0  0  0
 26 23  2  0  0  0  0
 27 29  1  0  0  0  0
 27 30  1  0  0  0  0
 28 27  1  0  0  0  0
 31 32  1  0  0  0  0
 32 33  1  0  0  0  0
 32 35  1  0  0  0  0
 34 32  1  0  0  0  0
M  RAD  2   3   2  24   2
M  END
