Coordinates from ORCA-job 4-MeO-Ph-N2-OTs-B3LYPG-6-31G_dp-MTMO-d009-169-n800
 OpenBabel09051908173D

 35 35  0  0  0  0  0  0  0  0999 V2000
    3.6766   -3.9554    0.6100 C   0  0  0  0  0  0  0  0  0  0  0  0
    2.7049   -3.8648   -0.3908 C   0  0  0  0  0  0  0  0  0  0  0  0
    2.9103   -4.4859   -1.6177 C   0  0  0  0  0  0  0  0  0  0  0  0
    4.0813   -5.2084   -1.8663 C   0  0  0  0  0  0  0  0  0  0  0  0
    5.0438   -5.3065   -0.8710 C   0  0  0  0  0  0  0  0  0  0  0  0
    4.8502   -4.6809    0.3716 C   0  0  0  0  0  0  0  0  0  0  0  0
    3.5072   -3.4598    1.5581 H   0  0  0  0  0  0  0  0  0  0  0  0
    1.7921   -3.3023   -0.2255 H   0  0  0  0  0  0  0  0  0  0  0  0
    4.2211   -5.6867   -2.8280 H   0  0  0  0  0  0  0  0  0  0  0  0
    5.9631   -5.8587   -1.0338 H   0  0  0  0  0  0  0  0  0  0  0  0
  -11.6075   -8.6209    0.3109 N   0  0  0  0  0  0  0  0  0  0  0  0
  -12.5555   -9.1391    0.0776 N   0  0  0  0  0  0  0  0  0  0  0  0
   -0.0258   -6.5019   -0.6599 C   0  0  0  0  0  0  0  0  0  0  0  0
   -0.9529   -6.5164    0.3823 C   0  0  0  0  0  0  0  0  0  0  0  0
   -2.0636   -5.6627    0.3779 C   0  0  0  0  0  0  0  0  0  0  0  0
   -2.2291   -4.7830   -0.7045 C   0  0  0  0  0  0  0  0  0  0  0  0
   -1.3167   -4.7525   -1.7541 C   0  0  0  0  0  0  0  0  0  0  0  0
   -0.2182   -5.6164   -1.7200 C   0  0  0  0  0  0  0  0  0  0  0  0
    0.8257   -7.1730   -0.6627 H   0  0  0  0  0  0  0  0  0  0  0  0
   -0.8112   -7.2061    1.2103 H   0  0  0  0  0  0  0  0  0  0  0  0
   -3.0888   -4.1181   -0.7265 H   0  0  0  0  0  0  0  0  0  0  0  0
   -1.4533   -4.0839   -2.5974 H   0  0  0  0  0  0  0  0  0  0  0  0
    0.9617   -5.5708   -3.0565 S   0  0  0  0  0  0  0  0  0  0  0  0
    1.9580   -4.3003   -2.6279 O   0  0  0  0  0  0  0  0  0  0  0  0
    0.3084   -5.0820   -4.2615 O   0  0  0  0  0  0  0  0  0  0  0  0
    1.7406   -6.8058   -3.0386 O   0  0  0  0  0  0  0  0  0  0  0  0
   -3.0783   -5.6991    1.4948 C   0  0  0  0  0  0  0  0  0  0  0  0
   -3.3444   -4.6901    1.8248 H   0  0  0  0  0  0  0  0  0  0  0  0
   -4.0049   -6.1842    1.1654 H   0  0  0  0  0  0  0  0  0  0  0  0
   -2.7042   -6.2528    2.3598 H   0  0  0  0  0  0  0  0  0  0  0  0
    5.8624   -4.8366    1.2729 O   0  0  0  0  0  0  0  0  0  0  0  0
    5.7303   -4.2235    2.5453 C   0  0  0  0  0  0  0  0  0  0  0  0
    6.6403   -4.4708    3.0947 H   0  0  0  0  0  0  0  0  0  0  0  0
    5.6437   -3.1323    2.4629 H   0  0  0  0  0  0  0  0  0  0  0  0
    4.8621   -4.6113    3.0942 H   0  0  0  0  0  0  0  0  0  0  0  0
  1  7  1  0  0  0  0
  2  8  1  0  0  0  0
  2  1  2  0  0  0  0
  3  2  1  0  0  0  0
  4  3  2  0  0  0  0
  4  5  1  0  0  0  0
  5  6  2  0  0  0  0
  6  1  1  0  0  0  0
  6 31  1  0  0  0  0
  9  4  1  0  0  0  0
 10  5  1  0  0  0  0
 12 11  3  0  0  0  0
 13 14  2  0  0  0  0
 14 20  1  0  0  0  0
 15 14  1  0  0  0  0
 15 27  1  0  0  0  0
 16 15  2  0  0  0  0
 17 18  2  0  0  0  0
 17 16  1  0  0  0  0
 18 13  1  0  0  0  0
 19 13  1  0  0  0  0
 21 16  1  0  0  0  0
 22 17  1  0  0  0  0
 23 26  2  0  0  0  0
 23 24  1  0  0  0  0
 23 18  1  0  0  0  0
 24  3  1  0  0  0  0
 25 23  2  0  0  0  0
 27 28  1  0  0  0  0
 27 30  1  0  0  0  0
 29 27  1  0  0  0  0
 31 32  1  0  0  0  0
 32 35  1  0  0  0  0
 32 33  1  0  0  0  0
 34 32  1  0  0  0  0
M  END
