Coordinates from ORCA-job 4-MeO-Ph-N2-OTs-B3LYPG-6-31G_dp-MTMO-d009-169-n800
 OpenBabel09051908173D

 35 35  0  0  0  0  0  0  0  0999 V2000
    3.6357   -3.9773    0.6205 C   0  0  0  0  0  0  0  0  0  0  0  0
    2.6699   -3.8792   -0.3852 C   0  0  0  0  0  0  0  0  0  0  0  0
    2.8784   -4.4989   -1.6124 C   0  0  0  0  0  0  0  0  0  0  0  0
    4.0466   -5.2275   -1.8562 C   0  0  0  0  0  0  0  0  0  0  0  0
    5.0032   -5.3330   -0.8560 C   0  0  0  0  0  0  0  0  0  0  0  0
    4.8065   -4.7089    0.3869 C   0  0  0  0  0  0  0  0  0  0  0  0
    3.4641   -3.4825    1.5687 H   0  0  0  0  0  0  0  0  0  0  0  0
    1.7595   -3.3118   -0.2236 H   0  0  0  0  0  0  0  0  0  0  0  0
    4.1889   -5.7047   -2.8181 H   0  0  0  0  0  0  0  0  0  0  0  0
    5.9203   -5.8900   -1.0151 H   0  0  0  0  0  0  0  0  0  0  0  0
  -10.8915   -8.4985    0.3817 N   0  0  0  0  0  0  0  0  0  0  0  0
  -11.8415   -9.0139    0.1505 N   0  0  0  0  0  0  0  0  0  0  0  0
   -0.0754   -6.5002   -0.6754 C   0  0  0  0  0  0  0  0  0  0  0  0
   -1.0084   -6.5116    0.3614 C   0  0  0  0  0  0  0  0  0  0  0  0
   -2.1139   -5.6511    0.3528 C   0  0  0  0  0  0  0  0  0  0  0  0
   -2.2678   -4.7676   -0.7281 C   0  0  0  0  0  0  0  0  0  0  0  0
   -1.3492   -4.7401   -1.7725 C   0  0  0  0  0  0  0  0  0  0  0  0
   -0.2563   -5.6109   -1.7344 C   0  0  0  0  0  0  0  0  0  0  0  0
    0.7721   -7.1765   -0.6752 H   0  0  0  0  0  0  0  0  0  0  0  0
   -0.8756   -7.2042    1.1885 H   0  0  0  0  0  0  0  0  0  0  0  0
   -3.1230   -4.0972   -0.7532 H   0  0  0  0  0  0  0  0  0  0  0  0
   -1.4768   -4.0685   -2.6148 H   0  0  0  0  0  0  0  0  0  0  0  0
    0.9313   -5.5693   -3.0641 S   0  0  0  0  0  0  0  0  0  0  0  0
    1.9327   -4.3056   -2.6274 O   0  0  0  0  0  0  0  0  0  0  0  0
    0.2878   -5.0742   -4.2718 O   0  0  0  0  0  0  0  0  0  0  0  0
    1.7029   -6.8089   -3.0446 O   0  0  0  0  0  0  0  0  0  0  0  0
   -3.1356   -5.6853    1.4634 C   0  0  0  0  0  0  0  0  0  0  0  0
   -3.4134   -4.6756    1.7811 H   0  0  0  0  0  0  0  0  0  0  0  0
   -4.0552   -6.1830    1.1329 H   0  0  0  0  0  0  0  0  0  0  0  0
   -2.7622   -6.2266    2.3364 H   0  0  0  0  0  0  0  0  0  0  0  0
    5.8130   -4.8720    1.2932 O   0  0  0  0  0  0  0  0  0  0  0  0
    5.6776   -4.2607    2.5661 C   0  0  0  0  0  0  0  0  0  0  0  0
    6.5833   -4.5139    3.1198 H   0  0  0  0  0  0  0  0  0  0  0  0
    5.5971   -3.1689    2.4854 H   0  0  0  0  0  0  0  0  0  0  0  0
    4.8045   -4.6450    3.1097 H   0  0  0  0  0  0  0  0  0  0  0  0
  1  7  1  0  0  0  0
  2  8  1  0  0  0  0
  2  1  2  0  0  0  0
  3  2  1  0  0  0  0
  4  3  2  0  0  0  0
  4  5  1  0  0  0  0
  5  6  2  0  0  0  0
  6  1  1  0  0  0  0
  6 31  1  0  0  0  0
  9  4  1  0  0  0  0
 10  5  1  0  0  0  0
 12 11  3  0  0  0  0
 13 19  1  0  0  0  0
 13 14  2  0  0  0  0
 14 20  1  0  0  0  0
 15 14  1  0  0  0  0
 15 27  1  0  0  0  0
 16 15  2  0  0  0  0
 17 18  2  0  0  0  0
 17 16  1  0  0  0  0
 18 13  1  0  0  0  0
 21 16  1  0  0  0  0
 22 17  1  0  0  0  0
 23 26  2  0  0  0  0
 23 24  1  0  0  0  0
 23 18  1  0  0  0  0
 24  3  1  0  0  0  0
 25 23  2  0  0  0  0
 27 28  1  0  0  0  0
 27 30  1  0  0  0  0
 29 27  1  0  0  0  0
 31 32  1  0  0  0  0
 32 35  1  0  0  0  0
 32 33  1  0  0  0  0
 34 32  1  0  0  0  0
M  END
