Coordinates from ORCA-job 4-MeO-Ph-N2-OTs-B3LYPG-6-31G_dp-MTMO-d009-169-n800
 OpenBabel09051908173D

 35 35  0  0  0  0  0  0  0  0999 V2000
    3.0755   -3.9864    0.8103 C   0  0  0  0  0  0  0  0  0  0  0  0
    1.9213   -3.8635    0.0319 C   0  0  0  0  0  0  0  0  0  0  0  0
    1.9643   -4.1540   -1.3273 C   0  0  0  0  0  0  0  0  0  0  0  0
    3.1536   -4.5738   -1.9315 C   0  0  0  0  0  0  0  0  0  0  0  0
    4.2984   -4.7070   -1.1576 C   0  0  0  0  0  0  0  0  0  0  0  0
    4.2694   -4.4131    0.2155 C   0  0  0  0  0  0  0  0  0  0  0  0
    3.0296   -3.7453    1.8653 H   0  0  0  0  0  0  0  0  0  0  0  0
    0.9893   -3.5285    0.4744 H   0  0  0  0  0  0  0  0  0  0  0  0
    3.1668   -4.7971   -2.9913 H   0  0  0  0  0  0  0  0  0  0  0  0
    5.2355   -5.0320   -1.5969 H   0  0  0  0  0  0  0  0  0  0  0  0
   -4.2539   -3.7522   -3.6988 N   0  0  0  0  0  0  0  0  0  0  0  0
   -4.2084   -3.5431   -4.7828 N   0  0  0  0  0  0  0  0  0  0  0  0
   -0.2556   -6.9172   -0.5407 C   0  0  0  0  0  0  0  0  0  0  0  0
   -0.9107   -7.4216    0.5812 C   0  0  0  0  0  0  0  0  0  0  0  0
   -2.1564   -6.9185    0.9824 C   0  0  0  0  0  0  0  0  0  0  0  0
   -2.7424   -5.8946    0.2219 C   0  0  0  0  0  0  0  0  0  0  0  0
   -2.1052   -5.3747   -0.9015 C   0  0  0  0  0  0  0  0  0  0  0  0
   -0.8611   -5.8930   -1.2709 C   0  0  0  0  0  0  0  0  0  0  0  0
    0.6978   -7.3199   -0.8614 H   0  0  0  0  0  0  0  0  0  0  0  0
   -0.4501   -8.2253    1.1494 H   0  0  0  0  0  0  0  0  0  0  0  0
   -3.7158   -5.5062    0.5080 H   0  0  0  0  0  0  0  0  0  0  0  0
   -2.5708   -4.5989   -1.4996 H   0  0  0  0  0  0  0  0  0  0  0  0
   -0.0362   -5.2321   -2.7061 S   0  0  0  0  0  0  0  0  0  0  0  0
    0.8100   -3.9302   -2.0898 O   0  0  0  0  0  0  0  0  0  0  0  0
   -1.0139   -4.6016   -3.5809 O   0  0  0  0  0  0  0  0  0  0  0  0
    0.9198   -6.2218   -3.1954 O   0  0  0  0  0  0  0  0  0  0  0  0
   -2.8466   -7.4542    2.2133 C   0  0  0  0  0  0  0  0  0  0  0  0
   -2.6209   -6.8332    3.0891 H   0  0  0  0  0  0  0  0  0  0  0  0
   -3.9342   -7.4605    2.0915 H   0  0  0  0  0  0  0  0  0  0  0  0
   -2.5220   -8.4726    2.4424 H   0  0  0  0  0  0  0  0  0  0  0  0
    5.4518   -4.5705    0.8774 O   0  0  0  0  0  0  0  0  0  0  0  0
    5.4893   -4.2785    2.2650 C   0  0  0  0  0  0  0  0  0  0  0  0
    6.5156   -4.4651    2.5846 H   0  0  0  0  0  0  0  0  0  0  0  0
    5.2341   -3.2298    2.4654 H   0  0  0  0  0  0  0  0  0  0  0  0
    4.8116   -4.9272    2.8344 H   0  0  0  0  0  0  0  0  0  0  0  0
  1  7  1  0  0  0  0
  2  8  1  0  0  0  0
  2  1  2  0  0  0  0
  3  2  1  0  0  0  0
  4  3  2  0  0  0  0
  4  5  1  0  0  0  0
  5  6  2  0  0  0  0
  6  1  1  0  0  0  0
  6 31  1  0  0  0  0
  9  4  1  0  0  0  0
 10  5  1  0  0  0  0
 12 11  3  0  0  0  0
 13 14  2  0  0  0  0
 14 15  1  0  0  0  0
 14 20  1  0  0  0  0
 15 27  1  0  0  0  0
 16 21  1  0  0  0  0
 16 15  2  0  0  0  0
 17 16  1  0  0  0  0
 18 17  2  0  0  0  0
 18 13  1  0  0  0  0
 19 13  1  0  0  0  0
 22 17  1  0  0  0  0
 23 24  1  0  0  0  0
 23 18  1  0  0  0  0
 24  3  1  0  0  0  0
 25 23  2  0  0  0  0
 26 23  2  0  0  0  0
 27 30  1  0  0  0  0
 27 28  1  0  0  0  0
 29 27  1  0  0  0  0
 31 32  1  0  0  0  0
 32 34  1  0  0  0  0
 32 33  1  0  0  0  0
 32 35  1  0  0  0  0
M  END
