Coordinates from ORCA-job 4-MeO-Ph-N2-OTs-B3LYPG-6-31G_dp-MTMO-d009-169-n800
 OpenBabel09051908173D

 35 35  0  0  0  0  0  0  0  0999 V2000
    3.1394   -3.9232    0.7083 C   0  0  0  0  0  0  0  0  0  0  0  0
    2.1599   -3.9094   -0.2886 C   0  0  0  0  0  0  0  0  0  0  0  0
    2.4421   -4.4260   -1.5483 C   0  0  0  0  0  0  0  0  0  0  0  0
    3.6998   -4.9663   -1.8341 C   0  0  0  0  0  0  0  0  0  0  0  0
    4.6707   -4.9898   -0.8424 C   0  0  0  0  0  0  0  0  0  0  0  0
    4.3996   -4.4680    0.4332 C   0  0  0  0  0  0  0  0  0  0  0  0
    2.9082   -3.5093    1.6822 H   0  0  0  0  0  0  0  0  0  0  0  0
    1.1802   -3.4864   -0.0949 H   0  0  0  0  0  0  0  0  0  0  0  0
    3.8997   -5.3652   -2.8210 H   0  0  0  0  0  0  0  0  0  0  0  0
    5.6552   -5.4031   -1.0331 H   0  0  0  0  0  0  0  0  0  0  0  0
   -6.3160   -4.4396   -0.2766 N   0  0  0  0  0  0  0  0  0  0  0  0
   -7.3293   -4.0286   -0.4358 N   0  0  0  0  0  0  0  0  0  0  0  0
   -0.0857   -6.9701   -0.7557 C   0  0  0  0  0  0  0  0  0  0  0  0
   -0.9713   -7.2348    0.2875 C   0  0  0  0  0  0  0  0  0  0  0  0
   -2.2092   -6.5814    0.3732 C   0  0  0  0  0  0  0  0  0  0  0  0
   -2.5485   -5.6527   -0.6231 C   0  0  0  0  0  0  0  0  0  0  0  0
   -1.6776   -5.3735   -1.6735 C   0  0  0  0  0  0  0  0  0  0  0  0
   -0.4494   -6.0367   -1.7283 C   0  0  0  0  0  0  0  0  0  0  0  0
    0.8624   -7.4898   -0.8323 H   0  0  0  0  0  0  0  0  0  0  0  0
   -0.6996   -7.9678    1.0427 H   0  0  0  0  0  0  0  0  0  0  0  0
   -3.5115   -5.1520   -0.5800 H   0  0  0  0  0  0  0  0  0  0  0  0
   -1.9476   -4.6700   -2.4538 H   0  0  0  0  0  0  0  0  0  0  0  0
    0.6681   -5.6844   -3.0719 S   0  0  0  0  0  0  0  0  0  0  0  0
    1.4668   -4.3136   -2.5472 O   0  0  0  0  0  0  0  0  0  0  0  0
   -0.0878   -5.2020   -4.2180 O   0  0  0  0  0  0  0  0  0  0  0  0
    1.6318   -6.7766   -3.1793 O   0  0  0  0  0  0  0  0  0  0  0  0
   -3.1506   -6.8591    1.5200 C   0  0  0  0  0  0  0  0  0  0  0  0
   -2.9205   -6.2163    2.3788 H   0  0  0  0  0  0  0  0  0  0  0  0
   -4.1900   -6.6674    1.2392 H   0  0  0  0  0  0  0  0  0  0  0  0
   -3.0721   -7.8957    1.8602 H   0  0  0  0  0  0  0  0  0  0  0  0
    5.4269   -4.5367    1.3282 O   0  0  0  0  0  0  0  0  0  0  0  0
    5.2212   -4.0107    2.6295 C   0  0  0  0  0  0  0  0  0  0  0  0
    6.1572   -4.1664    3.1688 H   0  0  0  0  0  0  0  0  0  0  0  0
    4.9954   -2.9370    2.6017 H   0  0  0  0  0  0  0  0  0  0  0  0
    4.4118   -4.5336    3.1553 H   0  0  0  0  0  0  0  0  0  0  0  0
  1  7  1  0  0  0  0
  2  8  1  0  0  0  0
  2  1  2  0  0  0  0
  3  2  1  0  0  0  0
  4  3  2  0  0  0  0
  4  5  1  0  0  0  0
  5  6  2  0  0  0  0
  6  1  1  0  0  0  0
  6 31  1  0  0  0  0
  9  4  1  0  0  0  0
 10  5  1  0  0  0  0
 12 11  3  0  0  0  0
 13 14  2  0  0  0  0
 14 15  1  0  0  0  0
 14 20  1  0  0  0  0
 15 27  1  0  0  0  0
 16 21  1  0  0  0  0
 16 15  2  0  0  0  0
 17 16  1  0  0  0  0
 18 17  2  0  0  0  0
 18 13  1  0  0  0  0
 19 13  1  0  0  0  0
 22 17  1  0  0  0  0
 23 24  1  0  0  0  0
 23 18  1  0  0  0  0
 24  3  1  0  0  0  0
 25 23  2  0  0  0  0
 26 23  2  0  0  0  0
 27 30  1  0  0  0  0
 27 28  1  0  0  0  0
 29 27  1  0  0  0  0
 31 32  1  0  0  0  0
 32 35  1  0  0  0  0
 32 33  1  0  0  0  0
 34 32  1  0  0  0  0
M  END
