Coordinates from ORCA-job 4-MeO-Ph-N2-OTs-B3LYPG-6-31G_dp-MTMO-d009-169-n800
 OpenBabel09051908173D

 35 35  0  0  0  0  0  0  0  0999 V2000
    3.7419   -3.9068    0.5934 C   0  0  0  0  0  0  0  0  0  0  0  0
    2.7609   -3.8331   -0.3996 C   0  0  0  0  0  0  0  0  0  0  0  0
    2.9657   -4.4538   -1.6269 C   0  0  0  0  0  0  0  0  0  0  0  0
    4.1455   -5.1590   -1.8835 C   0  0  0  0  0  0  0  0  0  0  0  0
    5.1173   -5.2404   -0.8959 C   0  0  0  0  0  0  0  0  0  0  0  0
    4.9243   -4.6152    0.3470 C   0  0  0  0  0  0  0  0  0  0  0  0
    3.5728   -3.4118    1.5419 H   0  0  0  0  0  0  0  0  0  0  0  0
    1.8411   -3.2841   -0.2281 H   0  0  0  0  0  0  0  0  0  0  0  0
    4.2847   -5.6373   -2.8453 H   0  0  0  0  0  0  0  0  0  0  0  0
    6.0434   -5.7793   -1.0649 H   0  0  0  0  0  0  0  0  0  0  0  0
  -12.9197   -8.7567    0.2064 N   0  0  0  0  0  0  0  0  0  0  0  0
  -13.8676   -9.2750   -0.0270 N   0  0  0  0  0  0  0  0  0  0  0  0
    0.0787   -6.5160   -0.6382 C   0  0  0  0  0  0  0  0  0  0  0  0
   -0.8375   -6.5460    0.4134 C   0  0  0  0  0  0  0  0  0  0  0  0
   -1.9652   -5.7151    0.4176 C   0  0  0  0  0  0  0  0  0  0  0  0
   -2.1595   -4.8424   -0.6659 C   0  0  0  0  0  0  0  0  0  0  0  0
   -1.2583   -4.7966   -1.7245 C   0  0  0  0  0  0  0  0  0  0  0  0
   -0.1421   -5.6380   -1.6988 C   0  0  0  0  0  0  0  0  0  0  0  0
    0.9434   -7.1699   -0.6476 H   0  0  0  0  0  0  0  0  0  0  0  0
   -0.6738   -7.2303    1.2418 H   0  0  0  0  0  0  0  0  0  0  0  0
   -3.0331   -4.1957   -0.6817 H   0  0  0  0  0  0  0  0  0  0  0  0
   -1.4172   -4.1341   -2.5687 H   0  0  0  0  0  0  0  0  0  0  0  0
    1.0231   -5.5730   -3.0473 S   0  0  0  0  0  0  0  0  0  0  0  0
    2.0020   -4.2855   -2.6293 O   0  0  0  0  0  0  0  0  0  0  0  0
    0.3494   -5.0962   -4.2458 O   0  0  0  0  0  0  0  0  0  0  0  0
    1.8232   -6.7944   -3.0369 O   0  0  0  0  0  0  0  0  0  0  0  0
   -2.9668   -5.7656    1.5459 C   0  0  0  0  0  0  0  0  0  0  0  0
   -3.2111   -4.7614    1.9067 H   0  0  0  0  0  0  0  0  0  0  0  0
   -3.9058   -6.2249    1.2152 H   0  0  0  0  0  0  0  0  0  0  0  0
   -2.5914   -6.3486    2.3907 H   0  0  0  0  0  0  0  0  0  0  0  0
    5.9458   -4.7540    1.2406 O   0  0  0  0  0  0  0  0  0  0  0  0
    5.8148   -4.1402    2.5127 C   0  0  0  0  0  0  0  0  0  0  0  0
    6.7322   -4.3737    3.0557 H   0  0  0  0  0  0  0  0  0  0  0  0
    5.7125   -3.0504    2.4288 H   0  0  0  0  0  0  0  0  0  0  0  0
    4.9562   -4.5387    3.0689 H   0  0  0  0  0  0  0  0  0  0  0  0
  1  7  1  0  0  0  0
  2  8  1  0  0  0  0
  2  1  2  0  0  0  0
  3  2  1  0  0  0  0
  4  3  2  0  0  0  0
  4  5  1  0  0  0  0
  5  6  2  0  0  0  0
  6  1  1  0  0  0  0
  6 31  1  0  0  0  0
  9  4  1  0  0  0  0
 10  5  1  0  0  0  0
 12 11  3  0  0  0  0
 13 14  2  0  0  0  0
 14 15  1  0  0  0  0
 14 20  1  0  0  0  0
 15 27  1  0  0  0  0
 16 15  2  0  0  0  0
 17 18  2  0  0  0  0
 17 16  1  0  0  0  0
 18 13  1  0  0  0  0
 19 13  1  0  0  0  0
 21 16  1  0  0  0  0
 22 17  1  0  0  0  0
 23 26  2  0  0  0  0
 23 24  1  0  0  0  0
 23 18  1  0  0  0  0
 24  3  1  0  0  0  0
 25 23  2  0  0  0  0
 27 28  1  0  0  0  0
 27 30  1  0  0  0  0
 29 27  1  0  0  0  0
 31 32  1  0  0  0  0
 32 33  1  0  0  0  0
 32 35  1  0  0  0  0
 34 32  1  0  0  0  0
M  END
