Coordinates from ORCA-job 4-MeO-Ph-N2-OTs-B3LYPG-6-31G_dp-MTMO-d009-169-n800
 OpenBabel09051908173D

 35 35  0  0  0  0  0  0  0  0999 V2000
    3.3013   -3.9689    0.6831 C   0  0  0  0  0  0  0  0  0  0  0  0
    2.3439   -3.9202   -0.3342 C   0  0  0  0  0  0  0  0  0  0  0  0
    2.6156   -4.4902   -1.5730 C   0  0  0  0  0  0  0  0  0  0  0  0
    3.8406   -5.1186   -1.8176 C   0  0  0  0  0  0  0  0  0  0  0  0
    4.7892   -5.1759   -0.8058 C   0  0  0  0  0  0  0  0  0  0  0  0
    4.5282   -4.6018    0.4492 C   0  0  0  0  0  0  0  0  0  0  0  0
    3.0791   -3.5135    1.6403 H   0  0  0  0  0  0  0  0  0  0  0  0
    1.3902   -3.4292   -0.1724 H   0  0  0  0  0  0  0  0  0  0  0  0
    4.0325   -5.5581   -2.7887 H   0  0  0  0  0  0  0  0  0  0  0  0
    5.7484   -5.6564   -0.9648 H   0  0  0  0  0  0  0  0  0  0  0  0
   -7.2385   -5.7721    0.2970 N   0  0  0  0  0  0  0  0  0  0  0  0
   -8.3381   -5.8397    0.2093 N   0  0  0  0  0  0  0  0  0  0  0  0
   -0.1342   -6.7639   -0.7289 C   0  0  0  0  0  0  0  0  0  0  0  0
   -1.0760   -6.9122    0.2879 C   0  0  0  0  0  0  0  0  0  0  0  0
   -2.2787   -6.1912    0.2761 C   0  0  0  0  0  0  0  0  0  0  0  0
   -2.5230   -5.3136   -0.7916 C   0  0  0  0  0  0  0  0  0  0  0  0
   -1.5949   -5.1489   -1.8166 C   0  0  0  0  0  0  0  0  0  0  0  0
   -0.4041   -5.8782   -1.7736 C   0  0  0  0  0  0  0  0  0  0  0  0
    0.7857   -7.3372   -0.7295 H   0  0  0  0  0  0  0  0  0  0  0  0
   -0.8765   -7.6068    1.0999 H   0  0  0  0  0  0  0  0  0  0  0  0
   -3.4578   -4.7608   -0.8251 H   0  0  0  0  0  0  0  0  0  0  0  0
   -1.7928   -4.4850   -2.6512 H   0  0  0  0  0  0  0  0  0  0  0  0
    0.7850   -5.6768   -3.0868 S   0  0  0  0  0  0  0  0  0  0  0  0
    1.6689   -4.3461   -2.5952 O   0  0  0  0  0  0  0  0  0  0  0  0
    0.1087   -5.1960   -4.2822 O   0  0  0  0  0  0  0  0  0  0  0  0
    1.6651   -6.8420   -3.1050 O   0  0  0  0  0  0  0  0  0  0  0  0
   -3.2816   -6.3435    1.3935 C   0  0  0  0  0  0  0  0  0  0  0  0
   -3.1013   -5.6033    2.1834 H   0  0  0  0  0  0  0  0  0  0  0  0
   -4.3056   -6.1968    1.0382 H   0  0  0  0  0  0  0  0  0  0  0  0
   -3.2177   -7.3330    1.8549 H   0  0  0  0  0  0  0  0  0  0  0  0
    5.5316   -4.7114    1.3669 O   0  0  0  0  0  0  0  0  0  0  0  0
    5.3330   -4.1440    2.6518 C   0  0  0  0  0  0  0  0  0  0  0  0
    6.2464   -4.3449    3.2143 H   0  0  0  0  0  0  0  0  0  0  0  0
    5.1748   -3.0592    2.5961 H   0  0  0  0  0  0  0  0  0  0  0  0
    4.4822   -4.6038    3.1711 H   0  0  0  0  0  0  0  0  0  0  0  0
  1  7  1  0  0  0  0
  2  8  1  0  0  0  0
  2  1  2  0  0  0  0
  3  2  1  0  0  0  0
  4  3  2  0  0  0  0
  4  5  1  0  0  0  0
  5  6  2  0  0  0  0
  6  1  1  0  0  0  0
  6 31  1  0  0  0  0
  9  4  1  0  0  0  0
 10  5  1  0  0  0  0
 12 11  3  0  0  0  0
 13 14  2  0  0  0  0
 14 20  1  0  0  0  0
 15 14  1  0  0  0  0
 15 27  1  0  0  0  0
 16 15  2  0  0  0  0
 17 18  2  0  0  0  0
 17 16  1  0  0  0  0
 18 13  1  0  0  0  0
 19 13  1  0  0  0  0
 21 16  1  0  0  0  0
 22 17  1  0  0  0  0
 23 24  1  0  0  0  0
 23 18  1  0  0  0  0
 24  3  1  0  0  0  0
 25 23  2  0  0  0  0
 26 23  2  0  0  0  0
 27 30  1  0  0  0  0
 27 28  1  0  0  0  0
 29 27  1  0  0  0  0
 31 32  1  0  0  0  0
 32 35  1  0  0  0  0
 32 33  1  0  0  0  0
 34 32  1  0  0  0  0
M  END
