Coordinates from ORCA-job 4-MeO-Ph-N2-OTs-B3LYPG-6-31G_dp-MTMO-d009-169-n800
 OpenBabel09051908173D

 35 35  0  0  0  0  0  0  0  0999 V2000
    3.0842   -3.9454    0.7668 C   0  0  0  0  0  0  0  0  0  0  0  0
    2.0204   -3.8926   -0.1383 C   0  0  0  0  0  0  0  0  0  0  0  0
    2.2064   -4.2972   -1.4555 C   0  0  0  0  0  0  0  0  0  0  0  0
    3.4506   -4.7638   -1.8911 C   0  0  0  0  0  0  0  0  0  0  0  0
    4.5057   -4.8267   -0.9911 C   0  0  0  0  0  0  0  0  0  0  0  0
    4.3320   -4.4171    0.3411 C   0  0  0  0  0  0  0  0  0  0  0  0
    2.9272   -3.6170    1.7869 H   0  0  0  0  0  0  0  0  0  0  0  0
    1.0485   -3.5248    0.1725 H   0  0  0  0  0  0  0  0  0  0  0  0
    3.5752   -5.0770   -2.9204 H   0  0  0  0  0  0  0  0  0  0  0  0
    5.4822   -5.1851   -1.2986 H   0  0  0  0  0  0  0  0  0  0  0  0
   -5.3509   -3.7970   -1.9250 N   0  0  0  0  0  0  0  0  0  0  0  0
   -6.1211   -3.3606   -2.5864 N   0  0  0  0  0  0  0  0  0  0  0  0
   -0.1348   -7.0121   -0.6791 C   0  0  0  0  0  0  0  0  0  0  0  0
   -0.9060   -7.4033    0.4147 C   0  0  0  0  0  0  0  0  0  0  0  0
   -2.1507   -6.8142    0.6734 C   0  0  0  0  0  0  0  0  0  0  0  0
   -2.6169   -5.8187   -0.2007 C   0  0  0  0  0  0  0  0  0  0  0  0
   -1.8629   -5.4135   -1.2974 C   0  0  0  0  0  0  0  0  0  0  0  0
   -0.6227   -6.0161   -1.5252 C   0  0  0  0  0  0  0  0  0  0  0  0
    0.8200   -7.4806   -0.8887 H   0  0  0  0  0  0  0  0  0  0  0  0
   -0.5363   -8.1849    1.0730 H   0  0  0  0  0  0  0  0  0  0  0  0
   -3.5872   -5.3617   -0.0287 H   0  0  0  0  0  0  0  0  0  0  0  0
   -2.2337   -4.6575   -1.9812 H   0  0  0  0  0  0  0  0  0  0  0  0
    0.3498   -5.4988   -2.9267 S   0  0  0  0  0  0  0  0  0  0  0  0
    1.1423   -4.1442   -2.3535 O   0  0  0  0  0  0  0  0  0  0  0  0
   -0.5273   -4.9530   -3.9517 O   0  0  0  0  0  0  0  0  0  0  0  0
    1.3391   -6.5325   -3.2188 O   0  0  0  0  0  0  0  0  0  0  0  0
   -2.9723   -7.2275    1.8699 C   0  0  0  0  0  0  0  0  0  0  0  0
   -2.8942   -6.4853    2.6745 H   0  0  0  0  0  0  0  0  0  0  0  0
   -4.0330   -7.3150    1.6141 H   0  0  0  0  0  0  0  0  0  0  0  0
   -2.6388   -8.1868    2.2734 H   0  0  0  0  0  0  0  0  0  0  0  0
    5.4367   -4.5142    1.1358 O   0  0  0  0  0  0  0  0  0  0  0  0
    5.3295   -4.1060    2.4901 C   0  0  0  0  0  0  0  0  0  0  0  0
    6.3153   -4.2626    2.9310 H   0  0  0  0  0  0  0  0  0  0  0  0
    5.0622   -3.0446    2.5742 H   0  0  0  0  0  0  0  0  0  0  0  0
    4.5913   -4.7060    3.0376 H   0  0  0  0  0  0  0  0  0  0  0  0
  1  7  1  0  0  0  0
  2  8  1  0  0  0  0
  2  1  2  0  0  0  0
  3  2  1  0  0  0  0
  4  3  2  0  0  0  0
  4  5  1  0  0  0  0
  5  6  2  0  0  0  0
  6  1  1  0  0  0  0
  6 31  1  0  0  0  0
  9  4  1  0  0  0  0
 10  5  1  0  0  0  0
 12 11  3  0  0  0  0
 13 14  2  0  0  0  0
 14 15  1  0  0  0  0
 14 20  1  0  0  0  0
 15 27  1  0  0  0  0
 16 21  1  0  0  0  0
 16 15  2  0  0  0  0
 17 16  1  0  0  0  0
 18 17  2  0  0  0  0
 18 13  1  0  0  0  0
 19 13  1  0  0  0  0
 22 17  1  0  0  0  0
 23 24  1  0  0  0  0
 23 18  1  0  0  0  0
 24  3  1  0  0  0  0
 25 23  2  0  0  0  0
 26 23  2  0  0  0  0
 27 30  1  0  0  0  0
 27 28  1  0  0  0  0
 29 27  1  0  0  0  0
 31 32  1  0  0  0  0
 32 34  1  0  0  0  0
 32 33  1  0  0  0  0
 32 35  1  0  0  0  0
M  END
