Coordinates from ORCA-job 4-MeO-Ph-N2-OTs-B3LYPG-6-31G_dp-MTMO-d009-169-n800
 OpenBabel09051908173D

 35 35  0  0  0  0  0  0  0  0999 V2000
    3.5931   -4.0035    0.6277 C   0  0  0  0  0  0  0  0  0  0  0  0
    2.6323   -3.8968   -0.3820 C   0  0  0  0  0  0  0  0  0  0  0  0
    2.8406   -4.5178   -1.6086 C   0  0  0  0  0  0  0  0  0  0  0  0
    4.0036   -5.2562   -1.8478 C   0  0  0  0  0  0  0  0  0  0  0  0
    4.9551   -5.3702   -0.8437 C   0  0  0  0  0  0  0  0  0  0  0  0
    4.7586   -4.7448    0.3986 C   0  0  0  0  0  0  0  0  0  0  0  0
    3.4217   -3.5076    1.5753 H   0  0  0  0  0  0  0  0  0  0  0  0
    1.7260   -3.3219   -0.2240 H   0  0  0  0  0  0  0  0  0  0  0  0
    4.1458   -5.7342   -2.8094 H   0  0  0  0  0  0  0  0  0  0  0  0
    5.8682   -5.9348   -0.9992 H   0  0  0  0  0  0  0  0  0  0  0  0
  -10.0955   -8.3896    0.4283 N   0  0  0  0  0  0  0  0  0  0  0  0
  -11.0363   -8.9163    0.1848 N   0  0  0  0  0  0  0  0  0  0  0  0
   -0.1357   -6.4952   -0.6862 C   0  0  0  0  0  0  0  0  0  0  0  0
   -1.0725   -6.4986    0.3470 C   0  0  0  0  0  0  0  0  0  0  0  0
   -2.1689   -5.6264    0.3359 C   0  0  0  0  0  0  0  0  0  0  0  0
   -2.3093   -4.7393   -0.7438 C   0  0  0  0  0  0  0  0  0  0  0  0
   -1.3865   -4.7197   -1.7848 C   0  0  0  0  0  0  0  0  0  0  0  0
   -0.3031   -5.6020   -1.7443 C   0  0  0  0  0  0  0  0  0  0  0  0
    0.7048   -7.1802   -0.6839 H   0  0  0  0  0  0  0  0  0  0  0  0
   -0.9502   -7.1940    1.1734 H   0  0  0  0  0  0  0  0  0  0  0  0
   -3.1571   -4.0595   -0.7706 H   0  0  0  0  0  0  0  0  0  0  0  0
   -1.5037   -4.0450   -2.6262 H   0  0  0  0  0  0  0  0  0  0  0  0
    0.8902   -5.5702   -3.0691 S   0  0  0  0  0  0  0  0  0  0  0  0
    1.9011   -4.3158   -2.6275 O   0  0  0  0  0  0  0  0  0  0  0  0
    0.2562   -5.0686   -4.2790 O   0  0  0  0  0  0  0  0  0  0  0  0
    1.6506   -6.8167   -3.0473 O   0  0  0  0  0  0  0  0  0  0  0  0
   -3.1954   -5.6532    1.4422 C   0  0  0  0  0  0  0  0  0  0  0  0
   -3.4871   -4.6417    1.7409 H   0  0  0  0  0  0  0  0  0  0  0  0
   -4.1072   -6.1684    1.1167 H   0  0  0  0  0  0  0  0  0  0  0  0
   -2.8197   -6.1747    2.3263 H   0  0  0  0  0  0  0  0  0  0  0  0
    5.7600   -4.9166    1.3089 O   0  0  0  0  0  0  0  0  0  0  0  0
    5.6245   -4.3045    2.5814 C   0  0  0  0  0  0  0  0  0  0  0  0
    6.5261   -4.5650    3.1386 H   0  0  0  0  0  0  0  0  0  0  0  0
    5.5530   -3.2121    2.5006 H   0  0  0  0  0  0  0  0  0  0  0  0
    4.7463   -4.6820    3.1216 H   0  0  0  0  0  0  0  0  0  0  0  0
  1  7  1  0  0  0  0
  2  8  1  0  0  0  0
  2  1  2  0  0  0  0
  3  2  1  0  0  0  0
  4  3  2  0  0  0  0
  4  5  1  0  0  0  0
  5  6  2  0  0  0  0
  6  1  1  0  0  0  0
  6 31  1  0  0  0  0
  9  4  1  0  0  0  0
 10  5  1  0  0  0  0
 12 11  3  0  0  0  0
 13 19  1  0  0  0  0
 13 14  2  0  0  0  0
 14 20  1  0  0  0  0
 15 14  1  0  0  0  0
 15 27  1  0  0  0  0
 16 15  2  0  0  0  0
 17 18  2  0  0  0  0
 17 16  1  0  0  0  0
 18 13  1  0  0  0  0
 21 16  1  0  0  0  0
 22 17  1  0  0  0  0
 23 26  2  0  0  0  0
 23 24  1  0  0  0  0
 23 18  1  0  0  0  0
 24  3  1  0  0  0  0
 25 23  2  0  0  0  0
 27 28  1  0  0  0  0
 27 30  1  0  0  0  0
 29 27  1  0  0  0  0
 31 32  1  0  0  0  0
 32 35  1  0  0  0  0
 32 33  1  0  0  0  0
 34 32  1  0  0  0  0
M  END
