Coordinates from ORCA-job 4-MeO-Ph-N2-OTs-B3LYPG-6-31G_dp-MTMO-d009-169-n800
 OpenBabel09051908173D

 35 35  0  0  0  0  0  0  0  0999 V2000
    3.7159   -3.9263    0.6025 C   0  0  0  0  0  0  0  0  0  0  0  0
    2.7397   -3.8452   -0.3947 C   0  0  0  0  0  0  0  0  0  0  0  0
    2.9462   -4.4651   -1.6221 C   0  0  0  0  0  0  0  0  0  0  0  0
    4.1230   -5.1768   -1.8747 C   0  0  0  0  0  0  0  0  0  0  0  0
    5.0900   -5.2654   -0.8829 C   0  0  0  0  0  0  0  0  0  0  0  0
    4.8952   -4.6410    0.3601 C   0  0  0  0  0  0  0  0  0  0  0  0
    3.5454   -3.4317    1.5510 H   0  0  0  0  0  0  0  0  0  0  0  0
    1.8223   -3.2911   -0.2263 H   0  0  0  0  0  0  0  0  0  0  0  0
    4.2637   -5.6543   -2.8366 H   0  0  0  0  0  0  0  0  0  0  0  0
    6.0138   -5.8093   -1.0488 H   0  0  0  0  0  0  0  0  0  0  0  0
  -12.4063   -8.7042    0.2691 N   0  0  0  0  0  0  0  0  0  0  0  0
  -13.3561   -9.2204    0.0387 N   0  0  0  0  0  0  0  0  0  0  0  0
    0.0384   -6.5099   -0.6506 C   0  0  0  0  0  0  0  0  0  0  0  0
   -0.8838   -6.5348    0.3958 C   0  0  0  0  0  0  0  0  0  0  0  0
   -2.0052   -5.6953    0.3953 C   0  0  0  0  0  0  0  0  0  0  0  0
   -2.1868   -4.8193   -0.6876 C   0  0  0  0  0  0  0  0  0  0  0  0
   -1.2794   -4.7785   -1.7413 C   0  0  0  0  0  0  0  0  0  0  0  0
   -0.1699   -5.6284   -1.7109 C   0  0  0  0  0  0  0  0  0  0  0  0
    0.8982   -7.1704   -0.6564 H   0  0  0  0  0  0  0  0  0  0  0  0
   -0.7298   -7.2216    1.2240 H   0  0  0  0  0  0  0  0  0  0  0  0
   -3.0551   -4.1657   -0.7070 H   0  0  0  0  0  0  0  0  0  0  0  0
   -1.4285   -4.1132   -2.5850 H   0  0  0  0  0  0  0  0  0  0  0  0
    1.0031   -5.5700   -3.0529 S   0  0  0  0  0  0  0  0  0  0  0  0
    1.9882   -4.2894   -2.6286 O   0  0  0  0  0  0  0  0  0  0  0  0
    0.3391   -5.0878   -4.2547 O   0  0  0  0  0  0  0  0  0  0  0  0
    1.7951   -6.7968   -3.0392 O   0  0  0  0  0  0  0  0  0  0  0  0
   -3.0139   -5.7415    1.5173 C   0  0  0  0  0  0  0  0  0  0  0  0
   -3.2696   -4.7356    1.8649 H   0  0  0  0  0  0  0  0  0  0  0  0
   -3.9465   -6.2132    1.1854 H   0  0  0  0  0  0  0  0  0  0  0  0
   -2.6395   -6.3118    2.3712 H   0  0  0  0  0  0  0  0  0  0  0  0
    5.9120   -4.7870    1.2578 O   0  0  0  0  0  0  0  0  0  0  0  0
    5.7790   -4.1746    2.5304 C   0  0  0  0  0  0  0  0  0  0  0  0
    6.6929   -4.4139    3.0769 H   0  0  0  0  0  0  0  0  0  0  0  0
    5.6828   -3.0842    2.4479 H   0  0  0  0  0  0  0  0  0  0  0  0
    4.9160   -4.5695    3.0824 H   0  0  0  0  0  0  0  0  0  0  0  0
  1  7  1  0  0  0  0
  2  8  1  0  0  0  0
  2  1  2  0  0  0  0
  3  2  1  0  0  0  0
  4  3  2  0  0  0  0
  4  5  1  0  0  0  0
  5  6  2  0  0  0  0
  6  1  1  0  0  0  0
  6 31  1  0  0  0  0
  9  4  1  0  0  0  0
 10  5  1  0  0  0  0
 12 11  3  0  0  0  0
 13 14  2  0  0  0  0
 14 20  1  0  0  0  0
 15 14  1  0  0  0  0
 15 27  1  0  0  0  0
 16 15  2  0  0  0  0
 17 18  2  0  0  0  0
 17 16  1  0  0  0  0
 18 13  1  0  0  0  0
 19 13  1  0  0  0  0
 21 16  1  0  0  0  0
 22 17  1  0  0  0  0
 23 26  2  0  0  0  0
 23 24  1  0  0  0  0
 23 18  1  0  0  0  0
 24  3  1  0  0  0  0
 25 23  2  0  0  0  0
 27 28  1  0  0  0  0
 27 30  1  0  0  0  0
 29 27  1  0  0  0  0
 31 32  1  0  0  0  0
 32 33  1  0  0  0  0
 32 35  1  0  0  0  0
 34 32  1  0  0  0  0
M  END
