Coordinates from ORCA-job 4-MeO-Ph-N2-OTs-B3LYPG-6-31G_dp-MTMO-d009-169-n800
 OpenBabel09051908173D

 35 35  0  0  0  0  0  0  0  0999 V2000
    2.9298   -3.9229    0.6947 C   0  0  0  0  0  0  0  0  0  0  0  0
    1.7860   -3.9029   -0.1082 C   0  0  0  0  0  0  0  0  0  0  0  0
    1.8663   -4.2826   -1.4435 C   0  0  0  0  0  0  0  0  0  0  0  0
    3.0829   -4.6915   -1.9988 C   0  0  0  0  0  0  0  0  0  0  0  0
    4.2178   -4.7224   -1.2000 C   0  0  0  0  0  0  0  0  0  0  0  0
    4.1513   -4.3372    0.1491 C   0  0  0  0  0  0  0  0  0  0  0  0
    2.8543   -3.6135    1.7298 H   0  0  0  0  0  0  0  0  0  0  0  0
    0.8328   -3.5795    0.2960 H   0  0  0  0  0  0  0  0  0  0  0  0
    3.1244   -4.9857   -3.0403 H   0  0  0  0  0  0  0  0  0  0  0  0
    5.1755   -5.0362   -1.6013 H   0  0  0  0  0  0  0  0  0  0  0  0
   -3.3759   -2.8096   -3.2146 N   0  0  0  0  0  0  0  0  0  0  0  0
   -3.1750   -2.2838   -4.1653 N   0  0  0  0  0  0  0  0  0  0  0  0
   -0.2665   -7.1281   -0.5284 C   0  0  0  0  0  0  0  0  0  0  0  0
   -0.9084   -7.5769    0.6254 C   0  0  0  0  0  0  0  0  0  0  0  0
   -2.1401   -7.0424    1.0252 C   0  0  0  0  0  0  0  0  0  0  0  0
   -2.7267   -6.0421    0.2325 C   0  0  0  0  0  0  0  0  0  0  0  0
   -2.1044   -5.5797   -0.9228 C   0  0  0  0  0  0  0  0  0  0  0  0
   -0.8728   -6.1300   -1.2911 C   0  0  0  0  0  0  0  0  0  0  0  0
    0.6784   -7.5526   -0.8463 H   0  0  0  0  0  0  0  0  0  0  0  0
   -0.4466   -8.3601    1.2205 H   0  0  0  0  0  0  0  0  0  0  0  0
   -3.6886   -5.6273    0.5205 H   0  0  0  0  0  0  0  0  0  0  0  0
   -2.5685   -4.8200   -1.5426 H   0  0  0  0  0  0  0  0  0  0  0  0
   -0.0636   -5.5392   -2.7658 S   0  0  0  0  0  0  0  0  0  0  0  0
    0.7191   -4.1613   -2.2384 O   0  0  0  0  0  0  0  0  0  0  0  0
   -1.0574   -5.0128   -3.6902 O   0  0  0  0  0  0  0  0  0  0  0  0
    0.9369   -6.5198   -3.1777 O   0  0  0  0  0  0  0  0  0  0  0  0
   -2.8239   -7.5197    2.2834 C   0  0  0  0  0  0  0  0  0  0  0  0
   -2.7561   -6.7653    3.0773 H   0  0  0  0  0  0  0  0  0  0  0  0
   -3.8879   -7.7100    2.1103 H   0  0  0  0  0  0  0  0  0  0  0  0
   -2.3711   -8.4395    2.6611 H   0  0  0  0  0  0  0  0  0  0  0  0
    5.3274   -4.3980    0.8377 O   0  0  0  0  0  0  0  0  0  0  0  0
    5.3285   -4.0104    2.2022 C   0  0  0  0  0  0  0  0  0  0  0  0
    6.3562   -4.1303    2.5487 H   0  0  0  0  0  0  0  0  0  0  0  0
    5.0267   -2.9624    2.3263 H   0  0  0  0  0  0  0  0  0  0  0  0
    4.6689   -4.6474    2.8053 H   0  0  0  0  0  0  0  0  0  0  0  0
  1  7  1  0  0  0  0
  2  8  1  0  0  0  0
  2  1  2  0  0  0  0
  3  2  1  0  0  0  0
  4  3  2  0  0  0  0
  4  5  1  0  0  0  0
  5  6  2  0  0  0  0
  6  1  1  0  0  0  0
  6 31  1  0  0  0  0
  9  4  1  0  0  0  0
 10  5  1  0  0  0  0
 12 11  3  0  0  0  0
 13 14  2  0  0  0  0
 14 15  1  0  0  0  0
 14 20  1  0  0  0  0
 15 27  1  0  0  0  0
 16 21  1  0  0  0  0
 16 15  2  0  0  0  0
 17 16  1  0  0  0  0
 18 17  2  0  0  0  0
 18 13  1  0  0  0  0
 19 13  1  0  0  0  0
 22 17  1  0  0  0  0
 23 24  1  0  0  0  0
 23 18  1  0  0  0  0
 24  3  1  0  0  0  0
 25 23  2  0  0  0  0
 26 23  2  0  0  0  0
 27 30  1  0  0  0  0
 27 28  1  0  0  0  0
 29 27  1  0  0  0  0
 31 32  1  0  0  0  0
 32 34  1  0  0  0  0
 32 33  1  0  0  0  0
 32 35  1  0  0  0  0
M  END
