Coordinates from ORCA-job 4-MeO-Ph-N2-OTs-B3LYPG-6-31G_dp-MTMO-d009-169-n800
 OpenBabel09051908173D

 35 35  0  0  0  0  0  0  0  0999 V2000
    3.4123   -4.0660    0.6853 C   0  0  0  0  0  0  0  0  0  0  0  0
    2.4646   -3.9432   -0.3348 C   0  0  0  0  0  0  0  0  0  0  0  0
    2.6913   -4.5397   -1.5703 C   0  0  0  0  0  0  0  0  0  0  0  0
    3.8600   -5.2695   -1.8082 C   0  0  0  0  0  0  0  0  0  0  0  0
    4.7985   -5.3995   -0.7939 C   0  0  0  0  0  0  0  0  0  0  0  0
    4.5834   -4.7989    0.4574 C   0  0  0  0  0  0  0  0  0  0  0  0
    3.2266   -3.5888    1.6397 H   0  0  0  0  0  0  0  0  0  0  0  0
    1.5543   -3.3744   -0.1777 H   0  0  0  0  0  0  0  0  0  0  0  0
    4.0165   -5.7286   -2.7767 H   0  0  0  0  0  0  0  0  0  0  0  0
    5.7156   -5.9579   -0.9482 H   0  0  0  0  0  0  0  0  0  0  0  0
   -7.1408   -7.5379    0.5327 N   0  0  0  0  0  0  0  0  0  0  0  0
   -8.0989   -8.0418    0.3101 N   0  0  0  0  0  0  0  0  0  0  0  0
   -0.3098   -6.5350   -0.7337 C   0  0  0  0  0  0  0  0  0  0  0  0
   -1.2722   -6.5615    0.2751 C   0  0  0  0  0  0  0  0  0  0  0  0
   -2.3763   -5.6989    0.2491 C   0  0  0  0  0  0  0  0  0  0  0  0
   -2.4966   -4.7970   -0.8207 C   0  0  0  0  0  0  0  0  0  0  0  0
   -1.5478   -4.7540   -1.8376 C   0  0  0  0  0  0  0  0  0  0  0  0
   -0.4581   -5.6275   -1.7827 C   0  0  0  0  0  0  0  0  0  0  0  0
    0.5361   -7.2133   -0.7203 H   0  0  0  0  0  0  0  0  0  0  0  0
   -1.1643   -7.2678    1.0943 H   0  0  0  0  0  0  0  0  0  0  0  0
   -3.3491   -4.1238   -0.8589 H   0  0  0  0  0  0  0  0  0  0  0  0
   -1.6498   -4.0678   -2.6716 H   0  0  0  0  0  0  0  0  0  0  0  0
    0.7650   -5.5704   -3.0793 S   0  0  0  0  0  0  0  0  0  0  0  0
    1.7643   -4.3212   -2.5972 O   0  0  0  0  0  0  0  0  0  0  0  0
    0.1558   -5.0507   -4.2945 O   0  0  0  0  0  0  0  0  0  0  0  0
    1.5279   -6.8154   -3.0610 O   0  0  0  0  0  0  0  0  0  0  0  0
   -3.4296   -5.7518    1.3289 C   0  0  0  0  0  0  0  0  0  0  0  0
   -3.7636   -4.7483    1.6095 H   0  0  0  0  0  0  0  0  0  0  0  0
   -4.3146   -6.3031    0.9889 H   0  0  0  0  0  0  0  0  0  0  0  0
   -3.0570   -6.2501    2.2277 H   0  0  0  0  0  0  0  0  0  0  0  0
    5.5734   -4.9849    1.3776 O   0  0  0  0  0  0  0  0  0  0  0  0
    5.4190   -4.3974    2.6595 C   0  0  0  0  0  0  0  0  0  0  0  0
    6.3139   -4.6657    3.2236 H   0  0  0  0  0  0  0  0  0  0  0  0
    5.3451   -3.3039    2.5983 H   0  0  0  0  0  0  0  0  0  0  0  0
    4.5350   -4.7875    3.1806 H   0  0  0  0  0  0  0  0  0  0  0  0
  1  7  1  0  0  0  0
  2  8  1  0  0  0  0
  2  1  2  0  0  0  0
  3  2  1  0  0  0  0
  4  3  2  0  0  0  0
  4  5  1  0  0  0  0
  5  6  2  0  0  0  0
  6  1  1  0  0  0  0
  6 31  1  0  0  0  0
  9  4  1  0  0  0  0
 10  5  1  0  0  0  0
 12 11  3  0  0  0  0
 13 19  1  0  0  0  0
 13 14  2  0  0  0  0
 14 20  1  0  0  0  0
 15 14  1  0  0  0  0
 15 27  1  0  0  0  0
 16 15  2  0  0  0  0
 17 18  2  0  0  0  0
 17 16  1  0  0  0  0
 18 13  1  0  0  0  0
 21 16  1  0  0  0  0
 22 17  1  0  0  0  0
 23 26  2  0  0  0  0
 23 24  1  0  0  0  0
 23 18  1  0  0  0  0
 24  3  1  0  0  0  0
 25 23  2  0  0  0  0
 27 28  1  0  0  0  0
 27 30  1  0  0  0  0
 29 27  1  0  0  0  0
 31 32  1  0  0  0  0
 32 35  1  0  0  0  0
 32 33  1  0  0  0  0
 34 32  1  0  0  0  0
M  END
