Coordinates from ORCA-job 4-MeO-Ph-N2-OTs-B3LYPG-6-31G_dp-MTMO-d009-169-n800
 OpenBabel09051908173D

 35 35  0  0  0  0  0  0  0  0999 V2000
    3.6754   -3.9571    0.6093 C   0  0  0  0  0  0  0  0  0  0  0  0
    2.7034   -3.8661   -0.3912 C   0  0  0  0  0  0  0  0  0  0  0  0
    2.9079   -4.4878   -1.6180 C   0  0  0  0  0  0  0  0  0  0  0  0
    4.0784   -5.2112   -1.8668 C   0  0  0  0  0  0  0  0  0  0  0  0
    5.0411   -5.3096   -0.8718 C   0  0  0  0  0  0  0  0  0  0  0  0
    4.8484   -4.6834    0.3707 C   0  0  0  0  0  0  0  0  0  0  0  0
    3.5067   -3.4609    1.5572 H   0  0  0  0  0  0  0  0  0  0  0  0
    1.7910   -3.3030   -0.2258 H   0  0  0  0  0  0  0  0  0  0  0  0
    4.2175   -5.6900   -2.8284 H   0  0  0  0  0  0  0  0  0  0  0  0
    5.9600   -5.8625   -1.0347 H   0  0  0  0  0  0  0  0  0  0  0  0
  -11.5694   -8.6207    0.3034 N   0  0  0  0  0  0  0  0  0  0  0  0
  -12.5161   -9.1406    0.0684 N   0  0  0  0  0  0  0  0  0  0  0  0
   -0.0298   -6.5012   -0.6584 C   0  0  0  0  0  0  0  0  0  0  0  0
   -0.9564   -6.5144    0.3841 C   0  0  0  0  0  0  0  0  0  0  0  0
   -2.0662   -5.6594    0.3799 C   0  0  0  0  0  0  0  0  0  0  0  0
   -2.2311   -4.7798   -0.7026 C   0  0  0  0  0  0  0  0  0  0  0  0
   -1.3190   -4.7506   -1.7526 C   0  0  0  0  0  0  0  0  0  0  0  0
   -0.2215   -5.6158   -1.7187 C   0  0  0  0  0  0  0  0  0  0  0  0
    0.8210   -7.1733   -0.6614 H   0  0  0  0  0  0  0  0  0  0  0  0
   -0.8153   -7.2041    1.2122 H   0  0  0  0  0  0  0  0  0  0  0  0
   -3.0900   -4.1138   -0.7245 H   0  0  0  0  0  0  0  0  0  0  0  0
   -1.4553   -4.0821   -2.5960 H   0  0  0  0  0  0  0  0  0  0  0  0
    0.9579   -5.5718   -3.0556 S   0  0  0  0  0  0  0  0  0  0  0  0
    1.9554   -4.3019   -2.6280 O   0  0  0  0  0  0  0  0  0  0  0  0
    0.3047   -5.0830   -4.2606 O   0  0  0  0  0  0  0  0  0  0  0  0
    1.7359   -6.8074   -3.0374 O   0  0  0  0  0  0  0  0  0  0  0  0
   -3.0805   -5.6943    1.4973 C   0  0  0  0  0  0  0  0  0  0  0  0
   -3.3460   -4.6848    1.8264 H   0  0  0  0  0  0  0  0  0  0  0  0
   -4.0074   -6.1794    1.1688 H   0  0  0  0  0  0  0  0  0  0  0  0
   -2.7062   -6.2473    2.3626 H   0  0  0  0  0  0  0  0  0  0  0  0
    5.8608   -4.8394    1.2716 O   0  0  0  0  0  0  0  0  0  0  0  0
    5.7296   -4.2258    2.5439 C   0  0  0  0  0  0  0  0  0  0  0  0
    6.6396   -4.4735    3.0930 H   0  0  0  0  0  0  0  0  0  0  0  0
    5.6437   -3.1346    2.4611 H   0  0  0  0  0  0  0  0  0  0  0  0
    4.8614   -4.6128    3.0932 H   0  0  0  0  0  0  0  0  0  0  0  0
  1  7  1  0  0  0  0
  2  8  1  0  0  0  0
  2  1  2  0  0  0  0
  3  2  1  0  0  0  0
  4  3  2  0  0  0  0
  4  5  1  0  0  0  0
  5  6  2  0  0  0  0
  6  1  1  0  0  0  0
  6 31  1  0  0  0  0
  9  4  1  0  0  0  0
 10  5  1  0  0  0  0
 12 11  3  0  0  0  0
 13 14  2  0  0  0  0
 14 20  1  0  0  0  0
 15 14  1  0  0  0  0
 15 27  1  0  0  0  0
 16 15  2  0  0  0  0
 17 18  2  0  0  0  0
 17 16  1  0  0  0  0
 18 13  1  0  0  0  0
 19 13  1  0  0  0  0
 21 16  1  0  0  0  0
 22 17  1  0  0  0  0
 23 26  2  0  0  0  0
 23 24  1  0  0  0  0
 23 18  1  0  0  0  0
 24  3  1  0  0  0  0
 25 23  2  0  0  0  0
 27 28  1  0  0  0  0
 27 30  1  0  0  0  0
 29 27  1  0  0  0  0
 31 32  1  0  0  0  0
 32 33  1  0  0  0  0
 32 35  1  0  0  0  0
 34 32  1  0  0  0  0
M  END
