Coordinates from ORCA-job 4-MeO-Ph-N2-OTs-B3LYPG-6-31G_dp-MTMO-d009-169-n800
 OpenBabel09051908173D

 35 35  0  0  0  0  0  0  0  0999 V2000
    3.0881   -3.9299    0.7401 C   0  0  0  0  0  0  0  0  0  0  0  0
    2.0641   -3.9094   -0.2108 C   0  0  0  0  0  0  0  0  0  0  0  0
    2.3055   -4.3615   -1.5033 C   0  0  0  0  0  0  0  0  0  0  0  0
    3.5662   -4.8439   -1.8682 C   0  0  0  0  0  0  0  0  0  0  0  0
    4.5819   -4.8742   -0.9225 C   0  0  0  0  0  0  0  0  0  0  0  0
    4.3522   -4.4166    0.3854 C   0  0  0  0  0  0  0  0  0  0  0  0
    2.8882   -3.5656    1.7403 H   0  0  0  0  0  0  0  0  0  0  0  0
    1.0804   -3.5304    0.0447 H   0  0  0  0  0  0  0  0  0  0  0  0
    3.7339   -5.1939   -2.8794 H   0  0  0  0  0  0  0  0  0  0  0  0
    5.5699   -5.2439   -1.1747 H   0  0  0  0  0  0  0  0  0  0  0  0
   -5.8368   -3.8380   -1.1004 N   0  0  0  0  0  0  0  0  0  0  0  0
   -6.6818   -3.3605   -1.6288 N   0  0  0  0  0  0  0  0  0  0  0  0
   -0.1012   -7.0518   -0.7334 C   0  0  0  0  0  0  0  0  0  0  0  0
   -0.9240   -7.3925    0.3398 C   0  0  0  0  0  0  0  0  0  0  0  0
   -2.1604   -6.7630    0.5355 C   0  0  0  0  0  0  0  0  0  0  0  0
   -2.5656   -5.7782   -0.3805 C   0  0  0  0  0  0  0  0  0  0  0  0
   -1.7595   -5.4243   -1.4580 C   0  0  0  0  0  0  0  0  0  0  0  0
   -0.5292   -6.0664   -1.6231 C   0  0  0  0  0  0  0  0  0  0  0  0
    0.8473   -7.5516   -0.8941 H   0  0  0  0  0  0  0  0  0  0  0  0
   -0.6021   -8.1661    1.0319 H   0  0  0  0  0  0  0  0  0  0  0  0
   -3.5281   -5.2902   -0.2554 H   0  0  0  0  0  0  0  0  0  0  0  0
   -2.0803   -4.6772   -2.1763 H   0  0  0  0  0  0  0  0  0  0  0  0
    0.5068   -5.6146   -3.0018 S   0  0  0  0  0  0  0  0  0  0  0  0
    1.2821   -4.2408   -2.4519 O   0  0  0  0  0  0  0  0  0  0  0  0
   -0.3214   -5.1082   -4.0860 O   0  0  0  0  0  0  0  0  0  0  0  0
    1.5004   -6.6651   -3.2072 O   0  0  0  0  0  0  0  0  0  0  0  0
   -3.0368   -7.1223    1.7105 C   0  0  0  0  0  0  0  0  0  0  0  0
   -2.9445   -6.3771    2.5108 H   0  0  0  0  0  0  0  0  0  0  0  0
   -4.0924   -7.1591    1.4240 H   0  0  0  0  0  0  0  0  0  0  0  0
   -2.7636   -8.0930    2.1323 H   0  0  0  0  0  0  0  0  0  0  0  0
    5.4216   -4.4854    1.2296 O   0  0  0  0  0  0  0  0  0  0  0  0
    5.2584   -4.0238    2.5611 C   0  0  0  0  0  0  0  0  0  0  0  0
    6.2234   -4.1668    3.0501 H   0  0  0  0  0  0  0  0  0  0  0  0
    4.9935   -2.9590    2.5916 H   0  0  0  0  0  0  0  0  0  0  0  0
    4.4937   -4.5989    3.0992 H   0  0  0  0  0  0  0  0  0  0  0  0
  1  7  1  0  0  0  0
  2  8  1  0  0  0  0
  2  1  2  0  0  0  0
  3  2  1  0  0  0  0
  4  3  2  0  0  0  0
  4  5  1  0  0  0  0
  5  6  2  0  0  0  0
  6  1  1  0  0  0  0
  6 31  1  0  0  0  0
  9  4  1  0  0  0  0
 10  5  1  0  0  0  0
 12 11  3  0  0  0  0
 13 14  2  0  0  0  0
 14 15  1  0  0  0  0
 14 20  1  0  0  0  0
 15 27  1  0  0  0  0
 16 21  1  0  0  0  0
 16 15  2  0  0  0  0
 17 16  1  0  0  0  0
 18 17  2  0  0  0  0
 18 13  1  0  0  0  0
 19 13  1  0  0  0  0
 22 17  1  0  0  0  0
 23 24  1  0  0  0  0
 23 18  1  0  0  0  0
 24  3  1  0  0  0  0
 25 23  2  0  0  0  0
 26 23  2  0  0  0  0
 27 30  1  0  0  0  0
 27 28  1  0  0  0  0
 29 27  1  0  0  0  0
 31 32  1  0  0  0  0
 32 34  1  0  0  0  0
 32 33  1  0  0  0  0
 32 35  1  0  0  0  0
M  END
