Coordinates from ORCA-job 4-MeO-Ph-N2-OTs-B3LYPG-6-31G_dp-MTMO-d009-169-n800
 OpenBabel09051908173D

 35 36  0  0  1  0  0  0  0  0999 V2000
    3.7361   -3.0706   -0.7660 C   0  0  0  0  0  0  0  0  0  0  0  0
    3.0022   -1.9917   -0.4436 C   0  0  0  0  0  0  0  0  0  0  0  0
    1.8044   -2.0652    0.4513 C   0  0  2  0  0  0  0  0  0  0  0  0
    1.2501   -3.5340    0.6501 C   0  0  2  0  0  0  0  0  0  0  0  0
    2.2659   -4.5941    0.4620 C   0  0  0  0  0  0  0  0  0  0  0  0
    3.4008   -4.3914   -0.2439 C   0  0  0  0  0  0  0  0  0  0  0  0
    4.5943   -2.9484   -1.4160 H   0  0  0  0  0  0  0  0  0  0  0  0
    3.2476   -0.9964   -0.8032 H   0  0  0  0  0  0  0  0  0  0  0  0
    0.7774   -3.5633    1.6344 H   0  0  0  0  0  0  0  0  0  0  0  0
    2.0482   -5.5813    0.8555 H   0  0  0  0  0  0  0  0  0  0  0  0
    1.3714   -1.3442    0.8243 N   0  0  0  0  0  0  0  0  0  0  0  0
    0.8143   -0.4194    1.3038 N   0  0  0  0  0  0  0  0  0  0  0  0
   -1.6073   -6.4631    1.0529 C   0  0  0  0  0  0  0  0  0  0  0  0
   -1.7827   -7.8362    0.8811 C   0  0  0  0  0  0  0  0  0  0  0  0
   -1.9748   -8.3893   -0.3914 C   0  0  0  0  0  0  0  0  0  0  0  0
   -1.9899   -7.5282   -1.5008 C   0  0  0  0  0  0  0  0  0  0  0  0
   -1.8195   -6.1559   -1.3509 C   0  0  0  0  0  0  0  0  0  0  0  0
   -1.6241   -5.6349   -0.0690 C   0  0  0  0  0  0  0  0  0  0  0  0
   -1.4742   -6.0337    2.0398 H   0  0  0  0  0  0  0  0  0  0  0  0
   -1.7749   -8.4865    1.7516 H   0  0  0  0  0  0  0  0  0  0  0  0
   -2.1422   -7.9400   -2.4951 H   0  0  0  0  0  0  0  0  0  0  0  0
   -1.8472   -5.4926   -2.2085 H   0  0  0  0  0  0  0  0  0  0  0  0
   -1.3913   -3.8762    0.1318 S   0  0  0  0  0  0  0  0  0  0  0  0
   -1.4840   -3.5517    1.5565 O   0  0  0  0  0  0  0  0  0  0  0  0
   -2.1848   -3.1795   -0.8704 O   0  0  0  0  0  0  0  0  0  0  0  0
    0.1745   -3.6767   -0.3532 O   0  0  0  0  0  0  0  0  0  0  0  0
   -2.1895   -9.8727   -0.5700 C   0  0  0  0  0  0  0  0  0  0  0  0
   -1.6263  -10.2570   -1.4262 H   0  0  0  0  0  0  0  0  0  0  0  0
   -1.8830  -10.4323    0.3178 H   0  0  0  0  0  0  0  0  0  0  0  0
   -3.2475  -10.0957   -0.7527 H   0  0  0  0  0  0  0  0  0  0  0  0
    4.2214   -5.4620   -0.4407 O   0  0  0  0  0  0  0  0  0  0  0  0
    5.5305   -5.2628   -0.9606 C   0  0  0  0  0  0  0  0  0  0  0  0
    6.0175   -6.2381   -0.9120 H   0  0  0  0  0  0  0  0  0  0  0  0
    5.5110   -4.9320   -2.0061 H   0  0  0  0  0  0  0  0  0  0  0  0
    6.1053   -4.5462   -0.3617 H   0  0  0  0  0  0  0  0  0  0  0  0
  1  2  2  0  0  0  0
  1  6  1  0  0  0  0
  2  3  1  0  0  0  0
  3  4  1  0  0  0  0
  3 11  1  6  0  0  0
  4  9  1  1  0  0  0
  5  4  1  0  0  0  0
  5 10  1  0  0  0  0
  6  5  2  0  0  0  0
  7  1  1  0  0  0  0
  8  2  1  0  0  0  0
 11 12  1  0  0  0  0
 13 19  1  0  0  0  0
 14 13  1  0  0  0  0
 14 20  1  0  0  0  0
 15 14  2  0  0  0  0
 16 17  2  0  0  0  0
 16 15  1  0  0  0  0
 17 18  1  0  0  0  0
 18 23  1  0  0  0  0
 18 13  2  0  0  0  0
 21 16  1  0  0  0  0
 22 17  1  0  0  0  0
 23 24  2  0  0  0  0
 25 23  2  0  0  0  0
 26 23  1  0  0  0  0
 26  4  1  0  0  0  0
 27 15  1  0  0  0  0
 27 29  1  0  0  0  0
 28 27  1  0  0  0  0
 30 27  1  0  0  0  0
 31  6  1  0  0  0  0
 32 33  1  0  0  0  0
 32 31  1  0  0  0  0
 32 35  1  0  0  0  0
 34 32  1  0  0  0  0
M  RAD  3   3   2  11   2  12   3
M  END
