Coordinates from ORCA-job 4-MeO-Ph-N2-OTs-B3LYPG-6-31G_dp-MTMO-d009-169-n800
 OpenBabel09051908173D

 35 35  0  0  0  0  0  0  0  0999 V2000
    3.1252   -4.0012    0.8417 C   0  0  0  0  0  0  0  0  0  0  0  0
    1.9779   -3.8580    0.0563 C   0  0  0  0  0  0  0  0  0  0  0  0
    2.0276   -4.1356   -1.3053 C   0  0  0  0  0  0  0  0  0  0  0  0
    3.2167   -4.5621   -1.9053 C   0  0  0  0  0  0  0  0  0  0  0  0
    4.3544   -4.7153   -1.1247 C   0  0  0  0  0  0  0  0  0  0  0  0
    4.3187   -4.4348    0.2511 C   0  0  0  0  0  0  0  0  0  0  0  0
    3.0743   -3.7700    1.8987 H   0  0  0  0  0  0  0  0  0  0  0  0
    1.0465   -3.5173    0.4956 H   0  0  0  0  0  0  0  0  0  0  0  0
    3.2350   -4.7751   -2.9672 H   0  0  0  0  0  0  0  0  0  0  0  0
    5.2911   -5.0459   -1.5606 H   0  0  0  0  0  0  0  0  0  0  0  0
   -4.7047   -3.9928   -3.6422 N   0  0  0  0  0  0  0  0  0  0  0  0
   -4.8119   -3.8923   -4.7375 N   0  0  0  0  0  0  0  0  0  0  0  0
   -0.2342   -6.8709   -0.5570 C   0  0  0  0  0  0  0  0  0  0  0  0
   -0.9098   -7.3774    0.5519 C   0  0  0  0  0  0  0  0  0  0  0  0
   -2.1602   -6.8715    0.9341 C   0  0  0  0  0  0  0  0  0  0  0  0
   -2.7299   -5.8423    0.1681 C   0  0  0  0  0  0  0  0  0  0  0  0
   -2.0718   -5.3203   -0.9419 C   0  0  0  0  0  0  0  0  0  0  0  0
   -0.8235   -5.8414   -1.2927 C   0  0  0  0  0  0  0  0  0  0  0  0
    0.7227   -7.2763   -0.8636 H   0  0  0  0  0  0  0  0  0  0  0  0
   -0.4618   -8.1851    1.1243 H   0  0  0  0  0  0  0  0  0  0  0  0
   -3.7066   -5.4516    0.4393 H   0  0  0  0  0  0  0  0  0  0  0  0
   -2.5239   -4.5403   -1.5450 H   0  0  0  0  0  0  0  0  0  0  0  0
    0.0261   -5.1773   -2.7118 S   0  0  0  0  0  0  0  0  0  0  0  0
    0.8812   -3.8917   -2.0733 O   0  0  0  0  0  0  0  0  0  0  0  0
   -0.9345   -4.5267   -3.5905 O   0  0  0  0  0  0  0  0  0  0  0  0
    0.9757   -6.1739   -3.1995 O   0  0  0  0  0  0  0  0  0  0  0  0
   -2.8739   -7.4098    2.1504 C   0  0  0  0  0  0  0  0  0  0  0  0
   -2.6788   -6.7810    3.0281 H   0  0  0  0  0  0  0  0  0  0  0  0
   -3.9580   -7.4308    2.0015 H   0  0  0  0  0  0  0  0  0  0  0  0
   -2.5424   -8.4226    2.3931 H   0  0  0  0  0  0  0  0  0  0  0  0
    5.4946   -4.6117    0.9197 O   0  0  0  0  0  0  0  0  0  0  0  0
    5.5250   -4.3352    2.3106 C   0  0  0  0  0  0  0  0  0  0  0  0
    6.5470   -4.5358    2.6355 H   0  0  0  0  0  0  0  0  0  0  0  0
    5.2791   -3.2862    2.5208 H   0  0  0  0  0  0  0  0  0  0  0  0
    4.8365   -4.9830    2.8680 H   0  0  0  0  0  0  0  0  0  0  0  0
  1  7  1  0  0  0  0
  2  8  1  0  0  0  0
  2  1  2  0  0  0  0
  3  2  1  0  0  0  0
  4  3  2  0  0  0  0
  4  5  1  0  0  0  0
  5  6  2  0  0  0  0
  6  1  1  0  0  0  0
  6 31  1  0  0  0  0
  9  4  1  0  0  0  0
 10  5  1  0  0  0  0
 12 11  3  0  0  0  0
 13 14  2  0  0  0  0
 14 15  1  0  0  0  0
 14 20  1  0  0  0  0
 15 27  1  0  0  0  0
 16 21  1  0  0  0  0
 16 15  2  0  0  0  0
 17 16  1  0  0  0  0
 18 17  2  0  0  0  0
 18 13  1  0  0  0  0
 19 13  1  0  0  0  0
 22 17  1  0  0  0  0
 23 24  1  0  0  0  0
 23 18  1  0  0  0  0
 24  3  1  0  0  0  0
 25 23  2  0  0  0  0
 26 23  2  0  0  0  0
 27 30  1  0  0  0  0
 27 28  1  0  0  0  0
 29 27  1  0  0  0  0
 31 32  1  0  0  0  0
 32 34  1  0  0  0  0
 32 33  1  0  0  0  0
 32 35  1  0  0  0  0
M  END
