Coordinates from ORCA-job 4-MeO-Ph-N2-OTs-B3LYPG-6-31G_dp-MTMO-d009-169-n800
 OpenBabel09051908173D

 35 34  0  0  0  0  0  0  0  0999 V2000
    3.9891   -2.7984    0.4418 C   0  0  0  0  0  0  0  0  0  0  0  0
    2.7885   -2.2368   -0.0499 C   0  0  0  0  0  0  0  0  0  0  0  0
    2.1371   -3.2043   -0.7610 C   0  0  0  0  0  0  0  0  0  0  0  0
    2.3590   -4.4061   -1.0648 C   0  0  0  0  0  0  0  0  0  0  0  0
    3.5344   -5.0013   -0.6020 C   0  0  0  0  0  0  0  0  0  0  0  0
    4.3539   -4.1412    0.1739 C   0  0  0  0  0  0  0  0  0  0  0  0
    4.6360   -2.1658    1.0386 H   0  0  0  0  0  0  0  0  0  0  0  0
    2.4815   -1.2160    0.1332 H   0  0  0  0  0  0  0  0  0  0  0  0
    1.0219   -5.2619   -2.2279 H   0  0  0  0  0  0  0  0  0  0  0  0
    3.8493   -6.0216   -0.7905 H   0  0  0  0  0  0  0  0  0  0  0  0
    0.1426   -1.0466   -1.7576 N   0  0  0  0  0  0  0  0  0  0  0  0
   -0.5519   -0.7194   -2.5521 N   0  0  0  0  0  0  0  0  0  0  0  0
   -1.6944   -5.8446    0.0473 C   0  0  0  0  0  0  0  0  0  0  0  0
   -2.1722   -6.6614    1.0705 C   0  0  0  0  0  0  0  0  0  0  0  0
   -2.6873   -7.9370    0.8006 C   0  0  0  0  0  0  0  0  0  0  0  0
   -2.7242   -8.3746   -0.5319 C   0  0  0  0  0  0  0  0  0  0  0  0
   -2.2534   -7.5721   -1.5681 C   0  0  0  0  0  0  0  0  0  0  0  0
   -1.7358   -6.3109   -1.2670 C   0  0  0  0  0  0  0  0  0  0  0  0
   -1.3102   -4.8525    0.2559 H   0  0  0  0  0  0  0  0  0  0  0  0
   -2.1506   -6.2990    2.0951 H   0  0  0  0  0  0  0  0  0  0  0  0
   -3.1336   -9.3543   -0.7618 H   0  0  0  0  0  0  0  0  0  0  0  0
   -2.3000   -7.9047   -2.5993 H   0  0  0  0  0  0  0  0  0  0  0  0
   -1.1157   -5.2815   -2.5895 S   0  0  0  0  0  0  0  0  0  0  0  0
   -1.0596   -3.8983   -2.1106 O   0  0  0  0  0  0  0  0  0  0  0  0
   -1.8130   -5.6376   -3.8172 O   0  0  0  0  0  0  0  0  0  0  0  0
    0.4085   -5.8121   -2.7808 O   0  0  0  0  0  0  0  0  0  0  0  0
   -3.1740   -8.8268    1.9187 C   0  0  0  0  0  0  0  0  0  0  0  0
   -3.9843   -9.4824    1.5860 H   0  0  0  0  0  0  0  0  0  0  0  0
   -2.3651   -9.4707    2.2863 H   0  0  0  0  0  0  0  0  0  0  0  0
   -3.5361   -8.2415    2.7686 H   0  0  0  0  0  0  0  0  0  0  0  0
    5.5041   -4.7133    0.6292 O   0  0  0  0  0  0  0  0  0  0  0  0
    6.4094   -3.9275    1.3896 C   0  0  0  0  0  0  0  0  0  0  0  0
    7.2476   -4.5826    1.6303 H   0  0  0  0  0  0  0  0  0  0  0  0
    6.7768   -3.0672    0.8156 H   0  0  0  0  0  0  0  0  0  0  0  0
    5.9516   -3.5714    2.3214 H   0  0  0  0  0  0  0  0  0  0  0  0
  1  7  1  0  0  0  0
  2  8  1  0  0  0  0
  2  1  2  0  0  0  0
  3  2  1  0  0  0  0
  4  3  2  0  0  0  0
  4  5  1  0  0  0  0
  5  6  2  0  0  0  0
  6  1  1  0  0  0  0
  6 31  1  0  0  0  0
 10  5  1  0  0  0  0
 12 11  3  0  0  0  0
 13 19  1  0  0  0  0
 13 14  2  0  0  0  0
 14 20  1  0  0  0  0
 15 14  1  0  0  0  0
 15 27  1  0  0  0  0
 16 15  2  0  0  0  0
 17 18  2  0  0  0  0
 17 16  1  0  0  0  0
 18 13  1  0  0  0  0
 21 16  1  0  0  0  0
 22 17  1  0  0  0  0
 23 24  2  0  0  0  0
 23 18  1  0  0  0  0
 25 23  2  0  0  0  0
 26 23  1  0  0  0  0
 26  9  1  0  0  0  0
 27 29  1  0  0  0  0
 27 30  1  0  0  0  0
 28 27  1  0  0  0  0
 31 32  1  0  0  0  0
 32 33  1  0  0  0  0
 32 35  1  0  0  0  0
 34 32  1  0  0  0  0
M  RAD  2   3   2   4   2
M  END
