Coordinates from ORCA-job 4-MeO-Ph-N2-OTs-B3LYPG-6-31G_dp-MTMO-d009-169-n800
 OpenBabel09051908173D

 35 35  0  0  0  0  0  0  0  0999 V2000
    3.1095   -3.8980    0.6862 C   0  0  0  0  0  0  0  0  0  0  0  0
    2.1665   -3.9117   -0.3455 C   0  0  0  0  0  0  0  0  0  0  0  0
    2.4926   -4.4648   -1.5789 C   0  0  0  0  0  0  0  0  0  0  0  0
    3.7589   -5.0139   -1.8037 C   0  0  0  0  0  0  0  0  0  0  0  0
    4.6935   -5.0101   -0.7773 C   0  0  0  0  0  0  0  0  0  0  0  0
    4.3775   -4.4522    0.4724 C   0  0  0  0  0  0  0  0  0  0  0  0
    2.8441   -3.4566    1.6389 H   0  0  0  0  0  0  0  0  0  0  0  0
    1.1814   -3.4822   -0.1993 H   0  0  0  0  0  0  0  0  0  0  0  0
    3.9936   -5.4408   -2.7711 H   0  0  0  0  0  0  0  0  0  0  0  0
    5.6834   -5.4295   -0.9206 H   0  0  0  0  0  0  0  0  0  0  0  0
   -6.3890   -4.4048    0.3563 N   0  0  0  0  0  0  0  0  0  0  0  0
   -7.3562   -3.9013    0.5357 N   0  0  0  0  0  0  0  0  0  0  0  0
   -0.0466   -6.9604   -0.7815 C   0  0  0  0  0  0  0  0  0  0  0  0
   -0.9649   -7.1930    0.2390 C   0  0  0  0  0  0  0  0  0  0  0  0
   -2.2205   -6.5654    0.2446 C   0  0  0  0  0  0  0  0  0  0  0  0
   -2.5386   -5.6934   -0.8064 C   0  0  0  0  0  0  0  0  0  0  0  0
   -1.6330   -5.4454   -1.8370 C   0  0  0  0  0  0  0  0  0  0  0  0
   -0.3917   -6.0831   -1.8131 C   0  0  0  0  0  0  0  0  0  0  0  0
    0.9156   -7.4590   -0.7951 H   0  0  0  0  0  0  0  0  0  0  0  0
   -0.7050   -7.8785    1.0417 H   0  0  0  0  0  0  0  0  0  0  0  0
   -3.5106   -5.2089   -0.8212 H   0  0  0  0  0  0  0  0  0  0  0  0
   -1.8858   -4.7835   -2.6582 H   0  0  0  0  0  0  0  0  0  0  0  0
    0.7723   -5.7681   -3.1260 S   0  0  0  0  0  0  0  0  0  0  0  0
    1.5533   -4.3819   -2.6144 O   0  0  0  0  0  0  0  0  0  0  0  0
    0.0570   -5.3207   -4.3116 O   0  0  0  0  0  0  0  0  0  0  0  0
    1.7393   -6.8619   -3.1667 O   0  0  0  0  0  0  0  0  0  0  0  0
   -3.2047   -6.8328    1.3580 C   0  0  0  0  0  0  0  0  0  0  0  0
   -2.7961   -6.5252    2.3274 H   0  0  0  0  0  0  0  0  0  0  0  0
   -4.1417   -6.2935    1.2016 H   0  0  0  0  0  0  0  0  0  0  0  0
   -3.4367   -7.9008    1.4317 H   0  0  0  0  0  0  0  0  0  0  0  0
    5.3716   -4.4969    1.4056 O   0  0  0  0  0  0  0  0  0  0  0  0
    5.1193   -3.9368    2.6843 C   0  0  0  0  0  0  0  0  0  0  0  0
    6.0351   -4.0778    3.2609 H   0  0  0  0  0  0  0  0  0  0  0  0
    4.8952   -2.8642    2.6199 H   0  0  0  0  0  0  0  0  0  0  0  0
    4.2910   -4.4458    3.1940 H   0  0  0  0  0  0  0  0  0  0  0  0
  1  7  1  0  0  0  0
  2  8  1  0  0  0  0
  2  1  2  0  0  0  0
  3  2  1  0  0  0  0
  4  3  2  0  0  0  0
  4  5  1  0  0  0  0
  5  6  2  0  0  0  0
  6  1  1  0  0  0  0
  6 31  1  0  0  0  0
  9  4  1  0  0  0  0
 10  5  1  0  0  0  0
 11 12  3  0  0  0  0
 13 14  2  0  0  0  0
 14 15  1  0  0  0  0
 14 20  1  0  0  0  0
 15 27  1  0  0  0  0
 16 15  2  0  0  0  0
 17 18  2  0  0  0  0
 17 16  1  0  0  0  0
 18 13  1  0  0  0  0
 19 13  1  0  0  0  0
 21 16  1  0  0  0  0
 22 17  1  0  0  0  0
 23 24  1  0  0  0  0
 23 18  1  0  0  0  0
 24  3  1  0  0  0  0
 25 23  2  0  0  0  0
 26 23  2  0  0  0  0
 27 30  1  0  0  0  0
 27 28  1  0  0  0  0
 29 27  1  0  0  0  0
 31 32  1  0  0  0  0
 32 35  1  0  0  0  0
 32 33  1  0  0  0  0
 34 32  1  0  0  0  0
M  END
