Coordinates from ORCA-job 4-MeO-Ph-N2-OTs-B3LYPG-6-31G_dp-MTMO-d009-169-n800
 OpenBabel09051908173D

 35 35  0  0  0  0  0  0  0  0999 V2000
    3.2459   -3.9499    0.6819 C   0  0  0  0  0  0  0  0  0  0  0  0
    2.2933   -3.9150   -0.3404 C   0  0  0  0  0  0  0  0  0  0  0  0
    2.5794   -4.4820   -1.5774 C   0  0  0  0  0  0  0  0  0  0  0  0
    3.8144   -5.0934   -1.8150 C   0  0  0  0  0  0  0  0  0  0  0  0
    4.7583   -5.1371   -0.7982 C   0  0  0  0  0  0  0  0  0  0  0  0
    4.4826   -4.5660    0.4551 C   0  0  0  0  0  0  0  0  0  0  0  0
    3.0123   -3.4971    1.6377 H   0  0  0  0  0  0  0  0  0  0  0  0
    1.3321   -3.4373   -0.1840 H   0  0  0  0  0  0  0  0  0  0  0  0
    4.0176   -5.5305   -2.7850 H   0  0  0  0  0  0  0  0  0  0  0  0
    5.7249   -5.6045   -0.9517 H   0  0  0  0  0  0  0  0  0  0  0  0
   -6.9696   -5.3762    0.2910 N   0  0  0  0  0  0  0  0  0  0  0  0
   -8.0734   -5.3766    0.2378 N   0  0  0  0  0  0  0  0  0  0  0  0
   -0.1101   -6.8153   -0.7446 C   0  0  0  0  0  0  0  0  0  0  0  0
   -1.0423   -6.9868    0.2766 C   0  0  0  0  0  0  0  0  0  0  0  0
   -2.2592   -6.2885    0.2758 C   0  0  0  0  0  0  0  0  0  0  0  0
   -2.5266   -5.4105   -0.7853 C   0  0  0  0  0  0  0  0  0  0  0  0
   -1.6074   -5.2227   -1.8153 C   0  0  0  0  0  0  0  0  0  0  0  0
   -0.4031   -5.9289   -1.7833 C   0  0  0  0  0  0  0  0  0  0  0  0
    0.8207   -7.3705   -0.7537 H   0  0  0  0  0  0  0  0  0  0  0  0
   -0.8243   -7.6817    1.0836 H   0  0  0  0  0  0  0  0  0  0  0  0
   -3.4720   -4.8760   -0.8110 H   0  0  0  0  0  0  0  0  0  0  0  0
   -1.8229   -4.5580   -2.6450 H   0  0  0  0  0  0  0  0  0  0  0  0
    0.7753   -5.6961   -3.1007 S   0  0  0  0  0  0  0  0  0  0  0  0
    1.6361   -4.3520   -2.6046 O   0  0  0  0  0  0  0  0  0  0  0  0
    0.0849   -5.2208   -4.2902 O   0  0  0  0  0  0  0  0  0  0  0  0
    1.6774   -6.8443   -3.1308 O   0  0  0  0  0  0  0  0  0  0  0  0
   -3.2508   -6.4695    1.3994 C   0  0  0  0  0  0  0  0  0  0  0  0
   -2.9791   -5.8501    2.2630 H   0  0  0  0  0  0  0  0  0  0  0  0
   -4.2602   -6.1814    1.0943 H   0  0  0  0  0  0  0  0  0  0  0  0
   -3.2786   -7.5079    1.7426 H   0  0  0  0  0  0  0  0  0  0  0  0
    5.4824   -4.6614    1.3783 O   0  0  0  0  0  0  0  0  0  0  0  0
    5.2696   -4.0948    2.6613 C   0  0  0  0  0  0  0  0  0  0  0  0
    6.1826   -4.2830    3.2289 H   0  0  0  0  0  0  0  0  0  0  0  0
    5.0976   -3.0123    2.6031 H   0  0  0  0  0  0  0  0  0  0  0  0
    4.4221   -4.5650    3.1768 H   0  0  0  0  0  0  0  0  0  0  0  0
  1  7  1  0  0  0  0
  2  8  1  0  0  0  0
  2  1  2  0  0  0  0
  3  2  1  0  0  0  0
  4  3  2  0  0  0  0
  4  5  1  0  0  0  0
  5  6  2  0  0  0  0
  6  1  1  0  0  0  0
  6 31  1  0  0  0  0
  9  4  1  0  0  0  0
 10  5  1  0  0  0  0
 12 11  3  0  0  0  0
 13 14  2  0  0  0  0
 14 20  1  0  0  0  0
 15 14  1  0  0  0  0
 15 27  1  0  0  0  0
 16 15  2  0  0  0  0
 17 18  2  0  0  0  0
 17 16  1  0  0  0  0
 18 13  1  0  0  0  0
 19 13  1  0  0  0  0
 21 16  1  0  0  0  0
 22 17  1  0  0  0  0
 23 24  1  0  0  0  0
 23 18  1  0  0  0  0
 24  3  1  0  0  0  0
 25 23  2  0  0  0  0
 26 23  2  0  0  0  0
 27 30  1  0  0  0  0
 27 28  1  0  0  0  0
 29 27  1  0  0  0  0
 31 32  1  0  0  0  0
 32 35  1  0  0  0  0
 32 33  1  0  0  0  0
 34 32  1  0  0  0  0
M  END
