Coordinates from ORCA-job 4-MeO-Ph-N2-OTs-B3LYPG-6-31G_dp-MTMO-d009-169-n800
 OpenBabel09051908173D

 35 35  0  0  0  0  0  0  0  0999 V2000
    3.6224   -3.9835    0.6194 C   0  0  0  0  0  0  0  0  0  0  0  0
    2.6559   -3.8849   -0.3856 C   0  0  0  0  0  0  0  0  0  0  0  0
    2.8625   -4.5058   -1.6125 C   0  0  0  0  0  0  0  0  0  0  0  0
    4.0296   -5.2361   -1.8567 C   0  0  0  0  0  0  0  0  0  0  0  0
    4.9869   -5.3420   -0.8573 C   0  0  0  0  0  0  0  0  0  0  0  0
    4.7921   -4.7167    0.3852 C   0  0  0  0  0  0  0  0  0  0  0  0
    3.4522   -3.4879    1.5673 H   0  0  0  0  0  0  0  0  0  0  0  0
    1.7462   -3.3164   -0.2236 H   0  0  0  0  0  0  0  0  0  0  0  0
    4.1704   -5.7141   -2.8185 H   0  0  0  0  0  0  0  0  0  0  0  0
    5.9032   -5.9003   -1.0168 H   0  0  0  0  0  0  0  0  0  0  0  0
  -10.6333   -8.4477    0.3546 N   0  0  0  0  0  0  0  0  0  0  0  0
  -11.5823   -8.9646    0.1227 N   0  0  0  0  0  0  0  0  0  0  0  0
   -0.0941   -6.5017   -0.6713 C   0  0  0  0  0  0  0  0  0  0  0  0
   -1.0262   -6.5104    0.3663 C   0  0  0  0  0  0  0  0  0  0  0  0
   -2.1301   -5.6478    0.3579 C   0  0  0  0  0  0  0  0  0  0  0  0
   -2.2832   -4.7650   -0.7238 C   0  0  0  0  0  0  0  0  0  0  0  0
   -1.3654   -4.7402   -1.7690 C   0  0  0  0  0  0  0  0  0  0  0  0
   -0.2742   -5.6130   -1.7309 C   0  0  0  0  0  0  0  0  0  0  0  0
    0.7521   -7.1796   -0.6711 H   0  0  0  0  0  0  0  0  0  0  0  0
   -0.8941   -7.2024    1.1939 H   0  0  0  0  0  0  0  0  0  0  0  0
   -3.1372   -4.0929   -0.7488 H   0  0  0  0  0  0  0  0  0  0  0  0
   -1.4925   -4.0691   -2.6118 H   0  0  0  0  0  0  0  0  0  0  0  0
    0.9126   -5.5747   -3.0615 S   0  0  0  0  0  0  0  0  0  0  0  0
    1.9162   -4.3121   -2.6268 O   0  0  0  0  0  0  0  0  0  0  0  0
    0.2690   -5.0799   -4.2692 O   0  0  0  0  0  0  0  0  0  0  0  0
    1.6823   -6.8154   -3.0412 O   0  0  0  0  0  0  0  0  0  0  0  0
   -3.1508   -5.6788    1.4694 C   0  0  0  0  0  0  0  0  0  0  0  0
   -3.4256   -4.6682    1.7871 H   0  0  0  0  0  0  0  0  0  0  0  0
   -4.0721   -6.1741    1.1402 H   0  0  0  0  0  0  0  0  0  0  0  0
   -2.7780   -6.2208    2.3423 H   0  0  0  0  0  0  0  0  0  0  0  0
    5.7992   -4.8803    1.2908 O   0  0  0  0  0  0  0  0  0  0  0  0
    5.6656   -4.2680    2.5634 C   0  0  0  0  0  0  0  0  0  0  0  0
    6.5716   -4.5218    3.1164 H   0  0  0  0  0  0  0  0  0  0  0  0
    5.5863   -3.1761    2.4819 H   0  0  0  0  0  0  0  0  0  0  0  0
    4.7927   -4.6509    3.1081 H   0  0  0  0  0  0  0  0  0  0  0  0
  1  7  1  0  0  0  0
  2  8  1  0  0  0  0
  2  1  2  0  0  0  0
  3  2  1  0  0  0  0
  4  3  2  0  0  0  0
  4  5  1  0  0  0  0
  5  6  2  0  0  0  0
  6  1  1  0  0  0  0
  6 31  1  0  0  0  0
  9  4  1  0  0  0  0
 10  5  1  0  0  0  0
 12 11  3  0  0  0  0
 13 19  1  0  0  0  0
 13 14  2  0  0  0  0
 14 20  1  0  0  0  0
 15 14  1  0  0  0  0
 15 27  1  0  0  0  0
 16 15  2  0  0  0  0
 17 18  2  0  0  0  0
 17 16  1  0  0  0  0
 18 13  1  0  0  0  0
 21 16  1  0  0  0  0
 22 17  1  0  0  0  0
 23 26  2  0  0  0  0
 23 24  1  0  0  0  0
 23 18  1  0  0  0  0
 24  3  1  0  0  0  0
 25 23  2  0  0  0  0
 27 28  1  0  0  0  0
 27 30  1  0  0  0  0
 29 27  1  0  0  0  0
 31 32  1  0  0  0  0
 32 35  1  0  0  0  0
 32 33  1  0  0  0  0
 34 32  1  0  0  0  0
M  END
