Coordinates from ORCA-job 4-MeO-Ph-N2-OTs-B3LYPG-6-31G_dp-MTMO-d009-169-n800
 OpenBabel09051908173D

 35 35  0  0  0  0  0  0  0  0999 V2000
    3.0796   -3.9877    0.8127 C   0  0  0  0  0  0  0  0  0  0  0  0
    1.9244   -3.8643    0.0358 C   0  0  0  0  0  0  0  0  0  0  0  0
    1.9660   -4.1535   -1.3238 C   0  0  0  0  0  0  0  0  0  0  0  0
    3.1548   -4.5724   -1.9297 C   0  0  0  0  0  0  0  0  0  0  0  0
    4.3005   -4.7061   -1.1573 C   0  0  0  0  0  0  0  0  0  0  0  0
    4.2730   -4.4135    0.2162 C   0  0  0  0  0  0  0  0  0  0  0  0
    3.0348   -3.7476    1.8680 H   0  0  0  0  0  0  0  0  0  0  0  0
    0.9929   -3.5300    0.4796 H   0  0  0  0  0  0  0  0  0  0  0  0
    3.1668   -4.7948   -2.9898 H   0  0  0  0  0  0  0  0  0  0  0  0
    5.2371   -5.0304   -1.5979 H   0  0  0  0  0  0  0  0  0  0  0  0
   -4.2827   -3.7483   -3.7274 N   0  0  0  0  0  0  0  0  0  0  0  0
   -4.2290   -3.5376   -4.8107 N   0  0  0  0  0  0  0  0  0  0  0  0
   -0.2542   -6.9144   -0.5365 C   0  0  0  0  0  0  0  0  0  0  0  0
   -0.9095   -7.4194    0.5850 C   0  0  0  0  0  0  0  0  0  0  0  0
   -2.1570   -6.9191    0.9840 C   0  0  0  0  0  0  0  0  0  0  0  0
   -2.7446   -5.8975    0.2216 C   0  0  0  0  0  0  0  0  0  0  0  0
   -2.1072   -5.3771   -0.9015 C   0  0  0  0  0  0  0  0  0  0  0  0
   -0.8612   -5.8924   -1.2685 C   0  0  0  0  0  0  0  0  0  0  0  0
    0.7007   -7.3150   -0.8555 H   0  0  0  0  0  0  0  0  0  0  0  0
   -0.4476   -8.2213    1.1546 H   0  0  0  0  0  0  0  0  0  0  0  0
   -3.7194   -5.5114    0.5059 H   0  0  0  0  0  0  0  0  0  0  0  0
   -2.5743   -4.6031   -1.5008 H   0  0  0  0  0  0  0  0  0  0  0  0
   -0.0356   -5.2303   -2.7028 S   0  0  0  0  0  0  0  0  0  0  0  0
    0.8107   -3.9292   -2.0847 O   0  0  0  0  0  0  0  0  0  0  0  0
   -1.0128   -4.5991   -3.5775 O   0  0  0  0  0  0  0  0  0  0  0  0
    0.9205   -6.2197   -3.1924 O   0  0  0  0  0  0  0  0  0  0  0  0
   -2.8476   -7.4554    2.2144 C   0  0  0  0  0  0  0  0  0  0  0  0
   -2.6255   -6.8322    3.0897 H   0  0  0  0  0  0  0  0  0  0  0  0
   -3.9349   -7.4655    2.0908 H   0  0  0  0  0  0  0  0  0  0  0  0
   -2.5199   -8.4722    2.4456 H   0  0  0  0  0  0  0  0  0  0  0  0
    5.4562   -4.5713    0.8765 O   0  0  0  0  0  0  0  0  0  0  0  0
    5.4951   -4.2808    2.2644 C   0  0  0  0  0  0  0  0  0  0  0  0
    6.5217   -4.4677    2.5828 H   0  0  0  0  0  0  0  0  0  0  0  0
    5.2400   -3.2324    2.4663 H   0  0  0  0  0  0  0  0  0  0  0  0
    4.8180   -4.9303    2.8338 H   0  0  0  0  0  0  0  0  0  0  0  0
  1  7  1  0  0  0  0
  2  8  1  0  0  0  0
  2  1  2  0  0  0  0
  3  2  1  0  0  0  0
  4  3  2  0  0  0  0
  4  5  1  0  0  0  0
  5  6  2  0  0  0  0
  6  1  1  0  0  0  0
  6 31  1  0  0  0  0
  9  4  1  0  0  0  0
 10  5  1  0  0  0  0
 12 11  3  0  0  0  0
 13 14  2  0  0  0  0
 14 15  1  0  0  0  0
 14 20  1  0  0  0  0
 15 27  1  0  0  0  0
 16 21  1  0  0  0  0
 16 15  2  0  0  0  0
 17 16  1  0  0  0  0
 18 17  2  0  0  0  0
 18 13  1  0  0  0  0
 19 13  1  0  0  0  0
 22 17  1  0  0  0  0
 23 24  1  0  0  0  0
 23 18  1  0  0  0  0
 24  3  1  0  0  0  0
 25 23  2  0  0  0  0
 26 23  2  0  0  0  0
 27 30  1  0  0  0  0
 27 28  1  0  0  0  0
 29 27  1  0  0  0  0
 31 32  1  0  0  0  0
 32 34  1  0  0  0  0
 32 33  1  0  0  0  0
 32 35  1  0  0  0  0
M  END
