Coordinates from ORCA-job 4-MeO-Ph-N2-OTs-B3LYPG-6-31G_dp-MTMO-d009-169-n800
 OpenBabel09051908173D

 35 35  0  0  0  0  0  0  0  0999 V2000
    2.6938   -3.8053    0.4861 C   0  0  0  0  0  0  0  0  0  0  0  0
    1.5755   -3.9030   -0.3465 C   0  0  0  0  0  0  0  0  0  0  0  0
    1.7081   -4.4188   -1.6311 C   0  0  0  0  0  0  0  0  0  0  0  0
    2.9514   -4.8490   -2.1051 C   0  0  0  0  0  0  0  0  0  0  0  0
    4.0611   -4.7629   -1.2754 C   0  0  0  0  0  0  0  0  0  0  0  0
    3.9420   -4.2393    0.0224 C   0  0  0  0  0  0  0  0  0  0  0  0
    2.5783   -3.3932    1.4807 H   0  0  0  0  0  0  0  0  0  0  0  0
    0.6019   -3.5660   -0.0075 H   0  0  0  0  0  0  0  0  0  0  0  0
    3.0328   -5.2488   -3.1083 H   0  0  0  0  0  0  0  0  0  0  0  0
    5.0387   -5.0890   -1.6137 H   0  0  0  0  0  0  0  0  0  0  0  0
   -1.4842   -2.0789   -1.8466 N   0  0  0  0  0  0  0  0  0  0  0  0
   -1.3086   -1.4292   -2.7229 N   0  0  0  0  0  0  0  0  0  0  0  0
   -0.3031   -7.3235   -0.5490 C   0  0  0  0  0  0  0  0  0  0  0  0
   -0.9232   -7.7101    0.6386 C   0  0  0  0  0  0  0  0  0  0  0  0
   -2.1452   -7.1508    1.0348 C   0  0  0  0  0  0  0  0  0  0  0  0
   -2.7448   -6.1906    0.2034 C   0  0  0  0  0  0  0  0  0  0  0  0
   -2.1440   -5.7920   -0.9862 C   0  0  0  0  0  0  0  0  0  0  0  0
   -0.9217   -6.3643   -1.3506 C   0  0  0  0  0  0  0  0  0  0  0  0
    0.6350   -7.7658   -0.8629 H   0  0  0  0  0  0  0  0  0  0  0  0
   -0.4515   -8.4630    1.2642 H   0  0  0  0  0  0  0  0  0  0  0  0
   -3.6992   -5.7573    0.4892 H   0  0  0  0  0  0  0  0  0  0  0  0
   -2.6158   -5.0609   -1.6339 H   0  0  0  0  0  0  0  0  0  0  0  0
   -0.1467   -5.8596   -2.8752 S   0  0  0  0  0  0  0  0  0  0  0  0
    0.5838   -4.4142   -2.4668 O   0  0  0  0  0  0  0  0  0  0  0  0
   -1.1655   -5.4457   -3.8284 O   0  0  0  0  0  0  0  0  0  0  0  0
    0.8891   -6.8303   -3.2175 O   0  0  0  0  0  0  0  0  0  0  0  0
   -2.8010   -7.5563    2.3322 C   0  0  0  0  0  0  0  0  0  0  0  0
   -2.6463   -6.7921    3.1044 H   0  0  0  0  0  0  0  0  0  0  0  0
   -3.8820   -7.6794    2.2114 H   0  0  0  0  0  0  0  0  0  0  0  0
   -2.3914   -8.4955    2.7118 H   0  0  0  0  0  0  0  0  0  0  0  0
    5.0972   -4.1930    0.7467 O   0  0  0  0  0  0  0  0  0  0  0  0
    5.0472   -3.6563    2.0592 C   0  0  0  0  0  0  0  0  0  0  0  0
    6.0670   -3.7062    2.4441 H   0  0  0  0  0  0  0  0  0  0  0  0
    4.7139   -2.6106    2.0568 H   0  0  0  0  0  0  0  0  0  0  0  0
    4.3873   -4.2421    2.7121 H   0  0  0  0  0  0  0  0  0  0  0  0
  1  7  1  0  0  0  0
  2  8  1  0  0  0  0
  2  1  2  0  0  0  0
  3  2  1  0  0  0  0
  4  3  2  0  0  0  0
  4  5  1  0  0  0  0
  5  6  2  0  0  0  0
  6  1  1  0  0  0  0
  6 31  1  0  0  0  0
  9  4  1  0  0  0  0
 10  5  1  0  0  0  0
 12 11  3  0  0  0  0
 13 14  2  0  0  0  0
 14 15  1  0  0  0  0
 14 20  1  0  0  0  0
 15 27  1  0  0  0  0
 16 21  1  0  0  0  0
 16 15  2  0  0  0  0
 17 16  1  0  0  0  0
 18 17  2  0  0  0  0
 18 13  1  0  0  0  0
 19 13  1  0  0  0  0
 22 17  1  0  0  0  0
 23 24  1  0  0  0  0
 23 18  1  0  0  0  0
 24  3  1  0  0  0  0
 25 23  2  0  0  0  0
 26 23  2  0  0  0  0
 27 30  1  0  0  0  0
 27 28  1  0  0  0  0
 29 27  1  0  0  0  0
 31 32  1  0  0  0  0
 32 33  1  0  0  0  0
 32 35  1  0  0  0  0
 34 32  1  0  0  0  0
M  END
