Coordinates from ORCA-job 4-MeO-Ph-N2-OTs-B3LYPG-6-31G_dp-MTMO-d009-169-n800
 OpenBabel09051908173D

 35 35  0  0  0  0  0  0  0  0999 V2000
    2.7875   -3.8579    0.5971 C   0  0  0  0  0  0  0  0  0  0  0  0
    1.6455   -3.9130   -0.2069 C   0  0  0  0  0  0  0  0  0  0  0  0
    1.7440   -4.3385   -1.5269 C   0  0  0  0  0  0  0  0  0  0  0  0
    2.9767   -4.7197   -2.0659 C   0  0  0  0  0  0  0  0  0  0  0  0
    4.1103   -4.6758   -1.2659 C   0  0  0  0  0  0  0  0  0  0  0  0
    4.0255   -4.2435    0.0679 C   0  0  0  0  0  0  0  0  0  0  0  0
    2.6977   -3.5144    1.6200 H   0  0  0  0  0  0  0  0  0  0  0  0
    0.6794   -3.6132    0.1845 H   0  0  0  0  0  0  0  0  0  0  0  0
    3.0317   -5.0506   -3.0956 H   0  0  0  0  0  0  0  0  0  0  0  0
    5.0804   -4.9664   -1.6544 H   0  0  0  0  0  0  0  0  0  0  0  0
   -2.2058   -2.3602   -2.7535 N   0  0  0  0  0  0  0  0  0  0  0  0
   -1.7745   -1.7563   -3.5720 N   0  0  0  0  0  0  0  0  0  0  0  0
   -0.3292   -7.2940   -0.5455 C   0  0  0  0  0  0  0  0  0  0  0  0
   -0.9555   -7.7203    0.6257 C   0  0  0  0  0  0  0  0  0  0  0  0
   -2.1554   -7.1419    1.0586 C   0  0  0  0  0  0  0  0  0  0  0  0
   -2.7259   -6.1188    0.2827 C   0  0  0  0  0  0  0  0  0  0  0  0
   -2.1197   -5.6798   -0.8896 C   0  0  0  0  0  0  0  0  0  0  0  0
   -0.9198   -6.2753   -1.2921 C   0  0  0  0  0  0  0  0  0  0  0  0
    0.5927   -7.7489   -0.8881 H   0  0  0  0  0  0  0  0  0  0  0  0
   -0.5059   -8.5194    1.2087 H   0  0  0  0  0  0  0  0  0  0  0  0
   -3.6622   -5.6673    0.5988 H   0  0  0  0  0  0  0  0  0  0  0  0
   -2.5682   -4.8972   -1.4920 H   0  0  0  0  0  0  0  0  0  0  0  0
   -0.1359   -5.7206   -2.7946 S   0  0  0  0  0  0  0  0  0  0  0  0
    0.5953   -4.2929   -2.3279 O   0  0  0  0  0  0  0  0  0  0  0  0
   -1.1488   -5.2693   -3.7376 O   0  0  0  0  0  0  0  0  0  0  0  0
    0.8981   -6.6816   -3.1678 O   0  0  0  0  0  0  0  0  0  0  0  0
   -2.8231   -7.5957    2.3340 C   0  0  0  0  0  0  0  0  0  0  0  0
   -2.7352   -6.8317    3.1166 H   0  0  0  0  0  0  0  0  0  0  0  0
   -3.8918   -7.7773    2.1804 H   0  0  0  0  0  0  0  0  0  0  0  0
   -2.3738   -8.5153    2.7161 H   0  0  0  0  0  0  0  0  0  0  0  0
    5.2017   -4.2323    0.7587 O   0  0  0  0  0  0  0  0  0  0  0  0
    5.1853   -3.7964    2.1086 C   0  0  0  0  0  0  0  0  0  0  0  0
    6.2160   -3.8647    2.4599 H   0  0  0  0  0  0  0  0  0  0  0  0
    4.8440   -2.7567    2.1949 H   0  0  0  0  0  0  0  0  0  0  0  0
    4.5490   -4.4360    2.7337 H   0  0  0  0  0  0  0  0  0  0  0  0
  1  7  1  0  0  0  0
  2  8  1  0  0  0  0
  2  1  2  0  0  0  0
  3  2  1  0  0  0  0
  4  3  2  0  0  0  0
  4  5  1  0  0  0  0
  5  6  2  0  0  0  0
  6  1  1  0  0  0  0
  6 31  1  0  0  0  0
  9  4  1  0  0  0  0
 10  5  1  0  0  0  0
 12 11  3  0  0  0  0
 13 14  2  0  0  0  0
 14 15  1  0  0  0  0
 14 20  1  0  0  0  0
 15 27  1  0  0  0  0
 16 21  1  0  0  0  0
 16 15  2  0  0  0  0
 17 16  1  0  0  0  0
 18 17  2  0  0  0  0
 18 13  1  0  0  0  0
 19 13  1  0  0  0  0
 22 17  1  0  0  0  0
 23 24  1  0  0  0  0
 23 18  1  0  0  0  0
 24  3  1  0  0  0  0
 25 23  2  0  0  0  0
 26 23  2  0  0  0  0
 27 30  1  0  0  0  0
 27 28  1  0  0  0  0
 29 27  1  0  0  0  0
 31 32  1  0  0  0  0
 32 34  1  0  0  0  0
 32 33  1  0  0  0  0
 32 35  1  0  0  0  0
M  END
