Coordinates from ORCA-job 4-MeO-Ph-N2-OTs-B3LYPG-6-31G_dp-MTMO-d009-169-n800
 OpenBabel09051908173D

 35 35  0  0  0  0  0  0  0  0999 V2000
    2.8905   -3.9044    0.6681 C   0  0  0  0  0  0  0  0  0  0  0  0
    1.7487   -3.9058   -0.1380 C   0  0  0  0  0  0  0  0  0  0  0  0
    1.8363   -4.3020   -1.4680 C   0  0  0  0  0  0  0  0  0  0  0  0
    3.0582   -4.7063   -2.0149 C   0  0  0  0  0  0  0  0  0  0  0  0
    4.1913   -4.7157   -1.2129 C   0  0  0  0  0  0  0  0  0  0  0  0
    4.1174   -4.3138    0.1309 C   0  0  0  0  0  0  0  0  0  0  0  0
    2.8092   -3.5827    1.6989 H   0  0  0  0  0  0  0  0  0  0  0  0
    0.7913   -3.5868    0.2597 H   0  0  0  0  0  0  0  0  0  0  0  0
    3.1053   -5.0135   -3.0524 H   0  0  0  0  0  0  0  0  0  0  0  0
    5.1530   -5.0255   -1.6076 H   0  0  0  0  0  0  0  0  0  0  0  0
   -3.0902   -2.6501   -3.0977 N   0  0  0  0  0  0  0  0  0  0  0  0
   -2.8593   -2.1103   -4.0337 N   0  0  0  0  0  0  0  0  0  0  0  0
   -0.2837   -7.1844   -0.5391 C   0  0  0  0  0  0  0  0  0  0  0  0
   -0.9210   -7.6252    0.6205 C   0  0  0  0  0  0  0  0  0  0  0  0
   -2.1383   -7.0699    1.0354 C   0  0  0  0  0  0  0  0  0  0  0  0
   -2.7150   -6.0559    0.2525 C   0  0  0  0  0  0  0  0  0  0  0  0
   -2.0976   -5.6018   -0.9085 C   0  0  0  0  0  0  0  0  0  0  0  0
   -0.8804   -6.1737   -1.2924 C   0  0  0  0  0  0  0  0  0  0  0  0
    0.6506   -7.6235   -0.8684 H   0  0  0  0  0  0  0  0  0  0  0  0
   -0.4667   -8.4181    1.2084 H   0  0  0  0  0  0  0  0  0  0  0  0
   -3.6653   -5.6238    0.5533 H   0  0  0  0  0  0  0  0  0  0  0  0
   -2.5529   -4.8295   -1.5190 H   0  0  0  0  0  0  0  0  0  0  0  0
   -0.0787   -5.5950   -2.7760 S   0  0  0  0  0  0  0  0  0  0  0  0
    0.6903   -4.2026   -2.2676 O   0  0  0  0  0  0  0  0  0  0  0  0
   -1.0781   -5.0901   -3.7064 O   0  0  0  0  0  0  0  0  0  0  0  0
    0.9304   -6.5716   -3.1762 O   0  0  0  0  0  0  0  0  0  0  0  0
   -2.8179   -7.5396    2.2986 C   0  0  0  0  0  0  0  0  0  0  0  0
   -2.7508   -6.7791    3.0867 H   0  0  0  0  0  0  0  0  0  0  0  0
   -3.8819   -7.7338    2.1291 H   0  0  0  0  0  0  0  0  0  0  0  0
   -2.3623   -8.4556    2.6818 H   0  0  0  0  0  0  0  0  0  0  0  0
    5.2922   -4.3544    0.8231 O   0  0  0  0  0  0  0  0  0  0  0  0
    5.2860   -3.9508    2.1830 C   0  0  0  0  0  0  0  0  0  0  0  0
    6.3137   -4.0572    2.5337 H   0  0  0  0  0  0  0  0  0  0  0  0
    4.9744   -2.9041    2.2940 H   0  0  0  0  0  0  0  0  0  0  0  0
    4.6305   -4.5866    2.7919 H   0  0  0  0  0  0  0  0  0  0  0  0
  1  7  1  0  0  0  0
  2  8  1  0  0  0  0
  2  1  2  0  0  0  0
  3  2  1  0  0  0  0
  4  3  2  0  0  0  0
  4  5  1  0  0  0  0
  5  6  2  0  0  0  0
  6  1  1  0  0  0  0
  6 31  1  0  0  0  0
  9  4  1  0  0  0  0
 10  5  1  0  0  0  0
 12 11  3  0  0  0  0
 13 14  2  0  0  0  0
 14 15  1  0  0  0  0
 14 20  1  0  0  0  0
 15 27  1  0  0  0  0
 16 21  1  0  0  0  0
 16 15  2  0  0  0  0
 17 16  1  0  0  0  0
 18 17  2  0  0  0  0
 18 13  1  0  0  0  0
 19 13  1  0  0  0  0
 22 17  1  0  0  0  0
 23 24  1  0  0  0  0
 23 18  1  0  0  0  0
 24  3  1  0  0  0  0
 25 23  2  0  0  0  0
 26 23  2  0  0  0  0
 27 30  1  0  0  0  0
 27 28  1  0  0  0  0
 29 27  1  0  0  0  0
 31 32  1  0  0  0  0
 32 34  1  0  0  0  0
 32 33  1  0  0  0  0
 32 35  1  0  0  0  0
M  END
