Coordinates from ORCA-job 4-MeO-Ph-N2-OTs-B3LYPG-6-31G_dp-MTMO-d009-169-n800
 OpenBabel09051908173D

 35 35  0  0  0  0  0  0  0  0999 V2000
    2.8175   -3.8727    0.6182 C   0  0  0  0  0  0  0  0  0  0  0  0
    1.6745   -3.9152   -0.1852 C   0  0  0  0  0  0  0  0  0  0  0  0
    1.7697   -4.3292   -1.5091 C   0  0  0  0  0  0  0  0  0  0  0  0
    3.0003   -4.7112   -2.0525 C   0  0  0  0  0  0  0  0  0  0  0  0
    4.1348   -4.6796   -1.2534 C   0  0  0  0  0  0  0  0  0  0  0  0
    4.0533   -4.2592    0.0844 C   0  0  0  0  0  0  0  0  0  0  0  0
    2.7302   -3.5378    1.6443 H   0  0  0  0  0  0  0  0  0  0  0  0
    0.7102   -3.6146    0.2099 H   0  0  0  0  0  0  0  0  0  0  0  0
    3.0529   -5.0331   -3.0853 H   0  0  0  0  0  0  0  0  0  0  0  0
    5.1033   -4.9712   -1.6454 H   0  0  0  0  0  0  0  0  0  0  0  0
   -2.4682   -2.4198   -2.8758 N   0  0  0  0  0  0  0  0  0  0  0  0
   -2.0732   -1.8267   -3.7201 N   0  0  0  0  0  0  0  0  0  0  0  0
   -0.3202   -7.2725   -0.5427 C   0  0  0  0  0  0  0  0  0  0  0  0
   -0.9509   -7.7022    0.6248 C   0  0  0  0  0  0  0  0  0  0  0  0
   -2.1528   -7.1254    1.0545 C   0  0  0  0  0  0  0  0  0  0  0  0
   -2.7204   -6.1003    0.2792 C   0  0  0  0  0  0  0  0  0  0  0  0
   -2.1097   -5.6577   -0.8895 C   0  0  0  0  0  0  0  0  0  0  0  0
   -0.9081   -6.2518   -1.2889 C   0  0  0  0  0  0  0  0  0  0  0  0
    0.6031   -7.7264   -0.8831 H   0  0  0  0  0  0  0  0  0  0  0  0
   -0.5035   -8.5029    1.2073 H   0  0  0  0  0  0  0  0  0  0  0  0
   -3.6581   -5.6500    0.5928 H   0  0  0  0  0  0  0  0  0  0  0  0
   -2.5568   -4.8740   -1.4917 H   0  0  0  0  0  0  0  0  0  0  0  0
   -0.1176   -5.6920   -2.7860 S   0  0  0  0  0  0  0  0  0  0  0  0
    0.6206   -4.2718   -2.3086 O   0  0  0  0  0  0  0  0  0  0  0  0
   -1.1261   -5.2296   -3.7283 O   0  0  0  0  0  0  0  0  0  0  0  0
    0.9118   -6.6565   -3.1631 O   0  0  0  0  0  0  0  0  0  0  0  0
   -2.8257   -7.5831    2.3257 C   0  0  0  0  0  0  0  0  0  0  0  0
   -2.7466   -6.8192    3.1091 H   0  0  0  0  0  0  0  0  0  0  0  0
   -3.8926   -7.7701    2.1655 H   0  0  0  0  0  0  0  0  0  0  0  0
   -2.3742   -8.5008    2.7099 H   0  0  0  0  0  0  0  0  0  0  0  0
    5.2302   -4.2598    0.7743 O   0  0  0  0  0  0  0  0  0  0  0  0
    5.2166   -3.8370    2.1283 C   0  0  0  0  0  0  0  0  0  0  0  0
    6.2473   -3.9136    2.4782 H   0  0  0  0  0  0  0  0  0  0  0  0
    4.8803   -2.7967    2.2252 H   0  0  0  0  0  0  0  0  0  0  0  0
    4.5778   -4.4798    2.7476 H   0  0  0  0  0  0  0  0  0  0  0  0
  1  7  1  0  0  0  0
  2  8  1  0  0  0  0
  2  1  2  0  0  0  0
  3  2  1  0  0  0  0
  4  3  2  0  0  0  0
  4  5  1  0  0  0  0
  5  6  2  0  0  0  0
  6  1  1  0  0  0  0
  6 31  1  0  0  0  0
  9  4  1  0  0  0  0
 10  5  1  0  0  0  0
 12 11  3  0  0  0  0
 13 14  2  0  0  0  0
 14 15  1  0  0  0  0
 14 20  1  0  0  0  0
 15 27  1  0  0  0  0
 16 21  1  0  0  0  0
 16 15  2  0  0  0  0
 17 16  1  0  0  0  0
 18 17  2  0  0  0  0
 18 13  1  0  0  0  0
 19 13  1  0  0  0  0
 22 17  1  0  0  0  0
 23 24  1  0  0  0  0
 23 18  1  0  0  0  0
 24  3  1  0  0  0  0
 25 23  2  0  0  0  0
 26 23  2  0  0  0  0
 27 30  1  0  0  0  0
 27 28  1  0  0  0  0
 29 27  1  0  0  0  0
 31 32  1  0  0  0  0
 32 34  1  0  0  0  0
 32 33  1  0  0  0  0
 32 35  1  0  0  0  0
M  END
