Coordinates from ORCA-job 4-MeO-Ph-N2-OTs-B3LYPG-6-31G_dp-MTMO-d009-169-n800
 OpenBabel09051908173D

 35 35  0  0  0  0  0  0  0  0999 V2000
    3.0731   -3.9857    0.8090 C   0  0  0  0  0  0  0  0  0  0  0  0
    1.9195   -3.8627    0.0296 C   0  0  0  0  0  0  0  0  0  0  0  0
    1.9635   -4.1541   -1.3293 C   0  0  0  0  0  0  0  0  0  0  0  0
    3.1530   -4.5748   -1.9325 C   0  0  0  0  0  0  0  0  0  0  0  0
    4.2972   -4.7081   -1.1576 C   0  0  0  0  0  0  0  0  0  0  0  0
    4.2673   -4.4134    0.2153 C   0  0  0  0  0  0  0  0  0  0  0  0
    3.0266   -3.7441    1.8638 H   0  0  0  0  0  0  0  0  0  0  0  0
    0.9873   -3.5271    0.4710 H   0  0  0  0  0  0  0  0  0  0  0  0
    3.1669   -4.7988   -2.9921 H   0  0  0  0  0  0  0  0  0  0  0  0
    5.2344   -5.0338   -1.5960 H   0  0  0  0  0  0  0  0  0  0  0  0
   -4.2397   -3.7552   -3.6842 N   0  0  0  0  0  0  0  0  0  0  0  0
   -4.1982   -3.5464   -4.7685 N   0  0  0  0  0  0  0  0  0  0  0  0
   -0.2558   -6.9182   -0.5427 C   0  0  0  0  0  0  0  0  0  0  0  0
   -0.9108   -7.4224    0.5795 C   0  0  0  0  0  0  0  0  0  0  0  0
   -2.1556   -6.9181    0.9816 C   0  0  0  0  0  0  0  0  0  0  0  0
   -2.7410   -5.8930    0.2221 C   0  0  0  0  0  0  0  0  0  0  0  0
   -2.1038   -5.3733   -0.9014 C   0  0  0  0  0  0  0  0  0  0  0  0
   -0.8606   -5.8929   -1.2718 C   0  0  0  0  0  0  0  0  0  0  0  0
    0.6970   -7.3219   -0.8641 H   0  0  0  0  0  0  0  0  0  0  0  0
   -0.4508   -8.2270    1.1469 H   0  0  0  0  0  0  0  0  0  0  0  0
   -3.7137   -5.5036    0.5090 H   0  0  0  0  0  0  0  0  0  0  0  0
   -2.5683   -4.5966   -1.4991 H   0  0  0  0  0  0  0  0  0  0  0  0
   -0.0367   -5.2325   -2.7078 S   0  0  0  0  0  0  0  0  0  0  0  0
    0.8100   -3.9302   -2.0929 O   0  0  0  0  0  0  0  0  0  0  0  0
   -1.0151   -4.6019   -3.5819 O   0  0  0  0  0  0  0  0  0  0  0  0
    0.9188   -6.2223   -3.1978 O   0  0  0  0  0  0  0  0  0  0  0  0
   -2.8458   -7.4538    2.2126 C   0  0  0  0  0  0  0  0  0  0  0  0
   -2.6183   -6.8339    3.0887 H   0  0  0  0  0  0  0  0  0  0  0  0
   -3.9335   -7.4580    2.0916 H   0  0  0  0  0  0  0  0  0  0  0  0
   -2.5228   -8.4729    2.4405 H   0  0  0  0  0  0  0  0  0  0  0  0
    5.4491   -4.5710    0.8781 O   0  0  0  0  0  0  0  0  0  0  0  0
    5.4859   -4.2776    2.2654 C   0  0  0  0  0  0  0  0  0  0  0  0
    6.5120   -4.4640    2.5859 H   0  0  0  0  0  0  0  0  0  0  0  0
    5.2308   -3.2286    2.4646 H   0  0  0  0  0  0  0  0  0  0  0  0
    4.8077   -4.9256    2.8351 H   0  0  0  0  0  0  0  0  0  0  0  0
  1  7  1  0  0  0  0
  2  8  1  0  0  0  0
  2  1  2  0  0  0  0
  3  2  1  0  0  0  0
  4  3  2  0  0  0  0
  4  5  1  0  0  0  0
  5  6  2  0  0  0  0
  6  1  1  0  0  0  0
  6 31  1  0  0  0  0
  9  4  1  0  0  0  0
 10  5  1  0  0  0  0
 12 11  3  0  0  0  0
 13 14  2  0  0  0  0
 14 15  1  0  0  0  0
 14 20  1  0  0  0  0
 15 27  1  0  0  0  0
 16 21  1  0  0  0  0
 16 15  2  0  0  0  0
 17 16  1  0  0  0  0
 18 17  2  0  0  0  0
 18 13  1  0  0  0  0
 19 13  1  0  0  0  0
 22 17  1  0  0  0  0
 23 24  1  0  0  0  0
 23 18  1  0  0  0  0
 24  3  1  0  0  0  0
 25 23  2  0  0  0  0
 26 23  2  0  0  0  0
 27 30  1  0  0  0  0
 27 28  1  0  0  0  0
 29 27  1  0  0  0  0
 31 32  1  0  0  0  0
 32 34  1  0  0  0  0
 32 33  1  0  0  0  0
 32 35  1  0  0  0  0
M  END
