Coordinates from ORCA-job 4-MeO-Ph-N2-OTs-B3LYPG-6-31G_dp-MTMO-d009-169-n800
 OpenBabel09051908173D

 35 35  0  0  0  0  0  0  0  0999 V2000
    3.4648   -4.0430    0.6919 C   0  0  0  0  0  0  0  0  0  0  0  0
    2.5367   -3.9119   -0.3451 C   0  0  0  0  0  0  0  0  0  0  0  0
    2.7869   -4.4988   -1.5805 C   0  0  0  0  0  0  0  0  0  0  0  0
    3.9599   -5.2270   -1.8018 C   0  0  0  0  0  0  0  0  0  0  0  0
    4.8788   -5.3653   -0.7708 C   0  0  0  0  0  0  0  0  0  0  0  0
    4.6399   -4.7744    0.4809 C   0  0  0  0  0  0  0  0  0  0  0  0
    3.2608   -3.5730    1.6463 H   0  0  0  0  0  0  0  0  0  0  0  0
    1.6237   -3.3440   -0.2009 H   0  0  0  0  0  0  0  0  0  0  0  0
    4.1351   -5.6783   -2.7707 H   0  0  0  0  0  0  0  0  0  0  0  0
    5.7987   -5.9225   -0.9119 H   0  0  0  0  0  0  0  0  0  0  0  0
   -8.4999   -7.8468    1.0076 N   0  0  0  0  0  0  0  0  0  0  0  0
   -9.5285   -8.2409    0.9164 N   0  0  0  0  0  0  0  0  0  0  0  0
   -0.1974   -6.5221   -0.8130 C   0  0  0  0  0  0  0  0  0  0  0  0
   -1.1672   -6.5678    0.1879 C   0  0  0  0  0  0  0  0  0  0  0  0
   -2.2756   -5.7106    0.1648 C   0  0  0  0  0  0  0  0  0  0  0  0
   -2.3924   -4.7941   -0.8925 C   0  0  0  0  0  0  0  0  0  0  0  0
   -1.4359   -4.7318   -1.9013 C   0  0  0  0  0  0  0  0  0  0  0  0
   -0.3426   -5.6006   -1.8503 C   0  0  0  0  0  0  0  0  0  0  0  0
    0.6520   -7.1959   -0.8025 H   0  0  0  0  0  0  0  0  0  0  0  0
   -1.0619   -7.2851    0.9977 H   0  0  0  0  0  0  0  0  0  0  0  0
   -3.2481   -4.1248   -0.9278 H   0  0  0  0  0  0  0  0  0  0  0  0
   -1.5348   -4.0341   -2.7262 H   0  0  0  0  0  0  0  0  0  0  0  0
    0.8914   -5.5177   -3.1350 S   0  0  0  0  0  0  0  0  0  0  0  0
    1.8799   -4.2716   -2.6235 O   0  0  0  0  0  0  0  0  0  0  0  0
    0.2913   -4.9818   -4.3476 O   0  0  0  0  0  0  0  0  0  0  0  0
    1.6600   -6.7593   -3.1293 O   0  0  0  0  0  0  0  0  0  0  0  0
   -3.3392   -5.7885    1.2331 C   0  0  0  0  0  0  0  0  0  0  0  0
   -3.7154   -4.7955    1.4964 H   0  0  0  0  0  0  0  0  0  0  0  0
   -4.1969   -6.3784    0.8874 H   0  0  0  0  0  0  0  0  0  0  0  0
   -2.9608   -6.2623    2.1427 H   0  0  0  0  0  0  0  0  0  0  0  0
    5.6119   -4.9681    1.4184 O   0  0  0  0  0  0  0  0  0  0  0  0
    5.4341   -4.3889    2.7011 C   0  0  0  0  0  0  0  0  0  0  0  0
    6.3179   -4.6620    3.2801 H   0  0  0  0  0  0  0  0  0  0  0  0
    5.3625   -3.2949    2.6457 H   0  0  0  0  0  0  0  0  0  0  0  0
    4.5400   -4.7815    3.2029 H   0  0  0  0  0  0  0  0  0  0  0  0
  1  7  1  0  0  0  0
  2  8  1  0  0  0  0
  2  1  2  0  0  0  0
  3  2  1  0  0  0  0
  4  3  2  0  0  0  0
  4  5  1  0  0  0  0
  5  6  2  0  0  0  0
  6  1  1  0  0  0  0
  6 31  1  0  0  0  0
  9  4  1  0  0  0  0
 10  5  1  0  0  0  0
 12 11  3  0  0  0  0
 13 19  1  0  0  0  0
 13 14  2  0  0  0  0
 14 20  1  0  0  0  0
 15 14  1  0  0  0  0
 15 27  1  0  0  0  0
 16 15  2  0  0  0  0
 17 18  2  0  0  0  0
 17 16  1  0  0  0  0
 18 13  1  0  0  0  0
 21 16  1  0  0  0  0
 22 17  1  0  0  0  0
 23 26  2  0  0  0  0
 23 24  1  0  0  0  0
 23 18  1  0  0  0  0
 24  3  1  0  0  0  0
 25 23  2  0  0  0  0
 27 28  1  0  0  0  0
 27 30  1  0  0  0  0
 29 27  1  0  0  0  0
 31 32  1  0  0  0  0
 32 35  1  0  0  0  0
 32 33  1  0  0  0  0
 34 32  1  0  0  0  0
M  END
