Coordinates from ORCA-job 4-MeO-Ph-N2-OTs-B3LYPG-6-31G_dp-MTMO-d009-169-n800
 OpenBabel09051908173D

 35 35  0  0  0  0  0  0  0  0999 V2000
    3.1099   -3.9149    0.7090 C   0  0  0  0  0  0  0  0  0  0  0  0
    2.1290   -3.9116   -0.2866 C   0  0  0  0  0  0  0  0  0  0  0  0
    2.4157   -4.4227   -1.5475 C   0  0  0  0  0  0  0  0  0  0  0  0
    3.6795   -4.9473   -1.8357 C   0  0  0  0  0  0  0  0  0  0  0  0
    4.6519   -4.9607   -0.8453 C   0  0  0  0  0  0  0  0  0  0  0  0
    4.3762   -4.4441    0.4313 C   0  0  0  0  0  0  0  0  0  0  0  0
    2.8750   -3.5054    1.6838 H   0  0  0  0  0  0  0  0  0  0  0  0
    1.1445   -3.5006   -0.0909 H   0  0  0  0  0  0  0  0  0  0  0  0
    3.8828   -5.3423   -2.8235 H   0  0  0  0  0  0  0  0  0  0  0  0
    5.6410   -5.3619   -1.0379 H   0  0  0  0  0  0  0  0  0  0  0  0
   -6.1856   -4.2157   -0.3279 N   0  0  0  0  0  0  0  0  0  0  0  0
   -7.1588   -3.7132   -0.4739 N   0  0  0  0  0  0  0  0  0  0  0  0
   -0.0768   -7.0084   -0.7613 C   0  0  0  0  0  0  0  0  0  0  0  0
   -0.9549   -7.2868    0.2845 C   0  0  0  0  0  0  0  0  0  0  0  0
   -2.1968   -6.6425    0.3816 C   0  0  0  0  0  0  0  0  0  0  0  0
   -2.5481   -5.7091   -0.6060 C   0  0  0  0  0  0  0  0  0  0  0  0
   -1.6847   -5.4166   -1.6591 C   0  0  0  0  0  0  0  0  0  0  0  0
   -0.4523   -6.0707   -1.7252 C   0  0  0  0  0  0  0  0  0  0  0  0
    0.8747   -7.5206   -0.8465 H   0  0  0  0  0  0  0  0  0  0  0  0
   -0.6742   -8.0232    1.0331 H   0  0  0  0  0  0  0  0  0  0  0  0
   -3.5137   -5.2145   -0.5546 H   0  0  0  0  0  0  0  0  0  0  0  0
   -1.9639   -4.7095   -2.4329 H   0  0  0  0  0  0  0  0  0  0  0  0
    0.6557   -5.6999   -3.0716 S   0  0  0  0  0  0  0  0  0  0  0  0
    1.4378   -4.3204   -2.5449 O   0  0  0  0  0  0  0  0  0  0  0  0
   -0.1102   -5.2235   -4.2136 O   0  0  0  0  0  0  0  0  0  0  0  0
    1.6333   -6.7790   -3.1860 O   0  0  0  0  0  0  0  0  0  0  0  0
   -3.1297   -6.9350    1.5318 C   0  0  0  0  0  0  0  0  0  0  0  0
   -2.8953   -6.3011    2.3959 H   0  0  0  0  0  0  0  0  0  0  0  0
   -4.1716   -6.7431    1.2604 H   0  0  0  0  0  0  0  0  0  0  0  0
   -3.0463   -7.9750    1.8602 H   0  0  0  0  0  0  0  0  0  0  0  0
    5.4055   -4.5015    1.3248 O   0  0  0  0  0  0  0  0  0  0  0  0
    5.1956   -3.9789    2.6269 C   0  0  0  0  0  0  0  0  0  0  0  0
    6.1343   -4.1235    3.1645 H   0  0  0  0  0  0  0  0  0  0  0  0
    4.9568   -2.9080    2.6001 H   0  0  0  0  0  0  0  0  0  0  0  0
    4.3934   -4.5119    3.1537 H   0  0  0  0  0  0  0  0  0  0  0  0
  1  7  1  0  0  0  0
  2  8  1  0  0  0  0
  2  1  2  0  0  0  0
  3  2  1  0  0  0  0
  4  3  2  0  0  0  0
  4  5  1  0  0  0  0
  5  6  2  0  0  0  0
  6  1  1  0  0  0  0
  6 31  1  0  0  0  0
  9  4  1  0  0  0  0
 10  5  1  0  0  0  0
 12 11  3  0  0  0  0
 13 14  2  0  0  0  0
 14 15  1  0  0  0  0
 14 20  1  0  0  0  0
 15 27  1  0  0  0  0
 16 21  1  0  0  0  0
 16 15  2  0  0  0  0
 17 16  1  0  0  0  0
 18 17  2  0  0  0  0
 18 13  1  0  0  0  0
 19 13  1  0  0  0  0
 22 17  1  0  0  0  0
 23 24  1  0  0  0  0
 23 18  1  0  0  0  0
 24  3  1  0  0  0  0
 25 23  2  0  0  0  0
 26 23  2  0  0  0  0
 27 30  1  0  0  0  0
 27 28  1  0  0  0  0
 29 27  1  0  0  0  0
 31 32  1  0  0  0  0
 32 35  1  0  0  0  0
 32 33  1  0  0  0  0
 34 32  1  0  0  0  0
M  END
