Coordinates from ORCA-job 4-MeO-Ph-N2-OTs-B3LYPG-6-31G_dp-MTMO-d009-169-n800
 OpenBabel09051908173D

 35 36  0  0  1  0  0  0  0  0999 V2000
    3.7438   -3.0711   -0.7543 C   0  0  0  0  0  0  0  0  0  0  0  0
    3.0127   -1.9904   -0.4266 C   0  0  0  0  0  0  0  0  0  0  0  0
    1.8118   -2.0758    0.4496 C   0  0  2  0  0  0  0  0  0  0  0  0
    1.2468   -3.5248    0.6483 C   0  0  2  0  0  0  0  0  0  0  0  0
    2.2545   -4.5918    0.4553 C   0  0  0  0  0  0  0  0  0  0  0  0
    3.3937   -4.3927   -0.2458 C   0  0  0  0  0  0  0  0  0  0  0  0
    4.6088   -2.9487   -1.3948 H   0  0  0  0  0  0  0  0  0  0  0  0
    3.2696   -0.9941   -0.7748 H   0  0  0  0  0  0  0  0  0  0  0  0
    0.7692   -3.5607    1.6298 H   0  0  0  0  0  0  0  0  0  0  0  0
    2.0270   -5.5806    0.8385 H   0  0  0  0  0  0  0  0  0  0  0  0
    1.3603   -1.3198    0.8321 N   0  0  0  0  0  0  0  0  0  0  0  0
    0.8057   -0.3971    1.3014 N   0  0  0  0  0  0  0  0  0  0  0  0
   -1.6035   -6.4595    1.0518 C   0  0  0  0  0  0  0  0  0  0  0  0
   -1.7737   -7.8335    0.8817 C   0  0  0  0  0  0  0  0  0  0  0  0
   -1.9640   -8.3888   -0.3901 C   0  0  0  0  0  0  0  0  0  0  0  0
   -1.9825   -7.5291   -1.5004 C   0  0  0  0  0  0  0  0  0  0  0  0
   -1.8172   -6.1559   -1.3520 C   0  0  0  0  0  0  0  0  0  0  0  0
   -1.6234   -5.6325   -0.0709 C   0  0  0  0  0  0  0  0  0  0  0  0
   -1.4718   -6.0284    2.0382 H   0  0  0  0  0  0  0  0  0  0  0  0
   -1.7632   -8.4828    1.7530 H   0  0  0  0  0  0  0  0  0  0  0  0
   -2.1334   -7.9425   -2.4942 H   0  0  0  0  0  0  0  0  0  0  0  0
   -1.8474   -5.4938   -2.2105 H   0  0  0  0  0  0  0  0  0  0  0  0
   -1.3967   -3.8724    0.1274 S   0  0  0  0  0  0  0  0  0  0  0  0
   -1.4908   -3.5471    1.5523 O   0  0  0  0  0  0  0  0  0  0  0  0
   -2.1972   -3.1808   -0.8732 O   0  0  0  0  0  0  0  0  0  0  0  0
    0.1643   -3.6646   -0.3588 O   0  0  0  0  0  0  0  0  0  0  0  0
   -2.1736   -9.8732   -0.5666 C   0  0  0  0  0  0  0  0  0  0  0  0
   -1.6158  -10.2553   -1.4273 H   0  0  0  0  0  0  0  0  0  0  0  0
   -1.8574  -10.4312    0.3188 H   0  0  0  0  0  0  0  0  0  0  0  0
   -3.2321  -10.1010   -0.7405 H   0  0  0  0  0  0  0  0  0  0  0  0
    4.2049   -5.4698   -0.4482 O   0  0  0  0  0  0  0  0  0  0  0  0
    5.5145   -5.2796   -0.9695 C   0  0  0  0  0  0  0  0  0  0  0  0
    5.9915   -6.2603   -0.9311 H   0  0  0  0  0  0  0  0  0  0  0  0
    5.4960   -4.9389   -2.0120 H   0  0  0  0  0  0  0  0  0  0  0  0
    6.0983   -4.5745   -0.3656 H   0  0  0  0  0  0  0  0  0  0  0  0
  1  2  2  0  0  0  0
  1  6  1  0  0  0  0
  2  3  1  0  0  0  0
  3  4  1  0  0  0  0
  3 11  1  6  0  0  0
  4  9  1  1  0  0  0
  5  4  1  0  0  0  0
  5 10  1  0  0  0  0
  6  5  2  0  0  0  0
  7  1  1  0  0  0  0
  8  2  1  0  0  0  0
 11 12  1  0  0  0  0
 13 19  1  0  0  0  0
 14 13  1  0  0  0  0
 14 20  1  0  0  0  0
 15 14  2  0  0  0  0
 16 17  2  0  0  0  0
 16 15  1  0  0  0  0
 17 18  1  0  0  0  0
 18 23  1  0  0  0  0
 18 13  2  0  0  0  0
 21 16  1  0  0  0  0
 22 17  1  0  0  0  0
 23 24  2  0  0  0  0
 25 23  2  0  0  0  0
 26 23  1  0  0  0  0
 26  4  1  0  0  0  0
 27 15  1  0  0  0  0
 27 29  1  0  0  0  0
 28 27  1  0  0  0  0
 30 27  1  0  0  0  0
 31  6  1  0  0  0  0
 32 33  1  0  0  0  0
 32 31  1  0  0  0  0
 32 35  1  0  0  0  0
 34 32  1  0  0  0  0
M  RAD  3   3   2  11   2  12   3
M  END
