Coordinates from ORCA-job 4-MeO-Ph-N2-OTs-B3LYPG-6-31G_dp-MTMO-d009-169-n800
 OpenBabel09051908173D

 35 35  0  0  0  0  0  0  0  0999 V2000
    3.0154   -3.9600    0.7680 C   0  0  0  0  0  0  0  0  0  0  0  0
    1.8672   -3.8766   -0.0245 C   0  0  0  0  0  0  0  0  0  0  0  0
    1.9277   -4.2065   -1.3740 C   0  0  0  0  0  0  0  0  0  0  0  0
    3.1284   -4.6276   -1.9542 C   0  0  0  0  0  0  0  0  0  0  0  0
    4.2673   -4.7217   -1.1660 C   0  0  0  0  0  0  0  0  0  0  0  0
    4.2209   -4.3874    0.1974 C   0  0  0  0  0  0  0  0  0  0  0  0
    2.9557   -3.6886    1.8148 H   0  0  0  0  0  0  0  0  0  0  0  0
    0.9263   -3.5420    0.3990 H   0  0  0  0  0  0  0  0  0  0  0  0
    3.1549   -4.8822   -3.0067 H   0  0  0  0  0  0  0  0  0  0  0  0
    5.2129   -5.0465   -1.5866 H   0  0  0  0  0  0  0  0  0  0  0  0
   -3.9502   -3.3532   -3.5535 N   0  0  0  0  0  0  0  0  0  0  0  0
   -3.8886   -3.0248   -4.6066 N   0  0  0  0  0  0  0  0  0  0  0  0
   -0.2567   -7.0065   -0.5429 C   0  0  0  0  0  0  0  0  0  0  0  0
   -0.9035   -7.4897    0.5931 C   0  0  0  0  0  0  0  0  0  0  0  0
   -2.1395   -6.9692    1.0015 C   0  0  0  0  0  0  0  0  0  0  0  0
   -2.7242   -5.9496    0.2340 C   0  0  0  0  0  0  0  0  0  0  0  0
   -2.0958   -5.4515   -0.9040 C   0  0  0  0  0  0  0  0  0  0  0  0
   -0.8610   -5.9871   -1.2804 C   0  0  0  0  0  0  0  0  0  0  0  0
    0.6898   -7.4213   -0.8686 H   0  0  0  0  0  0  0  0  0  0  0  0
   -0.4439   -8.2899    1.1670 H   0  0  0  0  0  0  0  0  0  0  0  0
   -3.6900   -5.5475    0.5266 H   0  0  0  0  0  0  0  0  0  0  0  0
   -2.5613   -4.6780   -1.5053 H   0  0  0  0  0  0  0  0  0  0  0  0
   -0.0448   -5.3546   -2.7336 S   0  0  0  0  0  0  0  0  0  0  0  0
    0.7784   -4.0219   -2.1540 O   0  0  0  0  0  0  0  0  0  0  0  0
   -1.0301   -4.7644   -3.6279 O   0  0  0  0  0  0  0  0  0  0  0  0
    0.9274   -6.3426   -3.1932 O   0  0  0  0  0  0  0  0  0  0  0  0
   -2.8206   -7.4811    2.2475 C   0  0  0  0  0  0  0  0  0  0  0  0
   -2.5778   -6.8509    3.1122 H   0  0  0  0  0  0  0  0  0  0  0  0
   -3.9096   -7.4773    2.1387 H   0  0  0  0  0  0  0  0  0  0  0  0
   -2.5040   -8.4997    2.4864 H   0  0  0  0  0  0  0  0  0  0  0  0
    5.3990   -4.5079    0.8745 O   0  0  0  0  0  0  0  0  0  0  0  0
    5.4198   -4.1712    2.2523 C   0  0  0  0  0  0  0  0  0  0  0  0
    6.4460   -4.3317    2.5863 H   0  0  0  0  0  0  0  0  0  0  0  0
    5.1473   -3.1206    2.4168 H   0  0  0  0  0  0  0  0  0  0  0  0
    4.7469   -4.8118    2.8365 H   0  0  0  0  0  0  0  0  0  0  0  0
  1  7  1  0  0  0  0
  2  8  1  0  0  0  0
  2  1  2  0  0  0  0
  3  2  1  0  0  0  0
  4  3  2  0  0  0  0
  4  5  1  0  0  0  0
  5  6  2  0  0  0  0
  6  1  1  0  0  0  0
  6 31  1  0  0  0  0
  9  4  1  0  0  0  0
 10  5  1  0  0  0  0
 12 11  3  0  0  0  0
 13 14  2  0  0  0  0
 14 15  1  0  0  0  0
 14 20  1  0  0  0  0
 15 27  1  0  0  0  0
 16 21  1  0  0  0  0
 16 15  2  0  0  0  0
 17 16  1  0  0  0  0
 18 17  2  0  0  0  0
 18 13  1  0  0  0  0
 19 13  1  0  0  0  0
 22 17  1  0  0  0  0
 23 24  1  0  0  0  0
 23 18  1  0  0  0  0
 24  3  1  0  0  0  0
 25 23  2  0  0  0  0
 26 23  2  0  0  0  0
 27 30  1  0  0  0  0
 27 28  1  0  0  0  0
 29 27  1  0  0  0  0
 31 32  1  0  0  0  0
 32 34  1  0  0  0  0
 32 33  1  0  0  0  0
 32 35  1  0  0  0  0
M  END
