Coordinates from ORCA-job 4-MeO-Ph-N2-OTs-B3LYPG-6-31G_dp-MTMO-d009-169-n800
 OpenBabel09051908173D

 35 35  0  0  0  0  0  0  0  0999 V2000
    3.0650   -3.9428    0.7661 C   0  0  0  0  0  0  0  0  0  0  0  0
    1.9932   -3.8929   -0.1295 C   0  0  0  0  0  0  0  0  0  0  0  0
    2.1704   -4.2904   -1.4502 C   0  0  0  0  0  0  0  0  0  0  0  0
    3.4139   -4.7467   -1.8986 C   0  0  0  0  0  0  0  0  0  0  0  0
    4.4770   -4.8067   -1.0080 C   0  0  0  0  0  0  0  0  0  0  0  0
    4.3122   -4.4044    0.3276 C   0  0  0  0  0  0  0  0  0  0  0  0
    2.9147   -3.6199    1.7889 H   0  0  0  0  0  0  0  0  0  0  0  0
    1.0216   -3.5330    0.1913 H   0  0  0  0  0  0  0  0  0  0  0  0
    3.5316   -5.0543   -2.9304 H   0  0  0  0  0  0  0  0  0  0  0  0
    5.4532   -5.1573   -1.3255 H   0  0  0  0  0  0  0  0  0  0  0  0
   -5.1432   -3.6544   -2.0796 N   0  0  0  0  0  0  0  0  0  0  0  0
   -5.8688   -3.1897   -2.7715 N   0  0  0  0  0  0  0  0  0  0  0  0
   -0.1377   -7.0227   -0.6640 C   0  0  0  0  0  0  0  0  0  0  0  0
   -0.8949   -7.4253    0.4355 C   0  0  0  0  0  0  0  0  0  0  0  0
   -2.1442   -6.8518    0.7060 C   0  0  0  0  0  0  0  0  0  0  0  0
   -2.6297   -5.8602   -0.1620 C   0  0  0  0  0  0  0  0  0  0  0  0
   -1.8902   -5.4436   -1.2642 C   0  0  0  0  0  0  0  0  0  0  0  0
   -0.6447   -6.0308   -1.5036 C   0  0  0  0  0  0  0  0  0  0  0  0
    0.8209   -7.4789   -0.8827 H   0  0  0  0  0  0  0  0  0  0  0  0
   -0.5101   -8.2035    1.0892 H   0  0  0  0  0  0  0  0  0  0  0  0
   -3.6036   -5.4146    0.0203 H   0  0  0  0  0  0  0  0  0  0  0  0
   -2.2765   -4.6904   -1.9423 H   0  0  0  0  0  0  0  0  0  0  0  0
    0.3100   -5.4980   -2.9116 S   0  0  0  0  0  0  0  0  0  0  0  0
    1.0975   -4.1405   -2.3381 O   0  0  0  0  0  0  0  0  0  0  0  0
   -0.5811   -4.9533   -3.9250 O   0  0  0  0  0  0  0  0  0  0  0  0
    1.3044   -6.5221   -3.2191 O   0  0  0  0  0  0  0  0  0  0  0  0
   -2.9517   -7.2778    1.9078 C   0  0  0  0  0  0  0  0  0  0  0  0
   -2.9009   -6.5225    2.7023 H   0  0  0  0  0  0  0  0  0  0  0  0
   -4.0084   -7.4059    1.6527 H   0  0  0  0  0  0  0  0  0  0  0  0
   -2.5853   -8.2194    2.3238 H   0  0  0  0  0  0  0  0  0  0  0  0
    5.4243   -4.4978    1.1122 O   0  0  0  0  0  0  0  0  0  0  0  0
    5.3258   -4.0976    2.4696 C   0  0  0  0  0  0  0  0  0  0  0  0
    6.3165   -4.2494    2.9012 H   0  0  0  0  0  0  0  0  0  0  0  0
    5.0517   -3.0387    2.5617 H   0  0  0  0  0  0  0  0  0  0  0  0
    4.5968   -4.7059    3.0202 H   0  0  0  0  0  0  0  0  0  0  0  0
  1  7  1  0  0  0  0
  2  8  1  0  0  0  0
  2  1  2  0  0  0  0
  3  2  1  0  0  0  0
  4  3  2  0  0  0  0
  4  5  1  0  0  0  0
  5  6  2  0  0  0  0
  6  1  1  0  0  0  0
  6 31  1  0  0  0  0
  9  4  1  0  0  0  0
 10  5  1  0  0  0  0
 12 11  3  0  0  0  0
 13 14  2  0  0  0  0
 14 15  1  0  0  0  0
 14 20  1  0  0  0  0
 15 27  1  0  0  0  0
 16 21  1  0  0  0  0
 16 15  2  0  0  0  0
 17 16  1  0  0  0  0
 18 17  2  0  0  0  0
 18 13  1  0  0  0  0
 19 13  1  0  0  0  0
 22 17  1  0  0  0  0
 23 24  1  0  0  0  0
 23 18  1  0  0  0  0
 24  3  1  0  0  0  0
 25 23  2  0  0  0  0
 26 23  2  0  0  0  0
 27 30  1  0  0  0  0
 27 28  1  0  0  0  0
 29 27  1  0  0  0  0
 31 32  1  0  0  0  0
 32 34  1  0  0  0  0
 32 33  1  0  0  0  0
 32 35  1  0  0  0  0
M  END
