Coordinates from ORCA-job 4-MeO-Ph-N2-OTs-B3LYPG-6-31G_dp-MTMO-d009-169-n800
 OpenBabel09051908173D

 35 34  0  0  0  0  0  0  0  0999 V2000
    4.0222   -2.6862    0.3177 C   0  0  0  0  0  0  0  0  0  0  0  0
    3.0450   -1.9158   -0.3498 C   0  0  0  0  0  0  0  0  0  0  0  0
    2.2364   -2.7687   -1.0394 C   0  0  0  0  0  0  0  0  0  0  0  0
    2.1364   -4.0185   -1.2222 C   0  0  0  0  0  0  0  0  0  0  0  0
    3.0999   -4.8024   -0.5708 C   0  0  0  0  0  0  0  0  0  0  0  0
    4.0493   -4.0975    0.2095 C   0  0  0  0  0  0  0  0  0  0  0  0
    4.7586   -2.1652    0.9180 H   0  0  0  0  0  0  0  0  0  0  0  0
    2.9864   -0.8361   -0.2970 H   0  0  0  0  0  0  0  0  0  0  0  0
    0.8407   -4.8930   -2.2614 H   0  0  0  0  0  0  0  0  0  0  0  0
    3.1566   -5.8851   -0.6274 H   0  0  0  0  0  0  0  0  0  0  0  0
    0.7208   -1.2810   -2.2036 N   0  0  0  0  0  0  0  0  0  0  0  0
   -0.0001   -1.1923   -3.0368 N   0  0  0  0  0  0  0  0  0  0  0  0
   -1.6280   -5.8433    0.1336 C   0  0  0  0  0  0  0  0  0  0  0  0
   -1.9691   -6.7440    1.1403 C   0  0  0  0  0  0  0  0  0  0  0  0
   -2.4359   -8.0308    0.8357 C   0  0  0  0  0  0  0  0  0  0  0  0
   -2.5642   -8.3930   -0.5131 C   0  0  0  0  0  0  0  0  0  0  0  0
   -2.2282   -7.5060   -1.5334 C   0  0  0  0  0  0  0  0  0  0  0  0
   -1.7569   -6.2356   -1.1996 C   0  0  0  0  0  0  0  0  0  0  0  0
   -1.2840   -4.8428    0.3705 H   0  0  0  0  0  0  0  0  0  0  0  0
   -1.8782   -6.4402    2.1801 H   0  0  0  0  0  0  0  0  0  0  0  0
   -2.9396   -9.3801   -0.7681 H   0  0  0  0  0  0  0  0  0  0  0  0
   -2.3454   -7.7806   -2.5761 H   0  0  0  0  0  0  0  0  0  0  0  0
   -1.3119   -5.0954   -2.5027 S   0  0  0  0  0  0  0  0  0  0  0  0
   -1.3520   -3.7364   -1.9555 O   0  0  0  0  0  0  0  0  0  0  0  0
   -2.0560   -5.4557   -3.7023 O   0  0  0  0  0  0  0  0  0  0  0  0
    0.2345   -5.4717   -2.8085 O   0  0  0  0  0  0  0  0  0  0  0  0
   -2.7757   -9.0086    1.9350 C   0  0  0  0  0  0  0  0  0  0  0  0
   -3.5344   -9.7273    1.6119 H   0  0  0  0  0  0  0  0  0  0  0  0
   -1.8903   -9.5823    2.2365 H   0  0  0  0  0  0  0  0  0  0  0  0
   -3.1488   -8.4960    2.8262 H   0  0  0  0  0  0  0  0  0  0  0  0
    4.9706   -4.8828    0.8350 O   0  0  0  0  0  0  0  0  0  0  0  0
    5.9668   -4.2674    1.6367 C   0  0  0  0  0  0  0  0  0  0  0  0
    6.5780   -5.0792    2.0330 H   0  0  0  0  0  0  0  0  0  0  0  0
    6.6010   -3.5935    1.0465 H   0  0  0  0  0  0  0  0  0  0  0  0
    5.5253   -3.7088    2.4723 H   0  0  0  0  0  0  0  0  0  0  0  0
  1  7  1  0  0  0  0
  2  8  1  0  0  0  0
  2  1  2  0  0  0  0
  3  2  1  0  0  0  0
  4  3  2  0  0  0  0
  4  5  1  0  0  0  0
  5  6  2  0  0  0  0
  6  1  1  0  0  0  0
  6 31  1  0  0  0  0
 10  5  1  0  0  0  0
 12 11  3  0  0  0  0
 13 19  1  0  0  0  0
 13 14  2  0  0  0  0
 14 20  1  0  0  0  0
 15 14  1  0  0  0  0
 15 27  1  0  0  0  0
 16 15  2  0  0  0  0
 17 18  2  0  0  0  0
 17 16  1  0  0  0  0
 18 13  1  0  0  0  0
 21 16  1  0  0  0  0
 22 17  1  0  0  0  0
 23 24  2  0  0  0  0
 23 18  1  0  0  0  0
 25 23  2  0  0  0  0
 26 23  1  0  0  0  0
 26  9  1  0  0  0  0
 27 29  1  0  0  0  0
 27 30  1  0  0  0  0
 28 27  1  0  0  0  0
 31 32  1  0  0  0  0
 32 33  1  0  0  0  0
 32 35  1  0  0  0  0
 34 32  1  0  0  0  0
M  RAD  2   3   2   4   2
M  END
