Coordinates from ORCA-job 4-MeO-Ph-N2-OTs-B3LYPG-6-31G_dp-MTMO-d009-169-n800
 OpenBabel09051908173D

 35 35  0  0  0  0  0  0  0  0999 V2000
    3.1195   -4.0011    0.8392 C   0  0  0  0  0  0  0  0  0  0  0  0
    1.9678   -3.8584    0.0603 C   0  0  0  0  0  0  0  0  0  0  0  0
    2.0109   -4.1323   -1.3023 C   0  0  0  0  0  0  0  0  0  0  0  0
    3.1977   -4.5547   -1.9096 C   0  0  0  0  0  0  0  0  0  0  0  0
    4.3398   -4.7076   -1.1354 C   0  0  0  0  0  0  0  0  0  0  0  0
    4.3107   -4.4308    0.2413 C   0  0  0  0  0  0  0  0  0  0  0  0
    3.0737   -3.7727    1.8971 H   0  0  0  0  0  0  0  0  0  0  0  0
    1.0380   -3.5207    0.5053 H   0  0  0  0  0  0  0  0  0  0  0  0
    3.2109   -4.7650   -2.9721 H   0  0  0  0  0  0  0  0  0  0  0  0
    5.2749   -5.0352   -1.5770 H   0  0  0  0  0  0  0  0  0  0  0  0
   -4.6249   -3.9579   -3.7290 N   0  0  0  0  0  0  0  0  0  0  0  0
   -4.6550   -3.8598   -4.8293 N   0  0  0  0  0  0  0  0  0  0  0  0
   -0.2416   -6.8732   -0.5482 C   0  0  0  0  0  0  0  0  0  0  0  0
   -0.9104   -7.3833    0.5631 C   0  0  0  0  0  0  0  0  0  0  0  0
   -2.1600   -6.8810    0.9527 C   0  0  0  0  0  0  0  0  0  0  0  0
   -2.7360   -5.8517    0.1916 C   0  0  0  0  0  0  0  0  0  0  0  0
   -2.0847   -5.3261   -0.9209 C   0  0  0  0  0  0  0  0  0  0  0  0
   -0.8370   -5.8436   -1.2790 C   0  0  0  0  0  0  0  0  0  0  0  0
    0.7147   -7.2758   -0.8604 H   0  0  0  0  0  0  0  0  0  0  0  0
   -0.4577   -8.1911    1.1317 H   0  0  0  0  0  0  0  0  0  0  0  0
   -3.7121   -5.4638    0.4685 H   0  0  0  0  0  0  0  0  0  0  0  0
   -2.5415   -4.5460   -1.5202 H   0  0  0  0  0  0  0  0  0  0  0  0
    0.0041   -5.1746   -2.7009 S   0  0  0  0  0  0  0  0  0  0  0  0
    0.8599   -3.8889   -2.0638 O   0  0  0  0  0  0  0  0  0  0  0  0
   -0.9622   -4.5239   -3.5733 O   0  0  0  0  0  0  0  0  0  0  0  0
    0.9530   -6.1683   -3.1958 O   0  0  0  0  0  0  0  0  0  0  0  0
   -2.8659   -7.4233    2.1718 C   0  0  0  0  0  0  0  0  0  0  0  0
   -2.6614   -6.7999    3.0512 H   0  0  0  0  0  0  0  0  0  0  0  0
   -3.9512   -7.4398    2.0315 H   0  0  0  0  0  0  0  0  0  0  0  0
   -2.5358   -8.4385    2.4066 H   0  0  0  0  0  0  0  0  0  0  0  0
    5.4904   -4.6071    0.9032 O   0  0  0  0  0  0  0  0  0  0  0  0
    5.5271   -4.3359    2.2950 C   0  0  0  0  0  0  0  0  0  0  0  0
    6.5509   -4.5367    2.6143 H   0  0  0  0  0  0  0  0  0  0  0  0
    5.2812   -3.2880    2.5105 H   0  0  0  0  0  0  0  0  0  0  0  0
    4.8420   -4.9866    2.8532 H   0  0  0  0  0  0  0  0  0  0  0  0
  1  7  1  0  0  0  0
  2  8  1  0  0  0  0
  2  1  2  0  0  0  0
  3  2  1  0  0  0  0
  4  3  2  0  0  0  0
  4  5  1  0  0  0  0
  5  6  2  0  0  0  0
  6  1  1  0  0  0  0
  6 31  1  0  0  0  0
  9  4  1  0  0  0  0
 10  5  1  0  0  0  0
 12 11  3  0  0  0  0
 13 14  2  0  0  0  0
 14 15  1  0  0  0  0
 14 20  1  0  0  0  0
 15 27  1  0  0  0  0
 16 21  1  0  0  0  0
 16 15  2  0  0  0  0
 17 16  1  0  0  0  0
 18 17  2  0  0  0  0
 18 13  1  0  0  0  0
 19 13  1  0  0  0  0
 22 17  1  0  0  0  0
 23 24  1  0  0  0  0
 23 18  1  0  0  0  0
 24  3  1  0  0  0  0
 25 23  2  0  0  0  0
 26 23  2  0  0  0  0
 27 30  1  0  0  0  0
 27 28  1  0  0  0  0
 29 27  1  0  0  0  0
 31 32  1  0  0  0  0
 32 34  1  0  0  0  0
 32 33  1  0  0  0  0
 32 35  1  0  0  0  0
M  END
