Coordinates from ORCA-job 4-MeO-Ph-N2-OTs-B3LYPG-6-31G_dp-MTMO-d009-169-n800
 OpenBabel09051908173D

 35 34  0  0  0  0  0  0  0  0999 V2000
    3.8656   -2.9235    0.3701 C   0  0  0  0  0  0  0  0  0  0  0  0
    2.6068   -2.5604   -0.1620 C   0  0  0  0  0  0  0  0  0  0  0  0
    2.1346   -3.6320   -0.8645 C   0  0  0  0  0  0  0  0  0  0  0  0
    2.5394   -4.7946   -1.1336 C   0  0  0  0  0  0  0  0  0  0  0  0
    3.7791   -5.1916   -0.6288 C   0  0  0  0  0  0  0  0  0  0  0  0
    4.4367   -4.2008    0.1454 C   0  0  0  0  0  0  0  0  0  0  0  0
    4.3949   -2.1859    0.9621 H   0  0  0  0  0  0  0  0  0  0  0  0
    2.1431   -1.5946   -0.0160 H   0  0  0  0  0  0  0  0  0  0  0  0
    1.1629   -5.5890   -2.3246 H   0  0  0  0  0  0  0  0  0  0  0  0
    4.2512   -6.1564   -0.7810 H   0  0  0  0  0  0  0  0  0  0  0  0
   -0.0557   -0.9388   -1.5746 N   0  0  0  0  0  0  0  0  0  0  0  0
   -0.8980   -0.6834   -2.2423 N   0  0  0  0  0  0  0  0  0  0  0  0
   -1.4820   -5.8842    0.0777 C   0  0  0  0  0  0  0  0  0  0  0  0
   -2.0134   -6.6833    1.0895 C   0  0  0  0  0  0  0  0  0  0  0  0
   -2.7124   -7.8607    0.7928 C   0  0  0  0  0  0  0  0  0  0  0  0
   -2.8787   -8.2184   -0.5547 C   0  0  0  0  0  0  0  0  0  0  0  0
   -2.3575   -7.4330   -1.5783 C   0  0  0  0  0  0  0  0  0  0  0  0
   -1.6563   -6.2696   -1.2509 C   0  0  0  0  0  0  0  0  0  0  0  0
   -0.9518   -4.9675    0.3094 H   0  0  0  0  0  0  0  0  0  0  0  0
   -1.8866   -6.3840    2.1265 H   0  0  0  0  0  0  0  0  0  0  0  0
   -3.4281   -9.1221   -0.8047 H   0  0  0  0  0  0  0  0  0  0  0  0
   -2.5012   -7.7021   -2.6191 H   0  0  0  0  0  0  0  0  0  0  0  0
   -0.9665   -5.2702   -2.5612 S   0  0  0  0  0  0  0  0  0  0  0  0
   -0.6823   -3.9349   -2.0241 O   0  0  0  0  0  0  0  0  0  0  0  0
   -1.7779   -5.4495   -3.7562 O   0  0  0  0  0  0  0  0  0  0  0  0
    0.4474   -6.0029   -2.8744 O   0  0  0  0  0  0  0  0  0  0  0  0
   -3.2658   -8.7354    1.8920 C   0  0  0  0  0  0  0  0  0  0  0  0
   -4.2880   -9.0570    1.6690 H   0  0  0  0  0  0  0  0  0  0  0  0
   -2.6617   -9.6423    2.0127 H   0  0  0  0  0  0  0  0  0  0  0  0
   -3.2756   -8.2138    2.8527 H   0  0  0  0  0  0  0  0  0  0  0  0
    5.6467   -4.5814    0.6450 O   0  0  0  0  0  0  0  0  0  0  0  0
    6.3839   -3.6630    1.4373 C   0  0  0  0  0  0  0  0  0  0  0  0
    7.2973   -4.1828    1.7291 H   0  0  0  0  0  0  0  0  0  0  0  0
    6.6487   -2.7613    0.8705 H   0  0  0  0  0  0  0  0  0  0  0  0
    5.8307   -3.3728    2.3397 H   0  0  0  0  0  0  0  0  0  0  0  0
  1  7  1  0  0  0  0
  2  8  1  0  0  0  0
  2  1  2  0  0  0  0
  3  2  1  0  0  0  0
  4  3  2  0  0  0  0
  4  5  1  0  0  0  0
  5  6  2  0  0  0  0
  6  1  1  0  0  0  0
  6 31  1  0  0  0  0
 10  5  1  0  0  0  0
 12 11  3  0  0  0  0
 13 19  1  0  0  0  0
 13 14  2  0  0  0  0
 14 20  1  0  0  0  0
 15 14  1  0  0  0  0
 15 27  1  0  0  0  0
 16 15  2  0  0  0  0
 17 18  2  0  0  0  0
 17 16  1  0  0  0  0
 18 13  1  0  0  0  0
 21 16  1  0  0  0  0
 22 17  1  0  0  0  0
 23 24  2  0  0  0  0
 23 18  1  0  0  0  0
 25 23  2  0  0  0  0
 26 23  1  0  0  0  0
 26  9  1  0  0  0  0
 27 29  1  0  0  0  0
 27 30  1  0  0  0  0
 28 27  1  0  0  0  0
 31 32  1  0  0  0  0
 32 33  1  0  0  0  0
 32 35  1  0  0  0  0
 34 32  1  0  0  0  0
M  RAD  2   3   2   4   2
M  END
