Coordinates from ORCA-job 4-MeO-Ph-N2-OTs-B3LYPG-6-31G_dp-MTMO-d009-169-n800
 OpenBabel09051908173D

 35 34  0  0  0  0  0  0  0  0999 V2000
    4.0212   -2.6902    0.3257 C   0  0  0  0  0  0  0  0  0  0  0  0
    3.0354   -1.9239   -0.3343 C   0  0  0  0  0  0  0  0  0  0  0  0
    2.2330   -2.7803   -1.0268 C   0  0  0  0  0  0  0  0  0  0  0  0
    2.1461   -4.0291   -1.2157 C   0  0  0  0  0  0  0  0  0  0  0  0
    3.1168   -4.8105   -0.5732 C   0  0  0  0  0  0  0  0  0  0  0  0
    4.0615   -4.1007    0.2088 C   0  0  0  0  0  0  0  0  0  0  0  0
    4.7544   -2.1665    0.9275 H   0  0  0  0  0  0  0  0  0  0  0  0
    2.9676   -0.8451   -0.2741 H   0  0  0  0  0  0  0  0  0  0  0  0
    0.8439   -4.9032   -2.2622 H   0  0  0  0  0  0  0  0  0  0  0  0
    3.1833   -5.8922   -0.6369 H   0  0  0  0  0  0  0  0  0  0  0  0
    0.6909   -1.2602   -2.1985 N   0  0  0  0  0  0  0  0  0  0  0  0
   -0.0245   -1.1657   -3.0357 N   0  0  0  0  0  0  0  0  0  0  0  0
   -1.6332   -5.8423    0.1293 C   0  0  0  0  0  0  0  0  0  0  0  0
   -1.9781   -6.7398    1.1377 C   0  0  0  0  0  0  0  0  0  0  0  0
   -2.4436   -8.0275    0.8356 C   0  0  0  0  0  0  0  0  0  0  0  0
   -2.5667   -8.3943   -0.5125 C   0  0  0  0  0  0  0  0  0  0  0  0
   -2.2269   -7.5107   -1.5345 C   0  0  0  0  0  0  0  0  0  0  0  0
   -1.7570   -6.2391   -1.2030 C   0  0  0  0  0  0  0  0  0  0  0  0
   -1.2903   -4.8410    0.3642 H   0  0  0  0  0  0  0  0  0  0  0  0
   -1.8914   -6.4324    2.1768 H   0  0  0  0  0  0  0  0  0  0  0  0
   -2.9409   -9.3823   -0.7657 H   0  0  0  0  0  0  0  0  0  0  0  0
   -2.3401   -7.7888   -2.5766 H   0  0  0  0  0  0  0  0  0  0  0  0
   -1.3076   -5.1029   -2.5080 S   0  0  0  0  0  0  0  0  0  0  0  0
   -1.3469   -3.7425   -1.9647 O   0  0  0  0  0  0  0  0  0  0  0  0
   -2.0486   -5.4659   -3.7087 O   0  0  0  0  0  0  0  0  0  0  0  0
    0.2396   -5.4821   -2.8093 O   0  0  0  0  0  0  0  0  0  0  0  0
   -2.7877   -9.0018    1.9367 C   0  0  0  0  0  0  0  0  0  0  0  0
   -3.5471   -9.7199    1.6140 H   0  0  0  0  0  0  0  0  0  0  0  0
   -1.9041   -9.5763    2.2418 H   0  0  0  0  0  0  0  0  0  0  0  0
   -3.1619   -8.4860    2.8257 H   0  0  0  0  0  0  0  0  0  0  0  0
    4.9920   -4.8809    0.8271 O   0  0  0  0  0  0  0  0  0  0  0  0
    5.9847   -4.2608    1.6296 C   0  0  0  0  0  0  0  0  0  0  0  0
    6.6051   -5.0692    2.0187 H   0  0  0  0  0  0  0  0  0  0  0  0
    6.6103   -3.5770    1.0417 H   0  0  0  0  0  0  0  0  0  0  0  0
    5.5404   -3.7120    2.4701 H   0  0  0  0  0  0  0  0  0  0  0  0
  1  7  1  0  0  0  0
  2  8  1  0  0  0  0
  2  1  2  0  0  0  0
  3  2  1  0  0  0  0
  4  3  2  0  0  0  0
  4  5  1  0  0  0  0
  5  6  2  0  0  0  0
  6  1  1  0  0  0  0
  6 31  1  0  0  0  0
 10  5  1  0  0  0  0
 12 11  3  0  0  0  0
 13 19  1  0  0  0  0
 13 14  2  0  0  0  0
 14 20  1  0  0  0  0
 15 14  1  0  0  0  0
 15 27  1  0  0  0  0
 16 15  2  0  0  0  0
 17 18  2  0  0  0  0
 17 16  1  0  0  0  0
 18 13  1  0  0  0  0
 21 16  1  0  0  0  0
 22 17  1  0  0  0  0
 23 24  2  0  0  0  0
 23 18  1  0  0  0  0
 25 23  2  0  0  0  0
 26 23  1  0  0  0  0
 26  9  1  0  0  0  0
 27 29  1  0  0  0  0
 27 30  1  0  0  0  0
 28 27  1  0  0  0  0
 31 32  1  0  0  0  0
 32 33  1  0  0  0  0
 32 35  1  0  0  0  0
 34 32  1  0  0  0  0
M  RAD  2   3   2   4   2
M  END
