Coordinates from ORCA-job 4-MeO-Ph-N2-OTs-B3LYPG-6-31G_dp-MTMO-d009-169-n800
 OpenBabel09051908173D

 35 34  0  0  0  0  0  0  0  0999 V2000
    4.0135   -2.8071    0.4132 C   0  0  0  0  0  0  0  0  0  0  0  0
    2.7860   -2.3002   -0.0717 C   0  0  0  0  0  0  0  0  0  0  0  0
    2.1635   -3.3046   -0.7572 C   0  0  0  0  0  0  0  0  0  0  0  0
    2.4287   -4.5019   -1.0426 C   0  0  0  0  0  0  0  0  0  0  0  0
    3.6311   -5.0445   -0.5859 C   0  0  0  0  0  0  0  0  0  0  0  0
    4.4263   -4.1397    0.1642 C   0  0  0  0  0  0  0  0  0  0  0  0
    4.6433   -2.1397    0.9899 H   0  0  0  0  0  0  0  0  0  0  0  0
    2.4425   -1.2887    0.0976 H   0  0  0  0  0  0  0  0  0  0  0  0
    1.0854   -5.3655   -2.2034 H   0  0  0  0  0  0  0  0  0  0  0  0
    3.9830   -6.0552   -0.7606 H   0  0  0  0  0  0  0  0  0  0  0  0
    0.0164   -1.0218   -1.5910 N   0  0  0  0  0  0  0  0  0  0  0  0
   -0.8197   -0.7172   -2.2459 N   0  0  0  0  0  0  0  0  0  0  0  0
   -1.6936   -5.8555    0.0367 C   0  0  0  0  0  0  0  0  0  0  0  0
   -2.2138   -6.6531    1.0548 C   0  0  0  0  0  0  0  0  0  0  0  0
   -2.7555   -7.9167    0.7818 C   0  0  0  0  0  0  0  0  0  0  0  0
   -2.7753   -8.3622   -0.5487 C   0  0  0  0  0  0  0  0  0  0  0  0
   -2.2628   -7.5789   -1.5794 C   0  0  0  0  0  0  0  0  0  0  0  0
   -1.7195   -6.3290   -1.2751 C   0  0  0  0  0  0  0  0  0  0  0  0
   -1.2880   -4.8724    0.2475 H   0  0  0  0  0  0  0  0  0  0  0  0
   -2.2045   -6.2847    2.0773 H   0  0  0  0  0  0  0  0  0  0  0  0
   -3.2041   -9.3330   -0.7813 H   0  0  0  0  0  0  0  0  0  0  0  0
   -2.2962   -7.9172   -2.6093 H   0  0  0  0  0  0  0  0  0  0  0  0
   -1.0466   -5.3247   -2.5908 S   0  0  0  0  0  0  0  0  0  0  0  0
   -0.9536   -3.9418   -2.1159 O   0  0  0  0  0  0  0  0  0  0  0  0
   -1.7364   -5.6626   -3.8277 O   0  0  0  0  0  0  0  0  0  0  0  0
    0.4625   -5.9044   -2.7563 O   0  0  0  0  0  0  0  0  0  0  0  0
   -3.2899   -8.7874    1.8932 C   0  0  0  0  0  0  0  0  0  0  0  0
   -4.1450   -9.3828    1.5593 H   0  0  0  0  0  0  0  0  0  0  0  0
   -2.5229   -9.4895    2.2433 H   0  0  0  0  0  0  0  0  0  0  0  0
   -3.6049   -8.1913    2.7540 H   0  0  0  0  0  0  0  0  0  0  0  0
    5.6031   -4.6594    0.6144 O   0  0  0  0  0  0  0  0  0  0  0  0
    6.4859   -3.8272    1.3514 C   0  0  0  0  0  0  0  0  0  0  0  0
    7.3505   -4.4463    1.5942 H   0  0  0  0  0  0  0  0  0  0  0  0
    6.8155   -2.9641    0.7590 H   0  0  0  0  0  0  0  0  0  0  0  0
    6.0248   -3.4723    2.2819 H   0  0  0  0  0  0  0  0  0  0  0  0
  1  7  1  0  0  0  0
  2  8  1  0  0  0  0
  2  1  2  0  0  0  0
  3  2  1  0  0  0  0
  4  3  2  0  0  0  0
  4  5  1  0  0  0  0
  5  6  2  0  0  0  0
  6  1  1  0  0  0  0
  6 31  1  0  0  0  0
 10  5  1  0  0  0  0
 12 11  3  0  0  0  0
 13 19  1  0  0  0  0
 13 14  2  0  0  0  0
 14 20  1  0  0  0  0
 15 14  1  0  0  0  0
 15 27  1  0  0  0  0
 16 15  2  0  0  0  0
 17 18  2  0  0  0  0
 17 16  1  0  0  0  0
 18 13  1  0  0  0  0
 21 16  1  0  0  0  0
 22 17  1  0  0  0  0
 23 24  2  0  0  0  0
 23 18  1  0  0  0  0
 25 23  2  0  0  0  0
 26 23  1  0  0  0  0
 26  9  1  0  0  0  0
 27 29  1  0  0  0  0
 27 30  1  0  0  0  0
 28 27  1  0  0  0  0
 31 32  1  0  0  0  0
 32 33  1  0  0  0  0
 32 35  1  0  0  0  0
 34 32  1  0  0  0  0
M  RAD  2   3   2   4   2
M  END
