Coordinates from ORCA-job 4-MeO-Ph-N2-OTs-B3LYPG-6-31G_dp-MTMO-d009-169-n800
 OpenBabel09051908173D

 35 35  0  0  0  0  0  0  0  0999 V2000
    3.4434   -4.0489    0.6999 C   0  0  0  0  0  0  0  0  0  0  0  0
    2.5113   -3.9198   -0.3338 C   0  0  0  0  0  0  0  0  0  0  0  0
    2.7610   -4.5013   -1.5719 C   0  0  0  0  0  0  0  0  0  0  0  0
    3.9374   -5.2222   -1.7991 C   0  0  0  0  0  0  0  0  0  0  0  0
    4.8603   -5.3585   -0.7714 C   0  0  0  0  0  0  0  0  0  0  0  0
    4.6220   -4.7730    0.4829 C   0  0  0  0  0  0  0  0  0  0  0  0
    3.2397   -3.5831    1.6564 H   0  0  0  0  0  0  0  0  0  0  0  0
    1.5956   -3.3575   -0.1850 H   0  0  0  0  0  0  0  0  0  0  0  0
    4.1121   -5.6695   -2.7700 H   0  0  0  0  0  0  0  0  0  0  0  0
    5.7828   -5.9102   -0.9172 H   0  0  0  0  0  0  0  0  0  0  0  0
   -8.0600   -7.6633    0.9556 N   0  0  0  0  0  0  0  0  0  0  0  0
   -9.0861   -8.0648    0.8695 N   0  0  0  0  0  0  0  0  0  0  0  0
   -0.2253   -6.5349   -0.8057 C   0  0  0  0  0  0  0  0  0  0  0  0
   -1.1994   -6.5865    0.1907 C   0  0  0  0  0  0  0  0  0  0  0  0
   -2.3130   -5.7362    0.1628 C   0  0  0  0  0  0  0  0  0  0  0  0
   -2.4304   -4.8203   -0.8951 C   0  0  0  0  0  0  0  0  0  0  0  0
   -1.4698   -4.7521   -1.8995 C   0  0  0  0  0  0  0  0  0  0  0  0
   -0.3712   -5.6142   -1.8436 C   0  0  0  0  0  0  0  0  0  0  0  0
    0.6279   -7.2039   -0.7915 H   0  0  0  0  0  0  0  0  0  0  0  0
   -1.0934   -7.3033    1.0010 H   0  0  0  0  0  0  0  0  0  0  0  0
   -3.2900   -4.1562   -0.9343 H   0  0  0  0  0  0  0  0  0  0  0  0
   -1.5693   -4.0551   -2.7248 H   0  0  0  0  0  0  0  0  0  0  0  0
    0.8664   -5.5258   -3.1246 S   0  0  0  0  0  0  0  0  0  0  0  0
    1.8494   -4.2761   -2.6112 O   0  0  0  0  0  0  0  0  0  0  0  0
    0.2669   -4.9920   -4.3384 O   0  0  0  0  0  0  0  0  0  0  0  0
    1.6397   -6.7645   -3.1167 O   0  0  0  0  0  0  0  0  0  0  0  0
   -3.3800   -5.8191    1.2272 C   0  0  0  0  0  0  0  0  0  0  0  0
   -3.7499   -4.8263    1.5004 H   0  0  0  0  0  0  0  0  0  0  0  0
   -4.2416   -6.3992    0.8744 H   0  0  0  0  0  0  0  0  0  0  0  0
   -3.0065   -6.3046    2.1326 H   0  0  0  0  0  0  0  0  0  0  0  0
    5.5979   -4.9641    1.4167 O   0  0  0  0  0  0  0  0  0  0  0  0
    5.4207   -4.3903    2.7019 C   0  0  0  0  0  0  0  0  0  0  0  0
    6.3078   -4.6604    3.2773 H   0  0  0  0  0  0  0  0  0  0  0  0
    5.3429   -3.2965    2.6504 H   0  0  0  0  0  0  0  0  0  0  0  0
    4.5304   -4.7895    3.2050 H   0  0  0  0  0  0  0  0  0  0  0  0
  1  7  1  0  0  0  0
  2  8  1  0  0  0  0
  2  1  2  0  0  0  0
  3  2  1  0  0  0  0
  4  3  2  0  0  0  0
  4  5  1  0  0  0  0
  5  6  2  0  0  0  0
  6  1  1  0  0  0  0
  6 31  1  0  0  0  0
  9  4  1  0  0  0  0
 10  5  1  0  0  0  0
 12 11  3  0  0  0  0
 13 19  1  0  0  0  0
 13 14  2  0  0  0  0
 14 20  1  0  0  0  0
 15 14  1  0  0  0  0
 15 27  1  0  0  0  0
 16 15  2  0  0  0  0
 17 18  2  0  0  0  0
 17 16  1  0  0  0  0
 18 13  1  0  0  0  0
 21 16  1  0  0  0  0
 22 17  1  0  0  0  0
 23 26  2  0  0  0  0
 23 24  1  0  0  0  0
 23 18  1  0  0  0  0
 24  3  1  0  0  0  0
 25 23  2  0  0  0  0
 27 28  1  0  0  0  0
 27 30  1  0  0  0  0
 29 27  1  0  0  0  0
 31 32  1  0  0  0  0
 32 35  1  0  0  0  0
 32 33  1  0  0  0  0
 34 32  1  0  0  0  0
M  END
