Coordinates from ORCA-job 4-MeO-Ph-N2-OTs-B3LYPG-6-31G_dp-MTMO-d009-169-n800
 OpenBabel09051908173D

 35 35  0  0  0  0  0  0  0  0999 V2000
    3.4533   -4.0450    0.6953 C   0  0  0  0  0  0  0  0  0  0  0  0
    2.5256   -3.9141   -0.3420 C   0  0  0  0  0  0  0  0  0  0  0  0
    2.7774   -4.4988   -1.5782 C   0  0  0  0  0  0  0  0  0  0  0  0
    3.9519   -5.2245   -1.7999 C   0  0  0  0  0  0  0  0  0  0  0  0
    4.8705   -5.3626   -0.7686 C   0  0  0  0  0  0  0  0  0  0  0  0
    4.6299   -4.7740    0.4838 C   0  0  0  0  0  0  0  0  0  0  0  0
    3.2480   -3.5768    1.6502 H   0  0  0  0  0  0  0  0  0  0  0  0
    1.6115   -3.3480   -0.1975 H   0  0  0  0  0  0  0  0  0  0  0  0
    4.1284   -5.6740   -2.7694 H   0  0  0  0  0  0  0  0  0  0  0  0
    5.7915   -5.9180   -0.9101 H   0  0  0  0  0  0  0  0  0  0  0  0
   -8.3398   -7.7731    1.0047 N   0  0  0  0  0  0  0  0  0  0  0  0
   -9.3689   -8.1678    0.9222 N   0  0  0  0  0  0  0  0  0  0  0  0
   -0.2045   -6.5276   -0.8151 C   0  0  0  0  0  0  0  0  0  0  0  0
   -1.1754   -6.5765    0.1845 C   0  0  0  0  0  0  0  0  0  0  0  0
   -2.2858   -5.7218    0.1609 C   0  0  0  0  0  0  0  0  0  0  0  0
   -2.4034   -4.8047   -0.8958 C   0  0  0  0  0  0  0  0  0  0  0  0
   -1.4459   -4.7392   -1.9034 C   0  0  0  0  0  0  0  0  0  0  0  0
   -0.3505   -5.6056   -1.8518 C   0  0  0  0  0  0  0  0  0  0  0  0
    0.6465   -7.1996   -0.8043 H   0  0  0  0  0  0  0  0  0  0  0  0
   -1.0694   -7.2942    0.9939 H   0  0  0  0  0  0  0  0  0  0  0  0
   -3.2607   -4.1374   -0.9316 H   0  0  0  0  0  0  0  0  0  0  0  0
   -1.5454   -4.0411   -2.7278 H   0  0  0  0  0  0  0  0  0  0  0  0
    0.8846   -5.5189   -3.1351 S   0  0  0  0  0  0  0  0  0  0  0  0
    1.8705   -4.2717   -2.6212 O   0  0  0  0  0  0  0  0  0  0  0  0
    0.2848   -4.9826   -4.3477 O   0  0  0  0  0  0  0  0  0  0  0  0
    1.6553   -6.7592   -3.1301 O   0  0  0  0  0  0  0  0  0  0  0  0
   -3.3504   -5.8029    1.2279 C   0  0  0  0  0  0  0  0  0  0  0  0
   -3.7252   -4.8105    1.4953 H   0  0  0  0  0  0  0  0  0  0  0  0
   -4.2089   -6.3898    0.8789 H   0  0  0  0  0  0  0  0  0  0  0  0
   -2.9734   -6.2813    2.1356 H   0  0  0  0  0  0  0  0  0  0  0  0
    5.6017   -4.9673    1.4215 O   0  0  0  0  0  0  0  0  0  0  0  0
    5.4222   -4.3904    2.7049 C   0  0  0  0  0  0  0  0  0  0  0  0
    6.3062   -4.6628    3.2840 H   0  0  0  0  0  0  0  0  0  0  0  0
    5.3488   -3.2964    2.6511 H   0  0  0  0  0  0  0  0  0  0  0  0
    4.5286   -4.7851    3.2057 H   0  0  0  0  0  0  0  0  0  0  0  0
  1  7  1  0  0  0  0
  2  8  1  0  0  0  0
  2  1  2  0  0  0  0
  3  2  1  0  0  0  0
  4  3  2  0  0  0  0
  4  5  1  0  0  0  0
  5  6  2  0  0  0  0
  6  1  1  0  0  0  0
  6 31  1  0  0  0  0
  9  4  1  0  0  0  0
 10  5  1  0  0  0  0
 12 11  3  0  0  0  0
 13 19  1  0  0  0  0
 13 14  2  0  0  0  0
 14 20  1  0  0  0  0
 15 14  1  0  0  0  0
 15 27  1  0  0  0  0
 16 15  2  0  0  0  0
 17 18  2  0  0  0  0
 17 16  1  0  0  0  0
 18 13  1  0  0  0  0
 21 16  1  0  0  0  0
 22 17  1  0  0  0  0
 23 26  2  0  0  0  0
 23 24  1  0  0  0  0
 23 18  1  0  0  0  0
 24  3  1  0  0  0  0
 25 23  2  0  0  0  0
 27 28  1  0  0  0  0
 27 30  1  0  0  0  0
 29 27  1  0  0  0  0
 31 32  1  0  0  0  0
 32 35  1  0  0  0  0
 32 33  1  0  0  0  0
 34 32  1  0  0  0  0
M  END
