Coordinates from ORCA-job 4-MeO-Ph-N2-OTs-B3LYPG-6-31G_dp-MTMO-d009-169-n800
 OpenBabel09051908173D

 35 35  0  0  0  0  0  0  0  0999 V2000
    3.7127   -3.9289    0.6020 C   0  0  0  0  0  0  0  0  0  0  0  0
    2.7363   -3.8473   -0.3950 C   0  0  0  0  0  0  0  0  0  0  0  0
    2.9419   -4.4678   -1.6222 C   0  0  0  0  0  0  0  0  0  0  0  0
    4.1180   -5.1806   -1.8749 C   0  0  0  0  0  0  0  0  0  0  0  0
    5.0852   -5.2698   -0.8834 C   0  0  0  0  0  0  0  0  0  0  0  0
    4.8913   -4.6448    0.3595 C   0  0  0  0  0  0  0  0  0  0  0  0
    3.5429   -3.4339    1.5503 H   0  0  0  0  0  0  0  0  0  0  0  0
    1.8195   -3.2923   -0.2266 H   0  0  0  0  0  0  0  0  0  0  0  0
    4.2579   -5.6587   -2.8368 H   0  0  0  0  0  0  0  0  0  0  0  0
    6.0083   -5.8146   -1.0493 H   0  0  0  0  0  0  0  0  0  0  0  0
  -12.3306   -8.6970    0.2614 N   0  0  0  0  0  0  0  0  0  0  0  0
  -13.2794   -9.2154    0.0320 N   0  0  0  0  0  0  0  0  0  0  0  0
    0.0317   -6.5094   -0.6494 C   0  0  0  0  0  0  0  0  0  0  0  0
   -0.8902   -6.5327    0.3972 C   0  0  0  0  0  0  0  0  0  0  0  0
   -2.0104   -5.6915    0.3969 C   0  0  0  0  0  0  0  0  0  0  0  0
   -2.1909   -4.8153   -0.6861 C   0  0  0  0  0  0  0  0  0  0  0  0
   -1.2838   -4.7761   -1.7400 C   0  0  0  0  0  0  0  0  0  0  0  0
   -0.1755   -5.6277   -1.7099 C   0  0  0  0  0  0  0  0  0  0  0  0
    0.8905   -7.1711   -0.6554 H   0  0  0  0  0  0  0  0  0  0  0  0
   -0.7371   -7.2196    1.2254 H   0  0  0  0  0  0  0  0  0  0  0  0
   -3.0582   -4.1603   -0.7053 H   0  0  0  0  0  0  0  0  0  0  0  0
   -1.4320   -4.1106   -2.5838 H   0  0  0  0  0  0  0  0  0  0  0  0
    0.9972   -5.5712   -3.0521 S   0  0  0  0  0  0  0  0  0  0  0  0
    1.9838   -4.2914   -2.6286 O   0  0  0  0  0  0  0  0  0  0  0  0
    0.3335   -5.0888   -4.2540 O   0  0  0  0  0  0  0  0  0  0  0  0
    1.7879   -6.7988   -3.0380 O   0  0  0  0  0  0  0  0  0  0  0  0
   -3.0189   -5.7360    1.5192 C   0  0  0  0  0  0  0  0  0  0  0  0
   -3.2739   -4.7296    1.8658 H   0  0  0  0  0  0  0  0  0  0  0  0
   -3.9517   -6.2076    1.1881 H   0  0  0  0  0  0  0  0  0  0  0  0
   -2.6444   -6.3056    2.3736 H   0  0  0  0  0  0  0  0  0  0  0  0
    5.9082   -4.7915    1.2569 O   0  0  0  0  0  0  0  0  0  0  0  0
    5.7761   -4.1784    2.5294 C   0  0  0  0  0  0  0  0  0  0  0  0
    6.6900   -4.4183    3.0756 H   0  0  0  0  0  0  0  0  0  0  0  0
    5.6809   -3.0880    2.4465 H   0  0  0  0  0  0  0  0  0  0  0  0
    4.9130   -4.5724    3.0817 H   0  0  0  0  0  0  0  0  0  0  0  0
  1  7  1  0  0  0  0
  2  8  1  0  0  0  0
  2  1  2  0  0  0  0
  3  2  1  0  0  0  0
  4  3  2  0  0  0  0
  4  5  1  0  0  0  0
  5  6  2  0  0  0  0
  6  1  1  0  0  0  0
  6 31  1  0  0  0  0
  9  4  1  0  0  0  0
 10  5  1  0  0  0  0
 12 11  3  0  0  0  0
 13 14  2  0  0  0  0
 14 20  1  0  0  0  0
 15 14  1  0  0  0  0
 15 27  1  0  0  0  0
 16 15  2  0  0  0  0
 17 18  2  0  0  0  0
 17 16  1  0  0  0  0
 18 13  1  0  0  0  0
 19 13  1  0  0  0  0
 21 16  1  0  0  0  0
 22 17  1  0  0  0  0
 23 26  2  0  0  0  0
 23 24  1  0  0  0  0
 23 18  1  0  0  0  0
 24  3  1  0  0  0  0
 25 23  2  0  0  0  0
 27 28  1  0  0  0  0
 27 30  1  0  0  0  0
 29 27  1  0  0  0  0
 31 32  1  0  0  0  0
 32 33  1  0  0  0  0
 32 35  1  0  0  0  0
 34 32  1  0  0  0  0
M  END
