Coordinates from ORCA-job 4-MeO-Ph-N2-OTs-B3LYPG-6-31G_dp-MTMO-d009-169-n800
 OpenBabel09051908173D

 35 35  0  0  0  0  0  0  0  0999 V2000
    2.8280   -3.8764    0.6253 C   0  0  0  0  0  0  0  0  0  0  0  0
    1.6858   -3.9122   -0.1796 C   0  0  0  0  0  0  0  0  0  0  0  0
    1.7804   -4.3261   -1.5036 C   0  0  0  0  0  0  0  0  0  0  0  0
    3.0095   -4.7146   -2.0456 C   0  0  0  0  0  0  0  0  0  0  0  0
    4.1432   -4.6898   -1.2449 C   0  0  0  0  0  0  0  0  0  0  0  0
    4.0622   -4.2696    0.0929 C   0  0  0  0  0  0  0  0  0  0  0  0
    2.7411   -3.5415    1.6514 H   0  0  0  0  0  0  0  0  0  0  0  0
    0.7226   -3.6064    0.2145 H   0  0  0  0  0  0  0  0  0  0  0  0
    3.0617   -5.0362   -3.0785 H   0  0  0  0  0  0  0  0  0  0  0  0
    5.1105   -4.9865   -1.6359 H   0  0  0  0  0  0  0  0  0  0  0  0
   -2.5741   -2.4519   -2.9104 N   0  0  0  0  0  0  0  0  0  0  0  0
   -2.2032   -1.8604   -3.7666 N   0  0  0  0  0  0  0  0  0  0  0  0
   -0.3131   -7.2591   -0.5437 C   0  0  0  0  0  0  0  0  0  0  0  0
   -0.9440   -7.6901    0.6232 C   0  0  0  0  0  0  0  0  0  0  0  0
   -2.1479   -7.1163    1.0514 C   0  0  0  0  0  0  0  0  0  0  0  0
   -2.7175   -6.0931    0.2750 C   0  0  0  0  0  0  0  0  0  0  0  0
   -2.1066   -5.6492   -0.8931 C   0  0  0  0  0  0  0  0  0  0  0  0
   -0.9029   -6.2401   -1.2908 C   0  0  0  0  0  0  0  0  0  0  0  0
    0.6116   -7.7109   -0.8829 H   0  0  0  0  0  0  0  0  0  0  0  0
   -0.4952   -8.4894    1.2065 H   0  0  0  0  0  0  0  0  0  0  0  0
   -3.6569   -5.6454    0.5872 H   0  0  0  0  0  0  0  0  0  0  0  0
   -2.5552   -4.8674   -1.4965 H   0  0  0  0  0  0  0  0  0  0  0  0
   -0.1114   -5.6772   -2.7862 S   0  0  0  0  0  0  0  0  0  0  0  0
    0.6324   -4.2616   -2.3041 O   0  0  0  0  0  0  0  0  0  0  0  0
   -1.1190   -5.2073   -3.7259 O   0  0  0  0  0  0  0  0  0  0  0  0
    0.9142   -6.6440   -3.1678 O   0  0  0  0  0  0  0  0  0  0  0  0
   -2.8211   -7.5756    2.3219 C   0  0  0  0  0  0  0  0  0  0  0  0
   -2.7457   -6.8109    3.1050 H   0  0  0  0  0  0  0  0  0  0  0  0
   -3.8871   -7.7662    2.1603 H   0  0  0  0  0  0  0  0  0  0  0  0
   -2.3671   -8.4915    2.7072 H   0  0  0  0  0  0  0  0  0  0  0  0
    5.2382   -4.2771    0.7844 O   0  0  0  0  0  0  0  0  0  0  0  0
    5.2252   -3.8548    2.1386 C   0  0  0  0  0  0  0  0  0  0  0  0
    6.2549   -3.9371    2.4898 H   0  0  0  0  0  0  0  0  0  0  0  0
    4.8942   -2.8127    2.2355 H   0  0  0  0  0  0  0  0  0  0  0  0
    4.5821   -4.4944    2.7568 H   0  0  0  0  0  0  0  0  0  0  0  0
  1  7  1  0  0  0  0
  2  8  1  0  0  0  0
  2  1  2  0  0  0  0
  3  2  1  0  0  0  0
  4  3  2  0  0  0  0
  4  5  1  0  0  0  0
  5  6  2  0  0  0  0
  6  1  1  0  0  0  0
  6 31  1  0  0  0  0
  9  4  1  0  0  0  0
 10  5  1  0  0  0  0
 12 11  3  0  0  0  0
 13 14  2  0  0  0  0
 14 15  1  0  0  0  0
 14 20  1  0  0  0  0
 15 27  1  0  0  0  0
 16 21  1  0  0  0  0
 16 15  2  0  0  0  0
 17 16  1  0  0  0  0
 18 17  2  0  0  0  0
 18 13  1  0  0  0  0
 19 13  1  0  0  0  0
 22 17  1  0  0  0  0
 23 24  1  0  0  0  0
 23 18  1  0  0  0  0
 24  3  1  0  0  0  0
 25 23  2  0  0  0  0
 26 23  2  0  0  0  0
 27 30  1  0  0  0  0
 27 28  1  0  0  0  0
 29 27  1  0  0  0  0
 31 32  1  0  0  0  0
 32 34  1  0  0  0  0
 32 33  1  0  0  0  0
 32 35  1  0  0  0  0
M  END
