Coordinates from ORCA-job 4-MeO-Ph-N2-OTs-B3LYPG-6-31G_dp-MTMO-d009-169-n800
 OpenBabel09051908173D

 35 35  0  0  0  0  0  0  0  0999 V2000
    2.9702   -3.9417    0.7261 C   0  0  0  0  0  0  0  0  0  0  0  0
    1.8223   -3.8972   -0.0700 C   0  0  0  0  0  0  0  0  0  0  0  0
    1.8921   -4.2542   -1.4122 C   0  0  0  0  0  0  0  0  0  0  0  0
    3.1019   -4.6644   -1.9812 C   0  0  0  0  0  0  0  0  0  0  0  0
    4.2408   -4.7196   -1.1892 C   0  0  0  0  0  0  0  0  0  0  0  0
    4.1850   -4.3575    0.1667 C   0  0  0  0  0  0  0  0  0  0  0  0
    2.9030   -3.6496    1.7668 H   0  0  0  0  0  0  0  0  0  0  0  0
    0.8744   -3.5722    0.3449 H   0  0  0  0  0  0  0  0  0  0  0  0
    3.1354   -4.9406   -3.0279 H   0  0  0  0  0  0  0  0  0  0  0  0
    5.1934   -5.0350   -1.6012 H   0  0  0  0  0  0  0  0  0  0  0  0
   -3.6410   -3.0042   -3.3870 N   0  0  0  0  0  0  0  0  0  0  0  0
   -3.4612   -2.5230   -4.3651 N   0  0  0  0  0  0  0  0  0  0  0  0
   -0.2609   -7.0770   -0.5248 C   0  0  0  0  0  0  0  0  0  0  0  0
   -0.9053   -7.5395    0.6220 C   0  0  0  0  0  0  0  0  0  0  0  0
   -2.1430   -7.0168    1.0197 C   0  0  0  0  0  0  0  0  0  0  0  0
   -2.7324   -6.0147    0.2316 C   0  0  0  0  0  0  0  0  0  0  0  0
   -2.1073   -5.5381   -0.9165 C   0  0  0  0  0  0  0  0  0  0  0  0
   -0.8699   -6.0764   -1.2827 C   0  0  0  0  0  0  0  0  0  0  0  0
    0.6880   -7.4932   -0.8416 H   0  0  0  0  0  0  0  0  0  0  0  0
   -0.4413   -8.3246    1.2128 H   0  0  0  0  0  0  0  0  0  0  0  0
   -3.6992   -5.6097    0.5173 H   0  0  0  0  0  0  0  0  0  0  0  0
   -2.5759   -4.7776   -1.5320 H   0  0  0  0  0  0  0  0  0  0  0  0
   -0.0559   -5.4693   -2.7480 S   0  0  0  0  0  0  0  0  0  0  0  0
    0.7418   -4.1084   -2.1987 O   0  0  0  0  0  0  0  0  0  0  0  0
   -1.0452   -4.9189   -3.6629 O   0  0  0  0  0  0  0  0  0  0  0  0
    0.9348   -6.4529   -3.1761 O   0  0  0  0  0  0  0  0  0  0  0  0
   -2.8284   -7.5082    2.2715 C   0  0  0  0  0  0  0  0  0  0  0  0
   -2.7407   -6.7726    3.0810 H   0  0  0  0  0  0  0  0  0  0  0  0
   -3.8969   -7.6744    2.1016 H   0  0  0  0  0  0  0  0  0  0  0  0
   -2.3906   -8.4441    2.6266 H   0  0  0  0  0  0  0  0  0  0  0  0
    5.3640   -4.4407    0.8479 O   0  0  0  0  0  0  0  0  0  0  0  0
    5.3759   -4.0751    2.2184 C   0  0  0  0  0  0  0  0  0  0  0  0
    6.4043   -4.2092    2.5572 H   0  0  0  0  0  0  0  0  0  0  0  0
    5.0834   -3.0267    2.3607 H   0  0  0  0  0  0  0  0  0  0  0  0
    4.7141   -4.7160    2.8149 H   0  0  0  0  0  0  0  0  0  0  0  0
  1  7  1  0  0  0  0
  2  8  1  0  0  0  0
  2  1  2  0  0  0  0
  3  2  1  0  0  0  0
  4  3  2  0  0  0  0
  4  5  1  0  0  0  0
  5  6  2  0  0  0  0
  6  1  1  0  0  0  0
  6 31  1  0  0  0  0
  9  4  1  0  0  0  0
 10  5  1  0  0  0  0
 12 11  3  0  0  0  0
 13 14  2  0  0  0  0
 14 15  1  0  0  0  0
 14 20  1  0  0  0  0
 15 27  1  0  0  0  0
 16 21  1  0  0  0  0
 16 15  2  0  0  0  0
 17 16  1  0  0  0  0
 18 17  2  0  0  0  0
 18 13  1  0  0  0  0
 19 13  1  0  0  0  0
 22 17  1  0  0  0  0
 23 24  1  0  0  0  0
 23 18  1  0  0  0  0
 24  3  1  0  0  0  0
 25 23  2  0  0  0  0
 26 23  2  0  0  0  0
 27 30  1  0  0  0  0
 27 28  1  0  0  0  0
 29 27  1  0  0  0  0
 31 32  1  0  0  0  0
 32 34  1  0  0  0  0
 32 33  1  0  0  0  0
 32 35  1  0  0  0  0
M  END
