Coordinates from ORCA-job 4-MeO-Ph-N2-OTs-B3LYPG-6-31G_dp-MTMO-d009-169-n800
 OpenBabel09051908173D

 35 35  0  0  0  0  0  0  0  0999 V2000
    3.6962   -3.9449    0.6095 C   0  0  0  0  0  0  0  0  0  0  0  0
    2.7241   -3.8564   -0.3911 C   0  0  0  0  0  0  0  0  0  0  0  0
    2.9310   -4.4764   -1.6184 C   0  0  0  0  0  0  0  0  0  0  0  0
    4.1040   -5.1956   -1.8675 C   0  0  0  0  0  0  0  0  0  0  0  0
    5.0668   -5.2915   -0.8724 C   0  0  0  0  0  0  0  0  0  0  0  0
    4.8717   -4.6671    0.3706 C   0  0  0  0  0  0  0  0  0  0  0  0
    3.5256   -3.4502    1.5578 H   0  0  0  0  0  0  0  0  0  0  0  0
    1.8098   -3.2965   -0.2254 H   0  0  0  0  0  0  0  0  0  0  0  0
    4.2449   -5.6731   -2.8294 H   0  0  0  0  0  0  0  0  0  0  0  0
    5.9876   -5.8413   -1.0355 H   0  0  0  0  0  0  0  0  0  0  0  0
  -11.9845   -8.6834    0.3214 N   0  0  0  0  0  0  0  0  0  0  0  0
  -12.9330   -9.2012    0.0896 N   0  0  0  0  0  0  0  0  0  0  0  0
    0.0021   -6.5016   -0.6608 C   0  0  0  0  0  0  0  0  0  0  0  0
   -0.9246   -6.5199    0.3815 C   0  0  0  0  0  0  0  0  0  0  0  0
   -2.0387   -5.6705    0.3776 C   0  0  0  0  0  0  0  0  0  0  0  0
   -2.2077   -4.7911   -0.7045 C   0  0  0  0  0  0  0  0  0  0  0  0
   -1.2956   -4.7567   -1.7543 C   0  0  0  0  0  0  0  0  0  0  0  0
   -0.1938   -5.6165   -1.7207 C   0  0  0  0  0  0  0  0  0  0  0  0
    0.8562   -7.1695   -0.6641 H   0  0  0  0  0  0  0  0  0  0  0  0
   -0.7802   -7.2093    1.2093 H   0  0  0  0  0  0  0  0  0  0  0  0
   -3.0700   -4.1295   -0.7263 H   0  0  0  0  0  0  0  0  0  0  0  0
   -1.4350   -4.0885   -2.5974 H   0  0  0  0  0  0  0  0  0  0  0  0
    0.9854   -5.5662   -3.0575 S   0  0  0  0  0  0  0  0  0  0  0  0
    1.9780   -4.2930   -2.6283 O   0  0  0  0  0  0  0  0  0  0  0  0
    0.3303   -5.0786   -4.2619 O   0  0  0  0  0  0  0  0  0  0  0  0
    1.7682   -6.7988   -3.0409 O   0  0  0  0  0  0  0  0  0  0  0  0
   -3.0531   -5.7110    1.4947 C   0  0  0  0  0  0  0  0  0  0  0  0
   -3.3200   -4.7031    1.8275 H   0  0  0  0  0  0  0  0  0  0  0  0
   -3.9793   -6.1960    1.1640 H   0  0  0  0  0  0  0  0  0  0  0  0
   -2.6783   -6.2667    2.3580 H   0  0  0  0  0  0  0  0  0  0  0  0
    5.8844   -4.8206    1.2717 O   0  0  0  0  0  0  0  0  0  0  0  0
    5.7508   -4.2085    2.5444 C   0  0  0  0  0  0  0  0  0  0  0  0
    6.6613   -4.4539    3.0937 H   0  0  0  0  0  0  0  0  0  0  0  0
    5.6615   -3.1175    2.4626 H   0  0  0  0  0  0  0  0  0  0  0  0
    4.8836   -4.5987    3.0931 H   0  0  0  0  0  0  0  0  0  0  0  0
  1  7  1  0  0  0  0
  2  8  1  0  0  0  0
  2  1  2  0  0  0  0
  3  2  1  0  0  0  0
  4  3  2  0  0  0  0
  4  5  1  0  0  0  0
  5  6  2  0  0  0  0
  6  1  1  0  0  0  0
  6 31  1  0  0  0  0
  9  4  1  0  0  0  0
 10  5  1  0  0  0  0
 12 11  3  0  0  0  0
 13 14  2  0  0  0  0
 14 20  1  0  0  0  0
 15 14  1  0  0  0  0
 15 27  1  0  0  0  0
 16 15  2  0  0  0  0
 17 18  2  0  0  0  0
 17 16  1  0  0  0  0
 18 13  1  0  0  0  0
 19 13  1  0  0  0  0
 21 16  1  0  0  0  0
 22 17  1  0  0  0  0
 23 26  2  0  0  0  0
 23 24  1  0  0  0  0
 23 18  1  0  0  0  0
 24  3  1  0  0  0  0
 25 23  2  0  0  0  0
 27 28  1  0  0  0  0
 27 30  1  0  0  0  0
 29 27  1  0  0  0  0
 31 32  1  0  0  0  0
 32 35  1  0  0  0  0
 32 33  1  0  0  0  0
 34 32  1  0  0  0  0
M  END
