Coordinates from ORCA-job 4-MeO-Ph-N2-OTs-B3LYPG-6-31G_dp-MTMO-d009-169-n800
 OpenBabel09051908173D

 35 35  0  0  0  0  0  0  0  0999 V2000
    3.5765   -4.0092    0.6366 C   0  0  0  0  0  0  0  0  0  0  0  0
    2.6204   -3.8991   -0.3771 C   0  0  0  0  0  0  0  0  0  0  0  0
    2.8341   -4.5164   -1.6046 C   0  0  0  0  0  0  0  0  0  0  0  0
    3.9979   -5.2544   -1.8408 C   0  0  0  0  0  0  0  0  0  0  0  0
    4.9448   -5.3717   -0.8328 C   0  0  0  0  0  0  0  0  0  0  0  0
    4.7429   -4.7502    0.4105 C   0  0  0  0  0  0  0  0  0  0  0  0
    3.4010   -3.5161    1.5849 H   0  0  0  0  0  0  0  0  0  0  0  0
    1.7136   -3.3244   -0.2213 H   0  0  0  0  0  0  0  0  0  0  0  0
    4.1443   -5.7294   -2.8032 H   0  0  0  0  0  0  0  0  0  0  0  0
    5.8584   -5.9361   -0.9859 H   0  0  0  0  0  0  0  0  0  0  0  0
   -9.8765   -8.3243    0.5068 N   0  0  0  0  0  0  0  0  0  0  0  0
  -10.8239   -8.8437    0.2739 N   0  0  0  0  0  0  0  0  0  0  0  0
   -0.1454   -6.4967   -0.7021 C   0  0  0  0  0  0  0  0  0  0  0  0
   -1.0871   -6.5044    0.3266 C   0  0  0  0  0  0  0  0  0  0  0  0
   -2.1848   -5.6338    0.3126 C   0  0  0  0  0  0  0  0  0  0  0  0
   -2.3211   -4.7437   -0.7651 C   0  0  0  0  0  0  0  0  0  0  0  0
   -1.3934   -4.7198   -1.8016 C   0  0  0  0  0  0  0  0  0  0  0  0
   -0.3090   -5.6007   -1.7584 C   0  0  0  0  0  0  0  0  0  0  0  0
    0.6961   -7.1805   -0.6978 H   0  0  0  0  0  0  0  0  0  0  0  0
   -0.9677   -7.2019    1.1516 H   0  0  0  0  0  0  0  0  0  0  0  0
   -3.1697   -4.0650   -0.7940 H   0  0  0  0  0  0  0  0  0  0  0  0
   -1.5075   -4.0428   -2.6416 H   0  0  0  0  0  0  0  0  0  0  0  0
    0.8904   -5.5639   -3.0776 S   0  0  0  0  0  0  0  0  0  0  0  0
    1.8992   -4.3109   -2.6271 O   0  0  0  0  0  0  0  0  0  0  0  0
    0.2617   -5.0581   -4.2887 O   0  0  0  0  0  0  0  0  0  0  0  0
    1.6509   -6.8103   -3.0569 O   0  0  0  0  0  0  0  0  0  0  0  0
   -3.2170   -5.6660    1.4135 C   0  0  0  0  0  0  0  0  0  0  0  0
   -3.5196   -4.6563    1.7070 H   0  0  0  0  0  0  0  0  0  0  0  0
   -4.1220   -6.1911    1.0848 H   0  0  0  0  0  0  0  0  0  0  0  0
   -2.8413   -6.1810    2.3014 H   0  0  0  0  0  0  0  0  0  0  0  0
    5.7401   -4.9251    1.3249 O   0  0  0  0  0  0  0  0  0  0  0  0
    5.5990   -4.3169    2.5986 C   0  0  0  0  0  0  0  0  0  0  0  0
    6.4979   -4.5794    3.1591 H   0  0  0  0  0  0  0  0  0  0  0  0
    5.5283   -3.2242    2.5208 H   0  0  0  0  0  0  0  0  0  0  0  0
    4.7182   -4.6956    3.1336 H   0  0  0  0  0  0  0  0  0  0  0  0
  1  7  1  0  0  0  0
  2  8  1  0  0  0  0
  2  1  2  0  0  0  0
  3  2  1  0  0  0  0
  4  3  2  0  0  0  0
  4  5  1  0  0  0  0
  5  6  2  0  0  0  0
  6  1  1  0  0  0  0
  6 31  1  0  0  0  0
  9  4  1  0  0  0  0
 10  5  1  0  0  0  0
 12 11  3  0  0  0  0
 13 19  1  0  0  0  0
 13 14  2  0  0  0  0
 14 20  1  0  0  0  0
 15 14  1  0  0  0  0
 15 27  1  0  0  0  0
 16 15  2  0  0  0  0
 17 18  2  0  0  0  0
 17 16  1  0  0  0  0
 18 13  1  0  0  0  0
 21 16  1  0  0  0  0
 22 17  1  0  0  0  0
 23 26  2  0  0  0  0
 23 24  1  0  0  0  0
 23 18  1  0  0  0  0
 24  3  1  0  0  0  0
 25 23  2  0  0  0  0
 27 28  1  0  0  0  0
 27 30  1  0  0  0  0
 29 27  1  0  0  0  0
 31 32  1  0  0  0  0
 32 35  1  0  0  0  0
 32 33  1  0  0  0  0
 34 32  1  0  0  0  0
M  END
