Coordinates from ORCA-job 4-MeO-Ph-N2-OTs-B3LYPG-6-31G_dp-MTMO-d009-169-n800
 OpenBabel09051908173D

 35 35  0  0  0  0  0  0  0  0999 V2000
    3.0756   -3.9456    0.7689 C   0  0  0  0  0  0  0  0  0  0  0  0
    2.0043   -3.8926   -0.1272 C   0  0  0  0  0  0  0  0  0  0  0  0
    2.1812   -4.2896   -1.4481 C   0  0  0  0  0  0  0  0  0  0  0  0
    3.4239   -4.7485   -1.8962 C   0  0  0  0  0  0  0  0  0  0  0  0
    4.4865   -4.8116   -1.0051 C   0  0  0  0  0  0  0  0  0  0  0  0
    4.3220   -4.4098    0.3306 C   0  0  0  0  0  0  0  0  0  0  0  0
    2.9256   -3.6230    1.7919 H   0  0  0  0  0  0  0  0  0  0  0  0
    1.0334   -3.5306    0.1934 H   0  0  0  0  0  0  0  0  0  0  0  0
    3.5413   -5.0557   -2.9282 H   0  0  0  0  0  0  0  0  0  0  0  0
    5.4619   -5.1642   -1.3224 H   0  0  0  0  0  0  0  0  0  0  0  0
   -5.2185   -3.7064   -2.0641 N   0  0  0  0  0  0  0  0  0  0  0  0
   -5.9554   -3.2525   -2.7513 N   0  0  0  0  0  0  0  0  0  0  0  0
   -0.1362   -7.0121   -0.6629 C   0  0  0  0  0  0  0  0  0  0  0  0
   -0.8971   -7.4131    0.4345 C   0  0  0  0  0  0  0  0  0  0  0  0
   -2.1479   -6.8399    0.6994 C   0  0  0  0  0  0  0  0  0  0  0  0
   -2.6308   -5.8503   -0.1722 C   0  0  0  0  0  0  0  0  0  0  0  0
   -1.8874   -5.4352   -1.2724 C   0  0  0  0  0  0  0  0  0  0  0  0
   -0.6406   -6.0219   -1.5062 C   0  0  0  0  0  0  0  0  0  0  0  0
    0.8233   -7.4685   -0.8774 H   0  0  0  0  0  0  0  0  0  0  0  0
   -0.5143   -8.1900    1.0910 H   0  0  0  0  0  0  0  0  0  0  0  0
   -3.6058   -5.4053    0.0054 H   0  0  0  0  0  0  0  0  0  0  0  0
   -2.2714   -4.6836   -1.9537 H   0  0  0  0  0  0  0  0  0  0  0  0
    0.3188   -5.4915   -2.9118 S   0  0  0  0  0  0  0  0  0  0  0  0
    1.1091   -4.1365   -2.3364 O   0  0  0  0  0  0  0  0  0  0  0  0
   -0.5685   -4.9442   -3.9271 O   0  0  0  0  0  0  0  0  0  0  0  0
    1.3111   -6.5185   -3.2172 O   0  0  0  0  0  0  0  0  0  0  0  0
   -2.9588   -7.2638    1.8995 C   0  0  0  0  0  0  0  0  0  0  0  0
   -2.8973   -6.5145    2.6990 H   0  0  0  0  0  0  0  0  0  0  0  0
   -4.0174   -7.3773    1.6453 H   0  0  0  0  0  0  0  0  0  0  0  0
   -2.6033   -8.2125    2.3090 H   0  0  0  0  0  0  0  0  0  0  0  0
    5.4335   -4.5063    1.1157 O   0  0  0  0  0  0  0  0  0  0  0  0
    5.3353   -4.1065    2.4732 C   0  0  0  0  0  0  0  0  0  0  0  0
    6.3255   -4.2608    2.9051 H   0  0  0  0  0  0  0  0  0  0  0  0
    5.0636   -3.0470    2.5657 H   0  0  0  0  0  0  0  0  0  0  0  0
    4.6047   -4.7134    3.0232 H   0  0  0  0  0  0  0  0  0  0  0  0
  1  7  1  0  0  0  0
  2  8  1  0  0  0  0
  2  1  2  0  0  0  0
  3  2  1  0  0  0  0
  4  3  2  0  0  0  0
  4  5  1  0  0  0  0
  5  6  2  0  0  0  0
  6  1  1  0  0  0  0
  6 31  1  0  0  0  0
  9  4  1  0  0  0  0
 10  5  1  0  0  0  0
 12 11  3  0  0  0  0
 13 14  2  0  0  0  0
 14 15  1  0  0  0  0
 14 20  1  0  0  0  0
 15 27  1  0  0  0  0
 16 21  1  0  0  0  0
 16 15  2  0  0  0  0
 17 16  1  0  0  0  0
 18 17  2  0  0  0  0
 18 13  1  0  0  0  0
 19 13  1  0  0  0  0
 22 17  1  0  0  0  0
 23 24  1  0  0  0  0
 23 18  1  0  0  0  0
 24  3  1  0  0  0  0
 25 23  2  0  0  0  0
 26 23  2  0  0  0  0
 27 30  1  0  0  0  0
 27 28  1  0  0  0  0
 29 27  1  0  0  0  0
 31 32  1  0  0  0  0
 32 34  1  0  0  0  0
 32 33  1  0  0  0  0
 32 35  1  0  0  0  0
M  END
