Coordinates from ORCA-job 4-MeO-Ph-N2-OTs-B3LYPG-6-31G_dp-MTMO-d009-169-n800
 OpenBabel09051908173D

 35 35  0  0  0  0  0  0  0  0999 V2000
    3.6815   -3.9518    0.6111 C   0  0  0  0  0  0  0  0  0  0  0  0
    2.7103   -3.8618   -0.3902 C   0  0  0  0  0  0  0  0  0  0  0  0
    2.9172   -4.4819   -1.6174 C   0  0  0  0  0  0  0  0  0  0  0  0
    4.0892   -5.2028   -1.8657 C   0  0  0  0  0  0  0  0  0  0  0  0
    5.0512   -5.3004   -0.8699 C   0  0  0  0  0  0  0  0  0  0  0  0
    4.8561   -4.6758    0.3730 C   0  0  0  0  0  0  0  0  0  0  0  0
    3.5110   -3.4569    1.5594 H   0  0  0  0  0  0  0  0  0  0  0  0
    1.7968   -3.3004   -0.2251 H   0  0  0  0  0  0  0  0  0  0  0  0
    4.2301   -5.6804   -2.8276 H   0  0  0  0  0  0  0  0  0  0  0  0
    5.9713   -5.8514   -1.0325 H   0  0  0  0  0  0  0  0  0  0  0  0
  -11.7200   -8.6336    0.3250 N   0  0  0  0  0  0  0  0  0  0  0  0
  -12.6697   -9.1495    0.0937 N   0  0  0  0  0  0  0  0  0  0  0  0
   -0.0162   -6.5024   -0.6623 C   0  0  0  0  0  0  0  0  0  0  0  0
   -0.9438   -6.5191    0.3793 C   0  0  0  0  0  0  0  0  0  0  0  0
   -2.0563   -5.6677    0.3745 C   0  0  0  0  0  0  0  0  0  0  0  0
   -2.2228   -4.7878   -0.7075 C   0  0  0  0  0  0  0  0  0  0  0  0
   -1.3098   -4.7550   -1.7566 C   0  0  0  0  0  0  0  0  0  0  0  0
   -0.2096   -5.6168   -1.7222 C   0  0  0  0  0  0  0  0  0  0  0  0
    0.8367   -7.1718   -0.6649 H   0  0  0  0  0  0  0  0  0  0  0  0
   -0.8013   -7.2089    1.2071 H   0  0  0  0  0  0  0  0  0  0  0  0
   -3.0838   -4.1246   -0.7299 H   0  0  0  0  0  0  0  0  0  0  0  0
   -1.4473   -4.0864   -2.5997 H   0  0  0  0  0  0  0  0  0  0  0  0
    0.9708   -5.5684   -3.0580 S   0  0  0  0  0  0  0  0  0  0  0  0
    1.9652   -4.2969   -2.6280 O   0  0  0  0  0  0  0  0  0  0  0  0
    0.3175   -5.0797   -4.2630 O   0  0  0  0  0  0  0  0  0  0  0  0
    1.7516   -6.8023   -3.0407 O   0  0  0  0  0  0  0  0  0  0  0  0
   -3.0717   -5.7066    1.4908 C   0  0  0  0  0  0  0  0  0  0  0  0
   -3.3390   -4.6983    1.8219 H   0  0  0  0  0  0  0  0  0  0  0  0
   -3.9975   -6.1923    1.1600 H   0  0  0  0  0  0  0  0  0  0  0  0
   -2.6976   -6.2610    2.3552 H   0  0  0  0  0  0  0  0  0  0  0  0
    5.8680   -4.8308    1.2748 O   0  0  0  0  0  0  0  0  0  0  0  0
    5.7344   -4.2187    2.5475 C   0  0  0  0  0  0  0  0  0  0  0  0
    6.6442   -4.4654    3.0974 H   0  0  0  0  0  0  0  0  0  0  0  0
    5.6466   -3.1276    2.4657 H   0  0  0  0  0  0  0  0  0  0  0  0
    4.8663   -4.6078    3.0956 H   0  0  0  0  0  0  0  0  0  0  0  0
  1  7  1  0  0  0  0
  2  8  1  0  0  0  0
  2  1  2  0  0  0  0
  3  2  1  0  0  0  0
  4  3  2  0  0  0  0
  4  5  1  0  0  0  0
  5  6  2  0  0  0  0
  6  1  1  0  0  0  0
  6 31  1  0  0  0  0
  9  4  1  0  0  0  0
 10  5  1  0  0  0  0
 12 11  3  0  0  0  0
 13 14  2  0  0  0  0
 14 20  1  0  0  0  0
 15 14  1  0  0  0  0
 15 27  1  0  0  0  0
 16 15  2  0  0  0  0
 17 18  2  0  0  0  0
 17 16  1  0  0  0  0
 18 13  1  0  0  0  0
 19 13  1  0  0  0  0
 21 16  1  0  0  0  0
 22 17  1  0  0  0  0
 23 26  2  0  0  0  0
 23 24  1  0  0  0  0
 23 18  1  0  0  0  0
 24  3  1  0  0  0  0
 25 23  2  0  0  0  0
 27 28  1  0  0  0  0
 27 30  1  0  0  0  0
 29 27  1  0  0  0  0
 31 32  1  0  0  0  0
 32 35  1  0  0  0  0
 32 33  1  0  0  0  0
 34 32  1  0  0  0  0
M  END
