Coordinates from ORCA-job 4-MeO-Ph-N2-OTs-B3LYPG-6-31G_dp-MTMO-d009-169-n800
 OpenBabel09051908173D

 35 35  0  0  0  0  0  0  0  0999 V2000
    3.6881   -3.9504    0.6105 C   0  0  0  0  0  0  0  0  0  0  0  0
    2.7158   -3.8607   -0.3898 C   0  0  0  0  0  0  0  0  0  0  0  0
    2.9214   -4.4811   -1.6171 C   0  0  0  0  0  0  0  0  0  0  0  0
    4.0932   -5.2020   -1.8665 C   0  0  0  0  0  0  0  0  0  0  0  0
    5.0563   -5.2992   -0.8717 C   0  0  0  0  0  0  0  0  0  0  0  0
    4.8625   -4.6743    0.3712 C   0  0  0  0  0  0  0  0  0  0  0  0
    3.5186   -3.4552    1.5588 H   0  0  0  0  0  0  0  0  0  0  0  0
    1.8024   -3.2994   -0.2239 H   0  0  0  0  0  0  0  0  0  0  0  0
    4.2331   -5.6798   -2.8284 H   0  0  0  0  0  0  0  0  0  0  0  0
    5.9762   -5.8502   -1.0352 H   0  0  0  0  0  0  0  0  0  0  0  0
  -11.7948   -8.6537    0.3177 N   0  0  0  0  0  0  0  0  0  0  0  0
  -12.7428   -9.1724    0.0856 N   0  0  0  0  0  0  0  0  0  0  0  0
   -0.0130   -6.5008   -0.6597 C   0  0  0  0  0  0  0  0  0  0  0  0
   -0.9407   -6.5174    0.3818 C   0  0  0  0  0  0  0  0  0  0  0  0
   -2.0535   -5.6663    0.3765 C   0  0  0  0  0  0  0  0  0  0  0  0
   -2.2203   -4.7871   -0.7060 C   0  0  0  0  0  0  0  0  0  0  0  0
   -1.3072   -4.7545   -1.7550 C   0  0  0  0  0  0  0  0  0  0  0  0
   -0.2067   -5.6159   -1.7200 C   0  0  0  0  0  0  0  0  0  0  0  0
    0.8401   -7.1699   -0.6619 H   0  0  0  0  0  0  0  0  0  0  0  0
   -0.7981   -7.2066    1.2100 H   0  0  0  0  0  0  0  0  0  0  0  0
   -3.0815   -4.1241   -0.7288 H   0  0  0  0  0  0  0  0  0  0  0  0
   -1.4449   -4.0865   -2.5985 H   0  0  0  0  0  0  0  0  0  0  0  0
    0.9737   -5.5680   -3.0559 S   0  0  0  0  0  0  0  0  0  0  0  0
    1.9684   -4.2964   -2.6268 O   0  0  0  0  0  0  0  0  0  0  0  0
    0.3201   -5.0795   -4.2609 O   0  0  0  0  0  0  0  0  0  0  0  0
    1.7542   -6.8019   -3.0385 O   0  0  0  0  0  0  0  0  0  0  0  0
   -3.0688   -5.7048    1.4929 C   0  0  0  0  0  0  0  0  0  0  0  0
   -3.3360   -4.6962    1.8235 H   0  0  0  0  0  0  0  0  0  0  0  0
   -3.9948   -6.1906    1.1628 H   0  0  0  0  0  0  0  0  0  0  0  0
   -2.6944   -6.2588    2.3575 H   0  0  0  0  0  0  0  0  0  0  0  0
    5.8754   -4.8290    1.2719 O   0  0  0  0  0  0  0  0  0  0  0  0
    5.7432   -4.2166    2.5446 C   0  0  0  0  0  0  0  0  0  0  0  0
    6.6537   -4.4630    3.0935 H   0  0  0  0  0  0  0  0  0  0  0  0
    5.6553   -3.1254    2.4627 H   0  0  0  0  0  0  0  0  0  0  0  0
    4.8757   -4.6056    3.0938 H   0  0  0  0  0  0  0  0  0  0  0  0
  1  7  1  0  0  0  0
  2  8  1  0  0  0  0
  2  1  2  0  0  0  0
  3  2  1  0  0  0  0
  4  3  2  0  0  0  0
  4  5  1  0  0  0  0
  5  6  2  0  0  0  0
  6  1  1  0  0  0  0
  6 31  1  0  0  0  0
  9  4  1  0  0  0  0
 10  5  1  0  0  0  0
 12 11  3  0  0  0  0
 13 14  2  0  0  0  0
 14 20  1  0  0  0  0
 15 14  1  0  0  0  0
 15 27  1  0  0  0  0
 16 15  2  0  0  0  0
 17 18  2  0  0  0  0
 17 16  1  0  0  0  0
 18 13  1  0  0  0  0
 19 13  1  0  0  0  0
 21 16  1  0  0  0  0
 22 17  1  0  0  0  0
 23 26  2  0  0  0  0
 23 24  1  0  0  0  0
 23 18  1  0  0  0  0
 24  3  1  0  0  0  0
 25 23  2  0  0  0  0
 27 28  1  0  0  0  0
 27 30  1  0  0  0  0
 29 27  1  0  0  0  0
 31 32  1  0  0  0  0
 32 33  1  0  0  0  0
 32 35  1  0  0  0  0
 34 32  1  0  0  0  0
M  END
