Coordinates from ORCA-job 4-MeO-Ph-N2-OTs-B3LYPG-6-31G_dp-MTMO-d009-169-n800
 OpenBabel09051908173D

 35 35  0  0  0  0  0  0  0  0999 V2000
    3.1045   -3.9148    0.7154 C   0  0  0  0  0  0  0  0  0  0  0  0
    2.1156   -3.9133   -0.2722 C   0  0  0  0  0  0  0  0  0  0  0  0
    2.3964   -4.4138   -1.5387 C   0  0  0  0  0  0  0  0  0  0  0  0
    3.6621   -4.9258   -1.8407 C   0  0  0  0  0  0  0  0  0  0  0  0
    4.6426   -4.9373   -0.8582 C   0  0  0  0  0  0  0  0  0  0  0  0
    4.3730   -4.4313    0.4240 C   0  0  0  0  0  0  0  0  0  0  0  0
    2.8742   -3.5135    1.6946 H   0  0  0  0  0  0  0  0  0  0  0  0
    1.1293   -3.5119   -0.0660 H   0  0  0  0  0  0  0  0  0  0  0  0
    3.8608   -5.3127   -2.8326 H   0  0  0  0  0  0  0  0  0  0  0  0
    5.6334   -5.3290   -1.0614 H   0  0  0  0  0  0  0  0  0  0  0  0
   -6.1368   -4.0550   -0.4514 N   0  0  0  0  0  0  0  0  0  0  0  0
   -7.0934   -3.5316   -0.6305 N   0  0  0  0  0  0  0  0  0  0  0  0
   -0.0728   -7.0229   -0.7523 C   0  0  0  0  0  0  0  0  0  0  0  0
   -0.9432   -7.3162    0.2960 C   0  0  0  0  0  0  0  0  0  0  0  0
   -2.1909   -6.6852    0.4026 C   0  0  0  0  0  0  0  0  0  0  0  0
   -2.5564   -5.7495   -0.5780 C   0  0  0  0  0  0  0  0  0  0  0  0
   -1.7010   -5.4422   -1.6331 C   0  0  0  0  0  0  0  0  0  0  0  0
   -0.4622   -6.0835   -1.7087 C   0  0  0  0  0  0  0  0  0  0  0  0
    0.8833   -7.5252   -0.8450 H   0  0  0  0  0  0  0  0  0  0  0  0
   -0.6517   -8.0540    1.0390 H   0  0  0  0  0  0  0  0  0  0  0  0
   -3.5269   -5.2650   -0.5199 H   0  0  0  0  0  0  0  0  0  0  0  0
   -1.9907   -4.7335   -2.4015 H   0  0  0  0  0  0  0  0  0  0  0  0
    0.6352   -5.6946   -3.0588 S   0  0  0  0  0  0  0  0  0  0  0  0
    1.4095   -4.3126   -2.5274 O   0  0  0  0  0  0  0  0  0  0  0  0
   -0.1412   -5.2168   -4.1930 O   0  0  0  0  0  0  0  0  0  0  0  0
    1.6207   -6.7651   -3.1860 O   0  0  0  0  0  0  0  0  0  0  0  0
   -3.1157   -6.9932    1.5551 C   0  0  0  0  0  0  0  0  0  0  0  0
   -2.9130   -6.3316    2.4066 H   0  0  0  0  0  0  0  0  0  0  0  0
   -4.1637   -6.8514    1.2757 H   0  0  0  0  0  0  0  0  0  0  0  0
   -2.9905   -8.0216    1.9055 H   0  0  0  0  0  0  0  0  0  0  0  0
    5.4100   -4.4857    1.3087 O   0  0  0  0  0  0  0  0  0  0  0  0
    5.2066   -3.9724    2.6155 C   0  0  0  0  0  0  0  0  0  0  0  0
    6.1509   -4.1121    3.1445 H   0  0  0  0  0  0  0  0  0  0  0  0
    4.9585   -2.9034    2.5970 H   0  0  0  0  0  0  0  0  0  0  0  0
    4.4134   -4.5152    3.1458 H   0  0  0  0  0  0  0  0  0  0  0  0
  1  7  1  0  0  0  0
  2  8  1  0  0  0  0
  2  1  2  0  0  0  0
  3  2  1  0  0  0  0
  4  3  2  0  0  0  0
  4  5  1  0  0  0  0
  5  6  2  0  0  0  0
  6  1  1  0  0  0  0
  6 31  1  0  0  0  0
  9  4  1  0  0  0  0
 10  5  1  0  0  0  0
 12 11  3  0  0  0  0
 13 14  2  0  0  0  0
 14 15  1  0  0  0  0
 14 20  1  0  0  0  0
 15 27  1  0  0  0  0
 16 21  1  0  0  0  0
 16 15  2  0  0  0  0
 17 16  1  0  0  0  0
 18 17  2  0  0  0  0
 18 13  1  0  0  0  0
 19 13  1  0  0  0  0
 22 17  1  0  0  0  0
 23 24  1  0  0  0  0
 23 18  1  0  0  0  0
 24  3  1  0  0  0  0
 25 23  2  0  0  0  0
 26 23  2  0  0  0  0
 27 30  1  0  0  0  0
 27 28  1  0  0  0  0
 29 27  1  0  0  0  0
 31 32  1  0  0  0  0
 32 33  1  0  0  0  0
 32 35  1  0  0  0  0
 34 32  1  0  0  0  0
M  END
