Coordinates from ORCA-job 4-MeO-Ph-N2-OTs-B3LYPG-6-31G_dp-MTMO-d009-169-n800
 OpenBabel09051908173D

 35 35  0  0  0  0  0  0  0  0999 V2000
    3.5511   -4.0215    0.6381 C   0  0  0  0  0  0  0  0  0  0  0  0
    2.5952   -3.9098   -0.3756 C   0  0  0  0  0  0  0  0  0  0  0  0
    2.8076   -4.5278   -1.6030 C   0  0  0  0  0  0  0  0  0  0  0  0
    3.9699   -5.2681   -1.8391 C   0  0  0  0  0  0  0  0  0  0  0  0
    4.9167   -5.3870   -0.8311 C   0  0  0  0  0  0  0  0  0  0  0  0
    4.7161   -4.7647    0.4120 C   0  0  0  0  0  0  0  0  0  0  0  0
    3.3766   -3.5278    1.5862 H   0  0  0  0  0  0  0  0  0  0  0  0
    1.6894   -3.3332   -0.2200 H   0  0  0  0  0  0  0  0  0  0  0  0
    4.1154   -5.7437   -2.8013 H   0  0  0  0  0  0  0  0  0  0  0  0
    5.8292   -5.9531   -0.9842 H   0  0  0  0  0  0  0  0  0  0  0  0
   -9.4094   -8.2294    0.4851 N   0  0  0  0  0  0  0  0  0  0  0  0
  -10.3527   -8.7526    0.2441 N   0  0  0  0  0  0  0  0  0  0  0  0
   -0.1790   -6.4994   -0.6998 C   0  0  0  0  0  0  0  0  0  0  0  0
   -1.1210   -6.5032    0.3286 C   0  0  0  0  0  0  0  0  0  0  0  0
   -2.2154   -5.6284    0.3139 C   0  0  0  0  0  0  0  0  0  0  0  0
   -2.3481   -4.7384   -0.7643 C   0  0  0  0  0  0  0  0  0  0  0  0
   -1.4200   -4.7184   -1.8006 C   0  0  0  0  0  0  0  0  0  0  0  0
   -0.3390   -5.6033   -1.7567 C   0  0  0  0  0  0  0  0  0  0  0  0
    0.6600   -7.1864   -0.6949 H   0  0  0  0  0  0  0  0  0  0  0  0
   -1.0044   -7.2007    1.1540 H   0  0  0  0  0  0  0  0  0  0  0  0
   -3.1942   -4.0564   -0.7937 H   0  0  0  0  0  0  0  0  0  0  0  0
   -1.5313   -4.0413   -2.6409 H   0  0  0  0  0  0  0  0  0  0  0  0
    0.8612   -5.5713   -3.0753 S   0  0  0  0  0  0  0  0  0  0  0  0
    1.8731   -4.3206   -2.6255 O   0  0  0  0  0  0  0  0  0  0  0  0
    0.2345   -5.0650   -4.2872 O   0  0  0  0  0  0  0  0  0  0  0  0
    1.6182   -6.8198   -3.0528 O   0  0  0  0  0  0  0  0  0  0  0  0
   -3.2479   -5.6565    1.4145 C   0  0  0  0  0  0  0  0  0  0  0  0
   -3.5524   -4.6457    1.7026 H   0  0  0  0  0  0  0  0  0  0  0  0
   -4.1520   -6.1848    1.0884 H   0  0  0  0  0  0  0  0  0  0  0  0
   -2.8718   -6.1662    2.3053 H   0  0  0  0  0  0  0  0  0  0  0  0
    5.7130   -4.9412    1.3264 O   0  0  0  0  0  0  0  0  0  0  0  0
    5.5732   -4.3323    2.5999 C   0  0  0  0  0  0  0  0  0  0  0  0
    6.4718   -4.5961    3.1603 H   0  0  0  0  0  0  0  0  0  0  0  0
    5.5043   -3.2395    2.5218 H   0  0  0  0  0  0  0  0  0  0  0  0
    4.6919   -4.7094    3.1352 H   0  0  0  0  0  0  0  0  0  0  0  0
  1  7  1  0  0  0  0
  2  8  1  0  0  0  0
  2  1  2  0  0  0  0
  3  2  1  0  0  0  0
  4  3  2  0  0  0  0
  4  5  1  0  0  0  0
  5  6  2  0  0  0  0
  6  1  1  0  0  0  0
  6 31  1  0  0  0  0
  9  4  1  0  0  0  0
 10  5  1  0  0  0  0
 12 11  3  0  0  0  0
 13 19  1  0  0  0  0
 13 14  2  0  0  0  0
 14 20  1  0  0  0  0
 15 14  1  0  0  0  0
 15 27  1  0  0  0  0
 16 15  2  0  0  0  0
 17 18  2  0  0  0  0
 17 16  1  0  0  0  0
 18 13  1  0  0  0  0
 21 16  1  0  0  0  0
 22 17  1  0  0  0  0
 23 26  2  0  0  0  0
 23 24  1  0  0  0  0
 23 18  1  0  0  0  0
 24  3  1  0  0  0  0
 25 23  2  0  0  0  0
 27 28  1  0  0  0  0
 27 30  1  0  0  0  0
 29 27  1  0  0  0  0
 31 32  1  0  0  0  0
 32 35  1  0  0  0  0
 32 33  1  0  0  0  0
 34 32  1  0  0  0  0
M  END
