Coordinates from ORCA-job 4-MeO-Ph-N2-OTs-B3LYPG-6-31G_dp-MTMO-d009-169-n800
 OpenBabel09051908173D

 35 35  0  0  0  0  0  0  0  0999 V2000
    3.0297   -3.9649    0.7772 C   0  0  0  0  0  0  0  0  0  0  0  0
    1.8807   -3.8726   -0.0132 C   0  0  0  0  0  0  0  0  0  0  0  0
    1.9376   -4.1965   -1.3643 C   0  0  0  0  0  0  0  0  0  0  0  0
    3.1356   -4.6201   -1.9485 C   0  0  0  0  0  0  0  0  0  0  0  0
    4.2752   -4.7230   -1.1623 C   0  0  0  0  0  0  0  0  0  0  0  0
    4.2324   -4.3949    0.2027 C   0  0  0  0  0  0  0  0  0  0  0  0
    2.9727   -3.6981    1.8253 H   0  0  0  0  0  0  0  0  0  0  0  0
    0.9420   -3.5359    0.4133 H   0  0  0  0  0  0  0  0  0  0  0  0
    3.1594   -4.8698   -3.0021 H   0  0  0  0  0  0  0  0  0  0  0  0
    5.2188   -5.0499   -1.5859 H   0  0  0  0  0  0  0  0  0  0  0  0
   -4.0278   -3.4406   -3.5757 N   0  0  0  0  0  0  0  0  0  0  0  0
   -3.9759   -3.1278   -4.6341 N   0  0  0  0  0  0  0  0  0  0  0  0
   -0.2538   -6.9843   -0.5416 C   0  0  0  0  0  0  0  0  0  0  0  0
   -0.9028   -7.4718    0.5913 C   0  0  0  0  0  0  0  0  0  0  0  0
   -2.1429   -6.9576    0.9955 C   0  0  0  0  0  0  0  0  0  0  0  0
   -2.7295   -5.9401    0.2268 C   0  0  0  0  0  0  0  0  0  0  0  0
   -2.0988   -5.4375   -0.9080 C   0  0  0  0  0  0  0  0  0  0  0  0
   -0.8601   -5.9667   -1.2802 C   0  0  0  0  0  0  0  0  0  0  0  0
    0.6957   -7.3946   -0.8642 H   0  0  0  0  0  0  0  0  0  0  0  0
   -0.4416   -8.2705    1.1661 H   0  0  0  0  0  0  0  0  0  0  0  0
   -3.6985   -5.5431    0.5158 H   0  0  0  0  0  0  0  0  0  0  0  0
   -2.5656   -4.6660   -1.5109 H   0  0  0  0  0  0  0  0  0  0  0  0
   -0.0413   -5.3282   -2.7292 S   0  0  0  0  0  0  0  0  0  0  0  0
    0.7876   -4.0027   -2.1410 O   0  0  0  0  0  0  0  0  0  0  0  0
   -1.0243   -4.7283   -3.6194 O   0  0  0  0  0  0  0  0  0  0  0  0
    0.9269   -6.3171   -3.1954 O   0  0  0  0  0  0  0  0  0  0  0  0
   -2.8264   -7.4744    2.2381 C   0  0  0  0  0  0  0  0  0  0  0  0
   -2.5912   -6.8434    3.1042 H   0  0  0  0  0  0  0  0  0  0  0  0
   -3.9149   -7.4770    2.1245 H   0  0  0  0  0  0  0  0  0  0  0  0
   -2.5049   -8.4913    2.4777 H   0  0  0  0  0  0  0  0  0  0  0  0
    5.4110   -4.5238    0.8774 O   0  0  0  0  0  0  0  0  0  0  0  0
    5.4353   -4.1937    2.2568 C   0  0  0  0  0  0  0  0  0  0  0  0
    6.4612   -4.3604    2.5885 H   0  0  0  0  0  0  0  0  0  0  0  0
    5.1676   -3.1428    2.4266 H   0  0  0  0  0  0  0  0  0  0  0  0
    4.7604   -4.8340    2.8390 H   0  0  0  0  0  0  0  0  0  0  0  0
  1  7  1  0  0  0  0
  2  8  1  0  0  0  0
  2  1  2  0  0  0  0
  3  2  1  0  0  0  0
  4  3  2  0  0  0  0
  4  5  1  0  0  0  0
  5  6  2  0  0  0  0
  6  1  1  0  0  0  0
  6 31  1  0  0  0  0
  9  4  1  0  0  0  0
 10  5  1  0  0  0  0
 12 11  3  0  0  0  0
 13 14  2  0  0  0  0
 14 15  1  0  0  0  0
 14 20  1  0  0  0  0
 15 27  1  0  0  0  0
 16 21  1  0  0  0  0
 16 15  2  0  0  0  0
 17 16  1  0  0  0  0
 18 17  2  0  0  0  0
 18 13  1  0  0  0  0
 19 13  1  0  0  0  0
 22 17  1  0  0  0  0
 23 24  1  0  0  0  0
 23 18  1  0  0  0  0
 24  3  1  0  0  0  0
 25 23  2  0  0  0  0
 26 23  2  0  0  0  0
 27 30  1  0  0  0  0
 27 28  1  0  0  0  0
 29 27  1  0  0  0  0
 31 32  1  0  0  0  0
 32 34  1  0  0  0  0
 32 33  1  0  0  0  0
 32 35  1  0  0  0  0
M  END
