Coordinates from ORCA-job 4-MeO-Ph-N2-OTs-B3LYPG-6-31G_dp-MTMO-d009-169-n800
 OpenBabel09051908173D

 35 35  0  0  0  0  0  0  0  0999 V2000
    3.2370   -3.9434    0.6824 C   0  0  0  0  0  0  0  0  0  0  0  0
    2.2836   -3.9122   -0.3392 C   0  0  0  0  0  0  0  0  0  0  0  0
    2.5708   -4.4784   -1.5764 C   0  0  0  0  0  0  0  0  0  0  0  0
    3.8078   -5.0853   -1.8148 C   0  0  0  0  0  0  0  0  0  0  0  0
    4.7525   -5.1256   -0.7986 C   0  0  0  0  0  0  0  0  0  0  0  0
    4.4758   -4.5553    0.4548 C   0  0  0  0  0  0  0  0  0  0  0  0
    3.0025   -3.4912    1.6382 H   0  0  0  0  0  0  0  0  0  0  0  0
    1.3208   -3.4379   -0.1822 H   0  0  0  0  0  0  0  0  0  0  0  0
    4.0119   -5.5218   -2.7848 H   0  0  0  0  0  0  0  0  0  0  0  0
    5.7206   -5.5896   -0.9528 H   0  0  0  0  0  0  0  0  0  0  0  0
   -6.9292   -5.2695    0.2749 N   0  0  0  0  0  0  0  0  0  0  0  0
   -8.0324   -5.2359    0.2180 N   0  0  0  0  0  0  0  0  0  0  0  0
   -0.1023   -6.8265   -0.7436 C   0  0  0  0  0  0  0  0  0  0  0  0
   -1.0319   -7.0062    0.2782 C   0  0  0  0  0  0  0  0  0  0  0  0
   -2.2547   -6.3180    0.2787 C   0  0  0  0  0  0  0  0  0  0  0  0
   -2.5303   -5.4416   -0.7813 C   0  0  0  0  0  0  0  0  0  0  0  0
   -1.6135   -5.2456   -1.8123 C   0  0  0  0  0  0  0  0  0  0  0  0
   -0.4037   -5.9419   -1.7818 C   0  0  0  0  0  0  0  0  0  0  0  0
    0.8331   -7.3738   -0.7538 H   0  0  0  0  0  0  0  0  0  0  0  0
   -0.8072   -7.6995    1.0848 H   0  0  0  0  0  0  0  0  0  0  0  0
   -3.4800   -4.9147   -0.8050 H   0  0  0  0  0  0  0  0  0  0  0  0
   -1.8352   -4.5819   -2.6412 H   0  0  0  0  0  0  0  0  0  0  0  0
    0.7715   -5.6993   -3.1004 S   0  0  0  0  0  0  0  0  0  0  0  0
    1.6260   -4.3517   -2.6026 O   0  0  0  0  0  0  0  0  0  0  0  0
    0.0766   -5.2249   -4.2877 O   0  0  0  0  0  0  0  0  0  0  0  0
    1.6798   -6.8424   -3.1345 O   0  0  0  0  0  0  0  0  0  0  0  0
   -3.2444   -6.5104    1.4023 C   0  0  0  0  0  0  0  0  0  0  0  0
   -2.9490   -5.9320    2.2862 H   0  0  0  0  0  0  0  0  0  0  0  0
   -4.2467   -6.1826    1.1147 H   0  0  0  0  0  0  0  0  0  0  0  0
   -3.3008   -7.5596    1.7077 H   0  0  0  0  0  0  0  0  0  0  0  0
    5.4766   -4.6469    1.3773 O   0  0  0  0  0  0  0  0  0  0  0  0
    5.2628   -4.0805    2.6602 C   0  0  0  0  0  0  0  0  0  0  0  0
    6.1768   -4.2655    3.2273 H   0  0  0  0  0  0  0  0  0  0  0  0
    5.0873   -2.9986    2.6017 H   0  0  0  0  0  0  0  0  0  0  0  0
    4.4172   -4.5532    3.1765 H   0  0  0  0  0  0  0  0  0  0  0  0
  1  7  1  0  0  0  0
  2  8  1  0  0  0  0
  2  1  2  0  0  0  0
  3  2  1  0  0  0  0
  4  3  2  0  0  0  0
  4  5  1  0  0  0  0
  5  6  2  0  0  0  0
  6  1  1  0  0  0  0
  6 31  1  0  0  0  0
  9  4  1  0  0  0  0
 10  5  1  0  0  0  0
 12 11  3  0  0  0  0
 13 14  2  0  0  0  0
 14 15  1  0  0  0  0
 14 20  1  0  0  0  0
 15 27  1  0  0  0  0
 16 15  2  0  0  0  0
 17 18  2  0  0  0  0
 17 16  1  0  0  0  0
 18 13  1  0  0  0  0
 19 13  1  0  0  0  0
 21 16  1  0  0  0  0
 22 17  1  0  0  0  0
 23 24  1  0  0  0  0
 23 18  1  0  0  0  0
 24  3  1  0  0  0  0
 25 23  2  0  0  0  0
 26 23  2  0  0  0  0
 27 30  1  0  0  0  0
 27 28  1  0  0  0  0
 29 27  1  0  0  0  0
 31 32  1  0  0  0  0
 32 35  1  0  0  0  0
 32 33  1  0  0  0  0
 34 32  1  0  0  0  0
M  END
