Coordinates from ORCA-job 4-MeO-Ph-N2-OTs-B3LYPG-6-31G_dp-MTMO-d009-169-n800
 OpenBabel09051908173D

 35 35  0  0  0  0  0  0  0  0999 V2000
    2.9180   -3.9175    0.6878 C   0  0  0  0  0  0  0  0  0  0  0  0
    1.7746   -3.9039   -0.1159 C   0  0  0  0  0  0  0  0  0  0  0  0
    1.8572   -4.2870   -1.4500 C   0  0  0  0  0  0  0  0  0  0  0  0
    3.0756   -4.6929   -2.0035 C   0  0  0  0  0  0  0  0  0  0  0  0
    4.2102   -4.7174   -1.2040 C   0  0  0  0  0  0  0  0  0  0  0  0
    4.1414   -4.3288    0.1440 C   0  0  0  0  0  0  0  0  0  0  0  0
    2.8407   -3.6057    1.7220 H   0  0  0  0  0  0  0  0  0  0  0  0
    0.8200   -3.5831    0.2870 H   0  0  0  0  0  0  0  0  0  0  0  0
    3.1188   -4.9898   -3.0442 H   0  0  0  0  0  0  0  0  0  0  0  0
    5.1692   -5.0287   -1.6039 H   0  0  0  0  0  0  0  0  0  0  0  0
   -3.2932   -2.7662   -3.1929 N   0  0  0  0  0  0  0  0  0  0  0  0
   -3.0850   -2.2418   -4.1428 N   0  0  0  0  0  0  0  0  0  0  0  0
   -0.2747   -7.1493   -0.5344 C   0  0  0  0  0  0  0  0  0  0  0  0
   -0.9151   -7.5964    0.6210 C   0  0  0  0  0  0  0  0  0  0  0  0
   -2.1393   -7.0511    1.0292 C   0  0  0  0  0  0  0  0  0  0  0  0
   -2.7196   -6.0414    0.2437 C   0  0  0  0  0  0  0  0  0  0  0  0
   -2.0988   -5.5808   -0.9130 C   0  0  0  0  0  0  0  0  0  0  0  0
   -0.8748   -6.1422   -1.2901 C   0  0  0  0  0  0  0  0  0  0  0  0
    0.6646   -7.5814   -0.8588 H   0  0  0  0  0  0  0  0  0  0  0  0
   -0.4582   -8.3865    1.2105 H   0  0  0  0  0  0  0  0  0  0  0  0
   -3.6755   -5.6177    0.5387 H   0  0  0  0  0  0  0  0  0  0  0  0
   -2.5579   -4.8127   -1.5262 H   0  0  0  0  0  0  0  0  0  0  0  0
   -0.0679   -5.5553   -2.7676 S   0  0  0  0  0  0  0  0  0  0  0  0
    0.7101   -4.1725   -2.2461 O   0  0  0  0  0  0  0  0  0  0  0  0
   -1.0634   -5.0359   -3.6941 O   0  0  0  0  0  0  0  0  0  0  0  0
    0.9354   -6.5346   -3.1756 O   0  0  0  0  0  0  0  0  0  0  0  0
   -2.8216   -7.5267    2.2888 C   0  0  0  0  0  0  0  0  0  0  0  0
   -2.7460   -6.7745    3.0841 H   0  0  0  0  0  0  0  0  0  0  0  0
   -3.8876   -7.7095    2.1191 H   0  0  0  0  0  0  0  0  0  0  0  0
   -2.3737   -8.4503    2.6627 H   0  0  0  0  0  0  0  0  0  0  0  0
    5.3173   -4.3834    0.8334 O   0  0  0  0  0  0  0  0  0  0  0  0
    5.3161   -3.9930    2.1972 C   0  0  0  0  0  0  0  0  0  0  0  0
    6.3439   -4.1085    2.5446 H   0  0  0  0  0  0  0  0  0  0  0  0
    5.0105   -2.9457    2.3189 H   0  0  0  0  0  0  0  0  0  0  0  0
    4.6583   -4.6310    2.8012 H   0  0  0  0  0  0  0  0  0  0  0  0
  1  7  1  0  0  0  0
  2  8  1  0  0  0  0
  2  1  2  0  0  0  0
  3  2  1  0  0  0  0
  4  3  2  0  0  0  0
  4  5  1  0  0  0  0
  5  6  2  0  0  0  0
  6  1  1  0  0  0  0
  6 31  1  0  0  0  0
  9  4  1  0  0  0  0
 10  5  1  0  0  0  0
 12 11  3  0  0  0  0
 13 14  2  0  0  0  0
 14 15  1  0  0  0  0
 14 20  1  0  0  0  0
 15 27  1  0  0  0  0
 16 21  1  0  0  0  0
 16 15  2  0  0  0  0
 17 16  1  0  0  0  0
 18 17  2  0  0  0  0
 18 13  1  0  0  0  0
 19 13  1  0  0  0  0
 22 17  1  0  0  0  0
 23 24  1  0  0  0  0
 23 18  1  0  0  0  0
 24  3  1  0  0  0  0
 25 23  2  0  0  0  0
 26 23  2  0  0  0  0
 27 30  1  0  0  0  0
 27 28  1  0  0  0  0
 29 27  1  0  0  0  0
 31 32  1  0  0  0  0
 32 34  1  0  0  0  0
 32 33  1  0  0  0  0
 32 35  1  0  0  0  0
M  END
