Coordinates from ORCA-job 4-MeO-Ph-N2-OTs-B3LYPG-6-31G_dp-MTMO-d009-169-n800
 OpenBabel09051908173D

 35 35  0  0  0  0  0  0  0  0999 V2000
    2.8019   -3.8658    0.6074 C   0  0  0  0  0  0  0  0  0  0  0  0
    1.6588   -3.9155   -0.1954 C   0  0  0  0  0  0  0  0  0  0  0  0
    1.7553   -4.3339   -1.5178 C   0  0  0  0  0  0  0  0  0  0  0  0
    2.9871   -4.7131   -2.0604 C   0  0  0  0  0  0  0  0  0  0  0  0
    4.1217   -4.6742   -1.2617 C   0  0  0  0  0  0  0  0  0  0  0  0
    4.0390   -4.2493    0.0746 C   0  0  0  0  0  0  0  0  0  0  0  0
    2.7136   -3.5277    1.6324 H   0  0  0  0  0  0  0  0  0  0  0  0
    0.6934   -3.6172    0.1990 H   0  0  0  0  0  0  0  0  0  0  0  0
    3.0405   -5.0384   -3.0920 H   0  0  0  0  0  0  0  0  0  0  0  0
    5.0912   -4.9634   -1.6530 H   0  0  0  0  0  0  0  0  0  0  0  0
   -2.3257   -2.3862   -2.8168 N   0  0  0  0  0  0  0  0  0  0  0  0
   -1.9020   -1.7861   -3.6420 N   0  0  0  0  0  0  0  0  0  0  0  0
   -0.3257   -7.2845   -0.5426 C   0  0  0  0  0  0  0  0  0  0  0  0
   -0.9545   -7.7124    0.6266 C   0  0  0  0  0  0  0  0  0  0  0  0
   -2.1558   -7.1351    1.0573 C   0  0  0  0  0  0  0  0  0  0  0  0
   -2.7250   -6.1115    0.2811 C   0  0  0  0  0  0  0  0  0  0  0  0
   -2.1163   -5.6709   -0.8893 C   0  0  0  0  0  0  0  0  0  0  0  0
   -0.9152   -6.2653   -1.2896 C   0  0  0  0  0  0  0  0  0  0  0  0
    0.5972   -7.7386   -0.8836 H   0  0  0  0  0  0  0  0  0  0  0  0
   -0.5058   -8.5119    1.2098 H   0  0  0  0  0  0  0  0  0  0  0  0
   -3.6623   -5.6609    0.5955 H   0  0  0  0  0  0  0  0  0  0  0  0
   -2.5642   -4.8881   -1.4920 H   0  0  0  0  0  0  0  0  0  0  0  0
   -0.1276   -5.7080   -2.7892 S   0  0  0  0  0  0  0  0  0  0  0  0
    0.6057   -4.2833   -2.3173 O   0  0  0  0  0  0  0  0  0  0  0  0
   -1.1382   -5.2522   -3.7325 O   0  0  0  0  0  0  0  0  0  0  0  0
    0.9051   -6.6701   -3.1634 O   0  0  0  0  0  0  0  0  0  0  0  0
   -2.8263   -7.5907    2.3305 C   0  0  0  0  0  0  0  0  0  0  0  0
   -2.7434   -6.8264    3.1133 H   0  0  0  0  0  0  0  0  0  0  0  0
   -3.8940   -7.7755    2.1733 H   0  0  0  0  0  0  0  0  0  0  0  0
   -2.3757   -8.5090    2.7141 H   0  0  0  0  0  0  0  0  0  0  0  0
    5.2161   -4.2428    0.7640 O   0  0  0  0  0  0  0  0  0  0  0  0
    5.2015   -3.8151    2.1165 C   0  0  0  0  0  0  0  0  0  0  0  0
    6.2326   -3.8862    2.4661 H   0  0  0  0  0  0  0  0  0  0  0  0
    4.8610   -2.7757    2.2095 H   0  0  0  0  0  0  0  0  0  0  0  0
    4.5655   -4.4580    2.7384 H   0  0  0  0  0  0  0  0  0  0  0  0
  1  7  1  0  0  0  0
  2  8  1  0  0  0  0
  2  1  2  0  0  0  0
  3  2  1  0  0  0  0
  4  3  2  0  0  0  0
  4  5  1  0  0  0  0
  5  6  2  0  0  0  0
  6  1  1  0  0  0  0
  6 31  1  0  0  0  0
  9  4  1  0  0  0  0
 10  5  1  0  0  0  0
 12 11  3  0  0  0  0
 13 14  2  0  0  0  0
 14 15  1  0  0  0  0
 14 20  1  0  0  0  0
 15 27  1  0  0  0  0
 16 21  1  0  0  0  0
 16 15  2  0  0  0  0
 17 16  1  0  0  0  0
 18 17  2  0  0  0  0
 18 13  1  0  0  0  0
 19 13  1  0  0  0  0
 22 17  1  0  0  0  0
 23 24  1  0  0  0  0
 23 18  1  0  0  0  0
 24  3  1  0  0  0  0
 25 23  2  0  0  0  0
 26 23  2  0  0  0  0
 27 30  1  0  0  0  0
 27 28  1  0  0  0  0
 29 27  1  0  0  0  0
 31 32  1  0  0  0  0
 32 34  1  0  0  0  0
 32 33  1  0  0  0  0
 32 35  1  0  0  0  0
M  END
