Coordinates from ORCA-job 4-MeO-Ph-N2-OTs-B3LYPG-6-31G_dp-MTMO-d009-169-n800
 OpenBabel09051908173D

 35 35  0  0  0  0  0  0  0  0999 V2000
    3.6066   -3.9950    0.6291 C   0  0  0  0  0  0  0  0  0  0  0  0
    2.6463   -3.8897   -0.3811 C   0  0  0  0  0  0  0  0  0  0  0  0
    2.8572   -4.5084   -1.6084 C   0  0  0  0  0  0  0  0  0  0  0  0
    4.0225   -5.2431   -1.8478 C   0  0  0  0  0  0  0  0  0  0  0  0
    4.9736   -5.3557   -0.8433 C   0  0  0  0  0  0  0  0  0  0  0  0
    4.7745   -4.7326    0.3997 C   0  0  0  0  0  0  0  0  0  0  0  0
    3.4332   -3.5008    1.5772 H   0  0  0  0  0  0  0  0  0  0  0  0
    1.7382   -3.3176   -0.2229 H   0  0  0  0  0  0  0  0  0  0  0  0
    4.1667   -5.7193   -2.8099 H   0  0  0  0  0  0  0  0  0  0  0  0
    5.8884   -5.9174   -0.9989 H   0  0  0  0  0  0  0  0  0  0  0  0
  -10.3779   -8.4270    0.4544 N   0  0  0  0  0  0  0  0  0  0  0  0
  -11.3257   -8.9456    0.2212 N   0  0  0  0  0  0  0  0  0  0  0  0
   -0.1125   -6.4960   -0.6904 C   0  0  0  0  0  0  0  0  0  0  0  0
   -1.0503   -6.5045    0.3420 C   0  0  0  0  0  0  0  0  0  0  0  0
   -2.1506   -5.6373    0.3305 C   0  0  0  0  0  0  0  0  0  0  0  0
   -2.2939   -4.7499   -0.7486 C   0  0  0  0  0  0  0  0  0  0  0  0
   -1.3702   -4.7252   -1.7887 C   0  0  0  0  0  0  0  0  0  0  0  0
   -0.2830   -5.6028   -1.7479 C   0  0  0  0  0  0  0  0  0  0  0  0
    0.7310   -7.1774   -0.6879 H   0  0  0  0  0  0  0  0  0  0  0  0
   -0.9256   -7.2000    1.1679 H   0  0  0  0  0  0  0  0  0  0  0  0
   -3.1448   -4.0739   -0.7757 H   0  0  0  0  0  0  0  0  0  0  0  0
   -1.4897   -4.0504   -2.6296 H   0  0  0  0  0  0  0  0  0  0  0  0
    0.9112   -5.5649   -3.0718 S   0  0  0  0  0  0  0  0  0  0  0  0
    1.9177   -4.3079   -2.6276 O   0  0  0  0  0  0  0  0  0  0  0  0
    0.2762   -5.0635   -4.2814 O   0  0  0  0  0  0  0  0  0  0  0  0
    1.6757   -6.8089   -3.0514 O   0  0  0  0  0  0  0  0  0  0  0  0
   -3.1781   -5.6695    1.4357 C   0  0  0  0  0  0  0  0  0  0  0  0
   -3.4699   -4.6595    1.7392 H   0  0  0  0  0  0  0  0  0  0  0  0
   -4.0896   -6.1828    1.1066 H   0  0  0  0  0  0  0  0  0  0  0  0
   -2.8034   -6.1955    2.3175 H   0  0  0  0  0  0  0  0  0  0  0  0
    5.7757   -4.9027    1.3106 O   0  0  0  0  0  0  0  0  0  0  0  0
    5.6376   -4.2928    2.5838 C   0  0  0  0  0  0  0  0  0  0  0  0
    6.5394   -4.5516    3.1413 H   0  0  0  0  0  0  0  0  0  0  0  0
    5.5632   -3.2005    2.5045 H   0  0  0  0  0  0  0  0  0  0  0  0
    4.7600   -4.6734    3.1227 H   0  0  0  0  0  0  0  0  0  0  0  0
  1  7  1  0  0  0  0
  2  8  1  0  0  0  0
  2  1  2  0  0  0  0
  3  2  1  0  0  0  0
  4  3  2  0  0  0  0
  4  5  1  0  0  0  0
  5  6  2  0  0  0  0
  6  1  1  0  0  0  0
  6 31  1  0  0  0  0
  9  4  1  0  0  0  0
 10  5  1  0  0  0  0
 12 11  3  0  0  0  0
 13 19  1  0  0  0  0
 13 14  2  0  0  0  0
 14 20  1  0  0  0  0
 15 14  1  0  0  0  0
 15 27  1  0  0  0  0
 16 15  2  0  0  0  0
 17 18  2  0  0  0  0
 17 16  1  0  0  0  0
 18 13  1  0  0  0  0
 21 16  1  0  0  0  0
 22 17  1  0  0  0  0
 23 26  2  0  0  0  0
 23 24  1  0  0  0  0
 23 18  1  0  0  0  0
 24  3  1  0  0  0  0
 25 23  2  0  0  0  0
 27 28  1  0  0  0  0
 27 30  1  0  0  0  0
 29 27  1  0  0  0  0
 31 32  1  0  0  0  0
 32 35  1  0  0  0  0
 32 33  1  0  0  0  0
 34 32  1  0  0  0  0
M  END
