Coordinates from ORCA-job 4-MeO-Ph-N2-OTs-B3LYPG-6-31G_dp-MTMO-d009-169-n800
 OpenBabel09051908173D

 35 35  0  0  0  0  0  0  0  0999 V2000
    2.8605   -3.8907    0.6473 C   0  0  0  0  0  0  0  0  0  0  0  0
    1.7194   -3.9082   -0.1597 C   0  0  0  0  0  0  0  0  0  0  0  0
    1.8114   -4.3147   -1.4862 C   0  0  0  0  0  0  0  0  0  0  0  0
    3.0371   -4.7138   -2.0286 C   0  0  0  0  0  0  0  0  0  0  0  0
    4.1695   -4.7072   -1.2258 C   0  0  0  0  0  0  0  0  0  0  0  0
    4.0911   -4.2947    0.1146 C   0  0  0  0  0  0  0  0  0  0  0  0
    2.7756   -3.5613    1.6753 H   0  0  0  0  0  0  0  0  0  0  0  0
    0.7591   -3.5938    0.2347 H   0  0  0  0  0  0  0  0  0  0  0  0
    3.0874   -5.0293   -3.0635 H   0  0  0  0  0  0  0  0  0  0  0  0
    5.1340   -5.0125   -1.6170 H   0  0  0  0  0  0  0  0  0  0  0  0
   -2.8678   -2.5547   -3.0067 N   0  0  0  0  0  0  0  0  0  0  0  0
   -2.5684   -1.9840   -3.9041 N   0  0  0  0  0  0  0  0  0  0  0  0
   -0.2960   -7.2209   -0.5433 C   0  0  0  0  0  0  0  0  0  0  0  0
   -0.9300   -7.6560    0.6203 C   0  0  0  0  0  0  0  0  0  0  0  0
   -2.1400   -7.0902    1.0423 C   0  0  0  0  0  0  0  0  0  0  0  0
   -2.7126   -6.0713    0.2628 C   0  0  0  0  0  0  0  0  0  0  0  0
   -2.0985   -5.6231   -0.9021 C   0  0  0  0  0  0  0  0  0  0  0  0
   -0.8888   -6.2057   -1.2933 C   0  0  0  0  0  0  0  0  0  0  0  0
    0.6331   -7.6672   -0.8778 H   0  0  0  0  0  0  0  0  0  0  0  0
   -0.4789   -8.4524    1.2059 H   0  0  0  0  0  0  0  0  0  0  0  0
   -3.6570   -5.6304    0.5696 H   0  0  0  0  0  0  0  0  0  0  0  0
   -2.5499   -4.8458   -1.5093 H   0  0  0  0  0  0  0  0  0  0  0  0
   -0.0923   -5.6352   -2.7831 S   0  0  0  0  0  0  0  0  0  0  0  0
    0.6655   -4.2319   -2.2878 O   0  0  0  0  0  0  0  0  0  0  0  0
   -1.0958   -5.1465   -3.7177 O   0  0  0  0  0  0  0  0  0  0  0  0
    0.9240   -6.6078   -3.1746 O   0  0  0  0  0  0  0  0  0  0  0  0
   -2.8163   -7.5539    2.3096 C   0  0  0  0  0  0  0  0  0  0  0  0
   -2.7452   -6.7908    3.0946 H   0  0  0  0  0  0  0  0  0  0  0  0
   -3.8813   -7.7466    2.1441 H   0  0  0  0  0  0  0  0  0  0  0  0
   -2.3614   -8.4696    2.6945 H   0  0  0  0  0  0  0  0  0  0  0  0
    5.2656   -4.3202    0.8081 O   0  0  0  0  0  0  0  0  0  0  0  0
    5.2549   -3.9064    2.1649 C   0  0  0  0  0  0  0  0  0  0  0  0
    6.2830   -4.0023    2.5173 H   0  0  0  0  0  0  0  0  0  0  0  0
    4.9353   -2.8613    2.2677 H   0  0  0  0  0  0  0  0  0  0  0  0
    4.6037   -4.5426    2.7779 H   0  0  0  0  0  0  0  0  0  0  0  0
  1  7  1  0  0  0  0
  2  8  1  0  0  0  0
  2  1  2  0  0  0  0
  3  2  1  0  0  0  0
  4  3  2  0  0  0  0
  4  5  1  0  0  0  0
  5  6  2  0  0  0  0
  6  1  1  0  0  0  0
  6 31  1  0  0  0  0
  9  4  1  0  0  0  0
 10  5  1  0  0  0  0
 12 11  3  0  0  0  0
 13 14  2  0  0  0  0
 14 15  1  0  0  0  0
 14 20  1  0  0  0  0
 15 27  1  0  0  0  0
 16 21  1  0  0  0  0
 16 15  2  0  0  0  0
 17 16  1  0  0  0  0
 18 17  2  0  0  0  0
 18 13  1  0  0  0  0
 19 13  1  0  0  0  0
 22 17  1  0  0  0  0
 23 24  1  0  0  0  0
 23 18  1  0  0  0  0
 24  3  1  0  0  0  0
 25 23  2  0  0  0  0
 26 23  2  0  0  0  0
 27 30  1  0  0  0  0
 27 28  1  0  0  0  0
 29 27  1  0  0  0  0
 31 32  1  0  0  0  0
 32 34  1  0  0  0  0
 32 33  1  0  0  0  0
 32 35  1  0  0  0  0
M  END
