Coordinates from ORCA-job 4-MeO-Ph-N2-OTs-B3LYPG-6-31G_dp-MTMO-d009-169-n800
 OpenBabel09051908173D

 35 35  0  0  0  0  0  0  0  0999 V2000
    3.6907   -3.9475    0.6105 C   0  0  0  0  0  0  0  0  0  0  0  0
    2.7192   -3.8583   -0.3906 C   0  0  0  0  0  0  0  0  0  0  0  0
    2.9264   -4.4781   -1.6178 C   0  0  0  0  0  0  0  0  0  0  0  0
    4.0990   -5.1979   -1.8665 C   0  0  0  0  0  0  0  0  0  0  0  0
    5.0614   -5.2946   -0.8709 C   0  0  0  0  0  0  0  0  0  0  0  0
    4.8660   -4.6703    0.3720 C   0  0  0  0  0  0  0  0  0  0  0  0
    3.5199   -3.4528    1.5589 H   0  0  0  0  0  0  0  0  0  0  0  0
    1.8052   -3.2978   -0.2252 H   0  0  0  0  0  0  0  0  0  0  0  0
    4.2402   -5.6753   -2.8285 H   0  0  0  0  0  0  0  0  0  0  0  0
    5.9819   -5.8448   -1.0337 H   0  0  0  0  0  0  0  0  0  0  0  0
  -11.8893   -8.6653    0.3267 N   0  0  0  0  0  0  0  0  0  0  0  0
  -12.8385   -9.1820    0.0952 N   0  0  0  0  0  0  0  0  0  0  0  0
   -0.0043   -6.5018   -0.6621 C   0  0  0  0  0  0  0  0  0  0  0  0
   -0.9316   -6.5197    0.3798 C   0  0  0  0  0  0  0  0  0  0  0  0
   -2.0451   -5.6697    0.3753 C   0  0  0  0  0  0  0  0  0  0  0  0
   -2.2131   -4.7900   -0.7067 C   0  0  0  0  0  0  0  0  0  0  0  0
   -1.3004   -4.7560   -1.7560 C   0  0  0  0  0  0  0  0  0  0  0  0
   -0.1991   -5.6164   -1.7219 C   0  0  0  0  0  0  0  0  0  0  0  0
    0.8494   -7.1702   -0.6650 H   0  0  0  0  0  0  0  0  0  0  0  0
   -0.7880   -7.2094    1.2075 H   0  0  0  0  0  0  0  0  0  0  0  0
   -3.0750   -4.1279   -0.7288 H   0  0  0  0  0  0  0  0  0  0  0  0
   -1.4390   -4.0876   -2.5991 H   0  0  0  0  0  0  0  0  0  0  0  0
    0.9808   -5.5666   -3.0581 S   0  0  0  0  0  0  0  0  0  0  0  0
    1.9740   -4.2940   -2.6282 O   0  0  0  0  0  0  0  0  0  0  0  0
    0.3266   -5.0784   -4.2628 O   0  0  0  0  0  0  0  0  0  0  0  0
    1.7629   -6.7996   -3.0412 O   0  0  0  0  0  0  0  0  0  0  0  0
   -3.0602   -5.7099    1.4919 C   0  0  0  0  0  0  0  0  0  0  0  0
   -3.3278   -4.7019    1.8239 H   0  0  0  0  0  0  0  0  0  0  0  0
   -3.9859   -6.1956    1.1610 H   0  0  0  0  0  0  0  0  0  0  0  0
   -2.6856   -6.2648    2.3557 H   0  0  0  0  0  0  0  0  0  0  0  0
    5.8781   -4.8244    1.2736 O   0  0  0  0  0  0  0  0  0  0  0  0
    5.7443   -4.2125    2.5464 C   0  0  0  0  0  0  0  0  0  0  0  0
    6.6544   -4.4584    3.0961 H   0  0  0  0  0  0  0  0  0  0  0  0
    5.6555   -3.1214    2.4647 H   0  0  0  0  0  0  0  0  0  0  0  0
    4.8766   -4.6024    3.0946 H   0  0  0  0  0  0  0  0  0  0  0  0
  1  7  1  0  0  0  0
  2  8  1  0  0  0  0
  2  1  2  0  0  0  0
  3  2  1  0  0  0  0
  4  3  2  0  0  0  0
  4  5  1  0  0  0  0
  5  6  2  0  0  0  0
  6  1  1  0  0  0  0
  6 31  1  0  0  0  0
  9  4  1  0  0  0  0
 10  5  1  0  0  0  0
 12 11  3  0  0  0  0
 13 14  2  0  0  0  0
 14 20  1  0  0  0  0
 15 14  1  0  0  0  0
 15 27  1  0  0  0  0
 16 15  2  0  0  0  0
 17 18  2  0  0  0  0
 17 16  1  0  0  0  0
 18 13  1  0  0  0  0
 19 13  1  0  0  0  0
 21 16  1  0  0  0  0
 22 17  1  0  0  0  0
 23 26  2  0  0  0  0
 23 24  1  0  0  0  0
 23 18  1  0  0  0  0
 24  3  1  0  0  0  0
 25 23  2  0  0  0  0
 27 28  1  0  0  0  0
 27 30  1  0  0  0  0
 29 27  1  0  0  0  0
 31 32  1  0  0  0  0
 32 35  1  0  0  0  0
 32 33  1  0  0  0  0
 34 32  1  0  0  0  0
M  END
