Coordinates from ORCA-job 4-MeO-Ph-N2-OTs-B3LYPG-6-31G_dp-MTMO-d009-169-n800
 OpenBabel09051908173D

 35 35  0  0  0  0  0  0  0  0999 V2000
    3.2642   -3.9567    0.6801 C   0  0  0  0  0  0  0  0  0  0  0  0
    2.3077   -3.9150   -0.3382 C   0  0  0  0  0  0  0  0  0  0  0  0
    2.5846   -4.4840   -1.5764 C   0  0  0  0  0  0  0  0  0  0  0  0
    3.8141   -5.1043   -1.8192 C   0  0  0  0  0  0  0  0  0  0  0  0
    4.7618   -5.1548   -0.8063 C   0  0  0  0  0  0  0  0  0  0  0  0
    4.4956   -4.5817    0.4481 C   0  0  0  0  0  0  0  0  0  0  0  0
    3.0379   -3.5022    1.6369 H   0  0  0  0  0  0  0  0  0  0  0  0
    1.3506   -3.4305   -0.1777 H   0  0  0  0  0  0  0  0  0  0  0  0
    4.0100   -5.5430   -2.7899 H   0  0  0  0  0  0  0  0  0  0  0  0
    5.7244   -5.6291   -0.9639 H   0  0  0  0  0  0  0  0  0  0  0  0
   -7.0224   -5.5412    0.2235 N   0  0  0  0  0  0  0  0  0  0  0  0
   -8.1225   -5.5457    0.1177 N   0  0  0  0  0  0  0  0  0  0  0  0
   -0.1242   -6.8003   -0.7363 C   0  0  0  0  0  0  0  0  0  0  0  0
   -1.0548   -6.9646    0.2882 C   0  0  0  0  0  0  0  0  0  0  0  0
   -2.2628   -6.2522    0.2944 C   0  0  0  0  0  0  0  0  0  0  0  0
   -2.5240   -5.3672   -0.7631 C   0  0  0  0  0  0  0  0  0  0  0  0
   -1.6071   -5.1868   -1.7958 C   0  0  0  0  0  0  0  0  0  0  0  0
   -0.4107   -5.9074   -1.7706 C   0  0  0  0  0  0  0  0  0  0  0  0
    0.8001   -7.3662   -0.7508 H   0  0  0  0  0  0  0  0  0  0  0  0
   -0.8422   -7.6650    1.0919 H   0  0  0  0  0  0  0  0  0  0  0  0
   -3.4634   -4.8218   -0.7824 H   0  0  0  0  0  0  0  0  0  0  0  0
   -1.8182   -4.5171   -2.6225 H   0  0  0  0  0  0  0  0  0  0  0  0
    0.7650   -5.6844   -3.0922 S   0  0  0  0  0  0  0  0  0  0  0  0
    1.6379   -4.3469   -2.5995 O   0  0  0  0  0  0  0  0  0  0  0  0
    0.0740   -5.2038   -4.2793 O   0  0  0  0  0  0  0  0  0  0  0  0
    1.6580   -6.8395   -3.1251 O   0  0  0  0  0  0  0  0  0  0  0  0
   -3.2538   -6.4222    1.4201 C   0  0  0  0  0  0  0  0  0  0  0  0
   -3.0355   -5.7269    2.2404 H   0  0  0  0  0  0  0  0  0  0  0  0
   -4.2763   -6.2231    1.0875 H   0  0  0  0  0  0  0  0  0  0  0  0
   -3.2177   -7.4340    1.8342 H   0  0  0  0  0  0  0  0  0  0  0  0
    5.4986   -4.6841    1.3670 O   0  0  0  0  0  0  0  0  0  0  0  0
    5.2951   -4.1165    2.6511 C   0  0  0  0  0  0  0  0  0  0  0  0
    6.2091   -4.3111    3.2148 H   0  0  0  0  0  0  0  0  0  0  0  0
    5.1303   -3.0328    2.5939 H   0  0  0  0  0  0  0  0  0  0  0  0
    4.4465   -4.5809    3.1700 H   0  0  0  0  0  0  0  0  0  0  0  0
  1  7  1  0  0  0  0
  2  8  1  0  0  0  0
  2  1  2  0  0  0  0
  3  2  1  0  0  0  0
  4  3  2  0  0  0  0
  4  5  1  0  0  0  0
  5  6  2  0  0  0  0
  6  1  1  0  0  0  0
  6 31  1  0  0  0  0
  9  4  1  0  0  0  0
 10  5  1  0  0  0  0
 12 11  3  0  0  0  0
 13 14  2  0  0  0  0
 14 15  1  0  0  0  0
 14 20  1  0  0  0  0
 15 27  1  0  0  0  0
 16 15  2  0  0  0  0
 17 18  2  0  0  0  0
 17 16  1  0  0  0  0
 18 13  1  0  0  0  0
 19 13  1  0  0  0  0
 21 16  1  0  0  0  0
 22 17  1  0  0  0  0
 23 24  1  0  0  0  0
 23 18  1  0  0  0  0
 24  3  1  0  0  0  0
 25 23  2  0  0  0  0
 26 23  2  0  0  0  0
 27 30  1  0  0  0  0
 27 28  1  0  0  0  0
 29 27  1  0  0  0  0
 31 32  1  0  0  0  0
 32 35  1  0  0  0  0
 32 33  1  0  0  0  0
 34 32  1  0  0  0  0
M  END
