Coordinates from ORCA-job 4-MeO-Ph-N2-OTs-B3LYPG-6-31G_dp-MTMO-d009-169-n800
 OpenBabel09051908173D

 35 35  0  0  0  0  0  0  0  0999 V2000
    3.0986   -3.9951    0.8263 C   0  0  0  0  0  0  0  0  0  0  0  0
    1.9419   -3.8600    0.0535 C   0  0  0  0  0  0  0  0  0  0  0  0
    1.9786   -4.1380   -1.3085 C   0  0  0  0  0  0  0  0  0  0  0  0
    3.1639   -4.5570   -1.9212 C   0  0  0  0  0  0  0  0  0  0  0  0
    4.3110   -4.7023   -1.1530 C   0  0  0  0  0  0  0  0  0  0  0  0
    4.2884   -4.4213    0.2230 C   0  0  0  0  0  0  0  0  0  0  0  0
    3.0577   -3.7636    1.8837 H   0  0  0  0  0  0  0  0  0  0  0  0
    1.0130   -3.5252    0.5026 H   0  0  0  0  0  0  0  0  0  0  0  0
    3.1721   -4.7705   -2.9831 H   0  0  0  0  0  0  0  0  0  0  0  0
    5.2450   -5.0271   -1.5988 H   0  0  0  0  0  0  0  0  0  0  0  0
   -4.4141   -3.8684   -3.8030 N   0  0  0  0  0  0  0  0  0  0  0  0
   -4.3445   -3.6777   -4.8892 N   0  0  0  0  0  0  0  0  0  0  0  0
   -0.2521   -6.8897   -0.5352 C   0  0  0  0  0  0  0  0  0  0  0  0
   -0.9098   -7.4012    0.5821 C   0  0  0  0  0  0  0  0  0  0  0  0
   -2.1590   -6.9047    0.9803 C   0  0  0  0  0  0  0  0  0  0  0  0
   -2.7460   -5.8799    0.2218 C   0  0  0  0  0  0  0  0  0  0  0  0
   -2.1060   -5.3528   -0.8966 C   0  0  0  0  0  0  0  0  0  0  0  0
   -0.8585   -5.8646   -1.2633 C   0  0  0  0  0  0  0  0  0  0  0  0
    0.7039   -7.2880   -0.8537 H   0  0  0  0  0  0  0  0  0  0  0  0
   -0.4485   -8.2056    1.1487 H   0  0  0  0  0  0  0  0  0  0  0  0
   -3.7221   -5.4966    0.5054 H   0  0  0  0  0  0  0  0  0  0  0  0
   -2.5716   -4.5764   -1.4940 H   0  0  0  0  0  0  0  0  0  0  0  0
   -0.0313   -5.1938   -2.6925 S   0  0  0  0  0  0  0  0  0  0  0  0
    0.8221   -3.9022   -2.0643 O   0  0  0  0  0  0  0  0  0  0  0  0
   -1.0072   -4.5505   -3.5598 O   0  0  0  0  0  0  0  0  0  0  0  0
    0.9196   -6.1833   -3.1922 O   0  0  0  0  0  0  0  0  0  0  0  0
   -2.8523   -7.4484    2.2060 C   0  0  0  0  0  0  0  0  0  0  0  0
   -2.6359   -6.8279    3.0846 H   0  0  0  0  0  0  0  0  0  0  0  0
   -3.9391   -7.4620    2.0782 H   0  0  0  0  0  0  0  0  0  0  0  0
   -2.5218   -8.4650    2.4344 H   0  0  0  0  0  0  0  0  0  0  0  0
    5.4725   -4.5902    0.8788 O   0  0  0  0  0  0  0  0  0  0  0  0
    5.5159   -4.3139    2.2695 C   0  0  0  0  0  0  0  0  0  0  0  0
    6.5422   -4.5093    2.5837 H   0  0  0  0  0  0  0  0  0  0  0  0
    5.2669   -3.2662    2.4825 H   0  0  0  0  0  0  0  0  0  0  0  0
    4.8365   -4.9653    2.8338 H   0  0  0  0  0  0  0  0  0  0  0  0
  1  7  1  0  0  0  0
  2  8  1  0  0  0  0
  2  1  2  0  0  0  0
  3  2  1  0  0  0  0
  4  3  2  0  0  0  0
  4  5  1  0  0  0  0
  5  6  2  0  0  0  0
  6  1  1  0  0  0  0
  6 31  1  0  0  0  0
  9  4  1  0  0  0  0
 10  5  1  0  0  0  0
 12 11  3  0  0  0  0
 13 14  2  0  0  0  0
 14 15  1  0  0  0  0
 14 20  1  0  0  0  0
 15 27  1  0  0  0  0
 16 21  1  0  0  0  0
 16 15  2  0  0  0  0
 17 16  1  0  0  0  0
 18 17  2  0  0  0  0
 18 13  1  0  0  0  0
 19 13  1  0  0  0  0
 22 17  1  0  0  0  0
 23 24  1  0  0  0  0
 23 18  1  0  0  0  0
 24  3  1  0  0  0  0
 25 23  2  0  0  0  0
 26 23  2  0  0  0  0
 27 30  1  0  0  0  0
 27 28  1  0  0  0  0
 29 27  1  0  0  0  0
 31 32  1  0  0  0  0
 32 34  1  0  0  0  0
 32 33  1  0  0  0  0
 32 35  1  0  0  0  0
M  END
