Coordinates from ORCA-job 4-MeO-Ph-N2-OTs-B3LYPG-6-31G_dp-MTMO-d009-169-n800
 OpenBabel09051908173D

 35 35  0  0  0  0  0  0  0  0999 V2000
    3.7291   -3.9180    0.5994 C   0  0  0  0  0  0  0  0  0  0  0  0
    2.7513   -3.8397   -0.3964 C   0  0  0  0  0  0  0  0  0  0  0  0
    2.9574   -4.4597   -1.6238 C   0  0  0  0  0  0  0  0  0  0  0  0
    4.1354   -5.1688   -1.8778 C   0  0  0  0  0  0  0  0  0  0  0  0
    5.1041   -5.2548   -0.8874 C   0  0  0  0  0  0  0  0  0  0  0  0
    4.9097   -4.6303    0.3556 C   0  0  0  0  0  0  0  0  0  0  0  0
    3.5590   -3.4234    1.5479 H   0  0  0  0  0  0  0  0  0  0  0  0
    1.8329   -3.2876   -0.2269 H   0  0  0  0  0  0  0  0  0  0  0  0
    4.2757   -5.6465   -2.8397 H   0  0  0  0  0  0  0  0  0  0  0  0
    6.0288   -5.7968   -1.0543 H   0  0  0  0  0  0  0  0  0  0  0  0
  -12.6581   -8.7385    0.2505 N   0  0  0  0  0  0  0  0  0  0  0  0
  -13.6067   -9.2563    0.0187 N   0  0  0  0  0  0  0  0  0  0  0  0
    0.0572   -6.5113   -0.6466 C   0  0  0  0  0  0  0  0  0  0  0  0
   -0.8630   -6.5382    0.4015 C   0  0  0  0  0  0  0  0  0  0  0  0
   -1.9869   -5.7020    0.4026 C   0  0  0  0  0  0  0  0  0  0  0  0
   -2.1730   -4.8272   -0.6805 C   0  0  0  0  0  0  0  0  0  0  0  0
   -1.2677   -4.7843   -1.7358 C   0  0  0  0  0  0  0  0  0  0  0  0
   -0.1556   -5.6310   -1.7070 C   0  0  0  0  0  0  0  0  0  0  0  0
    0.9189   -7.1692   -0.6536 H   0  0  0  0  0  0  0  0  0  0  0  0
   -0.7055   -7.2242    1.2298 H   0  0  0  0  0  0  0  0  0  0  0  0
   -3.0434   -4.1762   -0.6987 H   0  0  0  0  0  0  0  0  0  0  0  0
   -1.4203   -4.1200   -2.5797 H   0  0  0  0  0  0  0  0  0  0  0  0
    1.0148   -5.5699   -3.0512 S   0  0  0  0  0  0  0  0  0  0  0  0
    1.9974   -4.2867   -2.6289 O   0  0  0  0  0  0  0  0  0  0  0  0
    0.3474   -5.0897   -4.2519 O   0  0  0  0  0  0  0  0  0  0  0  0
    1.8099   -6.7946   -3.0386 O   0  0  0  0  0  0  0  0  0  0  0  0
   -2.9932   -5.7502    1.5267 C   0  0  0  0  0  0  0  0  0  0  0  0
   -3.2458   -4.7448    1.8785 H   0  0  0  0  0  0  0  0  0  0  0  0
   -3.9276   -6.2184    1.1952 H   0  0  0  0  0  0  0  0  0  0  0  0
   -2.6181   -6.3243    2.3777 H   0  0  0  0  0  0  0  0  0  0  0  0
    5.9281   -4.7737    1.2519 O   0  0  0  0  0  0  0  0  0  0  0  0
    5.7956   -4.1609    2.5244 C   0  0  0  0  0  0  0  0  0  0  0  0
    6.7107   -4.3981    3.0697 H   0  0  0  0  0  0  0  0  0  0  0  0
    5.6970   -3.0707    2.4415 H   0  0  0  0  0  0  0  0  0  0  0  0
    4.9342   -4.5573    3.0778 H   0  0  0  0  0  0  0  0  0  0  0  0
  1  7  1  0  0  0  0
  2  8  1  0  0  0  0
  2  1  2  0  0  0  0
  3  2  1  0  0  0  0
  4  3  2  0  0  0  0
  4  5  1  0  0  0  0
  5  6  2  0  0  0  0
  6  1  1  0  0  0  0
  6 31  1  0  0  0  0
  9  4  1  0  0  0  0
 10  5  1  0  0  0  0
 12 11  3  0  0  0  0
 13 14  2  0  0  0  0
 14 15  1  0  0  0  0
 14 20  1  0  0  0  0
 15 27  1  0  0  0  0
 16 15  2  0  0  0  0
 17 18  2  0  0  0  0
 17 16  1  0  0  0  0
 18 13  1  0  0  0  0
 19 13  1  0  0  0  0
 21 16  1  0  0  0  0
 22 17  1  0  0  0  0
 23 26  2  0  0  0  0
 23 24  1  0  0  0  0
 23 18  1  0  0  0  0
 24  3  1  0  0  0  0
 25 23  2  0  0  0  0
 27 28  1  0  0  0  0
 27 30  1  0  0  0  0
 29 27  1  0  0  0  0
 31 32  1  0  0  0  0
 32 33  1  0  0  0  0
 32 35  1  0  0  0  0
 34 32  1  0  0  0  0
M  END
