Coordinates from ORCA-job 4-MeO-Ph-N2-OTs-B3LYPG-6-31G_dp-MTMO-d009-169-n800
 OpenBabel09051908173D

 35 35  0  0  0  0  0  0  0  0999 V2000
    4.3398   -2.0753   -0.3014 C   0  0  0  0  0  0  0  0  0  0  0  0
    3.0561   -2.0447   -0.8606 C   0  0  0  0  0  0  0  0  0  0  0  0
    2.4290   -3.2630   -0.9108 C   0  0  0  0  0  0  0  0  0  0  0  0
    2.8539   -4.4995   -0.5059 C   0  0  0  0  0  0  0  0  0  0  0  0
    4.1394   -4.4884    0.0352 C   0  0  0  0  0  0  0  0  0  0  0  0
    4.8791   -3.2945    0.1459 C   0  0  0  0  0  0  0  0  0  0  0  0
    4.8947   -1.1486   -0.2265 H   0  0  0  0  0  0  0  0  0  0  0  0
    2.6070   -1.1278   -1.2196 H   0  0  0  0  0  0  0  0  0  0  0  0
    2.2591   -5.4117   -0.6113 H   0  0  0  0  0  0  0  0  0  0  0  0
    4.5881   -5.4122    0.3831 H   0  0  0  0  0  0  0  0  0  0  0  0
    0.7956   -3.1680   -1.6638 N   0  0  0  0  0  0  0  0  0  0  0  0
    0.1482   -2.5794   -2.3553 N   0  0  0  0  0  0  0  0  0  0  0  0
   -1.4181   -7.7538    0.4179 C   0  0  0  0  0  0  0  0  0  0  0  0
   -2.5161   -8.4092    0.9698 C   0  0  0  0  0  0  0  0  0  0  0  0
   -3.8013   -8.2525    0.4295 C   0  0  0  0  0  0  0  0  0  0  0  0
   -3.9555   -7.4274   -0.6930 C   0  0  0  0  0  0  0  0  0  0  0  0
   -2.8660   -6.7641   -1.2561 C   0  0  0  0  0  0  0  0  0  0  0  0
   -1.6004   -6.9287   -0.6935 C   0  0  0  0  0  0  0  0  0  0  0  0
   -0.4217   -7.8904    0.8236 H   0  0  0  0  0  0  0  0  0  0  0  0
   -2.3741   -9.0578    1.8311 H   0  0  0  0  0  0  0  0  0  0  0  0
   -4.9411   -7.3081   -1.1362 H   0  0  0  0  0  0  0  0  0  0  0  0
   -2.9818   -6.1405   -2.1358 H   0  0  0  0  0  0  0  0  0  0  0  0
   -0.2010   -6.0463   -1.3911 S   0  0  0  0  0  0  0  0  0  0  0  0
   -0.1450   -4.7628   -0.5521 O   0  0  0  0  0  0  0  0  0  0  0  0
   -0.5044   -5.7600   -2.8065 O   0  0  0  0  0  0  0  0  0  0  0  0
    1.0019   -6.8826   -1.1294 O   0  0  0  0  0  0  0  0  0  0  0  0
   -4.9897   -8.9440    1.0553 C   0  0  0  0  0  0  0  0  0  0  0  0
   -5.8132   -9.0490    0.3428 H   0  0  0  0  0  0  0  0  0  0  0  0
   -4.7263   -9.9419    1.4187 H   0  0  0  0  0  0  0  0  0  0  0  0
   -5.3691   -8.3769    1.9144 H   0  0  0  0  0  0  0  0  0  0  0  0
    6.1072   -3.4248    0.6980 O   0  0  0  0  0  0  0  0  0  0  0  0
    6.9200   -2.2660    0.8520 C   0  0  0  0  0  0  0  0  0  0  0  0
    7.8454   -2.6114    1.3126 H   0  0  0  0  0  0  0  0  0  0  0  0
    7.1477   -1.8053   -0.1166 H   0  0  0  0  0  0  0  0  0  0  0  0
    6.4422   -1.5266    1.5065 H   0  0  0  0  0  0  0  0  0  0  0  0
  1  7  1  0  0  0  0
  1  6  2  0  0  0  0
  2  1  1  0  0  0  0
  3  2  2  0  0  0  0
  3  4  1  0  0  0  0
  4  5  2  0  0  0  0
  5  6  1  0  0  0  0
  5 10  1  0  0  0  0
  6 31  1  0  0  0  0
  8  2  1  0  0  0  0
  9  4  1  0  0  0  0
 11  3  1  0  0  0  0
 12 11  2  0  0  0  0
 13 19  1  0  0  0  0
 13 14  2  0  0  0  0
 14 20  1  0  0  0  0
 15 14  1  0  0  0  0
 15 27  1  0  0  0  0
 16 15  2  0  0  0  0
 17 18  2  0  0  0  0
 17 16  1  0  0  0  0
 18 13  1  0  0  0  0
 21 16  1  0  0  0  0
 22 17  1  0  0  0  0
 23 26  2  0  0  0  0
 23 18  1  0  0  0  0
 23 24  1  0  0  0  0
 25 23  2  0  0  0  0
 27 29  1  0  0  0  0
 27 30  1  0  0  0  0
 28 27  1  0  0  0  0
 31 32  1  0  0  0  0
 32 33  1  0  0  0  0
 32 35  1  0  0  0  0
 34 32  1  0  0  0  0
M  RAD  2  12   2  24   2
M  END
