Coordinates from ORCA-job 4-MeO-Ph-N2-OTs-B3LYPG-6-31G_dp-MTMO-d009-169-n800
 OpenBabel09051908173D

 35 35  0  0  0  0  0  0  0  0999 V2000
    3.4170   -4.0647    0.6908 C   0  0  0  0  0  0  0  0  0  0  0  0
    2.4706   -3.9409   -0.3304 C   0  0  0  0  0  0  0  0  0  0  0  0
    2.7007   -4.5329   -1.5674 C   0  0  0  0  0  0  0  0  0  0  0  0
    3.8715   -5.2591   -1.8058 C   0  0  0  0  0  0  0  0  0  0  0  0
    4.8088   -5.3900   -0.7905 C   0  0  0  0  0  0  0  0  0  0  0  0
    4.5903   -4.7940    0.4625 C   0  0  0  0  0  0  0  0  0  0  0  0
    3.2286   -3.5909    1.6464 H   0  0  0  0  0  0  0  0  0  0  0  0
    1.5587   -3.3748   -0.1730 H   0  0  0  0  0  0  0  0  0  0  0  0
    4.0308   -5.7147   -2.7755 H   0  0  0  0  0  0  0  0  0  0  0  0
    5.7275   -5.9458   -0.9450 H   0  0  0  0  0  0  0  0  0  0  0  0
   -7.2237   -7.5267    0.6087 N   0  0  0  0  0  0  0  0  0  0  0  0
   -8.1950   -8.0175    0.4161 N   0  0  0  0  0  0  0  0  0  0  0  0
   -0.3021   -6.5362   -0.7448 C   0  0  0  0  0  0  0  0  0  0  0  0
   -1.2693   -6.5686    0.2593 C   0  0  0  0  0  0  0  0  0  0  0  0
   -2.3764   -5.7099    0.2299 C   0  0  0  0  0  0  0  0  0  0  0  0
   -2.4944   -4.8057   -0.8381 C   0  0  0  0  0  0  0  0  0  0  0  0
   -1.5409   -4.7568   -1.8502 C   0  0  0  0  0  0  0  0  0  0  0  0
   -0.4485   -5.6267   -1.7923 C   0  0  0  0  0  0  0  0  0  0  0  0
    0.5460   -7.2117   -0.7290 H   0  0  0  0  0  0  0  0  0  0  0  0
   -1.1628   -7.2766    1.0771 H   0  0  0  0  0  0  0  0  0  0  0  0
   -3.3492   -4.1353   -0.8788 H   0  0  0  0  0  0  0  0  0  0  0  0
   -1.6413   -4.0689   -2.6831 H   0  0  0  0  0  0  0  0  0  0  0  0
    0.7797   -5.5634   -3.0839 S   0  0  0  0  0  0  0  0  0  0  0  0
    1.7748   -4.3132   -2.5951 O   0  0  0  0  0  0  0  0  0  0  0  0
    0.1739   -5.0419   -4.3000 O   0  0  0  0  0  0  0  0  0  0  0  0
    1.5453   -6.8068   -3.0657 O   0  0  0  0  0  0  0  0  0  0  0  0
   -3.4350   -5.7699    1.3041 C   0  0  0  0  0  0  0  0  0  0  0  0
   -3.7791   -4.7689    1.5812 H   0  0  0  0  0  0  0  0  0  0  0  0
   -4.3135   -6.3295    0.9605 H   0  0  0  0  0  0  0  0  0  0  0  0
   -3.0631   -6.2636    2.2058 H   0  0  0  0  0  0  0  0  0  0  0  0
    5.5792   -4.9805    1.3836 O   0  0  0  0  0  0  0  0  0  0  0  0
    5.4215   -4.3972    2.6670 C   0  0  0  0  0  0  0  0  0  0  0  0
    6.3161   -4.6652    3.2317 H   0  0  0  0  0  0  0  0  0  0  0  0
    5.3452   -3.3037    2.6090 H   0  0  0  0  0  0  0  0  0  0  0  0
    4.5375   -4.7909    3.1856 H   0  0  0  0  0  0  0  0  0  0  0  0
  1  7  1  0  0  0  0
  2  8  1  0  0  0  0
  2  1  2  0  0  0  0
  3  2  1  0  0  0  0
  4  3  2  0  0  0  0
  4  5  1  0  0  0  0
  5  6  2  0  0  0  0
  6  1  1  0  0  0  0
  6 31  1  0  0  0  0
  9  4  1  0  0  0  0
 10  5  1  0  0  0  0
 12 11  3  0  0  0  0
 13 19  1  0  0  0  0
 13 14  2  0  0  0  0
 14 20  1  0  0  0  0
 15 14  1  0  0  0  0
 15 27  1  0  0  0  0
 16 15  2  0  0  0  0
 17 18  2  0  0  0  0
 17 16  1  0  0  0  0
 18 13  1  0  0  0  0
 21 16  1  0  0  0  0
 22 17  1  0  0  0  0
 23 26  2  0  0  0  0
 23 24  1  0  0  0  0
 23 18  1  0  0  0  0
 24  3  1  0  0  0  0
 25 23  2  0  0  0  0
 27 28  1  0  0  0  0
 27 30  1  0  0  0  0
 29 27  1  0  0  0  0
 31 32  1  0  0  0  0
 32 35  1  0  0  0  0
 32 33  1  0  0  0  0
 34 32  1  0  0  0  0
M  END
