Coordinates from ORCA-job 4-MeO-Ph-N2-OTs-B3LYPG-6-31G_dp-MTMO-d009-169-n800
 OpenBabel09051908173D

 35 34  0  0  0  0  0  0  0  0999 V2000
    3.9911   -2.8496    0.4195 C   0  0  0  0  0  0  0  0  0  0  0  0
    2.7378   -2.3938   -0.0501 C   0  0  0  0  0  0  0  0  0  0  0  0
    2.1509   -3.4232   -0.7307 C   0  0  0  0  0  0  0  0  0  0  0  0
    2.4648   -4.6065   -1.0227 C   0  0  0  0  0  0  0  0  0  0  0  0
    3.6932   -5.0997   -0.5814 C   0  0  0  0  0  0  0  0  0  0  0  0
    4.4572   -4.1634    0.1624 C   0  0  0  0  0  0  0  0  0  0  0  0
    4.5985   -2.1570    0.9904 H   0  0  0  0  0  0  0  0  0  0  0  0
    2.3537   -1.3981    0.1259 H   0  0  0  0  0  0  0  0  0  0  0  0
    1.1091   -5.4362   -2.2090 H   0  0  0  0  0  0  0  0  0  0  0  0
    4.0861   -6.0941   -0.7630 H   0  0  0  0  0  0  0  0  0  0  0  0
   -0.0954   -0.9645   -1.5223 N   0  0  0  0  0  0  0  0  0  0  0  0
   -0.9055   -0.6669   -2.2120 N   0  0  0  0  0  0  0  0  0  0  0  0
   -1.6741   -5.8470    0.0313 C   0  0  0  0  0  0  0  0  0  0  0  0
   -2.2058   -6.6375    1.0490 C   0  0  0  0  0  0  0  0  0  0  0  0
   -2.7660   -7.8930    0.7754 C   0  0  0  0  0  0  0  0  0  0  0  0
   -2.7925   -8.3374   -0.5553 C   0  0  0  0  0  0  0  0  0  0  0  0
   -2.2689   -7.5610   -1.5857 C   0  0  0  0  0  0  0  0  0  0  0  0
   -1.7072   -6.3194   -1.2809 C   0  0  0  0  0  0  0  0  0  0  0  0
   -1.2540   -4.8703    0.2426 H   0  0  0  0  0  0  0  0  0  0  0  0
   -2.1910   -6.2697    2.0717 H   0  0  0  0  0  0  0  0  0  0  0  0
   -3.2353   -9.3017   -0.7883 H   0  0  0  0  0  0  0  0  0  0  0  0
   -2.3076   -7.8984   -2.6157 H   0  0  0  0  0  0  0  0  0  0  0  0
   -1.0203   -5.3250   -2.5969 S   0  0  0  0  0  0  0  0  0  0  0  0
   -0.8924   -3.9465   -2.1163 O   0  0  0  0  0  0  0  0  0  0  0  0
   -1.7267   -5.6402   -3.8303 O   0  0  0  0  0  0  0  0  0  0  0  0
    0.4727   -5.9404   -2.7784 O   0  0  0  0  0  0  0  0  0  0  0  0
   -3.3120   -8.7562    1.8869 C   0  0  0  0  0  0  0  0  0  0  0  0
   -4.1580   -9.3604    1.5460 H   0  0  0  0  0  0  0  0  0  0  0  0
   -2.5458   -9.4493    2.2562 H   0  0  0  0  0  0  0  0  0  0  0  0
   -3.6440   -8.1536    2.7369 H   0  0  0  0  0  0  0  0  0  0  0  0
    5.6599   -4.6338    0.5983 O   0  0  0  0  0  0  0  0  0  0  0  0
    6.5116   -3.7689    1.3343 C   0  0  0  0  0  0  0  0  0  0  0  0
    7.4021   -4.3529    1.5701 H   0  0  0  0  0  0  0  0  0  0  0  0
    6.8027   -2.8905    0.7443 H   0  0  0  0  0  0  0  0  0  0  0  0
    6.0410   -3.4371    2.2687 H   0  0  0  0  0  0  0  0  0  0  0  0
  1  7  1  0  0  0  0
  2  8  1  0  0  0  0
  2  1  2  0  0  0  0
  3  2  1  0  0  0  0
  4  3  2  0  0  0  0
  4  5  1  0  0  0  0
  5  6  2  0  0  0  0
  6  1  1  0  0  0  0
  6 31  1  0  0  0  0
 10  5  1  0  0  0  0
 12 11  3  0  0  0  0
 13 19  1  0  0  0  0
 13 14  2  0  0  0  0
 14 20  1  0  0  0  0
 15 14  1  0  0  0  0
 15 27  1  0  0  0  0
 16 15  2  0  0  0  0
 17 18  2  0  0  0  0
 17 16  1  0  0  0  0
 18 13  1  0  0  0  0
 21 16  1  0  0  0  0
 22 17  1  0  0  0  0
 23 24  2  0  0  0  0
 23 18  1  0  0  0  0
 25 23  2  0  0  0  0
 26 23  1  0  0  0  0
 26  9  1  0  0  0  0
 27 29  1  0  0  0  0
 27 30  1  0  0  0  0
 28 27  1  0  0  0  0
 31 32  1  0  0  0  0
 32 33  1  0  0  0  0
 32 35  1  0  0  0  0
 34 32  1  0  0  0  0
M  RAD  2   3   2   4   2
M  END
