Coordinates from ORCA-job 4-MeO-Ph-N2-OTs-B3LYPG-6-31G_dp-MTMO-d009-169-n800
 OpenBabel09051908173D

 35 35  0  0  0  0  0  0  0  0999 V2000
    3.6917   -3.9470    0.6105 C   0  0  0  0  0  0  0  0  0  0  0  0
    2.7202   -3.8579   -0.3906 C   0  0  0  0  0  0  0  0  0  0  0  0
    2.9274   -4.4777   -1.6178 C   0  0  0  0  0  0  0  0  0  0  0  0
    4.1002   -5.1973   -1.8665 C   0  0  0  0  0  0  0  0  0  0  0  0
    5.0625   -5.2939   -0.8709 C   0  0  0  0  0  0  0  0  0  0  0  0
    4.8670   -4.6696    0.3721 C   0  0  0  0  0  0  0  0  0  0  0  0
    3.5208   -3.4523    1.5589 H   0  0  0  0  0  0  0  0  0  0  0  0
    1.8061   -3.2975   -0.2252 H   0  0  0  0  0  0  0  0  0  0  0  0
    4.2415   -5.6746   -2.8285 H   0  0  0  0  0  0  0  0  0  0  0  0
    5.9831   -5.8439   -1.0337 H   0  0  0  0  0  0  0  0  0  0  0  0
  -11.9079   -8.6687    0.3278 N   0  0  0  0  0  0  0  0  0  0  0  0
  -12.8573   -9.1852    0.0963 N   0  0  0  0  0  0  0  0  0  0  0  0
   -0.0029   -6.5017   -0.6623 C   0  0  0  0  0  0  0  0  0  0  0  0
   -0.9302   -6.5199    0.3796 C   0  0  0  0  0  0  0  0  0  0  0  0
   -2.0439   -5.6700    0.3752 C   0  0  0  0  0  0  0  0  0  0  0  0
   -2.2120   -4.7903   -0.7068 C   0  0  0  0  0  0  0  0  0  0  0  0
   -1.2993   -4.7561   -1.7561 C   0  0  0  0  0  0  0  0  0  0  0  0
   -0.1979   -5.6164   -1.7220 C   0  0  0  0  0  0  0  0  0  0  0  0
    0.8509   -7.1700   -0.6651 H   0  0  0  0  0  0  0  0  0  0  0  0
   -0.7865   -7.2095    1.2073 H   0  0  0  0  0  0  0  0  0  0  0  0
   -3.0740   -4.1284   -0.7289 H   0  0  0  0  0  0  0  0  0  0  0  0
   -1.4380   -4.0877   -2.5992 H   0  0  0  0  0  0  0  0  0  0  0  0
    0.9821   -5.5663   -3.0582 S   0  0  0  0  0  0  0  0  0  0  0  0
    1.9751   -4.2936   -2.6282 O   0  0  0  0  0  0  0  0  0  0  0  0
    0.3278   -5.0781   -4.2629 O   0  0  0  0  0  0  0  0  0  0  0  0
    1.7643   -6.7992   -3.0414 O   0  0  0  0  0  0  0  0  0  0  0  0
   -3.0590   -5.7104    1.4917 C   0  0  0  0  0  0  0  0  0  0  0  0
   -3.3268   -4.7025    1.8237 H   0  0  0  0  0  0  0  0  0  0  0  0
   -3.9847   -6.1962    1.1607 H   0  0  0  0  0  0  0  0  0  0  0  0
   -2.6844   -6.2654    2.3555 H   0  0  0  0  0  0  0  0  0  0  0  0
    5.8792   -4.8237    1.2737 O   0  0  0  0  0  0  0  0  0  0  0  0
    5.7452   -4.2119    2.5465 C   0  0  0  0  0  0  0  0  0  0  0  0
    6.6554   -4.4577    3.0962 H   0  0  0  0  0  0  0  0  0  0  0  0
    5.6564   -3.1208    2.4648 H   0  0  0  0  0  0  0  0  0  0  0  0
    4.8776   -4.6019    3.0946 H   0  0  0  0  0  0  0  0  0  0  0  0
  1  7  1  0  0  0  0
  2  8  1  0  0  0  0
  2  1  2  0  0  0  0
  3  2  1  0  0  0  0
  4  3  2  0  0  0  0
  4  5  1  0  0  0  0
  5  6  2  0  0  0  0
  6  1  1  0  0  0  0
  6 31  1  0  0  0  0
  9  4  1  0  0  0  0
 10  5  1  0  0  0  0
 12 11  3  0  0  0  0
 13 14  2  0  0  0  0
 14 20  1  0  0  0  0
 15 14  1  0  0  0  0
 15 27  1  0  0  0  0
 16 15  2  0  0  0  0
 17 18  2  0  0  0  0
 17 16  1  0  0  0  0
 18 13  1  0  0  0  0
 19 13  1  0  0  0  0
 21 16  1  0  0  0  0
 22 17  1  0  0  0  0
 23 26  2  0  0  0  0
 23 24  1  0  0  0  0
 23 18  1  0  0  0  0
 24  3  1  0  0  0  0
 25 23  2  0  0  0  0
 27 28  1  0  0  0  0
 27 30  1  0  0  0  0
 29 27  1  0  0  0  0
 31 32  1  0  0  0  0
 32 35  1  0  0  0  0
 32 33  1  0  0  0  0
 34 32  1  0  0  0  0
M  END
