Coordinates from ORCA-job 4-MeO-Ph-N2-OTs-B3LYPG-6-31G_dp-MTMO-d009-169-n800
 OpenBabel09051908173D

 35 35  0  0  0  0  0  0  0  0999 V2000
    2.8793   -3.8989    0.6607 C   0  0  0  0  0  0  0  0  0  0  0  0
    1.7378   -3.9062   -0.1460 C   0  0  0  0  0  0  0  0  0  0  0  0
    1.8272   -4.3064   -1.4746 C   0  0  0  0  0  0  0  0  0  0  0  0
    3.0505   -4.7092   -2.0195 C   0  0  0  0  0  0  0  0  0  0  0  0
    4.1832   -4.7129   -1.2171 C   0  0  0  0  0  0  0  0  0  0  0  0
    4.1075   -4.3067    0.1254 C   0  0  0  0  0  0  0  0  0  0  0  0
    2.7966   -3.5741    1.6904 H   0  0  0  0  0  0  0  0  0  0  0  0
    0.7794   -3.5886    0.2503 H   0  0  0  0  0  0  0  0  0  0  0  0
    3.0988   -5.0197   -3.0559 H   0  0  0  0  0  0  0  0  0  0  0  0
    5.1459   -5.0213   -1.6102 H   0  0  0  0  0  0  0  0  0  0  0  0
   -3.0081   -2.6120   -3.0679 N   0  0  0  0  0  0  0  0  0  0  0  0
   -2.7593   -2.0662   -3.9957 N   0  0  0  0  0  0  0  0  0  0  0  0
   -0.2892   -7.1998   -0.5422 C   0  0  0  0  0  0  0  0  0  0  0  0
   -0.9250   -7.6388    0.6190 C   0  0  0  0  0  0  0  0  0  0  0  0
   -2.1381   -7.0777    1.0383 C   0  0  0  0  0  0  0  0  0  0  0  0
   -2.7119   -6.0596    0.2587 C   0  0  0  0  0  0  0  0  0  0  0  0
   -2.0960   -5.6074   -0.9037 C   0  0  0  0  0  0  0  0  0  0  0  0
   -0.8831   -6.1852   -1.2923 C   0  0  0  0  0  0  0  0  0  0  0  0
    0.6421   -7.6428   -0.8749 H   0  0  0  0  0  0  0  0  0  0  0  0
   -0.4729   -8.4346    1.2045 H   0  0  0  0  0  0  0  0  0  0  0  0
   -3.6589   -5.6227    0.5633 H   0  0  0  0  0  0  0  0  0  0  0  0
   -2.5488   -4.8312   -1.5112 H   0  0  0  0  0  0  0  0  0  0  0  0
   -0.0838   -5.6095   -2.7785 S   0  0  0  0  0  0  0  0  0  0  0  0
    0.6814   -4.2131   -2.2752 O   0  0  0  0  0  0  0  0  0  0  0  0
   -1.0850   -5.1106   -3.7101 O   0  0  0  0  0  0  0  0  0  0  0  0
    0.9278   -6.5848   -3.1758 O   0  0  0  0  0  0  0  0  0  0  0  0
   -2.8164   -7.5456    2.3030 C   0  0  0  0  0  0  0  0  0  0  0  0
   -2.7477   -6.7845    3.0902 H   0  0  0  0  0  0  0  0  0  0  0  0
   -3.8808   -7.7393    2.1349 H   0  0  0  0  0  0  0  0  0  0  0  0
   -2.3610   -8.4617    2.6864 H   0  0  0  0  0  0  0  0  0  0  0  0
    5.2821   -4.3419    0.8184 O   0  0  0  0  0  0  0  0  0  0  0  0
    5.2741   -3.9344    2.1771 C   0  0  0  0  0  0  0  0  0  0  0  0
    6.3019   -4.0372    2.5286 H   0  0  0  0  0  0  0  0  0  0  0  0
    4.9598   -2.8882    2.2849 H   0  0  0  0  0  0  0  0  0  0  0  0
    4.6199   -4.5702    2.7874 H   0  0  0  0  0  0  0  0  0  0  0  0
  1  7  1  0  0  0  0
  2  8  1  0  0  0  0
  2  1  2  0  0  0  0
  3  2  1  0  0  0  0
  4  3  2  0  0  0  0
  4  5  1  0  0  0  0
  5  6  2  0  0  0  0
  6  1  1  0  0  0  0
  6 31  1  0  0  0  0
  9  4  1  0  0  0  0
 10  5  1  0  0  0  0
 12 11  3  0  0  0  0
 13 14  2  0  0  0  0
 14 15  1  0  0  0  0
 14 20  1  0  0  0  0
 15 27  1  0  0  0  0
 16 21  1  0  0  0  0
 16 15  2  0  0  0  0
 17 16  1  0  0  0  0
 18 17  2  0  0  0  0
 18 13  1  0  0  0  0
 19 13  1  0  0  0  0
 22 17  1  0  0  0  0
 23 24  1  0  0  0  0
 23 18  1  0  0  0  0
 24  3  1  0  0  0  0
 25 23  2  0  0  0  0
 26 23  2  0  0  0  0
 27 30  1  0  0  0  0
 27 28  1  0  0  0  0
 29 27  1  0  0  0  0
 31 32  1  0  0  0  0
 32 34  1  0  0  0  0
 32 33  1  0  0  0  0
 32 35  1  0  0  0  0
M  END
