Coordinates from ORCA-job 4-MeO-Ph-N2-OTs-B3LYPG-6-31G_dp-MTMO-d009-169-n800
 OpenBabel09051908173D

 35 35  0  0  0  0  0  0  0  0999 V2000
    3.1931   -3.9255    0.6861 C   0  0  0  0  0  0  0  0  0  0  0  0
    2.2398   -3.9097   -0.3360 C   0  0  0  0  0  0  0  0  0  0  0  0
    2.5381   -4.4677   -1.5742 C   0  0  0  0  0  0  0  0  0  0  0  0
    3.7863   -5.0511   -1.8133 C   0  0  0  0  0  0  0  0  0  0  0  0
    4.7309   -5.0762   -0.7965 C   0  0  0  0  0  0  0  0  0  0  0  0
    4.4431   -4.5138    0.4579 C   0  0  0  0  0  0  0  0  0  0  0  0
    2.9496   -3.4798    1.6428 H   0  0  0  0  0  0  0  0  0  0  0  0
    1.2684   -3.4536   -0.1785 H   0  0  0  0  0  0  0  0  0  0  0  0
    3.9991   -5.4814   -2.7842 H   0  0  0  0  0  0  0  0  0  0  0  0
    5.7074   -5.5221   -0.9511 H   0  0  0  0  0  0  0  0  0  0  0  0
   -6.7442   -4.9023    0.2545 N   0  0  0  0  0  0  0  0  0  0  0  0
   -7.8295   -4.6939    0.2423 N   0  0  0  0  0  0  0  0  0  0  0  0
   -0.0783   -6.8796   -0.7540 C   0  0  0  0  0  0  0  0  0  0  0  0
   -1.0003   -7.0856    0.2693 C   0  0  0  0  0  0  0  0  0  0  0  0
   -2.2381   -6.4240    0.2774 C   0  0  0  0  0  0  0  0  0  0  0  0
   -2.5354   -5.5464   -0.7754 C   0  0  0  0  0  0  0  0  0  0  0  0
   -1.6260   -5.3244   -1.8082 C   0  0  0  0  0  0  0  0  0  0  0  0
   -0.4019   -5.9950   -1.7859 C   0  0  0  0  0  0  0  0  0  0  0  0
    0.8690   -7.4058   -0.7700 H   0  0  0  0  0  0  0  0  0  0  0  0
   -0.7579   -7.7783    1.0713 H   0  0  0  0  0  0  0  0  0  0  0  0
   -3.4955   -5.0386   -0.7912 H   0  0  0  0  0  0  0  0  0  0  0  0
   -1.8640   -4.6593   -2.6313 H   0  0  0  0  0  0  0  0  0  0  0  0
    0.7646   -5.7178   -3.1053 S   0  0  0  0  0  0  0  0  0  0  0  0
    1.5913   -4.3557   -2.6003 O   0  0  0  0  0  0  0  0  0  0  0  0
    0.0570   -5.2503   -4.2878 O   0  0  0  0  0  0  0  0  0  0  0  0
    1.6970   -6.8411   -3.1493 O   0  0  0  0  0  0  0  0  0  0  0  0
   -3.2218   -6.6517    1.3999 C   0  0  0  0  0  0  0  0  0  0  0  0
   -2.8726   -6.1833    2.3277 H   0  0  0  0  0  0  0  0  0  0  0  0
   -4.2026   -6.2316    1.1643 H   0  0  0  0  0  0  0  0  0  0  0  0
   -3.3482   -7.7192    1.6066 H   0  0  0  0  0  0  0  0  0  0  0  0
    5.4448   -4.5889    1.3809 O   0  0  0  0  0  0  0  0  0  0  0  0
    5.2204   -4.0277    2.6643 C   0  0  0  0  0  0  0  0  0  0  0  0
    6.1373   -4.1968    3.2315 H   0  0  0  0  0  0  0  0  0  0  0  0
    5.0255   -2.9491    2.6067 H   0  0  0  0  0  0  0  0  0  0  0  0
    4.3832   -4.5160    3.1798 H   0  0  0  0  0  0  0  0  0  0  0  0
  1  7  1  0  0  0  0
  2  8  1  0  0  0  0
  2  1  2  0  0  0  0
  3  2  1  0  0  0  0
  4  3  2  0  0  0  0
  4  5  1  0  0  0  0
  5  6  2  0  0  0  0
  6  1  1  0  0  0  0
  6 31  1  0  0  0  0
  9  4  1  0  0  0  0
 10  5  1  0  0  0  0
 12 11  3  0  0  0  0
 13 14  2  0  0  0  0
 14 15  1  0  0  0  0
 14 20  1  0  0  0  0
 15 27  1  0  0  0  0
 16 15  2  0  0  0  0
 17 18  2  0  0  0  0
 17 16  1  0  0  0  0
 18 13  1  0  0  0  0
 19 13  1  0  0  0  0
 21 16  1  0  0  0  0
 22 17  1  0  0  0  0
 23 24  1  0  0  0  0
 23 18  1  0  0  0  0
 24  3  1  0  0  0  0
 25 23  2  0  0  0  0
 26 23  2  0  0  0  0
 27 30  1  0  0  0  0
 27 28  1  0  0  0  0
 29 27  1  0  0  0  0
 31 32  1  0  0  0  0
 32 35  1  0  0  0  0
 32 33  1  0  0  0  0
 34 32  1  0  0  0  0
M  END
