Coordinates from ORCA-job 4-MeO-Ph-N2-OTs-B3LYPG-6-31G_dp-MTMO-d009-169-n800
 OpenBabel09051908173D

 35 35  0  0  0  0  0  0  0  0999 V2000
    3.4490   -4.0465    0.6984 C   0  0  0  0  0  0  0  0  0  0  0  0
    2.5192   -3.9166   -0.3371 C   0  0  0  0  0  0  0  0  0  0  0  0
    2.7706   -4.4987   -1.5746 C   0  0  0  0  0  0  0  0  0  0  0  0
    3.9466   -5.2209   -1.7993 C   0  0  0  0  0  0  0  0  0  0  0  0
    4.8673   -5.3581   -0.7698 C   0  0  0  0  0  0  0  0  0  0  0  0
    4.6272   -4.7720    0.4839 C   0  0  0  0  0  0  0  0  0  0  0  0
    3.2440   -3.5803    1.6544 H   0  0  0  0  0  0  0  0  0  0  0  0
    1.6038   -3.3532   -0.1903 H   0  0  0  0  0  0  0  0  0  0  0  0
    4.1227   -5.6686   -2.7698 H   0  0  0  0  0  0  0  0  0  0  0  0
    5.7895   -5.9108   -0.9136 H   0  0  0  0  0  0  0  0  0  0  0  0
   -8.2184   -7.7150    0.9893 N   0  0  0  0  0  0  0  0  0  0  0  0
   -9.2476   -8.1098    0.9093 N   0  0  0  0  0  0  0  0  0  0  0  0
   -0.2130   -6.5319   -0.8119 C   0  0  0  0  0  0  0  0  0  0  0  0
   -1.1860   -6.5833    0.1856 C   0  0  0  0  0  0  0  0  0  0  0  0
   -2.2987   -5.7317    0.1595 C   0  0  0  0  0  0  0  0  0  0  0  0
   -2.4163   -4.8149   -0.8976 C   0  0  0  0  0  0  0  0  0  0  0  0
   -1.4567   -4.7470   -1.9030 C   0  0  0  0  0  0  0  0  0  0  0  0
   -0.3591   -5.6104   -1.8490 C   0  0  0  0  0  0  0  0  0  0  0  0
    0.6396   -7.2018   -0.7991 H   0  0  0  0  0  0  0  0  0  0  0  0
   -1.0799   -7.3007    0.9952 H   0  0  0  0  0  0  0  0  0  0  0  0
   -3.2753   -4.1499   -0.9354 H   0  0  0  0  0  0  0  0  0  0  0  0
   -1.5563   -4.0492   -2.7277 H   0  0  0  0  0  0  0  0  0  0  0  0
    0.8779   -5.5215   -3.1304 S   0  0  0  0  0  0  0  0  0  0  0  0
    1.8613   -4.2726   -2.6158 O   0  0  0  0  0  0  0  0  0  0  0  0
    0.2785   -4.9864   -4.3438 O   0  0  0  0  0  0  0  0  0  0  0  0
    1.6507   -6.7605   -3.1242 O   0  0  0  0  0  0  0  0  0  0  0  0
   -3.3651   -5.8148    1.2246 C   0  0  0  0  0  0  0  0  0  0  0  0
   -3.7375   -4.8225    1.4958 H   0  0  0  0  0  0  0  0  0  0  0  0
   -4.2250   -6.3978    0.8724 H   0  0  0  0  0  0  0  0  0  0  0  0
   -2.9904   -6.2979    2.1308 H   0  0  0  0  0  0  0  0  0  0  0  0
    5.6011   -4.9641    1.4197 O   0  0  0  0  0  0  0  0  0  0  0  0
    5.4221   -4.3897    2.7043 C   0  0  0  0  0  0  0  0  0  0  0  0
    6.3077   -4.6607    3.2816 H   0  0  0  0  0  0  0  0  0  0  0  0
    5.3457   -3.2959    2.6524 H   0  0  0  0  0  0  0  0  0  0  0  0
    4.5303   -4.7876    3.2059 H   0  0  0  0  0  0  0  0  0  0  0  0
  1  7  1  0  0  0  0
  2  8  1  0  0  0  0
  2  1  2  0  0  0  0
  3  2  1  0  0  0  0
  4  3  2  0  0  0  0
  4  5  1  0  0  0  0
  5  6  2  0  0  0  0
  6  1  1  0  0  0  0
  6 31  1  0  0  0  0
  9  4  1  0  0  0  0
 10  5  1  0  0  0  0
 12 11  3  0  0  0  0
 13 19  1  0  0  0  0
 13 14  2  0  0  0  0
 14 20  1  0  0  0  0
 15 14  1  0  0  0  0
 15 27  1  0  0  0  0
 16 15  2  0  0  0  0
 17 18  2  0  0  0  0
 17 16  1  0  0  0  0
 18 13  1  0  0  0  0
 21 16  1  0  0  0  0
 22 17  1  0  0  0  0
 23 26  2  0  0  0  0
 23 24  1  0  0  0  0
 23 18  1  0  0  0  0
 24  3  1  0  0  0  0
 25 23  2  0  0  0  0
 27 28  1  0  0  0  0
 27 30  1  0  0  0  0
 29 27  1  0  0  0  0
 31 32  1  0  0  0  0
 32 35  1  0  0  0  0
 32 33  1  0  0  0  0
 34 32  1  0  0  0  0
M  END
