Coordinates from ORCA-job 4-MeO-Ph-N2-OTs-B3LYPG-6-31G_dp-MTMO-d009-169-n800
 OpenBabel09051908173D

 35 35  0  0  0  0  0  0  0  0999 V2000
    2.6970   -3.8092    0.4981 C   0  0  0  0  0  0  0  0  0  0  0  0
    1.5781   -3.8988   -0.3346 C   0  0  0  0  0  0  0  0  0  0  0  0
    1.7087   -4.4077   -1.6220 C   0  0  0  0  0  0  0  0  0  0  0  0
    2.9505   -4.8387   -2.0992 C   0  0  0  0  0  0  0  0  0  0  0  0
    4.0608   -4.7606   -1.2695 C   0  0  0  0  0  0  0  0  0  0  0  0
    3.9438   -4.2441    0.0314 C   0  0  0  0  0  0  0  0  0  0  0  0
    2.5830   -3.4024    1.4951 H   0  0  0  0  0  0  0  0  0  0  0  0
    0.6056   -3.5613    0.0072 H   0  0  0  0  0  0  0  0  0  0  0  0
    3.0301   -5.2330   -3.1047 H   0  0  0  0  0  0  0  0  0  0  0  0
    5.0373   -5.0875   -1.6100 H   0  0  0  0  0  0  0  0  0  0  0  0
   -1.5611   -2.1232   -1.9696 N   0  0  0  0  0  0  0  0  0  0  0  0
   -1.3515   -1.4755   -2.8399 N   0  0  0  0  0  0  0  0  0  0  0  0
   -0.3039   -7.3194   -0.5559 C   0  0  0  0  0  0  0  0  0  0  0  0
   -0.9199   -7.7119    0.6320 C   0  0  0  0  0  0  0  0  0  0  0  0
   -2.1359   -7.1481    1.0399 C   0  0  0  0  0  0  0  0  0  0  0  0
   -2.7337   -6.1767    0.2201 C   0  0  0  0  0  0  0  0  0  0  0  0
   -2.1372   -5.7721   -0.9697 C   0  0  0  0  0  0  0  0  0  0  0  0
   -0.9208   -6.3495   -1.3458 C   0  0  0  0  0  0  0  0  0  0  0  0
    0.6296   -7.7649   -0.8787 H   0  0  0  0  0  0  0  0  0  0  0  0
   -0.4496   -8.4732    1.2486 H   0  0  0  0  0  0  0  0  0  0  0  0
   -3.6835   -5.7394    0.5151 H   0  0  0  0  0  0  0  0  0  0  0  0
   -2.6075   -5.0320   -1.6079 H   0  0  0  0  0  0  0  0  0  0  0  0
   -0.1511   -5.8373   -2.8707 S   0  0  0  0  0  0  0  0  0  0  0  0
    0.5842   -4.3956   -2.4572 O   0  0  0  0  0  0  0  0  0  0  0  0
   -1.1729   -5.4155   -3.8173 O   0  0  0  0  0  0  0  0  0  0  0  0
    0.8812   -6.8081   -3.2232 O   0  0  0  0  0  0  0  0  0  0  0  0
   -2.7875   -7.5605    2.3372 C   0  0  0  0  0  0  0  0  0  0  0  0
   -2.6334   -6.7988    3.1120 H   0  0  0  0  0  0  0  0  0  0  0  0
   -3.8684   -7.6862    2.2183 H   0  0  0  0  0  0  0  0  0  0  0  0
   -2.3745   -8.5001    2.7121 H   0  0  0  0  0  0  0  0  0  0  0  0
    5.0993   -4.2054    0.7555 O   0  0  0  0  0  0  0  0  0  0  0  0
    5.0513   -3.6774    2.0715 C   0  0  0  0  0  0  0  0  0  0  0  0
    6.0710   -3.7331    2.4559 H   0  0  0  0  0  0  0  0  0  0  0  0
    4.7213   -2.6306    2.0763 H   0  0  0  0  0  0  0  0  0  0  0  0
    4.3896   -4.2654    2.7207 H   0  0  0  0  0  0  0  0  0  0  0  0
  1  7  1  0  0  0  0
  2  8  1  0  0  0  0
  2  1  2  0  0  0  0
  3  2  1  0  0  0  0
  4  3  2  0  0  0  0
  4  5  1  0  0  0  0
  5  6  2  0  0  0  0
  6  1  1  0  0  0  0
  6 31  1  0  0  0  0
  9  4  1  0  0  0  0
 10  5  1  0  0  0  0
 12 11  3  0  0  0  0
 13 14  2  0  0  0  0
 14 15  1  0  0  0  0
 14 20  1  0  0  0  0
 15 27  1  0  0  0  0
 16 21  1  0  0  0  0
 16 15  2  0  0  0  0
 17 16  1  0  0  0  0
 18 17  2  0  0  0  0
 18 13  1  0  0  0  0
 19 13  1  0  0  0  0
 22 17  1  0  0  0  0
 23 24  1  0  0  0  0
 23 18  1  0  0  0  0
 24  3  1  0  0  0  0
 25 23  2  0  0  0  0
 26 23  2  0  0  0  0
 27 30  1  0  0  0  0
 27 28  1  0  0  0  0
 29 27  1  0  0  0  0
 31 32  1  0  0  0  0
 32 34  1  0  0  0  0
 32 33  1  0  0  0  0
 32 35  1  0  0  0  0
M  END
