Coordinates from ORCA-job 4-MeO-Ph-N2-OTs-B3LYPG-6-31G_dp-MTMO-d009-169-n800
 OpenBabel09051908173D

 35 35  0  0  0  0  0  0  0  0999 V2000
    3.5193   -4.0355    0.6434 C   0  0  0  0  0  0  0  0  0  0  0  0
    2.5666   -3.9196   -0.3729 C   0  0  0  0  0  0  0  0  0  0  0  0
    2.7800   -4.5380   -1.5999 C   0  0  0  0  0  0  0  0  0  0  0  0
    3.9400   -5.2830   -1.8330 C   0  0  0  0  0  0  0  0  0  0  0  0
    4.8834   -5.4061   -0.8224 C   0  0  0  0  0  0  0  0  0  0  0  0
    4.6818   -4.7834    0.4204 C   0  0  0  0  0  0  0  0  0  0  0  0
    3.3441   -3.5414    1.5913 H   0  0  0  0  0  0  0  0  0  0  0  0
    1.6629   -3.3394   -0.2196 H   0  0  0  0  0  0  0  0  0  0  0  0
    4.0861   -5.7589   -2.7950 H   0  0  0  0  0  0  0  0  0  0  0  0
    5.7941   -5.9759   -0.9731 H   0  0  0  0  0  0  0  0  0  0  0  0
   -8.8542   -8.1260    0.4982 N   0  0  0  0  0  0  0  0  0  0  0  0
   -9.8097   -8.6345    0.2745 N   0  0  0  0  0  0  0  0  0  0  0  0
   -0.2151   -6.5002   -0.7066 C   0  0  0  0  0  0  0  0  0  0  0  0
   -1.1596   -6.5020    0.3194 C   0  0  0  0  0  0  0  0  0  0  0  0
   -2.2515   -5.6240    0.3027 C   0  0  0  0  0  0  0  0  0  0  0  0
   -2.3787   -4.7326   -0.7748 C   0  0  0  0  0  0  0  0  0  0  0  0
   -1.4479   -4.7144   -1.8088 C   0  0  0  0  0  0  0  0  0  0  0  0
   -0.3697   -5.6025   -1.7630 C   0  0  0  0  0  0  0  0  0  0  0  0
    0.6219   -7.1895   -0.7002 H   0  0  0  0  0  0  0  0  0  0  0  0
   -1.0471   -7.2006    1.1445 H   0  0  0  0  0  0  0  0  0  0  0  0
   -3.2225   -4.0479   -0.8057 H   0  0  0  0  0  0  0  0  0  0  0  0
   -1.5550   -4.0361   -2.6486 H   0  0  0  0  0  0  0  0  0  0  0  0
    0.8339   -5.5730   -3.0786 S   0  0  0  0  0  0  0  0  0  0  0  0
    1.8492   -4.3266   -2.6250 O   0  0  0  0  0  0  0  0  0  0  0  0
    0.2119   -5.0630   -4.2914 O   0  0  0  0  0  0  0  0  0  0  0  0
    1.5863   -6.8243   -3.0558 O   0  0  0  0  0  0  0  0  0  0  0  0
   -3.2870   -5.6510    1.4005 C   0  0  0  0  0  0  0  0  0  0  0  0
   -3.6026   -4.6406    1.6772 H   0  0  0  0  0  0  0  0  0  0  0  0
   -4.1845   -6.1923    1.0774 H   0  0  0  0  0  0  0  0  0  0  0  0
   -2.9085   -6.1477    2.2977 H   0  0  0  0  0  0  0  0  0  0  0  0
    5.6755   -4.9643    1.3374 O   0  0  0  0  0  0  0  0  0  0  0  0
    5.5347   -4.3551    2.6107 C   0  0  0  0  0  0  0  0  0  0  0  0
    6.4307   -4.6226    3.1735 H   0  0  0  0  0  0  0  0  0  0  0  0
    5.4703   -3.2620    2.5326 H   0  0  0  0  0  0  0  0  0  0  0  0
    4.6505   -4.7288    3.1435 H   0  0  0  0  0  0  0  0  0  0  0  0
  1  7  1  0  0  0  0
  2  8  1  0  0  0  0
  2  1  2  0  0  0  0
  3  2  1  0  0  0  0
  4  3  2  0  0  0  0
  4  5  1  0  0  0  0
  5  6  2  0  0  0  0
  6  1  1  0  0  0  0
  6 31  1  0  0  0  0
  9  4  1  0  0  0  0
 10  5  1  0  0  0  0
 12 11  3  0  0  0  0
 13 19  1  0  0  0  0
 13 14  2  0  0  0  0
 14 20  1  0  0  0  0
 15 14  1  0  0  0  0
 15 27  1  0  0  0  0
 16 15  2  0  0  0  0
 17 18  2  0  0  0  0
 17 16  1  0  0  0  0
 18 13  1  0  0  0  0
 21 16  1  0  0  0  0
 22 17  1  0  0  0  0
 23 26  2  0  0  0  0
 23 24  1  0  0  0  0
 23 18  1  0  0  0  0
 24  3  1  0  0  0  0
 25 23  2  0  0  0  0
 27 28  1  0  0  0  0
 27 30  1  0  0  0  0
 29 27  1  0  0  0  0
 31 32  1  0  0  0  0
 32 35  1  0  0  0  0
 32 33  1  0  0  0  0
 34 32  1  0  0  0  0
M  END
