Coordinates from ORCA-job 4-MeO-Ph-N2-OTs-B3LYPG-6-31G_dp-MTMO-d009-169-n800
 OpenBabel09051908173D

 35 35  0  0  0  0  0  0  0  0999 V2000
    2.8255   -3.8754    0.6238 C   0  0  0  0  0  0  0  0  0  0  0  0
    1.6833   -3.9123   -0.1809 C   0  0  0  0  0  0  0  0  0  0  0  0
    1.7781   -4.3267   -1.5048 C   0  0  0  0  0  0  0  0  0  0  0  0
    3.0075   -4.7144   -2.0468 C   0  0  0  0  0  0  0  0  0  0  0  0
    4.1412   -4.6885   -1.2462 C   0  0  0  0  0  0  0  0  0  0  0  0
    4.0601   -4.2678    0.0915 C   0  0  0  0  0  0  0  0  0  0  0  0
    2.7385   -3.5402    1.6498 H   0  0  0  0  0  0  0  0  0  0  0  0
    0.7200   -3.6071    0.2131 H   0  0  0  0  0  0  0  0  0  0  0  0
    3.0598   -5.0364   -3.0796 H   0  0  0  0  0  0  0  0  0  0  0  0
    5.1087   -4.9847   -1.6371 H   0  0  0  0  0  0  0  0  0  0  0  0
   -2.5530   -2.4456   -2.9043 N   0  0  0  0  0  0  0  0  0  0  0  0
   -2.1772   -1.8538   -3.7582 N   0  0  0  0  0  0  0  0  0  0  0  0
   -0.3144   -7.2618   -0.5440 C   0  0  0  0  0  0  0  0  0  0  0  0
   -0.9451   -7.6927    0.6231 C   0  0  0  0  0  0  0  0  0  0  0  0
   -2.1483   -7.1181    1.0521 C   0  0  0  0  0  0  0  0  0  0  0  0
   -2.7175   -6.0943    0.2763 C   0  0  0  0  0  0  0  0  0  0  0  0
   -2.1069   -5.6506   -0.8920 C   0  0  0  0  0  0  0  0  0  0  0  0
   -0.9039   -6.2423   -1.2905 C   0  0  0  0  0  0  0  0  0  0  0  0
    0.6098   -7.7141   -0.8837 H   0  0  0  0  0  0  0  0  0  0  0  0
   -0.4965   -8.4924    1.2060 H   0  0  0  0  0  0  0  0  0  0  0  0
   -3.6564   -5.6459    0.5891 H   0  0  0  0  0  0  0  0  0  0  0  0
   -2.5553   -4.8682   -1.4950 H   0  0  0  0  0  0  0  0  0  0  0  0
   -0.1129   -5.6798   -2.7864 S   0  0  0  0  0  0  0  0  0  0  0  0
    0.6300   -4.2634   -2.3053 O   0  0  0  0  0  0  0  0  0  0  0  0
   -1.1209   -5.2112   -3.7263 O   0  0  0  0  0  0  0  0  0  0  0  0
    0.9133   -6.6462   -3.1675 O   0  0  0  0  0  0  0  0  0  0  0  0
   -2.8212   -7.5772    2.3228 C   0  0  0  0  0  0  0  0  0  0  0  0
   -2.7449   -6.8127    3.1060 H   0  0  0  0  0  0  0  0  0  0  0  0
   -3.8874   -7.7671    2.1617 H   0  0  0  0  0  0  0  0  0  0  0  0
   -2.3676   -8.4935    2.7078 H   0  0  0  0  0  0  0  0  0  0  0  0
    5.2361   -4.2741    0.7828 O   0  0  0  0  0  0  0  0  0  0  0  0
    5.2229   -3.8514    2.1369 C   0  0  0  0  0  0  0  0  0  0  0  0
    6.2527   -3.9328    2.4880 H   0  0  0  0  0  0  0  0  0  0  0  0
    4.8912   -2.8095    2.2334 H   0  0  0  0  0  0  0  0  0  0  0  0
    4.5803   -4.4912    2.7553 H   0  0  0  0  0  0  0  0  0  0  0  0
  1  7  1  0  0  0  0
  2  8  1  0  0  0  0
  2  1  2  0  0  0  0
  3  2  1  0  0  0  0
  4  3  2  0  0  0  0
  4  5  1  0  0  0  0
  5  6  2  0  0  0  0
  6  1  1  0  0  0  0
  6 31  1  0  0  0  0
  9  4  1  0  0  0  0
 10  5  1  0  0  0  0
 12 11  3  0  0  0  0
 13 14  2  0  0  0  0
 14 15  1  0  0  0  0
 14 20  1  0  0  0  0
 15 27  1  0  0  0  0
 16 21  1  0  0  0  0
 16 15  2  0  0  0  0
 17 16  1  0  0  0  0
 18 17  2  0  0  0  0
 18 13  1  0  0  0  0
 19 13  1  0  0  0  0
 22 17  1  0  0  0  0
 23 24  1  0  0  0  0
 23 18  1  0  0  0  0
 24  3  1  0  0  0  0
 25 23  2  0  0  0  0
 26 23  2  0  0  0  0
 27 30  1  0  0  0  0
 27 28  1  0  0  0  0
 29 27  1  0  0  0  0
 31 32  1  0  0  0  0
 32 34  1  0  0  0  0
 32 33  1  0  0  0  0
 32 35  1  0  0  0  0
M  END
