Coordinates from ORCA-job 4-MeO-Ph-N2-OTs-B3LYPG-6-31G_dp-MTMO-d009-169-n800
 OpenBabel09051908173D

 35 35  0  0  0  0  0  0  0  0999 V2000
    2.9362   -3.9257    0.6984 C   0  0  0  0  0  0  0  0  0  0  0  0
    1.7919   -3.9027   -0.1038 C   0  0  0  0  0  0  0  0  0  0  0  0
    1.8708   -4.2803   -1.4398 C   0  0  0  0  0  0  0  0  0  0  0  0
    3.0865   -4.6900   -1.9965 C   0  0  0  0  0  0  0  0  0  0  0  0
    4.2219   -4.7239   -1.1985 C   0  0  0  0  0  0  0  0  0  0  0  0
    4.1567   -4.3409    0.1513 C   0  0  0  0  0  0  0  0  0  0  0  0
    2.8617   -3.6180    1.7340 H   0  0  0  0  0  0  0  0  0  0  0  0
    0.8394   -3.5786    0.3015 H   0  0  0  0  0  0  0  0  0  0  0  0
    3.1271   -4.9824   -3.0386 H   0  0  0  0  0  0  0  0  0  0  0  0
    5.1788   -5.0384   -1.6009 H   0  0  0  0  0  0  0  0  0  0  0  0
   -3.4166   -2.8318   -3.2265 N   0  0  0  0  0  0  0  0  0  0  0  0
   -3.2180   -2.3056   -4.1774 N   0  0  0  0  0  0  0  0  0  0  0  0
   -0.2629   -7.1176   -0.5249 C   0  0  0  0  0  0  0  0  0  0  0  0
   -0.9057   -7.5673    0.6280 C   0  0  0  0  0  0  0  0  0  0  0  0
   -2.1414   -7.0384    1.0232 C   0  0  0  0  0  0  0  0  0  0  0  0
   -2.7309   -6.0429    0.2267 C   0  0  0  0  0  0  0  0  0  0  0  0
   -2.1076   -5.5795   -0.9277 C   0  0  0  0  0  0  0  0  0  0  0  0
   -0.8721   -6.1240   -1.2913 C   0  0  0  0  0  0  0  0  0  0  0  0
    0.6850   -7.5382   -0.8393 H   0  0  0  0  0  0  0  0  0  0  0  0
   -0.4417   -8.3471    1.2259 H   0  0  0  0  0  0  0  0  0  0  0  0
   -3.6959   -5.6327    0.5110 H   0  0  0  0  0  0  0  0  0  0  0  0
   -2.5741   -4.8240   -1.5509 H   0  0  0  0  0  0  0  0  0  0  0  0
   -0.0614   -5.5313   -2.7644 S   0  0  0  0  0  0  0  0  0  0  0  0
    0.7234   -4.1557   -2.2337 O   0  0  0  0  0  0  0  0  0  0  0  0
   -1.0542   -5.0013   -3.6879 O   0  0  0  0  0  0  0  0  0  0  0  0
    0.9379   -6.5124   -3.1780 O   0  0  0  0  0  0  0  0  0  0  0  0
   -2.8260   -7.5166    2.2806 C   0  0  0  0  0  0  0  0  0  0  0  0
   -2.7596   -6.7622    3.0747 H   0  0  0  0  0  0  0  0  0  0  0  0
   -3.8897   -7.7077    2.1065 H   0  0  0  0  0  0  0  0  0  0  0  0
   -2.3728   -8.4359    2.6586 H   0  0  0  0  0  0  0  0  0  0  0  0
    5.3331   -4.4045    0.8391 O   0  0  0  0  0  0  0  0  0  0  0  0
    5.3357   -4.0188    2.2042 C   0  0  0  0  0  0  0  0  0  0  0  0
    6.3634   -4.1405    2.5499 H   0  0  0  0  0  0  0  0  0  0  0  0
    5.0353   -2.9705    2.3299 H   0  0  0  0  0  0  0  0  0  0  0  0
    4.6756   -4.6557    2.8069 H   0  0  0  0  0  0  0  0  0  0  0  0
  1  7  1  0  0  0  0
  2  8  1  0  0  0  0
  2  1  2  0  0  0  0
  3  2  1  0  0  0  0
  4  3  2  0  0  0  0
  4  5  1  0  0  0  0
  5  6  2  0  0  0  0
  6  1  1  0  0  0  0
  6 31  1  0  0  0  0
  9  4  1  0  0  0  0
 10  5  1  0  0  0  0
 12 11  3  0  0  0  0
 13 14  2  0  0  0  0
 14 15  1  0  0  0  0
 14 20  1  0  0  0  0
 15 27  1  0  0  0  0
 16 21  1  0  0  0  0
 16 15  2  0  0  0  0
 17 16  1  0  0  0  0
 18 17  2  0  0  0  0
 18 13  1  0  0  0  0
 19 13  1  0  0  0  0
 22 17  1  0  0  0  0
 23 24  1  0  0  0  0
 23 18  1  0  0  0  0
 24  3  1  0  0  0  0
 25 23  2  0  0  0  0
 26 23  2  0  0  0  0
 27 30  1  0  0  0  0
 27 28  1  0  0  0  0
 29 27  1  0  0  0  0
 31 32  1  0  0  0  0
 32 34  1  0  0  0  0
 32 33  1  0  0  0  0
 32 35  1  0  0  0  0
M  END
