Coordinates from ORCA-job 4-MeO-Ph-N2-OTs-B3LYPG-6-31G_dp-MTMO-d009-169-n800
 OpenBabel09051908173D

 35 35  0  0  0  0  0  0  0  0999 V2000
    3.6203   -3.9854    0.6182 C   0  0  0  0  0  0  0  0  0  0  0  0
    2.6533   -3.8866   -0.3864 C   0  0  0  0  0  0  0  0  0  0  0  0
    2.8587   -4.5084   -1.6129 C   0  0  0  0  0  0  0  0  0  0  0  0
    4.0250   -5.2398   -1.8573 C   0  0  0  0  0  0  0  0  0  0  0  0
    4.9828   -5.3460   -0.8584 C   0  0  0  0  0  0  0  0  0  0  0  0
    4.7892   -4.7197    0.3839 C   0  0  0  0  0  0  0  0  0  0  0  0
    3.4510   -3.4889    1.5659 H   0  0  0  0  0  0  0  0  0  0  0  0
    1.7442   -3.3171   -0.2243 H   0  0  0  0  0  0  0  0  0  0  0  0
    4.1649   -5.7186   -2.8188 H   0  0  0  0  0  0  0  0  0  0  0  0
    5.8985   -5.9052   -1.0179 H   0  0  0  0  0  0  0  0  0  0  0  0
  -10.5774   -8.4443    0.3417 N   0  0  0  0  0  0  0  0  0  0  0  0
  -11.5245   -8.9636    0.1072 N   0  0  0  0  0  0  0  0  0  0  0  0
   -0.0995   -6.5013   -0.6691 C   0  0  0  0  0  0  0  0  0  0  0  0
   -1.0309   -6.5083    0.3692 C   0  0  0  0  0  0  0  0  0  0  0  0
   -2.1336   -5.6441    0.3612 C   0  0  0  0  0  0  0  0  0  0  0  0
   -2.2861   -4.7615   -0.7207 C   0  0  0  0  0  0  0  0  0  0  0  0
   -1.3691   -4.7384   -1.7665 C   0  0  0  0  0  0  0  0  0  0  0  0
   -0.2790   -5.6127   -1.7289 C   0  0  0  0  0  0  0  0  0  0  0  0
    0.7459   -7.1803   -0.6691 H   0  0  0  0  0  0  0  0  0  0  0  0
   -0.8992   -7.2002    1.1970 H   0  0  0  0  0  0  0  0  0  0  0  0
   -3.1392   -4.0882   -0.7453 H   0  0  0  0  0  0  0  0  0  0  0  0
   -1.4957   -4.0674   -2.6095 H   0  0  0  0  0  0  0  0  0  0  0  0
    0.9070   -5.5764   -3.0602 S   0  0  0  0  0  0  0  0  0  0  0  0
    1.9121   -4.3145   -2.6269 O   0  0  0  0  0  0  0  0  0  0  0  0
    0.2632   -5.0817   -4.2678 O   0  0  0  0  0  0  0  0  0  0  0  0
    1.6755   -6.8179   -3.0395 O   0  0  0  0  0  0  0  0  0  0  0  0
   -3.1535   -5.6732    1.4735 C   0  0  0  0  0  0  0  0  0  0  0  0
   -3.4272   -4.6621    1.7904 H   0  0  0  0  0  0  0  0  0  0  0  0
   -4.0755   -6.1681    1.1455 H   0  0  0  0  0  0  0  0  0  0  0  0
   -2.7804   -6.2147    2.3466 H   0  0  0  0  0  0  0  0  0  0  0  0
    5.7967   -4.8836    1.2890 O   0  0  0  0  0  0  0  0  0  0  0  0
    5.6643   -4.2703    2.5612 C   0  0  0  0  0  0  0  0  0  0  0  0
    6.5704   -4.5244    3.1139 H   0  0  0  0  0  0  0  0  0  0  0  0
    5.5859   -3.1784    2.4791 H   0  0  0  0  0  0  0  0  0  0  0  0
    4.7913   -4.6521    3.1067 H   0  0  0  0  0  0  0  0  0  0  0  0
  1  7  1  0  0  0  0
  2  8  1  0  0  0  0
  2  1  2  0  0  0  0
  3  2  1  0  0  0  0
  4  3  2  0  0  0  0
  4  5  1  0  0  0  0
  5  6  2  0  0  0  0
  6  1  1  0  0  0  0
  6 31  1  0  0  0  0
  9  4  1  0  0  0  0
 10  5  1  0  0  0  0
 12 11  3  0  0  0  0
 13 14  2  0  0  0  0
 14 20  1  0  0  0  0
 15 14  1  0  0  0  0
 15 27  1  0  0  0  0
 16 15  2  0  0  0  0
 17 18  2  0  0  0  0
 17 16  1  0  0  0  0
 18 13  1  0  0  0  0
 19 13  1  0  0  0  0
 21 16  1  0  0  0  0
 22 17  1  0  0  0  0
 23 26  2  0  0  0  0
 23 24  1  0  0  0  0
 23 18  1  0  0  0  0
 24  3  1  0  0  0  0
 25 23  2  0  0  0  0
 27 28  1  0  0  0  0
 27 30  1  0  0  0  0
 29 27  1  0  0  0  0
 31 32  1  0  0  0  0
 32 35  1  0  0  0  0
 32 33  1  0  0  0  0
 34 32  1  0  0  0  0
M  END
