Coordinates from ORCA-job 4-MeO-Ph-N2-OTs-B3LYPG-6-31G_dp-MTMO-d009-169-n800
 OpenBabel09051908173D

 35 35  0  0  0  0  0  0  0  0999 V2000
    3.4325   -4.0572    0.7020 C   0  0  0  0  0  0  0  0  0  0  0  0
    2.4925   -3.9309   -0.3248 C   0  0  0  0  0  0  0  0  0  0  0  0
    2.7346   -4.5117   -1.5647 C   0  0  0  0  0  0  0  0  0  0  0  0
    3.9113   -5.2293   -1.8006 C   0  0  0  0  0  0  0  0  0  0  0  0
    4.8422   -5.3629   -0.7798 C   0  0  0  0  0  0  0  0  0  0  0  0
    4.6115   -4.7780    0.4762 C   0  0  0  0  0  0  0  0  0  0  0  0
    3.2347   -3.5920    1.6599 H   0  0  0  0  0  0  0  0  0  0  0  0
    1.5763   -3.3711   -0.1693 H   0  0  0  0  0  0  0  0  0  0  0  0
    4.0800   -5.6763   -2.7727 H   0  0  0  0  0  0  0  0  0  0  0  0
    5.7651   -5.9121   -0.9323 H   0  0  0  0  0  0  0  0  0  0  0  0
   -7.6381   -7.5513    0.8379 N   0  0  0  0  0  0  0  0  0  0  0  0
   -8.6460   -7.9874    0.7139 N   0  0  0  0  0  0  0  0  0  0  0  0
   -0.2634   -6.5388   -0.7809 C   0  0  0  0  0  0  0  0  0  0  0  0
   -1.2396   -6.5868    0.2137 C   0  0  0  0  0  0  0  0  0  0  0  0
   -2.3539   -5.7376    0.1799 C   0  0  0  0  0  0  0  0  0  0  0  0
   -2.4697   -4.8266   -0.8824 C   0  0  0  0  0  0  0  0  0  0  0  0
   -1.5071   -4.7621   -1.8852 C   0  0  0  0  0  0  0  0  0  0  0  0
   -0.4078   -5.6230   -1.8233 C   0  0  0  0  0  0  0  0  0  0  0  0
    0.5901   -7.2073   -0.7620 H   0  0  0  0  0  0  0  0  0  0  0  0
   -1.1346   -7.2998    1.0274 H   0  0  0  0  0  0  0  0  0  0  0  0
   -3.3297   -4.1633   -0.9265 H   0  0  0  0  0  0  0  0  0  0  0  0
   -1.6056   -4.0691   -2.7140 H   0  0  0  0  0  0  0  0  0  0  0  0
    0.8309   -5.5413   -3.1038 S   0  0  0  0  0  0  0  0  0  0  0  0
    1.8145   -4.2892   -2.5971 O   0  0  0  0  0  0  0  0  0  0  0  0
    0.2317   -5.0136   -4.3205 O   0  0  0  0  0  0  0  0  0  0  0  0
    1.6038   -6.7801   -3.0893 O   0  0  0  0  0  0  0  0  0  0  0  0
   -3.4223   -5.8153    1.2434 C   0  0  0  0  0  0  0  0  0  0  0  0
   -3.7861   -4.8203    1.5170 H   0  0  0  0  0  0  0  0  0  0  0  0
   -4.2877   -6.3899    0.8911 H   0  0  0  0  0  0  0  0  0  0  0  0
   -3.0515   -6.3030    2.1488 H   0  0  0  0  0  0  0  0  0  0  0  0
    5.5950   -4.9662    1.4028 O   0  0  0  0  0  0  0  0  0  0  0  0
    5.4253   -4.3934    2.6894 C   0  0  0  0  0  0  0  0  0  0  0  0
    6.3173   -4.6610    3.2583 H   0  0  0  0  0  0  0  0  0  0  0  0
    5.3438   -3.2999    2.6390 H   0  0  0  0  0  0  0  0  0  0  0  0
    4.5398   -4.7955    3.1988 H   0  0  0  0  0  0  0  0  0  0  0  0
  1  7  1  0  0  0  0
  2  8  1  0  0  0  0
  2  1  2  0  0  0  0
  3  2  1  0  0  0  0
  4  3  2  0  0  0  0
  4  5  1  0  0  0  0
  5  6  2  0  0  0  0
  6  1  1  0  0  0  0
  6 31  1  0  0  0  0
  9  4  1  0  0  0  0
 10  5  1  0  0  0  0
 12 11  3  0  0  0  0
 13 19  1  0  0  0  0
 13 14  2  0  0  0  0
 14 20  1  0  0  0  0
 15 14  1  0  0  0  0
 15 27  1  0  0  0  0
 16 15  2  0  0  0  0
 17 18  2  0  0  0  0
 17 16  1  0  0  0  0
 18 13  1  0  0  0  0
 21 16  1  0  0  0  0
 22 17  1  0  0  0  0
 23 26  2  0  0  0  0
 23 24  1  0  0  0  0
 23 18  1  0  0  0  0
 24  3  1  0  0  0  0
 25 23  2  0  0  0  0
 27 28  1  0  0  0  0
 27 30  1  0  0  0  0
 29 27  1  0  0  0  0
 31 32  1  0  0  0  0
 32 35  1  0  0  0  0
 32 33  1  0  0  0  0
 34 32  1  0  0  0  0
M  END
