Coordinates from ORCA-job 4-MeO-Ph-N2-OTs-B3LYPG-6-31G_dp-MTMO-d009-169-n800
 OpenBabel09051908173D

 35 35  0  0  0  0  0  0  0  0999 V2000
    3.0193   -3.9617    0.7700 C   0  0  0  0  0  0  0  0  0  0  0  0
    1.8700   -3.8781   -0.0209 C   0  0  0  0  0  0  0  0  0  0  0  0
    1.9289   -4.2059   -1.3709 C   0  0  0  0  0  0  0  0  0  0  0  0
    3.1293   -4.6250   -1.9534 C   0  0  0  0  0  0  0  0  0  0  0  0
    4.2693   -4.7192   -1.1669 C   0  0  0  0  0  0  0  0  0  0  0  0
    4.2245   -4.3869    0.1971 C   0  0  0  0  0  0  0  0  0  0  0  0
    2.9608   -3.6919    1.8173 H   0  0  0  0  0  0  0  0  0  0  0  0
    0.9294   -3.5451    0.4046 H   0  0  0  0  0  0  0  0  0  0  0  0
    3.1545   -4.8779   -3.0062 H   0  0  0  0  0  0  0  0  0  0  0  0
    5.2147   -5.0424   -1.5892 H   0  0  0  0  0  0  0  0  0  0  0  0
   -3.9639   -3.3520   -3.5684 N   0  0  0  0  0  0  0  0  0  0  0  0
   -3.8978   -3.0232   -4.6211 N   0  0  0  0  0  0  0  0  0  0  0  0
   -0.2565   -7.0039   -0.5389 C   0  0  0  0  0  0  0  0  0  0  0  0
   -0.9042   -7.4875    0.5964 C   0  0  0  0  0  0  0  0  0  0  0  0
   -2.1422   -6.9697    1.0020 C   0  0  0  0  0  0  0  0  0  0  0  0
   -2.7281   -5.9525    0.2323 C   0  0  0  0  0  0  0  0  0  0  0  0
   -2.0988   -5.4541   -0.9051 C   0  0  0  0  0  0  0  0  0  0  0  0
   -0.8620   -5.9868   -1.2786 C   0  0  0  0  0  0  0  0  0  0  0  0
    0.6917   -7.4167   -0.8625 H   0  0  0  0  0  0  0  0  0  0  0  0
   -0.4435   -8.2859    1.1720 H   0  0  0  0  0  0  0  0  0  0  0  0
   -3.6956   -5.5525    0.5226 H   0  0  0  0  0  0  0  0  0  0  0  0
   -2.5656   -4.6824   -1.5080 H   0  0  0  0  0  0  0  0  0  0  0  0
   -0.0444   -5.3535   -2.7306 S   0  0  0  0  0  0  0  0  0  0  0  0
    0.7783   -4.0211   -2.1492 O   0  0  0  0  0  0  0  0  0  0  0  0
   -1.0289   -4.7631   -3.6256 O   0  0  0  0  0  0  0  0  0  0  0  0
    0.9284   -6.3412   -3.1896 O   0  0  0  0  0  0  0  0  0  0  0  0
   -2.8242   -7.4820    2.2473 C   0  0  0  0  0  0  0  0  0  0  0  0
   -2.5852   -6.8498    3.1116 H   0  0  0  0  0  0  0  0  0  0  0  0
   -3.9130   -7.4818    2.1363 H   0  0  0  0  0  0  0  0  0  0  0  0
   -2.5049   -8.4992    2.4883 H   0  0  0  0  0  0  0  0  0  0  0  0
    5.4036   -4.5074    0.8724 O   0  0  0  0  0  0  0  0  0  0  0  0
    5.4260   -4.1727    2.2507 C   0  0  0  0  0  0  0  0  0  0  0  0
    6.4527   -4.3328    2.5831 H   0  0  0  0  0  0  0  0  0  0  0  0
    5.1526   -3.1227    2.4171 H   0  0  0  0  0  0  0  0  0  0  0  0
    4.7545   -4.8148    2.8349 H   0  0  0  0  0  0  0  0  0  0  0  0
  1  7  1  0  0  0  0
  2  8  1  0  0  0  0
  2  1  2  0  0  0  0
  3  2  1  0  0  0  0
  4  3  2  0  0  0  0
  4  5  1  0  0  0  0
  5  6  2  0  0  0  0
  6  1  1  0  0  0  0
  6 31  1  0  0  0  0
  9  4  1  0  0  0  0
 10  5  1  0  0  0  0
 12 11  3  0  0  0  0
 13 14  2  0  0  0  0
 14 15  1  0  0  0  0
 14 20  1  0  0  0  0
 15 27  1  0  0  0  0
 16 21  1  0  0  0  0
 16 15  2  0  0  0  0
 17 16  1  0  0  0  0
 18 17  2  0  0  0  0
 18 13  1  0  0  0  0
 19 13  1  0  0  0  0
 22 17  1  0  0  0  0
 23 24  1  0  0  0  0
 23 18  1  0  0  0  0
 24  3  1  0  0  0  0
 25 23  2  0  0  0  0
 26 23  2  0  0  0  0
 27 30  1  0  0  0  0
 27 28  1  0  0  0  0
 29 27  1  0  0  0  0
 31 32  1  0  0  0  0
 32 34  1  0  0  0  0
 32 33  1  0  0  0  0
 32 35  1  0  0  0  0
M  END
