Coordinates from ORCA-job 4-MeO-Ph-N2-OTs-B3LYPG-6-31G_dp-MTMO-d009-169-n800
 OpenBabel09051908173D

 35 35  0  0  0  0  0  0  0  0999 V2000
    2.8486   -3.8857    0.6394 C   0  0  0  0  0  0  0  0  0  0  0  0
    1.7071   -3.9101   -0.1669 C   0  0  0  0  0  0  0  0  0  0  0  0
    1.8003   -4.3190   -1.4925 C   0  0  0  0  0  0  0  0  0  0  0  0
    3.0273   -4.7137   -2.0349 C   0  0  0  0  0  0  0  0  0  0  0  0
    4.1602   -4.7004   -1.2328 C   0  0  0  0  0  0  0  0  0  0  0  0
    4.0807   -4.2853    0.1068 C   0  0  0  0  0  0  0  0  0  0  0  0
    2.7629   -3.5545    1.6668 H   0  0  0  0  0  0  0  0  0  0  0  0
    0.7457   -3.5992    0.2274 H   0  0  0  0  0  0  0  0  0  0  0  0
    3.0784   -5.0313   -3.0690 H   0  0  0  0  0  0  0  0  0  0  0  0
    5.1258   -5.0022   -1.6239 H   0  0  0  0  0  0  0  0  0  0  0  0
   -2.7631   -2.5156   -2.9729 N   0  0  0  0  0  0  0  0  0  0  0  0
   -2.4383   -1.9374   -3.8567 N   0  0  0  0  0  0  0  0  0  0  0  0
   -0.3026   -7.2361   -0.5438 C   0  0  0  0  0  0  0  0  0  0  0  0
   -0.9356   -7.6695    0.6210 C   0  0  0  0  0  0  0  0  0  0  0  0
   -2.1427   -7.0998    1.0458 C   0  0  0  0  0  0  0  0  0  0  0  0
   -2.7135   -6.0785    0.2679 C   0  0  0  0  0  0  0  0  0  0  0  0
   -2.1005   -5.6320   -0.8981 C   0  0  0  0  0  0  0  0  0  0  0  0
   -0.8936   -6.2187   -1.2923 C   0  0  0  0  0  0  0  0  0  0  0  0
    0.6244   -7.6850   -0.8804 H   0  0  0  0  0  0  0  0  0  0  0  0
   -0.4860   -8.4676    1.2053 H   0  0  0  0  0  0  0  0  0  0  0  0
   -3.6556   -5.6343    0.5772 H   0  0  0  0  0  0  0  0  0  0  0  0
   -2.5503   -4.8524   -1.5035 H   0  0  0  0  0  0  0  0  0  0  0  0
   -0.0988   -5.6512   -2.7841 S   0  0  0  0  0  0  0  0  0  0  0  0
    0.6535   -4.2431   -2.2938 O   0  0  0  0  0  0  0  0  0  0  0  0
   -1.1038   -5.1698   -3.7209 O   0  0  0  0  0  0  0  0  0  0  0  0
    0.9211   -6.6216   -3.1717 O   0  0  0  0  0  0  0  0  0  0  0  0
   -2.8181   -7.5617    2.3142 C   0  0  0  0  0  0  0  0  0  0  0  0
   -2.7448   -6.7982    3.0987 H   0  0  0  0  0  0  0  0  0  0  0  0
   -3.8836   -7.7530    2.1502 H   0  0  0  0  0  0  0  0  0  0  0  0
   -2.3640   -8.4778    2.6991 H   0  0  0  0  0  0  0  0  0  0  0  0
    5.2557   -4.3040    0.7996 O   0  0  0  0  0  0  0  0  0  0  0  0
    5.2440   -3.8875    2.1555 C   0  0  0  0  0  0  0  0  0  0  0  0
    6.2728   -3.9782    2.5075 H   0  0  0  0  0  0  0  0  0  0  0  0
    4.9200   -2.8436    2.2564 H   0  0  0  0  0  0  0  0  0  0  0  0
    4.5959   -4.5252    2.7702 H   0  0  0  0  0  0  0  0  0  0  0  0
  1  7  1  0  0  0  0
  2  8  1  0  0  0  0
  2  1  2  0  0  0  0
  3  2  1  0  0  0  0
  4  3  2  0  0  0  0
  4  5  1  0  0  0  0
  5  6  2  0  0  0  0
  6  1  1  0  0  0  0
  6 31  1  0  0  0  0
  9  4  1  0  0  0  0
 10  5  1  0  0  0  0
 12 11  3  0  0  0  0
 13 14  2  0  0  0  0
 14 15  1  0  0  0  0
 14 20  1  0  0  0  0
 15 27  1  0  0  0  0
 16 21  1  0  0  0  0
 16 15  2  0  0  0  0
 17 16  1  0  0  0  0
 18 17  2  0  0  0  0
 18 13  1  0  0  0  0
 19 13  1  0  0  0  0
 22 17  1  0  0  0  0
 23 24  1  0  0  0  0
 23 18  1  0  0  0  0
 24  3  1  0  0  0  0
 25 23  2  0  0  0  0
 26 23  2  0  0  0  0
 27 30  1  0  0  0  0
 27 28  1  0  0  0  0
 29 27  1  0  0  0  0
 31 32  1  0  0  0  0
 32 34  1  0  0  0  0
 32 33  1  0  0  0  0
 32 35  1  0  0  0  0
M  END
