Coordinates from ORCA-job 4-MeO-Ph-N2-OTs-B3LYPG-6-31G_dp-MTMO-d009-169-n800
 OpenBabel09051908173D

 35 35  0  0  0  0  0  0  0  0999 V2000
    3.1223   -3.9185    0.7100 C   0  0  0  0  0  0  0  0  0  0  0  0
    2.1405   -3.9116   -0.2849 C   0  0  0  0  0  0  0  0  0  0  0  0
    2.4247   -4.4230   -1.5463 C   0  0  0  0  0  0  0  0  0  0  0  0
    3.6866   -4.9512   -1.8359 C   0  0  0  0  0  0  0  0  0  0  0  0
    4.6598   -4.9680   -0.8462 C   0  0  0  0  0  0  0  0  0  0  0  0
    4.3867   -4.4513    0.4309 C   0  0  0  0  0  0  0  0  0  0  0  0
    2.8894   -3.5088    1.6851 H   0  0  0  0  0  0  0  0  0  0  0  0
    1.1574   -3.4979   -0.0882 H   0  0  0  0  0  0  0  0  0  0  0  0
    3.8880   -5.3463   -2.8240 H   0  0  0  0  0  0  0  0  0  0  0  0
    5.6476   -5.3720   -1.0399 H   0  0  0  0  0  0  0  0  0  0  0  0
   -6.2374   -4.2860   -0.3178 N   0  0  0  0  0  0  0  0  0  0  0  0
   -7.2236   -3.8129   -0.4750 N   0  0  0  0  0  0  0  0  0  0  0  0
   -0.0798   -6.9945   -0.7566 C   0  0  0  0  0  0  0  0  0  0  0  0
   -0.9607   -7.2690    0.2879 C   0  0  0  0  0  0  0  0  0  0  0  0
   -2.2024   -6.6237    0.3799 C   0  0  0  0  0  0  0  0  0  0  0  0
   -2.5505   -5.6931   -0.6115 C   0  0  0  0  0  0  0  0  0  0  0  0
   -1.6844   -5.4042   -1.6633 C   0  0  0  0  0  0  0  0  0  0  0  0
   -0.4522   -6.0594   -1.7243 C   0  0  0  0  0  0  0  0  0  0  0  0
    0.8714   -7.5077   -0.8380 H   0  0  0  0  0  0  0  0  0  0  0  0
   -0.6823   -8.0034    1.0394 H   0  0  0  0  0  0  0  0  0  0  0  0
   -3.5162   -5.1982   -0.5636 H   0  0  0  0  0  0  0  0  0  0  0  0
   -1.9611   -4.6993   -2.4398 H   0  0  0  0  0  0  0  0  0  0  0  0
    0.6592   -5.6940   -3.0694 S   0  0  0  0  0  0  0  0  0  0  0  0
    1.4462   -4.3172   -2.5428 O   0  0  0  0  0  0  0  0  0  0  0  0
   -0.1033   -5.2156   -4.2128 O   0  0  0  0  0  0  0  0  0  0  0  0
    1.6326   -6.7770   -3.1815 O   0  0  0  0  0  0  0  0  0  0  0  0
   -3.1387   -6.9120    1.5283 C   0  0  0  0  0  0  0  0  0  0  0  0
   -2.9077   -6.2740    2.3904 H   0  0  0  0  0  0  0  0  0  0  0  0
   -4.1798   -6.7220    1.2524 H   0  0  0  0  0  0  0  0  0  0  0  0
   -3.0557   -7.9505    1.8616 H   0  0  0  0  0  0  0  0  0  0  0  0
    5.4166   -4.5124    1.3236 O   0  0  0  0  0  0  0  0  0  0  0  0
    5.2092   -3.9903    2.6262 C   0  0  0  0  0  0  0  0  0  0  0  0
    6.1478   -4.1382    3.1631 H   0  0  0  0  0  0  0  0  0  0  0  0
    4.9735   -2.9186    2.6006 H   0  0  0  0  0  0  0  0  0  0  0  0
    4.4058   -4.5213    3.1531 H   0  0  0  0  0  0  0  0  0  0  0  0
  1  7  1  0  0  0  0
  2  8  1  0  0  0  0
  2  1  2  0  0  0  0
  3  2  1  0  0  0  0
  4  3  2  0  0  0  0
  4  5  1  0  0  0  0
  5  6  2  0  0  0  0
  6  1  1  0  0  0  0
  6 31  1  0  0  0  0
  9  4  1  0  0  0  0
 10  5  1  0  0  0  0
 12 11  3  0  0  0  0
 13 14  2  0  0  0  0
 14 15  1  0  0  0  0
 14 20  1  0  0  0  0
 15 27  1  0  0  0  0
 16 21  1  0  0  0  0
 16 15  2  0  0  0  0
 17 16  1  0  0  0  0
 18 17  2  0  0  0  0
 18 13  1  0  0  0  0
 19 13  1  0  0  0  0
 22 17  1  0  0  0  0
 23 24  1  0  0  0  0
 23 18  1  0  0  0  0
 24  3  1  0  0  0  0
 25 23  2  0  0  0  0
 26 23  2  0  0  0  0
 27 30  1  0  0  0  0
 27 28  1  0  0  0  0
 29 27  1  0  0  0  0
 31 32  1  0  0  0  0
 32 35  1  0  0  0  0
 32 33  1  0  0  0  0
 34 32  1  0  0  0  0
M  END
