Coordinates from ORCA-job 4-MeO-Ph-N2-OTs-B3LYPG-6-31G_dp-MTMO-d009-169-n800
 OpenBabel09051908173D

 35 35  0  0  0  0  0  0  0  0999 V2000
    2.8510   -3.8867    0.6410 C   0  0  0  0  0  0  0  0  0  0  0  0
    1.7096   -3.9097   -0.1654 C   0  0  0  0  0  0  0  0  0  0  0  0
    1.8025   -4.3182   -1.4913 C   0  0  0  0  0  0  0  0  0  0  0  0
    3.0292   -4.7138   -2.0336 C   0  0  0  0  0  0  0  0  0  0  0  0
    4.1620   -4.7018   -1.2313 C   0  0  0  0  0  0  0  0  0  0  0  0
    4.0828   -4.2872    0.1084 C   0  0  0  0  0  0  0  0  0  0  0  0
    2.7655   -3.5558    1.6685 H   0  0  0  0  0  0  0  0  0  0  0  0
    0.7484   -3.5980    0.2289 H   0  0  0  0  0  0  0  0  0  0  0  0
    3.0802   -5.0310   -3.0679 H   0  0  0  0  0  0  0  0  0  0  0  0
    5.1274   -5.0044   -1.6225 H   0  0  0  0  0  0  0  0  0  0  0  0
   -2.7842   -2.5234   -2.9798 N   0  0  0  0  0  0  0  0  0  0  0  0
   -2.4642   -1.9465   -3.8661 N   0  0  0  0  0  0  0  0  0  0  0  0
   -0.3012   -7.2329   -0.5437 C   0  0  0  0  0  0  0  0  0  0  0  0
   -0.9344   -7.6667    0.6209 C   0  0  0  0  0  0  0  0  0  0  0  0
   -2.1421   -7.0979    1.0451 C   0  0  0  0  0  0  0  0  0  0  0  0
   -2.7134   -6.0771    0.2668 C   0  0  0  0  0  0  0  0  0  0  0  0
   -2.1002   -5.6304   -0.8990 C   0  0  0  0  0  0  0  0  0  0  0  0
   -0.8926   -6.2161   -1.2925 C   0  0  0  0  0  0  0  0  0  0  0  0
    0.6262   -7.6813   -0.8798 H   0  0  0  0  0  0  0  0  0  0  0  0
   -0.4844   -8.4644    1.2055 H   0  0  0  0  0  0  0  0  0  0  0  0
   -3.6560   -5.6337    0.5756 H   0  0  0  0  0  0  0  0  0  0  0  0
   -2.5504   -4.8513   -1.5048 H   0  0  0  0  0  0  0  0  0  0  0  0
   -0.0976   -5.6479   -2.7839 S   0  0  0  0  0  0  0  0  0  0  0  0
    0.6559   -4.2408   -2.2926 O   0  0  0  0  0  0  0  0  0  0  0  0
   -1.1023   -5.1650   -3.7202 O   0  0  0  0  0  0  0  0  0  0  0  0
    0.9216   -6.6187   -3.1724 O   0  0  0  0  0  0  0  0  0  0  0  0
   -2.8176   -7.5601    2.3133 C   0  0  0  0  0  0  0  0  0  0  0  0
   -2.7450   -6.7966    3.0978 H   0  0  0  0  0  0  0  0  0  0  0  0
   -3.8830   -7.7519    2.1490 H   0  0  0  0  0  0  0  0  0  0  0  0
   -2.3632   -8.4760    2.6983 H   0  0  0  0  0  0  0  0  0  0  0  0
    5.2577   -4.3073    0.8013 O   0  0  0  0  0  0  0  0  0  0  0  0
    5.2462   -3.8913    2.1574 C   0  0  0  0  0  0  0  0  0  0  0  0
    6.2748   -3.9831    2.5095 H   0  0  0  0  0  0  0  0  0  0  0  0
    4.9231   -2.8472    2.2587 H   0  0  0  0  0  0  0  0  0  0  0  0
    4.5975   -4.5288    2.7718 H   0  0  0  0  0  0  0  0  0  0  0  0
  1  7  1  0  0  0  0
  2  8  1  0  0  0  0
  2  1  2  0  0  0  0
  3  2  1  0  0  0  0
  4  3  2  0  0  0  0
  4  5  1  0  0  0  0
  5  6  2  0  0  0  0
  6  1  1  0  0  0  0
  6 31  1  0  0  0  0
  9  4  1  0  0  0  0
 10  5  1  0  0  0  0
 12 11  3  0  0  0  0
 13 14  2  0  0  0  0
 14 15  1  0  0  0  0
 14 20  1  0  0  0  0
 15 27  1  0  0  0  0
 16 21  1  0  0  0  0
 16 15  2  0  0  0  0
 17 16  1  0  0  0  0
 18 17  2  0  0  0  0
 18 13  1  0  0  0  0
 19 13  1  0  0  0  0
 22 17  1  0  0  0  0
 23 24  1  0  0  0  0
 23 18  1  0  0  0  0
 24  3  1  0  0  0  0
 25 23  2  0  0  0  0
 26 23  2  0  0  0  0
 27 30  1  0  0  0  0
 27 28  1  0  0  0  0
 29 27  1  0  0  0  0
 31 32  1  0  0  0  0
 32 34  1  0  0  0  0
 32 33  1  0  0  0  0
 32 35  1  0  0  0  0
M  END
