Coordinates from ORCA-job 4-MeO-Ph-N2-OTs-B3LYPG-6-31G_dp-MTMO-d009-169-n800
 OpenBabel09051908173D

 35 35  0  0  0  0  0  0  0  0999 V2000
    3.0387   -3.9698    0.7835 C   0  0  0  0  0  0  0  0  0  0  0  0
    1.8884   -3.8729   -0.0044 C   0  0  0  0  0  0  0  0  0  0  0  0
    1.9427   -4.1904   -1.3571 C   0  0  0  0  0  0  0  0  0  0  0  0
    3.1394   -4.6120   -1.9453 C   0  0  0  0  0  0  0  0  0  0  0  0
    4.2803   -4.7194   -1.1618 C   0  0  0  0  0  0  0  0  0  0  0  0
    4.2401   -4.3978    0.2049 C   0  0  0  0  0  0  0  0  0  0  0  0
    2.9839   -3.7079    1.8330 H   0  0  0  0  0  0  0  0  0  0  0  0
    0.9507   -3.5375    0.4254 H   0  0  0  0  0  0  0  0  0  0  0  0
    3.1611   -4.8566   -3.0003 H   0  0  0  0  0  0  0  0  0  0  0  0
    5.2229   -5.0449   -1.5886 H   0  0  0  0  0  0  0  0  0  0  0  0
   -4.0783   -3.4822   -3.6084 N   0  0  0  0  0  0  0  0  0  0  0  0
   -4.0234   -3.1799   -4.6697 N   0  0  0  0  0  0  0  0  0  0  0  0
   -0.2528   -6.9726   -0.5384 C   0  0  0  0  0  0  0  0  0  0  0  0
   -0.9030   -7.4626    0.5928 C   0  0  0  0  0  0  0  0  0  0  0  0
   -2.1455   -6.9522    0.9944 C   0  0  0  0  0  0  0  0  0  0  0  0
   -2.7333   -5.9360    0.2249 C   0  0  0  0  0  0  0  0  0  0  0  0
   -2.1013   -5.4309   -0.9082 C   0  0  0  0  0  0  0  0  0  0  0  0
   -0.8602   -5.9562   -1.2777 C   0  0  0  0  0  0  0  0  0  0  0  0
    0.6985   -7.3802   -0.8590 H   0  0  0  0  0  0  0  0  0  0  0  0
   -0.4409   -8.2603    1.1681 H   0  0  0  0  0  0  0  0  0  0  0  0
   -3.7042   -5.5420    0.5117 H   0  0  0  0  0  0  0  0  0  0  0  0
   -2.5693   -4.6606   -1.5117 H   0  0  0  0  0  0  0  0  0  0  0  0
   -0.0396   -5.3142   -2.7242 S   0  0  0  0  0  0  0  0  0  0  0  0
    0.7915   -3.9921   -2.1312 O   0  0  0  0  0  0  0  0  0  0  0  0
   -1.0215   -4.7103   -3.6130 O   0  0  0  0  0  0  0  0  0  0  0  0
    0.9273   -6.3032   -3.1929 O   0  0  0  0  0  0  0  0  0  0  0  0
   -2.8304   -7.4717    2.2351 C   0  0  0  0  0  0  0  0  0  0  0  0
   -2.5984   -6.8409    3.1023 H   0  0  0  0  0  0  0  0  0  0  0  0
   -3.9187   -7.4766    2.1193 H   0  0  0  0  0  0  0  0  0  0  0  0
   -2.5071   -8.4880    2.4745 H   0  0  0  0  0  0  0  0  0  0  0  0
    5.4198   -4.5308    0.8769 O   0  0  0  0  0  0  0  0  0  0  0  0
    5.4467   -4.2073    2.2578 C   0  0  0  0  0  0  0  0  0  0  0  0
    6.4730   -4.3764    2.5870 H   0  0  0  0  0  0  0  0  0  0  0  0
    5.1801   -3.1570    2.4330 H   0  0  0  0  0  0  0  0  0  0  0  0
    4.7723   -4.8499    2.8381 H   0  0  0  0  0  0  0  0  0  0  0  0
  1  7  1  0  0  0  0
  2  8  1  0  0  0  0
  2  1  2  0  0  0  0
  3  2  1  0  0  0  0
  4  3  2  0  0  0  0
  4  5  1  0  0  0  0
  5  6  2  0  0  0  0
  6  1  1  0  0  0  0
  6 31  1  0  0  0  0
  9  4  1  0  0  0  0
 10  5  1  0  0  0  0
 12 11  3  0  0  0  0
 13 14  2  0  0  0  0
 14 15  1  0  0  0  0
 14 20  1  0  0  0  0
 15 27  1  0  0  0  0
 16 21  1  0  0  0  0
 16 15  2  0  0  0  0
 17 16  1  0  0  0  0
 18 17  2  0  0  0  0
 18 13  1  0  0  0  0
 19 13  1  0  0  0  0
 22 17  1  0  0  0  0
 23 24  1  0  0  0  0
 23 18  1  0  0  0  0
 24  3  1  0  0  0  0
 25 23  2  0  0  0  0
 26 23  2  0  0  0  0
 27 30  1  0  0  0  0
 27 28  1  0  0  0  0
 29 27  1  0  0  0  0
 31 32  1  0  0  0  0
 32 34  1  0  0  0  0
 32 33  1  0  0  0  0
 32 35  1  0  0  0  0
M  END
