Coordinates from ORCA-job 4-MeO-Ph-N2-OTs-B3LYPG-6-31G_dp-MTMO-d009-169-n800
 OpenBabel09051908173D

 35 35  0  0  0  0  0  0  0  0999 V2000
    3.0134   -3.9597    0.7644 C   0  0  0  0  0  0  0  0  0  0  0  0
    1.8641   -3.8821   -0.0272 C   0  0  0  0  0  0  0  0  0  0  0  0
    1.9246   -4.2136   -1.3763 C   0  0  0  0  0  0  0  0  0  0  0  0
    3.1266   -4.6305   -1.9571 C   0  0  0  0  0  0  0  0  0  0  0  0
    4.2666   -4.7186   -1.1698 C   0  0  0  0  0  0  0  0  0  0  0  0
    4.2201   -4.3826    0.1932 C   0  0  0  0  0  0  0  0  0  0  0  0
    2.9536   -3.6871    1.8108 H   0  0  0  0  0  0  0  0  0  0  0  0
    0.9223   -3.5509    0.3969 H   0  0  0  0  0  0  0  0  0  0  0  0
    3.1530   -4.8864   -3.0092 H   0  0  0  0  0  0  0  0  0  0  0  0
    5.2132   -5.0400   -1.5909 H   0  0  0  0  0  0  0  0  0  0  0  0
   -3.9236   -3.2875   -3.5478 N   0  0  0  0  0  0  0  0  0  0  0  0
   -3.8544   -2.9434   -4.5954 N   0  0  0  0  0  0  0  0  0  0  0  0
   -0.2550   -7.0131   -0.5336 C   0  0  0  0  0  0  0  0  0  0  0  0
   -0.9028   -7.4934    0.6031 C   0  0  0  0  0  0  0  0  0  0  0  0
   -2.1428   -6.9773    1.0048 C   0  0  0  0  0  0  0  0  0  0  0  0
   -2.7307   -5.9653    0.2296 C   0  0  0  0  0  0  0  0  0  0  0  0
   -2.1014   -5.4702   -0.9093 C   0  0  0  0  0  0  0  0  0  0  0  0
   -0.8624   -6.0011   -1.2787 C   0  0  0  0  0  0  0  0  0  0  0  0
    0.6947   -7.4246   -0.8540 H   0  0  0  0  0  0  0  0  0  0  0  0
   -0.4406   -8.2878    1.1830 H   0  0  0  0  0  0  0  0  0  0  0  0
   -3.6996   -5.5668    0.5169 H   0  0  0  0  0  0  0  0  0  0  0  0
   -2.5695   -4.7027   -1.5163 H   0  0  0  0  0  0  0  0  0  0  0  0
   -0.0446   -5.3719   -2.7323 S   0  0  0  0  0  0  0  0  0  0  0  0
    0.7738   -4.0348   -2.1556 O   0  0  0  0  0  0  0  0  0  0  0  0
   -1.0297   -4.7883   -3.6310 O   0  0  0  0  0  0  0  0  0  0  0  0
    0.9315   -6.3588   -3.1858 O   0  0  0  0  0  0  0  0  0  0  0  0
   -2.8252   -7.4858    2.2514 C   0  0  0  0  0  0  0  0  0  0  0  0
   -2.5932   -6.8462    3.1122 H   0  0  0  0  0  0  0  0  0  0  0  0
   -3.9136   -7.4938    2.1371 H   0  0  0  0  0  0  0  0  0  0  0  0
   -2.4999   -8.4992    2.5002 H   0  0  0  0  0  0  0  0  0  0  0  0
    5.3994   -4.4972    0.8692 O   0  0  0  0  0  0  0  0  0  0  0  0
    5.4203   -4.1585    2.2465 C   0  0  0  0  0  0  0  0  0  0  0  0
    6.4474   -4.3142    2.5797 H   0  0  0  0  0  0  0  0  0  0  0  0
    5.1435   -3.1088    2.4097 H   0  0  0  0  0  0  0  0  0  0  0  0
    4.7507   -4.8010    2.8324 H   0  0  0  0  0  0  0  0  0  0  0  0
  1  7  1  0  0  0  0
  2  8  1  0  0  0  0
  2  1  2  0  0  0  0
  3  2  1  0  0  0  0
  4  3  2  0  0  0  0
  4  5  1  0  0  0  0
  5  6  2  0  0  0  0
  6  1  1  0  0  0  0
  6 31  1  0  0  0  0
  9  4  1  0  0  0  0
 10  5  1  0  0  0  0
 12 11  3  0  0  0  0
 13 14  2  0  0  0  0
 14 15  1  0  0  0  0
 14 20  1  0  0  0  0
 15 27  1  0  0  0  0
 16 21  1  0  0  0  0
 16 15  2  0  0  0  0
 17 16  1  0  0  0  0
 18 17  2  0  0  0  0
 18 13  1  0  0  0  0
 19 13  1  0  0  0  0
 22 17  1  0  0  0  0
 23 24  1  0  0  0  0
 23 18  1  0  0  0  0
 24  3  1  0  0  0  0
 25 23  2  0  0  0  0
 26 23  2  0  0  0  0
 27 30  1  0  0  0  0
 27 28  1  0  0  0  0
 29 27  1  0  0  0  0
 31 32  1  0  0  0  0
 32 34  1  0  0  0  0
 32 33  1  0  0  0  0
 32 35  1  0  0  0  0
M  END
