Coordinates from ORCA-job 4-MeO-Ph-N2-OTs-B3LYPG-6-31G_dp-MTMO-d009-169-n800
 OpenBabel09051908173D

 35 35  0  0  0  0  0  0  0  0999 V2000
    3.2831   -3.9638    0.6805 C   0  0  0  0  0  0  0  0  0  0  0  0
    2.3298   -3.9176   -0.3408 C   0  0  0  0  0  0  0  0  0  0  0  0
    2.6066   -4.4905   -1.5772 C   0  0  0  0  0  0  0  0  0  0  0  0
    3.8327   -5.1193   -1.8152 C   0  0  0  0  0  0  0  0  0  0  0  0
    4.7771   -5.1742   -0.7995 C   0  0  0  0  0  0  0  0  0  0  0  0
    4.5110   -4.5972    0.4531 C   0  0  0  0  0  0  0  0  0  0  0  0
    3.0569   -3.5063    1.6358 H   0  0  0  0  0  0  0  0  0  0  0  0
    1.3754   -3.4265   -0.1839 H   0  0  0  0  0  0  0  0  0  0  0  0
    4.0286   -5.5609   -2.7846 H   0  0  0  0  0  0  0  0  0  0  0  0
    5.7371   -5.6550   -0.9534 H   0  0  0  0  0  0  0  0  0  0  0  0
   -7.1485   -5.7074    0.3162 N   0  0  0  0  0  0  0  0  0  0  0  0
   -8.2489   -5.7583    0.2286 N   0  0  0  0  0  0  0  0  0  0  0  0
   -0.1313   -6.7793   -0.7408 C   0  0  0  0  0  0  0  0  0  0  0  0
   -1.0698   -6.9309    0.2785 C   0  0  0  0  0  0  0  0  0  0  0  0
   -2.2708   -6.2070    0.2747 C   0  0  0  0  0  0  0  0  0  0  0  0
   -2.5170   -5.3233   -0.7875 C   0  0  0  0  0  0  0  0  0  0  0  0
   -1.5922   -5.1555   -1.8150 C   0  0  0  0  0  0  0  0  0  0  0  0
   -0.4029   -5.8876   -1.7800 C   0  0  0  0  0  0  0  0  0  0  0  0
    0.7875   -7.3542   -0.7476 H   0  0  0  0  0  0  0  0  0  0  0  0
   -0.8690   -7.6303    1.0861 H   0  0  0  0  0  0  0  0  0  0  0  0
   -3.4507   -4.7684   -0.8146 H   0  0  0  0  0  0  0  0  0  0  0  0
   -1.7917   -4.4868   -2.6455 H   0  0  0  0  0  0  0  0  0  0  0  0
    0.7827   -5.6809   -3.0955 S   0  0  0  0  0  0  0  0  0  0  0  0
    1.6642   -4.3488   -2.6035 O   0  0  0  0  0  0  0  0  0  0  0  0
    0.1028   -5.1997   -4.2887 O   0  0  0  0  0  0  0  0  0  0  0  0
    1.6657   -6.8439   -3.1177 O   0  0  0  0  0  0  0  0  0  0  0  0
   -3.2703   -6.3629    1.3949 C   0  0  0  0  0  0  0  0  0  0  0  0
   -3.0726   -5.6410    2.1974 H   0  0  0  0  0  0  0  0  0  0  0  0
   -4.2931   -6.1913    1.0476 H   0  0  0  0  0  0  0  0  0  0  0  0
   -3.2212   -7.3619    1.8373 H   0  0  0  0  0  0  0  0  0  0  0  0
    5.5107   -4.7045    1.3752 O   0  0  0  0  0  0  0  0  0  0  0  0
    5.3069   -4.1337    2.6578 C   0  0  0  0  0  0  0  0  0  0  0  0
    6.2181   -4.3332    3.2244 H   0  0  0  0  0  0  0  0  0  0  0  0
    5.1489   -3.0491    2.5986 H   0  0  0  0  0  0  0  0  0  0  0  0
    4.4540   -4.5922    3.1749 H   0  0  0  0  0  0  0  0  0  0  0  0
  1  7  1  0  0  0  0
  2  8  1  0  0  0  0
  2  1  2  0  0  0  0
  3  2  1  0  0  0  0
  4  3  2  0  0  0  0
  4  5  1  0  0  0  0
  5  6  2  0  0  0  0
  6  1  1  0  0  0  0
  6 31  1  0  0  0  0
  9  4  1  0  0  0  0
 10  5  1  0  0  0  0
 12 11  3  0  0  0  0
 13 14  2  0  0  0  0
 14 20  1  0  0  0  0
 15 14  1  0  0  0  0
 15 27  1  0  0  0  0
 16 15  2  0  0  0  0
 17 18  2  0  0  0  0
 17 16  1  0  0  0  0
 18 13  1  0  0  0  0
 19 13  1  0  0  0  0
 21 16  1  0  0  0  0
 22 17  1  0  0  0  0
 23 24  1  0  0  0  0
 23 18  1  0  0  0  0
 24  3  1  0  0  0  0
 25 23  2  0  0  0  0
 26 23  2  0  0  0  0
 27 30  1  0  0  0  0
 27 28  1  0  0  0  0
 29 27  1  0  0  0  0
 31 32  1  0  0  0  0
 32 35  1  0  0  0  0
 32 33  1  0  0  0  0
 34 32  1  0  0  0  0
M  END
