Coordinates from ORCA-job 4-MeO-Ph-N2-OTs-B3LYPG-6-31G_dp-MTMO-d009-169-n800
 OpenBabel09051908173D

 35 35  0  0  0  0  0  0  0  0999 V2000
    3.0956   -3.9189    0.7229 C   0  0  0  0  0  0  0  0  0  0  0  0
    2.0966   -3.9150   -0.2546 C   0  0  0  0  0  0  0  0  0  0  0  0
    2.3682   -4.4003   -1.5289 C   0  0  0  0  0  0  0  0  0  0  0  0
    3.6345   -4.8996   -1.8489 C   0  0  0  0  0  0  0  0  0  0  0  0
    4.6251   -4.9136   -0.8766 C   0  0  0  0  0  0  0  0  0  0  0  0
    4.3649   -4.4225    0.4133 C   0  0  0  0  0  0  0  0  0  0  0  0
    2.8723   -3.5292    1.7085 H   0  0  0  0  0  0  0  0  0  0  0  0
    1.1095   -3.5233   -0.0342 H   0  0  0  0  0  0  0  0  0  0  0  0
    3.8259   -5.2751   -2.8467 H   0  0  0  0  0  0  0  0  0  0  0  0
    5.6166   -5.2957   -1.0939 H   0  0  0  0  0  0  0  0  0  0  0  0
   -6.0424   -3.9325   -0.6486 N   0  0  0  0  0  0  0  0  0  0  0  0
   -6.9879   -3.4126   -0.8870 N   0  0  0  0  0  0  0  0  0  0  0  0
   -0.0782   -7.0433   -0.7507 C   0  0  0  0  0  0  0  0  0  0  0  0
   -0.9349   -7.3519    0.3052 C   0  0  0  0  0  0  0  0  0  0  0  0
   -2.1788   -6.7202    0.4398 C   0  0  0  0  0  0  0  0  0  0  0  0
   -2.5561   -5.7672   -0.5203 C   0  0  0  0  0  0  0  0  0  0  0  0
   -1.7152   -5.4451   -1.5819 C   0  0  0  0  0  0  0  0  0  0  0  0
   -0.4788   -6.0880   -1.6857 C   0  0  0  0  0  0  0  0  0  0  0  0
    0.8755   -7.5458   -0.8646 H   0  0  0  0  0  0  0  0  0  0  0  0
   -0.6346   -8.1020    1.0320 H   0  0  0  0  0  0  0  0  0  0  0  0
   -3.5239   -5.2802   -0.4413 H   0  0  0  0  0  0  0  0  0  0  0  0
   -2.0139   -4.7232   -2.3344 H   0  0  0  0  0  0  0  0  0  0  0  0
    0.6007   -5.6783   -3.0440 S   0  0  0  0  0  0  0  0  0  0  0  0
    1.3706   -4.2963   -2.5065 O   0  0  0  0  0  0  0  0  0  0  0  0
   -0.1914   -5.1941   -4.1647 O   0  0  0  0  0  0  0  0  0  0  0  0
    1.5919   -6.7405   -3.1934 O   0  0  0  0  0  0  0  0  0  0  0  0
   -3.0901   -7.0436    1.5988 C   0  0  0  0  0  0  0  0  0  0  0  0
   -2.9545   -6.3237    2.4159 H   0  0  0  0  0  0  0  0  0  0  0  0
   -4.1426   -7.0027    1.3026 H   0  0  0  0  0  0  0  0  0  0  0  0
   -2.8869   -8.0389    2.0031 H   0  0  0  0  0  0  0  0  0  0  0  0
    5.4114   -4.4778    1.2867 O   0  0  0  0  0  0  0  0  0  0  0  0
    5.2175   -3.9794    2.6008 C   0  0  0  0  0  0  0  0  0  0  0  0
    6.1683   -4.1168    3.1185 H   0  0  0  0  0  0  0  0  0  0  0  0
    4.9608   -2.9123    2.5957 H   0  0  0  0  0  0  0  0  0  0  0  0
    4.4343   -4.5339    3.1337 H   0  0  0  0  0  0  0  0  0  0  0  0
  1  7  1  0  0  0  0
  2  8  1  0  0  0  0
  2  1  2  0  0  0  0
  3  2  1  0  0  0  0
  4  3  2  0  0  0  0
  4  5  1  0  0  0  0
  5  6  2  0  0  0  0
  6  1  1  0  0  0  0
  6 31  1  0  0  0  0
  9  4  1  0  0  0  0
 10  5  1  0  0  0  0
 12 11  3  0  0  0  0
 13 14  2  0  0  0  0
 14 15  1  0  0  0  0
 14 20  1  0  0  0  0
 15 27  1  0  0  0  0
 16 21  1  0  0  0  0
 16 15  2  0  0  0  0
 17 16  1  0  0  0  0
 18 17  2  0  0  0  0
 18 13  1  0  0  0  0
 19 13  1  0  0  0  0
 22 17  1  0  0  0  0
 23 24  1  0  0  0  0
 23 18  1  0  0  0  0
 24  3  1  0  0  0  0
 25 23  2  0  0  0  0
 26 23  2  0  0  0  0
 27 30  1  0  0  0  0
 27 28  1  0  0  0  0
 29 27  1  0  0  0  0
 31 32  1  0  0  0  0
 32 33  1  0  0  0  0
 32 35  1  0  0  0  0
 34 32  1  0  0  0  0
M  END
