Coordinates from ORCA-job 4-MeO-Ph-N2-OTs-B3LYPG-6-31G_dp-MTMO-d009-169-n800
 OpenBabel09051908173D

 35 35  0  0  0  0  0  0  0  0999 V2000
    3.1228   -3.9184    0.7076 C   0  0  0  0  0  0  0  0  0  0  0  0
    2.1437   -3.9102   -0.2898 C   0  0  0  0  0  0  0  0  0  0  0  0
    2.4293   -4.4253   -1.5493 C   0  0  0  0  0  0  0  0  0  0  0  0
    3.6901   -4.9585   -1.8345 C   0  0  0  0  0  0  0  0  0  0  0  0
    4.6607   -4.9766   -0.8424 C   0  0  0  0  0  0  0  0  0  0  0  0
    4.3861   -4.4563    0.4330 C   0  0  0  0  0  0  0  0  0  0  0  0
    2.8889   -3.5058    1.6813 H   0  0  0  0  0  0  0  0  0  0  0  0
    1.1615   -3.4926   -0.0965 H   0  0  0  0  0  0  0  0  0  0  0  0
    3.8926   -5.3564   -2.8214 H   0  0  0  0  0  0  0  0  0  0  0  0
    5.6475   -5.3845   -1.0327 H   0  0  0  0  0  0  0  0  0  0  0  0
   -6.2493   -4.3342   -0.2903 N   0  0  0  0  0  0  0  0  0  0  0  0
   -7.2421   -3.8753   -0.4481 N   0  0  0  0  0  0  0  0  0  0  0  0
   -0.0820   -6.9924   -0.7618 C   0  0  0  0  0  0  0  0  0  0  0  0
   -0.9638   -7.2631    0.2830 C   0  0  0  0  0  0  0  0  0  0  0  0
   -2.2016   -6.6106    0.3766 C   0  0  0  0  0  0  0  0  0  0  0  0
   -2.5449   -5.6768   -0.6135 C   0  0  0  0  0  0  0  0  0  0  0  0
   -1.6779   -5.3918   -1.6656 C   0  0  0  0  0  0  0  0  0  0  0  0
   -0.4496   -6.0541   -1.7282 C   0  0  0  0  0  0  0  0  0  0  0  0
    0.8663   -7.5108   -0.8444 H   0  0  0  0  0  0  0  0  0  0  0  0
   -0.6892   -7.9999    1.0334 H   0  0  0  0  0  0  0  0  0  0  0  0
   -3.5076   -5.1762   -0.5642 H   0  0  0  0  0  0  0  0  0  0  0  0
   -1.9511   -4.6844   -2.4412 H   0  0  0  0  0  0  0  0  0  0  0  0
    0.6631   -5.6935   -3.0736 S   0  0  0  0  0  0  0  0  0  0  0  0
    1.4538   -4.3183   -2.5487 O   0  0  0  0  0  0  0  0  0  0  0  0
   -0.0978   -5.2144   -4.2178 O   0  0  0  0  0  0  0  0  0  0  0  0
    1.6333   -6.7795   -3.1841 O   0  0  0  0  0  0  0  0  0  0  0  0
   -3.1388   -6.8945    1.5253 C   0  0  0  0  0  0  0  0  0  0  0  0
   -2.9050   -6.2572    2.3871 H   0  0  0  0  0  0  0  0  0  0  0  0
   -4.1791   -6.7002    1.2495 H   0  0  0  0  0  0  0  0  0  0  0  0
   -3.0600   -7.9333    1.8589 H   0  0  0  0  0  0  0  0  0  0  0  0
    5.4134   -4.5191    1.3284 O   0  0  0  0  0  0  0  0  0  0  0  0
    5.2045   -3.9936    2.6294 C   0  0  0  0  0  0  0  0  0  0  0  0
    6.1412   -4.1437    3.1690 H   0  0  0  0  0  0  0  0  0  0  0  0
    4.9727   -2.9211    2.6009 H   0  0  0  0  0  0  0  0  0  0  0  0
    4.3978   -4.5206    3.1553 H   0  0  0  0  0  0  0  0  0  0  0  0
  1  7  1  0  0  0  0
  2  8  1  0  0  0  0
  2  1  2  0  0  0  0
  3  2  1  0  0  0  0
  4  3  2  0  0  0  0
  4  5  1  0  0  0  0
  5  6  2  0  0  0  0
  6  1  1  0  0  0  0
  6 31  1  0  0  0  0
  9  4  1  0  0  0  0
 10  5  1  0  0  0  0
 12 11  3  0  0  0  0
 13 14  2  0  0  0  0
 14 15  1  0  0  0  0
 14 20  1  0  0  0  0
 15 27  1  0  0  0  0
 16 21  1  0  0  0  0
 16 15  2  0  0  0  0
 17 16  1  0  0  0  0
 18 17  2  0  0  0  0
 18 13  1  0  0  0  0
 19 13  1  0  0  0  0
 22 17  1  0  0  0  0
 23 24  1  0  0  0  0
 23 18  1  0  0  0  0
 24  3  1  0  0  0  0
 25 23  2  0  0  0  0
 26 23  2  0  0  0  0
 27 30  1  0  0  0  0
 27 28  1  0  0  0  0
 29 27  1  0  0  0  0
 31 32  1  0  0  0  0
 32 35  1  0  0  0  0
 32 33  1  0  0  0  0
 34 32  1  0  0  0  0
M  END
