Coordinates from ORCA-job 4-MeO-Ph-N2-OTs-B3LYPG-6-31G_dp-MTMO-d009-169-n800
 OpenBabel09051908173D

 35 35  0  0  0  0  0  0  0  0999 V2000
    2.7171   -3.8192    0.5380 C   0  0  0  0  0  0  0  0  0  0  0  0
    1.5902   -3.8916   -0.2855 C   0  0  0  0  0  0  0  0  0  0  0  0
    1.7077   -4.3740   -1.5843 C   0  0  0  0  0  0  0  0  0  0  0  0
    2.9446   -4.7956   -2.0821 C   0  0  0  0  0  0  0  0  0  0  0  0
    4.0630   -4.7347   -1.2619 C   0  0  0  0  0  0  0  0  0  0  0  0
    3.9591   -4.2449    0.0504 C   0  0  0  0  0  0  0  0  0  0  0  0
    2.6129   -3.4322    1.5439 H   0  0  0  0  0  0  0  0  0  0  0  0
    0.6211   -3.5615    0.0729 H   0  0  0  0  0  0  0  0  0  0  0  0
    3.0143   -5.1697   -3.0961 H   0  0  0  0  0  0  0  0  0  0  0  0
    5.0360   -5.0551   -1.6185 H   0  0  0  0  0  0  0  0  0  0  0  0
   -1.7243   -2.2176   -2.3450 N   0  0  0  0  0  0  0  0  0  0  0  0
   -1.4044   -1.5907   -3.1968 N   0  0  0  0  0  0  0  0  0  0  0  0
   -0.3180   -7.3125   -0.5643 C   0  0  0  0  0  0  0  0  0  0  0  0
   -0.9274   -7.7258    0.6201 C   0  0  0  0  0  0  0  0  0  0  0  0
   -2.1302   -7.1545    1.0550 C   0  0  0  0  0  0  0  0  0  0  0  0
   -2.7212   -6.1529    0.2669 C   0  0  0  0  0  0  0  0  0  0  0  0
   -2.1314   -5.7270   -0.9186 C   0  0  0  0  0  0  0  0  0  0  0  0
   -0.9281   -6.3138   -1.3226 C   0  0  0  0  0  0  0  0  0  0  0  0
    0.6055   -7.7631   -0.9083 H   0  0  0  0  0  0  0  0  0  0  0  0
   -0.4624   -8.5092    1.2124 H   0  0  0  0  0  0  0  0  0  0  0  0
   -3.6605   -5.7081    0.5838 H   0  0  0  0  0  0  0  0  0  0  0  0
   -2.5955   -4.9617   -1.5312 H   0  0  0  0  0  0  0  0  0  0  0  0
   -0.1666   -5.7765   -2.8430 S   0  0  0  0  0  0  0  0  0  0  0  0
    0.5754   -4.3446   -2.4077 O   0  0  0  0  0  0  0  0  0  0  0  0
   -1.1925   -5.3333   -3.7753 O   0  0  0  0  0  0  0  0  0  0  0  0
    0.8604   -6.7437   -3.2200 O   0  0  0  0  0  0  0  0  0  0  0  0
   -2.7772   -7.5921    2.3465 C   0  0  0  0  0  0  0  0  0  0  0  0
   -2.6529   -6.8293    3.1254 H   0  0  0  0  0  0  0  0  0  0  0  0
   -3.8530   -7.7504    2.2193 H   0  0  0  0  0  0  0  0  0  0  0  0
   -2.3386   -8.5205    2.7197 H   0  0  0  0  0  0  0  0  0  0  0  0
    5.1217   -4.2214    0.7636 O   0  0  0  0  0  0  0  0  0  0  0  0
    5.0865   -3.7237    2.0917 C   0  0  0  0  0  0  0  0  0  0  0  0
    6.1096   -3.7894    2.4653 H   0  0  0  0  0  0  0  0  0  0  0  0
    4.7582   -2.6769    2.1236 H   0  0  0  0  0  0  0  0  0  0  0  0
    4.4300   -4.3256    2.7332 H   0  0  0  0  0  0  0  0  0  0  0  0
  1  7  1  0  0  0  0
  2  8  1  0  0  0  0
  2  1  2  0  0  0  0
  3  2  1  0  0  0  0
  4  3  2  0  0  0  0
  4  5  1  0  0  0  0
  5  6  2  0  0  0  0
  6  1  1  0  0  0  0
  6 31  1  0  0  0  0
  9  4  1  0  0  0  0
 10  5  1  0  0  0  0
 12 11  3  0  0  0  0
 13 14  2  0  0  0  0
 14 15  1  0  0  0  0
 14 20  1  0  0  0  0
 15 27  1  0  0  0  0
 16 21  1  0  0  0  0
 16 15  2  0  0  0  0
 17 16  1  0  0  0  0
 18 17  2  0  0  0  0
 18 13  1  0  0  0  0
 19 13  1  0  0  0  0
 22 17  1  0  0  0  0
 23 24  1  0  0  0  0
 23 18  1  0  0  0  0
 24  3  1  0  0  0  0
 25 23  2  0  0  0  0
 26 23  2  0  0  0  0
 27 30  1  0  0  0  0
 27 28  1  0  0  0  0
 29 27  1  0  0  0  0
 31 32  1  0  0  0  0
 32 34  1  0  0  0  0
 32 33  1  0  0  0  0
 32 35  1  0  0  0  0
M  END
