Coordinates from ORCA-job 4-MeO-Ph-N2-OTs-B3LYPG-6-31G_dp-MTMO-d009-169-n800
 OpenBabel09051908173D

 35 35  0  0  0  0  0  0  0  0999 V2000
    3.0921   -3.9431    0.7610 C   0  0  0  0  0  0  0  0  0  0  0  0
    2.0399   -3.8982   -0.1579 C   0  0  0  0  0  0  0  0  0  0  0  0
    2.2422   -4.3157   -1.4687 C   0  0  0  0  0  0  0  0  0  0  0  0
    3.4913   -4.7875   -1.8839 C   0  0  0  0  0  0  0  0  0  0  0  0
    4.5349   -4.8423   -0.9702 C   0  0  0  0  0  0  0  0  0  0  0  0
    4.3448   -4.4196    0.3557 C   0  0  0  0  0  0  0  0  0  0  0  0
    2.9225   -3.6049    1.7758 H   0  0  0  0  0  0  0  0  0  0  0  0
    1.0644   -3.5267    0.1370 H   0  0  0  0  0  0  0  0  0  0  0  0
    3.6285   -5.1107   -2.9086 H   0  0  0  0  0  0  0  0  0  0  0  0
    5.5149   -5.2045   -1.2618 H   0  0  0  0  0  0  0  0  0  0  0  0
   -5.5486   -3.8329   -1.6837 N   0  0  0  0  0  0  0  0  0  0  0  0
   -6.3561   -3.4079   -2.3069 N   0  0  0  0  0  0  0  0  0  0  0  0
   -0.1256   -7.0221   -0.6968 C   0  0  0  0  0  0  0  0  0  0  0  0
   -0.9140   -7.3968    0.3906 C   0  0  0  0  0  0  0  0  0  0  0  0
   -2.1543   -6.7912    0.6312 C   0  0  0  0  0  0  0  0  0  0  0  0
   -2.5988   -5.7957   -0.2542 C   0  0  0  0  0  0  0  0  0  0  0  0
   -1.8274   -5.4072   -1.3449 C   0  0  0  0  0  0  0  0  0  0  0  0
   -0.5920   -6.0261   -1.5548 C   0  0  0  0  0  0  0  0  0  0  0  0
    0.8259   -7.5034   -0.8923 H   0  0  0  0  0  0  0  0  0  0  0  0
   -0.5615   -8.1785    1.0582 H   0  0  0  0  0  0  0  0  0  0  0  0
   -3.5654   -5.3258   -0.0962 H   0  0  0  0  0  0  0  0  0  0  0  0
   -2.1799   -4.6512   -2.0384 H   0  0  0  0  0  0  0  0  0  0  0  0
    0.4016   -5.5299   -2.9493 S   0  0  0  0  0  0  0  0  0  0  0  0
    1.1901   -4.1706   -2.3820 O   0  0  0  0  0  0  0  0  0  0  0  0
   -0.4594   -4.9944   -3.9931 O   0  0  0  0  0  0  0  0  0  0  0  0
    1.3913   -6.5704   -3.2148 O   0  0  0  0  0  0  0  0  0  0  0  0
   -2.9943   -7.1873    1.8209 C   0  0  0  0  0  0  0  0  0  0  0  0
   -2.9126   -6.4435    2.6237 H   0  0  0  0  0  0  0  0  0  0  0  0
   -4.0535   -7.2593    1.5548 H   0  0  0  0  0  0  0  0  0  0  0  0
   -2.6796   -8.1502    2.2311 H   0  0  0  0  0  0  0  0  0  0  0  0
    5.4393   -4.5099    1.1651 O   0  0  0  0  0  0  0  0  0  0  0  0
    5.3155   -4.0879    2.5137 C   0  0  0  0  0  0  0  0  0  0  0  0
    6.2952   -4.2419    2.9689 H   0  0  0  0  0  0  0  0  0  0  0  0
    5.0493   -3.0252    2.5837 H   0  0  0  0  0  0  0  0  0  0  0  0
    4.5691   -4.6809    3.0577 H   0  0  0  0  0  0  0  0  0  0  0  0
  1  7  1  0  0  0  0
  2  8  1  0  0  0  0
  2  1  2  0  0  0  0
  3  2  1  0  0  0  0
  4  3  2  0  0  0  0
  4  5  1  0  0  0  0
  5  6  2  0  0  0  0
  6  1  1  0  0  0  0
  6 31  1  0  0  0  0
  9  4  1  0  0  0  0
 10  5  1  0  0  0  0
 12 11  3  0  0  0  0
 13 14  2  0  0  0  0
 14 15  1  0  0  0  0
 14 20  1  0  0  0  0
 15 27  1  0  0  0  0
 16 21  1  0  0  0  0
 16 15  2  0  0  0  0
 17 16  1  0  0  0  0
 18 17  2  0  0  0  0
 18 13  1  0  0  0  0
 19 13  1  0  0  0  0
 22 17  1  0  0  0  0
 23 24  1  0  0  0  0
 23 18  1  0  0  0  0
 24  3  1  0  0  0  0
 25 23  2  0  0  0  0
 26 23  2  0  0  0  0
 27 30  1  0  0  0  0
 27 28  1  0  0  0  0
 29 27  1  0  0  0  0
 31 32  1  0  0  0  0
 32 34  1  0  0  0  0
 32 33  1  0  0  0  0
 32 35  1  0  0  0  0
M  END
