Coordinates from ORCA-job 4-MeO-Ph-N2-OTs-B3LYPG-6-31G_dp-MTMO-d009-169-n800
 OpenBabel09051908173D

 35 35  0  0  0  0  0  0  0  0999 V2000
    3.5664   -4.0132    0.6383 C   0  0  0  0  0  0  0  0  0  0  0  0
    2.6110   -3.9022   -0.3761 C   0  0  0  0  0  0  0  0  0  0  0  0
    2.8252   -4.5192   -1.6036 C   0  0  0  0  0  0  0  0  0  0  0  0
    3.9888   -5.2578   -1.8393 C   0  0  0  0  0  0  0  0  0  0  0  0
    4.9349   -5.3760   -0.8306 C   0  0  0  0  0  0  0  0  0  0  0  0
    4.7324   -4.7547    0.4127 C   0  0  0  0  0  0  0  0  0  0  0  0
    3.3904   -3.5203    1.5866 H   0  0  0  0  0  0  0  0  0  0  0  0
    1.7044   -3.3270   -0.2208 H   0  0  0  0  0  0  0  0  0  0  0  0
    4.1356   -5.7327   -2.8017 H   0  0  0  0  0  0  0  0  0  0  0  0
    5.8483   -5.9409   -0.9833 H   0  0  0  0  0  0  0  0  0  0  0  0
   -9.7074   -8.2833    0.5114 N   0  0  0  0  0  0  0  0  0  0  0  0
  -10.6554   -8.8019    0.2794 N   0  0  0  0  0  0  0  0  0  0  0  0
   -0.1560   -6.4981   -0.7039 C   0  0  0  0  0  0  0  0  0  0  0  0
   -1.0984   -6.5057    0.3241 C   0  0  0  0  0  0  0  0  0  0  0  0
   -2.1957   -5.6346    0.3096 C   0  0  0  0  0  0  0  0  0  0  0  0
   -2.3309   -4.7441   -0.7680 C   0  0  0  0  0  0  0  0  0  0  0  0
   -1.4024   -4.7203   -1.8038 C   0  0  0  0  0  0  0  0  0  0  0  0
   -0.3185   -5.6017   -1.7601 C   0  0  0  0  0  0  0  0  0  0  0  0
    0.6852   -7.1823   -0.6992 H   0  0  0  0  0  0  0  0  0  0  0  0
   -0.9799   -7.2034    1.1490 H   0  0  0  0  0  0  0  0  0  0  0  0
   -3.1792   -4.0650   -0.7973 H   0  0  0  0  0  0  0  0  0  0  0  0
   -1.5155   -4.0430   -2.6436 H   0  0  0  0  0  0  0  0  0  0  0  0
    0.8819   -5.5651   -3.0784 S   0  0  0  0  0  0  0  0  0  0  0  0
    1.8911   -4.3129   -2.6267 O   0  0  0  0  0  0  0  0  0  0  0  0
    0.2544   -5.0584   -4.2897 O   0  0  0  0  0  0  0  0  0  0  0  0
    1.6416   -6.8119   -3.0576 O   0  0  0  0  0  0  0  0  0  0  0  0
   -3.2287   -5.6668    1.4097 C   0  0  0  0  0  0  0  0  0  0  0  0
   -3.5330   -4.6571    1.7017 H   0  0  0  0  0  0  0  0  0  0  0  0
   -4.1328   -6.1935    1.0810 H   0  0  0  0  0  0  0  0  0  0  0  0
   -2.8531   -6.1802    2.2986 H   0  0  0  0  0  0  0  0  0  0  0  0
    5.7289   -4.9305    1.3278 O   0  0  0  0  0  0  0  0  0  0  0  0
    5.5873   -4.3226    2.6016 C   0  0  0  0  0  0  0  0  0  0  0  0
    6.4857   -4.5858    3.1626 H   0  0  0  0  0  0  0  0  0  0  0  0
    5.5172   -3.2299    2.5241 H   0  0  0  0  0  0  0  0  0  0  0  0
    4.7059   -4.7010    3.1358 H   0  0  0  0  0  0  0  0  0  0  0  0
  1  7  1  0  0  0  0
  2  8  1  0  0  0  0
  2  1  2  0  0  0  0
  3  2  1  0  0  0  0
  4  3  2  0  0  0  0
  4  5  1  0  0  0  0
  5  6  2  0  0  0  0
  6  1  1  0  0  0  0
  6 31  1  0  0  0  0
  9  4  1  0  0  0  0
 10  5  1  0  0  0  0
 12 11  3  0  0  0  0
 13 19  1  0  0  0  0
 13 14  2  0  0  0  0
 14 20  1  0  0  0  0
 15 14  1  0  0  0  0
 15 27  1  0  0  0  0
 16 15  2  0  0  0  0
 17 18  2  0  0  0  0
 17 16  1  0  0  0  0
 18 13  1  0  0  0  0
 21 16  1  0  0  0  0
 22 17  1  0  0  0  0
 23 26  2  0  0  0  0
 23 24  1  0  0  0  0
 23 18  1  0  0  0  0
 24  3  1  0  0  0  0
 25 23  2  0  0  0  0
 27 28  1  0  0  0  0
 27 30  1  0  0  0  0
 29 27  1  0  0  0  0
 31 32  1  0  0  0  0
 32 35  1  0  0  0  0
 32 33  1  0  0  0  0
 34 32  1  0  0  0  0
M  END
