Coordinates from ORCA-job 4-MeO-Ph-N2-OTs-B3LYPG-6-31G_dp-MTMO-d009-169-n800
 OpenBabel09051908173D

 35 35  0  0  0  0  0  0  0  0999 V2000
    3.0857   -3.9150    0.7199 C   0  0  0  0  0  0  0  0  0  0  0  0
    2.0892   -3.9132   -0.2600 C   0  0  0  0  0  0  0  0  0  0  0  0
    2.3637   -4.4019   -1.5324 C   0  0  0  0  0  0  0  0  0  0  0  0
    3.6306   -4.9027   -1.8480 C   0  0  0  0  0  0  0  0  0  0  0  0
    4.6187   -4.9145   -0.8732 C   0  0  0  0  0  0  0  0  0  0  0  0
    4.3555   -4.4200    0.4148 C   0  0  0  0  0  0  0  0  0  0  0  0
    2.8601   -3.5228    1.7039 H   0  0  0  0  0  0  0  0  0  0  0  0
    1.1016   -3.5207   -0.0431 H   0  0  0  0  0  0  0  0  0  0  0  0
    3.8243   -5.2807   -2.8443 H   0  0  0  0  0  0  0  0  0  0  0  0
    5.6107   -5.2976   -1.0870 H   0  0  0  0  0  0  0  0  0  0  0  0
   -6.0035   -3.9120   -0.6357 N   0  0  0  0  0  0  0  0  0  0  0  0
   -6.9454   -3.3858   -0.8748 N   0  0  0  0  0  0  0  0  0  0  0  0
   -0.0792   -7.0554   -0.7599 C   0  0  0  0  0  0  0  0  0  0  0  0
   -0.9340   -7.3641    0.2975 C   0  0  0  0  0  0  0  0  0  0  0  0
   -2.1734   -6.7254    0.4399 C   0  0  0  0  0  0  0  0  0  0  0  0
   -2.5483   -5.7653   -0.5141 C   0  0  0  0  0  0  0  0  0  0  0  0
   -1.7095   -5.4434   -1.5773 C   0  0  0  0  0  0  0  0  0  0  0  0
   -0.4774   -6.0934   -1.6888 C   0  0  0  0  0  0  0  0  0  0  0  0
    0.8712   -7.5628   -0.8796 H   0  0  0  0  0  0  0  0  0  0  0  0
   -0.6357   -8.1197    1.0195 H   0  0  0  0  0  0  0  0  0  0  0  0
   -3.5123   -5.2719   -0.4291 H   0  0  0  0  0  0  0  0  0  0  0  0
   -2.0066   -4.7159   -2.3251 H   0  0  0  0  0  0  0  0  0  0  0  0
    0.5998   -5.6831   -3.0488 S   0  0  0  0  0  0  0  0  0  0  0  0
    1.3685   -4.3001   -2.5127 O   0  0  0  0  0  0  0  0  0  0  0  0
   -0.1942   -5.2001   -4.1687 O   0  0  0  0  0  0  0  0  0  0  0  0
    1.5919   -6.7444   -3.1992 O   0  0  0  0  0  0  0  0  0  0  0  0
   -3.0825   -7.0488    1.6006 C   0  0  0  0  0  0  0  0  0  0  0  0
   -2.9431   -6.3310    2.4188 H   0  0  0  0  0  0  0  0  0  0  0  0
   -4.1357   -7.0047    1.3072 H   0  0  0  0  0  0  0  0  0  0  0  0
   -2.8808   -8.0455    2.0023 H   0  0  0  0  0  0  0  0  0  0  0  0
    5.3999   -4.4733    1.2910 O   0  0  0  0  0  0  0  0  0  0  0  0
    5.2029   -3.9715    2.6032 C   0  0  0  0  0  0  0  0  0  0  0  0
    6.1523   -4.1080    3.1237 H   0  0  0  0  0  0  0  0  0  0  0  0
    4.9468   -2.9042    2.5947 H   0  0  0  0  0  0  0  0  0  0  0  0
    4.4180   -4.5242    3.1356 H   0  0  0  0  0  0  0  0  0  0  0  0
  1  7  1  0  0  0  0
  2  8  1  0  0  0  0
  2  1  2  0  0  0  0
  3  2  1  0  0  0  0
  4  3  2  0  0  0  0
  4  5  1  0  0  0  0
  5  6  2  0  0  0  0
  6  1  1  0  0  0  0
  6 31  1  0  0  0  0
  9  4  1  0  0  0  0
 10  5  1  0  0  0  0
 12 11  3  0  0  0  0
 13 14  2  0  0  0  0
 14 15  1  0  0  0  0
 14 20  1  0  0  0  0
 15 27  1  0  0  0  0
 16 21  1  0  0  0  0
 16 15  2  0  0  0  0
 17 16  1  0  0  0  0
 18 17  2  0  0  0  0
 18 13  1  0  0  0  0
 19 13  1  0  0  0  0
 22 17  1  0  0  0  0
 23 24  1  0  0  0  0
 23 18  1  0  0  0  0
 24  3  1  0  0  0  0
 25 23  2  0  0  0  0
 26 23  2  0  0  0  0
 27 30  1  0  0  0  0
 27 28  1  0  0  0  0
 29 27  1  0  0  0  0
 31 32  1  0  0  0  0
 32 33  1  0  0  0  0
 32 35  1  0  0  0  0
 34 32  1  0  0  0  0
M  END
