Coordinates from ORCA-job 4-MeO-Ph-N2-OTs-B3LYPG-6-31G_dp-MTMO-d009-169-n800
 OpenBabel09051908173D

 35 35  0  0  0  0  0  0  0  0999 V2000
    2.6269   -3.8084    0.4884 C   0  0  0  0  0  0  0  0  0  0  0  0
    1.4908   -3.9378   -0.3153 C   0  0  0  0  0  0  0  0  0  0  0  0
    1.6095   -4.4194   -1.6146 C   0  0  0  0  0  0  0  0  0  0  0  0
    2.8569   -4.7848   -2.1312 C   0  0  0  0  0  0  0  0  0  0  0  0
    3.9846   -4.6674   -1.3304 C   0  0  0  0  0  0  0  0  0  0  0  0
    3.8793   -4.1772   -0.0184 C   0  0  0  0  0  0  0  0  0  0  0  0
    2.5214   -3.4217    1.4942 H   0  0  0  0  0  0  0  0  0  0  0  0
    0.5143   -3.6482    0.0567 H   0  0  0  0  0  0  0  0  0  0  0  0
    2.9276   -5.1596   -3.1447 H   0  0  0  0  0  0  0  0  0  0  0  0
    4.9655   -4.9434   -1.7021 H   0  0  0  0  0  0  0  0  0  0  0  0
   -0.5568   -1.4810   -1.9203 N   0  0  0  0  0  0  0  0  0  0  0  0
   -0.3355   -1.0251   -2.9023 N   0  0  0  0  0  0  0  0  0  0  0  0
   -0.3198   -7.3563   -0.4913 C   0  0  0  0  0  0  0  0  0  0  0  0
   -0.9308   -7.7572    0.6964 C   0  0  0  0  0  0  0  0  0  0  0  0
   -2.1850   -7.2586    1.0721 C   0  0  0  0  0  0  0  0  0  0  0  0
   -2.8269   -6.3449    0.2197 C   0  0  0  0  0  0  0  0  0  0  0  0
   -2.2357   -5.9329   -0.9702 C   0  0  0  0  0  0  0  0  0  0  0  0
   -0.9805   -6.4440   -1.3138 C   0  0  0  0  0  0  0  0  0  0  0  0
    0.6433   -7.7537   -0.7891 H   0  0  0  0  0  0  0  0  0  0  0  0
   -0.4259   -8.4739    1.3386 H   0  0  0  0  0  0  0  0  0  0  0  0
   -3.8063   -5.9596    0.4890 H   0  0  0  0  0  0  0  0  0  0  0  0
   -2.7403   -5.2415   -1.6367 H   0  0  0  0  0  0  0  0  0  0  0  0
   -0.2165   -5.9154   -2.8356 S   0  0  0  0  0  0  0  0  0  0  0  0
    0.4642   -4.4473   -2.4210 O   0  0  0  0  0  0  0  0  0  0  0  0
   -1.2456   -5.5357   -3.7917 O   0  0  0  0  0  0  0  0  0  0  0  0
    0.8523   -6.8510   -3.1741 O   0  0  0  0  0  0  0  0  0  0  0  0
   -2.8337   -7.6809    2.3679 C   0  0  0  0  0  0  0  0  0  0  0  0
   -2.7652   -6.8834    3.1186 H   0  0  0  0  0  0  0  0  0  0  0  0
   -3.8967   -7.9010    2.2278 H   0  0  0  0  0  0  0  0  0  0  0  0
   -2.3541   -8.5696    2.7850 H   0  0  0  0  0  0  0  0  0  0  0  0
    5.0513   -4.0952    0.6752 O   0  0  0  0  0  0  0  0  0  0  0  0
    5.0148   -3.5891    2.0002 C   0  0  0  0  0  0  0  0  0  0  0  0
    6.0460   -3.6028    2.3563 H   0  0  0  0  0  0  0  0  0  0  0  0
    4.6373   -2.5590    2.0300 H   0  0  0  0  0  0  0  0  0  0  0  0
    4.3989   -4.2164    2.6574 H   0  0  0  0  0  0  0  0  0  0  0  0
  1  7  1  0  0  0  0
  2  8  1  0  0  0  0
  2  1  2  0  0  0  0
  3  2  1  0  0  0  0
  4  3  2  0  0  0  0
  4  5  1  0  0  0  0
  5  6  2  0  0  0  0
  6  1  1  0  0  0  0
  6 31  1  0  0  0  0
  9  4  1  0  0  0  0
 10  5  1  0  0  0  0
 12 11  3  0  0  0  0
 13 14  2  0  0  0  0
 14 15  1  0  0  0  0
 14 20  1  0  0  0  0
 15 27  1  0  0  0  0
 16 21  1  0  0  0  0
 16 15  2  0  0  0  0
 17 16  1  0  0  0  0
 18 17  2  0  0  0  0
 18 13  1  0  0  0  0
 19 13  1  0  0  0  0
 22 17  1  0  0  0  0
 23 24  1  0  0  0  0
 23 18  1  0  0  0  0
 24  3  1  0  0  0  0
 25 23  2  0  0  0  0
 26 23  2  0  0  0  0
 27 30  1  0  0  0  0
 27 28  1  0  0  0  0
 29 27  1  0  0  0  0
 31 32  1  0  0  0  0
 32 34  1  0  0  0  0
 32 33  1  0  0  0  0
 32 35  1  0  0  0  0
M  END
