Coordinates from ORCA-job 4-MeO-Ph-N2-OTs-B3LYPG-6-31G_dp-MTMO-d009-169-n800
 OpenBabel09051908173D

 35 35  0  0  0  0  0  0  0  0999 V2000
    3.0102   -3.9577    0.7624 C   0  0  0  0  0  0  0  0  0  0  0  0
    1.8619   -3.8802   -0.0307 C   0  0  0  0  0  0  0  0  0  0  0  0
    1.9236   -4.2145   -1.3790 C   0  0  0  0  0  0  0  0  0  0  0  0
    3.1256   -4.6340   -1.9576 C   0  0  0  0  0  0  0  0  0  0  0  0
    4.2647   -4.7220   -1.1689 C   0  0  0  0  0  0  0  0  0  0  0  0
    4.2170   -4.3833    0.1934 C   0  0  0  0  0  0  0  0  0  0  0  0
    2.9495   -3.6830    1.8082 H   0  0  0  0  0  0  0  0  0  0  0  0
    0.9200   -3.5470    0.3917 H   0  0  0  0  0  0  0  0  0  0  0  0
    3.1530   -4.8919   -3.0092 H   0  0  0  0  0  0  0  0  0  0  0  0
    5.2113   -5.0454   -1.5883 H   0  0  0  0  0  0  0  0  0  0  0  0
   -3.9101   -3.2882   -3.5315 N   0  0  0  0  0  0  0  0  0  0  0  0
   -3.8448   -2.9422   -4.5787 N   0  0  0  0  0  0  0  0  0  0  0  0
   -0.2545   -7.0144   -0.5364 C   0  0  0  0  0  0  0  0  0  0  0  0
   -0.9016   -7.4943    0.6009 C   0  0  0  0  0  0  0  0  0  0  0  0
   -2.1407   -6.9770    1.0039 C   0  0  0  0  0  0  0  0  0  0  0  0
   -2.7283   -5.9641    0.2297 C   0  0  0  0  0  0  0  0  0  0  0  0
   -2.0997   -5.4694   -0.9096 C   0  0  0  0  0  0  0  0  0  0  0  0
   -0.8617   -6.0016   -1.2805 C   0  0  0  0  0  0  0  0  0  0  0  0
    0.6945   -7.4268   -0.8579 H   0  0  0  0  0  0  0  0  0  0  0  0
   -0.4397   -8.2893    1.1801 H   0  0  0  0  0  0  0  0  0  0  0  0
   -3.6965   -5.5647    0.5182 H   0  0  0  0  0  0  0  0  0  0  0  0
   -2.5671   -4.7013   -1.5164 H   0  0  0  0  0  0  0  0  0  0  0  0
   -0.0453   -5.3728   -2.7351 S   0  0  0  0  0  0  0  0  0  0  0  0
    0.7738   -4.0357   -2.1596 O   0  0  0  0  0  0  0  0  0  0  0  0
   -1.0314   -4.7888   -3.6326 O   0  0  0  0  0  0  0  0  0  0  0  0
    0.9302   -6.3598   -3.1899 O   0  0  0  0  0  0  0  0  0  0  0  0
   -2.8223   -7.4852    2.2512 C   0  0  0  0  0  0  0  0  0  0  0  0
   -2.5888   -6.8460    3.1118 H   0  0  0  0  0  0  0  0  0  0  0  0
   -3.9108   -7.4920    2.1380 H   0  0  0  0  0  0  0  0  0  0  0  0
   -2.4977   -8.4990    2.4993 H   0  0  0  0  0  0  0  0  0  0  0  0
    5.3954   -4.4981    0.8710 O   0  0  0  0  0  0  0  0  0  0  0  0
    5.4151   -4.1568    2.2477 C   0  0  0  0  0  0  0  0  0  0  0  0
    6.4417   -4.3132    2.5824 H   0  0  0  0  0  0  0  0  0  0  0  0
    5.1395   -3.1065    2.4086 H   0  0  0  0  0  0  0  0  0  0  0  0
    4.7440   -4.7973    2.8340 H   0  0  0  0  0  0  0  0  0  0  0  0
  1  7  1  0  0  0  0
  2  8  1  0  0  0  0
  2  1  2  0  0  0  0
  3  2  1  0  0  0  0
  4  3  2  0  0  0  0
  4  5  1  0  0  0  0
  5  6  2  0  0  0  0
  6  1  1  0  0  0  0
  6 31  1  0  0  0  0
  9  4  1  0  0  0  0
 10  5  1  0  0  0  0
 12 11  3  0  0  0  0
 13 14  2  0  0  0  0
 14 15  1  0  0  0  0
 14 20  1  0  0  0  0
 15 27  1  0  0  0  0
 16 21  1  0  0  0  0
 16 15  2  0  0  0  0
 17 16  1  0  0  0  0
 18 17  2  0  0  0  0
 18 13  1  0  0  0  0
 19 13  1  0  0  0  0
 22 17  1  0  0  0  0
 23 24  1  0  0  0  0
 23 18  1  0  0  0  0
 24  3  1  0  0  0  0
 25 23  2  0  0  0  0
 26 23  2  0  0  0  0
 27 30  1  0  0  0  0
 27 28  1  0  0  0  0
 29 27  1  0  0  0  0
 31 32  1  0  0  0  0
 32 34  1  0  0  0  0
 32 33  1  0  0  0  0
 32 35  1  0  0  0  0
M  END
