Coordinates from ORCA-job 4-MeO-Ph-N2-OTs-B3LYPG-6-31G_dp-MTMO-d009-169-n800
 OpenBabel09051908173D

 35 35  0  0  0  0  0  0  0  0999 V2000
    2.7439   -3.8353    0.5656 C   0  0  0  0  0  0  0  0  0  0  0  0
    1.6094   -3.9012   -0.2480 C   0  0  0  0  0  0  0  0  0  0  0  0
    1.7180   -4.3553   -1.5577 C   0  0  0  0  0  0  0  0  0  0  0  0
    2.9536   -4.7548   -2.0764 C   0  0  0  0  0  0  0  0  0  0  0  0
    4.0797   -4.7003   -1.2665 C   0  0  0  0  0  0  0  0  0  0  0  0
    3.9847   -4.2390    0.0568 C   0  0  0  0  0  0  0  0  0  0  0  0
    2.6463   -3.4700    1.5803 H   0  0  0  0  0  0  0  0  0  0  0  0
    0.6411   -3.5880    0.1272 H   0  0  0  0  0  0  0  0  0  0  0  0
    3.0165   -5.1075   -3.0985 H   0  0  0  0  0  0  0  0  0  0  0  0
    5.0519   -5.0043   -1.6394 H   0  0  0  0  0  0  0  0  0  0  0  0
   -1.9004   -2.2873   -2.5505 N   0  0  0  0  0  0  0  0  0  0  0  0
   -1.5205   -1.6696   -3.3841 N   0  0  0  0  0  0  0  0  0  0  0  0
   -0.3301   -7.3141   -0.5604 C   0  0  0  0  0  0  0  0  0  0  0  0
   -0.9459   -7.7345    0.6184 C   0  0  0  0  0  0  0  0  0  0  0  0
   -2.1413   -7.1529    1.0598 C   0  0  0  0  0  0  0  0  0  0  0  0
   -2.7180   -6.1328    0.2846 C   0  0  0  0  0  0  0  0  0  0  0  0
   -2.1221   -5.6998   -0.8952 C   0  0  0  0  0  0  0  0  0  0  0  0
   -0.9266   -6.2981   -1.3062 C   0  0  0  0  0  0  0  0  0  0  0  0
    0.5881   -7.7714   -0.9095 H   0  0  0  0  0  0  0  0  0  0  0  0
   -0.4917   -8.5313    1.2009 H   0  0  0  0  0  0  0  0  0  0  0  0
   -3.6509   -5.6790    0.6072 H   0  0  0  0  0  0  0  0  0  0  0  0
   -2.5750   -4.9194   -1.4970 H   0  0  0  0  0  0  0  0  0  0  0  0
   -0.1572   -5.7519   -2.8193 S   0  0  0  0  0  0  0  0  0  0  0  0
    0.5773   -4.3202   -2.3697 O   0  0  0  0  0  0  0  0  0  0  0  0
   -1.1784   -5.3068   -3.7560 O   0  0  0  0  0  0  0  0  0  0  0  0
    0.8746   -6.7143   -3.1954 O   0  0  0  0  0  0  0  0  0  0  0  0
   -2.7967   -7.5997    2.3439 C   0  0  0  0  0  0  0  0  0  0  0  0
   -2.6903   -6.8365    3.1251 H   0  0  0  0  0  0  0  0  0  0  0  0
   -3.8692   -7.7703    2.2047 H   0  0  0  0  0  0  0  0  0  0  0  0
   -2.3517   -8.5237    2.7203 H   0  0  0  0  0  0  0  0  0  0  0  0
    5.1543   -4.2197    0.7587 O   0  0  0  0  0  0  0  0  0  0  0  0
    5.1277   -3.7525    2.0980 C   0  0  0  0  0  0  0  0  0  0  0  0
    6.1549   -3.8176    2.4602 H   0  0  0  0  0  0  0  0  0  0  0  0
    4.7909   -2.7095    2.1570 H   0  0  0  0  0  0  0  0  0  0  0  0
    4.4826   -4.3744    2.7319 H   0  0  0  0  0  0  0  0  0  0  0  0
  1  7  1  0  0  0  0
  2  8  1  0  0  0  0
  2  1  2  0  0  0  0
  3  2  1  0  0  0  0
  4  3  2  0  0  0  0
  4  5  1  0  0  0  0
  5  6  2  0  0  0  0
  6  1  1  0  0  0  0
  6 31  1  0  0  0  0
  9  4  1  0  0  0  0
 10  5  1  0  0  0  0
 12 11  3  0  0  0  0
 13 14  2  0  0  0  0
 14 15  1  0  0  0  0
 14 20  1  0  0  0  0
 15 27  1  0  0  0  0
 16 21  1  0  0  0  0
 16 15  2  0  0  0  0
 17 16  1  0  0  0  0
 18 17  2  0  0  0  0
 18 13  1  0  0  0  0
 19 13  1  0  0  0  0
 22 17  1  0  0  0  0
 23 24  1  0  0  0  0
 23 18  1  0  0  0  0
 24  3  1  0  0  0  0
 25 23  2  0  0  0  0
 26 23  2  0  0  0  0
 27 30  1  0  0  0  0
 27 28  1  0  0  0  0
 29 27  1  0  0  0  0
 31 32  1  0  0  0  0
 32 34  1  0  0  0  0
 32 33  1  0  0  0  0
 32 35  1  0  0  0  0
M  END
