Coordinates from ORCA-job 4-MeO-Ph-N2-OTs-B3LYPG-6-31G_dp-MTMO-d009-169-n800
 OpenBabel09051908173D

 35 35  0  0  0  0  0  0  0  0999 V2000
    2.9515   -3.9308    0.7066 C   0  0  0  0  0  0  0  0  0  0  0  0
    1.8067   -3.9013   -0.0946 C   0  0  0  0  0  0  0  0  0  0  0  0
    1.8831   -4.2753   -1.4317 C   0  0  0  0  0  0  0  0  0  0  0  0
    3.0969   -4.6879   -1.9906 C   0  0  0  0  0  0  0  0  0  0  0  0
    4.2327   -4.7284   -1.1935 C   0  0  0  0  0  0  0  0  0  0  0  0
    4.1701   -4.3489    0.1574 C   0  0  0  0  0  0  0  0  0  0  0  0
    2.8789   -3.6257    1.7432 H   0  0  0  0  0  0  0  0  0  0  0  0
    0.8558   -3.5748    0.3124 H   0  0  0  0  0  0  0  0  0  0  0  0
    3.1356   -4.9774   -3.0336 H   0  0  0  0  0  0  0  0  0  0  0  0
    5.1882   -5.0452   -1.5976 H   0  0  0  0  0  0  0  0  0  0  0  0
   -3.5206   -2.8888   -3.2455 N   0  0  0  0  0  0  0  0  0  0  0  0
   -3.3307   -2.3613   -4.1976 N   0  0  0  0  0  0  0  0  0  0  0  0
   -0.2555   -7.0957   -0.5187 C   0  0  0  0  0  0  0  0  0  0  0  0
   -0.9016   -7.5473    0.6314 C   0  0  0  0  0  0  0  0  0  0  0  0
   -2.1450   -7.0287    1.0166 C   0  0  0  0  0  0  0  0  0  0  0  0
   -2.7388   -6.0422    0.2124 C   0  0  0  0  0  0  0  0  0  0  0  0
   -2.1121   -5.5767   -0.9394 C   0  0  0  0  0  0  0  0  0  0  0  0
   -0.8690   -6.1103   -1.2926 C   0  0  0  0  0  0  0  0  0  0  0  0
    0.6980   -7.5090   -0.8255 H   0  0  0  0  0  0  0  0  0  0  0  0
   -0.4343   -8.3207    1.2351 H   0  0  0  0  0  0  0  0  0  0  0  0
   -3.7099   -5.6407    0.4883 H   0  0  0  0  0  0  0  0  0  0  0  0
   -2.5820   -4.8291   -1.5694 H   0  0  0  0  0  0  0  0  0  0  0  0
   -0.0539   -5.5141   -2.7618 S   0  0  0  0  0  0  0  0  0  0  0  0
    0.7353   -4.1437   -2.2241 O   0  0  0  0  0  0  0  0  0  0  0  0
   -1.0436   -4.9771   -3.6846 O   0  0  0  0  0  0  0  0  0  0  0  0
    0.9428   -6.4967   -3.1779 O   0  0  0  0  0  0  0  0  0  0  0  0
   -2.8319   -7.5079    2.2723 C   0  0  0  0  0  0  0  0  0  0  0  0
   -2.7518   -6.7611    3.0724 H   0  0  0  0  0  0  0  0  0  0  0  0
   -3.8987   -7.6829    2.1007 H   0  0  0  0  0  0  0  0  0  0  0  0
   -2.3898   -8.4363    2.6414 H   0  0  0  0  0  0  0  0  0  0  0  0
    5.3468   -4.4188    0.8441 O   0  0  0  0  0  0  0  0  0  0  0  0
    5.3519   -4.0363    2.2101 C   0  0  0  0  0  0  0  0  0  0  0  0
    6.3794   -4.1624    2.5545 H   0  0  0  0  0  0  0  0  0  0  0  0
    5.0551   -2.9873    2.3385 H   0  0  0  0  0  0  0  0  0  0  0  0
    4.6902   -4.6723    2.8119 H   0  0  0  0  0  0  0  0  0  0  0  0
  1  7  1  0  0  0  0
  2  8  1  0  0  0  0
  2  1  2  0  0  0  0
  3  2  1  0  0  0  0
  4  3  2  0  0  0  0
  4  5  1  0  0  0  0
  5  6  2  0  0  0  0
  6  1  1  0  0  0  0
  6 31  1  0  0  0  0
  9  4  1  0  0  0  0
 10  5  1  0  0  0  0
 12 11  3  0  0  0  0
 13 14  2  0  0  0  0
 14 15  1  0  0  0  0
 14 20  1  0  0  0  0
 15 27  1  0  0  0  0
 16 21  1  0  0  0  0
 16 15  2  0  0  0  0
 17 16  1  0  0  0  0
 18 17  2  0  0  0  0
 18 13  1  0  0  0  0
 19 13  1  0  0  0  0
 22 17  1  0  0  0  0
 23 24  1  0  0  0  0
 23 18  1  0  0  0  0
 24  3  1  0  0  0  0
 25 23  2  0  0  0  0
 26 23  2  0  0  0  0
 27 30  1  0  0  0  0
 27 28  1  0  0  0  0
 29 27  1  0  0  0  0
 31 32  1  0  0  0  0
 32 34  1  0  0  0  0
 32 33  1  0  0  0  0
 32 35  1  0  0  0  0
M  END
