Coordinates from ORCA-job 4-MeO-Ph-N2-OTs-B3LYPG-6-31G_dp-MTMO-d009-169-n800
 OpenBabel09051908173D

 35 35  0  0  0  0  0  0  0  0999 V2000
    3.7427   -3.9046    0.5941 C   0  0  0  0  0  0  0  0  0  0  0  0
    2.7620   -3.8315   -0.3993 C   0  0  0  0  0  0  0  0  0  0  0  0
    2.9678   -4.4516   -1.6266 C   0  0  0  0  0  0  0  0  0  0  0  0
    4.1484   -5.1556   -1.8831 C   0  0  0  0  0  0  0  0  0  0  0  0
    5.1199   -5.2364   -0.8951 C   0  0  0  0  0  0  0  0  0  0  0  0
    4.9259   -4.6118    0.3479 C   0  0  0  0  0  0  0  0  0  0  0  0
    3.5728   -3.4100    1.5426 H   0  0  0  0  0  0  0  0  0  0  0  0
    1.8416   -3.2834   -0.2280 H   0  0  0  0  0  0  0  0  0  0  0  0
    4.2884   -5.6335   -2.8450 H   0  0  0  0  0  0  0  0  0  0  0  0
    6.0466   -5.7744   -1.0639 H   0  0  0  0  0  0  0  0  0  0  0  0
  -12.9590   -8.7531    0.2124 N   0  0  0  0  0  0  0  0  0  0  0  0
  -13.9081   -9.2698   -0.0198 N   0  0  0  0  0  0  0  0  0  0  0  0
    0.0834   -6.5173   -0.6394 C   0  0  0  0  0  0  0  0  0  0  0  0
   -0.8331   -6.5490    0.4119 C   0  0  0  0  0  0  0  0  0  0  0  0
   -1.9622   -5.7199    0.4159 C   0  0  0  0  0  0  0  0  0  0  0  0
   -2.1576   -4.8474   -0.6675 C   0  0  0  0  0  0  0  0  0  0  0  0
   -1.2561   -4.7998   -1.7259 C   0  0  0  0  0  0  0  0  0  0  0  0
   -0.1385   -5.6394   -1.7000 C   0  0  0  0  0  0  0  0  0  0  0  0
    0.9492   -7.1698   -0.6487 H   0  0  0  0  0  0  0  0  0  0  0  0
   -0.6685   -7.2331    1.2402 H   0  0  0  0  0  0  0  0  0  0  0  0
   -3.0322   -4.2021   -0.6836 H   0  0  0  0  0  0  0  0  0  0  0  0
   -1.4158   -4.1374   -2.5700 H   0  0  0  0  0  0  0  0  0  0  0  0
    1.0269   -5.5724   -3.0481 S   0  0  0  0  0  0  0  0  0  0  0  0
    2.0043   -4.2840   -2.6294 O   0  0  0  0  0  0  0  0  0  0  0  0
    0.3529   -5.0958   -4.2466 O   0  0  0  0  0  0  0  0  0  0  0  0
    1.8285   -6.7929   -3.0381 O   0  0  0  0  0  0  0  0  0  0  0  0
   -2.9640   -5.7722    1.5439 C   0  0  0  0  0  0  0  0  0  0  0  0
   -3.2084   -4.7685    1.9061 H   0  0  0  0  0  0  0  0  0  0  0  0
   -3.9029   -6.2311    1.2122 H   0  0  0  0  0  0  0  0  0  0  0  0
   -2.5888   -6.3564    2.3879 H   0  0  0  0  0  0  0  0  0  0  0  0
    5.9471   -4.7499    1.2418 O   0  0  0  0  0  0  0  0  0  0  0  0
    5.8151   -4.1366    2.5141 C   0  0  0  0  0  0  0  0  0  0  0  0
    6.7325   -4.3695    3.0574 H   0  0  0  0  0  0  0  0  0  0  0  0
    5.7119   -3.0469    2.4305 H   0  0  0  0  0  0  0  0  0  0  0  0
    4.9567   -4.5361    3.0698 H   0  0  0  0  0  0  0  0  0  0  0  0
  1  7  1  0  0  0  0
  2  8  1  0  0  0  0
  2  1  2  0  0  0  0
  3  2  1  0  0  0  0
  4  3  2  0  0  0  0
  4  5  1  0  0  0  0
  5  6  2  0  0  0  0
  6  1  1  0  0  0  0
  6 31  1  0  0  0  0
  9  4  1  0  0  0  0
 10  5  1  0  0  0  0
 12 11  3  0  0  0  0
 13 14  2  0  0  0  0
 14 15  1  0  0  0  0
 14 20  1  0  0  0  0
 15 27  1  0  0  0  0
 16 15  2  0  0  0  0
 17 18  2  0  0  0  0
 17 16  1  0  0  0  0
 18 13  1  0  0  0  0
 19 13  1  0  0  0  0
 21 16  1  0  0  0  0
 22 17  1  0  0  0  0
 23 26  2  0  0  0  0
 23 24  1  0  0  0  0
 23 18  1  0  0  0  0
 24  3  1  0  0  0  0
 25 23  2  0  0  0  0
 27 28  1  0  0  0  0
 27 30  1  0  0  0  0
 29 27  1  0  0  0  0
 31 32  1  0  0  0  0
 32 33  1  0  0  0  0
 32 35  1  0  0  0  0
 34 32  1  0  0  0  0
M  END
