Coordinates from ORCA-job 4-MeO-Ph-N2-OTs-B3LYPG-6-31G_dp-MTMO-d009-169-n800
 OpenBabel09051908173D

 35 35  0  0  0  0  0  0  0  0999 V2000
    3.4384   -4.0515    0.7007 C   0  0  0  0  0  0  0  0  0  0  0  0
    2.5048   -3.9230   -0.3316 C   0  0  0  0  0  0  0  0  0  0  0  0
    2.7531   -4.5039   -1.5703 C   0  0  0  0  0  0  0  0  0  0  0  0
    3.9299   -5.2236   -1.7994 C   0  0  0  0  0  0  0  0  0  0  0  0
    4.8545   -5.3593   -0.7732 C   0  0  0  0  0  0  0  0  0  0  0  0
    4.6174   -4.7744    0.4817 C   0  0  0  0  0  0  0  0  0  0  0  0
    3.2357   -3.5863    1.6576 H   0  0  0  0  0  0  0  0  0  0  0  0
    1.5887   -3.3617   -0.1813 H   0  0  0  0  0  0  0  0  0  0  0  0
    4.1036   -5.6704   -2.7707 H   0  0  0  0  0  0  0  0  0  0  0  0
    5.7773   -5.9101   -0.9204 H   0  0  0  0  0  0  0  0  0  0  0  0
   -7.9364   -7.6275    0.9272 N   0  0  0  0  0  0  0  0  0  0  0  0
   -8.9588   -8.0366    0.8329 N   0  0  0  0  0  0  0  0  0  0  0  0
   -0.2347   -6.5360   -0.8000 C   0  0  0  0  0  0  0  0  0  0  0  0
   -1.2091   -6.5870    0.1961 C   0  0  0  0  0  0  0  0  0  0  0  0
   -2.3233   -5.7375    0.1667 C   0  0  0  0  0  0  0  0  0  0  0  0
   -2.4410   -4.8232   -0.8925 C   0  0  0  0  0  0  0  0  0  0  0  0
   -1.4801   -4.7557   -1.8967 C   0  0  0  0  0  0  0  0  0  0  0  0
   -0.3809   -5.6170   -1.8393 C   0  0  0  0  0  0  0  0  0  0  0  0
    0.6189   -7.2045   -0.7846 H   0  0  0  0  0  0  0  0  0  0  0  0
   -1.1029   -7.3025    1.0075 H   0  0  0  0  0  0  0  0  0  0  0  0
   -3.3011   -4.1597   -0.9330 H   0  0  0  0  0  0  0  0  0  0  0  0
   -1.5798   -4.0600   -2.7231 H   0  0  0  0  0  0  0  0  0  0  0  0
    0.8569   -5.5297   -3.1202 S   0  0  0  0  0  0  0  0  0  0  0  0
    1.8398   -4.2793   -2.6081 O   0  0  0  0  0  0  0  0  0  0  0  0
    0.2574   -4.9973   -4.3347 O   0  0  0  0  0  0  0  0  0  0  0  0
    1.6304   -6.7682   -3.1109 O   0  0  0  0  0  0  0  0  0  0  0  0
   -3.3905   -5.8193    1.2311 C   0  0  0  0  0  0  0  0  0  0  0  0
   -3.7587   -4.8260    1.5048 H   0  0  0  0  0  0  0  0  0  0  0  0
   -4.2531   -6.3978    0.8782 H   0  0  0  0  0  0  0  0  0  0  0  0
   -3.0175   -6.3058    2.1362 H   0  0  0  0  0  0  0  0  0  0  0  0
    5.5949   -4.9649    1.4140 O   0  0  0  0  0  0  0  0  0  0  0  0
    5.4190   -4.3919    2.6997 C   0  0  0  0  0  0  0  0  0  0  0  0
    6.3071   -4.6613    3.2738 H   0  0  0  0  0  0  0  0  0  0  0  0
    5.3400   -3.2982    2.6489 H   0  0  0  0  0  0  0  0  0  0  0  0
    4.5297   -4.7922    3.2038 H   0  0  0  0  0  0  0  0  0  0  0  0
  1  7  1  0  0  0  0
  2  8  1  0  0  0  0
  2  1  2  0  0  0  0
  3  2  1  0  0  0  0
  4  3  2  0  0  0  0
  4  5  1  0  0  0  0
  5  6  2  0  0  0  0
  6  1  1  0  0  0  0
  6 31  1  0  0  0  0
  9  4  1  0  0  0  0
 10  5  1  0  0  0  0
 12 11  3  0  0  0  0
 13 19  1  0  0  0  0
 13 14  2  0  0  0  0
 14 20  1  0  0  0  0
 15 14  1  0  0  0  0
 15 27  1  0  0  0  0
 16 15  2  0  0  0  0
 17 18  2  0  0  0  0
 17 16  1  0  0  0  0
 18 13  1  0  0  0  0
 21 16  1  0  0  0  0
 22 17  1  0  0  0  0
 23 26  2  0  0  0  0
 23 24  1  0  0  0  0
 23 18  1  0  0  0  0
 24  3  1  0  0  0  0
 25 23  2  0  0  0  0
 27 28  1  0  0  0  0
 27 30  1  0  0  0  0
 29 27  1  0  0  0  0
 31 32  1  0  0  0  0
 32 35  1  0  0  0  0
 32 33  1  0  0  0  0
 34 32  1  0  0  0  0
M  END
