Coordinates from ORCA-job 4-MeO-Ph-N2-OTs-B3LYPG-6-31G_dp-MTMO-d009-169-n800
 OpenBabel09051908173D

 35 35  0  0  0  0  0  0  0  0999 V2000
    3.2009   -3.9274    0.6859 C   0  0  0  0  0  0  0  0  0  0  0  0
    2.2481   -3.9100   -0.3367 C   0  0  0  0  0  0  0  0  0  0  0  0
    2.5456   -4.4697   -1.5743 C   0  0  0  0  0  0  0  0  0  0  0  0
    3.7925   -5.0564   -1.8124 C   0  0  0  0  0  0  0  0  0  0  0  0
    4.7366   -5.0831   -0.7952 C   0  0  0  0  0  0  0  0  0  0  0  0
    4.4496   -4.5190    0.4587 C   0  0  0  0  0  0  0  0  0  0  0  0
    2.9582   -3.4804    1.6421 H   0  0  0  0  0  0  0  0  0  0  0  0
    1.2778   -3.4514   -0.1800 H   0  0  0  0  0  0  0  0  0  0  0  0
    4.0047   -5.4880   -2.7829 H   0  0  0  0  0  0  0  0  0  0  0  0
    5.7121   -5.5315   -0.9490 H   0  0  0  0  0  0  0  0  0  0  0  0
   -6.7915   -4.9488    0.2763 N   0  0  0  0  0  0  0  0  0  0  0  0
   -7.8809   -4.7637    0.2695 N   0  0  0  0  0  0  0  0  0  0  0  0
   -0.0797   -6.8708   -0.7527 C   0  0  0  0  0  0  0  0  0  0  0  0
   -1.0042   -7.0730    0.2690 C   0  0  0  0  0  0  0  0  0  0  0  0
   -2.2412   -6.4098    0.2727 C   0  0  0  0  0  0  0  0  0  0  0  0
   -2.5350   -5.5347   -0.7831 C   0  0  0  0  0  0  0  0  0  0  0  0
   -1.6230   -5.3164   -1.8144 C   0  0  0  0  0  0  0  0  0  0  0  0
   -0.3998   -5.9885   -1.7877 C   0  0  0  0  0  0  0  0  0  0  0  0
    0.8670   -7.3985   -0.7654 H   0  0  0  0  0  0  0  0  0  0  0  0
   -0.7644   -7.7640    1.0733 H   0  0  0  0  0  0  0  0  0  0  0  0
   -3.4946   -5.0260   -0.8027 H   0  0  0  0  0  0  0  0  0  0  0  0
   -1.8584   -4.6533   -2.6399 H   0  0  0  0  0  0  0  0  0  0  0  0
    0.7699   -5.7166   -3.1054 S   0  0  0  0  0  0  0  0  0  0  0  0
    1.5996   -4.3562   -2.6009 O   0  0  0  0  0  0  0  0  0  0  0  0
    0.0657   -5.2488   -4.2898 O   0  0  0  0  0  0  0  0  0  0  0  0
    1.6991   -6.8426   -3.1462 O   0  0  0  0  0  0  0  0  0  0  0  0
   -3.2273   -6.6330    1.3939 C   0  0  0  0  0  0  0  0  0  0  0  0
   -2.8838   -6.1540    2.3185 H   0  0  0  0  0  0  0  0  0  0  0  0
   -4.2099   -6.2206    1.1517 H   0  0  0  0  0  0  0  0  0  0  0  0
   -3.3482   -7.6992    1.6100 H   0  0  0  0  0  0  0  0  0  0  0  0
    5.4507   -4.5960    1.3822 O   0  0  0  0  0  0  0  0  0  0  0  0
    5.2270   -4.0335    2.6651 C   0  0  0  0  0  0  0  0  0  0  0  0
    6.1433   -4.2044    3.2329 H   0  0  0  0  0  0  0  0  0  0  0  0
    5.0348   -2.9544    2.6068 H   0  0  0  0  0  0  0  0  0  0  0  0
    4.3884   -4.5194    3.1806 H   0  0  0  0  0  0  0  0  0  0  0  0
  1  7  1  0  0  0  0
  2  8  1  0  0  0  0
  2  1  2  0  0  0  0
  3  2  1  0  0  0  0
  4  3  2  0  0  0  0
  4  5  1  0  0  0  0
  5  6  2  0  0  0  0
  6  1  1  0  0  0  0
  6 31  1  0  0  0  0
  9  4  1  0  0  0  0
 10  5  1  0  0  0  0
 12 11  3  0  0  0  0
 13 14  2  0  0  0  0
 14 15  1  0  0  0  0
 14 20  1  0  0  0  0
 15 27  1  0  0  0  0
 16 15  2  0  0  0  0
 17 18  2  0  0  0  0
 17 16  1  0  0  0  0
 18 13  1  0  0  0  0
 19 13  1  0  0  0  0
 21 16  1  0  0  0  0
 22 17  1  0  0  0  0
 23 24  1  0  0  0  0
 23 18  1  0  0  0  0
 24  3  1  0  0  0  0
 25 23  2  0  0  0  0
 26 23  2  0  0  0  0
 27 30  1  0  0  0  0
 27 28  1  0  0  0  0
 29 27  1  0  0  0  0
 31 32  1  0  0  0  0
 32 35  1  0  0  0  0
 32 33  1  0  0  0  0
 34 32  1  0  0  0  0
M  END
