Coordinates from ORCA-job 4-MeO-Ph-N2-OTs-B3LYPG-6-31G_dp-MTMO-d009-169-n800
 OpenBabel09051908173D

 35 34  0  0  0  0  0  0  0  0999 V2000
    4.0476   -2.6510    0.2547 C   0  0  0  0  0  0  0  0  0  0  0  0
    3.1128   -1.8741   -0.4590 C   0  0  0  0  0  0  0  0  0  0  0  0
    2.2649   -2.7124   -1.1197 C   0  0  0  0  0  0  0  0  0  0  0  0
    2.0935   -3.9701   -1.2574 C   0  0  0  0  0  0  0  0  0  0  0  0
    3.0256   -4.7489   -0.5496 C   0  0  0  0  0  0  0  0  0  0  0  0
    4.0037   -4.0643    0.2096 C   0  0  0  0  0  0  0  0  0  0  0  0
    4.8029   -2.1374    0.8370 H   0  0  0  0  0  0  0  0  0  0  0  0
    3.1031   -0.7912   -0.4596 H   0  0  0  0  0  0  0  0  0  0  0  0
    0.8470   -4.8453   -2.2307 H   0  0  0  0  0  0  0  0  0  0  0  0
    3.0318   -5.8352   -0.5558 H   0  0  0  0  0  0  0  0  0  0  0  0
    0.8969   -1.4213   -2.2248 N   0  0  0  0  0  0  0  0  0  0  0  0
    0.0927   -1.3473   -2.9806 N   0  0  0  0  0  0  0  0  0  0  0  0
   -1.6057   -5.8653    0.1696 C   0  0  0  0  0  0  0  0  0  0  0  0
   -1.9419   -6.7868    1.1590 C   0  0  0  0  0  0  0  0  0  0  0  0
   -2.4255   -8.0614    0.8301 C   0  0  0  0  0  0  0  0  0  0  0  0
   -2.5760   -8.3892   -0.5250 C   0  0  0  0  0  0  0  0  0  0  0  0
   -2.2451   -7.4808   -1.5282 C   0  0  0  0  0  0  0  0  0  0  0  0
   -1.7566   -6.2235   -1.1708 C   0  0  0  0  0  0  0  0  0  0  0  0
   -1.2484   -4.8742    0.4258 H   0  0  0  0  0  0  0  0  0  0  0  0
   -1.8335   -6.5093    2.2045 H   0  0  0  0  0  0  0  0  0  0  0  0
   -2.9644   -9.3664   -0.7986 H   0  0  0  0  0  0  0  0  0  0  0  0
   -2.3790   -7.7286   -2.5755 H   0  0  0  0  0  0  0  0  0  0  0  0
   -1.3145   -5.0578   -2.4530 S   0  0  0  0  0  0  0  0  0  0  0  0
   -1.3525   -3.7096   -1.8761 O   0  0  0  0  0  0  0  0  0  0  0  0
   -2.0736   -5.3880   -3.6528 O   0  0  0  0  0  0  0  0  0  0  0  0
    0.2239   -5.4290   -2.7727 O   0  0  0  0  0  0  0  0  0  0  0  0
   -2.7590   -9.0623    1.9105 C   0  0  0  0  0  0  0  0  0  0  0  0
   -3.5170   -9.7763    1.5756 H   0  0  0  0  0  0  0  0  0  0  0  0
   -1.8712   -9.6395    2.1978 H   0  0  0  0  0  0  0  0  0  0  0  0
   -3.1305   -8.5688    2.8131 H   0  0  0  0  0  0  0  0  0  0  0  0
    4.8783   -4.8666    0.8779 O   0  0  0  0  0  0  0  0  0  0  0  0
    5.8955   -4.2673    1.6654 C   0  0  0  0  0  0  0  0  0  0  0  0
    6.4612   -5.0907    2.1034 H   0  0  0  0  0  0  0  0  0  0  0  0
    6.5687   -3.6514    1.0555 H   0  0  0  0  0  0  0  0  0  0  0  0
    5.4739   -3.6520    2.4708 H   0  0  0  0  0  0  0  0  0  0  0  0
  1  7  1  0  0  0  0
  2  1  2  0  0  0  0
  3  2  1  0  0  0  0
  4  3  2  0  0  0  0
  4  5  1  0  0  0  0
  5  6  2  0  0  0  0
  6  1  1  0  0  0  0
  6 31  1  0  0  0  0
  8  2  1  0  0  0  0
 10  5  1  0  0  0  0
 12 11  3  0  0  0  0
 13 19  1  0  0  0  0
 13 14  2  0  0  0  0
 14 20  1  0  0  0  0
 15 14  1  0  0  0  0
 15 27  1  0  0  0  0
 16 15  2  0  0  0  0
 17 18  2  0  0  0  0
 17 16  1  0  0  0  0
 18 13  1  0  0  0  0
 21 16  1  0  0  0  0
 22 17  1  0  0  0  0
 23 24  2  0  0  0  0
 23 18  1  0  0  0  0
 25 23  2  0  0  0  0
 26 23  1  0  0  0  0
 26  9  1  0  0  0  0
 27 29  1  0  0  0  0
 27 30  1  0  0  0  0
 28 27  1  0  0  0  0
 31 32  1  0  0  0  0
 32 33  1  0  0  0  0
 32 35  1  0  0  0  0
 34 32  1  0  0  0  0
M  RAD  2   3   2   4   2
M  END
