Coordinates from ORCA-job 4-MeO-Ph-N2-OTs-B3LYPG-6-31G_dp-MTMO-d009-169-n800
 OpenBabel09051908173D

 35 35  0  0  0  0  0  0  0  0999 V2000
    3.4427   -4.0492    0.7000 C   0  0  0  0  0  0  0  0  0  0  0  0
    2.5105   -3.9202   -0.3335 C   0  0  0  0  0  0  0  0  0  0  0  0
    2.7599   -4.5017   -1.5717 C   0  0  0  0  0  0  0  0  0  0  0  0
    3.9363   -5.2225   -1.7991 C   0  0  0  0  0  0  0  0  0  0  0  0
    4.8594   -5.3587   -0.7716 C   0  0  0  0  0  0  0  0  0  0  0  0
    4.6213   -4.7732    0.4827 C   0  0  0  0  0  0  0  0  0  0  0  0
    3.2392   -3.5835    1.6565 H   0  0  0  0  0  0  0  0  0  0  0  0
    1.5947   -3.3580   -0.1845 H   0  0  0  0  0  0  0  0  0  0  0  0
    4.1108   -5.6698   -2.7700 H   0  0  0  0  0  0  0  0  0  0  0  0
    5.7819   -5.9103   -0.9176 H   0  0  0  0  0  0  0  0  0  0  0  0
   -8.0422   -7.6584    0.9514 N   0  0  0  0  0  0  0  0  0  0  0  0
   -9.0679   -8.0610    0.8643 N   0  0  0  0  0  0  0  0  0  0  0  0
   -0.2267   -6.5351   -0.8049 C   0  0  0  0  0  0  0  0  0  0  0  0
   -1.2009   -6.5866    0.1915 C   0  0  0  0  0  0  0  0  0  0  0  0
   -2.3145   -5.7364    0.1633 C   0  0  0  0  0  0  0  0  0  0  0  0
   -2.4319   -4.8207   -0.8947 C   0  0  0  0  0  0  0  0  0  0  0  0
   -1.4712   -4.7525   -1.8990 C   0  0  0  0  0  0  0  0  0  0  0  0
   -0.3726   -5.6146   -1.8430 C   0  0  0  0  0  0  0  0  0  0  0  0
    0.6265   -7.2040   -0.7906 H   0  0  0  0  0  0  0  0  0  0  0  0
   -1.0949   -7.3033    1.0018 H   0  0  0  0  0  0  0  0  0  0  0  0
   -3.2915   -4.1566   -0.9341 H   0  0  0  0  0  0  0  0  0  0  0  0
   -1.5707   -4.0557   -2.7245 H   0  0  0  0  0  0  0  0  0  0  0  0
    0.8650   -5.5263   -3.1239 S   0  0  0  0  0  0  0  0  0  0  0  0
    1.8481   -4.2765   -2.6107 O   0  0  0  0  0  0  0  0  0  0  0  0
    0.2655   -4.9927   -4.3379 O   0  0  0  0  0  0  0  0  0  0  0  0
    1.6384   -6.7650   -3.1159 O   0  0  0  0  0  0  0  0  0  0  0  0
   -3.3816   -5.8191    1.2278 C   0  0  0  0  0  0  0  0  0  0  0  0
   -3.7512   -4.8262    1.5009 H   0  0  0  0  0  0  0  0  0  0  0  0
   -4.2432   -6.3990    0.8749 H   0  0  0  0  0  0  0  0  0  0  0  0
   -3.0081   -6.3048    2.1331 H   0  0  0  0  0  0  0  0  0  0  0  0
    5.5975   -4.9642    1.4164 O   0  0  0  0  0  0  0  0  0  0  0  0
    5.4205   -4.3905    2.7015 C   0  0  0  0  0  0  0  0  0  0  0  0
    6.3077   -4.6605    3.2768 H   0  0  0  0  0  0  0  0  0  0  0  0
    5.3426   -3.2967    2.6501 H   0  0  0  0  0  0  0  0  0  0  0  0
    4.5303   -4.7897    3.2048 H   0  0  0  0  0  0  0  0  0  0  0  0
  1  7  1  0  0  0  0
  2  8  1  0  0  0  0
  2  1  2  0  0  0  0
  3  2  1  0  0  0  0
  4  3  2  0  0  0  0
  4  5  1  0  0  0  0
  5  6  2  0  0  0  0
  6  1  1  0  0  0  0
  6 31  1  0  0  0  0
  9  4  1  0  0  0  0
 10  5  1  0  0  0  0
 12 11  3  0  0  0  0
 13 19  1  0  0  0  0
 13 14  2  0  0  0  0
 14 20  1  0  0  0  0
 15 14  1  0  0  0  0
 15 27  1  0  0  0  0
 16 15  2  0  0  0  0
 17 18  2  0  0  0  0
 17 16  1  0  0  0  0
 18 13  1  0  0  0  0
 21 16  1  0  0  0  0
 22 17  1  0  0  0  0
 23 26  2  0  0  0  0
 23 24  1  0  0  0  0
 23 18  1  0  0  0  0
 24  3  1  0  0  0  0
 25 23  2  0  0  0  0
 27 28  1  0  0  0  0
 27 30  1  0  0  0  0
 29 27  1  0  0  0  0
 31 32  1  0  0  0  0
 32 35  1  0  0  0  0
 32 33  1  0  0  0  0
 34 32  1  0  0  0  0
M  END
