Coordinates from ORCA-job 4-MeO-Ph-N2-OTs-B3LYPG-6-31G_dp-MTMO-d009-169-n800
 OpenBabel09051908173D

 35 35  0  0  0  0  0  0  0  0999 V2000
    3.0861   -3.9428    0.7615 C   0  0  0  0  0  0  0  0  0  0  0  0
    2.0310   -3.8970   -0.1541 C   0  0  0  0  0  0  0  0  0  0  0  0
    2.2298   -4.3113   -1.4664 C   0  0  0  0  0  0  0  0  0  0  0  0
    3.4783   -4.7806   -1.8866 C   0  0  0  0  0  0  0  0  0  0  0  0
    4.5247   -4.8364   -0.9762 C   0  0  0  0  0  0  0  0  0  0  0  0
    4.3381   -4.4170    0.3513 C   0  0  0  0  0  0  0  0  0  0  0  0
    2.9192   -3.6072    1.7776 H   0  0  0  0  0  0  0  0  0  0  0  0
    1.0561   -3.5274    0.1447 H   0  0  0  0  0  0  0  0  0  0  0  0
    3.6127   -5.1013   -2.9124 H   0  0  0  0  0  0  0  0  0  0  0  0
    5.5042   -5.1967   -1.2716 H   0  0  0  0  0  0  0  0  0  0  0  0
   -5.4772   -3.8101   -1.7494 N   0  0  0  0  0  0  0  0  0  0  0  0
   -6.2718   -3.3797   -2.3855 N   0  0  0  0  0  0  0  0  0  0  0  0
   -0.1292   -7.0251   -0.6946 C   0  0  0  0  0  0  0  0  0  0  0  0
   -0.9121   -7.4043    0.3952 C   0  0  0  0  0  0  0  0  0  0  0  0
   -2.1516   -6.8004    0.6441 C   0  0  0  0  0  0  0  0  0  0  0  0
   -2.6009   -5.8019   -0.2355 C   0  0  0  0  0  0  0  0  0  0  0  0
   -1.8352   -5.4089   -1.3286 C   0  0  0  0  0  0  0  0  0  0  0  0
   -0.6004   -6.0263   -1.5467 C   0  0  0  0  0  0  0  0  0  0  0  0
    0.8217   -7.5048   -0.8964 H   0  0  0  0  0  0  0  0  0  0  0  0
   -0.5558   -8.1882    1.0583 H   0  0  0  0  0  0  0  0  0  0  0  0
   -3.5668   -5.3328   -0.0711 H   0  0  0  0  0  0  0  0  0  0  0  0
   -2.1918   -4.6507   -2.0174 H   0  0  0  0  0  0  0  0  0  0  0  0
    0.3862   -5.5244   -2.9440 S   0  0  0  0  0  0  0  0  0  0  0  0
    1.1748   -4.1653   -2.3762 O   0  0  0  0  0  0  0  0  0  0  0  0
   -0.4802   -4.9873   -3.9826 O   0  0  0  0  0  0  0  0  0  0  0  0
    1.3765   -6.5623   -3.2168 O   0  0  0  0  0  0  0  0  0  0  0  0
   -2.9857   -7.2013    1.8363 C   0  0  0  0  0  0  0  0  0  0  0  0
   -2.9054   -6.4574    2.6391 H   0  0  0  0  0  0  0  0  0  0  0  0
   -4.0454   -7.2785    1.5735 H   0  0  0  0  0  0  0  0  0  0  0  0
   -2.6649   -8.1627    2.2450 H   0  0  0  0  0  0  0  0  0  0  0  0
    5.4351   -4.5079    1.1572 O   0  0  0  0  0  0  0  0  0  0  0  0
    5.3149   -4.0895    2.5073 C   0  0  0  0  0  0  0  0  0  0  0  0
    6.2962   -4.2432    2.9590 H   0  0  0  0  0  0  0  0  0  0  0  0
    5.0473   -3.0274    2.5808 H   0  0  0  0  0  0  0  0  0  0  0  0
    4.5710   -4.6850    3.0520 H   0  0  0  0  0  0  0  0  0  0  0  0
  1  7  1  0  0  0  0
  2  8  1  0  0  0  0
  2  1  2  0  0  0  0
  3  2  1  0  0  0  0
  4  3  2  0  0  0  0
  4  5  1  0  0  0  0
  5  6  2  0  0  0  0
  6  1  1  0  0  0  0
  6 31  1  0  0  0  0
  9  4  1  0  0  0  0
 10  5  1  0  0  0  0
 12 11  3  0  0  0  0
 13 14  2  0  0  0  0
 14 15  1  0  0  0  0
 14 20  1  0  0  0  0
 15 27  1  0  0  0  0
 16 21  1  0  0  0  0
 16 15  2  0  0  0  0
 17 16  1  0  0  0  0
 18 17  2  0  0  0  0
 18 13  1  0  0  0  0
 19 13  1  0  0  0  0
 22 17  1  0  0  0  0
 23 24  1  0  0  0  0
 23 18  1  0  0  0  0
 24  3  1  0  0  0  0
 25 23  2  0  0  0  0
 26 23  2  0  0  0  0
 27 30  1  0  0  0  0
 27 28  1  0  0  0  0
 29 27  1  0  0  0  0
 31 32  1  0  0  0  0
 32 34  1  0  0  0  0
 32 33  1  0  0  0  0
 32 35  1  0  0  0  0
M  END
