Coordinates from ORCA-job 4-MeO-Ph-N2-OTs-B3LYPG-6-31G_dp-MTMO-d009-169-n800
 OpenBabel09051908173D

 35 36  0  0  1  0  0  0  0  0999 V2000
    3.7581   -3.0662   -0.7347 C   0  0  0  0  0  0  0  0  0  0  0  0
    3.0281   -1.9872   -0.3915 C   0  0  0  0  0  0  0  0  0  0  0  0
    1.8233   -2.0980    0.4571 C   0  0  0  0  0  0  0  0  0  0  0  0
    1.2450   -3.5246    0.6421 C   0  0  2  0  0  0  0  0  0  0  0  0
    2.2451   -4.5964    0.4358 C   0  0  0  0  0  0  0  0  0  0  0  0
    3.3907   -4.3931   -0.2556 C   0  0  0  0  0  0  0  0  0  0  0  0
    4.6326   -2.9370   -1.3601 H   0  0  0  0  0  0  0  0  0  0  0  0
    3.2993   -0.9867   -0.7151 H   0  0  0  0  0  0  0  0  0  0  0  0
    0.7587   -3.5776    1.6182 H   0  0  0  0  0  0  0  0  0  0  0  0
    2.0076   -5.5905    0.7977 H   0  0  0  0  0  0  0  0  0  0  0  0
    1.3411   -1.2950    0.8614 N   0  0  0  0  0  0  0  0  0  0  0  0
    0.7866   -0.3810    1.3257 N   0  0  0  0  0  0  0  0  0  0  0  0
   -1.6080   -6.4492    1.0486 C   0  0  0  0  0  0  0  0  0  0  0  0
   -1.7745   -7.8247    0.8868 C   0  0  0  0  0  0  0  0  0  0  0  0
   -1.9573   -8.3888   -0.3822 C   0  0  0  0  0  0  0  0  0  0  0  0
   -1.9718   -7.5364   -1.4982 C   0  0  0  0  0  0  0  0  0  0  0  0
   -1.8099   -6.1619   -1.3579 C   0  0  0  0  0  0  0  0  0  0  0  0
   -1.6237   -5.6295   -0.0794 C   0  0  0  0  0  0  0  0  0  0  0  0
   -1.4823   -6.0112    2.0328 H   0  0  0  0  0  0  0  0  0  0  0  0
   -1.7669   -8.4682    1.7624 H   0  0  0  0  0  0  0  0  0  0  0  0
   -2.1167   -7.9567   -2.4900 H   0  0  0  0  0  0  0  0  0  0  0  0
   -1.8369   -5.5056   -2.2208 H   0  0  0  0  0  0  0  0  0  0  0  0
   -1.4009   -3.8672    0.1078 S   0  0  0  0  0  0  0  0  0  0  0  0
   -1.5022   -3.5338    1.5310 O   0  0  0  0  0  0  0  0  0  0  0  0
   -2.2043   -3.1849   -0.8974 O   0  0  0  0  0  0  0  0  0  0  0  0
    0.1563   -3.6543   -0.3743 O   0  0  0  0  0  0  0  0  0  0  0  0
   -2.1634   -9.8747   -0.5497 C   0  0  0  0  0  0  0  0  0  0  0  0
   -1.6090  -10.2600   -1.4111 H   0  0  0  0  0  0  0  0  0  0  0  0
   -1.8411  -10.4270    0.3371 H   0  0  0  0  0  0  0  0  0  0  0  0
   -3.2222  -10.1066   -0.7167 H   0  0  0  0  0  0  0  0  0  0  0  0
    4.1924   -5.4749   -0.4726 O   0  0  0  0  0  0  0  0  0  0  0  0
    5.5032   -5.2890   -0.9916 C   0  0  0  0  0  0  0  0  0  0  0  0
    5.9697   -6.2753   -0.9728 H   0  0  0  0  0  0  0  0  0  0  0  0
    5.4874   -4.9279   -2.0272 H   0  0  0  0  0  0  0  0  0  0  0  0
    6.0955   -4.6021   -0.3750 H   0  0  0  0  0  0  0  0  0  0  0  0
  1  2  1  0  0  0  0
  1  6  2  0  0  0  0
  2  3  2  0  0  0  0
  3  4  1  0  0  0  0
  3 11  1  0  0  0  0
  4  9  1  1  0  0  0
  5  4  1  0  0  0  0
  5 10  1  0  0  0  0
  6  5  1  0  0  0  0
  7  1  1  0  0  0  0
  8  2  1  0  0  0  0
 11 12  1  0  0  0  0
 13 19  1  0  0  0  0
 14 13  1  0  0  0  0
 14 20  1  0  0  0  0
 15 14  2  0  0  0  0
 16 17  2  0  0  0  0
 16 15  1  0  0  0  0
 17 18  1  0  0  0  0
 18 23  1  0  0  0  0
 18 13  2  0  0  0  0
 21 16  1  0  0  0  0
 22 17  1  0  0  0  0
 23 24  2  0  0  0  0
 25 23  2  0  0  0  0
 26 23  1  0  0  0  0
 26  4  1  0  0  0  0
 27 15  1  0  0  0  0
 27 29  1  0  0  0  0
 28 27  1  0  0  0  0
 30 27  1  0  0  0  0
 31  6  1  0  0  0  0
 32 33  1  0  0  0  0
 32 31  1  0  0  0  0
 32 35  1  0  0  0  0
 34 32  1  0  0  0  0
M  RAD  3   5   2  11   2  12   3
M  END
