Coordinates from ORCA-job 4-MeO-Ph-N2-OTs-B3LYPG-6-31G_dp-MTMO-d009-169-n800
 OpenBabel09051908173D

 35 35  0  0  0  0  0  0  0  0999 V2000
    3.2419   -3.9444    0.6833 C   0  0  0  0  0  0  0  0  0  0  0  0
    2.2870   -3.9124   -0.3370 C   0  0  0  0  0  0  0  0  0  0  0  0
    2.5725   -4.4778   -1.5749 C   0  0  0  0  0  0  0  0  0  0  0  0
    3.8092   -5.0847   -1.8154 C   0  0  0  0  0  0  0  0  0  0  0  0
    4.7552   -5.1257   -0.8005 C   0  0  0  0  0  0  0  0  0  0  0  0
    4.4802   -4.5563    0.4536 C   0  0  0  0  0  0  0  0  0  0  0  0
    3.0087   -3.4928    1.6398 H   0  0  0  0  0  0  0  0  0  0  0  0
    1.3246   -3.4381   -0.1783 H   0  0  0  0  0  0  0  0  0  0  0  0
    4.0120   -5.5206   -2.7860 H   0  0  0  0  0  0  0  0  0  0  0  0
    5.7231   -5.5898   -0.9563 H   0  0  0  0  0  0  0  0  0  0  0  0
   -6.9487   -5.2798    0.2678 N   0  0  0  0  0  0  0  0  0  0  0  0
   -8.0519   -5.2516    0.2085 N   0  0  0  0  0  0  0  0  0  0  0  0
   -0.1024   -6.8214   -0.7396 C   0  0  0  0  0  0  0  0  0  0  0  0
   -1.0326   -7.0009    0.2818 C   0  0  0  0  0  0  0  0  0  0  0  0
   -2.2569   -6.3154    0.2795 C   0  0  0  0  0  0  0  0  0  0  0  0
   -2.5333   -5.4418   -0.7827 C   0  0  0  0  0  0  0  0  0  0  0  0
   -1.6158   -5.2459   -1.8131 C   0  0  0  0  0  0  0  0  0  0  0  0
   -0.4045   -5.9396   -1.7799 C   0  0  0  0  0  0  0  0  0  0  0  0
    0.8341   -7.3670   -0.7478 H   0  0  0  0  0  0  0  0  0  0  0  0
   -0.8073   -7.6921    1.0900 H   0  0  0  0  0  0  0  0  0  0  0  0
   -3.4842   -4.9172   -0.8083 H   0  0  0  0  0  0  0  0  0  0  0  0
   -1.8380   -4.5844   -2.6435 H   0  0  0  0  0  0  0  0  0  0  0  0
    0.7714   -5.6975   -3.0979 S   0  0  0  0  0  0  0  0  0  0  0  0
    1.6262   -4.3503   -2.5997 O   0  0  0  0  0  0  0  0  0  0  0  0
    0.0772   -5.2229   -4.2855 O   0  0  0  0  0  0  0  0  0  0  0  0
    1.6792   -6.8410   -3.1316 O   0  0  0  0  0  0  0  0  0  0  0  0
   -3.2475   -6.5075    1.4023 C   0  0  0  0  0  0  0  0  0  0  0  0
   -2.9556   -5.9249    2.2846 H   0  0  0  0  0  0  0  0  0  0  0  0
   -4.2506   -6.1845    1.1122 H   0  0  0  0  0  0  0  0  0  0  0  0
   -3.3005   -7.5558    1.7113 H   0  0  0  0  0  0  0  0  0  0  0  0
    5.4823   -4.6487    1.3747 O   0  0  0  0  0  0  0  0  0  0  0  0
    5.2702   -4.0834    2.6584 C   0  0  0  0  0  0  0  0  0  0  0  0
    6.1848   -4.2690    3.2242 H   0  0  0  0  0  0  0  0  0  0  0  0
    5.0947   -3.0014    2.6011 H   0  0  0  0  0  0  0  0  0  0  0  0
    4.4252   -4.5565    3.1754 H   0  0  0  0  0  0  0  0  0  0  0  0
  1  7  1  0  0  0  0
  2  8  1  0  0  0  0
  2  1  2  0  0  0  0
  3  2  1  0  0  0  0
  4  3  2  0  0  0  0
  4  5  1  0  0  0  0
  5  6  2  0  0  0  0
  6  1  1  0  0  0  0
  6 31  1  0  0  0  0
  9  4  1  0  0  0  0
 10  5  1  0  0  0  0
 12 11  3  0  0  0  0
 13 14  2  0  0  0  0
 14 20  1  0  0  0  0
 15 14  1  0  0  0  0
 15 27  1  0  0  0  0
 16 15  2  0  0  0  0
 17 18  2  0  0  0  0
 17 16  1  0  0  0  0
 18 13  1  0  0  0  0
 19 13  1  0  0  0  0
 21 16  1  0  0  0  0
 22 17  1  0  0  0  0
 23 24  1  0  0  0  0
 23 18  1  0  0  0  0
 24  3  1  0  0  0  0
 25 23  2  0  0  0  0
 26 23  2  0  0  0  0
 27 30  1  0  0  0  0
 27 28  1  0  0  0  0
 29 27  1  0  0  0  0
 31 32  1  0  0  0  0
 32 35  1  0  0  0  0
 32 33  1  0  0  0  0
 34 32  1  0  0  0  0
M  END
