Coordinates from ORCA-job 4-MeO-Ph-N2-OTs-B3LYPG-6-31G_dp-MTMO-d009-169-n800
 OpenBabel09051908173D

 35 35  0  0  0  0  0  0  0  0999 V2000
    3.6834   -3.9509    0.6113 C   0  0  0  0  0  0  0  0  0  0  0  0
    2.7123   -3.8609   -0.3901 C   0  0  0  0  0  0  0  0  0  0  0  0
    2.9194   -4.4809   -1.6173 C   0  0  0  0  0  0  0  0  0  0  0  0
    4.0916   -5.2015   -1.8657 C   0  0  0  0  0  0  0  0  0  0  0  0
    5.0535   -5.2989   -0.8698 C   0  0  0  0  0  0  0  0  0  0  0  0
    4.8582   -4.6745    0.3731 C   0  0  0  0  0  0  0  0  0  0  0  0
    3.5127   -3.4561    1.5596 H   0  0  0  0  0  0  0  0  0  0  0  0
    1.7986   -3.2998   -0.2250 H   0  0  0  0  0  0  0  0  0  0  0  0
    4.2327   -5.6790   -2.8276 H   0  0  0  0  0  0  0  0  0  0  0  0
    5.9737   -5.8497   -1.0323 H   0  0  0  0  0  0  0  0  0  0  0  0
  -11.7572   -8.6402    0.3279 N   0  0  0  0  0  0  0  0  0  0  0  0
  -12.7071   -9.1558    0.0967 N   0  0  0  0  0  0  0  0  0  0  0  0
   -0.0134   -6.5022   -0.6628 C   0  0  0  0  0  0  0  0  0  0  0  0
   -0.9411   -6.5194    0.3788 C   0  0  0  0  0  0  0  0  0  0  0  0
   -2.0539   -5.6684    0.3740 C   0  0  0  0  0  0  0  0  0  0  0  0
   -2.2207   -4.7885   -0.7080 C   0  0  0  0  0  0  0  0  0  0  0  0
   -1.3075   -4.7553   -1.7570 C   0  0  0  0  0  0  0  0  0  0  0  0
   -0.2071   -5.6166   -1.7226 C   0  0  0  0  0  0  0  0  0  0  0  0
    0.8397   -7.1714   -0.6654 H   0  0  0  0  0  0  0  0  0  0  0  0
   -0.7984   -7.2092    1.2065 H   0  0  0  0  0  0  0  0  0  0  0  0
   -3.0819   -4.1256   -0.7304 H   0  0  0  0  0  0  0  0  0  0  0  0
   -1.4452   -4.0866   -2.6001 H   0  0  0  0  0  0  0  0  0  0  0  0
    0.9735   -5.5678   -3.0583 S   0  0  0  0  0  0  0  0  0  0  0  0
    1.9675   -4.2960   -2.6280 O   0  0  0  0  0  0  0  0  0  0  0  0
    0.3201   -5.0791   -4.2633 O   0  0  0  0  0  0  0  0  0  0  0  0
    1.7546   -6.8014   -3.0411 O   0  0  0  0  0  0  0  0  0  0  0  0
   -3.0694   -5.7078    1.4901 C   0  0  0  0  0  0  0  0  0  0  0  0
   -3.3371   -4.6996    1.8213 H   0  0  0  0  0  0  0  0  0  0  0  0
   -3.9950   -6.1938    1.1592 H   0  0  0  0  0  0  0  0  0  0  0  0
   -2.6952   -6.2622    2.3545 H   0  0  0  0  0  0  0  0  0  0  0  0
    5.8700   -4.8294    1.2750 O   0  0  0  0  0  0  0  0  0  0  0  0
    5.7361   -4.2175    2.5478 C   0  0  0  0  0  0  0  0  0  0  0  0
    6.6460   -4.4640    3.0977 H   0  0  0  0  0  0  0  0  0  0  0  0
    5.6482   -3.1263    2.4661 H   0  0  0  0  0  0  0  0  0  0  0  0
    4.8681   -4.6068    3.0957 H   0  0  0  0  0  0  0  0  0  0  0  0
  1  7  1  0  0  0  0
  2  8  1  0  0  0  0
  2  1  2  0  0  0  0
  3  2  1  0  0  0  0
  4  3  2  0  0  0  0
  4  5  1  0  0  0  0
  5  6  2  0  0  0  0
  6  1  1  0  0  0  0
  6 31  1  0  0  0  0
  9  4  1  0  0  0  0
 10  5  1  0  0  0  0
 12 11  3  0  0  0  0
 13 14  2  0  0  0  0
 14 20  1  0  0  0  0
 15 14  1  0  0  0  0
 15 27  1  0  0  0  0
 16 15  2  0  0  0  0
 17 18  2  0  0  0  0
 17 16  1  0  0  0  0
 18 13  1  0  0  0  0
 19 13  1  0  0  0  0
 21 16  1  0  0  0  0
 22 17  1  0  0  0  0
 23 26  2  0  0  0  0
 23 24  1  0  0  0  0
 23 18  1  0  0  0  0
 24  3  1  0  0  0  0
 25 23  2  0  0  0  0
 27 28  1  0  0  0  0
 27 30  1  0  0  0  0
 29 27  1  0  0  0  0
 31 32  1  0  0  0  0
 32 35  1  0  0  0  0
 32 33  1  0  0  0  0
 34 32  1  0  0  0  0
M  END
