Coordinates from ORCA-job 4-MeO-Ph-N2-OTs-B3LYPG-6-31G_dp-MTMO-d009-169-n800
 OpenBabel09051908173D

 35 35  0  0  0  0  0  0  0  0999 V2000
    3.4239   -4.0617    0.6989 C   0  0  0  0  0  0  0  0  0  0  0  0
    2.4795   -3.9371   -0.3241 C   0  0  0  0  0  0  0  0  0  0  0  0
    2.7155   -4.5215   -1.5636 C   0  0  0  0  0  0  0  0  0  0  0  0
    3.8904   -5.2409   -1.8027 C   0  0  0  0  0  0  0  0  0  0  0  0
    4.8257   -5.3728   -0.7857 C   0  0  0  0  0  0  0  0  0  0  0  0
    4.6011   -4.7843    0.4698 C   0  0  0  0  0  0  0  0  0  0  0  0
    3.2307   -3.5938    1.6564 H   0  0  0  0  0  0  0  0  0  0  0  0
    1.5645   -3.3761   -0.1661 H   0  0  0  0  0  0  0  0  0  0  0  0
    4.0543   -5.6908   -2.7743 H   0  0  0  0  0  0  0  0  0  0  0  0
    5.7473   -5.9234   -0.9408 H   0  0  0  0  0  0  0  0  0  0  0  0
   -7.3781   -7.5049    0.7303 N   0  0  0  0  0  0  0  0  0  0  0  0
   -8.3682   -7.9687    0.5691 N   0  0  0  0  0  0  0  0  0  0  0  0
   -0.2868   -6.5398   -0.7620 C   0  0  0  0  0  0  0  0  0  0  0  0
   -1.2605   -6.5820    0.2353 C   0  0  0  0  0  0  0  0  0  0  0  0
   -2.3730   -5.7303    0.2014 C   0  0  0  0  0  0  0  0  0  0  0  0
   -2.4893   -4.8229   -0.8640 C   0  0  0  0  0  0  0  0  0  0  0  0
   -1.5292   -4.7641   -1.8694 C   0  0  0  0  0  0  0  0  0  0  0  0
   -0.4317   -5.6273   -1.8072 C   0  0  0  0  0  0  0  0  0  0  0  0
    0.5653   -7.2102   -0.7429 H   0  0  0  0  0  0  0  0  0  0  0  0
   -1.1551   -7.2923    1.0513 H   0  0  0  0  0  0  0  0  0  0  0  0
   -3.3480   -4.1577   -0.9081 H   0  0  0  0  0  0  0  0  0  0  0  0
   -1.6283   -4.0739   -2.7004 H   0  0  0  0  0  0  0  0  0  0  0  0
    0.8037   -5.5532   -3.0913 S   0  0  0  0  0  0  0  0  0  0  0  0
    1.7911   -4.3008   -2.5924 O   0  0  0  0  0  0  0  0  0  0  0  0
    0.2023   -5.0294   -4.3086 O   0  0  0  0  0  0  0  0  0  0  0  0
    1.5744   -6.7934   -3.0740 O   0  0  0  0  0  0  0  0  0  0  0  0
   -3.4385   -5.8011    1.2682 C   0  0  0  0  0  0  0  0  0  0  0  0
   -3.7930   -4.8035    1.5446 H   0  0  0  0  0  0  0  0  0  0  0  0
   -4.3101   -6.3677    0.9182 H   0  0  0  0  0  0  0  0  0  0  0  0
   -3.0686   -6.2931    2.1717 H   0  0  0  0  0  0  0  0  0  0  0  0
    5.5885   -4.9710    1.3925 O   0  0  0  0  0  0  0  0  0  0  0  0
    5.4250   -4.3950    2.6784 C   0  0  0  0  0  0  0  0  0  0  0  0
    6.3193   -4.6619    3.2441 H   0  0  0  0  0  0  0  0  0  0  0  0
    5.3441   -3.3015    2.6257 H   0  0  0  0  0  0  0  0  0  0  0  0
    4.5414   -4.7951    3.1926 H   0  0  0  0  0  0  0  0  0  0  0  0
  1  7  1  0  0  0  0
  2  8  1  0  0  0  0
  2  1  2  0  0  0  0
  3  2  1  0  0  0  0
  4  3  2  0  0  0  0
  4  5  1  0  0  0  0
  5  6  2  0  0  0  0
  6  1  1  0  0  0  0
  6 31  1  0  0  0  0
  9  4  1  0  0  0  0
 10  5  1  0  0  0  0
 12 11  3  0  0  0  0
 13 19  1  0  0  0  0
 13 14  2  0  0  0  0
 14 20  1  0  0  0  0
 15 14  1  0  0  0  0
 15 27  1  0  0  0  0
 16 15  2  0  0  0  0
 17 18  2  0  0  0  0
 17 16  1  0  0  0  0
 18 13  1  0  0  0  0
 21 16  1  0  0  0  0
 22 17  1  0  0  0  0
 23 26  2  0  0  0  0
 23 24  1  0  0  0  0
 23 18  1  0  0  0  0
 24  3  1  0  0  0  0
 25 23  2  0  0  0  0
 27 28  1  0  0  0  0
 27 30  1  0  0  0  0
 29 27  1  0  0  0  0
 31 32  1  0  0  0  0
 32 35  1  0  0  0  0
 32 33  1  0  0  0  0
 34 32  1  0  0  0  0
M  END
