Coordinates from ORCA-job 4-MeO-Ph-N2-OTs-B3LYPG-6-31G_dp-MTMO-d009-169-n800
 OpenBabel09051908173D

 35 34  0  0  0  0  0  0  0  0999 V2000
    4.4043   -2.1246   -0.2609 C   0  0  0  0  0  0  0  0  0  0  0  0
    3.1696   -1.9465   -0.9130 C   0  0  0  0  0  0  0  0  0  0  0  0
    2.5032   -3.1237   -1.0304 C   0  0  0  0  0  0  0  0  0  0  0  0
    2.7170   -4.4031   -0.6800 C   0  0  0  0  0  0  0  0  0  0  0  0
    3.9623   -4.5227   -0.0421 C   0  0  0  0  0  0  0  0  0  0  0  0
    4.7956   -3.4059    0.1711 C   0  0  0  0  0  0  0  0  0  0  0  0
    5.0305   -1.2546   -0.1065 H   0  0  0  0  0  0  0  0  0  0  0  0
    2.8211   -0.9857   -1.2652 H   0  0  0  0  0  0  0  0  0  0  0  0
    2.0314   -5.2700   -0.8643 H   0  0  0  0  0  0  0  0  0  0  0  0
    4.2914   -5.4983    0.3001 H   0  0  0  0  0  0  0  0  0  0  0  0
    0.7501   -2.8121   -2.0289 N   0  0  0  0  0  0  0  0  0  0  0  0
    0.1094   -2.2764   -2.7564 N   0  0  0  0  0  0  0  0  0  0  0  0
   -1.4238   -7.3489    0.5358 C   0  0  0  0  0  0  0  0  0  0  0  0
   -2.4281   -8.0942    1.1466 C   0  0  0  0  0  0  0  0  0  0  0  0
   -3.6684   -8.2925    0.5195 C   0  0  0  0  0  0  0  0  0  0  0  0
   -3.8732   -7.7202   -0.7412 C   0  0  0  0  0  0  0  0  0  0  0  0
   -2.8748   -6.9697   -1.3653 C   0  0  0  0  0  0  0  0  0  0  0  0
   -1.6531   -6.7859   -0.7219 C   0  0  0  0  0  0  0  0  0  0  0  0
   -0.4622   -7.2122    1.0192 H   0  0  0  0  0  0  0  0  0  0  0  0
   -2.2480   -8.5324    2.1254 H   0  0  0  0  0  0  0  0  0  0  0  0
   -4.8254   -7.8653   -1.2459 H   0  0  0  0  0  0  0  0  0  0  0  0
   -3.0268   -6.5355   -2.3471 H   0  0  0  0  0  0  0  0  0  0  0  0
   -0.3834   -5.7817   -1.5047 S   0  0  0  0  0  0  0  0  0  0  0  0
   -0.3853   -4.4769   -0.7495 O   0  0  0  0  0  0  0  0  0  0  0  0
   -0.7485   -5.6412   -2.9279 O   0  0  0  0  0  0  0  0  0  0  0  0
    0.9074   -6.5199   -1.2572 O   0  0  0  0  0  0  0  0  0  0  0  0
   -4.7404   -9.1246    1.1832 C   0  0  0  0  0  0  0  0  0  0  0  0
   -5.7109   -8.9878    0.6980 H   0  0  0  0  0  0  0  0  0  0  0  0
   -4.4976  -10.1942    1.1388 H   0  0  0  0  0  0  0  0  0  0  0  0
   -4.8517   -8.8645    2.2414 H   0  0  0  0  0  0  0  0  0  0  0  0
    5.9613   -3.6693    0.8048 O   0  0  0  0  0  0  0  0  0  0  0  0
    6.8603   -2.5964    1.0660 C   0  0  0  0  0  0  0  0  0  0  0  0
    7.7122   -3.0411    1.5802 H   0  0  0  0  0  0  0  0  0  0  0  0
    7.2036   -2.1270    0.1362 H   0  0  0  0  0  0  0  0  0  0  0  0
    6.4009   -1.8385    1.7127 H   0  0  0  0  0  0  0  0  0  0  0  0
  1  7  1  0  0  0  0
  1  6  2  0  0  0  0
  2  1  1  0  0  0  0
  3  2  2  0  0  0  0
  3  4  1  0  0  0  0
  4  5  2  0  0  0  0
  5  6  1  0  0  0  0
  5 10  1  0  0  0  0
  6 31  1  0  0  0  0
  8  2  1  0  0  0  0
  9  4  1  0  0  0  0
 12 11  3  0  0  0  0
 13 19  1  0  0  0  0
 13 14  1  0  0  0  0
 14 20  1  0  0  0  0
 15 14  2  0  0  0  0
 15 27  1  0  0  0  0
 16 15  1  0  0  0  0
 17 16  2  0  0  0  0
 17 18  1  0  0  0  0
 18 13  2  0  0  0  0
 21 16  1  0  0  0  0
 22 17  1  0  0  0  0
 23 26  2  0  0  0  0
 23 24  1  0  0  0  0
 23 18  1  0  0  0  0
 25 23  2  0  0  0  0
 27 30  1  0  0  0  0
 28 27  1  0  0  0  0
 29 27  1  0  0  0  0
 31 32  1  0  0  0  0
 32 33  1  0  0  0  0
 32 35  1  0  0  0  0
 34 32  1  0  0  0  0
M  RAD  2   3   2  24   2
M  END
