Coordinates from ORCA-job 4-MeO-Ph-N2-OTs-B3LYPG-6-31G_dp-MTMO-d009-169-n800
 OpenBabel09051908173D

 35 34  0  0  0  0  0  0  0  0999 V2000
    4.0219   -2.6881    0.3216 C   0  0  0  0  0  0  0  0  0  0  0  0
    3.0405   -1.9197   -0.3423 C   0  0  0  0  0  0  0  0  0  0  0  0
    2.2348   -2.7743   -1.0332 C   0  0  0  0  0  0  0  0  0  0  0  0
    2.1413   -4.0236   -1.2187 C   0  0  0  0  0  0  0  0  0  0  0  0
    3.1083   -4.8064   -0.5717 C   0  0  0  0  0  0  0  0  0  0  0  0
    4.0555   -4.0990    0.2093 C   0  0  0  0  0  0  0  0  0  0  0  0
    4.7568   -2.1657    0.9224 H   0  0  0  0  0  0  0  0  0  0  0  0
    2.9774   -0.8404   -0.2860 H   0  0  0  0  0  0  0  0  0  0  0  0
    0.8422   -4.8980   -2.2616 H   0  0  0  0  0  0  0  0  0  0  0  0
    3.1697   -5.8887   -0.6317 H   0  0  0  0  0  0  0  0  0  0  0  0
    0.7060   -1.2707   -2.2014 N   0  0  0  0  0  0  0  0  0  0  0  0
   -0.0123   -1.1791   -3.0365 N   0  0  0  0  0  0  0  0  0  0  0  0
   -1.6307   -5.8430    0.1316 C   0  0  0  0  0  0  0  0  0  0  0  0
   -1.9738   -6.7421    1.1391 C   0  0  0  0  0  0  0  0  0  0  0  0
   -2.4399   -8.0293    0.8356 C   0  0  0  0  0  0  0  0  0  0  0  0
   -2.5655   -8.3937   -0.5129 C   0  0  0  0  0  0  0  0  0  0  0  0
   -2.2275   -7.5084   -1.5340 C   0  0  0  0  0  0  0  0  0  0  0  0
   -1.7570   -6.2374   -1.2011 C   0  0  0  0  0  0  0  0  0  0  0  0
   -1.2873   -4.8420    0.3676 H   0  0  0  0  0  0  0  0  0  0  0  0
   -1.8850   -6.4366    2.1786 H   0  0  0  0  0  0  0  0  0  0  0  0
   -2.9403   -9.3813   -0.7670 H   0  0  0  0  0  0  0  0  0  0  0  0
   -2.3427   -7.7846   -2.5764 H   0  0  0  0  0  0  0  0  0  0  0  0
   -1.3098   -5.0991   -2.5051 S   0  0  0  0  0  0  0  0  0  0  0  0
   -1.3495   -3.7394   -1.9597 O   0  0  0  0  0  0  0  0  0  0  0  0
   -2.0523   -5.4606   -3.7053 O   0  0  0  0  0  0  0  0  0  0  0  0
    0.2370   -5.4768   -2.8088 O   0  0  0  0  0  0  0  0  0  0  0  0
   -2.7819   -9.0054    1.9357 C   0  0  0  0  0  0  0  0  0  0  0  0
   -3.5410   -9.7239    1.6127 H   0  0  0  0  0  0  0  0  0  0  0  0
   -1.8975   -9.5795    2.2391 H   0  0  0  0  0  0  0  0  0  0  0  0
   -3.1557   -8.4913    2.8258 H   0  0  0  0  0  0  0  0  0  0  0  0
    4.9813   -4.8817    0.8312 O   0  0  0  0  0  0  0  0  0  0  0  0
    5.9759   -4.2640    1.6331 C   0  0  0  0  0  0  0  0  0  0  0  0
    6.5916   -5.0741    2.0260 H   0  0  0  0  0  0  0  0  0  0  0  0
    6.6059   -3.5853    1.0438 H   0  0  0  0  0  0  0  0  0  0  0  0
    5.5331   -3.7100    2.4711 H   0  0  0  0  0  0  0  0  0  0  0  0
  1  7  1  0  0  0  0
  2  8  1  0  0  0  0
  2  1  2  0  0  0  0
  3  2  1  0  0  0  0
  4  3  2  0  0  0  0
  4  5  1  0  0  0  0
  5  6  2  0  0  0  0
  6  1  1  0  0  0  0
  6 31  1  0  0  0  0
 10  5  1  0  0  0  0
 12 11  3  0  0  0  0
 13 19  1  0  0  0  0
 13 14  2  0  0  0  0
 14 20  1  0  0  0  0
 15 14  1  0  0  0  0
 15 27  1  0  0  0  0
 16 15  2  0  0  0  0
 17 18  2  0  0  0  0
 17 16  1  0  0  0  0
 18 13  1  0  0  0  0
 21 16  1  0  0  0  0
 22 17  1  0  0  0  0
 23 24  2  0  0  0  0
 23 18  1  0  0  0  0
 25 23  2  0  0  0  0
 26 23  1  0  0  0  0
 26  9  1  0  0  0  0
 27 29  1  0  0  0  0
 27 30  1  0  0  0  0
 28 27  1  0  0  0  0
 31 32  1  0  0  0  0
 32 33  1  0  0  0  0
 32 35  1  0  0  0  0
 34 32  1  0  0  0  0
M  RAD  2   3   2   4   2
M  END
