Coordinates from ORCA-job 4-MeO-Ph-N2-OTs-B3LYPG-6-31G_dp-MTMO-d009-169-n800
 OpenBabel09051908173D

 35 35  0  0  0  0  0  0  0  0999 V2000
    3.1871   -3.9233    0.6884 C   0  0  0  0  0  0  0  0  0  0  0  0
    2.2304   -3.9092   -0.3305 C   0  0  0  0  0  0  0  0  0  0  0  0
    2.5271   -4.4630   -1.5711 C   0  0  0  0  0  0  0  0  0  0  0  0
    3.7771   -5.0404   -1.8156 C   0  0  0  0  0  0  0  0  0  0  0  0
    4.7250   -5.0639   -0.8019 C   0  0  0  0  0  0  0  0  0  0  0  0
    4.4389   -4.5056    0.4548 C   0  0  0  0  0  0  0  0  0  0  0  0
    2.9448   -3.4809    1.6469 H   0  0  0  0  0  0  0  0  0  0  0  0
    1.2576   -3.4577   -0.1689 H   0  0  0  0  0  0  0  0  0  0  0  0
    3.9886   -5.4675   -2.7882 H   0  0  0  0  0  0  0  0  0  0  0  0
    5.7030   -5.5052   -0.9607 H   0  0  0  0  0  0  0  0  0  0  0  0
   -6.6866   -4.8323    0.2049 N   0  0  0  0  0  0  0  0  0  0  0  0
   -7.7638   -4.5872    0.1756 N   0  0  0  0  0  0  0  0  0  0  0  0
   -0.0769   -6.8875   -0.7494 C   0  0  0  0  0  0  0  0  0  0  0  0
   -0.9957   -7.1008    0.2751 C   0  0  0  0  0  0  0  0  0  0  0  0
   -2.2374   -6.4466    0.2866 C   0  0  0  0  0  0  0  0  0  0  0  0
   -2.5420   -5.5690   -0.7639 C   0  0  0  0  0  0  0  0  0  0  0  0
   -1.6358   -5.3397   -1.7980 C   0  0  0  0  0  0  0  0  0  0  0  0
   -0.4077   -6.0030   -1.7793 C   0  0  0  0  0  0  0  0  0  0  0  0
    0.8736   -7.4080   -0.7681 H   0  0  0  0  0  0  0  0  0  0  0  0
   -0.7475   -7.7933    1.0756 H   0  0  0  0  0  0  0  0  0  0  0  0
   -3.5052   -5.0669   -0.7770 H   0  0  0  0  0  0  0  0  0  0  0  0
   -1.8791   -4.6744   -2.6195 H   0  0  0  0  0  0  0  0  0  0  0  0
    0.7547   -5.7169   -3.1005 S   0  0  0  0  0  0  0  0  0  0  0  0
    1.5765   -4.3525   -2.5938 O   0  0  0  0  0  0  0  0  0  0  0  0
    0.0422   -5.2494   -4.2800 O   0  0  0  0  0  0  0  0  0  0  0  0
    1.6920   -6.8359   -3.1497 O   0  0  0  0  0  0  0  0  0  0  0  0
   -3.2179   -6.6831    1.4102 C   0  0  0  0  0  0  0  0  0  0  0  0
   -2.8625   -6.2289    2.3426 H   0  0  0  0  0  0  0  0  0  0  0  0
   -4.1973   -6.2549    1.1837 H   0  0  0  0  0  0  0  0  0  0  0  0
   -3.3495   -7.7526    1.6035 H   0  0  0  0  0  0  0  0  0  0  0  0
    5.4439   -4.5786    1.3743 O   0  0  0  0  0  0  0  0  0  0  0  0
    5.2214   -4.0210    2.6596 C   0  0  0  0  0  0  0  0  0  0  0  0
    6.1409   -4.1874    3.2235 H   0  0  0  0  0  0  0  0  0  0  0  0
    5.0220   -2.9430    2.6048 H   0  0  0  0  0  0  0  0  0  0  0  0
    4.3879   -4.5136    3.1768 H   0  0  0  0  0  0  0  0  0  0  0  0
  1  7  1  0  0  0  0
  2  8  1  0  0  0  0
  2  1  2  0  0  0  0
  3  2  1  0  0  0  0
  4  3  2  0  0  0  0
  4  5  1  0  0  0  0
  5  6  2  0  0  0  0
  6  1  1  0  0  0  0
  6 31  1  0  0  0  0
  9  4  1  0  0  0  0
 10  5  1  0  0  0  0
 12 11  3  0  0  0  0
 13 14  2  0  0  0  0
 14 15  1  0  0  0  0
 14 20  1  0  0  0  0
 15 27  1  0  0  0  0
 16 15  2  0  0  0  0
 17 18  2  0  0  0  0
 17 16  1  0  0  0  0
 18 13  1  0  0  0  0
 19 13  1  0  0  0  0
 21 16  1  0  0  0  0
 22 17  1  0  0  0  0
 23 24  1  0  0  0  0
 23 18  1  0  0  0  0
 24  3  1  0  0  0  0
 25 23  2  0  0  0  0
 26 23  2  0  0  0  0
 27 30  1  0  0  0  0
 27 28  1  0  0  0  0
 29 27  1  0  0  0  0
 31 32  1  0  0  0  0
 32 35  1  0  0  0  0
 32 33  1  0  0  0  0
 34 32  1  0  0  0  0
M  END
