Coordinates from ORCA-job 4-MeO-Ph-N2-OTs-B3LYPG-6-31G_dp-MTMO-d009-169-n800
 OpenBabel09051908173D

 35 35  0  0  0  0  0  0  0  0999 V2000
    2.8007   -3.8657    0.6062 C   0  0  0  0  0  0  0  0  0  0  0  0
    1.6571   -3.9173   -0.1959 C   0  0  0  0  0  0  0  0  0  0  0  0
    1.7535   -4.3346   -1.5187 C   0  0  0  0  0  0  0  0  0  0  0  0
    2.9857   -4.7112   -2.0622 C   0  0  0  0  0  0  0  0  0  0  0  0
    4.1208   -4.6706   -1.2643 C   0  0  0  0  0  0  0  0  0  0  0  0
    4.0381   -4.2466    0.0723 C   0  0  0  0  0  0  0  0  0  0  0  0
    2.7124   -3.5284    1.6314 H   0  0  0  0  0  0  0  0  0  0  0  0
    0.6914   -3.6210    0.1992 H   0  0  0  0  0  0  0  0  0  0  0  0
    3.0391   -5.0359   -3.0941 H   0  0  0  0  0  0  0  0  0  0  0  0
    5.0905   -4.9578   -1.6564 H   0  0  0  0  0  0  0  0  0  0  0  0
   -2.3043   -2.3802   -2.8076 N   0  0  0  0  0  0  0  0  0  0  0  0
   -1.8753   -1.7784   -3.6290 N   0  0  0  0  0  0  0  0  0  0  0  0
   -0.3274   -7.2872   -0.5414 C   0  0  0  0  0  0  0  0  0  0  0  0
   -0.9567   -7.7146    0.6278 C   0  0  0  0  0  0  0  0  0  0  0  0
   -2.1582   -7.1370    1.0577 C   0  0  0  0  0  0  0  0  0  0  0  0
   -2.7269   -6.1136    0.2808 C   0  0  0  0  0  0  0  0  0  0  0  0
   -2.1177   -5.6736   -0.8895 C   0  0  0  0  0  0  0  0  0  0  0  0
   -0.9165   -6.2683   -1.2890 C   0  0  0  0  0  0  0  0  0  0  0  0
    0.5956   -7.7415   -0.8818 H   0  0  0  0  0  0  0  0  0  0  0  0
   -0.5084   -8.5138    1.2115 H   0  0  0  0  0  0  0  0  0  0  0  0
   -3.6643   -5.6628    0.5946 H   0  0  0  0  0  0  0  0  0  0  0  0
   -2.5652   -4.8909   -1.4927 H   0  0  0  0  0  0  0  0  0  0  0  0
   -0.1282   -5.7119   -2.7887 S   0  0  0  0  0  0  0  0  0  0  0  0
    0.6034   -4.2860   -2.3174 O   0  0  0  0  0  0  0  0  0  0  0  0
   -1.1385   -5.2581   -3.7333 O   0  0  0  0  0  0  0  0  0  0  0  0
    0.9057   -6.6734   -3.1611 O   0  0  0  0  0  0  0  0  0  0  0  0
   -2.8293   -7.5919    2.3308 C   0  0  0  0  0  0  0  0  0  0  0  0
   -2.7460   -6.8276    3.1135 H   0  0  0  0  0  0  0  0  0  0  0  0
   -3.8971   -7.7760    2.1734 H   0  0  0  0  0  0  0  0  0  0  0  0
   -2.3794   -8.5105    2.7147 H   0  0  0  0  0  0  0  0  0  0  0  0
    5.2157   -4.2381    0.7609 O   0  0  0  0  0  0  0  0  0  0  0  0
    5.2012   -3.8109    2.1135 C   0  0  0  0  0  0  0  0  0  0  0  0
    6.2326   -3.8803    2.4625 H   0  0  0  0  0  0  0  0  0  0  0  0
    4.8590   -2.7721    2.2072 H   0  0  0  0  0  0  0  0  0  0  0  0
    4.5668   -4.4552    2.7357 H   0  0  0  0  0  0  0  0  0  0  0  0
  1  7  1  0  0  0  0
  2  8  1  0  0  0  0
  2  1  2  0  0  0  0
  3  2  1  0  0  0  0
  4  3  2  0  0  0  0
  4  5  1  0  0  0  0
  5  6  2  0  0  0  0
  6  1  1  0  0  0  0
  6 31  1  0  0  0  0
  9  4  1  0  0  0  0
 10  5  1  0  0  0  0
 12 11  3  0  0  0  0
 13 14  2  0  0  0  0
 14 15  1  0  0  0  0
 14 20  1  0  0  0  0
 15 27  1  0  0  0  0
 16 21  1  0  0  0  0
 16 15  2  0  0  0  0
 17 16  1  0  0  0  0
 18 17  2  0  0  0  0
 18 13  1  0  0  0  0
 19 13  1  0  0  0  0
 22 17  1  0  0  0  0
 23 24  1  0  0  0  0
 23 18  1  0  0  0  0
 24  3  1  0  0  0  0
 25 23  2  0  0  0  0
 26 23  2  0  0  0  0
 27 30  1  0  0  0  0
 27 28  1  0  0  0  0
 29 27  1  0  0  0  0
 31 32  1  0  0  0  0
 32 34  1  0  0  0  0
 32 33  1  0  0  0  0
 32 35  1  0  0  0  0
M  END
