Coordinates from ORCA-job 4-MeO-Ph-N2-OTs-B3LYPG-6-31G_dp-MTMO-d009-169-n800
 OpenBabel09051908173D

 35 35  0  0  0  0  0  0  0  0999 V2000
    2.9736   -3.9435    0.7285 C   0  0  0  0  0  0  0  0  0  0  0  0
    1.8256   -3.8958   -0.0674 C   0  0  0  0  0  0  0  0  0  0  0  0
    1.8941   -4.2520   -1.4097 C   0  0  0  0  0  0  0  0  0  0  0  0
    3.1028   -4.6645   -1.9795 C   0  0  0  0  0  0  0  0  0  0  0  0
    4.2417   -4.7230   -1.1879 C   0  0  0  0  0  0  0  0  0  0  0  0
    4.1872   -4.3617    0.1683 C   0  0  0  0  0  0  0  0  0  0  0  0
    2.9074   -3.6520    1.7694 H   0  0  0  0  0  0  0  0  0  0  0  0
    0.8785   -3.5688    0.3480 H   0  0  0  0  0  0  0  0  0  0  0  0
    3.1354   -4.9399   -3.0265 H   0  0  0  0  0  0  0  0  0  0  0  0
    5.1935   -5.0402   -1.6004 H   0  0  0  0  0  0  0  0  0  0  0  0
   -3.6610   -3.0229   -3.3968 N   0  0  0  0  0  0  0  0  0  0  0  0
   -3.4815   -2.5390   -4.3737 N   0  0  0  0  0  0  0  0  0  0  0  0
   -0.2569   -7.0656   -0.5218 C   0  0  0  0  0  0  0  0  0  0  0  0
   -0.9007   -7.5295    0.6247 C   0  0  0  0  0  0  0  0  0  0  0  0
   -2.1423   -7.0136    1.0189 C   0  0  0  0  0  0  0  0  0  0  0  0
   -2.7365   -6.0171    0.2274 C   0  0  0  0  0  0  0  0  0  0  0  0
   -2.1120   -5.5390   -0.9206 C   0  0  0  0  0  0  0  0  0  0  0  0
   -0.8706   -6.0703   -1.2831 C   0  0  0  0  0  0  0  0  0  0  0  0
    0.6950   -7.4770   -0.8358 H   0  0  0  0  0  0  0  0  0  0  0  0
   -0.4330   -8.3104    1.2182 H   0  0  0  0  0  0  0  0  0  0  0  0
   -3.7064   -5.6176    0.5101 H   0  0  0  0  0  0  0  0  0  0  0  0
   -2.5846   -4.7836   -1.5393 H   0  0  0  0  0  0  0  0  0  0  0  0
   -0.0567   -5.4608   -2.7474 S   0  0  0  0  0  0  0  0  0  0  0  0
    0.7437   -4.1025   -2.1955 O   0  0  0  0  0  0  0  0  0  0  0  0
   -1.0458   -4.9063   -3.6602 O   0  0  0  0  0  0  0  0  0  0  0  0
    0.9322   -6.4447   -3.1789 O   0  0  0  0  0  0  0  0  0  0  0  0
   -2.8273   -7.5066    2.2704 C   0  0  0  0  0  0  0  0  0  0  0  0
   -2.7484   -6.7676    3.0776 H   0  0  0  0  0  0  0  0  0  0  0  0
   -3.8938   -7.6825    2.0978 H   0  0  0  0  0  0  0  0  0  0  0  0
   -2.3827   -8.4376    2.6299 H   0  0  0  0  0  0  0  0  0  0  0  0
    5.3662   -4.4482    0.8491 O   0  0  0  0  0  0  0  0  0  0  0  0
    5.3794   -4.0831    2.2198 C   0  0  0  0  0  0  0  0  0  0  0  0
    6.4077   -4.2196    2.5581 H   0  0  0  0  0  0  0  0  0  0  0  0
    5.0893   -3.0341    2.3625 H   0  0  0  0  0  0  0  0  0  0  0  0
    4.7165   -4.7228    2.8163 H   0  0  0  0  0  0  0  0  0  0  0  0
  1  7  1  0  0  0  0
  2  8  1  0  0  0  0
  2  1  2  0  0  0  0
  3  2  1  0  0  0  0
  4  3  2  0  0  0  0
  4  5  1  0  0  0  0
  5  6  2  0  0  0  0
  6  1  1  0  0  0  0
  6 31  1  0  0  0  0
  9  4  1  0  0  0  0
 10  5  1  0  0  0  0
 12 11  3  0  0  0  0
 13 14  2  0  0  0  0
 14 15  1  0  0  0  0
 14 20  1  0  0  0  0
 15 27  1  0  0  0  0
 16 21  1  0  0  0  0
 16 15  2  0  0  0  0
 17 16  1  0  0  0  0
 18 17  2  0  0  0  0
 18 13  1  0  0  0  0
 19 13  1  0  0  0  0
 22 17  1  0  0  0  0
 23 24  1  0  0  0  0
 23 18  1  0  0  0  0
 24  3  1  0  0  0  0
 25 23  2  0  0  0  0
 26 23  2  0  0  0  0
 27 30  1  0  0  0  0
 27 28  1  0  0  0  0
 29 27  1  0  0  0  0
 31 32  1  0  0  0  0
 32 34  1  0  0  0  0
 32 33  1  0  0  0  0
 32 35  1  0  0  0  0
M  END
