Coordinates from ORCA-job 4-MeO-Ph-N2-OTs-B3LYPG-6-31G_dp-MTMO-d009-169-n800
 OpenBabel09051908173D

 35 35  0  0  0  0  0  0  0  0999 V2000
    3.7473   -3.8982    0.5894 C   0  0  0  0  0  0  0  0  0  0  0  0
    2.7644   -3.8281   -0.4020 C   0  0  0  0  0  0  0  0  0  0  0  0
    2.9688   -4.4492   -1.6291 C   0  0  0  0  0  0  0  0  0  0  0  0
    4.1502   -5.1512   -1.8873 C   0  0  0  0  0  0  0  0  0  0  0  0
    5.1240   -5.2290   -0.9012 C   0  0  0  0  0  0  0  0  0  0  0  0
    4.9313   -4.6034    0.3415 C   0  0  0  0  0  0  0  0  0  0  0  0
    3.5784   -3.4029    1.5378 H   0  0  0  0  0  0  0  0  0  0  0  0
    1.8433   -3.2816   -0.2293 H   0  0  0  0  0  0  0  0  0  0  0  0
    4.2891   -5.6299   -2.8489 H   0  0  0  0  0  0  0  0  0  0  0  0
    6.0513   -5.7654   -1.0715 H   0  0  0  0  0  0  0  0  0  0  0  0
  -13.0661   -8.7506    0.1764 N   0  0  0  0  0  0  0  0  0  0  0  0
  -14.0139   -9.2689   -0.0576 N   0  0  0  0  0  0  0  0  0  0  0  0
    0.0931   -6.5215   -0.6334 C   0  0  0  0  0  0  0  0  0  0  0  0
   -0.8202   -6.5548    0.4208 C   0  0  0  0  0  0  0  0  0  0  0  0
   -1.9512   -5.7284    0.4277 C   0  0  0  0  0  0  0  0  0  0  0  0
   -2.1522   -4.8573   -0.6559 C   0  0  0  0  0  0  0  0  0  0  0  0
   -1.2541   -4.8083   -1.7170 C   0  0  0  0  0  0  0  0  0  0  0  0
   -0.1342   -5.6451   -1.6939 C   0  0  0  0  0  0  0  0  0  0  0  0
    0.9604   -7.1718   -0.6449 H   0  0  0  0  0  0  0  0  0  0  0  0
   -0.6514   -7.2379    1.2491 H   0  0  0  0  0  0  0  0  0  0  0  0
   -3.0286   -4.2144   -0.6697 H   0  0  0  0  0  0  0  0  0  0  0  0
   -1.4182   -4.1471   -2.5612 H   0  0  0  0  0  0  0  0  0  0  0  0
    1.0272   -5.5758   -3.0454 S   0  0  0  0  0  0  0  0  0  0  0  0
    2.0027   -4.2847   -2.6298 O   0  0  0  0  0  0  0  0  0  0  0  0
    0.3488   -5.1016   -4.2423 O   0  0  0  0  0  0  0  0  0  0  0  0
    1.8318   -6.7944   -3.0373 O   0  0  0  0  0  0  0  0  0  0  0  0
   -2.9489   -5.7812    1.5595 C   0  0  0  0  0  0  0  0  0  0  0  0
   -3.1856   -4.7779    1.9281 H   0  0  0  0  0  0  0  0  0  0  0  0
   -3.8921   -6.2323    1.2293 H   0  0  0  0  0  0  0  0  0  0  0  0
   -2.5736   -6.3722    2.3987 H   0  0  0  0  0  0  0  0  0  0  0  0
    5.9547   -4.7387    1.2334 O   0  0  0  0  0  0  0  0  0  0  0  0
    5.8241   -4.1243    2.5054 C   0  0  0  0  0  0  0  0  0  0  0  0
    6.7429   -4.3552    3.0471 H   0  0  0  0  0  0  0  0  0  0  0  0
    5.7190   -3.0349    2.4208 H   0  0  0  0  0  0  0  0  0  0  0  0
    4.9674   -4.5247    3.0632 H   0  0  0  0  0  0  0  0  0  0  0  0
  1  7  1  0  0  0  0
  2  8  1  0  0  0  0
  2  1  2  0  0  0  0
  3  2  1  0  0  0  0
  4  3  2  0  0  0  0
  4  5  1  0  0  0  0
  5  6  2  0  0  0  0
  6  1  1  0  0  0  0
  6 31  1  0  0  0  0
  9  4  1  0  0  0  0
 10  5  1  0  0  0  0
 12 11  3  0  0  0  0
 13 14  2  0  0  0  0
 14 15  1  0  0  0  0
 14 20  1  0  0  0  0
 15 27  1  0  0  0  0
 16 15  2  0  0  0  0
 17 18  2  0  0  0  0
 17 16  1  0  0  0  0
 18 13  1  0  0  0  0
 19 13  1  0  0  0  0
 21 16  1  0  0  0  0
 22 17  1  0  0  0  0
 23 26  2  0  0  0  0
 23 24  1  0  0  0  0
 23 18  1  0  0  0  0
 24  3  1  0  0  0  0
 25 23  2  0  0  0  0
 27 28  1  0  0  0  0
 27 30  1  0  0  0  0
 29 27  1  0  0  0  0
 31 32  1  0  0  0  0
 32 33  1  0  0  0  0
 32 35  1  0  0  0  0
 34 32  1  0  0  0  0
M  END
