Coordinates from ORCA-job 4-MeO-Ph-N2-OTs-B3LYPG-6-31G_dp-MTMO-d009-169-n800
 OpenBabel09051908173D

 35 34  0  0  0  0  0  0  0  0999 V2000
    4.3984   -2.1099   -0.2691 C   0  0  0  0  0  0  0  0  0  0  0  0
    3.1494   -1.9599   -0.8982 C   0  0  0  0  0  0  0  0  0  0  0  0
    2.4922   -3.1456   -1.0027 C   0  0  0  0  0  0  0  0  0  0  0  0
    2.7487   -4.4205   -0.6437 C   0  0  0  0  0  0  0  0  0  0  0  0
    4.0061   -4.5140   -0.0300 C   0  0  0  0  0  0  0  0  0  0  0  0
    4.8218   -3.3808    0.1622 C   0  0  0  0  0  0  0  0  0  0  0  0
    5.0111   -1.2277   -0.1309 H   0  0  0  0  0  0  0  0  0  0  0  0
    2.7783   -1.0065   -1.2482 H   0  0  0  0  0  0  0  0  0  0  0  0
    2.0822   -5.2951   -0.8123 H   0  0  0  0  0  0  0  0  0  0  0  0
    4.3615   -5.4809    0.3100 H   0  0  0  0  0  0  0  0  0  0  0  0
    0.7434   -2.8843   -1.9402 N   0  0  0  0  0  0  0  0  0  0  0  0
    0.1087   -2.3244   -2.6567 N   0  0  0  0  0  0  0  0  0  0  0  0
   -1.4326   -7.4110    0.5327 C   0  0  0  0  0  0  0  0  0  0  0  0
   -2.4585   -8.1375    1.1299 C   0  0  0  0  0  0  0  0  0  0  0  0
   -3.7048   -8.2856    0.5004 C   0  0  0  0  0  0  0  0  0  0  0  0
   -3.8932   -7.6827   -0.7487 C   0  0  0  0  0  0  0  0  0  0  0  0
   -2.8734   -6.9498   -1.3588 C   0  0  0  0  0  0  0  0  0  0  0  0
   -1.6463   -6.8163   -0.7132 C   0  0  0  0  0  0  0  0  0  0  0  0
   -0.4664   -7.3131    1.0163 H   0  0  0  0  0  0  0  0  0  0  0  0
   -2.2913   -8.6004    2.0994 H   0  0  0  0  0  0  0  0  0  0  0  0
   -4.8495   -7.7900   -1.2550 H   0  0  0  0  0  0  0  0  0  0  0  0
   -3.0128   -6.4925   -2.3320 H   0  0  0  0  0  0  0  0  0  0  0  0
   -0.3458   -5.8385   -1.4777 S   0  0  0  0  0  0  0  0  0  0  0  0
   -0.3415   -4.5346   -0.7090 O   0  0  0  0  0  0  0  0  0  0  0  0
   -0.6954   -5.6716   -2.9020 O   0  0  0  0  0  0  0  0  0  0  0  0
    0.9265   -6.5942   -1.2191 O   0  0  0  0  0  0  0  0  0  0  0  0
   -4.8014   -9.0964    1.1500 C   0  0  0  0  0  0  0  0  0  0  0  0
   -5.7623   -8.9418    0.6512 H   0  0  0  0  0  0  0  0  0  0  0  0
   -4.5781  -10.1703    1.1107 H   0  0  0  0  0  0  0  0  0  0  0  0
   -4.9226   -8.8324    2.2062 H   0  0  0  0  0  0  0  0  0  0  0  0
    6.0038   -3.6190    0.7753 O   0  0  0  0  0  0  0  0  0  0  0  0
    6.8871   -2.5283    1.0150 C   0  0  0  0  0  0  0  0  0  0  0  0
    7.7569   -2.9546    1.5145 H   0  0  0  0  0  0  0  0  0  0  0  0
    7.2038   -2.0565    0.0770 H   0  0  0  0  0  0  0  0  0  0  0  0
    6.4259   -1.7763    1.6673 H   0  0  0  0  0  0  0  0  0  0  0  0
  1  7  1  0  0  0  0
  1  6  2  0  0  0  0
  2  1  1  0  0  0  0
  3  2  2  0  0  0  0
  3  4  1  0  0  0  0
  4  5  2  0  0  0  0
  5  6  1  0  0  0  0
  5 10  1  0  0  0  0
  6 31  1  0  0  0  0
  8  2  1  0  0  0  0
  9  4  1  0  0  0  0
 12 11  3  0  0  0  0
 13 19  1  0  0  0  0
 13 14  1  0  0  0  0
 14 20  1  0  0  0  0
 15 14  2  0  0  0  0
 15 27  1  0  0  0  0
 16 15  1  0  0  0  0
 17 16  2  0  0  0  0
 17 18  1  0  0  0  0
 18 13  2  0  0  0  0
 21 16  1  0  0  0  0
 22 17  1  0  0  0  0
 23 26  2  0  0  0  0
 23 18  1  0  0  0  0
 23 24  1  0  0  0  0
 25 23  2  0  0  0  0
 27 30  1  0  0  0  0
 28 27  1  0  0  0  0
 29 27  1  0  0  0  0
 31 32  1  0  0  0  0
 32 33  1  0  0  0  0
 32 35  1  0  0  0  0
 34 32  1  0  0  0  0
M  RAD  2   3   2  24   2
M  END
