Coordinates from ORCA-job 4-MeO-Ph-N2-OTs-B3LYPG-6-31G_dp-MTMO-d009-169-n800
 OpenBabel09051908173D

 35 35  0  0  0  0  0  0  0  0999 V2000
    3.1339   -3.9210    0.7068 C   0  0  0  0  0  0  0  0  0  0  0  0
    2.1559   -3.9086   -0.2916 C   0  0  0  0  0  0  0  0  0  0  0  0
    2.4399   -4.4269   -1.5502 C   0  0  0  0  0  0  0  0  0  0  0  0
    3.6980   -4.9677   -1.8333 C   0  0  0  0  0  0  0  0  0  0  0  0
    4.6674   -4.9900   -0.8401 C   0  0  0  0  0  0  0  0  0  0  0  0
    4.3944   -4.4665    0.4343 C   0  0  0  0  0  0  0  0  0  0  0  0
    2.9013   -3.5059    1.6798 H   0  0  0  0  0  0  0  0  0  0  0  0
    1.1759   -3.4852   -0.0999 H   0  0  0  0  0  0  0  0  0  0  0  0
    3.8993   -5.3680   -2.8194 H   0  0  0  0  0  0  0  0  0  0  0  0
    5.6521   -5.4037   -1.0287 H   0  0  0  0  0  0  0  0  0  0  0  0
   -6.2963   -4.4262   -0.2675 N   0  0  0  0  0  0  0  0  0  0  0  0
   -7.3071   -4.0078   -0.4241 N   0  0  0  0  0  0  0  0  0  0  0  0
   -0.0856   -6.9769   -0.7608 C   0  0  0  0  0  0  0  0  0  0  0  0
   -0.9703   -7.2418    0.2831 C   0  0  0  0  0  0  0  0  0  0  0  0
   -2.2062   -6.5851    0.3724 C   0  0  0  0  0  0  0  0  0  0  0  0
   -2.5445   -5.6529   -0.6209 C   0  0  0  0  0  0  0  0  0  0  0  0
   -1.6746   -5.3737   -1.6722 C   0  0  0  0  0  0  0  0  0  0  0  0
   -0.4483   -6.0401   -1.7305 C   0  0  0  0  0  0  0  0  0  0  0  0
    0.8610   -7.4988   -0.8401 H   0  0  0  0  0  0  0  0  0  0  0  0
   -0.6995   -7.9774    1.0360 H   0  0  0  0  0  0  0  0  0  0  0  0
   -3.5058   -5.1493   -0.5749 H   0  0  0  0  0  0  0  0  0  0  0  0
   -1.9440   -4.6675   -2.4502 H   0  0  0  0  0  0  0  0  0  0  0  0
    0.6682   -5.6873   -3.0748 S   0  0  0  0  0  0  0  0  0  0  0  0
    1.4660   -4.3158   -2.5506 O   0  0  0  0  0  0  0  0  0  0  0  0
   -0.0885   -5.2055   -4.2206 O   0  0  0  0  0  0  0  0  0  0  0  0
    1.6326   -6.7787   -3.1826 O   0  0  0  0  0  0  0  0  0  0  0  0
   -3.1467   -6.8628    1.5201 C   0  0  0  0  0  0  0  0  0  0  0  0
   -2.9136   -6.2225    2.3799 H   0  0  0  0  0  0  0  0  0  0  0  0
   -4.1858   -6.6675    1.2410 H   0  0  0  0  0  0  0  0  0  0  0  0
   -3.0705   -7.9004    1.8579 H   0  0  0  0  0  0  0  0  0  0  0  0
    5.4204   -4.5340    1.3310 O   0  0  0  0  0  0  0  0  0  0  0  0
    5.2129   -4.0061    2.6313 C   0  0  0  0  0  0  0  0  0  0  0  0
    6.1480   -4.1611    3.1721 H   0  0  0  0  0  0  0  0  0  0  0  0
    4.9872   -2.9324    2.6015 H   0  0  0  0  0  0  0  0  0  0  0  0
    4.4026   -4.5281    3.1566 H   0  0  0  0  0  0  0  0  0  0  0  0
  1  7  1  0  0  0  0
  2  8  1  0  0  0  0
  2  1  2  0  0  0  0
  3  2  1  0  0  0  0
  4  3  2  0  0  0  0
  4  5  1  0  0  0  0
  5  6  2  0  0  0  0
  6  1  1  0  0  0  0
  6 31  1  0  0  0  0
  9  4  1  0  0  0  0
 10  5  1  0  0  0  0
 12 11  3  0  0  0  0
 13 14  2  0  0  0  0
 14 15  1  0  0  0  0
 14 20  1  0  0  0  0
 15 27  1  0  0  0  0
 16 21  1  0  0  0  0
 16 15  2  0  0  0  0
 17 16  1  0  0  0  0
 18 17  2  0  0  0  0
 18 13  1  0  0  0  0
 19 13  1  0  0  0  0
 22 17  1  0  0  0  0
 23 24  1  0  0  0  0
 23 18  1  0  0  0  0
 24  3  1  0  0  0  0
 25 23  2  0  0  0  0
 26 23  2  0  0  0  0
 27 30  1  0  0  0  0
 27 28  1  0  0  0  0
 29 27  1  0  0  0  0
 31 32  1  0  0  0  0
 32 35  1  0  0  0  0
 32 33  1  0  0  0  0
 34 32  1  0  0  0  0
M  END
