Coordinates from ORCA-job 4-MeO-Ph-N2-OTs-B3LYPG-6-31G_dp-MTMO-d009-169-n800
 OpenBabel09051908173D

 35 35  0  0  0  0  0  0  0  0999 V2000
    2.6768   -3.8086    0.4777 C   0  0  0  0  0  0  0  0  0  0  0  0
    1.5555   -3.9192   -0.3493 C   0  0  0  0  0  0  0  0  0  0  0  0
    1.6895   -4.4258   -1.6374 C   0  0  0  0  0  0  0  0  0  0  0  0
    2.9368   -4.8343   -2.1201 C   0  0  0  0  0  0  0  0  0  0  0  0
    4.0495   -4.7353   -1.2961 C   0  0  0  0  0  0  0  0  0  0  0  0
    3.9292   -4.2205    0.0052 C   0  0  0  0  0  0  0  0  0  0  0  0
    2.5602   -3.4035    1.4751 H   0  0  0  0  0  0  0  0  0  0  0  0
    0.5791   -3.5984   -0.0034 H   0  0  0  0  0  0  0  0  0  0  0  0
    3.0189   -5.2277   -3.1258 H   0  0  0  0  0  0  0  0  0  0  0  0
    5.0302   -5.0445   -1.6411 H   0  0  0  0  0  0  0  0  0  0  0  0
   -1.2597   -1.9636   -1.7562 N   0  0  0  0  0  0  0  0  0  0  0  0
   -1.1003   -1.3459   -2.6585 N   0  0  0  0  0  0  0  0  0  0  0  0
   -0.3069   -7.3357   -0.5332 C   0  0  0  0  0  0  0  0  0  0  0  0
   -0.9299   -7.7176    0.6544 C   0  0  0  0  0  0  0  0  0  0  0  0
   -2.1599   -7.1675    1.0385 C   0  0  0  0  0  0  0  0  0  0  0  0
   -2.7648   -6.2216    0.1946 C   0  0  0  0  0  0  0  0  0  0  0  0
   -2.1613   -5.8280   -0.9954 C   0  0  0  0  0  0  0  0  0  0  0  0
   -0.9310   -6.3907   -1.3474 C   0  0  0  0  0  0  0  0  0  0  0  0
    0.6376   -7.7711   -0.8376 H   0  0  0  0  0  0  0  0  0  0  0  0
   -0.4539   -8.4597    1.2897 H   0  0  0  0  0  0  0  0  0  0  0  0
   -3.7255   -5.7959    0.4707 H   0  0  0  0  0  0  0  0  0  0  0  0
   -2.6380   -5.1097   -1.6539 H   0  0  0  0  0  0  0  0  0  0  0  0
   -0.1523   -5.8907   -2.8716 S   0  0  0  0  0  0  0  0  0  0  0  0
    0.5618   -4.4355   -2.4687 O   0  0  0  0  0  0  0  0  0  0  0  0
   -1.1700   -5.4941   -3.8332 O   0  0  0  0  0  0  0  0  0  0  0  0
    0.8947   -6.8539   -3.2009 O   0  0  0  0  0  0  0  0  0  0  0  0
   -2.8186   -7.5675    2.3360 C   0  0  0  0  0  0  0  0  0  0  0  0
   -2.6687   -6.7983    3.1043 H   0  0  0  0  0  0  0  0  0  0  0  0
   -3.8987   -7.6949    2.2126 H   0  0  0  0  0  0  0  0  0  0  0  0
   -2.4070   -8.5031    2.7225 H   0  0  0  0  0  0  0  0  0  0  0  0
    5.0873   -4.1599    0.7238 O   0  0  0  0  0  0  0  0  0  0  0  0
    5.0359   -3.6312    2.0394 C   0  0  0  0  0  0  0  0  0  0  0  0
    6.0583   -3.6672    2.4188 H   0  0  0  0  0  0  0  0  0  0  0  0
    4.6863   -2.5909    2.0445 H   0  0  0  0  0  0  0  0  0  0  0  0
    4.3886   -4.2307    2.6925 H   0  0  0  0  0  0  0  0  0  0  0  0
  1  7  1  0  0  0  0
  2  8  1  0  0  0  0
  2  1  2  0  0  0  0
  3  2  1  0  0  0  0
  4  3  2  0  0  0  0
  4  5  1  0  0  0  0
  5  6  2  0  0  0  0
  6  1  1  0  0  0  0
  6 31  1  0  0  0  0
  9  4  1  0  0  0  0
 10  5  1  0  0  0  0
 12 11  3  0  0  0  0
 13 14  2  0  0  0  0
 14 15  1  0  0  0  0
 14 20  1  0  0  0  0
 15 27  1  0  0  0  0
 16 21  1  0  0  0  0
 16 15  2  0  0  0  0
 17 16  1  0  0  0  0
 18 17  2  0  0  0  0
 18 13  1  0  0  0  0
 19 13  1  0  0  0  0
 22 17  1  0  0  0  0
 23 24  1  0  0  0  0
 23 18  1  0  0  0  0
 24  3  1  0  0  0  0
 25 23  2  0  0  0  0
 26 23  2  0  0  0  0
 27 30  1  0  0  0  0
 27 28  1  0  0  0  0
 29 27  1  0  0  0  0
 31 32  1  0  0  0  0
 32 34  1  0  0  0  0
 32 33  1  0  0  0  0
 32 35  1  0  0  0  0
M  END
