Coordinates from ORCA-job 4-MeO-Ph-N2-OTs-B3LYPG-6-31G_dp-MTMO-d009-169-n800
 OpenBabel09051908173D

 35 35  0  0  0  0  0  0  0  0999 V2000
    2.8679   -3.8936    0.6528 C   0  0  0  0  0  0  0  0  0  0  0  0
    1.7273   -3.9072   -0.1550 C   0  0  0  0  0  0  0  0  0  0  0  0
    1.8195   -4.3107   -1.4824 C   0  0  0  0  0  0  0  0  0  0  0  0
    3.0449   -4.7105   -2.0249 C   0  0  0  0  0  0  0  0  0  0  0  0
    4.1768   -4.7078   -1.2214 C   0  0  0  0  0  0  0  0  0  0  0  0
    4.0982   -4.2984    0.1200 C   0  0  0  0  0  0  0  0  0  0  0  0
    2.7829   -3.5665    1.6816 H   0  0  0  0  0  0  0  0  0  0  0  0
    0.7673   -3.5922    0.2395 H   0  0  0  0  0  0  0  0  0  0  0  0
    3.0954   -5.0238   -3.0604 H   0  0  0  0  0  0  0  0  0  0  0  0
    5.1411   -5.0138   -1.6127 H   0  0  0  0  0  0  0  0  0  0  0  0
   -2.9309   -2.5849   -3.0288 N   0  0  0  0  0  0  0  0  0  0  0  0
   -2.6714   -2.0340   -3.9507 N   0  0  0  0  0  0  0  0  0  0  0  0
   -0.2969   -7.2185   -0.5479 C   0  0  0  0  0  0  0  0  0  0  0  0
   -0.9323   -7.6552    0.6143 C   0  0  0  0  0  0  0  0  0  0  0  0
   -2.1384   -7.0842    1.0402 C   0  0  0  0  0  0  0  0  0  0  0  0
   -2.7054   -6.0580    0.2661 C   0  0  0  0  0  0  0  0  0  0  0  0
   -2.0899   -5.6081   -0.8973 C   0  0  0  0  0  0  0  0  0  0  0  0
   -0.8842   -6.1962   -1.2926 C   0  0  0  0  0  0  0  0  0  0  0  0
    0.6291   -7.6686   -0.8856 H   0  0  0  0  0  0  0  0  0  0  0  0
   -0.4854   -8.4571    1.1956 H   0  0  0  0  0  0  0  0  0  0  0  0
   -3.6468   -5.6127    0.5761 H   0  0  0  0  0  0  0  0  0  0  0  0
   -2.5374   -4.8244   -1.4992 H   0  0  0  0  0  0  0  0  0  0  0  0
   -0.0860   -5.6257   -2.7816 S   0  0  0  0  0  0  0  0  0  0  0  0
    0.6745   -4.2244   -2.2849 O   0  0  0  0  0  0  0  0  0  0  0  0
   -1.0876   -5.1348   -3.7170 O   0  0  0  0  0  0  0  0  0  0  0  0
    0.9284   -6.6004   -3.1730 O   0  0  0  0  0  0  0  0  0  0  0  0
   -2.8161   -7.5495    2.3061 C   0  0  0  0  0  0  0  0  0  0  0  0
   -2.7370   -6.7917    3.0954 H   0  0  0  0  0  0  0  0  0  0  0  0
   -3.8831   -7.7323    2.1417 H   0  0  0  0  0  0  0  0  0  0  0  0
   -2.3682   -8.4712    2.6848 H   0  0  0  0  0  0  0  0  0  0  0  0
    5.2721   -4.3275    0.8142 O   0  0  0  0  0  0  0  0  0  0  0  0
    5.2611   -3.9173    2.1721 C   0  0  0  0  0  0  0  0  0  0  0  0
    6.2888   -4.0157    2.5250 H   0  0  0  0  0  0  0  0  0  0  0  0
    4.9430   -2.8720    2.2775 H   0  0  0  0  0  0  0  0  0  0  0  0
    4.6084   -4.5541    2.7829 H   0  0  0  0  0  0  0  0  0  0  0  0
  1  7  1  0  0  0  0
  2  8  1  0  0  0  0
  2  1  2  0  0  0  0
  3  2  1  0  0  0  0
  4  3  2  0  0  0  0
  4  5  1  0  0  0  0
  5  6  2  0  0  0  0
  6  1  1  0  0  0  0
  6 31  1  0  0  0  0
  9  4  1  0  0  0  0
 10  5  1  0  0  0  0
 12 11  3  0  0  0  0
 13 14  2  0  0  0  0
 14 15  1  0  0  0  0
 14 20  1  0  0  0  0
 15 27  1  0  0  0  0
 16 21  1  0  0  0  0
 16 15  2  0  0  0  0
 17 16  1  0  0  0  0
 18 17  2  0  0  0  0
 18 13  1  0  0  0  0
 19 13  1  0  0  0  0
 22 17  1  0  0  0  0
 23 24  1  0  0  0  0
 23 18  1  0  0  0  0
 24  3  1  0  0  0  0
 25 23  2  0  0  0  0
 26 23  2  0  0  0  0
 27 30  1  0  0  0  0
 27 28  1  0  0  0  0
 29 27  1  0  0  0  0
 31 32  1  0  0  0  0
 32 34  1  0  0  0  0
 32 33  1  0  0  0  0
 32 35  1  0  0  0  0
M  END
