Coordinates from ORCA-job 4-MeO-Ph-N2-OTs-B3LYPG-6-31G_dp-MTMO-d009-169-n800
 OpenBabel09051908173D

 35 35  0  0  0  0  0  0  0  0999 V2000
    3.5499   -4.0218    0.6374 C   0  0  0  0  0  0  0  0  0  0  0  0
    2.5944   -3.9096   -0.3766 C   0  0  0  0  0  0  0  0  0  0  0  0
    2.8064   -4.5287   -1.6035 C   0  0  0  0  0  0  0  0  0  0  0  0
    3.9679   -5.2708   -1.8387 C   0  0  0  0  0  0  0  0  0  0  0  0
    4.9141   -5.3902   -0.8303 C   0  0  0  0  0  0  0  0  0  0  0  0
    4.7139   -4.7668    0.4123 C   0  0  0  0  0  0  0  0  0  0  0  0
    3.3757   -3.5272    1.5852 H   0  0  0  0  0  0  0  0  0  0  0  0
    1.6894   -3.3317   -0.2217 H   0  0  0  0  0  0  0  0  0  0  0  0
    4.1130   -5.7472   -2.8006 H   0  0  0  0  0  0  0  0  0  0  0  0
    5.8259   -5.9578   -0.9826 H   0  0  0  0  0  0  0  0  0  0  0  0
   -9.3892   -8.2314    0.4835 N   0  0  0  0  0  0  0  0  0  0  0  0
  -10.3310   -8.7565    0.2409 N   0  0  0  0  0  0  0  0  0  0  0  0
   -0.1802   -6.4982   -0.6999 C   0  0  0  0  0  0  0  0  0  0  0  0
   -1.1217   -6.5014    0.3288 C   0  0  0  0  0  0  0  0  0  0  0  0
   -2.2158   -5.6261    0.3145 C   0  0  0  0  0  0  0  0  0  0  0  0
   -2.3486   -4.7362   -0.7637 C   0  0  0  0  0  0  0  0  0  0  0  0
   -1.4209   -4.7168   -1.8004 C   0  0  0  0  0  0  0  0  0  0  0  0
   -0.3402   -5.6022   -1.7568 C   0  0  0  0  0  0  0  0  0  0  0  0
    0.6585   -7.1855   -0.6953 H   0  0  0  0  0  0  0  0  0  0  0  0
   -1.0051   -7.1988    1.1543 H   0  0  0  0  0  0  0  0  0  0  0  0
   -3.1943   -4.0539   -0.7929 H   0  0  0  0  0  0  0  0  0  0  0  0
   -1.5322   -4.0398   -2.6407 H   0  0  0  0  0  0  0  0  0  0  0  0
    0.8594   -5.5709   -3.0759 S   0  0  0  0  0  0  0  0  0  0  0  0
    1.8725   -4.3210   -2.6265 O   0  0  0  0  0  0  0  0  0  0  0  0
    0.2326   -5.0639   -4.2875 O   0  0  0  0  0  0  0  0  0  0  0  0
    1.6155   -6.8199   -3.0539 O   0  0  0  0  0  0  0  0  0  0  0  0
   -3.2477   -5.6536    1.4157 C   0  0  0  0  0  0  0  0  0  0  0  0
   -3.5523   -4.6427    1.7030 H   0  0  0  0  0  0  0  0  0  0  0  0
   -4.1518   -6.1825    1.0907 H   0  0  0  0  0  0  0  0  0  0  0  0
   -2.8709   -6.1624    2.3067 H   0  0  0  0  0  0  0  0  0  0  0  0
    5.7103   -4.9440    1.3271 O   0  0  0  0  0  0  0  0  0  0  0  0
    5.5709   -4.3341    2.6002 C   0  0  0  0  0  0  0  0  0  0  0  0
    6.4689   -4.5987    3.1611 H   0  0  0  0  0  0  0  0  0  0  0  0
    5.5035   -3.2412    2.5213 H   0  0  0  0  0  0  0  0  0  0  0  0
    4.6889   -4.7095    3.1354 H   0  0  0  0  0  0  0  0  0  0  0  0
  1  7  1  0  0  0  0
  2  8  1  0  0  0  0
  2  1  2  0  0  0  0
  3  2  1  0  0  0  0
  4  3  2  0  0  0  0
  4  5  1  0  0  0  0
  5  6  2  0  0  0  0
  6  1  1  0  0  0  0
  6 31  1  0  0  0  0
  9  4  1  0  0  0  0
 10  5  1  0  0  0  0
 12 11  3  0  0  0  0
 13 19  1  0  0  0  0
 13 14  2  0  0  0  0
 14 20  1  0  0  0  0
 15 14  1  0  0  0  0
 15 27  1  0  0  0  0
 16 15  2  0  0  0  0
 17 18  2  0  0  0  0
 17 16  1  0  0  0  0
 18 13  1  0  0  0  0
 21 16  1  0  0  0  0
 22 17  1  0  0  0  0
 23 26  2  0  0  0  0
 23 24  1  0  0  0  0
 23 18  1  0  0  0  0
 24  3  1  0  0  0  0
 25 23  2  0  0  0  0
 27 28  1  0  0  0  0
 27 30  1  0  0  0  0
 29 27  1  0  0  0  0
 31 32  1  0  0  0  0
 32 35  1  0  0  0  0
 32 33  1  0  0  0  0
 34 32  1  0  0  0  0
M  END
