Coordinates from ORCA-job 4-MeO-Ph-N2-OTs-B3LYPG-6-31G_dp-MTMO-d009-169-n800
 OpenBabel09051908173D

 35 34  0  0  0  0  0  0  0  0999 V2000
    4.0220   -2.6844    0.3144 C   0  0  0  0  0  0  0  0  0  0  0  0
    3.0487   -1.9122   -0.3563 C   0  0  0  0  0  0  0  0  0  0  0  0
    2.2376   -2.7634   -1.0451 C   0  0  0  0  0  0  0  0  0  0  0  0
    2.1318   -4.0135   -1.2260 C   0  0  0  0  0  0  0  0  0  0  0  0
    3.0921   -4.7984   -0.5707 C   0  0  0  0  0  0  0  0  0  0  0  0
    4.0435   -4.0961    0.2094 C   0  0  0  0  0  0  0  0  0  0  0  0
    4.7597   -2.1649    0.9143 H   0  0  0  0  0  0  0  0  0  0  0  0
    2.9939   -0.8322   -0.3063 H   0  0  0  0  0  0  0  0  0  0  0  0
    0.8396   -4.8883   -2.2612 H   0  0  0  0  0  0  0  0  0  0  0  0
    3.1447   -5.8815   -0.6246 H   0  0  0  0  0  0  0  0  0  0  0  0
    0.7350   -1.2914   -2.2046 N   0  0  0  0  0  0  0  0  0  0  0  0
    0.0115   -1.2053   -3.0360 N   0  0  0  0  0  0  0  0  0  0  0  0
   -1.6254   -5.8435    0.1353 C   0  0  0  0  0  0  0  0  0  0  0  0
   -1.9647   -6.7456    1.1414 C   0  0  0  0  0  0  0  0  0  0  0  0
   -2.4321   -8.0319    0.8359 C   0  0  0  0  0  0  0  0  0  0  0  0
   -2.5628   -8.3922   -0.5132 C   0  0  0  0  0  0  0  0  0  0  0  0
   -2.2286   -7.5039   -1.5329 C   0  0  0  0  0  0  0  0  0  0  0  0
   -1.7566   -6.2339   -1.1982 C   0  0  0  0  0  0  0  0  0  0  0  0
   -1.2809   -4.8433    0.3729 H   0  0  0  0  0  0  0  0  0  0  0  0
   -1.8720   -6.4431    2.1814 H   0  0  0  0  0  0  0  0  0  0  0  0
   -2.9387   -9.3791   -0.7688 H   0  0  0  0  0  0  0  0  0  0  0  0
   -2.3476   -7.7770   -2.5757 H   0  0  0  0  0  0  0  0  0  0  0  0
   -1.3135   -5.0922   -2.5006 S   0  0  0  0  0  0  0  0  0  0  0  0
   -1.3541   -3.7337   -1.9519 O   0  0  0  0  0  0  0  0  0  0  0  0
   -2.0590   -5.4515   -3.6997 O   0  0  0  0  0  0  0  0  0  0  0  0
    0.2325   -5.4672   -2.8082 O   0  0  0  0  0  0  0  0  0  0  0  0
   -2.7699   -9.0112    1.9345 C   0  0  0  0  0  0  0  0  0  0  0  0
   -3.5284   -9.7302    1.6115 H   0  0  0  0  0  0  0  0  0  0  0  0
   -1.8838   -9.5845    2.2344 H   0  0  0  0  0  0  0  0  0  0  0  0
   -3.1425   -8.4999    2.8266 H   0  0  0  0  0  0  0  0  0  0  0  0
    4.9606   -4.8837    0.8378 O   0  0  0  0  0  0  0  0  0  0  0  0
    5.9581   -4.2707    1.6397 C   0  0  0  0  0  0  0  0  0  0  0  0
    6.5652   -5.0842    2.0389 H   0  0  0  0  0  0  0  0  0  0  0  0
    6.5961   -3.6009    1.0490 H   0  0  0  0  0  0  0  0  0  0  0  0
    5.5177   -3.7083    2.4733 H   0  0  0  0  0  0  0  0  0  0  0  0
  1  7  1  0  0  0  0
  2  8  1  0  0  0  0
  2  1  2  0  0  0  0
  3  2  1  0  0  0  0
  4  3  2  0  0  0  0
  4  5  1  0  0  0  0
  5  6  2  0  0  0  0
  6  1  1  0  0  0  0
  6 31  1  0  0  0  0
 10  5  1  0  0  0  0
 12 11  3  0  0  0  0
 13 19  1  0  0  0  0
 13 14  2  0  0  0  0
 14 20  1  0  0  0  0
 15 14  1  0  0  0  0
 15 27  1  0  0  0  0
 16 15  2  0  0  0  0
 17 18  2  0  0  0  0
 17 16  1  0  0  0  0
 18 13  1  0  0  0  0
 21 16  1  0  0  0  0
 22 17  1  0  0  0  0
 23 24  2  0  0  0  0
 23 18  1  0  0  0  0
 25 23  2  0  0  0  0
 26 23  1  0  0  0  0
 26  9  1  0  0  0  0
 27 29  1  0  0  0  0
 27 30  1  0  0  0  0
 28 27  1  0  0  0  0
 31 32  1  0  0  0  0
 32 33  1  0  0  0  0
 32 35  1  0  0  0  0
 34 32  1  0  0  0  0
M  RAD  2   3   2   4   2
M  END
