Coordinates from ORCA-job 4-MeO-Ph-N2-OTs-B3LYPG-6-31G_dp-MTMO-d009-169-n800
 OpenBabel09051908173D

 35 35  0  0  0  0  0  0  0  0999 V2000
    3.6034   -3.9962    0.6293 C   0  0  0  0  0  0  0  0  0  0  0  0
    2.6432   -3.8907   -0.3811 C   0  0  0  0  0  0  0  0  0  0  0  0
    2.8541   -4.5096   -1.6082 C   0  0  0  0  0  0  0  0  0  0  0  0
    4.0192   -5.2446   -1.8475 C   0  0  0  0  0  0  0  0  0  0  0  0
    4.9702   -5.3574   -0.8428 C   0  0  0  0  0  0  0  0  0  0  0  0
    4.7711   -4.7341    0.4001 C   0  0  0  0  0  0  0  0  0  0  0  0
    3.4300   -3.5019    1.5774 H   0  0  0  0  0  0  0  0  0  0  0  0
    1.7352   -3.3184   -0.2230 H   0  0  0  0  0  0  0  0  0  0  0  0
    4.1634   -5.7210   -2.8096 H   0  0  0  0  0  0  0  0  0  0  0  0
    5.8848   -5.9194   -0.9983 H   0  0  0  0  0  0  0  0  0  0  0  0
  -10.3220   -8.4144    0.4535 N   0  0  0  0  0  0  0  0  0  0  0  0
  -11.2695   -8.9331    0.2198 N   0  0  0  0  0  0  0  0  0  0  0  0
   -0.1164   -6.4967   -0.6906 C   0  0  0  0  0  0  0  0  0  0  0  0
   -1.0542   -6.5049    0.3417 C   0  0  0  0  0  0  0  0  0  0  0  0
   -2.1541   -5.6372    0.3303 C   0  0  0  0  0  0  0  0  0  0  0  0
   -2.2969   -4.7496   -0.7487 C   0  0  0  0  0  0  0  0  0  0  0  0
   -1.3732   -4.7251   -1.7887 C   0  0  0  0  0  0  0  0  0  0  0  0
   -0.2864   -5.6032   -1.7479 C   0  0  0  0  0  0  0  0  0  0  0  0
    0.7268   -7.1784   -0.6882 H   0  0  0  0  0  0  0  0  0  0  0  0
   -0.9299   -7.2006    1.1675 H   0  0  0  0  0  0  0  0  0  0  0  0
   -3.1475   -4.0732   -0.7757 H   0  0  0  0  0  0  0  0  0  0  0  0
   -1.4923   -4.0501   -2.6295 H   0  0  0  0  0  0  0  0  0  0  0  0
    0.9079   -5.5657   -3.0718 S   0  0  0  0  0  0  0  0  0  0  0  0
    1.9147   -4.3089   -2.6276 O   0  0  0  0  0  0  0  0  0  0  0  0
    0.2731   -5.0641   -4.2814 O   0  0  0  0  0  0  0  0  0  0  0  0
    1.6721   -6.8098   -3.0514 O   0  0  0  0  0  0  0  0  0  0  0  0
   -3.1817   -5.6691    1.4355 C   0  0  0  0  0  0  0  0  0  0  0  0
   -3.4735   -4.6590    1.7386 H   0  0  0  0  0  0  0  0  0  0  0  0
   -4.0932   -6.1826    1.1064 H   0  0  0  0  0  0  0  0  0  0  0  0
   -2.8070   -6.1949    2.3174 H   0  0  0  0  0  0  0  0  0  0  0  0
    5.7722   -4.9045    1.3111 O   0  0  0  0  0  0  0  0  0  0  0  0
    5.6341   -4.2945    2.5843 C   0  0  0  0  0  0  0  0  0  0  0  0
    6.5358   -4.5535    3.1418 H   0  0  0  0  0  0  0  0  0  0  0  0
    5.5600   -3.2021    2.5049 H   0  0  0  0  0  0  0  0  0  0  0  0
    4.7563   -4.6748    3.1231 H   0  0  0  0  0  0  0  0  0  0  0  0
  1  7  1  0  0  0  0
  2  8  1  0  0  0  0
  2  1  2  0  0  0  0
  3  2  1  0  0  0  0
  4  3  2  0  0  0  0
  4  5  1  0  0  0  0
  5  6  2  0  0  0  0
  6  1  1  0  0  0  0
  6 31  1  0  0  0  0
  9  4  1  0  0  0  0
 10  5  1  0  0  0  0
 12 11  3  0  0  0  0
 13 19  1  0  0  0  0
 13 14  2  0  0  0  0
 14 20  1  0  0  0  0
 15 14  1  0  0  0  0
 15 27  1  0  0  0  0
 16 15  2  0  0  0  0
 17 18  2  0  0  0  0
 17 16  1  0  0  0  0
 18 13  1  0  0  0  0
 21 16  1  0  0  0  0
 22 17  1  0  0  0  0
 23 26  2  0  0  0  0
 23 24  1  0  0  0  0
 23 18  1  0  0  0  0
 24  3  1  0  0  0  0
 25 23  2  0  0  0  0
 27 28  1  0  0  0  0
 27 30  1  0  0  0  0
 29 27  1  0  0  0  0
 31 32  1  0  0  0  0
 32 35  1  0  0  0  0
 32 33  1  0  0  0  0
 34 32  1  0  0  0  0
M  END
