Coordinates from ORCA-job 4-MeO-Ph-N2-OTs-B3LYPG-6-31G_dp-MTMO-d009-169-n800
 OpenBabel09051908173D

 35 35  0  0  0  0  0  0  0  0999 V2000
    3.1180   -4.0011    0.8385 C   0  0  0  0  0  0  0  0  0  0  0  0
    1.9662   -3.8585    0.0597 C   0  0  0  0  0  0  0  0  0  0  0  0
    2.0093   -4.1321   -1.3030 C   0  0  0  0  0  0  0  0  0  0  0  0
    3.1962   -4.5541   -1.9105 C   0  0  0  0  0  0  0  0  0  0  0  0
    4.3384   -4.7068   -1.1364 C   0  0  0  0  0  0  0  0  0  0  0  0
    4.3093   -4.4303    0.2404 C   0  0  0  0  0  0  0  0  0  0  0  0
    3.0723   -3.7730    1.8964 H   0  0  0  0  0  0  0  0  0  0  0  0
    1.0364   -3.5211    0.5048 H   0  0  0  0  0  0  0  0  0  0  0  0
    3.2094   -4.7641   -2.9730 H   0  0  0  0  0  0  0  0  0  0  0  0
    5.2735   -5.0341   -1.5782 H   0  0  0  0  0  0  0  0  0  0  0  0
   -4.6072   -3.9565   -3.7240 N   0  0  0  0  0  0  0  0  0  0  0  0
   -4.6388   -3.8625   -4.8246 N   0  0  0  0  0  0  0  0  0  0  0  0
   -0.2427   -6.8737   -0.5488 C   0  0  0  0  0  0  0  0  0  0  0  0
   -0.9111   -7.3839    0.5627 C   0  0  0  0  0  0  0  0  0  0  0  0
   -2.1603   -6.8812    0.9531 C   0  0  0  0  0  0  0  0  0  0  0  0
   -2.7363   -5.8516    0.1925 C   0  0  0  0  0  0  0  0  0  0  0  0
   -2.0854   -5.3259   -0.9201 C   0  0  0  0  0  0  0  0  0  0  0  0
   -0.8381   -5.8438   -1.2790 C   0  0  0  0  0  0  0  0  0  0  0  0
    0.7133   -7.2766   -0.8616 H   0  0  0  0  0  0  0  0  0  0  0  0
   -0.4584   -8.1920    1.1309 H   0  0  0  0  0  0  0  0  0  0  0  0
   -3.7122   -5.4634    0.4700 H   0  0  0  0  0  0  0  0  0  0  0  0
   -2.5423   -4.5455   -1.5190 H   0  0  0  0  0  0  0  0  0  0  0  0
    0.0026   -5.1748   -2.7012 S   0  0  0  0  0  0  0  0  0  0  0  0
    0.8582   -3.8889   -2.0643 O   0  0  0  0  0  0  0  0  0  0  0  0
   -0.9640   -4.5243   -3.5735 O   0  0  0  0  0  0  0  0  0  0  0  0
    0.9516   -6.1684   -3.1961 O   0  0  0  0  0  0  0  0  0  0  0  0
   -2.8658   -7.4235    2.1725 C   0  0  0  0  0  0  0  0  0  0  0  0
   -2.6604   -6.8005    3.0519 H   0  0  0  0  0  0  0  0  0  0  0  0
   -3.9511   -7.4395    2.0328 H   0  0  0  0  0  0  0  0  0  0  0  0
   -2.5360   -8.4389    2.4067 H   0  0  0  0  0  0  0  0  0  0  0  0
    5.4891   -4.6065    0.9021 O   0  0  0  0  0  0  0  0  0  0  0  0
    5.5259   -4.3356    2.2940 C   0  0  0  0  0  0  0  0  0  0  0  0
    6.5497   -4.5363    2.6132 H   0  0  0  0  0  0  0  0  0  0  0  0
    5.2797   -3.2879    2.5097 H   0  0  0  0  0  0  0  0  0  0  0  0
    4.8409   -4.9867    2.8521 H   0  0  0  0  0  0  0  0  0  0  0  0
  1  7  1  0  0  0  0
  2  8  1  0  0  0  0
  2  1  2  0  0  0  0
  3  2  1  0  0  0  0
  4  3  2  0  0  0  0
  4  5  1  0  0  0  0
  5  6  2  0  0  0  0
  6  1  1  0  0  0  0
  6 31  1  0  0  0  0
  9  4  1  0  0  0  0
 10  5  1  0  0  0  0
 12 11  3  0  0  0  0
 13 14  2  0  0  0  0
 14 15  1  0  0  0  0
 14 20  1  0  0  0  0
 15 27  1  0  0  0  0
 16 21  1  0  0  0  0
 16 15  2  0  0  0  0
 17 16  1  0  0  0  0
 18 17  2  0  0  0  0
 18 13  1  0  0  0  0
 19 13  1  0  0  0  0
 22 17  1  0  0  0  0
 23 24  1  0  0  0  0
 23 18  1  0  0  0  0
 24  3  1  0  0  0  0
 25 23  2  0  0  0  0
 26 23  2  0  0  0  0
 27 30  1  0  0  0  0
 27 28  1  0  0  0  0
 29 27  1  0  0  0  0
 31 32  1  0  0  0  0
 32 34  1  0  0  0  0
 32 33  1  0  0  0  0
 32 35  1  0  0  0  0
M  END
