Coordinates from ORCA-job 4-MeO-Ph-N2-OTs-B3LYPG-6-31G_dp-MTMO-d009-169-n800
 OpenBabel09051908173D

 35 35  0  0  0  0  0  0  0  0999 V2000
    3.6650   -3.9630    0.6154 C   0  0  0  0  0  0  0  0  0  0  0  0
    2.6963   -3.8688   -0.3880 C   0  0  0  0  0  0  0  0  0  0  0  0
    2.9038   -4.4889   -1.6152 C   0  0  0  0  0  0  0  0  0  0  0  0
    4.0738   -5.2138   -1.8614 C   0  0  0  0  0  0  0  0  0  0  0  0
    5.0332   -5.3153   -0.8635 C   0  0  0  0  0  0  0  0  0  0  0  0
    4.8376   -4.6908    0.3793 C   0  0  0  0  0  0  0  0  0  0  0  0
    3.4941   -3.4680    1.5636 H   0  0  0  0  0  0  0  0  0  0  0  0
    1.7844   -3.3044   -0.2246 H   0  0  0  0  0  0  0  0  0  0  0  0
    4.2152   -5.6912   -2.8233 H   0  0  0  0  0  0  0  0  0  0  0  0
    5.9517   -5.8695   -1.0244 H   0  0  0  0  0  0  0  0  0  0  0  0
  -11.4064   -8.5956    0.3550 N   0  0  0  0  0  0  0  0  0  0  0  0
  -12.3556   -9.1124    0.1234 N   0  0  0  0  0  0  0  0  0  0  0  0
   -0.0401   -6.4995   -0.6687 C   0  0  0  0  0  0  0  0  0  0  0  0
   -0.9703   -6.5133    0.3706 C   0  0  0  0  0  0  0  0  0  0  0  0
   -2.0790   -5.6571    0.3641 C   0  0  0  0  0  0  0  0  0  0  0  0
   -2.2392   -4.7753   -0.7174 C   0  0  0  0  0  0  0  0  0  0  0  0
   -1.3235   -4.7454   -1.7642 C   0  0  0  0  0  0  0  0  0  0  0  0
   -0.2272   -5.6120   -1.7281 C   0  0  0  0  0  0  0  0  0  0  0  0
    0.8099   -7.1726   -0.6700 H   0  0  0  0  0  0  0  0  0  0  0  0
   -0.8327   -7.2046    1.1980 H   0  0  0  0  0  0  0  0  0  0  0  0
   -3.0971   -4.1082   -0.7410 H   0  0  0  0  0  0  0  0  0  0  0  0
   -1.4560   -4.0752   -2.6069 H   0  0  0  0  0  0  0  0  0  0  0  0
    0.9568   -5.5673   -3.0610 S   0  0  0  0  0  0  0  0  0  0  0  0
    1.9548   -4.2997   -2.6279 O   0  0  0  0  0  0  0  0  0  0  0  0
    0.3082   -5.0754   -4.2673 O   0  0  0  0  0  0  0  0  0  0  0  0
    1.7328   -6.8041   -3.0426 O   0  0  0  0  0  0  0  0  0  0  0  0
   -3.0975   -5.6934    1.4776 C   0  0  0  0  0  0  0  0  0  0  0  0
   -3.3707   -4.6843    1.8013 H   0  0  0  0  0  0  0  0  0  0  0  0
   -4.0200   -6.1859    1.1473 H   0  0  0  0  0  0  0  0  0  0  0  0
   -2.7234   -6.2405    2.3467 H   0  0  0  0  0  0  0  0  0  0  0  0
    5.8469   -4.8499    1.2833 O   0  0  0  0  0  0  0  0  0  0  0  0
    5.7126   -4.2381    2.5561 C   0  0  0  0  0  0  0  0  0  0  0  0
    6.6205   -4.4881    3.1077 H   0  0  0  0  0  0  0  0  0  0  0  0
    5.6286   -3.1467    2.4748 H   0  0  0  0  0  0  0  0  0  0  0  0
    4.8421   -4.6247    3.1021 H   0  0  0  0  0  0  0  0  0  0  0  0
  1  7  1  0  0  0  0
  2  8  1  0  0  0  0
  2  1  2  0  0  0  0
  3  2  1  0  0  0  0
  4  3  2  0  0  0  0
  4  5  1  0  0  0  0
  5  6  2  0  0  0  0
  6  1  1  0  0  0  0
  6 31  1  0  0  0  0
  9  4  1  0  0  0  0
 10  5  1  0  0  0  0
 12 11  3  0  0  0  0
 13 14  2  0  0  0  0
 14 20  1  0  0  0  0
 15 14  1  0  0  0  0
 15 27  1  0  0  0  0
 16 15  2  0  0  0  0
 17 18  2  0  0  0  0
 17 16  1  0  0  0  0
 18 13  1  0  0  0  0
 19 13  1  0  0  0  0
 21 16  1  0  0  0  0
 22 17  1  0  0  0  0
 23 26  2  0  0  0  0
 23 24  1  0  0  0  0
 23 18  1  0  0  0  0
 24  3  1  0  0  0  0
 25 23  2  0  0  0  0
 27 28  1  0  0  0  0
 27 30  1  0  0  0  0
 29 27  1  0  0  0  0
 31 32  1  0  0  0  0
 32 35  1  0  0  0  0
 32 33  1  0  0  0  0
 34 32  1  0  0  0  0
M  END
