Coordinates from ORCA-job 4-MeO-Ph-N2-OTs-B3LYPG-6-31G_dp-MTMO-d009-169-n800
 OpenBabel09051908173D

 35 35  0  0  0  0  0  0  0  0999 V2000
    3.0863   -3.9334    0.7462 C   0  0  0  0  0  0  0  0  0  0  0  0
    2.0534   -3.9070   -0.1951 C   0  0  0  0  0  0  0  0  0  0  0  0
    2.2837   -4.3479   -1.4934 C   0  0  0  0  0  0  0  0  0  0  0  0
    3.5419   -4.8248   -1.8740 C   0  0  0  0  0  0  0  0  0  0  0  0
    4.5663   -4.8611   -0.9380 C   0  0  0  0  0  0  0  0  0  0  0  0
    4.3479   -4.4148    0.3757 C   0  0  0  0  0  0  0  0  0  0  0  0
    2.8950   -3.5776    1.7511 H   0  0  0  0  0  0  0  0  0  0  0  0
    1.0715   -3.5320    0.0727 H   0  0  0  0  0  0  0  0  0  0  0  0
    3.7008   -5.1662   -2.8895 H   0  0  0  0  0  0  0  0  0  0  0  0
    5.5526   -5.2267   -1.2024 H   0  0  0  0  0  0  0  0  0  0  0  0
   -5.7450   -3.8193   -1.2756 N   0  0  0  0  0  0  0  0  0  0  0  0
   -6.5654   -3.3520   -1.8497 N   0  0  0  0  0  0  0  0  0  0  0  0
   -0.1095   -7.0498   -0.7246 C   0  0  0  0  0  0  0  0  0  0  0  0
   -0.9212   -7.4008    0.3537 C   0  0  0  0  0  0  0  0  0  0  0  0
   -2.1569   -6.7757    0.5665 C   0  0  0  0  0  0  0  0  0  0  0  0
   -2.5730   -5.7844   -0.3374 C   0  0  0  0  0  0  0  0  0  0  0  0
   -1.7781   -5.4200   -1.4198 C   0  0  0  0  0  0  0  0  0  0  0  0
   -0.5481   -6.0582   -1.6020 C   0  0  0  0  0  0  0  0  0  0  0  0
    0.8385   -7.5460   -0.8983 H   0  0  0  0  0  0  0  0  0  0  0  0
   -0.5909   -8.1793    1.0364 H   0  0  0  0  0  0  0  0  0  0  0  0
   -3.5351   -5.2990   -0.2002 H   0  0  0  0  0  0  0  0  0  0  0  0
   -2.1076   -4.6677   -2.1286 H   0  0  0  0  0  0  0  0  0  0  0  0
    0.4740   -5.5922   -2.9863 S   0  0  0  0  0  0  0  0  0  0  0  0
    1.2511   -4.2214   -2.4314 O   0  0  0  0  0  0  0  0  0  0  0  0
   -0.3652   -5.0783   -4.0584 O   0  0  0  0  0  0  0  0  0  0  0  0
    1.4679   -6.6385   -3.2101 O   0  0  0  0  0  0  0  0  0  0  0  0
   -3.0216   -7.1466    1.7467 C   0  0  0  0  0  0  0  0  0  0  0  0
   -2.9350   -6.3999    2.5462 H   0  0  0  0  0  0  0  0  0  0  0  0
   -4.0782   -7.1977    1.4661 H   0  0  0  0  0  0  0  0  0  0  0  0
   -2.7330   -8.1134    2.1668 H   0  0  0  0  0  0  0  0  0  0  0  0
    5.4253   -4.4885    1.2094 O   0  0  0  0  0  0  0  0  0  0  0  0
    5.2732   -4.0399    2.5466 C   0  0  0  0  0  0  0  0  0  0  0  0
    6.2431   -4.1849    3.0252 H   0  0  0  0  0  0  0  0  0  0  0  0
    5.0060   -2.9761    2.5897 H   0  0  0  0  0  0  0  0  0  0  0  0
    4.5153   -4.6221    3.0863 H   0  0  0  0  0  0  0  0  0  0  0  0
  1  7  1  0  0  0  0
  2  8  1  0  0  0  0
  2  1  2  0  0  0  0
  3  2  1  0  0  0  0
  4  3  2  0  0  0  0
  4  5  1  0  0  0  0
  5  6  2  0  0  0  0
  6  1  1  0  0  0  0
  6 31  1  0  0  0  0
  9  4  1  0  0  0  0
 10  5  1  0  0  0  0
 12 11  3  0  0  0  0
 13 14  2  0  0  0  0
 14 15  1  0  0  0  0
 14 20  1  0  0  0  0
 15 27  1  0  0  0  0
 16 21  1  0  0  0  0
 16 15  2  0  0  0  0
 17 16  1  0  0  0  0
 18 17  2  0  0  0  0
 18 13  1  0  0  0  0
 19 13  1  0  0  0  0
 22 17  1  0  0  0  0
 23 24  1  0  0  0  0
 23 18  1  0  0  0  0
 24  3  1  0  0  0  0
 25 23  2  0  0  0  0
 26 23  2  0  0  0  0
 27 30  1  0  0  0  0
 27 28  1  0  0  0  0
 29 27  1  0  0  0  0
 31 32  1  0  0  0  0
 32 34  1  0  0  0  0
 32 33  1  0  0  0  0
 32 35  1  0  0  0  0
M  END
