Coordinates from ORCA-job 4-MeO-Ph-N2-OTs-B3LYPG-6-31G_dp-MTMO-d009-169-n800
 OpenBabel09051908173D

 35 35  0  0  0  0  0  0  0  0999 V2000
    3.2911   -3.9664    0.6820 C   0  0  0  0  0  0  0  0  0  0  0  0
    2.3356   -3.9193   -0.3371 C   0  0  0  0  0  0  0  0  0  0  0  0
    2.6102   -4.4900   -1.5750 C   0  0  0  0  0  0  0  0  0  0  0  0
    3.8362   -5.1175   -1.8167 C   0  0  0  0  0  0  0  0  0  0  0  0
    4.7829   -5.1732   -0.8032 C   0  0  0  0  0  0  0  0  0  0  0  0
    4.5191   -4.5984    0.4509 C   0  0  0  0  0  0  0  0  0  0  0  0
    3.0667   -3.5105    1.6385 H   0  0  0  0  0  0  0  0  0  0  0  0
    1.3812   -3.4292   -0.1774 H   0  0  0  0  0  0  0  0  0  0  0  0
    4.0304   -5.5575   -2.7873 H   0  0  0  0  0  0  0  0  0  0  0  0
    5.7429   -5.6529   -0.9600 H   0  0  0  0  0  0  0  0  0  0  0  0
   -7.1857   -5.7305    0.3048 N   0  0  0  0  0  0  0  0  0  0  0  0
   -8.2858   -5.7875    0.2161 N   0  0  0  0  0  0  0  0  0  0  0  0
   -0.1325   -6.7725   -0.7344 C   0  0  0  0  0  0  0  0  0  0  0  0
   -1.0725   -6.9230    0.2837 C   0  0  0  0  0  0  0  0  0  0  0  0
   -2.2750   -6.2014    0.2758 C   0  0  0  0  0  0  0  0  0  0  0  0
   -2.5208   -5.3212   -0.7894 C   0  0  0  0  0  0  0  0  0  0  0  0
   -1.5945   -5.1544   -1.8157 C   0  0  0  0  0  0  0  0  0  0  0  0
   -0.4039   -5.8842   -1.7765 C   0  0  0  0  0  0  0  0  0  0  0  0
    0.7873   -7.3459   -0.7379 H   0  0  0  0  0  0  0  0  0  0  0  0
   -0.8719   -7.6197    1.0937 H   0  0  0  0  0  0  0  0  0  0  0  0
   -3.4555   -4.7680   -0.8198 H   0  0  0  0  0  0  0  0  0  0  0  0
   -1.7937   -4.4885   -2.6484 H   0  0  0  0  0  0  0  0  0  0  0  0
    0.7833   -5.6794   -3.0908 S   0  0  0  0  0  0  0  0  0  0  0  0
    1.6653   -4.3476   -2.5991 O   0  0  0  0  0  0  0  0  0  0  0  0
    0.1049   -5.1988   -4.2852 O   0  0  0  0  0  0  0  0  0  0  0  0
    1.6656   -6.8430   -3.1110 O   0  0  0  0  0  0  0  0  0  0  0  0
   -3.2760   -6.3561    1.3946 C   0  0  0  0  0  0  0  0  0  0  0  0
   -3.0847   -5.6277    2.1929 H   0  0  0  0  0  0  0  0  0  0  0  0
   -4.2992   -6.1934    1.0443 H   0  0  0  0  0  0  0  0  0  0  0  0
   -3.2216   -7.3519    1.8438 H   0  0  0  0  0  0  0  0  0  0  0  0
    5.5209   -4.7063    1.3706 O   0  0  0  0  0  0  0  0  0  0  0  0
    5.3194   -4.1380    2.6546 C   0  0  0  0  0  0  0  0  0  0  0  0
    6.2320   -4.3376    3.2189 H   0  0  0  0  0  0  0  0  0  0  0  0
    5.1603   -3.0534    2.5977 H   0  0  0  0  0  0  0  0  0  0  0  0
    4.4680   -4.5982    3.1728 H   0  0  0  0  0  0  0  0  0  0  0  0
  1  7  1  0  0  0  0
  2  8  1  0  0  0  0
  2  1  2  0  0  0  0
  3  2  1  0  0  0  0
  4  3  2  0  0  0  0
  4  5  1  0  0  0  0
  5  6  2  0  0  0  0
  6  1  1  0  0  0  0
  6 31  1  0  0  0  0
  9  4  1  0  0  0  0
 10  5  1  0  0  0  0
 12 11  3  0  0  0  0
 13 14  2  0  0  0  0
 14 20  1  0  0  0  0
 15 14  1  0  0  0  0
 15 27  1  0  0  0  0
 16 15  2  0  0  0  0
 17 18  2  0  0  0  0
 17 16  1  0  0  0  0
 18 13  1  0  0  0  0
 19 13  1  0  0  0  0
 21 16  1  0  0  0  0
 22 17  1  0  0  0  0
 23 24  1  0  0  0  0
 23 18  1  0  0  0  0
 24  3  1  0  0  0  0
 25 23  2  0  0  0  0
 26 23  2  0  0  0  0
 27 30  1  0  0  0  0
 27 28  1  0  0  0  0
 29 27  1  0  0  0  0
 31 32  1  0  0  0  0
 32 35  1  0  0  0  0
 32 33  1  0  0  0  0
 34 32  1  0  0  0  0
M  END
