Coordinates from ORCA-job 4-MeO-Ph-N2-OTs-B3LYPG-6-31G_dp-MTMO-d009-169-n800
 OpenBabel09051908173D

 35 35  0  0  0  0  0  0  0  0999 V2000
    3.4471   -4.0471    0.6991 C   0  0  0  0  0  0  0  0  0  0  0  0
    2.5166   -3.9175   -0.3359 C   0  0  0  0  0  0  0  0  0  0  0  0
    2.7675   -4.4993   -1.5736 C   0  0  0  0  0  0  0  0  0  0  0  0
    3.9437   -5.2211   -1.7991 C   0  0  0  0  0  0  0  0  0  0  0  0
    4.8651   -5.3580   -0.7702 C   0  0  0  0  0  0  0  0  0  0  0  0
    4.6254   -4.7722    0.4837 C   0  0  0  0  0  0  0  0  0  0  0  0
    3.2425   -3.5811    1.6552 H   0  0  0  0  0  0  0  0  0  0  0  0
    1.6011   -3.3545   -0.1885 H   0  0  0  0  0  0  0  0  0  0  0  0
    4.1194   -5.6686   -2.7697 H   0  0  0  0  0  0  0  0  0  0  0  0
    5.7873   -5.9104   -0.9146 H   0  0  0  0  0  0  0  0  0  0  0  0
   -8.1657   -7.6956    0.9795 N   0  0  0  0  0  0  0  0  0  0  0  0
   -9.1943   -8.0919    0.8985 N   0  0  0  0  0  0  0  0  0  0  0  0
   -0.2167   -6.5330   -0.8101 C   0  0  0  0  0  0  0  0  0  0  0  0
   -1.1903   -6.5848    0.1869 C   0  0  0  0  0  0  0  0  0  0  0  0
   -2.3035   -5.7341    0.1600 C   0  0  0  0  0  0  0  0  0  0  0  0
   -2.4212   -4.8176   -0.8972 C   0  0  0  0  0  0  0  0  0  0  0  0
   -1.4612   -4.7491   -1.9022 C   0  0  0  0  0  0  0  0  0  0  0  0
   -0.3629   -5.6117   -1.8474 C   0  0  0  0  0  0  0  0  0  0  0  0
    0.6363   -7.2022   -0.7967 H   0  0  0  0  0  0  0  0  0  0  0  0
   -1.0841   -7.3021    0.9967 H   0  0  0  0  0  0  0  0  0  0  0  0
   -3.2807   -4.1531   -0.9356 H   0  0  0  0  0  0  0  0  0  0  0  0
   -1.5609   -4.0516   -2.7271 H   0  0  0  0  0  0  0  0  0  0  0  0
    0.8743   -5.5226   -3.1286 S   0  0  0  0  0  0  0  0  0  0  0  0
    1.8576   -4.2735   -2.6142 O   0  0  0  0  0  0  0  0  0  0  0  0
    0.2748   -4.9876   -4.3420 O   0  0  0  0  0  0  0  0  0  0  0  0
    1.6474   -6.7614   -3.1219 O   0  0  0  0  0  0  0  0  0  0  0  0
   -3.3702   -5.8175    1.2248 C   0  0  0  0  0  0  0  0  0  0  0  0
   -3.7415   -4.8250    1.4971 H   0  0  0  0  0  0  0  0  0  0  0  0
   -4.2308   -6.3991    0.8722 H   0  0  0  0  0  0  0  0  0  0  0  0
   -2.9959   -6.3019    2.1305 H   0  0  0  0  0  0  0  0  0  0  0  0
    5.6000   -4.9639    1.4190 O   0  0  0  0  0  0  0  0  0  0  0  0
    5.4215   -4.3897    2.7038 C   0  0  0  0  0  0  0  0  0  0  0  0
    6.3075   -4.6604    3.2805 H   0  0  0  0  0  0  0  0  0  0  0  0
    5.3446   -3.2959    2.6520 H   0  0  0  0  0  0  0  0  0  0  0  0
    4.5301   -4.7881    3.2057 H   0  0  0  0  0  0  0  0  0  0  0  0
  1  7  1  0  0  0  0
  2  8  1  0  0  0  0
  2  1  2  0  0  0  0
  3  2  1  0  0  0  0
  4  3  2  0  0  0  0
  4  5  1  0  0  0  0
  5  6  2  0  0  0  0
  6  1  1  0  0  0  0
  6 31  1  0  0  0  0
  9  4  1  0  0  0  0
 10  5  1  0  0  0  0
 12 11  3  0  0  0  0
 13 19  1  0  0  0  0
 13 14  2  0  0  0  0
 14 20  1  0  0  0  0
 15 14  1  0  0  0  0
 15 27  1  0  0  0  0
 16 15  2  0  0  0  0
 17 18  2  0  0  0  0
 17 16  1  0  0  0  0
 18 13  1  0  0  0  0
 21 16  1  0  0  0  0
 22 17  1  0  0  0  0
 23 26  2  0  0  0  0
 23 24  1  0  0  0  0
 23 18  1  0  0  0  0
 24  3  1  0  0  0  0
 25 23  2  0  0  0  0
 27 28  1  0  0  0  0
 27 30  1  0  0  0  0
 29 27  1  0  0  0  0
 31 32  1  0  0  0  0
 32 35  1  0  0  0  0
 32 33  1  0  0  0  0
 34 32  1  0  0  0  0
M  END
