Coordinates from ORCA-job 4-MeO-Ph-N2-OTs-B3LYPG-6-31G_dp-MTMO-d009-169-n800
 OpenBabel09051908173D

 35 35  0  0  0  0  0  0  0  0999 V2000
    2.7589   -3.8420    0.5756 C   0  0  0  0  0  0  0  0  0  0  0  0
    1.6218   -3.9046   -0.2347 C   0  0  0  0  0  0  0  0  0  0  0  0
    1.7269   -4.3502   -1.5477 C   0  0  0  0  0  0  0  0  0  0  0  0
    2.9615   -4.7444   -2.0729 C   0  0  0  0  0  0  0  0  0  0  0  0
    4.0901   -4.6931   -1.2663 C   0  0  0  0  0  0  0  0  0  0  0  0
    3.9986   -4.2405    0.0602 C   0  0  0  0  0  0  0  0  0  0  0  0
    2.6640   -3.4831    1.5928 H   0  0  0  0  0  0  0  0  0  0  0  0
    0.6543   -3.5952    0.1456 H   0  0  0  0  0  0  0  0  0  0  0  0
    3.0217   -5.0906   -3.0973 H   0  0  0  0  0  0  0  0  0  0  0  0
    5.0615   -4.9932   -1.6442 H   0  0  0  0  0  0  0  0  0  0  0  0
   -2.0037   -2.3099   -2.6164 N   0  0  0  0  0  0  0  0  0  0  0  0
   -1.6022   -1.6930   -3.4403 N   0  0  0  0  0  0  0  0  0  0  0  0
   -0.3298   -7.3076   -0.5550 C   0  0  0  0  0  0  0  0  0  0  0  0
   -0.9494   -7.7299    0.6212 C   0  0  0  0  0  0  0  0  0  0  0  0
   -2.1467   -7.1498    1.0592 C   0  0  0  0  0  0  0  0  0  0  0  0
   -2.7214   -6.1292    0.2832 C   0  0  0  0  0  0  0  0  0  0  0  0
   -2.1219   -5.6942   -0.8940 C   0  0  0  0  0  0  0  0  0  0  0  0
   -0.9245   -6.2911   -1.3015 C   0  0  0  0  0  0  0  0  0  0  0  0
    0.5900   -7.7638   -0.9014 H   0  0  0  0  0  0  0  0  0  0  0  0
   -0.4966   -8.5271    1.2042 H   0  0  0  0  0  0  0  0  0  0  0  0
   -3.6558   -5.6764    0.6032 H   0  0  0  0  0  0  0  0  0  0  0  0
   -2.5734   -4.9133   -1.4964 H   0  0  0  0  0  0  0  0  0  0  0  0
   -0.1499   -5.7423   -2.8111 S   0  0  0  0  0  0  0  0  0  0  0  0
    0.5833   -4.3118   -2.3559 O   0  0  0  0  0  0  0  0  0  0  0  0
   -1.1681   -5.2955   -3.7503 O   0  0  0  0  0  0  0  0  0  0  0  0
    0.8828   -6.7042   -3.1857 O   0  0  0  0  0  0  0  0  0  0  0  0
   -2.8064   -7.5988    2.3403 C   0  0  0  0  0  0  0  0  0  0  0  0
   -2.7064   -6.8353    3.1219 H   0  0  0  0  0  0  0  0  0  0  0  0
   -3.8777   -7.7732    2.1961 H   0  0  0  0  0  0  0  0  0  0  0  0
   -2.3601   -8.5213    2.7187 H   0  0  0  0  0  0  0  0  0  0  0  0
    5.1705   -4.2236    0.7584 O   0  0  0  0  0  0  0  0  0  0  0  0
    5.1474   -3.7659    2.1010 C   0  0  0  0  0  0  0  0  0  0  0  0
    6.1758   -3.8322    2.4596 H   0  0  0  0  0  0  0  0  0  0  0  0
    4.8095   -2.7237    2.1683 H   0  0  0  0  0  0  0  0  0  0  0  0
    4.5051   -4.3930    2.7324 H   0  0  0  0  0  0  0  0  0  0  0  0
  1  7  1  0  0  0  0
  2  8  1  0  0  0  0
  2  1  2  0  0  0  0
  3  2  1  0  0  0  0
  4  3  2  0  0  0  0
  4  5  1  0  0  0  0
  5  6  2  0  0  0  0
  6  1  1  0  0  0  0
  6 31  1  0  0  0  0
  9  4  1  0  0  0  0
 10  5  1  0  0  0  0
 12 11  3  0  0  0  0
 13 14  2  0  0  0  0
 14 15  1  0  0  0  0
 14 20  1  0  0  0  0
 15 27  1  0  0  0  0
 16 21  1  0  0  0  0
 16 15  2  0  0  0  0
 17 16  1  0  0  0  0
 18 17  2  0  0  0  0
 18 13  1  0  0  0  0
 19 13  1  0  0  0  0
 22 17  1  0  0  0  0
 23 24  1  0  0  0  0
 23 18  1  0  0  0  0
 24  3  1  0  0  0  0
 25 23  2  0  0  0  0
 26 23  2  0  0  0  0
 27 30  1  0  0  0  0
 27 28  1  0  0  0  0
 29 27  1  0  0  0  0
 31 32  1  0  0  0  0
 32 34  1  0  0  0  0
 32 33  1  0  0  0  0
 32 35  1  0  0  0  0
M  END
