Coordinates from ORCA-job 4-MeO-Ph-N2-OTs-B3LYPG-6-31G_dp-MTMO-d009-169-n800
 OpenBabel09051908173D

 35 35  0  0  0  0  0  0  0  0999 V2000
    3.2945   -3.9670    0.6823 C   0  0  0  0  0  0  0  0  0  0  0  0
    2.3383   -3.9194   -0.3361 C   0  0  0  0  0  0  0  0  0  0  0  0
    2.6119   -4.4900   -1.5743 C   0  0  0  0  0  0  0  0  0  0  0  0
    3.8376   -5.1179   -1.8170 C   0  0  0  0  0  0  0  0  0  0  0  0
    4.7849   -5.1740   -0.8041 C   0  0  0  0  0  0  0  0  0  0  0  0
    4.5221   -4.5994    0.4503 C   0  0  0  0  0  0  0  0  0  0  0  0
    3.0708   -3.5112    1.6391 H   0  0  0  0  0  0  0  0  0  0  0  0
    1.3842   -3.4290   -0.1758 H   0  0  0  0  0  0  0  0  0  0  0  0
    4.0310   -5.5577   -2.7877 H   0  0  0  0  0  0  0  0  0  0  0  0
    5.7447   -5.6541   -0.9616 H   0  0  0  0  0  0  0  0  0  0  0  0
   -7.2037   -5.7426    0.3017 N   0  0  0  0  0  0  0  0  0  0  0  0
   -8.3036   -5.8027    0.2131 N   0  0  0  0  0  0  0  0  0  0  0  0
   -0.1329   -6.7698   -0.7326 C   0  0  0  0  0  0  0  0  0  0  0  0
   -1.0735   -6.9197    0.2851 C   0  0  0  0  0  0  0  0  0  0  0  0
   -2.2761   -6.1985    0.2760 C   0  0  0  0  0  0  0  0  0  0  0  0
   -2.5216   -5.3191   -0.7900 C   0  0  0  0  0  0  0  0  0  0  0  0
   -1.5947   -5.1529   -1.8158 C   0  0  0  0  0  0  0  0  0  0  0  0
   -0.4039   -5.8824   -1.7755 C   0  0  0  0  0  0  0  0  0  0  0  0
    0.7870   -7.3431   -0.7352 H   0  0  0  0  0  0  0  0  0  0  0  0
   -0.8731   -7.6157    1.0957 H   0  0  0  0  0  0  0  0  0  0  0  0
   -3.4564   -4.7662   -0.8213 H   0  0  0  0  0  0  0  0  0  0  0  0
   -1.7936   -4.4876   -2.6492 H   0  0  0  0  0  0  0  0  0  0  0  0
    0.7838   -5.6785   -3.0895 S   0  0  0  0  0  0  0  0  0  0  0  0
    1.6664   -4.3471   -2.5977 O   0  0  0  0  0  0  0  0  0  0  0  0
    0.1060   -5.1978   -4.2841 O   0  0  0  0  0  0  0  0  0  0  0  0
    1.6654   -6.8426   -3.1092 O   0  0  0  0  0  0  0  0  0  0  0  0
   -3.2777   -6.3527    1.3944 C   0  0  0  0  0  0  0  0  0  0  0  0
   -3.0896   -5.6209    2.1903 H   0  0  0  0  0  0  0  0  0  0  0  0
   -4.3012   -6.1946    1.0426 H   0  0  0  0  0  0  0  0  0  0  0  0
   -3.2205   -7.3467    1.8470 H   0  0  0  0  0  0  0  0  0  0  0  0
    5.5244   -4.7078    1.3693 O   0  0  0  0  0  0  0  0  0  0  0  0
    5.3239   -4.1397    2.6536 C   0  0  0  0  0  0  0  0  0  0  0  0
    6.2368   -4.3397    3.2173 H   0  0  0  0  0  0  0  0  0  0  0  0
    5.1652   -3.0551    2.5970 H   0  0  0  0  0  0  0  0  0  0  0  0
    4.4728   -4.5997    3.1722 H   0  0  0  0  0  0  0  0  0  0  0  0
  1  7  1  0  0  0  0
  2  8  1  0  0  0  0
  2  1  2  0  0  0  0
  3  2  1  0  0  0  0
  4  3  2  0  0  0  0
  4  5  1  0  0  0  0
  5  6  2  0  0  0  0
  6  1  1  0  0  0  0
  6 31  1  0  0  0  0
  9  4  1  0  0  0  0
 10  5  1  0  0  0  0
 12 11  3  0  0  0  0
 13 14  2  0  0  0  0
 14 20  1  0  0  0  0
 15 14  1  0  0  0  0
 15 27  1  0  0  0  0
 16 15  2  0  0  0  0
 17 18  2  0  0  0  0
 17 16  1  0  0  0  0
 18 13  1  0  0  0  0
 19 13  1  0  0  0  0
 21 16  1  0  0  0  0
 22 17  1  0  0  0  0
 23 24  1  0  0  0  0
 23 18  1  0  0  0  0
 24  3  1  0  0  0  0
 25 23  2  0  0  0  0
 26 23  2  0  0  0  0
 27 30  1  0  0  0  0
 27 28  1  0  0  0  0
 29 27  1  0  0  0  0
 31 32  1  0  0  0  0
 32 35  1  0  0  0  0
 32 33  1  0  0  0  0
 34 32  1  0  0  0  0
M  END
