Coordinates from ORCA-job 4-MeO-Ph-N2-OTs-B3LYPG-6-31G_dp-MTMO-d009-169-n800
 OpenBabel09051908173D

 35 35  0  0  0  0  0  0  0  0999 V2000
    2.8327   -3.8785    0.6283 C   0  0  0  0  0  0  0  0  0  0  0  0
    1.6907   -3.9119   -0.1768 C   0  0  0  0  0  0  0  0  0  0  0  0
    1.7849   -4.3248   -1.5012 C   0  0  0  0  0  0  0  0  0  0  0  0
    3.0136   -4.7148   -2.0432 C   0  0  0  0  0  0  0  0  0  0  0  0
    4.1471   -4.6924   -1.2422 C   0  0  0  0  0  0  0  0  0  0  0  0
    4.0665   -4.2731    0.0959 C   0  0  0  0  0  0  0  0  0  0  0  0
    2.7461   -3.5443    1.6547 H   0  0  0  0  0  0  0  0  0  0  0  0
    0.7279   -3.6049    0.2172 H   0  0  0  0  0  0  0  0  0  0  0  0
    3.0655   -5.0357   -3.0764 H   0  0  0  0  0  0  0  0  0  0  0  0
    5.1140   -4.9904   -1.6332 H   0  0  0  0  0  0  0  0  0  0  0  0
   -2.6163   -2.4650   -2.9230 N   0  0  0  0  0  0  0  0  0  0  0  0
   -2.2553   -1.8747   -3.7843 N   0  0  0  0  0  0  0  0  0  0  0  0
   -0.3105   -7.2538   -0.5433 C   0  0  0  0  0  0  0  0  0  0  0  0
   -0.9420   -7.6852    0.6231 C   0  0  0  0  0  0  0  0  0  0  0  0
   -2.1470   -7.1127    1.0500 C   0  0  0  0  0  0  0  0  0  0  0  0
   -2.7171   -6.0905    0.2728 C   0  0  0  0  0  0  0  0  0  0  0  0
   -2.1057   -5.6462   -0.8949 C   0  0  0  0  0  0  0  0  0  0  0  0
   -0.9009   -6.2357   -1.2913 C   0  0  0  0  0  0  0  0  0  0  0  0
    0.6150   -7.7046   -0.8815 H   0  0  0  0  0  0  0  0  0  0  0  0
   -0.4927   -8.4837    1.2070 H   0  0  0  0  0  0  0  0  0  0  0  0
   -3.6575   -5.6440    0.5839 H   0  0  0  0  0  0  0  0  0  0  0  0
   -2.5548   -4.8654   -1.4993 H   0  0  0  0  0  0  0  0  0  0  0  0
   -0.1085   -5.6718   -2.7858 S   0  0  0  0  0  0  0  0  0  0  0  0
    0.6371   -4.2579   -2.3019 O   0  0  0  0  0  0  0  0  0  0  0  0
   -1.1155   -5.1994   -3.7250 O   0  0  0  0  0  0  0  0  0  0  0  0
    0.9159   -6.6394   -3.1686 O   0  0  0  0  0  0  0  0  0  0  0  0
   -2.8207   -7.5724    2.3200 C   0  0  0  0  0  0  0  0  0  0  0  0
   -2.7465   -6.8076    3.1031 H   0  0  0  0  0  0  0  0  0  0  0  0
   -3.8864   -7.7639    2.1577 H   0  0  0  0  0  0  0  0  0  0  0  0
   -2.3663   -8.4879    2.7059 H   0  0  0  0  0  0  0  0  0  0  0  0
    5.2422   -4.2830    0.7877 O   0  0  0  0  0  0  0  0  0  0  0  0
    5.2296   -3.8618    2.1422 C   0  0  0  0  0  0  0  0  0  0  0  0
    6.2591   -3.9458    2.4935 H   0  0  0  0  0  0  0  0  0  0  0  0
    4.9002   -2.8192    2.2397 H   0  0  0  0  0  0  0  0  0  0  0  0
    4.5854   -4.5008    2.7597 H   0  0  0  0  0  0  0  0  0  0  0  0
  1  7  1  0  0  0  0
  2  8  1  0  0  0  0
  2  1  2  0  0  0  0
  3  2  1  0  0  0  0
  4  3  2  0  0  0  0
  4  5  1  0  0  0  0
  5  6  2  0  0  0  0
  6  1  1  0  0  0  0
  6 31  1  0  0  0  0
  9  4  1  0  0  0  0
 10  5  1  0  0  0  0
 12 11  3  0  0  0  0
 13 14  2  0  0  0  0
 14 15  1  0  0  0  0
 14 20  1  0  0  0  0
 15 27  1  0  0  0  0
 16 21  1  0  0  0  0
 16 15  2  0  0  0  0
 17 16  1  0  0  0  0
 18 17  2  0  0  0  0
 18 13  1  0  0  0  0
 19 13  1  0  0  0  0
 22 17  1  0  0  0  0
 23 24  1  0  0  0  0
 23 18  1  0  0  0  0
 24  3  1  0  0  0  0
 25 23  2  0  0  0  0
 26 23  2  0  0  0  0
 27 30  1  0  0  0  0
 27 28  1  0  0  0  0
 29 27  1  0  0  0  0
 31 32  1  0  0  0  0
 32 34  1  0  0  0  0
 32 33  1  0  0  0  0
 32 35  1  0  0  0  0
M  END
