Coordinates from ORCA-job 4-MeO-Ph-N2-OTs-B3LYPG-6-31G_dp-MTMO-d009-169-n800
 OpenBabel09051908173D

 35 35  0  0  0  0  0  0  0  0999 V2000
    2.8432   -3.8832    0.6355 C   0  0  0  0  0  0  0  0  0  0  0  0
    1.7021   -3.9106   -0.1712 C   0  0  0  0  0  0  0  0  0  0  0  0
    1.7966   -4.3210   -1.4963 C   0  0  0  0  0  0  0  0  0  0  0  0
    3.0245   -4.7143   -2.0377 C   0  0  0  0  0  0  0  0  0  0  0  0
    4.1570   -4.6979   -1.2351 C   0  0  0  0  0  0  0  0  0  0  0  0
    4.0762   -4.2813    0.1039 C   0  0  0  0  0  0  0  0  0  0  0  0
    2.7566   -3.5509    1.6624 H   0  0  0  0  0  0  0  0  0  0  0  0
    0.7400   -3.6009    0.2222 H   0  0  0  0  0  0  0  0  0  0  0  0
    3.0766   -5.0332   -3.0714 H   0  0  0  0  0  0  0  0  0  0  0  0
    5.1233   -4.9986   -1.6255 H   0  0  0  0  0  0  0  0  0  0  0  0
   -2.7239   -2.5033   -2.9526 N   0  0  0  0  0  0  0  0  0  0  0  0
   -2.3935   -1.9222   -3.8323 N   0  0  0  0  0  0  0  0  0  0  0  0
   -0.3062   -7.2443   -0.5460 C   0  0  0  0  0  0  0  0  0  0  0  0
   -0.9391   -7.6768    0.6193 C   0  0  0  0  0  0  0  0  0  0  0  0
   -2.1433   -7.1030    1.0466 C   0  0  0  0  0  0  0  0  0  0  0  0
   -2.7112   -6.0783    0.2710 C   0  0  0  0  0  0  0  0  0  0  0  0
   -2.0983   -5.6328   -0.8954 C   0  0  0  0  0  0  0  0  0  0  0  0
   -0.8943   -6.2237   -1.2922 C   0  0  0  0  0  0  0  0  0  0  0  0
    0.6187   -7.6962   -0.8845 H   0  0  0  0  0  0  0  0  0  0  0  0
   -0.4916   -8.4773    1.2019 H   0  0  0  0  0  0  0  0  0  0  0  0
   -3.6509   -5.6308    0.5824 H   0  0  0  0  0  0  0  0  0  0  0  0
   -2.5457   -4.8500   -1.4985 H   0  0  0  0  0  0  0  0  0  0  0  0
   -0.1000   -5.6589   -2.7854 S   0  0  0  0  0  0  0  0  0  0  0  0
    0.6501   -4.2484   -2.2985 O   0  0  0  0  0  0  0  0  0  0  0  0
   -1.1050   -5.1816   -3.7242 O   0  0  0  0  0  0  0  0  0  0  0  0
    0.9213   -6.6291   -3.1699 O   0  0  0  0  0  0  0  0  0  0  0  0
   -2.8186   -7.5638    2.3154 C   0  0  0  0  0  0  0  0  0  0  0  0
   -2.7411   -6.8016    3.1008 H   0  0  0  0  0  0  0  0  0  0  0  0
   -3.8851   -7.7506    2.1528 H   0  0  0  0  0  0  0  0  0  0  0  0
   -2.3677   -8.4822    2.6984 H   0  0  0  0  0  0  0  0  0  0  0  0
    5.2510   -4.2971    0.7971 O   0  0  0  0  0  0  0  0  0  0  0  0
    5.2380   -3.8790    2.1526 C   0  0  0  0  0  0  0  0  0  0  0  0
    6.2668   -3.9677    2.5052 H   0  0  0  0  0  0  0  0  0  0  0  0
    4.9123   -2.8355    2.2522 H   0  0  0  0  0  0  0  0  0  0  0  0
    4.5907   -4.5171    2.7678 H   0  0  0  0  0  0  0  0  0  0  0  0
  1  7  1  0  0  0  0
  2  8  1  0  0  0  0
  2  1  2  0  0  0  0
  3  2  1  0  0  0  0
  4  3  2  0  0  0  0
  4  5  1  0  0  0  0
  5  6  2  0  0  0  0
  6  1  1  0  0  0  0
  6 31  1  0  0  0  0
  9  4  1  0  0  0  0
 10  5  1  0  0  0  0
 12 11  3  0  0  0  0
 13 14  2  0  0  0  0
 14 15  1  0  0  0  0
 14 20  1  0  0  0  0
 15 27  1  0  0  0  0
 16 21  1  0  0  0  0
 16 15  2  0  0  0  0
 17 16  1  0  0  0  0
 18 17  2  0  0  0  0
 18 13  1  0  0  0  0
 19 13  1  0  0  0  0
 22 17  1  0  0  0  0
 23 24  1  0  0  0  0
 23 18  1  0  0  0  0
 24  3  1  0  0  0  0
 25 23  2  0  0  0  0
 26 23  2  0  0  0  0
 27 30  1  0  0  0  0
 27 28  1  0  0  0  0
 29 27  1  0  0  0  0
 31 32  1  0  0  0  0
 32 34  1  0  0  0  0
 32 33  1  0  0  0  0
 32 35  1  0  0  0  0
M  END
