Coordinates from ORCA-job 4-MeO-Ph-N2-OTs-B3LYPG-6-31G_dp-MTMO-d009-169-n800
 OpenBabel09051908173D

 35 35  0  0  0  0  0  0  0  0999 V2000
    3.2503   -3.9493    0.6823 C   0  0  0  0  0  0  0  0  0  0  0  0
    2.2966   -3.9138   -0.3390 C   0  0  0  0  0  0  0  0  0  0  0  0
    2.5808   -4.4815   -1.5761 C   0  0  0  0  0  0  0  0  0  0  0  0
    3.8149   -5.0942   -1.8149 C   0  0  0  0  0  0  0  0  0  0  0  0
    4.7597   -5.1386   -0.7990 C   0  0  0  0  0  0  0  0  0  0  0  0
    4.4861   -4.5669    0.4544 C   0  0  0  0  0  0  0  0  0  0  0  0
    3.0182   -3.4959    1.6382 H   0  0  0  0  0  0  0  0  0  0  0  0
    1.3361   -3.4350   -0.1817 H   0  0  0  0  0  0  0  0  0  0  0  0
    4.0167   -5.5318   -2.7849 H   0  0  0  0  0  0  0  0  0  0  0  0
    5.7257   -5.6071   -0.9535 H   0  0  0  0  0  0  0  0  0  0  0  0
   -6.9897   -5.3823    0.2842 N   0  0  0  0  0  0  0  0  0  0  0  0
   -8.0933   -5.3851    0.2281 N   0  0  0  0  0  0  0  0  0  0  0  0
   -0.1096   -6.8118   -0.7418 C   0  0  0  0  0  0  0  0  0  0  0  0
   -1.0419   -6.9838    0.2791 C   0  0  0  0  0  0  0  0  0  0  0  0
   -2.2600   -6.2876    0.2768 C   0  0  0  0  0  0  0  0  0  0  0  0
   -2.5284   -5.4113   -0.7854 C   0  0  0  0  0  0  0  0  0  0  0  0
   -1.6090   -5.2229   -1.8152 C   0  0  0  0  0  0  0  0  0  0  0  0
   -0.4036   -5.9271   -1.7817 C   0  0  0  0  0  0  0  0  0  0  0  0
    0.8222   -7.3654   -0.7499 H   0  0  0  0  0  0  0  0  0  0  0  0
   -0.8231   -7.6774    1.0871 H   0  0  0  0  0  0  0  0  0  0  0  0
   -3.4749   -4.8787   -0.8115 H   0  0  0  0  0  0  0  0  0  0  0  0
   -1.8253   -4.5595   -2.6456 H   0  0  0  0  0  0  0  0  0  0  0  0
    0.7750   -5.6941   -3.0990 S   0  0  0  0  0  0  0  0  0  0  0  0
    1.6363   -4.3505   -2.6021 O   0  0  0  0  0  0  0  0  0  0  0  0
    0.0848   -5.2180   -4.2882 O   0  0  0  0  0  0  0  0  0  0  0  0
    1.6767   -6.8426   -3.1296 O   0  0  0  0  0  0  0  0  0  0  0  0
   -3.2525   -6.4693    1.3996 C   0  0  0  0  0  0  0  0  0  0  0  0
   -2.9839   -5.8472    2.2623 H   0  0  0  0  0  0  0  0  0  0  0  0
   -4.2623   -6.1847    1.0925 H   0  0  0  0  0  0  0  0  0  0  0  0
   -3.2779   -7.5070    1.7449 H   0  0  0  0  0  0  0  0  0  0  0  0
    5.4868   -4.6630    1.3765 O   0  0  0  0  0  0  0  0  0  0  0  0
    5.2759   -4.0961    2.6597 C   0  0  0  0  0  0  0  0  0  0  0  0
    6.1892   -4.2852    3.2264 H   0  0  0  0  0  0  0  0  0  0  0  0
    5.1050   -3.0134    2.6015 H   0  0  0  0  0  0  0  0  0  0  0  0
    4.4283   -4.5652    3.1761 H   0  0  0  0  0  0  0  0  0  0  0  0
  1  7  1  0  0  0  0
  2  8  1  0  0  0  0
  2  1  2  0  0  0  0
  3  2  1  0  0  0  0
  4  3  2  0  0  0  0
  4  5  1  0  0  0  0
  5  6  2  0  0  0  0
  6  1  1  0  0  0  0
  6 31  1  0  0  0  0
  9  4  1  0  0  0  0
 10  5  1  0  0  0  0
 12 11  3  0  0  0  0
 13 14  2  0  0  0  0
 14 20  1  0  0  0  0
 15 14  1  0  0  0  0
 15 27  1  0  0  0  0
 16 15  2  0  0  0  0
 17 18  2  0  0  0  0
 17 16  1  0  0  0  0
 18 13  1  0  0  0  0
 19 13  1  0  0  0  0
 21 16  1  0  0  0  0
 22 17  1  0  0  0  0
 23 24  1  0  0  0  0
 23 18  1  0  0  0  0
 24  3  1  0  0  0  0
 25 23  2  0  0  0  0
 26 23  2  0  0  0  0
 27 30  1  0  0  0  0
 27 28  1  0  0  0  0
 29 27  1  0  0  0  0
 31 32  1  0  0  0  0
 32 35  1  0  0  0  0
 32 33  1  0  0  0  0
 34 32  1  0  0  0  0
M  END
