Coordinates from ORCA-job 4-MeO-Ph-N2-OTs-B3LYPG-6-31G_dp-MTMO-d009-169-n800
 OpenBabel09051908173D

 35 35  0  0  0  0  0  0  0  0999 V2000
    2.9089   -3.9128    0.6827 C   0  0  0  0  0  0  0  0  0  0  0  0
    1.7658   -3.9038   -0.1217 C   0  0  0  0  0  0  0  0  0  0  0  0
    1.8500   -4.2901   -1.4548 C   0  0  0  0  0  0  0  0  0  0  0  0
    3.0696   -4.6947   -2.0065 C   0  0  0  0  0  0  0  0  0  0  0  0
    4.2038   -4.7145   -1.2065 C   0  0  0  0  0  0  0  0  0  0  0  0
    4.1334   -4.3227    0.1406 C   0  0  0  0  0  0  0  0  0  0  0  0
    2.8303   -3.5986    1.7160 H   0  0  0  0  0  0  0  0  0  0  0  0
    0.8103   -3.5842    0.2799 H   0  0  0  0  0  0  0  0  0  0  0  0
    3.1140   -4.9942   -3.0464 H   0  0  0  0  0  0  0  0  0  0  0  0
    5.1637   -5.0248   -1.6050 H   0  0  0  0  0  0  0  0  0  0  0  0
   -3.2311   -2.7350   -3.1772 N   0  0  0  0  0  0  0  0  0  0  0  0
   -3.0145   -2.2130   -4.1265 N   0  0  0  0  0  0  0  0  0  0  0  0
   -0.2808   -7.1649   -0.5394 C   0  0  0  0  0  0  0  0  0  0  0  0
   -0.9200   -7.6109    0.6170 C   0  0  0  0  0  0  0  0  0  0  0  0
   -2.1384   -7.0578    1.0319 C   0  0  0  0  0  0  0  0  0  0  0  0
   -2.7141   -6.0411    0.2520 C   0  0  0  0  0  0  0  0  0  0  0  0
   -2.0945   -5.5816   -0.9057 C   0  0  0  0  0  0  0  0  0  0  0  0
   -0.8764   -6.1511   -1.2896 C   0  0  0  0  0  0  0  0  0  0  0  0
    0.6542   -7.6025   -0.8690 H   0  0  0  0  0  0  0  0  0  0  0  0
   -0.4666   -8.4063    1.2023 H   0  0  0  0  0  0  0  0  0  0  0  0
   -3.6654   -5.6110    0.5525 H   0  0  0  0  0  0  0  0  0  0  0  0
   -2.5499   -4.8071   -1.5136 H   0  0  0  0  0  0  0  0  0  0  0  0
   -0.0717   -5.5665   -2.7693 S   0  0  0  0  0  0  0  0  0  0  0  0
    0.7031   -4.1805   -2.2519 O   0  0  0  0  0  0  0  0  0  0  0  0
   -1.0687   -5.0519   -3.6968 O   0  0  0  0  0  0  0  0  0  0  0  0
    0.9336   -6.5447   -3.1751 O   0  0  0  0  0  0  0  0  0  0  0  0
   -2.8189   -7.5321    2.2930 C   0  0  0  0  0  0  0  0  0  0  0  0
   -2.7290   -6.7854    3.0919 H   0  0  0  0  0  0  0  0  0  0  0  0
   -3.8881   -7.7008    2.1290 H   0  0  0  0  0  0  0  0  0  0  0  0
   -2.3800   -8.4632    2.6590 H   0  0  0  0  0  0  0  0  0  0  0  0
    5.3090   -4.3729    0.8307 O   0  0  0  0  0  0  0  0  0  0  0  0
    5.3062   -3.9796    2.1936 C   0  0  0  0  0  0  0  0  0  0  0  0
    6.3341   -4.0923    2.5419 H   0  0  0  0  0  0  0  0  0  0  0  0
    4.9984   -2.9327    2.3130 H   0  0  0  0  0  0  0  0  0  0  0  0
    4.6494   -4.6177    2.7986 H   0  0  0  0  0  0  0  0  0  0  0  0
  1  7  1  0  0  0  0
  2  8  1  0  0  0  0
  2  1  2  0  0  0  0
  3  2  1  0  0  0  0
  4  3  2  0  0  0  0
  4  5  1  0  0  0  0
  5  6  2  0  0  0  0
  6  1  1  0  0  0  0
  6 31  1  0  0  0  0
  9  4  1  0  0  0  0
 10  5  1  0  0  0  0
 12 11  3  0  0  0  0
 13 14  2  0  0  0  0
 14 15  1  0  0  0  0
 14 20  1  0  0  0  0
 15 27  1  0  0  0  0
 16 21  1  0  0  0  0
 16 15  2  0  0  0  0
 17 16  1  0  0  0  0
 18 17  2  0  0  0  0
 18 13  1  0  0  0  0
 19 13  1  0  0  0  0
 22 17  1  0  0  0  0
 23 24  1  0  0  0  0
 23 18  1  0  0  0  0
 24  3  1  0  0  0  0
 25 23  2  0  0  0  0
 26 23  2  0  0  0  0
 27 30  1  0  0  0  0
 27 28  1  0  0  0  0
 29 27  1  0  0  0  0
 31 32  1  0  0  0  0
 32 34  1  0  0  0  0
 32 33  1  0  0  0  0
 32 35  1  0  0  0  0
M  END
