Coordinates from ORCA-job 4-MeO-Ph-N2-OTs-B3LYPG-6-31G_dp-MTMO-d009-169-n800
 OpenBabel09051908173D

 35 35  0  0  0  0  0  0  0  0999 V2000
    3.6659   -3.9625    0.6154 C   0  0  0  0  0  0  0  0  0  0  0  0
    2.6973   -3.8684   -0.3880 C   0  0  0  0  0  0  0  0  0  0  0  0
    2.9049   -4.4884   -1.6152 C   0  0  0  0  0  0  0  0  0  0  0  0
    4.0750   -5.2131   -1.8613 C   0  0  0  0  0  0  0  0  0  0  0  0
    5.0344   -5.3146   -0.8635 C   0  0  0  0  0  0  0  0  0  0  0  0
    4.8386   -4.6902    0.3794 C   0  0  0  0  0  0  0  0  0  0  0  0
    3.4949   -3.4676    1.5637 H   0  0  0  0  0  0  0  0  0  0  0  0
    1.7853   -3.3041   -0.2246 H   0  0  0  0  0  0  0  0  0  0  0  0
    4.2165   -5.6905   -2.8233 H   0  0  0  0  0  0  0  0  0  0  0  0
    5.9530   -5.8686   -1.0243 H   0  0  0  0  0  0  0  0  0  0  0  0
  -11.4251   -8.5989    0.3566 N   0  0  0  0  0  0  0  0  0  0  0  0
  -12.3744   -9.1154    0.1250 N   0  0  0  0  0  0  0  0  0  0  0  0
   -0.0387   -6.4994   -0.6689 C   0  0  0  0  0  0  0  0  0  0  0  0
   -0.9689   -6.5135    0.3703 C   0  0  0  0  0  0  0  0  0  0  0  0
   -2.0779   -5.6575    0.3638 C   0  0  0  0  0  0  0  0  0  0  0  0
   -2.2381   -4.7757   -0.7176 C   0  0  0  0  0  0  0  0  0  0  0  0
   -1.3223   -4.7455   -1.7644 C   0  0  0  0  0  0  0  0  0  0  0  0
   -0.2259   -5.6119   -1.7283 C   0  0  0  0  0  0  0  0  0  0  0  0
    0.8114   -7.1724   -0.6702 H   0  0  0  0  0  0  0  0  0  0  0  0
   -0.8313   -7.2048    1.1978 H   0  0  0  0  0  0  0  0  0  0  0  0
   -3.0962   -4.1088   -0.7412 H   0  0  0  0  0  0  0  0  0  0  0  0
   -1.4549   -4.0753   -2.6071 H   0  0  0  0  0  0  0  0  0  0  0  0
    0.9581   -5.5670   -3.0612 S   0  0  0  0  0  0  0  0  0  0  0  0
    1.9560   -4.2993   -2.6279 O   0  0  0  0  0  0  0  0  0  0  0  0
    0.3095   -5.0751   -4.2675 O   0  0  0  0  0  0  0  0  0  0  0  0
    1.7343   -6.8037   -3.0428 O   0  0  0  0  0  0  0  0  0  0  0  0
   -3.0964   -5.6941    1.4772 C   0  0  0  0  0  0  0  0  0  0  0  0
   -3.3698   -4.6850    1.8011 H   0  0  0  0  0  0  0  0  0  0  0  0
   -4.0187   -6.1867    1.1469 H   0  0  0  0  0  0  0  0  0  0  0  0
   -2.7222   -6.2412    2.3463 H   0  0  0  0  0  0  0  0  0  0  0  0
    5.8479   -4.8492    1.2834 O   0  0  0  0  0  0  0  0  0  0  0  0
    5.7135   -4.2375    2.5562 C   0  0  0  0  0  0  0  0  0  0  0  0
    6.6214   -4.4874    3.1079 H   0  0  0  0  0  0  0  0  0  0  0  0
    5.6293   -3.1460    2.4750 H   0  0  0  0  0  0  0  0  0  0  0  0
    4.8430   -4.6242    3.1021 H   0  0  0  0  0  0  0  0  0  0  0  0
  1  7  1  0  0  0  0
  2  8  1  0  0  0  0
  2  1  2  0  0  0  0
  3  2  1  0  0  0  0
  4  3  2  0  0  0  0
  4  5  1  0  0  0  0
  5  6  2  0  0  0  0
  6  1  1  0  0  0  0
  6 31  1  0  0  0  0
  9  4  1  0  0  0  0
 10  5  1  0  0  0  0
 12 11  3  0  0  0  0
 13 14  2  0  0  0  0
 14 20  1  0  0  0  0
 15 14  1  0  0  0  0
 15 27  1  0  0  0  0
 16 15  2  0  0  0  0
 17 18  2  0  0  0  0
 17 16  1  0  0  0  0
 18 13  1  0  0  0  0
 19 13  1  0  0  0  0
 21 16  1  0  0  0  0
 22 17  1  0  0  0  0
 23 26  2  0  0  0  0
 23 24  1  0  0  0  0
 23 18  1  0  0  0  0
 24  3  1  0  0  0  0
 25 23  2  0  0  0  0
 27 28  1  0  0  0  0
 27 30  1  0  0  0  0
 29 27  1  0  0  0  0
 31 32  1  0  0  0  0
 32 35  1  0  0  0  0
 32 33  1  0  0  0  0
 34 32  1  0  0  0  0
M  END
