Coordinates from ORCA-job 4-MeO-Ph-N2-OTs-B3LYPG-6-31G_dp-MTMO-d009-169-n800
 OpenBabel09051908173D

 35 35  0  0  0  0  0  0  0  0999 V2000
    3.3966   -4.0736    0.6683 C   0  0  0  0  0  0  0  0  0  0  0  0
    2.4452   -3.9521   -0.3485 C   0  0  0  0  0  0  0  0  0  0  0  0
    2.6594   -4.5647   -1.5782 C   0  0  0  0  0  0  0  0  0  0  0  0
    3.8190   -5.3096   -1.8136 C   0  0  0  0  0  0  0  0  0  0  0  0
    4.7612   -5.4382   -0.8025 C   0  0  0  0  0  0  0  0  0  0  0  0
    4.5588   -4.8213    0.4430 C   0  0  0  0  0  0  0  0  0  0  0  0
    3.2207   -3.5839    1.6183 H   0  0  0  0  0  0  0  0  0  0  0  0
    1.5416   -3.3720   -0.1933 H   0  0  0  0  0  0  0  0  0  0  0  0
    3.9658   -5.7810   -2.7777 H   0  0  0  0  0  0  0  0  0  0  0  0
    5.6716   -6.0080   -0.9550 H   0  0  0  0  0  0  0  0  0  0  0  0
   -6.8252   -7.5743    0.3280 N   0  0  0  0  0  0  0  0  0  0  0  0
   -7.6840   -8.1683   -0.0338 N   0  0  0  0  0  0  0  0  0  0  0  0
   -0.3452   -6.5272   -0.7001 C   0  0  0  0  0  0  0  0  0  0  0  0
   -1.2937   -6.5328    0.3222 C   0  0  0  0  0  0  0  0  0  0  0  0
   -2.3842   -5.6529    0.3064 C   0  0  0  0  0  0  0  0  0  0  0  0
   -2.5056   -4.7558   -0.7672 C   0  0  0  0  0  0  0  0  0  0  0  0
   -1.5709   -4.7338   -1.7976 C   0  0  0  0  0  0  0  0  0  0  0  0
   -0.4943   -5.6239   -1.7525 C   0  0  0  0  0  0  0  0  0  0  0  0
    0.4906   -7.2180   -0.6941 H   0  0  0  0  0  0  0  0  0  0  0  0
   -1.1854   -7.2357    1.1442 H   0  0  0  0  0  0  0  0  0  0  0  0
   -3.3480   -4.0694   -0.7975 H   0  0  0  0  0  0  0  0  0  0  0  0
   -1.6737   -4.0508   -2.6342 H   0  0  0  0  0  0  0  0  0  0  0  0
    0.7134   -5.5906   -3.0641 S   0  0  0  0  0  0  0  0  0  0  0  0
    1.7300   -4.3475   -2.6032 O   0  0  0  0  0  0  0  0  0  0  0  0
    0.0959   -5.0747   -4.2767 O   0  0  0  0  0  0  0  0  0  0  0  0
    1.4640   -6.8431   -3.0444 O   0  0  0  0  0  0  0  0  0  0  0  0
   -3.4238   -5.6836    1.4002 C   0  0  0  0  0  0  0  0  0  0  0  0
   -3.7401   -4.6737    1.6781 H   0  0  0  0  0  0  0  0  0  0  0  0
   -4.3199   -6.2248    1.0738 H   0  0  0  0  0  0  0  0  0  0  0  0
   -3.0466   -6.1812    2.2975 H   0  0  0  0  0  0  0  0  0  0  0  0
    5.5514   -5.0073    1.3603 O   0  0  0  0  0  0  0  0  0  0  0  0
    5.4096   -4.4041    2.6363 C   0  0  0  0  0  0  0  0  0  0  0  0
    6.3047   -4.6749    3.1987 H   0  0  0  0  0  0  0  0  0  0  0  0
    5.3460   -3.3106    2.5632 H   0  0  0  0  0  0  0  0  0  0  0  0
    4.5245   -4.7796    3.1663 H   0  0  0  0  0  0  0  0  0  0  0  0
  1  7  1  0  0  0  0
  2  8  1  0  0  0  0
  2  1  2  0  0  0  0
  3  2  1  0  0  0  0
  4  3  2  0  0  0  0
  4  5  1  0  0  0  0
  5  6  2  0  0  0  0
  6  1  1  0  0  0  0
  6 31  1  0  0  0  0
  9  4  1  0  0  0  0
 10  5  1  0  0  0  0
 12 11  3  0  0  0  0
 13 19  1  0  0  0  0
 13 14  2  0  0  0  0
 14 20  1  0  0  0  0
 15 14  1  0  0  0  0
 15 27  1  0  0  0  0
 16 15  2  0  0  0  0
 17 18  2  0  0  0  0
 17 16  1  0  0  0  0
 18 13  1  0  0  0  0
 21 16  1  0  0  0  0
 22 17  1  0  0  0  0
 23 26  2  0  0  0  0
 23 24  1  0  0  0  0
 23 18  1  0  0  0  0
 24  3  1  0  0  0  0
 25 23  2  0  0  0  0
 27 28  1  0  0  0  0
 27 30  1  0  0  0  0
 29 27  1  0  0  0  0
 31 32  1  0  0  0  0
 32 35  1  0  0  0  0
 32 33  1  0  0  0  0
 34 32  1  0  0  0  0
M  END
