Coordinates from ORCA-job 4-MeO-Ph-N2-OTs-B3LYPG-6-31G_dp-MTMO-d009-169-n800
 OpenBabel09051908173D

 35 35  0  0  0  0  0  0  0  0999 V2000
    3.7104   -3.9371    0.6016 C   0  0  0  0  0  0  0  0  0  0  0  0
    2.7340   -3.8524   -0.3952 C   0  0  0  0  0  0  0  0  0  0  0  0
    2.9371   -4.4741   -1.6222 C   0  0  0  0  0  0  0  0  0  0  0  0
    4.1104   -5.1914   -1.8748 C   0  0  0  0  0  0  0  0  0  0  0  0
    5.0776   -5.2837   -0.8835 C   0  0  0  0  0  0  0  0  0  0  0  0
    4.8863   -4.6575    0.3591 C   0  0  0  0  0  0  0  0  0  0  0  0
    3.5427   -3.4410    1.5498 H   0  0  0  0  0  0  0  0  0  0  0  0
    1.8193   -3.2940   -0.2267 H   0  0  0  0  0  0  0  0  0  0  0  0
    4.2483   -5.6704   -2.8365 H   0  0  0  0  0  0  0  0  0  0  0  0
    5.9987   -5.8319   -1.0495 H   0  0  0  0  0  0  0  0  0  0  0  0
  -12.2091   -8.7118    0.2479 N   0  0  0  0  0  0  0  0  0  0  0  0
  -13.1532   -9.2439    0.0302 N   0  0  0  0  0  0  0  0  0  0  0  0
    0.0177   -6.5019   -0.6471 C   0  0  0  0  0  0  0  0  0  0  0  0
   -0.9045   -6.5200    0.3994 C   0  0  0  0  0  0  0  0  0  0  0  0
   -2.0212   -5.6742    0.3978 C   0  0  0  0  0  0  0  0  0  0  0  0
   -2.1980   -4.7989   -0.6864 C   0  0  0  0  0  0  0  0  0  0  0  0
   -1.2907   -4.7649   -1.7403 C   0  0  0  0  0  0  0  0  0  0  0  0
   -0.1858   -5.6209   -1.7088 C   0  0  0  0  0  0  0  0  0  0  0  0
    0.8738   -7.1671   -0.6519 H   0  0  0  0  0  0  0  0  0  0  0  0
   -0.7542   -7.2064    1.2287 H   0  0  0  0  0  0  0  0  0  0  0  0
   -3.0627   -4.1404   -0.7066 H   0  0  0  0  0  0  0  0  0  0  0  0
   -1.4361   -4.1000   -2.5850 H   0  0  0  0  0  0  0  0  0  0  0  0
    0.9875   -5.5706   -3.0508 S   0  0  0  0  0  0  0  0  0  0  0  0
    1.9794   -4.2947   -2.6284 O   0  0  0  0  0  0  0  0  0  0  0  0
    0.3262   -5.0866   -4.2533 O   0  0  0  0  0  0  0  0  0  0  0  0
    1.7730   -6.8016   -3.0352 O   0  0  0  0  0  0  0  0  0  0  0  0
   -3.0296   -5.7131    1.5204 C   0  0  0  0  0  0  0  0  0  0  0  0
   -3.2860   -4.7048    1.8606 H   0  0  0  0  0  0  0  0  0  0  0  0
   -3.9620   -6.1881    1.1929 H   0  0  0  0  0  0  0  0  0  0  0  0
   -2.6542   -6.2766    2.3784 H   0  0  0  0  0  0  0  0  0  0  0  0
    5.9030   -4.8073    1.2564 O   0  0  0  0  0  0  0  0  0  0  0  0
    5.7735   -4.1933    2.5285 C   0  0  0  0  0  0  0  0  0  0  0  0
    6.6867   -4.4360    3.0746 H   0  0  0  0  0  0  0  0  0  0  0  0
    5.6819   -3.1026    2.4452 H   0  0  0  0  0  0  0  0  0  0  0  0
    4.9092   -4.5840    3.0814 H   0  0  0  0  0  0  0  0  0  0  0  0
  1  7  1  0  0  0  0
  2  8  1  0  0  0  0
  2  1  2  0  0  0  0
  3  2  1  0  0  0  0
  4  3  2  0  0  0  0
  4  5  1  0  0  0  0
  5  6  2  0  0  0  0
  6  1  1  0  0  0  0
  6 31  1  0  0  0  0
  9  4  1  0  0  0  0
 10  5  1  0  0  0  0
 12 11  3  0  0  0  0
 13 14  2  0  0  0  0
 14 20  1  0  0  0  0
 15 14  1  0  0  0  0
 15 27  1  0  0  0  0
 16 15  2  0  0  0  0
 17 18  2  0  0  0  0
 17 16  1  0  0  0  0
 18 13  1  0  0  0  0
 19 13  1  0  0  0  0
 21 16  1  0  0  0  0
 22 17  1  0  0  0  0
 23 26  2  0  0  0  0
 23 24  1  0  0  0  0
 23 18  1  0  0  0  0
 24  3  1  0  0  0  0
 25 23  2  0  0  0  0
 27 28  1  0  0  0  0
 27 30  1  0  0  0  0
 29 27  1  0  0  0  0
 31 32  1  0  0  0  0
 32 33  1  0  0  0  0
 32 35  1  0  0  0  0
 34 32  1  0  0  0  0
M  END
