Coordinates from ORCA-job 4-MeO-Ph-N2-OTs-B3LYPG-6-31G_dp-MTMO-d009-169-n800
 OpenBabel09051908173D

 35 35  0  0  0  0  0  0  0  0999 V2000
    3.0369   -3.9671    0.7820 C   0  0  0  0  0  0  0  0  0  0  0  0
    1.8872   -3.8704   -0.0069 C   0  0  0  0  0  0  0  0  0  0  0  0
    1.9419   -4.1912   -1.3588 C   0  0  0  0  0  0  0  0  0  0  0  0
    3.1383   -4.6160   -1.9453 C   0  0  0  0  0  0  0  0  0  0  0  0
    4.2786   -4.7233   -1.1606 C   0  0  0  0  0  0  0  0  0  0  0  0
    4.2380   -4.3984    0.2052 C   0  0  0  0  0  0  0  0  0  0  0  0
    2.9817   -3.7026    1.8308 H   0  0  0  0  0  0  0  0  0  0  0  0
    0.9497   -3.5326    0.4216 H   0  0  0  0  0  0  0  0  0  0  0  0
    3.1605   -4.8632   -2.9996 H   0  0  0  0  0  0  0  0  0  0  0  0
    5.2209   -5.0513   -1.5861 H   0  0  0  0  0  0  0  0  0  0  0  0
   -4.0645   -3.4841   -3.5918 N   0  0  0  0  0  0  0  0  0  0  0  0
   -4.0135   -3.1799   -4.6528 N   0  0  0  0  0  0  0  0  0  0  0  0
   -0.2530   -6.9734   -0.5411 C   0  0  0  0  0  0  0  0  0  0  0  0
   -0.9028   -7.4634    0.5903 C   0  0  0  0  0  0  0  0  0  0  0  0
   -2.1446   -6.9523    0.9930 C   0  0  0  0  0  0  0  0  0  0  0  0
   -2.7323   -5.9354    0.2243 C   0  0  0  0  0  0  0  0  0  0  0  0
   -2.1008   -5.4303   -0.9090 C   0  0  0  0  0  0  0  0  0  0  0  0
   -0.8603   -5.9564   -1.2796 C   0  0  0  0  0  0  0  0  0  0  0  0
    0.6978   -7.3815   -0.8626 H   0  0  0  0  0  0  0  0  0  0  0  0
   -0.4408   -8.2616    1.1651 H   0  0  0  0  0  0  0  0  0  0  0  0
   -3.7027   -5.5409    0.5120 H   0  0  0  0  0  0  0  0  0  0  0  0
   -2.5683   -4.6595   -1.5120 H   0  0  0  0  0  0  0  0  0  0  0  0
   -0.0404   -5.3143   -2.7264 S   0  0  0  0  0  0  0  0  0  0  0  0
    0.7913   -3.9928   -2.1335 O   0  0  0  0  0  0  0  0  0  0  0  0
   -1.0225   -4.7093   -3.6143 O   0  0  0  0  0  0  0  0  0  0  0  0
    0.9257   -6.3034   -3.1964 O   0  0  0  0  0  0  0  0  0  0  0  0
   -2.8290   -7.4719    2.2341 C   0  0  0  0  0  0  0  0  0  0  0  0
   -2.5958   -6.8417    3.1014 H   0  0  0  0  0  0  0  0  0  0  0  0
   -3.9173   -7.4759    2.1191 H   0  0  0  0  0  0  0  0  0  0  0  0
   -2.5062   -8.4886    2.4726 H   0  0  0  0  0  0  0  0  0  0  0  0
    5.4170   -4.5316    0.8783 O   0  0  0  0  0  0  0  0  0  0  0  0
    5.4435   -4.2049    2.2585 C   0  0  0  0  0  0  0  0  0  0  0  0
    6.4694   -4.3747    2.5887 H   0  0  0  0  0  0  0  0  0  0  0  0
    5.1784   -3.1538    2.4311 H   0  0  0  0  0  0  0  0  0  0  0  0
    4.7678   -4.8451    2.8398 H   0  0  0  0  0  0  0  0  0  0  0  0
  1  7  1  0  0  0  0
  2  8  1  0  0  0  0
  2  1  2  0  0  0  0
  3  2  1  0  0  0  0
  4  3  2  0  0  0  0
  4  5  1  0  0  0  0
  5  6  2  0  0  0  0
  6  1  1  0  0  0  0
  6 31  1  0  0  0  0
  9  4  1  0  0  0  0
 10  5  1  0  0  0  0
 12 11  3  0  0  0  0
 13 14  2  0  0  0  0
 14 15  1  0  0  0  0
 14 20  1  0  0  0  0
 15 27  1  0  0  0  0
 16 21  1  0  0  0  0
 16 15  2  0  0  0  0
 17 16  1  0  0  0  0
 18 17  2  0  0  0  0
 18 13  1  0  0  0  0
 19 13  1  0  0  0  0
 22 17  1  0  0  0  0
 23 24  1  0  0  0  0
 23 18  1  0  0  0  0
 24  3  1  0  0  0  0
 25 23  2  0  0  0  0
 26 23  2  0  0  0  0
 27 30  1  0  0  0  0
 27 28  1  0  0  0  0
 29 27  1  0  0  0  0
 31 32  1  0  0  0  0
 32 34  1  0  0  0  0
 32 33  1  0  0  0  0
 32 35  1  0  0  0  0
M  END
