Coordinates from ORCA-job 4-MeO-Ph-N2-OTs-B3LYPG-6-31G_dp-MTMO-d009-169-n800
 OpenBabel09051908173D

 35 35  0  0  0  0  0  0  0  0999 V2000
    3.6482   -3.9735    0.6172 C   0  0  0  0  0  0  0  0  0  0  0  0
    2.6808   -3.8765   -0.3872 C   0  0  0  0  0  0  0  0  0  0  0  0
    2.8874   -4.4973   -1.6141 C   0  0  0  0  0  0  0  0  0  0  0  0
    4.0554   -5.2260   -1.8590 C   0  0  0  0  0  0  0  0  0  0  0  0
    5.0135   -5.3305   -0.8602 C   0  0  0  0  0  0  0  0  0  0  0  0
    4.8187   -4.7052    0.3824 C   0  0  0  0  0  0  0  0  0  0  0  0
    3.4779   -3.4779    1.5651 H   0  0  0  0  0  0  0  0  0  0  0  0
    1.7705   -3.3091   -0.2247 H   0  0  0  0  0  0  0  0  0  0  0  0
    4.1962   -5.7041   -2.8207 H   0  0  0  0  0  0  0  0  0  0  0  0
    5.9304   -5.8876   -1.0201 H   0  0  0  0  0  0  0  0  0  0  0  0
  -11.0802   -8.5501    0.3609 N   0  0  0  0  0  0  0  0  0  0  0  0
  -12.0264   -9.0708    0.1260 N   0  0  0  0  0  0  0  0  0  0  0  0
   -0.0653   -6.4980   -0.6706 C   0  0  0  0  0  0  0  0  0  0  0  0
   -0.9965   -6.5080    0.3678 C   0  0  0  0  0  0  0  0  0  0  0  0
   -2.1015   -5.6469    0.3604 C   0  0  0  0  0  0  0  0  0  0  0  0
   -2.2567   -4.7641   -0.7209 C   0  0  0  0  0  0  0  0  0  0  0  0
   -1.3399   -4.7379   -1.7669 C   0  0  0  0  0  0  0  0  0  0  0  0
   -0.2474   -5.6093   -1.7300 C   0  0  0  0  0  0  0  0  0  0  0  0
    0.7818   -7.1748   -0.6713 H   0  0  0  0  0  0  0  0  0  0  0  0
   -0.8628   -7.2001    1.1952 H   0  0  0  0  0  0  0  0  0  0  0  0
   -3.1116   -4.0931   -0.7451 H   0  0  0  0  0  0  0  0  0  0  0  0
   -1.4685   -4.0669   -2.6095 H   0  0  0  0  0  0  0  0  0  0  0  0
    0.9381   -5.5693   -3.0616 S   0  0  0  0  0  0  0  0  0  0  0  0
    1.9402   -4.3052   -2.6278 O   0  0  0  0  0  0  0  0  0  0  0  0
    0.2927   -5.0755   -4.2687 O   0  0  0  0  0  0  0  0  0  0  0  0
    1.7097   -6.8089   -3.0419 O   0  0  0  0  0  0  0  0  0  0  0  0
   -3.1213   -5.6794    1.4728 C   0  0  0  0  0  0  0  0  0  0  0  0
   -3.3972   -4.6692    1.7909 H   0  0  0  0  0  0  0  0  0  0  0  0
   -4.0422   -6.1759    1.1442 H   0  0  0  0  0  0  0  0  0  0  0  0
   -2.7470   -6.2210    2.3453 H   0  0  0  0  0  0  0  0  0  0  0  0
    5.8266   -4.8672    1.2873 O   0  0  0  0  0  0  0  0  0  0  0  0
    5.6931   -4.2548    2.5598 C   0  0  0  0  0  0  0  0  0  0  0  0
    6.5998   -4.5073    3.1123 H   0  0  0  0  0  0  0  0  0  0  0  0
    5.6124   -3.1631    2.4782 H   0  0  0  0  0  0  0  0  0  0  0  0
    4.8210   -4.6387    3.1052 H   0  0  0  0  0  0  0  0  0  0  0  0
  1  7  1  0  0  0  0
  2  8  1  0  0  0  0
  2  1  2  0  0  0  0
  3  2  1  0  0  0  0
  4  3  2  0  0  0  0
  4  5  1  0  0  0  0
  5  6  2  0  0  0  0
  6  1  1  0  0  0  0
  6 31  1  0  0  0  0
  9  4  1  0  0  0  0
 10  5  1  0  0  0  0
 12 11  3  0  0  0  0
 13 14  2  0  0  0  0
 14 20  1  0  0  0  0
 15 14  1  0  0  0  0
 15 27  1  0  0  0  0
 16 15  2  0  0  0  0
 17 18  2  0  0  0  0
 17 16  1  0  0  0  0
 18 13  1  0  0  0  0
 19 13  1  0  0  0  0
 21 16  1  0  0  0  0
 22 17  1  0  0  0  0
 23 26  2  0  0  0  0
 23 24  1  0  0  0  0
 23 18  1  0  0  0  0
 24  3  1  0  0  0  0
 25 23  2  0  0  0  0
 27 28  1  0  0  0  0
 27 30  1  0  0  0  0
 29 27  1  0  0  0  0
 31 32  1  0  0  0  0
 32 35  1  0  0  0  0
 32 33  1  0  0  0  0
 34 32  1  0  0  0  0
M  END
