Coordinates from ORCA-job 4-MeO-Ph-N2-OTs-B3LYPG-6-31G_dp-MTMO-d009-169-n800
 OpenBabel09051908173D

 35 35  0  0  0  0  0  0  0  0999 V2000
    3.1074   -3.8981    0.6889 C   0  0  0  0  0  0  0  0  0  0  0  0
    2.1615   -3.9115   -0.3400 C   0  0  0  0  0  0  0  0  0  0  0  0
    2.4853   -4.4607   -1.5757 C   0  0  0  0  0  0  0  0  0  0  0  0
    3.7522   -5.0063   -1.8055 C   0  0  0  0  0  0  0  0  0  0  0  0
    4.6898   -5.0028   -0.7819 C   0  0  0  0  0  0  0  0  0  0  0  0
    4.3762   -4.4488    0.4701 C   0  0  0  0  0  0  0  0  0  0  0  0
    2.8438   -3.4596    1.6435 H   0  0  0  0  0  0  0  0  0  0  0  0
    1.1758   -3.4846   -0.1899 H   0  0  0  0  0  0  0  0  0  0  0  0
    3.9851   -5.4302   -2.7746 H   0  0  0  0  0  0  0  0  0  0  0  0
    5.6802   -5.4196   -0.9291 H   0  0  0  0  0  0  0  0  0  0  0  0
   -6.3655   -4.3720    0.3111 N   0  0  0  0  0  0  0  0  0  0  0  0
   -7.3274   -3.8518    0.4711 N   0  0  0  0  0  0  0  0  0  0  0  0
   -0.0470   -6.9655   -0.7800 C   0  0  0  0  0  0  0  0  0  0  0  0
   -0.9624   -7.2029    0.2419 C   0  0  0  0  0  0  0  0  0  0  0  0
   -2.2190   -6.5774    0.2527 C   0  0  0  0  0  0  0  0  0  0  0  0
   -2.5412   -5.7026   -0.7948 C   0  0  0  0  0  0  0  0  0  0  0  0
   -1.6385   -5.4497   -1.8267 C   0  0  0  0  0  0  0  0  0  0  0  0
   -0.3960   -6.0854   -1.8079 C   0  0  0  0  0  0  0  0  0  0  0  0
    0.9160   -7.4625   -0.7976 H   0  0  0  0  0  0  0  0  0  0  0  0
   -0.6995   -7.8906    1.0418 H   0  0  0  0  0  0  0  0  0  0  0  0
   -3.5142   -5.2198   -0.8058 H   0  0  0  0  0  0  0  0  0  0  0  0
   -1.8945   -4.7857   -2.6453 H   0  0  0  0  0  0  0  0  0  0  0  0
    0.7644   -5.7640   -3.1225 S   0  0  0  0  0  0  0  0  0  0  0  0
    1.5427   -4.3772   -2.6083 O   0  0  0  0  0  0  0  0  0  0  0  0
    0.0457   -5.3150   -4.3054 O   0  0  0  0  0  0  0  0  0  0  0  0
    1.7340   -6.8553   -3.1686 O   0  0  0  0  0  0  0  0  0  0  0  0
   -3.1996   -6.8495    1.3681 C   0  0  0  0  0  0  0  0  0  0  0  0
   -2.7910   -6.5387    2.3365 H   0  0  0  0  0  0  0  0  0  0  0  0
   -4.1400   -6.3157    1.2135 H   0  0  0  0  0  0  0  0  0  0  0  0
   -3.4254   -7.9188    1.4432 H   0  0  0  0  0  0  0  0  0  0  0  0
    5.3730   -4.4934    1.4004 O   0  0  0  0  0  0  0  0  0  0  0  0
    5.1232   -3.9368    2.6810 C   0  0  0  0  0  0  0  0  0  0  0  0
    6.0410   -4.0772    3.2547 H   0  0  0  0  0  0  0  0  0  0  0  0
    4.8965   -2.8646    2.6198 H   0  0  0  0  0  0  0  0  0  0  0  0
    4.2975   -4.4488    3.1920 H   0  0  0  0  0  0  0  0  0  0  0  0
  1  7  1  0  0  0  0
  2  8  1  0  0  0  0
  2  1  2  0  0  0  0
  3  2  1  0  0  0  0
  4  3  2  0  0  0  0
  4  5  1  0  0  0  0
  5  6  2  0  0  0  0
  6  1  1  0  0  0  0
  6 31  1  0  0  0  0
  9  4  1  0  0  0  0
 10  5  1  0  0  0  0
 11 12  3  0  0  0  0
 13 14  2  0  0  0  0
 14 15  1  0  0  0  0
 14 20  1  0  0  0  0
 15 27  1  0  0  0  0
 16 15  2  0  0  0  0
 17 18  2  0  0  0  0
 17 16  1  0  0  0  0
 18 13  1  0  0  0  0
 19 13  1  0  0  0  0
 21 16  1  0  0  0  0
 22 17  1  0  0  0  0
 23 24  1  0  0  0  0
 23 18  1  0  0  0  0
 24  3  1  0  0  0  0
 25 23  2  0  0  0  0
 26 23  2  0  0  0  0
 27 30  1  0  0  0  0
 27 28  1  0  0  0  0
 29 27  1  0  0  0  0
 31 32  1  0  0  0  0
 32 35  1  0  0  0  0
 32 33  1  0  0  0  0
 34 32  1  0  0  0  0
M  END
