Coordinates from ORCA-job 4-MeO-Ph-N2-OTs-B3LYPG-6-31G_dp-MTMO-d009-169-n800
 OpenBabel09051908173D

 35 34  0  0  0  0  0  0  0  0999 V2000
    4.0096   -2.8128    0.4152 C   0  0  0  0  0  0  0  0  0  0  0  0
    2.7836   -2.3044   -0.0719 C   0  0  0  0  0  0  0  0  0  0  0  0
    2.1616   -3.3086   -0.7580 C   0  0  0  0  0  0  0  0  0  0  0  0
    2.4252   -4.5061   -1.0439 C   0  0  0  0  0  0  0  0  0  0  0  0
    3.6262   -5.0497   -0.5847 C   0  0  0  0  0  0  0  0  0  0  0  0
    4.4212   -4.1459    0.1668 C   0  0  0  0  0  0  0  0  0  0  0  0
    4.6390   -2.1462    0.9933 H   0  0  0  0  0  0  0  0  0  0  0  0
    2.4406   -1.2926    0.0967 H   0  0  0  0  0  0  0  0  0  0  0  0
    1.0819   -5.3622   -2.2092 H   0  0  0  0  0  0  0  0  0  0  0  0
    3.9774   -6.0607   -0.7590 H   0  0  0  0  0  0  0  0  0  0  0  0
    0.0019   -1.0119   -1.5992 N   0  0  0  0  0  0  0  0  0  0  0  0
   -0.8322   -0.7067   -2.2563 N   0  0  0  0  0  0  0  0  0  0  0  0
   -1.6907   -5.8502    0.0336 C   0  0  0  0  0  0  0  0  0  0  0  0
   -2.2067   -6.6481    1.0536 C   0  0  0  0  0  0  0  0  0  0  0  0
   -2.7458   -7.9133    0.7831 C   0  0  0  0  0  0  0  0  0  0  0  0
   -2.7672   -8.3603   -0.5469 C   0  0  0  0  0  0  0  0  0  0  0  0
   -2.2588   -7.5768   -1.5794 C   0  0  0  0  0  0  0  0  0  0  0  0
   -1.7180   -6.3252   -1.2776 C   0  0  0  0  0  0  0  0  0  0  0  0
   -1.2873   -4.8659    0.2425 H   0  0  0  0  0  0  0  0  0  0  0  0
   -2.1963   -6.2785    2.0757 H   0  0  0  0  0  0  0  0  0  0  0  0
   -3.1941   -9.3324   -0.7775 H   0  0  0  0  0  0  0  0  0  0  0  0
   -2.2935   -7.9163   -2.6090 H   0  0  0  0  0  0  0  0  0  0  0  0
   -1.0503   -5.3207   -2.5959 S   0  0  0  0  0  0  0  0  0  0  0  0
   -0.9586   -3.9373   -2.1221 O   0  0  0  0  0  0  0  0  0  0  0  0
   -1.7428   -5.6606   -3.8308 O   0  0  0  0  0  0  0  0  0  0  0  0
    0.4591   -5.8982   -2.7653 O   0  0  0  0  0  0  0  0  0  0  0  0
   -3.2755   -8.7842    1.8966 C   0  0  0  0  0  0  0  0  0  0  0  0
   -4.1286   -9.3835    1.5647 H   0  0  0  0  0  0  0  0  0  0  0  0
   -2.5053   -9.4827    2.2470 H   0  0  0  0  0  0  0  0  0  0  0  0
   -3.5919   -8.1879    2.7568 H   0  0  0  0  0  0  0  0  0  0  0  0
    5.5966   -4.6672    0.6190 O   0  0  0  0  0  0  0  0  0  0  0  0
    6.4791   -3.8361    1.3576 C   0  0  0  0  0  0  0  0  0  0  0  0
    7.3426   -4.4562    1.6018 H   0  0  0  0  0  0  0  0  0  0  0  0
    6.8107   -2.9732    0.7659 H   0  0  0  0  0  0  0  0  0  0  0  0
    6.0168   -3.4807    2.2874 H   0  0  0  0  0  0  0  0  0  0  0  0
  1  7  1  0  0  0  0
  2  8  1  0  0  0  0
  2  1  2  0  0  0  0
  3  2  1  0  0  0  0
  4  3  2  0  0  0  0
  4  5  1  0  0  0  0
  5  6  2  0  0  0  0
  6  1  1  0  0  0  0
  6 31  1  0  0  0  0
 10  5  1  0  0  0  0
 12 11  3  0  0  0  0
 13 19  1  0  0  0  0
 13 14  2  0  0  0  0
 14 20  1  0  0  0  0
 15 14  1  0  0  0  0
 15 27  1  0  0  0  0
 16 15  2  0  0  0  0
 17 18  2  0  0  0  0
 17 16  1  0  0  0  0
 18 13  1  0  0  0  0
 21 16  1  0  0  0  0
 22 17  1  0  0  0  0
 23 24  2  0  0  0  0
 23 18  1  0  0  0  0
 25 23  2  0  0  0  0
 26 23  1  0  0  0  0
 26  9  1  0  0  0  0
 27 29  1  0  0  0  0
 27 30  1  0  0  0  0
 28 27  1  0  0  0  0
 31 32  1  0  0  0  0
 32 33  1  0  0  0  0
 32 35  1  0  0  0  0
 34 32  1  0  0  0  0
M  RAD  2   3   2   4   2
M  END
