Coordinates from ORCA-job 4-MeO-Ph-N2-OTs-B3LYPG-6-31G_dp-MTMO-d009-169-n800
 OpenBabel09051908173D

 35 34  0  0  0  0  0  0  0  0999 V2000
    4.0404   -2.6598    0.2653 C   0  0  0  0  0  0  0  0  0  0  0  0
    3.1029   -1.8811   -0.4440 C   0  0  0  0  0  0  0  0  0  0  0  0
    2.2602   -2.7211   -1.1085 C   0  0  0  0  0  0  0  0  0  0  0  0
    2.0957   -3.9769   -1.2522 C   0  0  0  0  0  0  0  0  0  0  0  0
    3.0285   -4.7594   -0.5504 C   0  0  0  0  0  0  0  0  0  0  0  0
    4.0031   -4.0732    0.2126 C   0  0  0  0  0  0  0  0  0  0  0  0
    4.7936   -2.1465    0.8509 H   0  0  0  0  0  0  0  0  0  0  0  0
    3.0890   -0.7984   -0.4382 H   0  0  0  0  0  0  0  0  0  0  0  0
    0.8403   -4.8511   -2.2405 H   0  0  0  0  0  0  0  0  0  0  0  0
    3.0391   -5.8455   -0.5629 H   0  0  0  0  0  0  0  0  0  0  0  0
    0.8720   -1.3971   -2.2290 N   0  0  0  0  0  0  0  0  0  0  0  0
    0.0828   -1.3211   -3.0001 N   0  0  0  0  0  0  0  0  0  0  0  0
   -1.6053   -5.8584    0.1622 C   0  0  0  0  0  0  0  0  0  0  0  0
   -1.9375   -6.7773    1.1554 C   0  0  0  0  0  0  0  0  0  0  0  0
   -2.4176   -8.0545    0.8316 C   0  0  0  0  0  0  0  0  0  0  0  0
   -2.5687   -8.3878   -0.5221 C   0  0  0  0  0  0  0  0  0  0  0  0
   -2.2417   -7.4821   -1.5290 C   0  0  0  0  0  0  0  0  0  0  0  0
   -1.7566   -6.2220   -1.1767 C   0  0  0  0  0  0  0  0  0  0  0  0
   -1.2507   -4.8653    0.4144 H   0  0  0  0  0  0  0  0  0  0  0  0
   -1.8287   -6.4956    2.1997 H   0  0  0  0  0  0  0  0  0  0  0  0
   -2.9545   -9.3671   -0.7917 H   0  0  0  0  0  0  0  0  0  0  0  0
   -2.3761   -7.7342   -2.5752 H   0  0  0  0  0  0  0  0  0  0  0  0
   -1.3198   -5.0596   -2.4635 S   0  0  0  0  0  0  0  0  0  0  0  0
   -1.3580   -3.7098   -1.8914 O   0  0  0  0  0  0  0  0  0  0  0  0
   -2.0791   -5.3959   -3.6613 O   0  0  0  0  0  0  0  0  0  0  0  0
    0.2197   -5.4300   -2.7860 O   0  0  0  0  0  0  0  0  0  0  0  0
   -2.7469   -9.0525    1.9160 C   0  0  0  0  0  0  0  0  0  0  0  0
   -3.5032   -9.7699    1.5845 H   0  0  0  0  0  0  0  0  0  0  0  0
   -1.8571   -9.6260    2.2043 H   0  0  0  0  0  0  0  0  0  0  0  0
   -3.1189   -8.5569    2.8173 H   0  0  0  0  0  0  0  0  0  0  0  0
    4.8812   -4.8750    0.8772 O   0  0  0  0  0  0  0  0  0  0  0  0
    5.8965   -4.2752    1.6668 C   0  0  0  0  0  0  0  0  0  0  0  0
    6.4659   -5.0981    2.1005 H   0  0  0  0  0  0  0  0  0  0  0  0
    6.5666   -3.6535    1.0592 H   0  0  0  0  0  0  0  0  0  0  0  0
    5.4728   -3.6654    2.4754 H   0  0  0  0  0  0  0  0  0  0  0  0
  1  7  1  0  0  0  0
  2  8  1  0  0  0  0
  2  1  2  0  0  0  0
  3  2  1  0  0  0  0
  4  3  2  0  0  0  0
  4  5  1  0  0  0  0
  5  6  2  0  0  0  0
  6  1  1  0  0  0  0
  6 31  1  0  0  0  0
 10  5  1  0  0  0  0
 12 11  3  0  0  0  0
 13 19  1  0  0  0  0
 13 14  2  0  0  0  0
 14 20  1  0  0  0  0
 15 14  1  0  0  0  0
 15 27  1  0  0  0  0
 16 15  2  0  0  0  0
 17 18  2  0  0  0  0
 17 16  1  0  0  0  0
 18 13  1  0  0  0  0
 21 16  1  0  0  0  0
 22 17  1  0  0  0  0
 23 24  2  0  0  0  0
 23 18  1  0  0  0  0
 25 23  2  0  0  0  0
 26 23  1  0  0  0  0
 26  9  1  0  0  0  0
 27 29  1  0  0  0  0
 27 30  1  0  0  0  0
 28 27  1  0  0  0  0
 31 32  1  0  0  0  0
 32 33  1  0  0  0  0
 32 35  1  0  0  0  0
 34 32  1  0  0  0  0
M  RAD  2   3   2   4   2
M  END
