Coordinates from ORCA-job 4-MeO-Ph-N2-OTs-B3LYPG-6-31G_dp-MTMO-d009-169-n800
 OpenBabel09051908173D

 35 35  0  0  0  0  0  0  0  0999 V2000
    2.9148   -3.9158    0.6860 C   0  0  0  0  0  0  0  0  0  0  0  0
    1.7716   -3.9037   -0.1181 C   0  0  0  0  0  0  0  0  0  0  0  0
    1.8548   -4.2881   -1.4518 C   0  0  0  0  0  0  0  0  0  0  0  0
    3.0736   -4.6939   -2.0045 C   0  0  0  0  0  0  0  0  0  0  0  0
    4.2080   -4.7169   -1.2047 C   0  0  0  0  0  0  0  0  0  0  0  0
    4.1385   -4.3270    0.1430 C   0  0  0  0  0  0  0  0  0  0  0  0
    2.8370   -3.6031    1.7199 H   0  0  0  0  0  0  0  0  0  0  0  0
    0.8167   -3.5831    0.2842 H   0  0  0  0  0  0  0  0  0  0  0  0
    3.1173   -4.9918   -3.0449 H   0  0  0  0  0  0  0  0  0  0  0  0
    5.1673   -5.0281   -1.6039 H   0  0  0  0  0  0  0  0  0  0  0  0
   -3.2727   -2.7558   -3.1871 N   0  0  0  0  0  0  0  0  0  0  0  0
   -3.0624   -2.2319   -4.1368 N   0  0  0  0  0  0  0  0  0  0  0  0
   -0.2765   -7.1545   -0.5363 C   0  0  0  0  0  0  0  0  0  0  0  0
   -0.9165   -7.6011    0.6195 C   0  0  0  0  0  0  0  0  0  0  0  0
   -2.1387   -7.0532    1.0301 C   0  0  0  0  0  0  0  0  0  0  0  0
   -2.7174   -6.0411    0.2465 C   0  0  0  0  0  0  0  0  0  0  0  0
   -2.0972   -5.5809   -0.9106 C   0  0  0  0  0  0  0  0  0  0  0  0
   -0.8752   -6.1451   -1.2900 C   0  0  0  0  0  0  0  0  0  0  0  0
    0.6612   -7.5884   -0.8625 H   0  0  0  0  0  0  0  0  0  0  0  0
   -0.4607   -8.3931    1.2076 H   0  0  0  0  0  0  0  0  0  0  0  0
   -3.6718   -5.6152    0.5435 H   0  0  0  0  0  0  0  0  0  0  0  0
   -2.5551   -4.8106   -1.5219 H   0  0  0  0  0  0  0  0  0  0  0  0
   -0.0691   -5.5590   -2.7684 S   0  0  0  0  0  0  0  0  0  0  0  0
    0.7080   -4.1752   -2.2484 O   0  0  0  0  0  0  0  0  0  0  0  0
   -1.0652   -5.0412   -3.6952 O   0  0  0  0  0  0  0  0  0  0  0  0
    0.9348   -6.5380   -3.1757 O   0  0  0  0  0  0  0  0  0  0  0  0
   -2.8203   -7.5284    2.2902 C   0  0  0  0  0  0  0  0  0  0  0  0
   -2.7409   -6.7776    3.0864 H   0  0  0  0  0  0  0  0  0  0  0  0
   -3.8872   -7.7075    2.1221 H   0  0  0  0  0  0  0  0  0  0  0  0
   -2.3747   -8.4540    2.6620 H   0  0  0  0  0  0  0  0  0  0  0  0
    5.3142   -4.3802    0.8328 O   0  0  0  0  0  0  0  0  0  0  0  0
    5.3125   -3.9886    2.1962 C   0  0  0  0  0  0  0  0  0  0  0  0
    6.3402   -4.1033    2.5441 H   0  0  0  0  0  0  0  0  0  0  0  0
    5.0063   -2.9414    2.3169 H   0  0  0  0  0  0  0  0  0  0  0  0
    4.6548   -4.6264    2.8005 H   0  0  0  0  0  0  0  0  0  0  0  0
  1  7  1  0  0  0  0
  2  8  1  0  0  0  0
  2  1  2  0  0  0  0
  3  2  1  0  0  0  0
  4  3  2  0  0  0  0
  4  5  1  0  0  0  0
  5  6  2  0  0  0  0
  6  1  1  0  0  0  0
  6 31  1  0  0  0  0
  9  4  1  0  0  0  0
 10  5  1  0  0  0  0
 12 11  3  0  0  0  0
 13 14  2  0  0  0  0
 14 15  1  0  0  0  0
 14 20  1  0  0  0  0
 15 27  1  0  0  0  0
 16 21  1  0  0  0  0
 16 15  2  0  0  0  0
 17 16  1  0  0  0  0
 18 17  2  0  0  0  0
 18 13  1  0  0  0  0
 19 13  1  0  0  0  0
 22 17  1  0  0  0  0
 23 24  1  0  0  0  0
 23 18  1  0  0  0  0
 24  3  1  0  0  0  0
 25 23  2  0  0  0  0
 26 23  2  0  0  0  0
 27 30  1  0  0  0  0
 27 28  1  0  0  0  0
 29 27  1  0  0  0  0
 31 32  1  0  0  0  0
 32 34  1  0  0  0  0
 32 33  1  0  0  0  0
 32 35  1  0  0  0  0
M  END
