Coordinates from ORCA-job 4-MeO-Ph-N2-OTs-B3LYPG-6-31G_dp-MTMO-d009-169-n800
 OpenBabel09051908173D

 35 35  0  0  0  0  0  0  0  0999 V2000
    3.0562   -3.9771    0.7957 C   0  0  0  0  0  0  0  0  0  0  0  0
    1.9039   -3.8696    0.0120 C   0  0  0  0  0  0  0  0  0  0  0  0
    1.9532   -4.1756   -1.3435 C   0  0  0  0  0  0  0  0  0  0  0  0
    3.1468   -4.5960   -1.9388 C   0  0  0  0  0  0  0  0  0  0  0  0
    4.2897   -4.7140   -1.1596 C   0  0  0  0  0  0  0  0  0  0  0  0
    4.2544   -4.4042    0.2099 C   0  0  0  0  0  0  0  0  0  0  0  0
    3.0053   -3.7241    1.8476 H   0  0  0  0  0  0  0  0  0  0  0  0
    0.9686   -3.5347    0.4475 H   0  0  0  0  0  0  0  0  0  0  0  0
    3.1647   -4.8317   -2.9958 H   0  0  0  0  0  0  0  0  0  0  0  0
    5.2299   -5.0390   -1.5919 H   0  0  0  0  0  0  0  0  0  0  0  0
   -4.1660   -3.5898   -3.6541 N   0  0  0  0  0  0  0  0  0  0  0  0
   -4.1185   -3.3257   -4.7259 N   0  0  0  0  0  0  0  0  0  0  0  0
   -0.2532   -6.9494   -0.5377 C   0  0  0  0  0  0  0  0  0  0  0  0
   -0.9061   -7.4452    0.5894 C   0  0  0  0  0  0  0  0  0  0  0  0
   -2.1506   -6.9385    0.9894 C   0  0  0  0  0  0  0  0  0  0  0  0
   -2.7378   -5.9200    0.2226 C   0  0  0  0  0  0  0  0  0  0  0  0
   -2.1030   -5.4090   -0.9062 C   0  0  0  0  0  0  0  0  0  0  0  0
   -0.8599   -5.9306   -1.2743 C   0  0  0  0  0  0  0  0  0  0  0  0
    0.6996   -7.3544   -0.8573 H   0  0  0  0  0  0  0  0  0  0  0  0
   -0.4445   -8.2447    1.1626 H   0  0  0  0  0  0  0  0  0  0  0  0
   -3.7102   -5.5289    0.5080 H   0  0  0  0  0  0  0  0  0  0  0  0
   -2.5701   -4.6370   -1.5084 H   0  0  0  0  0  0  0  0  0  0  0  0
   -0.0368   -5.2807   -2.7157 S   0  0  0  0  0  0  0  0  0  0  0  0
    0.8004   -3.9669   -2.1126 O   0  0  0  0  0  0  0  0  0  0  0  0
   -1.0166   -4.6659   -3.5993 O   0  0  0  0  0  0  0  0  0  0  0  0
    0.9259   -6.2701   -3.1923 O   0  0  0  0  0  0  0  0  0  0  0  0
   -2.8384   -7.4646    2.2258 C   0  0  0  0  0  0  0  0  0  0  0  0
   -2.6102   -6.8372    3.0965 H   0  0  0  0  0  0  0  0  0  0  0  0
   -3.9263   -7.4710    2.1066 H   0  0  0  0  0  0  0  0  0  0  0  0
   -2.5140   -8.4814    2.4617 H   0  0  0  0  0  0  0  0  0  0  0  0
    5.4355   -4.5472    0.8774 O   0  0  0  0  0  0  0  0  0  0  0  0
    5.4672   -4.2368    2.2612 C   0  0  0  0  0  0  0  0  0  0  0  0
    6.4937   -4.4128    2.5862 H   0  0  0  0  0  0  0  0  0  0  0  0
    5.2050   -3.1872    2.4470 H   0  0  0  0  0  0  0  0  0  0  0  0
    4.7918   -4.8822    2.8371 H   0  0  0  0  0  0  0  0  0  0  0  0
  1  7  1  0  0  0  0
  2  8  1  0  0  0  0
  2  1  2  0  0  0  0
  3  2  1  0  0  0  0
  4  3  2  0  0  0  0
  4  5  1  0  0  0  0
  5  6  2  0  0  0  0
  6  1  1  0  0  0  0
  6 31  1  0  0  0  0
  9  4  1  0  0  0  0
 10  5  1  0  0  0  0
 12 11  3  0  0  0  0
 13 14  2  0  0  0  0
 14 15  1  0  0  0  0
 14 20  1  0  0  0  0
 15 27  1  0  0  0  0
 16 21  1  0  0  0  0
 16 15  2  0  0  0  0
 17 16  1  0  0  0  0
 18 17  2  0  0  0  0
 18 13  1  0  0  0  0
 19 13  1  0  0  0  0
 22 17  1  0  0  0  0
 23 24  1  0  0  0  0
 23 18  1  0  0  0  0
 24  3  1  0  0  0  0
 25 23  2  0  0  0  0
 26 23  2  0  0  0  0
 27 30  1  0  0  0  0
 27 28  1  0  0  0  0
 29 27  1  0  0  0  0
 31 32  1  0  0  0  0
 32 34  1  0  0  0  0
 32 33  1  0  0  0  0
 32 35  1  0  0  0  0
M  END
