Coordinates from ORCA-job 4-MeO-Ph-N2-OTs-B3LYPG-6-31G_dp-MTMO-d009-169-n800
 OpenBabel09051908173D

 35 34  0  0  0  0  0  0  0  0999 V2000
    3.9351   -2.7758    0.4564 C   0  0  0  0  0  0  0  0  0  0  0  0
    2.8382   -2.0672   -0.0842 C   0  0  0  0  0  0  0  0  0  0  0  0
    2.1296   -2.9313   -0.8665 C   0  0  0  0  0  0  0  0  0  0  0  0
    2.2105   -4.1457   -1.1984 C   0  0  0  0  0  0  0  0  0  0  0  0
    3.2868   -4.8773   -0.6844 C   0  0  0  0  0  0  0  0  0  0  0  0
    4.1553   -4.1442    0.1639 C   0  0  0  0  0  0  0  0  0  0  0  0
    4.6152   -2.2381    1.1067 H   0  0  0  0  0  0  0  0  0  0  0  0
    2.6381   -1.0225    0.1143 H   0  0  0  0  0  0  0  0  0  0  0  0
    0.9027   -5.0172   -2.3210 H   0  0  0  0  0  0  0  0  0  0  0  0
    3.4885   -5.9244   -0.8837 H   0  0  0  0  0  0  0  0  0  0  0  0
    0.3790   -1.1657   -1.9751 N   0  0  0  0  0  0  0  0  0  0  0  0
   -0.1810   -0.9273   -2.8973 N   0  0  0  0  0  0  0  0  0  0  0  0
   -1.6543   -5.7951    0.0440 C   0  0  0  0  0  0  0  0  0  0  0  0
   -2.0336   -6.6344    1.0896 C   0  0  0  0  0  0  0  0  0  0  0  0
   -2.4841   -7.9396    0.8460 C   0  0  0  0  0  0  0  0  0  0  0  0
   -2.5560   -8.3847   -0.4823 C   0  0  0  0  0  0  0  0  0  0  0  0
   -2.1819   -7.5602   -1.5407 C   0  0  0  0  0  0  0  0  0  0  0  0
   -1.7283   -6.2689   -1.2665 C   0  0  0  0  0  0  0  0  0  0  0  0
   -1.3227   -4.7803    0.2328 H   0  0  0  0  0  0  0  0  0  0  0  0
   -1.9864   -6.2666    2.1114 H   0  0  0  0  0  0  0  0  0  0  0  0
   -2.9177   -9.3877   -0.6910 H   0  0  0  0  0  0  0  0  0  0  0  0
   -2.2563   -7.8992   -2.5683 H   0  0  0  0  0  0  0  0  0  0  0  0
   -1.2396   -5.2064   -2.6181 S   0  0  0  0  0  0  0  0  0  0  0  0
   -1.2816   -3.8191   -2.1495 O   0  0  0  0  0  0  0  0  0  0  0  0
   -1.9493   -5.6303   -3.8170 O   0  0  0  0  0  0  0  0  0  0  0  0
    0.3144   -5.6102   -2.8617 O   0  0  0  0  0  0  0  0  0  0  0  0
   -2.8670   -8.8500    1.9880 C   0  0  0  0  0  0  0  0  0  0  0  0
   -3.6284   -9.5746    1.6849 H   0  0  0  0  0  0  0  0  0  0  0  0
   -1.9987   -9.4190    2.3432 H   0  0  0  0  0  0  0  0  0  0  0  0
   -3.2545   -8.2836    2.8395 H   0  0  0  0  0  0  0  0  0  0  0  0
    5.2002   -4.8619    0.6636 O   0  0  0  0  0  0  0  0  0  0  0  0
    6.1250   -4.2199    1.5277 C   0  0  0  0  0  0  0  0  0  0  0  0
    6.8618   -4.9780    1.7968 H   0  0  0  0  0  0  0  0  0  0  0  0
    6.6329   -3.3851    1.0278 H   0  0  0  0  0  0  0  0  0  0  0  0
    5.6376   -3.8518    2.4398 H   0  0  0  0  0  0  0  0  0  0  0  0
  1  7  1  0  0  0  0
  2  8  1  0  0  0  0
  2  1  2  0  0  0  0
  3  2  1  0  0  0  0
  4  3  2  0  0  0  0
  4  5  1  0  0  0  0
  5  6  2  0  0  0  0
  6  1  1  0  0  0  0
  6 31  1  0  0  0  0
 10  5  1  0  0  0  0
 12 11  3  0  0  0  0
 13 19  1  0  0  0  0
 13 14  2  0  0  0  0
 14 20  1  0  0  0  0
 15 14  1  0  0  0  0
 15 27  1  0  0  0  0
 16 15  2  0  0  0  0
 17 18  2  0  0  0  0
 17 16  1  0  0  0  0
 18 13  1  0  0  0  0
 21 16  1  0  0  0  0
 22 17  1  0  0  0  0
 23 24  2  0  0  0  0
 23 18  1  0  0  0  0
 25 23  2  0  0  0  0
 26 23  1  0  0  0  0
 26  9  1  0  0  0  0
 27 29  1  0  0  0  0
 27 30  1  0  0  0  0
 28 27  1  0  0  0  0
 31 32  1  0  0  0  0
 32 33  1  0  0  0  0
 32 35  1  0  0  0  0
 34 32  1  0  0  0  0
M  RAD  2   3   2   4   2
M  END
