Coordinates from ORCA-job 4-MeO-Ph-N2-OTs-B3LYPG-6-31G_dp-MTMO-d009-169-n800
 OpenBabel09051908173D

 35 35  0  0  0  0  0  0  0  0999 V2000
    2.9971   -3.9512    0.7523 C   0  0  0  0  0  0  0  0  0  0  0  0
    1.8498   -3.8829   -0.0430 C   0  0  0  0  0  0  0  0  0  0  0  0
    1.9148   -4.2253   -1.3892 C   0  0  0  0  0  0  0  0  0  0  0  0
    3.1193   -4.6439   -1.9633 C   0  0  0  0  0  0  0  0  0  0  0  0
    4.2574   -4.7229   -1.1723 C   0  0  0  0  0  0  0  0  0  0  0  0
    4.2064   -4.3759    0.1878 C   0  0  0  0  0  0  0  0  0  0  0  0
    2.9337   -3.6703    1.7963 H   0  0  0  0  0  0  0  0  0  0  0  0
    0.9060   -3.5507    0.3758 H   0  0  0  0  0  0  0  0  0  0  0  0
    3.1493   -4.9083   -3.0132 H   0  0  0  0  0  0  0  0  0  0  0  0
    5.2059   -5.0454   -1.5881 H   0  0  0  0  0  0  0  0  0  0  0  0
   -3.8360   -3.2085   -3.4908 N   0  0  0  0  0  0  0  0  0  0  0  0
   -3.7518   -2.8362   -4.5276 N   0  0  0  0  0  0  0  0  0  0  0  0
   -0.2569   -7.0353   -0.5372 C   0  0  0  0  0  0  0  0  0  0  0  0
   -0.9030   -7.5105    0.6027 C   0  0  0  0  0  0  0  0  0  0  0  0
   -2.1392   -6.9881    1.0076 C   0  0  0  0  0  0  0  0  0  0  0  0
   -2.7252   -5.9748    0.2326 C   0  0  0  0  0  0  0  0  0  0  0  0
   -2.0978   -5.4849   -0.9095 C   0  0  0  0  0  0  0  0  0  0  0  0
   -0.8626   -6.0223   -1.2822 C   0  0  0  0  0  0  0  0  0  0  0  0
    0.6901   -7.4513   -0.8600 H   0  0  0  0  0  0  0  0  0  0  0  0
   -0.4422   -8.3057    1.1827 H   0  0  0  0  0  0  0  0  0  0  0  0
   -3.6912   -5.5712    0.5227 H   0  0  0  0  0  0  0  0  0  0  0  0
   -2.5639   -4.7161   -1.5163 H   0  0  0  0  0  0  0  0  0  0  0  0
   -0.0475   -5.3998   -2.7403 S   0  0  0  0  0  0  0  0  0  0  0  0
    0.7658   -4.0559   -2.1728 O   0  0  0  0  0  0  0  0  0  0  0  0
   -1.0349   -4.8253   -3.6425 O   0  0  0  0  0  0  0  0  0  0  0  0
    0.9320   -6.3861   -3.1880 O   0  0  0  0  0  0  0  0  0  0  0  0
   -2.8197   -7.4910    2.2575 C   0  0  0  0  0  0  0  0  0  0  0  0
   -2.5878   -6.8467    3.1147 H   0  0  0  0  0  0  0  0  0  0  0  0
   -3.9082   -7.5010    2.1442 H   0  0  0  0  0  0  0  0  0  0  0  0
   -2.4929   -8.5028    2.5111 H   0  0  0  0  0  0  0  0  0  0  0  0
    5.3841   -4.4822    0.8679 O   0  0  0  0  0  0  0  0  0  0  0  0
    5.4004   -4.1327    2.2426 C   0  0  0  0  0  0  0  0  0  0  0  0
    6.4270   -4.2835    2.5798 H   0  0  0  0  0  0  0  0  0  0  0  0
    5.1208   -3.0825    2.3970 H   0  0  0  0  0  0  0  0  0  0  0  0
    4.7307   -4.7722    2.8317 H   0  0  0  0  0  0  0  0  0  0  0  0
  1  7  1  0  0  0  0
  2  8  1  0  0  0  0
  2  1  2  0  0  0  0
  3  2  1  0  0  0  0
  4  3  2  0  0  0  0
  4  5  1  0  0  0  0
  5  6  2  0  0  0  0
  6  1  1  0  0  0  0
  6 31  1  0  0  0  0
  9  4  1  0  0  0  0
 10  5  1  0  0  0  0
 12 11  3  0  0  0  0
 13 14  2  0  0  0  0
 14 15  1  0  0  0  0
 14 20  1  0  0  0  0
 15 27  1  0  0  0  0
 16 21  1  0  0  0  0
 16 15  2  0  0  0  0
 17 16  1  0  0  0  0
 18 17  2  0  0  0  0
 18 13  1  0  0  0  0
 19 13  1  0  0  0  0
 22 17  1  0  0  0  0
 23 24  1  0  0  0  0
 23 18  1  0  0  0  0
 24  3  1  0  0  0  0
 25 23  2  0  0  0  0
 26 23  2  0  0  0  0
 27 30  1  0  0  0  0
 27 28  1  0  0  0  0
 29 27  1  0  0  0  0
 31 32  1  0  0  0  0
 32 34  1  0  0  0  0
 32 33  1  0  0  0  0
 32 35  1  0  0  0  0
M  END
