Coordinates from ORCA-job 4-MeO-Ph-N2-OTs-B3LYPG-6-31G_dp-MTMO-d009-169-n800
 OpenBabel09051908173D

 35 35  0  0  0  0  0  0  0  0999 V2000
    2.6807   -3.8097    0.4785 C   0  0  0  0  0  0  0  0  0  0  0  0
    1.5603   -3.9175   -0.3501 C   0  0  0  0  0  0  0  0  0  0  0  0
    1.6951   -4.4244   -1.6381 C   0  0  0  0  0  0  0  0  0  0  0  0
    2.9420   -4.8363   -2.1187 C   0  0  0  0  0  0  0  0  0  0  0  0
    4.0537   -4.7399   -1.2930 C   0  0  0  0  0  0  0  0  0  0  0  0
    3.9327   -4.2247    0.0080 C   0  0  0  0  0  0  0  0  0  0  0  0
    2.5635   -3.4042    1.4757 H   0  0  0  0  0  0  0  0  0  0  0  0
    0.5841   -3.5944   -0.0057 H   0  0  0  0  0  0  0  0  0  0  0  0
    3.0246   -5.2301   -3.1242 H   0  0  0  0  0  0  0  0  0  0  0  0
    5.0342   -5.0517   -1.6366 H   0  0  0  0  0  0  0  0  0  0  0  0
   -1.3146   -2.0048   -1.7630 N   0  0  0  0  0  0  0  0  0  0  0  0
   -1.1575   -1.3718   -2.6551 N   0  0  0  0  0  0  0  0  0  0  0  0
   -0.3049   -7.3308   -0.5358 C   0  0  0  0  0  0  0  0  0  0  0  0
   -0.9279   -7.7124    0.6519 C   0  0  0  0  0  0  0  0  0  0  0  0
   -2.1568   -7.1606    1.0369 C   0  0  0  0  0  0  0  0  0  0  0  0
   -2.7607   -6.2134    0.1938 C   0  0  0  0  0  0  0  0  0  0  0  0
   -2.1572   -5.8199   -0.9962 C   0  0  0  0  0  0  0  0  0  0  0  0
   -0.9279   -6.3843   -1.3491 C   0  0  0  0  0  0  0  0  0  0  0  0
    0.6388   -7.7674   -0.8409 H   0  0  0  0  0  0  0  0  0  0  0  0
   -0.4527   -8.4556    1.2866 H   0  0  0  0  0  0  0  0  0  0  0  0
   -3.7206   -5.7864    0.4706 H   0  0  0  0  0  0  0  0  0  0  0  0
   -2.6331   -5.1004   -1.6538 H   0  0  0  0  0  0  0  0  0  0  0  0
   -0.1491   -5.8851   -2.8736 S   0  0  0  0  0  0  0  0  0  0  0  0
    0.5687   -4.4316   -2.4710 O   0  0  0  0  0  0  0  0  0  0  0  0
   -1.1665   -5.4858   -3.8343 O   0  0  0  0  0  0  0  0  0  0  0  0
    0.8955   -6.8504   -3.2038 O   0  0  0  0  0  0  0  0  0  0  0  0
   -2.8154   -7.5603    2.3346 C   0  0  0  0  0  0  0  0  0  0  0  0
   -2.6628   -6.7923    3.1035 H   0  0  0  0  0  0  0  0  0  0  0  0
   -3.8960   -7.6847    2.2121 H   0  0  0  0  0  0  0  0  0  0  0  0
   -2.4060   -8.4973    2.7198 H   0  0  0  0  0  0  0  0  0  0  0  0
    5.0899   -4.1669    0.7283 O   0  0  0  0  0  0  0  0  0  0  0  0
    5.0377   -3.6382    2.0439 C   0  0  0  0  0  0  0  0  0  0  0  0
    6.0594   -3.6769    2.4249 H   0  0  0  0  0  0  0  0  0  0  0  0
    4.6908   -2.5970    2.0486 H   0  0  0  0  0  0  0  0  0  0  0  0
    4.3878   -4.2361    2.6959 H   0  0  0  0  0  0  0  0  0  0  0  0
  1  7  1  0  0  0  0
  2  8  1  0  0  0  0
  2  1  2  0  0  0  0
  3  2  1  0  0  0  0
  4  3  2  0  0  0  0
  4  5  1  0  0  0  0
  5  6  2  0  0  0  0
  6  1  1  0  0  0  0
  6 31  1  0  0  0  0
  9  4  1  0  0  0  0
 10  5  1  0  0  0  0
 12 11  3  0  0  0  0
 13 14  2  0  0  0  0
 14 15  1  0  0  0  0
 14 20  1  0  0  0  0
 15 27  1  0  0  0  0
 16 21  1  0  0  0  0
 16 15  2  0  0  0  0
 17 16  1  0  0  0  0
 18 17  2  0  0  0  0
 18 13  1  0  0  0  0
 19 13  1  0  0  0  0
 22 17  1  0  0  0  0
 23 24  1  0  0  0  0
 23 18  1  0  0  0  0
 24  3  1  0  0  0  0
 25 23  2  0  0  0  0
 26 23  2  0  0  0  0
 27 30  1  0  0  0  0
 27 28  1  0  0  0  0
 29 27  1  0  0  0  0
 31 32  1  0  0  0  0
 32 34  1  0  0  0  0
 32 33  1  0  0  0  0
 32 35  1  0  0  0  0
M  END
