Coordinates from ORCA-job 4-MeO-Ph-N2-OTs-B3LYPG-6-31G_dp-MTMO-d009-169-n800
 OpenBabel09051908173D

 35 35  0  0  0  0  0  0  0  0999 V2000
    4.3536   -2.0761   -0.3002 C   0  0  0  0  0  0  0  0  0  0  0  0
    3.0724   -2.0287   -0.8669 C   0  0  0  0  0  0  0  0  0  0  0  0
    2.4421   -3.2425   -0.9186 C   0  0  0  0  0  0  0  0  0  0  0  0
    2.8402   -4.4853   -0.5171 C   0  0  0  0  0  0  0  0  0  0  0  0
    4.1239   -4.4879    0.0317 C   0  0  0  0  0  0  0  0  0  0  0  0
    4.8763   -3.3023    0.1481 C   0  0  0  0  0  0  0  0  0  0  0  0
    4.9182   -1.1556   -0.2209 H   0  0  0  0  0  0  0  0  0  0  0  0
    2.6339   -1.1074   -1.2269 H   0  0  0  0  0  0  0  0  0  0  0  0
    2.2340   -5.3919   -0.6280 H   0  0  0  0  0  0  0  0  0  0  0  0
    4.5596   -5.4175    0.3808 H   0  0  0  0  0  0  0  0  0  0  0  0
    0.7772   -3.1281   -1.6964 N   0  0  0  0  0  0  0  0  0  0  0  0
    0.1342   -2.5405   -2.3910 N   0  0  0  0  0  0  0  0  0  0  0  0
   -1.4184   -7.7236    0.4311 C   0  0  0  0  0  0  0  0  0  0  0  0
   -2.5086   -8.3899    0.9854 C   0  0  0  0  0  0  0  0  0  0  0  0
   -3.7928   -8.2630    0.4349 C   0  0  0  0  0  0  0  0  0  0  0  0
   -3.9537   -7.4566   -0.7000 C   0  0  0  0  0  0  0  0  0  0  0  0
   -2.8719   -6.7826   -1.2657 C   0  0  0  0  0  0  0  0  0  0  0  0
   -1.6074   -6.9175   -0.6932 C   0  0  0  0  0  0  0  0  0  0  0  0
   -0.4226   -7.8373    0.8451 H   0  0  0  0  0  0  0  0  0  0  0  0
   -2.3612   -9.0236    1.8568 H   0  0  0  0  0  0  0  0  0  0  0  0
   -4.9383   -7.3605   -1.1510 H   0  0  0  0  0  0  0  0  0  0  0  0
   -2.9925   -6.1734   -2.1548 H   0  0  0  0  0  0  0  0  0  0  0  0
   -0.2192   -6.0198   -1.3947 S   0  0  0  0  0  0  0  0  0  0  0  0
   -0.1791   -4.7308   -0.5687 O   0  0  0  0  0  0  0  0  0  0  0  0
   -0.5228   -5.7541   -2.8142 O   0  0  0  0  0  0  0  0  0  0  0  0
    0.9942   -6.8409   -1.1241 O   0  0  0  0  0  0  0  0  0  0  0  0
   -4.9730   -8.9666    1.0628 C   0  0  0  0  0  0  0  0  0  0  0  0
   -5.7942   -9.0855    0.3499 H   0  0  0  0  0  0  0  0  0  0  0  0
   -4.6973   -9.9594    1.4312 H   0  0  0  0  0  0  0  0  0  0  0  0
   -5.3606   -8.4004    1.9190 H   0  0  0  0  0  0  0  0  0  0  0  0
    6.0998   -3.4476    0.7068 O   0  0  0  0  0  0  0  0  0  0  0  0
    6.9248   -2.2983    0.8670 C   0  0  0  0  0  0  0  0  0  0  0  0
    7.8437   -2.6547    1.3322 H   0  0  0  0  0  0  0  0  0  0  0  0
    7.1632   -1.8390   -0.0998 H   0  0  0  0  0  0  0  0  0  0  0  0
    6.4518   -1.5544    1.5199 H   0  0  0  0  0  0  0  0  0  0  0  0
  1  7  1  0  0  0  0
  1  6  2  0  0  0  0
  2  1  1  0  0  0  0
  3  2  2  0  0  0  0
  3  4  1  0  0  0  0
  4  5  2  0  0  0  0
  5  6  1  0  0  0  0
  5 10  1  0  0  0  0
  6 31  1  0  0  0  0
  8  2  1  0  0  0  0
  9  4  1  0  0  0  0
 11  3  1  0  0  0  0
 12 11  2  0  0  0  0
 13 19  1  0  0  0  0
 13 14  1  0  0  0  0
 14 20  1  0  0  0  0
 15 14  2  0  0  0  0
 15 27  1  0  0  0  0
 16 15  1  0  0  0  0
 17 16  2  0  0  0  0
 17 18  1  0  0  0  0
 18 13  2  0  0  0  0
 21 16  1  0  0  0  0
 22 17  1  0  0  0  0
 23 26  2  0  0  0  0
 23 18  1  0  0  0  0
 23 24  1  0  0  0  0
 25 23  2  0  0  0  0
 27 29  1  0  0  0  0
 27 30  1  0  0  0  0
 28 27  1  0  0  0  0
 31 32  1  0  0  0  0
 32 33  1  0  0  0  0
 32 35  1  0  0  0  0
 34 32  1  0  0  0  0
M  RAD  2  12   2  24   2
M  END
