Coordinates from ORCA-job 4-MeO-Ph-N2-OTs-B3LYPG-6-31G_dp-MTMO-d009-169-n800
 OpenBabel09051908173D

 35 34  0  0  0  0  0  0  0  0999 V2000
    3.9342   -2.7541    0.4354 C   0  0  0  0  0  0  0  0  0  0  0  0
    2.8758   -2.0106   -0.1330 C   0  0  0  0  0  0  0  0  0  0  0  0
    2.1408   -2.8568   -0.9095 C   0  0  0  0  0  0  0  0  0  0  0  0
    2.1658   -4.0810   -1.2220 C   0  0  0  0  0  0  0  0  0  0  0  0
    3.2065   -4.8432   -0.6764 C   0  0  0  0  0  0  0  0  0  0  0  0
    4.0971   -4.1356    0.1696 C   0  0  0  0  0  0  0  0  0  0  0  0
    4.6285   -2.2342    1.0849 H   0  0  0  0  0  0  0  0  0  0  0  0
    2.7170   -0.9547    0.0435 H   0  0  0  0  0  0  0  0  0  0  0  0
    0.8805   -4.9608   -2.3255 H   0  0  0  0  0  0  0  0  0  0  0  0
    3.3646   -5.9020   -0.8536 H   0  0  0  0  0  0  0  0  0  0  0  0
    0.4980   -1.2293   -2.0125 N   0  0  0  0  0  0  0  0  0  0  0  0
   -0.0736   -1.0316   -2.9374 N   0  0  0  0  0  0  0  0  0  0  0  0
   -1.6392   -5.7946    0.0563 C   0  0  0  0  0  0  0  0  0  0  0  0
   -1.9990   -6.6453    1.0995 C   0  0  0  0  0  0  0  0  0  0  0  0
   -2.4433   -7.9517    0.8506 C   0  0  0  0  0  0  0  0  0  0  0  0
   -2.5288   -8.3861   -0.4803 C   0  0  0  0  0  0  0  0  0  0  0  0
   -2.1739   -7.5501   -1.5365 C   0  0  0  0  0  0  0  0  0  0  0  0
   -1.7264   -6.2579   -1.2572 C   0  0  0  0  0  0  0  0  0  0  0  0
   -1.3127   -4.7789    0.2495 H   0  0  0  0  0  0  0  0  0  0  0  0
   -1.9414   -6.2858    2.1237 H   0  0  0  0  0  0  0  0  0  0  0  0
   -2.8863   -9.3898   -0.6930 H   0  0  0  0  0  0  0  0  0  0  0  0
   -2.2590   -7.8809   -2.5659 H   0  0  0  0  0  0  0  0  0  0  0  0
   -1.2631   -5.1801   -2.6059 S   0  0  0  0  0  0  0  0  0  0  0  0
   -1.3220   -3.7966   -2.1273 O   0  0  0  0  0  0  0  0  0  0  0  0
   -1.9785   -5.6055   -3.8012 O   0  0  0  0  0  0  0  0  0  0  0  0
    0.2931   -5.5596   -2.8650 O   0  0  0  0  0  0  0  0  0  0  0  0
   -2.8056   -8.8742    1.9896 C   0  0  0  0  0  0  0  0  0  0  0  0
   -3.5630   -9.6038    1.6889 H   0  0  0  0  0  0  0  0  0  0  0  0
   -1.9284   -9.4372    2.3321 H   0  0  0  0  0  0  0  0  0  0  0  0
   -3.1900   -8.3177    2.8492 H   0  0  0  0  0  0  0  0  0  0  0  0
    5.1034   -4.8893    0.6947 O   0  0  0  0  0  0  0  0  0  0  0  0
    6.0472   -4.2721    1.5563 C   0  0  0  0  0  0  0  0  0  0  0  0
    6.7487   -5.0558    1.8454 H   0  0  0  0  0  0  0  0  0  0  0  0
    6.5945   -3.4685    1.0466 H   0  0  0  0  0  0  0  0  0  0  0  0
    5.5682   -3.8677    2.4574 H   0  0  0  0  0  0  0  0  0  0  0  0
  1  7  1  0  0  0  0
  2  8  1  0  0  0  0
  2  1  2  0  0  0  0
  3  2  1  0  0  0  0
  4  3  2  0  0  0  0
  4  5  1  0  0  0  0
  5  6  2  0  0  0  0
  6  1  1  0  0  0  0
  6 31  1  0  0  0  0
 10  5  1  0  0  0  0
 12 11  3  0  0  0  0
 13 19  1  0  0  0  0
 13 14  2  0  0  0  0
 14 20  1  0  0  0  0
 15 14  1  0  0  0  0
 15 27  1  0  0  0  0
 16 15  2  0  0  0  0
 17 18  2  0  0  0  0
 17 16  1  0  0  0  0
 18 13  1  0  0  0  0
 21 16  1  0  0  0  0
 22 17  1  0  0  0  0
 23 24  2  0  0  0  0
 23 18  1  0  0  0  0
 25 23  2  0  0  0  0
 26 23  1  0  0  0  0
 26  9  1  0  0  0  0
 27 29  1  0  0  0  0
 27 30  1  0  0  0  0
 28 27  1  0  0  0  0
 31 32  1  0  0  0  0
 32 33  1  0  0  0  0
 32 35  1  0  0  0  0
 34 32  1  0  0  0  0
M  RAD  2   3   2   4   2
M  END
