Coordinates from ORCA-job 4-MeO-Ph-N2-OTs-B3LYPG-6-31G_dp-MTMO-d009-169-n800
 OpenBabel09051908173D

 35 35  0  0  0  0  0  0  0  0999 V2000
    3.4291   -4.0592    0.7023 C   0  0  0  0  0  0  0  0  0  0  0  0
    2.4880   -3.9331   -0.3235 C   0  0  0  0  0  0  0  0  0  0  0  0
    2.7289   -4.5139   -1.5637 C   0  0  0  0  0  0  0  0  0  0  0  0
    3.9055   -5.2312   -1.8009 C   0  0  0  0  0  0  0  0  0  0  0  0
    4.8375   -5.3646   -0.7810 C   0  0  0  0  0  0  0  0  0  0  0  0
    4.6080   -4.7797    0.4752 C   0  0  0  0  0  0  0  0  0  0  0  0
    3.2322   -3.5940    1.6604 H   0  0  0  0  0  0  0  0  0  0  0  0
    1.5719   -3.3735   -0.1671 H   0  0  0  0  0  0  0  0  0  0  0  0
    4.0732   -5.6782   -2.7731 H   0  0  0  0  0  0  0  0  0  0  0  0
    5.7603   -5.9136   -0.9345 H   0  0  0  0  0  0  0  0  0  0  0  0
   -7.5493   -7.5294    0.8158 N   0  0  0  0  0  0  0  0  0  0  0  0
   -8.5531   -7.9729    0.6849 N   0  0  0  0  0  0  0  0  0  0  0  0
   -0.2702   -6.5386   -0.7762 C   0  0  0  0  0  0  0  0  0  0  0  0
   -1.2463   -6.5856    0.2185 C   0  0  0  0  0  0  0  0  0  0  0  0
   -2.3611   -5.7370    0.1833 C   0  0  0  0  0  0  0  0  0  0  0  0
   -2.4773   -4.8276   -0.8803 C   0  0  0  0  0  0  0  0  0  0  0  0
   -1.5147   -4.7641   -1.8831 C   0  0  0  0  0  0  0  0  0  0  0  0
   -0.4150   -5.6243   -1.8199 C   0  0  0  0  0  0  0  0  0  0  0  0
    0.5837   -7.2067   -0.7564 H   0  0  0  0  0  0  0  0  0  0  0  0
   -1.1410   -7.2973    1.0332 H   0  0  0  0  0  0  0  0  0  0  0  0
   -3.3377   -4.1648   -0.9254 H   0  0  0  0  0  0  0  0  0  0  0  0
   -1.6135   -4.0724   -2.7130 H   0  0  0  0  0  0  0  0  0  0  0  0
    0.8236   -5.5440   -3.1006 S   0  0  0  0  0  0  0  0  0  0  0  0
    1.8076   -4.2916   -2.5951 O   0  0  0  0  0  0  0  0  0  0  0  0
    0.2244   -5.0173   -4.3178 O   0  0  0  0  0  0  0  0  0  0  0  0
    1.5964   -6.7830   -3.0851 O   0  0  0  0  0  0  0  0  0  0  0  0
   -3.4294   -5.8136    1.2470 C   0  0  0  0  0  0  0  0  0  0  0  0
   -3.7924   -4.8183    1.5204 H   0  0  0  0  0  0  0  0  0  0  0  0
   -4.2954   -6.3876    0.8950 H   0  0  0  0  0  0  0  0  0  0  0  0
   -3.0590   -6.3014    2.1525 H   0  0  0  0  0  0  0  0  0  0  0  0
    5.5925   -4.9678    1.4007 O   0  0  0  0  0  0  0  0  0  0  0  0
    5.4240   -4.3951    2.6876 C   0  0  0  0  0  0  0  0  0  0  0  0
    6.3167   -4.6626    3.2556 H   0  0  0  0  0  0  0  0  0  0  0  0
    5.3422   -3.3016    2.6373 H   0  0  0  0  0  0  0  0  0  0  0  0
    4.5392   -4.7975    3.1978 H   0  0  0  0  0  0  0  0  0  0  0  0
  1  7  1  0  0  0  0
  2  8  1  0  0  0  0
  2  1  2  0  0  0  0
  3  2  1  0  0  0  0
  4  3  2  0  0  0  0
  4  5  1  0  0  0  0
  5  6  2  0  0  0  0
  6  1  1  0  0  0  0
  6 31  1  0  0  0  0
  9  4  1  0  0  0  0
 10  5  1  0  0  0  0
 12 11  3  0  0  0  0
 13 19  1  0  0  0  0
 13 14  2  0  0  0  0
 14 20  1  0  0  0  0
 15 14  1  0  0  0  0
 15 27  1  0  0  0  0
 16 15  2  0  0  0  0
 17 18  2  0  0  0  0
 17 16  1  0  0  0  0
 18 13  1  0  0  0  0
 21 16  1  0  0  0  0
 22 17  1  0  0  0  0
 23 26  2  0  0  0  0
 23 24  1  0  0  0  0
 23 18  1  0  0  0  0
 24  3  1  0  0  0  0
 25 23  2  0  0  0  0
 27 28  1  0  0  0  0
 27 30  1  0  0  0  0
 29 27  1  0  0  0  0
 31 32  1  0  0  0  0
 32 35  1  0  0  0  0
 32 33  1  0  0  0  0
 34 32  1  0  0  0  0
M  END
