Coordinates from ORCA-job 4-MeO-Ph-N2-OTs-B3LYPG-6-31G_dp-MTMO-d009-169-n800
 OpenBabel09051908173D

 35 35  0  0  0  0  0  0  0  0999 V2000
    3.6209   -3.9846    0.6186 C   0  0  0  0  0  0  0  0  0  0  0  0
    2.6541   -3.8859   -0.3861 C   0  0  0  0  0  0  0  0  0  0  0  0
    2.8600   -4.5074   -1.6127 C   0  0  0  0  0  0  0  0  0  0  0  0
    4.0266   -5.2385   -1.8571 C   0  0  0  0  0  0  0  0  0  0  0  0
    4.9842   -5.3446   -0.8579 C   0  0  0  0  0  0  0  0  0  0  0  0
    4.7901   -4.7186    0.3844 C   0  0  0  0  0  0  0  0  0  0  0  0
    3.4513   -3.4885    1.5664 H   0  0  0  0  0  0  0  0  0  0  0  0
    1.7449   -3.3168   -0.2241 H   0  0  0  0  0  0  0  0  0  0  0  0
    4.1668   -5.7170   -2.8186 H   0  0  0  0  0  0  0  0  0  0  0  0
    5.9001   -5.9034   -1.0174 H   0  0  0  0  0  0  0  0  0  0  0  0
  -10.5961   -8.4447    0.3464 N   0  0  0  0  0  0  0  0  0  0  0  0
  -11.5440   -8.9631    0.1130 N   0  0  0  0  0  0  0  0  0  0  0  0
   -0.0976   -6.5015   -0.6699 C   0  0  0  0  0  0  0  0  0  0  0  0
   -1.0292   -6.5092    0.3681 C   0  0  0  0  0  0  0  0  0  0  0  0
   -2.1324   -5.6456    0.3599 C   0  0  0  0  0  0  0  0  0  0  0  0
   -2.2851   -4.7629   -0.7218 C   0  0  0  0  0  0  0  0  0  0  0  0
   -1.3678   -4.7391   -1.7674 C   0  0  0  0  0  0  0  0  0  0  0  0
   -0.2773   -5.6128   -1.7297 C   0  0  0  0  0  0  0  0  0  0  0  0
    0.7481   -7.1801   -0.6699 H   0  0  0  0  0  0  0  0  0  0  0  0
   -0.8974   -7.2012    1.1958 H   0  0  0  0  0  0  0  0  0  0  0  0
   -3.1386   -4.0901   -0.7466 H   0  0  0  0  0  0  0  0  0  0  0  0
   -1.4947   -4.0681   -2.6103 H   0  0  0  0  0  0  0  0  0  0  0  0
    0.9090   -5.5758   -3.0607 S   0  0  0  0  0  0  0  0  0  0  0  0
    1.9135   -4.3136   -2.6269 O   0  0  0  0  0  0  0  0  0  0  0  0
    0.2652   -5.0810   -4.2684 O   0  0  0  0  0  0  0  0  0  0  0  0
    1.6779   -6.8170   -3.0402 O   0  0  0  0  0  0  0  0  0  0  0  0
   -3.1526   -5.6755    1.4720 C   0  0  0  0  0  0  0  0  0  0  0  0
   -3.4266   -4.6646    1.7893 H   0  0  0  0  0  0  0  0  0  0  0  0
   -4.0744   -6.1704    1.1435 H   0  0  0  0  0  0  0  0  0  0  0  0
   -2.7796   -6.2172    2.3450 H   0  0  0  0  0  0  0  0  0  0  0  0
    5.7974   -4.8824    1.2897 O   0  0  0  0  0  0  0  0  0  0  0  0
    5.6646   -4.2694    2.5621 C   0  0  0  0  0  0  0  0  0  0  0  0
    6.5707   -4.5234    3.1149 H   0  0  0  0  0  0  0  0  0  0  0  0
    5.5859   -3.1775    2.4802 H   0  0  0  0  0  0  0  0  0  0  0  0
    4.7916   -4.6515    3.1072 H   0  0  0  0  0  0  0  0  0  0  0  0
  1  7  1  0  0  0  0
  2  8  1  0  0  0  0
  2  1  2  0  0  0  0
  3  2  1  0  0  0  0
  4  3  2  0  0  0  0
  4  5  1  0  0  0  0
  5  6  2  0  0  0  0
  6  1  1  0  0  0  0
  6 31  1  0  0  0  0
  9  4  1  0  0  0  0
 10  5  1  0  0  0  0
 12 11  3  0  0  0  0
 13 14  2  0  0  0  0
 14 20  1  0  0  0  0
 15 14  1  0  0  0  0
 15 27  1  0  0  0  0
 16 15  2  0  0  0  0
 17 18  2  0  0  0  0
 17 16  1  0  0  0  0
 18 13  1  0  0  0  0
 19 13  1  0  0  0  0
 21 16  1  0  0  0  0
 22 17  1  0  0  0  0
 23 26  2  0  0  0  0
 23 24  1  0  0  0  0
 23 18  1  0  0  0  0
 24  3  1  0  0  0  0
 25 23  2  0  0  0  0
 27 28  1  0  0  0  0
 27 30  1  0  0  0  0
 29 27  1  0  0  0  0
 31 32  1  0  0  0  0
 32 35  1  0  0  0  0
 32 33  1  0  0  0  0
 34 32  1  0  0  0  0
M  END
