Coordinates from ORCA-job 4-MeO-Ph-N2-OTs-B3LYPG-6-31G_dp-MTMO-d009-169-n800
 OpenBabel09051908173D

 35 35  0  0  0  0  0  0  0  0999 V2000
    3.5236   -4.0325    0.6437 C   0  0  0  0  0  0  0  0  0  0  0  0
    2.5710   -3.9172   -0.3726 C   0  0  0  0  0  0  0  0  0  0  0  0
    2.7853   -4.5347   -1.5999 C   0  0  0  0  0  0  0  0  0  0  0  0
    3.9462   -5.2781   -1.8333 C   0  0  0  0  0  0  0  0  0  0  0  0
    4.8897   -5.4005   -0.8226 C   0  0  0  0  0  0  0  0  0  0  0  0
    4.6871   -4.7788    0.4205 C   0  0  0  0  0  0  0  0  0  0  0  0
    3.3477   -3.5391    1.5918 H   0  0  0  0  0  0  0  0  0  0  0  0
    1.6664   -3.3382   -0.2191 H   0  0  0  0  0  0  0  0  0  0  0  0
    4.0932   -5.7532   -2.7955 H   0  0  0  0  0  0  0  0  0  0  0  0
    5.8011   -5.9691   -0.9735 H   0  0  0  0  0  0  0  0  0  0  0  0
   -8.9500   -8.1327    0.5098 N   0  0  0  0  0  0  0  0  0  0  0  0
   -9.9062   -8.6394    0.2851 N   0  0  0  0  0  0  0  0  0  0  0  0
   -0.2069   -6.5012   -0.7080 C   0  0  0  0  0  0  0  0  0  0  0  0
   -1.1517   -6.5050    0.3178 C   0  0  0  0  0  0  0  0  0  0  0  0
   -2.2451   -5.6290    0.3011 C   0  0  0  0  0  0  0  0  0  0  0  0
   -2.3737   -4.7374   -0.7762 C   0  0  0  0  0  0  0  0  0  0  0  0
   -1.4427   -4.7172   -1.8099 C   0  0  0  0  0  0  0  0  0  0  0  0
   -0.3629   -5.6035   -1.7641 C   0  0  0  0  0  0  0  0  0  0  0  0
    0.6313   -7.1891   -0.7016 H   0  0  0  0  0  0  0  0  0  0  0  0
   -1.0382   -7.2037    1.1427 H   0  0  0  0  0  0  0  0  0  0  0  0
   -3.2188   -4.0544   -0.8070 H   0  0  0  0  0  0  0  0  0  0  0  0
   -1.5508   -4.0389   -2.6495 H   0  0  0  0  0  0  0  0  0  0  0  0
    0.8408   -5.5715   -3.0795 S   0  0  0  0  0  0  0  0  0  0  0  0
    1.8544   -4.3239   -2.6250 O   0  0  0  0  0  0  0  0  0  0  0  0
    0.2183   -5.0616   -4.2921 O   0  0  0  0  0  0  0  0  0  0  0  0
    1.5950   -6.8217   -3.0574 O   0  0  0  0  0  0  0  0  0  0  0  0
   -3.2809   -5.6581    1.3987 C   0  0  0  0  0  0  0  0  0  0  0  0
   -3.5951   -4.6481    1.6785 H   0  0  0  0  0  0  0  0  0  0  0  0
   -4.1792   -6.1970    1.0736 H   0  0  0  0  0  0  0  0  0  0  0  0
   -2.9032   -6.1582    2.2943 H   0  0  0  0  0  0  0  0  0  0  0  0
    5.6809   -4.9589    1.3376 O   0  0  0  0  0  0  0  0  0  0  0  0
    5.5391   -4.3507    2.6112 C   0  0  0  0  0  0  0  0  0  0  0  0
    6.4353   -4.6174    3.1740 H   0  0  0  0  0  0  0  0  0  0  0  0
    5.4735   -3.2576    2.5338 H   0  0  0  0  0  0  0  0  0  0  0  0
    4.6552   -4.7257    3.1436 H   0  0  0  0  0  0  0  0  0  0  0  0
  1  7  1  0  0  0  0
  2  8  1  0  0  0  0
  2  1  2  0  0  0  0
  3  2  1  0  0  0  0
  4  3  2  0  0  0  0
  4  5  1  0  0  0  0
  5  6  2  0  0  0  0
  6  1  1  0  0  0  0
  6 31  1  0  0  0  0
  9  4  1  0  0  0  0
 10  5  1  0  0  0  0
 12 11  3  0  0  0  0
 13 19  1  0  0  0  0
 13 14  2  0  0  0  0
 14 20  1  0  0  0  0
 15 14  1  0  0  0  0
 15 27  1  0  0  0  0
 16 15  2  0  0  0  0
 17 18  2  0  0  0  0
 17 16  1  0  0  0  0
 18 13  1  0  0  0  0
 21 16  1  0  0  0  0
 22 17  1  0  0  0  0
 23 26  2  0  0  0  0
 23 24  1  0  0  0  0
 23 18  1  0  0  0  0
 24  3  1  0  0  0  0
 25 23  2  0  0  0  0
 27 28  1  0  0  0  0
 27 30  1  0  0  0  0
 29 27  1  0  0  0  0
 31 32  1  0  0  0  0
 32 35  1  0  0  0  0
 32 33  1  0  0  0  0
 34 32  1  0  0  0  0
M  END
