Coordinates from ORCA-job 4-MeO-Ph-N2-OTs-B3LYPG-6-31G_dp-MTMO-d009-169-n800
 OpenBabel09051908173D

 35 34  0  0  0  0  0  0  0  0999 V2000
    3.9941   -2.8445    0.4169 C   0  0  0  0  0  0  0  0  0  0  0  0
    2.7421   -2.3861   -0.0538 C   0  0  0  0  0  0  0  0  0  0  0  0
    2.1533   -3.4147   -0.7335 C   0  0  0  0  0  0  0  0  0  0  0  0
    2.4639   -4.5994   -1.0243 C   0  0  0  0  0  0  0  0  0  0  0  0
    3.6912   -5.0948   -0.5818 C   0  0  0  0  0  0  0  0  0  0  0  0
    4.4571   -4.1595    0.1614 C   0  0  0  0  0  0  0  0  0  0  0  0
    4.6029   -2.1528    0.9874 H   0  0  0  0  0  0  0  0  0  0  0  0
    2.3602   -1.3893    0.1209 H   0  0  0  0  0  0  0  0  0  0  0  0
    1.1093   -5.4338   -2.2064 H   0  0  0  0  0  0  0  0  0  0  0  0
    4.0817   -6.0903   -0.7621 H   0  0  0  0  0  0  0  0  0  0  0  0
   -0.0825   -0.9732   -1.5220 N   0  0  0  0  0  0  0  0  0  0  0  0
   -0.8956   -0.6761   -2.2084 N   0  0  0  0  0  0  0  0  0  0  0  0
   -1.6757   -5.8499    0.0334 C   0  0  0  0  0  0  0  0  0  0  0  0
   -2.2083   -6.6409    1.0501 C   0  0  0  0  0  0  0  0  0  0  0  0
   -2.7691   -7.8958    0.7752 C   0  0  0  0  0  0  0  0  0  0  0  0
   -2.7952   -8.3391   -0.5559 C   0  0  0  0  0  0  0  0  0  0  0  0
   -2.2706   -7.5621   -1.5854 C   0  0  0  0  0  0  0  0  0  0  0  0
   -1.7084   -6.3211   -1.2792 C   0  0  0  0  0  0  0  0  0  0  0  0
   -1.2551   -4.8735    0.2458 H   0  0  0  0  0  0  0  0  0  0  0  0
   -2.1938   -6.2740    2.0732 H   0  0  0  0  0  0  0  0  0  0  0  0
   -3.2384   -9.3030   -0.7900 H   0  0  0  0  0  0  0  0  0  0  0  0
   -2.3091   -7.8986   -2.6157 H   0  0  0  0  0  0  0  0  0  0  0  0
   -1.0203   -5.3258   -2.5940 S   0  0  0  0  0  0  0  0  0  0  0  0
   -0.8931   -3.9475   -2.1125 O   0  0  0  0  0  0  0  0  0  0  0  0
   -1.7254   -5.6405   -3.8283 O   0  0  0  0  0  0  0  0  0  0  0  0
    0.4731   -5.9406   -2.7738 O   0  0  0  0  0  0  0  0  0  0  0  0
   -3.3162   -8.7597    1.8857 C   0  0  0  0  0  0  0  0  0  0  0  0
   -4.1622   -9.3632    1.5438 H   0  0  0  0  0  0  0  0  0  0  0  0
   -2.5505   -9.4534    2.2549 H   0  0  0  0  0  0  0  0  0  0  0  0
   -3.6485   -8.1576    2.7359 H   0  0  0  0  0  0  0  0  0  0  0  0
    5.6585   -4.6324    0.5983 O   0  0  0  0  0  0  0  0  0  0  0  0
    6.5119   -3.7688    1.3338 C   0  0  0  0  0  0  0  0  0  0  0  0
    7.4011   -4.3546    1.5705 H   0  0  0  0  0  0  0  0  0  0  0  0
    6.8054   -2.8917    0.7430 H   0  0  0  0  0  0  0  0  0  0  0  0
    6.0419   -3.4349    2.2677 H   0  0  0  0  0  0  0  0  0  0  0  0
  1  7  1  0  0  0  0
  2  8  1  0  0  0  0
  2  1  2  0  0  0  0
  3  2  1  0  0  0  0
  4  3  2  0  0  0  0
  4  5  1  0  0  0  0
  5  6  2  0  0  0  0
  6  1  1  0  0  0  0
  6 31  1  0  0  0  0
 10  5  1  0  0  0  0
 12 11  3  0  0  0  0
 13 19  1  0  0  0  0
 13 14  2  0  0  0  0
 14 20  1  0  0  0  0
 15 14  1  0  0  0  0
 15 27  1  0  0  0  0
 16 15  2  0  0  0  0
 17 18  2  0  0  0  0
 17 16  1  0  0  0  0
 18 13  1  0  0  0  0
 21 16  1  0  0  0  0
 22 17  1  0  0  0  0
 23 24  2  0  0  0  0
 23 18  1  0  0  0  0
 25 23  2  0  0  0  0
 26 23  1  0  0  0  0
 26  9  1  0  0  0  0
 27 29  1  0  0  0  0
 27 30  1  0  0  0  0
 28 27  1  0  0  0  0
 31 32  1  0  0  0  0
 32 33  1  0  0  0  0
 32 35  1  0  0  0  0
 34 32  1  0  0  0  0
M  RAD  2   3   2   4   2
M  END
