Coordinates from ORCA-job 4-MeO-Ph-N2-OTs-B3LYPG-6-31G_dp-MTMO-d009-169-n800
 OpenBabel09051908173D

 35 36  0  0  1  0  0  0  0  0999 V2000
    3.8578   -2.9513   -0.6513 C   0  0  0  0  0  0  0  0  0  0  0  0
    3.0490   -1.9560   -0.2261 C   0  0  0  0  0  0  0  0  0  0  0  0
    1.8363   -2.2442    0.5309 C   0  0  0  0  0  0  0  0  0  0  0  0
    1.3292   -3.6806    0.5806 C   0  0  2  0  0  0  0  0  0  0  0  0
    2.3916   -4.6706    0.3018 C   0  0  0  0  0  0  0  0  0  0  0  0
    3.5450   -4.3356   -0.3275 C   0  0  0  0  0  0  0  0  0  0  0  0
    4.7481   -2.7095   -1.2169 H   0  0  0  0  0  0  0  0  0  0  0  0
    3.2789   -0.9141   -0.4280 H   0  0  0  0  0  0  0  0  0  0  0  0
    0.8153   -3.8588    1.5266 H   0  0  0  0  0  0  0  0  0  0  0  0
    2.1999   -5.7085    0.5497 H   0  0  0  0  0  0  0  0  0  0  0  0
    1.2255   -1.4183    1.0260 N   0  0  0  0  0  0  0  0  0  0  0  0
    0.6035   -0.5902    1.5298 N   0  0  0  0  0  0  0  0  0  0  0  0
   -1.7063   -6.4160    1.0196 C   0  0  0  0  0  0  0  0  0  0  0  0
   -1.9519   -7.7863    0.9327 C   0  0  0  0  0  0  0  0  0  0  0  0
   -2.1319   -8.4138   -0.3069 C   0  0  0  0  0  0  0  0  0  0  0  0
   -2.0610   -7.6304   -1.4701 C   0  0  0  0  0  0  0  0  0  0  0  0
   -1.8192   -6.2618   -1.4042 C   0  0  0  0  0  0  0  0  0  0  0  0
   -1.6382   -5.6653   -0.1537 C   0  0  0  0  0  0  0  0  0  0  0  0
   -1.5830   -5.9281    1.9802 H   0  0  0  0  0  0  0  0  0  0  0  0
   -2.0090   -8.3757    1.8440 H   0  0  0  0  0  0  0  0  0  0  0  0
   -2.2019   -8.0998   -2.4402 H   0  0  0  0  0  0  0  0  0  0  0  0
   -1.7805   -5.6577   -2.3042 H   0  0  0  0  0  0  0  0  0  0  0  0
   -1.3126   -3.9111   -0.0627 S   0  0  0  0  0  0  0  0  0  0  0  0
   -1.4470   -3.4866    1.3348 O   0  0  0  0  0  0  0  0  0  0  0  0
   -2.0448   -3.2454   -1.1328 O   0  0  0  0  0  0  0  0  0  0  0  0
    0.2646   -3.8182   -0.4897 O   0  0  0  0  0  0  0  0  0  0  0  0
   -2.4265   -9.8918   -0.3931 C   0  0  0  0  0  0  0  0  0  0  0  0
   -1.9205  -10.3509   -1.2476 H   0  0  0  0  0  0  0  0  0  0  0  0
   -2.1108  -10.4167    0.5126 H   0  0  0  0  0  0  0  0  0  0  0  0
   -3.5015  -10.0696   -0.5189 H   0  0  0  0  0  0  0  0  0  0  0  0
    4.4086   -5.3493   -0.6240 O   0  0  0  0  0  0  0  0  0  0  0  0
    5.7189   -5.0466   -1.0846 C   0  0  0  0  0  0  0  0  0  0  0  0
    6.2369   -6.0047   -1.1492 H   0  0  0  0  0  0  0  0  0  0  0  0
    5.7083   -4.5852   -2.0799 H   0  0  0  0  0  0  0  0  0  0  0  0
    6.2590   -4.3947   -0.3870 H   0  0  0  0  0  0  0  0  0  0  0  0
  1  6  2  0  0  0  0
  1  2  1  0  0  0  0
  2  3  2  0  0  0  0
  3  4  1  0  0  0  0
  3 11  1  0  0  0  0
  4  9  1  1  0  0  0
  5 10  1  0  0  0  0
  5  4  1  0  0  0  0
  6  5  1  0  0  0  0
  7  1  1  0  0  0  0
  8  2  1  0  0  0  0
 11 12  1  0  0  0  0
 13 19  1  0  0  0  0
 14 13  1  0  0  0  0
 14 20  1  0  0  0  0
 15 14  2  0  0  0  0
 16 17  2  0  0  0  0
 16 15  1  0  0  0  0
 17 18  1  0  0  0  0
 18 23  1  0  0  0  0
 18 13  2  0  0  0  0
 21 16  1  0  0  0  0
 22 17  1  0  0  0  0
 23 24  2  0  0  0  0
 25 23  2  0  0  0  0
 26 23  1  0  0  0  0
 26  4  1  0  0  0  0
 27 15  1  0  0  0  0
 27 29  1  0  0  0  0
 28 27  1  0  0  0  0
 30 27  1  0  0  0  0
 31  6  1  0  0  0  0
 32 31  1  0  0  0  0
 32 35  1  0  0  0  0
 33 32  1  0  0  0  0
 34 32  1  0  0  0  0
M  RAD  3   5   2  11   2  12   3
M  END
