Coordinates from ORCA-job 4-MeO-Ph-N2-OTs-B3LYPG-6-31G_dp-MTMO-d009-169-n800
 OpenBabel09051908173D

 35 35  0  0  0  0  0  0  0  0999 V2000
    2.9800   -3.9468    0.7329 C   0  0  0  0  0  0  0  0  0  0  0  0
    1.8312   -3.8946   -0.0615 C   0  0  0  0  0  0  0  0  0  0  0  0
    1.8973   -4.2484   -1.4047 C   0  0  0  0  0  0  0  0  0  0  0  0
    3.1043   -4.6628   -1.9766 C   0  0  0  0  0  0  0  0  0  0  0  0
    4.2439   -4.7259   -1.1864 C   0  0  0  0  0  0  0  0  0  0  0  0
    4.1918   -4.3671    0.1706 C   0  0  0  0  0  0  0  0  0  0  0  0
    2.9157   -3.6571    1.7745 H   0  0  0  0  0  0  0  0  0  0  0  0
    0.8854   -3.5658    0.3555 H   0  0  0  0  0  0  0  0  0  0  0  0
    3.1350   -4.9362   -3.0242 H   0  0  0  0  0  0  0  0  0  0  0  0
    5.1943   -5.0447   -1.6006 H   0  0  0  0  0  0  0  0  0  0  0  0
   -3.6964   -3.0458   -3.4211 N   0  0  0  0  0  0  0  0  0  0  0  0
   -3.5156   -2.5607   -4.3972 N   0  0  0  0  0  0  0  0  0  0  0  0
   -0.2516   -7.0493   -0.5161 C   0  0  0  0  0  0  0  0  0  0  0  0
   -0.8949   -7.5156    0.6298 C   0  0  0  0  0  0  0  0  0  0  0  0
   -2.1425   -7.0099    1.0182 C   0  0  0  0  0  0  0  0  0  0  0  0
   -2.7432   -6.0216    0.2214 C   0  0  0  0  0  0  0  0  0  0  0  0
   -2.1192   -5.5411   -0.9259 C   0  0  0  0  0  0  0  0  0  0  0  0
   -0.8717   -6.0619   -1.2825 C   0  0  0  0  0  0  0  0  0  0  0  0
    0.7049   -7.4536   -0.8255 H   0  0  0  0  0  0  0  0  0  0  0  0
   -0.4221   -8.2904    1.2271 H   0  0  0  0  0  0  0  0  0  0  0  0
   -3.7179   -5.6304    0.4994 H   0  0  0  0  0  0  0  0  0  0  0  0
   -2.5975   -4.7930   -1.5492 H   0  0  0  0  0  0  0  0  0  0  0  0
   -0.0574   -5.4486   -2.7450 S   0  0  0  0  0  0  0  0  0  0  0  0
    0.7463   -4.0940   -2.1887 O   0  0  0  0  0  0  0  0  0  0  0  0
   -1.0460   -4.8888   -3.6551 O   0  0  0  0  0  0  0  0  0  0  0  0
    0.9294   -6.4328   -3.1805 O   0  0  0  0  0  0  0  0  0  0  0  0
   -2.8271   -7.5052    2.2690 C   0  0  0  0  0  0  0  0  0  0  0  0
   -2.7553   -6.7641    3.0750 H   0  0  0  0  0  0  0  0  0  0  0  0
   -3.8919   -7.6889    2.0942 H   0  0  0  0  0  0  0  0  0  0  0  0
   -2.3768   -8.4323    2.6314 H   0  0  0  0  0  0  0  0  0  0  0  0
    5.3714   -4.4579    0.8499 O   0  0  0  0  0  0  0  0  0  0  0  0
    5.3872   -4.0948    2.2211 C   0  0  0  0  0  0  0  0  0  0  0  0
    6.4155   -4.2343    2.5580 H   0  0  0  0  0  0  0  0  0  0  0  0
    5.0999   -3.0452    2.3656 H   0  0  0  0  0  0  0  0  0  0  0  0
    4.7233   -4.7336    2.8175 H   0  0  0  0  0  0  0  0  0  0  0  0
  1  7  1  0  0  0  0
  2  8  1  0  0  0  0
  2  1  2  0  0  0  0
  3  2  1  0  0  0  0
  4  3  2  0  0  0  0
  4  5  1  0  0  0  0
  5  6  2  0  0  0  0
  6  1  1  0  0  0  0
  6 31  1  0  0  0  0
  9  4  1  0  0  0  0
 10  5  1  0  0  0  0
 12 11  3  0  0  0  0
 13 14  2  0  0  0  0
 14 15  1  0  0  0  0
 14 20  1  0  0  0  0
 15 27  1  0  0  0  0
 16 21  1  0  0  0  0
 16 15  2  0  0  0  0
 17 16  1  0  0  0  0
 18 17  2  0  0  0  0
 18 13  1  0  0  0  0
 19 13  1  0  0  0  0
 22 17  1  0  0  0  0
 23 24  1  0  0  0  0
 23 18  1  0  0  0  0
 24  3  1  0  0  0  0
 25 23  2  0  0  0  0
 26 23  2  0  0  0  0
 27 30  1  0  0  0  0
 27 28  1  0  0  0  0
 29 27  1  0  0  0  0
 31 32  1  0  0  0  0
 32 34  1  0  0  0  0
 32 33  1  0  0  0  0
 32 35  1  0  0  0  0
M  END
