Coordinates from ORCA-job 4-MeO-Ph-N2-OTs-B3LYPG-6-31G_dp-MTMO-d009-169-n800
 OpenBabel09051908173D

 35 35  0  0  0  0  0  0  0  0999 V2000
    2.7037   -3.8158    0.5158 C   0  0  0  0  0  0  0  0  0  0  0  0
    1.5791   -3.9023   -0.3095 C   0  0  0  0  0  0  0  0  0  0  0  0
    1.7032   -4.3932   -1.6045 C   0  0  0  0  0  0  0  0  0  0  0  0
    2.9442   -4.8096   -2.0965 C   0  0  0  0  0  0  0  0  0  0  0  0
    4.0603   -4.7345   -1.2745 C   0  0  0  0  0  0  0  0  0  0  0  0
    3.9498   -4.2360    0.0340 C   0  0  0  0  0  0  0  0  0  0  0  0
    2.5946   -3.4226    1.5188 H   0  0  0  0  0  0  0  0  0  0  0  0
    0.6071   -3.5764    0.0445 H   0  0  0  0  0  0  0  0  0  0  0  0
    3.0187   -5.1904   -3.1076 H   0  0  0  0  0  0  0  0  0  0  0  0
    5.0364   -5.0506   -1.6265 H   0  0  0  0  0  0  0  0  0  0  0  0
   -1.5871   -2.1397   -2.1408 N   0  0  0  0  0  0  0  0  0  0  0  0
   -1.3068   -1.4935   -2.9922 N   0  0  0  0  0  0  0  0  0  0  0  0
   -0.3151   -7.3253   -0.5544 C   0  0  0  0  0  0  0  0  0  0  0  0
   -0.9303   -7.7262    0.6313 C   0  0  0  0  0  0  0  0  0  0  0  0
   -2.1405   -7.1577    1.0492 C   0  0  0  0  0  0  0  0  0  0  0  0
   -2.7333   -6.1723    0.2424 C   0  0  0  0  0  0  0  0  0  0  0  0
   -2.1378   -5.7591   -0.9448 C   0  0  0  0  0  0  0  0  0  0  0  0
   -0.9271   -6.3422   -1.3315 C   0  0  0  0  0  0  0  0  0  0  0  0
    0.6142   -7.7738   -0.8852 H   0  0  0  0  0  0  0  0  0  0  0  0
   -0.4638   -8.4976    1.2380 H   0  0  0  0  0  0  0  0  0  0  0  0
   -3.6783   -5.7304    0.5457 H   0  0  0  0  0  0  0  0  0  0  0  0
   -2.6035   -5.0073   -1.5727 H   0  0  0  0  0  0  0  0  0  0  0  0
   -0.1588   -5.8202   -2.8537 S   0  0  0  0  0  0  0  0  0  0  0  0
    0.5728   -4.3790   -2.4313 O   0  0  0  0  0  0  0  0  0  0  0  0
   -1.1815   -5.3949   -3.7977 O   0  0  0  0  0  0  0  0  0  0  0  0
    0.8757   -6.7865   -3.2120 O   0  0  0  0  0  0  0  0  0  0  0  0
   -2.7926   -7.5806    2.3430 C   0  0  0  0  0  0  0  0  0  0  0  0
   -2.6586   -6.8152    3.1178 H   0  0  0  0  0  0  0  0  0  0  0  0
   -3.8702   -7.7266    2.2169 H   0  0  0  0  0  0  0  0  0  0  0  0
   -2.3650   -8.5121    2.7214 H   0  0  0  0  0  0  0  0  0  0  0  0
    5.1106   -4.1991    0.7497 O   0  0  0  0  0  0  0  0  0  0  0  0
    5.0691   -3.6903    2.0735 C   0  0  0  0  0  0  0  0  0  0  0  0
    6.0919   -3.7449    2.4495 H   0  0  0  0  0  0  0  0  0  0  0  0
    4.7326   -2.6458    2.0958 H   0  0  0  0  0  0  0  0  0  0  0  0
    4.4160   -4.2918    2.7189 H   0  0  0  0  0  0  0  0  0  0  0  0
  1  7  1  0  0  0  0
  2  8  1  0  0  0  0
  2  1  2  0  0  0  0
  3  2  1  0  0  0  0
  4  3  2  0  0  0  0
  4  5  1  0  0  0  0
  5  6  2  0  0  0  0
  6  1  1  0  0  0  0
  6 31  1  0  0  0  0
  9  4  1  0  0  0  0
 10  5  1  0  0  0  0
 12 11  3  0  0  0  0
 13 14  2  0  0  0  0
 14 15  1  0  0  0  0
 14 20  1  0  0  0  0
 15 27  1  0  0  0  0
 16 21  1  0  0  0  0
 16 15  2  0  0  0  0
 17 16  1  0  0  0  0
 18 17  2  0  0  0  0
 18 13  1  0  0  0  0
 19 13  1  0  0  0  0
 22 17  1  0  0  0  0
 23 24  1  0  0  0  0
 23 18  1  0  0  0  0
 24  3  1  0  0  0  0
 25 23  2  0  0  0  0
 26 23  2  0  0  0  0
 27 30  1  0  0  0  0
 27 28  1  0  0  0  0
 29 27  1  0  0  0  0
 31 32  1  0  0  0  0
 32 34  1  0  0  0  0
 32 33  1  0  0  0  0
 32 35  1  0  0  0  0
M  END
