Coordinates from ORCA-job 4-MeO-Ph-N2-OTs-B3LYPG-6-31G_dp-MTMO-d009-169-n800
 OpenBabel09051908173D

 35 35  0  0  0  0  0  0  0  0999 V2000
    3.4391   -4.0512    0.7006 C   0  0  0  0  0  0  0  0  0  0  0  0
    2.5057   -3.9226   -0.3319 C   0  0  0  0  0  0  0  0  0  0  0  0
    2.7543   -4.5036   -1.5705 C   0  0  0  0  0  0  0  0  0  0  0  0
    3.9310   -5.2233   -1.7994 C   0  0  0  0  0  0  0  0  0  0  0  0
    4.8553   -5.3591   -0.7729 C   0  0  0  0  0  0  0  0  0  0  0  0
    4.6180   -4.7742    0.4818 C   0  0  0  0  0  0  0  0  0  0  0  0
    3.2362   -3.5860    1.6574 H   0  0  0  0  0  0  0  0  0  0  0  0
    1.5896   -3.3612   -0.1819 H   0  0  0  0  0  0  0  0  0  0  0  0
    4.1049   -5.6702   -2.7706 H   0  0  0  0  0  0  0  0  0  0  0  0
    5.7781   -5.9100   -0.9200 H   0  0  0  0  0  0  0  0  0  0  0  0
   -7.9540   -7.6328    0.9313 N   0  0  0  0  0  0  0  0  0  0  0  0
   -8.9769   -8.0408    0.8383 N   0  0  0  0  0  0  0  0  0  0  0  0
   -0.2334   -6.5359   -0.8009 C   0  0  0  0  0  0  0  0  0  0  0  0
   -1.2077   -6.5869    0.1954 C   0  0  0  0  0  0  0  0  0  0  0  0
   -2.3218   -5.7372    0.1661 C   0  0  0  0  0  0  0  0  0  0  0  0
   -2.4394   -4.8227   -0.8929 C   0  0  0  0  0  0  0  0  0  0  0  0
   -1.4786   -4.7551   -1.8971 C   0  0  0  0  0  0  0  0  0  0  0  0
   -0.3795   -5.6166   -1.8399 C   0  0  0  0  0  0  0  0  0  0  0  0
    0.6202   -7.2044   -0.7856 H   0  0  0  0  0  0  0  0  0  0  0  0
   -1.1015   -7.3026    1.0065 H   0  0  0  0  0  0  0  0  0  0  0  0
   -3.2994   -4.1591   -0.9332 H   0  0  0  0  0  0  0  0  0  0  0  0
   -1.5782   -4.0592   -2.7234 H   0  0  0  0  0  0  0  0  0  0  0  0
    0.8582   -5.5292   -3.1208 S   0  0  0  0  0  0  0  0  0  0  0  0
    1.8411   -4.2789   -2.6086 O   0  0  0  0  0  0  0  0  0  0  0  0
    0.2588   -4.9966   -4.3352 O   0  0  0  0  0  0  0  0  0  0  0  0
    1.6318   -6.7677   -3.1118 O   0  0  0  0  0  0  0  0  0  0  0  0
   -3.3889   -5.8191    1.2306 C   0  0  0  0  0  0  0  0  0  0  0  0
   -3.7574   -4.8259    1.5041 H   0  0  0  0  0  0  0  0  0  0  0  0
   -4.2513   -6.3979    0.8777 H   0  0  0  0  0  0  0  0  0  0  0  0
   -3.0159   -6.3054    2.1357 H   0  0  0  0  0  0  0  0  0  0  0  0
    5.5953   -4.9648    1.4144 O   0  0  0  0  0  0  0  0  0  0  0  0
    5.4191   -4.3917    2.7000 C   0  0  0  0  0  0  0  0  0  0  0  0
    6.3071   -4.6612    3.2743 H   0  0  0  0  0  0  0  0  0  0  0  0
    5.3402   -3.2980    2.6492 H   0  0  0  0  0  0  0  0  0  0  0  0
    4.5297   -4.7919    3.2040 H   0  0  0  0  0  0  0  0  0  0  0  0
  1  7  1  0  0  0  0
  2  8  1  0  0  0  0
  2  1  2  0  0  0  0
  3  2  1  0  0  0  0
  4  3  2  0  0  0  0
  4  5  1  0  0  0  0
  5  6  2  0  0  0  0
  6  1  1  0  0  0  0
  6 31  1  0  0  0  0
  9  4  1  0  0  0  0
 10  5  1  0  0  0  0
 12 11  3  0  0  0  0
 13 19  1  0  0  0  0
 13 14  2  0  0  0  0
 14 20  1  0  0  0  0
 15 14  1  0  0  0  0
 15 27  1  0  0  0  0
 16 15  2  0  0  0  0
 17 18  2  0  0  0  0
 17 16  1  0  0  0  0
 18 13  1  0  0  0  0
 21 16  1  0  0  0  0
 22 17  1  0  0  0  0
 23 26  2  0  0  0  0
 23 24  1  0  0  0  0
 23 18  1  0  0  0  0
 24  3  1  0  0  0  0
 25 23  2  0  0  0  0
 27 28  1  0  0  0  0
 27 30  1  0  0  0  0
 29 27  1  0  0  0  0
 31 32  1  0  0  0  0
 32 35  1  0  0  0  0
 32 33  1  0  0  0  0
 34 32  1  0  0  0  0
M  END
