23
Coordinates from ORCA-job 4-MeO-Ph-N2-HSO4-B3LYPG-6-31G_dp-MTMO-d009-169-n800
  C   -0.80360485524465     -0.52883191640585      0.94028315639453
  C   0.43723923831805      0.11109181039597      0.88627286348540
  C   0.55205982858162      1.42349111764853      1.32247791123238
  C   -0.54964069537970      2.12339995626507      1.81514278332661
  C   -1.78345690639263      1.49033443591750      1.86785687001469
  C   -1.91933468037193      0.16214331301268      1.43073777339036
  H   -0.88429762772365     -1.55372285840167      0.60072836757687
  H   1.31095635934217     -0.40937442682939      0.51050978531665
  H   -0.43225347367261      3.14856906465418      2.14628259258187
  H   -2.66152301356560      2.00386859709923      2.24391018201584
  N   15.69615765093678      0.54518554028902     -6.12701068235450
  N   14.65341859747196      0.44790735349817     -5.77358343689249
  O   -3.17245490657461     -0.36228960405102      1.52638288704350
  C   -3.38257608814577     -1.69424353092415      1.08090599247695
  H   -4.44246202545862     -1.89946972335211      1.23753823066388
  H   -2.78770626253988     -2.41276385101941      1.65846409030668
  H   -3.14616004187518     -1.80502555981936      0.01485362217327
  S   2.25310748259765      2.99148569254323      0.08448917891402
  O   1.82702526226245      2.02970807549924      1.34153309882141
  O   1.12080310322406      3.77692570541472     -0.35069520469645
  O   3.52805979622182      3.55693474919982      0.47723674471088
  O   2.52018945743094      1.89350075638199     -1.09180063557839
  H   3.45125380055747      1.62187530298356     -1.02141617092390
