23
Coordinates from ORCA-job 4-MeO-Ph-N2-HSO4-B3LYPG-6-31G_dp-MTMO-d009-169-n800
  C   0.27694287549952      0.19041024316546     -0.34322092767999
  C   1.24648558112899      0.84772019402869     -1.07466240295219
  C   1.11347252192387      2.23059914631159     -1.16894953867738
  C   0.09880622529044      3.01094233197372     -0.60643222314047
  C   -0.85879957641671      2.32389803606265      0.11127415290646
  C   -0.72984609340388      0.92643153663403      0.31376647062267
  H   0.39645126214059     -0.87161091508495     -0.18447089187787
  H   2.10193068869254      0.31565460554524     -1.46600582064588
  H   0.08017603789589      4.08965201570225     -0.70413557059360
  H   -1.67044817916680      2.84698961256134      0.60309604880471
  N   2.37336675024252      2.96708511371863     -1.66323961541750
  N   3.30876830972428      3.46670431301705     -1.99750240857486
  O   -1.59601196578085      0.38552360857407      1.17116552991888
  C   -1.28095256779223     -0.90829810551179      1.73049696133893
  H   -1.96808995529999     -1.03143756986014      2.56668915027240
  H   -0.24235233296020     -0.91872402681327      2.07552521943204
  H   -1.45815726236972     -1.69924727757400      0.99396079368689
  S   3.29192305692373      0.14055851057921      1.31931787717431
  O   2.00900405778652      0.13320833227830      2.05723630823720
  O   3.46618793806282      1.32969492751161      0.44015737210066
  O   4.48666356981608     -0.27391920520840      2.06987624846167
  O   3.09751629649427     -1.12722047251530      0.18833404689565
  H   3.84176276156826     -1.71391495509602      0.38882321970733
