23
Coordinates from ORCA-job 4-MeO-Ph-N2-HSO4-B3LYPG-6-31G_dp-MTMO-d009-169-n800
  C   -0.02866730481044     -0.02072381861778      0.19671920230792
  C   1.17645842830794      0.49734943422478     -0.27329887666247
  C   1.24953524398030      1.86886746503662     -0.41549776461373
  C   0.22440920718093      2.77063792201738     -0.12628759187572
  C   -0.96153187731559      2.23323435157735      0.34144927320366
  C   -1.09692502290936      0.83815638191793      0.50749480491559
  H   -0.11477950915855     -1.09152565787375      0.32884466900133
  H   2.03303000154482     -0.12224897587490     -0.50698942931408
  H   0.35154827658878      3.83882887473977     -0.25444553760604
  H   -1.80096202808498      2.87115358982637      0.59361606134013
  N   2.55491108254151      2.52800790866820     -0.96112194835593
  N   3.08081675841424      3.43804546146650     -1.34156696833221
  O   -2.29430436617175      0.43082578336466      0.97279842330781
  C   -2.51500431791344     -0.96249745024476      1.19265670628852
  H   -3.53380689640522     -1.04264630088894      1.57102745893912
  H   -1.81592705700645     -1.36188522063096      1.93584294086713
  H   -2.42582784760827     -1.53015107979970      0.25966288223659
  S   4.58543912571307      0.67852951153534      0.37055426489395
  O   4.05323881397332      1.69091735790663      1.29177107138813
  O   3.93999412755210      0.80069521480453     -1.00258766287519
  O   6.03299411190545      0.46237078527677      0.30199262693595
  O   3.97014486301252     -0.77079955591596      0.93822441355986
  H   4.72001618666900     -1.38444198251612      0.90024098044973
