14
Coordinates from ORCA-job Ph-N2-Cl-B3LYPG-6-31G_dp-MTMO-d009-169-n800
  C   -1.64531499734778     -1.48464832738389     -1.32188651070860
  C   -0.23574853942778     -1.57928500804876     -1.32528083923130
  C   0.27308032611858     -0.41640948263833     -0.84141225266945
  C   -0.15727642211807      0.72842142853230     -0.38822760369312
  C   -1.57548312861848      0.78052494132729     -0.40254677862464
  C   -2.29303116387325     -0.32573432300663     -0.86859351040334
  H   -2.21833012654704     -2.33519577736887     -1.68052320699418
  H   0.31562263317178     -2.44675620624653     -1.66288525326825
  H   0.50740789853469      1.64982476451111      0.00294290690276
  H   -2.07391540497877      1.67936620519247     -0.05058677485817
  N   2.47299371607658     -0.37117673274021     -0.76727276132580
  N   3.17794905495353      0.41435746904689     -0.42446886524485
  Cl  1.53883672998355      2.93545757854864      0.55273083243785
  H   -3.37819057592754     -0.28884652972551     -0.88078938231892
