23
Coordinates from ORCA-job 4-NO2-Ph-N2-OTf-B3LYPG-6-31G_dp-MTMO-d009-169-n800
  C   -2.86474702430605     -1.45052351445300     -5.98370187716004
  C   -1.49418442631245     -1.22707624217996     -5.90271996456531
  C   -0.95186043007782     -0.76428329976489     -4.70373631042592
  C   -1.73966197308538     -0.51997699098612     -3.57858567964264
  C   -3.11245678870025     -0.73382001346135     -3.66280084851305
  C   -3.65180454667219     -1.19677631071318     -4.86157398985805
  H   -3.32941468872684     -1.81185641485022     -6.89215528810845
  H   -0.84302344909337     -1.40942858021137     -6.74976102314886
  H   -1.28621869441509     -0.16624510320668     -2.66106043065656
  H   -3.76547350117565     -0.55509996439109     -2.81807412189118
  N   -5.10397730675764     -1.42924118760042     -4.94515840318198
  O   -5.77534526784191     -1.19569021235536     -3.94207614884222
  O   -5.55280740265702     -1.83628763286031     -6.01532663712966
  N   9.58216856978566      8.38396797858776    -11.49788994227210
  N   8.76312519588046      7.74382700470695    -11.12193688762436
  S   1.16802377161722      0.82588816050887     -4.41678621252550
  C   1.38385091429769      1.30998766075913     -6.21154188664736
  O   0.23889040401904      1.76764308693912     -3.81675199718489
  O   2.47801039557707      0.53141698273111     -3.87617541007492
  O   0.44380609261014     -0.64474277991015     -4.63978824782895
  F   0.18451188122823      1.38583023819778     -6.79127248393841
  F   1.98334786640787      2.49470157409634     -6.25554519384379
  F   2.12434040839835      0.39888556041704     -6.83348101493604
