Coordinates from ORCA-job p-NO2-Ph-N2-NO3-B3LYPG-aug-cc-pVDZ-scan-d09-49-n400
 OpenBabel01151817083D

 19 18  0  0  0  0  0  0  0  0999 V2000
   -0.6351    0.1655   -1.5541 C   0  0  0  0  0  0  0  0  0  0  0  0
    0.7421    0.3486   -1.6595 C   0  0  0  0  0  0  0  0  0  0  0  0
    1.3511    1.3646   -0.9154 C   0  0  0  0  0  0  0  0  0  0  0  0
    0.6084    2.2123   -0.0869 C   0  0  0  0  0  0  0  0  0  0  0  0
   -0.7715    2.0437    0.0040 C   0  0  0  0  0  0  0  0  0  0  0  0
   -1.3703    1.0150   -0.7251 C   0  0  0  0  0  0  0  0  0  0  0  0
   -1.1452   -0.6146   -2.1131 H   0  0  0  0  0  0  0  0  0  0  0  0
    1.3330   -0.2892   -2.3121 H   0  0  0  0  0  0  0  0  0  0  0  0
    1.1171    3.0016    0.4632 H   0  0  0  0  0  0  0  0  0  0  0  0
   -1.3825    2.6890    0.6298 H   0  0  0  0  0  0  0  0  0  0  0  0
   -2.8308    0.8249   -0.6238 N   0  0  0  0  0  0  0  0  0  0  0  0
   -3.3323   -0.0933   -1.2671 O   0  0  0  0  0  0  0  0  0  0  0  0
   -3.4555    1.5894    0.1070 O   0  0  0  0  0  0  0  0  0  0  0  0
    2.0617    0.4163    2.2887 N   0  0  0  0  0  0  0  0  0  0  0  0
    1.5964   -0.0447    3.1782 N   0  0  0  0  0  0  0  0  0  0  0  0
    2.6965    1.6811   -1.0549 O   0  0  0  0  0  0  0  0  0  0  0  0
    3.6728    0.5993   -0.7640 N   0  0  0  0  0  0  0  0  0  0  0  0
    4.7932    1.0033   -0.8665 O   0  0  0  0  0  0  0  0  0  0  0  0
    3.2363   -0.4845   -0.4877 O   0  0  0  0  0  0  0  0  0  0  0  0
  1  6  1  0  0  0  0
  2  1  2  0  0  0  0
  2  3  1  0  0  0  0
  3  4  2  0  0  0  0
  4  5  1  0  0  0  0
  4  9  1  0  0  0  0
  5 10  1  0  0  0  0
  6 11  1  0  0  0  0
  6  5  2  0  0  0  0
  7  1  1  0  0  0  0
  8  2  1  0  0  0  0
 11 13  2  0  0  0  0
 12 11  2  0  0  0  0
 14 15  3  0  0  0  0
 16  3  1  0  0  0  0
 16 17  1  0  0  0  0
 17 19  2  0  0  0  0
 18 17  2  0  0  0  0
M  END
