Coordinates from ORCA-job p-NO2-Ph-N2-NO3-B3LYPG-aug-cc-pVDZ-scan-d09-49-n400
 OpenBabel01151817083D

 19 18  0  0  0  0  0  0  0  0999 V2000
   -0.7042    0.2616   -1.7878 C   0  0  0  0  0  0  0  0  0  0  0  0
    0.6736    0.4385   -1.8923 C   0  0  0  0  0  0  0  0  0  0  0  0
    1.3136    1.3293   -1.0259 C   0  0  0  0  0  0  0  0  0  0  0  0
    0.6078    2.0531   -0.0610 C   0  0  0  0  0  0  0  0  0  0  0  0
   -0.7729    1.8880    0.0389 C   0  0  0  0  0  0  0  0  0  0  0  0
   -1.4041    0.9903   -0.8235 C   0  0  0  0  0  0  0  0  0  0  0  0
   -1.2404   -0.4214   -2.4415 H   0  0  0  0  0  0  0  0  0  0  0  0
    1.2493   -0.1051   -2.6390 H   0  0  0  0  0  0  0  0  0  0  0  0
    1.1415    2.7431    0.5893 H   0  0  0  0  0  0  0  0  0  0  0  0
   -1.3603    2.4374    0.7700 H   0  0  0  0  0  0  0  0  0  0  0  0
   -2.8667    0.8082   -0.7163 N   0  0  0  0  0  0  0  0  0  0  0  0
   -3.3998    0.0140   -1.4862 O   0  0  0  0  0  0  0  0  0  0  0  0
   -3.4614    1.4642    0.1346 O   0  0  0  0  0  0  0  0  0  0  0  0
    2.3866    0.7157    2.7865 N   0  0  0  0  0  0  0  0  0  0  0  0
    2.0898    0.3428    3.7826 N   0  0  0  0  0  0  0  0  0  0  0  0
    2.6695    1.6026   -1.1680 O   0  0  0  0  0  0  0  0  0  0  0  0
    3.5778    0.5178   -0.7033 N   0  0  0  0  0  0  0  0  0  0  0  0
    4.7242    0.8295   -0.8346 O   0  0  0  0  0  0  0  0  0  0  0  0
    3.0616   -0.4813   -0.2817 O   0  0  0  0  0  0  0  0  0  0  0  0
  1  6  1  0  0  0  0
  2  1  2  0  0  0  0
  2  3  1  0  0  0  0
  3  4  2  0  0  0  0
  4  5  1  0  0  0  0
  4  9  1  0  0  0  0
  5 10  1  0  0  0  0
  6 11  1  0  0  0  0
  6  5  2  0  0  0  0
  7  1  1  0  0  0  0
  8  2  1  0  0  0  0
 11 13  2  0  0  0  0
 12 11  2  0  0  0  0
 14 15  3  0  0  0  0
 16  3  1  0  0  0  0
 16 17  1  0  0  0  0
 17 19  2  0  0  0  0
 18 17  2  0  0  0  0
M  END
