Coordinates from ORCA-job p-NO2-Ph-N2-NO3-B3LYPG-aug-cc-pVDZ-scan-d09-49-n400
 OpenBabel01151817073D

 19 18  0  0  0  0  0  0  0  0999 V2000
   -0.5964    0.0918   -1.3227 C   0  0  0  0  0  0  0  0  0  0  0  0
    0.7884    0.2490   -1.3811 C   0  0  0  0  0  0  0  0  0  0  0  0
    1.3719    1.3375   -0.7232 C   0  0  0  0  0  0  0  0  0  0  0  0
    0.5885    2.2938   -0.0614 C   0  0  0  0  0  0  0  0  0  0  0  0
   -0.7930    2.1445   -0.0206 C   0  0  0  0  0  0  0  0  0  0  0  0
   -1.3677    1.0336   -0.6424 C   0  0  0  0  0  0  0  0  0  0  0  0
   -1.0832   -0.7466   -1.8143 H   0  0  0  0  0  0  0  0  0  0  0  0
    1.3900   -0.4684   -1.9279 H   0  0  0  0  0  0  0  0  0  0  0  0
    1.0766    3.1424    0.4138 H   0  0  0  0  0  0  0  0  0  0  0  0
   -1.4253    2.8680    0.4875 H   0  0  0  0  0  0  0  0  0  0  0  0
   -2.8308    0.8622   -0.5935 N   0  0  0  0  0  0  0  0  0  0  0  0
   -3.3087   -0.1269   -1.1436 O   0  0  0  0  0  0  0  0  0  0  0  0
   -3.4853    1.7178   -0.0025 O   0  0  0  0  0  0  0  0  0  0  0  0
    1.9060    0.2719    1.6710 N   0  0  0  0  0  0  0  0  0  0  0  0
    1.3233   -0.2729    2.4349 N   0  0  0  0  0  0  0  0  0  0  0  0
    2.7119    1.6956   -0.8086 O   0  0  0  0  0  0  0  0  0  0  0  0
    3.7571    0.6612   -0.7769 N   0  0  0  0  0  0  0  0  0  0  0  0
    4.8415    1.1663   -0.7987 O   0  0  0  0  0  0  0  0  0  0  0  0
    3.4207   -0.4923   -0.7490 O   0  0  0  0  0  0  0  0  0  0  0  0
  1  6  1  0  0  0  0
  2  1  2  0  0  0  0
  2  3  1  0  0  0  0
  3  4  2  0  0  0  0
  4  5  1  0  0  0  0
  4  9  1  0  0  0  0
  5 10  1  0  0  0  0
  6 11  1  0  0  0  0
  6  5  2  0  0  0  0
  7  1  1  0  0  0  0
  8  2  1  0  0  0  0
 11 13  2  0  0  0  0
 12 11  2  0  0  0  0
 14 15  3  0  0  0  0
 16 17  1  0  0  0  0
 16  3  1  0  0  0  0
 17 19  2  0  0  0  0
 18 17  2  0  0  0  0
M  END
