Coordinates from ORCA-job p-NO2-Ph-N2-NO3-B3LYPG-aug-cc-pVDZ-scan-d09-49-n400
 OpenBabel01151817073D

 19 18  0  0  0  0  0  0  0  0999 V2000
   -0.6177    0.1339   -1.4615 C   0  0  0  0  0  0  0  0  0  0  0  0
    0.7618    0.3106   -1.5539 C   0  0  0  0  0  0  0  0  0  0  0  0
    1.3586    1.3624   -0.8505 C   0  0  0  0  0  0  0  0  0  0  0  0
    0.5992    2.2538   -0.0831 C   0  0  0  0  0  0  0  0  0  0  0  0
   -0.7813    2.0903   -0.0083 C   0  0  0  0  0  0  0  0  0  0  0  0
   -1.3683    1.0236   -0.6915 C   0  0  0  0  0  0  0  0  0  0  0  0
   -1.1174   -0.6741   -1.9896 H   0  0  0  0  0  0  0  0  0  0  0  0
    1.3582   -0.3604   -2.1653 H   0  0  0  0  0  0  0  0  0  0  0  0
    1.0983    3.0704    0.4348 H   0  0  0  0  0  0  0  0  0  0  0  0
   -1.4020    2.7681    0.5720 H   0  0  0  0  0  0  0  0  0  0  0  0
   -2.8294    0.8381   -0.6063 N   0  0  0  0  0  0  0  0  0  0  0  0
   -3.3202   -0.1113   -1.2117 O   0  0  0  0  0  0  0  0  0  0  0  0
   -3.4679    1.6444    0.0654 O   0  0  0  0  0  0  0  0  0  0  0  0
    2.0028    0.3476    2.0564 N   0  0  0  0  0  0  0  0  0  0  0  0
    1.4859   -0.1643    2.8871 N   0  0  0  0  0  0  0  0  0  0  0  0
    2.7020    1.6948   -0.9729 O   0  0  0  0  0  0  0  0  0  0  0  0
    3.7050    0.6241   -0.7663 N   0  0  0  0  0  0  0  0  0  0  0  0
    4.8127    1.0690   -0.8370 O   0  0  0  0  0  0  0  0  0  0  0  0
    3.3054   -0.4924   -0.5771 O   0  0  0  0  0  0  0  0  0  0  0  0
  1  6  1  0  0  0  0
  2  1  2  0  0  0  0
  2  3  1  0  0  0  0
  3  4  2  0  0  0  0
  4  5  1  0  0  0  0
  4  9  1  0  0  0  0
  5 10  1  0  0  0  0
  6 11  1  0  0  0  0
  6  5  2  0  0  0  0
  7  1  1  0  0  0  0
  8  2  1  0  0  0  0
 11 13  2  0  0  0  0
 12 11  2  0  0  0  0
 14 15  3  0  0  0  0
 16  3  1  0  0  0  0
 16 17  1  0  0  0  0
 17 19  2  0  0  0  0
 18 17  2  0  0  0  0
M  END
