Coordinates from ORCA-job p-NO2-Ph-N2-NO3-B3LYPG-aug-cc-pVDZ-scan-d09-49-n400
 OpenBabel01151817073D

 19 19  0  0  1  0  0  0  0  0999 V2000
   -0.1313    0.1968   -1.1814 C   0  0  0  0  0  0  0  0  0  0  0  0
    1.0615   -0.1685   -0.3586 C   0  0  2  0  0  0  0  0  0  0  0  0
    1.2985    0.7291    0.9477 C   0  0  0  0  0  0  0  0  0  0  0  0
    0.2053    1.7176    1.2369 C   0  0  0  0  0  0  0  0  0  0  0  0
   -0.8776    1.8827    0.4576 C   0  0  0  0  0  0  0  0  0  0  0  0
   -1.0223    1.1061   -0.7597 C   0  0  0  0  0  0  0  0  0  0  0  0
   -0.2770   -0.3319   -2.1221 H   0  0  0  0  0  0  0  0  0  0  0  0
    0.9656   -1.2058    0.0031 H   0  0  0  0  0  0  0  0  0  0  0  0
    0.3650    2.3126    2.1363 H   0  0  0  0  0  0  0  0  0  0  0  0
   -1.6431    2.6134    0.7032 H   0  0  0  0  0  0  0  0  0  0  0  0
   -2.2161    1.3620   -1.6052 N   0  0  0  0  0  0  0  0  0  0  0  0
   -2.3409    0.7170   -2.6398 O   0  0  0  0  0  0  0  0  0  0  0  0
   -3.0040    2.2139   -1.2063 O   0  0  0  0  0  0  0  0  0  0  0  0
    2.0473    0.5991    1.4481 N   0  0  0  0  0  0  0  0  0  0  0  0
    3.0302    0.4118    2.0843 N   0  0  0  0  0  0  0  0  0  0  0  0
    2.1309    1.9346   -1.5279 O   0  0  0  0  0  0  0  0  0  0  0  0
    2.7355    0.9182   -1.7746 N   0  0  0  0  0  0  0  0  0  0  0  0
    3.6842    0.7174   -2.4750 O   0  0  0  0  0  0  0  0  0  0  0  0
    2.2741   -0.2976   -1.1259 O   0  0  0  0  0  0  0  0  0  0  0  0
  1  6  2  0  0  0  0
  1  2  1  0  0  0  0
  2  8  1  1  0  0  0
  2  3  1  0  0  0  0
  3  4  2  0  0  0  0
  3 14  1  0  0  0  0
  4  9  1  0  0  0  0
  5 10  1  0  0  0  0
  5  4  1  0  0  0  0
  6  5  1  0  0  0  0
  7  1  1  0  0  0  0
 11 13  2  0  0  0  0
 11  6  1  0  0  0  0
 12 11  2  0  0  0  0
 14 15  1  0  0  0  0
 17 16  2  0  0  0  0
 17 19  1  0  0  0  0
 18 17  2  0  0  0  0
 19  2  1  0  0  0  0
M  RAD  3   5   2  14   2  15   3
M  END
