Coordinates from ORCA-job p-NO2-Ph-N2-NO3-B3LYPG-aug-cc-pVDZ-scan-d09-49-n400
 OpenBabel01151817073D

 19 18  0  0  0  0  0  0  0  0999 V2000
   -0.5936    0.0859   -1.3045 C   0  0  0  0  0  0  0  0  0  0  0  0
    0.7918    0.2400   -1.3576 C   0  0  0  0  0  0  0  0  0  0  0  0
    1.3749    1.3304   -0.7009 C   0  0  0  0  0  0  0  0  0  0  0  0
    0.5882    2.2960   -0.0553 C   0  0  0  0  0  0  0  0  0  0  0  0
   -0.7933    2.1490   -0.0193 C   0  0  0  0  0  0  0  0  0  0  0  0
   -1.3668    1.0333   -0.6341 C   0  0  0  0  0  0  0  0  0  0  0  0
   -1.0794   -0.7548   -1.7932 H   0  0  0  0  0  0  0  0  0  0  0  0
    1.3939   -0.4822   -1.8970 H   0  0  0  0  0  0  0  0  0  0  0  0
    1.0748    3.1488    0.4143 H   0  0  0  0  0  0  0  0  0  0  0  0
   -1.4268    2.8783    0.4788 H   0  0  0  0  0  0  0  0  0  0  0  0
   -2.8301    0.8643   -0.5906 N   0  0  0  0  0  0  0  0  0  0  0  0
   -3.3072   -0.1274   -1.1369 O   0  0  0  0  0  0  0  0  0  0  0  0
   -3.4862    1.7263   -0.0106 O   0  0  0  0  0  0  0  0  0  0  0  0
    1.8884    0.2682    1.6096 N   0  0  0  0  0  0  0  0  0  0  0  0
    1.2963   -0.2738    2.3685 N   0  0  0  0  0  0  0  0  0  0  0  0
    2.7140    1.6930   -0.7852 O   0  0  0  0  0  0  0  0  0  0  0  0
    3.7645    0.6658   -0.7784 N   0  0  0  0  0  0  0  0  0  0  0  0
    4.8459    1.1778   -0.7947 O   0  0  0  0  0  0  0  0  0  0  0  0
    3.4360   -0.4905   -0.7722 O   0  0  0  0  0  0  0  0  0  0  0  0
  1  6  1  0  0  0  0
  2  1  2  0  0  0  0
  2  3  1  0  0  0  0
  3  4  2  0  0  0  0
  4  5  1  0  0  0  0
  4  9  1  0  0  0  0
  5 10  1  0  0  0  0
  6 11  1  0  0  0  0
  6  5  2  0  0  0  0
  7  1  1  0  0  0  0
  8  2  1  0  0  0  0
 11 13  2  0  0  0  0
 12 11  2  0  0  0  0
 14 15  3  0  0  0  0
 16 17  1  0  0  0  0
 16  3  1  0  0  0  0
 17 19  2  0  0  0  0
 18 17  2  0  0  0  0
M  END
