Coordinates from ORCA-job p-NO2-Ph-N2-NO3-B3LYPG-aug-cc-pVDZ-scan-d09-49-n400
 OpenBabel01151817073D

 19 18  0  0  0  0  0  0  0  0999 V2000
   -0.5801    0.0583   -1.2266 C   0  0  0  0  0  0  0  0  0  0  0  0
    0.8040    0.1885   -1.2358 C   0  0  0  0  0  0  0  0  0  0  0  0
    1.3983    1.2335   -0.4959 C   0  0  0  0  0  0  0  0  0  0  0  0
    0.5921    2.2788    0.0103 C   0  0  0  0  0  0  0  0  0  0  0  0
   -0.7873    2.1520    0.0062 C   0  0  0  0  0  0  0  0  0  0  0  0
   -1.3610    1.0180   -0.5787 C   0  0  0  0  0  0  0  0  0  0  0  0
   -1.0648   -0.7674   -1.7415 H   0  0  0  0  0  0  0  0  0  0  0  0
    1.4137   -0.5409   -1.7563 H   0  0  0  0  0  0  0  0  0  0  0  0
    1.0763    3.1486    0.4501 H   0  0  0  0  0  0  0  0  0  0  0  0
   -1.4257    2.9193    0.4365 H   0  0  0  0  0  0  0  0  0  0  0  0
   -2.8238    0.8718   -0.5758 N   0  0  0  0  0  0  0  0  0  0  0  0
   -3.3000   -0.1239   -1.1170 O   0  0  0  0  0  0  0  0  0  0  0  0
   -3.4843    1.7543   -0.0313 O   0  0  0  0  0  0  0  0  0  0  0  0
    1.7829    0.3318    1.2160 N   0  0  0  0  0  0  0  0  0  0  0  0
    1.1445   -0.1843    1.9635 N   0  0  0  0  0  0  0  0  0  0  0  0
    2.7200    1.6595   -0.6724 O   0  0  0  0  0  0  0  0  0  0  0  0
    3.8010    0.6835   -0.7731 N   0  0  0  0  0  0  0  0  0  0  0  0
    4.8614    1.2347   -0.8411 O   0  0  0  0  0  0  0  0  0  0  0  0
    3.5185   -0.4875   -0.7962 O   0  0  0  0  0  0  0  0  0  0  0  0
  1  6  1  0  0  0  0
  2  1  2  0  0  0  0
  2  3  1  0  0  0  0
  3  4  2  0  0  0  0
  4  9  1  0  0  0  0
  5  4  1  0  0  0  0
  5 10  1  0  0  0  0
  6 11  1  0  0  0  0
  6  5  2  0  0  0  0
  7  1  1  0  0  0  0
  8  2  1  0  0  0  0
 11 13  2  0  0  0  0
 12 11  2  0  0  0  0
 14 15  3  0  0  0  0
 16  3  1  0  0  0  0
 17 16  1  0  0  0  0
 18 17  2  0  0  0  0
 19 17  2  0  0  0  0
M  END
