Coordinates from ORCA-job p-NO2-Ph-N2-NO3-B3LYPG-aug-cc-pVDZ-scan-d09-49-n400
 OpenBabel01151817083D

 19 18  0  0  0  0  0  0  0  0999 V2000
   -0.7995    0.3799   -2.0209 C   0  0  0  0  0  0  0  0  0  0  0  0
    0.5850    0.5205   -2.1019 C   0  0  0  0  0  0  0  0  0  0  0  0
    1.2543    1.2492   -1.1166 C   0  0  0  0  0  0  0  0  0  0  0  0
    0.5760    1.8416   -0.0469 C   0  0  0  0  0  0  0  0  0  0  0  0
   -0.8080    1.7032    0.0383 C   0  0  0  0  0  0  0  0  0  0  0  0
   -1.4711    0.9732   -0.9505 C   0  0  0  0  0  0  0  0  0  0  0  0
   -1.3600   -0.1758   -2.7681 H   0  0  0  0  0  0  0  0  0  0  0  0
    1.1464    0.0787   -2.9234 H   0  0  0  0  0  0  0  0  0  0  0  0
    1.1314    2.4048    0.7006 H   0  0  0  0  0  0  0  0  0  0  0  0
   -1.3763    2.1499    0.8500 H   0  0  0  0  0  0  0  0  0  0  0  0
   -2.9396    0.8261   -0.8623 N   0  0  0  0  0  0  0  0  0  0  0  0
   -3.5012    0.1821   -1.7439 O   0  0  0  0  0  0  0  0  0  0  0  0
   -3.5089    1.3575    0.0870 O   0  0  0  0  0  0  0  0  0  0  0  0
    2.8683    1.0935    3.3050 N   0  0  0  0  0  0  0  0  0  0  0  0
    2.8711    0.6943    4.3345 N   0  0  0  0  0  0  0  0  0  0  0  0
    2.6222    1.4701   -1.2465 O   0  0  0  0  0  0  0  0  0  0  0  0
    3.4697    0.4439   -0.5734 N   0  0  0  0  0  0  0  0  0  0  0  0
    4.6323    0.6877   -0.7027 O   0  0  0  0  0  0  0  0  0  0  0  0
    2.8935   -0.4519   -0.0177 O   0  0  0  0  0  0  0  0  0  0  0  0
  1  6  1  0  0  0  0
  2  1  2  0  0  0  0
  2  3  1  0  0  0  0
  3  4  2  0  0  0  0
  4  5  1  0  0  0  0
  4  9  1  0  0  0  0
  5 10  1  0  0  0  0
  6 11  1  0  0  0  0
  6  5  2  0  0  0  0
  7  1  1  0  0  0  0
  8  2  1  0  0  0  0
 11 13  2  0  0  0  0
 12 11  2  0  0  0  0
 14 15  3  0  0  0  0
 16  3  1  0  0  0  0
 16 17  1  0  0  0  0
 17 19  2  0  0  0  0
 18 17  2  0  0  0  0
M  END
