Coordinates from ORCA-job p-NO2-Ph-N2-NO3-B3LYPG-aug-cc-pVDZ-scan-d09-49-n400
 OpenBabel01151817073D

 19 18  0  0  0  0  0  0  0  0999 V2000
   -0.5872    0.0731   -1.2638 C   0  0  0  0  0  0  0  0  0  0  0  0
    0.7990    0.2193   -1.3024 C   0  0  0  0  0  0  0  0  0  0  0  0
    1.3824    1.3065   -0.6389 C   0  0  0  0  0  0  0  0  0  0  0  0
    0.5893    2.2964   -0.0363 C   0  0  0  0  0  0  0  0  0  0  0  0
   -0.7922    2.1558   -0.0137 C   0  0  0  0  0  0  0  0  0  0  0  0
   -1.3644    1.0307   -0.6130 C   0  0  0  0  0  0  0  0  0  0  0  0
   -1.0711   -0.7695   -1.7511 H   0  0  0  0  0  0  0  0  0  0  0  0
    1.4032   -0.5119   -1.8264 H   0  0  0  0  0  0  0  0  0  0  0  0
    1.0731    3.1579    0.4197 H   0  0  0  0  0  0  0  0  0  0  0  0
   -1.4281    2.8996    0.4594 H   0  0  0  0  0  0  0  0  0  0  0  0
   -2.8283    0.8690   -0.5839 N   0  0  0  0  0  0  0  0  0  0  0  0
   -3.3036   -0.1287   -1.1208 O   0  0  0  0  0  0  0  0  0  0  0  0
   -3.4870    1.7419   -0.0234 O   0  0  0  0  0  0  0  0  0  0  0  0
    1.8450    0.2739    1.4478 N   0  0  0  0  0  0  0  0  0  0  0  0
    1.2297   -0.2586    2.1961 N   0  0  0  0  0  0  0  0  0  0  0  0
    2.7175    1.6830   -0.7301 O   0  0  0  0  0  0  0  0  0  0  0  0
    3.7813    0.6742   -0.7770 N   0  0  0  0  0  0  0  0  0  0  0  0
    4.8546    1.2035   -0.7884 O   0  0  0  0  0  0  0  0  0  0  0  0
    3.4723   -0.4875   -0.8130 O   0  0  0  0  0  0  0  0  0  0  0  0
  1  6  1  0  0  0  0
  2  1  2  0  0  0  0
  2  3  1  0  0  0  0
  3  4  2  0  0  0  0
  4  5  1  0  0  0  0
  4  9  1  0  0  0  0
  5 10  1  0  0  0  0
  6 11  1  0  0  0  0
  6  5  2  0  0  0  0
  7  1  1  0  0  0  0
  8  2  1  0  0  0  0
 11 13  2  0  0  0  0
 12 11  2  0  0  0  0
 14 15  3  0  0  0  0
 16  3  1  0  0  0  0
 17 16  1  0  0  0  0
 18 17  2  0  0  0  0
 19 17  2  0  0  0  0
M  END
