Coordinates from ORCA-job p-NO2-Ph-N2-NO3-B3LYPG-aug-cc-pVDZ-scan-d09-49-n400
 OpenBabel01151817083D

 19 18  0  0  0  0  0  0  0  0999 V2000
   -0.7451    0.3157   -1.8956 C   0  0  0  0  0  0  0  0  0  0  0  0
    0.6357    0.4790   -1.9846 C   0  0  0  0  0  0  0  0  0  0  0  0
    1.2869    1.2971   -1.0574 C   0  0  0  0  0  0  0  0  0  0  0  0
    0.5903    1.9600   -0.0442 C   0  0  0  0  0  0  0  0  0  0  0  0
   -0.7922    1.8057    0.0453 C   0  0  0  0  0  0  0  0  0  0  0  0
   -1.4351    0.9826   -0.8808 C   0  0  0  0  0  0  0  0  0  0  0  0
   -1.2902   -0.3106   -2.5968 H   0  0  0  0  0  0  0  0  0  0  0  0
    1.2074   -0.0175   -2.7667 H   0  0  0  0  0  0  0  0  0  0  0  0
    1.1324    2.5940    0.6549 H   0  0  0  0  0  0  0  0  0  0  0  0
   -1.3727    2.3081    0.8146 H   0  0  0  0  0  0  0  0  0  0  0  0
   -2.9007    0.8141   -0.7870 N   0  0  0  0  0  0  0  0  0  0  0  0
   -3.4441    0.0859   -1.6127 O   0  0  0  0  0  0  0  0  0  0  0  0
   -3.4861    1.4121    0.1116 O   0  0  0  0  0  0  0  0  0  0  0  0
    2.6218    0.9030    2.9883 N   0  0  0  0  0  0  0  0  0  0  0  0
    2.4483    0.5089    4.0050 N   0  0  0  0  0  0  0  0  0  0  0  0
    2.6493    1.5456   -1.1901 O   0  0  0  0  0  0  0  0  0  0  0  0
    3.5244    0.4752   -0.6373 N   0  0  0  0  0  0  0  0  0  0  0  0
    4.6804    0.7504   -0.7649 O   0  0  0  0  0  0  0  0  0  0  0  0
    2.9749   -0.4810   -0.1608 O   0  0  0  0  0  0  0  0  0  0  0  0
  1  6  1  0  0  0  0
  2  1  2  0  0  0  0
  2  3  1  0  0  0  0
  3  4  2  0  0  0  0
  4  5  1  0  0  0  0
  4  9  1  0  0  0  0
  5 10  1  0  0  0  0
  6 11  1  0  0  0  0
  6  5  2  0  0  0  0
  7  1  1  0  0  0  0
  8  2  1  0  0  0  0
 11 13  2  0  0  0  0
 12 11  2  0  0  0  0
 14 15  3  0  0  0  0
 16  3  1  0  0  0  0
 16 17  1  0  0  0  0
 17 19  2  0  0  0  0
 18 17  2  0  0  0  0
M  END
