Coordinates from ORCA-job p-NO2-Ph-N2-NO3-B3LYPG-aug-cc-pVDZ-scan-d09-49-n400
 OpenBabel01151817073D

 19 18  0  0  0  0  0  0  0  0999 V2000
   -0.5907    0.0803   -1.2857 C   0  0  0  0  0  0  0  0  0  0  0  0
    0.7952    0.2310   -1.3328 C   0  0  0  0  0  0  0  0  0  0  0  0
    1.3777    1.3219   -0.6766 C   0  0  0  0  0  0  0  0  0  0  0  0
    0.5885    2.2974   -0.0486 C   0  0  0  0  0  0  0  0  0  0  0  0
   -0.7930    2.1531   -0.0181 C   0  0  0  0  0  0  0  0  0  0  0  0
   -1.3659    1.0329   -0.6253 C   0  0  0  0  0  0  0  0  0  0  0  0
   -1.0754   -0.7624   -1.7721 H   0  0  0  0  0  0  0  0  0  0  0  0
    1.3981   -0.4962   -1.8641 H   0  0  0  0  0  0  0  0  0  0  0  0
    1.0746    3.1535    0.4152 H   0  0  0  0  0  0  0  0  0  0  0  0
   -1.4276    2.8887    0.4693 H   0  0  0  0  0  0  0  0  0  0  0  0
   -2.8294    0.8668   -0.5877 N   0  0  0  0  0  0  0  0  0  0  0  0
   -3.3055   -0.1284   -1.1284 O   0  0  0  0  0  0  0  0  0  0  0  0
   -3.4868    1.7339   -0.0168 O   0  0  0  0  0  0  0  0  0  0  0  0
    1.8688    0.2664    1.5403 N   0  0  0  0  0  0  0  0  0  0  0  0
    1.2667   -0.2719    2.2943 N   0  0  0  0  0  0  0  0  0  0  0  0
    2.7154    1.6895   -0.7601 O   0  0  0  0  0  0  0  0  0  0  0  0
    3.7721    0.6703   -0.7782 N   0  0  0  0  0  0  0  0  0  0  0  0
    4.8497    1.1906   -0.7903 O   0  0  0  0  0  0  0  0  0  0  0  0
    3.4529   -0.4887   -0.7934 O   0  0  0  0  0  0  0  0  0  0  0  0
  1  6  1  0  0  0  0
  2  1  2  0  0  0  0
  2  3  1  0  0  0  0
  3  4  2  0  0  0  0
  4  5  1  0  0  0  0
  4  9  1  0  0  0  0
  5 10  1  0  0  0  0
  6 11  1  0  0  0  0
  6  5  2  0  0  0  0
  7  1  1  0  0  0  0
  8  2  1  0  0  0  0
 11 13  2  0  0  0  0
 12 11  2  0  0  0  0
 14 15  3  0  0  0  0
 16  3  1  0  0  0  0
 17 16  1  0  0  0  0
 18 17  2  0  0  0  0
 19 17  2  0  0  0  0
M  END
