Coordinates from ORCA-job p-NO2-Ph-N2-NO3-B3LYPG-aug-cc-pVDZ-scan-d09-49-n400
 OpenBabel01151817073D

 19 19  0  0  1  0  0  0  0  0999 V2000
   -0.1873    0.0673   -1.1044 C   0  0  0  0  0  0  0  0  0  0  0  0
    1.0757   -0.1989   -0.3538 C   0  0  2  0  0  0  0  0  0  0  0  0
    1.1348    0.6469    0.8663 C   0  0  2  0  0  0  0  0  0  0  0  0
    0.2999    1.7729    1.1316 C   0  0  0  0  0  0  0  0  0  0  0  0
   -0.7513    2.0265    0.3022 C   0  0  0  0  0  0  0  0  0  0  0  0
   -0.9823    1.1161   -0.7880 C   0  0  0  0  0  0  0  0  0  0  0  0
   -0.4532   -0.5997   -1.9202 H   0  0  0  0  0  0  0  0  0  0  0  0
    1.1904   -1.2693   -0.1366 H   0  0  0  0  0  0  0  0  0  0  0  0
    0.5085    2.4053    1.9929 H   0  0  0  0  0  0  0  0  0  0  0  0
   -1.4171    2.8689    0.4534 H   0  0  0  0  0  0  0  0  0  0  0  0
   -2.2070    1.3256   -1.6094 N   0  0  0  0  0  0  0  0  0  0  0  0
   -2.4516    0.5206   -2.5013 O   0  0  0  0  0  0  0  0  0  0  0  0
   -2.9189    2.2803   -1.3138 O   0  0  0  0  0  0  0  0  0  0  0  0
    2.1119    0.2894    1.8346 N   0  0  0  0  0  0  0  0  0  0  0  0
    2.9011   -0.0057    2.5887 N   0  0  0  0  0  0  0  0  0  0  0  0
    1.9198    2.0846   -1.5614 O   0  0  0  0  0  0  0  0  0  0  0  0
    2.6193    1.1344   -1.8364 N   0  0  0  0  0  0  0  0  0  0  0  0
    3.5851    1.0779   -2.5553 O   0  0  0  0  0  0  0  0  0  0  0  0
    2.3079   -0.1147   -1.2486 O   0  0  0  0  0  0  0  0  0  0  0  0
  1  6  2  0  0  0  0
  1  2  1  0  0  0  0
  2  8  1  1  0  0  0
  2  3  1  0  0  0  0
  3  4  1  0  0  0  0
  3 14  1  6  0  0  0
  4  9  1  0  0  0  0
  5 10  1  0  0  0  0
  5  4  2  0  0  0  0
  6  5  1  0  0  0  0
  7  1  1  0  0  0  0
 11 13  2  0  0  0  0
 11  6  1  0  0  0  0
 12 11  2  0  0  0  0
 14 15  1  0  0  0  0
 17 16  2  0  0  0  0
 17 19  1  0  0  0  0
 18 17  2  0  0  0  0
 19  2  1  0  0  0  0
M  RAD  3   3   2  14   2  15   3
M  END
