Coordinates from ORCA-job p-NO2-Ph-N2-NO3-B3LYPG-aug-cc-pVDZ-scan-d09-49-n400
 OpenBabel01151817083D

 19 18  0  0  0  0  0  0  0  0999 V2000
   -0.7893    0.3685   -1.9984 C   0  0  0  0  0  0  0  0  0  0  0  0
    0.5946    0.5137   -2.0804 C   0  0  0  0  0  0  0  0  0  0  0  0
    1.2608    1.2587   -1.1046 C   0  0  0  0  0  0  0  0  0  0  0  0
    0.5787    1.8633   -0.0457 C   0  0  0  0  0  0  0  0  0  0  0  0
   -0.8050    1.7218    0.0409 C   0  0  0  0  0  0  0  0  0  0  0  0
   -1.4644    0.9748   -0.9374 C   0  0  0  0  0  0  0  0  0  0  0  0
   -1.3468   -0.2002   -2.7381 H   0  0  0  0  0  0  0  0  0  0  0  0
    1.1580    0.0622   -2.8952 H   0  0  0  0  0  0  0  0  0  0  0  0
    1.1320    2.4397    0.6934 H   0  0  0  0  0  0  0  0  0  0  0  0
   -1.3752    2.1784    0.8456 H   0  0  0  0  0  0  0  0  0  0  0  0
   -2.9324    0.8236   -0.8484 N   0  0  0  0  0  0  0  0  0  0  0  0
   -3.4906    0.1638   -1.7206 O   0  0  0  0  0  0  0  0  0  0  0  0
   -3.5046    1.3664    0.0926 O   0  0  0  0  0  0  0  0  0  0  0  0
    2.8213    1.0613    3.2386 N   0  0  0  0  0  0  0  0  0  0  0  0
    2.7952    0.6600    4.2668 N   0  0  0  0  0  0  0  0  0  0  0  0
    2.6280    1.4829   -1.2364 O   0  0  0  0  0  0  0  0  0  0  0  0
    3.4787    0.4491   -0.5823 N   0  0  0  0  0  0  0  0  0  0  0  0
    4.6407    0.6973   -0.7099 O   0  0  0  0  0  0  0  0  0  0  0  0
    2.9057   -0.4568   -0.0398 O   0  0  0  0  0  0  0  0  0  0  0  0
  1  6  1  0  0  0  0
  2  1  2  0  0  0  0
  2  3  1  0  0  0  0
  3  4  2  0  0  0  0
  4  5  1  0  0  0  0
  4  9  1  0  0  0  0
  5 10  1  0  0  0  0
  6 11  1  0  0  0  0
  6  5  2  0  0  0  0
  7  1  1  0  0  0  0
  8  2  1  0  0  0  0
 11 13  2  0  0  0  0
 12 11  2  0  0  0  0
 14 15  3  0  0  0  0
 16  3  1  0  0  0  0
 16 17  1  0  0  0  0
 17 19  2  0  0  0  0
 18 17  2  0  0  0  0
M  END
