Coordinates from ORCA-job p-NO2-Ph-N2-NO3-B3LYPG-aug-cc-pVDZ-scan-d09-49-n400
 OpenBabel01151817073D

 19 19  0  0  1  0  0  0  0  0999 V2000
   -0.1620    0.0977   -1.1249 C   0  0  0  0  0  0  0  0  0  0  0  0
    1.0868   -0.1881   -0.3536 C   0  0  2  0  0  0  0  0  0  0  0  0
    1.2176    0.6516    0.9230 C   0  0  0  0  0  0  0  0  0  0  0  0
    0.2996    1.7713    1.1486 C   0  0  0  0  0  0  0  0  0  0  0  0
   -0.7630    1.9911    0.3433 C   0  0  0  0  0  0  0  0  0  0  0  0
   -0.9860    1.1029   -0.7760 C   0  0  0  0  0  0  0  0  0  0  0  0
   -0.3920   -0.5387   -1.9763 H   0  0  0  0  0  0  0  0  0  0  0  0
    1.1333   -1.2567   -0.0948 H   0  0  0  0  0  0  0  0  0  0  0  0
    0.5052    2.4158    2.0027 H   0  0  0  0  0  0  0  0  0  0  0  0
   -1.4503    2.8135    0.5137 H   0  0  0  0  0  0  0  0  0  0  0  0
   -2.2110    1.3158   -1.5934 N   0  0  0  0  0  0  0  0  0  0  0  0
   -2.4235    0.5517   -2.5280 O   0  0  0  0  0  0  0  0  0  0  0  0
   -2.9367    2.2513   -1.2712 O   0  0  0  0  0  0  0  0  0  0  0  0
    2.0200    0.3754    1.6701 N   0  0  0  0  0  0  0  0  0  0  0  0
    2.8446    0.0766    2.4193 N   0  0  0  0  0  0  0  0  0  0  0  0
    1.9750    2.0600   -1.5108 O   0  0  0  0  0  0  0  0  0  0  0  0
    2.6416    1.0952   -1.8063 N   0  0  0  0  0  0  0  0  0  0  0  0
    3.5888    1.0011   -2.5388 O   0  0  0  0  0  0  0  0  0  0  0  0
    2.2975   -0.1589   -1.2060 O   0  0  0  0  0  0  0  0  0  0  0  0
  1  6  2  0  0  0  0
  1  2  1  0  0  0  0
  2  8  1  1  0  0  0
  2  3  1  0  0  0  0
  3  4  2  0  0  0  0
  3 14  1  0  0  0  0
  4  9  1  0  0  0  0
  5 10  1  0  0  0  0
  5  4  1  0  0  0  0
  6  5  1  0  0  0  0
  7  1  1  0  0  0  0
 11 13  2  0  0  0  0
 11  6  1  0  0  0  0
 12 11  2  0  0  0  0
 14 15  1  0  0  0  0
 17 16  2  0  0  0  0
 17 19  1  0  0  0  0
 18 17  2  0  0  0  0
 19  2  1  0  0  0  0
M  RAD  3   5   2  14   2  15   3
M  END
