Coordinates from ORCA-job p-NO2-Ph-N2-NO3-B3LYPG-aug-cc-pVDZ-scan-d09-49-n400
 OpenBabel01151817073D

 19 19  0  0  1  0  0  0  0  0999 V2000
   -0.1750    0.0790   -1.1124 C   0  0  0  0  0  0  0  0  0  0  0  0
    1.0829   -0.1936   -0.3523 C   0  0  2  0  0  0  0  0  0  0  0  0
    1.1782    0.6477    0.8955 C   0  0  0  0  0  0  0  0  0  0  0  0
    0.3044    1.7733    1.1376 C   0  0  0  0  0  0  0  0  0  0  0  0
   -0.7534    2.0098    0.3218 C   0  0  0  0  0  0  0  0  0  0  0  0
   -0.9833    1.1071   -0.7805 C   0  0  0  0  0  0  0  0  0  0  0  0
   -0.4244   -0.5746   -1.9445 H   0  0  0  0  0  0  0  0  0  0  0  0
    1.1663   -1.2644   -0.1178 H   0  0  0  0  0  0  0  0  0  0  0  0
    0.5113    2.4144    1.9934 H   0  0  0  0  0  0  0  0  0  0  0  0
   -1.4295    2.8429    0.4815 H   0  0  0  0  0  0  0  0  0  0  0  0
   -2.2102    1.3164   -1.5977 N   0  0  0  0  0  0  0  0  0  0  0  0
   -2.4361    0.5349   -2.5148 O   0  0  0  0  0  0  0  0  0  0  0  0
   -2.9222    2.2692   -1.2965 O   0  0  0  0  0  0  0  0  0  0  0  0
    2.0615    0.3299    1.7522 N   0  0  0  0  0  0  0  0  0  0  0  0
    2.8621    0.0296    2.5077 N   0  0  0  0  0  0  0  0  0  0  0  0
    1.9435    2.0761   -1.5333 O   0  0  0  0  0  0  0  0  0  0  0  0
    2.6264    1.1192   -1.8213 N   0  0  0  0  0  0  0  0  0  0  0  0
    3.5821    1.0453   -2.5487 O   0  0  0  0  0  0  0  0  0  0  0  0
    2.3009   -0.1337   -1.2291 O   0  0  0  0  0  0  0  0  0  0  0  0
  1  6  2  0  0  0  0
  1  2  1  0  0  0  0
  2  8  1  1  0  0  0
  2  3  1  0  0  0  0
  3  4  2  0  0  0  0
  3 14  1  0  0  0  0
  4  9  1  0  0  0  0
  5 10  1  0  0  0  0
  5  4  1  0  0  0  0
  6  5  1  0  0  0  0
  7  1  1  0  0  0  0
 11 13  2  0  0  0  0
 11  6  1  0  0  0  0
 12 11  2  0  0  0  0
 14 15  1  0  0  0  0
 17 16  2  0  0  0  0
 17 19  1  0  0  0  0
 18 17  2  0  0  0  0
 19  2  1  0  0  0  0
M  RAD  3   5   2  14   2  15   3
M  END
