Coordinates from ORCA-job p-NO2-Ph-N2-NO3-B3LYPG-aug-cc-pVDZ-scan-d09-49-n400
 OpenBabel01151817073D

 19 18  0  0  0  0  0  0  0  0999 V2000
   -0.6083    0.1145   -1.3985 C   0  0  0  0  0  0  0  0  0  0  0  0
    0.7737    0.2828   -1.4752 C   0  0  0  0  0  0  0  0  0  0  0  0
    1.3631    1.3541   -0.7945 C   0  0  0  0  0  0  0  0  0  0  0  0
    0.5914    2.2754   -0.0747 C   0  0  0  0  0  0  0  0  0  0  0  0
   -0.7898    2.1181   -0.0160 C   0  0  0  0  0  0  0  0  0  0  0  0
   -1.3697    1.0297   -0.6708 C   0  0  0  0  0  0  0  0  0  0  0  0
   -1.1012   -0.7087   -1.9093 H   0  0  0  0  0  0  0  0  0  0  0  0
    1.3731   -0.4102   -2.0568 H   0  0  0  0  0  0  0  0  0  0  0  0
    1.0843    3.1079    0.4235 H   0  0  0  0  0  0  0  0  0  0  0  0
   -1.4167    2.8174    0.5310 H   0  0  0  0  0  0  0  0  0  0  0  0
   -2.8320    0.8500   -0.6027 N   0  0  0  0  0  0  0  0  0  0  0  0
   -3.3158   -0.1189   -1.1825 O   0  0  0  0  0  0  0  0  0  0  0  0
   -3.4792    1.6804    0.0304 O   0  0  0  0  0  0  0  0  0  0  0  0
    1.9740    0.3150    1.8926 N   0  0  0  0  0  0  0  0  0  0  0  0
    1.4280   -0.2309    2.6821 N   0  0  0  0  0  0  0  0  0  0  0  0
    2.7055    1.6979   -0.8993 O   0  0  0  0  0  0  0  0  0  0  0  0
    3.7266    0.6395   -0.7694 N   0  0  0  0  0  0  0  0  0  0  0  0
    4.8247    1.1109   -0.8188 O   0  0  0  0  0  0  0  0  0  0  0  0
    3.3538   -0.4963   -0.6501 O   0  0  0  0  0  0  0  0  0  0  0  0
  1  6  1  0  0  0  0
  2  1  2  0  0  0  0
  2  3  1  0  0  0  0
  3  4  2  0  0  0  0
  4  5  1  0  0  0  0
  4  9  1  0  0  0  0
  5 10  1  0  0  0  0
  6 11  1  0  0  0  0
  6  5  2  0  0  0  0
  7  1  1  0  0  0  0
  8  2  1  0  0  0  0
 11 13  2  0  0  0  0
 12 11  2  0  0  0  0
 14 15  3  0  0  0  0
 16  3  1  0  0  0  0
 16 17  1  0  0  0  0
 17 19  2  0  0  0  0
 18 17  2  0  0  0  0
M  END
