Coordinates from ORCA-job p-NO2-Ph-N2-NO3-B3LYPG-aug-cc-pVDZ-scan-d09-49-n400
 OpenBabel01151817073D

 19 18  0  0  0  0  0  0  0  0999 V2000
   -0.5895    0.0779   -1.2779 C   0  0  0  0  0  0  0  0  0  0  0  0
    0.7965    0.2272   -1.3222 C   0  0  0  0  0  0  0  0  0  0  0  0
    1.3792    1.3176   -0.6649 C   0  0  0  0  0  0  0  0  0  0  0  0
    0.5886    2.2978   -0.0454 C   0  0  0  0  0  0  0  0  0  0  0  0
   -0.7929    2.1547   -0.0174 C   0  0  0  0  0  0  0  0  0  0  0  0
   -1.3655    1.0326   -0.6216 C   0  0  0  0  0  0  0  0  0  0  0  0
   -1.0738   -0.7652   -1.7639 H   0  0  0  0  0  0  0  0  0  0  0  0
    1.3999   -0.5019   -1.8503 H   0  0  0  0  0  0  0  0  0  0  0  0
    1.0736    3.1563    0.4153 H   0  0  0  0  0  0  0  0  0  0  0  0
   -1.4280    2.8933    0.4649 H   0  0  0  0  0  0  0  0  0  0  0  0
   -2.8291    0.8679   -0.5868 N   0  0  0  0  0  0  0  0  0  0  0  0
   -3.3048   -0.1289   -1.1249 O   0  0  0  0  0  0  0  0  0  0  0  0
   -3.4869    1.7368   -0.0190 O   0  0  0  0  0  0  0  0  0  0  0  0
    1.8609    0.2659    1.5105 N   0  0  0  0  0  0  0  0  0  0  0  0
    1.2547   -0.2709    2.2625 N   0  0  0  0  0  0  0  0  0  0  0  0
    2.7162    1.6878   -0.7495 O   0  0  0  0  0  0  0  0  0  0  0  0
    3.7753    0.6721   -0.7781 N   0  0  0  0  0  0  0  0  0  0  0  0
    4.8514    1.1954   -0.7889 O   0  0  0  0  0  0  0  0  0  0  0  0
    3.4596   -0.4879   -0.8016 O   0  0  0  0  0  0  0  0  0  0  0  0
  1  6  1  0  0  0  0
  2  1  2  0  0  0  0
  2  3  1  0  0  0  0
  3  4  2  0  0  0  0
  4  5  1  0  0  0  0
  4  9  1  0  0  0  0
  5 10  1  0  0  0  0
  6 11  1  0  0  0  0
  6  5  2  0  0  0  0
  7  1  1  0  0  0  0
  8  2  1  0  0  0  0
 11 13  2  0  0  0  0
 12 11  2  0  0  0  0
 14 15  3  0  0  0  0
 16  3  1  0  0  0  0
 17 16  1  0  0  0  0
 18 17  2  0  0  0  0
 19 17  2  0  0  0  0
M  END
