Coordinates from ORCA-job p-NO2-Ph-N2-NO3-B3LYPG-aug-cc-pVDZ-scan-d09-49-n400
 OpenBabel01151817073D

 19 18  0  0  0  0  0  0  0  0999 V2000
   -0.5865    0.0717   -1.2599 C   0  0  0  0  0  0  0  0  0  0  0  0
    0.7997    0.2168   -1.2966 C   0  0  0  0  0  0  0  0  0  0  0  0
    1.3836    1.3023   -0.6299 C   0  0  0  0  0  0  0  0  0  0  0  0
    0.5896    2.2955   -0.0332 C   0  0  0  0  0  0  0  0  0  0  0  0
   -0.7918    2.1559   -0.0123 C   0  0  0  0  0  0  0  0  0  0  0  0
   -1.3640    1.0300   -0.6104 C   0  0  0  0  0  0  0  0  0  0  0  0
   -1.0704   -0.7705   -1.7480 H   0  0  0  0  0  0  0  0  0  0  0  0
    1.4042   -0.5149   -1.8196 H   0  0  0  0  0  0  0  0  0  0  0  0
    1.0733    3.1577    0.4216 H   0  0  0  0  0  0  0  0  0  0  0  0
   -1.4279    2.9013    0.4578 H   0  0  0  0  0  0  0  0  0  0  0  0
   -2.8279    0.8693   -0.5832 N   0  0  0  0  0  0  0  0  0  0  0  0
   -3.3032   -0.1289   -1.1192 O   0  0  0  0  0  0  0  0  0  0  0  0
   -3.4867    1.7430   -0.0240 O   0  0  0  0  0  0  0  0  0  0  0  0
    1.8397    0.2778    1.4280 N   0  0  0  0  0  0  0  0  0  0  0  0
    1.2211   -0.2533    2.1750 N   0  0  0  0  0  0  0  0  0  0  0  0
    2.7180    1.6813   -0.7245 O   0  0  0  0  0  0  0  0  0  0  0  0
    3.7831    0.6749   -0.7765 N   0  0  0  0  0  0  0  0  0  0  0  0
    4.8556    1.2058   -0.7885 O   0  0  0  0  0  0  0  0  0  0  0  0
    3.4760   -0.4873   -0.8158 O   0  0  0  0  0  0  0  0  0  0  0  0
  1  6  1  0  0  0  0
  2  1  2  0  0  0  0
  2  3  1  0  0  0  0
  3  4  2  0  0  0  0
  4  5  1  0  0  0  0
  4  9  1  0  0  0  0
  5 10  1  0  0  0  0
  6 11  1  0  0  0  0
  6  5  2  0  0  0  0
  7  1  1  0  0  0  0
  8  2  1  0  0  0  0
 11 13  2  0  0  0  0
 12 11  2  0  0  0  0
 14 15  3  0  0  0  0
 16  3  1  0  0  0  0
 17 16  1  0  0  0  0
 18 17  2  0  0  0  0
 19 17  2  0  0  0  0
M  END
