Coordinates from ORCA-job p-NO2-Ph-N2-NO3-B3LYPG-aug-cc-pVDZ-scan-d09-49-n400
 OpenBabel01151817083D

 19 18  0  0  0  0  0  0  0  0999 V2000
   -0.7466    0.3167   -1.8985 C   0  0  0  0  0  0  0  0  0  0  0  0
    0.6343    0.4795   -1.9884 C   0  0  0  0  0  0  0  0  0  0  0  0
    1.2861    1.2957   -1.0605 C   0  0  0  0  0  0  0  0  0  0  0  0
    0.5911    1.9575   -0.0444 C   0  0  0  0  0  0  0  0  0  0  0  0
   -0.7915    1.8031    0.0453 C   0  0  0  0  0  0  0  0  0  0  0  0
   -1.4353    0.9819   -0.8819 C   0  0  0  0  0  0  0  0  0  0  0  0
   -1.2927   -0.3082   -2.6003 H   0  0  0  0  0  0  0  0  0  0  0  0
    1.2053   -0.0157   -2.7718 H   0  0  0  0  0  0  0  0  0  0  0  0
    1.1337    2.5896    0.6557 H   0  0  0  0  0  0  0  0  0  0  0  0
   -1.3715    2.3043    0.8158 H   0  0  0  0  0  0  0  0  0  0  0  0
   -2.9009    0.8138   -0.7872 N   0  0  0  0  0  0  0  0  0  0  0  0
   -3.4455    0.0886   -1.6149 O   0  0  0  0  0  0  0  0  0  0  0  0
   -3.4857    1.4116    0.1120 O   0  0  0  0  0  0  0  0  0  0  0  0
    2.6254    0.9067    2.9949 N   0  0  0  0  0  0  0  0  0  0  0  0
    2.4541    0.5129    4.0121 N   0  0  0  0  0  0  0  0  0  0  0  0
    2.6485    1.5448   -1.1920 O   0  0  0  0  0  0  0  0  0  0  0  0
    3.5235    0.4752   -0.6355 N   0  0  0  0  0  0  0  0  0  0  0  0
    4.6796    0.7505   -0.7625 O   0  0  0  0  0  0  0  0  0  0  0  0
    2.9738   -0.4799   -0.1572 O   0  0  0  0  0  0  0  0  0  0  0  0
  1  6  1  0  0  0  0
  2  1  2  0  0  0  0
  2  3  1  0  0  0  0
  3  4  2  0  0  0  0
  4  5  1  0  0  0  0
  4  9  1  0  0  0  0
  5 10  1  0  0  0  0
  6 11  1  0  0  0  0
  6  5  2  0  0  0  0
  7  1  1  0  0  0  0
  8  2  1  0  0  0  0
 11 13  2  0  0  0  0
 12 11  2  0  0  0  0
 14 15  3  0  0  0  0
 16  3  1  0  0  0  0
 16 17  1  0  0  0  0
 17 19  2  0  0  0  0
 18 17  2  0  0  0  0
M  END
