Coordinates from ORCA-job p-NO2-Ph-N2-NO3-B3LYPG-aug-cc-pVDZ-scan-d09-49-n400
 OpenBabel01151817083D

 19 18  0  0  0  0  0  0  0  0999 V2000
   -0.7851    0.3644   -1.9894 C   0  0  0  0  0  0  0  0  0  0  0  0
    0.5986    0.5105   -2.0728 C   0  0  0  0  0  0  0  0  0  0  0  0
    1.2636    1.2625   -1.1021 C   0  0  0  0  0  0  0  0  0  0  0  0
    0.5816    1.8739   -0.0455 C   0  0  0  0  0  0  0  0  0  0  0  0
   -0.8021    1.7315    0.0409 C   0  0  0  0  0  0  0  0  0  0  0  0
   -1.4606    0.9773   -0.9324 C   0  0  0  0  0  0  0  0  0  0  0  0
   -1.3423   -0.2098   -2.7250 H   0  0  0  0  0  0  0  0  0  0  0  0
    1.1623    0.0542   -2.8846 H   0  0  0  0  0  0  0  0  0  0  0  0
    1.1340    2.4553    0.6901 H   0  0  0  0  0  0  0  0  0  0  0  0
   -1.3732    2.1929    0.8423 H   0  0  0  0  0  0  0  0  0  0  0  0
   -2.9285    0.8251   -0.8424 N   0  0  0  0  0  0  0  0  0  0  0  0
   -3.4849    0.1511   -1.7047 O   0  0  0  0  0  0  0  0  0  0  0  0
   -3.5001    1.3662    0.0999 O   0  0  0  0  0  0  0  0  0  0  0  0
    2.7980    1.0457    3.2070 N   0  0  0  0  0  0  0  0  0  0  0  0
    2.7551    0.6446    4.2348 N   0  0  0  0  0  0  0  0  0  0  0  0
    2.6305    1.4897   -1.2312 O   0  0  0  0  0  0  0  0  0  0  0  0
    3.4828    0.4511   -0.5847 N   0  0  0  0  0  0  0  0  0  0  0  0
    4.6444    0.7021   -0.7103 O   0  0  0  0  0  0  0  0  0  0  0  0
    2.9113   -0.4598   -0.0491 O   0  0  0  0  0  0  0  0  0  0  0  0
  1  6  1  0  0  0  0
  2  1  2  0  0  0  0
  2  3  1  0  0  0  0
  3  4  2  0  0  0  0
  4  5  1  0  0  0  0
  4  9  1  0  0  0  0
  5 10  1  0  0  0  0
  6 11  1  0  0  0  0
  6  5  2  0  0  0  0
  7  1  1  0  0  0  0
  8  2  1  0  0  0  0
 11 13  2  0  0  0  0
 12 11  2  0  0  0  0
 14 15  3  0  0  0  0
 16  3  1  0  0  0  0
 16 17  1  0  0  0  0
 17 19  2  0  0  0  0
 18 17  2  0  0  0  0
M  END
