Coordinates from ORCA-job p-NO2-Ph-N2-NO3-B3LYPG-aug-cc-pVDZ-scan-d09-49-n400
 OpenBabel01151817083D

 19 18  0  0  0  0  0  0  0  0999 V2000
   -0.6319    0.1603   -1.5393 C   0  0  0  0  0  0  0  0  0  0  0  0
    0.7456    0.3427   -1.6433 C   0  0  0  0  0  0  0  0  0  0  0  0
    1.3525    1.3652   -0.9064 C   0  0  0  0  0  0  0  0  0  0  0  0
    0.6073    2.2203   -0.0876 C   0  0  0  0  0  0  0  0  0  0  0  0
   -0.7727    2.0522    0.0014 C   0  0  0  0  0  0  0  0  0  0  0  0
   -1.3695    1.0167   -0.7197 C   0  0  0  0  0  0  0  0  0  0  0  0
   -1.1403   -0.6249   -2.0928 H   0  0  0  0  0  0  0  0  0  0  0  0
    1.3374   -0.3006   -2.2893 H   0  0  0  0  0  0  0  0  0  0  0  0
    1.1144    3.0147    0.4565 H   0  0  0  0  0  0  0  0  0  0  0  0
   -1.3853    2.7031    0.6198 H   0  0  0  0  0  0  0  0  0  0  0  0
   -2.8300    0.8269   -0.6202 N   0  0  0  0  0  0  0  0  0  0  0  0
   -3.3296   -0.0977   -1.2558 O   0  0  0  0  0  0  0  0  0  0  0  0
   -3.4569    1.5978    0.1020 O   0  0  0  0  0  0  0  0  0  0  0  0
    2.0498    0.4021    2.2535 N   0  0  0  0  0  0  0  0  0  0  0  0
    1.5755   -0.0675    3.1336 N   0  0  0  0  0  0  0  0  0  0  0  0
    2.6976    1.6841   -1.0441 O   0  0  0  0  0  0  0  0  0  0  0  0
    3.6780    0.6038   -0.7646 N   0  0  0  0  0  0  0  0  0  0  0  0
    4.7966    1.0143   -0.8620 O   0  0  0  0  0  0  0  0  0  0  0  0
    3.2470   -0.4853   -0.5009 O   0  0  0  0  0  0  0  0  0  0  0  0
  1  6  1  0  0  0  0
  2  1  2  0  0  0  0
  2  3  1  0  0  0  0
  3  4  2  0  0  0  0
  4  5  1  0  0  0  0
  4  9  1  0  0  0  0
  5 10  1  0  0  0  0
  6 11  1  0  0  0  0
  6  5  2  0  0  0  0
  7  1  1  0  0  0  0
  8  2  1  0  0  0  0
 11 13  2  0  0  0  0
 12 11  2  0  0  0  0
 14 15  3  0  0  0  0
 16  3  1  0  0  0  0
 16 17  1  0  0  0  0
 17 19  2  0  0  0  0
 18 17  2  0  0  0  0
M  END
