Coordinates from ORCA-job p-NO2-Ph-N2-NO3-B3LYPG-aug-cc-pVDZ-scan-d09-49-n400
 OpenBabel01151817083D

 19 18  0  0  0  0  0  0  0  0999 V2000
   -0.7646    0.3395   -1.9421 C   0  0  0  0  0  0  0  0  0  0  0  0
    0.6176    0.4949   -2.0278 C   0  0  0  0  0  0  0  0  0  0  0  0
    1.2753    1.2797   -1.0776 C   0  0  0  0  0  0  0  0  0  0  0  0
    0.5859    1.9162   -0.0417 C   0  0  0  0  0  0  0  0  0  0  0  0
   -0.7973    1.7671    0.0458 C   0  0  0  0  0  0  0  0  0  0  0  0
   -1.4476    0.9786   -0.9053 C   0  0  0  0  0  0  0  0  0  0  0  0
   -1.3156   -0.2606   -2.6615 H   0  0  0  0  0  0  0  0  0  0  0  0
    1.1857    0.0192   -2.8254 H   0  0  0  0  0  0  0  0  0  0  0  0
    1.1329    2.5236    0.6768 H   0  0  0  0  0  0  0  0  0  0  0  0
   -1.3733    2.2484    0.8318 H   0  0  0  0  0  0  0  0  0  0  0  0
   -2.9143    0.8175   -0.8137 N   0  0  0  0  0  0  0  0  0  0  0  0
   -3.4647    0.1217   -1.6625 O   0  0  0  0  0  0  0  0  0  0  0  0
   -3.4939    1.3914    0.1041 O   0  0  0  0  0  0  0  0  0  0  0  0
    2.7098    0.9786    3.0804 N   0  0  0  0  0  0  0  0  0  0  0  0
    2.6029    0.5782    4.1039 N   0  0  0  0  0  0  0  0  0  0  0  0
    2.6401    1.5179   -1.2075 O   0  0  0  0  0  0  0  0  0  0  0  0
    3.5030    0.4626   -0.6060 N   0  0  0  0  0  0  0  0  0  0  0  0
    4.6621    0.7253   -0.7312 O   0  0  0  0  0  0  0  0  0  0  0  0
    2.9417   -0.4714   -0.0999 O   0  0  0  0  0  0  0  0  0  0  0  0
  1  6  1  0  0  0  0
  2  1  2  0  0  0  0
  2  3  1  0  0  0  0
  3  4  2  0  0  0  0
  4  5  1  0  0  0  0
  4  9  1  0  0  0  0
  5 10  1  0  0  0  0
  6 11  1  0  0  0  0
  6  5  2  0  0  0  0
  7  1  1  0  0  0  0
  8  2  1  0  0  0  0
 11 13  2  0  0  0  0
 12 11  2  0  0  0  0
 14 15  3  0  0  0  0
 16  3  1  0  0  0  0
 16 17  1  0  0  0  0
 17 19  2  0  0  0  0
 18 17  2  0  0  0  0
M  END
