Coordinates from ORCA-job p-NO2-Ph-N2-NO3-B3LYPG-aug-cc-pVDZ-scan-d09-49-n400
 OpenBabel01151817073D

 19 18  0  0  0  0  0  0  0  0999 V2000
   -0.5847    0.0676   -1.2493 C   0  0  0  0  0  0  0  0  0  0  0  0
    0.8015    0.2100   -1.2812 C   0  0  0  0  0  0  0  0  0  0  0  0
    1.3867    1.2899   -0.6049 C   0  0  0  0  0  0  0  0  0  0  0  0
    0.5907    2.2925   -0.0246 C   0  0  0  0  0  0  0  0  0  0  0  0
   -0.7905    2.1553   -0.0081 C   0  0  0  0  0  0  0  0  0  0  0  0
   -1.3630    1.0273   -0.6024 C   0  0  0  0  0  0  0  0  0  0  0  0
   -1.0686   -0.7728   -1.7405 H   0  0  0  0  0  0  0  0  0  0  0  0
    1.4065   -0.5224   -1.8025 H   0  0  0  0  0  0  0  0  0  0  0  0
    1.0742    3.1568    0.4265 H   0  0  0  0  0  0  0  0  0  0  0  0
   -1.4271    2.9054    0.4541 H   0  0  0  0  0  0  0  0  0  0  0  0
   -2.8269    0.8693   -0.5797 N   0  0  0  0  0  0  0  0  0  0  0  0
   -3.3024   -0.1278   -1.1176 O   0  0  0  0  0  0  0  0  0  0  0  0
   -3.4862    1.7471   -0.0274 O   0  0  0  0  0  0  0  0  0  0  0  0
    1.8261    0.2890    1.3771 N   0  0  0  0  0  0  0  0  0  0  0  0
    1.1988   -0.2383    2.1203 N   0  0  0  0  0  0  0  0  0  0  0  0
    2.7186    1.6765   -0.7109 O   0  0  0  0  0  0  0  0  0  0  0  0
    3.7878    0.6770   -0.7759 N   0  0  0  0  0  0  0  0  0  0  0  0
    4.8579    1.2126   -0.7900 O   0  0  0  0  0  0  0  0  0  0  0  0
    3.4862   -0.4868   -0.8226 O   0  0  0  0  0  0  0  0  0  0  0  0
  1  6  1  0  0  0  0
  2  1  2  0  0  0  0
  2  3  1  0  0  0  0
  3  4  2  0  0  0  0
  4  5  1  0  0  0  0
  4  9  1  0  0  0  0
  5 10  1  0  0  0  0
  6 11  1  0  0  0  0
  6  5  2  0  0  0  0
  7  1  1  0  0  0  0
  8  2  1  0  0  0  0
 11 13  2  0  0  0  0
 12 11  2  0  0  0  0
 14 15  3  0  0  0  0
 16  3  1  0  0  0  0
 17 16  1  0  0  0  0
 18 17  2  0  0  0  0
 19 17  2  0  0  0  0
M  END
