Coordinates from ORCA-job p-NO2-Ph-N2-NO3-B3LYPG-aug-cc-pVDZ-scan-d09-49-n400
 OpenBabel01151817083D

 19 18  0  0  0  0  0  0  0  0999 V2000
   -0.7163    0.2772   -1.8205 C   0  0  0  0  0  0  0  0  0  0  0  0
    0.6623    0.4506   -1.9210 C   0  0  0  0  0  0  0  0  0  0  0  0
    1.3057    1.3205   -1.0365 C   0  0  0  0  0  0  0  0  0  0  0  0
    0.6033    2.0264   -0.0559 C   0  0  0  0  0  0  0  0  0  0  0  0
   -0.7779    1.8639    0.0414 C   0  0  0  0  0  0  0  0  0  0  0  0
   -1.4128    0.9878   -0.8404 C   0  0  0  0  0  0  0  0  0  0  0  0
   -1.2556   -0.3894   -2.4884 H   0  0  0  0  0  0  0  0  0  0  0  0
    1.2366   -0.0791   -2.6788 H   0  0  0  0  0  0  0  0  0  0  0  0
    1.1398    2.6999    0.6092 H   0  0  0  0  0  0  0  0  0  0  0  0
   -1.3631    2.3993    0.7845 H   0  0  0  0  0  0  0  0  0  0  0  0
   -2.8763    0.8092   -0.7364 N   0  0  0  0  0  0  0  0  0  0  0  0
   -3.4128    0.0345   -1.5236 O   0  0  0  0  0  0  0  0  0  0  0  0
   -3.4679    1.4483    0.1293 O   0  0  0  0  0  0  0  0  0  0  0  0
    2.4564    0.7725    2.8478 N   0  0  0  0  0  0  0  0  0  0  0  0
    2.1923    0.3918    3.8500 N   0  0  0  0  0  0  0  0  0  0  0  0
    2.6637    1.5867   -1.1752 O   0  0  0  0  0  0  0  0  0  0  0  0
    3.5618    0.5048   -0.6842 N   0  0  0  0  0  0  0  0  0  0  0  0
    4.7113    0.8053   -0.8143 O   0  0  0  0  0  0  0  0  0  0  0  0
    3.0351   -0.4818   -0.2462 O   0  0  0  0  0  0  0  0  0  0  0  0
  1  6  1  0  0  0  0
  2  1  2  0  0  0  0
  2  3  1  0  0  0  0
  3  4  2  0  0  0  0
  4  5  1  0  0  0  0
  4  9  1  0  0  0  0
  5 10  1  0  0  0  0
  6 11  1  0  0  0  0
  6  5  2  0  0  0  0
  7  1  1  0  0  0  0
  8  2  1  0  0  0  0
 11 13  2  0  0  0  0
 12 11  2  0  0  0  0
 14 15  3  0  0  0  0
 16  3  1  0  0  0  0
 16 17  1  0  0  0  0
 17 19  2  0  0  0  0
 18 17  2  0  0  0  0
M  END
