Coordinates from ORCA-job p-NO2-Ph-N2-NO3-B3LYPG-aug-cc-pVDZ-scan-d09-49-n400
 OpenBabel01151817073D

 19 18  0  0  0  0  0  0  0  0999 V2000
   -0.5841    0.0669   -1.2470 C   0  0  0  0  0  0  0  0  0  0  0  0
    0.8020    0.2079   -1.2767 C   0  0  0  0  0  0  0  0  0  0  0  0
    1.3880    1.2851   -0.5954 C   0  0  0  0  0  0  0  0  0  0  0  0
    0.5911    2.2915   -0.0218 C   0  0  0  0  0  0  0  0  0  0  0  0
   -0.7901    2.1556   -0.0074 C   0  0  0  0  0  0  0  0  0  0  0  0
   -1.3626    1.0271   -0.6009 C   0  0  0  0  0  0  0  0  0  0  0  0
   -1.0681   -0.7725   -1.7400 H   0  0  0  0  0  0  0  0  0  0  0  0
    1.4073   -0.5245   -1.7975 H   0  0  0  0  0  0  0  0  0  0  0  0
    1.0747    3.1563    0.4283 H   0  0  0  0  0  0  0  0  0  0  0  0
   -1.4268    2.9074    0.4516 H   0  0  0  0  0  0  0  0  0  0  0  0
   -2.8266    0.8705   -0.5804 N   0  0  0  0  0  0  0  0  0  0  0  0
   -3.3017   -0.1295   -1.1134 O   0  0  0  0  0  0  0  0  0  0  0  0
   -3.4856    1.7462   -0.0245 O   0  0  0  0  0  0  0  0  0  0  0  0
    1.8205    0.2938    1.3586 N   0  0  0  0  0  0  0  0  0  0  0  0
    1.1907   -0.2324    2.1008 N   0  0  0  0  0  0  0  0  0  0  0  0
    2.7192    1.6746   -0.7061 O   0  0  0  0  0  0  0  0  0  0  0  0
    3.7893    0.6773   -0.7747 N   0  0  0  0  0  0  0  0  0  0  0  0
    4.8588    1.2142   -0.7895 O   0  0  0  0  0  0  0  0  0  0  0  0
    3.4894   -0.4870   -0.8233 O   0  0  0  0  0  0  0  0  0  0  0  0
  1  6  1  0  0  0  0
  2  1  2  0  0  0  0
  2  3  1  0  0  0  0
  3  4  2  0  0  0  0
  4  5  1  0  0  0  0
  4  9  1  0  0  0  0
  5 10  1  0  0  0  0
  6 11  1  0  0  0  0
  6  5  2  0  0  0  0
  7  1  1  0  0  0  0
  8  2  1  0  0  0  0
 11 13  2  0  0  0  0
 12 11  2  0  0  0  0
 14 15  3  0  0  0  0
 16  3  1  0  0  0  0
 17 16  1  0  0  0  0
 18 17  2  0  0  0  0
 19 17  2  0  0  0  0
M  END
