Coordinates from ORCA-job p-NO2-Ph-N2-NO3-B3LYPG-aug-cc-pVDZ-scan-d09-49-n400
 OpenBabel01151817073D

 19 19  0  0  1  0  0  0  0  0999 V2000
   -0.1859    0.0680   -1.1050 C   0  0  0  0  0  0  0  0  0  0  0  0
    1.0771   -0.1983   -0.3533 C   0  0  2  0  0  0  0  0  0  0  0  0
    1.1468    0.6471    0.8733 C   0  0  1  0  0  0  0  0  0  0  0  0
    0.3018    1.7731    1.1324 C   0  0  0  0  0  0  0  0  0  0  0  0
   -0.7523    2.0212    0.3078 C   0  0  0  0  0  0  0  0  0  0  0  0
   -0.9843    1.1115   -0.7843 C   0  0  0  0  0  0  0  0  0  0  0  0
   -0.4485   -0.5962   -1.9241 H   0  0  0  0  0  0  0  0  0  0  0  0
    1.1849   -1.2688   -0.1317 H   0  0  0  0  0  0  0  0  0  0  0  0
    0.5104    2.4086    1.9915 H   0  0  0  0  0  0  0  0  0  0  0  0
   -1.4212    2.8608    0.4614 H   0  0  0  0  0  0  0  0  0  0  0  0
   -2.2110    1.3195   -1.6029 N   0  0  0  0  0  0  0  0  0  0  0  0
   -2.4445    0.5275   -2.5092 O   0  0  0  0  0  0  0  0  0  0  0  0
   -2.9157    2.2817   -1.3147 O   0  0  0  0  0  0  0  0  0  0  0  0
    2.0998    0.3011    1.8112 N   0  0  0  0  0  0  0  0  0  0  0  0
    2.8923    0.0053    2.5654 N   0  0  0  0  0  0  0  0  0  0  0  0
    1.9289    2.0844   -1.5470 O   0  0  0  0  0  0  0  0  0  0  0  0
    2.6207    1.1315   -1.8306 N   0  0  0  0  0  0  0  0  0  0  0  0
    3.5821    1.0704   -2.5542 O   0  0  0  0  0  0  0  0  0  0  0  0
    2.3040   -0.1198   -1.2451 O   0  0  0  0  0  0  0  0  0  0  0  0
  1  6  2  0  0  0  0
  1  2  1  0  0  0  0
  2  8  1  1  0  0  0
  2  3  1  0  0  0  0
  3  4  1  0  0  0  0
  3 14  1  1  0  0  0
  4  9  1  0  0  0  0
  5 10  1  0  0  0  0
  5  4  2  0  0  0  0
  6  5  1  0  0  0  0
  7  1  1  0  0  0  0
 11 13  2  0  0  0  0
 11  6  1  0  0  0  0
 12 11  2  0  0  0  0
 14 15  1  0  0  0  0
 17 16  2  0  0  0  0
 17 19  1  0  0  0  0
 18 17  2  0  0  0  0
 19  2  1  0  0  0  0
M  RAD  3   3   2  14   2  15   3
M  END
