Coordinates from ORCA-job p-NO2-Ph-N2-NO3-B3LYPG-aug-cc-pVDZ-scan-d09-49-n400
 OpenBabel01151817083D

 19 18  0  0  0  0  0  0  0  0999 V2000
   -0.6404    0.1738   -1.5764 C   0  0  0  0  0  0  0  0  0  0  0  0
    0.7367    0.3571   -1.6832 C   0  0  0  0  0  0  0  0  0  0  0  0
    1.3479    1.3639   -0.9293 C   0  0  0  0  0  0  0  0  0  0  0  0
    0.6091    2.2016   -0.0862 C   0  0  0  0  0  0  0  0  0  0  0  0
   -0.7704    2.0321    0.0066 C   0  0  0  0  0  0  0  0  0  0  0  0
   -1.3722    1.0135   -0.7343 C   0  0  0  0  0  0  0  0  0  0  0  0
   -1.1530   -0.5992   -2.1430 H   0  0  0  0  0  0  0  0  0  0  0  0
    1.3263   -0.2735   -2.3442 H   0  0  0  0  0  0  0  0  0  0  0  0
    1.1206    2.9822    0.4732 H   0  0  0  0  0  0  0  0  0  0  0  0
   -1.3789    2.6695    0.6428 H   0  0  0  0  0  0  0  0  0  0  0  0
   -2.8326    0.8233   -0.6309 N   0  0  0  0  0  0  0  0  0  0  0  0
   -3.3365   -0.0877   -1.2825 O   0  0  0  0  0  0  0  0  0  0  0  0
   -3.4539    1.5763    0.1146 O   0  0  0  0  0  0  0  0  0  0  0  0
    2.0826    0.4363    2.3396 N   0  0  0  0  0  0  0  0  0  0  0  0
    1.6309   -0.0121    3.2419 N   0  0  0  0  0  0  0  0  0  0  0  0
    2.6941    1.6765   -1.0669 O   0  0  0  0  0  0  0  0  0  0  0  0
    3.6653    0.5920   -0.7614 N   0  0  0  0  0  0  0  0  0  0  0  0
    4.7879    0.9875   -0.8719 O   0  0  0  0  0  0  0  0  0  0  0  0
    3.2222   -0.4845   -0.4678 O   0  0  0  0  0  0  0  0  0  0  0  0
  1  6  1  0  0  0  0
  2  1  2  0  0  0  0
  2  3  1  0  0  0  0
  3  4  2  0  0  0  0
  4  5  1  0  0  0  0
  4  9  1  0  0  0  0
  5 10  1  0  0  0  0
  6 11  1  0  0  0  0
  6  5  2  0  0  0  0
  7  1  1  0  0  0  0
  8  2  1  0  0  0  0
 11 13  2  0  0  0  0
 12 11  2  0  0  0  0
 14 15  3  0  0  0  0
 16  3  1  0  0  0  0
 16 17  1  0  0  0  0
 17 19  2  0  0  0  0
 18 17  2  0  0  0  0
M  END
