Coordinates from ORCA-job p-NO2-Ph-N2-NO3-B3LYPG-aug-cc-pVDZ-scan-d09-49-n400
 OpenBabel01151817073D

 19 19  0  0  1  0  0  0  0  0999 V2000
   -0.2142    0.0441   -1.0782 C   0  0  0  0  0  0  0  0  0  0  0  0
    1.0537   -0.2140   -0.3482 C   0  0  2  0  0  0  0  0  0  0  0  0
    1.0517    0.6394    0.8222 C   0  0  2  0  0  0  0  0  0  0  0  0
    0.2813    1.7667    1.1331 C   0  0  0  0  0  0  0  0  0  0  0  0
   -0.7638    2.0419    0.2837 C   0  0  0  0  0  0  0  0  0  0  0  0
   -0.9938    1.1236   -0.7867 C   0  0  0  0  0  0  0  0  0  0  0  0
   -0.5075   -0.6476   -1.8629 H   0  0  0  0  0  0  0  0  0  0  0  0
    1.2306   -1.2789   -0.1615 H   0  0  0  0  0  0  0  0  0  0  0  0
    0.5058    2.3896    1.9959 H   0  0  0  0  0  0  0  0  0  0  0  0
   -1.4060    2.9046    0.4192 H   0  0  0  0  0  0  0  0  0  0  0  0
   -2.2130    1.3313   -1.6162 N   0  0  0  0  0  0  0  0  0  0  0  0
   -2.4541    0.5208   -2.5043 O   0  0  0  0  0  0  0  0  0  0  0  0
   -2.8995    2.3167   -1.3643 O   0  0  0  0  0  0  0  0  0  0  0  0
    2.1827    0.2381    1.9426 N   0  0  0  0  0  0  0  0  0  0  0  0
    2.9792   -0.0374    2.6753 N   0  0  0  0  0  0  0  0  0  0  0  0
    1.9015    2.0935   -1.5893 O   0  0  0  0  0  0  0  0  0  0  0  0
    2.6215    1.1518   -1.8590 N   0  0  0  0  0  0  0  0  0  0  0  0
    3.5950    1.1311   -2.5764 O   0  0  0  0  0  0  0  0  0  0  0  0
    2.3343   -0.0867   -1.2841 O   0  0  0  0  0  0  0  0  0  0  0  0
  1  6  2  0  0  0  0
  1  2  1  0  0  0  0
  2  8  1  1  0  0  0
  2  3  1  0  0  0  0
  3  4  1  0  0  0  0
  3 14  1  6  0  0  0
  4  9  1  0  0  0  0
  5 10  1  0  0  0  0
  5  4  2  0  0  0  0
  6  5  1  0  0  0  0
  7  1  1  0  0  0  0
 11 13  2  0  0  0  0
 11  6  1  0  0  0  0
 12 11  2  0  0  0  0
 14 15  1  0  0  0  0
 17 16  2  0  0  0  0
 17 19  1  0  0  0  0
 18 17  2  0  0  0  0
 19  2  1  0  0  0  0
M  RAD  3   3   2  14   2  15   3
M  END
