Coordinates from ORCA-job p-NO2-Ph-N2-NO3-B3LYPG-aug-cc-pVDZ-scan-d09-49-n400
 OpenBabel01151817073D

 19 18  0  0  0  0  0  0  0  0999 V2000
   -0.5839    0.0640   -1.2411 C   0  0  0  0  0  0  0  0  0  0  0  0
    0.8020    0.2027   -1.2675 C   0  0  0  0  0  0  0  0  0  0  0  0
    1.3901    1.2742   -0.5758 C   0  0  0  0  0  0  0  0  0  0  0  0
    0.5916    2.2885   -0.0155 C   0  0  0  0  0  0  0  0  0  0  0  0
   -0.7893    2.1547   -0.0041 C   0  0  0  0  0  0  0  0  0  0  0  0
   -1.3623    1.0249   -0.5951 C   0  0  0  0  0  0  0  0  0  0  0  0
   -1.0684   -0.7730   -1.7374 H   0  0  0  0  0  0  0  0  0  0  0  0
    1.4073   -0.5296   -1.7883 H   0  0  0  0  0  0  0  0  0  0  0  0
    1.0754    3.1544    0.4321 H   0  0  0  0  0  0  0  0  0  0  0  0
   -1.4261    2.9098    0.4494 H   0  0  0  0  0  0  0  0  0  0  0  0
   -2.8263    0.8707   -0.5777 N   0  0  0  0  0  0  0  0  0  0  0  0
   -3.3021   -0.1279   -1.1129 O   0  0  0  0  0  0  0  0  0  0  0  0
   -3.4854    1.7491   -0.0260 O   0  0  0  0  0  0  0  0  0  0  0  0
    1.8114    0.3034    1.3223 N   0  0  0  0  0  0  0  0  0  0  0  0
    1.1780   -0.2205    2.0640 N   0  0  0  0  0  0  0  0  0  0  0  0
    2.7198    1.6707   -0.6985 O   0  0  0  0  0  0  0  0  0  0  0  0
    3.7935    0.6792   -0.7742 N   0  0  0  0  0  0  0  0  0  0  0  0
    4.8612    1.2201   -0.7917 O   0  0  0  0  0  0  0  0  0  0  0  0
    3.4992   -0.4869   -0.8213 O   0  0  0  0  0  0  0  0  0  0  0  0
  1  6  1  0  0  0  0
  2  1  2  0  0  0  0
  2  3  1  0  0  0  0
  3  4  2  0  0  0  0
  4  5  1  0  0  0  0
  4  9  1  0  0  0  0
  5 10  1  0  0  0  0
  6 11  1  0  0  0  0
  6  5  2  0  0  0  0
  7  1  1  0  0  0  0
  8  2  1  0  0  0  0
 11 13  2  0  0  0  0
 12 11  2  0  0  0  0
 14 15  3  0  0  0  0
 16  3  1  0  0  0  0
 17 16  1  0  0  0  0
 18 17  2  0  0  0  0
 19 17  2  0  0  0  0
M  END
