Coordinates from ORCA-job p-NO2-Ph-N2-NO3-B3LYPG-aug-cc-pVDZ-scan-d09-49-n400
 OpenBabel01151817083D

 19 18  0  0  0  0  0  0  0  0999 V2000
   -0.7312    0.2963   -1.8592 C   0  0  0  0  0  0  0  0  0  0  0  0
    0.6485    0.4648   -1.9548 C   0  0  0  0  0  0  0  0  0  0  0  0
    1.2959    1.3092   -1.0489 C   0  0  0  0  0  0  0  0  0  0  0  0
    0.5974    1.9936   -0.0505 C   0  0  0  0  0  0  0  0  0  0  0  0
   -0.7845    1.8347    0.0434 C   0  0  0  0  0  0  0  0  0  0  0  0
   -1.4238    0.9849   -0.8609 C   0  0  0  0  0  0  0  0  0  0  0  0
   -1.2739   -0.3504   -2.5437 H   0  0  0  0  0  0  0  0  0  0  0  0
    1.2212   -0.0483   -2.7252 H   0  0  0  0  0  0  0  0  0  0  0  0
    1.1372    2.6470    0.6318 H   0  0  0  0  0  0  0  0  0  0  0  0
   -1.3671    2.3533    0.8003 H   0  0  0  0  0  0  0  0  0  0  0  0
   -2.8882    0.8110   -0.7612 N   0  0  0  0  0  0  0  0  0  0  0  0
   -3.4288    0.0603   -1.5685 O   0  0  0  0  0  0  0  0  0  0  0  0
   -3.4764    1.4300    0.1213 O   0  0  0  0  0  0  0  0  0  0  0  0
    2.5408    0.8388    2.9222 N   0  0  0  0  0  0  0  0  0  0  0  0
    2.3195    0.4500    3.9317 N   0  0  0  0  0  0  0  0  0  0  0  0
    2.6563    1.5668   -1.1837 O   0  0  0  0  0  0  0  0  0  0  0  0
    3.5427    0.4901   -0.6608 N   0  0  0  0  0  0  0  0  0  0  0  0
    4.6956    0.7779   -0.7892 O   0  0  0  0  0  0  0  0  0  0  0  0
    3.0043   -0.4814   -0.2033 O   0  0  0  0  0  0  0  0  0  0  0  0
  1  6  1  0  0  0  0
  2  1  2  0  0  0  0
  2  3  1  0  0  0  0
  3  4  2  0  0  0  0
  4  5  1  0  0  0  0
  4  9  1  0  0  0  0
  5 10  1  0  0  0  0
  6 11  1  0  0  0  0
  6  5  2  0  0  0  0
  7  1  1  0  0  0  0
  8  2  1  0  0  0  0
 11 13  2  0  0  0  0
 12 11  2  0  0  0  0
 14 15  3  0  0  0  0
 16  3  1  0  0  0  0
 16 17  1  0  0  0  0
 17 19  2  0  0  0  0
 18 17  2  0  0  0  0
M  END
