Coordinates from ORCA-job p-NO2-Ph-N2-NO3-B3LYPG-aug-cc-pVDZ-scan-d09-49-n400
 OpenBabel01151817073D

 19 18  0  0  0  0  0  0  0  0999 V2000
   -0.5991    0.0972   -1.3405 C   0  0  0  0  0  0  0  0  0  0  0  0
    0.7851    0.2572   -1.4036 C   0  0  0  0  0  0  0  0  0  0  0  0
    1.3696    1.3427   -0.7420 C   0  0  0  0  0  0  0  0  0  0  0  0
    0.5889    2.2906   -0.0658 C   0  0  0  0  0  0  0  0  0  0  0  0
   -0.7925    2.1393   -0.0204 C   0  0  0  0  0  0  0  0  0  0  0  0
   -1.3682    1.0332   -0.6496 C   0  0  0  0  0  0  0  0  0  0  0  0
   -1.0871   -0.7384   -1.8358 H   0  0  0  0  0  0  0  0  0  0  0  0
    1.3862   -0.4549   -1.9583 H   0  0  0  0  0  0  0  0  0  0  0  0
    1.0782    3.1356    0.4148 H   0  0  0  0  0  0  0  0  0  0  0  0
   -1.4236    2.8571    0.4970 H   0  0  0  0  0  0  0  0  0  0  0  0
   -2.8311    0.8596   -0.5958 N   0  0  0  0  0  0  0  0  0  0  0  0
   -3.3102   -0.1257   -1.1515 O   0  0  0  0  0  0  0  0  0  0  0  0
   -3.4840    1.7094    0.0052 O   0  0  0  0  0  0  0  0  0  0  0  0
    1.9221    0.2792    1.7271 N   0  0  0  0  0  0  0  0  0  0  0  0
    1.3480   -0.2676    2.4959 N   0  0  0  0  0  0  0  0  0  0  0  0
    2.7103    1.6972   -0.8311 O   0  0  0  0  0  0  0  0  0  0  0  0
    3.7500    0.6564   -0.7755 N   0  0  0  0  0  0  0  0  0  0  0  0
    4.8377    1.1540   -0.8035 O   0  0  0  0  0  0  0  0  0  0  0  0
    3.4053   -0.4937   -0.7259 O   0  0  0  0  0  0  0  0  0  0  0  0
  1  6  1  0  0  0  0
  2  1  2  0  0  0  0
  2  3  1  0  0  0  0
  3  4  2  0  0  0  0
  4  5  1  0  0  0  0
  4  9  1  0  0  0  0
  5 10  1  0  0  0  0
  6 11  1  0  0  0  0
  6  5  2  0  0  0  0
  7  1  1  0  0  0  0
  8  2  1  0  0  0  0
 11 13  2  0  0  0  0
 12 11  2  0  0  0  0
 14 15  3  0  0  0  0
 16 17  1  0  0  0  0
 16  3  1  0  0  0  0
 17 19  2  0  0  0  0
 18 17  2  0  0  0  0
M  END
