Coordinates from ORCA-job p-NO2-Ph-N2-NO3-B3LYPG-aug-cc-pVDZ-scan-d09-49-n400
 OpenBabel01151817083D

 19 18  0  0  0  0  0  0  0  0999 V2000
   -0.7930    0.3727   -2.0069 C   0  0  0  0  0  0  0  0  0  0  0  0
    0.5911    0.5160   -2.0881 C   0  0  0  0  0  0  0  0  0  0  0  0
    1.2581    1.2550   -1.1086 C   0  0  0  0  0  0  0  0  0  0  0  0
    0.5773    1.8553   -0.0454 C   0  0  0  0  0  0  0  0  0  0  0  0
   -0.8066    1.7149    0.0400 C   0  0  0  0  0  0  0  0  0  0  0  0
   -1.4670    0.9743   -0.9424 C   0  0  0  0  0  0  0  0  0  0  0  0
   -1.3515   -0.1911   -2.7494 H   0  0  0  0  0  0  0  0  0  0  0  0
    1.1539    0.0681   -2.9053 H   0  0  0  0  0  0  0  0  0  0  0  0
    1.1310    2.4269    0.6971 H   0  0  0  0  0  0  0  0  0  0  0  0
   -1.3763    2.1680    0.8471 H   0  0  0  0  0  0  0  0  0  0  0  0
   -2.9352    0.8245   -0.8541 N   0  0  0  0  0  0  0  0  0  0  0  0
   -3.4945    0.1710   -1.7303 O   0  0  0  0  0  0  0  0  0  0  0  0
   -3.5067    1.3632    0.0897 O   0  0  0  0  0  0  0  0  0  0  0  0
    2.8393    1.0735    3.2599 N   0  0  0  0  0  0  0  0  0  0  0  0
    2.8266    0.6722    4.2885 N   0  0  0  0  0  0  0  0  0  0  0  0
    2.6256    1.4782   -1.2386 O   0  0  0  0  0  0  0  0  0  0  0  0
    3.4750    0.4473   -0.5772 N   0  0  0  0  0  0  0  0  0  0  0  0
    4.6373    0.6933   -0.7062 O   0  0  0  0  0  0  0  0  0  0  0  0
    2.9011   -0.4548   -0.0292 O   0  0  0  0  0  0  0  0  0  0  0  0
  1  6  1  0  0  0  0
  2  1  2  0  0  0  0
  2  3  1  0  0  0  0
  3  4  2  0  0  0  0
  4  5  1  0  0  0  0
  4  9  1  0  0  0  0
  5 10  1  0  0  0  0
  6 11  1  0  0  0  0
  6  5  2  0  0  0  0
  7  1  1  0  0  0  0
  8  2  1  0  0  0  0
 11 13  2  0  0  0  0
 12 11  2  0  0  0  0
 14 15  3  0  0  0  0
 16  3  1  0  0  0  0
 16 17  1  0  0  0  0
 17 19  2  0  0  0  0
 18 17  2  0  0  0  0
M  END
