Coordinates from ORCA-job p-NO2-Ph-N2-NO3-B3LYPG-aug-cc-pVDZ-scan-d09-49-n400
 OpenBabel01151817083D

 19 18  0  0  0  0  0  0  0  0999 V2000
   -0.7674    0.3430   -1.9488 C   0  0  0  0  0  0  0  0  0  0  0  0
    0.6150    0.4972   -2.0336 C   0  0  0  0  0  0  0  0  0  0  0  0
    1.2735    1.2772   -1.0800 C   0  0  0  0  0  0  0  0  0  0  0  0
    0.5847    1.9099   -0.0413 C   0  0  0  0  0  0  0  0  0  0  0  0
   -0.7986    1.7617    0.0456 C   0  0  0  0  0  0  0  0  0  0  0  0
   -1.4497    0.9782   -0.9091 C   0  0  0  0  0  0  0  0  0  0  0  0
   -1.3190   -0.2533   -2.6708 H   0  0  0  0  0  0  0  0  0  0  0  0
    1.1828    0.0244   -2.8331 H   0  0  0  0  0  0  0  0  0  0  0  0
    1.1322    2.5135    0.6799 H   0  0  0  0  0  0  0  0  0  0  0  0
   -1.3742    2.2400    0.8337 H   0  0  0  0  0  0  0  0  0  0  0  0
   -2.9166    0.8183   -0.8183 N   0  0  0  0  0  0  0  0  0  0  0  0
   -3.4677    0.1268   -1.6702 O   0  0  0  0  0  0  0  0  0  0  0  0
   -3.4956    1.3885    0.1022 O   0  0  0  0  0  0  0  0  0  0  0  0
    2.7239    0.9893    3.0947 N   0  0  0  0  0  0  0  0  0  0  0  0
    2.6279    0.5879    4.1188 N   0  0  0  0  0  0  0  0  0  0  0  0
    2.6386    1.5137   -1.2095 O   0  0  0  0  0  0  0  0  0  0  0  0
    3.4997    0.4606   -0.6015 N   0  0  0  0  0  0  0  0  0  0  0  0
    4.6593    0.7214   -0.7268 O   0  0  0  0  0  0  0  0  0  0  0  0
    2.9368   -0.4700   -0.0912 O   0  0  0  0  0  0  0  0  0  0  0  0
  1  6  1  0  0  0  0
  2  1  2  0  0  0  0
  2  3  1  0  0  0  0
  3  4  2  0  0  0  0
  4  5  1  0  0  0  0
  4  9  1  0  0  0  0
  5 10  1  0  0  0  0
  6 11  1  0  0  0  0
  6  5  2  0  0  0  0
  7  1  1  0  0  0  0
  8  2  1  0  0  0  0
 11 13  2  0  0  0  0
 12 11  2  0  0  0  0
 14 15  3  0  0  0  0
 16  3  1  0  0  0  0
 16 17  1  0  0  0  0
 17 19  2  0  0  0  0
 18 17  2  0  0  0  0
M  END
