Coordinates from ORCA-job p-NO2-Ph-N2-NO3-B3LYPG-aug-cc-pVDZ-scan-d09-49-n400
 OpenBabel01151817083D

 19 18  0  0  0  0  0  0  0  0999 V2000
   -0.7544    0.3277   -1.9184 C   0  0  0  0  0  0  0  0  0  0  0  0
    0.6270    0.4873   -2.0057 C   0  0  0  0  0  0  0  0  0  0  0  0
    1.2816    1.2890   -1.0668 C   0  0  0  0  0  0  0  0  0  0  0  0
    0.5883    1.9385   -0.0428 C   0  0  0  0  0  0  0  0  0  0  0  0
   -0.7945    1.7867    0.0461 C   0  0  0  0  0  0  0  0  0  0  0  0
   -1.4411    0.9807   -0.8926 C   0  0  0  0  0  0  0  0  0  0  0  0
   -1.3024   -0.2857   -2.6289 H   0  0  0  0  0  0  0  0  0  0  0  0
    1.1969    0.0012   -2.7956 H   0  0  0  0  0  0  0  0  0  0  0  0
    1.1329    2.5595    0.6659 H   0  0  0  0  0  0  0  0  0  0  0  0
   -1.3726    2.2786    0.8239 H   0  0  0  0  0  0  0  0  0  0  0  0
   -2.9072    0.8157   -0.7998 N   0  0  0  0  0  0  0  0  0  0  0  0
   -3.4540    0.1029   -1.6367 O   0  0  0  0  0  0  0  0  0  0  0  0
   -3.4896    1.4010    0.1090 O   0  0  0  0  0  0  0  0  0  0  0  0
    2.6638    0.9410    3.0310 N   0  0  0  0  0  0  0  0  0  0  0  0
    2.5221    0.5436    4.0513 N   0  0  0  0  0  0  0  0  0  0  0  0
    2.6453    1.5316   -1.1991 O   0  0  0  0  0  0  0  0  0  0  0  0
    3.5138    0.4686   -0.6217 N   0  0  0  0  0  0  0  0  0  0  0  0
    4.6716    0.7373   -0.7476 O   0  0  0  0  0  0  0  0  0  0  0  0
    2.9580   -0.4766   -0.1308 O   0  0  0  0  0  0  0  0  0  0  0  0
  1  6  1  0  0  0  0
  2  1  2  0  0  0  0
  2  3  1  0  0  0  0
  3  4  2  0  0  0  0
  4  5  1  0  0  0  0
  4  9  1  0  0  0  0
  5 10  1  0  0  0  0
  6 11  1  0  0  0  0
  6  5  2  0  0  0  0
  7  1  1  0  0  0  0
  8  2  1  0  0  0  0
 11 13  2  0  0  0  0
 12 11  2  0  0  0  0
 14 15  3  0  0  0  0
 16  3  1  0  0  0  0
 16 17  1  0  0  0  0
 17 19  2  0  0  0  0
 18 17  2  0  0  0  0
M  END
