Coordinates from ORCA-job p-NO2-Ph-N2-NO3-B3LYPG-aug-cc-pVDZ-scan-d09-49-n400
 OpenBabel01151817073D

 19 19  0  0  1  0  0  0  0  0999 V2000
   -0.5784    0.0574   -1.2234 C   0  0  0  0  0  0  0  0  0  0  0  0
    0.8046    0.1839   -1.2246 C   0  0  0  0  0  0  0  0  0  0  0  0
    1.4015    1.2168   -0.4620 C   0  0  1  0  0  0  0  0  0  0  0  0
    0.5916    2.2757    0.0205 C   0  0  0  0  0  0  0  0  0  0  0  0
   -0.7869    2.1513    0.0092 C   0  0  0  0  0  0  0  0  0  0  0  0
   -1.3611    1.0158   -0.5739 C   0  0  1  0  0  0  0  0  0  0  0  0
   -1.0627   -0.7627   -1.7476 H   0  0  0  0  0  0  0  0  0  0  0  0
    1.4167   -0.5440   -1.7448 H   0  0  0  0  0  0  0  0  0  0  0  0
    1.0758    3.1468    0.4575 H   0  0  0  0  0  0  0  0  0  0  0  0
   -1.4259    2.9237    0.4293 H   0  0  0  0  0  0  0  0  0  0  0  0
   -2.8232    0.8727   -0.5774 N   0  0  0  0  0  0  0  0  0  0  0  0
   -3.2993   -0.1215   -1.1220 O   0  0  0  0  0  0  0  0  0  0  0  0
   -3.4845    1.7553   -0.0335 O   0  0  0  0  0  0  0  0  0  0  0  0
    1.7736    0.3415    1.1857 N   0  0  0  0  0  0  0  0  0  0  0  0
    1.1383   -0.1776    1.9363 N   0  0  0  0  0  0  0  0  0  0  0  0
    2.7199    1.6560   -0.6629 O   0  0  0  0  0  0  0  0  0  0  0  0
    3.8023    0.6855   -0.7744 N   0  0  0  0  0  0  0  0  0  0  0  0
    4.8589    1.2393   -0.8752 O   0  0  0  0  0  0  0  0  0  0  0  0
    3.5243   -0.4873   -0.7761 O   0  0  0  0  0  0  0  0  0  0  0  0
  1  6  1  0  0  0  0
  2  1  2  0  0  0  0
  2  3  1  0  0  0  0
  3 16  1  6  0  0  0
  3  4  1  0  0  0  0
  3 14  1  0  0  0  0
  4  9  1  0  0  0  0
  5  4  2  0  0  0  0
  5 10  1  0  0  0  0
  6 11  1  6  0  0  0
  6  5  1  0  0  0  0
  7  1  1  0  0  0  0
  8  2  1  0  0  0  0
 11 13  2  0  0  0  0
 12 11  2  0  0  0  0
 14 15  2  0  0  0  0
 17 16  1  0  0  0  0
 18 17  2  0  0  0  0
 19 17  2  0  0  0  0
M  RAD  2   6   2  15   2
M  END
