Coordinates from ORCA-job p-NO2-Ph-N2-NO3-B3LYPG-aug-cc-pVDZ-scan-d09-49-n400
 OpenBabel01151817083D

 19 18  0  0  0  0  0  0  0  0999 V2000
   -0.8079    0.3901   -2.0397 C   0  0  0  0  0  0  0  0  0  0  0  0
    0.5772    0.5269   -2.1191 C   0  0  0  0  0  0  0  0  0  0  0  0
    1.2491    1.2414   -1.1253 C   0  0  0  0  0  0  0  0  0  0  0  0
    0.5730    1.8226   -0.0481 C   0  0  0  0  0  0  0  0  0  0  0  0
   -0.8113    1.6871    0.0362 C   0  0  0  0  0  0  0  0  0  0  0  0
   -1.4771    0.9719   -0.9616 C   0  0  0  0  0  0  0  0  0  0  0  0
   -1.3704   -0.1544   -2.7935 H   0  0  0  0  0  0  0  0  0  0  0  0
    1.1372    0.0936   -2.9461 H   0  0  0  0  0  0  0  0  0  0  0  0
    1.1301    2.3748    0.7065 H   0  0  0  0  0  0  0  0  0  0  0  0
   -1.3778    2.1253    0.8537 H   0  0  0  0  0  0  0  0  0  0  0  0
   -2.9461    0.8285   -0.8747 N   0  0  0  0  0  0  0  0  0  0  0  0
   -3.5102    0.1979   -1.7644 O   0  0  0  0  0  0  0  0  0  0  0  0
   -3.5133    1.3494    0.0816 O   0  0  0  0  0  0  0  0  0  0  0  0
    2.9087    1.1216    3.3661 N   0  0  0  0  0  0  0  0  0  0  0  0
    2.9357    0.7255    4.3965 N   0  0  0  0  0  0  0  0  0  0  0  0
    2.6176    1.4583   -1.2553 O   0  0  0  0  0  0  0  0  0  0  0  0
    3.4621    0.4386   -0.5691 N   0  0  0  0  0  0  0  0  0  0  0  0
    4.6255    0.6786   -0.6997 O   0  0  0  0  0  0  0  0  0  0  0  0
    2.8835   -0.4493   -0.0034 O   0  0  0  0  0  0  0  0  0  0  0  0
  1  6  1  0  0  0  0
  2  1  2  0  0  0  0
  2  3  1  0  0  0  0
  3  4  2  0  0  0  0
  4  5  1  0  0  0  0
  4  9  1  0  0  0  0
  5 10  1  0  0  0  0
  6 11  1  0  0  0  0
  6  5  2  0  0  0  0
  7  1  1  0  0  0  0
  8  2  1  0  0  0  0
 11 13  2  0  0  0  0
 12 11  2  0  0  0  0
 14 15  3  0  0  0  0
 16  3  1  0  0  0  0
 16 17  1  0  0  0  0
 17 19  2  0  0  0  0
 18 17  2  0  0  0  0
M  END
