Coordinates from ORCA-job p-NO2-Ph-N2-NO3-B3LYPG-aug-cc-pVDZ-scan-d09-49-n400
 OpenBabel01151817073D

 19 19  0  0  1  0  0  0  0  0999 V2000
   -0.2185    0.0421   -1.0765 C   0  0  0  0  0  0  0  0  0  0  0  0
    1.0485   -0.2163   -0.3476 C   0  0  2  0  0  0  0  0  0  0  0  0
    1.0408    0.6373    0.8179 C   0  0  2  0  0  0  0  0  0  0  0  0
    0.2779    1.7662    1.1321 C   0  0  0  0  0  0  0  0  0  0  0  0
   -0.7667    2.0434    0.2808 C   0  0  0  0  0  0  0  0  0  0  0  0
   -0.9966    1.1249   -0.7880 C   0  0  0  0  0  0  0  0  0  0  0  0
   -0.5137   -0.6515   -1.8589 H   0  0  0  0  0  0  0  0  0  0  0  0
    1.2320   -1.2804   -0.1649 H   0  0  0  0  0  0  0  0  0  0  0  0
    0.5052    2.3891    1.9939 H   0  0  0  0  0  0  0  0  0  0  0  0
   -1.4057    2.9088    0.4143 H   0  0  0  0  0  0  0  0  0  0  0  0
   -2.2141    1.3336   -1.6195 N   0  0  0  0  0  0  0  0  0  0  0  0
   -2.4569    0.5204   -2.5046 O   0  0  0  0  0  0  0  0  0  0  0  0
   -2.9008    2.3190   -1.3683 O   0  0  0  0  0  0  0  0  0  0  0  0
    2.1962    0.2324    1.9566 N   0  0  0  0  0  0  0  0  0  0  0  0
    2.9958   -0.0400    2.6854 N   0  0  0  0  0  0  0  0  0  0  0  0
    1.9032    2.0944   -1.5872 O   0  0  0  0  0  0  0  0  0  0  0  0
    2.6244    1.1532   -1.8585 N   0  0  0  0  0  0  0  0  0  0  0  0
    3.5971    1.1366   -2.5780 O   0  0  0  0  0  0  0  0  0  0  0  0
    2.3375   -0.0846   -1.2884 O   0  0  0  0  0  0  0  0  0  0  0  0
  1  6  2  0  0  0  0
  1  2  1  0  0  0  0
  2  8  1  1  0  0  0
  2  3  1  0  0  0  0
  3  4  1  0  0  0  0
  3 14  1  6  0  0  0
  4  9  1  0  0  0  0
  5 10  1  0  0  0  0
  5  4  2  0  0  0  0
  6  5  1  0  0  0  0
  7  1  1  0  0  0  0
 11 13  2  0  0  0  0
 11  6  1  0  0  0  0
 12 11  2  0  0  0  0
 14 15  1  0  0  0  0
 17 16  2  0  0  0  0
 17 19  1  0  0  0  0
 18 17  2  0  0  0  0
 19  2  1  0  0  0  0
M  RAD  3   3   2  14   2  15   3
M  END
