Coordinates from ORCA-job p-NO2-Ph-N2-NO3-B3LYPG-aug-cc-pVDZ-scan-d09-49-n400
 OpenBabel01151817073D

 19 18  0  0  0  0  0  0  0  0999 V2000
   -0.5897    0.0784   -1.2803 C   0  0  0  0  0  0  0  0  0  0  0  0
    0.7962    0.2280   -1.3253 C   0  0  0  0  0  0  0  0  0  0  0  0
    1.3792    1.3184   -0.6674 C   0  0  0  0  0  0  0  0  0  0  0  0
    0.5887    2.2975   -0.0459 C   0  0  0  0  0  0  0  0  0  0  0  0
   -0.7928    2.1541   -0.0172 C   0  0  0  0  0  0  0  0  0  0  0  0
   -1.3653    1.0325   -0.6225 C   0  0  0  0  0  0  0  0  0  0  0  0
   -1.0742   -0.7643   -1.7666 H   0  0  0  0  0  0  0  0  0  0  0  0
    1.3994   -0.5003   -1.8548 H   0  0  0  0  0  0  0  0  0  0  0  0
    1.0735    3.1554    0.4156 H   0  0  0  0  0  0  0  0  0  0  0  0
   -1.4278    2.8917    0.4665 H   0  0  0  0  0  0  0  0  0  0  0  0
   -2.8290    0.8675   -0.5870 N   0  0  0  0  0  0  0  0  0  0  0  0
   -3.3048   -0.1287   -1.1262 O   0  0  0  0  0  0  0  0  0  0  0  0
   -3.4867    1.7359   -0.0184 O   0  0  0  0  0  0  0  0  0  0  0  0
    1.8627    0.2672    1.5193 N   0  0  0  0  0  0  0  0  0  0  0  0
    1.2571   -0.2701    2.2714 N   0  0  0  0  0  0  0  0  0  0  0  0
    2.7164    1.6882   -0.7528 O   0  0  0  0  0  0  0  0  0  0  0  0
    3.7743    0.6716   -0.7786 N   0  0  0  0  0  0  0  0  0  0  0  0
    4.8511    1.1935   -0.7895 O   0  0  0  0  0  0  0  0  0  0  0  0
    3.4571   -0.4880   -0.7997 O   0  0  0  0  0  0  0  0  0  0  0  0
  1  6  1  0  0  0  0
  2  1  2  0  0  0  0
  2  3  1  0  0  0  0
  3  4  2  0  0  0  0
  4  5  1  0  0  0  0
  4  9  1  0  0  0  0
  5 10  1  0  0  0  0
  6 11  1  0  0  0  0
  6  5  2  0  0  0  0
  7  1  1  0  0  0  0
  8  2  1  0  0  0  0
 11 13  2  0  0  0  0
 12 11  2  0  0  0  0
 14 15  3  0  0  0  0
 16  3  1  0  0  0  0
 17 16  1  0  0  0  0
 18 17  2  0  0  0  0
 19 17  2  0  0  0  0
M  END
