Coordinates from ORCA-job p-NO2-Ph-N2-NO3-B3LYPG-aug-cc-pVDZ-scan-d09-49-n400
 OpenBabel01151817073D

 19 19  0  0  1  0  0  0  0  0999 V2000
   -0.1467    0.1481   -1.1579 C   0  0  0  0  0  0  0  0  0  0  0  0
    1.0746   -0.1797   -0.3611 C   0  0  2  0  0  0  0  0  0  0  0  0
    1.2767    0.6880    0.9471 C   0  0  0  0  0  0  0  0  0  0  0  0
    0.2539    1.7496    1.1916 C   0  0  0  0  0  0  0  0  0  0  0  0
   -0.8200    1.9363    0.4030 C   0  0  0  0  0  0  0  0  0  0  0  0
   -1.0066    1.1016   -0.7675 C   0  0  0  0  0  0  0  0  0  0  0  0
   -0.3331   -0.4353   -2.0577 H   0  0  0  0  0  0  0  0  0  0  0  0
    1.0407   -1.2327   -0.0379 H   0  0  0  0  0  0  0  0  0  0  0  0
    0.4415    2.3742    2.0651 H   0  0  0  0  0  0  0  0  0  0  0  0
   -1.5476    2.7149    0.6123 H   0  0  0  0  0  0  0  0  0  0  0  0
   -2.2186    1.3338   -1.5962 N   0  0  0  0  0  0  0  0  0  0  0  0
   -2.3869    0.6291   -2.5849 O   0  0  0  0  0  0  0  0  0  0  0  0
   -2.9774    2.2255   -1.2295 O   0  0  0  0  0  0  0  0  0  0  0  0
    2.0106    0.4994    1.5203 N   0  0  0  0  0  0  0  0  0  0  0  0
    2.9266    0.2491    2.2158 N   0  0  0  0  0  0  0  0  0  0  0  0
    2.0783    2.0007   -1.4798 O   0  0  0  0  0  0  0  0  0  0  0  0
    2.6941    1.0055   -1.7808 N   0  0  0  0  0  0  0  0  0  0  0  0
    3.6418    0.8571   -2.4978 O   0  0  0  0  0  0  0  0  0  0  0  0
    2.2836   -0.2367   -1.1633 O   0  0  0  0  0  0  0  0  0  0  0  0
  1  6  2  0  0  0  0
  1  2  1  0  0  0  0
  2  8  1  1  0  0  0
  2  3  1  0  0  0  0
  3  4  2  0  0  0  0
  3 14  1  0  0  0  0
  4  9  1  0  0  0  0
  5 10  1  0  0  0  0
  5  4  1  0  0  0  0
  6  5  1  0  0  0  0
  7  1  1  0  0  0  0
 11 13  2  0  0  0  0
 11  6  1  0  0  0  0
 12 11  2  0  0  0  0
 14 15  1  0  0  0  0
 17 16  2  0  0  0  0
 17 19  1  0  0  0  0
 18 17  2  0  0  0  0
 19  2  1  0  0  0  0
M  RAD  3   5   2  14   2  15   3
M  END
