Coordinates from ORCA-job p-NO2-Ph-N2-NO3-B3LYPG-aug-cc-pVDZ-scan-d09-49-n400
 OpenBabel01151817073D

 19 18  0  0  0  0  0  0  0  0999 V2000
   -0.5842    0.0667   -1.2476 C   0  0  0  0  0  0  0  0  0  0  0  0
    0.8018    0.2084   -1.2782 C   0  0  0  0  0  0  0  0  0  0  0  0
    1.3878    1.2868   -0.5985 C   0  0  0  0  0  0  0  0  0  0  0  0
    0.5908    2.2919   -0.0224 C   0  0  0  0  0  0  0  0  0  0  0  0
   -0.7903    2.1554   -0.0072 C   0  0  0  0  0  0  0  0  0  0  0  0
   -1.3626    1.0269   -0.6010 C   0  0  0  0  0  0  0  0  0  0  0  0
   -1.0682   -0.7731   -1.7397 H   0  0  0  0  0  0  0  0  0  0  0  0
    1.4069   -0.5240   -1.7994 H   0  0  0  0  0  0  0  0  0  0  0  0
    1.0742    3.1566    0.4281 H   0  0  0  0  0  0  0  0  0  0  0  0
   -1.4271    2.9063    0.4532 H   0  0  0  0  0  0  0  0  0  0  0  0
   -2.8266    0.8697   -0.5798 N   0  0  0  0  0  0  0  0  0  0  0  0
   -3.3019   -0.1284   -1.1159 O   0  0  0  0  0  0  0  0  0  0  0  0
   -3.4859    1.7470   -0.0265 O   0  0  0  0  0  0  0  0  0  0  0  0
    1.8224    0.2929    1.3651 N   0  0  0  0  0  0  0  0  0  0  0  0
    1.1934   -0.2338    2.1075 N   0  0  0  0  0  0  0  0  0  0  0  0
    2.7195    1.6755   -0.7079 O   0  0  0  0  0  0  0  0  0  0  0  0
    3.7888    0.6772   -0.7754 N   0  0  0  0  0  0  0  0  0  0  0  0
    4.8587    1.2133   -0.7899 O   0  0  0  0  0  0  0  0  0  0  0  0
    3.4878   -0.4867   -0.8239 O   0  0  0  0  0  0  0  0  0  0  0  0
  1  6  1  0  0  0  0
  2  1  2  0  0  0  0
  2  3  1  0  0  0  0
  3  4  2  0  0  0  0
  4  5  1  0  0  0  0
  4  9  1  0  0  0  0
  5 10  1  0  0  0  0
  6 11  1  0  0  0  0
  6  5  2  0  0  0  0
  7  1  1  0  0  0  0
  8  2  1  0  0  0  0
 11 13  2  0  0  0  0
 12 11  2  0  0  0  0
 14 15  3  0  0  0  0
 16  3  1  0  0  0  0
 17 16  1  0  0  0  0
 18 17  2  0  0  0  0
 19 17  2  0  0  0  0
M  END
