Coordinates from ORCA-job p-NO2-Ph-N2-NO3-B3LYPG-aug-cc-pVDZ-scan-d09-49-n400
 OpenBabel01151817073D

 19 18  0  0  0  0  0  0  0  0999 V2000
   -0.6087    0.1158   -1.4018 C   0  0  0  0  0  0  0  0  0  0  0  0
    0.7732    0.2845   -1.4794 C   0  0  0  0  0  0  0  0  0  0  0  0
    1.3627    1.3551   -0.7983 C   0  0  0  0  0  0  0  0  0  0  0  0
    0.5918    2.2751   -0.0758 C   0  0  0  0  0  0  0  0  0  0  0  0
   -0.7893    2.1174   -0.0164 C   0  0  0  0  0  0  0  0  0  0  0  0
   -1.3697    1.0298   -0.6723 C   0  0  0  0  0  0  0  0  0  0  0  0
   -1.1019   -0.7070   -1.9130 H   0  0  0  0  0  0  0  0  0  0  0  0
    1.3726   -0.4077   -2.0622 H   0  0  0  0  0  0  0  0  0  0  0  0
    1.0851    3.1068    0.4233 H   0  0  0  0  0  0  0  0  0  0  0  0
   -1.4160    2.8159    0.5320 H   0  0  0  0  0  0  0  0  0  0  0  0
   -2.8319    0.8499   -0.6033 N   0  0  0  0  0  0  0  0  0  0  0  0
   -3.3156   -0.1201   -1.1813 O   0  0  0  0  0  0  0  0  0  0  0  0
   -3.4783    1.6776    0.0342 O   0  0  0  0  0  0  0  0  0  0  0  0
    1.9751    0.3157    1.8994 N   0  0  0  0  0  0  0  0  0  0  0  0
    1.4299   -0.2291    2.6903 N   0  0  0  0  0  0  0  0  0  0  0  0
    2.7054    1.6980   -0.9028 O   0  0  0  0  0  0  0  0  0  0  0  0
    3.7256    0.6384   -0.7681 N   0  0  0  0  0  0  0  0  0  0  0  0
    4.8242    1.1087   -0.8177 O   0  0  0  0  0  0  0  0  0  0  0  0
    3.3515   -0.4965   -0.6459 O   0  0  0  0  0  0  0  0  0  0  0  0
  1  6  1  0  0  0  0
  2  1  2  0  0  0  0
  2  3  1  0  0  0  0
  3  4  2  0  0  0  0
  4  5  1  0  0  0  0
  4  9  1  0  0  0  0
  5 10  1  0  0  0  0
  6 11  1  0  0  0  0
  6  5  2  0  0  0  0
  7  1  1  0  0  0  0
  8  2  1  0  0  0  0
 11 13  2  0  0  0  0
 12 11  2  0  0  0  0
 14 15  3  0  0  0  0
 16  3  1  0  0  0  0
 16 17  1  0  0  0  0
 17 19  2  0  0  0  0
 18 17  2  0  0  0  0
M  END
