Coordinates from ORCA-job p-NO2-Ph-N2-NO3-B3LYPG-aug-cc-pVDZ-scan-d09-49-n400
 OpenBabel01151817083D

 19 18  0  0  0  0  0  0  0  0999 V2000
   -0.6532    0.1919   -1.6261 C   0  0  0  0  0  0  0  0  0  0  0  0
    0.7233    0.3762   -1.7349 C   0  0  0  0  0  0  0  0  0  0  0  0
    1.3416    1.3582   -0.9543 C   0  0  0  0  0  0  0  0  0  0  0  0
    0.6111    2.1690   -0.0799 C   0  0  0  0  0  0  0  0  0  0  0  0
   -0.7685    1.9990    0.0172 C   0  0  0  0  0  0  0  0  0  0  0  0
   -1.3770    1.0065   -0.7526 C   0  0  0  0  0  0  0  0  0  0  0  0
   -1.1713   -0.5618   -2.2132 H   0  0  0  0  0  0  0  0  0  0  0  0
    1.3096   -0.2340   -2.4182 H   0  0  0  0  0  0  0  0  0  0  0  0
    1.1275    2.9305    0.5011 H   0  0  0  0  0  0  0  0  0  0  0  0
   -1.3718    2.6160    0.6781 H   0  0  0  0  0  0  0  0  0  0  0  0
   -2.8376    0.8162   -0.6458 N   0  0  0  0  0  0  0  0  0  0  0  0
   -3.3494   -0.0644   -1.3319 O   0  0  0  0  0  0  0  0  0  0  0  0
   -3.4534    1.5519    0.1211 O   0  0  0  0  0  0  0  0  0  0  0  0
    2.1383    0.4918    2.4550 N   0  0  0  0  0  0  0  0  0  0  0  0
    1.7205    0.0752    3.3883 N   0  0  0  0  0  0  0  0  0  0  0  0
    2.6894    1.6631   -1.0981 O   0  0  0  0  0  0  0  0  0  0  0  0
    3.6462    0.5760   -0.7574 N   0  0  0  0  0  0  0  0  0  0  0  0
    4.7750    0.9491   -0.8820 O   0  0  0  0  0  0  0  0  0  0  0  0
    3.1852   -0.4819   -0.4258 O   0  0  0  0  0  0  0  0  0  0  0  0
  1  6  1  0  0  0  0
  2  1  2  0  0  0  0
  2  3  1  0  0  0  0
  3  4  2  0  0  0  0
  4  5  1  0  0  0  0
  4  9  1  0  0  0  0
  5 10  1  0  0  0  0
  6 11  1  0  0  0  0
  6  5  2  0  0  0  0
  7  1  1  0  0  0  0
  8  2  1  0  0  0  0
 11 13  2  0  0  0  0
 12 11  2  0  0  0  0
 14 15  3  0  0  0  0
 16  3  1  0  0  0  0
 16 17  1  0  0  0  0
 17 19  2  0  0  0  0
 18 17  2  0  0  0  0
M  END
