Coordinates from ORCA-job p-NO2-Ph-N2-NO3-B3LYPG-aug-cc-pVDZ-scan-d09-49-n400
 OpenBabel01151817073D

 19 18  0  0  0  0  0  0  0  0999 V2000
   -0.6113    0.1201   -1.4170 C   0  0  0  0  0  0  0  0  0  0  0  0
    0.7700    0.2912   -1.4993 C   0  0  0  0  0  0  0  0  0  0  0  0
    1.3614    1.3575   -0.8132 C   0  0  0  0  0  0  0  0  0  0  0  0
    0.5936    2.2700   -0.0783 C   0  0  0  0  0  0  0  0  0  0  0  0
   -0.7873    2.1106   -0.0141 C   0  0  0  0  0  0  0  0  0  0  0  0
   -1.3694    1.0280   -0.6768 C   0  0  0  0  0  0  0  0  0  0  0  0
   -1.1062   -0.6991   -1.9321 H   0  0  0  0  0  0  0  0  0  0  0  0
    1.3687   -0.3955   -2.0897 H   0  0  0  0  0  0  0  0  0  0  0  0
    1.0886    3.0980    0.4253 H   0  0  0  0  0  0  0  0  0  0  0  0
   -1.4123    2.8038    0.5427 H   0  0  0  0  0  0  0  0  0  0  0  0
   -2.8313    0.8464   -0.6026 N   0  0  0  0  0  0  0  0  0  0  0  0
   -3.3172   -0.1175   -1.1890 O   0  0  0  0  0  0  0  0  0  0  0  0
   -3.4759    1.6699    0.0420 O   0  0  0  0  0  0  0  0  0  0  0  0
    1.9827    0.3232    1.9393 N   0  0  0  0  0  0  0  0  0  0  0  0
    1.4441   -0.2136    2.7400 N   0  0  0  0  0  0  0  0  0  0  0  0
    2.7043    1.6973   -0.9227 O   0  0  0  0  0  0  0  0  0  0  0  0
    3.7207    0.6347   -0.7665 N   0  0  0  0  0  0  0  0  0  0  0  0
    4.8213    1.0996   -0.8202 O   0  0  0  0  0  0  0  0  0  0  0  0
    3.3410   -0.4962   -0.6270 O   0  0  0  0  0  0  0  0  0  0  0  0
  1  6  1  0  0  0  0
  2  1  2  0  0  0  0
  2  3  1  0  0  0  0
  3  4  2  0  0  0  0
  4  5  1  0  0  0  0
  4  9  1  0  0  0  0
  5 10  1  0  0  0  0
  6 11  1  0  0  0  0
  6  5  2  0  0  0  0
  7  1  1  0  0  0  0
  8  2  1  0  0  0  0
 11 13  2  0  0  0  0
 12 11  2  0  0  0  0
 14 15  3  0  0  0  0
 16  3  1  0  0  0  0
 16 17  1  0  0  0  0
 17 19  2  0  0  0  0
 18 17  2  0  0  0  0
M  END
