Coordinates from ORCA-job p-NO2-Ph-N2-NO3-B3LYPG-aug-cc-pVDZ-scan-d09-49-n400
 OpenBabel01151817073D

 19 19  0  0  1  0  0  0  0  0999 V2000
   -0.1436    0.1541   -1.1610 C   0  0  0  0  0  0  0  0  0  0  0  0
    1.0735   -0.1792   -0.3603 C   0  0  2  0  0  0  0  0  0  0  0  0
    1.2813    0.6919    0.9507 C   0  0  0  0  0  0  0  0  0  0  0  0
    0.2471    1.7456    1.1988 C   0  0  0  0  0  0  0  0  0  0  0  0
   -0.8266    1.9299    0.4100 C   0  0  0  0  0  0  0  0  0  0  0  0
   -1.0070    1.1026   -0.7670 C   0  0  0  0  0  0  0  0  0  0  0  0
   -0.3250   -0.4228   -2.0662 H   0  0  0  0  0  0  0  0  0  0  0  0
    1.0321   -1.2304   -0.0320 H   0  0  0  0  0  0  0  0  0  0  0  0
    0.4306    2.3665    2.0758 H   0  0  0  0  0  0  0  0  0  0  0  0
   -1.5590    2.7031    0.6230 H   0  0  0  0  0  0  0  0  0  0  0  0
   -2.2162    1.3381   -1.5987 N   0  0  0  0  0  0  0  0  0  0  0  0
   -2.3788    0.6406   -2.5933 O   0  0  0  0  0  0  0  0  0  0  0  0
   -2.9788    2.2251   -1.2280 O   0  0  0  0  0  0  0  0  0  0  0  0
    2.0139    0.5117    1.5116 N   0  0  0  0  0  0  0  0  0  0  0  0
    2.9402    0.2690    2.2008 N   0  0  0  0  0  0  0  0  0  0  0  0
    2.0787    1.9912   -1.4881 O   0  0  0  0  0  0  0  0  0  0  0  0
    2.6999    0.9958   -1.7764 N   0  0  0  0  0  0  0  0  0  0  0  0
    3.6397    0.8402   -2.5020 O   0  0  0  0  0  0  0  0  0  0  0  0
    2.2834   -0.2444   -1.1572 O   0  0  0  0  0  0  0  0  0  0  0  0
  1  6  2  0  0  0  0
  1  2  1  0  0  0  0
  2  8  1  1  0  0  0
  2  3  1  0  0  0  0
  3  4  2  0  0  0  0
  3 14  1  0  0  0  0
  4  9  1  0  0  0  0
  5 10  1  0  0  0  0
  5  4  1  0  0  0  0
  6  5  1  0  0  0  0
  7  1  1  0  0  0  0
 11 13  2  0  0  0  0
 11  6  1  0  0  0  0
 12 11  2  0  0  0  0
 14 15  1  0  0  0  0
 17 16  2  0  0  0  0
 17 19  1  0  0  0  0
 18 17  2  0  0  0  0
 19  2  1  0  0  0  0
M  RAD  3   5   2  14   2  15   3
M  END
