Coordinates from ORCA-job p-NO2-Ph-N2-NO3-B3LYPG-aug-cc-pVDZ-scan-d09-49-n400
 OpenBabel01151817073D

 19 19  0  0  1  0  0  0  0  0999 V2000
   -0.2021    0.0544   -1.0917 C   0  0  0  0  0  0  0  0  0  0  0  0
    1.0659   -0.2056   -0.3538 C   0  0  2  0  0  0  0  0  0  0  0  0
    1.0910    0.6458    0.8387 C   0  0  2  0  0  0  0  0  0  0  0  0
    0.2907    1.7709    1.1302 C   0  0  0  0  0  0  0  0  0  0  0  0
   -0.7567    2.0369    0.2896 C   0  0  0  0  0  0  0  0  0  0  0  0
   -0.9878    1.1206   -0.7889 C   0  0  0  0  0  0  0  0  0  0  0  0
   -0.4843   -0.6270   -1.8896 H   0  0  0  0  0  0  0  0  0  0  0  0
    1.2134   -1.2735   -0.1511 H   0  0  0  0  0  0  0  0  0  0  0  0
    0.5060    2.3965    1.9940 H   0  0  0  0  0  0  0  0  0  0  0  0
   -1.4111    2.8893    0.4325 H   0  0  0  0  0  0  0  0  0  0  0  0
   -2.2111    1.3277   -1.6131 N   0  0  0  0  0  0  0  0  0  0  0  0
   -2.4541    0.5200   -2.5031 O   0  0  0  0  0  0  0  0  0  0  0  0
   -2.9075    2.3014   -1.3435 O   0  0  0  0  0  0  0  0  0  0  0  0
    2.1606    0.2554    1.9075 N   0  0  0  0  0  0  0  0  0  0  0  0
    2.9488   -0.0307    2.6536 N   0  0  0  0  0  0  0  0  0  0  0  0
    1.9040    2.0911   -1.5816 O   0  0  0  0  0  0  0  0  0  0  0  0
    2.6133    1.1452   -1.8546 N   0  0  0  0  0  0  0  0  0  0  0  0
    3.5886    1.1085   -2.5653 O   0  0  0  0  0  0  0  0  0  0  0  0
    2.3179   -0.0982   -1.2693 O   0  0  0  0  0  0  0  0  0  0  0  0
  1  6  2  0  0  0  0
  1  2  1  0  0  0  0
  2  8  1  1  0  0  0
  2  3  1  0  0  0  0
  3  4  1  0  0  0  0
  3 14  1  6  0  0  0
  4  9  1  0  0  0  0
  5 10  1  0  0  0  0
  5  4  2  0  0  0  0
  6  5  1  0  0  0  0
  7  1  1  0  0  0  0
 11 13  2  0  0  0  0
 11  6  1  0  0  0  0
 12 11  2  0  0  0  0
 14 15  1  0  0  0  0
 17 16  2  0  0  0  0
 17 19  1  0  0  0  0
 18 17  2  0  0  0  0
 19  2  1  0  0  0  0
M  RAD  3   3   2  14   2  15   3
M  END
