Coordinates from ORCA-job p-NO2-Ph-N2-NO3-B3LYPG-aug-cc-pVDZ-scan-d09-49-n400
 OpenBabel01151817073D

 19 18  0  0  0  0  0  0  0  0999 V2000
   -0.5826    0.0627   -1.2373 C   0  0  0  0  0  0  0  0  0  0  0  0
    0.8031    0.2000   -1.2599 C   0  0  0  0  0  0  0  0  0  0  0  0
    1.3917    1.2668   -0.5602 C   0  0  0  0  0  0  0  0  0  0  0  0
    0.5918    2.2864   -0.0096 C   0  0  0  0  0  0  0  0  0  0  0  0
   -0.7889    2.1539   -0.0016 C   0  0  0  0  0  0  0  0  0  0  0  0
   -1.3618    1.0234   -0.5918 C   0  0  0  0  0  0  0  0  0  0  0  0
   -1.0669   -0.7724   -1.7371 H   0  0  0  0  0  0  0  0  0  0  0  0
    1.4096   -0.5317   -1.7804 H   0  0  0  0  0  0  0  0  0  0  0  0
    1.0755    3.1530    0.4369 H   0  0  0  0  0  0  0  0  0  0  0  0
   -1.4262    2.9114    0.4473 H   0  0  0  0  0  0  0  0  0  0  0  0
   -2.8257    0.8707   -0.5778 N   0  0  0  0  0  0  0  0  0  0  0  0
   -3.3013   -0.1271   -1.1148 O   0  0  0  0  0  0  0  0  0  0  0  0
   -3.4854    1.7505   -0.0288 O   0  0  0  0  0  0  0  0  0  0  0  0
    1.8065    0.3106    1.3009 N   0  0  0  0  0  0  0  0  0  0  0  0
    1.1719   -0.2124    2.0429 N   0  0  0  0  0  0  0  0  0  0  0  0
    2.7194    1.6684   -0.6926 O   0  0  0  0  0  0  0  0  0  0  0  0
    3.7938    0.6795   -0.7742 N   0  0  0  0  0  0  0  0  0  0  0  0
    4.8604    1.2221   -0.8020 O   0  0  0  0  0  0  0  0  0  0  0  0
    3.5006   -0.4872   -0.8194 O   0  0  0  0  0  0  0  0  0  0  0  0
  1  6  1  0  0  0  0
  2  1  2  0  0  0  0
  2  3  1  0  0  0  0
  3  4  2  0  0  0  0
  4  5  1  0  0  0  0
  4  9  1  0  0  0  0
  5 10  1  0  0  0  0
  6 11  1  0  0  0  0
  6  5  2  0  0  0  0
  7  1  1  0  0  0  0
  8  2  1  0  0  0  0
 11 13  2  0  0  0  0
 12 11  2  0  0  0  0
 14 15  3  0  0  0  0
 16  3  1  0  0  0  0
 17 16  1  0  0  0  0
 18 17  2  0  0  0  0
 19 17  2  0  0  0  0
M  END
