Coordinates from ORCA-job p-NO2-Ph-N2-NO3-B3LYPG-aug-cc-pVDZ-scan-d09-49-n400
 OpenBabel01151817073D

 19 18  0  0  0  0  0  0  0  0999 V2000
   -0.5845    0.0674   -1.2486 C   0  0  0  0  0  0  0  0  0  0  0  0
    0.8017    0.2093   -1.2798 C   0  0  0  0  0  0  0  0  0  0  0  0
    1.3872    1.2883   -0.6018 C   0  0  0  0  0  0  0  0  0  0  0  0
    0.5908    2.2922   -0.0237 C   0  0  0  0  0  0  0  0  0  0  0  0
   -0.7904    2.1554   -0.0079 C   0  0  0  0  0  0  0  0  0  0  0  0
   -1.3628    1.0273   -0.6020 C   0  0  0  0  0  0  0  0  0  0  0  0
   -1.0684   -0.7727   -1.7404 H   0  0  0  0  0  0  0  0  0  0  0  0
    1.4067   -0.5231   -1.8010 H   0  0  0  0  0  0  0  0  0  0  0  0
    1.0744    3.1566    0.4271 H   0  0  0  0  0  0  0  0  0  0  0  0
   -1.4270    2.9060    0.4533 H   0  0  0  0  0  0  0  0  0  0  0  0
   -2.8268    0.8698   -0.5801 N   0  0  0  0  0  0  0  0  0  0  0  0
   -3.3021   -0.1285   -1.1159 O   0  0  0  0  0  0  0  0  0  0  0  0
   -3.4860    1.7466   -0.0261 O   0  0  0  0  0  0  0  0  0  0  0  0
    1.8241    0.2908    1.3710 N   0  0  0  0  0  0  0  0  0  0  0  0
    1.1959   -0.2362    2.1138 N   0  0  0  0  0  0  0  0  0  0  0  0
    2.7190    1.6759   -0.7093 O   0  0  0  0  0  0  0  0  0  0  0  0
    3.7883    0.6771   -0.7755 N   0  0  0  0  0  0  0  0  0  0  0  0
    4.8583    1.2130   -0.7896 O   0  0  0  0  0  0  0  0  0  0  0  0
    3.4872   -0.4868   -0.8230 O   0  0  0  0  0  0  0  0  0  0  0  0
  1  6  1  0  0  0  0
  2  1  2  0  0  0  0
  2  3  1  0  0  0  0
  3  4  2  0  0  0  0
  4  5  1  0  0  0  0
  4  9  1  0  0  0  0
  5 10  1  0  0  0  0
  6 11  1  0  0  0  0
  6  5  2  0  0  0  0
  7  1  1  0  0  0  0
  8  2  1  0  0  0  0
 11 13  2  0  0  0  0
 12 11  2  0  0  0  0
 14 15  3  0  0  0  0
 16  3  1  0  0  0  0
 17 16  1  0  0  0  0
 18 17  2  0  0  0  0
 19 17  2  0  0  0  0
M  END
