Coordinates from ORCA-job p-NO2-Ph-N2-NO3-B3LYPG-aug-cc-pVDZ-scan-d09-49-n400
 OpenBabel01151817073D

 19 18  0  0  0  0  0  0  0  0999 V2000
   -0.5806    0.0584   -1.2268 C   0  0  0  0  0  0  0  0  0  0  0  0
    0.8030    0.1872   -1.2343 C   0  0  0  0  0  0  0  0  0  0  0  0
    1.3994    1.2264   -0.4844 C   0  0  0  0  0  0  0  0  0  0  0  0
    0.5920    2.2775    0.0127 C   0  0  0  0  0  0  0  0  0  0  0  0
   -0.7870    2.1515    0.0073 C   0  0  0  0  0  0  0  0  0  0  0  0
   -1.3617    1.0171   -0.5768 C   0  0  0  0  0  0  0  0  0  0  0  0
   -1.0657   -0.7645   -1.7457 H   0  0  0  0  0  0  0  0  0  0  0  0
    1.4134   -0.5413   -1.7555 H   0  0  0  0  0  0  0  0  0  0  0  0
    1.0767    3.1478    0.4510 H   0  0  0  0  0  0  0  0  0  0  0  0
   -1.4252    2.9208    0.4341 H   0  0  0  0  0  0  0  0  0  0  0  0
   -2.8242    0.8721   -0.5749 N   0  0  0  0  0  0  0  0  0  0  0  0
   -3.3008   -0.1235   -1.1160 O   0  0  0  0  0  0  0  0  0  0  0  0
   -3.4844    1.7539   -0.0285 O   0  0  0  0  0  0  0  0  0  0  0  0
    1.7822    0.3351    1.1987 N   0  0  0  0  0  0  0  0  0  0  0  0
    1.1468   -0.1817    1.9492 N   0  0  0  0  0  0  0  0  0  0  0  0
    2.7193    1.6586   -0.6742 O   0  0  0  0  0  0  0  0  0  0  0  0
    3.8002    0.6847   -0.7826 N   0  0  0  0  0  0  0  0  0  0  0  0
    4.8614    1.2359   -0.8384 O   0  0  0  0  0  0  0  0  0  0  0  0
    3.5207   -0.4875   -0.7742 O   0  0  0  0  0  0  0  0  0  0  0  0
  1  6  1  0  0  0  0
  2  1  2  0  0  0  0
  2  3  1  0  0  0  0
  3  4  2  0  0  0  0
  4  9  1  0  0  0  0
  5  4  1  0  0  0  0
  5 10  1  0  0  0  0
  6 11  1  0  0  0  0
  6  5  2  0  0  0  0
  7  1  1  0  0  0  0
  8  2  1  0  0  0  0
 11 13  2  0  0  0  0
 12 11  2  0  0  0  0
 14 15  3  0  0  0  0
 16  3  1  0  0  0  0
 17 19  2  0  0  0  0
 17 16  1  0  0  0  0
 18 17  2  0  0  0  0
M  END
