Coordinates from ORCA-job p-NO2-Ph-N2-NO3-B3LYPG-aug-cc-pVDZ-scan-d09-49-n400
 OpenBabel01151817083D

 19 18  0  0  0  0  0  0  0  0999 V2000
   -0.6669    0.2115   -1.6746 C   0  0  0  0  0  0  0  0  0  0  0  0
    0.7096    0.3950   -1.7847 C   0  0  0  0  0  0  0  0  0  0  0  0
    1.3349    1.3516   -0.9790 C   0  0  0  0  0  0  0  0  0  0  0  0
    0.6129    2.1368   -0.0750 C   0  0  0  0  0  0  0  0  0  0  0  0
   -0.7667    1.9672    0.0255 C   0  0  0  0  0  0  0  0  0  0  0  0
   -1.3826    1.0011   -0.7717 C   0  0  0  0  0  0  0  0  0  0  0  0
   -1.1910   -0.5226   -2.2810 H   0  0  0  0  0  0  0  0  0  0  0  0
    1.2921   -0.1956   -2.4885 H   0  0  0  0  0  0  0  0  0  0  0  0
    1.1350    2.8782    0.5265 H   0  0  0  0  0  0  0  0  0  0  0  0
   -1.3645    2.5644    0.7090 H   0  0  0  0  0  0  0  0  0  0  0  0
   -2.8434    0.8119   -0.6621 N   0  0  0  0  0  0  0  0  0  0  0  0
   -3.3622   -0.0443   -1.3733 O   0  0  0  0  0  0  0  0  0  0  0  0
   -3.4521    1.5244    0.1318 O   0  0  0  0  0  0  0  0  0  0  0  0
    2.1947    0.5481    2.5575 N   0  0  0  0  0  0  0  0  0  0  0  0
    1.8093    0.1613    3.5172 N   0  0  0  0  0  0  0  0  0  0  0  0
    2.6848    1.6478   -1.1243 O   0  0  0  0  0  0  0  0  0  0  0  0
    3.6282    0.5593   -0.7479 N   0  0  0  0  0  0  0  0  0  0  0  0
    4.7622    0.9141   -0.8778 O   0  0  0  0  0  0  0  0  0  0  0  0
    3.1511   -0.4817   -0.3870 O   0  0  0  0  0  0  0  0  0  0  0  0
  1  6  1  0  0  0  0
  2  1  2  0  0  0  0
  2  3  1  0  0  0  0
  3  4  2  0  0  0  0
  4  5  1  0  0  0  0
  4  9  1  0  0  0  0
  5 10  1  0  0  0  0
  6 11  1  0  0  0  0
  6  5  2  0  0  0  0
  7  1  1  0  0  0  0
  8  2  1  0  0  0  0
 11 13  2  0  0  0  0
 12 11  2  0  0  0  0
 14 15  3  0  0  0  0
 16  3  1  0  0  0  0
 16 17  1  0  0  0  0
 17 19  2  0  0  0  0
 18 17  2  0  0  0  0
M  END
