Coordinates from ORCA-job p-NO2-Ph-N2-NO3-B3LYPG-aug-cc-pVDZ-scan-d09-49-n400
 OpenBabel01151817083D

 19 18  0  0  0  0  0  0  0  0999 V2000
   -0.6257    0.1486   -1.5068 C   0  0  0  0  0  0  0  0  0  0  0  0
    0.7525    0.3295   -1.6075 C   0  0  0  0  0  0  0  0  0  0  0  0
    1.3550    1.3653   -0.8860 C   0  0  0  0  0  0  0  0  0  0  0  0
    0.6042    2.2353   -0.0871 C   0  0  0  0  0  0  0  0  0  0  0  0
   -0.7758    2.0684   -0.0027 C   0  0  0  0  0  0  0  0  0  0  0  0
   -1.3686    1.0192   -0.7075 C   0  0  0  0  0  0  0  0  0  0  0  0
   -1.1304   -0.6471   -2.0486 H   0  0  0  0  0  0  0  0  0  0  0  0
    1.3461   -0.3259   -2.2391 H   0  0  0  0  0  0  0  0  0  0  0  0
    1.1082    3.0388    0.4463 H   0  0  0  0  0  0  0  0  0  0  0  0
   -1.3915    2.7303    0.6008 H   0  0  0  0  0  0  0  0  0  0  0  0
   -2.8293    0.8306   -0.6125 N   0  0  0  0  0  0  0  0  0  0  0  0
   -3.3258   -0.1029   -1.2376 O   0  0  0  0  0  0  0  0  0  0  0  0
   -3.4613    1.6185    0.0865 O   0  0  0  0  0  0  0  0  0  0  0  0
    2.0285    0.3766    2.1745 N   0  0  0  0  0  0  0  0  0  0  0  0
    1.5362   -0.1106    3.0343 N   0  0  0  0  0  0  0  0  0  0  0  0
    2.6994    1.6899   -1.0180 O   0  0  0  0  0  0  0  0  0  0  0  0
    3.6892    0.6132   -0.7655 N   0  0  0  0  0  0  0  0  0  0  0  0
    4.8034    1.0382   -0.8518 O   0  0  0  0  0  0  0  0  0  0  0  0
    3.2710   -0.4875   -0.5309 O   0  0  0  0  0  0  0  0  0  0  0  0
  1  6  1  0  0  0  0
  2  1  2  0  0  0  0
  2  3  1  0  0  0  0
  3  4  2  0  0  0  0
  4  5  1  0  0  0  0
  4  9  1  0  0  0  0
  5 10  1  0  0  0  0
  6 11  1  0  0  0  0
  6  5  2  0  0  0  0
  7  1  1  0  0  0  0
  8  2  1  0  0  0  0
 11 13  2  0  0  0  0
 12 11  2  0  0  0  0
 14 15  3  0  0  0  0
 16  3  1  0  0  0  0
 16 17  1  0  0  0  0
 17 19  2  0  0  0  0
 18 17  2  0  0  0  0
M  END
