Coordinates from ORCA-job p-NO2-Ph-N2-NO3-B3LYPG-aug-cc-pVDZ-scan-d09-49-n400
 OpenBabel01151817073D

 19 18  0  0  0  0  0  0  0  0999 V2000
   -0.6680    0.1032   -1.2080 C   0  0  0  0  0  0  0  0  0  0  0  0
    0.6083   -0.0426   -0.6471 C   0  0  0  0  0  0  0  0  0  0  0  0
    0.8623    0.8445    0.3587 C   0  0  0  0  0  0  0  0  0  0  0  0
    0.1038    1.8399    0.9144 C   0  0  0  0  0  0  0  0  0  0  0  0
   -1.1636    1.9629    0.3239 C   0  0  0  0  0  0  0  0  0  0  0  0
   -1.5182    1.0961   -0.7119 C   0  0  0  0  0  0  0  0  0  0  0  0
   -0.9946   -0.5365   -2.0244 H   0  0  0  0  0  0  0  0  0  0  0  0
    1.3533   -0.7595   -0.9861 H   0  0  0  0  0  0  0  0  0  0  0  0
    0.4406    2.4834    1.7222 H   0  0  0  0  0  0  0  0  0  0  0  0
   -1.8646    2.7214    0.6644 H   0  0  0  0  0  0  0  0  0  0  0  0
   -2.8653    1.2390   -1.3158 N   0  0  0  0  0  0  0  0  0  0  0  0
   -3.1636    0.4630   -2.2159 O   0  0  0  0  0  0  0  0  0  0  0  0
   -3.5909    2.1217   -0.8713 O   0  0  0  0  0  0  0  0  0  0  0  0
    2.5037    0.5587    1.2132 N   0  0  0  0  0  0  0  0  0  0  0  0
    3.0617    0.7474    2.1585 N   0  0  0  0  0  0  0  0  0  0  0  0
    3.1100    1.7007   -1.1881 O   0  0  0  0  0  0  0  0  0  0  0  0
    3.8061    0.6710   -1.3070 N   0  0  0  0  0  0  0  0  0  0  0  0
    4.6605    0.5204   -2.1712 O   0  0  0  0  0  0  0  0  0  0  0  0
    3.6041   -0.3062   -0.4680 O   0  0  0  0  0  0  0  0  0  0  0  0
  1  6  2  0  0  0  0
  1  2  1  0  0  0  0
  2  3  2  0  0  0  0
  3  4  1  0  0  0  0
  3 14  1  0  0  0  0
  4  9  1  0  0  0  0
  5 10  1  0  0  0  0
  5  4  2  0  0  0  0
  6  5  1  0  0  0  0
  7  1  1  0  0  0  0
  8  2  1  0  0  0  0
 11 13  2  0  0  0  0
 11  6  1  0  0  0  0
 12 11  2  0  0  0  0
 14 15  2  0  0  0  0
 17 16  2  0  0  0  0
 17 19  1  0  0  0  0
 18 17  2  0  0  0  0
M  RAD  2  15   2  19   2
M  END
