Coordinates from ORCA-job p-NO2-Ph-N2-NO3-B3LYPG-aug-cc-pVDZ-scan-d09-49-n400
 OpenBabel01151817083D

 19 18  0  0  0  0  0  0  0  0999 V2000
   -0.7341    0.3000   -1.8667 C   0  0  0  0  0  0  0  0  0  0  0  0
    0.6458    0.4675   -1.9612 C   0  0  0  0  0  0  0  0  0  0  0  0
    1.2939    1.3069   -1.0514 C   0  0  0  0  0  0  0  0  0  0  0  0
    0.5961    1.9871   -0.0496 C   0  0  0  0  0  0  0  0  0  0  0  0
   -0.7858    1.8290    0.0436 C   0  0  0  0  0  0  0  0  0  0  0  0
   -1.4259    0.9844   -0.8649 C   0  0  0  0  0  0  0  0  0  0  0  0
   -1.2774   -0.3428   -2.5543 H   0  0  0  0  0  0  0  0  0  0  0  0
    1.2182   -0.0424   -2.7340 H   0  0  0  0  0  0  0  0  0  0  0  0
    1.1366    2.6366    0.6360 H   0  0  0  0  0  0  0  0  0  0  0  0
   -1.3679    2.3443    0.8031 H   0  0  0  0  0  0  0  0  0  0  0  0
   -2.8906    0.8114   -0.7660 N   0  0  0  0  0  0  0  0  0  0  0  0
   -3.4320    0.0654   -1.5773 O   0  0  0  0  0  0  0  0  0  0  0  0
   -3.4781    1.4266    0.1195 O   0  0  0  0  0  0  0  0  0  0  0  0
    2.5574    0.8514    2.9368 N   0  0  0  0  0  0  0  0  0  0  0  0
    2.3448    0.4612    3.9477 N   0  0  0  0  0  0  0  0  0  0  0  0
    2.6548    1.5628   -1.1853 O   0  0  0  0  0  0  0  0  0  0  0  0
    3.5389    0.4874   -0.6562 N   0  0  0  0  0  0  0  0  0  0  0  0
    4.6925    0.7728   -0.7843 O   0  0  0  0  0  0  0  0  0  0  0  0
    2.9984   -0.4811   -0.1948 O   0  0  0  0  0  0  0  0  0  0  0  0
  1  6  1  0  0  0  0
  2  1  2  0  0  0  0
  2  3  1  0  0  0  0
  3  4  2  0  0  0  0
  4  5  1  0  0  0  0
  4  9  1  0  0  0  0
  5 10  1  0  0  0  0
  6 11  1  0  0  0  0
  6  5  2  0  0  0  0
  7  1  1  0  0  0  0
  8  2  1  0  0  0  0
 11 13  2  0  0  0  0
 12 11  2  0  0  0  0
 14 15  3  0  0  0  0
 16  3  1  0  0  0  0
 16 17  1  0  0  0  0
 17 19  2  0  0  0  0
 18 17  2  0  0  0  0
M  END
