Coordinates from ORCA-job p-NO2-Ph-N2-NO3-B3LYPG-aug-cc-pVDZ-scan-d09-49-n400
 OpenBabel01151817073D

 19 18  0  0  0  0  0  0  0  0999 V2000
   -0.5806    0.0594   -1.2296 C   0  0  0  0  0  0  0  0  0  0  0  0
    0.8038    0.1924   -1.2428 C   0  0  0  0  0  0  0  0  0  0  0  0
    1.3963    1.2446   -0.5154 C   0  0  0  0  0  0  0  0  0  0  0  0
    0.5919    2.2808    0.0050 C   0  0  0  0  0  0  0  0  0  0  0  0
   -0.7882    2.1520    0.0043 C   0  0  0  0  0  0  0  0  0  0  0  0
   -1.3615    1.0194   -0.5827 C   0  0  0  0  0  0  0  0  0  0  0  0
   -1.0649   -0.7693   -1.7401 H   0  0  0  0  0  0  0  0  0  0  0  0
    1.4129   -0.5375   -1.7632 H   0  0  0  0  0  0  0  0  0  0  0  0
    1.0758    3.1496    0.4471 H   0  0  0  0  0  0  0  0  0  0  0  0
   -1.4264    2.9162    0.4403 H   0  0  0  0  0  0  0  0  0  0  0  0
   -2.8248    0.8711   -0.5766 N   0  0  0  0  0  0  0  0  0  0  0  0
   -3.3005   -0.1241   -1.1186 O   0  0  0  0  0  0  0  0  0  0  0  0
   -3.4853    1.7538   -0.0328 O   0  0  0  0  0  0  0  0  0  0  0  0
    1.7922    0.3265    1.2431 N   0  0  0  0  0  0  0  0  0  0  0  0
    1.1565   -0.1914    1.9901 N   0  0  0  0  0  0  0  0  0  0  0  0
    2.7193    1.6620   -0.6778 O   0  0  0  0  0  0  0  0  0  0  0  0
    3.7976    0.6815   -0.7752 N   0  0  0  0  0  0  0  0  0  0  0  0
    4.8605    1.2295   -0.8288 O   0  0  0  0  0  0  0  0  0  0  0  0
    3.5108   -0.4879   -0.8056 O   0  0  0  0  0  0  0  0  0  0  0  0
  1  6  1  0  0  0  0
  2  1  2  0  0  0  0
  2  3  1  0  0  0  0
  3  4  2  0  0  0  0
  4  9  1  0  0  0  0
  5  4  1  0  0  0  0
  5 10  1  0  0  0  0
  6 11  1  0  0  0  0
  6  5  2  0  0  0  0
  7  1  1  0  0  0  0
  8  2  1  0  0  0  0
 11 13  2  0  0  0  0
 12 11  2  0  0  0  0
 14 15  3  0  0  0  0
 16  3  1  0  0  0  0
 17 16  1  0  0  0  0
 18 17  2  0  0  0  0
 19 17  2  0  0  0  0
M  END
