Coordinates from ORCA-job p-NO2-Ph-N2-NO3-B3LYPG-aug-cc-pVDZ-scan-d09-49-n400
 OpenBabel01151817073D

 19 18  0  0  0  0  0  0  0  0999 V2000
   -0.6703    0.1135   -1.2186 C   0  0  0  0  0  0  0  0  0  0  0  0
    0.6089   -0.0293   -0.6700 C   0  0  0  0  0  0  0  0  0  0  0  0
    0.8941    0.8338    0.3585 C   0  0  0  0  0  0  0  0  0  0  0  0
    0.1044    1.8139    0.9197 C   0  0  0  0  0  0  0  0  0  0  0  0
   -1.1658    1.9417    0.3466 C   0  0  0  0  0  0  0  0  0  0  0  0
   -1.5237    1.0910   -0.7013 C   0  0  0  0  0  0  0  0  0  0  0  0
   -1.0009   -0.5171   -2.0400 H   0  0  0  0  0  0  0  0  0  0  0  0
    1.3464   -0.7435   -1.0277 H   0  0  0  0  0  0  0  0  0  0  0  0
    0.4389    2.4486    1.7359 H   0  0  0  0  0  0  0  0  0  0  0  0
   -1.8691    2.6895    0.7044 H   0  0  0  0  0  0  0  0  0  0  0  0
   -2.8770    1.2349   -1.2931 N   0  0  0  0  0  0  0  0  0  0  0  0
   -3.1774    0.4716   -2.2032 O   0  0  0  0  0  0  0  0  0  0  0  0
   -3.6055    2.1041   -0.8273 O   0  0  0  0  0  0  0  0  0  0  0  0
    2.4387    0.6266    1.1145 N   0  0  0  0  0  0  0  0  0  0  0  0
    2.9914    0.8297    2.0648 N   0  0  0  0  0  0  0  0  0  0  0  0
    3.2396    1.7394   -1.2018 O   0  0  0  0  0  0  0  0  0  0  0  0
    3.8519    0.6589   -1.2823 N   0  0  0  0  0  0  0  0  0  0  0  0
    4.7278    0.4168   -2.1012 O   0  0  0  0  0  0  0  0  0  0  0  0
    3.5331   -0.2955   -0.4371 O   0  0  0  0  0  0  0  0  0  0  0  0
  1  6  2  0  0  0  0
  1  2  1  0  0  0  0
  2  3  2  0  0  0  0
  3  4  1  0  0  0  0
  3 14  1  0  0  0  0
  4  9  1  0  0  0  0
  5 10  1  0  0  0  0
  5  4  2  0  0  0  0
  6  5  1  0  0  0  0
  7  1  1  0  0  0  0
  8  2  1  0  0  0  0
 11 13  2  0  0  0  0
 11  6  1  0  0  0  0
 12 11  2  0  0  0  0
 14 15  2  0  0  0  0
 17 16  2  0  0  0  0
 17 19  1  0  0  0  0
 18 17  2  0  0  0  0
M  RAD  2  15   2  19   2
M  END
