Coordinates from ORCA-job p-NO2-Ph-N2-NO3-B3LYPG-aug-cc-pVDZ-scan-d09-49-n400
 OpenBabel01151817083D

 19 18  0  0  0  0  0  0  0  0999 V2000
   -0.6204    0.1394   -1.4780 C   0  0  0  0  0  0  0  0  0  0  0  0
    0.7588    0.3175   -1.5733 C   0  0  0  0  0  0  0  0  0  0  0  0
    1.3576    1.3639   -0.8635 C   0  0  0  0  0  0  0  0  0  0  0  0
    0.6012    2.2479   -0.0850 C   0  0  0  0  0  0  0  0  0  0  0  0
   -0.7793    2.0834   -0.0069 C   0  0  0  0  0  0  0  0  0  0  0  0
   -1.3684    1.0226   -0.6977 C   0  0  0  0  0  0  0  0  0  0  0  0
   -1.1218   -0.6645   -2.0108 H   0  0  0  0  0  0  0  0  0  0  0  0
    1.3542   -0.3482   -2.1917 H   0  0  0  0  0  0  0  0  0  0  0  0
    1.1020    3.0600    0.4384 H   0  0  0  0  0  0  0  0  0  0  0  0
   -1.3982    2.7557    0.5814 H   0  0  0  0  0  0  0  0  0  0  0  0
   -2.8295    0.8359   -0.6090 N   0  0  0  0  0  0  0  0  0  0  0  0
   -3.3219   -0.1100   -1.2185 O   0  0  0  0  0  0  0  0  0  0  0  0
   -3.4654    1.6339    0.0750 O   0  0  0  0  0  0  0  0  0  0  0  0
    2.0106    0.3569    2.0983 N   0  0  0  0  0  0  0  0  0  0  0  0
    1.5017   -0.1465    2.9395 N   0  0  0  0  0  0  0  0  0  0  0  0
    2.7015    1.6933   -0.9892 O   0  0  0  0  0  0  0  0  0  0  0  0
    3.6997    0.6201   -0.7659 N   0  0  0  0  0  0  0  0  0  0  0  0
    4.8097    1.0579   -0.8421 O   0  0  0  0  0  0  0  0  0  0  0  0
    3.2933   -0.4909   -0.5604 O   0  0  0  0  0  0  0  0  0  0  0  0
  1  6  1  0  0  0  0
  2  1  2  0  0  0  0
  2  3  1  0  0  0  0
  3  4  2  0  0  0  0
  4  5  1  0  0  0  0
  4  9  1  0  0  0  0
  5 10  1  0  0  0  0
  6 11  1  0  0  0  0
  6  5  2  0  0  0  0
  7  1  1  0  0  0  0
  8  2  1  0  0  0  0
 11 13  2  0  0  0  0
 12 11  2  0  0  0  0
 14 15  3  0  0  0  0
 16  3  1  0  0  0  0
 16 17  1  0  0  0  0
 17 19  2  0  0  0  0
 18 17  2  0  0  0  0
M  END
