Coordinates from ORCA-job p-NO2-Ph-N2-NO3-B3LYPG-aug-cc-pVDZ-scan-d09-49-n400
 OpenBabel01151817083D

 19 18  0  0  0  0  0  0  0  0999 V2000
   -0.7283    0.2925   -1.8517 C   0  0  0  0  0  0  0  0  0  0  0  0
    0.6512    0.4620   -1.9482 C   0  0  0  0  0  0  0  0  0  0  0  0
    1.2978    1.3114   -1.0465 C   0  0  0  0  0  0  0  0  0  0  0  0
    0.5986    2.0001   -0.0515 C   0  0  0  0  0  0  0  0  0  0  0  0
   -0.7831    1.8405    0.0431 C   0  0  0  0  0  0  0  0  0  0  0  0
   -1.4216    0.9855   -0.8568 C   0  0  0  0  0  0  0  0  0  0  0  0
   -1.2703   -0.3582   -2.5329 H   0  0  0  0  0  0  0  0  0  0  0  0
    1.2243   -0.0543   -2.7162 H   0  0  0  0  0  0  0  0  0  0  0  0
    1.1378    2.6575    0.6275 H   0  0  0  0  0  0  0  0  0  0  0  0
   -1.3662    2.3624    0.7973 H   0  0  0  0  0  0  0  0  0  0  0  0
   -2.8858    0.8106   -0.7562 N   0  0  0  0  0  0  0  0  0  0  0  0
   -3.4256    0.0551   -1.5597 O   0  0  0  0  0  0  0  0  0  0  0  0
   -3.4746    1.4336    0.1230 O   0  0  0  0  0  0  0  0  0  0  0  0
    2.5242    0.8259    2.9075 N   0  0  0  0  0  0  0  0  0  0  0  0
    2.2941    0.4386    3.9156 N   0  0  0  0  0  0  0  0  0  0  0  0
    2.6577    1.5708   -1.1820 O   0  0  0  0  0  0  0  0  0  0  0  0
    3.5464    0.4929   -0.6654 N   0  0  0  0  0  0  0  0  0  0  0  0
    4.6987    0.7832   -0.7942 O   0  0  0  0  0  0  0  0  0  0  0  0
    3.0103   -0.4816   -0.2118 O   0  0  0  0  0  0  0  0  0  0  0  0
  1  6  1  0  0  0  0
  2  1  2  0  0  0  0
  2  3  1  0  0  0  0
  3  4  2  0  0  0  0
  4  5  1  0  0  0  0
  4  9  1  0  0  0  0
  5 10  1  0  0  0  0
  6 11  1  0  0  0  0
  6  5  2  0  0  0  0
  7  1  1  0  0  0  0
  8  2  1  0  0  0  0
 11 13  2  0  0  0  0
 12 11  2  0  0  0  0
 14 15  3  0  0  0  0
 16  3  1  0  0  0  0
 16 17  1  0  0  0  0
 17 19  2  0  0  0  0
 18 17  2  0  0  0  0
M  END
