Coordinates from ORCA-job p-NO2-Ph-N2-NO3-B3LYPG-aug-cc-pVDZ-scan-d09-49-n400
 OpenBabel01151817083D

 19 18  0  0  0  0  0  0  0  0999 V2000
   -0.6311    0.1582   -1.5348 C   0  0  0  0  0  0  0  0  0  0  0  0
    0.7463    0.3408   -1.6389 C   0  0  0  0  0  0  0  0  0  0  0  0
    1.3527    1.3651   -0.9041 C   0  0  0  0  0  0  0  0  0  0  0  0
    0.6069    2.2221   -0.0875 C   0  0  0  0  0  0  0  0  0  0  0  0
   -0.7730    2.0537    0.0014 C   0  0  0  0  0  0  0  0  0  0  0  0
   -1.3693    1.0162   -0.7173 C   0  0  0  0  0  0  0  0  0  0  0  0
   -1.1391   -0.6284   -2.0866 H   0  0  0  0  0  0  0  0  0  0  0  0
    1.3383   -0.3039   -2.2834 H   0  0  0  0  0  0  0  0  0  0  0  0
    1.1135    3.0178    0.4550 H   0  0  0  0  0  0  0  0  0  0  0  0
   -1.3859    2.7059    0.6181 H   0  0  0  0  0  0  0  0  0  0  0  0
   -2.8298    0.8263   -0.6177 N   0  0  0  0  0  0  0  0  0  0  0  0
   -3.3297   -0.0965   -1.2559 O   0  0  0  0  0  0  0  0  0  0  0  0
   -3.4579    1.6023    0.0977 O   0  0  0  0  0  0  0  0  0  0  0  0
    2.0477    0.3985    2.2445 N   0  0  0  0  0  0  0  0  0  0  0  0
    1.5717   -0.0731    3.1220 N   0  0  0  0  0  0  0  0  0  0  0  0
    2.6975    1.6850   -1.0415 O   0  0  0  0  0  0  0  0  0  0  0  0
    3.6793    0.6054   -0.7649 N   0  0  0  0  0  0  0  0  0  0  0  0
    4.7973    1.0180   -0.8612 O   0  0  0  0  0  0  0  0  0  0  0  0
    3.2502   -0.4851   -0.5043 O   0  0  0  0  0  0  0  0  0  0  0  0
  1  6  1  0  0  0  0
  2  1  2  0  0  0  0
  2  3  1  0  0  0  0
  3  4  2  0  0  0  0
  4  5  1  0  0  0  0
  4  9  1  0  0  0  0
  5 10  1  0  0  0  0
  6 11  1  0  0  0  0
  6  5  2  0  0  0  0
  7  1  1  0  0  0  0
  8  2  1  0  0  0  0
 11 13  2  0  0  0  0
 12 11  2  0  0  0  0
 14 15  3  0  0  0  0
 16  3  1  0  0  0  0
 16 17  1  0  0  0  0
 17 19  2  0  0  0  0
 18 17  2  0  0  0  0
M  END
