Coordinates from ORCA-job p-NO2-Ph-N2-NO3-B3LYPG-aug-cc-pVDZ-scan-d09-49-n400
 OpenBabel01151817083D

 19 18  0  0  0  0  0  0  0  0999 V2000
   -0.7963    0.3763   -2.0140 C   0  0  0  0  0  0  0  0  0  0  0  0
    0.5880    0.5183   -2.0950 C   0  0  0  0  0  0  0  0  0  0  0  0
    1.2561    1.2520   -1.1124 C   0  0  0  0  0  0  0  0  0  0  0  0
    0.5765    1.8482   -0.0460 C   0  0  0  0  0  0  0  0  0  0  0  0
   -0.8075    1.7088    0.0392 C   0  0  0  0  0  0  0  0  0  0  0  0
   -1.4691    0.9736   -0.9465 C   0  0  0  0  0  0  0  0  0  0  0  0
   -1.3558   -0.1834   -2.7589 H   0  0  0  0  0  0  0  0  0  0  0  0
    1.1502    0.0735   -2.9143 H   0  0  0  0  0  0  0  0  0  0  0  0
    1.1310    2.4155    0.6992 H   0  0  0  0  0  0  0  0  0  0  0  0
   -1.3765    2.1586    0.8487 H   0  0  0  0  0  0  0  0  0  0  0  0
   -2.9375    0.8251   -0.8584 N   0  0  0  0  0  0  0  0  0  0  0  0
   -3.4980    0.1771   -1.7378 O   0  0  0  0  0  0  0  0  0  0  0  0
   -3.5081    1.3607    0.0878 O   0  0  0  0  0  0  0  0  0  0  0  0
    2.8545    1.0838    3.2824 N   0  0  0  0  0  0  0  0  0  0  0  0
    2.8500    0.6835    4.3114 N   0  0  0  0  0  0  0  0  0  0  0  0
    2.6238    1.4741   -1.2424 O   0  0  0  0  0  0  0  0  0  0  0  0
    3.4723    0.4456   -0.5751 N   0  0  0  0  0  0  0  0  0  0  0  0
    4.6348    0.6905   -0.7043 O   0  0  0  0  0  0  0  0  0  0  0  0
    2.8972   -0.4532   -0.0230 O   0  0  0  0  0  0  0  0  0  0  0  0
  1  6  1  0  0  0  0
  2  1  2  0  0  0  0
  2  3  1  0  0  0  0
  3  4  2  0  0  0  0
  4  5  1  0  0  0  0
  4  9  1  0  0  0  0
  5 10  1  0  0  0  0
  6 11  1  0  0  0  0
  6  5  2  0  0  0  0
  7  1  1  0  0  0  0
  8  2  1  0  0  0  0
 11 13  2  0  0  0  0
 12 11  2  0  0  0  0
 14 15  3  0  0  0  0
 16  3  1  0  0  0  0
 16 17  1  0  0  0  0
 17 19  2  0  0  0  0
 18 17  2  0  0  0  0
M  END
