Coordinates from ORCA-job p-NO2-Ph-N2-NO3-B3LYPG-aug-cc-pVDZ-scan-d09-49-n400
 OpenBabel01151817073D

 19 18  0  0  0  0  0  0  0  0999 V2000
   -0.6691    0.1135   -1.2183 C   0  0  0  0  0  0  0  0  0  0  0  0
    0.6101   -0.0303   -0.6686 C   0  0  0  0  0  0  0  0  0  0  0  0
    0.8905    0.8342    0.3591 C   0  0  0  0  0  0  0  0  0  0  0  0
    0.1041    1.8146    0.9218 C   0  0  0  0  0  0  0  0  0  0  0  0
   -1.1659    1.9420    0.3464 C   0  0  0  0  0  0  0  0  0  0  0  0
   -1.5226    1.0913   -0.7017 C   0  0  0  0  0  0  0  0  0  0  0  0
   -0.9988   -0.5169   -2.0403 H   0  0  0  0  0  0  0  0  0  0  0  0
    1.3482   -0.7442   -1.0251 H   0  0  0  0  0  0  0  0  0  0  0  0
    0.4385    2.4489    1.7381 H   0  0  0  0  0  0  0  0  0  0  0  0
   -1.8695    2.6900    0.7035 H   0  0  0  0  0  0  0  0  0  0  0  0
   -2.8753    1.2353   -1.2948 N   0  0  0  0  0  0  0  0  0  0  0  0
   -3.1742    0.4734   -2.2064 O   0  0  0  0  0  0  0  0  0  0  0  0
   -3.6039    2.1052   -0.8302 O   0  0  0  0  0  0  0  0  0  0  0  0
    2.4425    0.6241    1.1219 N   0  0  0  0  0  0  0  0  0  0  0  0
    2.9931    0.8298    2.0725 N   0  0  0  0  0  0  0  0  0  0  0  0
    3.2292    1.7352   -1.2055 O   0  0  0  0  0  0  0  0  0  0  0  0
    3.8478    0.6581   -1.2858 N   0  0  0  0  0  0  0  0  0  0  0  0
    4.7213    0.4198   -2.1088 O   0  0  0  0  0  0  0  0  0  0  0  0
    3.5393   -0.2955   -0.4372 O   0  0  0  0  0  0  0  0  0  0  0  0
  1  6  2  0  0  0  0
  1  2  1  0  0  0  0
  2  3  2  0  0  0  0
  3  4  1  0  0  0  0
  3 14  1  0  0  0  0
  4  9  1  0  0  0  0
  5 10  1  0  0  0  0
  5  4  2  0  0  0  0
  6  5  1  0  0  0  0
  7  1  1  0  0  0  0
  8  2  1  0  0  0  0
 11 13  2  0  0  0  0
 11  6  1  0  0  0  0
 12 11  2  0  0  0  0
 14 15  2  0  0  0  0
 17 16  2  0  0  0  0
 17 19  1  0  0  0  0
 18 17  2  0  0  0  0
M  RAD  2  15   2  19   2
M  END
