Coordinates from ORCA-job p-NO2-Ph-N2-NO3-B3LYPG-aug-cc-pVDZ-scan-d09-49-n400
 OpenBabel01151817083D

 19 18  0  0  0  0  0  0  0  0999 V2000
   -0.6588    0.2008   -1.6477 C   0  0  0  0  0  0  0  0  0  0  0  0
    0.7176    0.3849   -1.7560 C   0  0  0  0  0  0  0  0  0  0  0  0
    1.3393    1.3552   -0.9633 C   0  0  0  0  0  0  0  0  0  0  0  0
    0.6119    2.1542   -0.0768 C   0  0  0  0  0  0  0  0  0  0  0  0
   -0.7681    1.9848    0.0213 C   0  0  0  0  0  0  0  0  0  0  0  0
   -1.3795    1.0043   -0.7612 C   0  0  0  0  0  0  0  0  0  0  0  0
   -1.1791   -0.5439   -2.2442 H   0  0  0  0  0  0  0  0  0  0  0  0
    1.3025   -0.2163   -2.4487 H   0  0  0  0  0  0  0  0  0  0  0  0
    1.1305    2.9069    0.5137 H   0  0  0  0  0  0  0  0  0  0  0  0
   -1.3692    2.5926    0.6925 H   0  0  0  0  0  0  0  0  0  0  0  0
   -2.8403    0.8147   -0.6540 N   0  0  0  0  0  0  0  0  0  0  0  0
   -3.3547   -0.0560   -1.3507 O   0  0  0  0  0  0  0  0  0  0  0  0
   -3.4530    1.5389    0.1261 O   0  0  0  0  0  0  0  0  0  0  0  0
    2.1632    0.5181    2.4998 N   0  0  0  0  0  0  0  0  0  0  0  0
    1.7599    0.1154    3.4455 N   0  0  0  0  0  0  0  0  0  0  0  0
    2.6880    1.6561   -1.1103 O   0  0  0  0  0  0  0  0  0  0  0  0
    3.6377    0.5680   -0.7544 N   0  0  0  0  0  0  0  0  0  0  0  0
    4.7694    0.9316   -0.8816 O   0  0  0  0  0  0  0  0  0  0  0  0
    3.1682   -0.4818   -0.4093 O   0  0  0  0  0  0  0  0  0  0  0  0
  1  6  1  0  0  0  0
  2  1  2  0  0  0  0
  2  3  1  0  0  0  0
  3  4  2  0  0  0  0
  4  5  1  0  0  0  0
  4  9  1  0  0  0  0
  5 10  1  0  0  0  0
  6 11  1  0  0  0  0
  6  5  2  0  0  0  0
  7  1  1  0  0  0  0
  8  2  1  0  0  0  0
 11 13  2  0  0  0  0
 12 11  2  0  0  0  0
 14 15  3  0  0  0  0
 16  3  1  0  0  0  0
 16 17  1  0  0  0  0
 17 19  2  0  0  0  0
 18 17  2  0  0  0  0
M  END
