Coordinates from ORCA-job p-NO2-Ph-N2-NO3-B3LYPG-aug-cc-pVDZ-scan-d09-49-n400
 OpenBabel01151817073D

 19 18  0  0  0  0  0  0  0  0999 V2000
   -0.5855    0.0696   -1.2547 C   0  0  0  0  0  0  0  0  0  0  0  0
    0.8006    0.2133   -1.2890 C   0  0  0  0  0  0  0  0  0  0  0  0
    1.3853    1.2965   -0.6175 C   0  0  0  0  0  0  0  0  0  0  0  0
    0.5900    2.2943   -0.0288 C   0  0  0  0  0  0  0  0  0  0  0  0
   -0.7913    2.1558   -0.0102 C   0  0  0  0  0  0  0  0  0  0  0  0
   -1.3634    1.0288   -0.6066 C   0  0  0  0  0  0  0  0  0  0  0  0
   -1.0694   -0.7719   -1.7441 H   0  0  0  0  0  0  0  0  0  0  0  0
    1.4053   -0.5187   -1.8111 H   0  0  0  0  0  0  0  0  0  0  0  0
    1.0735    3.1575    0.4243 H   0  0  0  0  0  0  0  0  0  0  0  0
   -1.4278    2.9034    0.4561 H   0  0  0  0  0  0  0  0  0  0  0  0
   -2.8274    0.8694   -0.5817 N   0  0  0  0  0  0  0  0  0  0  0  0
   -3.3026   -0.1286   -1.1182 O   0  0  0  0  0  0  0  0  0  0  0  0
   -3.4865    1.7448   -0.0255 O   0  0  0  0  0  0  0  0  0  0  0  0
    1.8328    0.2836    1.4023 N   0  0  0  0  0  0  0  0  0  0  0  0
    1.2099   -0.2456    2.1474 N   0  0  0  0  0  0  0  0  0  0  0  0
    2.7187    1.6791   -0.7175 O   0  0  0  0  0  0  0  0  0  0  0  0
    3.7855    0.6757   -0.7762 N   0  0  0  0  0  0  0  0  0  0  0  0
    4.8570    1.2086   -0.7891 O   0  0  0  0  0  0  0  0  0  0  0  0
    3.4807   -0.4871   -0.8194 O   0  0  0  0  0  0  0  0  0  0  0  0
  1  6  1  0  0  0  0
  2  1  2  0  0  0  0
  2  3  1  0  0  0  0
  3  4  2  0  0  0  0
  4  5  1  0  0  0  0
  4  9  1  0  0  0  0
  5 10  1  0  0  0  0
  6 11  1  0  0  0  0
  6  5  2  0  0  0  0
  7  1  1  0  0  0  0
  8  2  1  0  0  0  0
 11 13  2  0  0  0  0
 12 11  2  0  0  0  0
 14 15  3  0  0  0  0
 16  3  1  0  0  0  0
 17 16  1  0  0  0  0
 18 17  2  0  0  0  0
 19 17  2  0  0  0  0
M  END
