Coordinates from ORCA-job p-NO2-Ph-N2-NO3-B3LYPG-aug-cc-pVDZ-scan-d09-49-n400
 OpenBabel01151817083D

 19 18  0  0  0  0  0  0  0  0999 V2000
   -0.7873    0.3656   -1.9936 C   0  0  0  0  0  0  0  0  0  0  0  0
    0.5964    0.5116   -2.0769 C   0  0  0  0  0  0  0  0  0  0  0  0
    1.2620    1.2603   -1.1039 C   0  0  0  0  0  0  0  0  0  0  0  0
    0.5805    1.8683   -0.0454 C   0  0  0  0  0  0  0  0  0  0  0  0
   -0.8032    1.7258    0.0413 C   0  0  0  0  0  0  0  0  0  0  0  0
   -1.4622    0.9750   -0.9343 C   0  0  0  0  0  0  0  0  0  0  0  0
   -1.3449   -0.2060   -2.7309 H   0  0  0  0  0  0  0  0  0  0  0  0
    1.1598    0.0578   -2.8904 H   0  0  0  0  0  0  0  0  0  0  0  0
    1.1333    2.4472    0.6919 H   0  0  0  0  0  0  0  0  0  0  0  0
   -1.3738    2.1847    0.8446 H   0  0  0  0  0  0  0  0  0  0  0  0
   -2.9301    0.8228   -0.8441 N   0  0  0  0  0  0  0  0  0  0  0  0
   -3.4882    0.1600   -1.7140 O   0  0  0  0  0  0  0  0  0  0  0  0
   -3.5025    1.3688    0.0949 O   0  0  0  0  0  0  0  0  0  0  0  0
    2.8095    1.0534    3.2222 N   0  0  0  0  0  0  0  0  0  0  0  0
    2.7745    0.6522    4.2504 N   0  0  0  0  0  0  0  0  0  0  0  0
    2.6290    1.4869   -1.2339 O   0  0  0  0  0  0  0  0  0  0  0  0
    3.4810    0.4508   -0.5833 N   0  0  0  0  0  0  0  0  0  0  0  0
    4.6427    0.7011   -0.7099 O   0  0  0  0  0  0  0  0  0  0  0  0
    2.9092   -0.4578   -0.0442 O   0  0  0  0  0  0  0  0  0  0  0  0
  1  6  1  0  0  0  0
  2  1  2  0  0  0  0
  2  3  1  0  0  0  0
  3  4  2  0  0  0  0
  4  5  1  0  0  0  0
  4  9  1  0  0  0  0
  5 10  1  0  0  0  0
  6 11  1  0  0  0  0
  6  5  2  0  0  0  0
  7  1  1  0  0  0  0
  8  2  1  0  0  0  0
 11 13  2  0  0  0  0
 12 11  2  0  0  0  0
 14 15  3  0  0  0  0
 16  3  1  0  0  0  0
 16 17  1  0  0  0  0
 17 19  2  0  0  0  0
 18 17  2  0  0  0  0
M  END
