Coordinates from ORCA-job p-NO2-Ph-N2-NO3-B3LYPG-aug-cc-pVDZ-scan-d09-49-n400
 OpenBabel01151817083D

 19 18  0  0  0  0  0  0  0  0999 V2000
   -0.6724    0.2202   -1.6944 C   0  0  0  0  0  0  0  0  0  0  0  0
    0.7040    0.4032   -1.8037 C   0  0  0  0  0  0  0  0  0  0  0  0
    1.3326    1.3485   -0.9870 C   0  0  0  0  0  0  0  0  0  0  0  0
    0.6132    2.1226   -0.0727 C   0  0  0  0  0  0  0  0  0  0  0  0
   -0.7668    1.9538    0.0284 C   0  0  0  0  0  0  0  0  0  0  0  0
   -1.3853    0.9993   -0.7803 C   0  0  0  0  0  0  0  0  0  0  0  0
   -1.1985   -0.5052   -2.3094 H   0  0  0  0  0  0  0  0  0  0  0  0
    1.2852   -0.1789   -2.5159 H   0  0  0  0  0  0  0  0  0  0  0  0
    1.1373    2.8556    0.5373 H   0  0  0  0  0  0  0  0  0  0  0  0
   -1.3627    2.5425    0.7210 H   0  0  0  0  0  0  0  0  0  0  0  0
   -2.8464    0.8109   -0.6706 N   0  0  0  0  0  0  0  0  0  0  0  0
   -3.3674   -0.0362   -1.3909 O   0  0  0  0  0  0  0  0  0  0  0  0
   -3.4523    1.5125    0.1350 O   0  0  0  0  0  0  0  0  0  0  0  0
    2.2202    0.5719    2.6013 N   0  0  0  0  0  0  0  0  0  0  0  0
    1.8493    0.1979    3.5717 N   0  0  0  0  0  0  0  0  0  0  0  0
    2.6832    1.6409   -1.1350 O   0  0  0  0  0  0  0  0  0  0  0  0
    3.6201    0.5521   -0.7450 N   0  0  0  0  0  0  0  0  0  0  0  0
    4.7566    0.8984   -0.8762 O   0  0  0  0  0  0  0  0  0  0  0  0
    3.1355   -0.4816   -0.3731 O   0  0  0  0  0  0  0  0  0  0  0  0
  1  6  1  0  0  0  0
  2  1  2  0  0  0  0
  2  3  1  0  0  0  0
  3  4  2  0  0  0  0
  4  5  1  0  0  0  0
  4  9  1  0  0  0  0
  5 10  1  0  0  0  0
  6 11  1  0  0  0  0
  6  5  2  0  0  0  0
  7  1  1  0  0  0  0
  8  2  1  0  0  0  0
 11 13  2  0  0  0  0
 12 11  2  0  0  0  0
 14 15  3  0  0  0  0
 16  3  1  0  0  0  0
 16 17  1  0  0  0  0
 17 19  2  0  0  0  0
 18 17  2  0  0  0  0
M  END
