Coordinates from ORCA-job p-NO2-Ph-N2-NO3-B3LYPG-aug-cc-pVDZ-scan-d09-49-n400
 OpenBabel01151817083D

 19 18  0  0  0  0  0  0  0  0999 V2000
   -0.7618    0.3360   -1.9353 C   0  0  0  0  0  0  0  0  0  0  0  0
    0.6202    0.4926   -2.0218 C   0  0  0  0  0  0  0  0  0  0  0  0
    1.2771    1.2823   -1.0751 C   0  0  0  0  0  0  0  0  0  0  0  0
    0.5870    1.9226   -0.0421 C   0  0  0  0  0  0  0  0  0  0  0  0
   -0.7961    1.7727    0.0460 C   0  0  0  0  0  0  0  0  0  0  0  0
   -1.4455    0.9791   -0.9014 C   0  0  0  0  0  0  0  0  0  0  0  0
   -1.3121   -0.2680   -2.6519 H   0  0  0  0  0  0  0  0  0  0  0  0
    1.1887    0.0139   -2.8173 H   0  0  0  0  0  0  0  0  0  0  0  0
    1.1334    2.5339    0.6735 H   0  0  0  0  0  0  0  0  0  0  0  0
   -1.3726    2.2570    0.8297 H   0  0  0  0  0  0  0  0  0  0  0  0
   -2.9120    0.8168   -0.8092 N   0  0  0  0  0  0  0  0  0  0  0  0
   -3.4616    0.1164   -1.6547 O   0  0  0  0  0  0  0  0  0  0  0  0
   -3.4923    1.3944    0.1059 O   0  0  0  0  0  0  0  0  0  0  0  0
    2.6958    0.9676    3.0661 N   0  0  0  0  0  0  0  0  0  0  0  0
    2.5781    0.5682    4.0888 N   0  0  0  0  0  0  0  0  0  0  0  0
    2.6416    1.5221   -1.2054 O   0  0  0  0  0  0  0  0  0  0  0  0
    3.5062    0.4645   -0.6105 N   0  0  0  0  0  0  0  0  0  0  0  0
    4.6649    0.7292   -0.7358 O   0  0  0  0  0  0  0  0  0  0  0  0
    2.9466   -0.4728   -0.1088 O   0  0  0  0  0  0  0  0  0  0  0  0
  1  6  1  0  0  0  0
  2  1  2  0  0  0  0
  2  3  1  0  0  0  0
  3  4  2  0  0  0  0
  4  5  1  0  0  0  0
  4  9  1  0  0  0  0
  5 10  1  0  0  0  0
  6 11  1  0  0  0  0
  6  5  2  0  0  0  0
  7  1  1  0  0  0  0
  8  2  1  0  0  0  0
 11 13  2  0  0  0  0
 12 11  2  0  0  0  0
 14 15  3  0  0  0  0
 16  3  1  0  0  0  0
 16 17  1  0  0  0  0
 17 19  2  0  0  0  0
 18 17  2  0  0  0  0
M  END
