Coordinates from ORCA-job p-NO2-Ph-N2-NO3-B3LYPG-aug-cc-pVDZ-scan-d09-49-n400
 OpenBabel01151817083D

 19 18  0  0  0  0  0  0  0  0999 V2000
   -0.7758    0.3534   -1.9683 C   0  0  0  0  0  0  0  0  0  0  0  0
    0.6073    0.5041   -2.0516 C   0  0  0  0  0  0  0  0  0  0  0  0
    1.2687    1.2703   -1.0888 C   0  0  0  0  0  0  0  0  0  0  0  0
    0.5821    1.8916   -0.0427 C   0  0  0  0  0  0  0  0  0  0  0  0
   -0.8013    1.7461    0.0441 C   0  0  0  0  0  0  0  0  0  0  0  0
   -1.4555    0.9770   -0.9202 C   0  0  0  0  0  0  0  0  0  0  0  0
   -1.3295   -0.2321   -2.6976 H   0  0  0  0  0  0  0  0  0  0  0  0
    1.1735    0.0398   -2.8571 H   0  0  0  0  0  0  0  0  0  0  0  0
    1.1320    2.4845    0.6858 H   0  0  0  0  0  0  0  0  0  0  0  0
   -1.3748    2.2157    0.8389 H   0  0  0  0  0  0  0  0  0  0  0  0
   -2.9229    0.8204   -0.8305 N   0  0  0  0  0  0  0  0  0  0  0  0
   -3.4765    0.1407   -1.6901 O   0  0  0  0  0  0  0  0  0  0  0  0
   -3.4992    1.3792    0.0987 O   0  0  0  0  0  0  0  0  0  0  0  0
    2.7621    1.0188    3.1476 N   0  0  0  0  0  0  0  0  0  0  0  0
    2.6945    0.6164    4.1735 N   0  0  0  0  0  0  0  0  0  0  0  0
    2.6347    1.5014   -1.2196 O   0  0  0  0  0  0  0  0  0  0  0  0
    3.4910    0.4555   -0.5929 N   0  0  0  0  0  0  0  0  0  0  0  0
    4.6518    0.7110   -0.7181 O   0  0  0  0  0  0  0  0  0  0  0  0
    2.9232   -0.4653   -0.0705 O   0  0  0  0  0  0  0  0  0  0  0  0
  1  6  1  0  0  0  0
  2  1  2  0  0  0  0
  2  3  1  0  0  0  0
  3  4  2  0  0  0  0
  4  5  1  0  0  0  0
  4  9  1  0  0  0  0
  5 10  1  0  0  0  0
  6 11  1  0  0  0  0
  6  5  2  0  0  0  0
  7  1  1  0  0  0  0
  8  2  1  0  0  0  0
 11 13  2  0  0  0  0
 12 11  2  0  0  0  0
 14 15  3  0  0  0  0
 16  3  1  0  0  0  0
 16 17  1  0  0  0  0
 17 19  2  0  0  0  0
 18 17  2  0  0  0  0
M  END
