Coordinates from ORCA-job p-NO2-Ph-N2-NO3-B3LYPG-aug-cc-pVDZ-scan-d09-49-n400
 OpenBabel01151817073D

 19 19  0  0  1  0  0  0  0  0999 V2000
   -0.1571    0.1104   -1.1342 C   0  0  0  0  0  0  0  0  0  0  0  0
    1.0850   -0.1863   -0.3564 C   0  0  2  0  0  0  0  0  0  0  0  0
    1.2403    0.6582    0.9352 C   0  0  0  0  0  0  0  0  0  0  0  0
    0.2905    1.7679    1.1581 C   0  0  0  0  0  0  0  0  0  0  0  0
   -0.7758    1.9765    0.3590 C   0  0  0  0  0  0  0  0  0  0  0  0
   -0.9912    1.1006   -0.7730 C   0  0  0  0  0  0  0  0  0  0  0  0
   -0.3752   -0.5130   -1.9987 H   0  0  0  0  0  0  0  0  0  0  0  0
    1.1076   -1.2515   -0.0786 H   0  0  0  0  0  0  0  0  0  0  0  0
    0.4938    2.4106    2.0144 H   0  0  0  0  0  0  0  0  0  0  0  0
   -1.4731    2.7889    0.5388 H   0  0  0  0  0  0  0  0  0  0  0  0
   -2.2140    1.3171   -1.5916 N   0  0  0  0  0  0  0  0  0  0  0  0
   -2.4148    0.5689   -2.5415 O   0  0  0  0  0  0  0  0  0  0  0  0
   -2.9483    2.2415   -1.2568 O   0  0  0  0  0  0  0  0  0  0  0  0
    2.0030    0.4120    1.6141 N   0  0  0  0  0  0  0  0  0  0  0  0
    2.8531    0.1222    2.3524 N   0  0  0  0  0  0  0  0  0  0  0  0
    2.0122    2.0477   -1.4838 O   0  0  0  0  0  0  0  0  0  0  0  0
    2.6588    1.0738   -1.7919 N   0  0  0  0  0  0  0  0  0  0  0  0
    3.5970    0.9639   -2.5317 O   0  0  0  0  0  0  0  0  0  0  0  0
    2.2936   -0.1809   -1.1932 O   0  0  0  0  0  0  0  0  0  0  0  0
  1  6  2  0  0  0  0
  1  2  1  0  0  0  0
  2  8  1  1  0  0  0
  2  3  1  0  0  0  0
  3  4  2  0  0  0  0
  3 14  1  0  0  0  0
  4  9  1  0  0  0  0
  5 10  1  0  0  0  0
  5  4  1  0  0  0  0
  6  5  1  0  0  0  0
  7  1  1  0  0  0  0
 11 13  2  0  0  0  0
 11  6  1  0  0  0  0
 12 11  2  0  0  0  0
 14 15  1  0  0  0  0
 17 16  2  0  0  0  0
 17 19  1  0  0  0  0
 18 17  2  0  0  0  0
 19  2  1  0  0  0  0
M  RAD  3   5   2  14   2  15   3
M  END
