Coordinates from ORCA-job p-NO2-Ph-N2-NO3-B3LYPG-aug-cc-pVDZ-scan-d09-49-n400
 OpenBabel01151817083D

 19 18  0  0  0  0  0  0  0  0999 V2000
   -0.8067    0.3891   -2.0373 C   0  0  0  0  0  0  0  0  0  0  0  0
    0.5783    0.5264   -2.1162 C   0  0  0  0  0  0  0  0  0  0  0  0
    1.2498    1.2425   -1.1229 C   0  0  0  0  0  0  0  0  0  0  0  0
    0.5727    1.8246   -0.0477 C   0  0  0  0  0  0  0  0  0  0  0  0
   -0.8116    1.6890    0.0365 C   0  0  0  0  0  0  0  0  0  0  0  0
   -1.4768    0.9722   -0.9605 C   0  0  0  0  0  0  0  0  0  0  0  0
   -1.3685   -0.1566   -2.7908 H   0  0  0  0  0  0  0  0  0  0  0  0
    1.1388    0.0922   -2.9423 H   0  0  0  0  0  0  0  0  0  0  0  0
    1.1295    2.3783    0.7061 H   0  0  0  0  0  0  0  0  0  0  0  0
   -1.3784    2.1282    0.8533 H   0  0  0  0  0  0  0  0  0  0  0  0
   -2.9457    0.8285   -0.8741 N   0  0  0  0  0  0  0  0  0  0  0  0
   -3.5091    0.1959   -1.7629 O   0  0  0  0  0  0  0  0  0  0  0  0
   -3.5135    1.3501    0.0815 O   0  0  0  0  0  0  0  0  0  0  0  0
    2.9050    1.1189    3.3594 N   0  0  0  0  0  0  0  0  0  0  0  0
    2.9302    0.7223    4.3895 N   0  0  0  0  0  0  0  0  0  0  0  0
    2.6182    1.4591   -1.2541 O   0  0  0  0  0  0  0  0  0  0  0  0
    3.4628    0.4388   -0.5703 N   0  0  0  0  0  0  0  0  0  0  0  0
    4.6262    0.6788   -0.7009 O   0  0  0  0  0  0  0  0  0  0  0  0
    2.8843   -0.4499   -0.0056 O   0  0  0  0  0  0  0  0  0  0  0  0
  1  6  1  0  0  0  0
  2  1  2  0  0  0  0
  2  3  1  0  0  0  0
  3  4  2  0  0  0  0
  4  5  1  0  0  0  0
  4  9  1  0  0  0  0
  5 10  1  0  0  0  0
  6 11  1  0  0  0  0
  6  5  2  0  0  0  0
  7  1  1  0  0  0  0
  8  2  1  0  0  0  0
 11 13  2  0  0  0  0
 12 11  2  0  0  0  0
 14 15  3  0  0  0  0
 16  3  1  0  0  0  0
 16 17  1  0  0  0  0
 17 19  2  0  0  0  0
 18 17  2  0  0  0  0
M  END
