Coordinates from ORCA-job p-NO2-Ph-N2-NO3-B3LYPG-aug-cc-pVDZ-scan-d09-49-n400
 OpenBabel01151817073D

 19 19  0  0  1  0  0  0  0  0999 V2000
   -0.2050    0.0519   -1.0890 C   0  0  0  0  0  0  0  0  0  0  0  0
    1.0638   -0.2074   -0.3535 C   0  0  2  0  0  0  0  0  0  0  0  0
    1.0821    0.6449    0.8338 C   0  0  2  0  0  0  0  0  0  0  0  0
    0.2889    1.7704    1.1303 C   0  0  0  0  0  0  0  0  0  0  0  0
   -0.7581    2.0385    0.2876 C   0  0  0  0  0  0  0  0  0  0  0  0
   -0.9891    1.1213   -0.7886 C   0  0  0  0  0  0  0  0  0  0  0  0
   -0.4904   -0.6322   -1.8833 H   0  0  0  0  0  0  0  0  0  0  0  0
    1.2177   -1.2747   -0.1541 H   0  0  0  0  0  0  0  0  0  0  0  0
    0.5060    2.3951    1.9941 H   0  0  0  0  0  0  0  0  0  0  0  0
   -1.4099    2.8932    0.4288 H   0  0  0  0  0  0  0  0  0  0  0  0
   -2.2120    1.3280   -1.6135 N   0  0  0  0  0  0  0  0  0  0  0  0
   -2.4549    0.5193   -2.5027 O   0  0  0  0  0  0  0  0  0  0  0  0
   -2.9060    2.3045   -1.3481 O   0  0  0  0  0  0  0  0  0  0  0  0
    2.1659    0.2510    1.9163 N   0  0  0  0  0  0  0  0  0  0  0  0
    2.9553   -0.0331    2.6600 N   0  0  0  0  0  0  0  0  0  0  0  0
    1.9048    2.0925   -1.5814 O   0  0  0  0  0  0  0  0  0  0  0  0
    2.6172    1.1479   -1.8527 N   0  0  0  0  0  0  0  0  0  0  0  0
    3.5881    1.1130   -2.5703 O   0  0  0  0  0  0  0  0  0  0  0  0
    2.3211   -0.0956   -1.2730 O   0  0  0  0  0  0  0  0  0  0  0  0
  1  6  2  0  0  0  0
  1  2  1  0  0  0  0
  2  8  1  1  0  0  0
  2  3  1  0  0  0  0
  3  4  1  0  0  0  0
  3 14  1  6  0  0  0
  4  9  1  0  0  0  0
  5 10  1  0  0  0  0
  5  4  2  0  0  0  0
  6  5  1  0  0  0  0
  7  1  1  0  0  0  0
 11 13  2  0  0  0  0
 11  6  1  0  0  0  0
 12 11  2  0  0  0  0
 14 15  1  0  0  0  0
 17 16  2  0  0  0  0
 17 19  1  0  0  0  0
 18 17  2  0  0  0  0
 19  2  1  0  0  0  0
M  RAD  3   3   2  14   2  15   3
M  END
