Coordinates from ORCA-job p-NO2-Ph-N2-NO3-B3LYPG-aug-cc-pVDZ-scan-d09-49-n400
 OpenBabel01151817073D

 19 19  0  0  1  0  0  0  0  0999 V2000
   -0.1697    0.0868   -1.1177 C   0  0  0  0  0  0  0  0  0  0  0  0
    1.0850   -0.1909   -0.3530 C   0  0  2  0  0  0  0  0  0  0  0  0
    1.1953    0.6495    0.9068 C   0  0  0  0  0  0  0  0  0  0  0  0
    0.3033    1.7727    1.1413 C   0  0  0  0  0  0  0  0  0  0  0  0
   -0.7573    2.0018    0.3310 C   0  0  0  0  0  0  0  0  0  0  0  0
   -0.9850    1.1047   -0.7782 C   0  0  0  0  0  0  0  0  0  0  0  0
   -0.4103   -0.5596   -1.9582 H   0  0  0  0  0  0  0  0  0  0  0  0
    1.1515   -1.2611   -0.1080 H   0  0  0  0  0  0  0  0  0  0  0  0
    0.5100    2.4161    1.9958 H   0  0  0  0  0  0  0  0  0  0  0  0
   -1.4381    2.8303    0.4954 H   0  0  0  0  0  0  0  0  0  0  0  0
   -2.2116    1.3149   -1.5948 N   0  0  0  0  0  0  0  0  0  0  0  0
   -2.4307    0.5421   -2.5209 O   0  0  0  0  0  0  0  0  0  0  0  0
   -2.9286    2.2614   -1.2856 O   0  0  0  0  0  0  0  0  0  0  0  0
    2.0437    0.3493    1.7167 N   0  0  0  0  0  0  0  0  0  0  0  0
    2.8532    0.0488    2.4698 N   0  0  0  0  0  0  0  0  0  0  0  0
    1.9580    2.0701   -1.5221 O   0  0  0  0  0  0  0  0  0  0  0  0
    2.6328    1.1095   -1.8145 N   0  0  0  0  0  0  0  0  0  0  0  0
    3.5851    1.0267   -2.5437 O   0  0  0  0  0  0  0  0  0  0  0  0
    2.2987   -0.1445   -1.2193 O   0  0  0  0  0  0  0  0  0  0  0  0
  1  6  2  0  0  0  0
  1  2  1  0  0  0  0
  2  8  1  1  0  0  0
  2  3  1  0  0  0  0
  3  4  2  0  0  0  0
  3 14  1  0  0  0  0
  4  9  1  0  0  0  0
  5 10  1  0  0  0  0
  5  4  1  0  0  0  0
  6  5  1  0  0  0  0
  7  1  1  0  0  0  0
 11 13  2  0  0  0  0
 11  6  1  0  0  0  0
 12 11  2  0  0  0  0
 14 15  1  0  0  0  0
 17 16  2  0  0  0  0
 17 19  1  0  0  0  0
 18 17  2  0  0  0  0
 19  2  1  0  0  0  0
M  RAD  3   5   2  14   2  15   3
M  END
