Coordinates from ORCA-job p-NO2-Ph-N2-NO3-B3LYPG-aug-cc-pVDZ-scan-d09-49-n400
 OpenBabel01151817073D

 19 18  0  0  0  0  0  0  0  0999 V2000
   -0.6136    0.1232   -1.4301 C   0  0  0  0  0  0  0  0  0  0  0  0
    0.7670    0.2969   -1.5170 C   0  0  0  0  0  0  0  0  0  0  0  0
    1.3601    1.3591   -0.8259 C   0  0  0  0  0  0  0  0  0  0  0  0
    0.5952    2.2643   -0.0797 C   0  0  0  0  0  0  0  0  0  0  0  0
   -0.7855    2.1028   -0.0106 C   0  0  0  0  0  0  0  0  0  0  0  0
   -1.3692    1.0249   -0.6794 C   0  0  0  0  0  0  0  0  0  0  0  0
   -1.1101   -0.6928   -1.9489 H   0  0  0  0  0  0  0  0  0  0  0  0
    1.3648   -0.3844   -2.1147 H   0  0  0  0  0  0  0  0  0  0  0  0
    1.0915    3.0890    0.4282 H   0  0  0  0  0  0  0  0  0  0  0  0
   -1.4091    2.7905    0.5546 H   0  0  0  0  0  0  0  0  0  0  0  0
   -2.8307    0.8408   -0.6000 N   0  0  0  0  0  0  0  0  0  0  0  0
   -3.3197   -0.1104   -1.2040 O   0  0  0  0  0  0  0  0  0  0  0  0
   -3.4748    1.6666    0.0422 O   0  0  0  0  0  0  0  0  0  0  0  0
    1.9921    0.3301    1.9807 N   0  0  0  0  0  0  0  0  0  0  0  0
    1.4614   -0.1987    2.7926 N   0  0  0  0  0  0  0  0  0  0  0  0
    2.7029    1.6972   -0.9413 O   0  0  0  0  0  0  0  0  0  0  0  0
    3.7154    0.6323   -0.7677 N   0  0  0  0  0  0  0  0  0  0  0  0
    4.8182    1.0911   -0.8280 O   0  0  0  0  0  0  0  0  0  0  0  0
    3.3297   -0.4941   -0.6102 O   0  0  0  0  0  0  0  0  0  0  0  0
  1  6  1  0  0  0  0
  2  1  2  0  0  0  0
  2  3  1  0  0  0  0
  3  4  2  0  0  0  0
  4  5  1  0  0  0  0
  4  9  1  0  0  0  0
  5 10  1  0  0  0  0
  6 11  1  0  0  0  0
  6  5  2  0  0  0  0
  7  1  1  0  0  0  0
  8  2  1  0  0  0  0
 11 13  2  0  0  0  0
 12 11  2  0  0  0  0
 14 15  3  0  0  0  0
 16  3  1  0  0  0  0
 16 17  1  0  0  0  0
 17 19  2  0  0  0  0
 18 17  2  0  0  0  0
M  END
