Coordinates from ORCA-job p-NO2-Ph-N2-NO3-B3LYPG-aug-cc-pVDZ-scan-d09-49-n400
 OpenBabel01151817073D

 19 18  0  0  0  0  0  0  0  0999 V2000
   -0.6122    0.1218   -1.4225 C   0  0  0  0  0  0  0  0  0  0  0  0
    0.7689    0.2937   -1.5064 C   0  0  0  0  0  0  0  0  0  0  0  0
    1.3608    1.3586   -0.8187 C   0  0  0  0  0  0  0  0  0  0  0  0
    0.5942    2.2684   -0.0795 C   0  0  0  0  0  0  0  0  0  0  0  0
   -0.7866    2.1084   -0.0137 C   0  0  0  0  0  0  0  0  0  0  0  0
   -1.3693    1.0276   -0.6787 C   0  0  0  0  0  0  0  0  0  0  0  0
   -1.1077   -0.6964   -1.9388 H   0  0  0  0  0  0  0  0  0  0  0  0
    1.3673   -0.3913   -2.0992 H   0  0  0  0  0  0  0  0  0  0  0  0
    1.0898    3.0949    0.4258 H   0  0  0  0  0  0  0  0  0  0  0  0
   -1.4112    2.7997    0.5462 H   0  0  0  0  0  0  0  0  0  0  0  0
   -2.8309    0.8454   -0.6029 N   0  0  0  0  0  0  0  0  0  0  0  0
   -3.3174   -0.1167   -1.1917 O   0  0  0  0  0  0  0  0  0  0  0  0
   -3.4747    1.6670    0.0448 O   0  0  0  0  0  0  0  0  0  0  0  0
    1.9854    0.3249    1.9551 N   0  0  0  0  0  0  0  0  0  0  0  0
    1.4495   -0.2089    2.7595 N   0  0  0  0  0  0  0  0  0  0  0  0
    2.7038    1.6972   -0.9295 O   0  0  0  0  0  0  0  0  0  0  0  0
    3.7188    0.6336   -0.7664 N   0  0  0  0  0  0  0  0  0  0  0  0
    4.8202    1.0963   -0.8221 O   0  0  0  0  0  0  0  0  0  0  0  0
    3.3369   -0.4957   -0.6205 O   0  0  0  0  0  0  0  0  0  0  0  0
  1  6  1  0  0  0  0
  2  1  2  0  0  0  0
  2  3  1  0  0  0  0
  3  4  2  0  0  0  0
  4  5  1  0  0  0  0
  4  9  1  0  0  0  0
  5 10  1  0  0  0  0
  6 11  1  0  0  0  0
  6  5  2  0  0  0  0
  7  1  1  0  0  0  0
  8  2  1  0  0  0  0
 11 13  2  0  0  0  0
 12 11  2  0  0  0  0
 14 15  3  0  0  0  0
 16  3  1  0  0  0  0
 16 17  1  0  0  0  0
 17 19  2  0  0  0  0
 18 17  2  0  0  0  0
M  END
