Coordinates from ORCA-job p-NO2-Ph-N2-NO3-B3LYPG-aug-cc-pVDZ-scan-d09-49-n400
 OpenBabel01151817073D

 19 18  0  0  0  0  0  0  0  0999 V2000
   -0.5868    0.0715   -1.2599 C   0  0  0  0  0  0  0  0  0  0  0  0
    0.7993    0.2173   -1.2978 C   0  0  0  0  0  0  0  0  0  0  0  0
    1.3830    1.3036   -0.6328 C   0  0  0  0  0  0  0  0  0  0  0  0
    0.5893    2.2956   -0.0338 C   0  0  0  0  0  0  0  0  0  0  0  0
   -0.7921    2.1553   -0.0118 C   0  0  0  0  0  0  0  0  0  0  0  0
   -1.3643    1.0294   -0.6098 C   0  0  0  0  0  0  0  0  0  0  0  0
   -1.0707   -0.7711   -1.7474 H   0  0  0  0  0  0  0  0  0  0  0  0
    1.4037   -0.5142   -1.8212 H   0  0  0  0  0  0  0  0  0  0  0  0
    1.0731    3.1577    0.4210 H   0  0  0  0  0  0  0  0  0  0  0  0
   -1.4281    2.9001    0.4594 H   0  0  0  0  0  0  0  0  0  0  0  0
   -2.8281    0.8679   -0.5812 N   0  0  0  0  0  0  0  0  0  0  0  0
   -3.3039   -0.1265   -1.1238 O   0  0  0  0  0  0  0  0  0  0  0  0
   -3.4874    1.7451   -0.0281 O   0  0  0  0  0  0  0  0  0  0  0  0
    1.8426    0.2763    1.4344 N   0  0  0  0  0  0  0  0  0  0  0  0
    1.2257   -0.2553    2.1822 N   0  0  0  0  0  0  0  0  0  0  0  0
    2.7174    1.6821   -0.7266 O   0  0  0  0  0  0  0  0  0  0  0  0
    3.7825    0.6750   -0.7773 N   0  0  0  0  0  0  0  0  0  0  0  0
    4.8550    1.2058   -0.7897 O   0  0  0  0  0  0  0  0  0  0  0  0
    3.4752   -0.4871   -0.8152 O   0  0  0  0  0  0  0  0  0  0  0  0
  1  6  1  0  0  0  0
  2  1  2  0  0  0  0
  2  3  1  0  0  0  0
  3  4  2  0  0  0  0
  4  5  1  0  0  0  0
  4  9  1  0  0  0  0
  5 10  1  0  0  0  0
  6 11  1  0  0  0  0
  6  5  2  0  0  0  0
  7  1  1  0  0  0  0
  8  2  1  0  0  0  0
 11 13  2  0  0  0  0
 12 11  2  0  0  0  0
 14 15  3  0  0  0  0
 16  3  1  0  0  0  0
 17 16  1  0  0  0  0
 18 17  2  0  0  0  0
 19 17  2  0  0  0  0
M  END
