Coordinates from ORCA-job p-NO2-Ph-N2-NO3-B3LYPG-aug-cc-pVDZ-scan-d09-49-n400
 OpenBabel01151817083D

 19 18  0  0  0  0  0  0  0  0999 V2000
   -0.6555    0.1953   -1.6346 C   0  0  0  0  0  0  0  0  0  0  0  0
    0.7210    0.3794   -1.7436 C   0  0  0  0  0  0  0  0  0  0  0  0
    1.3405    1.3571   -0.9586 C   0  0  0  0  0  0  0  0  0  0  0  0
    0.6115    2.1635   -0.0789 C   0  0  0  0  0  0  0  0  0  0  0  0
   -0.7681    1.9935    0.0188 C   0  0  0  0  0  0  0  0  0  0  0  0
   -1.3779    1.0055   -0.7558 C   0  0  0  0  0  0  0  0  0  0  0  0
   -1.1746   -0.5551   -2.2250 H   0  0  0  0  0  0  0  0  0  0  0  0
    1.3067   -0.2274   -2.4305 H   0  0  0  0  0  0  0  0  0  0  0  0
    1.1289    2.9215    0.5057 H   0  0  0  0  0  0  0  0  0  0  0  0
   -1.3704    2.6071    0.6837 H   0  0  0  0  0  0  0  0  0  0  0  0
   -2.8385    0.8154   -0.6485 N   0  0  0  0  0  0  0  0  0  0  0  0
   -3.3515   -0.0610   -1.3390 O   0  0  0  0  0  0  0  0  0  0  0  0
   -3.4531    1.5471    0.1232 O   0  0  0  0  0  0  0  0  0  0  0  0
    2.1477    0.5017    2.4722 N   0  0  0  0  0  0  0  0  0  0  0  0
    1.7352    0.0903    3.4103 N   0  0  0  0  0  0  0  0  0  0  0  0
    2.6886    1.6605   -1.1027 O   0  0  0  0  0  0  0  0  0  0  0  0
    3.6431    0.5730   -0.7558 N   0  0  0  0  0  0  0  0  0  0  0  0
    4.7728    0.9429   -0.8816 O   0  0  0  0  0  0  0  0  0  0  0  0
    3.1792   -0.4818   -0.4187 O   0  0  0  0  0  0  0  0  0  0  0  0
  1  6  1  0  0  0  0
  2  1  2  0  0  0  0
  2  3  1  0  0  0  0
  3  4  2  0  0  0  0
  4  5  1  0  0  0  0
  4  9  1  0  0  0  0
  5 10  1  0  0  0  0
  6 11  1  0  0  0  0
  6  5  2  0  0  0  0
  7  1  1  0  0  0  0
  8  2  1  0  0  0  0
 11 13  2  0  0  0  0
 12 11  2  0  0  0  0
 14 15  3  0  0  0  0
 16  3  1  0  0  0  0
 16 17  1  0  0  0  0
 17 19  2  0  0  0  0
 18 17  2  0  0  0  0
M  END
