Coordinates from ORCA-job p-NO2-Ph-N2-NO3-B3LYPG-aug-cc-pVDZ-scan-d09-49-n400
 OpenBabel01151817073D

 19 19  0  0  1  0  0  0  0  0999 V2000
   -0.1832    0.0702   -1.1064 C   0  0  0  0  0  0  0  0  0  0  0  0
    1.0785   -0.1973   -0.3526 C   0  0  2  0  0  0  0  0  0  0  0  0
    1.1529    0.6470    0.8783 C   0  0  1  0  0  0  0  0  0  0  0  0
    0.3024    1.7729    1.1339 C   0  0  0  0  0  0  0  0  0  0  0  0
   -0.7521    2.0191    0.3107 C   0  0  0  0  0  0  0  0  0  0  0  0
   -0.9834    1.1108   -0.7836 C   0  0  0  0  0  0  0  0  0  0  0  0
   -0.4430   -0.5917   -1.9283 H   0  0  0  0  0  0  0  0  0  0  0  0
    1.1818   -1.2680   -0.1288 H   0  0  0  0  0  0  0  0  0  0  0  0
    0.5103    2.4095    1.9925 H   0  0  0  0  0  0  0  0  0  0  0  0
   -1.4225    2.8574    0.4654 H   0  0  0  0  0  0  0  0  0  0  0  0
   -2.2099    1.3193   -1.6023 N   0  0  0  0  0  0  0  0  0  0  0  0
   -2.4419    0.5294   -2.5109 O   0  0  0  0  0  0  0  0  0  0  0  0
   -2.9162    2.2797   -1.3117 O   0  0  0  0  0  0  0  0  0  0  0  0
    2.0930    0.3059    1.8018 N   0  0  0  0  0  0  0  0  0  0  0  0
    2.8864    0.0090    2.5566 N   0  0  0  0  0  0  0  0  0  0  0  0
    1.9273    2.0818   -1.5489 O   0  0  0  0  0  0  0  0  0  0  0  0
    2.6199    1.1291   -1.8304 N   0  0  0  0  0  0  0  0  0  0  0  0
    3.5814    1.0662   -2.5532 O   0  0  0  0  0  0  0  0  0  0  0  0
    2.3036   -0.1220   -1.2415 O   0  0  0  0  0  0  0  0  0  0  0  0
  1  6  2  0  0  0  0
  1  2  1  0  0  0  0
  2  8  1  1  0  0  0
  2  3  1  0  0  0  0
  3  4  1  0  0  0  0
  3 14  1  1  0  0  0
  4  9  1  0  0  0  0
  5 10  1  0  0  0  0
  5  4  2  0  0  0  0
  6  5  1  0  0  0  0
  7  1  1  0  0  0  0
 11 13  2  0  0  0  0
 11  6  1  0  0  0  0
 12 11  2  0  0  0  0
 14 15  1  0  0  0  0
 17 16  2  0  0  0  0
 17 19  1  0  0  0  0
 18 17  2  0  0  0  0
 19  2  1  0  0  0  0
M  RAD  3   3   2  14   2  15   3
M  END
