Coordinates from ORCA-job p-NO2-Ph-N2-NO3-B3LYPG-aug-cc-pVDZ-scan-d09-49-n400
 OpenBabel01151817073D

 19 19  0  0  1  0  0  0  0  0999 V2000
   -0.1870    0.0665   -1.1033 C   0  0  0  0  0  0  0  0  0  0  0  0
    1.0763   -0.1990   -0.3527 C   0  0  2  0  0  0  0  0  0  0  0  0
    1.1408    0.6466    0.8705 C   0  0  2  0  0  0  0  0  0  0  0  0
    0.3008    1.7727    1.1328 C   0  0  0  0  0  0  0  0  0  0  0  0
   -0.7521    2.0231    0.3059 C   0  0  0  0  0  0  0  0  0  0  0  0
   -0.9838    1.1126   -0.7847 C   0  0  0  0  0  0  0  0  0  0  0  0
   -0.4517   -0.5994   -1.9204 H   0  0  0  0  0  0  0  0  0  0  0  0
    1.1891   -1.2694   -0.1339 H   0  0  0  0  0  0  0  0  0  0  0  0
    0.5095    2.4068    1.9928 H   0  0  0  0  0  0  0  0  0  0  0  0
   -1.4196    2.8640    0.4583 H   0  0  0  0  0  0  0  0  0  0  0  0
   -2.2101    1.3206   -1.6042 N   0  0  0  0  0  0  0  0  0  0  0  0
   -2.4445    0.5270   -2.5088 O   0  0  0  0  0  0  0  0  0  0  0  0
   -2.9135    2.2846   -1.3186 O   0  0  0  0  0  0  0  0  0  0  0  0
    2.1062    0.2953    1.8234 N   0  0  0  0  0  0  0  0  0  0  0  0
    2.8976    0.0004    2.5773 N   0  0  0  0  0  0  0  0  0  0  0  0
    1.9219    2.0844   -1.5556 O   0  0  0  0  0  0  0  0  0  0  0  0
    2.6182    1.1332   -1.8347 N   0  0  0  0  0  0  0  0  0  0  0  0
    3.5816    1.0750   -2.5564 O   0  0  0  0  0  0  0  0  0  0  0  0
    2.3060   -0.1165   -1.2469 O   0  0  0  0  0  0  0  0  0  0  0  0
  1  6  2  0  0  0  0
  1  2  1  0  0  0  0
  2  8  1  1  0  0  0
  2  3  1  0  0  0  0
  3  4  1  0  0  0  0
  3 14  1  6  0  0  0
  4  9  1  0  0  0  0
  5 10  1  0  0  0  0
  5  4  2  0  0  0  0
  6  5  1  0  0  0  0
  7  1  1  0  0  0  0
 11 13  2  0  0  0  0
 11  6  1  0  0  0  0
 12 11  2  0  0  0  0
 14 15  1  0  0  0  0
 17 16  2  0  0  0  0
 17 19  1  0  0  0  0
 18 17  2  0  0  0  0
 19  2  1  0  0  0  0
M  RAD  3   3   2  14   2  15   3
M  END
