Coordinates from ORCA-job p-NO2-Ph-N2-NO3-B3LYPG-aug-cc-pVDZ-scan-d09-49-n400
 OpenBabel01151817073D

 19 18  0  0  0  0  0  0  0  0999 V2000
   -0.6054    0.1077   -1.3770 C   0  0  0  0  0  0  0  0  0  0  0  0
    0.7775    0.2738   -1.4499 C   0  0  0  0  0  0  0  0  0  0  0  0
    1.3644    1.3514   -0.7788 C   0  0  0  0  0  0  0  0  0  0  0  0
    0.5899    2.2814   -0.0725 C   0  0  0  0  0  0  0  0  0  0  0  0
   -0.7912    2.1255   -0.0176 C   0  0  0  0  0  0  0  0  0  0  0  0
   -1.3697    1.0305   -0.6628 C   0  0  0  0  0  0  0  0  0  0  0  0
   -1.0961   -0.7210   -1.8810 H   0  0  0  0  0  0  0  0  0  0  0  0
    1.3774   -0.4268   -2.0214 H   0  0  0  0  0  0  0  0  0  0  0  0
    1.0820    3.1178    0.4199 H   0  0  0  0  0  0  0  0  0  0  0  0
   -1.4196    2.8309    0.5200 H   0  0  0  0  0  0  0  0  0  0  0  0
   -2.8320    0.8521   -0.5985 N   0  0  0  0  0  0  0  0  0  0  0  0
   -3.3148   -0.1183   -1.1766 O   0  0  0  0  0  0  0  0  0  0  0  0
   -3.4823    1.6946    0.0155 O   0  0  0  0  0  0  0  0  0  0  0  0
    1.9589    0.3001    1.8413 N   0  0  0  0  0  0  0  0  0  0  0  0
    1.4046   -0.2491    2.6226 N   0  0  0  0  0  0  0  0  0  0  0  0
    2.7062    1.6990   -0.8764 O   0  0  0  0  0  0  0  0  0  0  0  0
    3.7346    0.6463   -0.7729 N   0  0  0  0  0  0  0  0  0  0  0  0
    4.8287    1.1279   -0.8160 O   0  0  0  0  0  0  0  0  0  0  0  0
    3.3724   -0.4952   -0.6773 O   0  0  0  0  0  0  0  0  0  0  0  0
  1  6  1  0  0  0  0
  2  1  2  0  0  0  0
  2  3  1  0  0  0  0
  3  4  2  0  0  0  0
  4  5  1  0  0  0  0
  4  9  1  0  0  0  0
  5 10  1  0  0  0  0
  6 11  1  0  0  0  0
  6  5  2  0  0  0  0
  7  1  1  0  0  0  0
  8  2  1  0  0  0  0
 11 13  2  0  0  0  0
 12 11  2  0  0  0  0
 14 15  3  0  0  0  0
 16  3  1  0  0  0  0
 16 17  1  0  0  0  0
 17 19  2  0  0  0  0
 18 17  2  0  0  0  0
M  END
