Coordinates from ORCA-job p-NO2-Ph-N2-NO3-B3LYPG-aug-cc-pVDZ-scan-d09-49-n400
 OpenBabel01151817083D

 19 18  0  0  0  0  0  0  0  0999 V2000
   -0.6610    0.2041   -1.6557 C   0  0  0  0  0  0  0  0  0  0  0  0
    0.7154    0.3880   -1.7643 C   0  0  0  0  0  0  0  0  0  0  0  0
    1.3382    1.3541   -0.9674 C   0  0  0  0  0  0  0  0  0  0  0  0
    0.6122    2.1489   -0.0761 C   0  0  0  0  0  0  0  0  0  0  0  0
   -0.7678    1.9795    0.0227 C   0  0  0  0  0  0  0  0  0  0  0  0
   -1.3804    1.0034   -0.7644 C   0  0  0  0  0  0  0  0  0  0  0  0
   -1.1824   -0.5374   -2.2554 H   0  0  0  0  0  0  0  0  0  0  0  0
    1.2996   -0.2099   -2.4604 H   0  0  0  0  0  0  0  0  0  0  0  0
    1.1317    2.8982    0.5179 H   0  0  0  0  0  0  0  0  0  0  0  0
   -1.3680    2.5840    0.6976 H   0  0  0  0  0  0  0  0  0  0  0  0
   -2.8412    0.8140   -0.6567 N   0  0  0  0  0  0  0  0  0  0  0  0
   -3.3568   -0.0527   -1.3576 O   0  0  0  0  0  0  0  0  0  0  0  0
   -3.4528    1.5343    0.1279 O   0  0  0  0  0  0  0  0  0  0  0  0
    2.1725    0.5274    2.5169 N   0  0  0  0  0  0  0  0  0  0  0  0
    1.7746    0.1296    3.4668 N   0  0  0  0  0  0  0  0  0  0  0  0
    2.6872    1.6536   -1.1146 O   0  0  0  0  0  0  0  0  0  0  0  0
    3.6347    0.5653   -0.7528 N   0  0  0  0  0  0  0  0  0  0  0  0
    4.7672    0.9259   -0.8808 O   0  0  0  0  0  0  0  0  0  0  0  0
    3.1626   -0.4818   -0.4029 O   0  0  0  0  0  0  0  0  0  0  0  0
  1  6  1  0  0  0  0
  2  1  2  0  0  0  0
  2  3  1  0  0  0  0
  3  4  2  0  0  0  0
  4  5  1  0  0  0  0
  4  9  1  0  0  0  0
  5 10  1  0  0  0  0
  6 11  1  0  0  0  0
  6  5  2  0  0  0  0
  7  1  1  0  0  0  0
  8  2  1  0  0  0  0
 11 13  2  0  0  0  0
 12 11  2  0  0  0  0
 14 15  3  0  0  0  0
 16  3  1  0  0  0  0
 16 17  1  0  0  0  0
 17 19  2  0  0  0  0
 18 17  2  0  0  0  0
M  END
