Coordinates from ORCA-job p-NO2-Ph-N2-NO3-B3LYPG-aug-cc-pVDZ-scan-d09-49-n400
 OpenBabel01151817073D

 19 18  0  0  0  0  0  0  0  0999 V2000
   -0.5987    0.0961   -1.3381 C   0  0  0  0  0  0  0  0  0  0  0  0
    0.7855    0.2558   -1.4007 C   0  0  0  0  0  0  0  0  0  0  0  0
    1.3703    1.3417   -0.7386 C   0  0  0  0  0  0  0  0  0  0  0  0
    0.5887    2.2909   -0.0646 C   0  0  0  0  0  0  0  0  0  0  0  0
   -0.7926    2.1398   -0.0198 C   0  0  0  0  0  0  0  0  0  0  0  0
   -1.3681    1.0329   -0.6482 C   0  0  0  0  0  0  0  0  0  0  0  0
   -1.0866   -0.7396   -1.8331 H   0  0  0  0  0  0  0  0  0  0  0  0
    1.3866   -0.4567   -1.9548 H   0  0  0  0  0  0  0  0  0  0  0  0
    1.0774    3.1368    0.4150 H   0  0  0  0  0  0  0  0  0  0  0  0
   -1.4240    2.8581    0.4965 H   0  0  0  0  0  0  0  0  0  0  0  0
   -2.8310    0.8595   -0.5950 N   0  0  0  0  0  0  0  0  0  0  0  0
   -3.3100   -0.1252   -1.1519 O   0  0  0  0  0  0  0  0  0  0  0  0
   -3.4843    1.7111    0.0031 O   0  0  0  0  0  0  0  0  0  0  0  0
    1.9203    0.2791    1.7203 N   0  0  0  0  0  0  0  0  0  0  0  0
    1.3449   -0.2676    2.4883 N   0  0  0  0  0  0  0  0  0  0  0  0
    2.7109    1.6971   -0.8286 O   0  0  0  0  0  0  0  0  0  0  0  0
    3.7510    0.6571   -0.7763 N   0  0  0  0  0  0  0  0  0  0  0  0
    4.8385    1.1550   -0.8036 O   0  0  0  0  0  0  0  0  0  0  0  0
    3.4068   -0.4934   -0.7292 O   0  0  0  0  0  0  0  0  0  0  0  0
  1  6  1  0  0  0  0
  2  1  2  0  0  0  0
  2  3  1  0  0  0  0
  3  4  2  0  0  0  0
  4  5  1  0  0  0  0
  4  9  1  0  0  0  0
  5 10  1  0  0  0  0
  6 11  1  0  0  0  0
  6  5  2  0  0  0  0
  7  1  1  0  0  0  0
  8  2  1  0  0  0  0
 11 13  2  0  0  0  0
 12 11  2  0  0  0  0
 14 15  3  0  0  0  0
 16 17  1  0  0  0  0
 16  3  1  0  0  0  0
 17 19  2  0  0  0  0
 18 17  2  0  0  0  0
M  END
