Coordinates from ORCA-job p-NO2-Ph-N2-NO3-B3LYPG-aug-cc-pVDZ-scan-d09-49-n400
 OpenBabel01151817083D

 19 18  0  0  0  0  0  0  0  0999 V2000
   -0.6496    0.1875   -1.6141 C   0  0  0  0  0  0  0  0  0  0  0  0
    0.7269    0.3718   -1.7214 C   0  0  0  0  0  0  0  0  0  0  0  0
    1.3437    1.3595   -0.9462 C   0  0  0  0  0  0  0  0  0  0  0  0
    0.6104    2.1762   -0.0806 C   0  0  0  0  0  0  0  0  0  0  0  0
   -0.7696    2.0068    0.0150 C   0  0  0  0  0  0  0  0  0  0  0  0
   -1.3760    1.0081   -0.7483 C   0  0  0  0  0  0  0  0  0  0  0  0
   -1.1659   -0.5706   -2.1971 H   0  0  0  0  0  0  0  0  0  0  0  0
    1.3142   -0.2429   -2.3997 H   0  0  0  0  0  0  0  0  0  0  0  0
    1.1251    2.9425    0.4956 H   0  0  0  0  0  0  0  0  0  0  0  0
   -1.3745    2.6281    0.6702 H   0  0  0  0  0  0  0  0  0  0  0  0
   -2.8366    0.8179   -0.6432 N   0  0  0  0  0  0  0  0  0  0  0  0
   -3.3462   -0.0694   -1.3224 O   0  0  0  0  0  0  0  0  0  0  0  0
   -3.4543    1.5581    0.1177 O   0  0  0  0  0  0  0  0  0  0  0  0
    2.1259    0.4787    2.4309 N   0  0  0  0  0  0  0  0  0  0  0  0
    1.7009    0.0555    3.3580 N   0  0  0  0  0  0  0  0  0  0  0  0
    2.6910    1.6665   -1.0917 O   0  0  0  0  0  0  0  0  0  0  0  0
    3.6502    0.5797   -0.7610 N   0  0  0  0  0  0  0  0  0  0  0  0
    4.7780    0.9566   -0.8834 O   0  0  0  0  0  0  0  0  0  0  0  0
    3.1920   -0.4819   -0.4375 O   0  0  0  0  0  0  0  0  0  0  0  0
  1  6  1  0  0  0  0
  2  1  2  0  0  0  0
  2  3  1  0  0  0  0
  3  4  2  0  0  0  0
  4  5  1  0  0  0  0
  4  9  1  0  0  0  0
  5 10  1  0  0  0  0
  6 11  1  0  0  0  0
  6  5  2  0  0  0  0
  7  1  1  0  0  0  0
  8  2  1  0  0  0  0
 11 13  2  0  0  0  0
 12 11  2  0  0  0  0
 14 15  3  0  0  0  0
 16  3  1  0  0  0  0
 16 17  1  0  0  0  0
 17 19  2  0  0  0  0
 18 17  2  0  0  0  0
M  END
