Coordinates from ORCA-job p-NO2-Ph-N2-NO3-B3LYPG-aug-cc-pVDZ-scan-d09-49-n400
 OpenBabel01151817083D

 19 18  0  0  0  0  0  0  0  0999 V2000
   -0.6656    0.2105   -1.6714 C   0  0  0  0  0  0  0  0  0  0  0  0
    0.7108    0.3941   -1.7804 C   0  0  0  0  0  0  0  0  0  0  0  0
    1.3360    1.3519   -0.9754 C   0  0  0  0  0  0  0  0  0  0  0  0
    0.6127    2.1383   -0.0747 C   0  0  0  0  0  0  0  0  0  0  0  0
   -0.7673    1.9692    0.0251 C   0  0  0  0  0  0  0  0  0  0  0  0
   -1.3823    1.0017   -0.7708 C   0  0  0  0  0  0  0  0  0  0  0  0
   -1.1889   -0.5245   -2.2774 H   0  0  0  0  0  0  0  0  0  0  0  0
    1.2938   -0.1974   -2.4830 H   0  0  0  0  0  0  0  0  0  0  0  0
    1.1341    2.8811    0.5258 H   0  0  0  0  0  0  0  0  0  0  0  0
   -1.3657    2.5673    0.7073 H   0  0  0  0  0  0  0  0  0  0  0  0
   -2.8433    0.8127   -0.6622 N   0  0  0  0  0  0  0  0  0  0  0  0
   -3.3610   -0.0461   -1.3710 O   0  0  0  0  0  0  0  0  0  0  0  0
   -3.4525    1.5254    0.1311 O   0  0  0  0  0  0  0  0  0  0  0  0
    2.1915    0.5455    2.5508 N   0  0  0  0  0  0  0  0  0  0  0  0
    1.8043    0.1573    3.5092 N   0  0  0  0  0  0  0  0  0  0  0  0
    2.6856    1.6485   -1.1230 O   0  0  0  0  0  0  0  0  0  0  0  0
    3.6288    0.5599   -0.7496 N   0  0  0  0  0  0  0  0  0  0  0  0
    4.7630    0.9147   -0.8790 O   0  0  0  0  0  0  0  0  0  0  0  0
    3.1516   -0.4817   -0.3907 O   0  0  0  0  0  0  0  0  0  0  0  0
  1  6  1  0  0  0  0
  2  1  2  0  0  0  0
  2  3  1  0  0  0  0
  3  4  2  0  0  0  0
  4  5  1  0  0  0  0
  4  9  1  0  0  0  0
  5 10  1  0  0  0  0
  6 11  1  0  0  0  0
  6  5  2  0  0  0  0
  7  1  1  0  0  0  0
  8  2  1  0  0  0  0
 11 13  2  0  0  0  0
 12 11  2  0  0  0  0
 14 15  3  0  0  0  0
 16  3  1  0  0  0  0
 16 17  1  0  0  0  0
 17 19  2  0  0  0  0
 18 17  2  0  0  0  0
M  END
