Coordinates from ORCA-job p-NO2-Ph-N2-NO3-B3LYPG-aug-cc-pVDZ-scan-d09-49-n400
 OpenBabel01151817073D

 19 18  0  0  0  0  0  0  0  0999 V2000
   -0.5923    0.0829   -1.2949 C   0  0  0  0  0  0  0  0  0  0  0  0
    0.7932    0.2358   -1.3459 C   0  0  0  0  0  0  0  0  0  0  0  0
    1.3759    1.3266   -0.6903 C   0  0  0  0  0  0  0  0  0  0  0  0
    0.5883    2.2963   -0.0522 C   0  0  0  0  0  0  0  0  0  0  0  0
   -0.7931    2.1503   -0.0181 C   0  0  0  0  0  0  0  0  0  0  0  0
   -1.3664    1.0325   -0.6290 C   0  0  0  0  0  0  0  0  0  0  0  0
   -1.0776   -0.7590   -1.7823 H   0  0  0  0  0  0  0  0  0  0  0  0
    1.3957   -0.4887   -1.8816 H   0  0  0  0  0  0  0  0  0  0  0  0
    1.0749    3.1506    0.4145 H   0  0  0  0  0  0  0  0  0  0  0  0
   -1.4271    2.8825    0.4753 H   0  0  0  0  0  0  0  0  0  0  0  0
   -2.8298    0.8644   -0.5874 N   0  0  0  0  0  0  0  0  0  0  0  0
   -3.3069   -0.1260   -1.1360 O   0  0  0  0  0  0  0  0  0  0  0  0
   -3.4869    1.7318   -0.0167 O   0  0  0  0  0  0  0  0  0  0  0  0
    1.8802    0.2671    1.5783 N   0  0  0  0  0  0  0  0  0  0  0  0
    1.2839   -0.2733    2.3352 N   0  0  0  0  0  0  0  0  0  0  0  0
    2.7142    1.6916   -0.7740 O   0  0  0  0  0  0  0  0  0  0  0  0
    3.7679    0.6683   -0.7787 N   0  0  0  0  0  0  0  0  0  0  0  0
    4.8473    1.1846   -0.7933 O   0  0  0  0  0  0  0  0  0  0  0  0
    3.4443   -0.4895   -0.7823 O   0  0  0  0  0  0  0  0  0  0  0  0
  1  6  1  0  0  0  0
  2  1  2  0  0  0  0
  2  3  1  0  0  0  0
  3  4  2  0  0  0  0
  4  5  1  0  0  0  0
  4  9  1  0  0  0  0
  5 10  1  0  0  0  0
  6 11  1  0  0  0  0
  6  5  2  0  0  0  0
  7  1  1  0  0  0  0
  8  2  1  0  0  0  0
 11 13  2  0  0  0  0
 12 11  2  0  0  0  0
 14 15  3  0  0  0  0
 16  3  1  0  0  0  0
 17 16  1  0  0  0  0
 18 17  2  0  0  0  0
 19 17  2  0  0  0  0
M  END
