Coordinates from ORCA-job p-NO2-Ph-N2-NO3-B3LYPG-aug-cc-pVDZ-scan-d09-49-n400
 OpenBabel01151817073D

 19 18  0  0  0  0  0  0  0  0999 V2000
   -0.5826    0.0586   -1.2297 C   0  0  0  0  0  0  0  0  0  0  0  0
    0.8023    0.1947   -1.2503 C   0  0  0  0  0  0  0  0  0  0  0  0
    1.3937    1.2548   -0.5377 C   0  0  0  0  0  0  0  0  0  0  0  0
    0.5914    2.2824   -0.0011 C   0  0  0  0  0  0  0  0  0  0  0  0
   -0.7888    2.1508    0.0051 C   0  0  0  0  0  0  0  0  0  0  0  0
   -1.3620    1.0185   -0.5820 C   0  0  0  0  0  0  0  0  0  0  0  0
   -1.0673   -0.7738   -1.7337 H   0  0  0  0  0  0  0  0  0  0  0  0
    1.4096   -0.5356   -1.7720 H   0  0  0  0  0  0  0  0  0  0  0  0
    1.0754    3.1503    0.4425 H   0  0  0  0  0  0  0  0  0  0  0  0
   -1.4264    2.9110    0.4488 H   0  0  0  0  0  0  0  0  0  0  0  0
   -2.8255    0.8667   -0.5689 N   0  0  0  0  0  0  0  0  0  0  0  0
   -3.3025   -0.1182   -1.1283 O   0  0  0  0  0  0  0  0  0  0  0  0
   -3.4864    1.7597   -0.0429 O   0  0  0  0  0  0  0  0  0  0  0  0
    1.8028    0.3208    1.2671 N   0  0  0  0  0  0  0  0  0  0  0  0
    1.1691   -0.2007    2.0122 N   0  0  0  0  0  0  0  0  0  0  0  0
    2.7186    1.6656   -0.6883 O   0  0  0  0  0  0  0  0  0  0  0  0
    3.7959    0.6819   -0.7800 N   0  0  0  0  0  0  0  0  0  0  0  0
    4.8605    1.2280   -0.8130 O   0  0  0  0  0  0  0  0  0  0  0  0
    3.5076   -0.4869   -0.8069 O   0  0  0  0  0  0  0  0  0  0  0  0
  1  6  1  0  0  0  0
  2  1  2  0  0  0  0
  2  3  1  0  0  0  0
  3  4  2  0  0  0  0
  4  5  1  0  0  0  0
  4  9  1  0  0  0  0
  5 10  1  0  0  0  0
  6 11  1  0  0  0  0
  6  5  2  0  0  0  0
  7  1  1  0  0  0  0
  8  2  1  0  0  0  0
 11 13  2  0  0  0  0
 12 11  2  0  0  0  0
 14 15  3  0  0  0  0
 16  3  1  0  0  0  0
 17 16  1  0  0  0  0
 18 17  2  0  0  0  0
 19 17  2  0  0  0  0
M  END
