Coordinates from ORCA-job p-NO2-Ph-N2-NO3-B3LYPG-aug-cc-pVDZ-scan-d09-49-n400
 OpenBabel01151817083D

 19 18  0  0  0  0  0  0  0  0999 V2000
   -0.6335    0.1630   -1.5468 C   0  0  0  0  0  0  0  0  0  0  0  0
    0.7439    0.3457   -1.6514 C   0  0  0  0  0  0  0  0  0  0  0  0
    1.3518    1.3649   -0.9109 C   0  0  0  0  0  0  0  0  0  0  0  0
    0.6079    2.2163   -0.0872 C   0  0  0  0  0  0  0  0  0  0  0  0
   -0.7721    2.0480    0.0026 C   0  0  0  0  0  0  0  0  0  0  0  0
   -1.3699    1.0159   -0.7225 C   0  0  0  0  0  0  0  0  0  0  0  0
   -1.1427   -0.6197   -2.1031 H   0  0  0  0  0  0  0  0  0  0  0  0
    1.3352   -0.2948   -2.3008 H   0  0  0  0  0  0  0  0  0  0  0  0
    1.1158    3.0082    0.4599 H   0  0  0  0  0  0  0  0  0  0  0  0
   -1.3839    2.6961    0.6248 H   0  0  0  0  0  0  0  0  0  0  0  0
   -2.8304    0.8260   -0.6221 N   0  0  0  0  0  0  0  0  0  0  0  0
   -3.3309   -0.0957   -1.2612 O   0  0  0  0  0  0  0  0  0  0  0  0
   -3.4562    1.5934    0.1048 O   0  0  0  0  0  0  0  0  0  0  0  0
    2.0556    0.4092    2.2712 N   0  0  0  0  0  0  0  0  0  0  0  0
    1.5858   -0.0560    3.1560 N   0  0  0  0  0  0  0  0  0  0  0  0
    2.6971    1.6826   -1.0495 O   0  0  0  0  0  0  0  0  0  0  0  0
    3.6754    0.6015   -0.7643 N   0  0  0  0  0  0  0  0  0  0  0  0
    4.7949    1.0087   -0.8643 O   0  0  0  0  0  0  0  0  0  0  0  0
    3.2416   -0.4849   -0.4943 O   0  0  0  0  0  0  0  0  0  0  0  0
  1  6  1  0  0  0  0
  2  1  2  0  0  0  0
  2  3  1  0  0  0  0
  3  4  2  0  0  0  0
  4  5  1  0  0  0  0
  4  9  1  0  0  0  0
  5 10  1  0  0  0  0
  6 11  1  0  0  0  0
  6  5  2  0  0  0  0
  7  1  1  0  0  0  0
  8  2  1  0  0  0  0
 11 13  2  0  0  0  0
 12 11  2  0  0  0  0
 14 15  3  0  0  0  0
 16  3  1  0  0  0  0
 16 17  1  0  0  0  0
 17 19  2  0  0  0  0
 18 17  2  0  0  0  0
M  END
