Coordinates from ORCA-job p-NO2-Ph-N2-NO3-B3LYPG-aug-cc-pVDZ-scan-d09-49-n400
 OpenBabel01151817083D

 19 18  0  0  0  0  0  0  0  0999 V2000
   -0.6851    0.2375   -1.7352 C   0  0  0  0  0  0  0  0  0  0  0  0
    0.6915    0.4192   -1.8453 C   0  0  0  0  0  0  0  0  0  0  0  0
    1.3257    1.3423   -1.0085 C   0  0  0  0  0  0  0  0  0  0  0  0
    0.6136    2.0948   -0.0702 C   0  0  0  0  0  0  0  0  0  0  0  0
   -0.7663    1.9260    0.0332 C   0  0  0  0  0  0  0  0  0  0  0  0
   -1.3911    0.9948   -0.7977 C   0  0  0  0  0  0  0  0  0  0  0  0
   -1.2163   -0.4706   -2.3658 H   0  0  0  0  0  0  0  0  0  0  0  0
    1.2694   -0.1463   -2.5736 H   0  0  0  0  0  0  0  0  0  0  0  0
    1.1425    2.8102    0.5562 H   0  0  0  0  0  0  0  0  0  0  0  0
   -1.3577    2.4976    0.7437 H   0  0  0  0  0  0  0  0  0  0  0  0
   -2.8525    0.8077   -0.6859 N   0  0  0  0  0  0  0  0  0  0  0  0
   -3.3796   -0.0172   -1.4273 O   0  0  0  0  0  0  0  0  0  0  0  0
   -3.4526    1.4901    0.1401 O   0  0  0  0  0  0  0  0  0  0  0  0
    2.2786    0.6234    2.6911 N   0  0  0  0  0  0  0  0  0  0  0  0
    1.9364    0.2646    3.6778 N   0  0  0  0  0  0  0  0  0  0  0  0
    2.6782    1.6269   -1.1548 O   0  0  0  0  0  0  0  0  0  0  0  0
    3.6030    0.5386   -0.7329 N   0  0  0  0  0  0  0  0  0  0  0  0
    4.7439    0.8694   -0.8649 O   0  0  0  0  0  0  0  0  0  0  0  0
    3.1040   -0.4803   -0.3392 O   0  0  0  0  0  0  0  0  0  0  0  0
  1  6  1  0  0  0  0
  2  1  2  0  0  0  0
  2  3  1  0  0  0  0
  3  4  2  0  0  0  0
  4  5  1  0  0  0  0
  4  9  1  0  0  0  0
  5 10  1  0  0  0  0
  6 11  1  0  0  0  0
  6  5  2  0  0  0  0
  7  1  1  0  0  0  0
  8  2  1  0  0  0  0
 11 13  2  0  0  0  0
 12 11  2  0  0  0  0
 14 15  3  0  0  0  0
 16  3  1  0  0  0  0
 16 17  1  0  0  0  0
 17 19  2  0  0  0  0
 18 17  2  0  0  0  0
M  END
