Coordinates from ORCA-job p-NO2-Ph-N2-NO3-B3LYPG-aug-cc-pVDZ-scan-d09-49-n400
 OpenBabel01151817073D

 19 18  0  0  0  0  0  0  0  0999 V2000
   -0.5848    0.0681   -1.2510 C   0  0  0  0  0  0  0  0  0  0  0  0
    0.8013    0.2108   -1.2836 C   0  0  0  0  0  0  0  0  0  0  0  0
    1.3866    1.2917   -0.6081 C   0  0  0  0  0  0  0  0  0  0  0  0
    0.5905    2.2931   -0.0256 C   0  0  0  0  0  0  0  0  0  0  0  0
   -0.7908    2.1556   -0.0086 C   0  0  0  0  0  0  0  0  0  0  0  0
   -1.3629    1.0278   -0.6038 C   0  0  0  0  0  0  0  0  0  0  0  0
   -1.0688   -0.7726   -1.7417 H   0  0  0  0  0  0  0  0  0  0  0  0
    1.4061   -0.5215   -1.8051 H   0  0  0  0  0  0  0  0  0  0  0  0
    1.0739    3.1571    0.4262 H   0  0  0  0  0  0  0  0  0  0  0  0
   -1.4274    2.9048    0.4548 H   0  0  0  0  0  0  0  0  0  0  0  0
   -2.8269    0.8696   -0.5807 N   0  0  0  0  0  0  0  0  0  0  0  0
   -3.3022   -0.1285   -1.1170 O   0  0  0  0  0  0  0  0  0  0  0  0
   -3.4861    1.7459   -0.0260 O   0  0  0  0  0  0  0  0  0  0  0  0
    1.8274    0.2882    1.3837 N   0  0  0  0  0  0  0  0  0  0  0  0
    1.2010   -0.2396    2.1271 N   0  0  0  0  0  0  0  0  0  0  0  0
    2.7192    1.6773   -0.7125 O   0  0  0  0  0  0  0  0  0  0  0  0
    3.7872    0.6765   -0.7759 N   0  0  0  0  0  0  0  0  0  0  0  0
    4.8580    1.2110   -0.7895 O   0  0  0  0  0  0  0  0  0  0  0  0
    3.4843   -0.4868   -0.8220 O   0  0  0  0  0  0  0  0  0  0  0  0
  1  6  1  0  0  0  0
  2  1  2  0  0  0  0
  2  3  1  0  0  0  0
  3  4  2  0  0  0  0
  4  5  1  0  0  0  0
  4  9  1  0  0  0  0
  5 10  1  0  0  0  0
  6 11  1  0  0  0  0
  6  5  2  0  0  0  0
  7  1  1  0  0  0  0
  8  2  1  0  0  0  0
 11 13  2  0  0  0  0
 12 11  2  0  0  0  0
 14 15  3  0  0  0  0
 16  3  1  0  0  0  0
 17 16  1  0  0  0  0
 18 17  2  0  0  0  0
 19 17  2  0  0  0  0
M  END
