Coordinates from ORCA-job p-NO2-Ph-N2-NO3-B3LYPG-aug-cc-pVDZ-scan-d09-49-n400
 OpenBabel01151817073D

 19 18  0  0  0  0  0  0  0  0999 V2000
   -0.5967    0.0925   -1.3259 C   0  0  0  0  0  0  0  0  0  0  0  0
    0.7879    0.2502   -1.3851 C   0  0  0  0  0  0  0  0  0  0  0  0
    1.3720    1.3378   -0.7252 C   0  0  0  0  0  0  0  0  0  0  0  0
    0.5886    2.2929   -0.0616 C   0  0  0  0  0  0  0  0  0  0  0  0
   -0.7928    2.1433   -0.0199 C   0  0  0  0  0  0  0  0  0  0  0  0
   -1.3675    1.0333   -0.6432 C   0  0  0  0  0  0  0  0  0  0  0  0
   -1.0839   -0.7450   -1.8186 H   0  0  0  0  0  0  0  0  0  0  0  0
    1.3894   -0.4659   -1.9339 H   0  0  0  0  0  0  0  0  0  0  0  0
    1.0763    3.1414    0.4142 H   0  0  0  0  0  0  0  0  0  0  0  0
   -1.4250    2.8658    0.4897 H   0  0  0  0  0  0  0  0  0  0  0  0
   -2.8306    0.8615   -0.5936 N   0  0  0  0  0  0  0  0  0  0  0  0
   -3.3088   -0.1265   -1.1455 O   0  0  0  0  0  0  0  0  0  0  0  0
   -3.4849    1.7163   -0.0012 O   0  0  0  0  0  0  0  0  0  0  0  0
    1.9083    0.2746    1.6807 N   0  0  0  0  0  0  0  0  0  0  0  0
    1.3266   -0.2707    2.4450 N   0  0  0  0  0  0  0  0  0  0  0  0
    2.7121    1.6958   -0.8130 O   0  0  0  0  0  0  0  0  0  0  0  0
    3.7559    0.6603   -0.7771 N   0  0  0  0  0  0  0  0  0  0  0  0
    4.8411    1.1635   -0.8000 O   0  0  0  0  0  0  0  0  0  0  0  0
    3.4174   -0.4925   -0.7450 O   0  0  0  0  0  0  0  0  0  0  0  0
  1  6  1  0  0  0  0
  2  1  2  0  0  0  0
  2  3  1  0  0  0  0
  3  4  2  0  0  0  0
  4  5  1  0  0  0  0
  4  9  1  0  0  0  0
  5 10  1  0  0  0  0
  6 11  1  0  0  0  0
  6  5  2  0  0  0  0
  7  1  1  0  0  0  0
  8  2  1  0  0  0  0
 11 13  2  0  0  0  0
 12 11  2  0  0  0  0
 14 15  3  0  0  0  0
 16 17  1  0  0  0  0
 16  3  1  0  0  0  0
 17 19  2  0  0  0  0
 18 17  2  0  0  0  0
M  END
