Coordinates from ORCA-job p-NO2-Ph-N2-NO3-B3LYPG-aug-cc-pVDZ-scan-d09-49-n400
 OpenBabel01151817083D

 19 18  0  0  0  0  0  0  0  0999 V2000
   -0.7268    0.2914   -1.8486 C   0  0  0  0  0  0  0  0  0  0  0  0
    0.6525    0.4614   -1.9446 C   0  0  0  0  0  0  0  0  0  0  0  0
    1.2991    1.3124   -1.0438 C   0  0  0  0  0  0  0  0  0  0  0  0
    0.5985    2.0022   -0.0516 C   0  0  0  0  0  0  0  0  0  0  0  0
   -0.7832    1.8428    0.0430 C   0  0  0  0  0  0  0  0  0  0  0  0
   -1.4211    0.9860   -0.8554 C   0  0  0  0  0  0  0  0  0  0  0  0
   -1.2681   -0.3605   -2.5291 H   0  0  0  0  0  0  0  0  0  0  0  0
    1.2259   -0.0561   -2.7116 H   0  0  0  0  0  0  0  0  0  0  0  0
    1.1371    2.6615    0.6263 H   0  0  0  0  0  0  0  0  0  0  0  0
   -1.3665    2.3660    0.7962 H   0  0  0  0  0  0  0  0  0  0  0  0
   -2.8853    0.8110   -0.7553 N   0  0  0  0  0  0  0  0  0  0  0  0
   -3.4242    0.0525   -1.5566 O   0  0  0  0  0  0  0  0  0  0  0  0
   -3.4745    1.4341    0.1235 O   0  0  0  0  0  0  0  0  0  0  0  0
    2.5183    0.8221    2.9012 N   0  0  0  0  0  0  0  0  0  0  0  0
    2.2857    0.4346    3.9085 N   0  0  0  0  0  0  0  0  0  0  0  0
    2.6588    1.5717   -1.1817 O   0  0  0  0  0  0  0  0  0  0  0  0
    3.5477    0.4934   -0.6677 N   0  0  0  0  0  0  0  0  0  0  0  0
    4.6999    0.7839   -0.7962 O   0  0  0  0  0  0  0  0  0  0  0  0
    3.0117   -0.4820   -0.2158 O   0  0  0  0  0  0  0  0  0  0  0  0
  1  6  1  0  0  0  0
  2  1  2  0  0  0  0
  2  3  1  0  0  0  0
  3  4  2  0  0  0  0
  4  5  1  0  0  0  0
  4  9  1  0  0  0  0
  5 10  1  0  0  0  0
  6 11  1  0  0  0  0
  6  5  2  0  0  0  0
  7  1  1  0  0  0  0
  8  2  1  0  0  0  0
 11 13  2  0  0  0  0
 12 11  2  0  0  0  0
 14 15  3  0  0  0  0
 16  3  1  0  0  0  0
 16 17  1  0  0  0  0
 17 19  2  0  0  0  0
 18 17  2  0  0  0  0
M  END
