Coordinates from ORCA-job p-NO2-Ph-N2-NO3-B3LYPG-aug-cc-pVDZ-scan-d09-49-n400
 OpenBabel01151817073D

 19 18  0  0  0  0  0  0  0  0999 V2000
   -0.5950    0.0888   -1.3137 C   0  0  0  0  0  0  0  0  0  0  0  0
    0.7901    0.2445   -1.3696 C   0  0  0  0  0  0  0  0  0  0  0  0
    1.3735    1.3339   -0.7121 C   0  0  0  0  0  0  0  0  0  0  0  0
    0.5884    2.2948   -0.0583 C   0  0  0  0  0  0  0  0  0  0  0  0
   -0.7931    2.1467   -0.0197 C   0  0  0  0  0  0  0  0  0  0  0  0
   -1.3671    1.0333   -0.6381 C   0  0  0  0  0  0  0  0  0  0  0  0
   -1.0813   -0.7507   -1.8039 H   0  0  0  0  0  0  0  0  0  0  0  0
    1.3920   -0.4752   -1.9129 H   0  0  0  0  0  0  0  0  0  0  0  0
    1.0756    3.1456    0.4140 H   0  0  0  0  0  0  0  0  0  0  0  0
   -1.4260    2.8729    0.4835 H   0  0  0  0  0  0  0  0  0  0  0  0
   -2.8303    0.8630   -0.5917 N   0  0  0  0  0  0  0  0  0  0  0  0
   -3.3079   -0.1270   -1.1405 O   0  0  0  0  0  0  0  0  0  0  0  0
   -3.4857    1.7221   -0.0066 O   0  0  0  0  0  0  0  0  0  0  0  0
    1.8971    0.2706    1.6405 N   0  0  0  0  0  0  0  0  0  0  0  0
    1.3094   -0.2730    2.4017 N   0  0  0  0  0  0  0  0  0  0  0  0
    2.7131    1.6943   -0.7974 O   0  0  0  0  0  0  0  0  0  0  0  0
    3.7608    0.6635   -0.7777 N   0  0  0  0  0  0  0  0  0  0  0  0
    4.8438    1.1718   -0.7966 O   0  0  0  0  0  0  0  0  0  0  0  0
    3.4282   -0.4915   -0.7604 O   0  0  0  0  0  0  0  0  0  0  0  0
  1  6  1  0  0  0  0
  2  1  2  0  0  0  0
  2  3  1  0  0  0  0
  3  4  2  0  0  0  0
  4  5  1  0  0  0  0
  4  9  1  0  0  0  0
  5 10  1  0  0  0  0
  6 11  1  0  0  0  0
  6  5  2  0  0  0  0
  7  1  1  0  0  0  0
  8  2  1  0  0  0  0
 11 13  2  0  0  0  0
 12 11  2  0  0  0  0
 14 15  3  0  0  0  0
 16 17  1  0  0  0  0
 16  3  1  0  0  0  0
 17 19  2  0  0  0  0
 18 17  2  0  0  0  0
M  END
