Coordinates from ORCA-job p-NO2-Ph-N2-NO3-B3LYPG-aug-cc-pVDZ-scan-d09-49-n400
 OpenBabel01151817073D

 19 19  0  0  1  0  0  0  0  0999 V2000
   -0.1477    0.1362   -1.1501 C   0  0  0  0  0  0  0  0  0  0  0  0
    1.0797   -0.1821   -0.3586 C   0  0  2  0  0  0  0  0  0  0  0  0
    1.2683    0.6761    0.9495 C   0  0  0  0  0  0  0  0  0  0  0  0
    0.2658    1.7559    1.1829 C   0  0  0  0  0  0  0  0  0  0  0  0
   -0.8042    1.9496    0.3895 C   0  0  0  0  0  0  0  0  0  0  0  0
   -0.9994    1.1016   -0.7693 C   0  0  0  0  0  0  0  0  0  0  0  0
   -0.3439   -0.4604   -2.0389 H   0  0  0  0  0  0  0  0  0  0  0  0
    1.0636   -1.2395   -0.0497 H   0  0  0  0  0  0  0  0  0  0  0  0
    0.4582    2.3870    2.0506 H   0  0  0  0  0  0  0  0  0  0  0  0
   -1.5219    2.7399    0.5883 H   0  0  0  0  0  0  0  0  0  0  0  0
   -2.2145    1.3288   -1.5953 N   0  0  0  0  0  0  0  0  0  0  0  0
   -2.3927    0.6100   -2.5720 O   0  0  0  0  0  0  0  0  0  0  0  0
   -2.9657    2.2309   -1.2385 O   0  0  0  0  0  0  0  0  0  0  0  0
    2.0028    0.4709    1.5491 N   0  0  0  0  0  0  0  0  0  0  0  0
    2.8987    0.2057    2.2610 N   0  0  0  0  0  0  0  0  0  0  0  0
    2.0469    2.0143   -1.4895 O   0  0  0  0  0  0  0  0  0  0  0  0
    2.6814    1.0289   -1.7840 N   0  0  0  0  0  0  0  0  0  0  0  0
    3.6215    0.8926   -2.5142 O   0  0  0  0  0  0  0  0  0  0  0  0
    2.2887   -0.2179   -1.1701 O   0  0  0  0  0  0  0  0  0  0  0  0
  1  6  2  0  0  0  0
  1  2  1  0  0  0  0
  2  8  1  1  0  0  0
  2  3  1  0  0  0  0
  3  4  2  0  0  0  0
  3 14  1  0  0  0  0
  4  9  1  0  0  0  0
  5 10  1  0  0  0  0
  5  4  1  0  0  0  0
  6  5  1  0  0  0  0
  7  1  1  0  0  0  0
 11 13  2  0  0  0  0
 11  6  1  0  0  0  0
 12 11  2  0  0  0  0
 14 15  1  0  0  0  0
 17 16  2  0  0  0  0
 17 19  1  0  0  0  0
 18 17  2  0  0  0  0
 19  2  1  0  0  0  0
M  RAD  3   5   2  14   2  15   3
M  END
