Coordinates from ORCA-job p-NO2-Ph-N2-NO3-B3LYPG-aug-cc-pVDZ-scan-d09-49-n400
 OpenBabel01151817083D

 19 18  0  0  0  0  0  0  0  0999 V2000
   -0.8085    0.3920   -2.0421 C   0  0  0  0  0  0  0  0  0  0  0  0
    0.5765    0.5285   -2.1194 C   0  0  0  0  0  0  0  0  0  0  0  0
    1.2484    1.2407   -1.1231 C   0  0  0  0  0  0  0  0  0  0  0  0
    0.5706    1.8196   -0.0473 C   0  0  0  0  0  0  0  0  0  0  0  0
   -0.8139    1.6850    0.0360 C   0  0  0  0  0  0  0  0  0  0  0  0
   -1.4790    0.9720   -0.9637 C   0  0  0  0  0  0  0  0  0  0  0  0
   -1.3702   -0.1507   -2.7979 H   0  0  0  0  0  0  0  0  0  0  0  0
    1.1372    0.0965   -2.9467 H   0  0  0  0  0  0  0  0  0  0  0  0
    1.1275    2.3707    0.7084 H   0  0  0  0  0  0  0  0  0  0  0  0
   -1.3805    2.1220    0.8541 H   0  0  0  0  0  0  0  0  0  0  0  0
   -2.9480    0.8292   -0.8787 N   0  0  0  0  0  0  0  0  0  0  0  0
   -3.5113    0.2001   -1.7701 O   0  0  0  0  0  0  0  0  0  0  0  0
   -3.5160    1.3479    0.0783 O   0  0  0  0  0  0  0  0  0  0  0  0
    2.9177    1.1269    3.3755 N   0  0  0  0  0  0  0  0  0  0  0  0
    2.9518    0.7311    4.4058 N   0  0  0  0  0  0  0  0  0  0  0  0
    2.6170    1.4554   -1.2552 O   0  0  0  0  0  0  0  0  0  0  0  0
    3.4605    0.4367   -0.5696 N   0  0  0  0  0  0  0  0  0  0  0  0
    4.6242    0.6751   -0.7013 O   0  0  0  0  0  0  0  0  0  0  0  0
    2.8815   -0.4501   -0.0023 O   0  0  0  0  0  0  0  0  0  0  0  0
  1  6  1  0  0  0  0
  2  1  2  0  0  0  0
  2  3  1  0  0  0  0
  3  4  2  0  0  0  0
  4  5  1  0  0  0  0
  4  9  1  0  0  0  0
  5 10  1  0  0  0  0
  6 11  1  0  0  0  0
  6  5  2  0  0  0  0
  7  1  1  0  0  0  0
  8  2  1  0  0  0  0
 11 13  2  0  0  0  0
 12 11  2  0  0  0  0
 14 15  3  0  0  0  0
 16  3  1  0  0  0  0
 16 17  1  0  0  0  0
 17 19  2  0  0  0  0
 18 17  2  0  0  0  0
M  END
