Coordinates from ORCA-job p-NO2-Ph-N2-NO3-B3LYPG-aug-cc-pVDZ-scan-d09-49-n400
 OpenBabel01151817083D

 19 18  0  0  0  0  0  0  0  0999 V2000
   -0.8129    0.3957   -2.0508 C   0  0  0  0  0  0  0  0  0  0  0  0
    0.5725    0.5306   -2.1288 C   0  0  0  0  0  0  0  0  0  0  0  0
    1.2455    1.2366   -1.1294 C   0  0  0  0  0  0  0  0  0  0  0  0
    0.5701    1.8108   -0.0481 C   0  0  0  0  0  0  0  0  0  0  0  0
   -0.8145    1.6767    0.0351 C   0  0  0  0  0  0  0  0  0  0  0  0
   -1.4813    0.9703   -0.9683 C   0  0  0  0  0  0  0  0  0  0  0  0
   -1.3761   -0.1420   -2.8090 H   0  0  0  0  0  0  0  0  0  0  0  0
    1.1320    0.1027   -2.9588 H   0  0  0  0  0  0  0  0  0  0  0  0
    1.1277    2.3564    0.7108 H   0  0  0  0  0  0  0  0  0  0  0  0
   -1.3802    2.1095    0.8560 H   0  0  0  0  0  0  0  0  0  0  0  0
   -2.9505    0.8286   -0.8827 N   0  0  0  0  0  0  0  0  0  0  0  0
   -3.5160    0.2100   -1.7799 O   0  0  0  0  0  0  0  0  0  0  0  0
   -3.5175    1.3470    0.0751 O   0  0  0  0  0  0  0  0  0  0  0  0
    2.9358    1.1391    3.4046 N   0  0  0  0  0  0  0  0  0  0  0  0
    2.9809    0.7453    4.4353 N   0  0  0  0  0  0  0  0  0  0  0  0
    2.6143    1.4514   -1.2595 O   0  0  0  0  0  0  0  0  0  0  0  0
    3.4573    0.4353   -0.5668 N   0  0  0  0  0  0  0  0  0  0  0  0
    4.6210    0.6729   -0.6986 O   0  0  0  0  0  0  0  0  0  0  0  0
    2.8775   -0.4484    0.0045 O   0  0  0  0  0  0  0  0  0  0  0  0
  1  6  1  0  0  0  0
  2  1  2  0  0  0  0
  2  3  1  0  0  0  0
  3  4  2  0  0  0  0
  4  5  1  0  0  0  0
  4  9  1  0  0  0  0
  5 10  1  0  0  0  0
  6 11  1  0  0  0  0
  6  5  2  0  0  0  0
  7  1  1  0  0  0  0
  8  2  1  0  0  0  0
 11 13  2  0  0  0  0
 12 11  2  0  0  0  0
 14 15  3  0  0  0  0
 16  3  1  0  0  0  0
 16 17  1  0  0  0  0
 17 19  2  0  0  0  0
 18 17  2  0  0  0  0
M  END
