Coordinates from ORCA-job p-NO2-Ph-N2-NO3-B3LYPG-aug-cc-pVDZ-scan-d09-49-n400
 OpenBabel01151817073D

 19 18  0  0  0  0  0  0  0  0999 V2000
   -0.5984    0.0951   -1.3342 C   0  0  0  0  0  0  0  0  0  0  0  0
    0.7860    0.2546   -1.3964 C   0  0  0  0  0  0  0  0  0  0  0  0
    1.3700    1.3415   -0.7370 C   0  0  0  0  0  0  0  0  0  0  0  0
    0.5886    2.2917   -0.0645 C   0  0  0  0  0  0  0  0  0  0  0  0
   -0.7927    2.1407   -0.0201 C   0  0  0  0  0  0  0  0  0  0  0  0
   -1.3682    1.0329   -0.6467 C   0  0  0  0  0  0  0  0  0  0  0  0
   -1.0859   -0.7417   -1.8279 H   0  0  0  0  0  0  0  0  0  0  0  0
    1.3873   -0.4593   -1.9486 H   0  0  0  0  0  0  0  0  0  0  0  0
    1.0778    3.1376    0.4145 H   0  0  0  0  0  0  0  0  0  0  0  0
   -1.4242    2.8601    0.4948 H   0  0  0  0  0  0  0  0  0  0  0  0
   -2.8311    0.8596   -0.5937 N   0  0  0  0  0  0  0  0  0  0  0  0
   -3.3101   -0.1247   -1.1514 O   0  0  0  0  0  0  0  0  0  0  0  0
   -3.4849    1.7137    0.0002 O   0  0  0  0  0  0  0  0  0  0  0  0
    1.9180    0.2764    1.7101 N   0  0  0  0  0  0  0  0  0  0  0  0
    1.3416   -0.2699    2.4776 N   0  0  0  0  0  0  0  0  0  0  0  0
    2.7104    1.6970   -0.8244 O   0  0  0  0  0  0  0  0  0  0  0  0
    3.7522    0.6581   -0.7761 N   0  0  0  0  0  0  0  0  0  0  0  0
    4.8387    1.1584   -0.8024 O   0  0  0  0  0  0  0  0  0  0  0  0
    3.4103   -0.4932   -0.7332 O   0  0  0  0  0  0  0  0  0  0  0  0
  1  6  1  0  0  0  0
  2  1  2  0  0  0  0
  2  3  1  0  0  0  0
  3  4  2  0  0  0  0
  4  5  1  0  0  0  0
  4  9  1  0  0  0  0
  5 10  1  0  0  0  0
  6 11  1  0  0  0  0
  6  5  2  0  0  0  0
  7  1  1  0  0  0  0
  8  2  1  0  0  0  0
 11 13  2  0  0  0  0
 12 11  2  0  0  0  0
 14 15  3  0  0  0  0
 16 17  1  0  0  0  0
 16  3  1  0  0  0  0
 17 19  2  0  0  0  0
 18 17  2  0  0  0  0
M  END
