Coordinates from ORCA-job p-NO2-Ph-N2-NO3-B3LYPG-aug-cc-pVDZ-scan-d09-49-n400
 OpenBabel01151817073D

 19 19  0  0  1  0  0  0  0  0999 V2000
   -0.1592    0.1021   -1.1272 C   0  0  0  0  0  0  0  0  0  0  0  0
    1.0873   -0.1873   -0.3534 C   0  0  2  0  0  0  0  0  0  0  0  0
    1.2255    0.6532    0.9289 C   0  0  0  0  0  0  0  0  0  0  0  0
    0.2968    1.7698    1.1531 C   0  0  0  0  0  0  0  0  0  0  0  0
   -0.7669    1.9859    0.3497 C   0  0  0  0  0  0  0  0  0  0  0  0
   -0.9869    1.1020   -0.7742 C   0  0  0  0  0  0  0  0  0  0  0  0
   -0.3846   -0.5298   -1.9833 H   0  0  0  0  0  0  0  0  0  0  0  0
    1.1256   -1.2550   -0.0887 H   0  0  0  0  0  0  0  0  0  0  0  0
    0.5013    2.4138    2.0080 H   0  0  0  0  0  0  0  0  0  0  0  0
   -1.4576    2.8050    0.5232 H   0  0  0  0  0  0  0  0  0  0  0  0
   -2.2110    1.3160   -1.5922 N   0  0  0  0  0  0  0  0  0  0  0  0
   -2.4178    0.5591   -2.5339 O   0  0  0  0  0  0  0  0  0  0  0  0
   -2.9388    2.2489   -1.2670 O   0  0  0  0  0  0  0  0  0  0  0  0
    2.0120    0.3876    1.6513 N   0  0  0  0  0  0  0  0  0  0  0  0
    2.8446    0.0910    2.3974 N   0  0  0  0  0  0  0  0  0  0  0  0
    1.9810    2.0546   -1.5102 O   0  0  0  0  0  0  0  0  0  0  0  0
    2.6457    1.0881   -1.8037 N   0  0  0  0  0  0  0  0  0  0  0  0
    3.5912    0.9890   -2.5370 O   0  0  0  0  0  0  0  0  0  0  0  0
    2.2972   -0.1656   -1.2003 O   0  0  0  0  0  0  0  0  0  0  0  0
  1  6  2  0  0  0  0
  1  2  1  0  0  0  0
  2  8  1  1  0  0  0
  2  3  1  0  0  0  0
  3  4  2  0  0  0  0
  3 14  1  0  0  0  0
  4  9  1  0  0  0  0
  5 10  1  0  0  0  0
  5  4  1  0  0  0  0
  6  5  1  0  0  0  0
  7  1  1  0  0  0  0
 11 13  2  0  0  0  0
 11  6  1  0  0  0  0
 12 11  2  0  0  0  0
 14 15  1  0  0  0  0
 17 16  2  0  0  0  0
 17 19  1  0  0  0  0
 18 17  2  0  0  0  0
 19  2  1  0  0  0  0
M  RAD  3   5   2  14   2  15   3
M  END
