Coordinates from ORCA-job p-NO2-Ph-N2-NO3-B3LYPG-aug-cc-pVDZ-scan-d09-49-n400
 OpenBabel01151817083D

 19 18  0  0  0  0  0  0  0  0999 V2000
   -0.7702    0.3465   -1.9553 C   0  0  0  0  0  0  0  0  0  0  0  0
    0.6125    0.4994   -2.0392 C   0  0  0  0  0  0  0  0  0  0  0  0
    1.2716    1.2747   -1.0823 C   0  0  0  0  0  0  0  0  0  0  0  0
    0.5835    1.9037   -0.0410 C   0  0  0  0  0  0  0  0  0  0  0  0
   -0.7999    1.7564    0.0452 C   0  0  0  0  0  0  0  0  0  0  0  0
   -1.4518    0.9778   -0.9129 C   0  0  0  0  0  0  0  0  0  0  0  0
   -1.3224   -0.2460   -2.6800 H   0  0  0  0  0  0  0  0  0  0  0  0
    1.1799    0.0295   -2.8407 H   0  0  0  0  0  0  0  0  0  0  0  0
    1.1315    2.5036    0.6829 H   0  0  0  0  0  0  0  0  0  0  0  0
   -1.3750    2.2319    0.8355 H   0  0  0  0  0  0  0  0  0  0  0  0
   -2.9189    0.8191   -0.8229 N   0  0  0  0  0  0  0  0  0  0  0  0
   -3.4707    0.1318   -1.6778 O   0  0  0  0  0  0  0  0  0  0  0  0
   -3.4973    1.3855    0.1003 O   0  0  0  0  0  0  0  0  0  0  0  0
    2.7378    0.9998    3.1090 N   0  0  0  0  0  0  0  0  0  0  0  0
    2.6527    0.5975    4.1338 N   0  0  0  0  0  0  0  0  0  0  0  0
    2.6372    1.5096   -1.2114 O   0  0  0  0  0  0  0  0  0  0  0  0
    3.4965    0.4587   -0.5972 N   0  0  0  0  0  0  0  0  0  0  0  0
    4.6565    0.7176   -0.7225 O   0  0  0  0  0  0  0  0  0  0  0  0
    2.9320   -0.4686   -0.0826 O   0  0  0  0  0  0  0  0  0  0  0  0
  1  6  1  0  0  0  0
  2  1  2  0  0  0  0
  2  3  1  0  0  0  0
  3  4  2  0  0  0  0
  4  5  1  0  0  0  0
  4  9  1  0  0  0  0
  5 10  1  0  0  0  0
  6 11  1  0  0  0  0
  6  5  2  0  0  0  0
  7  1  1  0  0  0  0
  8  2  1  0  0  0  0
 11 13  2  0  0  0  0
 12 11  2  0  0  0  0
 14 15  3  0  0  0  0
 16  3  1  0  0  0  0
 16 17  1  0  0  0  0
 17 19  2  0  0  0  0
 18 17  2  0  0  0  0
M  END
