Coordinates from ORCA-job p-NO2-Ph-N2-NO3-B3LYPG-aug-cc-pVDZ-scan-d09-49-n400
 OpenBabel01151817083D

 19 18  0  0  0  0  0  0  0  0999 V2000
   -0.6542    0.1943   -1.6312 C   0  0  0  0  0  0  0  0  0  0  0  0
    0.7222    0.3784   -1.7391 C   0  0  0  0  0  0  0  0  0  0  0  0
    1.3415    1.3573   -0.9550 C   0  0  0  0  0  0  0  0  0  0  0  0
    0.6113    2.1650   -0.0786 C   0  0  0  0  0  0  0  0  0  0  0  0
   -0.7687    1.9956    0.0184 C   0  0  0  0  0  0  0  0  0  0  0  0
   -1.3777    1.0061   -0.7548 C   0  0  0  0  0  0  0  0  0  0  0  0
   -1.1726   -0.5571   -2.2212 H   0  0  0  0  0  0  0  0  0  0  0  0
    1.3083   -0.2293   -2.4248 H   0  0  0  0  0  0  0  0  0  0  0  0
    1.1279    2.9244    0.5050 H   0  0  0  0  0  0  0  0  0  0  0  0
   -1.3717    2.6100    0.6819 H   0  0  0  0  0  0  0  0  0  0  0  0
   -2.8384    0.8162   -0.6486 N   0  0  0  0  0  0  0  0  0  0  0  0
   -3.3505   -0.0627   -1.3368 O   0  0  0  0  0  0  0  0  0  0  0  0
   -3.4535    1.5483    0.1222 O   0  0  0  0  0  0  0  0  0  0  0  0
    2.1445    0.4989    2.4655 N   0  0  0  0  0  0  0  0  0  0  0  0
    1.7304    0.0862    3.4021 N   0  0  0  0  0  0  0  0  0  0  0  0
    2.6895    1.6612   -1.1013 O   0  0  0  0  0  0  0  0  0  0  0  0
    3.6438    0.5737   -0.7576 N   0  0  0  0  0  0  0  0  0  0  0  0
    4.7736    0.9437   -0.8827 O   0  0  0  0  0  0  0  0  0  0  0  0
    3.1798   -0.4818   -0.4226 O   0  0  0  0  0  0  0  0  0  0  0  0
  1  6  1  0  0  0  0
  2  1  2  0  0  0  0
  2  3  1  0  0  0  0
  3  4  2  0  0  0  0
  4  5  1  0  0  0  0
  4  9  1  0  0  0  0
  5 10  1  0  0  0  0
  6 11  1  0  0  0  0
  6  5  2  0  0  0  0
  7  1  1  0  0  0  0
  8  2  1  0  0  0  0
 11 13  2  0  0  0  0
 12 11  2  0  0  0  0
 14 15  3  0  0  0  0
 16  3  1  0  0  0  0
 16 17  1  0  0  0  0
 17 19  2  0  0  0  0
 18 17  2  0  0  0  0
M  END
