Coordinates from ORCA-job p-NO2-Ph-N2-NO3-B3LYPG-aug-cc-pVDZ-scan-d09-49-n400
 OpenBabel01151817073D

 19 18  0  0  0  0  0  0  0  0999 V2000
   -0.6654    0.1111   -1.2140 C   0  0  0  0  0  0  0  0  0  0  0  0
    0.6117   -0.0343   -0.6561 C   0  0  0  0  0  0  0  0  0  0  0  0
    0.8702    0.8413    0.3617 C   0  0  0  0  0  0  0  0  0  0  0  0
    0.1003    1.8274    0.9241 C   0  0  0  0  0  0  0  0  0  0  0  0
   -1.1676    1.9517    0.3374 C   0  0  0  0  0  0  0  0  0  0  0  0
   -1.5195    1.0946   -0.7072 C   0  0  0  0  0  0  0  0  0  0  0  0
   -0.9908   -0.5225   -2.0355 H   0  0  0  0  0  0  0  0  0  0  0  0
    1.3559   -0.7476   -1.0023 H   0  0  0  0  0  0  0  0  0  0  0  0
    0.4340    2.4648    1.7380 H   0  0  0  0  0  0  0  0  0  0  0  0
   -1.8717    2.7035    0.6860 H   0  0  0  0  0  0  0  0  0  0  0  0
   -2.8682    1.2377   -1.3085 N   0  0  0  0  0  0  0  0  0  0  0  0
   -3.1632    0.4711   -2.2175 O   0  0  0  0  0  0  0  0  0  0  0  0
   -3.5968    2.1132   -0.8547 O   0  0  0  0  0  0  0  0  0  0  0  0
    2.4804    0.5922    1.1778 N   0  0  0  0  0  0  0  0  0  0  0  0
    3.0341    0.7946    2.1243 N   0  0  0  0  0  0  0  0  0  0  0  0
    3.1564    1.7085   -1.2063 O   0  0  0  0  0  0  0  0  0  0  0  0
    3.8221    0.6586   -1.3029 N   0  0  0  0  0  0  0  0  0  0  0  0
    4.6833    0.4666   -2.1518 O   0  0  0  0  0  0  0  0  0  0  0  0
    3.5802   -0.3040   -0.4518 O   0  0  0  0  0  0  0  0  0  0  0  0
  1  6  2  0  0  0  0
  1  2  1  0  0  0  0
  2  3  2  0  0  0  0
  3  4  1  0  0  0  0
  3 14  1  0  0  0  0
  4  9  1  0  0  0  0
  5 10  1  0  0  0  0
  5  4  2  0  0  0  0
  6  5  1  0  0  0  0
  7  1  1  0  0  0  0
  8  2  1  0  0  0  0
 11 13  2  0  0  0  0
 11  6  1  0  0  0  0
 12 11  2  0  0  0  0
 14 15  2  0  0  0  0
 17 16  2  0  0  0  0
 17 19  1  0  0  0  0
 18 17  2  0  0  0  0
M  RAD  2  15   2  19   2
M  END
