Coordinates from ORCA-job p-NO2-Ph-N2-NO3-B3LYPG-aug-cc-pVDZ-scan-d09-49-n400
 OpenBabel01151817083D

 19 18  0  0  0  0  0  0  0  0999 V2000
   -0.6997    0.2565   -1.7761 C   0  0  0  0  0  0  0  0  0  0  0  0
    0.6778    0.4345   -1.8810 C   0  0  0  0  0  0  0  0  0  0  0  0
    1.3169    1.3322   -1.0204 C   0  0  0  0  0  0  0  0  0  0  0  0
    0.6088    2.0620   -0.0626 C   0  0  0  0  0  0  0  0  0  0  0  0
   -0.7718    1.8964    0.0380 C   0  0  0  0  0  0  0  0  0  0  0  0
   -1.4014    0.9915   -0.8178 C   0  0  0  0  0  0  0  0  0  0  0  0
   -1.2345   -0.4318   -2.4253 H   0  0  0  0  0  0  0  0  0  0  0  0
    1.2541   -0.1137   -2.6238 H   0  0  0  0  0  0  0  0  0  0  0  0
    1.1411    2.7580    0.5828 H   0  0  0  0  0  0  0  0  0  0  0  0
   -1.3600    2.4508    0.7646 H   0  0  0  0  0  0  0  0  0  0  0  0
   -2.8638    0.8086   -0.7103 N   0  0  0  0  0  0  0  0  0  0  0  0
   -3.3951    0.0065   -1.4734 O   0  0  0  0  0  0  0  0  0  0  0  0
   -3.4597    1.4692    0.1362 O   0  0  0  0  0  0  0  0  0  0  0  0
    2.3629    0.6968    2.7643 N   0  0  0  0  0  0  0  0  0  0  0  0
    2.0558    0.3260    3.7579 N   0  0  0  0  0  0  0  0  0  0  0  0
    2.6720    1.6075   -1.1656 O   0  0  0  0  0  0  0  0  0  0  0  0
    3.5833    0.5218   -0.7103 N   0  0  0  0  0  0  0  0  0  0  0  0
    4.7288    0.8371   -0.8415 O   0  0  0  0  0  0  0  0  0  0  0  0
    3.0702   -0.4814   -0.2949 O   0  0  0  0  0  0  0  0  0  0  0  0
  1  6  1  0  0  0  0
  2  1  2  0  0  0  0
  2  3  1  0  0  0  0
  3  4  2  0  0  0  0
  4  5  1  0  0  0  0
  4  9  1  0  0  0  0
  5 10  1  0  0  0  0
  6 11  1  0  0  0  0
  6  5  2  0  0  0  0
  7  1  1  0  0  0  0
  8  2  1  0  0  0  0
 11 13  2  0  0  0  0
 12 11  2  0  0  0  0
 14 15  3  0  0  0  0
 16  3  1  0  0  0  0
 16 17  1  0  0  0  0
 17 19  2  0  0  0  0
 18 17  2  0  0  0  0
M  END
