Coordinates from ORCA-job p-NO2-Ph-N2-NO3-B3LYPG-aug-cc-pVDZ-scan-d09-49-n400
 OpenBabel01151817083D

 19 18  0  0  0  0  0  0  0  0999 V2000
   -0.7861    0.3646   -1.9911 C   0  0  0  0  0  0  0  0  0  0  0  0
    0.5976    0.5112   -2.0738 C   0  0  0  0  0  0  0  0  0  0  0  0
    1.2627    1.2615   -1.1015 C   0  0  0  0  0  0  0  0  0  0  0  0
    0.5801    1.8705   -0.0451 C   0  0  0  0  0  0  0  0  0  0  0  0
   -0.8035    1.7278    0.0416 C   0  0  0  0  0  0  0  0  0  0  0  0
   -1.4619    0.9754   -0.9331 C   0  0  0  0  0  0  0  0  0  0  0  0
   -1.3429   -0.2083   -2.7279 H   0  0  0  0  0  0  0  0  0  0  0  0
    1.1615    0.0564   -2.8864 H   0  0  0  0  0  0  0  0  0  0  0  0
    1.1326    2.4508    0.6914 H   0  0  0  0  0  0  0  0  0  0  0  0
   -1.3745    2.1877    0.8440 H   0  0  0  0  0  0  0  0  0  0  0  0
   -2.9297    0.8227   -0.8434 N   0  0  0  0  0  0  0  0  0  0  0  0
   -3.4871    0.1579   -1.7123 O   0  0  0  0  0  0  0  0  0  0  0  0
   -3.5027    1.3695    0.0948 O   0  0  0  0  0  0  0  0  0  0  0  0
    2.8059    1.0505    3.2153 N   0  0  0  0  0  0  0  0  0  0  0  0
    2.7686    0.6489    4.2432 N   0  0  0  0  0  0  0  0  0  0  0  0
    2.6296    1.4879   -1.2324 O   0  0  0  0  0  0  0  0  0  0  0  0
    3.4818    0.4509   -0.5845 N   0  0  0  0  0  0  0  0  0  0  0  0
    4.6435    0.7012   -0.7112 O   0  0  0  0  0  0  0  0  0  0  0  0
    2.9101   -0.4587   -0.0470 O   0  0  0  0  0  0  0  0  0  0  0  0
  1  6  1  0  0  0  0
  2  1  2  0  0  0  0
  2  3  1  0  0  0  0
  3  4  2  0  0  0  0
  4  5  1  0  0  0  0
  4  9  1  0  0  0  0
  5 10  1  0  0  0  0
  6 11  1  0  0  0  0
  6  5  2  0  0  0  0
  7  1  1  0  0  0  0
  8  2  1  0  0  0  0
 11 13  2  0  0  0  0
 12 11  2  0  0  0  0
 14 15  3  0  0  0  0
 16  3  1  0  0  0  0
 16 17  1  0  0  0  0
 17 19  2  0  0  0  0
 18 17  2  0  0  0  0
M  END
