Coordinates from ORCA-job p-NO2-Ph-N2-NO3-B3LYPG-aug-cc-pVDZ-scan-d09-49-n400
 OpenBabel01151817073D

 19 18  0  0  0  0  0  0  0  0999 V2000
   -0.5798    0.0593   -1.2281 C   0  0  0  0  0  0  0  0  0  0  0  0
    0.8040    0.1890   -1.2362 C   0  0  0  0  0  0  0  0  0  0  0  0
    1.3988    1.2316   -0.4921 C   0  0  0  0  0  0  0  0  0  0  0  0
    0.5921    2.2791    0.0106 C   0  0  0  0  0  0  0  0  0  0  0  0
   -0.7871    2.1526    0.0055 C   0  0  0  0  0  0  0  0  0  0  0  0
   -1.3611    1.0187   -0.5797 C   0  0  0  0  0  0  0  0  0  0  0  0
   -1.0645   -0.7653   -1.7448 H   0  0  0  0  0  0  0  0  0  0  0  0
    1.4142   -0.5401   -1.7568 H   0  0  0  0  0  0  0  0  0  0  0  0
    1.0764    3.1489    0.4503 H   0  0  0  0  0  0  0  0  0  0  0  0
   -1.4256    2.9206    0.4343 H   0  0  0  0  0  0  0  0  0  0  0  0
   -2.8239    0.8730   -0.5779 N   0  0  0  0  0  0  0  0  0  0  0  0
   -3.2996   -0.1265   -1.1124 O   0  0  0  0  0  0  0  0  0  0  0  0
   -3.4840    1.7512   -0.0259 O   0  0  0  0  0  0  0  0  0  0  0  0
    1.7824    0.3324    1.2097 N   0  0  0  0  0  0  0  0  0  0  0  0
    1.1448   -0.1840    1.9580 N   0  0  0  0  0  0  0  0  0  0  0  0
    2.7201    1.6595   -0.6726 O   0  0  0  0  0  0  0  0  0  0  0  0
    3.7999    0.6832   -0.7756 N   0  0  0  0  0  0  0  0  0  0  0  0
    4.8613    1.2332   -0.8398 O   0  0  0  0  0  0  0  0  0  0  0  0
    3.5171   -0.4880   -0.7859 O   0  0  0  0  0  0  0  0  0  0  0  0
  1  6  1  0  0  0  0
  2  1  2  0  0  0  0
  2  3  1  0  0  0  0
  3  4  2  0  0  0  0
  4  9  1  0  0  0  0
  5  4  1  0  0  0  0
  5 10  1  0  0  0  0
  6 11  1  0  0  0  0
  6  5  2  0  0  0  0
  7  1  1  0  0  0  0
  8  2  1  0  0  0  0
 11 13  2  0  0  0  0
 12 11  2  0  0  0  0
 14 15  3  0  0  0  0
 16  3  1  0  0  0  0
 17 16  1  0  0  0  0
 18 17  2  0  0  0  0
 19 17  2  0  0  0  0
M  END
