Coordinates from ORCA-job p-NO2-Ph-N2-NO3-B3LYPG-aug-cc-pVDZ-scan-d09-49-n400
 OpenBabel01151817073D

 19 18  0  0  0  0  0  0  0  0999 V2000
   -0.5960    0.0908   -1.3205 C   0  0  0  0  0  0  0  0  0  0  0  0
    0.7888    0.2477   -1.3784 C   0  0  0  0  0  0  0  0  0  0  0  0
    1.3726    1.3364   -0.7198 C   0  0  0  0  0  0  0  0  0  0  0  0
    0.5883    2.2940   -0.0602 C   0  0  0  0  0  0  0  0  0  0  0  0
   -0.7931    2.1449   -0.0199 C   0  0  0  0  0  0  0  0  0  0  0  0
   -1.3675    1.0333   -0.6411 C   0  0  0  0  0  0  0  0  0  0  0  0
   -1.0828   -0.7478   -1.8119 H   0  0  0  0  0  0  0  0  0  0  0  0
    1.3904   -0.4701   -1.9246 H   0  0  0  0  0  0  0  0  0  0  0  0
    1.0759    3.1435    0.4141 H   0  0  0  0  0  0  0  0  0  0  0  0
   -1.4257    2.8690    0.4870 H   0  0  0  0  0  0  0  0  0  0  0  0
   -2.8306    0.8621   -0.5928 N   0  0  0  0  0  0  0  0  0  0  0  0
   -3.3086   -0.1264   -1.1439 O   0  0  0  0  0  0  0  0  0  0  0  0
   -3.4854    1.7192   -0.0043 O   0  0  0  0  0  0  0  0  0  0  0  0
    1.9041    0.2721    1.6643 N   0  0  0  0  0  0  0  0  0  0  0  0
    1.3202   -0.2725    2.4274 N   0  0  0  0  0  0  0  0  0  0  0  0
    2.7125    1.6953   -0.8062 O   0  0  0  0  0  0  0  0  0  0  0  0
    3.7580    0.6617   -0.7776 N   0  0  0  0  0  0  0  0  0  0  0  0
    4.8423    1.1671   -0.7988 O   0  0  0  0  0  0  0  0  0  0  0  0
    3.4221   -0.4920   -0.7520 O   0  0  0  0  0  0  0  0  0  0  0  0
  1  6  1  0  0  0  0
  2  1  2  0  0  0  0
  2  3  1  0  0  0  0
  3  4  2  0  0  0  0
  4  5  1  0  0  0  0
  4  9  1  0  0  0  0
  5 10  1  0  0  0  0
  6 11  1  0  0  0  0
  6  5  2  0  0  0  0
  7  1  1  0  0  0  0
  8  2  1  0  0  0  0
 11 13  2  0  0  0  0
 12 11  2  0  0  0  0
 14 15  3  0  0  0  0
 16 17  1  0  0  0  0
 16  3  1  0  0  0  0
 17 19  2  0  0  0  0
 18 17  2  0  0  0  0
M  END
