Coordinates from ORCA-job p-NO2-Ph-N2-NO3-B3LYPG-aug-cc-pVDZ-scan-d09-49-n400
 OpenBabel01151817073D

 19 18  0  0  0  0  0  0  0  0999 V2000
   -0.5808    0.0599   -1.2305 C   0  0  0  0  0  0  0  0  0  0  0  0
    0.8041    0.1936   -1.2457 C   0  0  0  0  0  0  0  0  0  0  0  0
    1.3955    1.2493   -0.5249 C   0  0  0  0  0  0  0  0  0  0  0  0
    0.5919    2.2824    0.0020 C   0  0  0  0  0  0  0  0  0  0  0  0
   -0.7882    2.1529    0.0029 C   0  0  0  0  0  0  0  0  0  0  0  0
   -1.3611    1.0205   -0.5845 C   0  0  0  0  0  0  0  0  0  0  0  0
   -1.0651   -0.7705   -1.7381 H   0  0  0  0  0  0  0  0  0  0  0  0
    1.4124   -0.5369   -1.7660 H   0  0  0  0  0  0  0  0  0  0  0  0
    1.0756    3.1505    0.4454 H   0  0  0  0  0  0  0  0  0  0  0  0
   -1.4263    2.9156    0.4419 H   0  0  0  0  0  0  0  0  0  0  0  0
   -2.8246    0.8712   -0.5771 N   0  0  0  0  0  0  0  0  0  0  0  0
   -3.3002   -0.1257   -1.1161 O   0  0  0  0  0  0  0  0  0  0  0  0
   -3.4850    1.7527   -0.0313 O   0  0  0  0  0  0  0  0  0  0  0  0
    1.7933    0.3239    1.2524 N   0  0  0  0  0  0  0  0  0  0  0  0
    1.1564   -0.1956    1.9969 N   0  0  0  0  0  0  0  0  0  0  0  0
    2.7201    1.6636   -0.6800 O   0  0  0  0  0  0  0  0  0  0  0  0
    3.7975    0.6809   -0.7739 N   0  0  0  0  0  0  0  0  0  0  0  0
    4.8611    1.2278   -0.8225 O   0  0  0  0  0  0  0  0  0  0  0  0
    3.5090   -0.4877   -0.8102 O   0  0  0  0  0  0  0  0  0  0  0  0
  1  6  1  0  0  0  0
  2  1  2  0  0  0  0
  2  3  1  0  0  0  0
  3  4  2  0  0  0  0
  4  5  1  0  0  0  0
  4  9  1  0  0  0  0
  5 10  1  0  0  0  0
  6 11  1  0  0  0  0
  6  5  2  0  0  0  0
  7  1  1  0  0  0  0
  8  2  1  0  0  0  0
 11 13  2  0  0  0  0
 12 11  2  0  0  0  0
 14 15  3  0  0  0  0
 16  3  1  0  0  0  0
 17 16  1  0  0  0  0
 18 17  2  0  0  0  0
 19 17  2  0  0  0  0
M  END
