Coordinates from ORCA-job p-NO2-Ph-N2-NO3-B3LYPG-aug-cc-pVDZ-scan-d09-49-n400
 OpenBabel01151817083D

 19 18  0  0  0  0  0  0  0  0999 V2000
   -0.7749    0.3520   -1.9659 C   0  0  0  0  0  0  0  0  0  0  0  0
    0.6082    0.5027   -2.0504 C   0  0  0  0  0  0  0  0  0  0  0  0
    1.2693    1.2710   -1.0897 C   0  0  0  0  0  0  0  0  0  0  0  0
    0.5839    1.8949   -0.0429 C   0  0  0  0  0  0  0  0  0  0  0  0
   -0.7995    1.7491    0.0438 C   0  0  0  0  0  0  0  0  0  0  0  0
   -1.4540    0.9779   -0.9188 C   0  0  0  0  0  0  0  0  0  0  0  0
   -1.3291   -0.2350   -2.6935 H   0  0  0  0  0  0  0  0  0  0  0  0
    1.1741    0.0369   -2.8552 H   0  0  0  0  0  0  0  0  0  0  0  0
    1.1336    2.4889    0.6845 H   0  0  0  0  0  0  0  0  0  0  0  0
   -1.3733    2.2202    0.8376 H   0  0  0  0  0  0  0  0  0  0  0  0
   -2.9213    0.8213   -0.8281 N   0  0  0  0  0  0  0  0  0  0  0  0
   -3.4748    0.1365   -1.6839 O   0  0  0  0  0  0  0  0  0  0  0  0
   -3.4970    1.3788    0.1021 O   0  0  0  0  0  0  0  0  0  0  0  0
    2.7539    1.0133    3.1388 N   0  0  0  0  0  0  0  0  0  0  0  0
    2.6800    0.6116    4.1646 N   0  0  0  0  0  0  0  0  0  0  0  0
    2.6353    1.5041   -1.2183 O   0  0  0  0  0  0  0  0  0  0  0  0
    3.4926    0.4566   -0.5934 N   0  0  0  0  0  0  0  0  0  0  0  0
    4.6530    0.7136   -0.7177 O   0  0  0  0  0  0  0  0  0  0  0  0
    2.9256   -0.4659   -0.0730 O   0  0  0  0  0  0  0  0  0  0  0  0
  1  6  1  0  0  0  0
  2  1  2  0  0  0  0
  2  3  1  0  0  0  0
  3  4  2  0  0  0  0
  4  5  1  0  0  0  0
  4  9  1  0  0  0  0
  5 10  1  0  0  0  0
  6 11  1  0  0  0  0
  6  5  2  0  0  0  0
  7  1  1  0  0  0  0
  8  2  1  0  0  0  0
 11 13  2  0  0  0  0
 12 11  2  0  0  0  0
 14 15  3  0  0  0  0
 16  3  1  0  0  0  0
 16 17  1  0  0  0  0
 17 19  2  0  0  0  0
 18 17  2  0  0  0  0
M  END
