Coordinates from ORCA-job p-NO2-Ph-N2-NO3-B3LYPG-aug-cc-pVDZ-scan-d09-49-n400
 OpenBabel01151817083D

 19 18  0  0  0  0  0  0  0  0999 V2000
   -0.7574    0.3315   -1.9256 C   0  0  0  0  0  0  0  0  0  0  0  0
    0.6242    0.4898   -2.0121 C   0  0  0  0  0  0  0  0  0  0  0  0
    1.2798    1.2863   -1.0695 C   0  0  0  0  0  0  0  0  0  0  0  0
    0.5873    1.9317   -0.0423 C   0  0  0  0  0  0  0  0  0  0  0  0
   -0.7956    1.7808    0.0461 C   0  0  0  0  0  0  0  0  0  0  0  0
   -1.4431    0.9802   -0.8965 C   0  0  0  0  0  0  0  0  0  0  0  0
   -1.3061   -0.2779   -2.6390 H   0  0  0  0  0  0  0  0  0  0  0  0
    1.1937    0.0069   -2.8043 H   0  0  0  0  0  0  0  0  0  0  0  0
    1.1327    2.5486    0.6694 H   0  0  0  0  0  0  0  0  0  0  0  0
   -1.3731    2.2695    0.8265 H   0  0  0  0  0  0  0  0  0  0  0  0
   -2.9095    0.8164   -0.8043 N   0  0  0  0  0  0  0  0  0  0  0  0
   -3.4571    0.1083   -1.6447 O   0  0  0  0  0  0  0  0  0  0  0  0
   -3.4911    1.3978    0.1074 O   0  0  0  0  0  0  0  0  0  0  0  0
    2.6780    0.9529    3.0453 N   0  0  0  0  0  0  0  0  0  0  0  0
    2.5472    0.5543    4.0666 N   0  0  0  0  0  0  0  0  0  0  0  0
    2.6438    1.5272   -1.2015 O   0  0  0  0  0  0  0  0  0  0  0  0
    3.5104    0.4665   -0.6168 N   0  0  0  0  0  0  0  0  0  0  0  0
    4.6687    0.7331   -0.7426 O   0  0  0  0  0  0  0  0  0  0  0  0
    2.9527   -0.4752   -0.1214 O   0  0  0  0  0  0  0  0  0  0  0  0
  1  6  1  0  0  0  0
  2  1  2  0  0  0  0
  2  3  1  0  0  0  0
  3  4  2  0  0  0  0
  4  5  1  0  0  0  0
  4  9  1  0  0  0  0
  5 10  1  0  0  0  0
  6 11  1  0  0  0  0
  6  5  2  0  0  0  0
  7  1  1  0  0  0  0
  8  2  1  0  0  0  0
 11 13  2  0  0  0  0
 12 11  2  0  0  0  0
 14 15  3  0  0  0  0
 16  3  1  0  0  0  0
 16 17  1  0  0  0  0
 17 19  2  0  0  0  0
 18 17  2  0  0  0  0
M  END
