Coordinates from ORCA-job p-NO2-Ph-N2-NO3-B3LYPG-aug-cc-pVDZ-scan-d09-49-n400
 OpenBabel01151817083D

 19 18  0  0  0  0  0  0  0  0999 V2000
   -0.7419    0.3113   -1.8874 C   0  0  0  0  0  0  0  0  0  0  0  0
    0.6387    0.4758   -1.9771 C   0  0  0  0  0  0  0  0  0  0  0  0
    1.2888    1.2998   -1.0544 C   0  0  0  0  0  0  0  0  0  0  0  0
    0.5912    1.9676   -0.0451 C   0  0  0  0  0  0  0  0  0  0  0  0
   -0.7913    1.8124    0.0448 C   0  0  0  0  0  0  0  0  0  0  0  0
   -1.4330    0.9833   -0.8767 C   0  0  0  0  0  0  0  0  0  0  0  0
   -1.2861   -0.3196   -2.5851 H   0  0  0  0  0  0  0  0  0  0  0  0
    1.2109   -0.0244   -2.7565 H   0  0  0  0  0  0  0  0  0  0  0  0
    1.1325    2.6060    0.6505 H   0  0  0  0  0  0  0  0  0  0  0  0
   -1.3725    2.3186    0.8110 H   0  0  0  0  0  0  0  0  0  0  0  0
   -2.8984    0.8137   -0.7823 N   0  0  0  0  0  0  0  0  0  0  0  0
   -3.4407    0.0800   -1.6040 O   0  0  0  0  0  0  0  0  0  0  0  0
   -3.4847    1.4163    0.1126 O   0  0  0  0  0  0  0  0  0  0  0  0
    2.6063    0.8889    2.9742 N   0  0  0  0  0  0  0  0  0  0  0  0
    2.4218    0.4958    3.9893 N   0  0  0  0  0  0  0  0  0  0  0  0
    2.6508    1.5506   -1.1877 O   0  0  0  0  0  0  0  0  0  0  0  0
    3.5282    0.4782   -0.6431 N   0  0  0  0  0  0  0  0  0  0  0  0
    4.6837    0.7558   -0.7713 O   0  0  0  0  0  0  0  0  0  0  0  0
    2.9812   -0.4816   -0.1710 O   0  0  0  0  0  0  0  0  0  0  0  0
  1  6  1  0  0  0  0
  2  1  2  0  0  0  0
  2  3  1  0  0  0  0
  3  4  2  0  0  0  0
  4  5  1  0  0  0  0
  4  9  1  0  0  0  0
  5 10  1  0  0  0  0
  6 11  1  0  0  0  0
  6  5  2  0  0  0  0
  7  1  1  0  0  0  0
  8  2  1  0  0  0  0
 11 13  2  0  0  0  0
 12 11  2  0  0  0  0
 14 15  3  0  0  0  0
 16  3  1  0  0  0  0
 16 17  1  0  0  0  0
 17 19  2  0  0  0  0
 18 17  2  0  0  0  0
M  END
