Coordinates from ORCA-job p-NO2-Ph-N2-NO3-B3LYPG-aug-cc-pVDZ-scan-d09-49-n400
 OpenBabel01151817083D

 19 18  0  0  0  0  0  0  0  0999 V2000
   -0.6934    0.2485   -1.7588 C   0  0  0  0  0  0  0  0  0  0  0  0
    0.6836    0.4281   -1.8656 C   0  0  0  0  0  0  0  0  0  0  0  0
    1.3208    1.3364   -1.0147 C   0  0  0  0  0  0  0  0  0  0  0  0
    0.6108    2.0756   -0.0655 C   0  0  0  0  0  0  0  0  0  0  0  0
   -0.7696    1.9089    0.0363 C   0  0  0  0  0  0  0  0  0  0  0  0
   -1.3971    0.9929   -0.8093 C   0  0  0  0  0  0  0  0  0  0  0  0
   -1.2266   -0.4481   -2.4005 H   0  0  0  0  0  0  0  0  0  0  0  0
    1.2607   -0.1274   -2.6024 H   0  0  0  0  0  0  0  0  0  0  0  0
    1.1415    2.7800    0.5721 H   0  0  0  0  0  0  0  0  0  0  0  0
   -1.3591    2.4705    0.7562 H   0  0  0  0  0  0  0  0  0  0  0  0
   -2.8591    0.8084   -0.7003 N   0  0  0  0  0  0  0  0  0  0  0  0
   -3.3885   -0.0036   -1.4541 O   0  0  0  0  0  0  0  0  0  0  0  0
   -3.4567    1.4777    0.1381 O   0  0  0  0  0  0  0  0  0  0  0  0
    2.3273    0.6666    2.7327 N   0  0  0  0  0  0  0  0  0  0  0  0
    2.0050    0.3005    3.7231 N   0  0  0  0  0  0  0  0  0  0  0  0
    2.6749    1.6155   -1.1614 O   0  0  0  0  0  0  0  0  0  0  0  0
    3.5916    0.5287   -0.7200 N   0  0  0  0  0  0  0  0  0  0  0  0
    4.7353    0.8502   -0.8516 O   0  0  0  0  0  0  0  0  0  0  0  0
    3.0842   -0.4810   -0.3135 O   0  0  0  0  0  0  0  0  0  0  0  0
  1  6  1  0  0  0  0
  2  1  2  0  0  0  0
  2  3  1  0  0  0  0
  3  4  2  0  0  0  0
  4  5  1  0  0  0  0
  4  9  1  0  0  0  0
  5 10  1  0  0  0  0
  6 11  1  0  0  0  0
  6  5  2  0  0  0  0
  7  1  1  0  0  0  0
  8  2  1  0  0  0  0
 11 13  2  0  0  0  0
 12 11  2  0  0  0  0
 14 15  3  0  0  0  0
 16  3  1  0  0  0  0
 16 17  1  0  0  0  0
 17 19  2  0  0  0  0
 18 17  2  0  0  0  0
M  END
