Coordinates from ORCA-job p-NO2-Ph-N2-NO3-B3LYPG-aug-cc-pVDZ-scan-d09-49-n400
 OpenBabel01151817083D

 19 18  0  0  0  0  0  0  0  0999 V2000
   -0.6714    0.2179   -1.6899 C   0  0  0  0  0  0  0  0  0  0  0  0
    0.7051    0.4011   -1.8003 C   0  0  0  0  0  0  0  0  0  0  0  0
    1.3327    1.3493   -0.9867 C   0  0  0  0  0  0  0  0  0  0  0  0
    0.6132    2.1263   -0.0737 C   0  0  0  0  0  0  0  0  0  0  0  0
   -0.7664    1.9569    0.0277 C   0  0  0  0  0  0  0  0  0  0  0  0
   -1.3845    0.9994   -0.7781 C   0  0  0  0  0  0  0  0  0  0  0  0
   -1.1973   -0.5097   -2.3024 H   0  0  0  0  0  0  0  0  0  0  0  0
    1.2864   -0.1832   -2.5104 H   0  0  0  0  0  0  0  0  0  0  0  0
    1.1371    2.8612    0.5342 H   0  0  0  0  0  0  0  0  0  0  0  0
   -1.3625    2.5478    0.7182 H   0  0  0  0  0  0  0  0  0  0  0  0
   -2.8455    0.8107   -0.6677 N   0  0  0  0  0  0  0  0  0  0  0  0
   -3.3664   -0.0377   -1.3866 O   0  0  0  0  0  0  0  0  0  0  0  0
   -3.4519    1.5158    0.1344 O   0  0  0  0  0  0  0  0  0  0  0  0
    2.2139    0.5658    2.5912 N   0  0  0  0  0  0  0  0  0  0  0  0
    1.8393    0.1885    3.5590 N   0  0  0  0  0  0  0  0  0  0  0  0
    2.6832    1.6427   -1.1324 O   0  0  0  0  0  0  0  0  0  0  0  0
    3.6223    0.5541   -0.7448 N   0  0  0  0  0  0  0  0  0  0  0  0
    4.7579    0.9031   -0.8759 O   0  0  0  0  0  0  0  0  0  0  0  0
    3.1402   -0.4816   -0.3752 O   0  0  0  0  0  0  0  0  0  0  0  0
  1  6  1  0  0  0  0
  2  1  2  0  0  0  0
  2  3  1  0  0  0  0
  3  4  2  0  0  0  0
  4  5  1  0  0  0  0
  4  9  1  0  0  0  0
  5 10  1  0  0  0  0
  6 11  1  0  0  0  0
  6  5  2  0  0  0  0
  7  1  1  0  0  0  0
  8  2  1  0  0  0  0
 11 13  2  0  0  0  0
 12 11  2  0  0  0  0
 14 15  3  0  0  0  0
 16  3  1  0  0  0  0
 16 17  1  0  0  0  0
 17 19  2  0  0  0  0
 18 17  2  0  0  0  0
M  END
