Coordinates from ORCA-job p-NO2-Ph-N2-NO3-B3LYPG-aug-cc-pVDZ-scan-d09-49-n400
 OpenBabel01151817083D

 19 18  0  0  0  0  0  0  0  0999 V2000
   -0.7950    0.3754   -2.0115 C   0  0  0  0  0  0  0  0  0  0  0  0
    0.5893    0.5179   -2.0917 C   0  0  0  0  0  0  0  0  0  0  0  0
    1.2570    1.2533   -1.1097 C   0  0  0  0  0  0  0  0  0  0  0  0
    0.5760    1.8504   -0.0458 C   0  0  0  0  0  0  0  0  0  0  0  0
   -0.8079    1.7110    0.0395 C   0  0  0  0  0  0  0  0  0  0  0  0
   -1.4689    0.9741   -0.9454 C   0  0  0  0  0  0  0  0  0  0  0  0
   -1.3537   -0.1856   -2.7561 H   0  0  0  0  0  0  0  0  0  0  0  0
    1.1520    0.0722   -2.9102 H   0  0  0  0  0  0  0  0  0  0  0  0
    1.1303    2.4192    0.6986 H   0  0  0  0  0  0  0  0  0  0  0  0
   -1.3772    2.1618    0.8481 H   0  0  0  0  0  0  0  0  0  0  0  0
   -2.9372    0.8253   -0.8579 N   0  0  0  0  0  0  0  0  0  0  0  0
   -3.4968    0.1746   -1.7359 O   0  0  0  0  0  0  0  0  0  0  0  0
   -3.5083    1.3611    0.0878 O   0  0  0  0  0  0  0  0  0  0  0  0
    2.8506    1.0810    3.2760 N   0  0  0  0  0  0  0  0  0  0  0  0
    2.8442    0.6801    4.3047 N   0  0  0  0  0  0  0  0  0  0  0  0
    2.6246    1.4748   -1.2412 O   0  0  0  0  0  0  0  0  0  0  0  0
    3.4730    0.4456   -0.5767 N   0  0  0  0  0  0  0  0  0  0  0  0
    4.6356    0.6906   -0.7060 O   0  0  0  0  0  0  0  0  0  0  0  0
    2.8981   -0.4540   -0.0259 O   0  0  0  0  0  0  0  0  0  0  0  0
  1  6  1  0  0  0  0
  2  1  2  0  0  0  0
  2  3  1  0  0  0  0
  3  4  2  0  0  0  0
  4  5  1  0  0  0  0
  4  9  1  0  0  0  0
  5 10  1  0  0  0  0
  6 11  1  0  0  0  0
  6  5  2  0  0  0  0
  7  1  1  0  0  0  0
  8  2  1  0  0  0  0
 11 13  2  0  0  0  0
 12 11  2  0  0  0  0
 14 15  3  0  0  0  0
 16  3  1  0  0  0  0
 16 17  1  0  0  0  0
 17 19  2  0  0  0  0
 18 17  2  0  0  0  0
M  END
