Coordinates from ORCA-job p-NO2-Ph-N2-NO3-B3LYPG-aug-cc-pVDZ-scan-d09-49-n400
 OpenBabel01151817073D

 19 18  0  0  0  0  0  0  0  0999 V2000
   -0.5887    0.0762   -1.2727 C   0  0  0  0  0  0  0  0  0  0  0  0
    0.7974    0.2245   -1.3152 C   0  0  0  0  0  0  0  0  0  0  0  0
    1.3803    1.3141   -0.6563 C   0  0  0  0  0  0  0  0  0  0  0  0
    0.5888    2.2977   -0.0425 C   0  0  0  0  0  0  0  0  0  0  0  0
   -0.7927    2.1553   -0.0163 C   0  0  0  0  0  0  0  0  0  0  0  0
   -1.3652    1.0321   -0.6186 C   0  0  0  0  0  0  0  0  0  0  0  0
   -1.0728   -0.7670   -1.7589 H   0  0  0  0  0  0  0  0  0  0  0  0
    1.4011   -0.5055   -1.8416 H   0  0  0  0  0  0  0  0  0  0  0  0
    1.0729    3.1576    0.4162 H   0  0  0  0  0  0  0  0  0  0  0  0
   -1.4281    2.8958    0.4627 H   0  0  0  0  0  0  0  0  0  0  0  0
   -2.8289    0.8682   -0.5856 N   0  0  0  0  0  0  0  0  0  0  0  0
   -3.3044   -0.1288   -1.1235 O   0  0  0  0  0  0  0  0  0  0  0  0
   -3.4870    1.7389   -0.0210 O   0  0  0  0  0  0  0  0  0  0  0  0
    1.8556    0.2676    1.4890 N   0  0  0  0  0  0  0  0  0  0  0  0
    1.2464   -0.2680    2.2397 N   0  0  0  0  0  0  0  0  0  0  0  0
    2.7167    1.6863   -0.7425 O   0  0  0  0  0  0  0  0  0  0  0  0
    3.7775    0.6728   -0.7778 N   0  0  0  0  0  0  0  0  0  0  0  0
    4.8526    1.1983   -0.7884 O   0  0  0  0  0  0  0  0  0  0  0  0
    3.4641   -0.4877   -0.8062 O   0  0  0  0  0  0  0  0  0  0  0  0
  1  6  1  0  0  0  0
  2  1  2  0  0  0  0
  2  3  1  0  0  0  0
  3  4  2  0  0  0  0
  4  5  1  0  0  0  0
  4  9  1  0  0  0  0
  5 10  1  0  0  0  0
  6 11  1  0  0  0  0
  6  5  2  0  0  0  0
  7  1  1  0  0  0  0
  8  2  1  0  0  0  0
 11 13  2  0  0  0  0
 12 11  2  0  0  0  0
 14 15  3  0  0  0  0
 16  3  1  0  0  0  0
 17 16  1  0  0  0  0
 18 17  2  0  0  0  0
 19 17  2  0  0  0  0
M  END
