Coordinates from ORCA-job p-NO2-Ph-N2-NO3-B3LYPG-aug-cc-pVDZ-scan-d09-49-n400
 OpenBabel01151817083D

 19 18  0  0  0  0  0  0  0  0999 V2000
   -0.6221    0.1426   -1.4884 C   0  0  0  0  0  0  0  0  0  0  0  0
    0.7566    0.3217   -1.5854 C   0  0  0  0  0  0  0  0  0  0  0  0
    1.3569    1.3638   -0.8703 C   0  0  0  0  0  0  0  0  0  0  0  0
    0.6023    2.2426   -0.0849 C   0  0  0  0  0  0  0  0  0  0  0  0
   -0.7780    2.0773   -0.0046 C   0  0  0  0  0  0  0  0  0  0  0  0
   -1.3683    1.0210   -0.7008 C   0  0  0  0  0  0  0  0  0  0  0  0
   -1.1246   -0.6579   -2.0251 H   0  0  0  0  0  0  0  0  0  0  0  0
    1.3515   -0.3397   -2.2091 H   0  0  0  0  0  0  0  0  0  0  0  0
    1.1040    3.0517    0.4422 H   0  0  0  0  0  0  0  0  0  0  0  0
   -1.3959    2.7455    0.5895 H   0  0  0  0  0  0  0  0  0  0  0  0
   -2.8293    0.8335   -0.6099 N   0  0  0  0  0  0  0  0  0  0  0  0
   -3.3233   -0.1064   -1.2272 O   0  0  0  0  0  0  0  0  0  0  0  0
   -3.4641    1.6288    0.0782 O   0  0  0  0  0  0  0  0  0  0  0  0
    2.0174    0.3657    2.1252 N   0  0  0  0  0  0  0  0  0  0  0  0
    1.5148   -0.1313    2.9734 N   0  0  0  0  0  0  0  0  0  0  0  0
    2.7007    1.6918   -0.9999 O   0  0  0  0  0  0  0  0  0  0  0  0
    3.6954    0.6175   -0.7662 N   0  0  0  0  0  0  0  0  0  0  0  0
    4.8073    1.0500   -0.8467 O   0  0  0  0  0  0  0  0  0  0  0  0
    3.2842   -0.4896   -0.5493 O   0  0  0  0  0  0  0  0  0  0  0  0
  1  6  1  0  0  0  0
  2  1  2  0  0  0  0
  2  3  1  0  0  0  0
  3  4  2  0  0  0  0
  4  5  1  0  0  0  0
  4  9  1  0  0  0  0
  5 10  1  0  0  0  0
  6 11  1  0  0  0  0
  6  5  2  0  0  0  0
  7  1  1  0  0  0  0
  8  2  1  0  0  0  0
 11 13  2  0  0  0  0
 12 11  2  0  0  0  0
 14 15  3  0  0  0  0
 16  3  1  0  0  0  0
 16 17  1  0  0  0  0
 17 19  2  0  0  0  0
 18 17  2  0  0  0  0
M  END
