Coordinates from ORCA-job p-NO2-Ph-N2-NO3-B3LYPG-aug-cc-pVDZ-scan-d09-49-n400
 OpenBabel01151817073D

 19 18  0  0  0  0  0  0  0  0999 V2000
   -0.6187    0.1361   -1.4680 C   0  0  0  0  0  0  0  0  0  0  0  0
    0.7607    0.3134   -1.5616 C   0  0  0  0  0  0  0  0  0  0  0  0
    1.3582    1.3630   -0.8556 C   0  0  0  0  0  0  0  0  0  0  0  0
    0.6000    2.2514   -0.0838 C   0  0  0  0  0  0  0  0  0  0  0  0
   -0.7805    2.0874   -0.0076 C   0  0  0  0  0  0  0  0  0  0  0  0
   -1.3683    1.0231   -0.6938 C   0  0  0  0  0  0  0  0  0  0  0  0
   -1.1190   -0.6703   -1.9980 H   0  0  0  0  0  0  0  0  0  0  0  0
    1.3567   -0.3555   -2.1758 H   0  0  0  0  0  0  0  0  0  0  0  0
    1.0998    3.0661    0.4363 H   0  0  0  0  0  0  0  0  0  0  0  0
   -1.4005    2.7630    0.5760 H   0  0  0  0  0  0  0  0  0  0  0  0
   -2.8295    0.8369   -0.6070 N   0  0  0  0  0  0  0  0  0  0  0  0
   -3.3211   -0.1105   -1.2149 O   0  0  0  0  0  0  0  0  0  0  0  0
   -3.4671    1.6404    0.0689 O   0  0  0  0  0  0  0  0  0  0  0  0
    2.0059    0.3514    2.0733 N   0  0  0  0  0  0  0  0  0  0  0  0
    1.4924   -0.1569    2.9079 N   0  0  0  0  0  0  0  0  0  0  0  0
    2.7018    1.6942   -0.9795 O   0  0  0  0  0  0  0  0  0  0  0  0
    3.7028    0.6225   -0.7662 N   0  0  0  0  0  0  0  0  0  0  0  0
    4.8115    1.0645   -0.8392 O   0  0  0  0  0  0  0  0  0  0  0  0
    3.3005   -0.4918   -0.5703 O   0  0  0  0  0  0  0  0  0  0  0  0
  1  6  1  0  0  0  0
  2  1  2  0  0  0  0
  2  3  1  0  0  0  0
  3  4  2  0  0  0  0
  4  5  1  0  0  0  0
  4  9  1  0  0  0  0
  5 10  1  0  0  0  0
  6 11  1  0  0  0  0
  6  5  2  0  0  0  0
  7  1  1  0  0  0  0
  8  2  1  0  0  0  0
 11 13  2  0  0  0  0
 12 11  2  0  0  0  0
 14 15  3  0  0  0  0
 16  3  1  0  0  0  0
 16 17  1  0  0  0  0
 17 19  2  0  0  0  0
 18 17  2  0  0  0  0
M  END
