Coordinates from ORCA-job p-NO2-Ph-N2-NO3-B3LYPG-aug-cc-pVDZ-scan-d09-49-n400
 OpenBabel01151817073D

 19 18  0  0  0  0  0  0  0  0999 V2000
   -0.6063    0.1104   -1.3844 C   0  0  0  0  0  0  0  0  0  0  0  0
    0.7765    0.2768   -1.4578 C   0  0  0  0  0  0  0  0  0  0  0  0
    1.3640    1.3525   -0.7840 C   0  0  0  0  0  0  0  0  0  0  0  0
    0.5904    2.2800   -0.0737 C   0  0  0  0  0  0  0  0  0  0  0  0
   -0.7908    2.1241   -0.0183 C   0  0  0  0  0  0  0  0  0  0  0  0
   -1.3698    1.0312   -0.6667 C   0  0  0  0  0  0  0  0  0  0  0  0
   -1.0975   -0.7167   -1.8904 H   0  0  0  0  0  0  0  0  0  0  0  0
    1.3762   -0.4219   -2.0319 H   0  0  0  0  0  0  0  0  0  0  0  0
    1.0828    3.1149    0.4208 H   0  0  0  0  0  0  0  0  0  0  0  0
   -1.4188    2.8276    0.5221 H   0  0  0  0  0  0  0  0  0  0  0  0
   -2.8322    0.8529   -0.6019 N   0  0  0  0  0  0  0  0  0  0  0  0
   -3.3147   -0.1205   -1.1752 O   0  0  0  0  0  0  0  0  0  0  0  0
   -3.4809    1.6885    0.0229 O   0  0  0  0  0  0  0  0  0  0  0  0
    1.9630    0.3042    1.8582 N   0  0  0  0  0  0  0  0  0  0  0  0
    1.4112   -0.2450    2.6413 N   0  0  0  0  0  0  0  0  0  0  0  0
    2.7061    1.6987   -0.8828 O   0  0  0  0  0  0  0  0  0  0  0  0
    3.7321    0.6440   -0.7717 N   0  0  0  0  0  0  0  0  0  0  0  0
    4.8275    1.1225   -0.8166 O   0  0  0  0  0  0  0  0  0  0  0  0
    3.3667   -0.4957   -0.6692 O   0  0  0  0  0  0  0  0  0  0  0  0
  1  6  1  0  0  0  0
  2  1  2  0  0  0  0
  2  3  1  0  0  0  0
  3  4  2  0  0  0  0
  4  5  1  0  0  0  0
  4  9  1  0  0  0  0
  5 10  1  0  0  0  0
  6 11  1  0  0  0  0
  6  5  2  0  0  0  0
  7  1  1  0  0  0  0
  8  2  1  0  0  0  0
 11 13  2  0  0  0  0
 12 11  2  0  0  0  0
 14 15  3  0  0  0  0
 16  3  1  0  0  0  0
 16 17  1  0  0  0  0
 17 19  2  0  0  0  0
 18 17  2  0  0  0  0
M  END
