Coordinates from ORCA-job p-NO2-Ph-N2-NO3-B3LYPG-aug-cc-pVDZ-scan-d09-49-n400
 OpenBabel01151817083D

 19 18  0  0  0  0  0  0  0  0999 V2000
   -0.6509    0.1885   -1.6175 C   0  0  0  0  0  0  0  0  0  0  0  0
    0.7257    0.3728   -1.7260 C   0  0  0  0  0  0  0  0  0  0  0  0
    1.3427    1.3593   -0.9499 C   0  0  0  0  0  0  0  0  0  0  0  0
    0.6107    2.1747   -0.0809 C   0  0  0  0  0  0  0  0  0  0  0  0
   -0.7689    2.0047    0.0155 C   0  0  0  0  0  0  0  0  0  0  0  0
   -1.3762    1.0075   -0.7493 C   0  0  0  0  0  0  0  0  0  0  0  0
   -1.1679   -0.5686   -2.2011 H   0  0  0  0  0  0  0  0  0  0  0  0
    1.3126   -0.2409   -2.4055 H   0  0  0  0  0  0  0  0  0  0  0  0
    1.1261    2.9396    0.4964 H   0  0  0  0  0  0  0  0  0  0  0  0
   -1.3732    2.6251    0.6722 H   0  0  0  0  0  0  0  0  0  0  0  0
   -2.8367    0.8171   -0.6431 N   0  0  0  0  0  0  0  0  0  0  0  0
   -3.3473   -0.0678   -1.3246 O   0  0  0  0  0  0  0  0  0  0  0  0
   -3.4538    1.5568    0.1188 O   0  0  0  0  0  0  0  0  0  0  0  0
    2.1290    0.4816    2.4377 N   0  0  0  0  0  0  0  0  0  0  0  0
    1.7057    0.0598    3.3662 N   0  0  0  0  0  0  0  0  0  0  0  0
    2.6901    1.6658   -1.0932 O   0  0  0  0  0  0  0  0  0  0  0  0
    3.6494    0.5789   -0.7592 N   0  0  0  0  0  0  0  0  0  0  0  0
    4.7772    0.9556   -0.8823 O   0  0  0  0  0  0  0  0  0  0  0  0
    3.1913   -0.4820   -0.4333 O   0  0  0  0  0  0  0  0  0  0  0  0
  1  6  1  0  0  0  0
  2  1  2  0  0  0  0
  2  3  1  0  0  0  0
  3  4  2  0  0  0  0
  4  5  1  0  0  0  0
  4  9  1  0  0  0  0
  5 10  1  0  0  0  0
  6 11  1  0  0  0  0
  6  5  2  0  0  0  0
  7  1  1  0  0  0  0
  8  2  1  0  0  0  0
 11 13  2  0  0  0  0
 12 11  2  0  0  0  0
 14 15  3  0  0  0  0
 16  3  1  0  0  0  0
 16 17  1  0  0  0  0
 17 19  2  0  0  0  0
 18 17  2  0  0  0  0
M  END
