Coordinates from ORCA-job p-NO2-Ph-N2-NO3-B3LYPG-aug-cc-pVDZ-scan-d09-49-n400
 OpenBabel01151817073D

 19 18  0  0  0  0  0  0  0  0999 V2000
   -0.5858    0.0702   -1.2558 C   0  0  0  0  0  0  0  0  0  0  0  0
    0.8004    0.2143   -1.2908 C   0  0  0  0  0  0  0  0  0  0  0  0
    1.3847    1.2980   -0.6208 C   0  0  0  0  0  0  0  0  0  0  0  0
    0.5899    2.2946   -0.0301 C   0  0  0  0  0  0  0  0  0  0  0  0
   -0.7914    2.1558   -0.0108 C   0  0  0  0  0  0  0  0  0  0  0  0
   -1.3637    1.0292   -0.6075 C   0  0  0  0  0  0  0  0  0  0  0  0
   -1.0697   -0.7714   -1.7450 H   0  0  0  0  0  0  0  0  0  0  0  0
    1.4051   -0.5177   -1.8129 H   0  0  0  0  0  0  0  0  0  0  0  0
    1.0736    3.1576    0.4234 H   0  0  0  0  0  0  0  0  0  0  0  0
   -1.4278    2.9030    0.4563 H   0  0  0  0  0  0  0  0  0  0  0  0
   -2.8276    0.8694   -0.5821 N   0  0  0  0  0  0  0  0  0  0  0  0
   -3.3028   -0.1287   -1.1182 O   0  0  0  0  0  0  0  0  0  0  0  0
   -3.4866    1.7444   -0.0250 O   0  0  0  0  0  0  0  0  0  0  0  0
    1.8347    0.2817    1.4083 N   0  0  0  0  0  0  0  0  0  0  0  0
    1.2130   -0.2479    2.1540 N   0  0  0  0  0  0  0  0  0  0  0  0
    2.7183    1.6797   -0.7191 O   0  0  0  0  0  0  0  0  0  0  0  0
    3.7849    0.6754   -0.7760 N   0  0  0  0  0  0  0  0  0  0  0  0
    4.8565    1.2082   -0.7889 O   0  0  0  0  0  0  0  0  0  0  0  0
    3.4799   -0.4873   -0.8182 O   0  0  0  0  0  0  0  0  0  0  0  0
  1  6  1  0  0  0  0
  2  1  2  0  0  0  0
  2  3  1  0  0  0  0
  3  4  2  0  0  0  0
  4  5  1  0  0  0  0
  4  9  1  0  0  0  0
  5 10  1  0  0  0  0
  6 11  1  0  0  0  0
  6  5  2  0  0  0  0
  7  1  1  0  0  0  0
  8  2  1  0  0  0  0
 11 13  2  0  0  0  0
 12 11  2  0  0  0  0
 14 15  3  0  0  0  0
 16  3  1  0  0  0  0
 17 16  1  0  0  0  0
 18 17  2  0  0  0  0
 19 17  2  0  0  0  0
M  END
