Coordinates from ORCA-job p-NO2-Ph-N2-NO3-B3LYPG-aug-cc-pVDZ-scan-d09-49-n400
 OpenBabel01151817083D

 19 18  0  0  0  0  0  0  0  0999 V2000
   -0.7559    0.3286   -1.9212 C   0  0  0  0  0  0  0  0  0  0  0  0
    0.6256    0.4877   -2.0093 C   0  0  0  0  0  0  0  0  0  0  0  0
    1.2808    1.2876   -1.0697 C   0  0  0  0  0  0  0  0  0  0  0  0
    0.5890    1.9360   -0.0430 C   0  0  0  0  0  0  0  0  0  0  0  0
   -0.7939    1.7843    0.0460 C   0  0  0  0  0  0  0  0  0  0  0  0
   -1.4413    0.9801   -0.8937 C   0  0  0  0  0  0  0  0  0  0  0  0
   -1.3047   -0.2834   -2.6321 H   0  0  0  0  0  0  0  0  0  0  0  0
    1.1949    0.0027   -2.8003 H   0  0  0  0  0  0  0  0  0  0  0  0
    1.1340    2.5553    0.6667 H   0  0  0  0  0  0  0  0  0  0  0  0
   -1.3716    2.2750    0.8249 H   0  0  0  0  0  0  0  0  0  0  0  0
   -2.9075    0.8155   -0.8001 N   0  0  0  0  0  0  0  0  0  0  0  0
   -3.4554    0.1056   -1.6389 O   0  0  0  0  0  0  0  0  0  0  0  0
   -3.4893    1.4008    0.1091 O   0  0  0  0  0  0  0  0  0  0  0  0
    2.6675    0.9444    3.0375 N   0  0  0  0  0  0  0  0  0  0  0  0
    2.5281    0.5473    4.0583 N   0  0  0  0  0  0  0  0  0  0  0  0
    2.6444    1.5308   -1.2007 O   0  0  0  0  0  0  0  0  0  0  0  0
    3.5130    0.4686   -0.6200 N   0  0  0  0  0  0  0  0  0  0  0  0
    4.6707    0.7374   -0.7455 O   0  0  0  0  0  0  0  0  0  0  0  0
    2.9570   -0.4756   -0.1274 O   0  0  0  0  0  0  0  0  0  0  0  0
  1  6  1  0  0  0  0
  2  1  2  0  0  0  0
  2  3  1  0  0  0  0
  3  4  2  0  0  0  0
  4  5  1  0  0  0  0
  4  9  1  0  0  0  0
  5 10  1  0  0  0  0
  6 11  1  0  0  0  0
  6  5  2  0  0  0  0
  7  1  1  0  0  0  0
  8  2  1  0  0  0  0
 11 13  2  0  0  0  0
 12 11  2  0  0  0  0
 14 15  3  0  0  0  0
 16  3  1  0  0  0  0
 16 17  1  0  0  0  0
 17 19  2  0  0  0  0
 18 17  2  0  0  0  0
M  END
