Coordinates from ORCA-job p-NO2-Ph-N2-NO3-B3LYPG-aug-cc-pVDZ-scan-d09-49-n400
 OpenBabel01151817073D

 19 18  0  0  0  0  0  0  0  0999 V2000
   -0.6659    0.1120   -1.2147 C   0  0  0  0  0  0  0  0  0  0  0  0
    0.6106   -0.0336   -0.6557 C   0  0  0  0  0  0  0  0  0  0  0  0
    0.8683    0.8428    0.3610 C   0  0  0  0  0  0  0  0  0  0  0  0
    0.0991    1.8298    0.9224 C   0  0  0  0  0  0  0  0  0  0  0  0
   -1.1684    1.9542    0.3348 C   0  0  0  0  0  0  0  0  0  0  0  0
   -1.5199    1.0965   -0.7094 C   0  0  0  0  0  0  0  0  0  0  0  0
   -0.9909   -0.5219   -2.0361 H   0  0  0  0  0  0  0  0  0  0  0  0
    1.3554   -0.7473   -1.0009 H   0  0  0  0  0  0  0  0  0  0  0  0
    0.4327    2.4676    1.7362 H   0  0  0  0  0  0  0  0  0  0  0  0
   -1.8723    2.7066    0.6824 H   0  0  0  0  0  0  0  0  0  0  0  0
   -2.8679    1.2400   -1.3120 N   0  0  0  0  0  0  0  0  0  0  0  0
   -3.1663    0.4663   -2.2139 O   0  0  0  0  0  0  0  0  0  0  0  0
   -3.6000    2.1097   -0.8528 O   0  0  0  0  0  0  0  0  0  0  0  0
    2.4865    0.5880    1.1820 N   0  0  0  0  0  0  0  0  0  0  0  0
    3.0414    0.7861    2.1286 N   0  0  0  0  0  0  0  0  0  0  0  0
    3.1550    1.7077   -1.2028 O   0  0  0  0  0  0  0  0  0  0  0  0
    3.8224    0.6590   -1.3024 N   0  0  0  0  0  0  0  0  0  0  0  0
    4.6824    0.4702   -2.1533 O   0  0  0  0  0  0  0  0  0  0  0  0
    3.5833   -0.3052   -0.4528 O   0  0  0  0  0  0  0  0  0  0  0  0
  1  6  2  0  0  0  0
  1  2  1  0  0  0  0
  2  3  2  0  0  0  0
  3  4  1  0  0  0  0
  3 14  1  0  0  0  0
  4  9  1  0  0  0  0
  5 10  1  0  0  0  0
  5  4  2  0  0  0  0
  6  5  1  0  0  0  0
  7  1  1  0  0  0  0
  8  2  1  0  0  0  0
 11 13  2  0  0  0  0
 11  6  1  0  0  0  0
 12 11  2  0  0  0  0
 14 15  2  0  0  0  0
 17 16  2  0  0  0  0
 17 19  1  0  0  0  0
 18 17  2  0  0  0  0
M  RAD  2  15   2  19   2
M  END
