Coordinates from ORCA-job p-NO2-Ph-N2-NO3-B3LYPG-aug-cc-pVDZ-scan-d09-49-n400
 OpenBabel01151817083D

 19 18  0  0  0  0  0  0  0  0999 V2000
   -0.6691    0.2147   -1.6823 C   0  0  0  0  0  0  0  0  0  0  0  0
    0.7073    0.3981   -1.7925 C   0  0  0  0  0  0  0  0  0  0  0  0
    1.3338    1.3505   -0.9829 C   0  0  0  0  0  0  0  0  0  0  0  0
    0.6131    2.1316   -0.0743 C   0  0  0  0  0  0  0  0  0  0  0  0
   -0.7665    1.9620    0.0266 C   0  0  0  0  0  0  0  0  0  0  0  0
   -1.3835    1.0003   -0.7749 C   0  0  0  0  0  0  0  0  0  0  0  0
   -1.1942   -0.5161   -2.2918 H   0  0  0  0  0  0  0  0  0  0  0  0
    1.2893   -0.1894   -2.4995 H   0  0  0  0  0  0  0  0  0  0  0  0
    1.1361    2.8697    0.5303 H   0  0  0  0  0  0  0  0  0  0  0  0
   -1.3635    2.5561    0.7137 H   0  0  0  0  0  0  0  0  0  0  0  0
   -2.8444    0.8114   -0.6649 N   0  0  0  0  0  0  0  0  0  0  0  0
   -3.3642   -0.0411   -1.3799 O   0  0  0  0  0  0  0  0  0  0  0  0
   -3.4520    1.5200    0.1332 O   0  0  0  0  0  0  0  0  0  0  0  0
    2.2043    0.5570    2.5743 N   0  0  0  0  0  0  0  0  0  0  0  0
    1.8242    0.1749    3.5381 N   0  0  0  0  0  0  0  0  0  0  0  0
    2.6840    1.6453   -1.1284 O   0  0  0  0  0  0  0  0  0  0  0  0
    3.6252    0.5567   -0.7463 N   0  0  0  0  0  0  0  0  0  0  0  0
    4.7601    0.9086   -0.8768 O   0  0  0  0  0  0  0  0  0  0  0  0
    3.1456   -0.4817   -0.3810 O   0  0  0  0  0  0  0  0  0  0  0  0
  1  6  1  0  0  0  0
  2  1  2  0  0  0  0
  2  3  1  0  0  0  0
  3  4  2  0  0  0  0
  4  5  1  0  0  0  0
  4  9  1  0  0  0  0
  5 10  1  0  0  0  0
  6 11  1  0  0  0  0
  6  5  2  0  0  0  0
  7  1  1  0  0  0  0
  8  2  1  0  0  0  0
 11 13  2  0  0  0  0
 12 11  2  0  0  0  0
 14 15  3  0  0  0  0
 16  3  1  0  0  0  0
 16 17  1  0  0  0  0
 17 19  2  0  0  0  0
 18 17  2  0  0  0  0
M  END
