Coordinates from ORCA-job p-NO2-Ph-N2-NO3-B3LYPG-aug-cc-pVDZ-scan-d09-49-n400
 OpenBabel01151817083D

 19 18  0  0  0  0  0  0  0  0999 V2000
   -0.6431    0.1770   -1.5863 C   0  0  0  0  0  0  0  0  0  0  0  0
    0.7339    0.3608   -1.6940 C   0  0  0  0  0  0  0  0  0  0  0  0
    1.3463    1.3631   -0.9351 C   0  0  0  0  0  0  0  0  0  0  0  0
    0.6093    2.1953   -0.0852 C   0  0  0  0  0  0  0  0  0  0  0  0
   -0.7701    2.0254    0.0088 C   0  0  0  0  0  0  0  0  0  0  0  0
   -1.3732    1.0117   -0.7377 C   0  0  0  0  0  0  0  0  0  0  0  0
   -1.1568   -0.5924   -2.1567 H   0  0  0  0  0  0  0  0  0  0  0  0
    1.3228   -0.2658   -2.3594 H   0  0  0  0  0  0  0  0  0  0  0  0
    1.1220    2.9721    0.4785 H   0  0  0  0  0  0  0  0  0  0  0  0
   -1.3776    2.6586    0.6502 H   0  0  0  0  0  0  0  0  0  0  0  0
   -2.8336    0.8211   -0.6331 N   0  0  0  0  0  0  0  0  0  0  0  0
   -3.3395   -0.0819   -1.2941 O   0  0  0  0  0  0  0  0  0  0  0  0
   -3.4542    1.5728    0.1141 O   0  0  0  0  0  0  0  0  0  0  0  0
    2.0943    0.4464    2.3658 N   0  0  0  0  0  0  0  0  0  0  0  0
    1.6499    0.0044    3.2748 N   0  0  0  0  0  0  0  0  0  0  0  0
    2.6928    1.6743   -1.0735 O   0  0  0  0  0  0  0  0  0  0  0  0
    3.6616    0.5890   -0.7613 N   0  0  0  0  0  0  0  0  0  0  0  0
    4.7853    0.9804   -0.8758 O   0  0  0  0  0  0  0  0  0  0  0  0
    3.2155   -0.4839   -0.4593 O   0  0  0  0  0  0  0  0  0  0  0  0
  1  6  1  0  0  0  0
  2  1  2  0  0  0  0
  2  3  1  0  0  0  0
  3  4  2  0  0  0  0
  4  5  1  0  0  0  0
  4  9  1  0  0  0  0
  5 10  1  0  0  0  0
  6 11  1  0  0  0  0
  6  5  2  0  0  0  0
  7  1  1  0  0  0  0
  8  2  1  0  0  0  0
 11 13  2  0  0  0  0
 12 11  2  0  0  0  0
 14 15  3  0  0  0  0
 16  3  1  0  0  0  0
 16 17  1  0  0  0  0
 17 19  2  0  0  0  0
 18 17  2  0  0  0  0
M  END
