Coordinates from ORCA-job p-NO2-Ph-N2-NO3-B3LYPG-aug-cc-pVDZ-scan-d09-49-n400
 OpenBabel01151817073D

 19 18  0  0  0  0  0  0  0  0999 V2000
   -0.6693    0.1160   -1.2186 C   0  0  0  0  0  0  0  0  0  0  0  0
    0.6088   -0.0271   -0.6646 C   0  0  0  0  0  0  0  0  0  0  0  0
    0.8767    0.8407    0.3601 C   0  0  0  0  0  0  0  0  0  0  0  0
    0.0962    1.8214    0.9240 C   0  0  0  0  0  0  0  0  0  0  0  0
   -1.1727    1.9464    0.3434 C   0  0  0  0  0  0  0  0  0  0  0  0
   -1.5251    1.0940   -0.7051 C   0  0  0  0  0  0  0  0  0  0  0  0
   -0.9956   -0.5151   -2.0415 H   0  0  0  0  0  0  0  0  0  0  0  0
    1.3511   -0.7397   -1.0170 H   0  0  0  0  0  0  0  0  0  0  0  0
    0.4292    2.4559    1.7408 H   0  0  0  0  0  0  0  0  0  0  0  0
   -1.8780    2.6942    0.6977 H   0  0  0  0  0  0  0  0  0  0  0  0
   -2.8758    1.2365   -1.3026 N   0  0  0  0  0  0  0  0  0  0  0  0
   -3.1729    0.4703   -2.2113 O   0  0  0  0  0  0  0  0  0  0  0  0
   -3.6081    2.1032   -0.8380 O   0  0  0  0  0  0  0  0  0  0  0  0
    2.4702    0.6116    1.1477 N   0  0  0  0  0  0  0  0  0  0  0  0
    3.0241    0.8154    2.0953 N   0  0  0  0  0  0  0  0  0  0  0  0
    3.2143    1.7246   -1.2048 O   0  0  0  0  0  0  0  0  0  0  0  0
    3.8444    0.6543   -1.2932 N   0  0  0  0  0  0  0  0  0  0  0  0
    4.7090    0.4277   -2.1293 O   0  0  0  0  0  0  0  0  0  0  0  0
    3.5588   -0.3017   -0.4422 O   0  0  0  0  0  0  0  0  0  0  0  0
  1  6  2  0  0  0  0
  1  2  1  0  0  0  0
  2  3  2  0  0  0  0
  3  4  1  0  0  0  0
  3 14  1  0  0  0  0
  4  9  1  0  0  0  0
  5 10  1  0  0  0  0
  5  4  2  0  0  0  0
  6  5  1  0  0  0  0
  7  1  1  0  0  0  0
  8  2  1  0  0  0  0
 11 13  2  0  0  0  0
 11  6  1  0  0  0  0
 12 11  2  0  0  0  0
 14 15  2  0  0  0  0
 17 16  2  0  0  0  0
 17 19  1  0  0  0  0
 18 17  2  0  0  0  0
M  RAD  2  15   2  19   2
M  END
