Coordinates from ORCA-job p-NO2-Ph-N2-NO3-B3LYPG-aug-cc-pVDZ-scan-d09-49-n400
 OpenBabel01151817083D

 19 18  0  0  0  0  0  0  0  0999 V2000
   -0.7253    0.2887   -1.8440 C   0  0  0  0  0  0  0  0  0  0  0  0
    0.6539    0.4592   -1.9415 C   0  0  0  0  0  0  0  0  0  0  0  0
    1.2998    1.3137   -1.0440 C   0  0  0  0  0  0  0  0  0  0  0  0
    0.5998    2.0066   -0.0525 C   0  0  0  0  0  0  0  0  0  0  0  0
   -0.7818    1.8463    0.0427 C   0  0  0  0  0  0  0  0  0  0  0  0
   -1.4194    0.9860   -0.8527 C   0  0  0  0  0  0  0  0  0  0  0  0
   -1.2666   -0.3659   -2.5220 H   0  0  0  0  0  0  0  0  0  0  0  0
    1.2273   -0.0604   -2.7070 H   0  0  0  0  0  0  0  0  0  0  0  0
    1.1383    2.6680    0.6231 H   0  0  0  0  0  0  0  0  0  0  0  0
   -1.3654    2.3715    0.7943 H   0  0  0  0  0  0  0  0  0  0  0  0
   -2.8834    0.8102   -0.7513 N   0  0  0  0  0  0  0  0  0  0  0  0
   -3.4224    0.0500   -1.5509 O   0  0  0  0  0  0  0  0  0  0  0  0
   -3.4730    1.4372    0.1246 O   0  0  0  0  0  0  0  0  0  0  0  0
    2.5074    0.8129    2.8927 N   0  0  0  0  0  0  0  0  0  0  0  0
    2.2688    0.4271    3.8994 N   0  0  0  0  0  0  0  0  0  0  0  0
    2.6592    1.5747   -1.1803 O   0  0  0  0  0  0  0  0  0  0  0  0
    3.5502    0.4958   -0.6701 N   0  0  0  0  0  0  0  0  0  0  0  0
    4.7018    0.7885   -0.7992 O   0  0  0  0  0  0  0  0  0  0  0  0
    3.0164   -0.4817   -0.2203 O   0  0  0  0  0  0  0  0  0  0  0  0
  1  6  1  0  0  0  0
  2  1  2  0  0  0  0
  2  3  1  0  0  0  0
  3  4  2  0  0  0  0
  4  5  1  0  0  0  0
  4  9  1  0  0  0  0
  5 10  1  0  0  0  0
  6 11  1  0  0  0  0
  6  5  2  0  0  0  0
  7  1  1  0  0  0  0
  8  2  1  0  0  0  0
 11 13  2  0  0  0  0
 12 11  2  0  0  0  0
 14 15  3  0  0  0  0
 16  3  1  0  0  0  0
 16 17  1  0  0  0  0
 17 19  2  0  0  0  0
 18 17  2  0  0  0  0
M  END
