Coordinates from ORCA-job p-NO2-Ph-N2-NO3-B3LYPG-aug-cc-pVDZ-scan-d09-49-n400
 OpenBabel01151817073D

 19 19  0  0  1  0  0  0  0  0999 V2000
   -0.1813    0.0728   -1.1083 C   0  0  0  0  0  0  0  0  0  0  0  0
    1.0795   -0.1963   -0.3530 C   0  0  2  0  0  0  0  0  0  0  0  0
    1.1558    0.6473    0.8803 C   0  0  0  0  0  0  0  0  0  0  0  0
    0.3028    1.7731    1.1343 C   0  0  0  0  0  0  0  0  0  0  0  0
   -0.7514    2.0190    0.3114 C   0  0  0  0  0  0  0  0  0  0  0  0
   -0.9822    1.1122   -0.7846 C   0  0  0  0  0  0  0  0  0  0  0  0
   -0.4392   -0.5875   -1.9321 H   0  0  0  0  0  0  0  0  0  0  0  0
    1.1789   -1.2671   -0.1277 H   0  0  0  0  0  0  0  0  0  0  0  0
    0.5101    2.4095    1.9932 H   0  0  0  0  0  0  0  0  0  0  0  0
   -1.4223    2.8568    0.4668 H   0  0  0  0  0  0  0  0  0  0  0  0
   -2.2080    1.3218   -1.6040 N   0  0  0  0  0  0  0  0  0  0  0  0
   -2.4446    0.5272   -2.5071 O   0  0  0  0  0  0  0  0  0  0  0  0
   -2.9205    2.2750   -1.3048 O   0  0  0  0  0  0  0  0  0  0  0  0
    2.0890    0.3081    1.7966 N   0  0  0  0  0  0  0  0  0  0  0  0
    2.8825    0.0099    2.5519 N   0  0  0  0  0  0  0  0  0  0  0  0
    1.9266    2.0796   -1.5531 O   0  0  0  0  0  0  0  0  0  0  0  0
    2.6166    1.1257   -1.8364 N   0  0  0  0  0  0  0  0  0  0  0  0
    3.5896    1.0648   -2.5433 O   0  0  0  0  0  0  0  0  0  0  0  0
    2.3035   -0.1236   -1.2396 O   0  0  0  0  0  0  0  0  0  0  0  0
  1  6  2  0  0  0  0
  1  2  1  0  0  0  0
  2  8  1  1  0  0  0
  2  3  1  0  0  0  0
  3  4  2  0  0  0  0
  3 14  1  0  0  0  0
  4  9  1  0  0  0  0
  5 10  1  0  0  0  0
  5  4  1  0  0  0  0
  6  5  1  0  0  0  0
  7  1  1  0  0  0  0
 11 13  2  0  0  0  0
 11  6  1  0  0  0  0
 12 11  2  0  0  0  0
 14 15  1  0  0  0  0
 17 16  2  0  0  0  0
 17 19  1  0  0  0  0
 18 17  2  0  0  0  0
 19  2  1  0  0  0  0
M  RAD  3   5   2  14   2  15   3
M  END
