Coordinates from ORCA-job p-NO2-Ph-N2-NO3-B3LYPG-aug-cc-pVDZ-scan-d09-49-n400
 OpenBabel01151817083D

 19 18  0  0  0  0  0  0  0  0999 V2000
   -0.7514    0.3239   -1.9111 C   0  0  0  0  0  0  0  0  0  0  0  0
    0.6298    0.4847   -1.9990 C   0  0  0  0  0  0  0  0  0  0  0  0
    1.2834    1.2917   -1.0639 C   0  0  0  0  0  0  0  0  0  0  0  0
    0.5892    1.9455   -0.0433 C   0  0  0  0  0  0  0  0  0  0  0  0
   -0.7936    1.7928    0.0459 C   0  0  0  0  0  0  0  0  0  0  0  0
   -1.4390    0.9813   -0.8886 C   0  0  0  0  0  0  0  0  0  0  0  0
   -1.2985   -0.2937   -2.6185 H   0  0  0  0  0  0  0  0  0  0  0  0
    1.2002   -0.0048   -2.7865 H   0  0  0  0  0  0  0  0  0  0  0  0
    1.1330    2.5707    0.6622 H   0  0  0  0  0  0  0  0  0  0  0  0
   -1.3724    2.2881    0.8211 H   0  0  0  0  0  0  0  0  0  0  0  0
   -2.9050    0.8151   -0.7954 N   0  0  0  0  0  0  0  0  0  0  0  0
   -3.4507    0.0973   -1.6287 O   0  0  0  0  0  0  0  0  0  0  0  0
   -3.4882    1.4045    0.1102 O   0  0  0  0  0  0  0  0  0  0  0  0
    2.6496    0.9288    3.0167 N   0  0  0  0  0  0  0  0  0  0  0  0
    2.4971    0.5325    4.0359 N   0  0  0  0  0  0  0  0  0  0  0  0
    2.6467    1.5361   -1.1964 O   0  0  0  0  0  0  0  0  0  0  0  0
    3.5173    0.4707   -0.6267 N   0  0  0  0  0  0  0  0  0  0  0  0
    4.6745    0.7416   -0.7529 O   0  0  0  0  0  0  0  0  0  0  0  0
    2.9634   -0.4781   -0.1406 O   0  0  0  0  0  0  0  0  0  0  0  0
  1  6  1  0  0  0  0
  2  1  2  0  0  0  0
  2  3  1  0  0  0  0
  3  4  2  0  0  0  0
  4  5  1  0  0  0  0
  4  9  1  0  0  0  0
  5 10  1  0  0  0  0
  6 11  1  0  0  0  0
  6  5  2  0  0  0  0
  7  1  1  0  0  0  0
  8  2  1  0  0  0  0
 11 13  2  0  0  0  0
 12 11  2  0  0  0  0
 14 15  3  0  0  0  0
 16  3  1  0  0  0  0
 16 17  1  0  0  0  0
 17 19  2  0  0  0  0
 18 17  2  0  0  0  0
M  END
