Coordinates from ORCA-job p-NO2-Ph-N2-NO3-B3LYPG-aug-cc-pVDZ-scan-d09-49-n400
 OpenBabel01151817083D

 19 18  0  0  0  0  0  0  0  0999 V2000
   -0.6208    0.1403   -1.4814 C   0  0  0  0  0  0  0  0  0  0  0  0
    0.7580    0.3189   -1.5773 C   0  0  0  0  0  0  0  0  0  0  0  0
    1.3574    1.3635   -0.8651 C   0  0  0  0  0  0  0  0  0  0  0  0
    0.6015    2.2456   -0.0846 C   0  0  0  0  0  0  0  0  0  0  0  0
   -0.7789    2.0807   -0.0056 C   0  0  0  0  0  0  0  0  0  0  0  0
   -1.3683    1.0217   -0.6984 C   0  0  0  0  0  0  0  0  0  0  0  0
   -1.1226   -0.6621   -2.0159 H   0  0  0  0  0  0  0  0  0  0  0  0
    1.3533   -0.3450   -2.1978 H   0  0  0  0  0  0  0  0  0  0  0  0
    1.1025    3.0568    0.4400 H   0  0  0  0  0  0  0  0  0  0  0  0
   -1.3975    2.7515    0.5849 H   0  0  0  0  0  0  0  0  0  0  0  0
   -2.8293    0.8347   -0.6089 N   0  0  0  0  0  0  0  0  0  0  0  0
   -3.3225   -0.1077   -1.2232 O   0  0  0  0  0  0  0  0  0  0  0  0
   -3.4652    1.6329    0.0748 O   0  0  0  0  0  0  0  0  0  0  0  0
    2.0134    0.3605    2.1081 N   0  0  0  0  0  0  0  0  0  0  0  0
    1.5073   -0.1403    2.9518 N   0  0  0  0  0  0  0  0  0  0  0  0
    2.7011    1.6927   -0.9932 O   0  0  0  0  0  0  0  0  0  0  0  0
    3.6979    0.6193   -0.7665 N   0  0  0  0  0  0  0  0  0  0  0  0
    4.8087    1.0549   -0.8446 O   0  0  0  0  0  0  0  0  0  0  0  0
    3.2895   -0.4902   -0.5565 O   0  0  0  0  0  0  0  0  0  0  0  0
  1  6  1  0  0  0  0
  2  1  2  0  0  0  0
  2  3  1  0  0  0  0
  3  4  2  0  0  0  0
  4  5  1  0  0  0  0
  4  9  1  0  0  0  0
  5 10  1  0  0  0  0
  6 11  1  0  0  0  0
  6  5  2  0  0  0  0
  7  1  1  0  0  0  0
  8  2  1  0  0  0  0
 11 13  2  0  0  0  0
 12 11  2  0  0  0  0
 14 15  3  0  0  0  0
 16  3  1  0  0  0  0
 16 17  1  0  0  0  0
 17 19  2  0  0  0  0
 18 17  2  0  0  0  0
M  END
