Coordinates from ORCA-job p-NO2-Ph-N2-NO3-B3LYPG-aug-cc-pVDZ-scan-d09-49-n400
 OpenBabel01151817073D

 19 19  0  0  1  0  0  0  0  0999 V2000
   -0.1516    0.1248   -1.1432 C   0  0  0  0  0  0  0  0  0  0  0  0
    1.0822   -0.1843   -0.3575 C   0  0  2  0  0  0  0  0  0  0  0  0
    1.2568    0.6670    0.9449 C   0  0  0  0  0  0  0  0  0  0  0  0
    0.2771    1.7614    1.1718 C   0  0  0  0  0  0  0  0  0  0  0  0
   -0.7912    1.9614    0.3761 C   0  0  0  0  0  0  0  0  0  0  0  0
   -0.9957    1.1008   -0.7709 C   0  0  0  0  0  0  0  0  0  0  0  0
   -0.3570   -0.4836   -2.0217 H   0  0  0  0  0  0  0  0  0  0  0  0
    1.0823   -1.2453   -0.0619 H   0  0  0  0  0  0  0  0  0  0  0  0
    0.4750    2.3982    2.0340 H   0  0  0  0  0  0  0  0  0  0  0  0
   -1.4996    2.7619    0.5663 H   0  0  0  0  0  0  0  0  0  0  0  0
   -2.2142    1.3234   -1.5938 N   0  0  0  0  0  0  0  0  0  0  0  0
   -2.4021    0.5918   -2.5590 O   0  0  0  0  0  0  0  0  0  0  0  0
   -2.9578    2.2355   -1.2464 O   0  0  0  0  0  0  0  0  0  0  0  0
    2.0012    0.4454    1.5752 N   0  0  0  0  0  0  0  0  0  0  0  0
    2.8778    0.1692    2.2987 N   0  0  0  0  0  0  0  0  0  0  0  0
    2.0308    2.0291   -1.4850 O   0  0  0  0  0  0  0  0  0  0  0  0
    2.6709    1.0491   -1.7864 N   0  0  0  0  0  0  0  0  0  0  0  0
    3.6099    0.9248   -2.5212 O   0  0  0  0  0  0  0  0  0  0  0  0
    2.2908   -0.2019   -1.1793 O   0  0  0  0  0  0  0  0  0  0  0  0
  1  6  2  0  0  0  0
  1  2  1  0  0  0  0
  2  8  1  1  0  0  0
  2  3  1  0  0  0  0
  3  4  2  0  0  0  0
  3 14  1  0  0  0  0
  4  9  1  0  0  0  0
  5 10  1  0  0  0  0
  5  4  1  0  0  0  0
  6  5  1  0  0  0  0
  7  1  1  0  0  0  0
 11 13  2  0  0  0  0
 11  6  1  0  0  0  0
 12 11  2  0  0  0  0
 14 15  1  0  0  0  0
 17 16  2  0  0  0  0
 17 19  1  0  0  0  0
 18 17  2  0  0  0  0
 19  2  1  0  0  0  0
M  RAD  3   5   2  14   2  15   3
M  END
