Coordinates from ORCA-job p-NO2-Ph-N2-NO3-B3LYPG-aug-cc-pVDZ-scan-d09-49-n400
 OpenBabel01151817073D

 19 18  0  0  0  0  0  0  0  0999 V2000
   -0.5879    0.0747   -1.2683 C   0  0  0  0  0  0  0  0  0  0  0  0
    0.7982    0.2218   -1.3088 C   0  0  0  0  0  0  0  0  0  0  0  0
    1.3814    1.3103   -0.6476 C   0  0  0  0  0  0  0  0  0  0  0  0
    0.5890    2.2970   -0.0394 C   0  0  0  0  0  0  0  0  0  0  0  0
   -0.7924    2.1556   -0.0150 C   0  0  0  0  0  0  0  0  0  0  0  0
   -1.3648    1.0314   -0.6159 C   0  0  0  0  0  0  0  0  0  0  0  0
   -1.0720   -0.7683   -1.7549 H   0  0  0  0  0  0  0  0  0  0  0  0
    1.4022   -0.5088   -1.8339 H   0  0  0  0  0  0  0  0  0  0  0  0
    1.0730    3.1577    0.4180 H   0  0  0  0  0  0  0  0  0  0  0  0
   -1.4281    2.8977    0.4610 H   0  0  0  0  0  0  0  0  0  0  0  0
   -2.8285    0.8687   -0.5849 N   0  0  0  0  0  0  0  0  0  0  0  0
   -3.3040   -0.1288   -1.1219 O   0  0  0  0  0  0  0  0  0  0  0  0
   -3.4870    1.7403   -0.0221 O   0  0  0  0  0  0  0  0  0  0  0  0
    1.8501    0.2708    1.4685 N   0  0  0  0  0  0  0  0  0  0  0  0
    1.2378   -0.2633    2.2179 N   0  0  0  0  0  0  0  0  0  0  0  0
    2.7172    1.6846   -0.7362 O   0  0  0  0  0  0  0  0  0  0  0  0
    3.7794    0.6736   -0.7775 N   0  0  0  0  0  0  0  0  0  0  0  0
    4.8536    1.2009   -0.7883 O   0  0  0  0  0  0  0  0  0  0  0  0
    3.4682   -0.4875   -0.8099 O   0  0  0  0  0  0  0  0  0  0  0  0
  1  6  1  0  0  0  0
  2  1  2  0  0  0  0
  2  3  1  0  0  0  0
  3  4  2  0  0  0  0
  4  5  1  0  0  0  0
  4  9  1  0  0  0  0
  5 10  1  0  0  0  0
  6 11  1  0  0  0  0
  6  5  2  0  0  0  0
  7  1  1  0  0  0  0
  8  2  1  0  0  0  0
 11 13  2  0  0  0  0
 12 11  2  0  0  0  0
 14 15  3  0  0  0  0
 16  3  1  0  0  0  0
 17 16  1  0  0  0  0
 18 17  2  0  0  0  0
 19 17  2  0  0  0  0
M  END
