Coordinates from ORCA-job p-NO2-Ph-N2-NO3-B3LYPG-aug-cc-pVDZ-scan-d09-49-n400
 OpenBabel01151817073D

 19 18  0  0  0  0  0  0  0  0999 V2000
   -0.5910    0.0806   -1.2869 C   0  0  0  0  0  0  0  0  0  0  0  0
    0.7948    0.2319   -1.3349 C   0  0  0  0  0  0  0  0  0  0  0  0
    1.3772    1.3230   -0.6795 C   0  0  0  0  0  0  0  0  0  0  0  0
    0.5883    2.2973   -0.0494 C   0  0  0  0  0  0  0  0  0  0  0  0
   -0.7931    2.1526   -0.0180 C   0  0  0  0  0  0  0  0  0  0  0  0
   -1.3661    1.0327   -0.6258 C   0  0  0  0  0  0  0  0  0  0  0  0
   -1.0758   -0.7621   -1.7732 H   0  0  0  0  0  0  0  0  0  0  0  0
    1.3977   -0.4950   -1.8667 H   0  0  0  0  0  0  0  0  0  0  0  0
    1.0747    3.1529    0.4151 H   0  0  0  0  0  0  0  0  0  0  0  0
   -1.4276    2.8876    0.4705 H   0  0  0  0  0  0  0  0  0  0  0  0
   -2.8296    0.8661   -0.5873 N   0  0  0  0  0  0  0  0  0  0  0  0
   -3.3060   -0.1274   -1.1307 O   0  0  0  0  0  0  0  0  0  0  0  0
   -3.4871    1.7342   -0.0180 O   0  0  0  0  0  0  0  0  0  0  0  0
    1.8714    0.2658    1.5472 N   0  0  0  0  0  0  0  0  0  0  0  0
    1.2707   -0.2728    2.3021 N   0  0  0  0  0  0  0  0  0  0  0  0
    2.7150    1.6900   -0.7624 O   0  0  0  0  0  0  0  0  0  0  0  0
    3.7713    0.6700   -0.7784 N   0  0  0  0  0  0  0  0  0  0  0  0
    4.8491    1.1898   -0.7911 O   0  0  0  0  0  0  0  0  0  0  0  0
    3.4516   -0.4888   -0.7916 O   0  0  0  0  0  0  0  0  0  0  0  0
  1  6  1  0  0  0  0
  2  1  2  0  0  0  0
  2  3  1  0  0  0  0
  3  4  2  0  0  0  0
  4  5  1  0  0  0  0
  4  9  1  0  0  0  0
  5 10  1  0  0  0  0
  6 11  1  0  0  0  0
  6  5  2  0  0  0  0
  7  1  1  0  0  0  0
  8  2  1  0  0  0  0
 11 13  2  0  0  0  0
 12 11  2  0  0  0  0
 14 15  3  0  0  0  0
 16  3  1  0  0  0  0
 17 16  1  0  0  0  0
 18 17  2  0  0  0  0
 19 17  2  0  0  0  0
M  END
