Coordinates from ORCA-job p-NO2-Ph-N2-NO3-B3LYPG-aug-cc-pVDZ-scan-d09-49-n400
 OpenBabel01151817083D

 19 18  0  0  0  0  0  0  0  0999 V2000
   -0.7327    0.2989   -1.8636 C   0  0  0  0  0  0  0  0  0  0  0  0
    0.6471    0.4669   -1.9576 C   0  0  0  0  0  0  0  0  0  0  0  0
    1.2953    1.3079   -1.0487 C   0  0  0  0  0  0  0  0  0  0  0  0
    0.5961    1.9893   -0.0497 C   0  0  0  0  0  0  0  0  0  0  0  0
   -0.7859    1.8313    0.0436 C   0  0  0  0  0  0  0  0  0  0  0  0
   -1.4254    0.9849   -0.8635 C   0  0  0  0  0  0  0  0  0  0  0  0
   -1.2753   -0.3451   -2.5506 H   0  0  0  0  0  0  0  0  0  0  0  0
    1.2199   -0.0440   -2.7295 H   0  0  0  0  0  0  0  0  0  0  0  0
    1.1359    2.6406    0.6349 H   0  0  0  0  0  0  0  0  0  0  0  0
   -1.3682    2.3480    0.8020 H   0  0  0  0  0  0  0  0  0  0  0  0
   -2.8901    0.8118   -0.7651 N   0  0  0  0  0  0  0  0  0  0  0  0
   -3.4305    0.0628   -1.5741 O   0  0  0  0  0  0  0  0  0  0  0  0
   -3.4779    1.4270    0.1201 O   0  0  0  0  0  0  0  0  0  0  0  0
    2.5515    0.8477    2.9306 N   0  0  0  0  0  0  0  0  0  0  0  0
    2.3363    0.4572    3.9407 N   0  0  0  0  0  0  0  0  0  0  0  0
    2.6558    1.5637   -1.1850 O   0  0  0  0  0  0  0  0  0  0  0  0
    3.5402    0.4878   -0.6585 N   0  0  0  0  0  0  0  0  0  0  0  0
    4.6937    0.7734   -0.7863 O   0  0  0  0  0  0  0  0  0  0  0  0
    2.9997   -0.4816   -0.1988 O   0  0  0  0  0  0  0  0  0  0  0  0
  1  6  1  0  0  0  0
  2  1  2  0  0  0  0
  2  3  1  0  0  0  0
  3  4  2  0  0  0  0
  4  5  1  0  0  0  0
  4  9  1  0  0  0  0
  5 10  1  0  0  0  0
  6 11  1  0  0  0  0
  6  5  2  0  0  0  0
  7  1  1  0  0  0  0
  8  2  1  0  0  0  0
 11 13  2  0  0  0  0
 12 11  2  0  0  0  0
 14 15  3  0  0  0  0
 16  3  1  0  0  0  0
 16 17  1  0  0  0  0
 17 19  2  0  0  0  0
 18 17  2  0  0  0  0
M  END
