Coordinates from ORCA-job p-NO2-Ph-N2-NO3-B3LYPG-aug-cc-pVDZ-scan-d09-49-n400
 OpenBabel01151817073D

 19 19  0  0  1  0  0  0  0  0999 V2000
   -0.1714    0.0832   -1.1152 C   0  0  0  0  0  0  0  0  0  0  0  0
    1.0846   -0.1923   -0.3523 C   0  0  2  0  0  0  0  0  0  0  0  0
    1.1892    0.6481    0.9033 C   0  0  0  0  0  0  0  0  0  0  0  0
    0.3045    1.7731    1.1398 C   0  0  0  0  0  0  0  0  0  0  0  0
   -0.7547    2.0052    0.3271 C   0  0  0  0  0  0  0  0  0  0  0  0
   -0.9835    1.1056   -0.7791 C   0  0  0  0  0  0  0  0  0  0  0  0
   -0.4159   -0.5663   -1.9520 H   0  0  0  0  0  0  0  0  0  0  0  0
    1.1587   -1.2628   -0.1122 H   0  0  0  0  0  0  0  0  0  0  0  0
    0.5113    2.4160    1.9946 H   0  0  0  0  0  0  0  0  0  0  0  0
   -1.4333    2.8360    0.4891 H   0  0  0  0  0  0  0  0  0  0  0  0
   -2.2102    1.3154   -1.5959 N   0  0  0  0  0  0  0  0  0  0  0  0
   -2.4328    0.5384   -2.5176 O   0  0  0  0  0  0  0  0  0  0  0  0
   -2.9250    2.2648   -1.2902 O   0  0  0  0  0  0  0  0  0  0  0  0
    2.0481    0.3412    1.7297 N   0  0  0  0  0  0  0  0  0  0  0  0
    2.8535    0.0403    2.4846 N   0  0  0  0  0  0  0  0  0  0  0  0
    1.9505    2.0726   -1.5264 O   0  0  0  0  0  0  0  0  0  0  0  0
    2.6295    1.1141   -1.8169 N   0  0  0  0  0  0  0  0  0  0  0  0
    3.5823    1.0355   -2.5467 O   0  0  0  0  0  0  0  0  0  0  0  0
    2.2999   -0.1395   -1.2232 O   0  0  0  0  0  0  0  0  0  0  0  0
  1  6  2  0  0  0  0
  1  2  1  0  0  0  0
  2  8  1  1  0  0  0
  2  3  1  0  0  0  0
  3  4  2  0  0  0  0
  3 14  1  0  0  0  0
  4  9  1  0  0  0  0
  5 10  1  0  0  0  0
  5  4  1  0  0  0  0
  6  5  1  0  0  0  0
  7  1  1  0  0  0  0
 11 13  2  0  0  0  0
 11  6  1  0  0  0  0
 12 11  2  0  0  0  0
 14 15  1  0  0  0  0
 17 16  2  0  0  0  0
 17 19  1  0  0  0  0
 18 17  2  0  0  0  0
 19  2  1  0  0  0  0
M  RAD  3   5   2  14   2  15   3
M  END
