Coordinates from ORCA-job p-NO2-Ph-N2-NO3-B3LYPG-aug-cc-pVDZ-scan-d09-49-n400
 OpenBabel01151817073D

 19 19  0  0  1  0  0  0  0  0999 V2000
   -0.2075    0.0493   -1.0862 C   0  0  0  0  0  0  0  0  0  0  0  0
    1.0616   -0.2096   -0.3527 C   0  0  2  0  0  0  0  0  0  0  0  0
    1.0751    0.6436    0.8300 C   0  0  2  0  0  0  0  0  0  0  0  0
    0.2880    1.7699    1.1303 C   0  0  0  0  0  0  0  0  0  0  0  0
   -0.7588    2.0397    0.2860 C   0  0  0  0  0  0  0  0  0  0  0  0
   -0.9901    1.1217   -0.7881 C   0  0  0  0  0  0  0  0  0  0  0  0
   -0.4959   -0.6371   -1.8774 H   0  0  0  0  0  0  0  0  0  0  0  0
    1.2214   -1.2762   -0.1564 H   0  0  0  0  0  0  0  0  0  0  0  0
    0.5072    2.3942    1.9937 H   0  0  0  0  0  0  0  0  0  0  0  0
   -1.4080    2.8966    0.4256 H   0  0  0  0  0  0  0  0  0  0  0  0
   -2.2126    1.3282   -1.6135 N   0  0  0  0  0  0  0  0  0  0  0  0
   -2.4563    0.5181   -2.5012 O   0  0  0  0  0  0  0  0  0  0  0  0
   -2.9047    2.3070   -1.3514 O   0  0  0  0  0  0  0  0  0  0  0  0
    2.1671    0.2489    1.9188 N   0  0  0  0  0  0  0  0  0  0  0  0
    2.9583   -0.0331    2.6599 N   0  0  0  0  0  0  0  0  0  0  0  0
    1.9075    2.0939   -1.5774 O   0  0  0  0  0  0  0  0  0  0  0  0
    2.6192    1.1493   -1.8522 N   0  0  0  0  0  0  0  0  0  0  0  0
    3.5902    1.1180   -2.5706 O   0  0  0  0  0  0  0  0  0  0  0  0
    2.3239   -0.0939   -1.2765 O   0  0  0  0  0  0  0  0  0  0  0  0
  1  6  2  0  0  0  0
  1  2  1  0  0  0  0
  2  8  1  1  0  0  0
  2  3  1  0  0  0  0
  3  4  1  0  0  0  0
  3 14  1  6  0  0  0
  4  9  1  0  0  0  0
  5 10  1  0  0  0  0
  5  4  2  0  0  0  0
  6  5  1  0  0  0  0
  7  1  1  0  0  0  0
 11 13  2  0  0  0  0
 11  6  1  0  0  0  0
 12 11  2  0  0  0  0
 14 15  1  0  0  0  0
 17 16  2  0  0  0  0
 17 19  1  0  0  0  0
 18 17  2  0  0  0  0
 19  2  1  0  0  0  0
M  RAD  3   3   2  14   2  15   3
M  END
