Coordinates from ORCA-job p-NO2-Ph-N2-NO3-B3LYPG-aug-cc-pVDZ-scan-d09-49-n400
 OpenBabel01151817083D

 19 18  0  0  0  0  0  0  0  0999 V2000
   -0.7589    0.3323   -1.9283 C   0  0  0  0  0  0  0  0  0  0  0  0
    0.6229    0.4902   -2.0157 C   0  0  0  0  0  0  0  0  0  0  0  0
    1.2789    1.2849   -1.0724 C   0  0  0  0  0  0  0  0  0  0  0  0
    0.5880    1.9293   -0.0425 C   0  0  0  0  0  0  0  0  0  0  0  0
   -0.7950    1.7784    0.0460 C   0  0  0  0  0  0  0  0  0  0  0  0
   -1.4434    0.9796   -0.8976 C   0  0  0  0  0  0  0  0  0  0  0  0
   -1.3085   -0.2756   -2.6421 H   0  0  0  0  0  0  0  0  0  0  0  0
    1.1918    0.0084   -2.8090 H   0  0  0  0  0  0  0  0  0  0  0  0
    1.1337    2.5445    0.6702 H   0  0  0  0  0  0  0  0  0  0  0  0
   -1.3721    2.2659    0.8274 H   0  0  0  0  0  0  0  0  0  0  0  0
   -2.9098    0.8161   -0.8047 N   0  0  0  0  0  0  0  0  0  0  0  0
   -3.4585    0.1110   -1.6468 O   0  0  0  0  0  0  0  0  0  0  0  0
   -3.4908    1.3975    0.1075 O   0  0  0  0  0  0  0  0  0  0  0  0
    2.6817    0.9562    3.0518 N   0  0  0  0  0  0  0  0  0  0  0  0
    2.5532    0.5579    4.0736 N   0  0  0  0  0  0  0  0  0  0  0  0
    2.6430    1.5264   -1.2031 O   0  0  0  0  0  0  0  0  0  0  0  0
    3.5096    0.4665   -0.6152 N   0  0  0  0  0  0  0  0  0  0  0  0
    4.6678    0.7333   -0.7405 O   0  0  0  0  0  0  0  0  0  0  0  0
    2.9517   -0.4742   -0.1180 O   0  0  0  0  0  0  0  0  0  0  0  0
  1  6  1  0  0  0  0
  2  1  2  0  0  0  0
  2  3  1  0  0  0  0
  3  4  2  0  0  0  0
  4  5  1  0  0  0  0
  4  9  1  0  0  0  0
  5 10  1  0  0  0  0
  6 11  1  0  0  0  0
  6  5  2  0  0  0  0
  7  1  1  0  0  0  0
  8  2  1  0  0  0  0
 11 13  2  0  0  0  0
 12 11  2  0  0  0  0
 14 15  3  0  0  0  0
 16  3  1  0  0  0  0
 16 17  1  0  0  0  0
 17 19  2  0  0  0  0
 18 17  2  0  0  0  0
M  END
