Coordinates from ORCA-job p-NO2-Ph-N2-NO3-B3LYPG-aug-cc-pVDZ-scan-d09-49-n400
 OpenBabel01151817083D

 19 18  0  0  0  0  0  0  0  0999 V2000
   -0.6965    0.2525   -1.7675 C   0  0  0  0  0  0  0  0  0  0  0  0
    0.6807    0.4313   -1.8733 C   0  0  0  0  0  0  0  0  0  0  0  0
    1.3189    1.3343   -1.0176 C   0  0  0  0  0  0  0  0  0  0  0  0
    0.6098    2.0688   -0.0640 C   0  0  0  0  0  0  0  0  0  0  0  0
   -0.7707    1.9026    0.0372 C   0  0  0  0  0  0  0  0  0  0  0  0
   -1.3993    0.9922   -0.8136 C   0  0  0  0  0  0  0  0  0  0  0  0
   -1.2305   -0.4399   -2.4130 H   0  0  0  0  0  0  0  0  0  0  0  0
    1.2574   -0.1205   -2.6132 H   0  0  0  0  0  0  0  0  0  0  0  0
    1.1413    2.7689    0.5775 H   0  0  0  0  0  0  0  0  0  0  0  0
   -1.3595    2.4606    0.7605 H   0  0  0  0  0  0  0  0  0  0  0  0
   -2.8615    0.8085   -0.7053 N   0  0  0  0  0  0  0  0  0  0  0  0
   -3.3918    0.0014   -1.4638 O   0  0  0  0  0  0  0  0  0  0  0  0
   -3.4582    1.4734    0.1372 O   0  0  0  0  0  0  0  0  0  0  0  0
    2.3452    0.6819    2.7486 N   0  0  0  0  0  0  0  0  0  0  0  0
    2.0304    0.3134    3.7406 N   0  0  0  0  0  0  0  0  0  0  0  0
    2.6735    1.6115   -1.1635 O   0  0  0  0  0  0  0  0  0  0  0  0
    3.5874    0.5252   -0.7152 N   0  0  0  0  0  0  0  0  0  0  0  0
    4.7320    0.8435   -0.8466 O   0  0  0  0  0  0  0  0  0  0  0  0
    3.0770   -0.4812   -0.3042 O   0  0  0  0  0  0  0  0  0  0  0  0
  1  6  1  0  0  0  0
  2  1  2  0  0  0  0
  2  3  1  0  0  0  0
  3  4  2  0  0  0  0
  4  5  1  0  0  0  0
  4  9  1  0  0  0  0
  5 10  1  0  0  0  0
  6 11  1  0  0  0  0
  6  5  2  0  0  0  0
  7  1  1  0  0  0  0
  8  2  1  0  0  0  0
 11 13  2  0  0  0  0
 12 11  2  0  0  0  0
 14 15  3  0  0  0  0
 16  3  1  0  0  0  0
 16 17  1  0  0  0  0
 17 19  2  0  0  0  0
 18 17  2  0  0  0  0
M  END
