Coordinates from ORCA-job p-NO2-Ph-N2-NO3-B3LYPG-aug-cc-pVDZ-scan-d09-49-n400
 OpenBabel01151817073D

 19 18  0  0  0  0  0  0  0  0999 V2000
   -0.5814    0.0610   -1.2333 C   0  0  0  0  0  0  0  0  0  0  0  0
    0.8038    0.1965   -1.2519 C   0  0  0  0  0  0  0  0  0  0  0  0
    1.3939    1.2577   -0.5410 C   0  0  0  0  0  0  0  0  0  0  0  0
    0.5917    2.2843   -0.0031 C   0  0  0  0  0  0  0  0  0  0  0  0
   -0.7887    2.1534    0.0010 C   0  0  0  0  0  0  0  0  0  0  0  0
   -1.3613    1.0218   -0.5877 C   0  0  0  0  0  0  0  0  0  0  0  0
   -1.0657   -0.7717   -1.7371 H   0  0  0  0  0  0  0  0  0  0  0  0
    1.4114   -0.5345   -1.7724 H   0  0  0  0  0  0  0  0  0  0  0  0
    1.0754    3.1517    0.4421 H   0  0  0  0  0  0  0  0  0  0  0  0
   -1.4265    2.9135    0.4447 H   0  0  0  0  0  0  0  0  0  0  0  0
   -2.8250    0.8708   -0.5774 N   0  0  0  0  0  0  0  0  0  0  0  0
   -3.3004   -0.1266   -1.1155 O   0  0  0  0  0  0  0  0  0  0  0  0
   -3.4852    1.7517   -0.0305 O   0  0  0  0  0  0  0  0  0  0  0  0
    1.7995    0.3191    1.2738 N   0  0  0  0  0  0  0  0  0  0  0  0
    1.1635   -0.2025    2.0165 N   0  0  0  0  0  0  0  0  0  0  0  0
    2.7200    1.6660   -0.6855 O   0  0  0  0  0  0  0  0  0  0  0  0
    3.7955    0.6798   -0.7739 N   0  0  0  0  0  0  0  0  0  0  0  0
    4.8609    1.2241   -0.8120 O   0  0  0  0  0  0  0  0  0  0  0  0
    3.5040   -0.4876   -0.8160 O   0  0  0  0  0  0  0  0  0  0  0  0
  1  6  1  0  0  0  0
  2  1  2  0  0  0  0
  2  3  1  0  0  0  0
  3  4  2  0  0  0  0
  4  5  1  0  0  0  0
  4  9  1  0  0  0  0
  5 10  1  0  0  0  0
  6 11  1  0  0  0  0
  6  5  2  0  0  0  0
  7  1  1  0  0  0  0
  8  2  1  0  0  0  0
 11 13  2  0  0  0  0
 12 11  2  0  0  0  0
 14 15  3  0  0  0  0
 16  3  1  0  0  0  0
 17 16  1  0  0  0  0
 18 17  2  0  0  0  0
 19 17  2  0  0  0  0
M  END
