Coordinates from ORCA-job p-NO2-Ph-N2-NO3-B3LYPG-aug-cc-pVDZ-scan-d09-49-n400
 OpenBabel01151817073D

 19 18  0  0  0  0  0  0  0  0999 V2000
   -0.5795    0.0588   -1.2270 C   0  0  0  0  0  0  0  0  0  0  0  0
    0.8046    0.1898   -1.2362 C   0  0  0  0  0  0  0  0  0  0  0  0
    1.3982    1.2360   -0.4981 C   0  0  0  0  0  0  0  0  0  0  0  0
    0.5917    2.2798    0.0098 C   0  0  0  0  0  0  0  0  0  0  0  0
   -0.7878    2.1524    0.0056 C   0  0  0  0  0  0  0  0  0  0  0  0
   -1.3610    1.0186   -0.5801 C   0  0  0  0  0  0  0  0  0  0  0  0
   -1.0637   -0.7675   -1.7415 H   0  0  0  0  0  0  0  0  0  0  0  0
    1.4148   -0.5398   -1.7560 H   0  0  0  0  0  0  0  0  0  0  0  0
    1.0753    3.1497    0.4501 H   0  0  0  0  0  0  0  0  0  0  0  0
   -1.4265    2.9192    0.4362 H   0  0  0  0  0  0  0  0  0  0  0  0
   -2.8240    0.8717   -0.5775 N   0  0  0  0  0  0  0  0  0  0  0  0
   -3.2995   -0.1248   -1.1177 O   0  0  0  0  0  0  0  0  0  0  0  0
   -3.4849    1.7534   -0.0323 O   0  0  0  0  0  0  0  0  0  0  0  0
    1.7861    0.3308    1.2228 N   0  0  0  0  0  0  0  0  0  0  0  0
    1.1491   -0.1855    1.9710 N   0  0  0  0  0  0  0  0  0  0  0  0
    2.7198    1.6603   -0.6719 O   0  0  0  0  0  0  0  0  0  0  0  0
    3.7988    0.6822   -0.7746 N   0  0  0  0  0  0  0  0  0  0  0  0
    4.8605    1.2314   -0.8390 O   0  0  0  0  0  0  0  0  0  0  0  0
    3.5134   -0.4879   -0.8030 O   0  0  0  0  0  0  0  0  0  0  0  0
  1  6  1  0  0  0  0
  2  1  2  0  0  0  0
  2  3  1  0  0  0  0
  3  4  2  0  0  0  0
  4  9  1  0  0  0  0
  5  4  1  0  0  0  0
  5 10  1  0  0  0  0
  6 11  1  0  0  0  0
  6  5  2  0  0  0  0
  7  1  1  0  0  0  0
  8  2  1  0  0  0  0
 11 13  2  0  0  0  0
 12 11  2  0  0  0  0
 14 15  3  0  0  0  0
 16  3  1  0  0  0  0
 17 16  1  0  0  0  0
 18 17  2  0  0  0  0
 19 17  2  0  0  0  0
M  END
