Coordinates from ORCA-job p-NO2-Ph-N2-NO3-B3LYPG-aug-cc-pVDZ-scan-d09-49-n400
 OpenBabel01151817083D

 19 18  0  0  0  0  0  0  0  0999 V2000
   -0.7839    0.3619   -1.9861 C   0  0  0  0  0  0  0  0  0  0  0  0
    0.5996    0.5093   -2.0695 C   0  0  0  0  0  0  0  0  0  0  0  0
    1.2639    1.2632   -1.0996 C   0  0  0  0  0  0  0  0  0  0  0  0
    0.5810    1.8752   -0.0445 C   0  0  0  0  0  0  0  0  0  0  0  0
   -0.8026    1.7317    0.0423 C   0  0  0  0  0  0  0  0  0  0  0  0
   -1.4602    0.9754   -0.9300 C   0  0  0  0  0  0  0  0  0  0  0  0
   -1.3404   -0.2138   -2.7211 H   0  0  0  0  0  0  0  0  0  0  0  0
    1.1638    0.0525   -2.8808 H   0  0  0  0  0  0  0  0  0  0  0  0
    1.1329    2.4583    0.6902 H   0  0  0  0  0  0  0  0  0  0  0  0
   -1.3741    2.1937    0.8431 H   0  0  0  0  0  0  0  0  0  0  0  0
   -2.9279    0.8218   -0.8398 N   0  0  0  0  0  0  0  0  0  0  0  0
   -3.4848    0.1547   -1.7072 O   0  0  0  0  0  0  0  0  0  0  0  0
   -3.5015    1.3722    0.0959 O   0  0  0  0  0  0  0  0  0  0  0  0
    2.7956    1.0432    3.1996 N   0  0  0  0  0  0  0  0  0  0  0  0
    2.7509    0.6416    4.2272 N   0  0  0  0  0  0  0  0  0  0  0  0
    2.6306    1.4912   -1.2296 O   0  0  0  0  0  0  0  0  0  0  0  0
    3.4839    0.4523   -0.5858 N   0  0  0  0  0  0  0  0  0  0  0  0
    4.6453    0.7041   -0.7120 O   0  0  0  0  0  0  0  0  0  0  0  0
    2.9134   -0.4601   -0.0516 O   0  0  0  0  0  0  0  0  0  0  0  0
  1  6  1  0  0  0  0
  2  1  2  0  0  0  0
  2  3  1  0  0  0  0
  3  4  2  0  0  0  0
  4  5  1  0  0  0  0
  4  9  1  0  0  0  0
  5 10  1  0  0  0  0
  6 11  1  0  0  0  0
  6  5  2  0  0  0  0
  7  1  1  0  0  0  0
  8  2  1  0  0  0  0
 11 13  2  0  0  0  0
 12 11  2  0  0  0  0
 14 15  3  0  0  0  0
 16  3  1  0  0  0  0
 16 17  1  0  0  0  0
 17 19  2  0  0  0  0
 18 17  2  0  0  0  0
M  END
