Coordinates from ORCA-job p-NO2-Ph-N2-NO3-B3LYPG-aug-cc-pVDZ-scan-d09-49-n400
 OpenBabel01151817073D

 19 18  0  0  0  0  0  0  0  0999 V2000
   -0.6029    0.1043   -1.3649 C   0  0  0  0  0  0  0  0  0  0  0  0
    0.7804    0.2681   -1.4341 C   0  0  0  0  0  0  0  0  0  0  0  0
    1.3667    1.3485   -0.7655 C   0  0  0  0  0  0  0  0  0  0  0  0
    0.5896    2.2850   -0.0702 C   0  0  0  0  0  0  0  0  0  0  0  0
   -0.7916    2.1309   -0.0190 C   0  0  0  0  0  0  0  0  0  0  0  0
   -1.3690    1.0320   -0.6589 C   0  0  0  0  0  0  0  0  0  0  0  0
   -1.0928   -0.7266   -1.8660 H   0  0  0  0  0  0  0  0  0  0  0  0
    1.3807   -0.4364   -1.9999 H   0  0  0  0  0  0  0  0  0  0  0  0
    1.0804    3.1248    0.4180 H   0  0  0  0  0  0  0  0  0  0  0  0
   -1.4211    2.8407    0.5114 H   0  0  0  0  0  0  0  0  0  0  0  0
   -2.8316    0.8555   -0.5986 N   0  0  0  0  0  0  0  0  0  0  0  0
   -3.3125   -0.1227   -1.1650 O   0  0  0  0  0  0  0  0  0  0  0  0
   -3.4823    1.6981    0.0146 O   0  0  0  0  0  0  0  0  0  0  0  0
    1.9447    0.2930    1.8013 N   0  0  0  0  0  0  0  0  0  0  0  0
    1.3827   -0.2557    2.5775 N   0  0  0  0  0  0  0  0  0  0  0  0
    2.7083    1.6985   -0.8608 O   0  0  0  0  0  0  0  0  0  0  0  0
    3.7402    0.6495   -0.7737 N   0  0  0  0  0  0  0  0  0  0  0  0
    4.8323    1.1361   -0.8112 O   0  0  0  0  0  0  0  0  0  0  0  0
    3.3834   -0.4950   -0.6941 O   0  0  0  0  0  0  0  0  0  0  0  0
  1  6  1  0  0  0  0
  2  1  2  0  0  0  0
  2  3  1  0  0  0  0
  3  4  2  0  0  0  0
  4  5  1  0  0  0  0
  4  9  1  0  0  0  0
  5 10  1  0  0  0  0
  6 11  1  0  0  0  0
  6  5  2  0  0  0  0
  7  1  1  0  0  0  0
  8  2  1  0  0  0  0
 11 13  2  0  0  0  0
 12 11  2  0  0  0  0
 14 15  3  0  0  0  0
 16 17  1  0  0  0  0
 16  3  1  0  0  0  0
 17 19  2  0  0  0  0
 18 17  2  0  0  0  0
M  END
