Coordinates from ORCA-job p-NO2-Ph-N2-NO3-B3LYPG-aug-cc-pVDZ-scan-d09-49-n400
 OpenBabel01151817083D

 19 18  0  0  0  0  0  0  0  0999 V2000
   -0.7297    0.2952   -1.8561 C   0  0  0  0  0  0  0  0  0  0  0  0
    0.6498    0.4642   -1.9511 C   0  0  0  0  0  0  0  0  0  0  0  0
    1.2972    1.3102   -1.0463 C   0  0  0  0  0  0  0  0  0  0  0  0
    0.5973    1.9957   -0.0507 C   0  0  0  0  0  0  0  0  0  0  0  0
   -0.7846    1.8370    0.0433 C   0  0  0  0  0  0  0  0  0  0  0  0
   -1.4232    0.9854   -0.8595 C   0  0  0  0  0  0  0  0  0  0  0  0
   -1.2717   -0.3528   -2.5399 H   0  0  0  0  0  0  0  0  0  0  0  0
    1.2229   -0.0500   -2.7206 H   0  0  0  0  0  0  0  0  0  0  0  0
    1.1365    2.6510    0.6306 H   0  0  0  0  0  0  0  0  0  0  0  0
   -1.3673    2.3569    0.7992 H   0  0  0  0  0  0  0  0  0  0  0  0
   -2.8877    0.8114   -0.7603 N   0  0  0  0  0  0  0  0  0  0  0  0
   -3.4274    0.0576   -1.5654 O   0  0  0  0  0  0  0  0  0  0  0  0
   -3.4762    1.4305    0.1219 O   0  0  0  0  0  0  0  0  0  0  0  0
    2.5350    0.8350    2.9160 N   0  0  0  0  0  0  0  0  0  0  0  0
    2.3111    0.4460    3.9247 N   0  0  0  0  0  0  0  0  0  0  0  0
    2.6573    1.5677   -1.1834 O   0  0  0  0  0  0  0  0  0  0  0  0
    3.5439    0.4906   -0.6631 N   0  0  0  0  0  0  0  0  0  0  0  0
    4.6968    0.7785   -0.7912 O   0  0  0  0  0  0  0  0  0  0  0  0
    3.0056   -0.4818   -0.2073 O   0  0  0  0  0  0  0  0  0  0  0  0
  1  6  1  0  0  0  0
  2  1  2  0  0  0  0
  2  3  1  0  0  0  0
  3  4  2  0  0  0  0
  4  5  1  0  0  0  0
  4  9  1  0  0  0  0
  5 10  1  0  0  0  0
  6 11  1  0  0  0  0
  6  5  2  0  0  0  0
  7  1  1  0  0  0  0
  8  2  1  0  0  0  0
 11 13  2  0  0  0  0
 12 11  2  0  0  0  0
 14 15  3  0  0  0  0
 16  3  1  0  0  0  0
 16 17  1  0  0  0  0
 17 19  2  0  0  0  0
 18 17  2  0  0  0  0
M  END
