Coordinates from ORCA-job p-NO2-Ph-N2-NO3-B3LYPG-aug-cc-pVDZ-scan-d09-49-n400
 OpenBabel01151817073D

 19 19  0  0  1  0  0  0  0  0999 V2000
   -0.5781    0.0570   -1.2228 C   0  0  0  0  0  0  0  0  0  0  0  0
    0.8048    0.1830   -1.2232 C   0  0  0  0  0  0  0  0  0  0  0  0
    1.4020    1.2146   -0.4585 C   0  0  1  0  0  0  0  0  0  0  0  0
    0.5918    2.2748    0.0219 C   0  0  0  0  0  0  0  0  0  0  0  0
   -0.7866    2.1509    0.0098 C   0  0  0  0  0  0  0  0  0  0  0  0
   -1.3609    1.0152   -0.5729 C   0  0  1  0  0  0  0  0  0  0  0  0
   -1.0625   -0.7626   -1.7477 H   0  0  0  0  0  0  0  0  0  0  0  0
    1.4168   -0.5446   -1.7438 H   0  0  0  0  0  0  0  0  0  0  0  0
    1.0761    3.1460    0.4588 H   0  0  0  0  0  0  0  0  0  0  0  0
   -1.4255    2.9237    0.4293 H   0  0  0  0  0  0  0  0  0  0  0  0
   -2.8229    0.8725   -0.5771 N   0  0  0  0  0  0  0  0  0  0  0  0
   -3.2991   -0.1211   -1.1227 O   0  0  0  0  0  0  0  0  0  0  0  0
   -3.4842    1.7553   -0.0334 O   0  0  0  0  0  0  0  0  0  0  0  0
    1.7713    0.3432    1.1804 N   0  0  0  0  0  0  0  0  0  0  0  0
    1.1352   -0.1733    1.9325 N   0  0  0  0  0  0  0  0  0  0  0  0
    2.7199    1.6552   -0.6616 O   0  0  0  0  0  0  0  0  0  0  0  0
    3.8027    0.6857   -0.7758 N   0  0  0  0  0  0  0  0  0  0  0  0
    4.8589    1.2402   -0.8762 O   0  0  0  0  0  0  0  0  0  0  0  0
    3.5257   -0.4875   -0.7762 O   0  0  0  0  0  0  0  0  0  0  0  0
  1  6  1  0  0  0  0
  2  1  2  0  0  0  0
  2  3  1  0  0  0  0
  3 16  1  6  0  0  0
  3  4  1  0  0  0  0
  3 14  1  0  0  0  0
  4  9  1  0  0  0  0
  5  4  2  0  0  0  0
  5 10  1  0  0  0  0
  6 11  1  6  0  0  0
  6  5  1  0  0  0  0
  7  1  1  0  0  0  0
  8  2  1  0  0  0  0
 11 13  2  0  0  0  0
 12 11  2  0  0  0  0
 14 15  2  0  0  0  0
 17 16  1  0  0  0  0
 18 17  2  0  0  0  0
 19 17  2  0  0  0  0
M  RAD  2   6   2  15   2
M  END
