Coordinates from ORCA-job p-NO2-Ph-N2-NO3-B3LYPG-aug-cc-pVDZ-scan-d09-49-n400
 OpenBabel01151817073D

 19 18  0  0  0  0  0  0  0  0999 V2000
   -0.5882    0.0747   -1.2687 C   0  0  0  0  0  0  0  0  0  0  0  0
    0.7978    0.2225   -1.3103 C   0  0  0  0  0  0  0  0  0  0  0  0
    1.3808    1.3116   -0.6504 C   0  0  0  0  0  0  0  0  0  0  0  0
    0.5888    2.2971   -0.0401 C   0  0  0  0  0  0  0  0  0  0  0  0
   -0.7927    2.1551   -0.0147 C   0  0  0  0  0  0  0  0  0  0  0  0
   -1.3650    1.0310   -0.6156 C   0  0  0  0  0  0  0  0  0  0  0  0
   -1.0723   -0.7686   -1.7548 H   0  0  0  0  0  0  0  0  0  0  0  0
    1.4017   -0.5079   -1.8358 H   0  0  0  0  0  0  0  0  0  0  0  0
    1.0728    3.1577    0.4174 H   0  0  0  0  0  0  0  0  0  0  0  0
   -1.4282    2.8966    0.4624 H   0  0  0  0  0  0  0  0  0  0  0  0
   -2.8287    0.8675   -0.5834 N   0  0  0  0  0  0  0  0  0  0  0  0
   -3.3046   -0.1270   -1.1256 O   0  0  0  0  0  0  0  0  0  0  0  0
   -3.4875    1.7418   -0.0251 O   0  0  0  0  0  0  0  0  0  0  0  0
    1.8529    0.2694    1.4750 N   0  0  0  0  0  0  0  0  0  0  0  0
    1.2421   -0.2652    2.2252 N   0  0  0  0  0  0  0  0  0  0  0  0
    2.7167    1.6853   -0.7383 O   0  0  0  0  0  0  0  0  0  0  0  0
    3.7788    0.6736   -0.7780 N   0  0  0  0  0  0  0  0  0  0  0  0
    4.8531    1.2007   -0.7893 O   0  0  0  0  0  0  0  0  0  0  0  0
    3.4672   -0.4874   -0.8090 O   0  0  0  0  0  0  0  0  0  0  0  0
  1  6  1  0  0  0  0
  2  1  2  0  0  0  0
  2  3  1  0  0  0  0
  3  4  2  0  0  0  0
  4  5  1  0  0  0  0
  4  9  1  0  0  0  0
  5 10  1  0  0  0  0
  6 11  1  0  0  0  0
  6  5  2  0  0  0  0
  7  1  1  0  0  0  0
  8  2  1  0  0  0  0
 11 13  2  0  0  0  0
 12 11  2  0  0  0  0
 14 15  3  0  0  0  0
 16  3  1  0  0  0  0
 17 16  1  0  0  0  0
 18 17  2  0  0  0  0
 19 17  2  0  0  0  0
M  END
