Coordinates from ORCA-job p-NO2-Ph-N2-NO3-B3LYPG-aug-cc-pVDZ-scan-d09-49-n400
 OpenBabel01151817073D

 19 19  0  0  1  0  0  0  0  0999 V2000
   -0.1669    0.0910   -1.1207 C   0  0  0  0  0  0  0  0  0  0  0  0
    1.0857   -0.1900   -0.3536 C   0  0  2  0  0  0  0  0  0  0  0  0
    1.2093    0.6507    0.9156 C   0  0  0  0  0  0  0  0  0  0  0  0
    0.3019    1.7724    1.1444 C   0  0  0  0  0  0  0  0  0  0  0  0
   -0.7613    1.9946    0.3385 C   0  0  0  0  0  0  0  0  0  0  0  0
   -0.9874    1.1012   -0.7753 C   0  0  0  0  0  0  0  0  0  0  0  0
   -0.4023   -0.5505   -1.9666 H   0  0  0  0  0  0  0  0  0  0  0  0
    1.1415   -1.2593   -0.1004 H   0  0  0  0  0  0  0  0  0  0  0  0
    0.5087    2.4177    1.9976 H   0  0  0  0  0  0  0  0  0  0  0  0
   -1.4460    2.8194    0.5064 H   0  0  0  0  0  0  0  0  0  0  0  0
   -2.2146    1.3113   -1.5905 N   0  0  0  0  0  0  0  0  0  0  0  0
   -2.4242    0.5502   -2.5283 O   0  0  0  0  0  0  0  0  0  0  0  0
   -2.9301    2.2590   -1.2814 O   0  0  0  0  0  0  0  0  0  0  0  0
    2.0292    0.3659    1.6862 N   0  0  0  0  0  0  0  0  0  0  0  0
    2.8483    0.0667    2.4369 N   0  0  0  0  0  0  0  0  0  0  0  0
    1.9743    2.0666   -1.5048 O   0  0  0  0  0  0  0  0  0  0  0  0
    2.6389    1.1022   -1.8069 N   0  0  0  0  0  0  0  0  0  0  0  0
    3.5842    1.0124   -2.5432 O   0  0  0  0  0  0  0  0  0  0  0  0
    2.2965   -0.1533   -1.2133 O   0  0  0  0  0  0  0  0  0  0  0  0
  1  6  2  0  0  0  0
  1  2  1  0  0  0  0
  2  8  1  1  0  0  0
  2  3  1  0  0  0  0
  3  4  2  0  0  0  0
  3 14  1  0  0  0  0
  4  9  1  0  0  0  0
  5 10  1  0  0  0  0
  5  4  1  0  0  0  0
  6  5  1  0  0  0  0
  7  1  1  0  0  0  0
 11 13  2  0  0  0  0
 11  6  1  0  0  0  0
 12 11  2  0  0  0  0
 14 15  1  0  0  0  0
 17 16  2  0  0  0  0
 17 19  1  0  0  0  0
 18 17  2  0  0  0  0
 19  2  1  0  0  0  0
M  RAD  3   5   2  14   2  15   3
M  END
