Coordinates from ORCA-job p-NO2-Ph-N2-NO3-B3LYPG-aug-cc-pVDZ-scan-d09-49-n400
 OpenBabel01151817073D

 19 19  0  0  1  0  0  0  0  0999 V2000
   -0.1575    0.1062   -1.1299 C   0  0  0  0  0  0  0  0  0  0  0  0
    1.0867   -0.1866   -0.3539 C   0  0  2  0  0  0  0  0  0  0  0  0
    1.2318    0.6555    0.9325 C   0  0  0  0  0  0  0  0  0  0  0  0
    0.2935    1.7682    1.1565 C   0  0  0  0  0  0  0  0  0  0  0  0
   -0.7713    1.9810    0.3551 C   0  0  0  0  0  0  0  0  0  0  0  0
   -0.9888    1.1012   -0.7731 C   0  0  0  0  0  0  0  0  0  0  0  0
   -0.3787   -0.5214   -1.9904 H   0  0  0  0  0  0  0  0  0  0  0  0
    1.1173   -1.2532   -0.0829 H   0  0  0  0  0  0  0  0  0  0  0  0
    0.4974    2.4112    2.0124 H   0  0  0  0  0  0  0  0  0  0  0  0
   -1.4652    2.7967    0.5318 H   0  0  0  0  0  0  0  0  0  0  0  0
   -2.2121    1.3164   -1.5917 N   0  0  0  0  0  0  0  0  0  0  0  0
   -2.4133    0.5664   -2.5401 O   0  0  0  0  0  0  0  0  0  0  0  0
   -2.9410    2.2475   -1.2644 O   0  0  0  0  0  0  0  0  0  0  0  0
    2.0099    0.3984    1.6366 N   0  0  0  0  0  0  0  0  0  0  0  0
    2.8504    0.1052    2.3786 N   0  0  0  0  0  0  0  0  0  0  0  0
    1.9875    2.0494   -1.5065 O   0  0  0  0  0  0  0  0  0  0  0  0
    2.6488    1.0810   -1.8010 N   0  0  0  0  0  0  0  0  0  0  0  0
    3.5941    0.9778   -2.5332 O   0  0  0  0  0  0  0  0  0  0  0  0
    2.2958   -0.1723   -1.1958 O   0  0  0  0  0  0  0  0  0  0  0  0
  1  6  2  0  0  0  0
  1  2  1  0  0  0  0
  2  8  1  1  0  0  0
  2  3  1  0  0  0  0
  3  4  2  0  0  0  0
  3 14  1  0  0  0  0
  4  9  1  0  0  0  0
  5 10  1  0  0  0  0
  5  4  1  0  0  0  0
  6  5  1  0  0  0  0
  7  1  1  0  0  0  0
 11 13  2  0  0  0  0
 11  6  1  0  0  0  0
 12 11  2  0  0  0  0
 14 15  1  0  0  0  0
 17 16  2  0  0  0  0
 17 19  1  0  0  0  0
 18 17  2  0  0  0  0
 19  2  1  0  0  0  0
M  RAD  3   5   2  14   2  15   3
M  END
