Coordinates from ORCA-job p-NO2-Ph-N2-NO3-B3LYPG-aug-cc-pVDZ-scan-d09-49-n400
 OpenBabel01151817073D

 19 19  0  0  1  0  0  0  0  0999 V2000
   -0.1676    0.0861   -1.1154 C   0  0  0  0  0  0  0  0  0  0  0  0
    1.0868   -0.1911   -0.3503 C   0  0  2  0  0  0  0  0  0  0  0  0
    1.1919    0.6481    0.9081 C   0  0  0  0  0  0  0  0  0  0  0  0
    0.3035    1.7717    1.1441 C   0  0  0  0  0  0  0  0  0  0  0  0
   -0.7550    2.0035    0.3309 C   0  0  0  0  0  0  0  0  0  0  0  0
   -0.9814    1.1064   -0.7781 C   0  0  0  0  0  0  0  0  0  0  0  0
   -0.4091   -0.5612   -1.9549 H   0  0  0  0  0  0  0  0  0  0  0  0
    1.1573   -1.2617   -0.1088 H   0  0  0  0  0  0  0  0  0  0  0  0
    0.5087    2.4137    1.9999 H   0  0  0  0  0  0  0  0  0  0  0  0
   -1.4349    2.8330    0.4940 H   0  0  0  0  0  0  0  0  0  0  0  0
   -2.2067    1.3174   -1.5965 N   0  0  0  0  0  0  0  0  0  0  0  0
   -2.4267    0.5428   -2.5209 O   0  0  0  0  0  0  0  0  0  0  0  0
   -2.9235    2.2645   -1.2886 O   0  0  0  0  0  0  0  0  0  0  0  0
    2.0444    0.3437    1.7273 N   0  0  0  0  0  0  0  0  0  0  0  0
    2.8506    0.0422    2.4822 N   0  0  0  0  0  0  0  0  0  0  0  0
    1.9363    2.0663   -1.5464 O   0  0  0  0  0  0  0  0  0  0  0  0
    2.6253    1.1109   -1.8229 N   0  0  0  0  0  0  0  0  0  0  0  0
    3.5838    1.0325   -2.5448 O   0  0  0  0  0  0  0  0  0  0  0  0
    2.3018   -0.1403   -1.2183 O   0  0  0  0  0  0  0  0  0  0  0  0
  1  6  2  0  0  0  0
  1  2  1  0  0  0  0
  2  8  1  1  0  0  0
  2  3  1  0  0  0  0
  3  4  2  0  0  0  0
  3 14  1  0  0  0  0
  4  9  1  0  0  0  0
  5 10  1  0  0  0  0
  5  4  1  0  0  0  0
  6  5  1  0  0  0  0
  7  1  1  0  0  0  0
 11 13  2  0  0  0  0
 11  6  1  0  0  0  0
 12 11  2  0  0  0  0
 14 15  1  0  0  0  0
 17 16  2  0  0  0  0
 17 19  1  0  0  0  0
 18 17  2  0  0  0  0
 19  2  1  0  0  0  0
M  RAD  3   5   2  14   2  15   3
M  END
