Coordinates from ORCA-job p-NO2-Ph-N2-NO3-B3LYPG-aug-cc-pVDZ-scan-d09-49-n400
 OpenBabel01151817073D

 19 18  0  0  0  0  0  0  0  0999 V2000
   -0.6020    0.1028   -1.3593 C   0  0  0  0  0  0  0  0  0  0  0  0
    0.7815    0.2658   -1.4272 C   0  0  0  0  0  0  0  0  0  0  0  0
    1.3672    1.3474   -0.7608 C   0  0  0  0  0  0  0  0  0  0  0  0
    0.5896    2.2864   -0.0695 C   0  0  0  0  0  0  0  0  0  0  0  0
   -0.7917    2.1329   -0.0196 C   0  0  0  0  0  0  0  0  0  0  0  0
   -1.3688    1.0324   -0.6569 C   0  0  0  0  0  0  0  0  0  0  0  0
   -1.0914   -0.7293   -1.8591 H   0  0  0  0  0  0  0  0  0  0  0  0
    1.3820   -0.4405   -1.9904 H   0  0  0  0  0  0  0  0  0  0  0  0
    1.0802    3.1271    0.4170 H   0  0  0  0  0  0  0  0  0  0  0  0
   -1.4215    2.8446    0.5080 H   0  0  0  0  0  0  0  0  0  0  0  0
   -2.8315    0.8566   -0.5980 N   0  0  0  0  0  0  0  0  0  0  0  0
   -3.3119   -0.1238   -1.1612 O   0  0  0  0  0  0  0  0  0  0  0  0
   -3.4826    1.7004    0.0130 O   0  0  0  0  0  0  0  0  0  0  0  0
    1.9392    0.2896    1.7842 N   0  0  0  0  0  0  0  0  0  0  0  0
    1.3743   -0.2588    2.5585 N   0  0  0  0  0  0  0  0  0  0  0  0
    2.7086    1.6983   -0.8542 O   0  0  0  0  0  0  0  0  0  0  0  0
    3.7424    0.6511   -0.7738 N   0  0  0  0  0  0  0  0  0  0  0  0
    4.8334    1.1405   -0.8090 O   0  0  0  0  0  0  0  0  0  0  0  0
    3.3886   -0.4949   -0.7010 O   0  0  0  0  0  0  0  0  0  0  0  0
  1  6  1  0  0  0  0
  2  1  2  0  0  0  0
  2  3  1  0  0  0  0
  3  4  2  0  0  0  0
  4  5  1  0  0  0  0
  4  9  1  0  0  0  0
  5 10  1  0  0  0  0
  6 11  1  0  0  0  0
  6  5  2  0  0  0  0
  7  1  1  0  0  0  0
  8  2  1  0  0  0  0
 11 13  2  0  0  0  0
 12 11  2  0  0  0  0
 14 15  3  0  0  0  0
 16 17  1  0  0  0  0
 16  3  1  0  0  0  0
 17 19  2  0  0  0  0
 18 17  2  0  0  0  0
M  END
