Coordinates from ORCA-job p-NO2-Ph-N2-NO3-B3LYPG-aug-cc-pVDZ-scan-d09-49-n400
 OpenBabel01151817073D

 19 18  0  0  0  0  0  0  0  0999 V2000
   -0.5803    0.0577   -1.2263 C   0  0  0  0  0  0  0  0  0  0  0  0
    0.8043    0.1916   -1.2407 C   0  0  0  0  0  0  0  0  0  0  0  0
    1.3959    1.2464   -0.5177 C   0  0  0  0  0  0  0  0  0  0  0  0
    0.5913    2.2809    0.0058 C   0  0  0  0  0  0  0  0  0  0  0  0
   -0.7887    2.1512    0.0062 C   0  0  0  0  0  0  0  0  0  0  0  0
   -1.3613    1.0180   -0.5802 C   0  0  0  0  0  0  0  0  0  0  0  0
   -1.0643   -0.7724   -1.7346 H   0  0  0  0  0  0  0  0  0  0  0  0
    1.4132   -0.5386   -1.7608 H   0  0  0  0  0  0  0  0  0  0  0  0
    1.0747    3.1498    0.4483 H   0  0  0  0  0  0  0  0  0  0  0  0
   -1.4271    2.9143    0.4437 H   0  0  0  0  0  0  0  0  0  0  0  0
   -2.8246    0.8683   -0.5730 N   0  0  0  0  0  0  0  0  0  0  0  0
   -3.3006   -0.1192   -1.1287 O   0  0  0  0  0  0  0  0  0  0  0  0
   -3.4862    1.7595   -0.0446 O   0  0  0  0  0  0  0  0  0  0  0  0
    1.7935    0.3259    1.2506 N   0  0  0  0  0  0  0  0  0  0  0  0
    1.1576   -0.1933    1.9964 N   0  0  0  0  0  0  0  0  0  0  0  0
    2.7197    1.6628   -0.6767 O   0  0  0  0  0  0  0  0  0  0  0  0
    3.7982    0.6818   -0.7718 N   0  0  0  0  0  0  0  0  0  0  0  0
    4.8599    1.2305   -0.8380 O   0  0  0  0  0  0  0  0  0  0  0  0
    3.5104   -0.4868   -0.8173 O   0  0  0  0  0  0  0  0  0  0  0  0
  1  6  1  0  0  0  0
  2  1  2  0  0  0  0
  2  3  1  0  0  0  0
  3  4  2  0  0  0  0
  4  5  1  0  0  0  0
  4  9  1  0  0  0  0
  5 10  1  0  0  0  0
  6 11  1  0  0  0  0
  6  5  2  0  0  0  0
  7  1  1  0  0  0  0
  8  2  1  0  0  0  0
 11 13  2  0  0  0  0
 12 11  2  0  0  0  0
 14 15  3  0  0  0  0
 16  3  1  0  0  0  0
 17 16  1  0  0  0  0
 18 17  2  0  0  0  0
 19 17  2  0  0  0  0
M  END
