Coordinates from ORCA-job p-NO2-Ph-N2-NO3-B3LYPG-aug-cc-pVDZ-scan-d09-49-n400
 OpenBabel01151817073D

 19 18  0  0  0  0  0  0  0  0999 V2000
   -0.6008    0.1003   -1.3513 C   0  0  0  0  0  0  0  0  0  0  0  0
    0.7831    0.2622   -1.4173 C   0  0  0  0  0  0  0  0  0  0  0  0
    1.3683    1.3454   -0.7530 C   0  0  0  0  0  0  0  0  0  0  0  0
    0.5894    2.2881   -0.0679 C   0  0  0  0  0  0  0  0  0  0  0  0
   -0.7920    2.1355   -0.0197 C   0  0  0  0  0  0  0  0  0  0  0  0
   -1.3685    1.0326   -0.6536 C   0  0  0  0  0  0  0  0  0  0  0  0
   -1.0896   -0.7332   -1.8492 H   0  0  0  0  0  0  0  0  0  0  0  0
    1.3838   -0.4465   -1.9771 H   0  0  0  0  0  0  0  0  0  0  0  0
    1.0794    3.1306    0.4162 H   0  0  0  0  0  0  0  0  0  0  0  0
   -1.4223    2.8496    0.5037 H   0  0  0  0  0  0  0  0  0  0  0  0
   -2.8312    0.8576   -0.5966 N   0  0  0  0  0  0  0  0  0  0  0  0
   -3.3112   -0.1244   -1.1574 O   0  0  0  0  0  0  0  0  0  0  0  0
   -3.4832    1.7044    0.0096 O   0  0  0  0  0  0  0  0  0  0  0  0
    1.9317    0.2857    1.7598 N   0  0  0  0  0  0  0  0  0  0  0  0
    1.3627   -0.2622    2.5315 N   0  0  0  0  0  0  0  0  0  0  0  0
    2.7093    1.6978   -0.8448 O   0  0  0  0  0  0  0  0  0  0  0  0
    3.7456    0.6533   -0.7744 N   0  0  0  0  0  0  0  0  0  0  0  0
    4.8352    1.1461   -0.8066 O   0  0  0  0  0  0  0  0  0  0  0  0
    3.3956   -0.4944   -0.7111 O   0  0  0  0  0  0  0  0  0  0  0  0
  1  6  1  0  0  0  0
  2  1  2  0  0  0  0
  2  3  1  0  0  0  0
  3  4  2  0  0  0  0
  4  5  1  0  0  0  0
  4  9  1  0  0  0  0
  5 10  1  0  0  0  0
  6 11  1  0  0  0  0
  6  5  2  0  0  0  0
  7  1  1  0  0  0  0
  8  2  1  0  0  0  0
 11 13  2  0  0  0  0
 12 11  2  0  0  0  0
 14 15  3  0  0  0  0
 16 17  1  0  0  0  0
 16  3  1  0  0  0  0
 17 19  2  0  0  0  0
 18 17  2  0  0  0  0
M  END
