Coordinates from ORCA-job p-NO2-Ph-N2-NO3-B3LYPG-aug-cc-pVDZ-scan-d09-49-n400
 OpenBabel01151817073D

 19 19  0  0  1  0  0  0  0  0999 V2000
   -0.1720    0.0836   -1.1158 C   0  0  0  0  0  0  0  0  0  0  0  0
    1.0839   -0.1918   -0.3530 C   0  0  2  0  0  0  0  0  0  0  0  0
    1.1874    0.6486    0.9016 C   0  0  0  0  0  0  0  0  0  0  0  0
    0.3039    1.7733    1.1390 C   0  0  0  0  0  0  0  0  0  0  0  0
   -0.7550    2.0061    0.3260 C   0  0  0  0  0  0  0  0  0  0  0  0
   -0.9838    1.1065   -0.7801 C   0  0  0  0  0  0  0  0  0  0  0  0
   -0.4168   -0.5662   -1.9524 H   0  0  0  0  0  0  0  0  0  0  0  0
    1.1583   -1.2624   -0.1131 H   0  0  0  0  0  0  0  0  0  0  0  0
    0.5107    2.4157    1.9941 H   0  0  0  0  0  0  0  0  0  0  0  0
   -1.4333    2.8371    0.4879 H   0  0  0  0  0  0  0  0  0  0  0  0
   -2.2104    1.3166   -1.5972 N   0  0  0  0  0  0  0  0  0  0  0  0
   -2.4352    0.5369   -2.5161 O   0  0  0  0  0  0  0  0  0  0  0  0
   -2.9271    2.2637   -1.2891 O   0  0  0  0  0  0  0  0  0  0  0  0
    2.0528    0.3390    1.7351 N   0  0  0  0  0  0  0  0  0  0  0  0
    2.8574    0.0380    2.4899 N   0  0  0  0  0  0  0  0  0  0  0  0
    1.9507    2.0730   -1.5285 O   0  0  0  0  0  0  0  0  0  0  0  0
    2.6283    1.1137   -1.8200 N   0  0  0  0  0  0  0  0  0  0  0  0
    3.5860    1.0363   -2.5435 O   0  0  0  0  0  0  0  0  0  0  0  0
    2.2996   -0.1390   -1.2243 O   0  0  0  0  0  0  0  0  0  0  0  0
  1  6  2  0  0  0  0
  1  2  1  0  0  0  0
  2  8  1  1  0  0  0
  2  3  1  0  0  0  0
  3  4  2  0  0  0  0
  3 14  1  0  0  0  0
  4  9  1  0  0  0  0
  5 10  1  0  0  0  0
  5  4  1  0  0  0  0
  6  5  1  0  0  0  0
  7  1  1  0  0  0  0
 11 13  2  0  0  0  0
 11  6  1  0  0  0  0
 12 11  2  0  0  0  0
 14 15  1  0  0  0  0
 17 16  2  0  0  0  0
 17 19  1  0  0  0  0
 18 17  2  0  0  0  0
 19  2  1  0  0  0  0
M  RAD  3   5   2  14   2  15   3
M  END
