Coordinates from ORCA-job p-NO2-Ph-N2-NO3-B3LYPG-aug-cc-pVDZ-scan-d09-49-n400
 OpenBabel01151817083D

 19 18  0  0  0  0  0  0  0  0999 V2000
   -0.7498    0.3208   -1.9063 C   0  0  0  0  0  0  0  0  0  0  0  0
    0.6313    0.4824   -1.9957 C   0  0  0  0  0  0  0  0  0  0  0  0
    1.2844    1.2930   -1.0638 C   0  0  0  0  0  0  0  0  0  0  0  0
    0.5906    1.9502   -0.0440 C   0  0  0  0  0  0  0  0  0  0  0  0
   -0.7921    1.7966    0.0457 C   0  0  0  0  0  0  0  0  0  0  0  0
   -1.4373    0.9813   -0.8858 C   0  0  0  0  0  0  0  0  0  0  0  0
   -1.2969   -0.2997   -2.6112 H   0  0  0  0  0  0  0  0  0  0  0  0
    1.2017   -0.0093   -2.7818 H   0  0  0  0  0  0  0  0  0  0  0  0
    1.1341    2.5779    0.6594 H   0  0  0  0  0  0  0  0  0  0  0  0
   -1.3712    2.2942    0.8192 H   0  0  0  0  0  0  0  0  0  0  0  0
   -2.9030    0.8143   -0.7913 N   0  0  0  0  0  0  0  0  0  0  0  0
   -3.4489    0.0943   -1.6228 O   0  0  0  0  0  0  0  0  0  0  0  0
   -3.4866    1.4077    0.1114 O   0  0  0  0  0  0  0  0  0  0  0  0
    2.6392    0.9197    3.0091 N   0  0  0  0  0  0  0  0  0  0  0  0
    2.4783    0.5248    4.0276 N   0  0  0  0  0  0  0  0  0  0  0  0
    2.6472    1.5400   -1.1953 O   0  0  0  0  0  0  0  0  0  0  0  0
    3.5200    0.4729   -0.6302 N   0  0  0  0  0  0  0  0  0  0  0  0
    4.6766    0.7461   -0.7563 O   0  0  0  0  0  0  0  0  0  0  0  0
    2.9680   -0.4785   -0.1470 O   0  0  0  0  0  0  0  0  0  0  0  0
  1  6  1  0  0  0  0
  2  1  2  0  0  0  0
  2  3  1  0  0  0  0
  3  4  2  0  0  0  0
  4  5  1  0  0  0  0
  4  9  1  0  0  0  0
  5 10  1  0  0  0  0
  6 11  1  0  0  0  0
  6  5  2  0  0  0  0
  7  1  1  0  0  0  0
  8  2  1  0  0  0  0
 11 13  2  0  0  0  0
 12 11  2  0  0  0  0
 14 15  3  0  0  0  0
 16  3  1  0  0  0  0
 16 17  1  0  0  0  0
 17 19  2  0  0  0  0
 18 17  2  0  0  0  0
M  END
