Coordinates from ORCA-job p-NO2-Ph-N2-NO3-B3LYPG-aug-cc-pVDZ-scan-d09-49-n400
 OpenBabel01151817073D

 19 19  0  0  1  0  0  0  0  0999 V2000
   -0.1752    0.0790   -1.1124 C   0  0  0  0  0  0  0  0  0  0  0  0
    1.0827   -0.1934   -0.3522 C   0  0  2  0  0  0  0  0  0  0  0  0
    1.1764    0.6479    0.8948 C   0  0  0  0  0  0  0  0  0  0  0  0
    0.3037    1.7730    1.1377 C   0  0  0  0  0  0  0  0  0  0  0  0
   -0.7537    2.0102    0.3213 C   0  0  0  0  0  0  0  0  0  0  0  0
   -0.9833    1.1076   -0.7809 C   0  0  0  0  0  0  0  0  0  0  0  0
   -0.4246   -0.5747   -1.9443 H   0  0  0  0  0  0  0  0  0  0  0  0
    1.1666   -1.2642   -0.1180 H   0  0  0  0  0  0  0  0  0  0  0  0
    0.5105    2.4136    1.9940 H   0  0  0  0  0  0  0  0  0  0  0  0
   -1.4296    2.8434    0.4809 H   0  0  0  0  0  0  0  0  0  0  0  0
   -2.2099    1.3170   -1.5985 N   0  0  0  0  0  0  0  0  0  0  0  0
   -2.4355    0.5357   -2.5159 O   0  0  0  0  0  0  0  0  0  0  0  0
   -2.9217    2.2703   -1.2980 O   0  0  0  0  0  0  0  0  0  0  0  0
    2.0663    0.3274    1.7587 N   0  0  0  0  0  0  0  0  0  0  0  0
    2.8662    0.0273    2.5141 N   0  0  0  0  0  0  0  0  0  0  0  0
    1.9389    2.0754   -1.5391 O   0  0  0  0  0  0  0  0  0  0  0  0
    2.6247    1.1195   -1.8233 N   0  0  0  0  0  0  0  0  0  0  0  0
    3.5818    1.0464   -2.5491 O   0  0  0  0  0  0  0  0  0  0  0  0
    2.3010   -0.1328   -1.2292 O   0  0  0  0  0  0  0  0  0  0  0  0
  1  6  2  0  0  0  0
  1  2  1  0  0  0  0
  2  8  1  1  0  0  0
  2  3  1  0  0  0  0
  3  4  2  0  0  0  0
  3 14  1  0  0  0  0
  4  9  1  0  0  0  0
  5 10  1  0  0  0  0
  5  4  1  0  0  0  0
  6  5  1  0  0  0  0
  7  1  1  0  0  0  0
 11 13  2  0  0  0  0
 11  6  1  0  0  0  0
 12 11  2  0  0  0  0
 14 15  1  0  0  0  0
 17 16  2  0  0  0  0
 17 19  1  0  0  0  0
 18 17  2  0  0  0  0
 19  2  1  0  0  0  0
M  RAD  3   5   2  14   2  15   3
M  END
