Coordinates from ORCA-job p-NO2-Ph-N2-NO3-B3LYPG-aug-cc-pVDZ-scan-d09-49-n400
 OpenBabel01151817073D

 19 19  0  0  1  0  0  0  0  0999 V2000
   -0.1734    0.0818   -1.1146 C   0  0  0  0  0  0  0  0  0  0  0  0
    1.0834   -0.1927   -0.3529 C   0  0  2  0  0  0  0  0  0  0  0  0
    1.1840    0.6485    0.8989 C   0  0  0  0  0  0  0  0  0  0  0  0
    0.3041    1.7733    1.1383 C   0  0  0  0  0  0  0  0  0  0  0  0
   -0.7548    2.0071    0.3246 C   0  0  0  0  0  0  0  0  0  0  0  0
   -0.9842    1.1062   -0.7799 C   0  0  0  0  0  0  0  0  0  0  0  0
   -0.4197   -0.5693   -1.9497 H   0  0  0  0  0  0  0  0  0  0  0  0
    1.1606   -1.2633   -0.1146 H   0  0  0  0  0  0  0  0  0  0  0  0
    0.5111    2.4153    1.9935 H   0  0  0  0  0  0  0  0  0  0  0  0
   -1.4326    2.8386    0.4860 H   0  0  0  0  0  0  0  0  0  0  0  0
   -2.2109    1.3157   -1.5966 N   0  0  0  0  0  0  0  0  0  0  0  0
   -2.4347    0.5369   -2.5165 O   0  0  0  0  0  0  0  0  0  0  0  0
   -2.9250    2.2660   -1.2922 O   0  0  0  0  0  0  0  0  0  0  0  0
    2.0559    0.3366    1.7399 N   0  0  0  0  0  0  0  0  0  0  0  0
    2.8595    0.0362    2.4945 N   0  0  0  0  0  0  0  0  0  0  0  0
    1.9503    2.0745   -1.5271 O   0  0  0  0  0  0  0  0  0  0  0  0
    2.6293    1.1159   -1.8180 N   0  0  0  0  0  0  0  0  0  0  0  0
    3.5830    1.0387   -2.5470 O   0  0  0  0  0  0  0  0  0  0  0  0
    2.2997   -0.1377   -1.2259 O   0  0  0  0  0  0  0  0  0  0  0  0
  1  6  2  0  0  0  0
  1  2  1  0  0  0  0
  2  8  1  1  0  0  0
  2  3  1  0  0  0  0
  3  4  2  0  0  0  0
  3 14  1  0  0  0  0
  4  9  1  0  0  0  0
  5 10  1  0  0  0  0
  5  4  1  0  0  0  0
  6  5  1  0  0  0  0
  7  1  1  0  0  0  0
 11 13  2  0  0  0  0
 11  6  1  0  0  0  0
 12 11  2  0  0  0  0
 14 15  1  0  0  0  0
 17 16  2  0  0  0  0
 17 19  1  0  0  0  0
 18 17  2  0  0  0  0
 19  2  1  0  0  0  0
M  RAD  3   5   2  14   2  15   3
M  END
