Coordinates from ORCA-job p-NO2-Ph-N2-NO3-B3LYPG-aug-cc-pVDZ-scan-d09-49-n400
 OpenBabel01151817073D

 19 19  0  0  1  0  0  0  0  0999 V2000
   -0.1748    0.0780   -1.1102 C   0  0  0  0  0  0  0  0  0  0  0  0
    1.0834   -0.1938   -0.3505 C   0  0  2  0  0  0  0  0  0  0  0  0
    1.1704    0.6474    0.8930 C   0  0  0  0  0  0  0  0  0  0  0  0
    0.3030    1.7719    1.1397 C   0  0  0  0  0  0  0  0  0  0  0  0
   -0.7527    2.0123    0.3205 C   0  0  0  0  0  0  0  0  0  0  0  0
   -0.9812    1.1094   -0.7810 C   0  0  0  0  0  0  0  0  0  0  0  0
   -0.4255   -0.5770   -1.9408 H   0  0  0  0  0  0  0  0  0  0  0  0
    1.1716   -1.2649   -0.1194 H   0  0  0  0  0  0  0  0  0  0  0  0
    0.5088    2.4106    1.9976 H   0  0  0  0  0  0  0  0  0  0  0  0
   -1.4277    2.8464    0.4790 H   0  0  0  0  0  0  0  0  0  0  0  0
   -2.2067    1.3193   -1.6001 N   0  0  0  0  0  0  0  0  0  0  0  0
   -2.4327    0.5366   -2.5163 O   0  0  0  0  0  0  0  0  0  0  0  0
   -2.9178    2.2736   -1.3017 O   0  0  0  0  0  0  0  0  0  0  0  0
    2.0720    0.3213    1.7724 N   0  0  0  0  0  0  0  0  0  0  0  0
    2.8694    0.0213    2.5282 N   0  0  0  0  0  0  0  0  0  0  0  0
    1.9218    2.0725   -1.5597 O   0  0  0  0  0  0  0  0  0  0  0  0
    2.6187    1.1207   -1.8312 N   0  0  0  0  0  0  0  0  0  0  0  0
    3.5821    1.0519   -2.5494 O   0  0  0  0  0  0  0  0  0  0  0  0
    2.3034   -0.1290   -1.2295 O   0  0  0  0  0  0  0  0  0  0  0  0
  1  6  2  0  0  0  0
  1  2  1  0  0  0  0
  2  8  1  1  0  0  0
  2  3  1  0  0  0  0
  3  4  2  0  0  0  0
  3 14  1  0  0  0  0
  4  9  1  0  0  0  0
  5 10  1  0  0  0  0
  5  4  1  0  0  0  0
  6  5  1  0  0  0  0
  7  1  1  0  0  0  0
 11 13  2  0  0  0  0
 11  6  1  0  0  0  0
 12 11  2  0  0  0  0
 14 15  1  0  0  0  0
 17 16  2  0  0  0  0
 17 19  1  0  0  0  0
 18 17  2  0  0  0  0
 19  2  1  0  0  0  0
M  RAD  3   5   2  14   2  15   3
M  END
