Coordinates from ORCA-job p-NO2-Ph-N2-NO3-B3LYPG-aug-cc-pVDZ-scan-d09-49-n400
 OpenBabel01151817083D

 19 18  0  0  0  0  0  0  0  0999 V2000
   -0.8059    0.3890   -2.0360 C   0  0  0  0  0  0  0  0  0  0  0  0
    0.5791    0.5259   -2.1155 C   0  0  0  0  0  0  0  0  0  0  0  0
    1.2505    1.2435   -1.1236 C   0  0  0  0  0  0  0  0  0  0  0  0
    0.5741    1.8279   -0.0482 C   0  0  0  0  0  0  0  0  0  0  0  0
   -0.8103    1.6924    0.0358 C   0  0  0  0  0  0  0  0  0  0  0  0
   -1.4756    0.9741   -0.9600 C   0  0  0  0  0  0  0  0  0  0  0  0
   -1.3681   -0.1579   -2.7884 H   0  0  0  0  0  0  0  0  0  0  0  0
    1.1394    0.0902   -2.9410 H   0  0  0  0  0  0  0  0  0  0  0  0
    1.1308    2.3825    0.7049 H   0  0  0  0  0  0  0  0  0  0  0  0
   -1.3771    2.1331    0.8518 H   0  0  0  0  0  0  0  0  0  0  0  0
   -2.9446    0.8309   -0.8733 N   0  0  0  0  0  0  0  0  0  0  0  0
   -3.5071    0.1893   -1.7561 O   0  0  0  0  0  0  0  0  0  0  0  0
   -3.5111    1.3465    0.0863 O   0  0  0  0  0  0  0  0  0  0  0  0
    2.8982    1.1147    3.3506 N   0  0  0  0  0  0  0  0  0  0  0  0
    2.9189    0.7178    4.3808 N   0  0  0  0  0  0  0  0  0  0  0  0
    2.6191    1.4607   -1.2528 O   0  0  0  0  0  0  0  0  0  0  0  0
    3.4635    0.4391   -0.5694 N   0  0  0  0  0  0  0  0  0  0  0  0
    4.6269    0.6791   -0.6995 O   0  0  0  0  0  0  0  0  0  0  0  0
    2.8849   -0.4503   -0.0060 O   0  0  0  0  0  0  0  0  0  0  0  0
  1  6  1  0  0  0  0
  2  1  2  0  0  0  0
  2  3  1  0  0  0  0
  3  4  2  0  0  0  0
  4  5  1  0  0  0  0
  4  9  1  0  0  0  0
  5 10  1  0  0  0  0
  6 11  1  0  0  0  0
  6  5  2  0  0  0  0
  7  1  1  0  0  0  0
  8  2  1  0  0  0  0
 11 13  2  0  0  0  0
 12 11  2  0  0  0  0
 14 15  3  0  0  0  0
 16  3  1  0  0  0  0
 16 17  1  0  0  0  0
 17 19  2  0  0  0  0
 18 17  2  0  0  0  0
M  END
