Coordinates from ORCA-job p-NO2-Ph-N2-NO3-B3LYPG-aug-cc-pVDZ-scan-d09-49-n400
 OpenBabel01151817083D

 19 18  0  0  0  0  0  0  0  0999 V2000
   -0.6422    0.1754   -1.5824 C   0  0  0  0  0  0  0  0  0  0  0  0
    0.7347    0.3593   -1.6899 C   0  0  0  0  0  0  0  0  0  0  0  0
    1.3468    1.3630   -0.9325 C   0  0  0  0  0  0  0  0  0  0  0  0
    0.6091    2.1967   -0.0849 C   0  0  0  0  0  0  0  0  0  0  0  0
   -0.7704    2.0268    0.0090 C   0  0  0  0  0  0  0  0  0  0  0  0
   -1.3729    1.0115   -0.7358 C   0  0  0  0  0  0  0  0  0  0  0  0
   -1.1554   -0.5952   -2.1517 H   0  0  0  0  0  0  0  0  0  0  0  0
    1.3239   -0.2683   -2.3542 H   0  0  0  0  0  0  0  0  0  0  0  0
    1.1212    2.9748    0.4775 H   0  0  0  0  0  0  0  0  0  0  0  0
   -1.3782    2.6610    0.6489 H   0  0  0  0  0  0  0  0  0  0  0  0
   -2.8333    0.8207   -0.6314 N   0  0  0  0  0  0  0  0  0  0  0  0
   -3.3392   -0.0814   -1.2938 O   0  0  0  0  0  0  0  0  0  0  0  0
   -3.4550    1.5761    0.1112 O   0  0  0  0  0  0  0  0  0  0  0  0
    2.0918    0.4438    2.3577 N   0  0  0  0  0  0  0  0  0  0  0  0
    1.6455   -0.0001    3.2650 N   0  0  0  0  0  0  0  0  0  0  0  0
    2.6931    1.6751   -1.0717 O   0  0  0  0  0  0  0  0  0  0  0  0
    3.6627    0.5902   -0.7620 N   0  0  0  0  0  0  0  0  0  0  0  0
    4.7860    0.9828   -0.8757 O   0  0  0  0  0  0  0  0  0  0  0  0
    3.2175   -0.4837   -0.4625 O   0  0  0  0  0  0  0  0  0  0  0  0
  1  6  1  0  0  0  0
  2  1  2  0  0  0  0
  2  3  1  0  0  0  0
  3  4  2  0  0  0  0
  4  5  1  0  0  0  0
  4  9  1  0  0  0  0
  5 10  1  0  0  0  0
  6 11  1  0  0  0  0
  6  5  2  0  0  0  0
  7  1  1  0  0  0  0
  8  2  1  0  0  0  0
 11 13  2  0  0  0  0
 12 11  2  0  0  0  0
 14 15  3  0  0  0  0
 16  3  1  0  0  0  0
 16 17  1  0  0  0  0
 17 19  2  0  0  0  0
 18 17  2  0  0  0  0
M  END
