Coordinates from ORCA-job p-NO2-Ph-N2-NO3-B3LYPG-aug-cc-pVDZ-scan-d09-49-n400
 OpenBabel01151817083D

 19 18  0  0  0  0  0  0  0  0999 V2000
   -0.6264    0.1500   -1.5105 C   0  0  0  0  0  0  0  0  0  0  0  0
    0.7518    0.3309   -1.6115 C   0  0  0  0  0  0  0  0  0  0  0  0
    1.3550    1.3656   -0.8885 C   0  0  0  0  0  0  0  0  0  0  0  0
    0.6047    2.2342   -0.0877 C   0  0  0  0  0  0  0  0  0  0  0  0
   -0.7754    2.0674   -0.0029 C   0  0  0  0  0  0  0  0  0  0  0  0
   -1.3687    1.0195   -0.7093 C   0  0  0  0  0  0  0  0  0  0  0  0
   -1.1315   -0.6447   -2.0533 H   0  0  0  0  0  0  0  0  0  0  0  0
    1.3453   -0.3234   -2.2443 H   0  0  0  0  0  0  0  0  0  0  0  0
    1.1091    3.0368    0.4469 H   0  0  0  0  0  0  0  0  0  0  0  0
   -1.3908    2.7282    0.6020 H   0  0  0  0  0  0  0  0  0  0  0  0
   -2.8294    0.8308   -0.6139 N   0  0  0  0  0  0  0  0  0  0  0  0
   -3.3259   -0.1036   -1.2374 O   0  0  0  0  0  0  0  0  0  0  0  0
   -3.4604    1.6154    0.0898 O   0  0  0  0  0  0  0  0  0  0  0  0
    2.0299    0.3784    2.1829 N   0  0  0  0  0  0  0  0  0  0  0  0
    1.5390   -0.1073    3.0449 N   0  0  0  0  0  0  0  0  0  0  0  0
    2.6995    1.6894   -1.0209 O   0  0  0  0  0  0  0  0  0  0  0  0
    3.6882    0.6124   -0.7653 N   0  0  0  0  0  0  0  0  0  0  0  0
    4.8029    1.0359   -0.8523 O   0  0  0  0  0  0  0  0  0  0  0  0
    3.2685   -0.4872   -0.5279 O   0  0  0  0  0  0  0  0  0  0  0  0
  1  6  1  0  0  0  0
  2  1  2  0  0  0  0
  2  3  1  0  0  0  0
  3  4  2  0  0  0  0
  4  5  1  0  0  0  0
  4  9  1  0  0  0  0
  5 10  1  0  0  0  0
  6 11  1  0  0  0  0
  6  5  2  0  0  0  0
  7  1  1  0  0  0  0
  8  2  1  0  0  0  0
 11 13  2  0  0  0  0
 12 11  2  0  0  0  0
 14 15  3  0  0  0  0
 16  3  1  0  0  0  0
 16 17  1  0  0  0  0
 17 19  2  0  0  0  0
 18 17  2  0  0  0  0
M  END
