Coordinates from ORCA-job p-NO2-Ph-N2-NO3-B3LYPG-aug-cc-pVDZ-scan-d09-49-n400
 OpenBabel01151817083D

 19 18  0  0  0  0  0  0  0  0999 V2000
   -0.6456    0.1813   -1.5977 C   0  0  0  0  0  0  0  0  0  0  0  0
    0.7311    0.3654   -1.7047 C   0  0  0  0  0  0  0  0  0  0  0  0
    1.3455    1.3613   -0.9384 C   0  0  0  0  0  0  0  0  0  0  0  0
    0.6096    2.1866   -0.0826 C   0  0  0  0  0  0  0  0  0  0  0  0
   -0.7703    2.0172    0.0119 C   0  0  0  0  0  0  0  0  0  0  0  0
   -1.3745    1.0099   -0.7420 C   0  0  0  0  0  0  0  0  0  0  0  0
   -1.1601   -0.5833   -2.1739 H   0  0  0  0  0  0  0  0  0  0  0  0
    1.3194   -0.2558   -2.3759 H   0  0  0  0  0  0  0  0  0  0  0  0
    1.1228    2.9592    0.4866 H   0  0  0  0  0  0  0  0  0  0  0  0
   -1.3769    2.6450    0.6593 H   0  0  0  0  0  0  0  0  0  0  0  0
   -2.8350    0.8193   -0.6376 N   0  0  0  0  0  0  0  0  0  0  0  0
   -3.3426   -0.0755   -1.3084 O   0  0  0  0  0  0  0  0  0  0  0  0
   -3.4550    1.5676    0.1135 O   0  0  0  0  0  0  0  0  0  0  0  0
    2.1086    0.4604    2.3953 N   0  0  0  0  0  0  0  0  0  0  0  0
    1.6731    0.0270    3.3126 N   0  0  0  0  0  0  0  0  0  0  0  0
    2.6922    1.6711   -1.0817 O   0  0  0  0  0  0  0  0  0  0  0  0
    3.6565    0.5851   -0.7628 N   0  0  0  0  0  0  0  0  0  0  0  0
    4.7822    0.9695   -0.8814 O   0  0  0  0  0  0  0  0  0  0  0  0
    3.2045   -0.4826   -0.4512 O   0  0  0  0  0  0  0  0  0  0  0  0
  1  6  1  0  0  0  0
  2  1  2  0  0  0  0
  2  3  1  0  0  0  0
  3  4  2  0  0  0  0
  4  5  1  0  0  0  0
  4  9  1  0  0  0  0
  5 10  1  0  0  0  0
  6 11  1  0  0  0  0
  6  5  2  0  0  0  0
  7  1  1  0  0  0  0
  8  2  1  0  0  0  0
 11 13  2  0  0  0  0
 12 11  2  0  0  0  0
 14 15  3  0  0  0  0
 16  3  1  0  0  0  0
 16 17  1  0  0  0  0
 17 19  2  0  0  0  0
 18 17  2  0  0  0  0
M  END
