Coordinates from ORCA-job p-NO2-Ph-N2-NO3-B3LYPG-aug-cc-pVDZ-scan-d09-49-n400
 OpenBabel01151817073D

 19 18  0  0  0  0  0  0  0  0999 V2000
   -0.6685    0.1122   -1.2187 C   0  0  0  0  0  0  0  0  0  0  0  0
    0.6106   -0.0316   -0.6717 C   0  0  0  0  0  0  0  0  0  0  0  0
    0.9041    0.8300    0.3581 C   0  0  0  0  0  0  0  0  0  0  0  0
    0.1108    1.8108    0.9173 C   0  0  0  0  0  0  0  0  0  0  0  0
   -1.1596    1.9408    0.3463 C   0  0  0  0  0  0  0  0  0  0  0  0
   -1.5201    1.0908   -0.7009 C   0  0  0  0  0  0  0  0  0  0  0  0
   -1.0013   -0.5181   -2.0394 H   0  0  0  0  0  0  0  0  0  0  0  0
    1.3459   -0.7472   -1.0303 H   0  0  0  0  0  0  0  0  0  0  0  0
    0.4458    2.4459    1.7329 H   0  0  0  0  0  0  0  0  0  0  0  0
   -1.8614    2.6896    0.7048 H   0  0  0  0  0  0  0  0  0  0  0  0
   -2.8740    1.2365   -1.2913 N   0  0  0  0  0  0  0  0  0  0  0  0
   -3.1788    0.4691   -2.1965 O   0  0  0  0  0  0  0  0  0  0  0  0
   -3.6015    2.1054   -0.8234 O   0  0  0  0  0  0  0  0  0  0  0  0
    2.4218    0.6310    1.1023 N   0  0  0  0  0  0  0  0  0  0  0  0
    2.9744    0.8345    2.0533 N   0  0  0  0  0  0  0  0  0  0  0  0
    3.2353    1.7416   -1.1981 O   0  0  0  0  0  0  0  0  0  0  0  0
    3.8483    0.6610   -1.2776 N   0  0  0  0  0  0  0  0  0  0  0  0
    4.7309    0.4219   -2.0898 O   0  0  0  0  0  0  0  0  0  0  0  0
    3.5230   -0.2956   -0.4365 O   0  0  0  0  0  0  0  0  0  0  0  0
  1  6  2  0  0  0  0
  1  2  1  0  0  0  0
  2  3  2  0  0  0  0
  3  4  1  0  0  0  0
  3 14  1  0  0  0  0
  4  9  1  0  0  0  0
  5 10  1  0  0  0  0
  5  4  2  0  0  0  0
  6  5  1  0  0  0  0
  7  1  1  0  0  0  0
  8  2  1  0  0  0  0
 11 13  2  0  0  0  0
 11  6  1  0  0  0  0
 12 11  2  0  0  0  0
 14 15  2  0  0  0  0
 17 16  2  0  0  0  0
 17 19  1  0  0  0  0
 18 17  2  0  0  0  0
M  RAD  2  15   2  19   2
M  END
