Coordinates from ORCA-job p-NO2-Ph-N2-NO3-B3LYPG-aug-cc-pVDZ-scan-d09-49-n400
 OpenBabel01151817083D

 19 18  0  0  0  0  0  0  0  0999 V2000
   -0.6198    0.1380   -1.4742 C   0  0  0  0  0  0  0  0  0  0  0  0
    0.7593    0.3160   -1.5692 C   0  0  0  0  0  0  0  0  0  0  0  0
    1.3576    1.3635   -0.8608 C   0  0  0  0  0  0  0  0  0  0  0  0
    0.6006    2.2489   -0.0844 C   0  0  0  0  0  0  0  0  0  0  0  0
   -0.7797    2.0843   -0.0067 C   0  0  0  0  0  0  0  0  0  0  0  0
   -1.3683    1.0224   -0.6959 C   0  0  0  0  0  0  0  0  0  0  0  0
   -1.1209   -0.6667   -2.0061 H   0  0  0  0  0  0  0  0  0  0  0  0
    1.3550   -0.3507   -2.1863 H   0  0  0  0  0  0  0  0  0  0  0  0
    1.1011    3.0619    0.4378 H   0  0  0  0  0  0  0  0  0  0  0  0
   -1.3991    2.7576    0.5801 H   0  0  0  0  0  0  0  0  0  0  0  0
   -2.8292    0.8359   -0.6078 N   0  0  0  0  0  0  0  0  0  0  0  0
   -3.3215   -0.1091   -1.2187 O   0  0  0  0  0  0  0  0  0  0  0  0
   -3.4659    1.6371    0.0716 O   0  0  0  0  0  0  0  0  0  0  0  0
    2.0094    0.3552    2.0900 N   0  0  0  0  0  0  0  0  0  0  0  0
    1.4993   -0.1498    2.9290 N   0  0  0  0  0  0  0  0  0  0  0  0
    2.7013    1.6936   -0.9861 O   0  0  0  0  0  0  0  0  0  0  0  0
    3.7006    0.6211   -0.7662 N   0  0  0  0  0  0  0  0  0  0  0  0
    4.8101    1.0603   -0.8415 O   0  0  0  0  0  0  0  0  0  0  0  0
    3.2956   -0.4911   -0.5637 O   0  0  0  0  0  0  0  0  0  0  0  0
  1  6  1  0  0  0  0
  2  1  2  0  0  0  0
  2  3  1  0  0  0  0
  3  4  2  0  0  0  0
  4  5  1  0  0  0  0
  4  9  1  0  0  0  0
  5 10  1  0  0  0  0
  6 11  1  0  0  0  0
  6  5  2  0  0  0  0
  7  1  1  0  0  0  0
  8  2  1  0  0  0  0
 11 13  2  0  0  0  0
 12 11  2  0  0  0  0
 14 15  3  0  0  0  0
 16  3  1  0  0  0  0
 16 17  1  0  0  0  0
 17 19  2  0  0  0  0
 18 17  2  0  0  0  0
M  END
