Coordinates from ORCA-job p-NO2-Ph-N2-NO3-B3LYPG-aug-cc-pVDZ-scan-d09-49-n400
 OpenBabel01151817073D

 19 19  0  0  1  0  0  0  0  0999 V2000
   -0.2103    0.0470   -1.0833 C   0  0  0  0  0  0  0  0  0  0  0  0
    1.0579   -0.2117   -0.3508 C   0  0  2  0  0  0  0  0  0  0  0  0
    1.0658    0.6413    0.8274 C   0  0  2  0  0  0  0  0  0  0  0  0
    0.2856    1.7688    1.1310 C   0  0  0  0  0  0  0  0  0  0  0  0
   -0.7603    2.0409    0.2844 C   0  0  0  0  0  0  0  0  0  0  0  0
   -0.9912    1.1226   -0.7882 C   0  0  0  0  0  0  0  0  0  0  0  0
   -0.5007   -0.6412   -1.8723 H   0  0  0  0  0  0  0  0  0  0  0  0
    1.2253   -1.2777   -0.1589 H   0  0  0  0  0  0  0  0  0  0  0  0
    0.5066    2.3927    1.9941 H   0  0  0  0  0  0  0  0  0  0  0  0
   -1.4067    2.9002    0.4222 H   0  0  0  0  0  0  0  0  0  0  0  0
   -2.2123    1.3300   -1.6154 N   0  0  0  0  0  0  0  0  0  0  0  0
   -2.4565    0.5182   -2.5014 O   0  0  0  0  0  0  0  0  0  0  0  0
   -2.9026    2.3108   -1.3565 O   0  0  0  0  0  0  0  0  0  0  0  0
    2.1736    0.2441    1.9287 N   0  0  0  0  0  0  0  0  0  0  0  0
    2.9674   -0.0350    2.6664 N   0  0  0  0  0  0  0  0  0  0  0  0
    1.9050    2.0939   -1.5803 O   0  0  0  0  0  0  0  0  0  0  0  0
    2.6196    1.1504   -1.8543 N   0  0  0  0  0  0  0  0  0  0  0  0
    3.5918    1.1240   -2.5721 O   0  0  0  0  0  0  0  0  0  0  0  0
    2.3275   -0.0911   -1.2799 O   0  0  0  0  0  0  0  0  0  0  0  0
  1  6  2  0  0  0  0
  1  2  1  0  0  0  0
  2  8  1  1  0  0  0
  2  3  1  0  0  0  0
  3  4  1  0  0  0  0
  3 14  1  6  0  0  0
  4  9  1  0  0  0  0
  5 10  1  0  0  0  0
  5  4  2  0  0  0  0
  6  5  1  0  0  0  0
  7  1  1  0  0  0  0
 11 13  2  0  0  0  0
 11  6  1  0  0  0  0
 12 11  2  0  0  0  0
 14 15  1  0  0  0  0
 17 16  2  0  0  0  0
 17 19  1  0  0  0  0
 18 17  2  0  0  0  0
 19  2  1  0  0  0  0
M  RAD  3   3   2  14   2  15   3
M  END
