Coordinates from ORCA-job p-NO2-Ph-N2-NO3-B3LYPG-aug-cc-pVDZ-scan-d09-49-n400
 OpenBabel01151817073D

 19 18  0  0  0  0  0  0  0  0999 V2000
   -0.5958    0.0899   -1.3170 C   0  0  0  0  0  0  0  0  0  0  0  0
    0.7892    0.2466   -1.3744 C   0  0  0  0  0  0  0  0  0  0  0  0
    1.3723    1.3360   -0.7181 C   0  0  0  0  0  0  0  0  0  0  0  0
    0.5883    2.2945   -0.0600 C   0  0  0  0  0  0  0  0  0  0  0  0
   -0.7932    2.1456   -0.0200 C   0  0  0  0  0  0  0  0  0  0  0  0
   -1.3676    1.0332   -0.6395 C   0  0  0  0  0  0  0  0  0  0  0  0
   -1.0822   -0.7495   -1.8073 H   0  0  0  0  0  0  0  0  0  0  0  0
    1.3910   -0.4723   -1.9190 H   0  0  0  0  0  0  0  0  0  0  0  0
    1.0764    3.1439    0.4138 H   0  0  0  0  0  0  0  0  0  0  0  0
   -1.4257    2.8705    0.4856 H   0  0  0  0  0  0  0  0  0  0  0  0
   -2.8307    0.8621   -0.5915 N   0  0  0  0  0  0  0  0  0  0  0  0
   -3.3087   -0.1258   -1.1437 O   0  0  0  0  0  0  0  0  0  0  0  0
   -3.4859    1.7216   -0.0070 O   0  0  0  0  0  0  0  0  0  0  0  0
    1.9020    0.2701    1.6545 N   0  0  0  0  0  0  0  0  0  0  0  0
    1.3172   -0.2740    2.4174 N   0  0  0  0  0  0  0  0  0  0  0  0
    2.7120    1.6952   -0.8023 O   0  0  0  0  0  0  0  0  0  0  0  0
    3.7591    0.6626   -0.7774 N   0  0  0  0  0  0  0  0  0  0  0  0
    4.8424    1.1701   -0.7978 O   0  0  0  0  0  0  0  0  0  0  0  0
    3.4253   -0.4918   -0.7555 O   0  0  0  0  0  0  0  0  0  0  0  0
  1  6  1  0  0  0  0
  2  1  2  0  0  0  0
  2  3  1  0  0  0  0
  3  4  2  0  0  0  0
  4  5  1  0  0  0  0
  4  9  1  0  0  0  0
  5 10  1  0  0  0  0
  6 11  1  0  0  0  0
  6  5  2  0  0  0  0
  7  1  1  0  0  0  0
  8  2  1  0  0  0  0
 11 13  2  0  0  0  0
 12 11  2  0  0  0  0
 14 15  3  0  0  0  0
 16 17  1  0  0  0  0
 16  3  1  0  0  0  0
 17 19  2  0  0  0  0
 18 17  2  0  0  0  0
M  END
