Coordinates from ORCA-job p-NO2-Ph-N2-NO3-B3LYPG-aug-cc-pVDZ-scan-d09-49-n400
 OpenBabel01151817073D

 19 18  0  0  0  0  0  0  0  0999 V2000
   -0.5939    0.0868   -1.3066 C   0  0  0  0  0  0  0  0  0  0  0  0
    0.7914    0.2413   -1.3602 C   0  0  0  0  0  0  0  0  0  0  0  0
    1.3743    1.3315   -0.7042 C   0  0  0  0  0  0  0  0  0  0  0  0
    0.5883    2.2959   -0.0565 C   0  0  0  0  0  0  0  0  0  0  0  0
   -0.7932    2.1487   -0.0200 C   0  0  0  0  0  0  0  0  0  0  0  0
   -1.3670    1.0336   -0.6354 C   0  0  0  0  0  0  0  0  0  0  0  0
   -1.0797   -0.7538   -1.7954 H   0  0  0  0  0  0  0  0  0  0  0  0
    1.3935   -0.4806   -1.9000 H   0  0  0  0  0  0  0  0  0  0  0  0
    1.0755    3.1478    0.4138 H   0  0  0  0  0  0  0  0  0  0  0  0
   -1.4265    2.8775    0.4792 H   0  0  0  0  0  0  0  0  0  0  0  0
   -2.8303    0.8644   -0.5913 N   0  0  0  0  0  0  0  0  0  0  0  0
   -3.3073   -0.1278   -1.1366 O   0  0  0  0  0  0  0  0  0  0  0  0
   -3.4861    1.7250   -0.0089 O   0  0  0  0  0  0  0  0  0  0  0  0
    1.8903    0.2677    1.6162 N   0  0  0  0  0  0  0  0  0  0  0  0
    1.2994   -0.2745    2.3758 N   0  0  0  0  0  0  0  0  0  0  0  0
    2.7134    1.6934   -0.7875 O   0  0  0  0  0  0  0  0  0  0  0  0
    3.7636    0.6653   -0.7778 N   0  0  0  0  0  0  0  0  0  0  0  0
    4.8451    1.1771   -0.7946 O   0  0  0  0  0  0  0  0  0  0  0  0
    3.4348   -0.4908   -0.7694 O   0  0  0  0  0  0  0  0  0  0  0  0
  1  6  1  0  0  0  0
  2  1  2  0  0  0  0
  2  3  1  0  0  0  0
  3  4  2  0  0  0  0
  4  5  1  0  0  0  0
  4  9  1  0  0  0  0
  5 10  1  0  0  0  0
  6 11  1  0  0  0  0
  6  5  2  0  0  0  0
  7  1  1  0  0  0  0
  8  2  1  0  0  0  0
 11 13  2  0  0  0  0
 12 11  2  0  0  0  0
 14 15  3  0  0  0  0
 16 17  1  0  0  0  0
 16  3  1  0  0  0  0
 17 19  2  0  0  0  0
 18 17  2  0  0  0  0
M  END
