Coordinates from ORCA-job p-NO2-Ph-N2-NO3-B3LYPG-aug-cc-pVDZ-scan-d09-49-n400
 OpenBabel01151817083D

 19 18  0  0  0  0  0  0  0  0999 V2000
   -0.7783    0.3566   -1.9741 C   0  0  0  0  0  0  0  0  0  0  0  0
    0.6049    0.5056   -2.0582 C   0  0  0  0  0  0  0  0  0  0  0  0
    1.2675    1.2683   -1.0940 C   0  0  0  0  0  0  0  0  0  0  0  0
    0.5833    1.8880   -0.0439 C   0  0  0  0  0  0  0  0  0  0  0  0
   -0.8003    1.7435    0.0426 C   0  0  0  0  0  0  0  0  0  0  0  0
   -1.4562    0.9782   -0.9237 C   0  0  0  0  0  0  0  0  0  0  0  0
   -1.3336   -0.2259   -2.7046 H   0  0  0  0  0  0  0  0  0  0  0  0
    1.1702    0.0429   -2.8654 H   0  0  0  0  0  0  0  0  0  0  0  0
    1.1339    2.4777    0.6863 H   0  0  0  0  0  0  0  0  0  0  0  0
   -1.3731    2.2115    0.8390 H   0  0  0  0  0  0  0  0  0  0  0  0
   -2.9237    0.8234   -0.8334 N   0  0  0  0  0  0  0  0  0  0  0  0
   -3.4779    0.1400   -1.6898 O   0  0  0  0  0  0  0  0  0  0  0  0
   -3.4976    1.3730    0.1026 O   0  0  0  0  0  0  0  0  0  0  0  0
    2.7683    1.0244    3.1616 N   0  0  0  0  0  0  0  0  0  0  0  0
    2.7048    0.6228    4.1881 N   0  0  0  0  0  0  0  0  0  0  0  0
    2.6338    1.4990   -1.2227 O   0  0  0  0  0  0  0  0  0  0  0  0
    3.4891    0.4544   -0.5902 N   0  0  0  0  0  0  0  0  0  0  0  0
    4.6500    0.7092   -0.7147 O   0  0  0  0  0  0  0  0  0  0  0  0
    2.9203   -0.4641   -0.0647 O   0  0  0  0  0  0  0  0  0  0  0  0
  1  6  1  0  0  0  0
  2  1  2  0  0  0  0
  2  3  1  0  0  0  0
  3  4  2  0  0  0  0
  4  5  1  0  0  0  0
  4  9  1  0  0  0  0
  5 10  1  0  0  0  0
  6 11  1  0  0  0  0
  6  5  2  0  0  0  0
  7  1  1  0  0  0  0
  8  2  1  0  0  0  0
 11 13  2  0  0  0  0
 12 11  2  0  0  0  0
 14 15  3  0  0  0  0
 16  3  1  0  0  0  0
 16 17  1  0  0  0  0
 17 19  2  0  0  0  0
 18 17  2  0  0  0  0
M  END
