Coordinates from ORCA-job p-NO2-Ph-N2-NO3-B3LYPG-aug-cc-pVDZ-scan-d09-49-n400
 OpenBabel01151817073D

 19 19  0  0  1  0  0  0  0  0999 V2000
   -0.1634    0.0951   -1.1229 C   0  0  0  0  0  0  0  0  0  0  0  0
    1.0868   -0.1886   -0.3531 C   0  0  2  0  0  0  0  0  0  0  0  0
    1.2121    0.6509    0.9196 C   0  0  0  0  0  0  0  0  0  0  0  0
    0.3006    1.7715    1.1471 C   0  0  0  0  0  0  0  0  0  0  0  0
   -0.7614    1.9936    0.3406 C   0  0  0  0  0  0  0  0  0  0  0  0
   -0.9854    1.1033   -0.7763 C   0  0  0  0  0  0  0  0  0  0  0  0
   -0.3957   -0.5438   -1.9717 H   0  0  0  0  0  0  0  0  0  0  0  0
    1.1381   -1.2577   -0.0978 H   0  0  0  0  0  0  0  0  0  0  0  0
    0.5064    2.4158    2.0014 H   0  0  0  0  0  0  0  0  0  0  0  0
   -1.4471    2.8176    0.5095 H   0  0  0  0  0  0  0  0  0  0  0  0
   -2.2107    1.3155   -1.5936 N   0  0  0  0  0  0  0  0  0  0  0  0
   -2.4241    0.5500   -2.5269 O   0  0  0  0  0  0  0  0  0  0  0  0
   -2.9339    2.2543   -1.2753 O   0  0  0  0  0  0  0  0  0  0  0  0
    2.0258    0.3685    1.6826 N   0  0  0  0  0  0  0  0  0  0  0  0
    2.8462    0.0689    2.4330 N   0  0  0  0  0  0  0  0  0  0  0  0
    1.9676    2.0619   -1.5171 O   0  0  0  0  0  0  0  0  0  0  0  0
    2.6385    1.0989   -1.8092 N   0  0  0  0  0  0  0  0  0  0  0  0
    3.5873    1.0078   -2.5404 O   0  0  0  0  0  0  0  0  0  0  0  0
    2.2980   -0.1550   -1.2088 O   0  0  0  0  0  0  0  0  0  0  0  0
  1  6  2  0  0  0  0
  1  2  1  0  0  0  0
  2  8  1  1  0  0  0
  2  3  1  0  0  0  0
  3  4  2  0  0  0  0
  3 14  1  0  0  0  0
  4  9  1  0  0  0  0
  5 10  1  0  0  0  0
  5  4  1  0  0  0  0
  6  5  1  0  0  0  0
  7  1  1  0  0  0  0
 11 13  2  0  0  0  0
 11  6  1  0  0  0  0
 12 11  2  0  0  0  0
 14 15  1  0  0  0  0
 17 16  2  0  0  0  0
 17 19  1  0  0  0  0
 18 17  2  0  0  0  0
 19  2  1  0  0  0  0
M  RAD  3   5   2  14   2  15   3
M  END
