Coordinates from ORCA-job p-NO2-Ph-N2-NO3-B3LYPG-aug-cc-pVDZ-scan-d09-49-n400
 OpenBabel01151817083D

 19 18  0  0  0  0  0  0  0  0999 V2000
   -0.7403    0.3081   -1.8825 C   0  0  0  0  0  0  0  0  0  0  0  0
    0.6401    0.4732   -1.9741 C   0  0  0  0  0  0  0  0  0  0  0  0
    1.2897    1.3011   -1.0550 C   0  0  0  0  0  0  0  0  0  0  0  0
    0.5930    1.9725   -0.0465 C   0  0  0  0  0  0  0  0  0  0  0  0
   -0.7893    1.8163    0.0443 C   0  0  0  0  0  0  0  0  0  0  0  0
   -1.4310    0.9833   -0.8738 C   0  0  0  0  0  0  0  0  0  0  0  0
   -1.2848   -0.3258   -2.5774 H   0  0  0  0  0  0  0  0  0  0  0  0
    1.2121   -0.0296   -2.7520 H   0  0  0  0  0  0  0  0  0  0  0  0
    1.1343    2.6134    0.6466 H   0  0  0  0  0  0  0  0  0  0  0  0
   -1.3708    2.3248    0.8090 H   0  0  0  0  0  0  0  0  0  0  0  0
   -2.8962    0.8129   -0.7776 N   0  0  0  0  0  0  0  0  0  0  0  0
   -3.4389    0.0772   -1.5972 O   0  0  0  0  0  0  0  0  0  0  0  0
   -3.4827    1.4196    0.1145 O   0  0  0  0  0  0  0  0  0  0  0  0
    2.5939    0.8789    2.9661 N   0  0  0  0  0  0  0  0  0  0  0  0
    2.4017    0.4868    3.9802 N   0  0  0  0  0  0  0  0  0  0  0  0
    2.6514    1.5541   -1.1870 O   0  0  0  0  0  0  0  0  0  0  0  0
    3.5312    0.4812   -0.6461 N   0  0  0  0  0  0  0  0  0  0  0  0
    4.6859    0.7615   -0.7745 O   0  0  0  0  0  0  0  0  0  0  0  0
    2.9864   -0.4810   -0.1764 O   0  0  0  0  0  0  0  0  0  0  0  0
  1  6  1  0  0  0  0
  2  1  2  0  0  0  0
  2  3  1  0  0  0  0
  3  4  2  0  0  0  0
  4  5  1  0  0  0  0
  4  9  1  0  0  0  0
  5 10  1  0  0  0  0
  6 11  1  0  0  0  0
  6  5  2  0  0  0  0
  7  1  1  0  0  0  0
  8  2  1  0  0  0  0
 11 13  2  0  0  0  0
 12 11  2  0  0  0  0
 14 15  3  0  0  0  0
 16  3  1  0  0  0  0
 16 17  1  0  0  0  0
 17 19  2  0  0  0  0
 18 17  2  0  0  0  0
M  END
