Coordinates from ORCA-job p-NO2-Ph-N2-NO3-B3LYPG-aug-cc-pVDZ-scan-d09-49-n400
 OpenBabel01151817073D

 19 18  0  0  0  0  0  0  0  0999 V2000
   -0.5925    0.0840   -1.2982 C   0  0  0  0  0  0  0  0  0  0  0  0
    0.7930    0.2370   -1.3494 C   0  0  0  0  0  0  0  0  0  0  0  0
    1.3759    1.3276   -0.6930 C   0  0  0  0  0  0  0  0  0  0  0  0
    0.5884    2.2965   -0.0531 C   0  0  0  0  0  0  0  0  0  0  0  0
   -0.7931    2.1504   -0.0189 C   0  0  0  0  0  0  0  0  0  0  0  0
   -1.3664    1.0331   -0.6311 C   0  0  0  0  0  0  0  0  0  0  0  0
   -1.0780   -0.7574   -1.7862 H   0  0  0  0  0  0  0  0  0  0  0  0
    1.3954   -0.4868   -1.8862 H   0  0  0  0  0  0  0  0  0  0  0  0
    1.0747    3.1504    0.4145 H   0  0  0  0  0  0  0  0  0  0  0  0
   -1.4270    2.8817    0.4757 H   0  0  0  0  0  0  0  0  0  0  0  0
   -2.8298    0.8651   -0.5895 N   0  0  0  0  0  0  0  0  0  0  0  0
   -3.3065   -0.1278   -1.1339 O   0  0  0  0  0  0  0  0  0  0  0  0
   -3.4863    1.7288   -0.0126 O   0  0  0  0  0  0  0  0  0  0  0  0
    1.8816    0.2678    1.5865 N   0  0  0  0  0  0  0  0  0  0  0  0
    1.2859   -0.2731    2.3435 N   0  0  0  0  0  0  0  0  0  0  0  0
    2.7146    1.6919   -0.7769 O   0  0  0  0  0  0  0  0  0  0  0  0
    3.7671    0.6673   -0.7784 N   0  0  0  0  0  0  0  0  0  0  0  0
    4.8472    1.1820   -0.7930 O   0  0  0  0  0  0  0  0  0  0  0  0
    3.4417   -0.4900   -0.7794 O   0  0  0  0  0  0  0  0  0  0  0  0
  1  6  1  0  0  0  0
  2  1  2  0  0  0  0
  2  3  1  0  0  0  0
  3  4  2  0  0  0  0
  4  5  1  0  0  0  0
  4  9  1  0  0  0  0
  5 10  1  0  0  0  0
  6 11  1  0  0  0  0
  6  5  2  0  0  0  0
  7  1  1  0  0  0  0
  8  2  1  0  0  0  0
 11 13  2  0  0  0  0
 12 11  2  0  0  0  0
 14 15  3  0  0  0  0
 16  3  1  0  0  0  0
 17 16  1  0  0  0  0
 18 17  2  0  0  0  0
 19 17  2  0  0  0  0
M  END
