Coordinates from ORCA-job p-NO2-Ph-N2-NO3-B3LYPG-aug-cc-pVDZ-scan-d09-49-n400
 OpenBabel01151817083D

 19 18  0  0  0  0  0  0  0  0999 V2000
   -0.6280    0.1545   -1.5206 C   0  0  0  0  0  0  0  0  0  0  0  0
    0.7505    0.3346   -1.6210 C   0  0  0  0  0  0  0  0  0  0  0  0
    1.3556    1.3665   -0.8930 C   0  0  0  0  0  0  0  0  0  0  0  0
    0.6062    2.2324   -0.0896 C   0  0  0  0  0  0  0  0  0  0  0  0
   -0.7745    2.0667   -0.0052 C   0  0  0  0  0  0  0  0  0  0  0  0
   -1.3691    1.0219   -0.7159 C   0  0  0  0  0  0  0  0  0  0  0  0
   -1.1341   -0.6376   -2.0663 H   0  0  0  0  0  0  0  0  0  0  0  0
    1.3435   -0.3177   -2.2566 H   0  0  0  0  0  0  0  0  0  0  0  0
    1.1115    3.0328    0.4481 H   0  0  0  0  0  0  0  0  0  0  0  0
   -1.3893    2.7254    0.6026 H   0  0  0  0  0  0  0  0  0  0  0  0
   -2.8301    0.8344   -0.6208 N   0  0  0  0  0  0  0  0  0  0  0  0
   -3.3244   -0.1107   -1.2300 O   0  0  0  0  0  0  0  0  0  0  0  0
   -3.4568    1.6030    0.1040 O   0  0  0  0  0  0  0  0  0  0  0  0
    2.0312    0.3826    2.2008 N   0  0  0  0  0  0  0  0  0  0  0  0
    1.5420   -0.1001    3.0686 N   0  0  0  0  0  0  0  0  0  0  0  0
    2.7008    1.6880   -1.0267 O   0  0  0  0  0  0  0  0  0  0  0  0
    3.6861    0.6097   -0.7644 N   0  0  0  0  0  0  0  0  0  0  0  0
    4.8023    1.0290   -0.8522 O   0  0  0  0  0  0  0  0  0  0  0  0
    3.2623   -0.4870   -0.5211 O   0  0  0  0  0  0  0  0  0  0  0  0
  1  6  1  0  0  0  0
  2  1  2  0  0  0  0
  2  3  1  0  0  0  0
  3  4  2  0  0  0  0
  4  5  1  0  0  0  0
  4  9  1  0  0  0  0
  5 10  1  0  0  0  0
  6 11  1  0  0  0  0
  6  5  2  0  0  0  0
  7  1  1  0  0  0  0
  8  2  1  0  0  0  0
 11 13  2  0  0  0  0
 12 11  2  0  0  0  0
 14 15  3  0  0  0  0
 16  3  1  0  0  0  0
 16 17  1  0  0  0  0
 17 19  2  0  0  0  0
 18 17  2  0  0  0  0
M  END
