Coordinates from ORCA-job p-NO2-Ph-N2-NO3-B3LYPG-aug-cc-pVDZ-scan-d09-49-n400
 OpenBabel01151817073D

 19 18  0  0  0  0  0  0  0  0999 V2000
   -0.6139    0.1257   -1.4352 C   0  0  0  0  0  0  0  0  0  0  0  0
    0.7667    0.2993   -1.5220 C   0  0  0  0  0  0  0  0  0  0  0  0
    1.3601    1.3600   -0.8293 C   0  0  0  0  0  0  0  0  0  0  0  0
    0.5959    2.2640   -0.0809 C   0  0  0  0  0  0  0  0  0  0  0  0
   -0.7849    2.1028   -0.0121 C   0  0  0  0  0  0  0  0  0  0  0  0
   -1.3689    1.0264   -0.6828 C   0  0  0  0  0  0  0  0  0  0  0  0
   -1.1107   -0.6893   -1.9552 H   0  0  0  0  0  0  0  0  0  0  0  0
    1.3645   -0.3812   -2.1209 H   0  0  0  0  0  0  0  0  0  0  0  0
    1.0925    3.0875    0.4284 H   0  0  0  0  0  0  0  0  0  0  0  0
   -1.4082    2.7898    0.5542 H   0  0  0  0  0  0  0  0  0  0  0  0
   -2.8305    0.8429   -0.6038 N   0  0  0  0  0  0  0  0  0  0  0  0
   -3.3183   -0.1152   -1.1979 O   0  0  0  0  0  0  0  0  0  0  0  0
   -3.4727    1.6596    0.0517 O   0  0  0  0  0  0  0  0  0  0  0  0
    1.9910    0.3313    1.9886 N   0  0  0  0  0  0  0  0  0  0  0  0
    1.4611   -0.1953    2.8017 N   0  0  0  0  0  0  0  0  0  0  0  0
    2.7033    1.6967   -0.9443 O   0  0  0  0  0  0  0  0  0  0  0  0
    3.7142    0.6307   -0.7664 N   0  0  0  0  0  0  0  0  0  0  0  0
    4.8178    1.0875   -0.8271 O   0  0  0  0  0  0  0  0  0  0  0  0
    3.3264   -0.4946   -0.6060 O   0  0  0  0  0  0  0  0  0  0  0  0
  1  6  1  0  0  0  0
  2  1  2  0  0  0  0
  2  3  1  0  0  0  0
  3  4  2  0  0  0  0
  4  5  1  0  0  0  0
  4  9  1  0  0  0  0
  5 10  1  0  0  0  0
  6 11  1  0  0  0  0
  6  5  2  0  0  0  0
  7  1  1  0  0  0  0
  8  2  1  0  0  0  0
 11 13  2  0  0  0  0
 12 11  2  0  0  0  0
 14 15  3  0  0  0  0
 16  3  1  0  0  0  0
 16 17  1  0  0  0  0
 17 19  2  0  0  0  0
 18 17  2  0  0  0  0
M  END
