Coordinates from ORCA-job 4-NO2-Ph-N2-HSO4-B3LYPG-6-31G_dp-MTMO-d009-169-n800
 OpenBabel09051908393D

 21 20  0  0  0  0  0  0  0  0999 V2000
   -0.6338   -0.8558    0.8195 C   0  0  0  0  0  0  0  0  0  0  0  0
    0.7425   -0.9456    0.6357 C   0  0  0  0  0  0  0  0  0  0  0  0
    1.5308    0.1759    0.8933 C   0  0  0  0  0  0  0  0  0  0  0  0
    0.9842    1.3819    1.3304 C   0  0  0  0  0  0  0  0  0  0  0  0
   -0.3916    1.4718    1.5199 C   0  0  0  0  0  0  0  0  0  0  0  0
   -1.1773    0.3503    1.2599 C   0  0  0  0  0  0  0  0  0  0  0  0
   -1.2872   -1.6982    0.6320 H   0  0  0  0  0  0  0  0  0  0  0  0
    1.2039   -1.8638    0.2933 H   0  0  0  0  0  0  0  0  0  0  0  0
    1.6351    2.2271    1.5215 H   0  0  0  0  0  0  0  0  0  0  0  0
   -0.8611    2.3856    1.8608 H   0  0  0  0  0  0  0  0  0  0  0  0
   -2.6337    0.4422    1.4602 N   0  0  0  0  0  0  0  0  0  0  0  0
   -3.3043   -0.5614    1.2260 O   0  0  0  0  0  0  0  0  0  0  0  0
   -3.0870    1.5170    1.8502 O   0  0  0  0  0  0  0  0  0  0  0  0
    7.7516    4.0525   -2.3340 N   0  0  0  0  0  0  0  0  0  0  0  0
    6.8831    3.5501   -1.8703 N   0  0  0  0  0  0  0  0  0  0  0  0
    3.6440    0.1013   -0.6857 S   0  0  0  0  0  0  0  0  0  0  0  0
    3.6228    1.6886   -1.0313 O   0  0  0  0  0  0  0  0  0  0  0  0
    4.5010    2.0511   -0.8166 H   0  0  0  0  0  0  0  0  0  0  0  0
    2.7762   -0.5460   -1.6425 O   0  0  0  0  0  0  0  0  0  0  0  0
    5.0119   -0.2953   -0.4286 O   0  0  0  0  0  0  0  0  0  0  0  0
    2.9267    0.0861    0.7985 O   0  0  0  0  0  0  0  0  0  0  0  0
  1  6  1  0  0  0  0
  2  1  2  0  0  0  0
  2  3  1  0  0  0  0
  3  4  2  0  0  0  0
  4  5  1  0  0  0  0
  4  9  1  0  0  0  0
  5 10  1  0  0  0  0
  6 11  1  0  0  0  0
  6  5  2  0  0  0  0
  7  1  1  0  0  0  0
  8  2  1  0  0  0  0
 11 13  2  0  0  0  0
 12 11  2  0  0  0  0
 14 15  3  0  0  0  0
 16 20  2  0  0  0  0
 16 21  1  0  0  0  0
 17 18  1  0  0  0  0
 17 16  1  0  0  0  0
 19 16  2  0  0  0  0
 21  3  1  0  0  0  0
M  END
