Coordinates from ORCA-job 4-NO2-Ph-N2-HSO4-B3LYPG-6-31G_dp-MTMO-d009-169-n800
 OpenBabel09051908393D

 21 20  0  0  0  0  0  0  0  0999 V2000
   -1.1657   -1.0666    1.0221 C   0  0  0  0  0  0  0  0  0  0  0  0
    0.1985   -1.3030    0.8830 C   0  0  0  0  0  0  0  0  0  0  0  0
    1.0913   -0.2595    1.1283 C   0  0  0  0  0  0  0  0  0  0  0  0
    0.6599    1.0096    1.5125 C   0  0  0  0  0  0  0  0  0  0  0  0
   -0.7038    1.2458    1.6580 C   0  0  0  0  0  0  0  0  0  0  0  0
   -1.5936    0.2026    1.4085 C   0  0  0  0  0  0  0  0  0  0  0  0
   -1.8971   -1.8440    0.8418 H   0  0  0  0  0  0  0  0  0  0  0  0
    0.5715   -2.2747    0.5838 H   0  0  0  0  0  0  0  0  0  0  0  0
    1.3882    1.7901    1.6997 H   0  0  0  0  0  0  0  0  0  0  0  0
   -1.0858    2.2132    1.9575 H   0  0  0  0  0  0  0  0  0  0  0  0
   -3.0376    0.4499    1.5618 N   0  0  0  0  0  0  0  0  0  0  0  0
   -3.8014   -0.4872    1.3377 O   0  0  0  0  0  0  0  0  0  0  0  0
   -3.3873    1.5780    1.9049 O   0  0  0  0  0  0  0  0  0  0  0  0
   11.7756    7.6717   -4.2625 N   0  0  0  0  0  0  0  0  0  0  0  0
   10.9874    7.0364   -3.8188 N   0  0  0  0  0  0  0  0  0  0  0  0
    3.2120   -0.6318   -0.3891 S   0  0  0  0  0  0  0  0  0  0  0  0
    3.2071    0.9145   -0.8896 O   0  0  0  0  0  0  0  0  0  0  0  0
    4.0217    1.3326   -0.5605 H   0  0  0  0  0  0  0  0  0  0  0  0
    2.3559   -1.3547   -1.3000 O   0  0  0  0  0  0  0  0  0  0  0  0
    4.5685   -1.0156   -0.0644 O   0  0  0  0  0  0  0  0  0  0  0  0
    2.4724   -0.4919    1.0776 O   0  0  0  0  0  0  0  0  0  0  0  0
  1  6  1  0  0  0  0
  2  1  2  0  0  0  0
  2  3  1  0  0  0  0
  3  4  2  0  0  0  0
  4  5  1  0  0  0  0
  4  9  1  0  0  0  0
  5 10  1  0  0  0  0
  6 11  1  0  0  0  0
  6  5  2  0  0  0  0
  7  1  1  0  0  0  0
  8  2  1  0  0  0  0
 11 13  2  0  0  0  0
 12 11  2  0  0  0  0
 14 15  3  0  0  0  0
 16 20  2  0  0  0  0
 16 21  1  0  0  0  0
 17 18  1  0  0  0  0
 17 16  1  0  0  0  0
 19 16  2  0  0  0  0
 21  3  1  0  0  0  0
M  END
