Coordinates from ORCA-job 4-NO2-Ph-N2-HSO4-B3LYPG-6-31G_dp-MTMO-d009-169-n800
 OpenBabel09051908393D

 21 20  0  0  0  0  0  0  0  0999 V2000
   -1.3414   -1.1814    1.1003 C   0  0  0  0  0  0  0  0  0  0  0  0
    0.0225   -1.4200    0.9622 C   0  0  0  0  0  0  0  0  0  0  0  0
    0.9167   -0.3773    1.2058 C   0  0  0  0  0  0  0  0  0  0  0  0
    0.4869    0.8932    1.5872 C   0  0  0  0  0  0  0  0  0  0  0  0
   -0.8764    1.1316    1.7316 C   0  0  0  0  0  0  0  0  0  0  0  0
   -1.7676    0.0892    1.4839 C   0  0  0  0  0  0  0  0  0  0  0  0
   -2.0738   -1.9581    0.9213 H   0  0  0  0  0  0  0  0  0  0  0  0
    0.3943   -2.3928    0.6652 H   0  0  0  0  0  0  0  0  0  0  0  0
    1.2163    1.6730    1.7731 H   0  0  0  0  0  0  0  0  0  0  0  0
   -1.2573    2.1002    2.0290 H   0  0  0  0  0  0  0  0  0  0  0  0
   -3.2113    0.3388    1.6361 N   0  0  0  0  0  0  0  0  0  0  0  0
   -3.9764   -0.5976    1.4137 O   0  0  0  0  0  0  0  0  0  0  0  0
   -3.5596    1.4682    1.9766 O   0  0  0  0  0  0  0  0  0  0  0  0
   13.4288    8.7852   -4.9889 N   0  0  0  0  0  0  0  0  0  0  0  0
   12.6393    8.1472   -4.5516 N   0  0  0  0  0  0  0  0  0  0  0  0
    3.0376   -0.7545   -0.3099 S   0  0  0  0  0  0  0  0  0  0  0  0
    3.0361    0.7915   -0.8117 O   0  0  0  0  0  0  0  0  0  0  0  0
    3.8515    1.2080   -0.4826 H   0  0  0  0  0  0  0  0  0  0  0  0
    2.1806   -1.4764   -1.2208 O   0  0  0  0  0  0  0  0  0  0  0  0
    4.3932   -1.1406    0.0158 O   0  0  0  0  0  0  0  0  0  0  0  0
    2.2975   -0.6119    1.1562 O   0  0  0  0  0  0  0  0  0  0  0  0
  1  6  1  0  0  0  0
  2  1  2  0  0  0  0
  2  3  1  0  0  0  0
  3  4  2  0  0  0  0
  4  5  1  0  0  0  0
  4  9  1  0  0  0  0
  5 10  1  0  0  0  0
  6 11  1  0  0  0  0
  6  5  2  0  0  0  0
  7  1  1  0  0  0  0
  8  2  1  0  0  0  0
 11 13  2  0  0  0  0
 12 11  2  0  0  0  0
 14 15  3  0  0  0  0
 16 20  2  0  0  0  0
 16 21  1  0  0  0  0
 17 18  1  0  0  0  0
 17 16  1  0  0  0  0
 19 16  2  0  0  0  0
 21  3  1  0  0  0  0
M  END
