Coordinates from ORCA-job 4-NO2-Ph-N2-HSO4-B3LYPG-6-31G_dp-MTMO-d009-169-n800
 OpenBabel09051908393D

 21 20  0  0  0  0  0  0  0  0999 V2000
   -1.3205   -1.1675    1.0912 C   0  0  0  0  0  0  0  0  0  0  0  0
    0.0434   -1.4061    0.9530 C   0  0  0  0  0  0  0  0  0  0  0  0
    0.9376   -0.3634    1.1965 C   0  0  0  0  0  0  0  0  0  0  0  0
    0.5079    0.9071    1.5779 C   0  0  0  0  0  0  0  0  0  0  0  0
   -0.8555    1.1455    1.7225 C   0  0  0  0  0  0  0  0  0  0  0  0
   -1.7467    0.1031    1.4748 C   0  0  0  0  0  0  0  0  0  0  0  0
   -2.0529   -1.9442    0.9123 H   0  0  0  0  0  0  0  0  0  0  0  0
    0.4152   -2.3789    0.6560 H   0  0  0  0  0  0  0  0  0  0  0  0
    1.2372    1.6870    1.7637 H   0  0  0  0  0  0  0  0  0  0  0  0
   -1.2363    2.1141    2.0198 H   0  0  0  0  0  0  0  0  0  0  0  0
   -3.1904    0.3527    1.6272 N   0  0  0  0  0  0  0  0  0  0  0  0
   -3.9555   -0.5837    1.4048 O   0  0  0  0  0  0  0  0  0  0  0  0
   -3.5386    1.4821    1.9676 O   0  0  0  0  0  0  0  0  0  0  0  0
   13.2305    8.6530   -4.9015 N   0  0  0  0  0  0  0  0  0  0  0  0
   12.4411    8.0152   -4.4637 N   0  0  0  0  0  0  0  0  0  0  0  0
    3.0584   -0.7406   -0.3194 S   0  0  0  0  0  0  0  0  0  0  0  0
    3.0568    0.8054   -0.8212 O   0  0  0  0  0  0  0  0  0  0  0  0
    3.8723    1.2219   -0.4922 H   0  0  0  0  0  0  0  0  0  0  0  0
    2.2013   -1.4625   -1.2302 O   0  0  0  0  0  0  0  0  0  0  0  0
    4.4140   -1.1267    0.0062 O   0  0  0  0  0  0  0  0  0  0  0  0
    2.3184   -0.5980    1.1468 O   0  0  0  0  0  0  0  0  0  0  0  0
  1  6  1  0  0  0  0
  2  1  2  0  0  0  0
  2  3  1  0  0  0  0
  3  4  2  0  0  0  0
  4  5  1  0  0  0  0
  4  9  1  0  0  0  0
  5 10  1  0  0  0  0
  6 11  1  0  0  0  0
  6  5  2  0  0  0  0
  7  1  1  0  0  0  0
  8  2  1  0  0  0  0
 11 13  2  0  0  0  0
 12 11  2  0  0  0  0
 14 15  3  0  0  0  0
 16 20  2  0  0  0  0
 16 21  1  0  0  0  0
 17 18  1  0  0  0  0
 17 16  1  0  0  0  0
 19 16  2  0  0  0  0
 21  3  1  0  0  0  0
M  END
