Coordinates from ORCA-job 4-NO2-Ph-N2-HSO4-B3LYPG-6-31G_dp-MTMO-d009-169-n800
 OpenBabel09051908393D

 21 20  0  0  0  0  0  0  0  0999 V2000
   -0.8489   -0.8922    0.8479 C   0  0  0  0  0  0  0  0  0  0  0  0
    0.5216   -1.0861    0.7050 C   0  0  0  0  0  0  0  0  0  0  0  0
    1.3851   -0.0303    0.9980 C   0  0  0  0  0  0  0  0  0  0  0  0
    0.9182    1.2092    1.4341 C   0  0  0  0  0  0  0  0  0  0  0  0
   -0.4517    1.4025    1.5839 C   0  0  0  0  0  0  0  0  0  0  0  0
   -1.3122    0.3475    1.2861 C   0  0  0  0  0  0  0  0  0  0  0  0
   -1.5586   -1.6804    0.6315 H   0  0  0  0  0  0  0  0  0  0  0  0
    0.9215   -2.0338    0.3664 H   0  0  0  0  0  0  0  0  0  0  0  0
    1.6248    2.0000    1.6577 H   0  0  0  0  0  0  0  0  0  0  0  0
   -0.8604    2.3458    1.9225 H   0  0  0  0  0  0  0  0  0  0  0  0
   -2.7629    0.5490    1.4435 N   0  0  0  0  0  0  0  0  0  0  0  0
   -3.5005   -0.3977    1.1761 O   0  0  0  0  0  0  0  0  0  0  0  0
   -3.1442    1.6516    1.8330 O   0  0  0  0  0  0  0  0  0  0  0  0
    9.0524    5.5812   -3.1109 N   0  0  0  0  0  0  0  0  0  0  0  0
    8.2632    4.9884   -2.6136 N   0  0  0  0  0  0  0  0  0  0  0  0
    3.5199   -0.2994   -0.5232 S   0  0  0  0  0  0  0  0  0  0  0  0
    3.4603    1.2566   -0.9880 O   0  0  0  0  0  0  0  0  0  0  0  0
    4.2569    1.6980   -0.6453 H   0  0  0  0  0  0  0  0  0  0  0  0
    2.6926   -1.0309   -1.4538 O   0  0  0  0  0  0  0  0  0  0  0  0
    4.8881   -0.6426   -0.2028 O   0  0  0  0  0  0  0  0  0  0  0  0
    2.7724   -0.2208    0.9440 O   0  0  0  0  0  0  0  0  0  0  0  0
  1  6  1  0  0  0  0
  2  1  2  0  0  0  0
  2  3  1  0  0  0  0
  3  4  2  0  0  0  0
  4  5  1  0  0  0  0
  4  9  1  0  0  0  0
  5 10  1  0  0  0  0
  6 11  1  0  0  0  0
  6  5  2  0  0  0  0
  7  1  1  0  0  0  0
  8  2  1  0  0  0  0
 11 13  2  0  0  0  0
 12 11  2  0  0  0  0
 14 15  3  0  0  0  0
 16 20  2  0  0  0  0
 16 21  1  0  0  0  0
 17 18  1  0  0  0  0
 17 16  1  0  0  0  0
 19 16  2  0  0  0  0
 21  3  1  0  0  0  0
M  END
