Coordinates from ORCA-job 4-NO2-Ph-N2-HSO4-B3LYPG-6-31G_dp-MTMO-d009-169-n800
 OpenBabel09051908393D

 21 20  0  0  0  0  0  0  0  0999 V2000
   -0.7700   -0.8654    0.8181 C   0  0  0  0  0  0  0  0  0  0  0  0
    0.6031   -1.0333    0.6671 C   0  0  0  0  0  0  0  0  0  0  0  0
    1.4488    0.0359    0.9637 C   0  0  0  0  0  0  0  0  0  0  0  0
    0.9617    1.2635    1.4111 C   0  0  0  0  0  0  0  0  0  0  0  0
   -0.4107    1.4308    1.5689 C   0  0  0  0  0  0  0  0  0  0  0  0
   -1.2535    0.3625    1.2676 C   0  0  0  0  0  0  0  0  0  0  0  0
   -1.4663   -1.6648    0.5993 H   0  0  0  0  0  0  0  0  0  0  0  0
    1.0185   -1.9711    0.3193 H   0  0  0  0  0  0  0  0  0  0  0  0
    1.6550    2.0653    1.6369 H   0  0  0  0  0  0  0  0  0  0  0  0
   -0.8347    2.3642    1.9163 H   0  0  0  0  0  0  0  0  0  0  0  0
   -2.7068    0.5365    1.4335 N   0  0  0  0  0  0  0  0  0  0  0  0
   -3.4284   -0.4217    1.1636 O   0  0  0  0  0  0  0  0  0  0  0  0
   -3.1062    1.6292    1.8324 O   0  0  0  0  0  0  0  0  0  0  0  0
    8.5092    5.0402   -2.8338 N   0  0  0  0  0  0  0  0  0  0  0  0
    7.6964    4.4809   -2.3358 N   0  0  0  0  0  0  0  0  0  0  0  0
    3.5808   -0.1828   -0.5697 S   0  0  0  0  0  0  0  0  0  0  0  0
    3.4948    1.3758   -1.0209 O   0  0  0  0  0  0  0  0  0  0  0  0
    4.2903    1.8252   -0.6859 H   0  0  0  0  0  0  0  0  0  0  0  0
    2.7606   -0.9198   -1.5023 O   0  0  0  0  0  0  0  0  0  0  0  0
    4.9560   -0.5070   -0.2587 O   0  0  0  0  0  0  0  0  0  0  0  0
    2.8390   -0.1288    0.9015 O   0  0  0  0  0  0  0  0  0  0  0  0
  1  6  1  0  0  0  0
  2  1  2  0  0  0  0
  2  3  1  0  0  0  0
  3  4  2  0  0  0  0
  4  5  1  0  0  0  0
  4  9  1  0  0  0  0
  5 10  1  0  0  0  0
  6 11  1  0  0  0  0
  6  5  2  0  0  0  0
  7  1  1  0  0  0  0
  8  2  1  0  0  0  0
 11 13  2  0  0  0  0
 12 11  2  0  0  0  0
 14 15  3  0  0  0  0
 16 20  2  0  0  0  0
 16 21  1  0  0  0  0
 17 18  1  0  0  0  0
 17 16  1  0  0  0  0
 19 16  2  0  0  0  0
 21  3  1  0  0  0  0
M  END
