Coordinates from ORCA-job 4-NO2-Ph-N2-HSO4-B3LYPG-6-31G_dp-MTMO-d009-169-n800
 OpenBabel09051908393D

 21 20  0  0  0  0  0  0  0  0999 V2000
   -0.5975   -0.8520    0.8125 C   0  0  0  0  0  0  0  0  0  0  0  0
    0.7793   -0.9153    0.6214 C   0  0  0  0  0  0  0  0  0  0  0  0
    1.5474    0.2202    0.8779 C   0  0  0  0  0  0  0  0  0  0  0  0
    0.9805    1.4149    1.3201 C   0  0  0  0  0  0  0  0  0  0  0  0
   -0.3958    1.4783    1.5167 C   0  0  0  0  0  0  0  0  0  0  0  0
   -1.1614    0.3427    1.2584 C   0  0  0  0  0  0  0  0  0  0  0  0
   -1.2359   -1.7062    0.6263 H   0  0  0  0  0  0  0  0  0  0  0  0
    1.2562   -1.8240    0.2746 H   0  0  0  0  0  0  0  0  0  0  0  0
    1.6167    2.2717    1.5091 H   0  0  0  0  0  0  0  0  0  0  0  0
   -0.8807    2.3825    1.8618 H   0  0  0  0  0  0  0  0  0  0  0  0
   -2.6182    0.4065    1.4664 N   0  0  0  0  0  0  0  0  0  0  0  0
   -3.2710   -0.6091    1.2335 O   0  0  0  0  0  0  0  0  0  0  0  0
   -3.0899    1.4717    1.8610 O   0  0  0  0  0  0  0  0  0  0  0  0
    7.5684    3.7709   -2.2269 N   0  0  0  0  0  0  0  0  0  0  0  0
    6.6813    3.2975   -1.7682 N   0  0  0  0  0  0  0  0  0  0  0  0
    3.6613    0.1873   -0.7073 S   0  0  0  0  0  0  0  0  0  0  0  0
    3.6727    1.7805   -1.0191 O   0  0  0  0  0  0  0  0  0  0  0  0
    4.5779    2.1096   -0.8681 H   0  0  0  0  0  0  0  0  0  0  0  0
    2.7791   -0.4286   -1.6724 O   0  0  0  0  0  0  0  0  0  0  0  0
    5.0225   -0.2405   -0.4630 O   0  0  0  0  0  0  0  0  0  0  0  0
    2.9445    0.1569    0.7774 O   0  0  0  0  0  0  0  0  0  0  0  0
  1  6  1  0  0  0  0
  2  1  2  0  0  0  0
  2  3  1  0  0  0  0
  3  4  2  0  0  0  0
  4  9  1  0  0  0  0
  4  5  1  0  0  0  0
  5 10  1  0  0  0  0
  6 11  1  0  0  0  0
  6  5  2  0  0  0  0
  7  1  1  0  0  0  0
  8  2  1  0  0  0  0
 11 13  2  0  0  0  0
 12 11  2  0  0  0  0
 14 15  3  0  0  0  0
 16 20  2  0  0  0  0
 16 21  1  0  0  0  0
 17 18  1  0  0  0  0
 17 16  1  0  0  0  0
 19 16  2  0  0  0  0
 21  3  1  0  0  0  0
M  END
