Coordinates from ORCA-job 4-NO2-Ph-N2-HSO4-B3LYPG-6-31G_dp-MTMO-d009-169-n800
 OpenBabel09051908393D

 21 20  0  0  0  0  0  0  0  0999 V2000
   -0.6260   -0.8550    0.8169 C   0  0  0  0  0  0  0  0  0  0  0  0
    0.7505   -0.9387    0.6320 C   0  0  0  0  0  0  0  0  0  0  0  0
    1.5342    0.1858    0.8906 C   0  0  0  0  0  0  0  0  0  0  0  0
    0.9828    1.3890    1.3294 C   0  0  0  0  0  0  0  0  0  0  0  0
   -0.3933    1.4728    1.5199 C   0  0  0  0  0  0  0  0  0  0  0  0
   -1.1744    0.3483    1.2591 C   0  0  0  0  0  0  0  0  0  0  0  0
   -1.2760   -1.6999    0.6288 H   0  0  0  0  0  0  0  0  0  0  0  0
    1.2156   -1.8545    0.2882 H   0  0  0  0  0  0  0  0  0  0  0  0
    1.6304    2.2366    1.5209 H   0  0  0  0  0  0  0  0  0  0  0  0
   -0.8664    2.3843    1.8622 H   0  0  0  0  0  0  0  0  0  0  0  0
   -2.6310    0.4337    1.4605 N   0  0  0  0  0  0  0  0  0  0  0  0
   -3.2975   -0.5725    1.2256 O   0  0  0  0  0  0  0  0  0  0  0  0
   -3.0886    1.5061    1.8520 O   0  0  0  0  0  0  0  0  0  0  0  0
    7.7078    3.9883   -2.3176 N   0  0  0  0  0  0  0  0  0  0  0  0
    6.8376    3.4908   -1.8520 N   0  0  0  0  0  0  0  0  0  0  0  0
    3.6486    0.1220   -0.6889 S   0  0  0  0  0  0  0  0  0  0  0  0
    3.6382    1.7115   -1.0242 O   0  0  0  0  0  0  0  0  0  0  0  0
    4.5236    2.0641   -0.8222 H   0  0  0  0  0  0  0  0  0  0  0  0
    2.7769   -0.5148   -1.6493 O   0  0  0  0  0  0  0  0  0  0  0  0
    5.0141   -0.2848   -0.4347 O   0  0  0  0  0  0  0  0  0  0  0  0
    2.9305    0.1020    0.7950 O   0  0  0  0  0  0  0  0  0  0  0  0
  1  6  1  0  0  0  0
  2  1  2  0  0  0  0
  2  3  1  0  0  0  0
  3  4  2  0  0  0  0
  4  5  1  0  0  0  0
  4  9  1  0  0  0  0
  5 10  1  0  0  0  0
  6 11  1  0  0  0  0
  6  5  2  0  0  0  0
  7  1  1  0  0  0  0
  8  2  1  0  0  0  0
 11 13  2  0  0  0  0
 12 11  2  0  0  0  0
 14 15  3  0  0  0  0
 16 20  2  0  0  0  0
 16 21  1  0  0  0  0
 17 18  1  0  0  0  0
 17 16  1  0  0  0  0
 19 16  2  0  0  0  0
 21  3  1  0  0  0  0
M  END
