Coordinates from ORCA-job 4-NO2-Ph-N2-HSO4-B3LYPG-6-31G_dp-MTMO-d009-169-n800
 OpenBabel09051908393D

 21 21  0  0  1  0  0  0  0  0999 V2000
    0.6006   -0.4972    0.1192 C   0  0  0  0  0  0  0  0  0  0  0  0
    1.7396    0.0615   -0.6603 C   0  0  1  0  0  0  0  0  0  0  0  0
    1.5324    1.5110   -0.9301 C   0  0  1  0  0  0  0  0  0  0  0  0
    0.5798    2.3294   -0.2358 C   0  0  0  0  0  0  0  0  0  0  0  0
   -0.3311    1.7446    0.5831 C   0  0  0  0  0  0  0  0  0  0  0  0
   -0.3095    0.3117    0.7013 C   0  0  0  0  0  0  0  0  0  0  0  0
    0.5371   -1.5707    0.2418 H   0  0  0  0  0  0  0  0  0  0  0  0
    1.9315   -0.5152   -1.5681 H   0  0  0  0  0  0  0  0  0  0  0  0
    0.6023    3.4037   -0.3849 H   0  0  0  0  0  0  0  0  0  0  0  0
   -1.0709    2.3119    1.1287 H   0  0  0  0  0  0  0  0  0  0  0  0
   -1.3862   -0.3236    1.5005 N   0  0  0  0  0  0  0  0  0  0  0  0
   -1.4071   -1.5492    1.5702 O   0  0  0  0  0  0  0  0  0  0  0  0
   -2.1945    0.4281    2.0407 O   0  0  0  0  0  0  0  0  0  0  0  0
    2.3508    2.0878   -1.8514 N   0  0  0  0  0  0  0  0  0  0  0  0
    3.0420    2.5540   -2.6197 N   0  0  0  0  0  0  0  0  0  0  0  0
    3.5578    0.6386    1.2979 S   0  0  0  0  0  0  0  0  0  0  0  0
    4.7145   -0.3659    1.8263 O   0  0  0  0  0  0  0  0  0  0  0  0
    5.5420   -0.1215    1.3785 H   0  0  0  0  0  0  0  0  0  0  0  0
    4.1987    1.8471    0.7933 O   0  0  0  0  0  0  0  0  0  0  0  0
    3.0722   -0.2622    0.0403 O   0  0  0  0  0  0  0  0  0  0  0  0
    2.5355    0.6915    2.3206 O   0  0  0  0  0  0  0  0  0  0  0  0
  1  7  1  0  0  0  0
  1  6  2  0  0  0  0
  2  8  1  6  0  0  0
  2 20  1  0  0  0  0
  2  1  1  0  0  0  0
  3 14  1  1  0  0  0
  3  2  1  0  0  0  0
  3  4  1  0  0  0  0
  4  5  2  0  0  0  0
  5  6  1  0  0  0  0
  5 10  1  0  0  0  0
  6 11  1  0  0  0  0
  9  4  1  0  0  0  0
 11 12  2  0  0  0  0
 11 13  2  0  0  0  0
 15 14  1  0  0  0  0
 16 17  1  0  0  0  0
 16 21  2  0  0  0  0
 18 17  1  0  0  0  0
 19 16  2  0  0  0  0
 20 16  1  0  0  0  0
M  RAD  3   3   2  14   2  15   3
M  END
