Coordinates from ORCA-job 4-NO2-Ph-N2-HSO4-B3LYPG-6-31G_dp-MTMO-d009-169-n800
 OpenBabel09051908393D

 21 20  0  0  0  0  0  0  0  0999 V2000
   -0.7790   -0.8678    0.8202 C   0  0  0  0  0  0  0  0  0  0  0  0
    0.5938   -1.0392    0.6705 C   0  0  0  0  0  0  0  0  0  0  0  0
    1.4418    0.0279    0.9679 C   0  0  0  0  0  0  0  0  0  0  0  0
    0.9574    1.2568    1.4148 C   0  0  0  0  0  0  0  0  0  0  0  0
   -0.4148    1.4275    1.5712 C   0  0  0  0  0  0  0  0  0  0  0  0
   -1.2599    0.3613    1.2692 C   0  0  0  0  0  0  0  0  0  0  0  0
   -1.4771   -1.6655    0.6008 H   0  0  0  0  0  0  0  0  0  0  0  0
    1.0072   -1.9780    0.3233 H   0  0  0  0  0  0  0  0  0  0  0  0
    1.6524    2.0569    1.6411 H   0  0  0  0  0  0  0  0  0  0  0  0
   -0.8368    2.3620    1.9181 H   0  0  0  0  0  0  0  0  0  0  0  0
   -2.7129    0.5389    1.4336 N   0  0  0  0  0  0  0  0  0  0  0  0
   -3.4366   -0.4175    1.1630 O   0  0  0  0  0  0  0  0  0  0  0  0
   -3.1100    1.6327    1.8321 O   0  0  0  0  0  0  0  0  0  0  0  0
    8.5667    5.1016   -2.8676 N   0  0  0  0  0  0  0  0  0  0  0  0
    7.7577    4.5384   -2.3678 N   0  0  0  0  0  0  0  0  0  0  0  0
    3.5748   -0.1967   -0.5633 S   0  0  0  0  0  0  0  0  0  0  0  0
    3.4916    1.3617   -1.0160 O   0  0  0  0  0  0  0  0  0  0  0  0
    4.2865    1.8105   -0.6790 H   0  0  0  0  0  0  0  0  0  0  0  0
    2.7543   -0.9331   -1.4962 O   0  0  0  0  0  0  0  0  0  0  0  0
    4.9491   -0.5228   -0.2508 O   0  0  0  0  0  0  0  0  0  0  0  0
    2.8317   -0.1402    0.9071 O   0  0  0  0  0  0  0  0  0  0  0  0
  1  6  1  0  0  0  0
  2  1  2  0  0  0  0
  2  3  1  0  0  0  0
  3  4  2  0  0  0  0
  4  5  1  0  0  0  0
  4  9  1  0  0  0  0
  5 10  1  0  0  0  0
  6 11  1  0  0  0  0
  6  5  2  0  0  0  0
  7  1  1  0  0  0  0
  8  2  1  0  0  0  0
 11 13  2  0  0  0  0
 12 11  2  0  0  0  0
 14 15  3  0  0  0  0
 16 20  2  0  0  0  0
 16 21  1  0  0  0  0
 17 18  1  0  0  0  0
 17 16  1  0  0  0  0
 19 16  2  0  0  0  0
 21  3  1  0  0  0  0
M  END
