Coordinates from ORCA-job 4-NO2-Ph-N2-HSO4-B3LYPG-6-31G_dp-MTMO-d009-169-n800
 OpenBabel09051908393D

 21 20  0  0  0  0  0  0  0  0999 V2000
   -1.0068   -0.9711    0.9418 C   0  0  0  0  0  0  0  0  0  0  0  0
    0.3593   -1.1959    0.8014 C   0  0  0  0  0  0  0  0  0  0  0  0
    1.2441   -0.1489    1.0607 C   0  0  0  0  0  0  0  0  0  0  0  0
    0.8029    1.1121    1.4603 C   0  0  0  0  0  0  0  0  0  0  0  0
   -0.5626    1.3364    1.6072 C   0  0  0  0  0  0  0  0  0  0  0  0
   -1.4444    0.2900    1.3435 C   0  0  0  0  0  0  0  0  0  0  0  0
   -1.7322   -1.7515    0.7509 H   0  0  0  0  0  0  0  0  0  0  0  0
    0.7397   -2.1610    0.4907 H   0  0  0  0  0  0  0  0  0  0  0  0
    1.5253    1.8954    1.6582 H   0  0  0  0  0  0  0  0  0  0  0  0
   -0.9520    2.2973    1.9183 H   0  0  0  0  0  0  0  0  0  0  0  0
   -2.8904    0.5247    1.4982 N   0  0  0  0  0  0  0  0  0  0  0  0
   -3.6471   -0.4150    1.2611 O   0  0  0  0  0  0  0  0  0  0  0  0
   -3.2488    1.6457    1.8553 O   0  0  0  0  0  0  0  0  0  0  0  0
   10.3430    6.6500   -3.6440 N   0  0  0  0  0  0  0  0  0  0  0  0
    9.5570    6.0216   -3.1869 N   0  0  0  0  0  0  0  0  0  0  0  0
    3.3690   -0.4940   -0.4580 S   0  0  0  0  0  0  0  0  0  0  0  0
    3.3477    1.0547   -0.9506 O   0  0  0  0  0  0  0  0  0  0  0  0
    4.1564    1.4809   -0.6172 H   0  0  0  0  0  0  0  0  0  0  0  0
    2.5213   -1.2211   -1.3734 O   0  0  0  0  0  0  0  0  0  0  0  0
    4.7291   -0.8652   -0.1341 O   0  0  0  0  0  0  0  0  0  0  0  0
    2.6271   -0.3696    1.0090 O   0  0  0  0  0  0  0  0  0  0  0  0
  1  6  1  0  0  0  0
  2  1  2  0  0  0  0
  2  3  1  0  0  0  0
  3  4  2  0  0  0  0
  4  5  1  0  0  0  0
  4  9  1  0  0  0  0
  5 10  1  0  0  0  0
  6 11  1  0  0  0  0
  6  5  2  0  0  0  0
  7  1  1  0  0  0  0
  8  2  1  0  0  0  0
 11 13  2  0  0  0  0
 12 11  2  0  0  0  0
 14 15  3  0  0  0  0
 16 20  2  0  0  0  0
 16 21  1  0  0  0  0
 17 18  1  0  0  0  0
 17 16  1  0  0  0  0
 19 16  2  0  0  0  0
 21  3  1  0  0  0  0
M  END
