Coordinates from ORCA-job 4-NO2-Ph-N2-HSO4-B3LYPG-6-31G_dp-MTMO-d009-169-n800
 OpenBabel09051908393D

 21 20  0  0  0  0  0  0  0  0999 V2000
   -0.0255   -0.6537    0.2161 C   0  0  0  0  0  0  0  0  0  0  0  0
    1.3227   -0.7249    0.5524 C   0  0  0  0  0  0  0  0  0  0  0  0
    1.9047    0.3455    1.2313 C   0  0  0  0  0  0  0  0  0  0  0  0
    1.1779    1.4809    1.5872 C   0  0  0  0  0  0  0  0  0  0  0  0
   -0.1720    1.5511    1.2568 C   0  0  0  0  0  0  0  0  0  0  0  0
   -0.7499    0.4821    0.5746 C   0  0  0  0  0  0  0  0  0  0  0  0
   -0.5219   -1.4580   -0.3118 H   0  0  0  0  0  0  0  0  0  0  0  0
    1.9214   -1.5887    0.2913 H   0  0  0  0  0  0  0  0  0  0  0  0
    1.6689    2.2879    2.1187 H   0  0  0  0  0  0  0  0  0  0  0  0
   -0.7779    2.4105    1.5139 H   0  0  0  0  0  0  0  0  0  0  0  0
   -2.1781    0.5554    0.2216 N   0  0  0  0  0  0  0  0  0  0  0  0
   -2.6652   -0.4007   -0.3787 O   0  0  0  0  0  0  0  0  0  0  0  0
   -2.7929    1.5687    0.5497 O   0  0  0  0  0  0  0  0  0  0  0  0
    2.1646    1.6945   -2.6572 N   0  0  0  0  0  0  0  0  0  0  0  0
    2.8726    1.7508   -3.5038 N   0  0  0  0  0  0  0  0  0  0  0  0
    4.4427    0.4850    0.5458 S   0  0  0  0  0  0  0  0  0  0  0  0
    4.3536    2.0894    0.3000 O   0  0  0  0  0  0  0  0  0  0  0  0
    4.9217    2.5208    0.9618 H   0  0  0  0  0  0  0  0  0  0  0  0
    4.0759   -0.1342   -0.7066 O   0  0  0  0  0  0  0  0  0  0  0  0
    5.6542    0.1888    1.2785 O   0  0  0  0  0  0  0  0  0  0  0  0
    3.2401    0.2641    1.6504 O   0  0  0  0  0  0  0  0  0  0  0  0
  1  2  2  0  0  0  0
  1  6  1  0  0  0  0
  2  3  1  0  0  0  0
  3  4  2  0  0  0  0
  3 21  1  0  0  0  0
  4  9  1  0  0  0  0
  5 10  1  0  0  0  0
  5  4  1  0  0  0  0
  6  5  2  0  0  0  0
  7  1  1  0  0  0  0
  8  2  1  0  0  0  0
 11 13  2  0  0  0  0
 11  6  1  0  0  0  0
 12 11  2  0  0  0  0
 15 14  3  0  0  0  0
 16 20  2  0  0  0  0
 16 21  1  0  0  0  0
 17 16  1  0  0  0  0
 17 18  1  0  0  0  0
 19 16  2  0  0  0  0
M  END
