Coordinates from ORCA-job 4-NO2-Ph-N2-HSO4-B3LYPG-6-31G_dp-MTMO-d009-169-n800
 OpenBabel09051908393D

 21 20  0  0  0  0  0  0  0  0999 V2000
   -0.8810   -0.9061    0.8663 C   0  0  0  0  0  0  0  0  0  0  0  0
    0.4884   -1.1085    0.7245 C   0  0  0  0  0  0  0  0  0  0  0  0
    1.3578   -0.0556    1.0106 C   0  0  0  0  0  0  0  0  0  0  0  0
    0.8980    1.1893    1.4386 C   0  0  0  0  0  0  0  0  0  0  0  0
   -0.4708    1.3911    1.5871 C   0  0  0  0  0  0  0  0  0  0  0  0
   -1.3373    0.3390    1.2963 C   0  0  0  0  0  0  0  0  0  0  0  0
   -1.5950   -1.6917    0.6550 H   0  0  0  0  0  0  0  0  0  0  0  0
    0.8830   -2.0607    0.3922 H   0  0  0  0  0  0  0  0  0  0  0  0
    1.6089    1.9776    1.6570 H   0  0  0  0  0  0  0  0  0  0  0  0
   -0.8743    2.3389    1.9195 H   0  0  0  0  0  0  0  0  0  0  0  0
   -2.7868    0.5498    1.4524 N   0  0  0  0  0  0  0  0  0  0  0  0
   -3.5297   -0.3945    1.1912 O   0  0  0  0  0  0  0  0  0  0  0  0
   -3.1618    1.6569    1.8348 O   0  0  0  0  0  0  0  0  0  0  0  0
    9.2956    5.8032   -3.2141 N   0  0  0  0  0  0  0  0  0  0  0  0
    8.5097    5.1990   -2.7253 N   0  0  0  0  0  0  0  0  0  0  0  0
    3.4910   -0.3447   -0.5090 S   0  0  0  0  0  0  0  0  0  0  0  0
    3.4415    1.2096   -0.9807 O   0  0  0  0  0  0  0  0  0  0  0  0
    4.2404    1.6475   -0.6389 H   0  0  0  0  0  0  0  0  0  0  0  0
    2.6590   -1.0750   -1.4364 O   0  0  0  0  0  0  0  0  0  0  0  0
    4.8570   -0.6952   -0.1870 O   0  0  0  0  0  0  0  0  0  0  0  0
    2.7440   -0.2545    0.9578 O   0  0  0  0  0  0  0  0  0  0  0  0
  1  6  1  0  0  0  0
  2  1  2  0  0  0  0
  2  3  1  0  0  0  0
  3  4  2  0  0  0  0
  4  5  1  0  0  0  0
  4  9  1  0  0  0  0
  5 10  1  0  0  0  0
  6 11  1  0  0  0  0
  6  5  2  0  0  0  0
  7  1  1  0  0  0  0
  8  2  1  0  0  0  0
 11 13  2  0  0  0  0
 12 11  2  0  0  0  0
 14 15  3  0  0  0  0
 16 20  2  0  0  0  0
 16 21  1  0  0  0  0
 17 18  1  0  0  0  0
 17 16  1  0  0  0  0
 19 16  2  0  0  0  0
 21  3  1  0  0  0  0
M  END
