Coordinates from ORCA-job 4-NO2-Ph-N2-HSO4-B3LYPG-6-31G_dp-MTMO-d009-169-n800
 OpenBabel09051908393D

 21 20  0  0  0  0  0  0  0  0999 V2000
   -0.5611   -0.8461    0.8290 C   0  0  0  0  0  0  0  0  0  0  0  0
    0.8137   -0.9051    0.6226 C   0  0  0  0  0  0  0  0  0  0  0  0
    1.5785    0.2390    0.8497 C   0  0  0  0  0  0  0  0  0  0  0  0
    1.0097    1.4381    1.2776 C   0  0  0  0  0  0  0  0  0  0  0  0
   -0.3645    1.4974    1.4894 C   0  0  0  0  0  0  0  0  0  0  0  0
   -1.1267    0.3531    1.2603 C   0  0  0  0  0  0  0  0  0  0  0  0
   -1.1967   -1.7071    0.6655 H   0  0  0  0  0  0  0  0  0  0  0  0
    1.2919   -1.8168    0.2860 H   0  0  0  0  0  0  0  0  0  0  0  0
    1.6431    2.3017    1.4437 H   0  0  0  0  0  0  0  0  0  0  0  0
   -0.8505    2.4048    1.8242 H   0  0  0  0  0  0  0  0  0  0  0  0
   -2.5811    0.4127    1.4842 N   0  0  0  0  0  0  0  0  0  0  0  0
   -3.2310   -0.6105    1.2772 O   0  0  0  0  0  0  0  0  0  0  0  0
   -3.0544    1.4822    1.8654 O   0  0  0  0  0  0  0  0  0  0  0  0
    7.4070    3.6000   -1.9516 N   0  0  0  0  0  0  0  0  0  0  0  0
    6.4657    3.1635   -1.5725 N   0  0  0  0  0  0  0  0  0  0  0  0
    3.6653    0.2073   -0.7653 S   0  0  0  0  0  0  0  0  0  0  0  0
    3.6117    1.7911   -1.1061 O   0  0  0  0  0  0  0  0  0  0  0  0
    4.5074    2.1585   -0.9816 H   0  0  0  0  0  0  0  0  0  0  0  0
    2.7911   -0.4614   -1.7021 O   0  0  0  0  0  0  0  0  0  0  0  0
    5.0445   -0.1681   -0.5353 O   0  0  0  0  0  0  0  0  0  0  0  0
    2.9741    0.1809    0.7320 O   0  0  0  0  0  0  0  0  0  0  0  0
  1  6  1  0  0  0  0
  2  1  2  0  0  0  0
  2  3  1  0  0  0  0
  3  4  2  0  0  0  0
  4  9  1  0  0  0  0
  4  5  1  0  0  0  0
  5 10  1  0  0  0  0
  6 11  1  0  0  0  0
  6  5  2  0  0  0  0
  7  1  1  0  0  0  0
  8  2  1  0  0  0  0
 11 13  2  0  0  0  0
 12 11  2  0  0  0  0
 14 15  3  0  0  0  0
 16 20  2  0  0  0  0
 16 21  1  0  0  0  0
 17 18  1  0  0  0  0
 17 16  1  0  0  0  0
 19 16  2  0  0  0  0
 21  3  1  0  0  0  0
M  END
