Coordinates from ORCA-job 4-NO2-Ph-N2-HSO4-B3LYPG-6-31G_dp-MTMO-d009-169-n800
 OpenBabel09051908393D

 21 20  0  0  0  0  0  0  0  0999 V2000
   -1.1627   -1.0647    1.0207 C   0  0  0  0  0  0  0  0  0  0  0  0
    0.2015   -1.3010    0.8815 C   0  0  0  0  0  0  0  0  0  0  0  0
    1.0943   -0.2575    1.1270 C   0  0  0  0  0  0  0  0  0  0  0  0
    0.6628    1.0116    1.5113 C   0  0  0  0  0  0  0  0  0  0  0  0
   -0.7009    1.2477    1.6568 C   0  0  0  0  0  0  0  0  0  0  0  0
   -1.5906    0.2045    1.4072 C   0  0  0  0  0  0  0  0  0  0  0  0
   -1.8940   -1.8421    0.8402 H   0  0  0  0  0  0  0  0  0  0  0  0
    0.5746   -2.2726    0.5823 H   0  0  0  0  0  0  0  0  0  0  0  0
    1.3910    1.7921    1.6986 H   0  0  0  0  0  0  0  0  0  0  0  0
   -1.0830    2.2151    1.9565 H   0  0  0  0  0  0  0  0  0  0  0  0
   -3.0347    0.4516    1.5606 N   0  0  0  0  0  0  0  0  0  0  0  0
   -3.7985   -0.4855    1.3363 O   0  0  0  0  0  0  0  0  0  0  0  0
   -3.3845    1.5796    1.9037 O   0  0  0  0  0  0  0  0  0  0  0  0
   11.7474    7.6524   -4.2502 N   0  0  0  0  0  0  0  0  0  0  0  0
   10.9593    7.0172   -3.8064 N   0  0  0  0  0  0  0  0  0  0  0  0
    3.2150   -0.6295   -0.3904 S   0  0  0  0  0  0  0  0  0  0  0  0
    3.2100    0.9168   -0.8909 O   0  0  0  0  0  0  0  0  0  0  0  0
    4.0245    1.3350   -0.5617 H   0  0  0  0  0  0  0  0  0  0  0  0
    2.3590   -1.3524   -1.3014 O   0  0  0  0  0  0  0  0  0  0  0  0
    4.5715   -1.0132   -0.0657 O   0  0  0  0  0  0  0  0  0  0  0  0
    2.4754   -0.4897    1.0763 O   0  0  0  0  0  0  0  0  0  0  0  0
  1  6  1  0  0  0  0
  2  1  2  0  0  0  0
  2  3  1  0  0  0  0
  3  4  2  0  0  0  0
  4  5  1  0  0  0  0
  4  9  1  0  0  0  0
  5 10  1  0  0  0  0
  6 11  1  0  0  0  0
  6  5  2  0  0  0  0
  7  1  1  0  0  0  0
  8  2  1  0  0  0  0
 11 13  2  0  0  0  0
 12 11  2  0  0  0  0
 14 15  3  0  0  0  0
 16 20  2  0  0  0  0
 16 21  1  0  0  0  0
 17 18  1  0  0  0  0
 17 16  1  0  0  0  0
 19 16  2  0  0  0  0
 21  3  1  0  0  0  0
M  END
