Coordinates from ORCA-job 4-NO2-Ph-N2-HSO4-B3LYPG-6-31G_dp-MTMO-d009-169-n800
 OpenBabel09051908393D

 21 20  0  0  0  0  0  0  0  0999 V2000
   -0.8557   -0.8951    0.8517 C   0  0  0  0  0  0  0  0  0  0  0  0
    0.5145   -1.0909    0.7091 C   0  0  0  0  0  0  0  0  0  0  0  0
    1.3794   -0.0358    1.0007 C   0  0  0  0  0  0  0  0  0  0  0  0
    0.9141    1.2049    1.4351 C   0  0  0  0  0  0  0  0  0  0  0  0
   -0.4556    1.4001    1.5845 C   0  0  0  0  0  0  0  0  0  0  0  0
   -1.3175    0.3458    1.2882 C   0  0  0  0  0  0  0  0  0  0  0  0
   -1.5663   -1.6827    0.6363 H   0  0  0  0  0  0  0  0  0  0  0  0
    0.9133   -2.0396    0.3718 H   0  0  0  0  0  0  0  0  0  0  0  0
    1.6216    1.9951    1.6576 H   0  0  0  0  0  0  0  0  0  0  0  0
   -0.8632    2.3444    1.9218 H   0  0  0  0  0  0  0  0  0  0  0  0
   -2.7679    0.5494    1.4453 N   0  0  0  0  0  0  0  0  0  0  0  0
   -3.5066   -0.3968    1.1793 O   0  0  0  0  0  0  0  0  0  0  0  0
   -3.1478    1.6529    1.8333 O   0  0  0  0  0  0  0  0  0  0  0  0
    9.1032    5.6282   -3.1329 N   0  0  0  0  0  0  0  0  0  0  0  0
    8.3149    5.0329   -2.6371 N   0  0  0  0  0  0  0  0  0  0  0  0
    3.5139   -0.3091   -0.5201 S   0  0  0  0  0  0  0  0  0  0  0  0
    3.4564    1.2467   -0.9862 O   0  0  0  0  0  0  0  0  0  0  0  0
    4.2534    1.6873   -0.6434 H   0  0  0  0  0  0  0  0  0  0  0  0
    2.6856   -1.0402   -1.4502 O   0  0  0  0  0  0  0  0  0  0  0  0
    4.8816   -0.6539   -0.1994 O   0  0  0  0  0  0  0  0  0  0  0  0
    2.7664   -0.2281    0.9470 O   0  0  0  0  0  0  0  0  0  0  0  0
  1  6  1  0  0  0  0
  2  1  2  0  0  0  0
  2  3  1  0  0  0  0
  3  4  2  0  0  0  0
  4  5  1  0  0  0  0
  4  9  1  0  0  0  0
  5 10  1  0  0  0  0
  6 11  1  0  0  0  0
  6  5  2  0  0  0  0
  7  1  1  0  0  0  0
  8  2  1  0  0  0  0
 11 13  2  0  0  0  0
 12 11  2  0  0  0  0
 14 15  3  0  0  0  0
 16 20  2  0  0  0  0
 16 21  1  0  0  0  0
 17 18  1  0  0  0  0
 17 16  1  0  0  0  0
 19 16  2  0  0  0  0
 21  3  1  0  0  0  0
M  END
