Coordinates from ORCA-job 4-NO2-Ph-N2-HSO4-B3LYPG-6-31G_dp-MTMO-d009-169-n800
 OpenBabel09051908393D

 21 20  0  0  0  0  0  0  0  0999 V2000
   -0.5863   -0.8518    0.8156 C   0  0  0  0  0  0  0  0  0  0  0  0
    0.7902   -0.9093    0.6205 C   0  0  0  0  0  0  0  0  0  0  0  0
    1.5539    0.2305    0.8713 C   0  0  0  0  0  0  0  0  0  0  0  0
    0.9827    1.4239    1.3117 C   0  0  0  0  0  0  0  0  0  0  0  0
   -0.3933    1.4815    1.5123 C   0  0  0  0  0  0  0  0  0  0  0  0
   -1.1544    0.3416    1.2597 C   0  0  0  0  0  0  0  0  0  0  0  0
   -1.2213   -1.7095    0.6340 H   0  0  0  0  0  0  0  0  0  0  0  0
    1.2702   -1.8167    0.2749 H   0  0  0  0  0  0  0  0  0  0  0  0
    1.6156    2.2842    1.4961 H   0  0  0  0  0  0  0  0  0  0  0  0
   -0.8813    2.3844    1.8562 H   0  0  0  0  0  0  0  0  0  0  0  0
   -2.6108    0.3993    1.4718 N   0  0  0  0  0  0  0  0  0  0  0  0
   -3.2597   -0.6200    1.2440 O   0  0  0  0  0  0  0  0  0  0  0  0
   -3.0863    1.4636    1.8645 O   0  0  0  0  0  0  0  0  0  0  0  0
    7.5332    3.6940   -2.1668 N   0  0  0  0  0  0  0  0  0  0  0  0
    6.6317    3.2367   -1.7201 N   0  0  0  0  0  0  0  0  0  0  0  0
    3.6621    0.2070   -0.7211 S   0  0  0  0  0  0  0  0  0  0  0  0
    3.6631    1.7999   -1.0317 O   0  0  0  0  0  0  0  0  0  0  0  0
    4.5711    2.1318   -0.9024 H   0  0  0  0  0  0  0  0  0  0  0  0
    2.7796   -0.4150   -1.6821 O   0  0  0  0  0  0  0  0  0  0  0  0
    5.0266   -0.2138   -0.4827 O   0  0  0  0  0  0  0  0  0  0  0  0
    2.9509    0.1732    0.7663 O   0  0  0  0  0  0  0  0  0  0  0  0
  1  6  1  0  0  0  0
  2  1  2  0  0  0  0
  2  3  1  0  0  0  0
  3  4  2  0  0  0  0
  4  9  1  0  0  0  0
  4  5  1  0  0  0  0
  5 10  1  0  0  0  0
  6 11  1  0  0  0  0
  6  5  2  0  0  0  0
  7  1  1  0  0  0  0
  8  2  1  0  0  0  0
 11 13  2  0  0  0  0
 12 11  2  0  0  0  0
 14 15  3  0  0  0  0
 16 20  2  0  0  0  0
 16 21  1  0  0  0  0
 17 18  1  0  0  0  0
 17 16  1  0  0  0  0
 19 16  2  0  0  0  0
 21  3  1  0  0  0  0
M  END
