Coordinates from ORCA-job 4-NO2-Ph-N2-HSO4-B3LYPG-6-31G_dp-MTMO-d009-169-n800
 OpenBabel09051908393D

 21 20  0  0  0  0  0  0  0  0999 V2000
   -0.0357   -0.6249    0.1968 C   0  0  0  0  0  0  0  0  0  0  0  0
    1.3159   -0.6949    0.5197 C   0  0  0  0  0  0  0  0  0  0  0  0
    1.8911    0.3532    1.2381 C   0  0  0  0  0  0  0  0  0  0  0  0
    1.1539    1.4636    1.6476 C   0  0  0  0  0  0  0  0  0  0  0  0
   -0.1994    1.5317    1.3312 C   0  0  0  0  0  0  0  0  0  0  0  0
   -0.7705    0.4859    0.6086 C   0  0  0  0  0  0  0  0  0  0  0  0
   -0.5271   -1.4124   -0.3605 H   0  0  0  0  0  0  0  0  0  0  0  0
    1.9218   -1.5399    0.2171 H   0  0  0  0  0  0  0  0  0  0  0  0
    1.6398    2.2527    2.2099 H   0  0  0  0  0  0  0  0  0  0  0  0
   -0.8129    2.3722    1.6294 H   0  0  0  0  0  0  0  0  0  0  0  0
   -2.2022    0.5570    0.2697 N   0  0  0  0  0  0  0  0  0  0  0  0
   -2.6838   -0.3803   -0.3638 O   0  0  0  0  0  0  0  0  0  0  0  0
   -2.8252    1.5500    0.6417 O   0  0  0  0  0  0  0  0  0  0  0  0
    2.3249    1.6418   -2.8246 N   0  0  0  0  0  0  0  0  0  0  0  0
    3.0886    1.6409   -3.6234 N   0  0  0  0  0  0  0  0  0  0  0  0
    4.4270    0.5012    0.5383 S   0  0  0  0  0  0  0  0  0  0  0  0
    4.3132    2.1009    0.2747 O   0  0  0  0  0  0  0  0  0  0  0  0
    4.8760    2.5492    0.9297 H   0  0  0  0  0  0  0  0  0  0  0  0
    4.0689   -0.1369   -0.7073 O   0  0  0  0  0  0  0  0  0  0  0  0
    5.6434    0.2300    1.2723 O   0  0  0  0  0  0  0  0  0  0  0  0
    3.2299    0.2743    1.6470 O   0  0  0  0  0  0  0  0  0  0  0  0
  1  2  2  0  0  0  0
  1  6  1  0  0  0  0
  2  3  1  0  0  0  0
  3 21  1  0  0  0  0
  3  4  2  0  0  0  0
  4  9  1  0  0  0  0
  5 10  1  0  0  0  0
  5  4  1  0  0  0  0
  6  5  2  0  0  0  0
  7  1  1  0  0  0  0
  8  2  1  0  0  0  0
 11  6  1  0  0  0  0
 11 13  2  0  0  0  0
 12 11  2  0  0  0  0
 15 14  3  0  0  0  0
 16 20  2  0  0  0  0
 16 21  1  0  0  0  0
 17 16  1  0  0  0  0
 17 18  1  0  0  0  0
 19 16  2  0  0  0  0
M  END
