Coordinates from ORCA-job 4-NO2-Ph-N2-HSO4-B3LYPG-6-31G_dp-MTMO-d009-169-n800
 OpenBabel09051908393D

 21 20  0  0  0  0  0  0  0  0999 V2000
   -0.5810   -0.8506    0.8174 C   0  0  0  0  0  0  0  0  0  0  0  0
    0.7952   -0.9086    0.6208 C   0  0  0  0  0  0  0  0  0  0  0  0
    1.5593    0.2318    0.8676 C   0  0  0  0  0  0  0  0  0  0  0  0
    0.9887    1.4264    1.3055 C   0  0  0  0  0  0  0  0  0  0  0  0
   -0.3871    1.4846    1.5075 C   0  0  0  0  0  0  0  0  0  0  0  0
   -1.1486    0.3440    1.2589 C   0  0  0  0  0  0  0  0  0  0  0  0
   -1.2163   -1.7088    0.6388 H   0  0  0  0  0  0  0  0  0  0  0  0
    1.2749   -1.8169    0.2770 H   0  0  0  0  0  0  0  0  0  0  0  0
    1.6217    2.2872    1.4868 H   0  0  0  0  0  0  0  0  0  0  0  0
   -0.8747    2.3884    1.8495 H   0  0  0  0  0  0  0  0  0  0  0  0
   -2.6047    0.4024    1.4726 N   0  0  0  0  0  0  0  0  0  0  0  0
   -3.2539   -0.6175    1.2483 O   0  0  0  0  0  0  0  0  0  0  0  0
   -3.0797    1.4677    1.8629 O   0  0  0  0  0  0  0  0  0  0  0  0
    7.4963    3.6728   -2.1301 N   0  0  0  0  0  0  0  0  0  0  0  0
    6.5904    3.2164   -1.6917 N   0  0  0  0  0  0  0  0  0  0  0  0
    3.6642    0.2089   -0.7282 S   0  0  0  0  0  0  0  0  0  0  0  0
    3.6584    1.8010   -1.0405 O   0  0  0  0  0  0  0  0  0  0  0  0
    4.5653    2.1371   -0.9131 H   0  0  0  0  0  0  0  0  0  0  0  0
    2.7822   -0.4179   -1.6866 O   0  0  0  0  0  0  0  0  0  0  0  0
    5.0307   -0.2067   -0.4920 O   0  0  0  0  0  0  0  0  0  0  0  0
    2.9561    0.1739    0.7607 O   0  0  0  0  0  0  0  0  0  0  0  0
  1  6  1  0  0  0  0
  2  1  2  0  0  0  0
  2  3  1  0  0  0  0
  3  4  2  0  0  0  0
  4  9  1  0  0  0  0
  4  5  1  0  0  0  0
  5 10  1  0  0  0  0
  6 11  1  0  0  0  0
  6  5  2  0  0  0  0
  7  1  1  0  0  0  0
  8  2  1  0  0  0  0
 11 13  2  0  0  0  0
 12 11  2  0  0  0  0
 14 15  3  0  0  0  0
 16 20  2  0  0  0  0
 16 21  1  0  0  0  0
 17 18  1  0  0  0  0
 17 16  1  0  0  0  0
 19 16  2  0  0  0  0
 21  3  1  0  0  0  0
M  END
