Coordinates from ORCA-job 4-NO2-Ph-N2-HSO4-B3LYPG-6-31G_dp-MTMO-d009-169-n800
 OpenBabel09051908393D

 21 20  0  0  0  0  0  0  0  0999 V2000
   -0.2462   -0.7019    0.4067 C   0  0  0  0  0  0  0  0  0  0  0  0
    1.1346   -0.7302    0.5770 C   0  0  0  0  0  0  0  0  0  0  0  0
    1.7576    0.3484    1.2052 C   0  0  0  0  0  0  0  0  0  0  0  0
    1.0403    1.4498    1.6710 C   0  0  0  0  0  0  0  0  0  0  0  0
   -0.3414    1.4766    1.5067 C   0  0  0  0  0  0  0  0  0  0  0  0
   -0.9607    0.3996    0.8753 C   0  0  0  0  0  0  0  0  0  0  0  0
   -0.7748   -1.5147   -0.0750 H   0  0  0  0  0  0  0  0  0  0  0  0
    1.7262   -1.5665    0.2260 H   0  0  0  0  0  0  0  0  0  0  0  0
    1.5645    2.2640    2.1580 H   0  0  0  0  0  0  0  0  0  0  0  0
   -0.9403    2.3086    1.8542 H   0  0  0  0  0  0  0  0  0  0  0  0
   -2.4230    0.4262    0.6989 N   0  0  0  0  0  0  0  0  0  0  0  0
   -2.9463   -0.5380    0.1437 O   0  0  0  0  0  0  0  0  0  0  0  0
   -3.0278    1.4118    1.1175 O   0  0  0  0  0  0  0  0  0  0  0  0
    4.1211    1.8006   -3.9181 N   0  0  0  0  0  0  0  0  0  0  0  0
    4.9429    2.0085   -3.2092 N   0  0  0  0  0  0  0  0  0  0  0  0
    4.1936    0.5604    0.2281 S   0  0  0  0  0  0  0  0  0  0  0  0
    4.0109    2.1562   -0.0194 O   0  0  0  0  0  0  0  0  0  0  0  0
    4.6703    2.6168    0.5280 H   0  0  0  0  0  0  0  0  0  0  0  0
    3.7092   -0.0923   -0.9660 O   0  0  0  0  0  0  0  0  0  0  0  0
    5.4924    0.3217    0.8185 O   0  0  0  0  0  0  0  0  0  0  0  0
    3.1344    0.3098    1.4652 O   0  0  0  0  0  0  0  0  0  0  0  0
  1  2  2  0  0  0  0
  1  6  1  0  0  0  0
  2  3  1  0  0  0  0
  3 21  1  0  0  0  0
  3  4  2  0  0  0  0
  4  9  1  0  0  0  0
  5  4  1  0  0  0  0
  5 10  1  0  0  0  0
  6  5  2  0  0  0  0
  7  1  1  0  0  0  0
  8  2  1  0  0  0  0
 11  6  1  0  0  0  0
 11 13  2  0  0  0  0
 12 11  2  0  0  0  0
 14 15  3  0  0  0  0
 16 20  2  0  0  0  0
 16 21  1  0  0  0  0
 17 16  1  0  0  0  0
 17 18  1  0  0  0  0
 19 16  2  0  0  0  0
M  END
