Coordinates from ORCA-job 4-NO2-Ph-N2-HSO4-B3LYPG-6-31G_dp-MTMO-d009-169-n800
 OpenBabel09051908393D

 21 20  0  0  0  0  0  0  0  0999 V2000
   -1.0894   -1.0190    0.9846 C   0  0  0  0  0  0  0  0  0  0  0  0
    0.2754   -1.2516    0.8451 C   0  0  0  0  0  0  0  0  0  0  0  0
    1.1657   -0.2072    1.0955 C   0  0  0  0  0  0  0  0  0  0  0  0
    0.7311    1.0592    1.4852 C   0  0  0  0  0  0  0  0  0  0  0  0
   -0.6332    1.2916    1.6312 C   0  0  0  0  0  0  0  0  0  0  0  0
   -1.5204    0.2475    1.3765 C   0  0  0  0  0  0  0  0  0  0  0  0
   -1.8189   -1.7972    0.8004 H   0  0  0  0  0  0  0  0  0  0  0  0
    0.6508   -2.2211    0.5418 H   0  0  0  0  0  0  0  0  0  0  0  0
    1.4575    1.8405    1.6764 H   0  0  0  0  0  0  0  0  0  0  0  0
   -1.0176    2.2568    1.9349 H   0  0  0  0  0  0  0  0  0  0  0  0
   -2.9651    0.4907    1.5302 N   0  0  0  0  0  0  0  0  0  0  0  0
   -3.7267   -0.4470    1.3011 O   0  0  0  0  0  0  0  0  0  0  0  0
   -3.3176    1.6163    1.8784 O   0  0  0  0  0  0  0  0  0  0  0  0
   11.0749    7.1844   -3.9585 N   0  0  0  0  0  0  0  0  0  0  0  0
   10.2878    6.5511   -3.5101 N   0  0  0  0  0  0  0  0  0  0  0  0
    3.2878   -0.5709   -0.4222 S   0  0  0  0  0  0  0  0  0  0  0  0
    3.2776    0.9761   -0.9206 O   0  0  0  0  0  0  0  0  0  0  0  0
    4.0904    1.3969   -0.5902 H   0  0  0  0  0  0  0  0  0  0  0  0
    2.4345   -1.2953   -1.3345 O   0  0  0  0  0  0  0  0  0  0  0  0
    4.6455   -0.9505   -0.0977 O   0  0  0  0  0  0  0  0  0  0  0  0
    2.5474   -0.4358    1.0445 O   0  0  0  0  0  0  0  0  0  0  0  0
  1  6  1  0  0  0  0
  2  1  2  0  0  0  0
  2  3  1  0  0  0  0
  3  4  2  0  0  0  0
  4  5  1  0  0  0  0
  4  9  1  0  0  0  0
  5 10  1  0  0  0  0
  6 11  1  0  0  0  0
  6  5  2  0  0  0  0
  7  1  1  0  0  0  0
  8  2  1  0  0  0  0
 11 13  2  0  0  0  0
 12 11  2  0  0  0  0
 14 15  3  0  0  0  0
 16 20  2  0  0  0  0
 16 21  1  0  0  0  0
 17 18  1  0  0  0  0
 17 16  1  0  0  0  0
 19 16  2  0  0  0  0
 21  3  1  0  0  0  0
M  END
