Coordinates from ORCA-job 4-NO2-Ph-N2-HSO4-B3LYPG-6-31G_dp-MTMO-d009-169-n800
 OpenBabel09051908393D

 21 20  0  0  0  0  0  0  0  0999 V2000
   -0.8388   -0.8881    0.8431 C   0  0  0  0  0  0  0  0  0  0  0  0
    0.5320   -1.0793    0.6995 C   0  0  0  0  0  0  0  0  0  0  0  0
    1.3937   -0.0223    0.9938 C   0  0  0  0  0  0  0  0  0  0  0  0
    0.9247    1.2158    1.4317 C   0  0  0  0  0  0  0  0  0  0  0  0
   -0.4455    1.4063    1.5821 C   0  0  0  0  0  0  0  0  0  0  0  0
   -1.3042    0.3501    1.2831 C   0  0  0  0  0  0  0  0  0  0  0  0
   -1.5470   -1.6774    0.6258 H   0  0  0  0  0  0  0  0  0  0  0  0
    0.9337   -2.0258    0.3595 H   0  0  0  0  0  0  0  0  0  0  0  0
    1.6299    2.0075    1.6561 H   0  0  0  0  0  0  0  0  0  0  0  0
   -0.8559    2.3484    1.9220 H   0  0  0  0  0  0  0  0  0  0  0  0
   -2.7552    0.5488    1.4412 N   0  0  0  0  0  0  0  0  0  0  0  0
   -3.4911   -0.3990    1.1729 O   0  0  0  0  0  0  0  0  0  0  0  0
   -3.1384    1.6501    1.8322 O   0  0  0  0  0  0  0  0  0  0  0  0
    8.9764    5.5116   -3.0763 N   0  0  0  0  0  0  0  0  0  0  0  0
    8.1857    4.9224   -2.5772 N   0  0  0  0  0  0  0  0  0  0  0  0
    3.5286   -0.2853   -0.5284 S   0  0  0  0  0  0  0  0  0  0  0  0
    3.4658    1.2712   -0.9910 O   0  0  0  0  0  0  0  0  0  0  0  0
    4.2618    1.7137   -0.6484 H   0  0  0  0  0  0  0  0  0  0  0  0
    2.7025   -1.0172   -1.4597 O   0  0  0  0  0  0  0  0  0  0  0  0
    4.8976   -0.6262   -0.2088 O   0  0  0  0  0  0  0  0  0  0  0  0
    2.7814   -0.2101    0.9391 O   0  0  0  0  0  0  0  0  0  0  0  0
  1  6  1  0  0  0  0
  2  1  2  0  0  0  0
  2  3  1  0  0  0  0
  3  4  2  0  0  0  0
  4  5  1  0  0  0  0
  4  9  1  0  0  0  0
  5 10  1  0  0  0  0
  6 11  1  0  0  0  0
  6  5  2  0  0  0  0
  7  1  1  0  0  0  0
  8  2  1  0  0  0  0
 11 13  2  0  0  0  0
 12 11  2  0  0  0  0
 14 15  3  0  0  0  0
 16 20  2  0  0  0  0
 16 21  1  0  0  0  0
 17 18  1  0  0  0  0
 17 16  1  0  0  0  0
 19 16  2  0  0  0  0
 21  3  1  0  0  0  0
M  END
