Coordinates from ORCA-job 4-NO2-Ph-N2-HSO4-B3LYPG-6-31G_dp-MTMO-d009-169-n800
 OpenBabel09051908393D

 21 20  0  0  0  0  0  0  0  0999 V2000
   -1.1612   -1.0637    1.0200 C   0  0  0  0  0  0  0  0  0  0  0  0
    0.2030   -1.3000    0.8808 C   0  0  0  0  0  0  0  0  0  0  0  0
    1.0957   -0.2564    1.1263 C   0  0  0  0  0  0  0  0  0  0  0  0
    0.6642    1.0126    1.5107 C   0  0  0  0  0  0  0  0  0  0  0  0
   -0.6995    1.2486    1.6562 C   0  0  0  0  0  0  0  0  0  0  0  0
   -1.5892    0.2054    1.4066 C   0  0  0  0  0  0  0  0  0  0  0  0
   -1.8925   -1.8411    0.8395 H   0  0  0  0  0  0  0  0  0  0  0  0
    0.5762   -2.2716    0.5815 H   0  0  0  0  0  0  0  0  0  0  0  0
    1.3924    1.7931    1.6980 H   0  0  0  0  0  0  0  0  0  0  0  0
   -1.0816    2.2160    1.9559 H   0  0  0  0  0  0  0  0  0  0  0  0
   -3.0332    0.4525    1.5600 N   0  0  0  0  0  0  0  0  0  0  0  0
   -3.7970   -0.4846    1.3357 O   0  0  0  0  0  0  0  0  0  0  0  0
   -3.3830    1.5805    1.9032 O   0  0  0  0  0  0  0  0  0  0  0  0
   11.7334    7.6427   -4.2440 N   0  0  0  0  0  0  0  0  0  0  0  0
   10.9452    7.0076   -3.8001 N   0  0  0  0  0  0  0  0  0  0  0  0
    3.2165   -0.6284   -0.3911 S   0  0  0  0  0  0  0  0  0  0  0  0
    3.2114    0.9180   -0.8916 O   0  0  0  0  0  0  0  0  0  0  0  0
    4.0259    1.3362   -0.5623 H   0  0  0  0  0  0  0  0  0  0  0  0
    2.3606   -1.3513   -1.3021 O   0  0  0  0  0  0  0  0  0  0  0  0
    4.5731   -1.0119   -0.0664 O   0  0  0  0  0  0  0  0  0  0  0  0
    2.4769   -0.4887    1.0756 O   0  0  0  0  0  0  0  0  0  0  0  0
  1  6  1  0  0  0  0
  2  1  2  0  0  0  0
  2  3  1  0  0  0  0
  3  4  2  0  0  0  0
  4  5  1  0  0  0  0
  4  9  1  0  0  0  0
  5 10  1  0  0  0  0
  6 11  1  0  0  0  0
  6  5  2  0  0  0  0
  7  1  1  0  0  0  0
  8  2  1  0  0  0  0
 11 13  2  0  0  0  0
 12 11  2  0  0  0  0
 14 15  3  0  0  0  0
 16 20  2  0  0  0  0
 16 21  1  0  0  0  0
 17 18  1  0  0  0  0
 17 16  1  0  0  0  0
 19 16  2  0  0  0  0
 21  3  1  0  0  0  0
M  END
