Coordinates from ORCA-job 4-NO2-Ph-N2-HSO4-B3LYPG-6-31G_dp-MTMO-d009-169-n800
 OpenBabel09051908393D

 21 20  0  0  0  0  0  0  0  0999 V2000
   -0.2788   -0.7127    0.4327 C   0  0  0  0  0  0  0  0  0  0  0  0
    1.1055   -0.7339    0.5729 C   0  0  0  0  0  0  0  0  0  0  0  0
    1.7365    0.3474    1.1884 C   0  0  0  0  0  0  0  0  0  0  0  0
    1.0240    1.4448    1.6703 C   0  0  0  0  0  0  0  0  0  0  0  0
   -0.3610    1.4647    1.5360 C   0  0  0  0  0  0  0  0  0  0  0  0
   -0.9885    0.3849    0.9175 C   0  0  0  0  0  0  0  0  0  0  0  0
   -0.8136   -1.5280   -0.0379 H   0  0  0  0  0  0  0  0  0  0  0  0
    1.6938   -1.5668    0.2085 H   0  0  0  0  0  0  0  0  0  0  0  0
    1.5546    2.2615    2.1461 H   0  0  0  0  0  0  0  0  0  0  0  0
   -0.9565    2.2935    1.8968 H   0  0  0  0  0  0  0  0  0  0  0  0
   -2.4544    0.4042    0.7729 N   0  0  0  0  0  0  0  0  0  0  0  0
   -2.9848   -0.5622    0.2284 O   0  0  0  0  0  0  0  0  0  0  0  0
   -3.0550    1.3862    1.2057 O   0  0  0  0  0  0  0  0  0  0  0  0
    4.5058    1.8090   -3.9841 N   0  0  0  0  0  0  0  0  0  0  0  0
    5.1671    1.9926   -3.1181 N   0  0  0  0  0  0  0  0  0  0  0  0
    4.1470    0.5886    0.1589 S   0  0  0  0  0  0  0  0  0  0  0  0
    3.9465    2.1862   -0.0621 O   0  0  0  0  0  0  0  0  0  0  0  0
    4.6307    2.6425    0.4578 H   0  0  0  0  0  0  0  0  0  0  0  0
    3.6384   -0.0541   -1.0307 O   0  0  0  0  0  0  0  0  0  0  0  0
    5.4613    0.3526    0.7152 O   0  0  0  0  0  0  0  0  0  0  0  0
    3.1189    0.3144    1.4172 O   0  0  0  0  0  0  0  0  0  0  0  0
  1  2  2  0  0  0  0
  1  6  1  0  0  0  0
  2  3  1  0  0  0  0
  3 21  1  0  0  0  0
  3  4  2  0  0  0  0
  4  9  1  0  0  0  0
  5  4  1  0  0  0  0
  5 10  1  0  0  0  0
  6  5  2  0  0  0  0
  7  1  1  0  0  0  0
  8  2  1  0  0  0  0
 11  6  1  0  0  0  0
 11 13  2  0  0  0  0
 12 11  2  0  0  0  0
 14 15  3  0  0  0  0
 16 20  2  0  0  0  0
 16 21  1  0  0  0  0
 17 16  1  0  0  0  0
 17 18  1  0  0  0  0
 19 16  2  0  0  0  0
M  END
