Coordinates from ORCA-job 4-NO2-Ph-N2-HSO4-B3LYPG-6-31G_dp-MTMO-d009-169-n800
 OpenBabel09051908393D

 21 20  0  0  0  0  0  0  0  0999 V2000
    0.0401   -0.5803    0.0457 C   0  0  0  0  0  0  0  0  0  0  0  0
    1.4020   -0.4568    0.2899 C   0  0  0  0  0  0  0  0  0  0  0  0
    1.8912    0.7585    0.7943 C   0  0  0  0  0  0  0  0  0  0  0  0
    1.0114    1.7584    1.2373 C   0  0  0  0  0  0  0  0  0  0  0  0
   -0.3483    1.6276    1.0019 C   0  0  0  0  0  0  0  0  0  0  0  0
   -0.8163    0.4674    0.3831 C   0  0  0  0  0  0  0  0  0  0  0  0
   -0.3723   -1.4857   -0.3816 H   0  0  0  0  0  0  0  0  0  0  0  0
    2.0815   -1.2603    0.0417 H   0  0  0  0  0  0  0  0  0  0  0  0
    1.4175    2.6398    1.7202 H   0  0  0  0  0  0  0  0  0  0  0  0
   -1.0515    2.3964    1.2958 H   0  0  0  0  0  0  0  0  0  0  0  0
   -2.2547    0.3272    0.1258 N   0  0  0  0  0  0  0  0  0  0  0  0
   -2.6403   -0.7159   -0.4009 O   0  0  0  0  0  0  0  0  0  0  0  0
   -2.9846    1.2631    0.4518 O   0  0  0  0  0  0  0  0  0  0  0  0
    2.3723    1.6707   -1.0597 N   0  0  0  0  0  0  0  0  0  0  0  0
    1.7477    1.9599   -1.9293 N   0  0  0  0  0  0  0  0  0  0  0  0
    4.5644    0.3189    0.6001 S   0  0  0  0  0  0  0  0  0  0  0  0
    5.1744    1.6703   -0.0531 O   0  0  0  0  0  0  0  0  0  0  0  0
    5.7654    2.0741    0.6064 H   0  0  0  0  0  0  0  0  0  0  0  0
    4.2503   -0.5725   -0.4934 O   0  0  0  0  0  0  0  0  0  0  0  0
    5.3967   -0.0508    1.7254 O   0  0  0  0  0  0  0  0  0  0  0  0
    3.1904    0.9055    1.2908 O   0  0  0  0  0  0  0  0  0  0  0  0
  1  2  2  0  0  0  0
  1  6  1  0  0  0  0
  2  3  1  0  0  0  0
  3  4  2  0  0  0  0
  3 21  1  0  0  0  0
  4  9  1  0  0  0  0
  5  4  1  0  0  0  0
  5 10  1  0  0  0  0
  6  5  2  0  0  0  0
  7  1  1  0  0  0  0
  8  2  1  0  0  0  0
 11  6  1  0  0  0  0
 11 13  2  0  0  0  0
 12 11  2  0  0  0  0
 15 14  3  0  0  0  0
 16 21  1  0  0  0  0
 16 20  2  0  0  0  0
 17 16  1  0  0  0  0
 17 18  1  0  0  0  0
 19 16  2  0  0  0  0
M  END
