Coordinates from ORCA-job 4-NO2-Ph-N2-HSO4-B3LYPG-6-31G_dp-MTMO-d009-169-n800
 OpenBabel09051908393D

 21 20  0  0  0  0  0  0  0  0999 V2000
   -0.7299   -0.8568    0.8132 C   0  0  0  0  0  0  0  0  0  0  0  0
    0.6442   -1.0081    0.6547 C   0  0  0  0  0  0  0  0  0  0  0  0
    1.4783    0.0722    0.9439 C   0  0  0  0  0  0  0  0  0  0  0  0
    0.9786    1.2950    1.3907 C   0  0  0  0  0  0  0  0  0  0  0  0
   -0.3949    1.4457    1.5558 C   0  0  0  0  0  0  0  0  0  0  0  0
   -1.2261    0.3662    1.2622 C   0  0  0  0  0  0  0  0  0  0  0  0
   -1.4175   -1.6653    0.6003 H   0  0  0  0  0  0  0  0  0  0  0  0
    1.0693   -1.9415    0.3069 H   0  0  0  0  0  0  0  0  0  0  0  0
    1.6633    2.1059    1.6100 H   0  0  0  0  0  0  0  0  0  0  0  0
   -0.8284    2.3748    1.9030 H   0  0  0  0  0  0  0  0  0  0  0  0
   -2.6804    0.5226    1.4360 N   0  0  0  0  0  0  0  0  0  0  0  0
   -3.3916   -0.4452    1.1728 O   0  0  0  0  0  0  0  0  0  0  0  0
   -3.0911    1.6114    1.8344 O   0  0  0  0  0  0  0  0  0  0  0  0
    8.2609    4.7693   -2.6777 N   0  0  0  0  0  0  0  0  0  0  0  0
    7.4314    4.2242   -2.1915 N   0  0  0  0  0  0  0  0  0  0  0  0
    3.6050   -0.1181   -0.6010 S   0  0  0  0  0  0  0  0  0  0  0  0
    3.5141    1.4433   -1.0412 O   0  0  0  0  0  0  0  0  0  0  0  0
    4.3180    1.8885   -0.7207 H   0  0  0  0  0  0  0  0  0  0  0  0
    2.7816   -0.8514   -1.5338 O   0  0  0  0  0  0  0  0  0  0  0  0
    4.9826   -0.4411   -0.2996 O   0  0  0  0  0  0  0  0  0  0  0  0
    2.8701   -0.0761    0.8740 O   0  0  0  0  0  0  0  0  0  0  0  0
  1  6  1  0  0  0  0
  2  1  2  0  0  0  0
  2  3  1  0  0  0  0
  3  4  2  0  0  0  0
  4  5  1  0  0  0  0
  4  9  1  0  0  0  0
  5 10  1  0  0  0  0
  6 11  1  0  0  0  0
  6  5  2  0  0  0  0
  7  1  1  0  0  0  0
  8  2  1  0  0  0  0
 11 13  2  0  0  0  0
 12 11  2  0  0  0  0
 14 15  3  0  0  0  0
 16 20  2  0  0  0  0
 16 21  1  0  0  0  0
 17 18  1  0  0  0  0
 17 16  1  0  0  0  0
 19 16  2  0  0  0  0
 21  3  1  0  0  0  0
M  END
