Coordinates from ORCA-job 4-NO2-Ph-N2-HSO4-B3LYPG-6-31G_dp-MTMO-d009-169-n800
 OpenBabel09051908393D

 21 20  0  0  0  0  0  0  0  0999 V2000
   -1.1186   -1.0369    0.9990 C   0  0  0  0  0  0  0  0  0  0  0  0
    0.2459   -1.2713    0.8597 C   0  0  0  0  0  0  0  0  0  0  0  0
    1.1374   -0.2274    1.1079 C   0  0  0  0  0  0  0  0  0  0  0  0
    0.7044    1.0402    1.4952 C   0  0  0  0  0  0  0  0  0  0  0  0
   -0.6596    1.2744    1.6409 C   0  0  0  0  0  0  0  0  0  0  0  0
   -1.5481    0.2308    1.3885 C   0  0  0  0  0  0  0  0  0  0  0  0
   -1.8490   -1.8146    0.8165 H   0  0  0  0  0  0  0  0  0  0  0  0
    0.6202   -2.2418    0.5583 H   0  0  0  0  0  0  0  0  0  0  0  0
    1.4317    1.8211    1.6847 H   0  0  0  0  0  0  0  0  0  0  0  0
   -1.0429    2.2407    1.9428 H   0  0  0  0  0  0  0  0  0  0  0  0
   -2.9924    0.4760    1.5420 N   0  0  0  0  0  0  0  0  0  0  0  0
   -3.7551   -0.4614    1.3152 O   0  0  0  0  0  0  0  0  0  0  0  0
   -3.3436    1.6028    1.8879 O   0  0  0  0  0  0  0  0  0  0  0  0
   11.3402    7.3707   -4.0737 N   0  0  0  0  0  0  0  0  0  0  0  0
   10.5526    6.7367   -3.6272 N   0  0  0  0  0  0  0  0  0  0  0  0
    3.2590   -0.5949   -0.4095 S   0  0  0  0  0  0  0  0  0  0  0  0
    3.2513    0.9519   -0.9085 O   0  0  0  0  0  0  0  0  0  0  0  0
    4.0648    1.3714   -0.5784 H   0  0  0  0  0  0  0  0  0  0  0  0
    2.4044   -1.3184   -1.3215 O   0  0  0  0  0  0  0  0  0  0  0  0
    4.6161   -0.9765   -0.0849 O   0  0  0  0  0  0  0  0  0  0  0  0
    2.5189   -0.4578    1.0572 O   0  0  0  0  0  0  0  0  0  0  0  0
  1  6  1  0  0  0  0
  2  1  2  0  0  0  0
  2  3  1  0  0  0  0
  3  4  2  0  0  0  0
  4  5  1  0  0  0  0
  4  9  1  0  0  0  0
  5 10  1  0  0  0  0
  6 11  1  0  0  0  0
  6  5  2  0  0  0  0
  7  1  1  0  0  0  0
  8  2  1  0  0  0  0
 11 13  2  0  0  0  0
 12 11  2  0  0  0  0
 14 15  3  0  0  0  0
 16 20  2  0  0  0  0
 16 21  1  0  0  0  0
 17 18  1  0  0  0  0
 17 16  1  0  0  0  0
 19 16  2  0  0  0  0
 21  3  1  0  0  0  0
M  END
