Coordinates from ORCA-job 4-NO2-Ph-N2-HSO4-B3LYPG-6-31G_dp-MTMO-d009-169-n800
 OpenBabel09051908393D

 21 20  0  0  0  0  0  0  0  0999 V2000
   -1.0801   -1.0135    0.9803 C   0  0  0  0  0  0  0  0  0  0  0  0
    0.2847   -1.2454    0.8407 C   0  0  0  0  0  0  0  0  0  0  0  0
    1.1746   -0.2007    1.0915 C   0  0  0  0  0  0  0  0  0  0  0  0
    0.7395    1.0653    1.4818 C   0  0  0  0  0  0  0  0  0  0  0  0
   -0.6249    1.2970    1.6280 C   0  0  0  0  0  0  0  0  0  0  0  0
   -1.5117    0.2526    1.3728 C   0  0  0  0  0  0  0  0  0  0  0  0
   -1.8093   -1.7919    0.7958 H   0  0  0  0  0  0  0  0  0  0  0  0
    0.6606   -2.2146    0.5369 H   0  0  0  0  0  0  0  0  0  0  0  0
    1.4656    1.8468    1.6733 H   0  0  0  0  0  0  0  0  0  0  0  0
   -1.0097    2.2619    1.9321 H   0  0  0  0  0  0  0  0  0  0  0  0
   -2.9564    0.4951    1.5267 N   0  0  0  0  0  0  0  0  0  0  0  0
   -3.7176   -0.4428    1.2972 O   0  0  0  0  0  0  0  0  0  0  0  0
   -3.3094    1.6205    1.8754 O   0  0  0  0  0  0  0  0  0  0  0  0
   10.9915    7.1254   -3.9218 N   0  0  0  0  0  0  0  0  0  0  0  0
   10.2046    6.4922   -3.4729 N   0  0  0  0  0  0  0  0  0  0  0  0
    3.2968   -0.5631   -0.4264 S   0  0  0  0  0  0  0  0  0  0  0  0
    3.2857    0.9839   -0.9245 O   0  0  0  0  0  0  0  0  0  0  0  0
    4.0982    1.4052   -0.5941 H   0  0  0  0  0  0  0  0  0  0  0  0
    2.4439   -1.2879   -1.3388 O   0  0  0  0  0  0  0  0  0  0  0  0
    4.6547   -0.9420   -0.1020 O   0  0  0  0  0  0  0  0  0  0  0  0
    2.5564   -0.4287    1.0404 O   0  0  0  0  0  0  0  0  0  0  0  0
  1  6  1  0  0  0  0
  2  1  2  0  0  0  0
  2  3  1  0  0  0  0
  3  4  2  0  0  0  0
  4  5  1  0  0  0  0
  4  9  1  0  0  0  0
  5 10  1  0  0  0  0
  6 11  1  0  0  0  0
  6  5  2  0  0  0  0
  7  1  1  0  0  0  0
  8  2  1  0  0  0  0
 11 13  2  0  0  0  0
 12 11  2  0  0  0  0
 14 15  3  0  0  0  0
 16 20  2  0  0  0  0
 16 21  1  0  0  0  0
 17 18  1  0  0  0  0
 17 16  1  0  0  0  0
 19 16  2  0  0  0  0
 21  3  1  0  0  0  0
M  END
