Coordinates from ORCA-job 4-NO2-Ph-N2-HSO4-B3LYPG-6-31G_dp-MTMO-d009-169-n800
 OpenBabel09051908393D

 21 20  0  0  0  0  0  0  0  0999 V2000
   -0.6203   -0.8547    0.8156 C   0  0  0  0  0  0  0  0  0  0  0  0
    0.7564   -0.9342    0.6298 C   0  0  0  0  0  0  0  0  0  0  0  0
    1.5367    0.1926    0.8883 C   0  0  0  0  0  0  0  0  0  0  0  0
    0.9820    1.3940    1.3275 C   0  0  0  0  0  0  0  0  0  0  0  0
   -0.3942    1.4736    1.5188 C   0  0  0  0  0  0  0  0  0  0  0  0
   -1.1720    0.3468    1.2584 C   0  0  0  0  0  0  0  0  0  0  0  0
   -1.2679   -1.7016    0.6277 H   0  0  0  0  0  0  0  0  0  0  0  0
    1.2240   -1.8486    0.2856 H   0  0  0  0  0  0  0  0  0  0  0  0
    1.6272    2.2436    1.5187 H   0  0  0  0  0  0  0  0  0  0  0  0
   -0.8698    2.3836    1.8615 H   0  0  0  0  0  0  0  0  0  0  0  0
   -2.6287    0.4278    1.4607 N   0  0  0  0  0  0  0  0  0  0  0  0
   -3.2924   -0.5804    1.2261 O   0  0  0  0  0  0  0  0  0  0  0  0
   -3.0894    1.4987    1.8528 O   0  0  0  0  0  0  0  0  0  0  0  0
    7.6726    3.9430   -2.3059 N   0  0  0  0  0  0  0  0  0  0  0  0
    6.8036    3.4457   -1.8376 N   0  0  0  0  0  0  0  0  0  0  0  0
    3.6518    0.1377   -0.6916 S   0  0  0  0  0  0  0  0  0  0  0  0
    3.6512    1.7291   -1.0170 O   0  0  0  0  0  0  0  0  0  0  0  0
    4.5420    2.0733   -0.8237 H   0  0  0  0  0  0  0  0  0  0  0  0
    2.7763   -0.4888   -1.6554 O   0  0  0  0  0  0  0  0  0  0  0  0
    5.0152   -0.2784   -0.4402 O   0  0  0  0  0  0  0  0  0  0  0  0
    2.9333    0.1126    0.7921 O   0  0  0  0  0  0  0  0  0  0  0  0
  1  6  1  0  0  0  0
  2  1  2  0  0  0  0
  2  3  1  0  0  0  0
  3  4  2  0  0  0  0
  4  9  1  0  0  0  0
  4  5  1  0  0  0  0
  5 10  1  0  0  0  0
  6 11  1  0  0  0  0
  6  5  2  0  0  0  0
  7  1  1  0  0  0  0
  8  2  1  0  0  0  0
 11 13  2  0  0  0  0
 12 11  2  0  0  0  0
 14 15  3  0  0  0  0
 16 20  2  0  0  0  0
 16 21  1  0  0  0  0
 17 18  1  0  0  0  0
 17 16  1  0  0  0  0
 19 16  2  0  0  0  0
 21  3  1  0  0  0  0
M  END
