Coordinates from ORCA-job 4-NO2-Ph-N2-HSO4-B3LYPG-6-31G_dp-MTMO-d009-169-n800
 OpenBabel09051908393D

 21 20  0  0  0  0  0  0  0  0999 V2000
   -0.9862   -0.9596    0.9302 C   0  0  0  0  0  0  0  0  0  0  0  0
    0.3802   -1.1818    0.7897 C   0  0  0  0  0  0  0  0  0  0  0  0
    1.2633   -0.1342    1.0523 C   0  0  0  0  0  0  0  0  0  0  0  0
    0.8199    1.1249    1.4554 C   0  0  0  0  0  0  0  0  0  0  0  0
   -0.5460    1.3467    1.6025 C   0  0  0  0  0  0  0  0  0  0  0  0
   -1.4261    0.2996    1.3354 C   0  0  0  0  0  0  0  0  0  0  0  0
   -1.7104   -1.7406    0.7367 H   0  0  0  0  0  0  0  0  0  0  0  0
    0.7623   -2.1454    0.4763 H   0  0  0  0  0  0  0  0  0  0  0  0
    1.5409    1.9088    1.6559 H   0  0  0  0  0  0  0  0  0  0  0  0
   -0.9371    2.3060    1.9162 H   0  0  0  0  0  0  0  0  0  0  0  0
   -2.8725    0.5315    1.4902 N   0  0  0  0  0  0  0  0  0  0  0  0
   -3.6276   -0.4086    1.2500 O   0  0  0  0  0  0  0  0  0  0  0  0
   -3.2328    1.6509    1.8505 O   0  0  0  0  0  0  0  0  0  0  0  0
   10.1648    6.5152   -3.5698 N   0  0  0  0  0  0  0  0  0  0  0  0
    9.3794    5.8894   -3.1082 N   0  0  0  0  0  0  0  0  0  0  0  0
    3.3892   -0.4730   -0.4664 S   0  0  0  0  0  0  0  0  0  0  0  0
    3.3644    1.0763   -0.9570 O   0  0  0  0  0  0  0  0  0  0  0  0
    4.1719    1.5041   -0.6225 H   0  0  0  0  0  0  0  0  0  0  0  0
    2.5435   -1.2008   -1.3831 O   0  0  0  0  0  0  0  0  0  0  0  0
    4.7501   -0.8415   -0.1427 O   0  0  0  0  0  0  0  0  0  0  0  0
    2.6466   -0.3523    1.0005 O   0  0  0  0  0  0  0  0  0  0  0  0
  1  6  1  0  0  0  0
  2  1  2  0  0  0  0
  2  3  1  0  0  0  0
  3  4  2  0  0  0  0
  4  5  1  0  0  0  0
  4  9  1  0  0  0  0
  5 10  1  0  0  0  0
  6 11  1  0  0  0  0
  6  5  2  0  0  0  0
  7  1  1  0  0  0  0
  8  2  1  0  0  0  0
 11 13  2  0  0  0  0
 12 11  2  0  0  0  0
 14 15  3  0  0  0  0
 16 20  2  0  0  0  0
 16 21  1  0  0  0  0
 17 18  1  0  0  0  0
 17 16  1  0  0  0  0
 19 16  2  0  0  0  0
 21  3  1  0  0  0  0
M  END
