Coordinates from ORCA-job 4-NO2-Ph-N2-HSO4-B3LYPG-6-31G_dp-MTMO-d009-169-n800
 OpenBabel09051908393D

 21 20  0  0  0  0  0  0  0  0999 V2000
   -0.0859   -0.6180    0.2270 C   0  0  0  0  0  0  0  0  0  0  0  0
    1.2743   -0.6798    0.5139 C   0  0  0  0  0  0  0  0  0  0  0  0
    1.8547    0.3554    1.2472 C   0  0  0  0  0  0  0  0  0  0  0  0
    1.1143    1.4441    1.7059 C   0  0  0  0  0  0  0  0  0  0  0  0
   -0.2475    1.5035    1.4256 C   0  0  0  0  0  0  0  0  0  0  0  0
   -0.8239    0.4709    0.6882 C   0  0  0  0  0  0  0  0  0  0  0  0
   -0.5816   -1.3962   -0.3396 H   0  0  0  0  0  0  0  0  0  0  0  0
    1.8823   -1.5081    0.1725 H   0  0  0  0  0  0  0  0  0  0  0  0
    1.6044    2.2233    2.2784 H   0  0  0  0  0  0  0  0  0  0  0  0
   -0.8632    2.3274    1.7628 H   0  0  0  0  0  0  0  0  0  0  0  0
   -2.2646    0.5324    0.3879 N   0  0  0  0  0  0  0  0  0  0  0  0
   -2.7507   -0.3939   -0.2581 O   0  0  0  0  0  0  0  0  0  0  0  0
   -2.8899    1.5071    0.8022 O   0  0  0  0  0  0  0  0  0  0  0  0
    2.7373    1.6925   -3.1977 N   0  0  0  0  0  0  0  0  0  0  0  0
    3.6435    1.5772   -3.8196 N   0  0  0  0  0  0  0  0  0  0  0  0
    4.3744    0.5287    0.4909 S   0  0  0  0  0  0  0  0  0  0  0  0
    4.2428    2.1294    0.2429 O   0  0  0  0  0  0  0  0  0  0  0  0
    4.8107    2.5772    0.8938 H   0  0  0  0  0  0  0  0  0  0  0  0
    3.9950   -0.1017   -0.7522 O   0  0  0  0  0  0  0  0  0  0  0  0
    5.6080    0.2605    1.1969 O   0  0  0  0  0  0  0  0  0  0  0  0
    3.2032    0.2836    1.6233 O   0  0  0  0  0  0  0  0  0  0  0  0
  1  2  2  0  0  0  0
  1  6  1  0  0  0  0
  2  3  1  0  0  0  0
  3 21  1  0  0  0  0
  3  4  2  0  0  0  0
  4  9  1  0  0  0  0
  5  4  1  0  0  0  0
  5 10  1  0  0  0  0
  6  5  2  0  0  0  0
  7  1  1  0  0  0  0
  8  2  1  0  0  0  0
 11  6  1  0  0  0  0
 11 13  2  0  0  0  0
 12 11  2  0  0  0  0
 15 14  3  0  0  0  0
 16 20  2  0  0  0  0
 16 21  1  0  0  0  0
 17 16  1  0  0  0  0
 17 18  1  0  0  0  0
 19 16  2  0  0  0  0
M  END
