Coordinates from ORCA-job 4-NO2-Ph-N2-HSO4-B3LYPG-6-31G_dp-MTMO-d009-169-n800
 OpenBabel09051908393D

 21 20  0  0  0  0  0  0  0  0999 V2000
   -1.2291   -1.1074    1.0510 C   0  0  0  0  0  0  0  0  0  0  0  0
    0.1348   -1.3453    0.9123 C   0  0  0  0  0  0  0  0  0  0  0  0
    1.0286   -0.3023    1.1561 C   0  0  0  0  0  0  0  0  0  0  0  0
    0.5985    0.9678    1.5383 C   0  0  0  0  0  0  0  0  0  0  0  0
   -0.7650    1.2056    1.6834 C   0  0  0  0  0  0  0  0  0  0  0  0
   -1.6558    0.1629    1.4355 C   0  0  0  0  0  0  0  0  0  0  0  0
   -1.9613   -1.8843    0.8719 H   0  0  0  0  0  0  0  0  0  0  0  0
    0.5070   -2.3178    0.6147 H   0  0  0  0  0  0  0  0  0  0  0  0
    1.3275    1.7479    1.7243 H   0  0  0  0  0  0  0  0  0  0  0  0
   -1.1461    2.1738    1.9814 H   0  0  0  0  0  0  0  0  0  0  0  0
   -3.0995    0.4118    1.5884 N   0  0  0  0  0  0  0  0  0  0  0  0
   -3.8643   -0.5249    1.3657 O   0  0  0  0  0  0  0  0  0  0  0  0
   -3.4482    1.5408    1.9296 O   0  0  0  0  0  0  0  0  0  0  0  0
   12.3675    8.0743   -4.5218 N   0  0  0  0  0  0  0  0  0  0  0  0
   11.5787    7.4378   -4.0809 N   0  0  0  0  0  0  0  0  0  0  0  0
    3.1491   -0.6781   -0.3607 S   0  0  0  0  0  0  0  0  0  0  0  0
    3.1465    0.8679   -0.8622 O   0  0  0  0  0  0  0  0  0  0  0  0
    3.9618    1.2850   -0.5334 H   0  0  0  0  0  0  0  0  0  0  0  0
    2.2921   -1.4003   -1.2713 O   0  0  0  0  0  0  0  0  0  0  0  0
    4.5050   -1.0635   -0.0356 O   0  0  0  0  0  0  0  0  0  0  0  0
    2.4096   -0.5362    1.1058 O   0  0  0  0  0  0  0  0  0  0  0  0
  1  6  1  0  0  0  0
  2  1  2  0  0  0  0
  2  3  1  0  0  0  0
  3  4  2  0  0  0  0
  4  5  1  0  0  0  0
  4  9  1  0  0  0  0
  5 10  1  0  0  0  0
  6 11  1  0  0  0  0
  6  5  2  0  0  0  0
  7  1  1  0  0  0  0
  8  2  1  0  0  0  0
 11 13  2  0  0  0  0
 12 11  2  0  0  0  0
 14 15  3  0  0  0  0
 16 20  2  0  0  0  0
 16 21  1  0  0  0  0
 17 18  1  0  0  0  0
 17 16  1  0  0  0  0
 19 16  2  0  0  0  0
 21  3  1  0  0  0  0
M  END
