Coordinates from ORCA-job 4-NO2-Ph-N2-HSO4-B3LYPG-6-31G_dp-MTMO-d009-169-n800
 OpenBabel09051908393D

 21 20  0  0  0  0  0  0  0  0999 V2000
   -1.2921   -1.1487    1.0788 C   0  0  0  0  0  0  0  0  0  0  0  0
    0.0718   -1.3872    0.9405 C   0  0  0  0  0  0  0  0  0  0  0  0
    0.9660   -0.3445    1.1839 C   0  0  0  0  0  0  0  0  0  0  0  0
    0.5362    0.9260    1.5654 C   0  0  0  0  0  0  0  0  0  0  0  0
   -0.8272    1.1644    1.7101 C   0  0  0  0  0  0  0  0  0  0  0  0
   -1.7183    0.1219    1.4625 C   0  0  0  0  0  0  0  0  0  0  0  0
   -2.0245   -1.9254    0.8999 H   0  0  0  0  0  0  0  0  0  0  0  0
    0.4436   -2.3600    0.6434 H   0  0  0  0  0  0  0  0  0  0  0  0
    1.2655    1.7059    1.7512 H   0  0  0  0  0  0  0  0  0  0  0  0
   -1.2080    2.1329    2.0076 H   0  0  0  0  0  0  0  0  0  0  0  0
   -3.1620    0.3714    1.6150 N   0  0  0  0  0  0  0  0  0  0  0  0
   -3.9271   -0.5650    1.3927 O   0  0  0  0  0  0  0  0  0  0  0  0
   -3.5103    1.5007    1.9556 O   0  0  0  0  0  0  0  0  0  0  0  0
   12.9614    8.4732   -4.7831 N   0  0  0  0  0  0  0  0  0  0  0  0
   12.1722    7.8358   -4.3443 N   0  0  0  0  0  0  0  0  0  0  0  0
    3.0866   -0.7215   -0.3323 S   0  0  0  0  0  0  0  0  0  0  0  0
    3.0849    0.8244   -0.8340 O   0  0  0  0  0  0  0  0  0  0  0  0
    3.9004    1.2411   -0.5051 H   0  0  0  0  0  0  0  0  0  0  0  0
    2.2294   -1.4434   -1.2429 O   0  0  0  0  0  0  0  0  0  0  0  0
    4.4423   -1.1076   -0.0068 O   0  0  0  0  0  0  0  0  0  0  0  0
    2.3468   -0.5790    1.1341 O   0  0  0  0  0  0  0  0  0  0  0  0
  1  6  1  0  0  0  0
  2  1  2  0  0  0  0
  2  3  1  0  0  0  0
  3  4  2  0  0  0  0
  4  5  1  0  0  0  0
  4  9  1  0  0  0  0
  5 10  1  0  0  0  0
  6 11  1  0  0  0  0
  6  5  2  0  0  0  0
  7  1  1  0  0  0  0
  8  2  1  0  0  0  0
 11 13  2  0  0  0  0
 12 11  2  0  0  0  0
 14 15  3  0  0  0  0
 16 20  2  0  0  0  0
 16 21  1  0  0  0  0
 17 18  1  0  0  0  0
 17 16  1  0  0  0  0
 19 16  2  0  0  0  0
 21  3  1  0  0  0  0
M  END
