Coordinates from ORCA-job 4-NO2-Ph-N2-HSO4-B3LYPG-6-31G_dp-MTMO-d009-169-n800
 OpenBabel09051908393D

 21 20  0  0  0  0  0  0  0  0999 V2000
   -0.9577   -0.9440    0.9133 C   0  0  0  0  0  0  0  0  0  0  0  0
    0.4094   -1.1621    0.7727 C   0  0  0  0  0  0  0  0  0  0  0  0
    1.2897   -0.1135    1.0408 C   0  0  0  0  0  0  0  0  0  0  0  0
    0.8428    1.1426    1.4496 C   0  0  0  0  0  0  0  0  0  0  0  0
   -0.5237    1.3602    1.5969 C   0  0  0  0  0  0  0  0  0  0  0  0
   -1.4010    0.3122    1.3242 C   0  0  0  0  0  0  0  0  0  0  0  0
   -1.6797   -1.7259    0.7157 H   0  0  0  0  0  0  0  0  0  0  0  0
    0.7941   -2.1232    0.4549 H   0  0  0  0  0  0  0  0  0  0  0  0
    1.5618    1.9273    1.6543 H   0  0  0  0  0  0  0  0  0  0  0  0
   -0.9174    2.3170    1.9149 H   0  0  0  0  0  0  0  0  0  0  0  0
   -2.8480    0.5397    1.4792 N   0  0  0  0  0  0  0  0  0  0  0  0
   -3.6006   -0.4012    1.2339 O   0  0  0  0  0  0  0  0  0  0  0  0
   -3.2115    1.6564    1.8446 O   0  0  0  0  0  0  0  0  0  0  0  0
    9.9195    6.3254   -3.4690 N   0  0  0  0  0  0  0  0  0  0  0  0
    9.1349    5.7036   -3.0004 N   0  0  0  0  0  0  0  0  0  0  0  0
    3.4174   -0.4418   -0.4779 S   0  0  0  0  0  0  0  0  0  0  0  0
    3.3873    1.1085   -0.9646 O   0  0  0  0  0  0  0  0  0  0  0  0
    4.1927    1.5387   -0.6283 H   0  0  0  0  0  0  0  0  0  0  0  0
    2.5747   -1.1703   -1.3970 O   0  0  0  0  0  0  0  0  0  0  0  0
    4.7793   -0.8065   -0.1544 O   0  0  0  0  0  0  0  0  0  0  0  0
    2.6737   -0.3276    0.9889 O   0  0  0  0  0  0  0  0  0  0  0  0
  1  6  1  0  0  0  0
  2  1  2  0  0  0  0
  2  3  1  0  0  0  0
  3  4  2  0  0  0  0
  4  5  1  0  0  0  0
  4  9  1  0  0  0  0
  5 10  1  0  0  0  0
  6 11  1  0  0  0  0
  6  5  2  0  0  0  0
  7  1  1  0  0  0  0
  8  2  1  0  0  0  0
 11 13  2  0  0  0  0
 12 11  2  0  0  0  0
 14 15  3  0  0  0  0
 16 20  2  0  0  0  0
 16 21  1  0  0  0  0
 17 18  1  0  0  0  0
 17 16  1  0  0  0  0
 19 16  2  0  0  0  0
 21  3  1  0  0  0  0
M  END
