Coordinates from ORCA-job 4-NO2-Ph-N2-HSO4-B3LYPG-6-31G_dp-MTMO-d009-169-n800
 OpenBabel09051908393D

 21 20  0  0  0  0  0  0  0  0999 V2000
   -1.1854   -1.0792    1.0313 C   0  0  0  0  0  0  0  0  0  0  0  0
    0.1787   -1.3161    0.8922 C   0  0  0  0  0  0  0  0  0  0  0  0
    1.0719   -0.2729    1.1369 C   0  0  0  0  0  0  0  0  0  0  0  0
    0.6410    0.9967    1.5202 C   0  0  0  0  0  0  0  0  0  0  0  0
   -0.7226    1.2335    1.6656 C   0  0  0  0  0  0  0  0  0  0  0  0
   -1.6128    0.1905    1.4168 C   0  0  0  0  0  0  0  0  0  0  0  0
   -1.9171   -1.8563    0.8515 H   0  0  0  0  0  0  0  0  0  0  0  0
    0.5514   -2.2882    0.5937 H   0  0  0  0  0  0  0  0  0  0  0  0
    1.3696    1.7770    1.7069 H   0  0  0  0  0  0  0  0  0  0  0  0
   -1.1042    2.2013    1.9645 H   0  0  0  0  0  0  0  0  0  0  0  0
   -3.0567    0.4384    1.5701 N   0  0  0  0  0  0  0  0  0  0  0  0
   -3.8209   -0.4986    1.3466 O   0  0  0  0  0  0  0  0  0  0  0  0
   -3.4060    1.5669    1.9123 O   0  0  0  0  0  0  0  0  0  0  0  0
   11.9585    7.7968   -4.3424 N   0  0  0  0  0  0  0  0  0  0  0  0
   11.1701    7.1612   -3.8997 N   0  0  0  0  0  0  0  0  0  0  0  0
    3.1925   -0.6466   -0.3803 S   0  0  0  0  0  0  0  0  0  0  0  0
    3.1885    0.8996   -0.8813 O   0  0  0  0  0  0  0  0  0  0  0  0
    4.0034    1.3174   -0.5523 H   0  0  0  0  0  0  0  0  0  0  0  0
    2.3360   -1.3692   -1.2911 O   0  0  0  0  0  0  0  0  0  0  0  0
    4.5488   -1.0309   -0.0555 O   0  0  0  0  0  0  0  0  0  0  0  0
    2.4530   -0.5058    1.0863 O   0  0  0  0  0  0  0  0  0  0  0  0
  1  6  1  0  0  0  0
  2  1  2  0  0  0  0
  2  3  1  0  0  0  0
  3  4  2  0  0  0  0
  4  5  1  0  0  0  0
  4  9  1  0  0  0  0
  5 10  1  0  0  0  0
  6 11  1  0  0  0  0
  6  5  2  0  0  0  0
  7  1  1  0  0  0  0
  8  2  1  0  0  0  0
 11 13  2  0  0  0  0
 12 11  2  0  0  0  0
 14 15  3  0  0  0  0
 16 20  2  0  0  0  0
 16 21  1  0  0  0  0
 17 18  1  0  0  0  0
 17 16  1  0  0  0  0
 19 16  2  0  0  0  0
 21  3  1  0  0  0  0
M  END
