Coordinates from ORCA-job 4-NO2-Ph-N2-HSO4-B3LYPG-6-31G_dp-MTMO-d009-169-n800
 OpenBabel09051908393D

 21 20  0  0  0  0  0  0  0  0999 V2000
    0.0626   -0.6412    0.1415 C   0  0  0  0  0  0  0  0  0  0  0  0
    1.3946   -0.7073    0.5384 C   0  0  0  0  0  0  0  0  0  0  0  0
    1.9572    0.3887    1.1932 C   0  0  0  0  0  0  0  0  0  0  0  0
    1.2247    1.5427    1.4696 C   0  0  0  0  0  0  0  0  0  0  0  0
   -0.1095    1.6072    1.0798 C   0  0  0  0  0  0  0  0  0  0  0  0
   -0.6671    0.5137    0.4196 C   0  0  0  0  0  0  0  0  0  0  0  0
   -0.4181   -1.4651   -0.3706 H   0  0  0  0  0  0  0  0  0  0  0  0
    1.9954   -1.5866    0.3419 H   0  0  0  0  0  0  0  0  0  0  0  0
    1.6994    2.3680    1.9877 H   0  0  0  0  0  0  0  0  0  0  0  0
   -0.7193    2.4801    1.2751 H   0  0  0  0  0  0  0  0  0  0  0  0
   -2.0789    0.5804    0.0051 N   0  0  0  0  0  0  0  0  0  0  0  0
   -2.5487   -0.3979   -0.5727 O   0  0  0  0  0  0  0  0  0  0  0  0
   -2.6983    1.6111    0.2632 O   0  0  0  0  0  0  0  0  0  0  0  0
    2.0095    1.7487   -2.0132 N   0  0  0  0  0  0  0  0  0  0  0  0
    1.3764    1.7350   -2.9191 N   0  0  0  0  0  0  0  0  0  0  0  0
    4.5419    0.3987    0.6469 S   0  0  0  0  0  0  0  0  0  0  0  0
    4.5439    1.9796    0.2743 O   0  0  0  0  0  0  0  0  0  0  0  0
    5.0895    2.4371    0.9376 H   0  0  0  0  0  0  0  0  0  0  0  0
    4.2266   -0.3068   -0.5732 O   0  0  0  0  0  0  0  0  0  0  0  0
    5.6900    0.1126    1.4796 O   0  0  0  0  0  0  0  0  0  0  0  0
    3.2655    0.3167    1.6874 O   0  0  0  0  0  0  0  0  0  0  0  0
  1  6  2  0  0  0  0
  1  2  1  0  0  0  0
  2  3  2  0  0  0  0
  3  4  1  0  0  0  0
  3 21  1  0  0  0  0
  4  9  1  0  0  0  0
  5 10  1  0  0  0  0
  5  4  2  0  0  0  0
  6  5  1  0  0  0  0
  7  1  1  0  0  0  0
  8  2  1  0  0  0  0
 11 13  2  0  0  0  0
 11  6  1  0  0  0  0
 12 11  2  0  0  0  0
 15 14  3  0  0  0  0
 16 20  2  0  0  0  0
 16 21  1  0  0  0  0
 17 16  1  0  0  0  0
 17 18  1  0  0  0  0
 19 16  2  0  0  0  0
M  END
