Coordinates from ORCA-job 4-NO2-Ph-N2-HSO4-B3LYPG-6-31G_dp-MTMO-d009-169-n800
 OpenBabel09051908393D

 21 20  0  0  0  0  0  0  0  0999 V2000
   -1.0366   -0.9881    0.9584 C   0  0  0  0  0  0  0  0  0  0  0  0
    0.3289   -1.2163    0.8183 C   0  0  0  0  0  0  0  0  0  0  0  0
    1.2161   -0.1702    1.0730 C   0  0  0  0  0  0  0  0  0  0  0  0
    0.7778    1.0933    1.4677 C   0  0  0  0  0  0  0  0  0  0  0  0
   -0.5872    1.3211    1.6144 C   0  0  0  0  0  0  0  0  0  0  0  0
   -1.4714    0.2755    1.3554 C   0  0  0  0  0  0  0  0  0  0  0  0
   -1.7638   -1.7677    0.7710 H   0  0  0  0  0  0  0  0  0  0  0  0
    0.7071   -2.1834    0.5111 H   0  0  0  0  0  0  0  0  0  0  0  0
    1.5019    1.8759    1.6622 H   0  0  0  0  0  0  0  0  0  0  0  0
   -0.9744    2.2840    1.9219 H   0  0  0  0  0  0  0  0  0  0  0  0
   -2.9167    0.5139    1.5099 N   0  0  0  0  0  0  0  0  0  0  0  0
   -3.6756   -0.4251    1.2770 O   0  0  0  0  0  0  0  0  0  0  0  0
   -3.2726    1.6371    1.8626 O   0  0  0  0  0  0  0  0  0  0  0  0
   10.6040    6.8450   -3.7541 N   0  0  0  0  0  0  0  0  0  0  0  0
    9.8177    6.2139   -3.3015 N   0  0  0  0  0  0  0  0  0  0  0  0
    3.3395   -0.5236   -0.4456 S   0  0  0  0  0  0  0  0  0  0  0  0
    3.3230    1.0243   -0.9409 O   0  0  0  0  0  0  0  0  0  0  0  0
    4.1335    1.4482   -0.6090 H   0  0  0  0  0  0  0  0  0  0  0  0
    2.4892   -1.2497   -1.3594 O   0  0  0  0  0  0  0  0  0  0  0  0
    4.6986   -0.8984   -0.1217 O   0  0  0  0  0  0  0  0  0  0  0  0
    2.5985   -0.3943    1.0214 O   0  0  0  0  0  0  0  0  0  0  0  0
  1  6  1  0  0  0  0
  2  1  2  0  0  0  0
  2  3  1  0  0  0  0
  3  4  2  0  0  0  0
  4  5  1  0  0  0  0
  4  9  1  0  0  0  0
  5 10  1  0  0  0  0
  6 11  1  0  0  0  0
  6  5  2  0  0  0  0
  7  1  1  0  0  0  0
  8  2  1  0  0  0  0
 11 13  2  0  0  0  0
 12 11  2  0  0  0  0
 14 15  3  0  0  0  0
 16 20  2  0  0  0  0
 16 21  1  0  0  0  0
 17 18  1  0  0  0  0
 17 16  1  0  0  0  0
 19 16  2  0  0  0  0
 21  3  1  0  0  0  0
M  END
