Coordinates from ORCA-job 4-NO2-Ph-N2-HSO4-B3LYPG-6-31G_dp-MTMO-d009-169-n800
 OpenBabel09051908393D

 21 21  0  0  1  0  0  0  0  0999 V2000
    0.5725   -0.3920    0.4166 C   0  0  0  0  0  0  0  0  0  0  0  0
    1.7076   -0.0296   -0.4909 C   0  0  1  0  0  0  0  0  0  0  0  0
    1.8057    1.5137   -0.7771 C   0  0  0  0  0  0  0  0  0  0  0  0
    0.6263    2.3485   -0.4542 C   0  0  0  0  0  0  0  0  0  0  0  0
   -0.4319    1.8535    0.2096 C   0  0  0  0  0  0  0  0  0  0  0  0
   -0.4161    0.4756    0.6688 C   0  0  0  0  0  0  0  0  0  0  0  0
    0.5416   -1.4027    0.8071 H   0  0  0  0  0  0  0  0  0  0  0  0
    1.5814   -0.5496   -1.4503 H   0  0  0  0  0  0  0  0  0  0  0  0
    0.6779    3.3897   -0.7541 H   0  0  0  0  0  0  0  0  0  0  0  0
   -1.2872    2.4683    0.4562 H   0  0  0  0  0  0  0  0  0  0  0  0
   -1.5572    0.0164    1.4939 N   0  0  0  0  0  0  0  0  0  0  0  0
   -1.5506   -1.1453    1.8885 O   0  0  0  0  0  0  0  0  0  0  0  0
   -2.4416    0.8396    1.7207 O   0  0  0  0  0  0  0  0  0  0  0  0
    2.7213    1.8703   -1.1185 N   0  0  0  0  0  0  0  0  0  0  0  0
    3.8006    2.1807   -1.4582 N   0  0  0  0  0  0  0  0  0  0  0  0
    3.6916   -0.0108    1.3411 S   0  0  0  0  0  0  0  0  0  0  0  0
    5.0452    0.6018    0.7338 O   0  0  0  0  0  0  0  0  0  0  0  0
    4.8399    1.3689    0.1495 H   0  0  0  0  0  0  0  0  0  0  0  0
    2.8493    1.0447    1.8822 O   0  0  0  0  0  0  0  0  0  0  0  0
    2.9867   -0.5499   -0.0685 O   0  0  0  0  0  0  0  0  0  0  0  0
    4.0745   -1.1765    2.0959 O   0  0  0  0  0  0  0  0  0  0  0  0
  1  6  2  0  0  0  0
  1  7  1  0  0  0  0
  2  8  1  6  0  0  0
  2 20  1  0  0  0  0
  2  1  1  0  0  0  0
  3  2  1  0  0  0  0
  3  4  2  0  0  0  0
  4  5  1  0  0  0  0
  5 10  1  0  0  0  0
  5  6  1  0  0  0  0
  6 11  1  0  0  0  0
  9  4  1  0  0  0  0
 11 13  2  0  0  0  0
 11 12  2  0  0  0  0
 14  3  1  0  0  0  0
 15 14  1  0  0  0  0
 16 19  2  0  0  0  0
 16 21  2  0  0  0  0
 17 16  1  0  0  0  0
 18 17  1  0  0  0  0
 20 16  1  0  0  0  0
M  RAD  3   5   2  14   2  15   3
M  END
