Coordinates from ORCA-job 4-NO2-Ph-N2-HSO4-B3LYPG-6-31G_dp-MTMO-d009-169-n800
 OpenBabel09051908393D

 21 20  0  0  0  0  0  0  0  0999 V2000
   -1.3250   -1.1705    1.0931 C   0  0  0  0  0  0  0  0  0  0  0  0
    0.0389   -1.4091    0.9550 C   0  0  0  0  0  0  0  0  0  0  0  0
    0.9331   -0.3664    1.1985 C   0  0  0  0  0  0  0  0  0  0  0  0
    0.5034    0.9041    1.5799 C   0  0  0  0  0  0  0  0  0  0  0  0
   -0.8600    1.1425    1.7244 C   0  0  0  0  0  0  0  0  0  0  0  0
   -1.7512    0.1001    1.4768 C   0  0  0  0  0  0  0  0  0  0  0  0
   -2.0574   -1.9472    0.9141 H   0  0  0  0  0  0  0  0  0  0  0  0
    0.4107   -2.3819    0.6580 H   0  0  0  0  0  0  0  0  0  0  0  0
    1.2327    1.6840    1.7658 H   0  0  0  0  0  0  0  0  0  0  0  0
   -1.2408    2.1111    2.0218 H   0  0  0  0  0  0  0  0  0  0  0  0
   -3.1949    0.3497    1.6291 N   0  0  0  0  0  0  0  0  0  0  0  0
   -3.9600   -0.5867    1.4066 O   0  0  0  0  0  0  0  0  0  0  0  0
   -3.5431    1.4791    1.9695 O   0  0  0  0  0  0  0  0  0  0  0  0
   13.2730    8.6813   -4.9203 N   0  0  0  0  0  0  0  0  0  0  0  0
   12.4836    8.0435   -4.4825 N   0  0  0  0  0  0  0  0  0  0  0  0
    3.0540   -0.7436   -0.3174 S   0  0  0  0  0  0  0  0  0  0  0  0
    3.0524    0.8024   -0.8191 O   0  0  0  0  0  0  0  0  0  0  0  0
    3.8679    1.2190   -0.4901 H   0  0  0  0  0  0  0  0  0  0  0  0
    2.1968   -1.4654   -1.2282 O   0  0  0  0  0  0  0  0  0  0  0  0
    4.4095   -1.1297    0.0083 O   0  0  0  0  0  0  0  0  0  0  0  0
    2.3139   -0.6010    1.1488 O   0  0  0  0  0  0  0  0  0  0  0  0
  1  6  1  0  0  0  0
  2  1  2  0  0  0  0
  2  3  1  0  0  0  0
  3  4  2  0  0  0  0
  4  5  1  0  0  0  0
  4  9  1  0  0  0  0
  5 10  1  0  0  0  0
  6 11  1  0  0  0  0
  6  5  2  0  0  0  0
  7  1  1  0  0  0  0
  8  2  1  0  0  0  0
 11 13  2  0  0  0  0
 12 11  2  0  0  0  0
 14 15  3  0  0  0  0
 16 20  2  0  0  0  0
 16 21  1  0  0  0  0
 17 18  1  0  0  0  0
 17 16  1  0  0  0  0
 19 16  2  0  0  0  0
 21  3  1  0  0  0  0
M  END
