Coordinates from ORCA-job 4-NO2-Ph-N2-HSO4-B3LYPG-6-31G_dp-MTMO-d009-169-n800
 OpenBabel09051908393D

 21 20  0  0  0  0  0  0  0  0999 V2000
   -1.2741   -1.1369    1.0709 C   0  0  0  0  0  0  0  0  0  0  0  0
    0.0897   -1.3753    0.9325 C   0  0  0  0  0  0  0  0  0  0  0  0
    0.9839   -0.3325    1.1760 C   0  0  0  0  0  0  0  0  0  0  0  0
    0.5541    0.9380    1.5576 C   0  0  0  0  0  0  0  0  0  0  0  0
   -0.8093    1.1762    1.7024 C   0  0  0  0  0  0  0  0  0  0  0  0
   -1.7004    0.1337    1.4548 C   0  0  0  0  0  0  0  0  0  0  0  0
   -2.0065   -1.9136    0.8920 H   0  0  0  0  0  0  0  0  0  0  0  0
    0.4616   -2.3480    0.6353 H   0  0  0  0  0  0  0  0  0  0  0  0
    1.2833    1.7179    1.7434 H   0  0  0  0  0  0  0  0  0  0  0  0
   -1.1902    2.1447    2.0000 H   0  0  0  0  0  0  0  0  0  0  0  0
   -3.1441    0.3831    1.6074 N   0  0  0  0  0  0  0  0  0  0  0  0
   -3.9092   -0.5534    1.3850 O   0  0  0  0  0  0  0  0  0  0  0  0
   -3.4924    1.5124    1.9481 O   0  0  0  0  0  0  0  0  0  0  0  0
   12.7916    8.3595   -4.7083 N   0  0  0  0  0  0  0  0  0  0  0  0
   12.0025    7.7223   -4.2690 N   0  0  0  0  0  0  0  0  0  0  0  0
    3.1045   -0.7093   -0.3404 S   0  0  0  0  0  0  0  0  0  0  0  0
    3.1026    0.8367   -0.8421 O   0  0  0  0  0  0  0  0  0  0  0  0
    3.9181    1.2533   -0.5133 H   0  0  0  0  0  0  0  0  0  0  0  0
    2.2473   -1.4313   -1.2510 O   0  0  0  0  0  0  0  0  0  0  0  0
    4.4601   -1.0953   -0.0150 O   0  0  0  0  0  0  0  0  0  0  0  0
    2.3647   -0.5669    1.1260 O   0  0  0  0  0  0  0  0  0  0  0  0
  1  6  1  0  0  0  0
  2  1  2  0  0  0  0
  2  3  1  0  0  0  0
  3  4  2  0  0  0  0
  4  5  1  0  0  0  0
  4  9  1  0  0  0  0
  5 10  1  0  0  0  0
  6 11  1  0  0  0  0
  6  5  2  0  0  0  0
  7  1  1  0  0  0  0
  8  2  1  0  0  0  0
 11 13  2  0  0  0  0
 12 11  2  0  0  0  0
 14 15  3  0  0  0  0
 16 20  2  0  0  0  0
 16 21  1  0  0  0  0
 17 18  1  0  0  0  0
 17 16  1  0  0  0  0
 19 16  2  0  0  0  0
 21  3  1  0  0  0  0
M  END
