Coordinates from ORCA-job 4-NO2-Ph-N2-HSO4-B3LYPG-6-31G_dp-MTMO-d009-169-n800
 OpenBabel09051908393D

 21 20  0  0  0  0  0  0  0  0999 V2000
   -1.1231   -1.0398    1.0014 C   0  0  0  0  0  0  0  0  0  0  0  0
    0.2413   -1.2745    0.8621 C   0  0  0  0  0  0  0  0  0  0  0  0
    1.1329   -0.2305    1.1099 C   0  0  0  0  0  0  0  0  0  0  0  0
    0.7001    1.0373    1.4967 C   0  0  0  0  0  0  0  0  0  0  0  0
   -0.6638    1.2717    1.6425 C   0  0  0  0  0  0  0  0  0  0  0  0
   -1.5525    0.2281    1.3905 C   0  0  0  0  0  0  0  0  0  0  0  0
   -1.8537   -1.8175    0.8193 H   0  0  0  0  0  0  0  0  0  0  0  0
    0.6154   -2.2451    0.5610 H   0  0  0  0  0  0  0  0  0  0  0  0
    1.4275    1.8181    1.6858 H   0  0  0  0  0  0  0  0  0  0  0  0
   -1.0470    2.2381    1.9440 H   0  0  0  0  0  0  0  0  0  0  0  0
   -2.9968    0.4735    1.5440 N   0  0  0  0  0  0  0  0  0  0  0  0
   -3.7596   -0.4639    1.3176 O   0  0  0  0  0  0  0  0  0  0  0  0
   -3.3478    1.6005    1.8895 O   0  0  0  0  0  0  0  0  0  0  0  0
   11.3824    7.4000   -4.0918 N   0  0  0  0  0  0  0  0  0  0  0  0
   10.5947    6.7659   -3.6456 N   0  0  0  0  0  0  0  0  0  0  0  0
    3.2544   -0.5986   -0.4076 S   0  0  0  0  0  0  0  0  0  0  0  0
    3.2471    0.9482   -0.9068 O   0  0  0  0  0  0  0  0  0  0  0  0
    4.0607    1.3675   -0.5768 H   0  0  0  0  0  0  0  0  0  0  0  0
    2.3996   -1.3219   -1.3194 O   0  0  0  0  0  0  0  0  0  0  0  0
    4.6114   -0.9805   -0.0830 O   0  0  0  0  0  0  0  0  0  0  0  0
    2.5144   -0.4612    1.0591 O   0  0  0  0  0  0  0  0  0  0  0  0
  1  6  1  0  0  0  0
  2  1  2  0  0  0  0
  2  3  1  0  0  0  0
  3  4  2  0  0  0  0
  4  5  1  0  0  0  0
  4  9  1  0  0  0  0
  5 10  1  0  0  0  0
  6 11  1  0  0  0  0
  6  5  2  0  0  0  0
  7  1  1  0  0  0  0
  8  2  1  0  0  0  0
 11 13  2  0  0  0  0
 12 11  2  0  0  0  0
 14 15  3  0  0  0  0
 16 20  2  0  0  0  0
 16 21  1  0  0  0  0
 17 18  1  0  0  0  0
 17 16  1  0  0  0  0
 19 16  2  0  0  0  0
 21  3  1  0  0  0  0
M  END
