Coordinates from ORCA-job 4-NO2-Ph-N2-HSO4-B3LYPG-6-31G_dp-MTMO-d009-169-n800
 OpenBabel09051908393D

 21 20  0  0  0  0  0  0  0  0999 V2000
   -0.2618   -0.7081    0.4201 C   0  0  0  0  0  0  0  0  0  0  0  0
    1.1207   -0.7334    0.5764 C   0  0  0  0  0  0  0  0  0  0  0  0
    1.7480    0.3470    1.1970 C   0  0  0  0  0  0  0  0  0  0  0  0
    1.0334    1.4477    1.6686 C   0  0  0  0  0  0  0  0  0  0  0  0
   -0.3499    1.4717    1.5182 C   0  0  0  0  0  0  0  0  0  0  0  0
   -0.9736    0.3927    0.8945 C   0  0  0  0  0  0  0  0  0  0  0  0
   -0.7937   -1.5226   -0.0551 H   0  0  0  0  0  0  0  0  0  0  0  0
    1.7105   -1.5690    0.2205 H   0  0  0  0  0  0  0  0  0  0  0  0
    1.5610    2.2635    2.1491 H   0  0  0  0  0  0  0  0  0  0  0  0
   -0.9468    2.3030    1.8706 H   0  0  0  0  0  0  0  0  0  0  0  0
   -2.4376    0.4162    0.7330 N   0  0  0  0  0  0  0  0  0  0  0  0
   -2.9648   -0.5496    0.1845 O   0  0  0  0  0  0  0  0  0  0  0  0
   -3.0401    1.4011    1.1569 O   0  0  0  0  0  0  0  0  0  0  0  0
    4.2973    1.8073   -3.9497 N   0  0  0  0  0  0  0  0  0  0  0  0
    5.0462    2.0042   -3.1615 N   0  0  0  0  0  0  0  0  0  0  0  0
    4.1720    0.5733    0.1956 S   0  0  0  0  0  0  0  0  0  0  0  0
    3.9812    2.1705   -0.0374 O   0  0  0  0  0  0  0  0  0  0  0  0
    4.6540    2.6279    0.4961 H   0  0  0  0  0  0  0  0  0  0  0  0
    3.6757   -0.0731   -0.9971 O   0  0  0  0  0  0  0  0  0  0  0  0
    5.4784    0.3350    0.7692 O   0  0  0  0  0  0  0  0  0  0  0  0
    3.1275    0.3103    1.4426 O   0  0  0  0  0  0  0  0  0  0  0  0
  1  2  2  0  0  0  0
  1  6  1  0  0  0  0
  2  3  1  0  0  0  0
  3 21  1  0  0  0  0
  3  4  2  0  0  0  0
  4  9  1  0  0  0  0
  5  4  1  0  0  0  0
  5 10  1  0  0  0  0
  6  5  2  0  0  0  0
  7  1  1  0  0  0  0
  8  2  1  0  0  0  0
 11  6  1  0  0  0  0
 11 13  2  0  0  0  0
 12 11  2  0  0  0  0
 14 15  3  0  0  0  0
 16 20  2  0  0  0  0
 16 21  1  0  0  0  0
 17 16  1  0  0  0  0
 17 18  1  0  0  0  0
 19 16  2  0  0  0  0
M  END
