Coordinates from ORCA-job 4-NO2-Ph-N2-HSO4-B3LYPG-6-31G_dp-MTMO-d009-169-n800
 OpenBabel09051908393D

 21 20  0  0  0  0  0  0  0  0999 V2000
   -1.2276   -1.1064    1.0504 C   0  0  0  0  0  0  0  0  0  0  0  0
    0.1363   -1.3443    0.9116 C   0  0  0  0  0  0  0  0  0  0  0  0
    1.0301   -0.3013    1.1554 C   0  0  0  0  0  0  0  0  0  0  0  0
    0.6000    0.9688    1.5376 C   0  0  0  0  0  0  0  0  0  0  0  0
   -0.7635    1.2065    1.6827 C   0  0  0  0  0  0  0  0  0  0  0  0
   -1.6543    0.1638    1.4348 C   0  0  0  0  0  0  0  0  0  0  0  0
   -1.9598   -1.8833    0.8713 H   0  0  0  0  0  0  0  0  0  0  0  0
    0.5085   -2.3168    0.6140 H   0  0  0  0  0  0  0  0  0  0  0  0
    1.3290    1.7489    1.7236 H   0  0  0  0  0  0  0  0  0  0  0  0
   -1.1446    2.1748    1.9807 H   0  0  0  0  0  0  0  0  0  0  0  0
   -3.0981    0.4127    1.5878 N   0  0  0  0  0  0  0  0  0  0  0  0
   -3.8628   -0.5240    1.3651 O   0  0  0  0  0  0  0  0  0  0  0  0
   -3.4467    1.5417    1.9290 O   0  0  0  0  0  0  0  0  0  0  0  0
   12.3534    8.0647   -4.5156 N   0  0  0  0  0  0  0  0  0  0  0  0
   11.5646    7.4283   -4.0746 N   0  0  0  0  0  0  0  0  0  0  0  0
    3.1506   -0.6770   -0.3614 S   0  0  0  0  0  0  0  0  0  0  0  0
    3.1479    0.8690   -0.8629 O   0  0  0  0  0  0  0  0  0  0  0  0
    3.9632    1.2861   -0.5341 H   0  0  0  0  0  0  0  0  0  0  0  0
    2.2936   -1.3993   -1.2720 O   0  0  0  0  0  0  0  0  0  0  0  0
    4.5065   -1.0624   -0.0363 O   0  0  0  0  0  0  0  0  0  0  0  0
    2.4111   -0.5352    1.1051 O   0  0  0  0  0  0  0  0  0  0  0  0
  1  6  1  0  0  0  0
  2  1  2  0  0  0  0
  2  3  1  0  0  0  0
  3  4  2  0  0  0  0
  4  5  1  0  0  0  0
  4  9  1  0  0  0  0
  5 10  1  0  0  0  0
  6 11  1  0  0  0  0
  6  5  2  0  0  0  0
  7  1  1  0  0  0  0
  8  2  1  0  0  0  0
 11 13  2  0  0  0  0
 12 11  2  0  0  0  0
 14 15  3  0  0  0  0
 16 20  2  0  0  0  0
 16 21  1  0  0  0  0
 17 18  1  0  0  0  0
 17 16  1  0  0  0  0
 19 16  2  0  0  0  0
 21  3  1  0  0  0  0
M  END
