Coordinates from ORCA-job 4-NO2-Ph-N2-HSO4-B3LYPG-6-31G_dp-MTMO-d009-169-n800
 OpenBabel09051908393D

 21 20  0  0  0  0  0  0  0  0999 V2000
   -1.1718   -1.0705    1.0249 C   0  0  0  0  0  0  0  0  0  0  0  0
    0.1924   -1.3070    0.8858 C   0  0  0  0  0  0  0  0  0  0  0  0
    1.0853   -0.2636    1.1309 C   0  0  0  0  0  0  0  0  0  0  0  0
    0.6541    1.0056    1.5148 C   0  0  0  0  0  0  0  0  0  0  0  0
   -0.7096    1.2420    1.6603 C   0  0  0  0  0  0  0  0  0  0  0  0
   -1.5995    0.1989    1.4110 C   0  0  0  0  0  0  0  0  0  0  0  0
   -1.9033   -1.8478    0.8448 H   0  0  0  0  0  0  0  0  0  0  0  0
    0.5653   -2.2788    0.5869 H   0  0  0  0  0  0  0  0  0  0  0  0
    1.3825    1.7861    1.7019 H   0  0  0  0  0  0  0  0  0  0  0  0
   -1.0915    2.2096    1.9596 H   0  0  0  0  0  0  0  0  0  0  0  0
   -3.0435    0.4464    1.5644 N   0  0  0  0  0  0  0  0  0  0  0  0
   -3.8074   -0.4907    1.3405 O   0  0  0  0  0  0  0  0  0  0  0  0
   -3.3930    1.5746    1.9072 O   0  0  0  0  0  0  0  0  0  0  0  0
   11.8318    7.7102   -4.2870 N   0  0  0  0  0  0  0  0  0  0  0  0
   11.0436    7.0748   -3.8437 N   0  0  0  0  0  0  0  0  0  0  0  0
    3.2060   -0.6364   -0.3864 S   0  0  0  0  0  0  0  0  0  0  0  0
    3.2014    0.9099   -0.8871 O   0  0  0  0  0  0  0  0  0  0  0  0
    4.0161    1.3279   -0.5580 H   0  0  0  0  0  0  0  0  0  0  0  0
    2.3498   -1.3592   -1.2973 O   0  0  0  0  0  0  0  0  0  0  0  0
    4.5624   -1.0204   -0.0616 O   0  0  0  0  0  0  0  0  0  0  0  0
    2.4664   -0.4962    1.0803 O   0  0  0  0  0  0  0  0  0  0  0  0
  1  6  1  0  0  0  0
  2  1  2  0  0  0  0
  2  3  1  0  0  0  0
  3  4  2  0  0  0  0
  4  5  1  0  0  0  0
  4  9  1  0  0  0  0
  5 10  1  0  0  0  0
  6 11  1  0  0  0  0
  6  5  2  0  0  0  0
  7  1  1  0  0  0  0
  8  2  1  0  0  0  0
 11 13  2  0  0  0  0
 12 11  2  0  0  0  0
 14 15  3  0  0  0  0
 16 20  2  0  0  0  0
 16 21  1  0  0  0  0
 17 18  1  0  0  0  0
 17 16  1  0  0  0  0
 19 16  2  0  0  0  0
 21  3  1  0  0  0  0
M  END
