Coordinates from ORCA-job 4-NO2-Ph-N2-HSO4-B3LYPG-6-31G_dp-MTMO-d009-169-n800
 OpenBabel09051908393D

 21 20  0  0  0  0  0  0  0  0999 V2000
   -0.2848   -0.7197    0.4430 C   0  0  0  0  0  0  0  0  0  0  0  0
    1.1000   -0.7408    0.5779 C   0  0  0  0  0  0  0  0  0  0  0  0
    1.7343    0.3438    1.1837 C   0  0  0  0  0  0  0  0  0  0  0  0
    1.0247    1.4452    1.6608 C   0  0  0  0  0  0  0  0  0  0  0  0
   -0.3609    1.4656    1.5312 C   0  0  0  0  0  0  0  0  0  0  0  0
   -0.9917    0.3821    0.9227 C   0  0  0  0  0  0  0  0  0  0  0  0
   -0.8221   -1.5376   -0.0200 H   0  0  0  0  0  0  0  0  0  0  0  0
    1.6865   -1.5766    0.2170 H   0  0  0  0  0  0  0  0  0  0  0  0
    1.5577    2.2647    2.1288 H   0  0  0  0  0  0  0  0  0  0  0  0
   -0.9542    2.2975    1.8884 H   0  0  0  0  0  0  0  0  0  0  0  0
   -2.4580    0.4017    0.7833 N   0  0  0  0  0  0  0  0  0  0  0  0
   -2.9914   -0.5687    0.2490 O   0  0  0  0  0  0  0  0  0  0  0  0
   -3.0560    1.3881    1.2099 O   0  0  0  0  0  0  0  0  0  0  0  0
    4.5582    1.8219   -3.9779 N   0  0  0  0  0  0  0  0  0  0  0  0
    5.1918    1.9998   -3.0903 N   0  0  0  0  0  0  0  0  0  0  0  0
    4.1386    0.5926    0.1443 S   0  0  0  0  0  0  0  0  0  0  0  0
    3.9391    2.1925   -0.0621 O   0  0  0  0  0  0  0  0  0  0  0  0
    4.6307    2.6426    0.4533 H   0  0  0  0  0  0  0  0  0  0  0  0
    3.6208   -0.0400   -1.0468 O   0  0  0  0  0  0  0  0  0  0  0  0
    5.4564    0.3507    0.6895 O   0  0  0  0  0  0  0  0  0  0  0  0
    3.1178    0.3101    1.4067 O   0  0  0  0  0  0  0  0  0  0  0  0
  1  2  2  0  0  0  0
  1  6  1  0  0  0  0
  2  3  1  0  0  0  0
  3 21  1  0  0  0  0
  3  4  2  0  0  0  0
  4  9  1  0  0  0  0
  5  4  1  0  0  0  0
  5 10  1  0  0  0  0
  6  5  2  0  0  0  0
  7  1  1  0  0  0  0
  8  2  1  0  0  0  0
 11  6  1  0  0  0  0
 11 13  2  0  0  0  0
 12 11  2  0  0  0  0
 14 15  3  0  0  0  0
 16 20  2  0  0  0  0
 16 21  1  0  0  0  0
 17 16  1  0  0  0  0
 17 18  1  0  0  0  0
 19 16  2  0  0  0  0
M  END
