Coordinates from ORCA-job 4-NO2-Ph-N2-HSO4-B3LYPG-6-31G_dp-MTMO-d009-169-n800
 OpenBabel09051908393D

 21 20  0  0  0  0  0  0  0  0999 V2000
   -1.2126   -1.0966    1.0436 C   0  0  0  0  0  0  0  0  0  0  0  0
    0.1514   -1.3343    0.9048 C   0  0  0  0  0  0  0  0  0  0  0  0
    1.0451   -0.2912    1.1488 C   0  0  0  0  0  0  0  0  0  0  0  0
    0.6147    0.9788    1.5313 C   0  0  0  0  0  0  0  0  0  0  0  0
   -0.7488    1.2162    1.6765 C   0  0  0  0  0  0  0  0  0  0  0  0
   -1.6394    0.1734    1.4284 C   0  0  0  0  0  0  0  0  0  0  0  0
   -1.9446   -1.8736    0.8643 H   0  0  0  0  0  0  0  0  0  0  0  0
    0.5237   -2.3066    0.6069 H   0  0  0  0  0  0  0  0  0  0  0  0
    1.3436    1.7589    1.7175 H   0  0  0  0  0  0  0  0  0  0  0  0
   -1.1301    2.1844    1.9748 H   0  0  0  0  0  0  0  0  0  0  0  0
   -3.0832    0.4220    1.5814 N   0  0  0  0  0  0  0  0  0  0  0  0
   -3.8478   -0.5148    1.3586 O   0  0  0  0  0  0  0  0  0  0  0  0
   -3.4321    1.5508    1.9230 O   0  0  0  0  0  0  0  0  0  0  0  0
   12.2123    7.9693   -4.4536 N   0  0  0  0  0  0  0  0  0  0  0  0
   11.4236    7.3331   -4.0121 N   0  0  0  0  0  0  0  0  0  0  0  0
    3.1656   -0.6663   -0.3682 S   0  0  0  0  0  0  0  0  0  0  0  0
    3.1625    0.8797   -0.8695 O   0  0  0  0  0  0  0  0  0  0  0  0
    3.9776    1.2970   -0.5407 H   0  0  0  0  0  0  0  0  0  0  0  0
    2.3087   -1.3887   -1.2788 O   0  0  0  0  0  0  0  0  0  0  0  0
    4.5216   -1.0514   -0.0432 O   0  0  0  0  0  0  0  0  0  0  0  0
    2.4260   -0.5248    1.0984 O   0  0  0  0  0  0  0  0  0  0  0  0
  1  6  1  0  0  0  0
  2  1  2  0  0  0  0
  2  3  1  0  0  0  0
  3  4  2  0  0  0  0
  4  5  1  0  0  0  0
  4  9  1  0  0  0  0
  5 10  1  0  0  0  0
  6 11  1  0  0  0  0
  6  5  2  0  0  0  0
  7  1  1  0  0  0  0
  8  2  1  0  0  0  0
 11 13  2  0  0  0  0
 12 11  2  0  0  0  0
 14 15  3  0  0  0  0
 16 20  2  0  0  0  0
 16 21  1  0  0  0  0
 17 18  1  0  0  0  0
 17 16  1  0  0  0  0
 19 16  2  0  0  0  0
 21  3  1  0  0  0  0
M  END
