Coordinates from ORCA-job 4-NO2-Ph-N2-HSO4-B3LYPG-6-31G_dp-MTMO-d009-169-n800
 OpenBabel09051908393D

 21 20  0  0  0  0  0  0  0  0999 V2000
   -1.2621   -1.1290    1.0657 C   0  0  0  0  0  0  0  0  0  0  0  0
    0.1017   -1.3673    0.9272 C   0  0  0  0  0  0  0  0  0  0  0  0
    0.9958   -0.3245    1.1707 C   0  0  0  0  0  0  0  0  0  0  0  0
    0.5659    0.9459    1.5524 C   0  0  0  0  0  0  0  0  0  0  0  0
   -0.7974    1.1841    1.6973 C   0  0  0  0  0  0  0  0  0  0  0  0
   -1.6885    0.1415    1.4496 C   0  0  0  0  0  0  0  0  0  0  0  0
   -1.9945   -1.9057    0.8867 H   0  0  0  0  0  0  0  0  0  0  0  0
    0.4736   -2.3400    0.6299 H   0  0  0  0  0  0  0  0  0  0  0  0
    1.2952    1.7259    1.7382 H   0  0  0  0  0  0  0  0  0  0  0  0
   -1.1783    2.1525    1.9949 H   0  0  0  0  0  0  0  0  0  0  0  0
   -3.1322    0.3909    1.6023 N   0  0  0  0  0  0  0  0  0  0  0  0
   -3.8972   -0.5457    1.3799 O   0  0  0  0  0  0  0  0  0  0  0  0
   -3.4806    1.5201    1.9431 O   0  0  0  0  0  0  0  0  0  0  0  0
   12.6784    8.2835   -4.6585 N   0  0  0  0  0  0  0  0  0  0  0  0
   11.8894    7.6466   -4.2188 N   0  0  0  0  0  0  0  0  0  0  0  0
    3.1164   -0.7011   -0.3458 S   0  0  0  0  0  0  0  0  0  0  0  0
    3.1143    0.8449   -0.8475 O   0  0  0  0  0  0  0  0  0  0  0  0
    3.9298    1.2616   -0.5187 H   0  0  0  0  0  0  0  0  0  0  0  0
    2.2592   -1.4231   -1.2564 O   0  0  0  0  0  0  0  0  0  0  0  0
    4.4721   -1.0869   -0.0205 O   0  0  0  0  0  0  0  0  0  0  0  0
    2.3767   -0.5588    1.1206 O   0  0  0  0  0  0  0  0  0  0  0  0
  1  6  1  0  0  0  0
  2  1  2  0  0  0  0
  2  3  1  0  0  0  0
  3  4  2  0  0  0  0
  4  5  1  0  0  0  0
  4  9  1  0  0  0  0
  5 10  1  0  0  0  0
  6 11  1  0  0  0  0
  6  5  2  0  0  0  0
  7  1  1  0  0  0  0
  8  2  1  0  0  0  0
 11 13  2  0  0  0  0
 12 11  2  0  0  0  0
 14 15  3  0  0  0  0
 16 20  2  0  0  0  0
 16 21  1  0  0  0  0
 17 18  1  0  0  0  0
 17 16  1  0  0  0  0
 19 16  2  0  0  0  0
 21  3  1  0  0  0  0
M  END
