Coordinates from ORCA-job 4-NO2-Ph-N2-HSO4-B3LYPG-6-31G_dp-MTMO-d009-169-n800
 OpenBabel09051908393D

 21 20  0  0  0  0  0  0  0  0999 V2000
   -0.0313   -0.6376    0.2046 C   0  0  0  0  0  0  0  0  0  0  0  0
    1.3189   -0.7080    0.5331 C   0  0  0  0  0  0  0  0  0  0  0  0
    1.8969    0.3503    1.2342 C   0  0  0  0  0  0  0  0  0  0  0  0
    1.1641    1.4718    1.6203 C   0  0  0  0  0  0  0  0  0  0  0  0
   -0.1879    1.5406    1.2981 C   0  0  0  0  0  0  0  0  0  0  0  0
   -0.7618    0.4842    0.5933 C   0  0  0  0  0  0  0  0  0  0  0  0
   -0.5248   -1.4328   -0.3398 H   0  0  0  0  0  0  0  0  0  0  0  0
    1.9220   -1.5612    0.2483 H   0  0  0  0  0  0  0  0  0  0  0  0
    1.6521    2.2691    2.1691 H   0  0  0  0  0  0  0  0  0  0  0  0
   -0.7982    2.3895    1.5784 H   0  0  0  0  0  0  0  0  0  0  0  0
   -2.1921    0.5560    0.2486 N   0  0  0  0  0  0  0  0  0  0  0  0
   -2.6760   -0.3900   -0.3700 O   0  0  0  0  0  0  0  0  0  0  0  0
   -2.8117    1.5581    0.6013 O   0  0  0  0  0  0  0  0  0  0  0  0
    2.2549    1.6650   -2.7430 N   0  0  0  0  0  0  0  0  0  0  0  0
    2.9950    1.6883   -3.5634 N   0  0  0  0  0  0  0  0  0  0  0  0
    4.4338    0.4939    0.5409 S   0  0  0  0  0  0  0  0  0  0  0  0
    4.3309    2.0955    0.2838 O   0  0  0  0  0  0  0  0  0  0  0  0
    4.8982    2.5370    0.9394 H   0  0  0  0  0  0  0  0  0  0  0  0
    4.0721   -0.1370   -0.7073 O   0  0  0  0  0  0  0  0  0  0  0  0
    5.6481    0.2123    1.2747 O   0  0  0  0  0  0  0  0  0  0  0  0
    3.2342    0.2704    1.6477 O   0  0  0  0  0  0  0  0  0  0  0  0
  1  2  2  0  0  0  0
  1  6  1  0  0  0  0
  2  3  1  0  0  0  0
  3  4  2  0  0  0  0
  3 21  1  0  0  0  0
  4  9  1  0  0  0  0
  5 10  1  0  0  0  0
  5  4  1  0  0  0  0
  6  5  2  0  0  0  0
  7  1  1  0  0  0  0
  8  2  1  0  0  0  0
 11  6  1  0  0  0  0
 11 13  2  0  0  0  0
 12 11  2  0  0  0  0
 15 14  3  0  0  0  0
 16 20  2  0  0  0  0
 16 21  1  0  0  0  0
 17 16  1  0  0  0  0
 17 18  1  0  0  0  0
 19 16  2  0  0  0  0
M  END
