Coordinates from ORCA-job 4-NO2-Ph-N2-HSO4-B3LYPG-6-31G_dp-MTMO-d009-169-n800
 OpenBabel09051908393D

 21 20  0  0  0  0  0  0  0  0999 V2000
   -0.0388   -0.6168    0.1928 C   0  0  0  0  0  0  0  0  0  0  0  0
    1.3138   -0.6865    0.5121 C   0  0  0  0  0  0  0  0  0  0  0  0
    1.8872    0.3553    1.2413 C   0  0  0  0  0  0  0  0  0  0  0  0
    1.1472    1.4584    1.6651 C   0  0  0  0  0  0  0  0  0  0  0  0
   -0.2070    1.5259    1.3524 C   0  0  0  0  0  0  0  0  0  0  0  0
   -0.7763    0.4867    0.6189 C   0  0  0  0  0  0  0  0  0  0  0  0
   -0.5289   -1.3995   -0.3723 H   0  0  0  0  0  0  0  0  0  0  0  0
    1.9215   -1.5259    0.1983 H   0  0  0  0  0  0  0  0  0  0  0  0
    1.6317    2.2425    2.2357 H   0  0  0  0  0  0  0  0  0  0  0  0
   -0.8224    2.3610    1.6616 H   0  0  0  0  0  0  0  0  0  0  0  0
   -2.2089    0.5571    0.2838 N   0  0  0  0  0  0  0  0  0  0  0  0
   -2.6890   -0.3747   -0.3589 O   0  0  0  0  0  0  0  0  0  0  0  0
   -2.8341    1.5441    0.6679 O   0  0  0  0  0  0  0  0  0  0  0  0
    2.3709    1.6288   -2.8840 N   0  0  0  0  0  0  0  0  0  0  0  0
    3.1492    1.6133   -3.6684 N   0  0  0  0  0  0  0  0  0  0  0  0
    4.4227    0.5055    0.5374 S   0  0  0  0  0  0  0  0  0  0  0  0
    4.3038    2.1040    0.2696 O   0  0  0  0  0  0  0  0  0  0  0  0
    4.8613    2.5562    0.9265 H   0  0  0  0  0  0  0  0  0  0  0  0
    4.0670   -0.1367   -0.7068 O   0  0  0  0  0  0  0  0  0  0  0  0
    5.6400    0.2396    1.2720 O   0  0  0  0  0  0  0  0  0  0  0  0
    3.2268    0.2772    1.6472 O   0  0  0  0  0  0  0  0  0  0  0  0
  1  2  2  0  0  0  0
  1  6  1  0  0  0  0
  2  3  1  0  0  0  0
  3 21  1  0  0  0  0
  3  4  2  0  0  0  0
  4  9  1  0  0  0  0
  5 10  1  0  0  0  0
  5  4  1  0  0  0  0
  6  5  2  0  0  0  0
  7  1  1  0  0  0  0
  8  2  1  0  0  0  0
 11  6  1  0  0  0  0
 11 13  2  0  0  0  0
 12 11  2  0  0  0  0
 15 14  3  0  0  0  0
 16 20  2  0  0  0  0
 16 21  1  0  0  0  0
 17 16  1  0  0  0  0
 17 18  1  0  0  0  0
 19 16  2  0  0  0  0
M  END
