Coordinates from ORCA-job 4-NO2-Ph-N2-HSO4-B3LYPG-6-31G_dp-MTMO-d009-169-n800
 OpenBabel09051908393D

 21 20  0  0  0  0  0  0  0  0999 V2000
   -0.5182   -0.8246    0.8388 C   0  0  0  0  0  0  0  0  0  0  0  0
    0.8533   -0.8786    0.6104 C   0  0  0  0  0  0  0  0  0  0  0  0
    1.6156    0.2726    0.8111 C   0  0  0  0  0  0  0  0  0  0  0  0
    1.0462    1.4726    1.2365 C   0  0  0  0  0  0  0  0  0  0  0  0
   -0.3242    1.5264    1.4718 C   0  0  0  0  0  0  0  0  0  0  0  0
   -1.0837    0.3757    1.2672 C   0  0  0  0  0  0  0  0  0  0  0  0
   -1.1513   -1.6910    0.6956 H   0  0  0  0  0  0  0  0  0  0  0  0
    1.3305   -1.7913    0.2754 H   0  0  0  0  0  0  0  0  0  0  0  0
    1.6770    2.3414    1.3840 H   0  0  0  0  0  0  0  0  0  0  0  0
   -0.8094    2.4343    1.8062 H   0  0  0  0  0  0  0  0  0  0  0  0
   -2.5343    0.4296    1.5154 N   0  0  0  0  0  0  0  0  0  0  0  0
   -3.1820   -0.5989    1.3286 O   0  0  0  0  0  0  0  0  0  0  0  0
   -3.0069    1.5000    1.8948 O   0  0  0  0  0  0  0  0  0  0  0  0
    7.2794    3.4519   -1.5398 N   0  0  0  0  0  0  0  0  0  0  0  0
    6.2538    3.0876   -1.3537 N   0  0  0  0  0  0  0  0  0  0  0  0
    3.6711    0.1792   -0.8386 S   0  0  0  0  0  0  0  0  0  0  0  0
    3.4732    1.7129   -1.3153 O   0  0  0  0  0  0  0  0  0  0  0  0
    4.3139    2.1882   -1.1681 H   0  0  0  0  0  0  0  0  0  0  0  0
    2.8455   -0.6394   -1.6971 O   0  0  0  0  0  0  0  0  0  0  0  0
    5.0794   -0.0603   -0.6026 O   0  0  0  0  0  0  0  0  0  0  0  0
    3.0089    0.2270    0.6716 O   0  0  0  0  0  0  0  0  0  0  0  0
  1  6  2  0  0  0  0
  2  3  2  0  0  0  0
  2  1  1  0  0  0  0
  3  4  1  0  0  0  0
  4  9  1  0  0  0  0
  4  5  2  0  0  0  0
  5 10  1  0  0  0  0
  6  5  1  0  0  0  0
  6 11  1  0  0  0  0
  7  1  1  0  0  0  0
  8  2  1  0  0  0  0
 11 13  2  0  0  0  0
 12 11  2  0  0  0  0
 14 15  3  0  0  0  0
 16 20  2  0  0  0  0
 16 21  1  0  0  0  0
 17 18  1  0  0  0  0
 17 16  1  0  0  0  0
 19 16  2  0  0  0  0
 21  3  1  0  0  0  0
M  END
