Coordinates from ORCA-job 4-NO2-Ph-N2-HSO4-B3LYPG-6-31G_dp-MTMO-d009-169-n800
 OpenBabel09051908393D

 21 20  0  0  0  0  0  0  0  0999 V2000
   -1.3399   -1.1804    1.0996 C   0  0  0  0  0  0  0  0  0  0  0  0
    0.0240   -1.4190    0.9615 C   0  0  0  0  0  0  0  0  0  0  0  0
    0.9182   -0.3763    1.2052 C   0  0  0  0  0  0  0  0  0  0  0  0
    0.4884    0.8942    1.5866 C   0  0  0  0  0  0  0  0  0  0  0  0
   -0.8750    1.1326    1.7310 C   0  0  0  0  0  0  0  0  0  0  0  0
   -1.7661    0.0902    1.4832 C   0  0  0  0  0  0  0  0  0  0  0  0
   -2.0723   -1.9571    0.9205 H   0  0  0  0  0  0  0  0  0  0  0  0
    0.3958   -2.3918    0.6645 H   0  0  0  0  0  0  0  0  0  0  0  0
    1.2177    1.6740    1.7725 H   0  0  0  0  0  0  0  0  0  0  0  0
   -1.2558    2.1012    2.0284 H   0  0  0  0  0  0  0  0  0  0  0  0
   -3.2099    0.3398    1.6354 N   0  0  0  0  0  0  0  0  0  0  0  0
   -3.9749   -0.5966    1.4129 O   0  0  0  0  0  0  0  0  0  0  0  0
   -3.5581    1.4691    1.9759 O   0  0  0  0  0  0  0  0  0  0  0  0
   13.4147    8.7758   -4.9827 N   0  0  0  0  0  0  0  0  0  0  0  0
   12.6252    8.1377   -4.5454 N   0  0  0  0  0  0  0  0  0  0  0  0
    3.0391   -0.7535   -0.3106 S   0  0  0  0  0  0  0  0  0  0  0  0
    3.0376    0.7925   -0.8124 O   0  0  0  0  0  0  0  0  0  0  0  0
    3.8530    1.2090   -0.4833 H   0  0  0  0  0  0  0  0  0  0  0  0
    2.1821   -1.4754   -1.2215 O   0  0  0  0  0  0  0  0  0  0  0  0
    4.3947   -1.1396    0.0151 O   0  0  0  0  0  0  0  0  0  0  0  0
    2.2990   -0.6109    1.1556 O   0  0  0  0  0  0  0  0  0  0  0  0
  1  6  1  0  0  0  0
  2  1  2  0  0  0  0
  2  3  1  0  0  0  0
  3  4  2  0  0  0  0
  4  5  1  0  0  0  0
  4  9  1  0  0  0  0
  5 10  1  0  0  0  0
  6 11  1  0  0  0  0
  6  5  2  0  0  0  0
  7  1  1  0  0  0  0
  8  2  1  0  0  0  0
 11 13  2  0  0  0  0
 12 11  2  0  0  0  0
 14 15  3  0  0  0  0
 16 20  2  0  0  0  0
 16 21  1  0  0  0  0
 17 18  1  0  0  0  0
 17 16  1  0  0  0  0
 19 16  2  0  0  0  0
 21  3  1  0  0  0  0
M  END
