Coordinates from ORCA-job 4-NO2-Ph-N2-HSO4-B3LYPG-6-31G_dp-MTMO-d009-169-n800
 OpenBabel09051908393D

 21 20  0  0  0  0  0  0  0  0999 V2000
   -1.0615   -1.0027    0.9715 C   0  0  0  0  0  0  0  0  0  0  0  0
    0.3036   -1.2331    0.8315 C   0  0  0  0  0  0  0  0  0  0  0  0
    1.1924   -0.1877    1.0834 C   0  0  0  0  0  0  0  0  0  0  0  0
    0.7560    1.0774    1.4751 C   0  0  0  0  0  0  0  0  0  0  0  0
   -0.6086    1.3075    1.6216 C   0  0  0  0  0  0  0  0  0  0  0  0
   -1.4943    0.2625    1.3654 C   0  0  0  0  0  0  0  0  0  0  0  0
   -1.7899   -1.7817    0.7862 H   0  0  0  0  0  0  0  0  0  0  0  0
    0.6804   -2.2016    0.5267 H   0  0  0  0  0  0  0  0  0  0  0  0
    1.4813    1.8594    1.6674 H   0  0  0  0  0  0  0  0  0  0  0  0
   -0.9944    2.2717    1.9268 H   0  0  0  0  0  0  0  0  0  0  0  0
   -2.9393    0.5033    1.5197 N   0  0  0  0  0  0  0  0  0  0  0  0
   -3.6995   -0.4352    1.2895 O   0  0  0  0  0  0  0  0  0  0  0  0
   -3.2935    1.6280    1.8697 O   0  0  0  0  0  0  0  0  0  0  0  0
   10.8255    7.0058   -3.8491 N   0  0  0  0  0  0  0  0  0  0  0  0
   10.0388    6.3733   -3.3988 N   0  0  0  0  0  0  0  0  0  0  0  0
    3.3150   -0.5464   -0.4350 S   0  0  0  0  0  0  0  0  0  0  0  0
    3.3016    1.0010   -0.9319 O   0  0  0  0  0  0  0  0  0  0  0  0
    4.1132    1.4234   -0.6008 H   0  0  0  0  0  0  0  0  0  0  0  0
    2.4630   -1.2717   -1.3479 O   0  0  0  0  0  0  0  0  0  0  0  0
    4.6734   -0.9237   -0.1109 O   0  0  0  0  0  0  0  0  0  0  0  0
    2.5745   -0.4141    1.0320 O   0  0  0  0  0  0  0  0  0  0  0  0
  1  6  1  0  0  0  0
  2  1  2  0  0  0  0
  2  3  1  0  0  0  0
  3  4  2  0  0  0  0
  4  5  1  0  0  0  0
  4  9  1  0  0  0  0
  5 10  1  0  0  0  0
  6 11  1  0  0  0  0
  6  5  2  0  0  0  0
  7  1  1  0  0  0  0
  8  2  1  0  0  0  0
 11 13  2  0  0  0  0
 12 11  2  0  0  0  0
 14 15  3  0  0  0  0
 16 20  2  0  0  0  0
 16 21  1  0  0  0  0
 17 18  1  0  0  0  0
 17 16  1  0  0  0  0
 19 16  2  0  0  0  0
 21  3  1  0  0  0  0
M  END
