Coordinates from ORCA-job 4-NO2-Ph-N2-HSO4-B3LYPG-6-31G_dp-MTMO-d009-169-n800
 OpenBabel09051908393D

 21 20  0  0  0  0  0  0  0  0999 V2000
   -1.2336   -1.1103    1.0531 C   0  0  0  0  0  0  0  0  0  0  0  0
    0.1303   -1.3483    0.9144 C   0  0  0  0  0  0  0  0  0  0  0  0
    1.0242   -0.3053    1.1581 C   0  0  0  0  0  0  0  0  0  0  0  0
    0.5941    0.9648    1.5401 C   0  0  0  0  0  0  0  0  0  0  0  0
   -0.7694    1.2027    1.6852 C   0  0  0  0  0  0  0  0  0  0  0  0
   -1.6602    0.1600    1.4374 C   0  0  0  0  0  0  0  0  0  0  0  0
   -1.9658   -1.8872    0.8740 H   0  0  0  0  0  0  0  0  0  0  0  0
    0.5024   -2.3208    0.6168 H   0  0  0  0  0  0  0  0  0  0  0  0
    1.3231    1.7449    1.7261 H   0  0  0  0  0  0  0  0  0  0  0  0
   -1.1504    2.1710    1.9832 H   0  0  0  0  0  0  0  0  0  0  0  0
   -3.1040    0.4090    1.5903 N   0  0  0  0  0  0  0  0  0  0  0  0
   -3.8688   -0.5277    1.3677 O   0  0  0  0  0  0  0  0  0  0  0  0
   -3.4525    1.5380    1.9314 O   0  0  0  0  0  0  0  0  0  0  0  0
   12.4099    8.1029   -4.5404 N   0  0  0  0  0  0  0  0  0  0  0  0
   11.6211    7.4663   -4.0997 N   0  0  0  0  0  0  0  0  0  0  0  0
    3.1447   -0.6813   -0.3587 S   0  0  0  0  0  0  0  0  0  0  0  0
    3.1421    0.8647   -0.8603 O   0  0  0  0  0  0  0  0  0  0  0  0
    3.9574    1.2817   -0.5315 H   0  0  0  0  0  0  0  0  0  0  0  0
    2.2876   -1.4035   -1.2693 O   0  0  0  0  0  0  0  0  0  0  0  0
    4.5005   -1.0667   -0.0336 O   0  0  0  0  0  0  0  0  0  0  0  0
    2.4051   -0.5393    1.1078 O   0  0  0  0  0  0  0  0  0  0  0  0
  1  6  1  0  0  0  0
  2  1  2  0  0  0  0
  2  3  1  0  0  0  0
  3  4  2  0  0  0  0
  4  5  1  0  0  0  0
  4  9  1  0  0  0  0
  5 10  1  0  0  0  0
  6 11  1  0  0  0  0
  6  5  2  0  0  0  0
  7  1  1  0  0  0  0
  8  2  1  0  0  0  0
 11 13  2  0  0  0  0
 12 11  2  0  0  0  0
 14 15  3  0  0  0  0
 16 20  2  0  0  0  0
 16 21  1  0  0  0  0
 17 18  1  0  0  0  0
 17 16  1  0  0  0  0
 19 16  2  0  0  0  0
 21  3  1  0  0  0  0
M  END
