Coordinates from ORCA-job 4-NO2-Ph-N2-HSO4-B3LYPG-6-31G_dp-MTMO-d009-169-n800
 OpenBabel09051908393D

 21 20  0  0  0  0  0  0  0  0999 V2000
   -1.3160   -1.1646    1.0892 C   0  0  0  0  0  0  0  0  0  0  0  0
    0.0479   -1.4031    0.9510 C   0  0  0  0  0  0  0  0  0  0  0  0
    0.9421   -0.3604    1.1946 C   0  0  0  0  0  0  0  0  0  0  0  0
    0.5124    0.9101    1.5760 C   0  0  0  0  0  0  0  0  0  0  0  0
   -0.8510    1.1485    1.7205 C   0  0  0  0  0  0  0  0  0  0  0  0
   -1.7422    0.1061    1.4729 C   0  0  0  0  0  0  0  0  0  0  0  0
   -2.0485   -1.9412    0.9103 H   0  0  0  0  0  0  0  0  0  0  0  0
    0.4197   -2.3759    0.6540 H   0  0  0  0  0  0  0  0  0  0  0  0
    1.2417    1.6899    1.7618 H   0  0  0  0  0  0  0  0  0  0  0  0
   -1.2318    2.1171    2.0179 H   0  0  0  0  0  0  0  0  0  0  0  0
   -3.1859    0.3557    1.6252 N   0  0  0  0  0  0  0  0  0  0  0  0
   -3.9510   -0.5808    1.4028 O   0  0  0  0  0  0  0  0  0  0  0  0
   -3.5342    1.4850    1.9657 O   0  0  0  0  0  0  0  0  0  0  0  0
   13.1880    8.6246   -4.8828 N   0  0  0  0  0  0  0  0  0  0  0  0
   12.3986    7.9869   -4.4448 N   0  0  0  0  0  0  0  0  0  0  0  0
    3.0629   -0.7376   -0.3214 S   0  0  0  0  0  0  0  0  0  0  0  0
    3.0613    0.8084   -0.8232 O   0  0  0  0  0  0  0  0  0  0  0  0
    3.8768    1.2249   -0.4942 H   0  0  0  0  0  0  0  0  0  0  0  0
    2.2057   -1.4595   -1.2322 O   0  0  0  0  0  0  0  0  0  0  0  0
    4.4184   -1.1237    0.0041 O   0  0  0  0  0  0  0  0  0  0  0  0
    2.3229   -0.5950    1.1448 O   0  0  0  0  0  0  0  0  0  0  0  0
  1  6  1  0  0  0  0
  2  1  2  0  0  0  0
  2  3  1  0  0  0  0
  3  4  2  0  0  0  0
  4  5  1  0  0  0  0
  4  9  1  0  0  0  0
  5 10  1  0  0  0  0
  6 11  1  0  0  0  0
  6  5  2  0  0  0  0
  7  1  1  0  0  0  0
  8  2  1  0  0  0  0
 11 13  2  0  0  0  0
 12 11  2  0  0  0  0
 14 15  3  0  0  0  0
 16 20  2  0  0  0  0
 16 21  1  0  0  0  0
 17 18  1  0  0  0  0
 17 16  1  0  0  0  0
 19 16  2  0  0  0  0
 21  3  1  0  0  0  0
M  END
