Coordinates from ORCA-job 4-NO2-Ph-N2-HSO4-B3LYPG-6-31G_dp-MTMO-d009-169-n800
 OpenBabel09051908393D

 21 20  0  0  0  0  0  0  0  0999 V2000
   -0.6595   -0.8562    0.8214 C   0  0  0  0  0  0  0  0  0  0  0  0
    0.7162   -0.9656    0.6437 C   0  0  0  0  0  0  0  0  0  0  0  0
    1.5193    0.1445    0.9054 C   0  0  0  0  0  0  0  0  0  0  0  0
    0.9878    1.3577    1.3413 C   0  0  0  0  0  0  0  0  0  0  0  0
   -0.3874    1.4670    1.5249 C   0  0  0  0  0  0  0  0  0  0  0  0
   -1.1878    0.3571    1.2603 C   0  0  0  0  0  0  0  0  0  0  0  0
   -1.3240   -1.6892    0.6304 H   0  0  0  0  0  0  0  0  0  0  0  0
    1.1660   -1.8899    0.3026 H   0  0  0  0  0  0  0  0  0  0  0  0
    1.6496    2.1934    1.5367 H   0  0  0  0  0  0  0  0  0  0  0  0
   -0.8453    2.3871    1.8647 H   0  0  0  0  0  0  0  0  0  0  0  0
   -2.6436    0.4696    1.4543 N   0  0  0  0  0  0  0  0  0  0  0  0
   -3.3274   -0.5242    1.2161 O   0  0  0  0  0  0  0  0  0  0  0  0
   -3.0833    1.5504    1.8432 O   0  0  0  0  0  0  0  0  0  0  0  0
    7.8816    4.2566   -2.4100 N   0  0  0  0  0  0  0  0  0  0  0  0
    7.0235    3.7383   -1.9443 N   0  0  0  0  0  0  0  0  0  0  0  0
    3.6329    0.0354   -0.6675 S   0  0  0  0  0  0  0  0  0  0  0  0
    3.5829    1.6154   -1.0434 O   0  0  0  0  0  0  0  0  0  0  0  0
    4.4371    2.0074   -0.7890 H   0  0  0  0  0  0  0  0  0  0  0  0
    2.7788   -0.6419   -1.6154 O   0  0  0  0  0  0  0  0  0  0  0  0
    5.0063   -0.3332   -0.3991 O   0  0  0  0  0  0  0  0  0  0  0  0
    2.9140    0.0357    0.8159 O   0  0  0  0  0  0  0  0  0  0  0  0
  1  6  1  0  0  0  0
  2  1  2  0  0  0  0
  2  3  1  0  0  0  0
  3  4  2  0  0  0  0
  4  5  1  0  0  0  0
  4  9  1  0  0  0  0
  5 10  1  0  0  0  0
  6 11  1  0  0  0  0
  6  5  2  0  0  0  0
  7  1  1  0  0  0  0
  8  2  1  0  0  0  0
 11 13  2  0  0  0  0
 12 11  2  0  0  0  0
 14 15  3  0  0  0  0
 16 20  2  0  0  0  0
 16 21  1  0  0  0  0
 17 18  1  0  0  0  0
 17 16  1  0  0  0  0
 19 16  2  0  0  0  0
 21  3  1  0  0  0  0
M  END
