Coordinates from ORCA-job 4-NO2-Ph-N2-HSO4-B3LYPG-6-31G_dp-MTMO-d009-169-n800
 OpenBabel09051908393D

 21 20  0  0  0  0  0  0  0  0999 V2000
    0.0620   -0.6164    0.0999 C   0  0  0  0  0  0  0  0  0  0  0  0
    1.4042   -0.6236    0.4666 C   0  0  0  0  0  0  0  0  0  0  0  0
    1.9341    0.5030    1.0977 C   0  0  0  0  0  0  0  0  0  0  0  0
    1.1518    1.6171    1.4019 C   0  0  0  0  0  0  0  0  0  0  0  0
   -0.1926    1.6199    1.0454 C   0  0  0  0  0  0  0  0  0  0  0  0
   -0.7145    0.5036    0.3936 C   0  0  0  0  0  0  0  0  0  0  0  0
   -0.3925   -1.4640   -0.3974 H   0  0  0  0  0  0  0  0  0  0  0  0
    2.0344   -1.4788    0.2592 H   0  0  0  0  0  0  0  0  0  0  0  0
    1.6003    2.4615    1.9127 H   0  0  0  0  0  0  0  0  0  0  0  0
   -0.8374    2.4626    1.2600 H   0  0  0  0  0  0  0  0  0  0  0  0
   -2.1364    0.5049    0.0120 N   0  0  0  0  0  0  0  0  0  0  0  0
   -2.5734   -0.4939   -0.5568 O   0  0  0  0  0  0  0  0  0  0  0  0
   -2.7970    1.5056    0.2859 O   0  0  0  0  0  0  0  0  0  0  0  0
    2.1163    1.7371   -1.6115 N   0  0  0  0  0  0  0  0  0  0  0  0
    1.4399    1.7585   -2.4857 N   0  0  0  0  0  0  0  0  0  0  0  0
    4.5598    0.3611    0.6211 S   0  0  0  0  0  0  0  0  0  0  0  0
    4.7546    1.8948    0.1287 O   0  0  0  0  0  0  0  0  0  0  0  0
    5.3216    2.3423    0.7807 H   0  0  0  0  0  0  0  0  0  0  0  0
    4.2289   -0.4104   -0.5545 O   0  0  0  0  0  0  0  0  0  0  0  0
    5.6327    0.0296    1.5335 O   0  0  0  0  0  0  0  0  0  0  0  0
    3.2409    0.5009    1.5992 O   0  0  0  0  0  0  0  0  0  0  0  0
  1  6  2  0  0  0  0
  1  2  1  0  0  0  0
  2  3  2  0  0  0  0
  3  4  1  0  0  0  0
  3 21  1  0  0  0  0
  4  9  1  0  0  0  0
  5 10  1  0  0  0  0
  5  4  2  0  0  0  0
  6  5  1  0  0  0  0
  7  1  1  0  0  0  0
  8  2  1  0  0  0  0
 11 13  2  0  0  0  0
 11  6  1  0  0  0  0
 12 11  2  0  0  0  0
 15 14  3  0  0  0  0
 16 20  2  0  0  0  0
 16 21  1  0  0  0  0
 17 16  1  0  0  0  0
 17 18  1  0  0  0  0
 19 16  2  0  0  0  0
M  END
