Coordinates from ORCA-job 4-NO2-Ph-N2-HSO4-B3LYPG-6-31G_dp-MTMO-d009-169-n800
 OpenBabel09051908393D

 21 20  0  0  0  0  0  0  0  0999 V2000
   -0.5677   -0.8489    0.8261 C   0  0  0  0  0  0  0  0  0  0  0  0
    0.8076   -0.9084    0.6236 C   0  0  0  0  0  0  0  0  0  0  0  0
    1.5728    0.2343    0.8561 C   0  0  0  0  0  0  0  0  0  0  0  0
    1.0039    1.4328    1.2854 C   0  0  0  0  0  0  0  0  0  0  0  0
   -0.3709    1.4928    1.4931 C   0  0  0  0  0  0  0  0  0  0  0  0
   -1.1334    0.3498    1.2589 C   0  0  0  0  0  0  0  0  0  0  0  0
   -1.2036   -1.7088    0.6585 H   0  0  0  0  0  0  0  0  0  0  0  0
    1.2861   -1.8198    0.2860 H   0  0  0  0  0  0  0  0  0  0  0  0
    1.6376    2.2954    1.4555 H   0  0  0  0  0  0  0  0  0  0  0  0
   -0.8570    2.3998    1.8289 H   0  0  0  0  0  0  0  0  0  0  0  0
   -2.5885    0.4102    1.4787 N   0  0  0  0  0  0  0  0  0  0  0  0
   -3.2386   -0.6119    1.2672 O   0  0  0  0  0  0  0  0  0  0  0  0
   -3.0619    1.4791    1.8610 O   0  0  0  0  0  0  0  0  0  0  0  0
    7.4273    3.6202   -2.0170 N   0  0  0  0  0  0  0  0  0  0  0  0
    6.5008    3.1758   -1.6113 N   0  0  0  0  0  0  0  0  0  0  0  0
    3.6652    0.2115   -0.7525 S   0  0  0  0  0  0  0  0  0  0  0  0
    3.6305    1.8005   -1.0741 O   0  0  0  0  0  0  0  0  0  0  0  0
    4.5317    2.1539   -0.9505 H   0  0  0  0  0  0  0  0  0  0  0  0
    2.7869   -0.4365   -1.7000 O   0  0  0  0  0  0  0  0  0  0  0  0
    5.0398   -0.1812   -0.5236 O   0  0  0  0  0  0  0  0  0  0  0  0
    2.9688    0.1746    0.7420 O   0  0  0  0  0  0  0  0  0  0  0  0
  1  6  1  0  0  0  0
  2  1  2  0  0  0  0
  2  3  1  0  0  0  0
  3  4  2  0  0  0  0
  4  9  1  0  0  0  0
  4  5  1  0  0  0  0
  5 10  1  0  0  0  0
  6 11  1  0  0  0  0
  6  5  2  0  0  0  0
  7  1  1  0  0  0  0
  8  2  1  0  0  0  0
 11 13  2  0  0  0  0
 12 11  2  0  0  0  0
 14 15  3  0  0  0  0
 16 20  2  0  0  0  0
 16 21  1  0  0  0  0
 17 18  1  0  0  0  0
 17 16  1  0  0  0  0
 19 16  2  0  0  0  0
 21  3  1  0  0  0  0
M  END
