Coordinates from ORCA-job 4-NO2-Ph-N2-HSO4-B3LYPG-6-31G_dp-MTMO-d009-169-n800
 OpenBabel09051908393D

 21 20  0  0  0  0  0  0  0  0999 V2000
   -0.5827   -0.8511    0.8168 C   0  0  0  0  0  0  0  0  0  0  0  0
    0.7936   -0.9087    0.6207 C   0  0  0  0  0  0  0  0  0  0  0  0
    1.5574    0.2316    0.8688 C   0  0  0  0  0  0  0  0  0  0  0  0
    0.9865    1.4256    1.3076 C   0  0  0  0  0  0  0  0  0  0  0  0
   -0.3894    1.4835    1.5092 C   0  0  0  0  0  0  0  0  0  0  0  0
   -1.1506    0.3430    1.2592 C   0  0  0  0  0  0  0  0  0  0  0  0
   -1.2178   -1.7092    0.6371 H   0  0  0  0  0  0  0  0  0  0  0  0
    1.2735   -1.8167    0.2762 H   0  0  0  0  0  0  0  0  0  0  0  0
    1.6194    2.2863    1.4900 H   0  0  0  0  0  0  0  0  0  0  0  0
   -0.8772    2.3870    1.8519 H   0  0  0  0  0  0  0  0  0  0  0  0
   -2.6068    0.4011    1.4724 N   0  0  0  0  0  0  0  0  0  0  0  0
   -3.2558   -0.6187    1.2468 O   0  0  0  0  0  0  0  0  0  0  0  0
   -3.0821    1.4660    1.8636 O   0  0  0  0  0  0  0  0  0  0  0  0
    7.5089    3.6789   -2.1427 N   0  0  0  0  0  0  0  0  0  0  0  0
    6.6045    3.2225   -1.7013 N   0  0  0  0  0  0  0  0  0  0  0  0
    3.6635    0.2087   -0.7258 S   0  0  0  0  0  0  0  0  0  0  0  0
    3.6603    1.8011   -1.0372 O   0  0  0  0  0  0  0  0  0  0  0  0
    4.5677    2.1355   -0.9097 H   0  0  0  0  0  0  0  0  0  0  0  0
    2.7812   -0.4162   -1.6851 O   0  0  0  0  0  0  0  0  0  0  0  0
    5.0292   -0.2089   -0.4889 O   0  0  0  0  0  0  0  0  0  0  0  0
    2.9543    0.1740    0.7626 O   0  0  0  0  0  0  0  0  0  0  0  0
  1  6  1  0  0  0  0
  2  1  2  0  0  0  0
  2  3  1  0  0  0  0
  3  4  2  0  0  0  0
  4  9  1  0  0  0  0
  4  5  1  0  0  0  0
  5 10  1  0  0  0  0
  6 11  1  0  0  0  0
  6  5  2  0  0  0  0
  7  1  1  0  0  0  0
  8  2  1  0  0  0  0
 11 13  2  0  0  0  0
 12 11  2  0  0  0  0
 14 15  3  0  0  0  0
 16 20  2  0  0  0  0
 16 21  1  0  0  0  0
 17 18  1  0  0  0  0
 17 16  1  0  0  0  0
 19 16  2  0  0  0  0
 21  3  1  0  0  0  0
M  END
