Coordinates from ORCA-job 4-NO2-Ph-N2-HSO4-B3LYPG-6-31G_dp-MTMO-d009-169-n800
 OpenBabel09051908393D

 21 20  0  0  0  0  0  0  0  0999 V2000
   -0.5404   -0.8370    0.8322 C   0  0  0  0  0  0  0  0  0  0  0  0
    0.8331   -0.8929    0.6168 C   0  0  0  0  0  0  0  0  0  0  0  0
    1.5963    0.2545    0.8336 C   0  0  0  0  0  0  0  0  0  0  0  0
    1.0264    1.4535    1.2608 C   0  0  0  0  0  0  0  0  0  0  0  0
   -0.3464    1.5095    1.4821 C   0  0  0  0  0  0  0  0  0  0  0  0
   -1.1068    0.3622    1.2627 C   0  0  0  0  0  0  0  0  0  0  0  0
   -1.1745   -1.7006    0.6767 H   0  0  0  0  0  0  0  0  0  0  0  0
    1.3115   -1.8045    0.2804 H   0  0  0  0  0  0  0  0  0  0  0  0
    1.6582    2.3196    1.4194 H   0  0  0  0  0  0  0  0  0  0  0  0
   -0.8326    2.4168    1.8170 H   0  0  0  0  0  0  0  0  0  0  0  0
   -2.5597    0.4184    1.4965 N   0  0  0  0  0  0  0  0  0  0  0  0
   -3.2081   -0.6073    1.2976 O   0  0  0  0  0  0  0  0  0  0  0  0
   -3.0334    1.4879    1.8770 O   0  0  0  0  0  0  0  0  0  0  0  0
    7.3514    3.5082   -1.7766 N   0  0  0  0  0  0  0  0  0  0  0  0
    6.3653    3.1141   -1.4731 N   0  0  0  0  0  0  0  0  0  0  0  0
    3.6685    0.2022   -0.7971 S   0  0  0  0  0  0  0  0  0  0  0  0
    3.5425    1.7669   -1.1960 O   0  0  0  0  0  0  0  0  0  0  0  0
    4.4136    2.1864   -1.0589 H   0  0  0  0  0  0  0  0  0  0  0  0
    2.8182   -0.5376   -1.7019 O   0  0  0  0  0  0  0  0  0  0  0  0
    5.0636   -0.1072   -0.5638 O   0  0  0  0  0  0  0  0  0  0  0  0
    2.9910    0.2022    0.7067 O   0  0  0  0  0  0  0  0  0  0  0  0
  1  6  1  0  0  0  0
  2  1  2  0  0  0  0
  2  3  1  0  0  0  0
  3  4  2  0  0  0  0
  4  9  1  0  0  0  0
  4  5  1  0  0  0  0
  5 10  1  0  0  0  0
  6  5  2  0  0  0  0
  6 11  1  0  0  0  0
  7  1  1  0  0  0  0
  8  2  1  0  0  0  0
 11 13  2  0  0  0  0
 12 11  2  0  0  0  0
 14 15  3  0  0  0  0
 16 20  2  0  0  0  0
 16 21  1  0  0  0  0
 17 18  1  0  0  0  0
 17 16  1  0  0  0  0
 19 16  2  0  0  0  0
 21  3  1  0  0  0  0
M  END
