Coordinates from ORCA-job 4-NO2-Ph-N2-HSO4-B3LYPG-6-31G_dp-MTMO-d009-169-n800
 OpenBabel09051908393D

 21 20  0  0  0  0  0  0  0  0999 V2000
    0.0405   -0.5808    0.0471 C   0  0  0  0  0  0  0  0  0  0  0  0
    1.4024   -0.4574    0.2923 C   0  0  0  0  0  0  0  0  0  0  0  0
    1.8904    0.7559    0.8009 C   0  0  0  0  0  0  0  0  0  0  0  0
    1.0113    1.7578    1.2391 C   0  0  0  0  0  0  0  0  0  0  0  0
   -0.3485    1.6272    1.0027 C   0  0  0  0  0  0  0  0  0  0  0  0
   -0.8161    0.4665    0.3847 C   0  0  0  0  0  0  0  0  0  0  0  0
   -0.3715   -1.4857   -0.3818 H   0  0  0  0  0  0  0  0  0  0  0  0
    2.0818   -1.2609    0.0438 H   0  0  0  0  0  0  0  0  0  0  0  0
    1.4171    2.6398    1.7211 H   0  0  0  0  0  0  0  0  0  0  0  0
   -1.0516    2.3968    1.2946 H   0  0  0  0  0  0  0  0  0  0  0  0
   -2.2545    0.3263    0.1264 N   0  0  0  0  0  0  0  0  0  0  0  0
   -2.6397   -0.7168   -0.4004 O   0  0  0  0  0  0  0  0  0  0  0  0
   -2.9846    1.2623    0.4518 O   0  0  0  0  0  0  0  0  0  0  0  0
    2.3734    1.6775   -1.0709 N   0  0  0  0  0  0  0  0  0  0  0  0
    1.7481    1.9657   -1.9400 N   0  0  0  0  0  0  0  0  0  0  0  0
    4.5637    0.3181    0.6006 S   0  0  0  0  0  0  0  0  0  0  0  0
    5.1742    1.6696   -0.0516 O   0  0  0  0  0  0  0  0  0  0  0  0
    5.7657    2.0725    0.6080 H   0  0  0  0  0  0  0  0  0  0  0  0
    4.2484   -0.5721   -0.4935 O   0  0  0  0  0  0  0  0  0  0  0  0
    5.3962   -0.0534    1.7251 O   0  0  0  0  0  0  0  0  0  0  0  0
    3.1908    0.9063    1.2921 O   0  0  0  0  0  0  0  0  0  0  0  0
  1  2  2  0  0  0  0
  1  6  1  0  0  0  0
  2  3  1  0  0  0  0
  3  4  2  0  0  0  0
  3 21  1  0  0  0  0
  4  9  1  0  0  0  0
  5  4  1  0  0  0  0
  5 10  1  0  0  0  0
  6  5  2  0  0  0  0
  7  1  1  0  0  0  0
  8  2  1  0  0  0  0
 11  6  1  0  0  0  0
 11 13  2  0  0  0  0
 12 11  2  0  0  0  0
 15 14  3  0  0  0  0
 16 21  1  0  0  0  0
 16 20  2  0  0  0  0
 17 16  1  0  0  0  0
 17 18  1  0  0  0  0
 19 16  2  0  0  0  0
M  END
