Coordinates from ORCA-job 4-NO2-Ph-N2-HSO4-B3LYPG-6-31G_dp-MTMO-d009-169-n800
 OpenBabel09051908393D

 21 20  0  0  0  0  0  0  0  0999 V2000
   -0.0312   -0.6350    0.2031 C   0  0  0  0  0  0  0  0  0  0  0  0
    1.3191   -0.7053    0.5312 C   0  0  0  0  0  0  0  0  0  0  0  0
    1.8963    0.3512    1.2359 C   0  0  0  0  0  0  0  0  0  0  0  0
    1.1623    1.4705    1.6261 C   0  0  0  0  0  0  0  0  0  0  0  0
   -0.1898    1.5392    1.3043 C   0  0  0  0  0  0  0  0  0  0  0  0
   -0.7628    0.4847    0.5959 C   0  0  0  0  0  0  0  0  0  0  0  0
   -0.5240   -1.4288   -0.3439 H   0  0  0  0  0  0  0  0  0  0  0  0
    1.9228   -1.5570    0.2434 H   0  0  0  0  0  0  0  0  0  0  0  0
    1.6495    2.2663    2.1777 H   0  0  0  0  0  0  0  0  0  0  0  0
   -0.8009    2.3865    1.5878 H   0  0  0  0  0  0  0  0  0  0  0  0
   -2.1932    0.5563    0.2516 N   0  0  0  0  0  0  0  0  0  0  0  0
   -2.6763   -0.3880   -0.3702 O   0  0  0  0  0  0  0  0  0  0  0  0
   -2.8137    1.5566    0.6079 O   0  0  0  0  0  0  0  0  0  0  0  0
    2.2636    1.6624   -2.7628 N   0  0  0  0  0  0  0  0  0  0  0  0
    3.0063    1.6817   -3.5809 N   0  0  0  0  0  0  0  0  0  0  0  0
    4.4335    0.4940    0.5421 S   0  0  0  0  0  0  0  0  0  0  0  0
    4.3294    2.0949    0.2817 O   0  0  0  0  0  0  0  0  0  0  0  0
    4.8924    2.5383    0.9399 H   0  0  0  0  0  0  0  0  0  0  0  0
    4.0730   -0.1396   -0.7050 O   0  0  0  0  0  0  0  0  0  0  0  0
    5.6475    0.2146    1.2771 O   0  0  0  0  0  0  0  0  0  0  0  0
    3.2336    0.2717    1.6491 O   0  0  0  0  0  0  0  0  0  0  0  0
  1  2  2  0  0  0  0
  1  6  1  0  0  0  0
  2  3  1  0  0  0  0
  3  4  2  0  0  0  0
  3 21  1  0  0  0  0
  4  9  1  0  0  0  0
  5 10  1  0  0  0  0
  5  4  1  0  0  0  0
  6  5  2  0  0  0  0
  7  1  1  0  0  0  0
  8  2  1  0  0  0  0
 11  6  1  0  0  0  0
 11 13  2  0  0  0  0
 12 11  2  0  0  0  0
 15 14  3  0  0  0  0
 16 20  2  0  0  0  0
 16 21  1  0  0  0  0
 17 16  1  0  0  0  0
 17 18  1  0  0  0  0
 19 16  2  0  0  0  0
M  END
