Coordinates from ORCA-job 4-NO2-Ph-N2-HSO4-B3LYPG-6-31G_dp-MTMO-d009-169-n800
 OpenBabel09051908393D

 21 20  0  0  0  0  0  0  0  0999 V2000
   -1.1839   -1.0782    1.0305 C   0  0  0  0  0  0  0  0  0  0  0  0
    0.1802   -1.3151    0.8915 C   0  0  0  0  0  0  0  0  0  0  0  0
    1.0734   -0.2718    1.1362 C   0  0  0  0  0  0  0  0  0  0  0  0
    0.6424    0.9977    1.5196 C   0  0  0  0  0  0  0  0  0  0  0  0
   -0.7211    1.2344    1.6651 C   0  0  0  0  0  0  0  0  0  0  0  0
   -1.6113    0.1914    1.4162 C   0  0  0  0  0  0  0  0  0  0  0  0
   -1.9156   -1.8554    0.8507 H   0  0  0  0  0  0  0  0  0  0  0  0
    0.5529   -2.2871    0.5929 H   0  0  0  0  0  0  0  0  0  0  0  0
    1.3710    1.7780    1.7064 H   0  0  0  0  0  0  0  0  0  0  0  0
   -1.1028    2.2022    1.9640 H   0  0  0  0  0  0  0  0  0  0  0  0
   -3.0552    0.4393    1.5694 N   0  0  0  0  0  0  0  0  0  0  0  0
   -3.8194   -0.4977    1.3459 O   0  0  0  0  0  0  0  0  0  0  0  0
   -3.4045    1.5677    1.9118 O   0  0  0  0  0  0  0  0  0  0  0  0
   11.9444    7.7872   -4.3363 N   0  0  0  0  0  0  0  0  0  0  0  0
   11.1561    7.1516   -3.8935 N   0  0  0  0  0  0  0  0  0  0  0  0
    3.1940   -0.6454   -0.3810 S   0  0  0  0  0  0  0  0  0  0  0  0
    3.1899    0.9008   -0.8819 O   0  0  0  0  0  0  0  0  0  0  0  0
    4.0048    1.3185   -0.5530 H   0  0  0  0  0  0  0  0  0  0  0  0
    2.3375   -1.3681   -1.2918 O   0  0  0  0  0  0  0  0  0  0  0  0
    4.5503   -1.0298   -0.0562 O   0  0  0  0  0  0  0  0  0  0  0  0
    2.4545   -0.5048    1.0856 O   0  0  0  0  0  0  0  0  0  0  0  0
  1  6  1  0  0  0  0
  2  1  2  0  0  0  0
  2  3  1  0  0  0  0
  3  4  2  0  0  0  0
  4  5  1  0  0  0  0
  4  9  1  0  0  0  0
  5 10  1  0  0  0  0
  6 11  1  0  0  0  0
  6  5  2  0  0  0  0
  7  1  1  0  0  0  0
  8  2  1  0  0  0  0
 11 13  2  0  0  0  0
 12 11  2  0  0  0  0
 14 15  3  0  0  0  0
 16 20  2  0  0  0  0
 16 21  1  0  0  0  0
 17 18  1  0  0  0  0
 17 16  1  0  0  0  0
 19 16  2  0  0  0  0
 21  3  1  0  0  0  0
M  END
