Coordinates from ORCA-job 4-NO2-Ph-N2-HSO4-B3LYPG-6-31G_dp-MTMO-d009-169-n800
 OpenBabel09051908393D

 21 20  0  0  0  0  0  0  0  0999 V2000
   -0.9767   -0.9544    0.9248 C   0  0  0  0  0  0  0  0  0  0  0  0
    0.3899   -1.1753    0.7842 C   0  0  0  0  0  0  0  0  0  0  0  0
    1.2721   -0.1273    1.0484 C   0  0  0  0  0  0  0  0  0  0  0  0
    0.8276    1.1308    1.4532 C   0  0  0  0  0  0  0  0  0  0  0  0
   -0.5385    1.3513    1.6004 C   0  0  0  0  0  0  0  0  0  0  0  0
   -1.4177    0.3039    1.3317 C   0  0  0  0  0  0  0  0  0  0  0  0
   -1.7002   -1.7357    0.7301 H   0  0  0  0  0  0  0  0  0  0  0  0
    0.7728   -2.1382    0.4695 H   0  0  0  0  0  0  0  0  0  0  0  0
    1.5480    1.9150    1.6550 H   0  0  0  0  0  0  0  0  0  0  0  0
   -0.9304    2.3099    1.9155 H   0  0  0  0  0  0  0  0  0  0  0  0
   -2.8643    0.5344    1.4866 N   0  0  0  0  0  0  0  0  0  0  0  0
   -3.6186   -0.4060    1.2449 O   0  0  0  0  0  0  0  0  0  0  0  0
   -3.2256    1.6530    1.8484 O   0  0  0  0  0  0  0  0  0  0  0  0
   10.0828    6.4523   -3.5360 N   0  0  0  0  0  0  0  0  0  0  0  0
    9.2977    5.8280   -3.0717 N   0  0  0  0  0  0  0  0  0  0  0  0
    3.3985   -0.4629   -0.4703 S   0  0  0  0  0  0  0  0  0  0  0  0
    3.3721    1.0867   -0.9597 O   0  0  0  0  0  0  0  0  0  0  0  0
    4.1789    1.5152   -0.6247 H   0  0  0  0  0  0  0  0  0  0  0  0
    2.5537   -1.1909   -1.3878 O   0  0  0  0  0  0  0  0  0  0  0  0
    4.7597   -0.8303   -0.1467 O   0  0  0  0  0  0  0  0  0  0  0  0
    2.6557   -0.3442    0.9965 O   0  0  0  0  0  0  0  0  0  0  0  0
  1  6  1  0  0  0  0
  2  1  2  0  0  0  0
  2  3  1  0  0  0  0
  3  4  2  0  0  0  0
  4  5  1  0  0  0  0
  4  9  1  0  0  0  0
  5 10  1  0  0  0  0
  6 11  1  0  0  0  0
  6  5  2  0  0  0  0
  7  1  1  0  0  0  0
  8  2  1  0  0  0  0
 11 13  2  0  0  0  0
 12 11  2  0  0  0  0
 14 15  3  0  0  0  0
 16 20  2  0  0  0  0
 16 21  1  0  0  0  0
 17 18  1  0  0  0  0
 17 16  1  0  0  0  0
 19 16  2  0  0  0  0
 21  3  1  0  0  0  0
M  END
