Coordinates from ORCA-job 4-NO2-Ph-N2-HSO4-B3LYPG-6-31G_dp-MTMO-d009-169-n800
 OpenBabel09051908393D

 21 20  0  0  0  0  0  0  0  0999 V2000
   -1.0584   -1.0009    0.9698 C   0  0  0  0  0  0  0  0  0  0  0  0
    0.3068   -1.2310    0.8298 C   0  0  0  0  0  0  0  0  0  0  0  0
    1.1953   -0.1855    1.0821 C   0  0  0  0  0  0  0  0  0  0  0  0
    0.7587    1.0794    1.4742 C   0  0  0  0  0  0  0  0  0  0  0  0
   -0.6059    1.3092    1.6207 C   0  0  0  0  0  0  0  0  0  0  0  0
   -1.4915    0.2642    1.3641 C   0  0  0  0  0  0  0  0  0  0  0  0
   -1.7866   -1.7799    0.7843 H   0  0  0  0  0  0  0  0  0  0  0  0
    0.6837   -2.1993    0.5247 H   0  0  0  0  0  0  0  0  0  0  0  0
    1.4839    1.8615    1.6668 H   0  0  0  0  0  0  0  0  0  0  0  0
   -0.9919    2.2732    1.9263 H   0  0  0  0  0  0  0  0  0  0  0  0
   -2.9365    0.5047    1.5184 N   0  0  0  0  0  0  0  0  0  0  0  0
   -3.6965   -0.4339    1.2878 O   0  0  0  0  0  0  0  0  0  0  0  0
   -3.2908    1.6291    1.8688 O   0  0  0  0  0  0  0  0  0  0  0  0
   10.7978    6.9857   -3.8372 N   0  0  0  0  0  0  0  0  0  0  0  0
   10.0111    6.3535   -3.3867 N   0  0  0  0  0  0  0  0  0  0  0  0
    3.3180   -0.5436   -0.4363 S   0  0  0  0  0  0  0  0  0  0  0  0
    3.3043    1.0038   -0.9330 O   0  0  0  0  0  0  0  0  0  0  0  0
    4.1158    1.4264   -0.6018 H   0  0  0  0  0  0  0  0  0  0  0  0
    2.4663   -1.2690   -1.3493 O   0  0  0  0  0  0  0  0  0  0  0  0
    4.6766   -0.9206   -0.1122 O   0  0  0  0  0  0  0  0  0  0  0  0
    2.5775   -0.4116    1.0307 O   0  0  0  0  0  0  0  0  0  0  0  0
  1  6  1  0  0  0  0
  2  1  2  0  0  0  0
  2  3  1  0  0  0  0
  3  4  2  0  0  0  0
  4  5  1  0  0  0  0
  4  9  1  0  0  0  0
  5 10  1  0  0  0  0
  6 11  1  0  0  0  0
  6  5  2  0  0  0  0
  7  1  1  0  0  0  0
  8  2  1  0  0  0  0
 11 13  2  0  0  0  0
 12 11  2  0  0  0  0
 14 15  3  0  0  0  0
 16 20  2  0  0  0  0
 16 21  1  0  0  0  0
 17 18  1  0  0  0  0
 17 16  1  0  0  0  0
 19 16  2  0  0  0  0
 21  3  1  0  0  0  0
M  END
