Coordinates from ORCA-job 4-NO2-Ph-N2-HSO4-B3LYPG-6-31G_dp-MTMO-d009-169-n800
 OpenBabel09051908393D

 21 20  0  0  0  0  0  0  0  0999 V2000
   -0.9752   -0.9536    0.9239 C   0  0  0  0  0  0  0  0  0  0  0  0
    0.3915   -1.1742    0.7833 C   0  0  0  0  0  0  0  0  0  0  0  0
    1.2735   -0.1262    1.0478 C   0  0  0  0  0  0  0  0  0  0  0  0
    0.8289    1.1318    1.4528 C   0  0  0  0  0  0  0  0  0  0  0  0
   -0.5372    1.3521    1.6000 C   0  0  0  0  0  0  0  0  0  0  0  0
   -1.4163    0.3046    1.3311 C   0  0  0  0  0  0  0  0  0  0  0  0
   -1.6985   -1.7349    0.7290 H   0  0  0  0  0  0  0  0  0  0  0  0
    0.7745   -2.1370    0.4684 H   0  0  0  0  0  0  0  0  0  0  0  0
    1.5492    1.9161    1.6548 H   0  0  0  0  0  0  0  0  0  0  0  0
   -0.9293    2.3105    1.9153 H   0  0  0  0  0  0  0  0  0  0  0  0
   -2.8629    0.5349    1.4860 N   0  0  0  0  0  0  0  0  0  0  0  0
   -3.6171   -0.4056    1.2442 O   0  0  0  0  0  0  0  0  0  0  0  0
   -3.2244    1.6533    1.8481 O   0  0  0  0  0  0  0  0  0  0  0  0
   10.0692    6.4418   -3.5303 N   0  0  0  0  0  0  0  0  0  0  0  0
    9.2842    5.8177   -3.0657 N   0  0  0  0  0  0  0  0  0  0  0  0
    3.4001   -0.4612   -0.4710 S   0  0  0  0  0  0  0  0  0  0  0  0
    3.3734    1.0884   -0.9602 O   0  0  0  0  0  0  0  0  0  0  0  0
    4.1800    1.5171   -0.6251 H   0  0  0  0  0  0  0  0  0  0  0  0
    2.5554   -1.1893   -1.3886 O   0  0  0  0  0  0  0  0  0  0  0  0
    4.7614   -0.8283   -0.1474 O   0  0  0  0  0  0  0  0  0  0  0  0
    2.6572   -0.3428    0.9958 O   0  0  0  0  0  0  0  0  0  0  0  0
  1  6  1  0  0  0  0
  2  1  2  0  0  0  0
  2  3  1  0  0  0  0
  3  4  2  0  0  0  0
  4  5  1  0  0  0  0
  4  9  1  0  0  0  0
  5 10  1  0  0  0  0
  6 11  1  0  0  0  0
  6  5  2  0  0  0  0
  7  1  1  0  0  0  0
  8  2  1  0  0  0  0
 11 13  2  0  0  0  0
 12 11  2  0  0  0  0
 14 15  3  0  0  0  0
 16 20  2  0  0  0  0
 16 21  1  0  0  0  0
 17 18  1  0  0  0  0
 17 16  1  0  0  0  0
 19 16  2  0  0  0  0
 21  3  1  0  0  0  0
M  END
