Coordinates from ORCA-job 4-NO2-Ph-N2-HSO4-B3LYPG-6-31G_dp-MTMO-d009-169-n800
 OpenBabel09051908393D

 21 20  0  0  0  0  0  0  0  0999 V2000
   -1.2095   -1.0947    1.0423 C   0  0  0  0  0  0  0  0  0  0  0  0
    0.1544   -1.3323    0.9034 C   0  0  0  0  0  0  0  0  0  0  0  0
    1.0480   -0.2892    1.1475 C   0  0  0  0  0  0  0  0  0  0  0  0
    0.6176    0.9808    1.5300 C   0  0  0  0  0  0  0  0  0  0  0  0
   -0.7459    1.2182    1.6753 C   0  0  0  0  0  0  0  0  0  0  0  0
   -1.6365    0.1753    1.4271 C   0  0  0  0  0  0  0  0  0  0  0  0
   -1.9415   -1.8717    0.8629 H   0  0  0  0  0  0  0  0  0  0  0  0
    0.5268   -2.3046    0.6054 H   0  0  0  0  0  0  0  0  0  0  0  0
    1.3465    1.7609    1.7163 H   0  0  0  0  0  0  0  0  0  0  0  0
   -1.1272    2.1863    1.9736 H   0  0  0  0  0  0  0  0  0  0  0  0
   -3.0803    0.4239    1.5802 N   0  0  0  0  0  0  0  0  0  0  0  0
   -3.8448   -0.5129    1.3573 O   0  0  0  0  0  0  0  0  0  0  0  0
   -3.4291    1.5527    1.9218 O   0  0  0  0  0  0  0  0  0  0  0  0
   12.1840    7.9502   -4.4412 N   0  0  0  0  0  0  0  0  0  0  0  0
   11.3954    7.3140   -3.9996 N   0  0  0  0  0  0  0  0  0  0  0  0
    3.1685   -0.6642   -0.3695 S   0  0  0  0  0  0  0  0  0  0  0  0
    3.1654    0.8819   -0.8709 O   0  0  0  0  0  0  0  0  0  0  0  0
    3.9805    1.2992   -0.5420 H   0  0  0  0  0  0  0  0  0  0  0  0
    2.3117   -1.3866   -1.2802 O   0  0  0  0  0  0  0  0  0  0  0  0
    4.5246   -1.0492   -0.0446 O   0  0  0  0  0  0  0  0  0  0  0  0
    2.4290   -0.5227    1.0970 O   0  0  0  0  0  0  0  0  0  0  0  0
  1  6  1  0  0  0  0
  2  1  2  0  0  0  0
  2  3  1  0  0  0  0
  3  4  2  0  0  0  0
  4  5  1  0  0  0  0
  4  9  1  0  0  0  0
  5 10  1  0  0  0  0
  6 11  1  0  0  0  0
  6  5  2  0  0  0  0
  7  1  1  0  0  0  0
  8  2  1  0  0  0  0
 11 13  2  0  0  0  0
 12 11  2  0  0  0  0
 14 15  3  0  0  0  0
 16 20  2  0  0  0  0
 16 21  1  0  0  0  0
 17 18  1  0  0  0  0
 17 16  1  0  0  0  0
 19 16  2  0  0  0  0
 21  3  1  0  0  0  0
M  END
