Coordinates from ORCA-job 4-NO2-Ph-N2-HSO4-B3LYPG-6-31G_dp-MTMO-d009-169-n800
 OpenBabel09051908393D

 21 20  0  0  0  0  0  0  0  0999 V2000
   -0.6397   -0.8563    0.8209 C   0  0  0  0  0  0  0  0  0  0  0  0
    0.7365   -0.9506    0.6381 C   0  0  0  0  0  0  0  0  0  0  0  0
    1.5281    0.1686    0.8957 C   0  0  0  0  0  0  0  0  0  0  0  0
    0.9849    1.3766    1.3318 C   0  0  0  0  0  0  0  0  0  0  0  0
   -0.3907    1.4708    1.5203 C   0  0  0  0  0  0  0  0  0  0  0  0
   -1.1797    0.3517    1.2603 C   0  0  0  0  0  0  0  0  0  0  0  0
   -1.2956   -1.6968    0.6335 H   0  0  0  0  0  0  0  0  0  0  0  0
    1.1952   -1.8704    0.2965 H   0  0  0  0  0  0  0  0  0  0  0  0
    1.6383    2.2198    1.5230 H   0  0  0  0  0  0  0  0  0  0  0  0
   -0.8575    2.3863    1.8604 H   0  0  0  0  0  0  0  0  0  0  0  0
   -2.6360    0.4483    1.4596 N   0  0  0  0  0  0  0  0  0  0  0  0
   -3.3096   -0.5534    1.2254 O   0  0  0  0  0  0  0  0  0  0  0  0
   -3.0862    1.5247    1.8487 O   0  0  0  0  0  0  0  0  0  0  0  0
    7.7835    4.0994   -2.3489 N   0  0  0  0  0  0  0  0  0  0  0  0
    6.9169    3.5934   -1.8854 N   0  0  0  0  0  0  0  0  0  0  0  0
    3.6409    0.0864   -0.6827 S   0  0  0  0  0  0  0  0  0  0  0  0
    3.6128    1.6721   -1.0351 O   0  0  0  0  0  0  0  0  0  0  0  0
    4.4858    2.0414   -0.8112 H   0  0  0  0  0  0  0  0  0  0  0  0
    2.7758   -0.5677   -1.6371 O   0  0  0  0  0  0  0  0  0  0  0  0
    5.0102   -0.3035   -0.4233 O   0  0  0  0  0  0  0  0  0  0  0  0
    2.9237    0.0745    0.8017 O   0  0  0  0  0  0  0  0  0  0  0  0
  1  6  1  0  0  0  0
  2  1  2  0  0  0  0
  2  3  1  0  0  0  0
  3  4  2  0  0  0  0
  4  5  1  0  0  0  0
  4  9  1  0  0  0  0
  5 10  1  0  0  0  0
  6 11  1  0  0  0  0
  6  5  2  0  0  0  0
  7  1  1  0  0  0  0
  8  2  1  0  0  0  0
 11 13  2  0  0  0  0
 12 11  2  0  0  0  0
 14 15  3  0  0  0  0
 16 20  2  0  0  0  0
 16 21  1  0  0  0  0
 17 18  1  0  0  0  0
 17 16  1  0  0  0  0
 19 16  2  0  0  0  0
 21  3  1  0  0  0  0
M  END
