Coordinates from ORCA-job 4-NO2-Ph-N2-HSO4-B3LYPG-6-31G_dp-MTMO-d009-169-n800
 OpenBabel09051908393D

 21 20  0  0  0  0  0  0  0  0999 V2000
   -0.7372   -0.8582    0.8135 C   0  0  0  0  0  0  0  0  0  0  0  0
    0.6368   -1.0125    0.6565 C   0  0  0  0  0  0  0  0  0  0  0  0
    1.4730    0.0656    0.9476 C   0  0  0  0  0  0  0  0  0  0  0  0
    0.9756    1.2891    1.3950 C   0  0  0  0  0  0  0  0  0  0  0  0
   -0.3977    1.4428    1.5587 C   0  0  0  0  0  0  0  0  0  0  0  0
   -1.2311    0.3656    1.2631 C   0  0  0  0  0  0  0  0  0  0  0  0
   -1.4264   -1.6649    0.5991 H   0  0  0  0  0  0  0  0  0  0  0  0
    1.0601   -1.9466    0.3083 H   0  0  0  0  0  0  0  0  0  0  0  0
    1.6618    2.0983    1.6160 H   0  0  0  0  0  0  0  0  0  0  0  0
   -0.8295    2.3726    1.9063 H   0  0  0  0  0  0  0  0  0  0  0  0
   -2.6853    0.5251    1.4354 N   0  0  0  0  0  0  0  0  0  0  0  0
   -3.3984   -0.4408    1.1704 O   0  0  0  0  0  0  0  0  0  0  0  0
   -3.0939    1.6145    1.8342 O   0  0  0  0  0  0  0  0  0  0  0  0
    8.3062    4.8178   -2.7070 N   0  0  0  0  0  0  0  0  0  0  0  0
    7.4795    4.2707   -2.2184 N   0  0  0  0  0  0  0  0  0  0  0  0
    3.6009   -0.1298   -0.5949 S   0  0  0  0  0  0  0  0  0  0  0  0
    3.5100    1.4308   -1.0378 O   0  0  0  0  0  0  0  0  0  0  0  0
    4.3118    1.8775   -0.7142 H   0  0  0  0  0  0  0  0  0  0  0  0
    2.7786   -0.8646   -1.5276 O   0  0  0  0  0  0  0  0  0  0  0  0
    4.9782   -0.4521   -0.2914 O   0  0  0  0  0  0  0  0  0  0  0  0
    2.8645   -0.0856    0.8792 O   0  0  0  0  0  0  0  0  0  0  0  0
  1  6  1  0  0  0  0
  2  1  2  0  0  0  0
  2  3  1  0  0  0  0
  3  4  2  0  0  0  0
  4  5  1  0  0  0  0
  4  9  1  0  0  0  0
  5 10  1  0  0  0  0
  6 11  1  0  0  0  0
  6  5  2  0  0  0  0
  7  1  1  0  0  0  0
  8  2  1  0  0  0  0
 11 13  2  0  0  0  0
 12 11  2  0  0  0  0
 14 15  3  0  0  0  0
 16 20  2  0  0  0  0
 16 21  1  0  0  0  0
 17 18  1  0  0  0  0
 17 16  1  0  0  0  0
 19 16  2  0  0  0  0
 21  3  1  0  0  0  0
M  END
