Coordinates from ORCA-job 4-NO2-Ph-N2-HSO4-B3LYPG-6-31G_dp-MTMO-d009-169-n800
 OpenBabel09051908393D

 21 20  0  0  0  0  0  0  0  0999 V2000
   -0.2193   -0.7026    0.3954 C   0  0  0  0  0  0  0  0  0  0  0  0
    1.1581   -0.7387    0.5902 C   0  0  0  0  0  0  0  0  0  0  0  0
    1.7785    0.3443    1.2131 C   0  0  0  0  0  0  0  0  0  0  0  0
    1.0621    1.4582    1.6497 C   0  0  0  0  0  0  0  0  0  0  0  0
   -0.3163    1.4930    1.4608 C   0  0  0  0  0  0  0  0  0  0  0  0
   -0.9330    0.4114    0.8349 C   0  0  0  0  0  0  0  0  0  0  0  0
   -0.7459   -1.5184   -0.0834 H   0  0  0  0  0  0  0  0  0  0  0  0
    1.7492   -1.5846    0.2620 H   0  0  0  0  0  0  0  0  0  0  0  0
    1.5841    2.2756    2.1337 H   0  0  0  0  0  0  0  0  0  0  0  0
   -0.9146    2.3347    1.7853 H   0  0  0  0  0  0  0  0  0  0  0  0
   -2.3918    0.4464    0.6328 N   0  0  0  0  0  0  0  0  0  0  0  0
   -2.9131   -0.5221    0.0835 O   0  0  0  0  0  0  0  0  0  0  0  0
   -2.9959    1.4429    1.0262 O   0  0  0  0  0  0  0  0  0  0  0  0
    3.7841    1.8105   -3.7898 N   0  0  0  0  0  0  0  0  0  0  0  0
    4.7094    2.0505   -3.2355 N   0  0  0  0  0  0  0  0  0  0  0  0
    4.2310    0.5333    0.2757 S   0  0  0  0  0  0  0  0  0  0  0  0
    4.0662    2.1297    0.0179 O   0  0  0  0  0  0  0  0  0  0  0  0
    4.7167    2.5875    0.5783 H   0  0  0  0  0  0  0  0  0  0  0  0
    3.7591   -0.1207   -0.9227 O   0  0  0  0  0  0  0  0  0  0  0  0
    5.5187    0.2867    0.8868 O   0  0  0  0  0  0  0  0  0  0  0  0
    3.1504    0.2978    1.4971 O   0  0  0  0  0  0  0  0  0  0  0  0
  1  2  2  0  0  0  0
  1  6  1  0  0  0  0
  2  3  1  0  0  0  0
  3 21  1  0  0  0  0
  3  4  2  0  0  0  0
  4  9  1  0  0  0  0
  5  4  1  0  0  0  0
  5 10  1  0  0  0  0
  6  5  2  0  0  0  0
  7  1  1  0  0  0  0
  8  2  1  0  0  0  0
 11  6  1  0  0  0  0
 11 13  2  0  0  0  0
 12 11  2  0  0  0  0
 14 15  3  0  0  0  0
 16 20  2  0  0  0  0
 16 21  1  0  0  0  0
 17 16  1  0  0  0  0
 17 18  1  0  0  0  0
 19 16  2  0  0  0  0
M  END
