Coordinates from ORCA-job 4-NO2-Ph-N2-HSO4-B3LYPG-6-31G_dp-MTMO-d009-169-n800
 OpenBabel09051908393D

 21 20  0  0  0  0  0  0  0  0999 V2000
   -0.6692   -0.8560    0.8207 C   0  0  0  0  0  0  0  0  0  0  0  0
    0.7063   -0.9720    0.6455 C   0  0  0  0  0  0  0  0  0  0  0  0
    1.5144    0.1337    0.9104 C   0  0  0  0  0  0  0  0  0  0  0  0
    0.9881    1.3488    1.3473 C   0  0  0  0  0  0  0  0  0  0  0  0
   -0.3869    1.4647    1.5284 C   0  0  0  0  0  0  0  0  0  0  0  0
   -1.1923    0.3593    1.2604 C   0  0  0  0  0  0  0  0  0  0  0  0
   -1.3374   -1.6853    0.6271 H   0  0  0  0  0  0  0  0  0  0  0  0
    1.1522   -1.8980    0.3040 H   0  0  0  0  0  0  0  0  0  0  0  0
    1.6536    2.1809    1.5456 H   0  0  0  0  0  0  0  0  0  0  0  0
   -0.8408    2.3865    1.8689 H   0  0  0  0  0  0  0  0  0  0  0  0
   -2.6480    0.4788    1.4517 N   0  0  0  0  0  0  0  0  0  0  0  0
   -3.3361   -0.5112    1.2105 O   0  0  0  0  0  0  0  0  0  0  0  0
   -3.0829    1.5612    1.8415 O   0  0  0  0  0  0  0  0  0  0  0  0
    7.9317    4.3313   -2.4430 N   0  0  0  0  0  0  0  0  0  0  0  0
    7.0776    3.8082   -1.9755 N   0  0  0  0  0  0  0  0  0  0  0  0
    3.6292    0.0114   -0.6592 S   0  0  0  0  0  0  0  0  0  0  0  0
    3.5699    1.5882   -1.0468 O   0  0  0  0  0  0  0  0  0  0  0  0
    4.4151    1.9908   -0.7795 H   0  0  0  0  0  0  0  0  0  0  0  0
    2.7804   -0.6769   -1.6038 O   0  0  0  0  0  0  0  0  0  0  0  0
    5.0040   -0.3477   -0.3857 O   0  0  0  0  0  0  0  0  0  0  0  0
    2.9087    0.0186    0.8234 O   0  0  0  0  0  0  0  0  0  0  0  0
  1  6  1  0  0  0  0
  2  1  2  0  0  0  0
  2  3  1  0  0  0  0
  3  4  2  0  0  0  0
  4  5  1  0  0  0  0
  4  9  1  0  0  0  0
  5 10  1  0  0  0  0
  6 11  1  0  0  0  0
  6  5  2  0  0  0  0
  7  1  1  0  0  0  0
  8  2  1  0  0  0  0
 11 13  2  0  0  0  0
 12 11  2  0  0  0  0
 14 15  3  0  0  0  0
 16 20  2  0  0  0  0
 16 21  1  0  0  0  0
 17 18  1  0  0  0  0
 17 16  1  0  0  0  0
 19 16  2  0  0  0  0
 21  3  1  0  0  0  0
M  END
