Coordinates from ORCA-job 4-NO2-Ph-N2-HSO4-B3LYPG-6-31G_dp-MTMO-d009-169-n800
 OpenBabel09051908393D

 21 20  0  0  0  0  0  0  0  0999 V2000
   -0.8743   -0.9030    0.8623 C   0  0  0  0  0  0  0  0  0  0  0  0
    0.4953   -1.1039    0.7204 C   0  0  0  0  0  0  0  0  0  0  0  0
    1.3636   -0.0505    1.0080 C   0  0  0  0  0  0  0  0  0  0  0  0
    0.9024    1.1934    1.4377 C   0  0  0  0  0  0  0  0  0  0  0  0
   -0.4666    1.3936    1.5863 C   0  0  0  0  0  0  0  0  0  0  0  0
   -1.3320    0.3410    1.2940 C   0  0  0  0  0  0  0  0  0  0  0  0
   -1.5875   -1.6891    0.6500 H   0  0  0  0  0  0  0  0  0  0  0  0
    0.8909   -2.0552    0.3868 H   0  0  0  0  0  0  0  0  0  0  0  0
    1.6125    1.9821    1.6572 H   0  0  0  0  0  0  0  0  0  0  0  0
   -0.8711    2.3405    1.9201 H   0  0  0  0  0  0  0  0  0  0  0  0
   -2.7817    0.5500    1.4503 N   0  0  0  0  0  0  0  0  0  0  0  0
   -3.5236   -0.3947    1.1879 O   0  0  0  0  0  0  0  0  0  0  0  0
   -3.1579    1.6563    1.8342 O   0  0  0  0  0  0  0  0  0  0  0  0
    9.2436    5.7574   -3.1924 N   0  0  0  0  0  0  0  0  0  0  0  0
    8.4573    5.1552   -2.7018 N   0  0  0  0  0  0  0  0  0  0  0  0
    3.4972   -0.3357   -0.5118 S   0  0  0  0  0  0  0  0  0  0  0  0
    3.4457    1.2190   -0.9821 O   0  0  0  0  0  0  0  0  0  0  0  0
    4.2441    1.6576   -0.6400 H   0  0  0  0  0  0  0  0  0  0  0  0
    2.6662   -1.0661   -1.4399 O   0  0  0  0  0  0  0  0  0  0  0  0
    4.8636   -0.6847   -0.1901 O   0  0  0  0  0  0  0  0  0  0  0  0
    2.7500   -0.2478    0.9550 O   0  0  0  0  0  0  0  0  0  0  0  0
  1  6  1  0  0  0  0
  2  1  2  0  0  0  0
  2  3  1  0  0  0  0
  3  4  2  0  0  0  0
  4  5  1  0  0  0  0
  4  9  1  0  0  0  0
  5 10  1  0  0  0  0
  6 11  1  0  0  0  0
  6  5  2  0  0  0  0
  7  1  1  0  0  0  0
  8  2  1  0  0  0  0
 11 13  2  0  0  0  0
 12 11  2  0  0  0  0
 14 15  3  0  0  0  0
 16 20  2  0  0  0  0
 16 21  1  0  0  0  0
 17 18  1  0  0  0  0
 17 16  1  0  0  0  0
 19 16  2  0  0  0  0
 21  3  1  0  0  0  0
M  END
