Coordinates from ORCA-job 4-NO2-Ph-N2-HSO4-B3LYPG-6-31G_dp-MTMO-d009-169-n800
 OpenBabel09051908393D

 21 20  0  0  0  0  0  0  0  0999 V2000
   -0.6377   -0.8562    0.8207 C   0  0  0  0  0  0  0  0  0  0  0  0
    0.7384   -0.9491    0.6376 C   0  0  0  0  0  0  0  0  0  0  0  0
    1.5291    0.1708    0.8948 C   0  0  0  0  0  0  0  0  0  0  0  0
    0.9849    1.3783    1.3310 C   0  0  0  0  0  0  0  0  0  0  0  0
   -0.3908    1.4713    1.5198 C   0  0  0  0  0  0  0  0  0  0  0  0
   -1.1788    0.3514    1.2602 C   0  0  0  0  0  0  0  0  0  0  0  0
   -1.2929   -1.6973    0.6335 H   0  0  0  0  0  0  0  0  0  0  0  0
    1.1980   -1.8685    0.2960 H   0  0  0  0  0  0  0  0  0  0  0  0
    1.6375    2.2221    1.5220 H   0  0  0  0  0  0  0  0  0  0  0  0
   -0.8584    2.3863    1.8600 H   0  0  0  0  0  0  0  0  0  0  0  0
   -2.6351    0.4465    1.4598 N   0  0  0  0  0  0  0  0  0  0  0  0
   -3.3078   -0.5558    1.2259 O   0  0  0  0  0  0  0  0  0  0  0  0
   -3.0862    1.5225    1.8490 O   0  0  0  0  0  0  0  0  0  0  0  0
    7.7727    4.0846   -2.3432 N   0  0  0  0  0  0  0  0  0  0  0  0
    6.9055    3.5797   -1.8798 N   0  0  0  0  0  0  0  0  0  0  0  0
    3.6418    0.0910   -0.6840 S   0  0  0  0  0  0  0  0  0  0  0  0
    3.6159    1.6773   -1.0340 O   0  0  0  0  0  0  0  0  0  0  0  0
    4.4905    2.0445   -0.8128 H   0  0  0  0  0  0  0  0  0  0  0  0
    2.7758   -0.5608   -1.6392 O   0  0  0  0  0  0  0  0  0  0  0  0
    5.0107   -0.3012   -0.4257 O   0  0  0  0  0  0  0  0  0  0  0  0
    2.9248    0.0780    0.8005 O   0  0  0  0  0  0  0  0  0  0  0  0
  1  6  1  0  0  0  0
  2  1  2  0  0  0  0
  2  3  1  0  0  0  0
  3  4  2  0  0  0  0
  4  5  1  0  0  0  0
  4  9  1  0  0  0  0
  5 10  1  0  0  0  0
  6 11  1  0  0  0  0
  6  5  2  0  0  0  0
  7  1  1  0  0  0  0
  8  2  1  0  0  0  0
 11 13  2  0  0  0  0
 12 11  2  0  0  0  0
 14 15  3  0  0  0  0
 16 20  2  0  0  0  0
 16 21  1  0  0  0  0
 17 18  1  0  0  0  0
 17 16  1  0  0  0  0
 19 16  2  0  0  0  0
 21  3  1  0  0  0  0
M  END
