Coordinates from ORCA-job 4-NO2-Ph-N2-HSO4-B3LYPG-6-31G_dp-MTMO-d009-169-n800
 OpenBabel09051908393D

 21 20  0  0  0  0  0  0  0  0999 V2000
   -0.0358   -0.6219    0.1950 C   0  0  0  0  0  0  0  0  0  0  0  0
    1.3159   -0.6918    0.5173 C   0  0  0  0  0  0  0  0  0  0  0  0
    1.8904    0.3542    1.2396 C   0  0  0  0  0  0  0  0  0  0  0  0
    1.1519    1.4621    1.6536 C   0  0  0  0  0  0  0  0  0  0  0  0
   -0.2016    1.5300    1.3378 C   0  0  0  0  0  0  0  0  0  0  0  0
   -0.7718    0.4864    0.6113 C   0  0  0  0  0  0  0  0  0  0  0  0
   -0.5265   -1.4077   -0.3652 H   0  0  0  0  0  0  0  0  0  0  0  0
    1.9227   -1.5349    0.2113 H   0  0  0  0  0  0  0  0  0  0  0  0
    1.6370    2.2496    2.2189 H   0  0  0  0  0  0  0  0  0  0  0  0
   -0.8158    2.3687    1.6395 H   0  0  0  0  0  0  0  0  0  0  0  0
   -2.2036    0.5573    0.2730 N   0  0  0  0  0  0  0  0  0  0  0  0
   -2.6844   -0.3781   -0.3638 O   0  0  0  0  0  0  0  0  0  0  0  0
   -2.8275    1.5483    0.6489 O   0  0  0  0  0  0  0  0  0  0  0  0
    2.3344    1.6381   -2.8447 N   0  0  0  0  0  0  0  0  0  0  0  0
    3.1008    1.6330   -3.6409 N   0  0  0  0  0  0  0  0  0  0  0  0
    4.4269    0.5015    0.5395 S   0  0  0  0  0  0  0  0  0  0  0  0
    4.3119    2.1005    0.2726 O   0  0  0  0  0  0  0  0  0  0  0  0
    4.8703    2.5507    0.9300 H   0  0  0  0  0  0  0  0  0  0  0  0
    4.0704   -0.1393   -0.7051 O   0  0  0  0  0  0  0  0  0  0  0  0
    5.6427    0.2326    1.2753 O   0  0  0  0  0  0  0  0  0  0  0  0
    3.2291    0.2757    1.6482 O   0  0  0  0  0  0  0  0  0  0  0  0
  1  2  2  0  0  0  0
  1  6  1  0  0  0  0
  2  3  1  0  0  0  0
  3 21  1  0  0  0  0
  3  4  2  0  0  0  0
  4  9  1  0  0  0  0
  5 10  1  0  0  0  0
  5  4  1  0  0  0  0
  6  5  2  0  0  0  0
  7  1  1  0  0  0  0
  8  2  1  0  0  0  0
 11  6  1  0  0  0  0
 11 13  2  0  0  0  0
 12 11  2  0  0  0  0
 15 14  3  0  0  0  0
 16 20  2  0  0  0  0
 16 21  1  0  0  0  0
 17 16  1  0  0  0  0
 17 18  1  0  0  0  0
 19 16  2  0  0  0  0
M  END
