Coordinates from ORCA-job 4-NO2-Ph-N2-HSO4-B3LYPG-6-31G_dp-MTMO-d009-169-n800
 OpenBabel09051908393D

 21 20  0  0  0  0  0  0  0  0999 V2000
   -0.6497   -0.8564    0.8212 C   0  0  0  0  0  0  0  0  0  0  0  0
    0.7263   -0.9583    0.6411 C   0  0  0  0  0  0  0  0  0  0  0  0
    1.5238    0.1562    0.9006 C   0  0  0  0  0  0  0  0  0  0  0  0
    0.9866    1.3669    1.3365 C   0  0  0  0  0  0  0  0  0  0  0  0
   -0.3889    1.4689    1.5225 C   0  0  0  0  0  0  0  0  0  0  0  0
   -1.1837    0.3545    1.2602 C   0  0  0  0  0  0  0  0  0  0  0  0
   -1.3100   -1.6930    0.6321 H   0  0  0  0  0  0  0  0  0  0  0  0
    1.1805   -1.8805    0.2998 H   0  0  0  0  0  0  0  0  0  0  0  0
    1.6443    2.2063    1.5298 H   0  0  0  0  0  0  0  0  0  0  0  0
   -0.8511    2.3868    1.8623 H   0  0  0  0  0  0  0  0  0  0  0  0
   -2.6398    0.4591    1.4568 N   0  0  0  0  0  0  0  0  0  0  0  0
   -3.3185   -0.5385    1.2206 O   0  0  0  0  0  0  0  0  0  0  0  0
   -3.0846    1.5379    1.8457 O   0  0  0  0  0  0  0  0  0  0  0  0
    7.8324    4.1781   -2.3797 N   0  0  0  0  0  0  0  0  0  0  0  0
    6.9701    3.6661   -1.9149 N   0  0  0  0  0  0  0  0  0  0  0  0
    3.6368    0.0609   -0.6751 S   0  0  0  0  0  0  0  0  0  0  0  0
    3.5973    1.6440   -1.0387 O   0  0  0  0  0  0  0  0  0  0  0  0
    4.4612    2.0245   -0.7998 H   0  0  0  0  0  0  0  0  0  0  0  0
    2.7773   -0.6048   -1.6264 O   0  0  0  0  0  0  0  0  0  0  0  0
    5.0084   -0.3179   -0.4113 O   0  0  0  0  0  0  0  0  0  0  0  0
    2.9189    0.0545    0.8088 O   0  0  0  0  0  0  0  0  0  0  0  0
  1  6  1  0  0  0  0
  2  1  2  0  0  0  0
  2  3  1  0  0  0  0
  3  4  2  0  0  0  0
  4  5  1  0  0  0  0
  4  9  1  0  0  0  0
  5 10  1  0  0  0  0
  6 11  1  0  0  0  0
  6  5  2  0  0  0  0
  7  1  1  0  0  0  0
  8  2  1  0  0  0  0
 11 13  2  0  0  0  0
 12 11  2  0  0  0  0
 14 15  3  0  0  0  0
 16 20  2  0  0  0  0
 16 21  1  0  0  0  0
 17 18  1  0  0  0  0
 17 16  1  0  0  0  0
 19 16  2  0  0  0  0
 21  3  1  0  0  0  0
M  END
