Coordinates from ORCA-job 4-NO2-Ph-N2-HSO4-B3LYPG-6-31G_dp-MTMO-d009-169-n800
 OpenBabel09051908393D

 21 20  0  0  0  0  0  0  0  0999 V2000
   -0.0092   -0.6712    0.2170 C   0  0  0  0  0  0  0  0  0  0  0  0
    1.3350   -0.7451    0.5682 C   0  0  0  0  0  0  0  0  0  0  0  0
    1.9227    0.3413    1.2157 C   0  0  0  0  0  0  0  0  0  0  0  0
    1.2061    1.4964    1.5255 C   0  0  0  0  0  0  0  0  0  0  0  0
   -0.1398    1.5701    1.1795 C   0  0  0  0  0  0  0  0  0  0  0  0
   -0.7235    0.4845    0.5294 C   0  0  0  0  0  0  0  0  0  0  0  0
   -0.5100   -1.4876   -0.2876 H   0  0  0  0  0  0  0  0  0  0  0  0
    1.9270   -1.6237    0.3425 H   0  0  0  0  0  0  0  0  0  0  0  0
    1.7014    2.3161    2.0329 H   0  0  0  0  0  0  0  0  0  0  0  0
   -0.7386    2.4443    1.4010 H   0  0  0  0  0  0  0  0  0  0  0  0
   -2.1476    0.5613    0.1608 N   0  0  0  0  0  0  0  0  0  0  0  0
   -2.6394   -0.4084   -0.4134 O   0  0  0  0  0  0  0  0  0  0  0  0
   -2.7545    1.5909    0.4507 O   0  0  0  0  0  0  0  0  0  0  0  0
    1.9439    1.7137   -2.4174 N   0  0  0  0  0  0  0  0  0  0  0  0
    2.6203    1.7901   -3.2880 N   0  0  0  0  0  0  0  0  0  0  0  0
    4.4637    0.4743    0.5499 S   0  0  0  0  0  0  0  0  0  0  0  0
    4.3939    2.0822    0.3199 O   0  0  0  0  0  0  0  0  0  0  0  0
    4.9689    2.5001    0.9844 H   0  0  0  0  0  0  0  0  0  0  0  0
    4.0936   -0.1281   -0.7096 O   0  0  0  0  0  0  0  0  0  0  0  0
    5.6697    0.1581    1.2835 O   0  0  0  0  0  0  0  0  0  0  0  0
    3.2540    0.2561    1.6472 O   0  0  0  0  0  0  0  0  0  0  0  0
  1  6  2  0  0  0  0
  1  2  1  0  0  0  0
  2  3  2  0  0  0  0
  3  4  1  0  0  0  0
  3 21  1  0  0  0  0
  4  9  1  0  0  0  0
  5 10  1  0  0  0  0
  5  4  2  0  0  0  0
  6  5  1  0  0  0  0
  7  1  1  0  0  0  0
  8  2  1  0  0  0  0
 11 13  2  0  0  0  0
 11  6  1  0  0  0  0
 12 11  2  0  0  0  0
 15 14  3  0  0  0  0
 16 20  2  0  0  0  0
 16 21  1  0  0  0  0
 17 16  1  0  0  0  0
 17 18  1  0  0  0  0
 19 16  2  0  0  0  0
M  END
