Coordinates from ORCA-job 4-NO2-Ph-N2-HSO4-B3LYPG-6-31G_dp-MTMO-d009-169-n800
 OpenBabel09051908393D

 21 20  0  0  0  0  0  0  0  0999 V2000
   -0.0175   -0.6635    0.2193 C   0  0  0  0  0  0  0  0  0  0  0  0
    1.3285   -0.7365    0.5637 C   0  0  0  0  0  0  0  0  0  0  0  0
    1.9132    0.3421    1.2272 C   0  0  0  0  0  0  0  0  0  0  0  0
    1.1915    1.4877    1.5598 C   0  0  0  0  0  0  0  0  0  0  0  0
   -0.1561    1.5600    1.2208 C   0  0  0  0  0  0  0  0  0  0  0  0
   -0.7368    0.4827    0.5542 C   0  0  0  0  0  0  0  0  0  0  0  0
   -0.5160   -1.4739   -0.2973 H   0  0  0  0  0  0  0  0  0  0  0  0
    1.9238   -1.6080    0.3205 H   0  0  0  0  0  0  0  0  0  0  0  0
    1.6845    2.3011    2.0795 H   0  0  0  0  0  0  0  0  0  0  0  0
   -0.7585    2.4271    1.4597 H   0  0  0  0  0  0  0  0  0  0  0  0
   -2.1626    0.5583    0.1923 N   0  0  0  0  0  0  0  0  0  0  0  0
   -2.6519   -0.4045   -0.3955 O   0  0  0  0  0  0  0  0  0  0  0  0
   -2.7734    1.5802    0.5007 O   0  0  0  0  0  0  0  0  0  0  0  0
    2.0651    1.7105   -2.5538 N   0  0  0  0  0  0  0  0  0  0  0  0
    2.7498    1.7835   -3.4181 N   0  0  0  0  0  0  0  0  0  0  0  0
    4.4519    0.4776    0.5501 S   0  0  0  0  0  0  0  0  0  0  0  0
    4.3700    2.0830    0.3075 O   0  0  0  0  0  0  0  0  0  0  0  0
    4.9399    2.5105    0.9703 H   0  0  0  0  0  0  0  0  0  0  0  0
    4.0842   -0.1371   -0.7042 O   0  0  0  0  0  0  0  0  0  0  0  0
    5.6615    0.1753    1.2835 O   0  0  0  0  0  0  0  0  0  0  0  0
    3.2467    0.2591    1.6521 O   0  0  0  0  0  0  0  0  0  0  0  0
  1  6  2  0  0  0  0
  1  2  1  0  0  0  0
  2  3  2  0  0  0  0
  3  4  1  0  0  0  0
  3 21  1  0  0  0  0
  4  9  1  0  0  0  0
  5 10  1  0  0  0  0
  5  4  2  0  0  0  0
  6  5  1  0  0  0  0
  7  1  1  0  0  0  0
  8  2  1  0  0  0  0
 11 13  2  0  0  0  0
 11  6  1  0  0  0  0
 12 11  2  0  0  0  0
 15 14  3  0  0  0  0
 16 20  2  0  0  0  0
 16 21  1  0  0  0  0
 17 16  1  0  0  0  0
 17 18  1  0  0  0  0
 19 16  2  0  0  0  0
M  END
