Coordinates from ORCA-job 4-NO2-Ph-N2-HSO4-B3LYPG-6-31G_dp-MTMO-d009-169-n800
 OpenBabel09051908393D

 21 20  0  0  0  0  0  0  0  0999 V2000
   -0.0857   -0.6211    0.2288 C   0  0  0  0  0  0  0  0  0  0  0  0
    1.2744   -0.6833    0.5163 C   0  0  0  0  0  0  0  0  0  0  0  0
    1.8559    0.3538    1.2459 C   0  0  0  0  0  0  0  0  0  0  0  0
    1.1167    1.4452    1.7003 C   0  0  0  0  0  0  0  0  0  0  0  0
   -0.2448    1.5052    1.4192 C   0  0  0  0  0  0  0  0  0  0  0  0
   -0.8223    0.4706    0.6857 C   0  0  0  0  0  0  0  0  0  0  0  0
   -0.5822   -1.4007   -0.3351 H   0  0  0  0  0  0  0  0  0  0  0  0
    1.8815   -1.5137    0.1782 H   0  0  0  0  0  0  0  0  0  0  0  0
    1.6077    2.2260    2.2699 H   0  0  0  0  0  0  0  0  0  0  0  0
   -0.8596    2.3312    1.7531 H   0  0  0  0  0  0  0  0  0  0  0  0
   -2.2629    0.5329    0.3846 N   0  0  0  0  0  0  0  0  0  0  0  0
   -2.7501   -0.3953   -0.2578 O   0  0  0  0  0  0  0  0  0  0  0  0
   -2.8870    1.5100    0.7949 O   0  0  0  0  0  0  0  0  0  0  0  0
    2.7272    1.6953   -3.1785 N   0  0  0  0  0  0  0  0  0  0  0  0
    3.6302    1.5829   -3.8056 N   0  0  0  0  0  0  0  0  0  0  0  0
    4.3748    0.5288    0.4894 S   0  0  0  0  0  0  0  0  0  0  0  0
    4.2433    2.1301    0.2461 O   0  0  0  0  0  0  0  0  0  0  0  0
    4.8136    2.5762    0.8962 H   0  0  0  0  0  0  0  0  0  0  0  0
    3.9935   -0.0981   -0.7549 O   0  0  0  0  0  0  0  0  0  0  0  0
    5.6089    0.2584    1.1935 O   0  0  0  0  0  0  0  0  0  0  0  0
    3.2044    0.2810    1.6221 O   0  0  0  0  0  0  0  0  0  0  0  0
  1  2  2  0  0  0  0
  1  6  1  0  0  0  0
  2  3  1  0  0  0  0
  3 21  1  0  0  0  0
  3  4  2  0  0  0  0
  4  9  1  0  0  0  0
  5  4  1  0  0  0  0
  5 10  1  0  0  0  0
  6  5  2  0  0  0  0
  7  1  1  0  0  0  0
  8  2  1  0  0  0  0
 11  6  1  0  0  0  0
 11 13  2  0  0  0  0
 12 11  2  0  0  0  0
 15 14  3  0  0  0  0
 16 20  2  0  0  0  0
 16 21  1  0  0  0  0
 17 16  1  0  0  0  0
 17 18  1  0  0  0  0
 19 16  2  0  0  0  0
M  END
