Coordinates from ORCA-job 4-NO2-Ph-N2-HSO4-B3LYPG-6-31G_dp-MTMO-d009-169-n800
 OpenBabel09051908393D

 21 20  0  0  0  0  0  0  0  0999 V2000
   -0.9140   -0.9216    0.8864 C   0  0  0  0  0  0  0  0  0  0  0  0
    0.4543   -1.1316    0.7453 C   0  0  0  0  0  0  0  0  0  0  0  0
    1.3290   -0.0809    1.0236 C   0  0  0  0  0  0  0  0  0  0  0  0
    0.8753    1.1692    1.4429 C   0  0  0  0  0  0  0  0  0  0  0  0
   -0.4924    1.3786    1.5907 C   0  0  0  0  0  0  0  0  0  0  0  0
   -1.3641    0.3286    1.3078 C   0  0  0  0  0  0  0  0  0  0  0  0
   -1.6319   -1.7054    0.6811 H   0  0  0  0  0  0  0  0  0  0  0  0
    0.8442   -2.0880    0.4196 H   0  0  0  0  0  0  0  0  0  0  0  0
    1.5901    1.9556    1.6554 H   0  0  0  0  0  0  0  0  0  0  0  0
   -0.8912    2.3306    1.9167 H   0  0  0  0  0  0  0  0  0  0  0  0
   -2.8125    0.5474    1.4632 N   0  0  0  0  0  0  0  0  0  0  0  0
   -3.5600   -0.3951    1.2090 O   0  0  0  0  0  0  0  0  0  0  0  0
   -3.1819    1.6590    1.8381 O   0  0  0  0  0  0  0  0  0  0  0  0
    9.5578    6.0302   -3.3215 N   0  0  0  0  0  0  0  0  0  0  0  0
    8.7733    5.4167   -2.8421 N   0  0  0  0  0  0  0  0  0  0  0  0
    3.4598   -0.3887   -0.4953 S   0  0  0  0  0  0  0  0  0  0  0  0
    3.4195    1.1638   -0.9742 O   0  0  0  0  0  0  0  0  0  0  0  0
    4.2213    1.5981   -0.6346 H   0  0  0  0  0  0  0  0  0  0  0  0
    2.6230   -1.1182   -1.4189 O   0  0  0  0  0  0  0  0  0  0  0  0
    4.8239   -0.7459   -0.1724 O   0  0  0  0  0  0  0  0  0  0  0  0
    2.7141   -0.2871    0.9713 O   0  0  0  0  0  0  0  0  0  0  0  0
  1  6  1  0  0  0  0
  2  1  2  0  0  0  0
  2  3  1  0  0  0  0
  3  4  2  0  0  0  0
  4  5  1  0  0  0  0
  4  9  1  0  0  0  0
  5 10  1  0  0  0  0
  6 11  1  0  0  0  0
  6  5  2  0  0  0  0
  7  1  1  0  0  0  0
  8  2  1  0  0  0  0
 11 13  2  0  0  0  0
 12 11  2  0  0  0  0
 14 15  3  0  0  0  0
 16 20  2  0  0  0  0
 16 21  1  0  0  0  0
 17 18  1  0  0  0  0
 17 16  1  0  0  0  0
 19 16  2  0  0  0  0
 21  3  1  0  0  0  0
M  END
