Coordinates from ORCA-job 4-NO2-Ph-N2-HSO4-B3LYPG-6-31G_dp-MTMO-d009-169-n800
 OpenBabel09051908393D

 21 20  0  0  0  0  0  0  0  0999 V2000
   -1.2696   -1.1339    1.0690 C   0  0  0  0  0  0  0  0  0  0  0  0
    0.0942   -1.3723    0.9305 C   0  0  0  0  0  0  0  0  0  0  0  0
    0.9883   -0.3295    1.1740 C   0  0  0  0  0  0  0  0  0  0  0  0
    0.5585    0.9410    1.5556 C   0  0  0  0  0  0  0  0  0  0  0  0
   -0.8049    1.1792    1.7004 C   0  0  0  0  0  0  0  0  0  0  0  0
   -1.6959    0.1366    1.4528 C   0  0  0  0  0  0  0  0  0  0  0  0
   -2.0020   -1.9106    0.8901 H   0  0  0  0  0  0  0  0  0  0  0  0
    0.4661   -2.3450    0.6333 H   0  0  0  0  0  0  0  0  0  0  0  0
    1.2878    1.7209    1.7414 H   0  0  0  0  0  0  0  0  0  0  0  0
   -1.1857    2.1477    1.9980 H   0  0  0  0  0  0  0  0  0  0  0  0
   -3.1397    0.3860    1.6055 N   0  0  0  0  0  0  0  0  0  0  0  0
   -3.9047   -0.5505    1.3832 O   0  0  0  0  0  0  0  0  0  0  0  0
   -3.4880    1.5153    1.9462 O   0  0  0  0  0  0  0  0  0  0  0  0
   12.7491    8.3310   -4.6896 N   0  0  0  0  0  0  0  0  0  0  0  0
   11.9601    7.6939   -4.2501 N   0  0  0  0  0  0  0  0  0  0  0  0
    3.1089   -0.7063   -0.3424 S   0  0  0  0  0  0  0  0  0  0  0  0
    3.1070    0.8397   -0.8442 O   0  0  0  0  0  0  0  0  0  0  0  0
    3.9224    1.2564   -0.5154 H   0  0  0  0  0  0  0  0  0  0  0  0
    2.2517   -1.4283   -1.2530 O   0  0  0  0  0  0  0  0  0  0  0  0
    4.4646   -1.0921   -0.0171 O   0  0  0  0  0  0  0  0  0  0  0  0
    2.3692   -0.5639    1.1240 O   0  0  0  0  0  0  0  0  0  0  0  0
  1  6  1  0  0  0  0
  2  1  2  0  0  0  0
  2  3  1  0  0  0  0
  3  4  2  0  0  0  0
  4  5  1  0  0  0  0
  4  9  1  0  0  0  0
  5 10  1  0  0  0  0
  6 11  1  0  0  0  0
  6  5  2  0  0  0  0
  7  1  1  0  0  0  0
  8  2  1  0  0  0  0
 11 13  2  0  0  0  0
 12 11  2  0  0  0  0
 14 15  3  0  0  0  0
 16 20  2  0  0  0  0
 16 21  1  0  0  0  0
 17 18  1  0  0  0  0
 17 16  1  0  0  0  0
 19 16  2  0  0  0  0
 21  3  1  0  0  0  0
M  END
