Coordinates from ORCA-job 4-NO2-Ph-N2-HSO4-B3LYPG-6-31G_dp-MTMO-d009-169-n800
 OpenBabel09051908393D

 21 20  0  0  0  0  0  0  0  0999 V2000
   -1.2080   -1.0937    1.0416 C   0  0  0  0  0  0  0  0  0  0  0  0
    0.1560   -1.3312    0.9027 C   0  0  0  0  0  0  0  0  0  0  0  0
    1.0495   -0.2881    1.1468 C   0  0  0  0  0  0  0  0  0  0  0  0
    0.6191    0.9818    1.5295 C   0  0  0  0  0  0  0  0  0  0  0  0
   -0.7444    1.2191    1.6747 C   0  0  0  0  0  0  0  0  0  0  0  0
   -1.6350    0.1763    1.4265 C   0  0  0  0  0  0  0  0  0  0  0  0
   -1.9400   -1.8707    0.8622 H   0  0  0  0  0  0  0  0  0  0  0  0
    0.5283   -2.3035    0.6047 H   0  0  0  0  0  0  0  0  0  0  0  0
    1.3479    1.7619    1.7157 H   0  0  0  0  0  0  0  0  0  0  0  0
   -1.1258    2.1872    1.9731 H   0  0  0  0  0  0  0  0  0  0  0  0
   -3.0788    0.4248    1.5795 N   0  0  0  0  0  0  0  0  0  0  0  0
   -3.8433   -0.5120    1.3565 O   0  0  0  0  0  0  0  0  0  0  0  0
   -3.4277    1.5535    1.9212 O   0  0  0  0  0  0  0  0  0  0  0  0
   12.1699    7.9406   -4.4351 N   0  0  0  0  0  0  0  0  0  0  0  0
   11.3813    7.3045   -3.9933 N   0  0  0  0  0  0  0  0  0  0  0  0
    3.1700   -0.6631   -0.3702 S   0  0  0  0  0  0  0  0  0  0  0  0
    3.1668    0.8830   -0.8715 O   0  0  0  0  0  0  0  0  0  0  0  0
    3.9820    1.3003   -0.5426 H   0  0  0  0  0  0  0  0  0  0  0  0
    2.3132   -1.3855   -1.2808 O   0  0  0  0  0  0  0  0  0  0  0  0
    4.5261   -1.0481   -0.0452 O   0  0  0  0  0  0  0  0  0  0  0  0
    2.4305   -0.5217    1.0964 O   0  0  0  0  0  0  0  0  0  0  0  0
  1  6  1  0  0  0  0
  2  1  2  0  0  0  0
  2  3  1  0  0  0  0
  3  4  2  0  0  0  0
  4  5  1  0  0  0  0
  4  9  1  0  0  0  0
  5 10  1  0  0  0  0
  6 11  1  0  0  0  0
  6  5  2  0  0  0  0
  7  1  1  0  0  0  0
  8  2  1  0  0  0  0
 11 13  2  0  0  0  0
 12 11  2  0  0  0  0
 14 15  3  0  0  0  0
 16 20  2  0  0  0  0
 16 21  1  0  0  0  0
 17 18  1  0  0  0  0
 17 16  1  0  0  0  0
 19 16  2  0  0  0  0
 21  3  1  0  0  0  0
M  END
