Coordinates from ORCA-job 4-NO2-Ph-N2-HSO4-B3LYPG-6-31G_dp-MTMO-d009-169-n800
 OpenBabel09051908393D

 21 20  0  0  0  0  0  0  0  0999 V2000
   -1.1960   -1.0860    1.0361 C   0  0  0  0  0  0  0  0  0  0  0  0
    0.1681   -1.3232    0.8971 C   0  0  0  0  0  0  0  0  0  0  0  0
    1.0615   -0.2800    1.1415 C   0  0  0  0  0  0  0  0  0  0  0  0
    0.6308    0.9897    1.5245 C   0  0  0  0  0  0  0  0  0  0  0  0
   -0.7328    1.2268    1.6699 C   0  0  0  0  0  0  0  0  0  0  0  0
   -1.6231    0.1839    1.4213 C   0  0  0  0  0  0  0  0  0  0  0  0
   -1.9278   -1.8630    0.8565 H   0  0  0  0  0  0  0  0  0  0  0  0
    0.5406   -2.2954    0.5989 H   0  0  0  0  0  0  0  0  0  0  0  0
    1.3595    1.7700    1.7110 H   0  0  0  0  0  0  0  0  0  0  0  0
   -1.1143    2.1947    1.9685 H   0  0  0  0  0  0  0  0  0  0  0  0
   -3.0670    0.4321    1.5745 N   0  0  0  0  0  0  0  0  0  0  0  0
   -3.8314   -0.5048    1.3512 O   0  0  0  0  0  0  0  0  0  0  0  0
   -3.4161    1.5607    1.9164 O   0  0  0  0  0  0  0  0  0  0  0  0
   12.0571    7.8640   -4.3856 N   0  0  0  0  0  0  0  0  0  0  0  0
   11.2687    7.2281   -3.9434 N   0  0  0  0  0  0  0  0  0  0  0  0
    3.1820   -0.6543   -0.3756 S   0  0  0  0  0  0  0  0  0  0  0  0
    3.1784    0.8918   -0.8767 O   0  0  0  0  0  0  0  0  0  0  0  0
    3.9934    1.3093   -0.5478 H   0  0  0  0  0  0  0  0  0  0  0  0
    2.3253   -1.3768   -1.2863 O   0  0  0  0  0  0  0  0  0  0  0  0
    4.5382   -1.0390   -0.0507 O   0  0  0  0  0  0  0  0  0  0  0  0
    2.4425   -0.5132    1.0910 O   0  0  0  0  0  0  0  0  0  0  0  0
  1  6  1  0  0  0  0
  2  1  2  0  0  0  0
  2  3  1  0  0  0  0
  3  4  2  0  0  0  0
  4  5  1  0  0  0  0
  4  9  1  0  0  0  0
  5 10  1  0  0  0  0
  6 11  1  0  0  0  0
  6  5  2  0  0  0  0
  7  1  1  0  0  0  0
  8  2  1  0  0  0  0
 11 13  2  0  0  0  0
 12 11  2  0  0  0  0
 14 15  3  0  0  0  0
 16 20  2  0  0  0  0
 16 21  1  0  0  0  0
 17 18  1  0  0  0  0
 17 16  1  0  0  0  0
 19 16  2  0  0  0  0
 21  3  1  0  0  0  0
M  END
