Coordinates from ORCA-job 4-NO2-Ph-N2-HSO4-B3LYPG-6-31G_dp-MTMO-d009-169-n800
 OpenBabel09051908393D

 21 20  0  0  0  0  0  0  0  0999 V2000
   -0.8405   -0.8888    0.8439 C   0  0  0  0  0  0  0  0  0  0  0  0
    0.5303   -1.0805    0.7004 C   0  0  0  0  0  0  0  0  0  0  0  0
    1.3923   -0.0236    0.9945 C   0  0  0  0  0  0  0  0  0  0  0  0
    0.9236    1.2147    1.4321 C   0  0  0  0  0  0  0  0  0  0  0  0
   -0.4465    1.4057    1.5823 C   0  0  0  0  0  0  0  0  0  0  0  0
   -1.3056    0.3497    1.2836 C   0  0  0  0  0  0  0  0  0  0  0  0
   -1.5489   -1.6779    0.6268 H   0  0  0  0  0  0  0  0  0  0  0  0
    0.9316   -2.0272    0.3606 H   0  0  0  0  0  0  0  0  0  0  0  0
    1.6291    2.0063    1.6563 H   0  0  0  0  0  0  0  0  0  0  0  0
   -0.8566    2.3480    1.9220 H   0  0  0  0  0  0  0  0  0  0  0  0
   -2.7565    0.5489    1.4416 N   0  0  0  0  0  0  0  0  0  0  0  0
   -3.4927   -0.3987    1.1736 O   0  0  0  0  0  0  0  0  0  0  0  0
   -3.1393    1.6504    1.8323 O   0  0  0  0  0  0  0  0  0  0  0  0
    8.9891    5.5233   -3.0820 N   0  0  0  0  0  0  0  0  0  0  0  0
    8.1986    4.9334   -2.5832 N   0  0  0  0  0  0  0  0  0  0  0  0
    3.5271   -0.2877   -0.5275 S   0  0  0  0  0  0  0  0  0  0  0  0
    3.4649    1.2688   -0.9906 O   0  0  0  0  0  0  0  0  0  0  0  0
    4.2610    1.7111   -0.6478 H   0  0  0  0  0  0  0  0  0  0  0  0
    2.7008   -1.0195   -1.4588 O   0  0  0  0  0  0  0  0  0  0  0  0
    4.8960   -0.6289   -0.2078 O   0  0  0  0  0  0  0  0  0  0  0  0
    2.7799   -0.2119    0.9399 O   0  0  0  0  0  0  0  0  0  0  0  0
  1  6  1  0  0  0  0
  2  1  2  0  0  0  0
  2  3  1  0  0  0  0
  3  4  2  0  0  0  0
  4  5  1  0  0  0  0
  4  9  1  0  0  0  0
  5 10  1  0  0  0  0
  6 11  1  0  0  0  0
  6  5  2  0  0  0  0
  7  1  1  0  0  0  0
  8  2  1  0  0  0  0
 11 13  2  0  0  0  0
 12 11  2  0  0  0  0
 14 15  3  0  0  0  0
 16 20  2  0  0  0  0
 16 21  1  0  0  0  0
 17 18  1  0  0  0  0
 17 16  1  0  0  0  0
 19 16  2  0  0  0  0
 21  3  1  0  0  0  0
M  END
