Coordinates from ORCA-job 4-NO2-Ph-N2-HSO4-B3LYPG-6-31G_dp-MTMO-d009-169-n800
 OpenBabel09051908393D

 21 20  0  0  0  0  0  0  0  0999 V2000
   -0.1280   -0.6476    0.2807 C   0  0  0  0  0  0  0  0  0  0  0  0
    1.2377   -0.7014    0.5418 C   0  0  0  0  0  0  0  0  0  0  0  0
    1.8309    0.3494    1.2416 C   0  0  0  0  0  0  0  0  0  0  0  0
    1.0983    1.4473    1.6912 C   0  0  0  0  0  0  0  0  0  0  0  0
   -0.2689    1.4992    1.4365 C   0  0  0  0  0  0  0  0  0  0  0  0
   -0.8582    0.4503    0.7333 C   0  0  0  0  0  0  0  0  0  0  0  0
   -0.6337   -1.4382   -0.2592 H   0  0  0  0  0  0  0  0  0  0  0  0
    1.8404   -1.5361    0.2061 H   0  0  0  0  0  0  0  0  0  0  0  0
    1.5986    2.2392    2.2367 H   0  0  0  0  0  0  0  0  0  0  0  0
   -0.8790    2.3295    1.7680 H   0  0  0  0  0  0  0  0  0  0  0  0
   -2.3048    0.5036    0.4606 N   0  0  0  0  0  0  0  0  0  0  0  0
   -2.8022   -0.4366   -0.1560 O   0  0  0  0  0  0  0  0  0  0  0  0
   -2.9234    1.4859    0.8669 O   0  0  0  0  0  0  0  0  0  0  0  0
    3.0108    1.8431   -3.3442 N   0  0  0  0  0  0  0  0  0  0  0  0
    4.0084    1.6355   -3.7719 N   0  0  0  0  0  0  0  0  0  0  0  0
    4.3333    0.5314    0.4344 S   0  0  0  0  0  0  0  0  0  0  0  0
    4.1984    2.1331    0.1940 O   0  0  0  0  0  0  0  0  0  0  0  0
    4.7855    2.5780    0.8297 H   0  0  0  0  0  0  0  0  0  0  0  0
    3.9246   -0.0949   -0.8015 O   0  0  0  0  0  0  0  0  0  0  0  0
    5.5822    0.2601    1.1118 O   0  0  0  0  0  0  0  0  0  0  0  0
    3.1867    0.2847    1.5916 O   0  0  0  0  0  0  0  0  0  0  0  0
  1  2  2  0  0  0  0
  1  6  1  0  0  0  0
  2  3  1  0  0  0  0
  3 21  1  0  0  0  0
  3  4  2  0  0  0  0
  4  9  1  0  0  0  0
  5  4  1  0  0  0  0
  5 10  1  0  0  0  0
  6  5  2  0  0  0  0
  7  1  1  0  0  0  0
  8  2  1  0  0  0  0
 11  6  1  0  0  0  0
 11 13  2  0  0  0  0
 12 11  2  0  0  0  0
 15 14  3  0  0  0  0
 16 20  2  0  0  0  0
 16 21  1  0  0  0  0
 17 16  1  0  0  0  0
 17 18  1  0  0  0  0
 19 16  2  0  0  0  0
M  END
