Coordinates from ORCA-job 4-NO2-Ph-N2-HSO4-B3LYPG-6-31G_dp-MTMO-d009-169-n800
 OpenBabel09051908393D

 21 20  0  0  0  0  0  0  0  0999 V2000
   -0.0463   -0.5506    0.2012 C   0  0  0  0  0  0  0  0  0  0  0  0
    1.2302   -0.1094   -0.1458 C   0  0  0  0  0  0  0  0  0  0  0  0
    1.4173    1.2605   -0.1951 C   0  0  0  0  0  0  0  0  0  0  0  0
    0.4516    2.2260    0.0760 C   0  0  0  0  0  0  0  0  0  0  0  0
   -0.8129    1.7656    0.4294 C   0  0  0  0  0  0  0  0  0  0  0  0
   -1.0346    0.3899    0.4809 C   0  0  0  0  0  0  0  0  0  0  0  0
   -0.2776   -1.6064    0.2642 H   0  0  0  0  0  0  0  0  0  0  0  0
    2.0561   -0.7737   -0.3612 H   0  0  0  0  0  0  0  0  0  0  0  0
    0.6759    3.2845    0.0225 H   0  0  0  0  0  0  0  0  0  0  0  0
   -1.6196    2.4490    0.6623 H   0  0  0  0  0  0  0  0  0  0  0  0
   -2.3868   -0.0893    0.8496 N   0  0  0  0  0  0  0  0  0  0  0  0
   -2.5621   -1.3028    0.8825 O   0  0  0  0  0  0  0  0  0  0  0  0
   -3.2360    0.7638    1.0923 O   0  0  0  0  0  0  0  0  0  0  0  0
    2.7858    1.8245   -0.6232 N   0  0  0  0  0  0  0  0  0  0  0  0
    3.3173    2.7557   -0.9582 N   0  0  0  0  0  0  0  0  0  0  0  0
    4.6389    0.1474    0.8828 S   0  0  0  0  0  0  0  0  0  0  0  0
    5.6167    1.4812    0.8307 O   0  0  0  0  0  0  0  0  0  0  0  0
    6.4639    1.1878    0.4588 H   0  0  0  0  0  0  0  0  0  0  0  0
    4.0217    0.1133   -0.5269 O   0  0  0  0  0  0  0  0  0  0  0  0
    5.5113   -1.0055    1.0914 O   0  0  0  0  0  0  0  0  0  0  0  0
    3.6267    0.5039    1.8781 O   0  0  0  0  0  0  0  0  0  0  0  0
  1  7  1  0  0  0  0
  1  6  2  0  0  0  0
  2  1  1  0  0  0  0
  3  2  2  0  0  0  0
  3  4  1  0  0  0  0
  4  5  2  0  0  0  0
  5  6  1  0  0  0  0
  5 10  1  0  0  0  0
  6 11  1  0  0  0  0
  8  2  1  0  0  0  0
  9  4  1  0  0  0  0
 11 12  2  0  0  0  0
 11 13  2  0  0  0  0
 14  3  1  0  0  0  0
 15 14  2  0  0  0  0
 16 20  2  0  0  0  0
 16 21  1  0  0  0  0
 17 16  1  0  0  0  0
 18 17  1  0  0  0  0
 19 16  2  0  0  0  0
M  RAD  2  15   2  21   2
M  END
