Coordinates from ORCA-job 4-NO2-Ph-N2-HSO4-B3LYPG-6-31G_dp-MTMO-d009-169-n800
 OpenBabel09051908393D

 21 20  0  0  0  0  0  0  0  0999 V2000
   -0.5106   -0.8165    0.8425 C   0  0  0  0  0  0  0  0  0  0  0  0
    0.8596   -0.8774    0.6073 C   0  0  0  0  0  0  0  0  0  0  0  0
    1.6276    0.2720    0.7978 C   0  0  0  0  0  0  0  0  0  0  0  0
    1.0650    1.4761    1.2204 C   0  0  0  0  0  0  0  0  0  0  0  0
   -0.3039    1.5366    1.4629 C   0  0  0  0  0  0  0  0  0  0  0  0
   -1.0691    0.3881    1.2679 C   0  0  0  0  0  0  0  0  0  0  0  0
   -1.1477   -1.6812    0.7072 H   0  0  0  0  0  0  0  0  0  0  0  0
    1.3311   -1.7938    0.2748 H   0  0  0  0  0  0  0  0  0  0  0  0
    1.6999    2.3432    1.3608 H   0  0  0  0  0  0  0  0  0  0  0  0
   -0.7837    2.4481    1.7956 H   0  0  0  0  0  0  0  0  0  0  0  0
   -2.5181    0.4489    1.5236 N   0  0  0  0  0  0  0  0  0  0  0  0
   -3.1710   -0.5777    1.3451 O   0  0  0  0  0  0  0  0  0  0  0  0
   -2.9843    1.5230    1.9008 O   0  0  0  0  0  0  0  0  0  0  0  0
    7.2038    3.4933   -1.4088 N   0  0  0  0  0  0  0  0  0  0  0  0
    6.1748    3.1114   -1.2889 N   0  0  0  0  0  0  0  0  0  0  0  0
    3.6738    0.1459   -0.8612 S   0  0  0  0  0  0  0  0  0  0  0  0
    3.4528    1.6641   -1.3742 O   0  0  0  0  0  0  0  0  0  0  0  0
    4.2771    2.1626   -1.2112 H   0  0  0  0  0  0  0  0  0  0  0  0
    2.8549   -0.7029   -1.6963 O   0  0  0  0  0  0  0  0  0  0  0  0
    5.0859   -0.0703   -0.6256 O   0  0  0  0  0  0  0  0  0  0  0  0
    3.0197    0.2216    0.6518 O   0  0  0  0  0  0  0  0  0  0  0  0
  1  6  2  0  0  0  0
  2  3  2  0  0  0  0
  2  1  1  0  0  0  0
  3  4  1  0  0  0  0
  4  9  1  0  0  0  0
  4  5  2  0  0  0  0
  5 10  1  0  0  0  0
  6  5  1  0  0  0  0
  6 11  1  0  0  0  0
  7  1  1  0  0  0  0
  8  2  1  0  0  0  0
 11 13  2  0  0  0  0
 12 11  2  0  0  0  0
 14 15  3  0  0  0  0
 16 20  2  0  0  0  0
 16 21  1  0  0  0  0
 17 18  1  0  0  0  0
 17 16  1  0  0  0  0
 19 16  2  0  0  0  0
 21  3  1  0  0  0  0
M  END
