Coordinates from ORCA-job 4-NO2-Ph-N2-HSO4-B3LYPG-6-31G_dp-MTMO-d009-169-n800
 OpenBabel09051908393D

 21 20  0  0  0  0  0  0  0  0999 V2000
   -0.4829   -0.8154    0.8791 C   0  0  0  0  0  0  0  0  0  0  0  0
    0.8830   -0.8724    0.6201 C   0  0  0  0  0  0  0  0  0  0  0  0
    1.6449    0.2882    0.7612 C   0  0  0  0  0  0  0  0  0  0  0  0
    1.0798    1.5001    1.1576 C   0  0  0  0  0  0  0  0  0  0  0  0
   -0.2848    1.5571    1.4238 C   0  0  0  0  0  0  0  0  0  0  0  0
   -1.0437    0.3971    1.2783 C   0  0  0  0  0  0  0  0  0  0  0  0
   -1.1150   -1.6890    0.7823 H   0  0  0  0  0  0  0  0  0  0  0  0
    1.3563   -1.7947    0.3068 H   0  0  0  0  0  0  0  0  0  0  0  0
    1.7096    2.3762    1.2598 H   0  0  0  0  0  0  0  0  0  0  0  0
   -0.7660    2.4744    1.7378 H   0  0  0  0  0  0  0  0  0  0  0  0
   -2.4881    0.4541    1.5596 N   0  0  0  0  0  0  0  0  0  0  0  0
   -3.1352   -0.5829    1.4259 O   0  0  0  0  0  0  0  0  0  0  0  0
   -2.9563    1.5356    1.9121 O   0  0  0  0  0  0  0  0  0  0  0  0
    7.1336    3.4326   -1.0763 N   0  0  0  0  0  0  0  0  0  0  0  0
    6.0898    3.0771   -1.1299 N   0  0  0  0  0  0  0  0  0  0  0  0
    3.6575    0.1366   -0.9342 S   0  0  0  0  0  0  0  0  0  0  0  0
    3.3990    1.6360   -1.4827 O   0  0  0  0  0  0  0  0  0  0  0  0
    4.2085    2.1611   -1.3281 H   0  0  0  0  0  0  0  0  0  0  0  0
    2.8363   -0.7475   -1.7291 O   0  0  0  0  0  0  0  0  0  0  0  0
    5.0773   -0.0517   -0.7218 O   0  0  0  0  0  0  0  0  0  0  0  0
    3.0341    0.2429    0.5901 O   0  0  0  0  0  0  0  0  0  0  0  0
  1  6  2  0  0  0  0
  2  3  2  0  0  0  0
  2  1  1  0  0  0  0
  3  4  1  0  0  0  0
  4  9  1  0  0  0  0
  4  5  2  0  0  0  0
  5 10  1  0  0  0  0
  6  5  1  0  0  0  0
  6 11  1  0  0  0  0
  7  1  1  0  0  0  0
  8  2  1  0  0  0  0
 11 13  2  0  0  0  0
 12 11  2  0  0  0  0
 15 14  3  0  0  0  0
 16 20  2  0  0  0  0
 16 21  1  0  0  0  0
 17 18  1  0  0  0  0
 17 16  1  0  0  0  0
 19 16  2  0  0  0  0
 21  3  1  0  0  0  0
M  END
