Coordinates from ORCA-job 4-NO2-Ph-N2-HSO4-B3LYPG-6-31G_dp-MTMO-d009-169-n800
 OpenBabel09051908393D

 21 20  0  0  0  0  0  0  0  0999 V2000
   -0.6829   -0.8551    0.8180 C   0  0  0  0  0  0  0  0  0  0  0  0
    0.6924   -0.9803    0.6471 C   0  0  0  0  0  0  0  0  0  0  0  0
    1.5074    0.1189    0.9181 C   0  0  0  0  0  0  0  0  0  0  0  0
    0.9881    1.3361    1.3576 C   0  0  0  0  0  0  0  0  0  0  0  0
   -0.3865    1.4611    1.5347 C   0  0  0  0  0  0  0  0  0  0  0  0
   -1.1988    0.3624    1.2602 C   0  0  0  0  0  0  0  0  0  0  0  0
   -1.3563   -1.6790    0.6196 H   0  0  0  0  0  0  0  0  0  0  0  0
    1.1328   -1.9084    0.3038 H   0  0  0  0  0  0  0  0  0  0  0  0
    1.6587    2.1627    1.5613 H   0  0  0  0  0  0  0  0  0  0  0  0
   -0.8351    2.3849    1.8769 H   0  0  0  0  0  0  0  0  0  0  0  0
   -2.6542    0.4914    1.4471 N   0  0  0  0  0  0  0  0  0  0  0  0
   -3.3486   -0.4928    1.2004 O   0  0  0  0  0  0  0  0  0  0  0  0
   -3.0828    1.5756    1.8392 O   0  0  0  0  0  0  0  0  0  0  0  0
    8.0000    4.4340   -2.4934 N   0  0  0  0  0  0  0  0  0  0  0  0
    7.1516    3.9048   -2.0223 N   0  0  0  0  0  0  0  0  0  0  0  0
    3.6249   -0.0215   -0.6456 S   0  0  0  0  0  0  0  0  0  0  0  0
    3.5536    1.5509   -1.0490 O   0  0  0  0  0  0  0  0  0  0  0  0
    4.3868    1.9671   -0.7660 H   0  0  0  0  0  0  0  0  0  0  0  0
    2.7840   -0.7245   -1.5863 O   0  0  0  0  0  0  0  0  0  0  0  0
    5.0014   -0.3679   -0.3646 O   0  0  0  0  0  0  0  0  0  0  0  0
    2.9011   -0.0049    0.8353 O   0  0  0  0  0  0  0  0  0  0  0  0
  1  6  1  0  0  0  0
  2  1  2  0  0  0  0
  2  3  1  0  0  0  0
  3  4  2  0  0  0  0
  4  5  1  0  0  0  0
  4  9  1  0  0  0  0
  5 10  1  0  0  0  0
  6 11  1  0  0  0  0
  6  5  2  0  0  0  0
  7  1  1  0  0  0  0
  8  2  1  0  0  0  0
 11 13  2  0  0  0  0
 12 11  2  0  0  0  0
 14 15  3  0  0  0  0
 16 20  2  0  0  0  0
 16 21  1  0  0  0  0
 17 18  1  0  0  0  0
 17 16  1  0  0  0  0
 19 16  2  0  0  0  0
 21  3  1  0  0  0  0
M  END
