Coordinates from ORCA-job 4-NO2-Ph-N2-HSO4-B3LYPG-6-31G_dp-MTMO-d009-169-n800
 OpenBabel09051908393D

 21 20  0  0  0  0  0  0  0  0999 V2000
   -0.0336   -0.6314    0.2008 C   0  0  0  0  0  0  0  0  0  0  0  0
    1.3174   -0.7016    0.5265 C   0  0  0  0  0  0  0  0  0  0  0  0
    1.8940    0.3518    1.2361 C   0  0  0  0  0  0  0  0  0  0  0  0
    1.1590    1.4678    1.6339 C   0  0  0  0  0  0  0  0  0  0  0  0
   -0.1937    1.5362    1.3146 C   0  0  0  0  0  0  0  0  0  0  0  0
   -0.7662    0.4850    0.6010 C   0  0  0  0  0  0  0  0  0  0  0  0
   -0.5260   -1.4228   -0.3499 H   0  0  0  0  0  0  0  0  0  0  0  0
    1.9219   -1.5507    0.2329 H   0  0  0  0  0  0  0  0  0  0  0  0
    1.6459    2.2611    2.1893 H   0  0  0  0  0  0  0  0  0  0  0  0
   -0.8056    2.3810    1.6038 H   0  0  0  0  0  0  0  0  0  0  0  0
   -2.1972    0.5564    0.2593 N   0  0  0  0  0  0  0  0  0  0  0  0
   -2.6800   -0.3854   -0.3667 O   0  0  0  0  0  0  0  0  0  0  0  0
   -2.8185    1.5540    0.6216 O   0  0  0  0  0  0  0  0  0  0  0  0
    2.2903    1.6540   -2.7839 N   0  0  0  0  0  0  0  0  0  0  0  0
    3.0425    1.6651   -3.5934 N   0  0  0  0  0  0  0  0  0  0  0  0
    4.4303    0.4975    0.5395 S   0  0  0  0  0  0  0  0  0  0  0  0
    4.3220    2.0981    0.2791 O   0  0  0  0  0  0  0  0  0  0  0  0
    4.8872    2.5430    0.9344 H   0  0  0  0  0  0  0  0  0  0  0  0
    4.0704   -0.1371   -0.7073 O   0  0  0  0  0  0  0  0  0  0  0  0
    5.6458    0.2211    1.2734 O   0  0  0  0  0  0  0  0  0  0  0  0
    3.2320    0.2723    1.6473 O   0  0  0  0  0  0  0  0  0  0  0  0
  1  2  2  0  0  0  0
  1  6  1  0  0  0  0
  2  3  1  0  0  0  0
  3  4  2  0  0  0  0
  3 21  1  0  0  0  0
  4  9  1  0  0  0  0
  5 10  1  0  0  0  0
  5  4  1  0  0  0  0
  6  5  2  0  0  0  0
  7  1  1  0  0  0  0
  8  2  1  0  0  0  0
 11  6  1  0  0  0  0
 11 13  2  0  0  0  0
 12 11  2  0  0  0  0
 15 14  3  0  0  0  0
 16 20  2  0  0  0  0
 16 21  1  0  0  0  0
 17 16  1  0  0  0  0
 17 18  1  0  0  0  0
 19 16  2  0  0  0  0
M  END
