Coordinates from ORCA-job 4-NO2-Ph-N2-HSO4-B3LYPG-6-31G_dp-MTMO-d009-169-n800
 OpenBabel09051908393D

 21 20  0  0  0  0  0  0  0  0999 V2000
   -0.6868   -0.8546    0.8169 C   0  0  0  0  0  0  0  0  0  0  0  0
    0.6883   -0.9825    0.6472 C   0  0  0  0  0  0  0  0  0  0  0  0
    1.5054    0.1147    0.9204 C   0  0  0  0  0  0  0  0  0  0  0  0
    0.9881    1.3323    1.3610 C   0  0  0  0  0  0  0  0  0  0  0  0
   -0.3865    1.4599    1.5369 C   0  0  0  0  0  0  0  0  0  0  0  0
   -1.2008    0.3632    1.2601 C   0  0  0  0  0  0  0  0  0  0  0  0
   -1.3617   -1.6770    0.6167 H   0  0  0  0  0  0  0  0  0  0  0  0
    1.1271   -1.9110    0.3033 H   0  0  0  0  0  0  0  0  0  0  0  0
    1.6601    2.1573    1.5666 H   0  0  0  0  0  0  0  0  0  0  0  0
   -0.8335    2.3842    1.8798 H   0  0  0  0  0  0  0  0  0  0  0  0
   -2.6561    0.4951    1.4456 N   0  0  0  0  0  0  0  0  0  0  0  0
   -3.3522   -0.4874    1.1969 O   0  0  0  0  0  0  0  0  0  0  0  0
   -3.0828    1.5797    1.8385 O   0  0  0  0  0  0  0  0  0  0  0  0
    8.0188    4.4632   -2.5090 N   0  0  0  0  0  0  0  0  0  0  0  0
    7.1722    3.9325   -2.0364 N   0  0  0  0  0  0  0  0  0  0  0  0
    3.6240   -0.0309   -0.6413 S   0  0  0  0  0  0  0  0  0  0  0  0
    3.5497    1.5401   -1.0494 O   0  0  0  0  0  0  0  0  0  0  0  0
    4.3793    1.9602   -0.7617 H   0  0  0  0  0  0  0  0  0  0  0  0
    2.7853   -0.7380   -1.5809 O   0  0  0  0  0  0  0  0  0  0  0  0
    5.0008   -0.3739   -0.3578 O   0  0  0  0  0  0  0  0  0  0  0  0
    2.8989   -0.0116    0.8390 O   0  0  0  0  0  0  0  0  0  0  0  0
  1  6  1  0  0  0  0
  2  1  2  0  0  0  0
  2  3  1  0  0  0  0
  3  4  2  0  0  0  0
  4  5  1  0  0  0  0
  4  9  1  0  0  0  0
  5 10  1  0  0  0  0
  6 11  1  0  0  0  0
  6  5  2  0  0  0  0
  7  1  1  0  0  0  0
  8  2  1  0  0  0  0
 11 13  2  0  0  0  0
 12 11  2  0  0  0  0
 14 15  3  0  0  0  0
 16 20  2  0  0  0  0
 16 21  1  0  0  0  0
 17 18  1  0  0  0  0
 17 16  1  0  0  0  0
 19 16  2  0  0  0  0
 21  3  1  0  0  0  0
M  END
