Coordinates from ORCA-job 4-NO2-Ph-N2-HSO4-B3LYPG-6-31G_dp-MTMO-d009-169-n800
 OpenBabel09051908393D

 21 20  0  0  0  0  0  0  0  0999 V2000
   -1.2636   -1.1300    1.0664 C   0  0  0  0  0  0  0  0  0  0  0  0
    0.1002   -1.3683    0.9278 C   0  0  0  0  0  0  0  0  0  0  0  0
    0.9943   -0.3255    1.1713 C   0  0  0  0  0  0  0  0  0  0  0  0
    0.5645    0.9449    1.5530 C   0  0  0  0  0  0  0  0  0  0  0  0
   -0.7989    1.1831    1.6979 C   0  0  0  0  0  0  0  0  0  0  0  0
   -1.6900    0.1405    1.4503 C   0  0  0  0  0  0  0  0  0  0  0  0
   -1.9960   -1.9067    0.8874 H   0  0  0  0  0  0  0  0  0  0  0  0
    0.4721   -2.3410    0.6306 H   0  0  0  0  0  0  0  0  0  0  0  0
    1.2937    1.7249    1.7388 H   0  0  0  0  0  0  0  0  0  0  0  0
   -1.1798    2.1516    1.9955 H   0  0  0  0  0  0  0  0  0  0  0  0
   -3.1337    0.3899    1.6030 N   0  0  0  0  0  0  0  0  0  0  0  0
   -3.8987   -0.5467    1.3806 O   0  0  0  0  0  0  0  0  0  0  0  0
   -3.4820    1.5191    1.9437 O   0  0  0  0  0  0  0  0  0  0  0  0
   12.6926    8.2931   -4.6647 N   0  0  0  0  0  0  0  0  0  0  0  0
   11.9035    7.6561   -4.2250 N   0  0  0  0  0  0  0  0  0  0  0  0
    3.1149   -0.7021   -0.3451 S   0  0  0  0  0  0  0  0  0  0  0  0
    3.1129    0.8438   -0.8469 O   0  0  0  0  0  0  0  0  0  0  0  0
    3.9283    1.2606   -0.5181 H   0  0  0  0  0  0  0  0  0  0  0  0
    2.2577   -1.4242   -1.2557 O   0  0  0  0  0  0  0  0  0  0  0  0
    4.4706   -1.0880   -0.0199 O   0  0  0  0  0  0  0  0  0  0  0  0
    2.3752   -0.5598    1.1213 O   0  0  0  0  0  0  0  0  0  0  0  0
  1  6  1  0  0  0  0
  2  1  2  0  0  0  0
  2  3  1  0  0  0  0
  3  4  2  0  0  0  0
  4  5  1  0  0  0  0
  4  9  1  0  0  0  0
  5 10  1  0  0  0  0
  6 11  1  0  0  0  0
  6  5  2  0  0  0  0
  7  1  1  0  0  0  0
  8  2  1  0  0  0  0
 11 13  2  0  0  0  0
 12 11  2  0  0  0  0
 14 15  3  0  0  0  0
 16 20  2  0  0  0  0
 16 21  1  0  0  0  0
 17 18  1  0  0  0  0
 17 16  1  0  0  0  0
 19 16  2  0  0  0  0
 21  3  1  0  0  0  0
M  END
