Coordinates from ORCA-job 4-NO2-Ph-N2-HSO4-B3LYPG-6-31G_dp-MTMO-d009-169-n800
 OpenBabel09051908393D

 21 20  0  0  0  0  0  0  0  0999 V2000
   -0.6906   -0.8546    0.8162 C   0  0  0  0  0  0  0  0  0  0  0  0
    0.6845   -0.9847    0.6476 C   0  0  0  0  0  0  0  0  0  0  0  0
    1.5032    0.1108    0.9225 C   0  0  0  0  0  0  0  0  0  0  0  0
    0.9876    1.3290    1.3639 C   0  0  0  0  0  0  0  0  0  0  0  0
   -0.3869    1.4588    1.5387 C   0  0  0  0  0  0  0  0  0  0  0  0
   -1.2028    0.3638    1.2601 C   0  0  0  0  0  0  0  0  0  0  0  0
   -1.3667   -1.6756    0.6146 H   0  0  0  0  0  0  0  0  0  0  0  0
    1.1220   -1.9136    0.3032 H   0  0  0  0  0  0  0  0  0  0  0  0
    1.6609    2.1526    1.5709 H   0  0  0  0  0  0  0  0  0  0  0  0
   -0.8326    2.3835    1.8822 H   0  0  0  0  0  0  0  0  0  0  0  0
   -2.6581    0.4979    1.4445 N   0  0  0  0  0  0  0  0  0  0  0  0
   -3.3557   -0.4831    1.1943 O   0  0  0  0  0  0  0  0  0  0  0  0
   -3.0832    1.5829    1.8382 O   0  0  0  0  0  0  0  0  0  0  0  0
    8.0393    4.4907   -2.5238 N   0  0  0  0  0  0  0  0  0  0  0  0
    7.1942    3.9587   -2.0501 N   0  0  0  0  0  0  0  0  0  0  0  0
    3.6225   -0.0393   -0.6376 S   0  0  0  0  0  0  0  0  0  0  0  0
    3.5457    1.5306   -1.0493 O   0  0  0  0  0  0  0  0  0  0  0  0
    4.3725    1.9537   -0.7580 H   0  0  0  0  0  0  0  0  0  0  0  0
    2.7857   -0.7497   -1.5763 O   0  0  0  0  0  0  0  0  0  0  0  0
    4.9996   -0.3794   -0.3521 O   0  0  0  0  0  0  0  0  0  0  0  0
    2.8965   -0.0175    0.8422 O   0  0  0  0  0  0  0  0  0  0  0  0
  1  6  1  0  0  0  0
  2  1  2  0  0  0  0
  2  3  1  0  0  0  0
  3  4  2  0  0  0  0
  4  5  1  0  0  0  0
  4  9  1  0  0  0  0
  5 10  1  0  0  0  0
  6 11  1  0  0  0  0
  6  5  2  0  0  0  0
  7  1  1  0  0  0  0
  8  2  1  0  0  0  0
 11 13  2  0  0  0  0
 12 11  2  0  0  0  0
 14 15  3  0  0  0  0
 16 20  2  0  0  0  0
 16 21  1  0  0  0  0
 17 18  1  0  0  0  0
 17 16  1  0  0  0  0
 19 16  2  0  0  0  0
 21  3  1  0  0  0  0
M  END
