Coordinates from ORCA-job 4-NO2-Ph-N2-HSO4-B3LYPG-6-31G_dp-MTMO-d009-169-n800
 OpenBabel09051908393D

 21 20  0  0  0  0  0  0  0  0999 V2000
   -0.9189   -0.9240    0.8894 C   0  0  0  0  0  0  0  0  0  0  0  0
    0.4492   -1.1350    0.7484 C   0  0  0  0  0  0  0  0  0  0  0  0
    1.3246   -0.0847    1.0255 C   0  0  0  0  0  0  0  0  0  0  0  0
    0.8718    1.1662    1.4436 C   0  0  0  0  0  0  0  0  0  0  0  0
   -0.4958    1.3767    1.5913 C   0  0  0  0  0  0  0  0  0  0  0  0
   -1.3681    0.3270    1.3096 C   0  0  0  0  0  0  0  0  0  0  0  0
   -1.6373   -1.7075    0.6850 H   0  0  0  0  0  0  0  0  0  0  0  0
    0.8384   -2.0920    0.4236 H   0  0  0  0  0  0  0  0  0  0  0  0
    1.5872    1.9524    1.6552 H   0  0  0  0  0  0  0  0  0  0  0  0
   -0.8939    2.3293    1.9163 H   0  0  0  0  0  0  0  0  0  0  0  0
   -2.8163    0.5469    1.4649 N   0  0  0  0  0  0  0  0  0  0  0  0
   -3.5645   -0.3954    1.2117 O   0  0  0  0  0  0  0  0  0  0  0  0
   -3.1850    1.6591    1.8387 O   0  0  0  0  0  0  0  0  0  0  0  0
    9.5975    6.0637   -3.3377 N   0  0  0  0  0  0  0  0  0  0  0  0
    8.8131    5.4491   -2.8596 N   0  0  0  0  0  0  0  0  0  0  0  0
    3.4551   -0.3951   -0.4933 S   0  0  0  0  0  0  0  0  0  0  0  0
    3.4161    1.1572   -0.9732 O   0  0  0  0  0  0  0  0  0  0  0  0
    4.2182    1.5910   -0.6340 H   0  0  0  0  0  0  0  0  0  0  0  0
    2.6177   -1.1245   -1.4164 O   0  0  0  0  0  0  0  0  0  0  0  0
    4.8190   -0.7530   -0.1702 O   0  0  0  0  0  0  0  0  0  0  0  0
    2.7096   -0.2919    0.9733 O   0  0  0  0  0  0  0  0  0  0  0  0
  1  6  1  0  0  0  0
  2  1  2  0  0  0  0
  2  3  1  0  0  0  0
  3  4  2  0  0  0  0
  4  5  1  0  0  0  0
  4  9  1  0  0  0  0
  5 10  1  0  0  0  0
  6 11  1  0  0  0  0
  6  5  2  0  0  0  0
  7  1  1  0  0  0  0
  8  2  1  0  0  0  0
 11 13  2  0  0  0  0
 12 11  2  0  0  0  0
 14 15  3  0  0  0  0
 16 20  2  0  0  0  0
 16 21  1  0  0  0  0
 17 18  1  0  0  0  0
 17 16  1  0  0  0  0
 19 16  2  0  0  0  0
 21  3  1  0  0  0  0
M  END
