Coordinates from ORCA-job 4-NO2-Ph-N2-HSO4-B3LYPG-6-31G_dp-MTMO-d009-169-n800
 OpenBabel09051908393D

 21 20  0  0  0  0  0  0  0  0999 V2000
   -1.2771   -1.1388    1.0723 C   0  0  0  0  0  0  0  0  0  0  0  0
    0.0867   -1.3772    0.9338 C   0  0  0  0  0  0  0  0  0  0  0  0
    0.9809   -0.3345    1.1773 C   0  0  0  0  0  0  0  0  0  0  0  0
    0.5511    0.9360    1.5589 C   0  0  0  0  0  0  0  0  0  0  0  0
   -0.8123    1.1742    1.7037 C   0  0  0  0  0  0  0  0  0  0  0  0
   -1.7034    0.1317    1.4561 C   0  0  0  0  0  0  0  0  0  0  0  0
   -2.0095   -1.9155    0.8933 H   0  0  0  0  0  0  0  0  0  0  0  0
    0.4586   -2.3500    0.6367 H   0  0  0  0  0  0  0  0  0  0  0  0
    1.2804    1.7159    1.7447 H   0  0  0  0  0  0  0  0  0  0  0  0
   -1.1931    2.1428    2.0012 H   0  0  0  0  0  0  0  0  0  0  0  0
   -3.1471    0.3812    1.6087 N   0  0  0  0  0  0  0  0  0  0  0  0
   -3.9122   -0.5553    1.3863 O   0  0  0  0  0  0  0  0  0  0  0  0
   -3.4954    1.5104    1.9493 O   0  0  0  0  0  0  0  0  0  0  0  0
   12.8199    8.3784   -4.7208 N   0  0  0  0  0  0  0  0  0  0  0  0
   12.0307    7.7412   -4.2816 N   0  0  0  0  0  0  0  0  0  0  0  0
    3.1015   -0.7114   -0.3390 S   0  0  0  0  0  0  0  0  0  0  0  0
    3.0996    0.8346   -0.8408 O   0  0  0  0  0  0  0  0  0  0  0  0
    3.9151    1.2513   -0.5119 H   0  0  0  0  0  0  0  0  0  0  0  0
    2.2443   -1.4333   -1.2497 O   0  0  0  0  0  0  0  0  0  0  0  0
    4.4572   -1.0973   -0.0137 O   0  0  0  0  0  0  0  0  0  0  0  0
    2.3617   -0.5689    1.1273 O   0  0  0  0  0  0  0  0  0  0  0  0
  1  6  1  0  0  0  0
  2  1  2  0  0  0  0
  2  3  1  0  0  0  0
  3  4  2  0  0  0  0
  4  5  1  0  0  0  0
  4  9  1  0  0  0  0
  5 10  1  0  0  0  0
  6 11  1  0  0  0  0
  6  5  2  0  0  0  0
  7  1  1  0  0  0  0
  8  2  1  0  0  0  0
 11 13  2  0  0  0  0
 12 11  2  0  0  0  0
 14 15  3  0  0  0  0
 16 20  2  0  0  0  0
 16 21  1  0  0  0  0
 17 18  1  0  0  0  0
 17 16  1  0  0  0  0
 19 16  2  0  0  0  0
 21  3  1  0  0  0  0
M  END
