Coordinates from ORCA-job 4-NO2-Ph-N2-HSO4-B3LYPG-6-31G_dp-MTMO-d009-169-n800
 OpenBabel09051908393D

 21 20  0  0  0  0  0  0  0  0999 V2000
   -0.2579   -0.7095    0.4199 C   0  0  0  0  0  0  0  0  0  0  0  0
    1.1241   -0.7362    0.5796 C   0  0  0  0  0  0  0  0  0  0  0  0
    1.7515    0.3456    1.1978 C   0  0  0  0  0  0  0  0  0  0  0  0
    1.0376    1.4491    1.6634 C   0  0  0  0  0  0  0  0  0  0  0  0
   -0.3454    1.4746    1.5095 C   0  0  0  0  0  0  0  0  0  0  0  0
   -0.9692    0.3942    0.8884 C   0  0  0  0  0  0  0  0  0  0  0  0
   -0.7899   -1.5249   -0.0537 H   0  0  0  0  0  0  0  0  0  0  0  0
    1.7136   -1.5739    0.2283 H   0  0  0  0  0  0  0  0  0  0  0  0
    1.5651    2.2660    2.1421 H   0  0  0  0  0  0  0  0  0  0  0  0
   -0.9419    2.3082    1.8573 H   0  0  0  0  0  0  0  0  0  0  0  0
   -2.4328    0.4194    0.7232 N   0  0  0  0  0  0  0  0  0  0  0  0
   -2.9601   -0.5478    0.1771 O   0  0  0  0  0  0  0  0  0  0  0  0
   -3.0348    1.4068    1.1417 O   0  0  0  0  0  0  0  0  0  0  0  0
    4.2444    1.8109   -3.9292 N   0  0  0  0  0  0  0  0  0  0  0  0
    5.0131    2.0089   -3.1605 N   0  0  0  0  0  0  0  0  0  0  0  0
    4.1769    0.5702    0.2008 S   0  0  0  0  0  0  0  0  0  0  0  0
    3.9895    2.1682   -0.0294 O   0  0  0  0  0  0  0  0  0  0  0  0
    4.6609    2.6233    0.5079 H   0  0  0  0  0  0  0  0  0  0  0  0
    3.6799   -0.0733   -0.9932 O   0  0  0  0  0  0  0  0  0  0  0  0
    5.4824    0.3284    0.7749 O   0  0  0  0  0  0  0  0  0  0  0  0
    3.1305    0.3071    1.4463 O   0  0  0  0  0  0  0  0  0  0  0  0
  1  2  2  0  0  0  0
  1  6  1  0  0  0  0
  2  3  1  0  0  0  0
  3 21  1  0  0  0  0
  3  4  2  0  0  0  0
  4  9  1  0  0  0  0
  5  4  1  0  0  0  0
  5 10  1  0  0  0  0
  6  5  2  0  0  0  0
  7  1  1  0  0  0  0
  8  2  1  0  0  0  0
 11  6  1  0  0  0  0
 11 13  2  0  0  0  0
 12 11  2  0  0  0  0
 14 15  3  0  0  0  0
 16 20  2  0  0  0  0
 16 21  1  0  0  0  0
 17 16  1  0  0  0  0
 17 18  1  0  0  0  0
 19 16  2  0  0  0  0
M  END
