Coordinates from ORCA-job 4-NO2-Ph-N2-HSO4-B3LYPG-6-31G_dp-MTMO-d009-169-n800
 OpenBabel09051908393D

 21 21  0  0  1  0  0  0  0  0999 V2000
    0.5847   -0.5031    0.1077 C   0  0  0  0  0  0  0  0  0  0  0  0
    1.7240    0.0547   -0.6660 C   0  0  1  0  0  0  0  0  0  0  0  0
    1.5037    1.4921   -0.9149 C   0  0  1  0  0  0  0  0  0  0  0  0
    0.5716    2.3230   -0.2275 C   0  0  0  0  0  0  0  0  0  0  0  0
   -0.3394    1.7380    0.5969 C   0  0  0  0  0  0  0  0  0  0  0  0
   -0.3182    0.3074    0.7054 C   0  0  0  0  0  0  0  0  0  0  0  0
    0.5123   -1.5772    0.2189 H   0  0  0  0  0  0  0  0  0  0  0  0
    1.9383   -0.5221   -1.5676 H   0  0  0  0  0  0  0  0  0  0  0  0
    0.5993    3.3969   -0.3765 H   0  0  0  0  0  0  0  0  0  0  0  0
   -1.0740    2.3056    1.1486 H   0  0  0  0  0  0  0  0  0  0  0  0
   -1.3924   -0.3315    1.5057 N   0  0  0  0  0  0  0  0  0  0  0  0
   -1.4147   -1.5575    1.5679 O   0  0  0  0  0  0  0  0  0  0  0  0
   -2.1974    0.4174    2.0545 O   0  0  0  0  0  0  0  0  0  0  0  0
    2.3852    2.1131   -1.8703 N   0  0  0  0  0  0  0  0  0  0  0  0
    3.0864    2.5839   -2.6188 N   0  0  0  0  0  0  0  0  0  0  0  0
    3.5684    0.6497    1.2804 S   0  0  0  0  0  0  0  0  0  0  0  0
    4.7089   -0.3521    1.8525 O   0  0  0  0  0  0  0  0  0  0  0  0
    5.5411   -0.1348    1.4000 H   0  0  0  0  0  0  0  0  0  0  0  0
    4.2330    1.8310    0.7396 O   0  0  0  0  0  0  0  0  0  0  0  0
    3.0709   -0.2783    0.0563 O   0  0  0  0  0  0  0  0  0  0  0  0
    2.5459    0.7592    2.2995 O   0  0  0  0  0  0  0  0  0  0  0  0
  1  7  1  0  0  0  0
  1  6  2  0  0  0  0
  2  8  1  6  0  0  0
  2 20  1  0  0  0  0
  2  1  1  0  0  0  0
  3 14  1  1  0  0  0
  3  2  1  0  0  0  0
  3  4  1  0  0  0  0
  4  5  2  0  0  0  0
  5  6  1  0  0  0  0
  5 10  1  0  0  0  0
  6 11  1  0  0  0  0
  9  4  1  0  0  0  0
 11 12  2  0  0  0  0
 11 13  2  0  0  0  0
 15 14  1  0  0  0  0
 16 17  1  0  0  0  0
 16 21  2  0  0  0  0
 18 17  1  0  0  0  0
 19 16  2  0  0  0  0
 20 16  1  0  0  0  0
M  RAD  3   3   2  14   2  15   3
M  END
