Coordinates from ORCA-job 4-NO2-Ph-N2-HSO4-B3LYPG-6-31G_dp-MTMO-d009-169-n800
 OpenBabel09051908393D

 21 20  0  0  0  0  0  0  0  0999 V2000
   -0.2873   -0.7128    0.4368 C   0  0  0  0  0  0  0  0  0  0  0  0
    1.0978   -0.7314    0.5697 C   0  0  0  0  0  0  0  0  0  0  0  0
    1.7296    0.3487    1.1862 C   0  0  0  0  0  0  0  0  0  0  0  0
    1.0172    1.4427    1.6762 C   0  0  0  0  0  0  0  0  0  0  0  0
   -0.3686    1.4600    1.5492 C   0  0  0  0  0  0  0  0  0  0  0  0
   -0.9969    0.3813    0.9296 C   0  0  0  0  0  0  0  0  0  0  0  0
   -0.8228   -1.5274   -0.0342 H   0  0  0  0  0  0  0  0  0  0  0  0
    1.6860   -1.5616    0.1990 H   0  0  0  0  0  0  0  0  0  0  0  0
    1.5484    2.2586    2.1524 H   0  0  0  0  0  0  0  0  0  0  0  0
   -0.9640    2.2861    1.9164 H   0  0  0  0  0  0  0  0  0  0  0  0
   -2.4636    0.3979    0.7926 N   0  0  0  0  0  0  0  0  0  0  0  0
   -2.9946   -0.5673    0.2467 O   0  0  0  0  0  0  0  0  0  0  0  0
   -3.0642    1.3768    1.2327 O   0  0  0  0  0  0  0  0  0  0  0  0
    4.6149    1.8066   -4.0180 N   0  0  0  0  0  0  0  0  0  0  0  0
    5.2322    1.9875   -3.1195 N   0  0  0  0  0  0  0  0  0  0  0  0
    4.1362    0.5952    0.1455 S   0  0  0  0  0  0  0  0  0  0  0  0
    3.9311    2.1921   -0.0756 O   0  0  0  0  0  0  0  0  0  0  0  0
    4.6147    2.6503    0.4434 H   0  0  0  0  0  0  0  0  0  0  0  0
    3.6256   -0.0488   -1.0426 O   0  0  0  0  0  0  0  0  0  0  0  0
    5.4527    0.3626    0.6979 O   0  0  0  0  0  0  0  0  0  0  0  0
    3.1132    0.3184    1.4077 O   0  0  0  0  0  0  0  0  0  0  0  0
  1  2  2  0  0  0  0
  1  6  1  0  0  0  0
  2  3  1  0  0  0  0
  3 21  1  0  0  0  0
  3  4  2  0  0  0  0
  4  9  1  0  0  0  0
  5  4  1  0  0  0  0
  5 10  1  0  0  0  0
  6  5  2  0  0  0  0
  7  1  1  0  0  0  0
  8  2  1  0  0  0  0
 11  6  1  0  0  0  0
 11 13  2  0  0  0  0
 12 11  2  0  0  0  0
 14 15  3  0  0  0  0
 16 20  2  0  0  0  0
 16 21  1  0  0  0  0
 17 16  1  0  0  0  0
 17 18  1  0  0  0  0
 19 16  2  0  0  0  0
M  END
