Coordinates from ORCA-job 4-NO2-Ph-N2-HSO4-B3LYPG-6-31G_dp-MTMO-d009-169-n800
 OpenBabel09051908393D

 21 20  0  0  0  0  0  0  0  0999 V2000
   -0.7094   -0.8552    0.8139 C   0  0  0  0  0  0  0  0  0  0  0  0
    0.6653   -0.9957    0.6505 C   0  0  0  0  0  0  0  0  0  0  0  0
    1.4916    0.0922    0.9330 C   0  0  0  0  0  0  0  0  0  0  0  0
    0.9838    1.3124    1.3775 C   0  0  0  0  0  0  0  0  0  0  0  0
   -0.3902    1.4525    1.5475 C   0  0  0  0  0  0  0  0  0  0  0  0
   -1.2137    0.3653    1.2609 C   0  0  0  0  0  0  0  0  0  0  0  0
   -1.3912   -1.6700    0.6063 H   0  0  0  0  0  0  0  0  0  0  0  0
    1.0966   -1.9268    0.3040 H   0  0  0  0  0  0  0  0  0  0  0  0
    1.6628    2.1297    1.5911 H   0  0  0  0  0  0  0  0  0  0  0  0
   -0.8299    2.3793    1.8932 H   0  0  0  0  0  0  0  0  0  0  0  0
   -2.6686    0.5104    1.4399 N   0  0  0  0  0  0  0  0  0  0  0  0
   -3.3730   -0.4640    1.1827 O   0  0  0  0  0  0  0  0  0  0  0  0
   -3.0867    1.5971    1.8363 O   0  0  0  0  0  0  0  0  0  0  0  0
    8.1439    4.6241   -2.5983 N   0  0  0  0  0  0  0  0  0  0  0  0
    7.3063    4.0859   -2.1184 N   0  0  0  0  0  0  0  0  0  0  0  0
    3.6147   -0.0777   -0.6195 S   0  0  0  0  0  0  0  0  0  0  0  0
    3.5294    1.4878   -1.0460 O   0  0  0  0  0  0  0  0  0  0  0  0
    4.3442    1.9230   -0.7392 H   0  0  0  0  0  0  0  0  0  0  0  0
    2.7853   -0.8006   -1.5552 O   0  0  0  0  0  0  0  0  0  0  0  0
    4.9923   -0.4081   -0.3259 O   0  0  0  0  0  0  0  0  0  0  0  0
    2.8842   -0.0460    0.8579 O   0  0  0  0  0  0  0  0  0  0  0  0
  1  6  1  0  0  0  0
  2  1  2  0  0  0  0
  2  3  1  0  0  0  0
  3  4  2  0  0  0  0
  4  5  1  0  0  0  0
  4  9  1  0  0  0  0
  5 10  1  0  0  0  0
  6 11  1  0  0  0  0
  6  5  2  0  0  0  0
  7  1  1  0  0  0  0
  8  2  1  0  0  0  0
 11 13  2  0  0  0  0
 12 11  2  0  0  0  0
 14 15  3  0  0  0  0
 16 20  2  0  0  0  0
 16 21  1  0  0  0  0
 17 18  1  0  0  0  0
 17 16  1  0  0  0  0
 19 16  2  0  0  0  0
 21  3  1  0  0  0  0
M  END
