Coordinates from ORCA-job 4-NO2-Ph-N2-HSO4-B3LYPG-6-31G_dp-MTMO-d009-169-n800
 OpenBabel09051908393D

 21 20  0  0  0  0  0  0  0  0999 V2000
   -0.1155   -0.6473    0.2742 C   0  0  0  0  0  0  0  0  0  0  0  0
    1.2483   -0.7026    0.5448 C   0  0  0  0  0  0  0  0  0  0  0  0
    1.8390    0.3506    1.2433 C   0  0  0  0  0  0  0  0  0  0  0  0
    1.1056    1.4522    1.6825 C   0  0  0  0  0  0  0  0  0  0  0  0
   -0.2597    1.5056    1.4183 C   0  0  0  0  0  0  0  0  0  0  0  0
   -0.8464    0.4544    0.7163 C   0  0  0  0  0  0  0  0  0  0  0  0
   -0.6191   -1.4395   -0.2652 H   0  0  0  0  0  0  0  0  0  0  0  0
    1.8516   -1.5401    0.2175 H   0  0  0  0  0  0  0  0  0  0  0  0
    1.6038    2.2458    2.2274 H   0  0  0  0  0  0  0  0  0  0  0  0
   -0.8704    2.3388    1.7415 H   0  0  0  0  0  0  0  0  0  0  0  0
   -2.2910    0.5094    0.4336 N   0  0  0  0  0  0  0  0  0  0  0  0
   -2.7862   -0.4328   -0.1820 O   0  0  0  0  0  0  0  0  0  0  0  0
   -2.9104    1.4948    0.8311 O   0  0  0  0  0  0  0  0  0  0  0  0
    2.9098    1.8491   -3.2812 N   0  0  0  0  0  0  0  0  0  0  0  0
    3.8794    1.6411   -3.7691 N   0  0  0  0  0  0  0  0  0  0  0  0
    4.3477    0.5214    0.4523 S   0  0  0  0  0  0  0  0  0  0  0  0
    4.2211    2.1223    0.2031 O   0  0  0  0  0  0  0  0  0  0  0  0
    4.8018    2.5682    0.8441 H   0  0  0  0  0  0  0  0  0  0  0  0
    3.9454   -0.1093   -0.7834 O   0  0  0  0  0  0  0  0  0  0  0  0
    5.5904    0.2484    1.1402 O   0  0  0  0  0  0  0  0  0  0  0  0
    3.1922    0.2850    1.6029 O   0  0  0  0  0  0  0  0  0  0  0  0
  1  2  2  0  0  0  0
  1  6  1  0  0  0  0
  2  3  1  0  0  0  0
  3 21  1  0  0  0  0
  3  4  2  0  0  0  0
  4  9  1  0  0  0  0
  5  4  1  0  0  0  0
  5 10  1  0  0  0  0
  6  5  2  0  0  0  0
  7  1  1  0  0  0  0
  8  2  1  0  0  0  0
 11  6  1  0  0  0  0
 11 13  2  0  0  0  0
 12 11  2  0  0  0  0
 15 14  3  0  0  0  0
 16 20  2  0  0  0  0
 16 21  1  0  0  0  0
 17 16  1  0  0  0  0
 17 18  1  0  0  0  0
 19 16  2  0  0  0  0
M  END
