Coordinates from ORCA-job 4-NO2-Ph-N2-HSO4-B3LYPG-6-31G_dp-MTMO-d009-169-n800
 OpenBabel09051908393D

 21 20  0  0  0  0  0  0  0  0999 V2000
   -1.1262   -1.0417    1.0030 C   0  0  0  0  0  0  0  0  0  0  0  0
    0.2382   -1.2765    0.8637 C   0  0  0  0  0  0  0  0  0  0  0  0
    1.1300   -0.2326    1.1112 C   0  0  0  0  0  0  0  0  0  0  0  0
    0.6972    1.0353    1.4978 C   0  0  0  0  0  0  0  0  0  0  0  0
   -0.6667    1.2699    1.6435 C   0  0  0  0  0  0  0  0  0  0  0  0
   -1.5554    0.2263    1.3918 C   0  0  0  0  0  0  0  0  0  0  0  0
   -1.8568   -1.8194    0.8210 H   0  0  0  0  0  0  0  0  0  0  0  0
    0.6123   -2.2472    0.5627 H   0  0  0  0  0  0  0  0  0  0  0  0
    1.4247    1.8161    1.6867 H   0  0  0  0  0  0  0  0  0  0  0  0
   -1.0497    2.2364    1.9448 H   0  0  0  0  0  0  0  0  0  0  0  0
   -2.9997    0.4719    1.5453 N   0  0  0  0  0  0  0  0  0  0  0  0
   -3.7626   -0.4655    1.3191 O   0  0  0  0  0  0  0  0  0  0  0  0
   -3.3506    1.5989    1.8905 O   0  0  0  0  0  0  0  0  0  0  0  0
   11.4104    7.4195   -4.1038 N   0  0  0  0  0  0  0  0  0  0  0  0
   10.6227    6.7853   -3.6579 N   0  0  0  0  0  0  0  0  0  0  0  0
    3.2513   -0.6010   -0.4063 S   0  0  0  0  0  0  0  0  0  0  0  0
    3.2442    0.9457   -0.9056 O   0  0  0  0  0  0  0  0  0  0  0  0
    4.0580    1.3649   -0.5757 H   0  0  0  0  0  0  0  0  0  0  0  0
    2.3964   -1.3243   -1.3181 O   0  0  0  0  0  0  0  0  0  0  0  0
    4.6083   -0.9831   -0.0818 O   0  0  0  0  0  0  0  0  0  0  0  0
    2.5114   -0.4634    1.0604 O   0  0  0  0  0  0  0  0  0  0  0  0
  1  6  1  0  0  0  0
  2  1  2  0  0  0  0
  2  3  1  0  0  0  0
  3  4  2  0  0  0  0
  4  5  1  0  0  0  0
  4  9  1  0  0  0  0
  5 10  1  0  0  0  0
  6 11  1  0  0  0  0
  6  5  2  0  0  0  0
  7  1  1  0  0  0  0
  8  2  1  0  0  0  0
 11 13  2  0  0  0  0
 12 11  2  0  0  0  0
 14 15  3  0  0  0  0
 16 20  2  0  0  0  0
 16 21  1  0  0  0  0
 17 18  1  0  0  0  0
 17 16  1  0  0  0  0
 19 16  2  0  0  0  0
 21  3  1  0  0  0  0
M  END
