Coordinates from ORCA-job 4-NO2-Ph-N2-HSO4-B3LYPG-6-31G_dp-MTMO-d009-169-n800
 OpenBabel09051908393D

 21 20  0  0  0  0  0  0  0  0999 V2000
   -0.5289   -0.8241    0.8331 C   0  0  0  0  0  0  0  0  0  0  0  0
    0.8432   -0.8879    0.6105 C   0  0  0  0  0  0  0  0  0  0  0  0
    1.6134    0.2567    0.8186 C   0  0  0  0  0  0  0  0  0  0  0  0
    1.0515    1.4596    1.2456 C   0  0  0  0  0  0  0  0  0  0  0  0
   -0.3196    1.5232    1.4749 C   0  0  0  0  0  0  0  0  0  0  0  0
   -1.0870    0.3791    1.2630 C   0  0  0  0  0  0  0  0  0  0  0  0
   -1.1679   -1.6852    0.6842 H   0  0  0  0  0  0  0  0  0  0  0  0
    1.3149   -1.8030    0.2745 H   0  0  0  0  0  0  0  0  0  0  0  0
    1.6883    2.3231    1.3987 H   0  0  0  0  0  0  0  0  0  0  0  0
   -0.7994    2.4337    1.8101 H   0  0  0  0  0  0  0  0  0  0  0  0
   -2.5382    0.4433    1.5049 N   0  0  0  0  0  0  0  0  0  0  0  0
   -3.1929   -0.5796    1.3121 O   0  0  0  0  0  0  0  0  0  0  0  0
   -3.0043    1.5161    1.8857 O   0  0  0  0  0  0  0  0  0  0  0  0
    7.2564    3.5447   -1.6091 N   0  0  0  0  0  0  0  0  0  0  0  0
    6.2571    3.1327   -1.3826 N   0  0  0  0  0  0  0  0  0  0  0  0
    3.6749    0.1596   -0.8231 S   0  0  0  0  0  0  0  0  0  0  0  0
    3.5006    1.7012   -1.2843 O   0  0  0  0  0  0  0  0  0  0  0  0
    4.3485    2.1617   -1.1317 H   0  0  0  0  0  0  0  0  0  0  0  0
    2.8413   -0.6382   -1.6935 O   0  0  0  0  0  0  0  0  0  0  0  0
    5.0788   -0.1014   -0.5844 O   0  0  0  0  0  0  0  0  0  0  0  0
    3.0069    0.2002    0.6848 O   0  0  0  0  0  0  0  0  0  0  0  0
  1  6  2  0  0  0  0
  2  3  2  0  0  0  0
  2  1  1  0  0  0  0
  3  4  1  0  0  0  0
  4  9  1  0  0  0  0
  4  5  2  0  0  0  0
  5 10  1  0  0  0  0
  6  5  1  0  0  0  0
  6 11  1  0  0  0  0
  7  1  1  0  0  0  0
  8  2  1  0  0  0  0
 11 13  2  0  0  0  0
 12 11  2  0  0  0  0
 14 15  3  0  0  0  0
 16 20  2  0  0  0  0
 16 21  1  0  0  0  0
 17 18  1  0  0  0  0
 17 16  1  0  0  0  0
 19 16  2  0  0  0  0
 21  3  1  0  0  0  0
M  END
