Coordinates from ORCA-job 4-NO2-Ph-N2-HSO4-B3LYPG-6-31G_dp-MTMO-d009-169-n800
 OpenBabel09051908393D

 21 21  0  0  1  0  0  0  0  0999 V2000
    0.5551   -0.4109    0.3738 C   0  0  0  0  0  0  0  0  0  0  0  0
    1.7053   -0.0349   -0.5086 C   0  0  1  0  0  0  0  0  0  0  0  0
    1.7682    1.4856   -0.8048 C   0  0  0  0  0  0  0  0  0  0  0  0
    0.6437    2.3454   -0.4201 C   0  0  0  0  0  0  0  0  0  0  0  0
   -0.4082    1.8614    0.2668 C   0  0  0  0  0  0  0  0  0  0  0  0
   -0.4113    0.4692    0.6722 C   0  0  0  0  0  0  0  0  0  0  0  0
    0.5004   -1.4363    0.7200 H   0  0  0  0  0  0  0  0  0  0  0  0
    1.6319   -0.5878   -1.4545 H   0  0  0  0  0  0  0  0  0  0  0  0
    0.7119    3.3939   -0.6900 H   0  0  0  0  0  0  0  0  0  0  0  0
   -1.2375    2.4891    0.5623 H   0  0  0  0  0  0  0  0  0  0  0  0
   -1.5562   -0.0027    1.4878 N   0  0  0  0  0  0  0  0  0  0  0  0
   -1.5680   -1.1789    1.8370 O   0  0  0  0  0  0  0  0  0  0  0  0
   -2.4241    0.8260    1.7538 O   0  0  0  0  0  0  0  0  0  0  0  0
    2.7294    1.8753   -1.2281 N   0  0  0  0  0  0  0  0  0  0  0  0
    3.7746    2.1934   -1.6259 N   0  0  0  0  0  0  0  0  0  0  0  0
    3.6580    0.0265    1.3731 S   0  0  0  0  0  0  0  0  0  0  0  0
    5.0503    0.5817    0.7787 O   0  0  0  0  0  0  0  0  0  0  0  0
    4.8847    1.3468    0.1902 H   0  0  0  0  0  0  0  0  0  0  0  0
    2.8428    1.1277    1.8604 O   0  0  0  0  0  0  0  0  0  0  0  0
    2.9883   -0.5377   -0.0319 O   0  0  0  0  0  0  0  0  0  0  0  0
    3.9985   -1.1173    2.1801 O   0  0  0  0  0  0  0  0  0  0  0  0
  1  6  2  0  0  0  0
  1  7  1  0  0  0  0
  2  8  1  6  0  0  0
  2 20  1  0  0  0  0
  2  1  1  0  0  0  0
  3  2  1  0  0  0  0
  3  4  2  0  0  0  0
  4  5  1  0  0  0  0
  5 10  1  0  0  0  0
  5  6  1  0  0  0  0
  6 11  1  0  0  0  0
  9  4  1  0  0  0  0
 11 13  2  0  0  0  0
 11 12  2  0  0  0  0
 14  3  1  0  0  0  0
 15 14  1  0  0  0  0
 16 19  2  0  0  0  0
 16 21  2  0  0  0  0
 17 16  1  0  0  0  0
 18 17  1  0  0  0  0
 20 16  1  0  0  0  0
M  RAD  3   5   2  14   2  15   3
M  END
