Coordinates from ORCA-job 4-NO2-Ph-N2-HSO4-B3LYPG-6-31G_dp-MTMO-d009-169-n800
 OpenBabel09051908393D

 21 20  0  0  0  0  0  0  0  0999 V2000
   -1.1536   -1.0589    1.0163 C   0  0  0  0  0  0  0  0  0  0  0  0
    0.2107   -1.2949    0.8771 C   0  0  0  0  0  0  0  0  0  0  0  0
    1.1032   -0.2513    1.1230 C   0  0  0  0  0  0  0  0  0  0  0  0
    0.6714    1.0175    1.5078 C   0  0  0  0  0  0  0  0  0  0  0  0
   -0.6923    1.2533    1.6534 C   0  0  0  0  0  0  0  0  0  0  0  0
   -1.5818    0.2100    1.4033 C   0  0  0  0  0  0  0  0  0  0  0  0
   -1.8848   -1.8364    0.8356 H   0  0  0  0  0  0  0  0  0  0  0  0
    0.5840   -2.2663    0.5775 H   0  0  0  0  0  0  0  0  0  0  0  0
    1.3995    1.7981    1.6954 H   0  0  0  0  0  0  0  0  0  0  0  0
   -1.0746    2.2205    1.9534 H   0  0  0  0  0  0  0  0  0  0  0  0
   -3.0259    0.4568    1.5568 N   0  0  0  0  0  0  0  0  0  0  0  0
   -3.7895   -0.4804    1.3322 O   0  0  0  0  0  0  0  0  0  0  0  0
   -3.3759    1.5846    1.9004 O   0  0  0  0  0  0  0  0  0  0  0  0
   11.6631    7.5944   -4.2134 N   0  0  0  0  0  0  0  0  0  0  0  0
   10.8751    6.9594   -3.7692 N   0  0  0  0  0  0  0  0  0  0  0  0
    3.2241   -0.6226   -0.3944 S   0  0  0  0  0  0  0  0  0  0  0  0
    3.2186    0.9239   -0.8947 O   0  0  0  0  0  0  0  0  0  0  0  0
    4.0330    1.3423   -0.5654 H   0  0  0  0  0  0  0  0  0  0  0  0
    2.3683   -1.3456   -1.3056 O   0  0  0  0  0  0  0  0  0  0  0  0
    4.5807   -1.0059   -0.0698 O   0  0  0  0  0  0  0  0  0  0  0  0
    2.4844   -0.4832    1.0723 O   0  0  0  0  0  0  0  0  0  0  0  0
  1  6  1  0  0  0  0
  2  1  2  0  0  0  0
  2  3  1  0  0  0  0
  3  4  2  0  0  0  0
  4  5  1  0  0  0  0
  4  9  1  0  0  0  0
  5 10  1  0  0  0  0
  6 11  1  0  0  0  0
  6  5  2  0  0  0  0
  7  1  1  0  0  0  0
  8  2  1  0  0  0  0
 11 13  2  0  0  0  0
 12 11  2  0  0  0  0
 14 15  3  0  0  0  0
 16 20  2  0  0  0  0
 16 21  1  0  0  0  0
 17 18  1  0  0  0  0
 17 16  1  0  0  0  0
 19 16  2  0  0  0  0
 21  3  1  0  0  0  0
M  END
