Coordinates from ORCA-job 4-NO2-Ph-N2-HSO4-B3LYPG-6-31G_dp-MTMO-d009-169-n800
 OpenBabel09051908393D

 21 20  0  0  0  0  0  0  0  0999 V2000
   -0.0489   -0.5522    0.2000 C   0  0  0  0  0  0  0  0  0  0  0  0
    1.2273   -0.1098   -0.1492 C   0  0  0  0  0  0  0  0  0  0  0  0
    1.4034    1.2588   -0.1936 C   0  0  0  0  0  0  0  0  0  0  0  0
    0.4464    2.2277    0.0785 C   0  0  0  0  0  0  0  0  0  0  0  0
   -0.8177    1.7636    0.4338 C   0  0  0  0  0  0  0  0  0  0  0  0
   -1.0375    0.3876    0.4832 C   0  0  0  0  0  0  0  0  0  0  0  0
   -0.2794   -1.6083    0.2618 H   0  0  0  0  0  0  0  0  0  0  0  0
    2.0555   -0.7705   -0.3674 H   0  0  0  0  0  0  0  0  0  0  0  0
    0.6713    3.2859    0.0259 H   0  0  0  0  0  0  0  0  0  0  0  0
   -1.6248    2.4456    0.6695 H   0  0  0  0  0  0  0  0  0  0  0  0
   -2.3883   -0.0935    0.8535 N   0  0  0  0  0  0  0  0  0  0  0  0
   -2.5625   -1.3073    0.8843 O   0  0  0  0  0  0  0  0  0  0  0  0
   -3.2380    0.7581    1.0996 O   0  0  0  0  0  0  0  0  0  0  0  0
    2.8073    1.8336   -0.6382 N   0  0  0  0  0  0  0  0  0  0  0  0
    3.3286    2.7674   -0.9786 N   0  0  0  0  0  0  0  0  0  0  0  0
    4.6380    0.1521    0.8827 S   0  0  0  0  0  0  0  0  0  0  0  0
    5.6306    1.4744    0.8362 O   0  0  0  0  0  0  0  0  0  0  0  0
    6.4779    1.1708    0.4729 H   0  0  0  0  0  0  0  0  0  0  0  0
    4.0335    0.1193   -0.5327 O   0  0  0  0  0  0  0  0  0  0  0  0
    5.4950   -1.0101    1.1031 O   0  0  0  0  0  0  0  0  0  0  0  0
    3.6200    0.5222    1.8672 O   0  0  0  0  0  0  0  0  0  0  0  0
  1  7  1  0  0  0  0
  1  6  2  0  0  0  0
  2  1  1  0  0  0  0
  3  2  2  0  0  0  0
  3  4  1  0  0  0  0
  4  5  2  0  0  0  0
  5  6  1  0  0  0  0
  5 10  1  0  0  0  0
  6 11  1  0  0  0  0
  8  2  1  0  0  0  0
  9  4  1  0  0  0  0
 11 12  2  0  0  0  0
 11 13  2  0  0  0  0
 14  3  1  0  0  0  0
 15 14  2  0  0  0  0
 16 20  2  0  0  0  0
 16 21  1  0  0  0  0
 17 16  1  0  0  0  0
 18 17  1  0  0  0  0
 19 16  2  0  0  0  0
M  RAD  2  15   2  21   2
M  END
