Coordinates from ORCA-job 4-NO2-Ph-N2-HSO4-B3LYPG-6-31G_dp-MTMO-d009-169-n800
 OpenBabel09051908393D

 21 20  0  0  0  0  0  0  0  0999 V2000
   -0.7390   -0.8585    0.8136 C   0  0  0  0  0  0  0  0  0  0  0  0
    0.6349   -1.0136    0.6569 C   0  0  0  0  0  0  0  0  0  0  0  0
    1.4716    0.0640    0.9485 C   0  0  0  0  0  0  0  0  0  0  0  0
    0.9748    1.2877    1.3961 C   0  0  0  0  0  0  0  0  0  0  0  0
   -0.3985    1.4421    1.5594 C   0  0  0  0  0  0  0  0  0  0  0  0
   -1.2323    0.3654    1.2634 C   0  0  0  0  0  0  0  0  0  0  0  0
   -1.4286   -1.6648    0.5988 H   0  0  0  0  0  0  0  0  0  0  0  0
    1.0578   -1.9478    0.3087 H   0  0  0  0  0  0  0  0  0  0  0  0
    1.6615    2.0964    1.6175 H   0  0  0  0  0  0  0  0  0  0  0  0
   -0.8298    2.3720    1.9071 H   0  0  0  0  0  0  0  0  0  0  0  0
   -2.6865    0.5257    1.4352 N   0  0  0  0  0  0  0  0  0  0  0  0
   -3.4000   -0.4397    1.1698 O   0  0  0  0  0  0  0  0  0  0  0  0
   -3.0946    1.6152    1.8342 O   0  0  0  0  0  0  0  0  0  0  0  0
    8.3176    4.8299   -2.7143 N   0  0  0  0  0  0  0  0  0  0  0  0
    7.4915    4.2822   -2.2251 N   0  0  0  0  0  0  0  0  0  0  0  0
    3.5999   -0.1327   -0.5934 S   0  0  0  0  0  0  0  0  0  0  0  0
    3.5090    1.4278   -1.0369 O   0  0  0  0  0  0  0  0  0  0  0  0
    4.3103    1.8747   -0.7125 H   0  0  0  0  0  0  0  0  0  0  0  0
    2.7778   -0.8678   -1.5260 O   0  0  0  0  0  0  0  0  0  0  0  0
    4.9771   -0.4548   -0.2894 O   0  0  0  0  0  0  0  0  0  0  0  0
    2.8631   -0.0880    0.8806 O   0  0  0  0  0  0  0  0  0  0  0  0
  1  6  1  0  0  0  0
  2  1  2  0  0  0  0
  2  3  1  0  0  0  0
  3  4  2  0  0  0  0
  4  5  1  0  0  0  0
  4  9  1  0  0  0  0
  5 10  1  0  0  0  0
  6 11  1  0  0  0  0
  6  5  2  0  0  0  0
  7  1  1  0  0  0  0
  8  2  1  0  0  0  0
 11 13  2  0  0  0  0
 12 11  2  0  0  0  0
 14 15  3  0  0  0  0
 16 20  2  0  0  0  0
 16 21  1  0  0  0  0
 17 18  1  0  0  0  0
 17 16  1  0  0  0  0
 19 16  2  0  0  0  0
 21  3  1  0  0  0  0
M  END
