Coordinates from ORCA-job 4-NO2-Ph-N2-HSO4-B3LYPG-6-31G_dp-MTMO-d009-169-n800
 OpenBabel09051908393D

 21 20  0  0  0  0  0  0  0  0999 V2000
   -0.6925   -0.8546    0.8159 C   0  0  0  0  0  0  0  0  0  0  0  0
    0.6826   -0.9858    0.6478 C   0  0  0  0  0  0  0  0  0  0  0  0
    1.5020    0.1090    0.9236 C   0  0  0  0  0  0  0  0  0  0  0  0
    0.9873    1.3273    1.3653 C   0  0  0  0  0  0  0  0  0  0  0  0
   -0.3872    1.4581    1.5397 C   0  0  0  0  0  0  0  0  0  0  0  0
   -1.2039    0.3639    1.2602 C   0  0  0  0  0  0  0  0  0  0  0  0
   -1.3692   -1.6749    0.6137 H   0  0  0  0  0  0  0  0  0  0  0  0
    1.1194   -1.9149    0.3031 H   0  0  0  0  0  0  0  0  0  0  0  0
    1.6611    2.1503    1.5731 H   0  0  0  0  0  0  0  0  0  0  0  0
   -0.8323    2.3830    1.8834 H   0  0  0  0  0  0  0  0  0  0  0  0
   -2.6591    0.4992    1.4441 N   0  0  0  0  0  0  0  0  0  0  0  0
   -3.3574   -0.4812    1.1931 O   0  0  0  0  0  0  0  0  0  0  0  0
   -3.0836    1.5843    1.8380 O   0  0  0  0  0  0  0  0  0  0  0  0
    8.0498    4.5041   -2.5312 N   0  0  0  0  0  0  0  0  0  0  0  0
    7.2054    3.9714   -2.0569 N   0  0  0  0  0  0  0  0  0  0  0  0
    3.6218   -0.0432   -0.6357 S   0  0  0  0  0  0  0  0  0  0  0  0
    3.5440    1.5262   -1.0492 O   0  0  0  0  0  0  0  0  0  0  0  0
    4.3695    1.9506   -0.7562 H   0  0  0  0  0  0  0  0  0  0  0  0
    2.7858   -0.7551   -1.5740 O   0  0  0  0  0  0  0  0  0  0  0  0
    4.9989   -0.3822   -0.3493 O   0  0  0  0  0  0  0  0  0  0  0  0
    2.8953   -0.0203    0.8438 O   0  0  0  0  0  0  0  0  0  0  0  0
  1  6  1  0  0  0  0
  2  1  2  0  0  0  0
  2  3  1  0  0  0  0
  3  4  2  0  0  0  0
  4  5  1  0  0  0  0
  4  9  1  0  0  0  0
  5 10  1  0  0  0  0
  6 11  1  0  0  0  0
  6  5  2  0  0  0  0
  7  1  1  0  0  0  0
  8  2  1  0  0  0  0
 11 13  2  0  0  0  0
 12 11  2  0  0  0  0
 14 15  3  0  0  0  0
 16 20  2  0  0  0  0
 16 21  1  0  0  0  0
 17 18  1  0  0  0  0
 17 16  1  0  0  0  0
 19 16  2  0  0  0  0
 21  3  1  0  0  0  0
M  END
