Coordinates from ORCA-job 4-NO2-Ph-N2-HSO4-B3LYPG-6-31G_dp-MTMO-d009-169-n800
 OpenBabel09051908393D

 21 20  0  0  0  0  0  0  0  0999 V2000
   -0.9831   -0.9579    0.9284 C   0  0  0  0  0  0  0  0  0  0  0  0
    0.3834   -1.1796    0.7879 C   0  0  0  0  0  0  0  0  0  0  0  0
    1.2662   -0.1319    1.0510 C   0  0  0  0  0  0  0  0  0  0  0  0
    0.8225    1.1269    1.4546 C   0  0  0  0  0  0  0  0  0  0  0  0
   -0.5435    1.3482    1.6018 C   0  0  0  0  0  0  0  0  0  0  0  0
   -1.4233    0.3011    1.3342 C   0  0  0  0  0  0  0  0  0  0  0  0
   -1.7070   -1.7390    0.7346 H   0  0  0  0  0  0  0  0  0  0  0  0
    0.7658   -2.1430    0.4741 H   0  0  0  0  0  0  0  0  0  0  0  0
    1.5433    1.9109    1.6555 H   0  0  0  0  0  0  0  0  0  0  0  0
   -0.9348    2.3073    1.9159 H   0  0  0  0  0  0  0  0  0  0  0  0
   -2.8697    0.5325    1.4890 N   0  0  0  0  0  0  0  0  0  0  0  0
   -3.6246   -0.4077    1.2483 O   0  0  0  0  0  0  0  0  0  0  0  0
   -3.2304    1.6516    1.8498 O   0  0  0  0  0  0  0  0  0  0  0  0
   10.1375    6.4943   -3.5584 N   0  0  0  0  0  0  0  0  0  0  0  0
    9.3521    5.8690   -3.0960 N   0  0  0  0  0  0  0  0  0  0  0  0
    3.3923   -0.4696   -0.4678 S   0  0  0  0  0  0  0  0  0  0  0  0
    3.3670    1.0797   -0.9579 O   0  0  0  0  0  0  0  0  0  0  0  0
    4.1742    1.5077   -0.6233 H   0  0  0  0  0  0  0  0  0  0  0  0
    2.5468   -1.1975   -1.3847 O   0  0  0  0  0  0  0  0  0  0  0  0
    4.7533   -0.8379   -0.1441 O   0  0  0  0  0  0  0  0  0  0  0  0
    2.6497   -0.3496    0.9991 O   0  0  0  0  0  0  0  0  0  0  0  0
  1  6  1  0  0  0  0
  2  1  2  0  0  0  0
  2  3  1  0  0  0  0
  3  4  2  0  0  0  0
  4  5  1  0  0  0  0
  4  9  1  0  0  0  0
  5 10  1  0  0  0  0
  6 11  1  0  0  0  0
  6  5  2  0  0  0  0
  7  1  1  0  0  0  0
  8  2  1  0  0  0  0
 11 13  2  0  0  0  0
 12 11  2  0  0  0  0
 14 15  3  0  0  0  0
 16 20  2  0  0  0  0
 16 21  1  0  0  0  0
 17 18  1  0  0  0  0
 17 16  1  0  0  0  0
 19 16  2  0  0  0  0
 21  3  1  0  0  0  0
M  END
