Coordinates from ORCA-job 4-NO2-Ph-N2-HSO4-B3LYPG-6-31G_dp-MTMO-d009-169-n800
 OpenBabel09051908393D

 21 20  0  0  0  0  0  0  0  0999 V2000
   -1.0115   -0.9737    0.9443 C   0  0  0  0  0  0  0  0  0  0  0  0
    0.3545   -1.1991    0.8041 C   0  0  0  0  0  0  0  0  0  0  0  0
    1.2397   -0.1524    1.0628 C   0  0  0  0  0  0  0  0  0  0  0  0
    0.7990    1.1090    1.4617 C   0  0  0  0  0  0  0  0  0  0  0  0
   -0.5664    1.3340    1.6085 C   0  0  0  0  0  0  0  0  0  0  0  0
   -1.4486    0.2878    1.3453 C   0  0  0  0  0  0  0  0  0  0  0  0
   -1.7373   -1.7539    0.7538 H   0  0  0  0  0  0  0  0  0  0  0  0
    0.7345   -2.1645    0.4938 H   0  0  0  0  0  0  0  0  0  0  0  0
    1.5217    1.8921    1.6592 H   0  0  0  0  0  0  0  0  0  0  0  0
   -0.9554    2.2951    1.9191 H   0  0  0  0  0  0  0  0  0  0  0  0
   -2.8945    0.5231    1.4998 N   0  0  0  0  0  0  0  0  0  0  0  0
   -3.6516   -0.4163    1.2630 O   0  0  0  0  0  0  0  0  0  0  0  0
   -3.2525    1.6445    1.8562 O   0  0  0  0  0  0  0  0  0  0  0  0
   10.3839    6.6809   -3.6616 N   0  0  0  0  0  0  0  0  0  0  0  0
    9.5978    6.0520   -3.2052 N   0  0  0  0  0  0  0  0  0  0  0  0
    3.3644   -0.4988   -0.4559 S   0  0  0  0  0  0  0  0  0  0  0  0
    3.3438    1.0498   -0.9489 O   0  0  0  0  0  0  0  0  0  0  0  0
    4.1528    1.4756   -0.6157 H   0  0  0  0  0  0  0  0  0  0  0  0
    2.5163   -1.2257   -1.3711 O   0  0  0  0  0  0  0  0  0  0  0  0
    4.7243   -0.8706   -0.1321 O   0  0  0  0  0  0  0  0  0  0  0  0
    2.6226   -0.3737    1.0111 O   0  0  0  0  0  0  0  0  0  0  0  0
  1  6  1  0  0  0  0
  2  1  2  0  0  0  0
  2  3  1  0  0  0  0
  3  4  2  0  0  0  0
  4  5  1  0  0  0  0
  4  9  1  0  0  0  0
  5 10  1  0  0  0  0
  6 11  1  0  0  0  0
  6  5  2  0  0  0  0
  7  1  1  0  0  0  0
  8  2  1  0  0  0  0
 11 13  2  0  0  0  0
 12 11  2  0  0  0  0
 14 15  3  0  0  0  0
 16 20  2  0  0  0  0
 16 21  1  0  0  0  0
 17 18  1  0  0  0  0
 17 16  1  0  0  0  0
 19 16  2  0  0  0  0
 21  3  1  0  0  0  0
M  END
