Coordinates from ORCA-job 4-NO2-Ph-N2-HSO4-B3LYPG-6-31G_dp-MTMO-d009-169-n800
 OpenBabel09051908393D

 21 20  0  0  0  0  0  0  0  0999 V2000
    0.0627   -0.6181    0.1028 C   0  0  0  0  0  0  0  0  0  0  0  0
    1.4044   -0.6279    0.4714 C   0  0  0  0  0  0  0  0  0  0  0  0
    1.9354    0.4969    1.1047 C   0  0  0  0  0  0  0  0  0  0  0  0
    1.1555    1.6134    1.4064 C   0  0  0  0  0  0  0  0  0  0  0  0
   -0.1885    1.6188    1.0479 C   0  0  0  0  0  0  0  0  0  0  0  0
   -0.7118    0.5035    0.3960 C   0  0  0  0  0  0  0  0  0  0  0  0
   -0.3929   -1.4644   -0.3956 H   0  0  0  0  0  0  0  0  0  0  0  0
    2.0333   -1.4842    0.2645 H   0  0  0  0  0  0  0  0  0  0  0  0
    1.6049    2.4568    1.9179 H   0  0  0  0  0  0  0  0  0  0  0  0
   -0.8317    2.4629    1.2614 H   0  0  0  0  0  0  0  0  0  0  0  0
   -2.1334    0.5076    0.0127 N   0  0  0  0  0  0  0  0  0  0  0  0
   -2.5717   -0.4901   -0.5568 O   0  0  0  0  0  0  0  0  0  0  0  0
   -2.7923    1.5097    0.2859 O   0  0  0  0  0  0  0  0  0  0  0  0
    2.1117    1.7453   -1.6425 N   0  0  0  0  0  0  0  0  0  0  0  0
    1.4384    1.7679   -2.5189 N   0  0  0  0  0  0  0  0  0  0  0  0
    4.5584    0.3606    0.6250 S   0  0  0  0  0  0  0  0  0  0  0  0
    4.7420    1.8962    0.1341 O   0  0  0  0  0  0  0  0  0  0  0  0
    5.3073    2.3471    0.7854 H   0  0  0  0  0  0  0  0  0  0  0  0
    4.2277   -0.4106   -0.5508 O   0  0  0  0  0  0  0  0  0  0  0  0
    5.6364    0.0336    1.5331 O   0  0  0  0  0  0  0  0  0  0  0  0
    3.2417    0.4906    1.6074 O   0  0  0  0  0  0  0  0  0  0  0  0
  1  6  2  0  0  0  0
  1  2  1  0  0  0  0
  2  3  2  0  0  0  0
  3  4  1  0  0  0  0
  3 21  1  0  0  0  0
  4  9  1  0  0  0  0
  5 10  1  0  0  0  0
  5  4  2  0  0  0  0
  6  5  1  0  0  0  0
  7  1  1  0  0  0  0
  8  2  1  0  0  0  0
 11 13  2  0  0  0  0
 11  6  1  0  0  0  0
 12 11  2  0  0  0  0
 15 14  3  0  0  0  0
 16 20  2  0  0  0  0
 16 21  1  0  0  0  0
 17 16  1  0  0  0  0
 17 18  1  0  0  0  0
 19 16  2  0  0  0  0
M  END
