Coordinates from ORCA-job 4-NO2-Ph-N2-HSO4-B3LYPG-6-31G_dp-MTMO-d009-169-n800
 OpenBabel09051908393D

 21 20  0  0  0  0  0  0  0  0999 V2000
   -0.9271   -0.9281    0.8943 C   0  0  0  0  0  0  0  0  0  0  0  0
    0.4408   -1.1407    0.7535 C   0  0  0  0  0  0  0  0  0  0  0  0
    1.3173   -0.0908    1.0287 C   0  0  0  0  0  0  0  0  0  0  0  0
    0.8659    1.1612    1.4448 C   0  0  0  0  0  0  0  0  0  0  0  0
   -0.5014    1.3734    1.5924 C   0  0  0  0  0  0  0  0  0  0  0  0
   -1.3749    0.3241    1.3126 C   0  0  0  0  0  0  0  0  0  0  0  0
   -1.6463   -1.7111    0.6913 H   0  0  0  0  0  0  0  0  0  0  0  0
    0.8290   -2.0986    0.4302 H   0  0  0  0  0  0  0  0  0  0  0  0
    1.5821    1.9470    1.6550 H   0  0  0  0  0  0  0  0  0  0  0  0
   -0.8985    2.3269    1.9159 H   0  0  0  0  0  0  0  0  0  0  0  0
   -2.8229    0.5458    1.4678 N   0  0  0  0  0  0  0  0  0  0  0  0
   -3.5721   -0.3961    1.2162 O   0  0  0  0  0  0  0  0  0  0  0  0
   -3.1904    1.6590    1.8398 O   0  0  0  0  0  0  0  0  0  0  0  0
    9.6639    6.1191   -3.3649 N   0  0  0  0  0  0  0  0  0  0  0  0
    8.8796    5.5027   -2.8889 N   0  0  0  0  0  0  0  0  0  0  0  0
    3.4473   -0.4053   -0.4900 S   0  0  0  0  0  0  0  0  0  0  0  0
    3.4103    1.1464   -0.9715 O   0  0  0  0  0  0  0  0  0  0  0  0
    4.2132    1.5795   -0.6329 H   0  0  0  0  0  0  0  0  0  0  0  0
    2.6087   -1.1346   -1.4122 O   0  0  0  0  0  0  0  0  0  0  0  0
    4.8107   -0.7648   -0.1667 O   0  0  0  0  0  0  0  0  0  0  0  0
    2.7021   -0.2996    0.9767 O   0  0  0  0  0  0  0  0  0  0  0  0
  1  6  1  0  0  0  0
  2  1  2  0  0  0  0
  2  3  1  0  0  0  0
  3  4  2  0  0  0  0
  4  5  1  0  0  0  0
  4  9  1  0  0  0  0
  5 10  1  0  0  0  0
  6 11  1  0  0  0  0
  6  5  2  0  0  0  0
  7  1  1  0  0  0  0
  8  2  1  0  0  0  0
 11 13  2  0  0  0  0
 12 11  2  0  0  0  0
 14 15  3  0  0  0  0
 16 20  2  0  0  0  0
 16 21  1  0  0  0  0
 17 18  1  0  0  0  0
 17 16  1  0  0  0  0
 19 16  2  0  0  0  0
 21  3  1  0  0  0  0
M  END
