Coordinates from ORCA-job 4-NO2-Ph-N2-HSO4-B3LYPG-6-31G_dp-MTMO-d009-169-n800
 OpenBabel09051908393D

 21 20  0  0  0  0  0  0  0  0999 V2000
   -0.8976   -0.9138    0.8761 C   0  0  0  0  0  0  0  0  0  0  0  0
    0.4713   -1.1201    0.7348 C   0  0  0  0  0  0  0  0  0  0  0  0
    1.3434   -0.0684    1.0171 C   0  0  0  0  0  0  0  0  0  0  0  0
    0.8867    1.1792    1.4409 C   0  0  0  0  0  0  0  0  0  0  0  0
   -0.4816    1.3849    1.5890 C   0  0  0  0  0  0  0  0  0  0  0  0
   -1.3507    0.3339    1.3020 C   0  0  0  0  0  0  0  0  0  0  0  0
   -1.6136   -1.6984    0.6677 H   0  0  0  0  0  0  0  0  0  0  0  0
    0.8635   -2.0743    0.4057 H   0  0  0  0  0  0  0  0  0  0  0  0
    1.5996    1.9664    1.6565 H   0  0  0  0  0  0  0  0  0  0  0  0
   -0.8827    2.3348    1.9183 H   0  0  0  0  0  0  0  0  0  0  0  0
   -2.7996    0.5488    1.4577 N   0  0  0  0  0  0  0  0  0  0  0  0
   -3.5449   -0.3945    1.1998 O   0  0  0  0  0  0  0  0  0  0  0  0
   -3.1718    1.6581    1.8365 O   0  0  0  0  0  0  0  0  0  0  0  0
    9.4263    5.9170   -3.2680 N   0  0  0  0  0  0  0  0  0  0  0  0
    8.6412    5.3080   -2.7839 N   0  0  0  0  0  0  0  0  0  0  0  0
    3.4755   -0.3669   -0.5020 S   0  0  0  0  0  0  0  0  0  0  0  0
    3.4306    1.1865   -0.9773 O   0  0  0  0  0  0  0  0  0  0  0  0
    4.2309    1.6226   -0.6365 H   0  0  0  0  0  0  0  0  0  0  0  0
    2.6412   -1.0969   -1.4275 O   0  0  0  0  0  0  0  0  0  0  0  0
    4.8406   -0.7207   -0.1794 O   0  0  0  0  0  0  0  0  0  0  0  0
    2.7291   -0.2710    0.9647 O   0  0  0  0  0  0  0  0  0  0  0  0
  1  6  1  0  0  0  0
  2  1  2  0  0  0  0
  2  3  1  0  0  0  0
  3  4  2  0  0  0  0
  4  5  1  0  0  0  0
  4  9  1  0  0  0  0
  5 10  1  0  0  0  0
  6 11  1  0  0  0  0
  6  5  2  0  0  0  0
  7  1  1  0  0  0  0
  8  2  1  0  0  0  0
 11 13  2  0  0  0  0
 12 11  2  0  0  0  0
 14 15  3  0  0  0  0
 16 20  2  0  0  0  0
 16 21  1  0  0  0  0
 17 18  1  0  0  0  0
 17 16  1  0  0  0  0
 19 16  2  0  0  0  0
 21  3  1  0  0  0  0
M  END
