Coordinates from ORCA-job 4-NO2-Ph-N2-HSO4-B3LYPG-6-31G_dp-MTMO-d009-169-n800
 OpenBabel09051908393D

 21 21  0  0  1  0  0  0  0  0999 V2000
    0.6045   -0.3636    0.4715 C   0  0  0  0  0  0  0  0  0  0  0  0
    1.7139   -0.0224   -0.4712 C   0  0  1  0  0  0  0  0  0  0  0  0
    1.8598    1.5730   -0.7416 C   0  0  0  0  0  0  0  0  0  0  0  0
    0.6003    2.3548   -0.5058 C   0  0  0  0  0  0  0  0  0  0  0  0
   -0.4592    1.8360    0.1310 C   0  0  0  0  0  0  0  0  0  0  0  0
   -0.4130    0.4838    0.6652 C   0  0  0  0  0  0  0  0  0  0  0  0
    0.6076   -1.3471    0.9286 H   0  0  0  0  0  0  0  0  0  0  0  0
    1.5184   -0.4783   -1.4513 H   0  0  0  0  0  0  0  0  0  0  0  0
    0.6211    3.3819   -0.8545 H   0  0  0  0  0  0  0  0  0  0  0  0
   -1.3509    2.4235    0.3090 H   0  0  0  0  0  0  0  0  0  0  0  0
   -1.5448    0.0435    1.5096 N   0  0  0  0  0  0  0  0  0  0  0  0
   -1.5100   -1.0938    1.9683 O   0  0  0  0  0  0  0  0  0  0  0  0
   -2.4515    0.8552    1.6854 O   0  0  0  0  0  0  0  0  0  0  0  0
    2.6951    1.8723   -0.9851 N   0  0  0  0  0  0  0  0  0  0  0  0
    3.8207    2.1507   -1.2713 N   0  0  0  0  0  0  0  0  0  0  0  0
    3.7286   -0.0675    1.3044 S   0  0  0  0  0  0  0  0  0  0  0  0
    5.0359    0.6196    0.7095 O   0  0  0  0  0  0  0  0  0  0  0  0
    4.7778    1.3931    0.1276 H   0  0  0  0  0  0  0  0  0  0  0  0
    2.8499    0.9205    1.9136 O   0  0  0  0  0  0  0  0  0  0  0  0
    2.9899   -0.5494   -0.1306 O   0  0  0  0  0  0  0  0  0  0  0  0
    4.1435   -1.2705    1.9798 O   0  0  0  0  0  0  0  0  0  0  0  0
  1  6  2  0  0  0  0
  1  7  1  0  0  0  0
  2  8  1  6  0  0  0
  2 20  1  0  0  0  0
  2  1  1  0  0  0  0
  3  4  2  0  0  0  0
  3  2  1  0  0  0  0
  4  5  1  0  0  0  0
  5 10  1  0  0  0  0
  5  6  1  0  0  0  0
  6 11  1  0  0  0  0
  9  4  1  0  0  0  0
 11 13  2  0  0  0  0
 11 12  2  0  0  0  0
 14  3  1  0  0  0  0
 15 14  1  0  0  0  0
 16 19  2  0  0  0  0
 16 21  2  0  0  0  0
 17 16  1  0  0  0  0
 18 17  1  0  0  0  0
 20 16  1  0  0  0  0
M  RAD  3   5   2  14   2  15   3
M  END
