Coordinates from ORCA-job 4-NO2-Ph-N2-HSO4-B3LYPG-6-31G_dp-MTMO-d009-169-n800
 OpenBabel09051908393D

 21 20  0  0  0  0  0  0  0  0999 V2000
   -1.0909   -1.0199    0.9852 C   0  0  0  0  0  0  0  0  0  0  0  0
    0.2738   -1.2526    0.8458 C   0  0  0  0  0  0  0  0  0  0  0  0
    1.1642   -0.2082    1.0963 C   0  0  0  0  0  0  0  0  0  0  0  0
    0.7297    1.0581    1.4860 C   0  0  0  0  0  0  0  0  0  0  0  0
   -0.6345    1.2906    1.6319 C   0  0  0  0  0  0  0  0  0  0  0  0
   -1.5219    0.2466    1.3771 C   0  0  0  0  0  0  0  0  0  0  0  0
   -1.8205   -1.7980    0.8009 H   0  0  0  0  0  0  0  0  0  0  0  0
    0.6492   -2.2221    0.5424 H   0  0  0  0  0  0  0  0  0  0  0  0
    1.4562    1.8393    1.6772 H   0  0  0  0  0  0  0  0  0  0  0  0
   -1.0189    2.2559    1.9356 H   0  0  0  0  0  0  0  0  0  0  0  0
   -2.9665    0.4900    1.5307 N   0  0  0  0  0  0  0  0  0  0  0  0
   -3.7282   -0.4477    1.3015 O   0  0  0  0  0  0  0  0  0  0  0  0
   -3.3190    1.6156    1.8789 O   0  0  0  0  0  0  0  0  0  0  0  0
   11.0887    7.1942   -3.9648 N   0  0  0  0  0  0  0  0  0  0  0  0
   10.3016    6.5609   -3.5164 N   0  0  0  0  0  0  0  0  0  0  0  0
    3.2864   -0.5722   -0.4214 S   0  0  0  0  0  0  0  0  0  0  0  0
    3.2763    0.9748   -0.9198 O   0  0  0  0  0  0  0  0  0  0  0  0
    4.0891    1.3955   -0.5895 H   0  0  0  0  0  0  0  0  0  0  0  0
    2.4330   -1.2966   -1.3337 O   0  0  0  0  0  0  0  0  0  0  0  0
    4.6440   -0.9518   -0.0968 O   0  0  0  0  0  0  0  0  0  0  0  0
    2.5459   -0.4370    1.0453 O   0  0  0  0  0  0  0  0  0  0  0  0
  1  6  1  0  0  0  0
  2  1  2  0  0  0  0
  2  3  1  0  0  0  0
  3  4  2  0  0  0  0
  4  5  1  0  0  0  0
  4  9  1  0  0  0  0
  5 10  1  0  0  0  0
  6 11  1  0  0  0  0
  6  5  2  0  0  0  0
  7  1  1  0  0  0  0
  8  2  1  0  0  0  0
 11 13  2  0  0  0  0
 12 11  2  0  0  0  0
 14 15  3  0  0  0  0
 16 20  2  0  0  0  0
 16 21  1  0  0  0  0
 17 18  1  0  0  0  0
 17 16  1  0  0  0  0
 19 16  2  0  0  0  0
 21  3  1  0  0  0  0
M  END
