Coordinates from ORCA-job 4-NO2-Ph-N2-HSO4-B3LYPG-6-31G_dp-MTMO-d009-169-n800
 OpenBabel09051908393D

 21 20  0  0  0  0  0  0  0  0999 V2000
   -1.2501   -1.1211    1.0604 C   0  0  0  0  0  0  0  0  0  0  0  0
    0.1138   -1.3593    0.9218 C   0  0  0  0  0  0  0  0  0  0  0  0
    1.0078   -0.3164    1.1654 C   0  0  0  0  0  0  0  0  0  0  0  0
    0.5778    0.9539    1.5472 C   0  0  0  0  0  0  0  0  0  0  0  0
   -0.7856    1.1919    1.6922 C   0  0  0  0  0  0  0  0  0  0  0  0
   -1.6766    0.1493    1.4445 C   0  0  0  0  0  0  0  0  0  0  0  0
   -1.9824   -1.8979    0.8814 H   0  0  0  0  0  0  0  0  0  0  0  0
    0.4857   -2.3319    0.6244 H   0  0  0  0  0  0  0  0  0  0  0  0
    1.3070    1.7339    1.7331 H   0  0  0  0  0  0  0  0  0  0  0  0
   -1.1666    2.1603    1.9900 H   0  0  0  0  0  0  0  0  0  0  0  0
   -3.1203    0.3985    1.5972 N   0  0  0  0  0  0  0  0  0  0  0  0
   -3.8852   -0.5381    1.3748 O   0  0  0  0  0  0  0  0  0  0  0  0
   -3.4688    1.5277    1.9382 O   0  0  0  0  0  0  0  0  0  0  0  0
   12.5653    8.2075   -4.6088 N   0  0  0  0  0  0  0  0  0  0  0  0
   11.7764    7.5707   -4.1686 N   0  0  0  0  0  0  0  0  0  0  0  0
    3.1283   -0.6928   -0.3512 S   0  0  0  0  0  0  0  0  0  0  0  0
    3.1260    0.8532   -0.8529 O   0  0  0  0  0  0  0  0  0  0  0  0
    3.9415    1.2700   -0.5241 H   0  0  0  0  0  0  0  0  0  0  0  0
    2.2711   -1.4149   -1.2618 O   0  0  0  0  0  0  0  0  0  0  0  0
    4.4841   -1.0785   -0.0260 O   0  0  0  0  0  0  0  0  0  0  0  0
    2.3886   -0.5506    1.1152 O   0  0  0  0  0  0  0  0  0  0  0  0
  1  6  1  0  0  0  0
  2  1  2  0  0  0  0
  2  3  1  0  0  0  0
  3  4  2  0  0  0  0
  4  5  1  0  0  0  0
  4  9  1  0  0  0  0
  5 10  1  0  0  0  0
  6 11  1  0  0  0  0
  6  5  2  0  0  0  0
  7  1  1  0  0  0  0
  8  2  1  0  0  0  0
 11 13  2  0  0  0  0
 12 11  2  0  0  0  0
 14 15  3  0  0  0  0
 16 20  2  0  0  0  0
 16 21  1  0  0  0  0
 17 18  1  0  0  0  0
 17 16  1  0  0  0  0
 19 16  2  0  0  0  0
 21  3  1  0  0  0  0
M  END
