Coordinates from ORCA-job 4-NO2-Ph-N2-HSO4-B3LYPG-6-31G_dp-MTMO-d009-169-n800
 OpenBabel09051908393D

 21 20  0  0  0  0  0  0  0  0999 V2000
   -0.7951   -0.8727    0.8251 C   0  0  0  0  0  0  0  0  0  0  0  0
    0.5772   -1.0498    0.6775 C   0  0  0  0  0  0  0  0  0  0  0  0
    1.4292    0.0140    0.9752 C   0  0  0  0  0  0  0  0  0  0  0  0
    0.9491    1.2453    1.4204 C   0  0  0  0  0  0  0  0  0  0  0  0
   -0.4225    1.4217    1.5747 C   0  0  0  0  0  0  0  0  0  0  0  0
   -1.2716    0.3588    1.2723 C   0  0  0  0  0  0  0  0  0  0  0  0
   -1.4961   -1.6677    0.6053 H   0  0  0  0  0  0  0  0  0  0  0  0
    0.9872   -1.9906    0.3317 H   0  0  0  0  0  0  0  0  0  0  0  0
    1.6471    2.0427    1.6471 H   0  0  0  0  0  0  0  0  0  0  0  0
   -0.8412    2.3582    1.9202 H   0  0  0  0  0  0  0  0  0  0  0  0
   -2.7241    0.5425    1.4346 N   0  0  0  0  0  0  0  0  0  0  0  0
   -3.4513   -0.4111    1.1636 O   0  0  0  0  0  0  0  0  0  0  0  0
   -3.1172    1.6382    1.8316 O   0  0  0  0  0  0  0  0  0  0  0  0
    8.6721    5.2113   -2.9262 N   0  0  0  0  0  0  0  0  0  0  0  0
    7.8695    4.6409   -2.4243 N   0  0  0  0  0  0  0  0  0  0  0  0
    3.5632   -0.2209   -0.5529 S   0  0  0  0  0  0  0  0  0  0  0  0
    3.4857    1.3372   -1.0078 O   0  0  0  0  0  0  0  0  0  0  0  0
    4.2803    1.7845   -0.6682 H   0  0  0  0  0  0  0  0  0  0  0  0
    2.7417   -0.9558   -1.4860 O   0  0  0  0  0  0  0  0  0  0  0  0
    4.9360   -0.5513   -0.2382 O   0  0  0  0  0  0  0  0  0  0  0  0
    2.8185   -0.1599    0.9165 O   0  0  0  0  0  0  0  0  0  0  0  0
  1  6  1  0  0  0  0
  2  1  2  0  0  0  0
  2  3  1  0  0  0  0
  3  4  2  0  0  0  0
  4  5  1  0  0  0  0
  4  9  1  0  0  0  0
  5 10  1  0  0  0  0
  6 11  1  0  0  0  0
  6  5  2  0  0  0  0
  7  1  1  0  0  0  0
  8  2  1  0  0  0  0
 11 13  2  0  0  0  0
 12 11  2  0  0  0  0
 14 15  3  0  0  0  0
 16 20  2  0  0  0  0
 16 21  1  0  0  0  0
 17 18  1  0  0  0  0
 17 16  1  0  0  0  0
 19 16  2  0  0  0  0
 21  3  1  0  0  0  0
M  END
