Coordinates from ORCA-job 4-NO2-Ph-N2-HSO4-B3LYPG-6-31G_dp-MTMO-d009-169-n800
 OpenBabel09051908393D

 21 20  0  0  0  0  0  0  0  0999 V2000
   -0.0477   -0.6140    0.1967 C   0  0  0  0  0  0  0  0  0  0  0  0
    1.3065   -0.6825    0.5094 C   0  0  0  0  0  0  0  0  0  0  0  0
    1.8807    0.3556    1.2432 C   0  0  0  0  0  0  0  0  0  0  0  0
    1.1398    1.4539    1.6779 C   0  0  0  0  0  0  0  0  0  0  0  0
   -0.2160    1.5202    1.3717 C   0  0  0  0  0  0  0  0  0  0  0  0
   -0.7860    0.4847    0.6336 C   0  0  0  0  0  0  0  0  0  0  0  0
   -0.5383   -1.3940   -0.3716 H   0  0  0  0  0  0  0  0  0  0  0  0
    1.9148   -1.5183    0.1871 H   0  0  0  0  0  0  0  0  0  0  0  0
    1.6249    2.2351    2.2519 H   0  0  0  0  0  0  0  0  0  0  0  0
   -0.8319    2.3517    1.6895 H   0  0  0  0  0  0  0  0  0  0  0  0
   -2.2203    0.5537    0.3055 N   0  0  0  0  0  0  0  0  0  0  0  0
   -2.7012   -0.3754   -0.3403 O   0  0  0  0  0  0  0  0  0  0  0  0
   -2.8460    1.5369    0.6985 O   0  0  0  0  0  0  0  0  0  0  0  0
    2.4423    1.6240   -2.9582 N   0  0  0  0  0  0  0  0  0  0  0  0
    3.2517    1.6070   -3.7104 N   0  0  0  0  0  0  0  0  0  0  0  0
    4.4142    0.5107    0.5307 S   0  0  0  0  0  0  0  0  0  0  0  0
    4.2898    2.1090    0.2642 O   0  0  0  0  0  0  0  0  0  0  0  0
    4.8471    2.5625    0.9204 H   0  0  0  0  0  0  0  0  0  0  0  0
    4.0569   -0.1316   -0.7130 O   0  0  0  0  0  0  0  0  0  0  0  0
    5.6342    0.2477    1.2617 O   0  0  0  0  0  0  0  0  0  0  0  0
    3.2220    0.2785    1.6438 O   0  0  0  0  0  0  0  0  0  0  0  0
  1  2  2  0  0  0  0
  1  6  1  0  0  0  0
  2  3  1  0  0  0  0
  3 21  1  0  0  0  0
  3  4  2  0  0  0  0
  4  9  1  0  0  0  0
  5  4  1  0  0  0  0
  5 10  1  0  0  0  0
  6  5  2  0  0  0  0
  7  1  1  0  0  0  0
  8  2  1  0  0  0  0
 11  6  1  0  0  0  0
 11 13  2  0  0  0  0
 12 11  2  0  0  0  0
 15 14  3  0  0  0  0
 16 20  2  0  0  0  0
 16 21  1  0  0  0  0
 17 16  1  0  0  0  0
 17 18  1  0  0  0  0
 19 16  2  0  0  0  0
M  END
