Coordinates from ORCA-job 4-NO2-Ph-N2-HSO4-B3LYPG-6-31G_dp-MTMO-d009-169-n800
 OpenBabel09051908393D

 21 20  0  0  0  0  0  0  0  0999 V2000
   -0.2849   -0.7159    0.4388 C   0  0  0  0  0  0  0  0  0  0  0  0
    1.1000   -0.7361    0.5735 C   0  0  0  0  0  0  0  0  0  0  0  0
    1.7329    0.3462    1.1851 C   0  0  0  0  0  0  0  0  0  0  0  0
    1.0219    1.4440    1.6684 C   0  0  0  0  0  0  0  0  0  0  0  0
   -0.3637    1.4631    1.5394 C   0  0  0  0  0  0  0  0  0  0  0  0
   -0.9932    0.3821    0.9249 C   0  0  0  0  0  0  0  0  0  0  0  0
   -0.8212   -1.5320   -0.0286 H   0  0  0  0  0  0  0  0  0  0  0  0
    1.6873   -1.5692    0.2079 H   0  0  0  0  0  0  0  0  0  0  0  0
    1.5539    2.2615    2.1409 H   0  0  0  0  0  0  0  0  0  0  0  0
   -0.9581    2.2921    1.9014 H   0  0  0  0  0  0  0  0  0  0  0  0
   -2.4596    0.4006    0.7860 N   0  0  0  0  0  0  0  0  0  0  0  0
   -2.9917   -0.5669    0.2451 O   0  0  0  0  0  0  0  0  0  0  0  0
   -3.0590    1.3831    1.2197 O   0  0  0  0  0  0  0  0  0  0  0  0
    4.5765    1.8117   -3.9929 N   0  0  0  0  0  0  0  0  0  0  0  0
    5.2046    1.9928   -3.1020 N   0  0  0  0  0  0  0  0  0  0  0  0
    4.1380    0.5937    0.1458 S   0  0  0  0  0  0  0  0  0  0  0  0
    3.9349    2.1921   -0.0679 O   0  0  0  0  0  0  0  0  0  0  0  0
    4.6231    2.6466    0.4481 H   0  0  0  0  0  0  0  0  0  0  0  0
    3.6241   -0.0450   -1.0437 O   0  0  0  0  0  0  0  0  0  0  0  0
    5.4554    0.3572    0.6945 O   0  0  0  0  0  0  0  0  0  0  0  0
    3.1163    0.3135    1.4080 O   0  0  0  0  0  0  0  0  0  0  0  0
  1  2  2  0  0  0  0
  1  6  1  0  0  0  0
  2  3  1  0  0  0  0
  3 21  1  0  0  0  0
  3  4  2  0  0  0  0
  4  9  1  0  0  0  0
  5  4  1  0  0  0  0
  5 10  1  0  0  0  0
  6  5  2  0  0  0  0
  7  1  1  0  0  0  0
  8  2  1  0  0  0  0
 11  6  1  0  0  0  0
 11 13  2  0  0  0  0
 12 11  2  0  0  0  0
 14 15  3  0  0  0  0
 16 20  2  0  0  0  0
 16 21  1  0  0  0  0
 17 16  1  0  0  0  0
 17 18  1  0  0  0  0
 19 16  2  0  0  0  0
M  END
