Coordinates from ORCA-job 4-NO2-Ph-N2-HSO4-B3LYPG-6-31G_dp-MTMO-d009-169-n800
 OpenBabel09051908393D

 21 20  0  0  0  0  0  0  0  0999 V2000
   -0.8524   -0.8937    0.8499 C   0  0  0  0  0  0  0  0  0  0  0  0
    0.5180   -1.0886    0.7071 C   0  0  0  0  0  0  0  0  0  0  0  0
    1.3822   -0.0331    0.9994 C   0  0  0  0  0  0  0  0  0  0  0  0
    0.9162    1.2070    1.4346 C   0  0  0  0  0  0  0  0  0  0  0  0
   -0.4536    1.4013    1.5841 C   0  0  0  0  0  0  0  0  0  0  0  0
   -1.3148    0.3467    1.2871 C   0  0  0  0  0  0  0  0  0  0  0  0
   -1.5625   -1.6816    0.6340 H   0  0  0  0  0  0  0  0  0  0  0  0
    0.9173   -2.0368    0.3691 H   0  0  0  0  0  0  0  0  0  0  0  0
    1.6233    1.9975    1.6576 H   0  0  0  0  0  0  0  0  0  0  0  0
   -0.8617    2.3452    1.9220 H   0  0  0  0  0  0  0  0  0  0  0  0
   -2.7653    0.5493    1.4443 N   0  0  0  0  0  0  0  0  0  0  0  0
   -3.5036   -0.3971    1.1777 O   0  0  0  0  0  0  0  0  0  0  0  0
   -3.1459    1.6524    1.8330 O   0  0  0  0  0  0  0  0  0  0  0  0
    9.0776    5.6049   -3.1219 N   0  0  0  0  0  0  0  0  0  0  0  0
    8.2889    5.0108   -2.6253 N   0  0  0  0  0  0  0  0  0  0  0  0
    3.5169   -0.3044   -0.5216 S   0  0  0  0  0  0  0  0  0  0  0  0
    3.4583    1.2515   -0.9870 O   0  0  0  0  0  0  0  0  0  0  0  0
    4.2551    1.6926   -0.6442 H   0  0  0  0  0  0  0  0  0  0  0  0
    2.6891   -1.0357   -1.4520 O   0  0  0  0  0  0  0  0  0  0  0  0
    4.8849   -0.6484   -0.2011 O   0  0  0  0  0  0  0  0  0  0  0  0
    2.7694   -0.2246    0.9455 O   0  0  0  0  0  0  0  0  0  0  0  0
  1  6  1  0  0  0  0
  2  1  2  0  0  0  0
  2  3  1  0  0  0  0
  3  4  2  0  0  0  0
  4  5  1  0  0  0  0
  4  9  1  0  0  0  0
  5 10  1  0  0  0  0
  6 11  1  0  0  0  0
  6  5  2  0  0  0  0
  7  1  1  0  0  0  0
  8  2  1  0  0  0  0
 11 13  2  0  0  0  0
 12 11  2  0  0  0  0
 14 15  3  0  0  0  0
 16 20  2  0  0  0  0
 16 21  1  0  0  0  0
 17 18  1  0  0  0  0
 17 16  1  0  0  0  0
 19 16  2  0  0  0  0
 21  3  1  0  0  0  0
M  END
