Coordinates from ORCA-job 4-NO2-Ph-N2-HSO4-B3LYPG-6-31G_dp-MTMO-d009-169-n800
 OpenBabel09051908393D

 21 20  0  0  0  0  0  0  0  0999 V2000
   -0.4964   -0.8143    0.8577 C   0  0  0  0  0  0  0  0  0  0  0  0
    0.8718   -0.8746    0.6113 C   0  0  0  0  0  0  0  0  0  0  0  0
    1.6383    0.2792    0.7798 C   0  0  0  0  0  0  0  0  0  0  0  0
    1.0759    1.4872    1.1916 C   0  0  0  0  0  0  0  0  0  0  0  0
   -0.2910    1.5472    1.4453 C   0  0  0  0  0  0  0  0  0  0  0  0
   -1.0546    0.3942    1.2722 C   0  0  0  0  0  0  0  0  0  0  0  0
   -1.1322   -1.6826    0.7394 H   0  0  0  0  0  0  0  0  0  0  0  0
    1.3430   -1.7940    0.2868 H   0  0  0  0  0  0  0  0  0  0  0  0
    1.7095    2.3579    1.3152 H   0  0  0  0  0  0  0  0  0  0  0  0
   -0.7703    2.4617    1.7704 H   0  0  0  0  0  0  0  0  0  0  0  0
   -2.5014    0.4545    1.5399 N   0  0  0  0  0  0  0  0  0  0  0  0
   -3.1529   -0.5763    1.3811 O   0  0  0  0  0  0  0  0  0  0  0  0
   -2.9673    1.5322    1.9067 O   0  0  0  0  0  0  0  0  0  0  0  0
    7.1600    3.4633   -1.2431 N   0  0  0  0  0  0  0  0  0  0  0  0
    6.1194    3.0961   -1.2082 N   0  0  0  0  0  0  0  0  0  0  0  0
    3.6681    0.1379   -0.8969 S   0  0  0  0  0  0  0  0  0  0  0  0
    3.4206    1.6438   -1.4327 O   0  0  0  0  0  0  0  0  0  0  0  0
    4.2310    2.1633   -1.2647 H   0  0  0  0  0  0  0  0  0  0  0  0
    2.8523   -0.7349   -1.7098 O   0  0  0  0  0  0  0  0  0  0  0  0
    5.0849   -0.0568   -0.6717 O   0  0  0  0  0  0  0  0  0  0  0  0
    3.0291    0.2303    0.6218 O   0  0  0  0  0  0  0  0  0  0  0  0
  1  6  2  0  0  0  0
  2  3  2  0  0  0  0
  2  1  1  0  0  0  0
  3  4  1  0  0  0  0
  4  9  1  0  0  0  0
  4  5  2  0  0  0  0
  5 10  1  0  0  0  0
  6  5  1  0  0  0  0
  6 11  1  0  0  0  0
  7  1  1  0  0  0  0
  8  2  1  0  0  0  0
 11 13  2  0  0  0  0
 12 11  2  0  0  0  0
 14 15  3  0  0  0  0
 16 20  2  0  0  0  0
 16 21  1  0  0  0  0
 17 18  1  0  0  0  0
 17 16  1  0  0  0  0
 19 16  2  0  0  0  0
 21  3  1  0  0  0  0
M  END
