Coordinates from ORCA-job 4-NO2-Ph-N2-HSO4-B3LYPG-6-31G_dp-MTMO-d009-169-n800
 OpenBabel09051908393D

 21 21  0  0  1  0  0  0  0  0999 V2000
    0.5636   -0.4009    0.3973 C   0  0  0  0  0  0  0  0  0  0  0  0
    1.7062   -0.0320   -0.4984 C   0  0  1  0  0  0  0  0  0  0  0  0
    1.7876    1.4994   -0.7889 C   0  0  0  0  0  0  0  0  0  0  0  0
    0.6342    2.3469   -0.4379 C   0  0  0  0  0  0  0  0  0  0  0  0
   -0.4220    1.8576    0.2358 C   0  0  0  0  0  0  0  0  0  0  0  0
   -0.4150    0.4727    0.6702 C   0  0  0  0  0  0  0  0  0  0  0  0
    0.5215   -1.4188    0.7671 H   0  0  0  0  0  0  0  0  0  0  0  0
    1.6043   -0.5687   -1.4514 H   0  0  0  0  0  0  0  0  0  0  0  0
    0.6937    3.3918   -0.7233 H   0  0  0  0  0  0  0  0  0  0  0  0
   -1.2654    2.4788    0.5048 H   0  0  0  0  0  0  0  0  0  0  0  0
   -1.5583    0.0075    1.4904 N   0  0  0  0  0  0  0  0  0  0  0  0
   -1.5602   -1.1612    1.8641 O   0  0  0  0  0  0  0  0  0  0  0  0
   -2.4353    0.8334    1.7347 O   0  0  0  0  0  0  0  0  0  0  0  0
    2.7278    1.8730   -1.1674 N   0  0  0  0  0  0  0  0  0  0  0  0
    3.7917    2.1867   -1.5329 N   0  0  0  0  0  0  0  0  0  0  0  0
    3.6772    0.0068    1.3555 S   0  0  0  0  0  0  0  0  0  0  0  0
    5.0479    0.5934    0.7511 O   0  0  0  0  0  0  0  0  0  0  0  0
    4.8605    1.3590    0.1645 H   0  0  0  0  0  0  0  0  0  0  0  0
    2.8475    1.0835    1.8728 O   0  0  0  0  0  0  0  0  0  0  0  0
    2.9869   -0.5454   -0.0504 O   0  0  0  0  0  0  0  0  0  0  0  0
    4.0432   -1.1483    2.1345 O   0  0  0  0  0  0  0  0  0  0  0  0
  1  6  2  0  0  0  0
  1  7  1  0  0  0  0
  2  8  1  6  0  0  0
  2 20  1  0  0  0  0
  2  1  1  0  0  0  0
  3  2  1  0  0  0  0
  3  4  2  0  0  0  0
  4  5  1  0  0  0  0
  5 10  1  0  0  0  0
  5  6  1  0  0  0  0
  6 11  1  0  0  0  0
  9  4  1  0  0  0  0
 11 13  2  0  0  0  0
 11 12  2  0  0  0  0
 14  3  1  0  0  0  0
 15 14  1  0  0  0  0
 16 19  2  0  0  0  0
 16 21  2  0  0  0  0
 17 16  1  0  0  0  0
 18 17  1  0  0  0  0
 20 16  1  0  0  0  0
M  RAD  3   5   2  14   2  15   3
M  END
