Coordinates from ORCA-job 4-NO2-Ph-N2-HSO4-B3LYPG-6-31G_dp-MTMO-d009-169-n800
 OpenBabel09051908393D

 21 20  0  0  0  0  0  0  0  0999 V2000
   -0.7915   -0.8716    0.8239 C   0  0  0  0  0  0  0  0  0  0  0  0
    0.5809   -1.0474    0.6759 C   0  0  0  0  0  0  0  0  0  0  0  0
    1.4320    0.0171    0.9736 C   0  0  0  0  0  0  0  0  0  0  0  0
    0.9510    1.2478    1.4192 C   0  0  0  0  0  0  0  0  0  0  0  0
   -0.4208    1.4230    1.5740 C   0  0  0  0  0  0  0  0  0  0  0  0
   -1.2690    0.3594    1.2716 C   0  0  0  0  0  0  0  0  0  0  0  0
   -1.4919   -1.6671    0.6041 H   0  0  0  0  0  0  0  0  0  0  0  0
    0.9916   -1.9878    0.3297 H   0  0  0  0  0  0  0  0  0  0  0  0
    1.6483    2.0458    1.6460 H   0  0  0  0  0  0  0  0  0  0  0  0
   -0.8402    2.3590    1.9199 H   0  0  0  0  0  0  0  0  0  0  0  0
   -2.7216    0.5417    1.4343 N   0  0  0  0  0  0  0  0  0  0  0  0
   -3.4481   -0.4125    1.1633 O   0  0  0  0  0  0  0  0  0  0  0  0
   -3.1156    1.6370    1.8317 O   0  0  0  0  0  0  0  0  0  0  0  0
    8.6485    5.1870   -2.9135 N   0  0  0  0  0  0  0  0  0  0  0  0
    7.8445    4.6181   -2.4119 N   0  0  0  0  0  0  0  0  0  0  0  0
    3.5659   -0.2155   -0.5551 S   0  0  0  0  0  0  0  0  0  0  0  0
    3.4871    1.3426   -1.0095 O   0  0  0  0  0  0  0  0  0  0  0  0
    4.2818    1.7902   -0.6704 H   0  0  0  0  0  0  0  0  0  0  0  0
    2.7446   -0.9508   -1.4882 O   0  0  0  0  0  0  0  0  0  0  0  0
    4.9389   -0.5451   -0.2408 O   0  0  0  0  0  0  0  0  0  0  0  0
    2.8214   -0.1556    0.9145 O   0  0  0  0  0  0  0  0  0  0  0  0
  1  6  1  0  0  0  0
  2  1  2  0  0  0  0
  2  3  1  0  0  0  0
  3  4  2  0  0  0  0
  4  5  1  0  0  0  0
  4  9  1  0  0  0  0
  5 10  1  0  0  0  0
  6 11  1  0  0  0  0
  6  5  2  0  0  0  0
  7  1  1  0  0  0  0
  8  2  1  0  0  0  0
 11 13  2  0  0  0  0
 12 11  2  0  0  0  0
 14 15  3  0  0  0  0
 16 20  2  0  0  0  0
 16 21  1  0  0  0  0
 17 18  1  0  0  0  0
 17 16  1  0  0  0  0
 19 16  2  0  0  0  0
 21  3  1  0  0  0  0
M  END
