Coordinates from ORCA-job 4-NO2-Ph-N2-HSO4-B3LYPG-6-31G_dp-MTMO-d009-169-n800
 OpenBabel09051908393D

 21 20  0  0  0  0  0  0  0  0999 V2000
   -0.8215   -0.8815    0.8351 C   0  0  0  0  0  0  0  0  0  0  0  0
    0.5499   -1.0676    0.6902 C   0  0  0  0  0  0  0  0  0  0  0  0
    1.4080   -0.0082    0.9866 C   0  0  0  0  0  0  0  0  0  0  0  0
    0.9349    1.2271    1.4279 C   0  0  0  0  0  0  0  0  0  0  0  0
   -0.4359    1.4124    1.5795 C   0  0  0  0  0  0  0  0  0  0  0  0
   -1.2911    0.3540    1.2784 C   0  0  0  0  0  0  0  0  0  0  0  0
   -1.5271   -1.6727    0.6162 H   0  0  0  0  0  0  0  0  0  0  0  0
    0.9546   -2.0118    0.3476 H   0  0  0  0  0  0  0  0  0  0  0  0
    1.6374    2.0207    1.6538 H   0  0  0  0  0  0  0  0  0  0  0  0
   -0.8494    2.3523    1.9220 H   0  0  0  0  0  0  0  0  0  0  0  0
   -2.7427    0.5472    1.4378 N   0  0  0  0  0  0  0  0  0  0  0  0
   -3.4754   -0.4025    1.1678 O   0  0  0  0  0  0  0  0  0  0  0  0
   -3.1295    1.6462    1.8316 O   0  0  0  0  0  0  0  0  0  0  0  0
    8.8523    5.3930   -3.0182 N   0  0  0  0  0  0  0  0  0  0  0  0
    8.0579    4.8107   -2.5167 N   0  0  0  0  0  0  0  0  0  0  0  0
    3.5429   -0.2604   -0.5374 S   0  0  0  0  0  0  0  0  0  0  0  0
    3.4743    1.2968   -0.9969 O   0  0  0  0  0  0  0  0  0  0  0  0
    4.2695    1.7412   -0.6548 H   0  0  0  0  0  0  0  0  0  0  0  0
    2.7189   -0.9934   -1.4697 O   0  0  0  0  0  0  0  0  0  0  0  0
    4.9134   -0.5971   -0.2193 O   0  0  0  0  0  0  0  0  0  0  0  0
    2.7962   -0.1909    0.9307 O   0  0  0  0  0  0  0  0  0  0  0  0
  1  6  1  0  0  0  0
  2  1  2  0  0  0  0
  2  3  1  0  0  0  0
  3  4  2  0  0  0  0
  4  5  1  0  0  0  0
  4  9  1  0  0  0  0
  5 10  1  0  0  0  0
  6 11  1  0  0  0  0
  6  5  2  0  0  0  0
  7  1  1  0  0  0  0
  8  2  1  0  0  0  0
 11 13  2  0  0  0  0
 12 11  2  0  0  0  0
 14 15  3  0  0  0  0
 16 20  2  0  0  0  0
 16 21  1  0  0  0  0
 17 18  1  0  0  0  0
 17 16  1  0  0  0  0
 19 16  2  0  0  0  0
 21  3  1  0  0  0  0
M  END
