Coordinates from ORCA-job 4-NO2-Ph-N2-HSO4-B3LYPG-6-31G_dp-MTMO-d009-169-n800
 OpenBabel09051908393D

 21 20  0  0  0  0  0  0  0  0999 V2000
   -0.6809   -0.8553    0.8185 C   0  0  0  0  0  0  0  0  0  0  0  0
    0.6944   -0.9791    0.6469 C   0  0  0  0  0  0  0  0  0  0  0  0
    1.5083    0.1211    0.9170 C   0  0  0  0  0  0  0  0  0  0  0  0
    0.9880    1.3380    1.3561 C   0  0  0  0  0  0  0  0  0  0  0  0
   -0.3868    1.4615    1.5339 C   0  0  0  0  0  0  0  0  0  0  0  0
   -1.1980    0.3617    1.2604 C   0  0  0  0  0  0  0  0  0  0  0  0
   -1.3535   -1.6801    0.6208 H   0  0  0  0  0  0  0  0  0  0  0  0
    1.1357   -1.9068    0.3038 H   0  0  0  0  0  0  0  0  0  0  0  0
    1.6577    2.1655    1.5590 H   0  0  0  0  0  0  0  0  0  0  0  0
   -0.8362    2.3850    1.8758 H   0  0  0  0  0  0  0  0  0  0  0  0
   -2.6534    0.4893    1.4479 N   0  0  0  0  0  0  0  0  0  0  0  0
   -3.3468   -0.4959    1.2020 O   0  0  0  0  0  0  0  0  0  0  0  0
   -3.0830    1.5732    1.8396 O   0  0  0  0  0  0  0  0  0  0  0  0
    7.9909    4.4183   -2.4862 N   0  0  0  0  0  0  0  0  0  0  0  0
    7.1416    3.8902   -2.0157 N   0  0  0  0  0  0  0  0  0  0  0  0
    3.6255   -0.0162   -0.6477 S   0  0  0  0  0  0  0  0  0  0  0  0
    3.5558    1.5568   -1.0486 O   0  0  0  0  0  0  0  0  0  0  0  0
    4.3911    1.9708   -0.7682 H   0  0  0  0  0  0  0  0  0  0  0  0
    2.7833   -0.7170   -1.5889 O   0  0  0  0  0  0  0  0  0  0  0  0
    5.0017   -0.3643   -0.3677 O   0  0  0  0  0  0  0  0  0  0  0  0
    2.9021   -0.0013    0.8335 O   0  0  0  0  0  0  0  0  0  0  0  0
  1  6  1  0  0  0  0
  2  1  2  0  0  0  0
  2  3  1  0  0  0  0
  3  4  2  0  0  0  0
  4  5  1  0  0  0  0
  4  9  1  0  0  0  0
  5 10  1  0  0  0  0
  6 11  1  0  0  0  0
  6  5  2  0  0  0  0
  7  1  1  0  0  0  0
  8  2  1  0  0  0  0
 11 13  2  0  0  0  0
 12 11  2  0  0  0  0
 14 15  3  0  0  0  0
 16 20  2  0  0  0  0
 16 21  1  0  0  0  0
 17 18  1  0  0  0  0
 17 16  1  0  0  0  0
 19 16  2  0  0  0  0
 21  3  1  0  0  0  0
M  END
