Coordinates from ORCA-job 4-NO2-Ph-N2-HSO4-B3LYPG-6-31G_dp-MTMO-d009-169-n800
 OpenBabel09051908393D

 21 20  0  0  0  0  0  0  0  0999 V2000
    0.0551   -0.6505    0.1553 C   0  0  0  0  0  0  0  0  0  0  0  0
    1.3874   -0.7190    0.5507 C   0  0  0  0  0  0  0  0  0  0  0  0
    1.9546    0.3780    1.1996 C   0  0  0  0  0  0  0  0  0  0  0  0
    1.2271    1.5365    1.4696 C   0  0  0  0  0  0  0  0  0  0  0  0
   -0.1072    1.6041    1.0808 C   0  0  0  0  0  0  0  0  0  0  0  0
   -0.6700    0.5087    0.4281 C   0  0  0  0  0  0  0  0  0  0  0  0
   -0.4294   -1.4755   -0.3514 H   0  0  0  0  0  0  0  0  0  0  0  0
    1.9850   -1.6014    0.3581 H   0  0  0  0  0  0  0  0  0  0  0  0
    1.7056    2.3632    1.9819 H   0  0  0  0  0  0  0  0  0  0  0  0
   -0.7134    2.4804    1.2719 H   0  0  0  0  0  0  0  0  0  0  0  0
   -2.0824    0.5780    0.0158 N   0  0  0  0  0  0  0  0  0  0  0  0
   -2.5567   -0.4021   -0.5554 O   0  0  0  0  0  0  0  0  0  0  0  0
   -2.6975    1.6125    0.2689 O   0  0  0  0  0  0  0  0  0  0  0  0
    2.0450    1.7744   -2.0557 N   0  0  0  0  0  0  0  0  0  0  0  0
    1.4311    1.7649   -2.9748 N   0  0  0  0  0  0  0  0  0  0  0  0
    4.5342    0.4042    0.6425 S   0  0  0  0  0  0  0  0  0  0  0  0
    4.5233    1.9892    0.2870 O   0  0  0  0  0  0  0  0  0  0  0  0
    5.0768    2.4412    0.9474 H   0  0  0  0  0  0  0  0  0  0  0  0
    4.2145   -0.2916   -0.5820 O   0  0  0  0  0  0  0  0  0  0  0  0
    5.6900    0.1178    1.4642 O   0  0  0  0  0  0  0  0  0  0  0  0
    3.2646    0.3027    1.6897 O   0  0  0  0  0  0  0  0  0  0  0  0
  1  6  2  0  0  0  0
  1  2  1  0  0  0  0
  2  3  2  0  0  0  0
  3  4  1  0  0  0  0
  3 21  1  0  0  0  0
  4  9  1  0  0  0  0
  5 10  1  0  0  0  0
  5  4  2  0  0  0  0
  6  5  1  0  0  0  0
  7  1  1  0  0  0  0
  8  2  1  0  0  0  0
 11 13  2  0  0  0  0
 11  6  1  0  0  0  0
 12 11  2  0  0  0  0
 15 14  3  0  0  0  0
 16 20  2  0  0  0  0
 16 21  1  0  0  0  0
 17 16  1  0  0  0  0
 17 18  1  0  0  0  0
 19 16  2  0  0  0  0
M  END
