Coordinates from ORCA-job 4-NO2-Ph-N2-HSO4-B3LYPG-6-31G_dp-MTMO-d009-169-n800
 OpenBabel09051908393D

 21 20  0  0  0  0  0  0  0  0999 V2000
   -0.1677   -0.6836    0.3480 C   0  0  0  0  0  0  0  0  0  0  0  0
    1.2030   -0.7321    0.5832 C   0  0  0  0  0  0  0  0  0  0  0  0
    1.8142    0.3450    1.2252 C   0  0  0  0  0  0  0  0  0  0  0  0
    1.0949    1.4644    1.6422 C   0  0  0  0  0  0  0  0  0  0  0  0
   -0.2769    1.5115    1.4132 C   0  0  0  0  0  0  0  0  0  0  0  0
   -0.8844    0.4360    0.7679 C   0  0  0  0  0  0  0  0  0  0  0  0
   -0.6870   -1.4942   -0.1473 H   0  0  0  0  0  0  0  0  0  0  0  0
    1.7960   -1.5828    0.2713 H   0  0  0  0  0  0  0  0  0  0  0  0
    1.6094    2.2766    2.1428 H   0  0  0  0  0  0  0  0  0  0  0  0
   -0.8774    2.3579    1.7213 H   0  0  0  0  0  0  0  0  0  0  0  0
   -2.3362    0.4842    0.5230 N   0  0  0  0  0  0  0  0  0  0  0  0
   -2.8496   -0.4791   -0.0428 O   0  0  0  0  0  0  0  0  0  0  0  0
   -2.9427    1.4855    0.8998 O   0  0  0  0  0  0  0  0  0  0  0  0
    3.2621    1.7187   -3.5606 N   0  0  0  0  0  0  0  0  0  0  0  0
    4.2692    2.0876   -3.2943 N   0  0  0  0  0  0  0  0  0  0  0  0
    4.2961    0.4987    0.3590 S   0  0  0  0  0  0  0  0  0  0  0  0
    4.1464    2.0907    0.0673 O   0  0  0  0  0  0  0  0  0  0  0  0
    4.7686    2.5581    0.6513 H   0  0  0  0  0  0  0  0  0  0  0  0
    3.8606   -0.1734   -0.8431 O   0  0  0  0  0  0  0  0  0  0  0  0
    5.5623    0.2576    1.0152 O   0  0  0  0  0  0  0  0  0  0  0  0
    3.1768    0.2881    1.5496 O   0  0  0  0  0  0  0  0  0  0  0  0
  1  2  2  0  0  0  0
  1  6  1  0  0  0  0
  2  3  1  0  0  0  0
  3 21  1  0  0  0  0
  3  4  2  0  0  0  0
  4  9  1  0  0  0  0
  5  4  1  0  0  0  0
  5 10  1  0  0  0  0
  6  5  2  0  0  0  0
  7  1  1  0  0  0  0
  8  2  1  0  0  0  0
 11  6  1  0  0  0  0
 11 13  2  0  0  0  0
 12 11  2  0  0  0  0
 14 15  3  0  0  0  0
 16 20  2  0  0  0  0
 16 21  1  0  0  0  0
 17 16  1  0  0  0  0
 17 18  1  0  0  0  0
 19 16  2  0  0  0  0
M  END
