Coordinates from ORCA-job 4-NO2-Ph-N2-HSO4-B3LYPG-6-31G_dp-MTMO-d009-169-n800
 OpenBabel09051908393D

 21 21  0  0  1  0  0  0  0  0999 V2000
    0.6146   -0.4888    0.1317 C   0  0  0  0  0  0  0  0  0  0  0  0
    1.7556    0.0628   -0.6545 C   0  0  1  0  0  0  0  0  0  0  0  0
    1.5710    1.5277   -0.9617 C   0  0  0  0  0  0  0  0  0  0  0  0
    0.6008    2.3381   -0.2515 C   0  0  0  0  0  0  0  0  0  0  0  0
   -0.3126    1.7590    0.5614 C   0  0  0  0  0  0  0  0  0  0  0  0
   -0.3007    0.3236    0.6925 C   0  0  0  0  0  0  0  0  0  0  0  0
    0.5568   -1.5608    0.2709 H   0  0  0  0  0  0  0  0  0  0  0  0
    1.9241   -0.5174   -1.5657 H   0  0  0  0  0  0  0  0  0  0  0  0
    0.6275    3.4128   -0.3994 H   0  0  0  0  0  0  0  0  0  0  0  0
   -1.0526    2.3317    1.1018 H   0  0  0  0  0  0  0  0  0  0  0  0
   -1.3847   -0.2994    1.4905 N   0  0  0  0  0  0  0  0  0  0  0  0
   -1.4140   -1.5242    1.5669 O   0  0  0  0  0  0  0  0  0  0  0  0
   -2.1898    0.4618    2.0222 O   0  0  0  0  0  0  0  0  0  0  0  0
    2.3098    2.0355   -1.8190 N   0  0  0  0  0  0  0  0  0  0  0  0
    2.9970    2.4892   -2.6107 N   0  0  0  0  0  0  0  0  0  0  0  0
    3.5297    0.6015    1.3391 S   0  0  0  0  0  0  0  0  0  0  0  0
    4.7686   -0.3533    1.7553 O   0  0  0  0  0  0  0  0  0  0  0  0
    5.5630   -0.0217    1.3033 H   0  0  0  0  0  0  0  0  0  0  0  0
    4.0628    1.8874    0.9098 O   0  0  0  0  0  0  0  0  0  0  0  0
    3.0753   -0.2470    0.0251 O   0  0  0  0  0  0  0  0  0  0  0  0
    2.5353    0.4968    2.3843 O   0  0  0  0  0  0  0  0  0  0  0  0
  1  7  1  0  0  0  0
  1  6  2  0  0  0  0
  2  8  1  6  0  0  0
  2 20  1  0  0  0  0
  2  1  1  0  0  0  0
  3  2  1  0  0  0  0
  3  4  2  0  0  0  0
  4  5  1  0  0  0  0
  5  6  1  0  0  0  0
  5 10  1  0  0  0  0
  6 11  1  0  0  0  0
  9  4  1  0  0  0  0
 11 12  2  0  0  0  0
 11 13  2  0  0  0  0
 14  3  1  0  0  0  0
 15 14  1  0  0  0  0
 16 17  1  0  0  0  0
 16 21  2  0  0  0  0
 18 17  1  0  0  0  0
 19 16  2  0  0  0  0
 20 16  1  0  0  0  0
M  RAD  3   5   2  14   2  15   3
M  END
