Coordinates from ORCA-job 4-NO2-Ph-N2-HSO4-B3LYPG-6-31G_dp-MTMO-d009-169-n800
 OpenBabel09051908393D

 21 20  0  0  0  0  0  0  0  0999 V2000
   -0.6536   -0.8563    0.8214 C   0  0  0  0  0  0  0  0  0  0  0  0
    0.7222   -0.9613    0.6421 C   0  0  0  0  0  0  0  0  0  0  0  0
    1.5220    0.1515    0.9025 C   0  0  0  0  0  0  0  0  0  0  0  0
    0.9871    1.3632    1.3384 C   0  0  0  0  0  0  0  0  0  0  0  0
   -0.3882    1.4682    1.5234 C   0  0  0  0  0  0  0  0  0  0  0  0
   -1.1853    0.3555    1.2603 C   0  0  0  0  0  0  0  0  0  0  0  0
   -1.3156   -1.6915    0.6315 H   0  0  0  0  0  0  0  0  0  0  0  0
    1.1747   -1.8843    0.3010 H   0  0  0  0  0  0  0  0  0  0  0  0
    1.6465    2.2012    1.5324 H   0  0  0  0  0  0  0  0  0  0  0  0
   -0.8487    2.3869    1.8632 H   0  0  0  0  0  0  0  0  0  0  0  0
   -2.6413    0.4633    1.4558 N   0  0  0  0  0  0  0  0  0  0  0  0
   -3.3221   -0.5328    1.2190 O   0  0  0  0  0  0  0  0  0  0  0  0
   -3.0840    1.5430    1.8447 O   0  0  0  0  0  0  0  0  0  0  0  0
    7.8522    4.2097   -2.3914 N   0  0  0  0  0  0  0  0  0  0  0  0
    6.9916    3.6949   -1.9265 N   0  0  0  0  0  0  0  0  0  0  0  0
    3.6352    0.0507   -0.6721 S   0  0  0  0  0  0  0  0  0  0  0  0
    3.5912    1.6325   -1.0408 O   0  0  0  0  0  0  0  0  0  0  0  0
    4.4513    2.0177   -0.7958 H   0  0  0  0  0  0  0  0  0  0  0  0
    2.7779   -0.6199   -1.6219 O   0  0  0  0  0  0  0  0  0  0  0  0
    5.0076   -0.3237   -0.4064 O   0  0  0  0  0  0  0  0  0  0  0  0
    2.9169    0.0470    0.8116 O   0  0  0  0  0  0  0  0  0  0  0  0
  1  6  1  0  0  0  0
  2  1  2  0  0  0  0
  2  3  1  0  0  0  0
  3  4  2  0  0  0  0
  4  5  1  0  0  0  0
  4  9  1  0  0  0  0
  5 10  1  0  0  0  0
  6 11  1  0  0  0  0
  6  5  2  0  0  0  0
  7  1  1  0  0  0  0
  8  2  1  0  0  0  0
 11 13  2  0  0  0  0
 12 11  2  0  0  0  0
 14 15  3  0  0  0  0
 16 20  2  0  0  0  0
 16 21  1  0  0  0  0
 17 18  1  0  0  0  0
 17 16  1  0  0  0  0
 19 16  2  0  0  0  0
 21  3  1  0  0  0  0
M  END
