Coordinates from ORCA-job 4-NO2-Ph-N2-HSO4-B3LYPG-6-31G_dp-MTMO-d009-169-n800
 OpenBabel09051908393D

 21 20  0  0  0  0  0  0  0  0999 V2000
   -1.1793   -1.0753    1.0285 C   0  0  0  0  0  0  0  0  0  0  0  0
    0.1848   -1.3121    0.8894 C   0  0  0  0  0  0  0  0  0  0  0  0
    1.0779   -0.2688    1.1342 C   0  0  0  0  0  0  0  0  0  0  0  0
    0.6468    1.0007    1.5178 C   0  0  0  0  0  0  0  0  0  0  0  0
   -0.7168    1.2373    1.6632 C   0  0  0  0  0  0  0  0  0  0  0  0
   -1.6069    0.1942    1.4143 C   0  0  0  0  0  0  0  0  0  0  0  0
   -1.9110   -1.8525    0.8485 H   0  0  0  0  0  0  0  0  0  0  0  0
    0.5575   -2.2840    0.5907 H   0  0  0  0  0  0  0  0  0  0  0  0
    1.3753    1.7810    1.7046 H   0  0  0  0  0  0  0  0  0  0  0  0
   -1.0986    2.2050    1.9623 H   0  0  0  0  0  0  0  0  0  0  0  0
   -3.0508    0.4419    1.5675 N   0  0  0  0  0  0  0  0  0  0  0  0
   -3.8149   -0.4950    1.3439 O   0  0  0  0  0  0  0  0  0  0  0  0
   -3.4002    1.5703    1.9100 O   0  0  0  0  0  0  0  0  0  0  0  0
   11.9022    7.7584   -4.3178 N   0  0  0  0  0  0  0  0  0  0  0  0
   11.1139    7.1228   -3.8748 N   0  0  0  0  0  0  0  0  0  0  0  0
    3.1985   -0.6421   -0.3830 S   0  0  0  0  0  0  0  0  0  0  0  0
    3.1942    0.9041   -0.8839 O   0  0  0  0  0  0  0  0  0  0  0  0
    4.0090    1.3220   -0.5549 H   0  0  0  0  0  0  0  0  0  0  0  0
    2.3421   -1.3648   -1.2939 O   0  0  0  0  0  0  0  0  0  0  0  0
    4.5548   -1.0263   -0.0582 O   0  0  0  0  0  0  0  0  0  0  0  0
    2.4590   -0.5016    1.0836 O   0  0  0  0  0  0  0  0  0  0  0  0
  1  6  1  0  0  0  0
  2  1  2  0  0  0  0
  2  3  1  0  0  0  0
  3  4  2  0  0  0  0
  4  5  1  0  0  0  0
  4  9  1  0  0  0  0
  5 10  1  0  0  0  0
  6 11  1  0  0  0  0
  6  5  2  0  0  0  0
  7  1  1  0  0  0  0
  8  2  1  0  0  0  0
 11 13  2  0  0  0  0
 12 11  2  0  0  0  0
 14 15  3  0  0  0  0
 16 20  2  0  0  0  0
 16 21  1  0  0  0  0
 17 18  1  0  0  0  0
 17 16  1  0  0  0  0
 19 16  2  0  0  0  0
 21  3  1  0  0  0  0
M  END
