Coordinates from ORCA-job 4-NO2-Ph-N2-HSO4-B3LYPG-6-31G_dp-MTMO-d009-169-n800
 OpenBabel09051908393D

 21 20  0  0  0  0  0  0  0  0999 V2000
   -1.0335   -0.9863    0.9568 C   0  0  0  0  0  0  0  0  0  0  0  0
    0.3320   -1.2142    0.8166 C   0  0  0  0  0  0  0  0  0  0  0  0
    1.2190   -0.1680    1.0717 C   0  0  0  0  0  0  0  0  0  0  0  0
    0.7805    1.0953    1.4668 C   0  0  0  0  0  0  0  0  0  0  0  0
   -0.5845    1.3228    1.6135 C   0  0  0  0  0  0  0  0  0  0  0  0
   -1.4685    0.2771    1.3541 C   0  0  0  0  0  0  0  0  0  0  0  0
   -1.7605   -1.7660    0.7691 H   0  0  0  0  0  0  0  0  0  0  0  0
    0.7105   -2.1811    0.5092 H   0  0  0  0  0  0  0  0  0  0  0  0
    1.5044    1.8780    1.6615 H   0  0  0  0  0  0  0  0  0  0  0  0
   -0.9719    2.2855    1.9213 H   0  0  0  0  0  0  0  0  0  0  0  0
   -2.9139    0.5151    1.5087 N   0  0  0  0  0  0  0  0  0  0  0  0
   -3.6726   -0.4239    1.2754 O   0  0  0  0  0  0  0  0  0  0  0  0
   -3.2700    1.6382    1.8617 O   0  0  0  0  0  0  0  0  0  0  0  0
   10.5765    6.8248   -3.7423 N   0  0  0  0  0  0  0  0  0  0  0  0
    9.7901    6.1939   -3.2893 N   0  0  0  0  0  0  0  0  0  0  0  0
    3.3426   -0.5207   -0.4469 S   0  0  0  0  0  0  0  0  0  0  0  0
    3.3256    1.0273   -0.9420 O   0  0  0  0  0  0  0  0  0  0  0  0
    4.1360    1.4514   -0.6099 H   0  0  0  0  0  0  0  0  0  0  0  0
    2.4925   -1.2468   -1.3609 O   0  0  0  0  0  0  0  0  0  0  0  0
    4.7018   -0.8952   -0.1230 O   0  0  0  0  0  0  0  0  0  0  0  0
    2.6015   -0.3918    1.0200 O   0  0  0  0  0  0  0  0  0  0  0  0
  1  6  1  0  0  0  0
  2  1  2  0  0  0  0
  2  3  1  0  0  0  0
  3  4  2  0  0  0  0
  4  5  1  0  0  0  0
  4  9  1  0  0  0  0
  5 10  1  0  0  0  0
  6 11  1  0  0  0  0
  6  5  2  0  0  0  0
  7  1  1  0  0  0  0
  8  2  1  0  0  0  0
 11 13  2  0  0  0  0
 12 11  2  0  0  0  0
 14 15  3  0  0  0  0
 16 20  2  0  0  0  0
 16 21  1  0  0  0  0
 17 18  1  0  0  0  0
 17 16  1  0  0  0  0
 19 16  2  0  0  0  0
 21  3  1  0  0  0  0
M  END
