Coordinates from ORCA-job 4-NO2-Ph-N2-HSO4-B3LYPG-6-31G_dp-MTMO-d009-169-n800
 OpenBabel09051908393D

 21 20  0  0  0  0  0  0  0  0999 V2000
   -0.6084   -0.8536    0.8134 C   0  0  0  0  0  0  0  0  0  0  0  0
    0.7684   -0.9207    0.6238 C   0  0  0  0  0  0  0  0  0  0  0  0
    1.5396    0.2123    0.8827 C   0  0  0  0  0  0  0  0  0  0  0  0
    0.9756    1.4079    1.3262 C   0  0  0  0  0  0  0  0  0  0  0  0
   -0.4007    1.4750    1.5215 C   0  0  0  0  0  0  0  0  0  0  0  0
   -1.1694    0.3420    1.2606 C   0  0  0  0  0  0  0  0  0  0  0  0
   -1.2490   -1.7057    0.6253 H   0  0  0  0  0  0  0  0  0  0  0  0
    1.2429   -1.8303    0.2762 H   0  0  0  0  0  0  0  0  0  0  0  0
    1.6141    2.2625    1.5174 H   0  0  0  0  0  0  0  0  0  0  0  0
   -0.8833    2.3800    1.8676 H   0  0  0  0  0  0  0  0  0  0  0  0
   -2.6261    0.4097    1.4672 N   0  0  0  0  0  0  0  0  0  0  0  0
   -3.2816   -0.6036    1.2320 O   0  0  0  0  0  0  0  0  0  0  0  0
   -3.0951    1.4757    1.8629 O   0  0  0  0  0  0  0  0  0  0  0  0
    7.6426    3.8441   -2.2659 N   0  0  0  0  0  0  0  0  0  0  0  0
    6.7601    3.3626   -1.8066 N   0  0  0  0  0  0  0  0  0  0  0  0
    3.6548    0.1680   -0.7001 S   0  0  0  0  0  0  0  0  0  0  0  0
    3.6617    1.7594   -1.0232 O   0  0  0  0  0  0  0  0  0  0  0  0
    4.5620    2.0945   -0.8590 H   0  0  0  0  0  0  0  0  0  0  0  0
    2.7758   -0.4556   -1.6629 O   0  0  0  0  0  0  0  0  0  0  0  0
    5.0168   -0.2542   -0.4508 O   0  0  0  0  0  0  0  0  0  0  0  0
    2.9367    0.1456    0.7839 O   0  0  0  0  0  0  0  0  0  0  0  0
  1  6  1  0  0  0  0
  2  1  2  0  0  0  0
  2  3  1  0  0  0  0
  3  4  2  0  0  0  0
  4  9  1  0  0  0  0
  4  5  1  0  0  0  0
  5 10  1  0  0  0  0
  6 11  1  0  0  0  0
  6  5  2  0  0  0  0
  7  1  1  0  0  0  0
  8  2  1  0  0  0  0
 11 13  2  0  0  0  0
 12 11  2  0  0  0  0
 14 15  3  0  0  0  0
 16 20  2  0  0  0  0
 16 21  1  0  0  0  0
 17 18  1  0  0  0  0
 17 16  1  0  0  0  0
 19 16  2  0  0  0  0
 21  3  1  0  0  0  0
M  END
