Coordinates from ORCA-job 4-NO2-Ph-N2-HSO4-B3LYPG-6-31G_dp-MTMO-d009-169-n800
 OpenBabel09051908393D

 21 20  0  0  0  0  0  0  0  0999 V2000
   -0.9608   -0.9457    0.9151 C   0  0  0  0  0  0  0  0  0  0  0  0
    0.4061   -1.1643    0.7746 C   0  0  0  0  0  0  0  0  0  0  0  0
    1.2868   -0.1158    1.0422 C   0  0  0  0  0  0  0  0  0  0  0  0
    0.8404    1.1405    1.4504 C   0  0  0  0  0  0  0  0  0  0  0  0
   -0.5261    1.3587    1.5976 C   0  0  0  0  0  0  0  0  0  0  0  0
   -1.4037    0.3108    1.3254 C   0  0  0  0  0  0  0  0  0  0  0  0
   -1.6832   -1.7274    0.7178 H   0  0  0  0  0  0  0  0  0  0  0  0
    0.7905   -2.1257    0.4573 H   0  0  0  0  0  0  0  0  0  0  0  0
    1.5596    1.9251    1.6547 H   0  0  0  0  0  0  0  0  0  0  0  0
   -0.9195    2.3158    1.9152 H   0  0  0  0  0  0  0  0  0  0  0  0
   -2.8507    0.5389    1.4802 N   0  0  0  0  0  0  0  0  0  0  0  0
   -3.6036   -0.4018    1.2354 O   0  0  0  0  0  0  0  0  0  0  0  0
   -3.2137    1.6559    1.8451 O   0  0  0  0  0  0  0  0  0  0  0  0
    9.9464    6.3466   -3.4803 N   0  0  0  0  0  0  0  0  0  0  0  0
    9.1618    5.7245   -3.0125 N   0  0  0  0  0  0  0  0  0  0  0  0
    3.4142   -0.4454   -0.4766 S   0  0  0  0  0  0  0  0  0  0  0  0
    3.3847    1.1048   -0.9637 O   0  0  0  0  0  0  0  0  0  0  0  0
    4.1903    1.5347   -0.6276 H   0  0  0  0  0  0  0  0  0  0  0  0
    2.5712   -1.1739   -1.3954 O   0  0  0  0  0  0  0  0  0  0  0  0
    4.7761   -0.8105   -0.1530 O   0  0  0  0  0  0  0  0  0  0  0  0
    2.6707   -0.3305    0.9902 O   0  0  0  0  0  0  0  0  0  0  0  0
  1  6  1  0  0  0  0
  2  1  2  0  0  0  0
  2  3  1  0  0  0  0
  3  4  2  0  0  0  0
  4  5  1  0  0  0  0
  4  9  1  0  0  0  0
  5 10  1  0  0  0  0
  6 11  1  0  0  0  0
  6  5  2  0  0  0  0
  7  1  1  0  0  0  0
  8  2  1  0  0  0  0
 11 13  2  0  0  0  0
 12 11  2  0  0  0  0
 14 15  3  0  0  0  0
 16 20  2  0  0  0  0
 16 21  1  0  0  0  0
 17 18  1  0  0  0  0
 17 16  1  0  0  0  0
 19 16  2  0  0  0  0
 21  3  1  0  0  0  0
M  END
