Coordinates from ORCA-job 4-NO2-Ph-N2-HSO4-B3LYPG-6-31G_dp-MTMO-d009-169-n800
 OpenBabel09051908393D

 21 20  0  0  0  0  0  0  0  0999 V2000
    0.0569   -0.6534    0.1640 C   0  0  0  0  0  0  0  0  0  0  0  0
    1.3883   -0.7245    0.5621 C   0  0  0  0  0  0  0  0  0  0  0  0
    1.9563    0.3711    1.2127 C   0  0  0  0  0  0  0  0  0  0  0  0
    1.2305    1.5311    1.4815 C   0  0  0  0  0  0  0  0  0  0  0  0
   -0.1029    1.6012    1.0899 C   0  0  0  0  0  0  0  0  0  0  0  0
   -0.6663    0.5072    0.4355 C   0  0  0  0  0  0  0  0  0  0  0  0
   -0.4280   -1.4771   -0.3445 H   0  0  0  0  0  0  0  0  0  0  0  0
    1.9849   -1.6077    0.3700 H   0  0  0  0  0  0  0  0  0  0  0  0
    1.7096    2.3569    1.9947 H   0  0  0  0  0  0  0  0  0  0  0  0
   -0.7078    2.4788    1.2795 H   0  0  0  0  0  0  0  0  0  0  0  0
   -2.0773    0.5800    0.0189 N   0  0  0  0  0  0  0  0  0  0  0  0
   -2.5521   -0.3986   -0.5542 O   0  0  0  0  0  0  0  0  0  0  0  0
   -2.6907    1.6160    0.2701 O   0  0  0  0  0  0  0  0  0  0  0  0
    2.0271    1.7933   -2.1410 N   0  0  0  0  0  0  0  0  0  0  0  0
    1.4213    1.7885   -3.0654 N   0  0  0  0  0  0  0  0  0  0  0  0
    4.5336    0.4023    0.6519 S   0  0  0  0  0  0  0  0  0  0  0  0
    4.5181    1.9887    0.3025 O   0  0  0  0  0  0  0  0  0  0  0  0
    5.0652    2.4414    0.9678 H   0  0  0  0  0  0  0  0  0  0  0  0
    4.2127   -0.2877   -0.5755 O   0  0  0  0  0  0  0  0  0  0  0  0
    5.6916    0.1144    1.4701 O   0  0  0  0  0  0  0  0  0  0  0  0
    3.2664    0.2937    1.7015 O   0  0  0  0  0  0  0  0  0  0  0  0
  1  6  2  0  0  0  0
  1  2  1  0  0  0  0
  2  3  2  0  0  0  0
  3  4  1  0  0  0  0
  3 21  1  0  0  0  0
  4  9  1  0  0  0  0
  5 10  1  0  0  0  0
  5  4  2  0  0  0  0
  6  5  1  0  0  0  0
  7  1  1  0  0  0  0
  8  2  1  0  0  0  0
 11 13  2  0  0  0  0
 11  6  1  0  0  0  0
 12 11  2  0  0  0  0
 15 14  3  0  0  0  0
 16 20  2  0  0  0  0
 16 21  1  0  0  0  0
 17 16  1  0  0  0  0
 17 18  1  0  0  0  0
 19 16  2  0  0  0  0
M  END
