Coordinates from ORCA-job 4-NO2-Ph-N2-HSO4-B3LYPG-6-31G_dp-MTMO-d009-169-n800
 OpenBabel09051908393D

 21 20  0  0  0  0  0  0  0  0999 V2000
   -0.6299   -0.8553    0.8180 C   0  0  0  0  0  0  0  0  0  0  0  0
    0.7465   -0.9420    0.6337 C   0  0  0  0  0  0  0  0  0  0  0  0
    1.5325    0.1810    0.8919 C   0  0  0  0  0  0  0  0  0  0  0  0
    0.9834    1.3855    1.3300 C   0  0  0  0  0  0  0  0  0  0  0  0
   -0.3925    1.4723    1.5201 C   0  0  0  0  0  0  0  0  0  0  0  0
   -1.1759    0.3493    1.2595 C   0  0  0  0  0  0  0  0  0  0  0  0
   -1.2816   -1.6990    0.6301 H   0  0  0  0  0  0  0  0  0  0  0  0
    1.2098   -1.8590    0.2905 H   0  0  0  0  0  0  0  0  0  0  0  0
    1.6327    2.2319    1.5215 H   0  0  0  0  0  0  0  0  0  0  0  0
   -0.8638    2.3849    1.8618 H   0  0  0  0  0  0  0  0  0  0  0  0
   -2.6324    0.4379    1.4604 N   0  0  0  0  0  0  0  0  0  0  0  0
   -3.3009   -0.5670    1.2257 O   0  0  0  0  0  0  0  0  0  0  0  0
   -3.0879    1.5115    1.8513 O   0  0  0  0  0  0  0  0  0  0  0  0
    7.7299    4.0203   -2.3257 N   0  0  0  0  0  0  0  0  0  0  0  0
    6.8605    3.5203   -1.8613 N   0  0  0  0  0  0  0  0  0  0  0  0
    3.6464    0.1116   -0.6872 S   0  0  0  0  0  0  0  0  0  0  0  0
    3.6302    1.6999   -1.0280 O   0  0  0  0  0  0  0  0  0  0  0  0
    4.5120    2.0576   -0.8200 H   0  0  0  0  0  0  0  0  0  0  0  0
    2.7768   -0.5309   -1.6457 O   0  0  0  0  0  0  0  0  0  0  0  0
    5.0132   -0.2896   -0.4313 O   0  0  0  0  0  0  0  0  0  0  0  0
    2.9286    0.0942    0.7968 O   0  0  0  0  0  0  0  0  0  0  0  0
  1  6  1  0  0  0  0
  2  1  2  0  0  0  0
  2  3  1  0  0  0  0
  3  4  2  0  0  0  0
  4  5  1  0  0  0  0
  4  9  1  0  0  0  0
  5 10  1  0  0  0  0
  6 11  1  0  0  0  0
  6  5  2  0  0  0  0
  7  1  1  0  0  0  0
  8  2  1  0  0  0  0
 11 13  2  0  0  0  0
 12 11  2  0  0  0  0
 14 15  3  0  0  0  0
 16 20  2  0  0  0  0
 16 21  1  0  0  0  0
 17 18  1  0  0  0  0
 17 16  1  0  0  0  0
 19 16  2  0  0  0  0
 21  3  1  0  0  0  0
M  END
