Coordinates from ORCA-job 4-NO2-Ph-N2-HSO4-B3LYPG-6-31G_dp-MTMO-d009-169-n800
 OpenBabel09051908393D

 21 20  0  0  0  0  0  0  0  0999 V2000
    0.0422   -0.5844    0.0565 C   0  0  0  0  0  0  0  0  0  0  0  0
    1.4042   -0.4626    0.3082 C   0  0  0  0  0  0  0  0  0  0  0  0
    1.8862    0.7409    0.8382 C   0  0  0  0  0  0  0  0  0  0  0  0
    1.0108    1.7542    1.2500 C   0  0  0  0  0  0  0  0  0  0  0  0
   -0.3489    1.6249    1.0074 C   0  0  0  0  0  0  0  0  0  0  0  0
   -0.8151    0.4616    0.3941 C   0  0  0  0  0  0  0  0  0  0  0  0
   -0.3676   -1.4864   -0.3803 H   0  0  0  0  0  0  0  0  0  0  0  0
    2.0830   -1.2659    0.0584 H   0  0  0  0  0  0  0  0  0  0  0  0
    1.4158    2.6391    1.7273 H   0  0  0  0  0  0  0  0  0  0  0  0
   -1.0514    2.3991    1.2880 H   0  0  0  0  0  0  0  0  0  0  0  0
   -2.2530    0.3222    0.1297 N   0  0  0  0  0  0  0  0  0  0  0  0
   -2.6368   -0.7213   -0.3971 O   0  0  0  0  0  0  0  0  0  0  0  0
   -2.9836    1.2590    0.4510 O   0  0  0  0  0  0  0  0  0  0  0  0
    2.3791    1.7192   -1.1405 N   0  0  0  0  0  0  0  0  0  0  0  0
    1.7513    1.9986   -2.0090 N   0  0  0  0  0  0  0  0  0  0  0  0
    4.5594    0.3138    0.6027 S   0  0  0  0  0  0  0  0  0  0  0  0
    5.1722    1.6683   -0.0397 O   0  0  0  0  0  0  0  0  0  0  0  0
    5.7661    2.0647    0.6216 H   0  0  0  0  0  0  0  0  0  0  0  0
    4.2368   -0.5662   -0.4972 O   0  0  0  0  0  0  0  0  0  0  0  0
    5.3945   -0.0710    1.7210 O   0  0  0  0  0  0  0  0  0  0  0  0
    3.1925    0.9077    1.3018 O   0  0  0  0  0  0  0  0  0  0  0  0
  1  2  2  0  0  0  0
  1  6  1  0  0  0  0
  2  3  1  0  0  0  0
  3  4  2  0  0  0  0
  3 21  1  0  0  0  0
  4  9  1  0  0  0  0
  5  4  1  0  0  0  0
  5 10  1  0  0  0  0
  6  5  2  0  0  0  0
  7  1  1  0  0  0  0
  8  2  1  0  0  0  0
 11  6  1  0  0  0  0
 11 13  2  0  0  0  0
 12 11  2  0  0  0  0
 15 14  3  0  0  0  0
 16 21  1  0  0  0  0
 16 20  2  0  0  0  0
 17 16  1  0  0  0  0
 17 18  1  0  0  0  0
 19 16  2  0  0  0  0
M  END
