Coordinates from ORCA-job 4-NO2-Ph-N2-HSO4-B3LYPG-6-31G_dp-MTMO-d009-169-n800
 OpenBabel09051908393D

 21 20  0  0  0  0  0  0  0  0999 V2000
   -0.1493   -0.6807    0.3350 C   0  0  0  0  0  0  0  0  0  0  0  0
    1.2188   -0.7330    0.5841 C   0  0  0  0  0  0  0  0  0  0  0  0
    1.8276    0.3452    1.2267 C   0  0  0  0  0  0  0  0  0  0  0  0
    1.1082    1.4693    1.6308 C   0  0  0  0  0  0  0  0  0  0  0  0
   -0.2610    1.5202    1.3879 C   0  0  0  0  0  0  0  0  0  0  0  0
   -0.8660    0.4436    0.7421 C   0  0  0  0  0  0  0  0  0  0  0  0
   -0.6666   -1.4919   -0.1613 H   0  0  0  0  0  0  0  0  0  0  0  0
    1.8117   -1.5874    0.2823 H   0  0  0  0  0  0  0  0  0  0  0  0
    1.6207    2.2821    2.1325 H   0  0  0  0  0  0  0  0  0  0  0  0
   -0.8614    2.3702    1.6857 H   0  0  0  0  0  0  0  0  0  0  0  0
   -2.3151    0.4957    0.4826 N   0  0  0  0  0  0  0  0  0  0  0  0
   -2.8262   -0.4680   -0.0844 O   0  0  0  0  0  0  0  0  0  0  0  0
   -2.9214    1.5018    0.8471 O   0  0  0  0  0  0  0  0  0  0  0  0
    3.0686    1.7223   -3.4440 N   0  0  0  0  0  0  0  0  0  0  0  0
    4.1016    2.0841   -3.2919 N   0  0  0  0  0  0  0  0  0  0  0  0
    4.3187    0.4850    0.3846 S   0  0  0  0  0  0  0  0  0  0  0  0
    4.1772    2.0756    0.0810 O   0  0  0  0  0  0  0  0  0  0  0  0
    4.7941    2.5451    0.6690 H   0  0  0  0  0  0  0  0  0  0  0  0
    3.8934   -0.1933   -0.8177 O   0  0  0  0  0  0  0  0  0  0  0  0
    5.5775    0.2443    1.0551 O   0  0  0  0  0  0  0  0  0  0  0  0
    3.1867    0.2853    1.5649 O   0  0  0  0  0  0  0  0  0  0  0  0
  1  2  2  0  0  0  0
  1  6  1  0  0  0  0
  2  3  1  0  0  0  0
  3 21  1  0  0  0  0
  3  4  2  0  0  0  0
  4  9  1  0  0  0  0
  5  4  1  0  0  0  0
  5 10  1  0  0  0  0
  6  5  2  0  0  0  0
  7  1  1  0  0  0  0
  8  2  1  0  0  0  0
 11  6  1  0  0  0  0
 11 13  2  0  0  0  0
 12 11  2  0  0  0  0
 14 15  3  0  0  0  0
 16 20  2  0  0  0  0
 16 21  1  0  0  0  0
 17 16  1  0  0  0  0
 17 18  1  0  0  0  0
 19 16  2  0  0  0  0
M  END
