Coordinates from ORCA-job 4-NO2-Ph-N2-HSO4-B3LYPG-6-31G_dp-MTMO-d009-169-n800
 OpenBabel09051908393D

 21 20  0  0  0  0  0  0  0  0999 V2000
   -0.0507   -0.5534    0.1982 C   0  0  0  0  0  0  0  0  0  0  0  0
    1.2250   -0.1094   -0.1539 C   0  0  0  0  0  0  0  0  0  0  0  0
    1.3894    1.2580   -0.1928 C   0  0  0  0  0  0  0  0  0  0  0  0
    0.4412    2.2302    0.0814 C   0  0  0  0  0  0  0  0  0  0  0  0
   -0.8220    1.7618    0.4392 C   0  0  0  0  0  0  0  0  0  0  0  0
   -1.0395    0.3853    0.4860 C   0  0  0  0  0  0  0  0  0  0  0  0
   -0.2800   -1.6099    0.2586 H   0  0  0  0  0  0  0  0  0  0  0  0
    2.0559   -0.7659   -0.3756 H   0  0  0  0  0  0  0  0  0  0  0  0
    0.6666    3.2881    0.0300 H   0  0  0  0  0  0  0  0  0  0  0  0
   -1.6295    2.4420    0.6786 H   0  0  0  0  0  0  0  0  0  0  0  0
   -2.3887   -0.0982    0.8583 N   0  0  0  0  0  0  0  0  0  0  0  0
   -2.5613   -1.3123    0.8865 O   0  0  0  0  0  0  0  0  0  0  0  0
   -3.2388    0.7517    1.1087 O   0  0  0  0  0  0  0  0  0  0  0  0
    2.8280    1.8439   -0.6558 N   0  0  0  0  0  0  0  0  0  0  0  0
    3.3412    2.7785   -1.0029 N   0  0  0  0  0  0  0  0  0  0  0  0
    4.6353    0.1559    0.8824 S   0  0  0  0  0  0  0  0  0  0  0  0
    5.6419    1.4673    0.8425 O   0  0  0  0  0  0  0  0  0  0  0  0
    6.4901    1.1535    0.4901 H   0  0  0  0  0  0  0  0  0  0  0  0
    4.0465    0.1224   -0.5393 O   0  0  0  0  0  0  0  0  0  0  0  0
    5.4774   -1.0144    1.1182 O   0  0  0  0  0  0  0  0  0  0  0  0
    3.6097    0.5402    1.8538 O   0  0  0  0  0  0  0  0  0  0  0  0
  1  7  1  0  0  0  0
  1  6  2  0  0  0  0
  2  1  1  0  0  0  0
  3  2  2  0  0  0  0
  3  4  1  0  0  0  0
  4  5  2  0  0  0  0
  5  6  1  0  0  0  0
  5 10  1  0  0  0  0
  6 11  1  0  0  0  0
  8  2  1  0  0  0  0
  9  4  1  0  0  0  0
 11 12  2  0  0  0  0
 11 13  2  0  0  0  0
 14  3  1  0  0  0  0
 15 14  2  0  0  0  0
 16 20  2  0  0  0  0
 16 21  1  0  0  0  0
 17 16  1  0  0  0  0
 18 17  1  0  0  0  0
 19 16  2  0  0  0  0
M  RAD  2  15   2  21   2
M  END
