Coordinates from ORCA-job 4-NO2-Ph-N2-HSO4-B3LYPG-6-31G_dp-MTMO-d009-169-n800
 OpenBabel09051908393D

 21 20  0  0  0  0  0  0  0  0999 V2000
   -1.0490   -0.9954    0.9651 C   0  0  0  0  0  0  0  0  0  0  0  0
    0.3162   -1.2247    0.8250 C   0  0  0  0  0  0  0  0  0  0  0  0
    1.2043   -0.1790    1.0782 C   0  0  0  0  0  0  0  0  0  0  0  0
    0.7670    1.0853    1.4714 C   0  0  0  0  0  0  0  0  0  0  0  0
   -0.5978    1.3144    1.6180 C   0  0  0  0  0  0  0  0  0  0  0  0
   -1.4828    0.2691    1.3604 C   0  0  0  0  0  0  0  0  0  0  0  0
   -1.7769   -1.7747    0.7788 H   0  0  0  0  0  0  0  0  0  0  0  0
    0.6937   -2.1926    0.5191 H   0  0  0  0  0  0  0  0  0  0  0  0
    1.4917    1.8676    1.6647 H   0  0  0  0  0  0  0  0  0  0  0  0
   -0.9843    2.2779    1.9242 H   0  0  0  0  0  0  0  0  0  0  0  0
   -2.9280    0.5088    1.5147 N   0  0  0  0  0  0  0  0  0  0  0  0
   -3.6875   -0.4300    1.2832 O   0  0  0  0  0  0  0  0  0  0  0  0
   -3.2829    1.6327    1.8660 O   0  0  0  0  0  0  0  0  0  0  0  0
   10.7146    6.9257   -3.8014 N   0  0  0  0  0  0  0  0  0  0  0  0
    9.9281    6.2938   -3.3501 N   0  0  0  0  0  0  0  0  0  0  0  0
    3.3272   -0.5352   -0.4403 S   0  0  0  0  0  0  0  0  0  0  0  0
    3.3123    1.0125   -0.9364 O   0  0  0  0  0  0  0  0  0  0  0  0
    4.1234    1.4356   -0.6050 H   0  0  0  0  0  0  0  0  0  0  0  0
    2.4760   -1.2608   -1.3537 O   0  0  0  0  0  0  0  0  0  0  0  0
    4.6860   -0.9113   -0.1164 O   0  0  0  0  0  0  0  0  0  0  0  0
    2.5865   -0.4043    1.0267 O   0  0  0  0  0  0  0  0  0  0  0  0
  1  6  1  0  0  0  0
  2  1  2  0  0  0  0
  2  3  1  0  0  0  0
  3  4  2  0  0  0  0
  4  5  1  0  0  0  0
  4  9  1  0  0  0  0
  5 10  1  0  0  0  0
  6 11  1  0  0  0  0
  6  5  2  0  0  0  0
  7  1  1  0  0  0  0
  8  2  1  0  0  0  0
 11 13  2  0  0  0  0
 12 11  2  0  0  0  0
 14 15  3  0  0  0  0
 16 20  2  0  0  0  0
 16 21  1  0  0  0  0
 17 18  1  0  0  0  0
 17 16  1  0  0  0  0
 19 16  2  0  0  0  0
 21  3  1  0  0  0  0
M  END
