Coordinates from ORCA-job 4-NO2-Ph-N2-HSO4-B3LYPG-6-31G_dp-MTMO-d009-169-n800
 OpenBabel09051908393D

 21 21  0  0  1  0  0  0  0  0999 V2000
    0.5837   -0.3804    0.4381 C   0  0  0  0  0  0  0  0  0  0  0  0
    1.7095   -0.0240   -0.4826 C   0  0  1  0  0  0  0  0  0  0  0  0
    1.8238    1.5331   -0.7622 C   0  0  0  0  0  0  0  0  0  0  0  0
    0.6148    2.3507   -0.4735 C   0  0  0  0  0  0  0  0  0  0  0  0
   -0.4450    1.8478    0.1794 C   0  0  0  0  0  0  0  0  0  0  0  0
   -0.4167    0.4791    0.6676 C   0  0  0  0  0  0  0  0  0  0  0  0
    0.5661   -1.3820    0.8525 H   0  0  0  0  0  0  0  0  0  0  0  0
    1.5571   -0.5240   -1.4491 H   0  0  0  0  0  0  0  0  0  0  0  0
    0.6549    3.3871   -0.7916 H   0  0  0  0  0  0  0  0  0  0  0  0
   -1.3147    2.4528    0.3992 H   0  0  0  0  0  0  0  0  0  0  0  0
   -1.5546    0.0258    1.4991 N   0  0  0  0  0  0  0  0  0  0  0  0
   -1.5363   -1.1270    1.9186 O   0  0  0  0  0  0  0  0  0  0  0  0
   -2.4485    0.8442    1.7057 O   0  0  0  0  0  0  0  0  0  0  0  0
    2.7138    1.8735   -1.0659 N   0  0  0  0  0  0  0  0  0  0  0  0
    3.8078    2.1742   -1.3881 N   0  0  0  0  0  0  0  0  0  0  0  0
    3.7072   -0.0327    1.3265 S   0  0  0  0  0  0  0  0  0  0  0  0
    5.0459    0.6036    0.7205 O   0  0  0  0  0  0  0  0  0  0  0  0
    4.8242    1.3748    0.1409 H   0  0  0  0  0  0  0  0  0  0  0  0
    2.8555    1.0018    1.8937 O   0  0  0  0  0  0  0  0  0  0  0  0
    2.9875   -0.5508   -0.0898 O   0  0  0  0  0  0  0  0  0  0  0  0
    4.1016   -1.2123    2.0531 O   0  0  0  0  0  0  0  0  0  0  0  0
  1  6  2  0  0  0  0
  1  7  1  0  0  0  0
  2  8  1  6  0  0  0
  2 20  1  0  0  0  0
  2  1  1  0  0  0  0
  3  2  1  0  0  0  0
  3  4  2  0  0  0  0
  4  5  1  0  0  0  0
  5 10  1  0  0  0  0
  5  6  1  0  0  0  0
  6 11  1  0  0  0  0
  9  4  1  0  0  0  0
 11 13  2  0  0  0  0
 11 12  2  0  0  0  0
 14  3  1  0  0  0  0
 15 14  1  0  0  0  0
 16 19  2  0  0  0  0
 16 21  2  0  0  0  0
 17 16  1  0  0  0  0
 18 17  1  0  0  0  0
 20 16  1  0  0  0  0
M  RAD  3   5   2  14   2  15   3
M  END
