Coordinates from ORCA-job 4-NO2-Ph-N2-HSO4-B3LYPG-6-31G_dp-MTMO-d009-169-n800
 OpenBabel09051908393D

 21 20  0  0  0  0  0  0  0  0999 V2000
   -0.6319   -0.8555    0.8189 C   0  0  0  0  0  0  0  0  0  0  0  0
    0.7445   -0.9439    0.6347 C   0  0  0  0  0  0  0  0  0  0  0  0
    1.5317    0.1783    0.8926 C   0  0  0  0  0  0  0  0  0  0  0  0
    0.9839    1.3837    1.3301 C   0  0  0  0  0  0  0  0  0  0  0  0
   -0.3920    1.4721    1.5199 C   0  0  0  0  0  0  0  0  0  0  0  0
   -1.1765    0.3499    1.2597 C   0  0  0  0  0  0  0  0  0  0  0  0
   -1.2845   -1.6986    0.6312 H   0  0  0  0  0  0  0  0  0  0  0  0
    1.2068   -1.8615    0.2920 H   0  0  0  0  0  0  0  0  0  0  0  0
    1.6341    2.2294    1.5213 H   0  0  0  0  0  0  0  0  0  0  0  0
   -0.8623    2.3853    1.8611 H   0  0  0  0  0  0  0  0  0  0  0  0
   -2.6330    0.4402    1.4603 N   0  0  0  0  0  0  0  0  0  0  0  0
   -3.3026   -0.5640    1.2260 O   0  0  0  0  0  0  0  0  0  0  0  0
   -3.0873    1.5145    1.8507 O   0  0  0  0  0  0  0  0  0  0  0  0
    7.7407    4.0368   -2.3295 N   0  0  0  0  0  0  0  0  0  0  0  0
    6.8717    3.5354   -1.8656 N   0  0  0  0  0  0  0  0  0  0  0  0
    3.6452    0.1063   -0.6866 S   0  0  0  0  0  0  0  0  0  0  0  0
    3.6263    1.6941   -1.0298 O   0  0  0  0  0  0  0  0  0  0  0  0
    4.5062    2.0543   -0.8183 H   0  0  0  0  0  0  0  0  0  0  0  0
    2.7765   -0.5388   -1.6441 O   0  0  0  0  0  0  0  0  0  0  0  0
    5.0126   -0.2925   -0.4301 O   0  0  0  0  0  0  0  0  0  0  0  0
    2.9276    0.0900    0.7976 O   0  0  0  0  0  0  0  0  0  0  0  0
  1  6  1  0  0  0  0
  2  1  2  0  0  0  0
  2  3  1  0  0  0  0
  3  4  2  0  0  0  0
  4  5  1  0  0  0  0
  4  9  1  0  0  0  0
  5 10  1  0  0  0  0
  6 11  1  0  0  0  0
  6  5  2  0  0  0  0
  7  1  1  0  0  0  0
  8  2  1  0  0  0  0
 11 13  2  0  0  0  0
 12 11  2  0  0  0  0
 14 15  3  0  0  0  0
 16 20  2  0  0  0  0
 16 21  1  0  0  0  0
 17 18  1  0  0  0  0
 17 16  1  0  0  0  0
 19 16  2  0  0  0  0
 21  3  1  0  0  0  0
M  END
