Coordinates from ORCA-job 4-NO2-Ph-N2-HSO4-B3LYPG-6-31G_dp-MTMO-d009-169-n800
 OpenBabel09051908393D

 21 20  0  0  0  0  0  0  0  0999 V2000
   -1.1808   -1.0763    1.0291 C   0  0  0  0  0  0  0  0  0  0  0  0
    0.1832   -1.3131    0.8901 C   0  0  0  0  0  0  0  0  0  0  0  0
    1.0764   -0.2698    1.1349 C   0  0  0  0  0  0  0  0  0  0  0  0
    0.6454    0.9997    1.5184 C   0  0  0  0  0  0  0  0  0  0  0  0
   -0.7182    1.2363    1.6639 C   0  0  0  0  0  0  0  0  0  0  0  0
   -1.6083    0.1933    1.4149 C   0  0  0  0  0  0  0  0  0  0  0  0
   -1.9125   -1.8535    0.8492 H   0  0  0  0  0  0  0  0  0  0  0  0
    0.5560   -2.2851    0.5914 H   0  0  0  0  0  0  0  0  0  0  0  0
    1.3739    1.7800    1.7052 H   0  0  0  0  0  0  0  0  0  0  0  0
   -1.1000    2.2040    1.9629 H   0  0  0  0  0  0  0  0  0  0  0  0
   -3.0523    0.4410    1.5682 N   0  0  0  0  0  0  0  0  0  0  0  0
   -3.8164   -0.4959    1.3445 O   0  0  0  0  0  0  0  0  0  0  0  0
   -3.4016    1.5694    1.9106 O   0  0  0  0  0  0  0  0  0  0  0  0
   11.9163    7.7680   -4.3240 N   0  0  0  0  0  0  0  0  0  0  0  0
   11.1279    7.1324   -3.8810 N   0  0  0  0  0  0  0  0  0  0  0  0
    3.1970   -0.6432   -0.3823 S   0  0  0  0  0  0  0  0  0  0  0  0
    3.1928    0.9030   -0.8832 O   0  0  0  0  0  0  0  0  0  0  0  0
    4.0076    1.3208   -0.5542 H   0  0  0  0  0  0  0  0  0  0  0  0
    2.3406   -1.3659   -1.2932 O   0  0  0  0  0  0  0  0  0  0  0  0
    4.5533   -1.0275   -0.0576 O   0  0  0  0  0  0  0  0  0  0  0  0
    2.4575   -0.5026    1.0843 O   0  0  0  0  0  0  0  0  0  0  0  0
  1  6  1  0  0  0  0
  2  1  2  0  0  0  0
  2  3  1  0  0  0  0
  3  4  2  0  0  0  0
  4  5  1  0  0  0  0
  4  9  1  0  0  0  0
  5 10  1  0  0  0  0
  6 11  1  0  0  0  0
  6  5  2  0  0  0  0
  7  1  1  0  0  0  0
  8  2  1  0  0  0  0
 11 13  2  0  0  0  0
 12 11  2  0  0  0  0
 14 15  3  0  0  0  0
 16 20  2  0  0  0  0
 16 21  1  0  0  0  0
 17 18  1  0  0  0  0
 17 16  1  0  0  0  0
 19 16  2  0  0  0  0
 21  3  1  0  0  0  0
M  END
