Coordinates from ORCA-job 4-NO2-Ph-N2-HSO4-B3LYPG-6-31G_dp-MTMO-d009-169-n800
 OpenBabel09051908393D

 21 20  0  0  0  0  0  0  0  0999 V2000
   -0.6241   -0.8548    0.8161 C   0  0  0  0  0  0  0  0  0  0  0  0
    0.7525   -0.9368    0.6310 C   0  0  0  0  0  0  0  0  0  0  0  0
    1.5350    0.1884    0.8899 C   0  0  0  0  0  0  0  0  0  0  0  0
    0.9823    1.3908    1.3293 C   0  0  0  0  0  0  0  0  0  0  0  0
   -0.3939    1.4730    1.5200 C   0  0  0  0  0  0  0  0  0  0  0  0
   -1.1737    0.3477    1.2589 C   0  0  0  0  0  0  0  0  0  0  0  0
   -1.2731   -1.7004    0.6277 H   0  0  0  0  0  0  0  0  0  0  0  0
    1.2186   -1.8520    0.2867 H   0  0  0  0  0  0  0  0  0  0  0  0
    1.6289    2.2391    1.5210 H   0  0  0  0  0  0  0  0  0  0  0  0
   -0.8679    2.3838    1.8627 H   0  0  0  0  0  0  0  0  0  0  0  0
   -2.6304    0.4314    1.4606 N   0  0  0  0  0  0  0  0  0  0  0  0
   -3.2958   -0.5755    1.2254 O   0  0  0  0  0  0  0  0  0  0  0  0
   -3.0892    1.5032    1.8526 O   0  0  0  0  0  0  0  0  0  0  0  0
    7.6967    3.9719   -2.3143 N   0  0  0  0  0  0  0  0  0  0  0  0
    6.8264    3.4752   -1.8477 N   0  0  0  0  0  0  0  0  0  0  0  0
    3.6498    0.1275   -0.6896 S   0  0  0  0  0  0  0  0  0  0  0  0
    3.6425    1.7176   -1.0221 O   0  0  0  0  0  0  0  0  0  0  0  0
    4.5298    2.0675   -0.8234 H   0  0  0  0  0  0  0  0  0  0  0  0
    2.7771   -0.5063   -1.6510 O   0  0  0  0  0  0  0  0  0  0  0  0
    5.0146   -0.2821   -0.4360 O   0  0  0  0  0  0  0  0  0  0  0  0
    2.9314    0.1062    0.7943 O   0  0  0  0  0  0  0  0  0  0  0  0
  1  6  1  0  0  0  0
  2  1  2  0  0  0  0
  2  3  1  0  0  0  0
  3  4  2  0  0  0  0
  4  5  1  0  0  0  0
  4  9  1  0  0  0  0
  5 10  1  0  0  0  0
  6 11  1  0  0  0  0
  6  5  2  0  0  0  0
  7  1  1  0  0  0  0
  8  2  1  0  0  0  0
 11 13  2  0  0  0  0
 12 11  2  0  0  0  0
 14 15  3  0  0  0  0
 16 20  2  0  0  0  0
 16 21  1  0  0  0  0
 17 18  1  0  0  0  0
 17 16  1  0  0  0  0
 19 16  2  0  0  0  0
 21  3  1  0  0  0  0
M  END
