Coordinates from ORCA-job 4-NO2-Ph-N2-HSO4-B3LYPG-6-31G_dp-MTMO-d009-169-n800
 OpenBabel09051908393D

 21 20  0  0  0  0  0  0  0  0999 V2000
   -1.2110   -1.0957    1.0429 C   0  0  0  0  0  0  0  0  0  0  0  0
    0.1529   -1.3333    0.9041 C   0  0  0  0  0  0  0  0  0  0  0  0
    1.0466   -0.2902    1.1481 C   0  0  0  0  0  0  0  0  0  0  0  0
    0.6161    0.9798    1.5307 C   0  0  0  0  0  0  0  0  0  0  0  0
   -0.7474    1.2172    1.6759 C   0  0  0  0  0  0  0  0  0  0  0  0
   -1.6379    0.1744    1.4277 C   0  0  0  0  0  0  0  0  0  0  0  0
   -1.9431   -1.8727    0.8636 H   0  0  0  0  0  0  0  0  0  0  0  0
    0.5253   -2.3056    0.6061 H   0  0  0  0  0  0  0  0  0  0  0  0
    1.3450    1.7599    1.7169 H   0  0  0  0  0  0  0  0  0  0  0  0
   -1.1287    2.1853    1.9743 H   0  0  0  0  0  0  0  0  0  0  0  0
   -3.0818    0.4229    1.5808 N   0  0  0  0  0  0  0  0  0  0  0  0
   -3.8463   -0.5138    1.3579 O   0  0  0  0  0  0  0  0  0  0  0  0
   -3.4306    1.5517    1.9224 O   0  0  0  0  0  0  0  0  0  0  0  0
   12.1981    7.9597   -4.4475 N   0  0  0  0  0  0  0  0  0  0  0  0
   11.4095    7.3236   -4.0058 N   0  0  0  0  0  0  0  0  0  0  0  0
    3.1670   -0.6652   -0.3688 S   0  0  0  0  0  0  0  0  0  0  0  0
    3.1639    0.8809   -0.8702 O   0  0  0  0  0  0  0  0  0  0  0  0
    3.9791    1.2981   -0.5413 H   0  0  0  0  0  0  0  0  0  0  0  0
    2.3102   -1.3876   -1.2795 O   0  0  0  0  0  0  0  0  0  0  0  0
    4.5231   -1.0503   -0.0439 O   0  0  0  0  0  0  0  0  0  0  0  0
    2.4275   -0.5237    1.0977 O   0  0  0  0  0  0  0  0  0  0  0  0
  1  6  1  0  0  0  0
  2  1  2  0  0  0  0
  2  3  1  0  0  0  0
  3  4  2  0  0  0  0
  4  5  1  0  0  0  0
  4  9  1  0  0  0  0
  5 10  1  0  0  0  0
  6 11  1  0  0  0  0
  6  5  2  0  0  0  0
  7  1  1  0  0  0  0
  8  2  1  0  0  0  0
 11 13  2  0  0  0  0
 12 11  2  0  0  0  0
 14 15  3  0  0  0  0
 16 20  2  0  0  0  0
 16 21  1  0  0  0  0
 17 18  1  0  0  0  0
 17 16  1  0  0  0  0
 19 16  2  0  0  0  0
 21  3  1  0  0  0  0
M  END
