Coordinates from ORCA-job 4-NO2-Ph-N2-HSO4-B3LYPG-6-31G_dp-MTMO-d009-169-n800
 OpenBabel09051908393D

 21 20  0  0  0  0  0  0  0  0999 V2000
   -1.2411   -1.1152    1.0564 C   0  0  0  0  0  0  0  0  0  0  0  0
    0.1228   -1.3533    0.9177 C   0  0  0  0  0  0  0  0  0  0  0  0
    1.0167   -0.3104    1.1614 C   0  0  0  0  0  0  0  0  0  0  0  0
    0.5867    0.9599    1.5434 C   0  0  0  0  0  0  0  0  0  0  0  0
   -0.7767    1.1978    1.6884 C   0  0  0  0  0  0  0  0  0  0  0  0
   -1.6677    0.1551    1.4406 C   0  0  0  0  0  0  0  0  0  0  0  0
   -1.9734   -1.8920    0.8773 H   0  0  0  0  0  0  0  0  0  0  0  0
    0.4948   -2.3259    0.6202 H   0  0  0  0  0  0  0  0  0  0  0  0
    1.3158    1.7399    1.7293 H   0  0  0  0  0  0  0  0  0  0  0  0
   -1.1578    2.1661    1.9863 H   0  0  0  0  0  0  0  0  0  0  0  0
   -3.1114    0.4042    1.5934 N   0  0  0  0  0  0  0  0  0  0  0  0
   -3.8763   -0.5324    1.3709 O   0  0  0  0  0  0  0  0  0  0  0  0
   -3.4599    1.5333    1.9345 O   0  0  0  0  0  0  0  0  0  0  0  0
   12.4805    8.1505   -4.5715 N   0  0  0  0  0  0  0  0  0  0  0  0
   11.6916    7.5138   -4.1310 N   0  0  0  0  0  0  0  0  0  0  0  0
    3.1372   -0.6865   -0.3553 S   0  0  0  0  0  0  0  0  0  0  0  0
    3.1348    0.8595   -0.8569 O   0  0  0  0  0  0  0  0  0  0  0  0
    3.9502    1.2764   -0.5281 H   0  0  0  0  0  0  0  0  0  0  0  0
    2.2801   -1.4087   -1.2659 O   0  0  0  0  0  0  0  0  0  0  0  0
    4.4930   -1.0721   -0.0301 O   0  0  0  0  0  0  0  0  0  0  0  0
    2.3976   -0.5445    1.1112 O   0  0  0  0  0  0  0  0  0  0  0  0
  1  6  1  0  0  0  0
  2  1  2  0  0  0  0
  2  3  1  0  0  0  0
  3  4  2  0  0  0  0
  4  5  1  0  0  0  0
  4  9  1  0  0  0  0
  5 10  1  0  0  0  0
  6 11  1  0  0  0  0
  6  5  2  0  0  0  0
  7  1  1  0  0  0  0
  8  2  1  0  0  0  0
 11 13  2  0  0  0  0
 12 11  2  0  0  0  0
 14 15  3  0  0  0  0
 16 20  2  0  0  0  0
 16 21  1  0  0  0  0
 17 18  1  0  0  0  0
 17 16  1  0  0  0  0
 19 16  2  0  0  0  0
 21  3  1  0  0  0  0
M  END
