Coordinates from ORCA-job 4-NO2-Ph-N2-HSO4-B3LYPG-6-31G_dp-MTMO-d009-169-n800
 OpenBabel09051908393D

 21 20  0  0  0  0  0  0  0  0999 V2000
   -1.1505   -1.0570    1.0149 C   0  0  0  0  0  0  0  0  0  0  0  0
    0.2137   -1.2928    0.8757 C   0  0  0  0  0  0  0  0  0  0  0  0
    1.1062   -0.2492    1.1217 C   0  0  0  0  0  0  0  0  0  0  0  0
    0.6743    1.0195    1.5067 C   0  0  0  0  0  0  0  0  0  0  0  0
   -0.6894    1.2551    1.6523 C   0  0  0  0  0  0  0  0  0  0  0  0
   -1.5789    0.2118    1.4021 C   0  0  0  0  0  0  0  0  0  0  0  0
   -1.8817   -1.8345    0.8340 H   0  0  0  0  0  0  0  0  0  0  0  0
    0.5871   -2.2642    0.5759 H   0  0  0  0  0  0  0  0  0  0  0  0
    1.4023    1.8001    1.6944 H   0  0  0  0  0  0  0  0  0  0  0  0
   -1.0718    2.2223    1.9524 H   0  0  0  0  0  0  0  0  0  0  0  0
   -3.0230    0.4585    1.5555 N   0  0  0  0  0  0  0  0  0  0  0  0
   -3.7865   -0.4787    1.3307 O   0  0  0  0  0  0  0  0  0  0  0  0
   -3.3731    1.5862    1.8993 O   0  0  0  0  0  0  0  0  0  0  0  0
   11.6350    7.5750   -4.2012 N   0  0  0  0  0  0  0  0  0  0  0  0
   10.8470    6.9401   -3.7568 N   0  0  0  0  0  0  0  0  0  0  0  0
    3.2271   -0.6202   -0.3958 S   0  0  0  0  0  0  0  0  0  0  0  0
    3.2214    0.9262   -0.8959 O   0  0  0  0  0  0  0  0  0  0  0  0
    4.0357    1.3448   -0.5665 H   0  0  0  0  0  0  0  0  0  0  0  0
    2.3714   -1.3432   -1.3069 O   0  0  0  0  0  0  0  0  0  0  0  0
    4.5837   -1.0034   -0.0711 O   0  0  0  0  0  0  0  0  0  0  0  0
    2.4874   -0.4810    1.0710 O   0  0  0  0  0  0  0  0  0  0  0  0
  1  6  1  0  0  0  0
  2  1  2  0  0  0  0
  2  3  1  0  0  0  0
  3  4  2  0  0  0  0
  4  5  1  0  0  0  0
  4  9  1  0  0  0  0
  5 10  1  0  0  0  0
  6 11  1  0  0  0  0
  6  5  2  0  0  0  0
  7  1  1  0  0  0  0
  8  2  1  0  0  0  0
 11 13  2  0  0  0  0
 12 11  2  0  0  0  0
 14 15  3  0  0  0  0
 16 20  2  0  0  0  0
 16 21  1  0  0  0  0
 17 18  1  0  0  0  0
 17 16  1  0  0  0  0
 19 16  2  0  0  0  0
 21  3  1  0  0  0  0
M  END
