Coordinates from ORCA-job 4-NO2-Ph-N2-HSO4-B3LYPG-6-31G_dp-MTMO-d009-169-n800
 OpenBabel09051908393D

 21 20  0  0  0  0  0  0  0  0999 V2000
   -0.5336   -0.8276    0.8288 C   0  0  0  0  0  0  0  0  0  0  0  0
    0.8392   -0.8865    0.6098 C   0  0  0  0  0  0  0  0  0  0  0  0
    1.6056    0.2591    0.8260 C   0  0  0  0  0  0  0  0  0  0  0  0
    1.0393    1.4584    1.2572 C   0  0  0  0  0  0  0  0  0  0  0  0
   -0.3326    1.5171    1.4828 C   0  0  0  0  0  0  0  0  0  0  0  0
   -1.0963    0.3719    1.2631 C   0  0  0  0  0  0  0  0  0  0  0  0
   -1.1700   -1.6896    0.6737 H   0  0  0  0  0  0  0  0  0  0  0  0
    1.3144   -1.7987    0.2706 H   0  0  0  0  0  0  0  0  0  0  0  0
    1.6734    2.3228    1.4161 H   0  0  0  0  0  0  0  0  0  0  0  0
   -0.8158    2.4247    1.8210 H   0  0  0  0  0  0  0  0  0  0  0  0
   -2.5484    0.4309    1.5011 N   0  0  0  0  0  0  0  0  0  0  0  0
   -3.1997   -0.5927    1.3013 O   0  0  0  0  0  0  0  0  0  0  0  0
   -3.0185    1.5006    1.8858 O   0  0  0  0  0  0  0  0  0  0  0  0
    7.3005    3.5230   -1.6846 N   0  0  0  0  0  0  0  0  0  0  0  0
    6.3042    3.1231   -1.4257 N   0  0  0  0  0  0  0  0  0  0  0  0
    3.6742    0.1770   -0.8089 S   0  0  0  0  0  0  0  0  0  0  0  0
    3.5167    1.7259   -1.2526 O   0  0  0  0  0  0  0  0  0  0  0  0
    4.3737    2.1721   -1.1100 H   0  0  0  0  0  0  0  0  0  0  0  0
    2.8368   -0.6033   -1.6915 O   0  0  0  0  0  0  0  0  0  0  0  0
    5.0748   -0.0995   -0.5681 O   0  0  0  0  0  0  0  0  0  0  0  0
    2.9998    0.2068    0.6962 O   0  0  0  0  0  0  0  0  0  0  0  0
  1  6  2  0  0  0  0
  2  3  2  0  0  0  0
  2  1  1  0  0  0  0
  3  4  1  0  0  0  0
  4  9  1  0  0  0  0
  4  5  2  0  0  0  0
  5 10  1  0  0  0  0
  6  5  1  0  0  0  0
  6 11  1  0  0  0  0
  7  1  1  0  0  0  0
  8  2  1  0  0  0  0
 11 13  2  0  0  0  0
 12 11  2  0  0  0  0
 14 15  3  0  0  0  0
 16 20  2  0  0  0  0
 16 21  1  0  0  0  0
 17 18  1  0  0  0  0
 17 16  1  0  0  0  0
 19 16  2  0  0  0  0
 21  3  1  0  0  0  0
M  END
