Coordinates from ORCA-job 4-NO2-Ph-N2-HSO4-B3LYPG-6-31G_dp-MTMO-d009-169-n800
 OpenBabel09051908393D

 21 20  0  0  0  0  0  0  0  0999 V2000
   -1.3429   -1.1824    1.1009 C   0  0  0  0  0  0  0  0  0  0  0  0
    0.0210   -1.4210    0.9629 C   0  0  0  0  0  0  0  0  0  0  0  0
    0.9152   -0.3783    1.2065 C   0  0  0  0  0  0  0  0  0  0  0  0
    0.4854    0.8922    1.5879 C   0  0  0  0  0  0  0  0  0  0  0  0
   -0.8780    1.1306    1.7323 C   0  0  0  0  0  0  0  0  0  0  0  0
   -1.7691    0.0882    1.4845 C   0  0  0  0  0  0  0  0  0  0  0  0
   -2.0753   -1.9591    0.9218 H   0  0  0  0  0  0  0  0  0  0  0  0
    0.3928   -2.3938    0.6658 H   0  0  0  0  0  0  0  0  0  0  0  0
    1.2147    1.6720    1.7738 H   0  0  0  0  0  0  0  0  0  0  0  0
   -1.2588    2.0992    2.0297 H   0  0  0  0  0  0  0  0  0  0  0  0
   -3.2128    0.3378    1.6367 N   0  0  0  0  0  0  0  0  0  0  0  0
   -3.9779   -0.5986    1.4142 O   0  0  0  0  0  0  0  0  0  0  0  0
   -3.5611    1.4671    1.9772 O   0  0  0  0  0  0  0  0  0  0  0  0
   13.4430    8.7947   -4.9952 N   0  0  0  0  0  0  0  0  0  0  0  0
   12.6535    8.1566   -4.5579 N   0  0  0  0  0  0  0  0  0  0  0  0
    3.0362   -0.7555   -0.3092 S   0  0  0  0  0  0  0  0  0  0  0  0
    3.0346    0.7905   -0.8110 O   0  0  0  0  0  0  0  0  0  0  0  0
    3.8501    1.2071   -0.4819 H   0  0  0  0  0  0  0  0  0  0  0  0
    2.1791   -1.4773   -1.2201 O   0  0  0  0  0  0  0  0  0  0  0  0
    4.3917   -1.1416    0.0165 O   0  0  0  0  0  0  0  0  0  0  0  0
    2.2960   -0.6129    1.1569 O   0  0  0  0  0  0  0  0  0  0  0  0
  1  6  1  0  0  0  0
  2  1  2  0  0  0  0
  2  3  1  0  0  0  0
  3  4  2  0  0  0  0
  4  5  1  0  0  0  0
  4  9  1  0  0  0  0
  5 10  1  0  0  0  0
  6 11  1  0  0  0  0
  6  5  2  0  0  0  0
  7  1  1  0  0  0  0
  8  2  1  0  0  0  0
 11 13  2  0  0  0  0
 12 11  2  0  0  0  0
 14 15  3  0  0  0  0
 16 20  2  0  0  0  0
 16 21  1  0  0  0  0
 17 18  1  0  0  0  0
 17 16  1  0  0  0  0
 19 16  2  0  0  0  0
 21  3  1  0  0  0  0
M  END
