Coordinates from ORCA-job 4-NO2-Ph-N2-HSO4-B3LYPG-6-31G_dp-MTMO-d009-169-n800
 OpenBabel09051908393D

 21 20  0  0  0  0  0  0  0  0999 V2000
   -1.0832   -1.0153    0.9817 C   0  0  0  0  0  0  0  0  0  0  0  0
    0.2816   -1.2475    0.8422 C   0  0  0  0  0  0  0  0  0  0  0  0
    1.1716   -0.2029    1.0928 C   0  0  0  0  0  0  0  0  0  0  0  0
    0.7367    1.0633    1.4829 C   0  0  0  0  0  0  0  0  0  0  0  0
   -0.6276    1.2952    1.6290 C   0  0  0  0  0  0  0  0  0  0  0  0
   -1.5146    0.2509    1.3740 C   0  0  0  0  0  0  0  0  0  0  0  0
   -1.8125   -1.7937    0.7974 H   0  0  0  0  0  0  0  0  0  0  0  0
    0.6573   -2.2168    0.5386 H   0  0  0  0  0  0  0  0  0  0  0  0
    1.4629    1.8447    1.6743 H   0  0  0  0  0  0  0  0  0  0  0  0
   -1.0123    2.2602    1.9330 H   0  0  0  0  0  0  0  0  0  0  0  0
   -2.9593    0.4937    1.5279 N   0  0  0  0  0  0  0  0  0  0  0  0
   -3.7206   -0.4442    1.2986 O   0  0  0  0  0  0  0  0  0  0  0  0
   -3.3122    1.6191    1.8764 O   0  0  0  0  0  0  0  0  0  0  0  0
   11.0193    7.1451   -3.9340 N   0  0  0  0  0  0  0  0  0  0  0  0
   10.2323    6.5119   -3.4852 N   0  0  0  0  0  0  0  0  0  0  0  0
    3.2938   -0.5657   -0.4250 S   0  0  0  0  0  0  0  0  0  0  0  0
    3.2830    0.9813   -0.9232 O   0  0  0  0  0  0  0  0  0  0  0  0
    4.0956    1.4024   -0.5928 H   0  0  0  0  0  0  0  0  0  0  0  0
    2.4407   -1.2904   -1.3374 O   0  0  0  0  0  0  0  0  0  0  0  0
    4.6516   -0.9448   -0.1006 O   0  0  0  0  0  0  0  0  0  0  0  0
    2.5534   -0.4310    1.0417 O   0  0  0  0  0  0  0  0  0  0  0  0
  1  6  1  0  0  0  0
  2  1  2  0  0  0  0
  2  3  1  0  0  0  0
  3  4  2  0  0  0  0
  4  5  1  0  0  0  0
  4  9  1  0  0  0  0
  5 10  1  0  0  0  0
  6 11  1  0  0  0  0
  6  5  2  0  0  0  0
  7  1  1  0  0  0  0
  8  2  1  0  0  0  0
 11 13  2  0  0  0  0
 12 11  2  0  0  0  0
 14 15  3  0  0  0  0
 16 20  2  0  0  0  0
 16 21  1  0  0  0  0
 17 18  1  0  0  0  0
 17 16  1  0  0  0  0
 19 16  2  0  0  0  0
 21  3  1  0  0  0  0
M  END
