Coordinates from ORCA-job 4-NO2-Ph-N2-HSO4-B3LYPG-6-31G_dp-MTMO-d009-169-n800
 OpenBabel09051908393D

 21 21  0  0  1  0  0  0  0  0999 V2000
    0.0345   -0.5784    0.0354 C   0  0  0  0  0  0  0  0  0  0  0  0
    1.3951   -0.4526    0.2623 C   0  0  0  0  0  0  0  0  0  0  0  0
    1.9042    0.7930    0.7005 C   0  0  2  0  0  0  0  0  0  0  0  0
    1.0142    1.7645    1.2137 C   0  0  0  0  0  0  0  0  0  0  0  0
   -0.3447    1.6316    0.9934 C   0  0  0  0  0  0  0  0  0  0  0  0
   -0.8188    0.4775    0.3642 C   0  0  2  0  0  0  0  0  0  0  0  0
   -0.3849   -1.4928   -0.3651 H   0  0  0  0  0  0  0  0  0  0  0  0
    2.0755   -1.2582    0.0223 H   0  0  0  0  0  0  0  0  0  0  0  0
    1.4251    2.6387    1.7055 H   0  0  0  0  0  0  0  0  0  0  0  0
   -1.0477    2.3897    1.3143 H   0  0  0  0  0  0  0  0  0  0  0  0
   -2.2568    0.3385    0.1198 N   0  0  0  0  0  0  0  0  0  0  0  0
   -2.6481   -0.7050   -0.4032 O   0  0  0  0  0  0  0  0  0  0  0  0
   -2.9838    1.2760    0.4499 O   0  0  0  0  0  0  0  0  0  0  0  0
    2.3554    1.5937   -0.9409 N   0  0  0  0  0  0  0  0  0  0  0  0
    1.7453    1.8929   -1.8238 N   0  0  0  0  0  0  0  0  0  0  0  0
    4.5738    0.3292    0.5948 S   0  0  0  0  0  0  0  0  0  0  0  0
    5.1779    1.6857   -0.0569 O   0  0  0  0  0  0  0  0  0  0  0  0
    5.7595    2.0967    0.6065 H   0  0  0  0  0  0  0  0  0  0  0  0
    4.2742   -0.5634   -0.5027 O   0  0  0  0  0  0  0  0  0  0  0  0
    5.4013   -0.0329    1.7256 O   0  0  0  0  0  0  0  0  0  0  0  0
    3.1864    0.8910    1.2765 O   0  0  0  0  0  0  0  0  0  0  0  0
  1  2  2  0  0  0  0
  1  6  1  0  0  0  0
  2  3  1  0  0  0  0
  3 14  1  6  0  0  0
  3  4  1  0  0  0  0
  3 21  1  0  0  0  0
  4  9  1  0  0  0  0
  5  4  2  0  0  0  0
  5 10  1  0  0  0  0
  6 11  1  1  0  0  0
  6  5  1  0  0  0  0
  7  1  1  0  0  0  0
  8  2  1  0  0  0  0
 11 13  2  0  0  0  0
 12 11  2  0  0  0  0
 15 14  2  0  0  0  0
 16 21  1  0  0  0  0
 16 20  2  0  0  0  0
 17 16  1  0  0  0  0
 17 18  1  0  0  0  0
 19 16  2  0  0  0  0
M  RAD  2   6   2  15   2
M  END
