Coordinates from ORCA-job 4-NO2-Ph-N2-HSO4-B3LYPG-6-31G_dp-MTMO-d009-169-n800
 OpenBabel09051908393D

 21 20  0  0  0  0  0  0  0  0999 V2000
   -0.9894   -0.9614    0.9320 C   0  0  0  0  0  0  0  0  0  0  0  0
    0.3770   -1.1840    0.7916 C   0  0  0  0  0  0  0  0  0  0  0  0
    1.2603   -0.1365    1.0536 C   0  0  0  0  0  0  0  0  0  0  0  0
    0.8173    1.1230    1.4561 C   0  0  0  0  0  0  0  0  0  0  0  0
   -0.5485    1.3451    1.6031 C   0  0  0  0  0  0  0  0  0  0  0  0
   -1.4289    0.2981    1.3366 C   0  0  0  0  0  0  0  0  0  0  0  0
   -1.7138   -1.7423    0.7390 H   0  0  0  0  0  0  0  0  0  0  0  0
    0.7588   -2.1478    0.4786 H   0  0  0  0  0  0  0  0  0  0  0  0
    1.5385    1.9068    1.6562 H   0  0  0  0  0  0  0  0  0  0  0  0
   -0.9393    2.3047    1.9165 H   0  0  0  0  0  0  0  0  0  0  0  0
   -2.8752    0.5305    1.4915 N   0  0  0  0  0  0  0  0  0  0  0  0
   -3.6306   -0.4096    1.2518 O   0  0  0  0  0  0  0  0  0  0  0  0
   -3.2352    1.6501    1.8512 O   0  0  0  0  0  0  0  0  0  0  0  0
   10.1922    6.5360   -3.5810 N   0  0  0  0  0  0  0  0  0  0  0  0
    9.4067    5.9098   -3.1203 N   0  0  0  0  0  0  0  0  0  0  0  0
    3.3861   -0.4762   -0.4651 S   0  0  0  0  0  0  0  0  0  0  0  0
    3.3619    1.0729   -0.9560 O   0  0  0  0  0  0  0  0  0  0  0  0
    4.1695    1.5004   -0.6217 H   0  0  0  0  0  0  0  0  0  0  0  0
    2.5400   -1.2039   -1.3817 O   0  0  0  0  0  0  0  0  0  0  0  0
    4.7468   -0.8453   -0.1414 O   0  0  0  0  0  0  0  0  0  0  0  0
    2.6436   -0.3550    1.0017 O   0  0  0  0  0  0  0  0  0  0  0  0
  1  6  1  0  0  0  0
  2  1  2  0  0  0  0
  2  3  1  0  0  0  0
  3  4  2  0  0  0  0
  4  5  1  0  0  0  0
  4  9  1  0  0  0  0
  5 10  1  0  0  0  0
  6 11  1  0  0  0  0
  6  5  2  0  0  0  0
  7  1  1  0  0  0  0
  8  2  1  0  0  0  0
 11 13  2  0  0  0  0
 12 11  2  0  0  0  0
 14 15  3  0  0  0  0
 16 20  2  0  0  0  0
 16 21  1  0  0  0  0
 17 18  1  0  0  0  0
 17 16  1  0  0  0  0
 19 16  2  0  0  0  0
 21  3  1  0  0  0  0
M  END
