Coordinates from ORCA-job 4-NO2-Ph-N2-HSO4-B3LYPG-6-31G_dp-MTMO-d009-169-n800
 OpenBabel09051908393D

 21 20  0  0  0  0  0  0  0  0999 V2000
   -0.2055   -0.7004    0.3865 C   0  0  0  0  0  0  0  0  0  0  0  0
    1.1700   -0.7403    0.5931 C   0  0  0  0  0  0  0  0  0  0  0  0
    1.7888    0.3433    1.2167 C   0  0  0  0  0  0  0  0  0  0  0  0
    1.0727    1.4614    1.6424 C   0  0  0  0  0  0  0  0  0  0  0  0
   -0.3039    1.5001    1.4417 C   0  0  0  0  0  0  0  0  0  0  0  0
   -0.9191    0.4178    0.8153 C   0  0  0  0  0  0  0  0  0  0  0  0
   -0.7308   -1.5164   -0.0933 H   0  0  0  0  0  0  0  0  0  0  0  0
    1.7610   -1.5896    0.2735 H   0  0  0  0  0  0  0  0  0  0  0  0
    1.5932    2.2791    2.1275 H   0  0  0  0  0  0  0  0  0  0  0  0
   -0.9022    2.3451    1.7576 H   0  0  0  0  0  0  0  0  0  0  0  0
   -2.3760    0.4569    0.6009 N   0  0  0  0  0  0  0  0  0  0  0  0
   -2.8960   -0.5121    0.0512 O   0  0  0  0  0  0  0  0  0  0  0  0
   -2.9800    1.4570    0.9851 O   0  0  0  0  0  0  0  0  0  0  0  0
    3.6270    1.7990   -3.7205 N   0  0  0  0  0  0  0  0  0  0  0  0
    4.5881    2.0752   -3.2502 N   0  0  0  0  0  0  0  0  0  0  0  0
    4.2497    0.5201    0.2994 S   0  0  0  0  0  0  0  0  0  0  0  0
    4.0905    2.1153    0.0313 O   0  0  0  0  0  0  0  0  0  0  0  0
    4.7336    2.5758    0.5980 H   0  0  0  0  0  0  0  0  0  0  0  0
    3.7870   -0.1390   -0.8997 O   0  0  0  0  0  0  0  0  0  0  0  0
    5.5313    0.2739    0.9231 O   0  0  0  0  0  0  0  0  0  0  0  0
    3.1581    0.2931    1.5126 O   0  0  0  0  0  0  0  0  0  0  0  0
  1  2  2  0  0  0  0
  1  6  1  0  0  0  0
  2  3  1  0  0  0  0
  3 21  1  0  0  0  0
  3  4  2  0  0  0  0
  4  9  1  0  0  0  0
  5  4  1  0  0  0  0
  5 10  1  0  0  0  0
  6  5  2  0  0  0  0
  7  1  1  0  0  0  0
  8  2  1  0  0  0  0
 11  6  1  0  0  0  0
 11 13  2  0  0  0  0
 12 11  2  0  0  0  0
 14 15  3  0  0  0  0
 16 20  2  0  0  0  0
 16 21  1  0  0  0  0
 17 16  1  0  0  0  0
 17 18  1  0  0  0  0
 19 16  2  0  0  0  0
M  END
