Coordinates from ORCA-job 4-NO2-Ph-N2-HSO4-B3LYPG-6-31G_dp-MTMO-d009-169-n800
 OpenBabel09051908393D

 21 20  0  0  0  0  0  0  0  0999 V2000
   -0.6436   -0.8565    0.8213 C   0  0  0  0  0  0  0  0  0  0  0  0
    0.7324   -0.9537    0.6394 C   0  0  0  0  0  0  0  0  0  0  0  0
    1.5263    0.1638    0.8975 C   0  0  0  0  0  0  0  0  0  0  0  0
    0.9854    1.3729    1.3334 C   0  0  0  0  0  0  0  0  0  0  0  0
   -0.3902    1.4701    1.5210 C   0  0  0  0  0  0  0  0  0  0  0  0
   -1.1814    0.3527    1.2604 C   0  0  0  0  0  0  0  0  0  0  0  0
   -1.3012   -1.6956    0.6334 H   0  0  0  0  0  0  0  0  0  0  0  0
    1.1895   -1.8744    0.2981 H   0  0  0  0  0  0  0  0  0  0  0  0
    1.6404    2.2147    1.5253 H   0  0  0  0  0  0  0  0  0  0  0  0
   -0.8552    2.3865    1.8609 H   0  0  0  0  0  0  0  0  0  0  0  0
   -2.6376    0.4523    1.4587 N   0  0  0  0  0  0  0  0  0  0  0  0
   -3.3131   -0.5479    1.2240 O   0  0  0  0  0  0  0  0  0  0  0  0
   -3.0857    1.5297    1.8477 O   0  0  0  0  0  0  0  0  0  0  0  0
    7.8039    4.1302   -2.3607 N   0  0  0  0  0  0  0  0  0  0  0  0
    6.9388    3.6220   -1.8968 N   0  0  0  0  0  0  0  0  0  0  0  0
    3.6391    0.0766   -0.6799 S   0  0  0  0  0  0  0  0  0  0  0  0
    3.6067    1.6613   -1.0367 O   0  0  0  0  0  0  0  0  0  0  0  0
    4.4762    2.0349   -0.8069 H   0  0  0  0  0  0  0  0  0  0  0  0
    2.7760   -0.5819   -1.6331 O   0  0  0  0  0  0  0  0  0  0  0  0
    5.0093   -0.3091   -0.4190 O   0  0  0  0  0  0  0  0  0  0  0  0
    2.9217    0.0668    0.8043 O   0  0  0  0  0  0  0  0  0  0  0  0
  1  6  1  0  0  0  0
  2  1  2  0  0  0  0
  2  3  1  0  0  0  0
  3  4  2  0  0  0  0
  4  5  1  0  0  0  0
  4  9  1  0  0  0  0
  5 10  1  0  0  0  0
  6 11  1  0  0  0  0
  6  5  2  0  0  0  0
  7  1  1  0  0  0  0
  8  2  1  0  0  0  0
 11 13  2  0  0  0  0
 12 11  2  0  0  0  0
 14 15  3  0  0  0  0
 16 20  2  0  0  0  0
 16 21  1  0  0  0  0
 17 18  1  0  0  0  0
 17 16  1  0  0  0  0
 19 16  2  0  0  0  0
 21  3  1  0  0  0  0
M  END
