Coordinates from ORCA-job 4-NO2-Ph-N2-HSO4-B3LYPG-6-31G_dp-MTMO-d009-169-n800
 OpenBabel09051908393D

 21 21  0  0  1  0  0  0  0  0999 V2000
    0.5722   -0.5073    0.0982 C   0  0  0  0  0  0  0  0  0  0  0  0
    1.7114    0.0490   -0.6710 C   0  0  1  0  0  0  0  0  0  0  0  0
    1.4864    1.4791   -0.9091 C   0  0  1  0  0  0  0  0  0  0  0  0
    0.5696    2.3188   -0.2213 C   0  0  0  0  0  0  0  0  0  0  0  0
   -0.3424    1.7342    0.6054 C   0  0  0  0  0  0  0  0  0  0  0  0
   -0.3251    0.3050    0.7063 C   0  0  0  0  0  0  0  0  0  0  0  0
    0.4931   -1.5816    0.2018 H   0  0  0  0  0  0  0  0  0  0  0  0
    1.9436   -0.5283   -1.5667 H   0  0  0  0  0  0  0  0  0  0  0  0
    0.6038    3.3926   -0.3679 H   0  0  0  0  0  0  0  0  0  0  0  0
   -1.0720    2.3031    1.1622 H   0  0  0  0  0  0  0  0  0  0  0  0
   -1.3987   -0.3347    1.5068 N   0  0  0  0  0  0  0  0  0  0  0  0
   -1.4245   -1.5609    1.5626 O   0  0  0  0  0  0  0  0  0  0  0  0
   -2.1998    0.4136    2.0622 O   0  0  0  0  0  0  0  0  0  0  0  0
    2.4059    2.1225   -1.8751 N   0  0  0  0  0  0  0  0  0  0  0  0
    3.1153    2.5950   -2.6104 N   0  0  0  0  0  0  0  0  0  0  0  0
    3.5733    0.6551    1.2709 S   0  0  0  0  0  0  0  0  0  0  0  0
    4.7147   -0.3347    1.8652 O   0  0  0  0  0  0  0  0  0  0  0  0
    5.5451   -0.1301    1.4037 H   0  0  0  0  0  0  0  0  0  0  0  0
    4.2402    1.8251    0.7059 O   0  0  0  0  0  0  0  0  0  0  0  0
    3.0701   -0.2914    0.0705 O   0  0  0  0  0  0  0  0  0  0  0  0
    2.5553    0.7914    2.2919 O   0  0  0  0  0  0  0  0  0  0  0  0
  1  7  1  0  0  0  0
  1  6  2  0  0  0  0
  2  8  1  6  0  0  0
  2 20  1  0  0  0  0
  2  1  1  0  0  0  0
  3 14  1  1  0  0  0
  3  2  1  0  0  0  0
  3  4  1  0  0  0  0
  4  5  2  0  0  0  0
  5  6  1  0  0  0  0
  5 10  1  0  0  0  0
  6 11  1  0  0  0  0
  9  4  1  0  0  0  0
 11 12  2  0  0  0  0
 11 13  2  0  0  0  0
 15 14  1  0  0  0  0
 16 17  1  0  0  0  0
 16 21  2  0  0  0  0
 18 17  1  0  0  0  0
 19 16  2  0  0  0  0
 20 16  1  0  0  0  0
M  RAD  3   3   2  14   2  15   3
M  END
