Coordinates from ORCA-job 4-NO2-Ph-N2-HSO4-B3LYPG-6-31G_dp-MTMO-d009-169-n800
 OpenBabel09051908393D

 21 20  0  0  0  0  0  0  0  0999 V2000
   -0.9545   -0.9423    0.9114 C   0  0  0  0  0  0  0  0  0  0  0  0
    0.4127   -1.1599    0.7707 C   0  0  0  0  0  0  0  0  0  0  0  0
    1.2926   -0.1111    1.0395 C   0  0  0  0  0  0  0  0  0  0  0  0
    0.8453    1.1445    1.4490 C   0  0  0  0  0  0  0  0  0  0  0  0
   -0.5213    1.3617    1.5963 C   0  0  0  0  0  0  0  0  0  0  0  0
   -1.3982    0.3136    1.3230 C   0  0  0  0  0  0  0  0  0  0  0  0
   -1.6763   -1.7242    0.7132 H   0  0  0  0  0  0  0  0  0  0  0  0
    0.7977   -2.1207    0.4525 H   0  0  0  0  0  0  0  0  0  0  0  0
    1.5641    1.9293    1.6543 H   0  0  0  0  0  0  0  0  0  0  0  0
   -0.9152    2.3182    1.9149 H   0  0  0  0  0  0  0  0  0  0  0  0
   -2.8453    0.5405    1.4779 N   0  0  0  0  0  0  0  0  0  0  0  0
   -3.5976   -0.4004    1.2321 O   0  0  0  0  0  0  0  0  0  0  0  0
   -3.2091    1.6569    1.8440 O   0  0  0  0  0  0  0  0  0  0  0  0
    9.8922    6.3041   -3.4579 N   0  0  0  0  0  0  0  0  0  0  0  0
    9.1078    5.6829   -2.9886 N   0  0  0  0  0  0  0  0  0  0  0  0
    3.4205   -0.4383   -0.4792 S   0  0  0  0  0  0  0  0  0  0  0  0
    3.3898    1.1122   -0.9654 O   0  0  0  0  0  0  0  0  0  0  0  0
    4.1950    1.5426   -0.6288 H   0  0  0  0  0  0  0  0  0  0  0  0
    2.5782   -1.1668   -1.3986 O   0  0  0  0  0  0  0  0  0  0  0  0
    4.7826   -0.8025   -0.1557 O   0  0  0  0  0  0  0  0  0  0  0  0
    2.6767   -0.3248    0.9876 O   0  0  0  0  0  0  0  0  0  0  0  0
  1  6  1  0  0  0  0
  2  1  2  0  0  0  0
  2  3  1  0  0  0  0
  3  4  2  0  0  0  0
  4  5  1  0  0  0  0
  4  9  1  0  0  0  0
  5 10  1  0  0  0  0
  6 11  1  0  0  0  0
  6  5  2  0  0  0  0
  7  1  1  0  0  0  0
  8  2  1  0  0  0  0
 11 13  2  0  0  0  0
 12 11  2  0  0  0  0
 14 15  3  0  0  0  0
 16 20  2  0  0  0  0
 16 21  1  0  0  0  0
 17 18  1  0  0  0  0
 17 16  1  0  0  0  0
 19 16  2  0  0  0  0
 21  3  1  0  0  0  0
M  END
