Coordinates from ORCA-job 4-NO2-Ph-N2-HSO4-B3LYPG-6-31G_dp-MTMO-d009-169-n800
 OpenBabel09051908393D

 21 20  0  0  0  0  0  0  0  0999 V2000
   -1.2831   -1.1428    1.0749 C   0  0  0  0  0  0  0  0  0  0  0  0
    0.0808   -1.3812    0.9365 C   0  0  0  0  0  0  0  0  0  0  0  0
    0.9749   -0.3385    1.1800 C   0  0  0  0  0  0  0  0  0  0  0  0
    0.5451    0.9320    1.5615 C   0  0  0  0  0  0  0  0  0  0  0  0
   -0.8182    1.1703    1.7063 C   0  0  0  0  0  0  0  0  0  0  0  0
   -1.7094    0.1278    1.4587 C   0  0  0  0  0  0  0  0  0  0  0  0
   -2.0155   -1.9195    0.8960 H   0  0  0  0  0  0  0  0  0  0  0  0
    0.4526   -2.3540    0.6394 H   0  0  0  0  0  0  0  0  0  0  0  0
    1.2744    1.7119    1.7473 H   0  0  0  0  0  0  0  0  0  0  0  0
   -1.1990    2.1388    2.0038 H   0  0  0  0  0  0  0  0  0  0  0  0
   -3.1531    0.3773    1.6112 N   0  0  0  0  0  0  0  0  0  0  0  0
   -3.9181   -0.5592    1.3889 O   0  0  0  0  0  0  0  0  0  0  0  0
   -3.5013    1.5066    1.9518 O   0  0  0  0  0  0  0  0  0  0  0  0
   12.8765    8.4163   -4.7457 N   0  0  0  0  0  0  0  0  0  0  0  0
   12.0873    7.7791   -4.3067 N   0  0  0  0  0  0  0  0  0  0  0  0
    3.0955   -0.7154   -0.3363 S   0  0  0  0  0  0  0  0  0  0  0  0
    3.0938    0.8305   -0.8381 O   0  0  0  0  0  0  0  0  0  0  0  0
    3.9093    1.2472   -0.5092 H   0  0  0  0  0  0  0  0  0  0  0  0
    2.2383   -1.4374   -1.2470 O   0  0  0  0  0  0  0  0  0  0  0  0
    4.4512   -1.1014   -0.0109 O   0  0  0  0  0  0  0  0  0  0  0  0
    2.3558   -0.5730    1.1300 O   0  0  0  0  0  0  0  0  0  0  0  0
  1  6  1  0  0  0  0
  2  1  2  0  0  0  0
  2  3  1  0  0  0  0
  3  4  2  0  0  0  0
  4  5  1  0  0  0  0
  4  9  1  0  0  0  0
  5 10  1  0  0  0  0
  6 11  1  0  0  0  0
  6  5  2  0  0  0  0
  7  1  1  0  0  0  0
  8  2  1  0  0  0  0
 11 13  2  0  0  0  0
 12 11  2  0  0  0  0
 14 15  3  0  0  0  0
 16 20  2  0  0  0  0
 16 21  1  0  0  0  0
 17 18  1  0  0  0  0
 17 16  1  0  0  0  0
 19 16  2  0  0  0  0
 21  3  1  0  0  0  0
M  END
