Coordinates from ORCA-job 4-NO2-Ph-N2-HSO4-B3LYPG-6-31G_dp-MTMO-d009-169-n800
 OpenBabel09051908393D

 21 20  0  0  0  0  0  0  0  0999 V2000
   -0.0479   -0.5573    0.1631 C   0  0  0  0  0  0  0  0  0  0  0  0
    1.2195   -0.1019   -0.2147 C   0  0  0  0  0  0  0  0  0  0  0  0
    1.3404    1.2602   -0.2077 C   0  0  0  0  0  0  0  0  0  0  0  0
    0.4337    2.2419    0.1083 C   0  0  0  0  0  0  0  0  0  0  0  0
   -0.8197    1.7513    0.4894 C   0  0  0  0  0  0  0  0  0  0  0  0
   -1.0304    0.3729    0.5036 C   0  0  0  0  0  0  0  0  0  0  0  0
   -0.2722   -1.6160    0.2033 H   0  0  0  0  0  0  0  0  0  0  0  0
    2.0584   -0.7372   -0.4719 H   0  0  0  0  0  0  0  0  0  0  0  0
    0.6617    3.2995    0.0785 H   0  0  0  0  0  0  0  0  0  0  0  0
   -1.6223    2.4219    0.7700 H   0  0  0  0  0  0  0  0  0  0  0  0
   -2.3668   -0.1251    0.8992 N   0  0  0  0  0  0  0  0  0  0  0  0
   -2.5357   -1.3401    0.8960 O   0  0  0  0  0  0  0  0  0  0  0  0
   -3.2116    0.7143    1.1981 O   0  0  0  0  0  0  0  0  0  0  0  0
    2.9034    1.8892   -0.7854 N   0  0  0  0  0  0  0  0  0  0  0  0
    3.4082    2.8037   -1.1795 N   0  0  0  0  0  0  0  0  0  0  0  0
    4.5853    0.1813    0.8898 S   0  0  0  0  0  0  0  0  0  0  0  0
    5.6592    1.4390    0.8773 O   0  0  0  0  0  0  0  0  0  0  0  0
    6.5160    1.0653    0.6164 H   0  0  0  0  0  0  0  0  0  0  0  0
    4.1087    0.1013   -0.5640 O   0  0  0  0  0  0  0  0  0  0  0  0
    5.3429   -1.0124    1.2627 O   0  0  0  0  0  0  0  0  0  0  0  0
    3.5068    0.6635    1.7597 O   0  0  0  0  0  0  0  0  0  0  0  0
  1  7  1  0  0  0  0
  1  6  2  0  0  0  0
  2  3  2  0  0  0  0
  2  1  1  0  0  0  0
  3  4  1  0  0  0  0
  4  5  2  0  0  0  0
  5  6  1  0  0  0  0
  5 10  1  0  0  0  0
  6 11  1  0  0  0  0
  8  2  1  0  0  0  0
  9  4  1  0  0  0  0
 11 13  2  0  0  0  0
 12 11  2  0  0  0  0
 14  3  1  0  0  0  0
 15 14  2  0  0  0  0
 16 20  2  0  0  0  0
 16 21  1  0  0  0  0
 17 16  1  0  0  0  0
 18 17  1  0  0  0  0
 19 16  2  0  0  0  0
M  RAD  2  15   2  21   2
M  END
