Coordinates from ORCA-job 4-NO2-Ph-N2-HSO4-B3LYPG-6-31G_dp-MTMO-d009-169-n800
 OpenBabel09051908393D

 21 20  0  0  0  0  0  0  0  0999 V2000
   -0.9561   -0.9431    0.9123 C   0  0  0  0  0  0  0  0  0  0  0  0
    0.4110   -1.1610    0.7717 C   0  0  0  0  0  0  0  0  0  0  0  0
    1.2911   -0.1123    1.0401 C   0  0  0  0  0  0  0  0  0  0  0  0
    0.8441    1.1436    1.4493 C   0  0  0  0  0  0  0  0  0  0  0  0
   -0.5225    1.3609    1.5966 C   0  0  0  0  0  0  0  0  0  0  0  0
   -1.3996    0.3129    1.3236 C   0  0  0  0  0  0  0  0  0  0  0  0
   -1.6780   -1.7251    0.7145 H   0  0  0  0  0  0  0  0  0  0  0  0
    0.7959   -2.1220    0.4537 H   0  0  0  0  0  0  0  0  0  0  0  0
    1.5629    1.9283    1.6543 H   0  0  0  0  0  0  0  0  0  0  0  0
   -0.9163    2.3176    1.9149 H   0  0  0  0  0  0  0  0  0  0  0  0
   -2.8467    0.5401    1.4786 N   0  0  0  0  0  0  0  0  0  0  0  0
   -3.5991   -0.4008    1.2331 O   0  0  0  0  0  0  0  0  0  0  0  0
   -3.2103    1.6566    1.8443 O   0  0  0  0  0  0  0  0  0  0  0  0
    9.9059    6.3147   -3.4634 N   0  0  0  0  0  0  0  0  0  0  0  0
    9.1213    5.6932   -2.9945 N   0  0  0  0  0  0  0  0  0  0  0  0
    3.4189   -0.4401   -0.4786 S   0  0  0  0  0  0  0  0  0  0  0  0
    3.3886    1.1103   -0.9651 O   0  0  0  0  0  0  0  0  0  0  0  0
    4.1938    1.5406   -0.6286 H   0  0  0  0  0  0  0  0  0  0  0  0
    2.5765   -1.1686   -1.3978 O   0  0  0  0  0  0  0  0  0  0  0  0
    4.7810   -0.8044   -0.1550 O   0  0  0  0  0  0  0  0  0  0  0  0
    2.6752   -0.3262    0.9882 O   0  0  0  0  0  0  0  0  0  0  0  0
  1  6  1  0  0  0  0
  2  1  2  0  0  0  0
  2  3  1  0  0  0  0
  3  4  2  0  0  0  0
  4  5  1  0  0  0  0
  4  9  1  0  0  0  0
  5 10  1  0  0  0  0
  6 11  1  0  0  0  0
  6  5  2  0  0  0  0
  7  1  1  0  0  0  0
  8  2  1  0  0  0  0
 11 13  2  0  0  0  0
 12 11  2  0  0  0  0
 14 15  3  0  0  0  0
 16 20  2  0  0  0  0
 16 21  1  0  0  0  0
 17 18  1  0  0  0  0
 17 16  1  0  0  0  0
 19 16  2  0  0  0  0
 21  3  1  0  0  0  0
M  END
