Coordinates from ORCA-job 4-NO2-Ph-N2-HSO4-B3LYPG-6-31G_dp-MTMO-d009-169-n800
 OpenBabel09051908393D

 21 20  0  0  0  0  0  0  0  0999 V2000
   -0.8659   -0.8994    0.8575 C   0  0  0  0  0  0  0  0  0  0  0  0
    0.5040   -1.0980    0.7153 C   0  0  0  0  0  0  0  0  0  0  0  0
    1.3708   -0.0438    1.0048 C   0  0  0  0  0  0  0  0  0  0  0  0
    0.9077    1.1986    1.4366 C   0  0  0  0  0  0  0  0  0  0  0  0
   -0.4616    1.3966    1.5855 C   0  0  0  0  0  0  0  0  0  0  0  0
   -1.3254    0.3432    1.2913 C   0  0  0  0  0  0  0  0  0  0  0  0
   -1.5779   -1.6862    0.6436 H   0  0  0  0  0  0  0  0  0  0  0  0
    0.9010   -2.0481    0.3800 H   0  0  0  0  0  0  0  0  0  0  0  0
    1.6167    1.9880    1.6575 H   0  0  0  0  0  0  0  0  0  0  0  0
   -0.8675    2.3423    1.9209 H   0  0  0  0  0  0  0  0  0  0  0  0
   -2.7754    0.5498    1.4479 N   0  0  0  0  0  0  0  0  0  0  0  0
   -3.5159   -0.3955    1.1838 O   0  0  0  0  0  0  0  0  0  0  0  0
   -3.1533    1.6549    1.8337 O   0  0  0  0  0  0  0  0  0  0  0  0
    9.1795    5.6989   -3.1655 N   0  0  0  0  0  0  0  0  0  0  0  0
    8.3924    5.0998   -2.6725 N   0  0  0  0  0  0  0  0  0  0  0  0
    3.5048   -0.3237   -0.5155 S   0  0  0  0  0  0  0  0  0  0  0  0
    3.4509    1.2315   -0.9839 O   0  0  0  0  0  0  0  0  0  0  0  0
    4.2485    1.6711   -0.6413 H   0  0  0  0  0  0  0  0  0  0  0  0
    2.6751   -1.0544   -1.4446 O   0  0  0  0  0  0  0  0  0  0  0  0
    4.8718   -0.6713   -0.1944 O   0  0  0  0  0  0  0  0  0  0  0  0
    2.7575   -0.2390    0.9515 O   0  0  0  0  0  0  0  0  0  0  0  0
  1  6  1  0  0  0  0
  2  1  2  0  0  0  0
  2  3  1  0  0  0  0
  3  4  2  0  0  0  0
  4  5  1  0  0  0  0
  4  9  1  0  0  0  0
  5 10  1  0  0  0  0
  6 11  1  0  0  0  0
  6  5  2  0  0  0  0
  7  1  1  0  0  0  0
  8  2  1  0  0  0  0
 11 13  2  0  0  0  0
 12 11  2  0  0  0  0
 14 15  3  0  0  0  0
 16 20  2  0  0  0  0
 16 21  1  0  0  0  0
 17 18  1  0  0  0  0
 17 16  1  0  0  0  0
 19 16  2  0  0  0  0
 21  3  1  0  0  0  0
M  END
