Coordinates from ORCA-job 4-NO2-Ph-N2-HSO4-B3LYPG-6-31G_dp-MTMO-d009-169-n800
 OpenBabel09051908393D

 21 20  0  0  0  0  0  0  0  0999 V2000
   -0.1731   -0.6827    0.3505 C   0  0  0  0  0  0  0  0  0  0  0  0
    1.1984   -0.7292    0.5813 C   0  0  0  0  0  0  0  0  0  0  0  0
    1.8092    0.3467    1.2257 C   0  0  0  0  0  0  0  0  0  0  0  0
    1.0888    1.4629    1.6493 C   0  0  0  0  0  0  0  0  0  0  0  0
   -0.2839    1.5079    1.4247 C   0  0  0  0  0  0  0  0  0  0  0  0
   -0.8910    0.4337    0.7770 C   0  0  0  0  0  0  0  0  0  0  0  0
   -0.6923   -1.4925   -0.1464 H   0  0  0  0  0  0  0  0  0  0  0  0
    1.7921   -1.5774    0.2642 H   0  0  0  0  0  0  0  0  0  0  0  0
    1.6031    2.2742    2.1515 H   0  0  0  0  0  0  0  0  0  0  0  0
   -0.8851    2.3518    1.7380 H   0  0  0  0  0  0  0  0  0  0  0  0
   -2.3436    0.4797    0.5366 N   0  0  0  0  0  0  0  0  0  0  0  0
   -2.8567   -0.4825   -0.0313 O   0  0  0  0  0  0  0  0  0  0  0  0
   -2.9511    1.4783    0.9190 O   0  0  0  0  0  0  0  0  0  0  0  0
    3.3254    1.7202   -3.6044 N   0  0  0  0  0  0  0  0  0  0  0  0
    4.3254    2.0839   -3.3060 N   0  0  0  0  0  0  0  0  0  0  0  0
    4.2898    0.5020    0.3531 S   0  0  0  0  0  0  0  0  0  0  0  0
    4.1390    2.0936    0.0599 O   0  0  0  0  0  0  0  0  0  0  0  0
    4.7605    2.5621    0.6438 H   0  0  0  0  0  0  0  0  0  0  0  0
    3.8529   -0.1713   -0.8479 O   0  0  0  0  0  0  0  0  0  0  0  0
    5.5569    0.2618    1.0078 O   0  0  0  0  0  0  0  0  0  0  0  0
    3.1728    0.2922    1.5460 O   0  0  0  0  0  0  0  0  0  0  0  0
  1  2  2  0  0  0  0
  1  6  1  0  0  0  0
  2  3  1  0  0  0  0
  3 21  1  0  0  0  0
  3  4  2  0  0  0  0
  4  9  1  0  0  0  0
  5  4  1  0  0  0  0
  5 10  1  0  0  0  0
  6  5  2  0  0  0  0
  7  1  1  0  0  0  0
  8  2  1  0  0  0  0
 11  6  1  0  0  0  0
 11 13  2  0  0  0  0
 12 11  2  0  0  0  0
 14 15  3  0  0  0  0
 16 20  2  0  0  0  0
 16 21  1  0  0  0  0
 17 16  1  0  0  0  0
 17 18  1  0  0  0  0
 19 16  2  0  0  0  0
M  END
