Coordinates from ORCA-job 4-NO2-Ph-N2-HSO4-B3LYPG-6-31G_dp-MTMO-d009-169-n800
 OpenBabel09051908393D

 21 20  0  0  0  0  0  0  0  0999 V2000
   -0.5502   -0.8373    0.8311 C   0  0  0  0  0  0  0  0  0  0  0  0
    0.8235   -0.9003    0.6190 C   0  0  0  0  0  0  0  0  0  0  0  0
    1.5922    0.2429    0.8382 C   0  0  0  0  0  0  0  0  0  0  0  0
    1.0278    1.4447    1.2644 C   0  0  0  0  0  0  0  0  0  0  0  0
   -0.3452    1.5079    1.4824 C   0  0  0  0  0  0  0  0  0  0  0  0
   -1.1112    0.3647    1.2608 C   0  0  0  0  0  0  0  0  0  0  0  0
   -1.1884   -1.6974    0.6738 H   0  0  0  0  0  0  0  0  0  0  0  0
    1.2980   -1.8144    0.2835 H   0  0  0  0  0  0  0  0  0  0  0  0
    1.6637    2.3075    1.4250 H   0  0  0  0  0  0  0  0  0  0  0  0
   -0.8275    2.4176    1.8165 H   0  0  0  0  0  0  0  0  0  0  0  0
   -2.5644    0.4285    1.4912 N   0  0  0  0  0  0  0  0  0  0  0  0
   -3.2176   -0.5937    1.2902 O   0  0  0  0  0  0  0  0  0  0  0  0
   -3.0333    1.5003    1.8712 O   0  0  0  0  0  0  0  0  0  0  0  0
    7.3388    3.6015   -1.8216 N   0  0  0  0  0  0  0  0  0  0  0  0
    6.3787    3.1625   -1.4971 N   0  0  0  0  0  0  0  0  0  0  0  0
    3.6695    0.1821   -0.7867 S   0  0  0  0  0  0  0  0  0  0  0  0
    3.5749    1.7522   -1.1741 O   0  0  0  0  0  0  0  0  0  0  0  0
    4.4554    2.1520   -1.0391 H   0  0  0  0  0  0  0  0  0  0  0  0
    2.8079   -0.5343   -1.6997 O   0  0  0  0  0  0  0  0  0  0  0  0
    5.0579   -0.1544   -0.5518 O   0  0  0  0  0  0  0  0  0  0  0  0
    2.9869    0.1829    0.7149 O   0  0  0  0  0  0  0  0  0  0  0  0
  1  6  1  0  0  0  0
  2  1  2  0  0  0  0
  2  3  1  0  0  0  0
  3  4  2  0  0  0  0
  4  9  1  0  0  0  0
  4  5  1  0  0  0  0
  5 10  1  0  0  0  0
  6  5  2  0  0  0  0
  6 11  1  0  0  0  0
  7  1  1  0  0  0  0
  8  2  1  0  0  0  0
 11 13  2  0  0  0  0
 12 11  2  0  0  0  0
 14 15  3  0  0  0  0
 16 20  2  0  0  0  0
 16 21  1  0  0  0  0
 17 18  1  0  0  0  0
 17 16  1  0  0  0  0
 19 16  2  0  0  0  0
 21  3  1  0  0  0  0
M  END
