Coordinates from ORCA-job 4-NO2-Ph-N2-HSO4-B3LYPG-6-31G_dp-MTMO-d009-169-n800
 OpenBabel09051908393D

 21 20  0  0  0  0  0  0  0  0999 V2000
   -0.9926   -0.9632    0.9339 C   0  0  0  0  0  0  0  0  0  0  0  0
    0.3737   -1.1862    0.7934 C   0  0  0  0  0  0  0  0  0  0  0  0
    1.2574   -0.1387    1.0549 C   0  0  0  0  0  0  0  0  0  0  0  0
    0.8147    1.1210    1.4568 C   0  0  0  0  0  0  0  0  0  0  0  0
   -0.5511    1.3436    1.6038 C   0  0  0  0  0  0  0  0  0  0  0  0
   -1.4317    0.2967    1.3379 C   0  0  0  0  0  0  0  0  0  0  0  0
   -1.7171   -1.7440    0.7413 H   0  0  0  0  0  0  0  0  0  0  0  0
    0.7553   -2.1503    0.4809 H   0  0  0  0  0  0  0  0  0  0  0  0
    1.5361    1.9047    1.6564 H   0  0  0  0  0  0  0  0  0  0  0  0
   -0.9416    2.3034    1.9167 H   0  0  0  0  0  0  0  0  0  0  0  0
   -2.8780    0.5295    1.4927 N   0  0  0  0  0  0  0  0  0  0  0  0
   -3.6336   -0.4106    1.2536 O   0  0  0  0  0  0  0  0  0  0  0  0
   -3.2377    1.6494    1.8519 O   0  0  0  0  0  0  0  0  0  0  0  0
   10.2196    6.5569   -3.5924 N   0  0  0  0  0  0  0  0  0  0  0  0
    9.4340    5.9301   -3.1323 N   0  0  0  0  0  0  0  0  0  0  0  0
    3.3829   -0.4795   -0.4639 S   0  0  0  0  0  0  0  0  0  0  0  0
    3.3593    1.0695   -0.9551 O   0  0  0  0  0  0  0  0  0  0  0  0
    4.1671    1.4968   -0.6210 H   0  0  0  0  0  0  0  0  0  0  0  0
    2.5365   -1.2071   -1.3802 O   0  0  0  0  0  0  0  0  0  0  0  0
    4.7436   -0.8490   -0.1402 O   0  0  0  0  0  0  0  0  0  0  0  0
    2.6406   -0.3577    1.0030 O   0  0  0  0  0  0  0  0  0  0  0  0
  1  6  1  0  0  0  0
  2  1  2  0  0  0  0
  2  3  1  0  0  0  0
  3  4  2  0  0  0  0
  4  5  1  0  0  0  0
  4  9  1  0  0  0  0
  5 10  1  0  0  0  0
  6 11  1  0  0  0  0
  6  5  2  0  0  0  0
  7  1  1  0  0  0  0
  8  2  1  0  0  0  0
 11 13  2  0  0  0  0
 12 11  2  0  0  0  0
 14 15  3  0  0  0  0
 16 20  2  0  0  0  0
 16 21  1  0  0  0  0
 17 18  1  0  0  0  0
 17 16  1  0  0  0  0
 19 16  2  0  0  0  0
 21  3  1  0  0  0  0
M  END
