Coordinates from ORCA-job 4-NO2-Ph-N2-HSO4-B3LYPG-6-31G_dp-MTMO-d009-169-n800
 OpenBabel09051908393D

 21 20  0  0  0  0  0  0  0  0999 V2000
   -0.7000   -0.8548    0.8149 C   0  0  0  0  0  0  0  0  0  0  0  0
    0.6749   -0.9901    0.6489 C   0  0  0  0  0  0  0  0  0  0  0  0
    1.4974    0.1016    0.9278 C   0  0  0  0  0  0  0  0  0  0  0  0
    0.9857    1.3207    1.3709 C   0  0  0  0  0  0  0  0  0  0  0  0
   -0.3886    1.4556    1.5433 C   0  0  0  0  0  0  0  0  0  0  0  0
   -1.2083    0.3645    1.2605 C   0  0  0  0  0  0  0  0  0  0  0  0
   -1.3790   -1.6727    0.6102 H   0  0  0  0  0  0  0  0  0  0  0  0
    1.1093   -1.9200    0.3033 H   0  0  0  0  0  0  0  0  0  0  0  0
    1.6618    2.1412    1.5813 H   0  0  0  0  0  0  0  0  0  0  0  0
   -0.8314    2.3813    1.8880 H   0  0  0  0  0  0  0  0  0  0  0  0
   -2.6634    0.5040    1.4422 N   0  0  0  0  0  0  0  0  0  0  0  0
   -3.3643   -0.4737    1.1884 O   0  0  0  0  0  0  0  0  0  0  0  0
   -3.0850    1.5898    1.8374 O   0  0  0  0  0  0  0  0  0  0  0  0
    8.0919    4.5571   -2.5612 N   0  0  0  0  0  0  0  0  0  0  0  0
    7.2505    4.0220   -2.0843 N   0  0  0  0  0  0  0  0  0  0  0  0
    3.6187   -0.0584   -0.6285 S   0  0  0  0  0  0  0  0  0  0  0  0
    3.5373    1.5092   -1.0480 O   0  0  0  0  0  0  0  0  0  0  0  0
    4.3580    1.9385   -0.7488 H   0  0  0  0  0  0  0  0  0  0  0  0
    2.7857   -0.7754   -1.5655 O   0  0  0  0  0  0  0  0  0  0  0  0
    4.9961   -0.3933   -0.3387 O   0  0  0  0  0  0  0  0  0  0  0  0
    2.8904   -0.0315    0.8501 O   0  0  0  0  0  0  0  0  0  0  0  0
  1  6  1  0  0  0  0
  2  1  2  0  0  0  0
  2  3  1  0  0  0  0
  3  4  2  0  0  0  0
  4  5  1  0  0  0  0
  4  9  1  0  0  0  0
  5 10  1  0  0  0  0
  6 11  1  0  0  0  0
  6  5  2  0  0  0  0
  7  1  1  0  0  0  0
  8  2  1  0  0  0  0
 11 13  2  0  0  0  0
 12 11  2  0  0  0  0
 14 15  3  0  0  0  0
 16 20  2  0  0  0  0
 16 21  1  0  0  0  0
 17 18  1  0  0  0  0
 17 16  1  0  0  0  0
 19 16  2  0  0  0  0
 21  3  1  0  0  0  0
M  END
