Coordinates from ORCA-job 4-NO2-Ph-N2-HSO4-B3LYPG-6-31G_dp-MTMO-d009-169-n800
 OpenBabel09051908393D

 21 20  0  0  0  0  0  0  0  0999 V2000
   -0.2297   -0.7001    0.3971 C   0  0  0  0  0  0  0  0  0  0  0  0
    1.1492   -0.7326    0.5820 C   0  0  0  0  0  0  0  0  0  0  0  0
    1.7697    0.3472    1.2105 C   0  0  0  0  0  0  0  0  0  0  0  0
    1.0519    1.4541    1.6623 C   0  0  0  0  0  0  0  0  0  0  0  0
   -0.3279    1.4851    1.4834 C   0  0  0  0  0  0  0  0  0  0  0  0
   -0.9448    0.4069    0.8518 C   0  0  0  0  0  0  0  0  0  0  0  0
   -0.7564   -1.5137   -0.0855 H   0  0  0  0  0  0  0  0  0  0  0  0
    1.7412   -1.5731    0.2420 H   0  0  0  0  0  0  0  0  0  0  0  0
    1.5741    2.2691    2.1502 H   0  0  0  0  0  0  0  0  0  0  0  0
   -0.9272    2.3214    1.8198 H   0  0  0  0  0  0  0  0  0  0  0  0
   -2.4050    0.4380    0.6601 N   0  0  0  0  0  0  0  0  0  0  0  0
   -2.9263   -0.5275    0.1054 O   0  0  0  0  0  0  0  0  0  0  0  0
   -3.0103    1.4284    1.0667 O   0  0  0  0  0  0  0  0  0  0  0  0
    3.9202    1.8020   -3.8481 N   0  0  0  0  0  0  0  0  0  0  0  0
    4.8090    2.0249   -3.2305 N   0  0  0  0  0  0  0  0  0  0  0  0
    4.2165    0.5453    0.2578 S   0  0  0  0  0  0  0  0  0  0  0  0
    4.0435    2.1410    0.0018 O   0  0  0  0  0  0  0  0  0  0  0  0
    4.6969    2.6010    0.5569 H   0  0  0  0  0  0  0  0  0  0  0  0
    3.7414   -0.1102   -0.9385 O   0  0  0  0  0  0  0  0  0  0  0  0
    5.5082    0.3036    0.8624 O   0  0  0  0  0  0  0  0  0  0  0  0
    3.1435    0.3046    1.4849 O   0  0  0  0  0  0  0  0  0  0  0  0
  1  2  2  0  0  0  0
  1  6  1  0  0  0  0
  2  3  1  0  0  0  0
  3 21  1  0  0  0  0
  3  4  2  0  0  0  0
  4  9  1  0  0  0  0
  5  4  1  0  0  0  0
  5 10  1  0  0  0  0
  6  5  2  0  0  0  0
  7  1  1  0  0  0  0
  8  2  1  0  0  0  0
 11  6  1  0  0  0  0
 11 13  2  0  0  0  0
 12 11  2  0  0  0  0
 14 15  3  0  0  0  0
 16 20  2  0  0  0  0
 16 21  1  0  0  0  0
 17 16  1  0  0  0  0
 17 18  1  0  0  0  0
 19 16  2  0  0  0  0
M  END
