Coordinates from ORCA-job 4-NO2-Ph-N2-HSO4-B3LYPG-6-31G_dp-MTMO-d009-169-n800
 OpenBabel09051908393D

 21 20  0  0  0  0  0  0  0  0999 V2000
   -0.7826   -0.8689    0.8212 C   0  0  0  0  0  0  0  0  0  0  0  0
    0.5901   -1.0416    0.6720 C   0  0  0  0  0  0  0  0  0  0  0  0
    1.4390    0.0248    0.9696 C   0  0  0  0  0  0  0  0  0  0  0  0
    0.9556    1.2541    1.4162 C   0  0  0  0  0  0  0  0  0  0  0  0
   -0.4164    1.4262    1.5721 C   0  0  0  0  0  0  0  0  0  0  0  0
   -1.2625    0.3608    1.2698 C   0  0  0  0  0  0  0  0  0  0  0  0
   -1.4813   -1.6659    0.6015 H   0  0  0  0  0  0  0  0  0  0  0  0
    1.0027   -1.9808    0.3251 H   0  0  0  0  0  0  0  0  0  0  0  0
    1.6514    2.0536    1.6428 H   0  0  0  0  0  0  0  0  0  0  0  0
   -0.8377    2.3611    1.9187 H   0  0  0  0  0  0  0  0  0  0  0  0
   -2.7154    0.5398    1.4337 N   0  0  0  0  0  0  0  0  0  0  0  0
   -3.4399   -0.4159    1.1629 O   0  0  0  0  0  0  0  0  0  0  0  0
   -3.1115    1.6340    1.8319 O   0  0  0  0  0  0  0  0  0  0  0  0
    8.5899    5.1260   -2.8810 N   0  0  0  0  0  0  0  0  0  0  0  0
    7.7824    4.5612   -2.3805 N   0  0  0  0  0  0  0  0  0  0  0  0
    3.5723   -0.2021   -0.5609 S   0  0  0  0  0  0  0  0  0  0  0  0
    3.4901    1.3562   -1.0141 O   0  0  0  0  0  0  0  0  0  0  0  0
    4.2849    1.8047   -0.6764 H   0  0  0  0  0  0  0  0  0  0  0  0
    2.7516   -0.9383   -1.4938 O   0  0  0  0  0  0  0  0  0  0  0  0
    4.9462   -0.5291   -0.2478 O   0  0  0  0  0  0  0  0  0  0  0  0
    2.8288   -0.1447    0.9093 O   0  0  0  0  0  0  0  0  0  0  0  0
  1  6  1  0  0  0  0
  2  1  2  0  0  0  0
  2  3  1  0  0  0  0
  3  4  2  0  0  0  0
  4  5  1  0  0  0  0
  4  9  1  0  0  0  0
  5 10  1  0  0  0  0
  6 11  1  0  0  0  0
  6  5  2  0  0  0  0
  7  1  1  0  0  0  0
  8  2  1  0  0  0  0
 11 13  2  0  0  0  0
 12 11  2  0  0  0  0
 14 15  3  0  0  0  0
 16 20  2  0  0  0  0
 16 21  1  0  0  0  0
 17 18  1  0  0  0  0
 17 16  1  0  0  0  0
 19 16  2  0  0  0  0
 21  3  1  0  0  0  0
M  END
