Coordinates from ORCA-job 4-NO2-Ph-N2-HSO4-B3LYPG-6-31G_dp-MTMO-d009-169-n800
 OpenBabel09051908393D

 21 20  0  0  0  0  0  0  0  0999 V2000
   -0.0537   -0.6147    0.2013 C   0  0  0  0  0  0  0  0  0  0  0  0
    1.3015   -0.6821    0.5099 C   0  0  0  0  0  0  0  0  0  0  0  0
    1.8767    0.3556    1.2435 C   0  0  0  0  0  0  0  0  0  0  0  0
    1.1359    1.4525    1.6820 C   0  0  0  0  0  0  0  0  0  0  0  0
   -0.2209    1.5176    1.3800 C   0  0  0  0  0  0  0  0  0  0  0  0
   -0.7920    0.4825    0.6421 C   0  0  0  0  0  0  0  0  0  0  0  0
   -0.5452   -1.3944   -0.3667 H   0  0  0  0  0  0  0  0  0  0  0  0
    1.9098   -1.5167    0.1847 H   0  0  0  0  0  0  0  0  0  0  0  0
    1.6218    2.2334    2.2557 H   0  0  0  0  0  0  0  0  0  0  0  0
   -0.8369    2.3479    1.7008 H   0  0  0  0  0  0  0  0  0  0  0  0
   -2.2274    0.5505    0.3184 N   0  0  0  0  0  0  0  0  0  0  0  0
   -2.7091   -0.3781   -0.3278 O   0  0  0  0  0  0  0  0  0  0  0  0
   -2.8530    1.5323    0.7147 O   0  0  0  0  0  0  0  0  0  0  0  0
    2.4878    1.6279   -2.9919 N   0  0  0  0  0  0  0  0  0  0  0  0
    3.3148    1.6055   -3.7247 N   0  0  0  0  0  0  0  0  0  0  0  0
    4.4075    0.5141    0.5235 S   0  0  0  0  0  0  0  0  0  0  0  0
    4.2820    2.1131    0.2616 O   0  0  0  0  0  0  0  0  0  0  0  0
    4.8430    2.5651    0.9157 H   0  0  0  0  0  0  0  0  0  0  0  0
    4.0458   -0.1252   -0.7203 O   0  0  0  0  0  0  0  0  0  0  0  0
    5.6300    0.2495    1.2498 O   0  0  0  0  0  0  0  0  0  0  0  0
    3.2192    0.2790    1.6400 O   0  0  0  0  0  0  0  0  0  0  0  0
  1  2  2  0  0  0  0
  1  6  1  0  0  0  0
  2  3  1  0  0  0  0
  3 21  1  0  0  0  0
  3  4  2  0  0  0  0
  4  9  1  0  0  0  0
  5  4  1  0  0  0  0
  5 10  1  0  0  0  0
  6  5  2  0  0  0  0
  7  1  1  0  0  0  0
  8  2  1  0  0  0  0
 11  6  1  0  0  0  0
 11 13  2  0  0  0  0
 12 11  2  0  0  0  0
 15 14  3  0  0  0  0
 16 20  2  0  0  0  0
 16 21  1  0  0  0  0
 17 16  1  0  0  0  0
 17 18  1  0  0  0  0
 19 16  2  0  0  0  0
M  END
