Coordinates from ORCA-job 4-NO2-Ph-N2-HSO4-B3LYPG-6-31G_dp-MTMO-d009-169-n800
 OpenBabel09051908393D

 21 20  0  0  0  0  0  0  0  0999 V2000
   -1.3235   -1.1695    1.0925 C   0  0  0  0  0  0  0  0  0  0  0  0
    0.0404   -1.4081    0.9543 C   0  0  0  0  0  0  0  0  0  0  0  0
    0.9346   -0.3654    1.1979 C   0  0  0  0  0  0  0  0  0  0  0  0
    0.5049    0.9051    1.5792 C   0  0  0  0  0  0  0  0  0  0  0  0
   -0.8585    1.1436    1.7238 C   0  0  0  0  0  0  0  0  0  0  0  0
   -1.7497    0.1011    1.4761 C   0  0  0  0  0  0  0  0  0  0  0  0
   -2.0559   -1.9462    0.9135 H   0  0  0  0  0  0  0  0  0  0  0  0
    0.4122   -2.3809    0.6573 H   0  0  0  0  0  0  0  0  0  0  0  0
    1.2342    1.6850    1.7651 H   0  0  0  0  0  0  0  0  0  0  0  0
   -1.2393    2.1122    2.0211 H   0  0  0  0  0  0  0  0  0  0  0  0
   -3.1934    0.3508    1.6284 N   0  0  0  0  0  0  0  0  0  0  0  0
   -3.9585   -0.5857    1.4061 O   0  0  0  0  0  0  0  0  0  0  0  0
   -3.5416    1.4801    1.9689 O   0  0  0  0  0  0  0  0  0  0  0  0
   13.2588    8.6719   -4.9140 N   0  0  0  0  0  0  0  0  0  0  0  0
   12.4694    8.0341   -4.4762 N   0  0  0  0  0  0  0  0  0  0  0  0
    3.0554   -0.7426   -0.3181 S   0  0  0  0  0  0  0  0  0  0  0  0
    3.0539    0.8034   -0.8199 O   0  0  0  0  0  0  0  0  0  0  0  0
    3.8693    1.2199   -0.4909 H   0  0  0  0  0  0  0  0  0  0  0  0
    2.1983   -1.4645   -1.2288 O   0  0  0  0  0  0  0  0  0  0  0  0
    4.4110   -1.1287    0.0076 O   0  0  0  0  0  0  0  0  0  0  0  0
    2.3154   -0.6000    1.1482 O   0  0  0  0  0  0  0  0  0  0  0  0
  1  6  1  0  0  0  0
  2  1  2  0  0  0  0
  2  3  1  0  0  0  0
  3  4  2  0  0  0  0
  4  5  1  0  0  0  0
  4  9  1  0  0  0  0
  5 10  1  0  0  0  0
  6 11  1  0  0  0  0
  6  5  2  0  0  0  0
  7  1  1  0  0  0  0
  8  2  1  0  0  0  0
 11 13  2  0  0  0  0
 12 11  2  0  0  0  0
 14 15  3  0  0  0  0
 16 20  2  0  0  0  0
 16 21  1  0  0  0  0
 17 18  1  0  0  0  0
 17 16  1  0  0  0  0
 19 16  2  0  0  0  0
 21  3  1  0  0  0  0
M  END
