Coordinates from ORCA-job 4-NO2-Ph-N2-HSO4-B3LYPG-6-31G_dp-MTMO-d009-169-n800
 OpenBabel09051908393D

 21 20  0  0  0  0  0  0  0  0999 V2000
   -0.0256   -0.6564    0.2178 C   0  0  0  0  0  0  0  0  0  0  0  0
    1.3225   -0.7278    0.5547 C   0  0  0  0  0  0  0  0  0  0  0  0
    1.9053    0.3445    1.2298 C   0  0  0  0  0  0  0  0  0  0  0  0
    1.1799    1.4821    1.5813 C   0  0  0  0  0  0  0  0  0  0  0  0
   -0.1698    1.5526    1.2501 C   0  0  0  0  0  0  0  0  0  0  0  0
   -0.7487    0.4816    0.5719 C   0  0  0  0  0  0  0  0  0  0  0  0
   -0.5227   -1.4622   -0.3070 H   0  0  0  0  0  0  0  0  0  0  0  0
    1.9204   -1.5931    0.2966 H   0  0  0  0  0  0  0  0  0  0  0  0
    1.6717    2.2907    2.1096 H   0  0  0  0  0  0  0  0  0  0  0  0
   -0.7749    2.4135    1.5037 H   0  0  0  0  0  0  0  0  0  0  0  0
   -2.1768    0.5551    0.2183 N   0  0  0  0  0  0  0  0  0  0  0  0
   -2.6647   -0.4027   -0.3787 O   0  0  0  0  0  0  0  0  0  0  0  0
   -2.7907    1.5702    0.5426 O   0  0  0  0  0  0  0  0  0  0  0  0
    2.1559    1.6970   -2.6368 N   0  0  0  0  0  0  0  0  0  0  0  0
    2.8611    1.7578   -3.4855 N   0  0  0  0  0  0  0  0  0  0  0  0
    4.4425    0.4851    0.5445 S   0  0  0  0  0  0  0  0  0  0  0  0
    4.3550    2.0902    0.3022 O   0  0  0  0  0  0  0  0  0  0  0  0
    4.9275    2.5191    0.9618 H   0  0  0  0  0  0  0  0  0  0  0  0
    4.0742   -0.1312   -0.7089 O   0  0  0  0  0  0  0  0  0  0  0  0
    5.6548    0.1866    1.2751 O   0  0  0  0  0  0  0  0  0  0  0  0
    3.2407    0.2628    1.6492 O   0  0  0  0  0  0  0  0  0  0  0  0
  1  2  2  0  0  0  0
  1  6  1  0  0  0  0
  2  3  1  0  0  0  0
  3  4  2  0  0  0  0
  3 21  1  0  0  0  0
  4  9  1  0  0  0  0
  5 10  1  0  0  0  0
  5  4  1  0  0  0  0
  6  5  2  0  0  0  0
  7  1  1  0  0  0  0
  8  2  1  0  0  0  0
 11 13  2  0  0  0  0
 11  6  1  0  0  0  0
 12 11  2  0  0  0  0
 15 14  3  0  0  0  0
 16 20  2  0  0  0  0
 16 21  1  0  0  0  0
 17 16  1  0  0  0  0
 17 18  1  0  0  0  0
 19 16  2  0  0  0  0
M  END
