Coordinates from ORCA-job 4-NO2-Ph-N2-HSO4-B3LYPG-6-31G_dp-MTMO-d009-169-n800
 OpenBabel09051908393D

 21 20  0  0  0  0  0  0  0  0999 V2000
   -0.8777   -0.9045    0.8642 C   0  0  0  0  0  0  0  0  0  0  0  0
    0.4918   -1.1062    0.7224 C   0  0  0  0  0  0  0  0  0  0  0  0
    1.3607   -0.0531    1.0094 C   0  0  0  0  0  0  0  0  0  0  0  0
    0.9002    1.1913    1.4382 C   0  0  0  0  0  0  0  0  0  0  0  0
   -0.4687    1.3924    1.5868 C   0  0  0  0  0  0  0  0  0  0  0  0
   -1.3346    0.3400    1.2952 C   0  0  0  0  0  0  0  0  0  0  0  0
   -1.5913   -1.6904    0.6524 H   0  0  0  0  0  0  0  0  0  0  0  0
    0.8870   -2.0579    0.3894 H   0  0  0  0  0  0  0  0  0  0  0  0
    1.6107    1.9798    1.6572 H   0  0  0  0  0  0  0  0  0  0  0  0
   -0.8727    2.3397    1.9199 H   0  0  0  0  0  0  0  0  0  0  0  0
   -2.7842    0.5499    1.4513 N   0  0  0  0  0  0  0  0  0  0  0  0
   -3.5266   -0.3946    1.1894 O   0  0  0  0  0  0  0  0  0  0  0  0
   -3.1599    1.6566    1.8345 O   0  0  0  0  0  0  0  0  0  0  0  0
    9.2695    5.7803   -3.2034 N   0  0  0  0  0  0  0  0  0  0  0  0
    8.4834    5.1771   -2.7136 N   0  0  0  0  0  0  0  0  0  0  0  0
    3.4941   -0.3402   -0.5103 S   0  0  0  0  0  0  0  0  0  0  0  0
    3.4436    1.2143   -0.9813 O   0  0  0  0  0  0  0  0  0  0  0  0
    4.2423    1.6525   -0.6394 H   0  0  0  0  0  0  0  0  0  0  0  0
    2.6626   -1.0706   -1.4381 O   0  0  0  0  0  0  0  0  0  0  0  0
    4.8603   -0.6900   -0.1885 O   0  0  0  0  0  0  0  0  0  0  0  0
    2.7470   -0.2511    0.9564 O   0  0  0  0  0  0  0  0  0  0  0  0
  1  6  1  0  0  0  0
  2  1  2  0  0  0  0
  2  3  1  0  0  0  0
  3  4  2  0  0  0  0
  4  5  1  0  0  0  0
  4  9  1  0  0  0  0
  5 10  1  0  0  0  0
  6 11  1  0  0  0  0
  6  5  2  0  0  0  0
  7  1  1  0  0  0  0
  8  2  1  0  0  0  0
 11 13  2  0  0  0  0
 12 11  2  0  0  0  0
 14 15  3  0  0  0  0
 16 20  2  0  0  0  0
 16 21  1  0  0  0  0
 17 18  1  0  0  0  0
 17 16  1  0  0  0  0
 19 16  2  0  0  0  0
 21  3  1  0  0  0  0
M  END
