Coordinates from ORCA-job 4-NO2-Ph-N2-HSO4-B3LYPG-6-31G_dp-MTMO-d009-169-n800
 OpenBabel09051908393D

 21 21  0  0  1  0  0  0  0  0999 V2000
    0.5895   -0.5015    0.1111 C   0  0  0  0  0  0  0  0  0  0  0  0
    1.7286    0.0569   -0.6643 C   0  0  1  0  0  0  0  0  0  0  0  0
    1.5113    1.4975   -0.9184 C   0  0  1  0  0  0  0  0  0  0  0  0
    0.5733    2.3248   -0.2298 C   0  0  0  0  0  0  0  0  0  0  0  0
   -0.3375    1.7396    0.5932 C   0  0  0  0  0  0  0  0  0  0  0  0
   -0.3155    0.3084    0.7046 C   0  0  0  0  0  0  0  0  0  0  0  0
    0.5197   -1.5754    0.2254 H   0  0  0  0  0  0  0  0  0  0  0  0
    1.9363   -0.5197   -1.5679 H   0  0  0  0  0  0  0  0  0  0  0  0
    0.5989    3.3987   -0.3793 H   0  0  0  0  0  0  0  0  0  0  0  0
   -1.0738    2.3070    1.1431 H   0  0  0  0  0  0  0  0  0  0  0  0
   -1.3902   -0.3298    1.5047 N   0  0  0  0  0  0  0  0  0  0  0  0
   -1.4116   -1.5557    1.5692 O   0  0  0  0  0  0  0  0  0  0  0  0
   -2.1965    0.4196    2.0509 O   0  0  0  0  0  0  0  0  0  0  0  0
    2.3759    2.1074   -1.8664 N   0  0  0  0  0  0  0  0  0  0  0  0
    3.0740    2.5773   -2.6204 N   0  0  0  0  0  0  0  0  0  0  0  0
    3.5659    0.6472    1.2848 S   0  0  0  0  0  0  0  0  0  0  0  0
    4.7084   -0.3575    1.8465 O   0  0  0  0  0  0  0  0  0  0  0  0
    5.5404   -0.1340    1.3964 H   0  0  0  0  0  0  0  0  0  0  0  0
    4.2269    1.8345    0.7538 O   0  0  0  0  0  0  0  0  0  0  0  0
    3.0712   -0.2734    0.0513 O   0  0  0  0  0  0  0  0  0  0  0  0
    2.5425    0.7435    2.3039 O   0  0  0  0  0  0  0  0  0  0  0  0
  1  7  1  0  0  0  0
  1  6  2  0  0  0  0
  2  8  1  6  0  0  0
  2 20  1  0  0  0  0
  2  1  1  0  0  0  0
  3 14  1  1  0  0  0
  3  2  1  0  0  0  0
  3  4  1  0  0  0  0
  4  5  2  0  0  0  0
  5  6  1  0  0  0  0
  5 10  1  0  0  0  0
  6 11  1  0  0  0  0
  9  4  1  0  0  0  0
 11 12  2  0  0  0  0
 11 13  2  0  0  0  0
 15 14  1  0  0  0  0
 16 17  1  0  0  0  0
 16 21  2  0  0  0  0
 18 17  1  0  0  0  0
 19 16  2  0  0  0  0
 20 16  1  0  0  0  0
M  RAD  3   3   2  14   2  15   3
M  END
