Coordinates from ORCA-job 4-NO2-Ph-N2-HSO4-B3LYPG-6-31G_dp-MTMO-d009-169-n800
 OpenBabel09051908393D

 21 20  0  0  0  0  0  0  0  0999 V2000
   -0.0672   -0.6116    0.2083 C   0  0  0  0  0  0  0  0  0  0  0  0
    1.2902   -0.6770    0.5072 C   0  0  0  0  0  0  0  0  0  0  0  0
    1.8667    0.3562    1.2463 C   0  0  0  0  0  0  0  0  0  0  0  0
    1.1248    1.4462    1.6997 C   0  0  0  0  0  0  0  0  0  0  0  0
   -0.2342    1.5092    1.4074 C   0  0  0  0  0  0  0  0  0  0  0  0
   -0.8066    0.4788    0.6640 C   0  0  0  0  0  0  0  0  0  0  0  0
   -0.5597   -1.3880   -0.3635 H   0  0  0  0  0  0  0  0  0  0  0  0
    1.8992   -1.5065    0.1703 H   0  0  0  0  0  0  0  0  0  0  0  0
    1.6118    2.2236    2.2772 H   0  0  0  0  0  0  0  0  0  0  0  0
   -0.8509    2.3343    1.7401 H   0  0  0  0  0  0  0  0  0  0  0  0
   -2.2443    0.5443    0.3506 N   0  0  0  0  0  0  0  0  0  0  0  0
   -2.7270   -0.3801   -0.3007 O   0  0  0  0  0  0  0  0  0  0  0  0
   -2.8709    1.5202    0.7602 O   0  0  0  0  0  0  0  0  0  0  0  0
    2.6017    1.6369   -3.0940 N   0  0  0  0  0  0  0  0  0  0  0  0
    3.4672    1.5854   -3.7793 N   0  0  0  0  0  0  0  0  0  0  0  0
    4.3930    0.5224    0.5107 S   0  0  0  0  0  0  0  0  0  0  0  0
    4.2610    2.1214    0.2525 O   0  0  0  0  0  0  0  0  0  0  0  0
    4.8241    2.5737    0.9044 H   0  0  0  0  0  0  0  0  0  0  0  0
    4.0261   -0.1159   -0.7321 O   0  0  0  0  0  0  0  0  0  0  0  0
    5.6206    0.2603    1.2293 O   0  0  0  0  0  0  0  0  0  0  0  0
    3.2120    0.2816    1.6337 O   0  0  0  0  0  0  0  0  0  0  0  0
  1  2  2  0  0  0  0
  1  6  1  0  0  0  0
  2  3  1  0  0  0  0
  3 21  1  0  0  0  0
  3  4  2  0  0  0  0
  4  9  1  0  0  0  0
  5  4  1  0  0  0  0
  5 10  1  0  0  0  0
  6  5  2  0  0  0  0
  7  1  1  0  0  0  0
  8  2  1  0  0  0  0
 11  6  1  0  0  0  0
 11 13  2  0  0  0  0
 12 11  2  0  0  0  0
 15 14  3  0  0  0  0
 16 20  2  0  0  0  0
 16 21  1  0  0  0  0
 17 16  1  0  0  0  0
 17 18  1  0  0  0  0
 19 16  2  0  0  0  0
M  END
