Coordinates from ORCA-job 4-NO2-Ph-N2-HSO4-B3LYPG-6-31G_dp-MTMO-d009-169-n800
 OpenBabel09051908393D

 21 20  0  0  0  0  0  0  0  0999 V2000
   -0.3017   -0.7198    0.4491 C   0  0  0  0  0  0  0  0  0  0  0  0
    1.0848   -0.7363    0.5673 C   0  0  0  0  0  0  0  0  0  0  0  0
    1.7217    0.3455    1.1755 C   0  0  0  0  0  0  0  0  0  0  0  0
    1.0133    1.4393    1.6715 C   0  0  0  0  0  0  0  0  0  0  0  0
   -0.3738    1.4547    1.5590 C   0  0  0  0  0  0  0  0  0  0  0  0
   -1.0073    0.3743    0.9477 C   0  0  0  0  0  0  0  0  0  0  0  0
   -0.8410   -1.5356   -0.0151 H   0  0  0  0  0  0  0  0  0  0  0  0
    1.6703   -1.5661    0.1914 H   0  0  0  0  0  0  0  0  0  0  0  0
    1.5486    2.2567    2.1405 H   0  0  0  0  0  0  0  0  0  0  0  0
   -0.9663    2.2807    1.9311 H   0  0  0  0  0  0  0  0  0  0  0  0
   -2.4753    0.3890    0.8259 N   0  0  0  0  0  0  0  0  0  0  0  0
   -3.0109   -0.5777    0.2871 O   0  0  0  0  0  0  0  0  0  0  0  0
   -3.0725    1.3679    1.2708 O   0  0  0  0  0  0  0  0  0  0  0  0
    4.7976    1.7869   -4.0191 N   0  0  0  0  0  0  0  0  0  0  0  0
    5.3094    1.9861   -3.0602 N   0  0  0  0  0  0  0  0  0  0  0  0
    4.1118    0.6138    0.1080 S   0  0  0  0  0  0  0  0  0  0  0  0
    3.8976    2.2129   -0.0869 O   0  0  0  0  0  0  0  0  0  0  0  0
    4.6003    2.6650    0.4114 H   0  0  0  0  0  0  0  0  0  0  0  0
    3.5854   -0.0172   -1.0803 O   0  0  0  0  0  0  0  0  0  0  0  0
    5.4376    0.3792    0.6368 O   0  0  0  0  0  0  0  0  0  0  0  0
    3.1080    0.3160    1.3807 O   0  0  0  0  0  0  0  0  0  0  0  0
  1  2  2  0  0  0  0
  1  6  1  0  0  0  0
  2  3  1  0  0  0  0
  3 21  1  0  0  0  0
  3  4  2  0  0  0  0
  4  9  1  0  0  0  0
  5  4  1  0  0  0  0
  5 10  1  0  0  0  0
  6  5  2  0  0  0  0
  7  1  1  0  0  0  0
  8  2  1  0  0  0  0
 11  6  1  0  0  0  0
 11 13  2  0  0  0  0
 12 11  2  0  0  0  0
 14 15  3  0  0  0  0
 16 20  2  0  0  0  0
 16 21  1  0  0  0  0
 17 16  1  0  0  0  0
 17 18  1  0  0  0  0
 19 16  2  0  0  0  0
M  END
