Coordinates from ORCA-job 4-NO2-Ph-N2-HSO4-B3LYPG-6-31G_dp-MTMO-d009-169-n800
 OpenBabel09051908393D

 21 20  0  0  0  0  0  0  0  0999 V2000
   -1.0178   -0.9773    0.9480 C   0  0  0  0  0  0  0  0  0  0  0  0
    0.3480   -1.2034    0.8077 C   0  0  0  0  0  0  0  0  0  0  0  0
    1.2338   -0.1568    1.0652 C   0  0  0  0  0  0  0  0  0  0  0  0
    0.7938    1.1052    1.4629 C   0  0  0  0  0  0  0  0  0  0  0  0
   -0.5715    1.3309    1.6097 C   0  0  0  0  0  0  0  0  0  0  0  0
   -1.4543    0.2848    1.3478 C   0  0  0  0  0  0  0  0  0  0  0  0
   -1.7440   -1.7574    0.7585 H   0  0  0  0  0  0  0  0  0  0  0  0
    0.7276   -2.1693    0.4984 H   0  0  0  0  0  0  0  0  0  0  0  0
    1.5168    1.8882    1.6595 H   0  0  0  0  0  0  0  0  0  0  0  0
   -0.9601    2.2925    1.9194 H   0  0  0  0  0  0  0  0  0  0  0  0
   -2.9000    0.5210    1.5024 N   0  0  0  0  0  0  0  0  0  0  0  0
   -3.6576   -0.4184    1.2669 O   0  0  0  0  0  0  0  0  0  0  0  0
   -3.2574    1.6428    1.8578 O   0  0  0  0  0  0  0  0  0  0  0  0
   10.4388    6.7224   -3.6843 N   0  0  0  0  0  0  0  0  0  0  0  0
    9.6527    6.0928   -3.2291 N   0  0  0  0  0  0  0  0  0  0  0  0
    3.3581   -0.5053   -0.4534 S   0  0  0  0  0  0  0  0  0  0  0  0
    3.3387    1.0431   -0.9471 O   0  0  0  0  0  0  0  0  0  0  0  0
    4.1481    1.4684   -0.6143 H   0  0  0  0  0  0  0  0  0  0  0  0
    2.5094   -1.2320   -1.3682 O   0  0  0  0  0  0  0  0  0  0  0  0
    4.7178   -0.8779   -0.1295 O   0  0  0  0  0  0  0  0  0  0  0  0
    2.6166   -0.3789    1.0135 O   0  0  0  0  0  0  0  0  0  0  0  0
  1  6  1  0  0  0  0
  2  1  2  0  0  0  0
  2  3  1  0  0  0  0
  3  4  2  0  0  0  0
  4  5  1  0  0  0  0
  4  9  1  0  0  0  0
  5 10  1  0  0  0  0
  6 11  1  0  0  0  0
  6  5  2  0  0  0  0
  7  1  1  0  0  0  0
  8  2  1  0  0  0  0
 11 13  2  0  0  0  0
 12 11  2  0  0  0  0
 14 15  3  0  0  0  0
 16 20  2  0  0  0  0
 16 21  1  0  0  0  0
 17 18  1  0  0  0  0
 17 16  1  0  0  0  0
 19 16  2  0  0  0  0
 21  3  1  0  0  0  0
M  END
