Coordinates from ORCA-job 4-NO2-Ph-N2-HSO4-B3LYPG-6-31G_dp-MTMO-d009-169-n800
 OpenBabel09051908393D

 21 20  0  0  0  0  0  0  0  0999 V2000
   -1.3265   -1.1715    1.0938 C   0  0  0  0  0  0  0  0  0  0  0  0
    0.0374   -1.4101    0.9557 C   0  0  0  0  0  0  0  0  0  0  0  0
    0.9316   -0.3674    1.1992 C   0  0  0  0  0  0  0  0  0  0  0  0
    0.5019    0.9031    1.5805 C   0  0  0  0  0  0  0  0  0  0  0  0
   -0.8615    1.1416    1.7251 C   0  0  0  0  0  0  0  0  0  0  0  0
   -1.7527    0.0991    1.4774 C   0  0  0  0  0  0  0  0  0  0  0  0
   -2.0589   -1.9482    0.9148 H   0  0  0  0  0  0  0  0  0  0  0  0
    0.4092   -2.3829    0.6587 H   0  0  0  0  0  0  0  0  0  0  0  0
    1.2312    1.6830    1.7664 H   0  0  0  0  0  0  0  0  0  0  0  0
   -1.2423    2.1102    2.0224 H   0  0  0  0  0  0  0  0  0  0  0  0
   -3.1964    0.3488    1.6297 N   0  0  0  0  0  0  0  0  0  0  0  0
   -3.9615   -0.5877    1.4073 O   0  0  0  0  0  0  0  0  0  0  0  0
   -3.5446    1.4781    1.9702 O   0  0  0  0  0  0  0  0  0  0  0  0
   13.2872    8.6908   -4.9265 N   0  0  0  0  0  0  0  0  0  0  0  0
   12.4977    8.0529   -4.4888 N   0  0  0  0  0  0  0  0  0  0  0  0
    3.0525   -0.7446   -0.3167 S   0  0  0  0  0  0  0  0  0  0  0  0
    3.0509    0.8014   -0.8185 O   0  0  0  0  0  0  0  0  0  0  0  0
    3.8664    1.2179   -0.4895 H   0  0  0  0  0  0  0  0  0  0  0  0
    2.1954   -1.4665   -1.2275 O   0  0  0  0  0  0  0  0  0  0  0  0
    4.4080   -1.1307    0.0089 O   0  0  0  0  0  0  0  0  0  0  0  0
    2.3125   -0.6020    1.1495 O   0  0  0  0  0  0  0  0  0  0  0  0
  1  6  1  0  0  0  0
  2  1  2  0  0  0  0
  2  3  1  0  0  0  0
  3  4  2  0  0  0  0
  4  5  1  0  0  0  0
  4  9  1  0  0  0  0
  5 10  1  0  0  0  0
  6 11  1  0  0  0  0
  6  5  2  0  0  0  0
  7  1  1  0  0  0  0
  8  2  1  0  0  0  0
 11 13  2  0  0  0  0
 12 11  2  0  0  0  0
 14 15  3  0  0  0  0
 16 20  2  0  0  0  0
 16 21  1  0  0  0  0
 17 18  1  0  0  0  0
 17 16  1  0  0  0  0
 19 16  2  0  0  0  0
 21  3  1  0  0  0  0
M  END
