Coordinates from ORCA-job 4-NO2-Ph-N2-HSO4-B3LYPG-6-31G_dp-MTMO-d009-169-n800
 OpenBabel09051908393D

 21 20  0  0  0  0  0  0  0  0999 V2000
   -0.7038   -0.8550    0.8144 C   0  0  0  0  0  0  0  0  0  0  0  0
    0.6711   -0.9922    0.6494 C   0  0  0  0  0  0  0  0  0  0  0  0
    1.4950    0.0980    0.9298 C   0  0  0  0  0  0  0  0  0  0  0  0
    0.9847    1.3175    1.3736 C   0  0  0  0  0  0  0  0  0  0  0  0
   -0.3895    1.4543    1.5451 C   0  0  0  0  0  0  0  0  0  0  0  0
   -1.2106    0.3647    1.2607 C   0  0  0  0  0  0  0  0  0  0  0  0
   -1.3838   -1.6717    0.6085 H   0  0  0  0  0  0  0  0  0  0  0  0
    1.1044   -1.9225    0.3033 H   0  0  0  0  0  0  0  0  0  0  0  0
    1.6619    2.1368    1.5854 H   0  0  0  0  0  0  0  0  0  0  0  0
   -0.8311    2.3803    1.8903 H   0  0  0  0  0  0  0  0  0  0  0  0
   -2.6656    0.5062    1.4415 N   0  0  0  0  0  0  0  0  0  0  0  0
   -3.3678   -0.4702    1.1863 O   0  0  0  0  0  0  0  0  0  0  0  0
   -3.0859    1.5923    1.8373 O   0  0  0  0  0  0  0  0  0  0  0  0
    8.1133    4.5830   -2.5762 N   0  0  0  0  0  0  0  0  0  0  0  0
    7.2732    4.0469   -2.0981 N   0  0  0  0  0  0  0  0  0  0  0  0
    3.6171   -0.0658   -0.6249 S   0  0  0  0  0  0  0  0  0  0  0  0
    3.5343    1.5010   -1.0472 O   0  0  0  0  0  0  0  0  0  0  0  0
    4.3527    1.9326   -0.7451 H   0  0  0  0  0  0  0  0  0  0  0  0
    2.7855   -0.7851   -1.5614 O   0  0  0  0  0  0  0  0  0  0  0  0
    4.9946   -0.3988   -0.3334 O   0  0  0  0  0  0  0  0  0  0  0  0
    2.8879   -0.0369    0.8532 O   0  0  0  0  0  0  0  0  0  0  0  0
  1  6  1  0  0  0  0
  2  1  2  0  0  0  0
  2  3  1  0  0  0  0
  3  4  2  0  0  0  0
  4  5  1  0  0  0  0
  4  9  1  0  0  0  0
  5 10  1  0  0  0  0
  6 11  1  0  0  0  0
  6  5  2  0  0  0  0
  7  1  1  0  0  0  0
  8  2  1  0  0  0  0
 11 13  2  0  0  0  0
 12 11  2  0  0  0  0
 14 15  3  0  0  0  0
 16 20  2  0  0  0  0
 16 21  1  0  0  0  0
 17 18  1  0  0  0  0
 17 16  1  0  0  0  0
 19 16  2  0  0  0  0
 21  3  1  0  0  0  0
M  END
