Coordinates from ORCA-job 4-NO2-Ph-N2-HSO4-B3LYPG-6-31G_dp-MTMO-d009-169-n800
 OpenBabel09051908393D

 21 20  0  0  0  0  0  0  0  0999 V2000
   -1.1323   -1.0455    1.0060 C   0  0  0  0  0  0  0  0  0  0  0  0
    0.2321   -1.2806    0.8667 C   0  0  0  0  0  0  0  0  0  0  0  0
    1.1240   -0.2368    1.1138 C   0  0  0  0  0  0  0  0  0  0  0  0
    0.6915    1.0314    1.4999 C   0  0  0  0  0  0  0  0  0  0  0  0
   -0.6723    1.2662    1.6456 C   0  0  0  0  0  0  0  0  0  0  0  0
   -1.5613    0.2227    1.3943 C   0  0  0  0  0  0  0  0  0  0  0  0
   -1.8630   -1.8232    0.8244 H   0  0  0  0  0  0  0  0  0  0  0  0
    0.6060   -2.2515    0.5661 H   0  0  0  0  0  0  0  0  0  0  0  0
    1.4192    1.8121    1.6885 H   0  0  0  0  0  0  0  0  0  0  0  0
   -1.0552    2.2329    1.9466 H   0  0  0  0  0  0  0  0  0  0  0  0
   -3.0055    0.4686    1.5479 N   0  0  0  0  0  0  0  0  0  0  0  0
   -3.7686   -0.4687    1.3221 O   0  0  0  0  0  0  0  0  0  0  0  0
   -3.3562    1.5958    1.8927 O   0  0  0  0  0  0  0  0  0  0  0  0
   11.4665    7.4585   -4.1281 N   0  0  0  0  0  0  0  0  0  0  0  0
   10.6787    6.8241   -3.6825 N   0  0  0  0  0  0  0  0  0  0  0  0
    3.2453   -0.6059   -0.4037 S   0  0  0  0  0  0  0  0  0  0  0  0
    3.2385    0.9407   -0.9033 O   0  0  0  0  0  0  0  0  0  0  0  0
    4.0524    1.3598   -0.5735 H   0  0  0  0  0  0  0  0  0  0  0  0
    2.3901   -1.3292   -1.3153 O   0  0  0  0  0  0  0  0  0  0  0  0
    4.6021   -0.9883   -0.0791 O   0  0  0  0  0  0  0  0  0  0  0  0
    2.5054   -0.4679    1.0630 O   0  0  0  0  0  0  0  0  0  0  0  0
  1  6  1  0  0  0  0
  2  1  2  0  0  0  0
  2  3  1  0  0  0  0
  3  4  2  0  0  0  0
  4  5  1  0  0  0  0
  4  9  1  0  0  0  0
  5 10  1  0  0  0  0
  6 11  1  0  0  0  0
  6  5  2  0  0  0  0
  7  1  1  0  0  0  0
  8  2  1  0  0  0  0
 11 13  2  0  0  0  0
 12 11  2  0  0  0  0
 14 15  3  0  0  0  0
 16 20  2  0  0  0  0
 16 21  1  0  0  0  0
 17 18  1  0  0  0  0
 17 16  1  0  0  0  0
 19 16  2  0  0  0  0
 21  3  1  0  0  0  0
M  END
