Coordinates from ORCA-job 4-NO2-Ph-N2-HSO4-B3LYPG-6-31G_dp-MTMO-d009-169-n800
 OpenBabel09051908393D

 21 20  0  0  0  0  0  0  0  0999 V2000
   -0.0011   -0.6707    0.2118 C   0  0  0  0  0  0  0  0  0  0  0  0
    1.3415   -0.7461    0.5690 C   0  0  0  0  0  0  0  0  0  0  0  0
    1.9286    0.3417    1.2147 C   0  0  0  0  0  0  0  0  0  0  0  0
    1.2128    1.4989    1.5181 C   0  0  0  0  0  0  0  0  0  0  0  0
   -0.1315    1.5740    1.1662 C   0  0  0  0  0  0  0  0  0  0  0  0
   -0.7144    0.4875    0.5169 C   0  0  0  0  0  0  0  0  0  0  0  0
   -0.5013   -1.4878   -0.2923 H   0  0  0  0  0  0  0  0  0  0  0  0
    1.9326   -1.6266    0.3486 H   0  0  0  0  0  0  0  0  0  0  0  0
    1.7074    2.3195    2.0247 H   0  0  0  0  0  0  0  0  0  0  0  0
   -0.7295    2.4501    1.3821 H   0  0  0  0  0  0  0  0  0  0  0  0
   -2.1363    0.5663    0.1407 N   0  0  0  0  0  0  0  0  0  0  0  0
   -2.6274   -0.4040   -0.4330 O   0  0  0  0  0  0  0  0  0  0  0  0
   -2.7424    1.5982    0.4242 O   0  0  0  0  0  0  0  0  0  0  0  0
    1.8743    1.7121   -2.3546 N   0  0  0  0  0  0  0  0  0  0  0  0
    2.5440    1.7880   -3.2303 N   0  0  0  0  0  0  0  0  0  0  0  0
    4.4707    0.4687    0.5538 S   0  0  0  0  0  0  0  0  0  0  0  0
    4.4009    2.0752    0.3135 O   0  0  0  0  0  0  0  0  0  0  0  0
    4.9710    2.4977    0.9793 H   0  0  0  0  0  0  0  0  0  0  0  0
    4.1038   -0.1412   -0.7031 O   0  0  0  0  0  0  0  0  0  0  0  0
    5.6752    0.1574    1.2920 O   0  0  0  0  0  0  0  0  0  0  0  0
    3.2588    0.2566    1.6498 O   0  0  0  0  0  0  0  0  0  0  0  0
  1  6  2  0  0  0  0
  1  2  1  0  0  0  0
  2  3  2  0  0  0  0
  3  4  1  0  0  0  0
  3 21  1  0  0  0  0
  4  9  1  0  0  0  0
  5 10  1  0  0  0  0
  5  4  2  0  0  0  0
  6  5  1  0  0  0  0
  7  1  1  0  0  0  0
  8  2  1  0  0  0  0
 11 13  2  0  0  0  0
 11  6  1  0  0  0  0
 12 11  2  0  0  0  0
 15 14  3  0  0  0  0
 16 20  2  0  0  0  0
 16 21  1  0  0  0  0
 17 16  1  0  0  0  0
 17 18  1  0  0  0  0
 19 16  2  0  0  0  0
M  END
