Coordinates from ORCA-job 4-NO2-Ph-N2-HSO4-B3LYPG-6-31G_dp-MTMO-d009-169-n800
 OpenBabel09051908393D

 21 20  0  0  0  0  0  0  0  0999 V2000
   -0.1791   -0.6861    0.3573 C   0  0  0  0  0  0  0  0  0  0  0  0
    1.1932   -0.7315    0.5840 C   0  0  0  0  0  0  0  0  0  0  0  0
    1.8054    0.3460    1.2244 C   0  0  0  0  0  0  0  0  0  0  0  0
    1.0858    1.4627    1.6479 C   0  0  0  0  0  0  0  0  0  0  0  0
   -0.2875    1.5067    1.4274 C   0  0  0  0  0  0  0  0  0  0  0  0
   -0.8961    0.4308    0.7837 C   0  0  0  0  0  0  0  0  0  0  0  0
   -0.6993   -1.4972   -0.1362 H   0  0  0  0  0  0  0  0  0  0  0  0
    1.7864   -1.5801    0.2669 H   0  0  0  0  0  0  0  0  0  0  0  0
    1.6013    2.2753    2.1468 H   0  0  0  0  0  0  0  0  0  0  0  0
   -0.8882    2.3509    1.7407 H   0  0  0  0  0  0  0  0  0  0  0  0
   -2.3495    0.4755    0.5478 N   0  0  0  0  0  0  0  0  0  0  0  0
   -2.8639   -0.4882   -0.0163 O   0  0  0  0  0  0  0  0  0  0  0  0
   -2.9564    1.4746    0.9302 O   0  0  0  0  0  0  0  0  0  0  0  0
    3.3787    1.7322   -3.6274 N   0  0  0  0  0  0  0  0  0  0  0  0
    4.3722    2.0875   -3.2988 N   0  0  0  0  0  0  0  0  0  0  0  0
    4.2826    0.5050    0.3441 S   0  0  0  0  0  0  0  0  0  0  0  0
    4.1313    2.0975    0.0562 O   0  0  0  0  0  0  0  0  0  0  0  0
    4.7574    2.5638    0.6370 H   0  0  0  0  0  0  0  0  0  0  0  0
    3.8406   -0.1648   -0.8569 O   0  0  0  0  0  0  0  0  0  0  0  0
    5.5524    0.2626    0.9930 O   0  0  0  0  0  0  0  0  0  0  0  0
    3.1701    0.2922    1.5407 O   0  0  0  0  0  0  0  0  0  0  0  0
  1  2  2  0  0  0  0
  1  6  1  0  0  0  0
  2  3  1  0  0  0  0
  3 21  1  0  0  0  0
  3  4  2  0  0  0  0
  4  9  1  0  0  0  0
  5  4  1  0  0  0  0
  5 10  1  0  0  0  0
  6  5  2  0  0  0  0
  7  1  1  0  0  0  0
  8  2  1  0  0  0  0
 11  6  1  0  0  0  0
 11 13  2  0  0  0  0
 12 11  2  0  0  0  0
 14 15  3  0  0  0  0
 16 20  2  0  0  0  0
 16 21  1  0  0  0  0
 17 16  1  0  0  0  0
 17 18  1  0  0  0  0
 19 16  2  0  0  0  0
M  END
