Coordinates from ORCA-job 4-NO2-Ph-N2-HSO4-B3LYPG-6-31G_dp-MTMO-d009-169-n800
 OpenBabel09051908393D

 21 20  0  0  0  0  0  0  0  0999 V2000
   -0.6026   -0.8529    0.8129 C   0  0  0  0  0  0  0  0  0  0  0  0
    0.7742   -0.9169    0.6222 C   0  0  0  0  0  0  0  0  0  0  0  0
    1.5431    0.2178    0.8802 C   0  0  0  0  0  0  0  0  0  0  0  0
    0.9768    1.4124    1.3235 C   0  0  0  0  0  0  0  0  0  0  0  0
   -0.3996    1.4765    1.5198 C   0  0  0  0  0  0  0  0  0  0  0  0
   -1.1659    0.3417    1.2600 C   0  0  0  0  0  0  0  0  0  0  0  0
   -1.2415   -1.7064    0.6255 H   0  0  0  0  0  0  0  0  0  0  0  0
    1.2505   -1.8256    0.2746 H   0  0  0  0  0  0  0  0  0  0  0  0
    1.6135    2.2685    1.5138 H   0  0  0  0  0  0  0  0  0  0  0  0
   -0.8839    2.3806    1.8659 H   0  0  0  0  0  0  0  0  0  0  0  0
   -2.6227    0.4063    1.4676 N   0  0  0  0  0  0  0  0  0  0  0  0
   -3.2761   -0.6087    1.2334 O   0  0  0  0  0  0  0  0  0  0  0  0
   -3.0938    1.4714    1.8632 O   0  0  0  0  0  0  0  0  0  0  0  0
    7.6088    3.8032   -2.2460 N   0  0  0  0  0  0  0  0  0  0  0  0
    6.7232    3.3268   -1.7875 N   0  0  0  0  0  0  0  0  0  0  0  0
    3.6578    0.1793   -0.7040 S   0  0  0  0  0  0  0  0  0  0  0  0
    3.6681    1.7715   -1.0221 O   0  0  0  0  0  0  0  0  0  0  0  0
    4.5716    2.1028   -0.8662 H   0  0  0  0  0  0  0  0  0  0  0  0
    2.7768   -0.4401   -1.6678 O   0  0  0  0  0  0  0  0  0  0  0  0
    5.0190   -0.2467   -0.4571 O   0  0  0  0  0  0  0  0  0  0  0  0
    2.9402    0.1540    0.7803 O   0  0  0  0  0  0  0  0  0  0  0  0
  1  6  1  0  0  0  0
  2  1  2  0  0  0  0
  2  3  1  0  0  0  0
  3  4  2  0  0  0  0
  4  9  1  0  0  0  0
  4  5  1  0  0  0  0
  5 10  1  0  0  0  0
  6 11  1  0  0  0  0
  6  5  2  0  0  0  0
  7  1  1  0  0  0  0
  8  2  1  0  0  0  0
 11 13  2  0  0  0  0
 12 11  2  0  0  0  0
 14 15  3  0  0  0  0
 16 20  2  0  0  0  0
 16 21  1  0  0  0  0
 17 18  1  0  0  0  0
 17 16  1  0  0  0  0
 19 16  2  0  0  0  0
 21  3  1  0  0  0  0
M  END
