Coordinates from ORCA-job 4-NO2-Ph-N2-HSO4-B3LYPG-6-31G_dp-MTMO-d009-169-n800
 OpenBabel09051908393D

 21 20  0  0  0  0  0  0  0  0999 V2000
   -0.8574   -0.8958    0.8526 C   0  0  0  0  0  0  0  0  0  0  0  0
    0.5127   -1.0921    0.7100 C   0  0  0  0  0  0  0  0  0  0  0  0
    1.3779   -0.0371    1.0014 C   0  0  0  0  0  0  0  0  0  0  0  0
    0.9130    1.2038    1.4354 C   0  0  0  0  0  0  0  0  0  0  0  0
   -0.4566    1.3995    1.5847 C   0  0  0  0  0  0  0  0  0  0  0  0
   -1.3188    0.3453    1.2887 C   0  0  0  0  0  0  0  0  0  0  0  0
   -1.5683   -1.6833    0.6375 H   0  0  0  0  0  0  0  0  0  0  0  0
    0.9112   -2.0410    0.3731 H   0  0  0  0  0  0  0  0  0  0  0  0
    1.6208    1.9939    1.6576 H   0  0  0  0  0  0  0  0  0  0  0  0
   -0.8639    2.3440    1.9217 H   0  0  0  0  0  0  0  0  0  0  0  0
   -2.7691    0.5494    1.4457 N   0  0  0  0  0  0  0  0  0  0  0  0
   -3.5082   -0.3966    1.1800 O   0  0  0  0  0  0  0  0  0  0  0  0
   -3.1487    1.6533    1.8333 O   0  0  0  0  0  0  0  0  0  0  0  0
    9.1159    5.6399   -3.1384 N   0  0  0  0  0  0  0  0  0  0  0  0
    8.3278    5.0440   -2.6430 N   0  0  0  0  0  0  0  0  0  0  0  0
    3.5124   -0.3115   -0.5193 S   0  0  0  0  0  0  0  0  0  0  0  0
    3.4554    1.2442   -0.9858 O   0  0  0  0  0  0  0  0  0  0  0  0
    4.2524    1.6847   -0.6430 H   0  0  0  0  0  0  0  0  0  0  0  0
    2.6839   -1.0426   -1.4492 O   0  0  0  0  0  0  0  0  0  0  0  0
    4.8801   -0.6566   -0.1984 O   0  0  0  0  0  0  0  0  0  0  0  0
    2.7649   -0.2300    0.9477 O   0  0  0  0  0  0  0  0  0  0  0  0
  1  6  1  0  0  0  0
  2  1  2  0  0  0  0
  2  3  1  0  0  0  0
  3  4  2  0  0  0  0
  4  5  1  0  0  0  0
  4  9  1  0  0  0  0
  5 10  1  0  0  0  0
  6 11  1  0  0  0  0
  6  5  2  0  0  0  0
  7  1  1  0  0  0  0
  8  2  1  0  0  0  0
 11 13  2  0  0  0  0
 12 11  2  0  0  0  0
 14 15  3  0  0  0  0
 16 20  2  0  0  0  0
 16 21  1  0  0  0  0
 17 18  1  0  0  0  0
 17 16  1  0  0  0  0
 19 16  2  0  0  0  0
 21  3  1  0  0  0  0
M  END
