Coordinates from ORCA-job 4-NO2-Ph-N2-HSO4-B3LYPG-6-31G_dp-MTMO-d009-169-n800
 OpenBabel09051908393D

 21 20  0  0  0  0  0  0  0  0999 V2000
    0.0646   -0.6286    0.1180 C   0  0  0  0  0  0  0  0  0  0  0  0
    1.4013   -0.6679    0.5025 C   0  0  0  0  0  0  0  0  0  0  0  0
    1.9485    0.4418    1.1478 C   0  0  0  0  0  0  0  0  0  0  0  0
    1.1936    1.5790    1.4340 C   0  0  0  0  0  0  0  0  0  0  0  0
   -0.1455    1.6154    1.0579 C   0  0  0  0  0  0  0  0  0  0  0  0
   -0.6867    0.5109    0.4025 C   0  0  0  0  0  0  0  0  0  0  0  0
   -0.4042   -1.4635   -0.3873 H   0  0  0  0  0  0  0  0  0  0  0  0
    2.0157   -1.5367    0.3027 H   0  0  0  0  0  0  0  0  0  0  0  0
    1.6559    2.4131    1.9492 H   0  0  0  0  0  0  0  0  0  0  0  0
   -0.7714    2.4751    1.2605 H   0  0  0  0  0  0  0  0  0  0  0  0
   -2.1037    0.5475    0.0027 N   0  0  0  0  0  0  0  0  0  0  0  0
   -2.5585   -0.4408   -0.5702 O   0  0  0  0  0  0  0  0  0  0  0  0
   -2.7420    1.5651    0.2669 O   0  0  0  0  0  0  0  0  0  0  0  0
    2.0455    1.7382   -1.8013 N   0  0  0  0  0  0  0  0  0  0  0  0
    1.3805    1.7392   -2.6843 N   0  0  0  0  0  0  0  0  0  0  0  0
    4.5534    0.3787    0.6358 S   0  0  0  0  0  0  0  0  0  0  0  0
    4.6403    1.9406    0.2023 O   0  0  0  0  0  0  0  0  0  0  0  0
    5.1943    2.3975    0.8589 H   0  0  0  0  0  0  0  0  0  0  0  0
    4.2330   -0.3613   -0.5625 O   0  0  0  0  0  0  0  0  0  0  0  0
    5.6686    0.0740    1.5057 O   0  0  0  0  0  0  0  0  0  0  0  0
    3.2544    0.3984    1.6505 O   0  0  0  0  0  0  0  0  0  0  0  0
  1  6  2  0  0  0  0
  1  2  1  0  0  0  0
  2  3  2  0  0  0  0
  3  4  1  0  0  0  0
  3 21  1  0  0  0  0
  4  9  1  0  0  0  0
  5 10  1  0  0  0  0
  5  4  2  0  0  0  0
  6  5  1  0  0  0  0
  7  1  1  0  0  0  0
  8  2  1  0  0  0  0
 11 13  2  0  0  0  0
 11  6  1  0  0  0  0
 12 11  2  0  0  0  0
 15 14  3  0  0  0  0
 16 20  2  0  0  0  0
 16 21  1  0  0  0  0
 17 16  1  0  0  0  0
 17 18  1  0  0  0  0
 19 16  2  0  0  0  0
M  END
