Coordinates from ORCA-job 4-NO2-Ph-N2-HSO4-B3LYPG-6-31G_dp-MTMO-d009-169-n800
 OpenBabel09051908393D

 21 20  0  0  0  0  0  0  0  0999 V2000
    0.0368   -0.5782    0.0375 C   0  0  0  0  0  0  0  0  0  0  0  0
    1.3979   -0.4535    0.2714 C   0  0  0  0  0  0  0  0  0  0  0  0
    1.8994    0.7804    0.7351 C   0  0  0  0  0  0  0  0  0  0  0  0
    1.0135    1.7621    1.2227 C   0  0  0  0  0  0  0  0  0  0  0  0
   -0.3459    1.6304    0.9963 C   0  0  0  0  0  0  0  0  0  0  0  0
   -0.8175    0.4745    0.3703 C   0  0  0  0  0  0  0  0  0  0  0  0
   -0.3802   -1.4890   -0.3739 H   0  0  0  0  0  0  0  0  0  0  0  0
    2.0779   -1.2583    0.0283 H   0  0  0  0  0  0  0  0  0  0  0  0
    1.4224    2.6386    1.7121 H   0  0  0  0  0  0  0  0  0  0  0  0
   -1.0491    2.3923    1.3075 H   0  0  0  0  0  0  0  0  0  0  0  0
   -2.2559    0.3352    0.1207 N   0  0  0  0  0  0  0  0  0  0  0  0
   -2.6449   -0.7077   -0.4044 O   0  0  0  0  0  0  0  0  0  0  0  0
   -2.9839    1.2719    0.4499 O   0  0  0  0  0  0  0  0  0  0  0  0
    2.3612    1.6182   -0.9771 N   0  0  0  0  0  0  0  0  0  0  0  0
    1.7431    1.9118   -1.8536 N   0  0  0  0  0  0  0  0  0  0  0  0
    4.5708    0.3259    0.5963 S   0  0  0  0  0  0  0  0  0  0  0  0
    5.1759    1.6797   -0.0589 O   0  0  0  0  0  0  0  0  0  0  0  0
    5.7612    2.0893    0.6021 H   0  0  0  0  0  0  0  0  0  0  0  0
    4.2665   -0.5691   -0.4975 O   0  0  0  0  0  0  0  0  0  0  0  0
    5.4006   -0.0353    1.7259 O   0  0  0  0  0  0  0  0  0  0  0  0
    3.1879    0.8963    1.2814 O   0  0  0  0  0  0  0  0  0  0  0  0
  1  2  2  0  0  0  0
  1  6  1  0  0  0  0
  2  3  1  0  0  0  0
  3  4  2  0  0  0  0
  3 21  1  0  0  0  0
  4  9  1  0  0  0  0
  5  4  1  0  0  0  0
  5 10  1  0  0  0  0
  6  5  2  0  0  0  0
  7  1  1  0  0  0  0
  8  2  1  0  0  0  0
 11  6  1  0  0  0  0
 11 13  2  0  0  0  0
 12 11  2  0  0  0  0
 15 14  3  0  0  0  0
 16 21  1  0  0  0  0
 16 20  2  0  0  0  0
 17 16  1  0  0  0  0
 17 18  1  0  0  0  0
 19 16  2  0  0  0  0
M  END
