Coordinates from ORCA-job 4-NO2-Ph-N2-HSO4-B3LYPG-6-31G_dp-MTMO-d009-169-n800
 OpenBabel09051908393D

 21 20  0  0  0  0  0  0  0  0999 V2000
   -0.8843   -0.9076    0.8682 C   0  0  0  0  0  0  0  0  0  0  0  0
    0.4849   -1.1108    0.7265 C   0  0  0  0  0  0  0  0  0  0  0  0
    1.3549   -0.0582    1.0119 C   0  0  0  0  0  0  0  0  0  0  0  0
    0.8957    1.1872    1.4391 C   0  0  0  0  0  0  0  0  0  0  0  0
   -0.4730    1.3899    1.5875 C   0  0  0  0  0  0  0  0  0  0  0  0
   -1.3400    0.3380    1.2974 C   0  0  0  0  0  0  0  0  0  0  0  0
   -1.5988   -1.6930    0.6575 H   0  0  0  0  0  0  0  0  0  0  0  0
    0.8791   -2.0634    0.3948 H   0  0  0  0  0  0  0  0  0  0  0  0
    1.6071    1.9753    1.6570 H   0  0  0  0  0  0  0  0  0  0  0  0
   -0.8760    2.3381    1.9193 H   0  0  0  0  0  0  0  0  0  0  0  0
   -2.7893    0.5496    1.4534 N   0  0  0  0  0  0  0  0  0  0  0  0
   -3.5327   -0.3945    1.1929 O   0  0  0  0  0  0  0  0  0  0  0  0
   -3.1638    1.6572    1.8351 O   0  0  0  0  0  0  0  0  0  0  0  0
    9.3216    5.8261   -3.2249 N   0  0  0  0  0  0  0  0  0  0  0  0
    8.5359    5.2209   -2.7370 N   0  0  0  0  0  0  0  0  0  0  0  0
    3.4879   -0.3492   -0.5075 S   0  0  0  0  0  0  0  0  0  0  0  0
    3.4393    1.2049   -0.9800 O   0  0  0  0  0  0  0  0  0  0  0  0
    4.2385    1.6425   -0.6384 H   0  0  0  0  0  0  0  0  0  0  0  0
    2.6555   -1.0794   -1.4345 O   0  0  0  0  0  0  0  0  0  0  0  0
    4.8538   -0.7004   -0.1854 O   0  0  0  0  0  0  0  0  0  0  0  0
    2.7410   -0.2578    0.9592 O   0  0  0  0  0  0  0  0  0  0  0  0
  1  6  1  0  0  0  0
  2  1  2  0  0  0  0
  2  3  1  0  0  0  0
  3  4  2  0  0  0  0
  4  5  1  0  0  0  0
  4  9  1  0  0  0  0
  5 10  1  0  0  0  0
  6 11  1  0  0  0  0
  6  5  2  0  0  0  0
  7  1  1  0  0  0  0
  8  2  1  0  0  0  0
 11 13  2  0  0  0  0
 12 11  2  0  0  0  0
 14 15  3  0  0  0  0
 16 20  2  0  0  0  0
 16 21  1  0  0  0  0
 17 18  1  0  0  0  0
 17 16  1  0  0  0  0
 19 16  2  0  0  0  0
 21  3  1  0  0  0  0
M  END
