Coordinates from ORCA-job 4-NO2-Ph-N2-HSO4-B3LYPG-6-31G_dp-MTMO-d009-169-n800
 OpenBabel09051908393D

 21 20  0  0  0  0  0  0  0  0999 V2000
   -0.5356   -0.8324    0.8343 C   0  0  0  0  0  0  0  0  0  0  0  0
    0.8372   -0.8930    0.6159 C   0  0  0  0  0  0  0  0  0  0  0  0
    1.6042    0.2531    0.8271 C   0  0  0  0  0  0  0  0  0  0  0  0
    1.0386    1.4548    1.2522 C   0  0  0  0  0  0  0  0  0  0  0  0
   -0.3334    1.5154    1.4767 C   0  0  0  0  0  0  0  0  0  0  0  0
   -1.0976    0.3696    1.2625 C   0  0  0  0  0  0  0  0  0  0  0  0
   -1.1724   -1.6948    0.6830 H   0  0  0  0  0  0  0  0  0  0  0  0
    1.3123   -1.8069    0.2811 H   0  0  0  0  0  0  0  0  0  0  0  0
    1.6731    2.3197    1.4071 H   0  0  0  0  0  0  0  0  0  0  0  0
   -0.8163    2.4249    1.8102 H   0  0  0  0  0  0  0  0  0  0  0  0
   -2.5498    0.4306    1.4996 N   0  0  0  0  0  0  0  0  0  0  0  0
   -3.2016   -0.5938    1.3052 O   0  0  0  0  0  0  0  0  0  0  0  0
   -3.0196    1.5026    1.8782 O   0  0  0  0  0  0  0  0  0  0  0  0
    7.3089    3.5271   -1.7041 N   0  0  0  0  0  0  0  0  0  0  0  0
    6.3175    3.1233   -1.4327 N   0  0  0  0  0  0  0  0  0  0  0  0
    3.6704    0.1839   -0.8094 S   0  0  0  0  0  0  0  0  0  0  0  0
    3.5235    1.7403   -1.2311 O   0  0  0  0  0  0  0  0  0  0  0  0
    4.3844    2.1775   -1.0840 H   0  0  0  0  0  0  0  0  0  0  0  0
    2.8260   -0.5782   -1.7010 O   0  0  0  0  0  0  0  0  0  0  0  0
    5.0696   -0.1055   -0.5753 O   0  0  0  0  0  0  0  0  0  0  0  0
    2.9983    0.1972    0.6969 O   0  0  0  0  0  0  0  0  0  0  0  0
  1  6  2  0  0  0  0
  2  3  2  0  0  0  0
  2  1  1  0  0  0  0
  3  4  1  0  0  0  0
  4  9  1  0  0  0  0
  4  5  2  0  0  0  0
  5 10  1  0  0  0  0
  6  5  1  0  0  0  0
  6 11  1  0  0  0  0
  7  1  1  0  0  0  0
  8  2  1  0  0  0  0
 11 13  2  0  0  0  0
 12 11  2  0  0  0  0
 14 15  3  0  0  0  0
 16 20  2  0  0  0  0
 16 21  1  0  0  0  0
 17 18  1  0  0  0  0
 17 16  1  0  0  0  0
 19 16  2  0  0  0  0
 21  3  1  0  0  0  0
M  END
