Coordinates from ORCA-job 4-NO2-Ph-N2-HSO4-B3LYPG-6-31G_dp-MTMO-d009-169-n800
 OpenBabel09051908393D

 21 20  0  0  0  0  0  0  0  0999 V2000
   -1.0755   -1.0107    0.9780 C   0  0  0  0  0  0  0  0  0  0  0  0
    0.2894   -1.2423    0.8384 C   0  0  0  0  0  0  0  0  0  0  0  0
    1.1790   -0.1975    1.0896 C   0  0  0  0  0  0  0  0  0  0  0  0
    0.7437    1.0683    1.4803 C   0  0  0  0  0  0  0  0  0  0  0  0
   -0.6207    1.2997    1.6265 C   0  0  0  0  0  0  0  0  0  0  0  0
   -1.5073    0.2552    1.3709 C   0  0  0  0  0  0  0  0  0  0  0  0
   -1.8045   -1.7892    0.7932 H   0  0  0  0  0  0  0  0  0  0  0  0
    0.6655   -2.2113    0.5343 H   0  0  0  0  0  0  0  0  0  0  0  0
    1.4696    1.8499    1.6720 H   0  0  0  0  0  0  0  0  0  0  0  0
   -1.0058    2.2644    1.9309 H   0  0  0  0  0  0  0  0  0  0  0  0
   -2.9521    0.4974    1.5248 N   0  0  0  0  0  0  0  0  0  0  0  0
   -3.7131   -0.4407    1.2950 O   0  0  0  0  0  0  0  0  0  0  0  0
   -3.3054    1.6225    1.8739 O   0  0  0  0  0  0  0  0  0  0  0  0
   10.9497    7.0958   -3.9036 N   0  0  0  0  0  0  0  0  0  0  0  0
   10.1629    6.4627   -3.4544 N   0  0  0  0  0  0  0  0  0  0  0  0
    3.3014   -0.5592   -0.4285 S   0  0  0  0  0  0  0  0  0  0  0  0
    3.2897    0.9879   -0.9265 O   0  0  0  0  0  0  0  0  0  0  0  0
    4.1021    1.4094   -0.5960 H   0  0  0  0  0  0  0  0  0  0  0  0
    2.4486   -1.2842   -1.3409 O   0  0  0  0  0  0  0  0  0  0  0  0
    4.6594   -0.9376   -0.1041 O   0  0  0  0  0  0  0  0  0  0  0  0
    2.5610   -0.4251    1.0384 O   0  0  0  0  0  0  0  0  0  0  0  0
  1  6  1  0  0  0  0
  2  1  2  0  0  0  0
  2  3  1  0  0  0  0
  3  4  2  0  0  0  0
  4  5  1  0  0  0  0
  4  9  1  0  0  0  0
  5 10  1  0  0  0  0
  6 11  1  0  0  0  0
  6  5  2  0  0  0  0
  7  1  1  0  0  0  0
  8  2  1  0  0  0  0
 11 13  2  0  0  0  0
 12 11  2  0  0  0  0
 14 15  3  0  0  0  0
 16 20  2  0  0  0  0
 16 21  1  0  0  0  0
 17 18  1  0  0  0  0
 17 16  1  0  0  0  0
 19 16  2  0  0  0  0
 21  3  1  0  0  0  0
M  END
