Coordinates from ORCA-job 4-NO2-Ph-N2-HSO4-B3LYPG-6-31G_dp-MTMO-d009-169-n800
 OpenBabel09051908393D

 21 20  0  0  0  0  0  0  0  0999 V2000
    0.0357   -0.5782    0.0362 C   0  0  0  0  0  0  0  0  0  0  0  0
    1.3966   -0.4531    0.2669 C   0  0  0  0  0  0  0  0  0  0  0  0
    1.9018    0.7865    0.7183 C   0  0  0  0  0  0  0  0  0  0  0  0
    1.0139    1.7631    1.2184 C   0  0  0  0  0  0  0  0  0  0  0  0
   -0.3453    1.6310    0.9948 C   0  0  0  0  0  0  0  0  0  0  0  0
   -0.8181    0.4760    0.3671 C   0  0  0  0  0  0  0  0  0  0  0  0
   -0.3825   -1.4907   -0.3700 H   0  0  0  0  0  0  0  0  0  0  0  0
    2.0767   -1.2583    0.0252 H   0  0  0  0  0  0  0  0  0  0  0  0
    1.4237    2.6384    1.7092 H   0  0  0  0  0  0  0  0  0  0  0  0
   -1.0484    2.3910    1.3108 H   0  0  0  0  0  0  0  0  0  0  0  0
   -2.2563    0.3370    0.1200 N   0  0  0  0  0  0  0  0  0  0  0  0
   -2.6465   -0.7062   -0.4041 O   0  0  0  0  0  0  0  0  0  0  0  0
   -2.9838    1.2740    0.4499 O   0  0  0  0  0  0  0  0  0  0  0  0
    2.3587    1.6055   -0.9586 N   0  0  0  0  0  0  0  0  0  0  0  0
    1.7442    1.9030   -1.8376 N   0  0  0  0  0  0  0  0  0  0  0  0
    4.5723    0.3275    0.5957 S   0  0  0  0  0  0  0  0  0  0  0  0
    5.1763    1.6824   -0.0589 O   0  0  0  0  0  0  0  0  0  0  0  0
    5.7598    2.0932    0.6030 H   0  0  0  0  0  0  0  0  0  0  0  0
    4.2704   -0.5673   -0.4992 O   0  0  0  0  0  0  0  0  0  0  0  0
    5.4013   -0.0330    1.7260 O   0  0  0  0  0  0  0  0  0  0  0  0
    3.1871    0.8935    1.2791 O   0  0  0  0  0  0  0  0  0  0  0  0
  1  2  2  0  0  0  0
  1  6  1  0  0  0  0
  2  3  1  0  0  0  0
  3  4  2  0  0  0  0
  3 21  1  0  0  0  0
  4  9  1  0  0  0  0
  5  4  1  0  0  0  0
  5 10  1  0  0  0  0
  6  5  2  0  0  0  0
  7  1  1  0  0  0  0
  8  2  1  0  0  0  0
 11  6  1  0  0  0  0
 11 13  2  0  0  0  0
 12 11  2  0  0  0  0
 15 14  3  0  0  0  0
 16 21  1  0  0  0  0
 16 20  2  0  0  0  0
 17 16  1  0  0  0  0
 17 18  1  0  0  0  0
 19 16  2  0  0  0  0
M  END
