Coordinates from ORCA-job 4-NO2-Ph-N2-HSO4-B3LYPG-6-31G_dp-MTMO-d009-169-n800
 OpenBabel09051908393D

 21 20  0  0  0  0  0  0  0  0999 V2000
   -0.9720   -0.9518    0.9220 C   0  0  0  0  0  0  0  0  0  0  0  0
    0.3947   -1.1720    0.7814 C   0  0  0  0  0  0  0  0  0  0  0  0
    1.2765   -0.1239    1.0465 C   0  0  0  0  0  0  0  0  0  0  0  0
    0.8315    1.1338    1.4522 C   0  0  0  0  0  0  0  0  0  0  0  0
   -0.5347    1.3536    1.5994 C   0  0  0  0  0  0  0  0  0  0  0  0
   -1.4135    0.3060    1.3298 C   0  0  0  0  0  0  0  0  0  0  0  0
   -1.6952   -1.7332    0.7267 H   0  0  0  0  0  0  0  0  0  0  0  0
    0.7781   -2.1345    0.4661 H   0  0  0  0  0  0  0  0  0  0  0  0
    1.5515    1.9181    1.6546 H   0  0  0  0  0  0  0  0  0  0  0  0
   -0.9270    2.3118    1.9151 H   0  0  0  0  0  0  0  0  0  0  0  0
   -2.8602    0.5358    1.4848 N   0  0  0  0  0  0  0  0  0  0  0  0
   -3.6141   -0.4047    1.2424 O   0  0  0  0  0  0  0  0  0  0  0  0
   -3.2220    1.6540    1.8474 O   0  0  0  0  0  0  0  0  0  0  0  0
   10.0419    6.4208   -3.5190 N   0  0  0  0  0  0  0  0  0  0  0  0
    9.2570    5.7971   -3.0537 N   0  0  0  0  0  0  0  0  0  0  0  0
    3.4032   -0.4578   -0.4723 S   0  0  0  0  0  0  0  0  0  0  0  0
    3.3759    1.0920   -0.9611 O   0  0  0  0  0  0  0  0  0  0  0  0
    4.1823    1.5209   -0.6257 H   0  0  0  0  0  0  0  0  0  0  0  0
    2.5589   -1.1859   -1.3901 O   0  0  0  0  0  0  0  0  0  0  0  0
    4.7646   -0.8245   -0.1487 O   0  0  0  0  0  0  0  0  0  0  0  0
    2.6602   -0.3401    0.9946 O   0  0  0  0  0  0  0  0  0  0  0  0
  1  6  1  0  0  0  0
  2  1  2  0  0  0  0
  2  3  1  0  0  0  0
  3  4  2  0  0  0  0
  4  5  1  0  0  0  0
  4  9  1  0  0  0  0
  5 10  1  0  0  0  0
  6 11  1  0  0  0  0
  6  5  2  0  0  0  0
  7  1  1  0  0  0  0
  8  2  1  0  0  0  0
 11 13  2  0  0  0  0
 12 11  2  0  0  0  0
 14 15  3  0  0  0  0
 16 20  2  0  0  0  0
 16 21  1  0  0  0  0
 17 18  1  0  0  0  0
 17 16  1  0  0  0  0
 19 16  2  0  0  0  0
 21  3  1  0  0  0  0
M  END
