Coordinates from ORCA-job 4-NO2-Ph-N2-HSO4-B3LYPG-6-31G_dp-MTMO-d009-169-n800
 OpenBabel09051908393D

 21 20  0  0  0  0  0  0  0  0999 V2000
   -0.0471   -0.5575    0.1592 C   0  0  0  0  0  0  0  0  0  0  0  0
    1.2195   -0.1011   -0.2213 C   0  0  0  0  0  0  0  0  0  0  0  0
    1.3356    1.2602   -0.2084 C   0  0  0  0  0  0  0  0  0  0  0  0
    0.4342    2.2432    0.1125 C   0  0  0  0  0  0  0  0  0  0  0  0
   -0.8182    1.7502    0.4961 C   0  0  0  0  0  0  0  0  0  0  0  0
   -1.0287    0.3717    0.5060 C   0  0  0  0  0  0  0  0  0  0  0  0
   -0.2710   -1.6164    0.1969 H   0  0  0  0  0  0  0  0  0  0  0  0
    2.0590   -0.7344   -0.4822 H   0  0  0  0  0  0  0  0  0  0  0  0
    0.6629    3.3007    0.0853 H   0  0  0  0  0  0  0  0  0  0  0  0
   -1.6200    2.4198    0.7816 H   0  0  0  0  0  0  0  0  0  0  0  0
   -2.3636   -0.1277    0.9041 N   0  0  0  0  0  0  0  0  0  0  0  0
   -2.5324   -1.3428    0.8971 O   0  0  0  0  0  0  0  0  0  0  0  0
   -3.2073    0.7105    1.2094 O   0  0  0  0  0  0  0  0  0  0  0  0
    2.9124    1.8944   -0.8045 N   0  0  0  0  0  0  0  0  0  0  0  0
    3.4161    2.8063   -1.2044 N   0  0  0  0  0  0  0  0  0  0  0  0
    4.5782    0.1831    0.8892 S   0  0  0  0  0  0  0  0  0  0  0  0
    5.6564    1.4370    0.8838 O   0  0  0  0  0  0  0  0  0  0  0  0
    6.5152    1.0589    0.6360 H   0  0  0  0  0  0  0  0  0  0  0  0
    4.1174    0.0971   -0.5682 O   0  0  0  0  0  0  0  0  0  0  0  0
    5.3274   -1.0109    1.2785 O   0  0  0  0  0  0  0  0  0  0  0  0
    3.4916    0.6732    1.7453 O   0  0  0  0  0  0  0  0  0  0  0  0
  1  7  1  0  0  0  0
  1  6  2  0  0  0  0
  2  3  2  0  0  0  0
  2  1  1  0  0  0  0
  3  4  1  0  0  0  0
  4  5  2  0  0  0  0
  5  6  1  0  0  0  0
  5 10  1  0  0  0  0
  6 11  1  0  0  0  0
  8  2  1  0  0  0  0
  9  4  1  0  0  0  0
 11 13  2  0  0  0  0
 12 11  2  0  0  0  0
 14  3  1  0  0  0  0
 15 14  2  0  0  0  0
 16 20  2  0  0  0  0
 16 21  1  0  0  0  0
 17 16  1  0  0  0  0
 18 17  1  0  0  0  0
 19 16  2  0  0  0  0
M  RAD  2  15   2  21   2
M  END
