Coordinates from ORCA-job 4-NO2-Ph-N2-HSO4-B3LYPG-6-31G_dp-MTMO-d009-169-n800
 OpenBabel09051908393D

 21 20  0  0  0  0  0  0  0  0999 V2000
   -0.0208   -0.6596    0.2169 C   0  0  0  0  0  0  0  0  0  0  0  0
    1.3262   -0.7316    0.5576 C   0  0  0  0  0  0  0  0  0  0  0  0
    1.9097    0.3442    1.2267 C   0  0  0  0  0  0  0  0  0  0  0  0
    1.1861    1.4859    1.5682 C   0  0  0  0  0  0  0  0  0  0  0  0
   -0.1626    1.5571    1.2329 C   0  0  0  0  0  0  0  0  0  0  0  0
   -0.7422    0.4826    0.5610 C   0  0  0  0  0  0  0  0  0  0  0  0
   -0.5186   -1.4680   -0.3034 H   0  0  0  0  0  0  0  0  0  0  0  0
    1.9230   -1.6000    0.3072 H   0  0  0  0  0  0  0  0  0  0  0  0
    1.6784    2.2971    2.0919 H   0  0  0  0  0  0  0  0  0  0  0  0
   -0.7664    2.4212    1.4787 H   0  0  0  0  0  0  0  0  0  0  0  0
   -2.1692    0.5568    0.2032 N   0  0  0  0  0  0  0  0  0  0  0  0
   -2.6576   -0.4037   -0.3890 O   0  0  0  0  0  0  0  0  0  0  0  0
   -2.7817    1.5753    0.5193 O   0  0  0  0  0  0  0  0  0  0  0  0
    2.1033    1.7008   -2.5780 N   0  0  0  0  0  0  0  0  0  0  0  0
    2.7978    1.7681   -3.4349 N   0  0  0  0  0  0  0  0  0  0  0  0
    4.4481    0.4811    0.5466 S   0  0  0  0  0  0  0  0  0  0  0  0
    4.3640    2.0863    0.3029 O   0  0  0  0  0  0  0  0  0  0  0  0
    4.9368    2.5145    0.9627 H   0  0  0  0  0  0  0  0  0  0  0  0
    4.0805   -0.1354   -0.7070 O   0  0  0  0  0  0  0  0  0  0  0  0
    5.6587    0.1809    1.2793 O   0  0  0  0  0  0  0  0  0  0  0  0
    3.2441    0.2619    1.6495 O   0  0  0  0  0  0  0  0  0  0  0  0
  1  2  2  0  0  0  0
  1  6  1  0  0  0  0
  2  3  1  0  0  0  0
  3  4  2  0  0  0  0
  3 21  1  0  0  0  0
  4  9  1  0  0  0  0
  5 10  1  0  0  0  0
  5  4  1  0  0  0  0
  6  5  2  0  0  0  0
  7  1  1  0  0  0  0
  8  2  1  0  0  0  0
 11 13  2  0  0  0  0
 11  6  1  0  0  0  0
 12 11  2  0  0  0  0
 15 14  3  0  0  0  0
 16 20  2  0  0  0  0
 16 21  1  0  0  0  0
 17 16  1  0  0  0  0
 17 18  1  0  0  0  0
 19 16  2  0  0  0  0
M  END
