Coordinates from ORCA-job 4-NO2-Ph-N2-HSO4-B3LYPG-6-31G_dp-MTMO-d009-169-n800
 OpenBabel09051908393D

 21 20  0  0  0  0  0  0  0  0999 V2000
   -0.8004   -0.8744    0.8267 C   0  0  0  0  0  0  0  0  0  0  0  0
    0.5717   -1.0533    0.6797 C   0  0  0  0  0  0  0  0  0  0  0  0
    1.4250    0.0096    0.9775 C   0  0  0  0  0  0  0  0  0  0  0  0
    0.9463    1.2415    1.4223 C   0  0  0  0  0  0  0  0  0  0  0  0
   -0.4252    1.4197    1.5760 C   0  0  0  0  0  0  0  0  0  0  0  0
   -1.2755    0.3578    1.2735 C   0  0  0  0  0  0  0  0  0  0  0  0
   -1.5023   -1.6685    0.6068 H   0  0  0  0  0  0  0  0  0  0  0  0
    0.9807   -1.9947    0.3343 H   0  0  0  0  0  0  0  0  0  0  0  0
    1.6452    2.0381    1.6492 H   0  0  0  0  0  0  0  0  0  0  0  0
   -0.8429    2.3568    1.9212 H   0  0  0  0  0  0  0  0  0  0  0  0
   -2.7278    0.5434    1.4351 N   0  0  0  0  0  0  0  0  0  0  0  0
   -3.4562   -0.4094    1.1640 O   0  0  0  0  0  0  0  0  0  0  0  0
   -3.1197    1.6396    1.8318 O   0  0  0  0  0  0  0  0  0  0  0  0
    8.7082    5.2470   -2.9454 N   0  0  0  0  0  0  0  0  0  0  0  0
    7.9072    4.6745   -2.4433 N   0  0  0  0  0  0  0  0  0  0  0  0
    3.5593   -0.2286   -0.5495 S   0  0  0  0  0  0  0  0  0  0  0  0
    3.4831    1.3292   -1.0054 O   0  0  0  0  0  0  0  0  0  0  0  0
    4.2777    1.7762   -0.6652 H   0  0  0  0  0  0  0  0  0  0  0  0
    2.7376   -0.9634   -1.4825 O   0  0  0  0  0  0  0  0  0  0  0  0
    4.9317   -0.5597   -0.2339 O   0  0  0  0  0  0  0  0  0  0  0  0
    2.8140   -0.1661    0.9195 O   0  0  0  0  0  0  0  0  0  0  0  0
  1  6  1  0  0  0  0
  2  1  2  0  0  0  0
  2  3  1  0  0  0  0
  3  4  2  0  0  0  0
  4  5  1  0  0  0  0
  4  9  1  0  0  0  0
  5 10  1  0  0  0  0
  6 11  1  0  0  0  0
  6  5  2  0  0  0  0
  7  1  1  0  0  0  0
  8  2  1  0  0  0  0
 11 13  2  0  0  0  0
 12 11  2  0  0  0  0
 14 15  3  0  0  0  0
 16 20  2  0  0  0  0
 16 21  1  0  0  0  0
 17 18  1  0  0  0  0
 17 16  1  0  0  0  0
 19 16  2  0  0  0  0
 21  3  1  0  0  0  0
M  END
