Coordinates from ORCA-job 4-NO2-Ph-N2-HSO4-B3LYPG-6-31G_dp-MTMO-d009-169-n800
 OpenBabel09051908393D

 21 20  0  0  0  0  0  0  0  0999 V2000
   -0.0499   -0.5529    0.1992 C   0  0  0  0  0  0  0  0  0  0  0  0
    1.2261   -0.1098   -0.1515 C   0  0  0  0  0  0  0  0  0  0  0  0
    1.3963    1.2582   -0.1931 C   0  0  0  0  0  0  0  0  0  0  0  0
    0.4439    2.2289    0.0800 C   0  0  0  0  0  0  0  0  0  0  0  0
   -0.8199    1.7627    0.4364 C   0  0  0  0  0  0  0  0  0  0  0  0
   -1.0386    0.3865    0.4845 C   0  0  0  0  0  0  0  0  0  0  0  0
   -0.2799   -1.6091    0.2603 H   0  0  0  0  0  0  0  0  0  0  0  0
    2.0556   -0.7684   -0.3713 H   0  0  0  0  0  0  0  0  0  0  0  0
    0.6691    3.2869    0.0278 H   0  0  0  0  0  0  0  0  0  0  0  0
   -1.6272    2.4438    0.6738 H   0  0  0  0  0  0  0  0  0  0  0  0
   -2.3886   -0.0958    0.8558 N   0  0  0  0  0  0  0  0  0  0  0  0
   -2.5621   -1.3097    0.8853 O   0  0  0  0  0  0  0  0  0  0  0  0
   -3.2385    0.7550    1.1039 O   0  0  0  0  0  0  0  0  0  0  0  0
    2.8177    1.8386   -0.6466 N   0  0  0  0  0  0  0  0  0  0  0  0
    3.3346    2.7730   -0.9903 N   0  0  0  0  0  0  0  0  0  0  0  0
    4.6368    0.1541    0.8825 S   0  0  0  0  0  0  0  0  0  0  0  0
    5.6365    1.4710    0.8393 O   0  0  0  0  0  0  0  0  0  0  0  0
    6.4842    1.1623    0.4812 H   0  0  0  0  0  0  0  0  0  0  0  0
    4.0399    0.1211   -0.5359 O   0  0  0  0  0  0  0  0  0  0  0  0
    5.4864   -1.0122    1.1103 O   0  0  0  0  0  0  0  0  0  0  0  0
    3.6152    0.5312    1.8607 O   0  0  0  0  0  0  0  0  0  0  0  0
  1  7  1  0  0  0  0
  1  6  2  0  0  0  0
  2  1  1  0  0  0  0
  3  2  2  0  0  0  0
  3  4  1  0  0  0  0
  4  5  2  0  0  0  0
  5  6  1  0  0  0  0
  5 10  1  0  0  0  0
  6 11  1  0  0  0  0
  8  2  1  0  0  0  0
  9  4  1  0  0  0  0
 11 12  2  0  0  0  0
 11 13  2  0  0  0  0
 14  3  1  0  0  0  0
 15 14  2  0  0  0  0
 16 20  2  0  0  0  0
 16 21  1  0  0  0  0
 17 16  1  0  0  0  0
 18 17  1  0  0  0  0
 19 16  2  0  0  0  0
M  RAD  2  15   2  21   2
M  END
