Coordinates from ORCA-job 4-NO2-Ph-N2-HSO4-B3LYPG-6-31G_dp-MTMO-d009-169-n800
 OpenBabel09051908393D

 21 20  0  0  0  0  0  0  0  0999 V2000
   -1.2321   -1.1093    1.0524 C   0  0  0  0  0  0  0  0  0  0  0  0
    0.1318   -1.3473    0.9137 C   0  0  0  0  0  0  0  0  0  0  0  0
    1.0257   -0.3043    1.1574 C   0  0  0  0  0  0  0  0  0  0  0  0
    0.5955    0.9658    1.5395 C   0  0  0  0  0  0  0  0  0  0  0  0
   -0.7679    1.2036    1.6846 C   0  0  0  0  0  0  0  0  0  0  0  0
   -1.6587    0.1609    1.4367 C   0  0  0  0  0  0  0  0  0  0  0  0
   -1.9643   -1.8862    0.8733 H   0  0  0  0  0  0  0  0  0  0  0  0
    0.5039   -2.3198    0.6161 H   0  0  0  0  0  0  0  0  0  0  0  0
    1.3246    1.7459    1.7255 H   0  0  0  0  0  0  0  0  0  0  0  0
   -1.1490    2.1719    1.9826 H   0  0  0  0  0  0  0  0  0  0  0  0
   -3.1025    0.4099    1.5896 N   0  0  0  0  0  0  0  0  0  0  0  0
   -3.8673   -0.5268    1.3670 O   0  0  0  0  0  0  0  0  0  0  0  0
   -3.4511    1.5389    1.9308 O   0  0  0  0  0  0  0  0  0  0  0  0
   12.3957    8.0933   -4.5342 N   0  0  0  0  0  0  0  0  0  0  0  0
   11.6070    7.4568   -4.0934 N   0  0  0  0  0  0  0  0  0  0  0  0
    3.1461   -0.6802   -0.3594 S   0  0  0  0  0  0  0  0  0  0  0  0
    3.1436    0.8658   -0.8609 O   0  0  0  0  0  0  0  0  0  0  0  0
    3.9589    1.2828   -0.5321 H   0  0  0  0  0  0  0  0  0  0  0  0
    2.2891   -1.4024   -1.2700 O   0  0  0  0  0  0  0  0  0  0  0  0
    4.5020   -1.0657   -0.0343 O   0  0  0  0  0  0  0  0  0  0  0  0
    2.4066   -0.5383    1.1071 O   0  0  0  0  0  0  0  0  0  0  0  0
  1  6  1  0  0  0  0
  2  1  2  0  0  0  0
  2  3  1  0  0  0  0
  3  4  2  0  0  0  0
  4  5  1  0  0  0  0
  4  9  1  0  0  0  0
  5 10  1  0  0  0  0
  6 11  1  0  0  0  0
  6  5  2  0  0  0  0
  7  1  1  0  0  0  0
  8  2  1  0  0  0  0
 11 13  2  0  0  0  0
 12 11  2  0  0  0  0
 14 15  3  0  0  0  0
 16 20  2  0  0  0  0
 16 21  1  0  0  0  0
 17 18  1  0  0  0  0
 17 16  1  0  0  0  0
 19 16  2  0  0  0  0
 21  3  1  0  0  0  0
M  END
