Coordinates from ORCA-job 4-NO2-Ph-N2-HSO4-B3LYPG-6-31G_dp-MTMO-d009-169-n800
 OpenBabel09051908393D

 21 20  0  0  0  0  0  0  0  0999 V2000
    0.0428   -0.5897    0.0679 C   0  0  0  0  0  0  0  0  0  0  0  0
    1.4045   -0.4710    0.3268 C   0  0  0  0  0  0  0  0  0  0  0  0
    1.8832    0.7248    0.8727 C   0  0  0  0  0  0  0  0  0  0  0  0
    1.0118    1.7488    1.2616 C   0  0  0  0  0  0  0  0  0  0  0  0
   -0.3476    1.6224    1.0123 C   0  0  0  0  0  0  0  0  0  0  0  0
   -0.8137    0.4573    0.4029 C   0  0  0  0  0  0  0  0  0  0  0  0
   -0.3662   -1.4893   -0.3746 H   0  0  0  0  0  0  0  0  0  0  0  0
    2.0822   -1.2756    0.0782 H   0  0  0  0  0  0  0  0  0  0  0  0
    1.4170    2.6358    1.7348 H   0  0  0  0  0  0  0  0  0  0  0  0
   -1.0488    2.4016    1.2822 H   0  0  0  0  0  0  0  0  0  0  0  0
   -2.2510    0.3207    0.1316 N   0  0  0  0  0  0  0  0  0  0  0  0
   -2.6347   -0.7228   -0.3951 O   0  0  0  0  0  0  0  0  0  0  0  0
   -2.9809    1.2597    0.4476 O   0  0  0  0  0  0  0  0  0  0  0  0
    2.3853    1.7624   -1.2117 N   0  0  0  0  0  0  0  0  0  0  0  0
    1.7596    2.0261   -2.0855 N   0  0  0  0  0  0  0  0  0  0  0  0
    4.5554    0.3106    0.6032 S   0  0  0  0  0  0  0  0  0  0  0  0
    5.1644    1.6732   -0.0251 O   0  0  0  0  0  0  0  0  0  0  0  0
    5.7582    2.0638    0.6397 H   0  0  0  0  0  0  0  0  0  0  0  0
    4.2248   -0.5542   -0.5061 O   0  0  0  0  0  0  0  0  0  0  0  0
    5.3974   -0.0899    1.7109 O   0  0  0  0  0  0  0  0  0  0  0  0
    3.1940    0.9005    1.3176 O   0  0  0  0  0  0  0  0  0  0  0  0
  1  2  2  0  0  0  0
  1  6  1  0  0  0  0
  2  3  1  0  0  0  0
  3  4  2  0  0  0  0
  3 21  1  0  0  0  0
  4  9  1  0  0  0  0
  5  4  1  0  0  0  0
  5 10  1  0  0  0  0
  6  5  2  0  0  0  0
  7  1  1  0  0  0  0
  8  2  1  0  0  0  0
 11  6  1  0  0  0  0
 11 13  2  0  0  0  0
 12 11  2  0  0  0  0
 15 14  3  0  0  0  0
 16 21  1  0  0  0  0
 16 20  2  0  0  0  0
 17 16  1  0  0  0  0
 17 18  1  0  0  0  0
 19 16  2  0  0  0  0
M  END
