Coordinates from ORCA-job 4-NO2-Ph-N2-HSO4-B3LYPG-6-31G_dp-MTMO-d009-169-n800
 OpenBabel09051908393D

 21 20  0  0  0  0  0  0  0  0999 V2000
   -1.0786   -1.0125    0.9794 C   0  0  0  0  0  0  0  0  0  0  0  0
    0.2863   -1.2444    0.8398 C   0  0  0  0  0  0  0  0  0  0  0  0
    1.1761   -0.1996    1.0909 C   0  0  0  0  0  0  0  0  0  0  0  0
    0.7409    1.0663    1.4814 C   0  0  0  0  0  0  0  0  0  0  0  0
   -0.6235    1.2979    1.6275 C   0  0  0  0  0  0  0  0  0  0  0  0
   -1.5102    0.2535    1.3722 C   0  0  0  0  0  0  0  0  0  0  0  0
   -1.8077   -1.7910    0.7948 H   0  0  0  0  0  0  0  0  0  0  0  0
    0.6622   -2.2135    0.5359 H   0  0  0  0  0  0  0  0  0  0  0  0
    1.4669    1.8478    1.6730 H   0  0  0  0  0  0  0  0  0  0  0  0
   -1.0084    2.2627    1.9318 H   0  0  0  0  0  0  0  0  0  0  0  0
   -2.9550    0.4959    1.5260 N   0  0  0  0  0  0  0  0  0  0  0  0
   -3.7161   -0.4420    1.2963 O   0  0  0  0  0  0  0  0  0  0  0  0
   -3.3081    1.6211    1.8749 O   0  0  0  0  0  0  0  0  0  0  0  0
   10.9775    7.1155   -3.9158 N   0  0  0  0  0  0  0  0  0  0  0  0
   10.1906    6.4824   -3.4668 N   0  0  0  0  0  0  0  0  0  0  0  0
    3.2984   -0.5618   -0.4270 S   0  0  0  0  0  0  0  0  0  0  0  0
    3.2871    0.9853   -0.9251 O   0  0  0  0  0  0  0  0  0  0  0  0
    4.0995    1.4066   -0.5947 H   0  0  0  0  0  0  0  0  0  0  0  0
    2.4455   -1.2867   -1.3394 O   0  0  0  0  0  0  0  0  0  0  0  0
    4.6563   -0.9405   -0.1026 O   0  0  0  0  0  0  0  0  0  0  0  0
    2.5579   -0.4275    1.0398 O   0  0  0  0  0  0  0  0  0  0  0  0
  1  6  1  0  0  0  0
  2  1  2  0  0  0  0
  2  3  1  0  0  0  0
  3  4  2  0  0  0  0
  4  5  1  0  0  0  0
  4  9  1  0  0  0  0
  5 10  1  0  0  0  0
  6 11  1  0  0  0  0
  6  5  2  0  0  0  0
  7  1  1  0  0  0  0
  8  2  1  0  0  0  0
 11 13  2  0  0  0  0
 12 11  2  0  0  0  0
 14 15  3  0  0  0  0
 16 20  2  0  0  0  0
 16 21  1  0  0  0  0
 17 18  1  0  0  0  0
 17 16  1  0  0  0  0
 19 16  2  0  0  0  0
 21  3  1  0  0  0  0
M  END
