Coordinates from ORCA-job 4-NO2-Ph-N2-HSO4-B3LYPG-6-31G_dp-MTMO-d009-169-n800
 OpenBabel09051908393D

 21 20  0  0  0  0  0  0  0  0999 V2000
   -0.2363   -0.7024    0.4019 C   0  0  0  0  0  0  0  0  0  0  0  0
    1.1433   -0.7341    0.5808 C   0  0  0  0  0  0  0  0  0  0  0  0
    1.7659    0.3459    1.2069 C   0  0  0  0  0  0  0  0  0  0  0  0
    1.0494    1.4522    1.6622 C   0  0  0  0  0  0  0  0  0  0  0  0
   -0.3311    1.4825    1.4893 C   0  0  0  0  0  0  0  0  0  0  0  0
   -0.9501    0.4040    0.8600 C   0  0  0  0  0  0  0  0  0  0  0  0
   -0.7646   -1.5162   -0.0786 H   0  0  0  0  0  0  0  0  0  0  0  0
    1.7345   -1.5741    0.2380 H   0  0  0  0  0  0  0  0  0  0  0  0
    1.5733    2.2673    2.1479 H   0  0  0  0  0  0  0  0  0  0  0  0
   -0.9295    2.3182    1.8285 H   0  0  0  0  0  0  0  0  0  0  0  0
   -2.4112    0.4342    0.6746 N   0  0  0  0  0  0  0  0  0  0  0  0
   -2.9343   -0.5314    0.1219 O   0  0  0  0  0  0  0  0  0  0  0  0
   -3.0153    1.4241    1.0842 O   0  0  0  0  0  0  0  0  0  0  0  0
    3.9955    1.7987   -3.8632 N   0  0  0  0  0  0  0  0  0  0  0  0
    4.8551    2.0194   -3.2048 N   0  0  0  0  0  0  0  0  0  0  0  0
    4.2066    0.5529    0.2432 S   0  0  0  0  0  0  0  0  0  0  0  0
    4.0277    2.1493   -0.0040 O   0  0  0  0  0  0  0  0  0  0  0  0
    4.6889    2.6081    0.5428 H   0  0  0  0  0  0  0  0  0  0  0  0
    3.7260   -0.0989   -0.9531 O   0  0  0  0  0  0  0  0  0  0  0  0
    5.5026    0.3120    0.8388 O   0  0  0  0  0  0  0  0  0  0  0  0
    3.1411    0.3036    1.4750 O   0  0  0  0  0  0  0  0  0  0  0  0
  1  2  2  0  0  0  0
  1  6  1  0  0  0  0
  2  3  1  0  0  0  0
  3 21  1  0  0  0  0
  3  4  2  0  0  0  0
  4  9  1  0  0  0  0
  5  4  1  0  0  0  0
  5 10  1  0  0  0  0
  6  5  2  0  0  0  0
  7  1  1  0  0  0  0
  8  2  1  0  0  0  0
 11  6  1  0  0  0  0
 11 13  2  0  0  0  0
 12 11  2  0  0  0  0
 14 15  3  0  0  0  0
 16 20  2  0  0  0  0
 16 21  1  0  0  0  0
 17 16  1  0  0  0  0
 17 18  1  0  0  0  0
 19 16  2  0  0  0  0
M  END
