Coordinates from ORCA-job 4-NO2-Ph-N2-HSO4-B3LYPG-6-31G_dp-MTMO-d009-169-n800
 OpenBabel09051908393D

 21 20  0  0  0  0  0  0  0  0999 V2000
   -1.1171   -1.0359    0.9981 C   0  0  0  0  0  0  0  0  0  0  0  0
    0.2474   -1.2703    0.8589 C   0  0  0  0  0  0  0  0  0  0  0  0
    1.1389   -0.2264    1.1073 C   0  0  0  0  0  0  0  0  0  0  0  0
    0.7058    1.0412    1.4948 C   0  0  0  0  0  0  0  0  0  0  0  0
   -0.6582    1.2753    1.6405 C   0  0  0  0  0  0  0  0  0  0  0  0
   -1.5466    0.2317    1.3878 C   0  0  0  0  0  0  0  0  0  0  0  0
   -1.8475   -1.8136    0.8154 H   0  0  0  0  0  0  0  0  0  0  0  0
    0.6218   -2.2407    0.5572 H   0  0  0  0  0  0  0  0  0  0  0  0
    1.4331    1.8220    1.6845 H   0  0  0  0  0  0  0  0  0  0  0  0
   -1.0415    2.2415    1.9426 H   0  0  0  0  0  0  0  0  0  0  0  0
   -2.9910    0.4768    1.5413 N   0  0  0  0  0  0  0  0  0  0  0  0
   -3.7536   -0.4605    1.3143 O   0  0  0  0  0  0  0  0  0  0  0  0
   -3.3422    1.6035    1.8874 O   0  0  0  0  0  0  0  0  0  0  0  0
   11.3262    7.3609   -4.0678 N   0  0  0  0  0  0  0  0  0  0  0  0
   10.5386    6.7270   -3.6212 N   0  0  0  0  0  0  0  0  0  0  0  0
    3.2606   -0.5937   -0.4101 S   0  0  0  0  0  0  0  0  0  0  0  0
    3.2528    0.9531   -0.9091 O   0  0  0  0  0  0  0  0  0  0  0  0
    4.0662    1.3727   -0.5789 H   0  0  0  0  0  0  0  0  0  0  0  0
    2.4061   -1.3172   -1.3221 O   0  0  0  0  0  0  0  0  0  0  0  0
    4.6177   -0.9752   -0.0854 O   0  0  0  0  0  0  0  0  0  0  0  0
    2.5204   -0.4567    1.0566 O   0  0  0  0  0  0  0  0  0  0  0  0
  1  6  1  0  0  0  0
  2  1  2  0  0  0  0
  2  3  1  0  0  0  0
  3  4  2  0  0  0  0
  4  5  1  0  0  0  0
  4  9  1  0  0  0  0
  5 10  1  0  0  0  0
  6 11  1  0  0  0  0
  6  5  2  0  0  0  0
  7  1  1  0  0  0  0
  8  2  1  0  0  0  0
 11 13  2  0  0  0  0
 12 11  2  0  0  0  0
 14 15  3  0  0  0  0
 16 20  2  0  0  0  0
 16 21  1  0  0  0  0
 17 18  1  0  0  0  0
 17 16  1  0  0  0  0
 19 16  2  0  0  0  0
 21  3  1  0  0  0  0
M  END
