Coordinates from ORCA-job 4-NO2-Ph-N2-HSO4-B3LYPG-6-31G_dp-MTMO-d009-169-n800
 OpenBabel09051908393D

 21 21  0  0  1  0  0  0  0  0999 V2000
    0.5785   -0.3853    0.4285 C   0  0  0  0  0  0  0  0  0  0  0  0
    1.7086   -0.0257   -0.4860 C   0  0  1  0  0  0  0  0  0  0  0  0
    1.8146    1.5244   -0.7686 C   0  0  0  0  0  0  0  0  0  0  0  0
    0.6193    2.3499   -0.4646 C   0  0  0  0  0  0  0  0  0  0  0  0
   -0.4400    1.8505    0.1930 C   0  0  0  0  0  0  0  0  0  0  0  0
   -0.4169    0.4776    0.6681 C   0  0  0  0  0  0  0  0  0  0  0  0
    0.5551   -1.3913    0.8318 H   0  0  0  0  0  0  0  0  0  0  0  0
    1.5684   -0.5352   -1.4493 H   0  0  0  0  0  0  0  0  0  0  0  0
    0.6645    3.3886   -0.7744 H   0  0  0  0  0  0  0  0  0  0  0  0
   -1.3035    2.4598    0.4248 H   0  0  0  0  0  0  0  0  0  0  0  0
   -1.5563    0.0212    1.4966 N   0  0  0  0  0  0  0  0  0  0  0  0
   -1.5429   -1.1358    1.9047 O   0  0  0  0  0  0  0  0  0  0  0  0
   -2.4462    0.8415    1.7121 O   0  0  0  0  0  0  0  0  0  0  0  0
    2.7182    1.8735   -1.0885 N   0  0  0  0  0  0  0  0  0  0  0  0
    3.8049    2.1762   -1.4221 N   0  0  0  0  0  0  0  0  0  0  0  0
    3.7005   -0.0227    1.3334 S   0  0  0  0  0  0  0  0  0  0  0  0
    5.0466    0.6013    0.7262 O   0  0  0  0  0  0  0  0  0  0  0  0
    4.8336    1.3707    0.1445 H   0  0  0  0  0  0  0  0  0  0  0  0
    2.8544    1.0224    1.8888 O   0  0  0  0  0  0  0  0  0  0  0  0
    2.9872   -0.5500   -0.0796 O   0  0  0  0  0  0  0  0  0  0  0  0
    4.0891   -1.1962    2.0730 O   0  0  0  0  0  0  0  0  0  0  0  0
  1  6  2  0  0  0  0
  1  7  1  0  0  0  0
  2  8  1  6  0  0  0
  2 20  1  0  0  0  0
  2  1  1  0  0  0  0
  3  2  1  0  0  0  0
  3  4  2  0  0  0  0
  4  5  1  0  0  0  0
  5 10  1  0  0  0  0
  5  6  1  0  0  0  0
  6 11  1  0  0  0  0
  9  4  1  0  0  0  0
 11 13  2  0  0  0  0
 11 12  2  0  0  0  0
 14  3  1  0  0  0  0
 15 14  1  0  0  0  0
 16 19  2  0  0  0  0
 16 21  2  0  0  0  0
 17 16  1  0  0  0  0
 18 17  1  0  0  0  0
 20 16  1  0  0  0  0
M  RAD  3   5   2  14   2  15   3
M  END
