Coordinates from ORCA-job 4-NO2-Ph-N2-HSO4-B3LYPG-6-31G_dp-MTMO-d009-169-n800
 OpenBabel09051908393D

 21 20  0  0  0  0  0  0  0  0999 V2000
   -1.1975   -1.0869    1.0368 C   0  0  0  0  0  0  0  0  0  0  0  0
    0.1665   -1.3242    0.8978 C   0  0  0  0  0  0  0  0  0  0  0  0
    1.0600   -0.2810    1.1422 C   0  0  0  0  0  0  0  0  0  0  0  0
    0.6293    0.9887    1.5251 C   0  0  0  0  0  0  0  0  0  0  0  0
   -0.7342    1.2258    1.6704 C   0  0  0  0  0  0  0  0  0  0  0  0
   -1.6246    0.1829    1.4220 C   0  0  0  0  0  0  0  0  0  0  0  0
   -1.9293   -1.8640    0.8573 H   0  0  0  0  0  0  0  0  0  0  0  0
    0.5390   -2.2964    0.5996 H   0  0  0  0  0  0  0  0  0  0  0  0
    1.3581    1.7690    1.7115 H   0  0  0  0  0  0  0  0  0  0  0  0
   -1.1157    2.1938    1.9690 H   0  0  0  0  0  0  0  0  0  0  0  0
   -3.0685    0.4312    1.5751 N   0  0  0  0  0  0  0  0  0  0  0  0
   -3.8329   -0.5057    1.3520 O   0  0  0  0  0  0  0  0  0  0  0  0
   -3.4175    1.5598    1.9170 O   0  0  0  0  0  0  0  0  0  0  0  0
   12.0712    7.8736   -4.3918 N   0  0  0  0  0  0  0  0  0  0  0  0
   11.2827    7.2377   -3.9496 N   0  0  0  0  0  0  0  0  0  0  0  0
    3.1805   -0.6554   -0.3749 S   0  0  0  0  0  0  0  0  0  0  0  0
    3.1769    0.8907   -0.8761 O   0  0  0  0  0  0  0  0  0  0  0  0
    3.9920    1.3082   -0.5472 H   0  0  0  0  0  0  0  0  0  0  0  0
    2.3238   -1.3779   -1.2856 O   0  0  0  0  0  0  0  0  0  0  0  0
    4.5367   -1.0401   -0.0500 O   0  0  0  0  0  0  0  0  0  0  0  0
    2.4410   -0.5143    1.0917 O   0  0  0  0  0  0  0  0  0  0  0  0
  1  6  1  0  0  0  0
  2  1  2  0  0  0  0
  2  3  1  0  0  0  0
  3  4  2  0  0  0  0
  4  5  1  0  0  0  0
  4  9  1  0  0  0  0
  5 10  1  0  0  0  0
  6 11  1  0  0  0  0
  6  5  2  0  0  0  0
  7  1  1  0  0  0  0
  8  2  1  0  0  0  0
 11 13  2  0  0  0  0
 12 11  2  0  0  0  0
 14 15  3  0  0  0  0
 16 20  2  0  0  0  0
 16 21  1  0  0  0  0
 17 18  1  0  0  0  0
 17 16  1  0  0  0  0
 19 16  2  0  0  0  0
 21  3  1  0  0  0  0
M  END
