Coordinates from ORCA-job 4-NO2-Ph-N2-HSO4-B3LYPG-6-31G_dp-MTMO-d009-169-n800
 OpenBabel09051908393D

 21 20  0  0  0  0  0  0  0  0999 V2000
   -0.9238   -0.9264    0.8924 C   0  0  0  0  0  0  0  0  0  0  0  0
    0.4442   -1.1384    0.7515 C   0  0  0  0  0  0  0  0  0  0  0  0
    1.3203   -0.0883    1.0274 C   0  0  0  0  0  0  0  0  0  0  0  0
    0.8683    1.1632    1.4444 C   0  0  0  0  0  0  0  0  0  0  0  0
   -0.4991    1.3747    1.5920 C   0  0  0  0  0  0  0  0  0  0  0  0
   -1.3722    0.3253    1.3114 C   0  0  0  0  0  0  0  0  0  0  0  0
   -1.6427   -1.7096    0.6888 H   0  0  0  0  0  0  0  0  0  0  0  0
    0.8328   -2.0960    0.4276 H   0  0  0  0  0  0  0  0  0  0  0  0
    1.5842    1.9492    1.6551 H   0  0  0  0  0  0  0  0  0  0  0  0
   -0.8967    2.3279    1.9161 H   0  0  0  0  0  0  0  0  0  0  0  0
   -2.8203    0.5462    1.4666 N   0  0  0  0  0  0  0  0  0  0  0  0
   -3.5691   -0.3958    1.2143 O   0  0  0  0  0  0  0  0  0  0  0  0
   -3.1882    1.6590    1.8393 O   0  0  0  0  0  0  0  0  0  0  0  0
    9.6373    6.0970   -3.3540 N   0  0  0  0  0  0  0  0  0  0  0  0
    8.8530    5.4813   -2.8772 N   0  0  0  0  0  0  0  0  0  0  0  0
    3.4504   -0.4013   -0.4913 S   0  0  0  0  0  0  0  0  0  0  0  0
    3.4126    1.1507   -0.9722 O   0  0  0  0  0  0  0  0  0  0  0  0
    4.2152    1.5841   -0.6333 H   0  0  0  0  0  0  0  0  0  0  0  0
    2.6123   -1.1306   -1.4138 O   0  0  0  0  0  0  0  0  0  0  0  0
    4.8140   -0.7602   -0.1681 O   0  0  0  0  0  0  0  0  0  0  0  0
    2.7051   -0.2965    0.9753 O   0  0  0  0  0  0  0  0  0  0  0  0
  1  6  1  0  0  0  0
  2  1  2  0  0  0  0
  2  3  1  0  0  0  0
  3  4  2  0  0  0  0
  4  5  1  0  0  0  0
  4  9  1  0  0  0  0
  5 10  1  0  0  0  0
  6 11  1  0  0  0  0
  6  5  2  0  0  0  0
  7  1  1  0  0  0  0
  8  2  1  0  0  0  0
 11 13  2  0  0  0  0
 12 11  2  0  0  0  0
 14 15  3  0  0  0  0
 16 20  2  0  0  0  0
 16 21  1  0  0  0  0
 17 18  1  0  0  0  0
 17 16  1  0  0  0  0
 19 16  2  0  0  0  0
 21  3  1  0  0  0  0
M  END
