Coordinates from ORCA-job 4-NO2-Ph-N2-HSO4-B3LYPG-6-31G_dp-MTMO-d009-169-n800
 OpenBabel09051908393D

 21 20  0  0  0  0  0  0  0  0999 V2000
   -0.8642   -0.8987    0.8561 C   0  0  0  0  0  0  0  0  0  0  0  0
    0.5058   -1.0967    0.7139 C   0  0  0  0  0  0  0  0  0  0  0  0
    1.3722   -0.0424    1.0041 C   0  0  0  0  0  0  0  0  0  0  0  0
    0.9087    1.1996    1.4367 C   0  0  0  0  0  0  0  0  0  0  0  0
   -0.4607    1.3970    1.5857 C   0  0  0  0  0  0  0  0  0  0  0  0
   -1.3241    0.3435    1.2908 C   0  0  0  0  0  0  0  0  0  0  0  0
   -1.5759   -1.6855    0.6417 H   0  0  0  0  0  0  0  0  0  0  0  0
    0.9032   -2.0464    0.3780 H   0  0  0  0  0  0  0  0  0  0  0  0
    1.6174    1.9890    1.6582 H   0  0  0  0  0  0  0  0  0  0  0  0
   -0.8669    2.3424    1.9217 H   0  0  0  0  0  0  0  0  0  0  0  0
   -2.7742    0.5495    1.4474 N   0  0  0  0  0  0  0  0  0  0  0  0
   -3.5144   -0.3959    1.1826 O   0  0  0  0  0  0  0  0  0  0  0  0
   -3.1525    1.6541    1.8339 O   0  0  0  0  0  0  0  0  0  0  0  0
    9.1671    5.6861   -3.1609 N   0  0  0  0  0  0  0  0  0  0  0  0
    8.3797    5.0880   -2.6671 N   0  0  0  0  0  0  0  0  0  0  0  0
    3.5064   -0.3208   -0.5161 S   0  0  0  0  0  0  0  0  0  0  0  0
    3.4515    1.2345   -0.9840 O   0  0  0  0  0  0  0  0  0  0  0  0
    4.2490    1.6743   -0.6413 H   0  0  0  0  0  0  0  0  0  0  0  0
    2.6772   -1.0517   -1.4454 O   0  0  0  0  0  0  0  0  0  0  0  0
    4.8737   -0.6673   -0.1947 O   0  0  0  0  0  0  0  0  0  0  0  0
    2.7590   -0.2370    0.9508 O   0  0  0  0  0  0  0  0  0  0  0  0
  1  6  1  0  0  0  0
  2  1  2  0  0  0  0
  2  3  1  0  0  0  0
  3  4  2  0  0  0  0
  4  5  1  0  0  0  0
  4  9  1  0  0  0  0
  5 10  1  0  0  0  0
  6 11  1  0  0  0  0
  6  5  2  0  0  0  0
  7  1  1  0  0  0  0
  8  2  1  0  0  0  0
 11 13  2  0  0  0  0
 12 11  2  0  0  0  0
 14 15  3  0  0  0  0
 16 20  2  0  0  0  0
 16 21  1  0  0  0  0
 17 18  1  0  0  0  0
 17 16  1  0  0  0  0
 19 16  2  0  0  0  0
 21  3  1  0  0  0  0
M  END
