Coordinates from ORCA-job 4-NO2-Ph-N2-HSO4-B3LYPG-6-31G_dp-MTMO-d009-169-n800
 OpenBabel09051908393D

 21 20  0  0  0  0  0  0  0  0999 V2000
   -0.9058   -0.9176    0.8812 C   0  0  0  0  0  0  0  0  0  0  0  0
    0.4627   -1.1258    0.7400 C   0  0  0  0  0  0  0  0  0  0  0  0
    1.3362   -0.0747    1.0204 C   0  0  0  0  0  0  0  0  0  0  0  0
    0.8811    1.1741    1.4420 C   0  0  0  0  0  0  0  0  0  0  0  0
   -0.4869    1.3818    1.5899 C   0  0  0  0  0  0  0  0  0  0  0  0
   -1.3574    0.3314    1.3049 C   0  0  0  0  0  0  0  0  0  0  0  0
   -1.6228   -1.7017    0.6742 H   0  0  0  0  0  0  0  0  0  0  0  0
    0.8537   -2.0811    0.4125 H   0  0  0  0  0  0  0  0  0  0  0  0
    1.5950    1.9609    1.6561 H   0  0  0  0  0  0  0  0  0  0  0  0
   -0.8868    2.3328    1.9176 H   0  0  0  0  0  0  0  0  0  0  0  0
   -2.8060    0.5483    1.4603 N   0  0  0  0  0  0  0  0  0  0  0  0
   -3.5525   -0.3945    1.2042 O   0  0  0  0  0  0  0  0  0  0  0  0
   -3.1768    1.6588    1.8372 O   0  0  0  0  0  0  0  0  0  0  0  0
    9.4917    5.9740   -3.2948 N   0  0  0  0  0  0  0  0  0  0  0  0
    8.7069    5.3627   -2.8131 N   0  0  0  0  0  0  0  0  0  0  0  0
    3.4678   -0.3781   -0.4985 S   0  0  0  0  0  0  0  0  0  0  0  0
    3.4252    1.1748   -0.9758 O   0  0  0  0  0  0  0  0  0  0  0  0
    4.2262    1.6101   -0.6356 H   0  0  0  0  0  0  0  0  0  0  0  0
    2.6322   -1.1079   -1.4231 O   0  0  0  0  0  0  0  0  0  0  0  0
    4.8323   -0.7335   -0.1756 O   0  0  0  0  0  0  0  0  0  0  0  0
    2.7216   -0.2792    0.9681 O   0  0  0  0  0  0  0  0  0  0  0  0
  1  6  1  0  0  0  0
  2  1  2  0  0  0  0
  2  3  1  0  0  0  0
  3  4  2  0  0  0  0
  4  5  1  0  0  0  0
  4  9  1  0  0  0  0
  5 10  1  0  0  0  0
  6 11  1  0  0  0  0
  6  5  2  0  0  0  0
  7  1  1  0  0  0  0
  8  2  1  0  0  0  0
 11 13  2  0  0  0  0
 12 11  2  0  0  0  0
 14 15  3  0  0  0  0
 16 20  2  0  0  0  0
 16 21  1  0  0  0  0
 17 18  1  0  0  0  0
 17 16  1  0  0  0  0
 19 16  2  0  0  0  0
 21  3  1  0  0  0  0
M  END
