Coordinates from ORCA-job 4-NO2-Ph-N2-HSO4-B3LYPG-6-31G_dp-MTMO-d009-169-n800
 OpenBabel09051908393D

 21 20  0  0  0  0  0  0  0  0999 V2000
    0.0394   -0.5795    0.0432 C   0  0  0  0  0  0  0  0  0  0  0  0
    1.4012   -0.4557    0.2850 C   0  0  0  0  0  0  0  0  0  0  0  0
    1.8930    0.7637    0.7805 C   0  0  0  0  0  0  0  0  0  0  0  0
    1.0118    1.7594    1.2337 C   0  0  0  0  0  0  0  0  0  0  0  0
   -0.3479    1.6284    1.0004 C   0  0  0  0  0  0  0  0  0  0  0  0
   -0.8166    0.4691    0.3799 C   0  0  0  0  0  0  0  0  0  0  0  0
   -0.3740   -1.4861   -0.3807 H   0  0  0  0  0  0  0  0  0  0  0  0
    2.0807   -1.2594    0.0379 H   0  0  0  0  0  0  0  0  0  0  0  0
    1.4185    2.6397    1.7182 H   0  0  0  0  0  0  0  0  0  0  0  0
   -1.0511    2.3955    1.2984 H   0  0  0  0  0  0  0  0  0  0  0  0
   -2.2550    0.3290    0.1245 N   0  0  0  0  0  0  0  0  0  0  0  0
   -2.6414   -0.7140   -0.4019 O   0  0  0  0  0  0  0  0  0  0  0  0
   -2.9846    1.2649    0.4516 O   0  0  0  0  0  0  0  0  0  0  0  0
    2.3701    1.6574   -1.0379 N   0  0  0  0  0  0  0  0  0  0  0  0
    1.7469    1.9480   -1.9088 N   0  0  0  0  0  0  0  0  0  0  0  0
    4.5659    0.3206    0.5992 S   0  0  0  0  0  0  0  0  0  0  0  0
    5.1746    1.6721   -0.0555 O   0  0  0  0  0  0  0  0  0  0  0  0
    5.7645    2.0775    0.6039 H   0  0  0  0  0  0  0  0  0  0  0  0
    4.2542   -0.5727   -0.4936 O   0  0  0  0  0  0  0  0  0  0  0  0
    5.3976   -0.0461    1.7258 O   0  0  0  0  0  0  0  0  0  0  0  0
    3.1898    0.9037    1.2884 O   0  0  0  0  0  0  0  0  0  0  0  0
  1  2  2  0  0  0  0
  1  6  1  0  0  0  0
  2  3  1  0  0  0  0
  3  4  2  0  0  0  0
  3 21  1  0  0  0  0
  4  9  1  0  0  0  0
  5  4  1  0  0  0  0
  5 10  1  0  0  0  0
  6  5  2  0  0  0  0
  7  1  1  0  0  0  0
  8  2  1  0  0  0  0
 11  6  1  0  0  0  0
 11 13  2  0  0  0  0
 12 11  2  0  0  0  0
 15 14  3  0  0  0  0
 16 21  1  0  0  0  0
 16 20  2  0  0  0  0
 17 16  1  0  0  0  0
 17 18  1  0  0  0  0
 19 16  2  0  0  0  0
M  END
