Coordinates from ORCA-job 4-NO2-Ph-N2-HSO4-B3LYPG-6-31G_dp-MTMO-d009-169-n800
 OpenBabel09051908393D

 21 20  0  0  0  0  0  0  0  0999 V2000
   -1.0146   -0.9755    0.9464 C   0  0  0  0  0  0  0  0  0  0  0  0
    0.3512   -1.2013    0.8061 C   0  0  0  0  0  0  0  0  0  0  0  0
    1.2368   -0.1546    1.0639 C   0  0  0  0  0  0  0  0  0  0  0  0
    0.7964    1.1072    1.4620 C   0  0  0  0  0  0  0  0  0  0  0  0
   -0.5689    1.3326    1.6088 C   0  0  0  0  0  0  0  0  0  0  0  0
   -1.4514    0.2864    1.3466 C   0  0  0  0  0  0  0  0  0  0  0  0
   -1.7406   -1.7557    0.7566 H   0  0  0  0  0  0  0  0  0  0  0  0
    0.7310   -2.1670    0.4965 H   0  0  0  0  0  0  0  0  0  0  0  0
    1.5193    1.8903    1.6588 H   0  0  0  0  0  0  0  0  0  0  0  0
   -0.9577    2.2940    1.9188 H   0  0  0  0  0  0  0  0  0  0  0  0
   -2.8972    0.5221    1.5012 N   0  0  0  0  0  0  0  0  0  0  0  0
   -3.6546   -0.4173    1.2654 O   0  0  0  0  0  0  0  0  0  0  0  0
   -3.2549    1.6438    1.8570 O   0  0  0  0  0  0  0  0  0  0  0  0
   10.4113    6.7022   -3.6725 N   0  0  0  0  0  0  0  0  0  0  0  0
    9.6252    6.0728   -3.2168 N   0  0  0  0  0  0  0  0  0  0  0  0
    3.3611   -0.5023   -0.4548 S   0  0  0  0  0  0  0  0  0  0  0  0
    3.3414    1.0461   -0.9482 O   0  0  0  0  0  0  0  0  0  0  0  0
    4.1506    1.4717   -0.6153 H   0  0  0  0  0  0  0  0  0  0  0  0
    2.5126   -1.2291   -1.3697 O   0  0  0  0  0  0  0  0  0  0  0  0
    4.7209   -0.8748   -0.1310 O   0  0  0  0  0  0  0  0  0  0  0  0
    2.6196   -0.3763    1.0122 O   0  0  0  0  0  0  0  0  0  0  0  0
  1  6  1  0  0  0  0
  2  1  2  0  0  0  0
  2  3  1  0  0  0  0
  3  4  2  0  0  0  0
  4  5  1  0  0  0  0
  4  9  1  0  0  0  0
  5 10  1  0  0  0  0
  6 11  1  0  0  0  0
  6  5  2  0  0  0  0
  7  1  1  0  0  0  0
  8  2  1  0  0  0  0
 11 13  2  0  0  0  0
 12 11  2  0  0  0  0
 14 15  3  0  0  0  0
 16 20  2  0  0  0  0
 16 21  1  0  0  0  0
 17 18  1  0  0  0  0
 17 16  1  0  0  0  0
 19 16  2  0  0  0  0
 21  3  1  0  0  0  0
M  END
