Coordinates from ORCA-job 4-NO2-Ph-N2-HSO4-B3LYPG-6-31G_dp-MTMO-d009-169-n800
 OpenBabel09051908393D

 21 20  0  0  0  0  0  0  0  0999 V2000
   -1.0272   -0.9828    0.9534 C   0  0  0  0  0  0  0  0  0  0  0  0
    0.3384   -1.2099    0.8132 C   0  0  0  0  0  0  0  0  0  0  0  0
    1.2249   -0.1635    1.0691 C   0  0  0  0  0  0  0  0  0  0  0  0
    0.7858    1.0993    1.4651 C   0  0  0  0  0  0  0  0  0  0  0  0
   -0.5793    1.3261    1.6119 C   0  0  0  0  0  0  0  0  0  0  0  0
   -1.4628    0.2802    1.3516 C   0  0  0  0  0  0  0  0  0  0  0  0
   -1.7539   -1.7626    0.7651 H   0  0  0  0  0  0  0  0  0  0  0  0
    0.7173   -2.1764    0.5051 H   0  0  0  0  0  0  0  0  0  0  0  0
    1.5094    1.8821    1.6605 H   0  0  0  0  0  0  0  0  0  0  0  0
   -0.9672    2.2884    1.9204 H   0  0  0  0  0  0  0  0  0  0  0  0
   -2.9084    0.5175    1.5062 N   0  0  0  0  0  0  0  0  0  0  0  0
   -3.6666   -0.4218    1.2722 O   0  0  0  0  0  0  0  0  0  0  0  0
   -3.2650    1.6400    1.8601 O   0  0  0  0  0  0  0  0  0  0  0  0
   10.5215    6.7839   -3.7189 N   0  0  0  0  0  0  0  0  0  0  0  0
    9.7352    6.1535   -3.2651 N   0  0  0  0  0  0  0  0  0  0  0  0
    3.3487   -0.5145   -0.4496 S   0  0  0  0  0  0  0  0  0  0  0  0
    3.3310    1.0336   -0.9441 O   0  0  0  0  0  0  0  0  0  0  0  0
    4.1409    1.4582   -0.6117 H   0  0  0  0  0  0  0  0  0  0  0  0
    2.4991   -1.2408   -1.3639 O   0  0  0  0  0  0  0  0  0  0  0  0
    4.7081   -0.8886   -0.1259 O   0  0  0  0  0  0  0  0  0  0  0  0
    2.6076   -0.3866    1.0174 O   0  0  0  0  0  0  0  0  0  0  0  0
  1  6  1  0  0  0  0
  2  1  2  0  0  0  0
  2  3  1  0  0  0  0
  3  4  2  0  0  0  0
  4  5  1  0  0  0  0
  4  9  1  0  0  0  0
  5 10  1  0  0  0  0
  6 11  1  0  0  0  0
  6  5  2  0  0  0  0
  7  1  1  0  0  0  0
  8  2  1  0  0  0  0
 11 13  2  0  0  0  0
 12 11  2  0  0  0  0
 14 15  3  0  0  0  0
 16 20  2  0  0  0  0
 16 21  1  0  0  0  0
 17 18  1  0  0  0  0
 17 16  1  0  0  0  0
 19 16  2  0  0  0  0
 21  3  1  0  0  0  0
M  END
