Coordinates from ORCA-job 4-NO2-Ph-N2-HSO4-B3LYPG-6-31G_dp-MTMO-d009-169-n800
 OpenBabel09051908393D

 21 20  0  0  0  0  0  0  0  0999 V2000
   -0.8198   -0.8808    0.8343 C   0  0  0  0  0  0  0  0  0  0  0  0
    0.5517   -1.0663    0.6894 C   0  0  0  0  0  0  0  0  0  0  0  0
    1.4094   -0.0068    0.9859 C   0  0  0  0  0  0  0  0  0  0  0  0
    0.9359    1.2282    1.4275 C   0  0  0  0  0  0  0  0  0  0  0  0
   -0.4349    1.4131    1.5792 C   0  0  0  0  0  0  0  0  0  0  0  0
   -1.2897    0.3544    1.2779 C   0  0  0  0  0  0  0  0  0  0  0  0
   -1.5251   -1.6722    0.6153 H   0  0  0  0  0  0  0  0  0  0  0  0
    0.9567   -2.0103    0.3465 H   0  0  0  0  0  0  0  0  0  0  0  0
    1.6382    2.0221    1.6536 H   0  0  0  0  0  0  0  0  0  0  0  0
   -0.8487    2.3528    1.9220 H   0  0  0  0  0  0  0  0  0  0  0  0
   -2.7414    0.5470    1.4374 N   0  0  0  0  0  0  0  0  0  0  0  0
   -3.4738   -0.4028    1.1671 O   0  0  0  0  0  0  0  0  0  0  0  0
   -3.1286    1.6459    1.8315 O   0  0  0  0  0  0  0  0  0  0  0  0
    8.8398    5.3813   -3.0123 N   0  0  0  0  0  0  0  0  0  0  0  0
    8.0450    4.7997   -2.5107 N   0  0  0  0  0  0  0  0  0  0  0  0
    3.5443   -0.2580   -0.5383 S   0  0  0  0  0  0  0  0  0  0  0  0
    3.4752    1.2992   -0.9975 O   0  0  0  0  0  0  0  0  0  0  0  0
    4.2703    1.7439   -0.6555 H   0  0  0  0  0  0  0  0  0  0  0  0
    2.7205   -0.9912   -1.4706 O   0  0  0  0  0  0  0  0  0  0  0  0
    4.9149   -0.5946   -0.2205 O   0  0  0  0  0  0  0  0  0  0  0  0
    2.7978   -0.1891    0.9299 O   0  0  0  0  0  0  0  0  0  0  0  0
  1  6  1  0  0  0  0
  2  1  2  0  0  0  0
  2  3  1  0  0  0  0
  3  4  2  0  0  0  0
  4  5  1  0  0  0  0
  4  9  1  0  0  0  0
  5 10  1  0  0  0  0
  6 11  1  0  0  0  0
  6  5  2  0  0  0  0
  7  1  1  0  0  0  0
  8  2  1  0  0  0  0
 11 13  2  0  0  0  0
 12 11  2  0  0  0  0
 14 15  3  0  0  0  0
 16 20  2  0  0  0  0
 16 21  1  0  0  0  0
 17 18  1  0  0  0  0
 17 16  1  0  0  0  0
 19 16  2  0  0  0  0
 21  3  1  0  0  0  0
M  END
