Coordinates from ORCA-job 4-NO2-Ph-N2-HSO4-B3LYPG-6-31G_dp-MTMO-d009-169-n800
 OpenBabel09051908393D

 21 20  0  0  0  0  0  0  0  0999 V2000
   -0.6168   -0.8543    0.8149 C   0  0  0  0  0  0  0  0  0  0  0  0
    0.7600   -0.9285    0.6273 C   0  0  0  0  0  0  0  0  0  0  0  0
    1.5364    0.2008    0.8865 C   0  0  0  0  0  0  0  0  0  0  0  0
    0.9777    1.3995    1.3284 C   0  0  0  0  0  0  0  0  0  0  0  0
   -0.3985    1.4736    1.5217 C   0  0  0  0  0  0  0  0  0  0  0  0
   -1.1724    0.3444    1.2604 C   0  0  0  0  0  0  0  0  0  0  0  0
   -1.2614   -1.7034    0.6264 H   0  0  0  0  0  0  0  0  0  0  0  0
    1.2304   -1.8406    0.2810 H   0  0  0  0  0  0  0  0  0  0  0  0
    1.6201    2.2511    1.5201 H   0  0  0  0  0  0  0  0  0  0  0  0
   -0.8770    2.3813    1.8664 H   0  0  0  0  0  0  0  0  0  0  0  0
   -2.6292    0.4195    1.4647 N   0  0  0  0  0  0  0  0  0  0  0  0
   -3.2893   -0.5908    1.2294 O   0  0  0  0  0  0  0  0  0  0  0  0
   -3.0934    1.4881    1.8592 O   0  0  0  0  0  0  0  0  0  0  0  0
    7.6794    3.9116   -2.2910 N   0  0  0  0  0  0  0  0  0  0  0  0
    6.8029    3.4207   -1.8300 N   0  0  0  0  0  0  0  0  0  0  0  0
    3.6513    0.1473   -0.6948 S   0  0  0  0  0  0  0  0  0  0  0  0
    3.6497    1.7377   -1.0246 O   0  0  0  0  0  0  0  0  0  0  0  0
    4.5435    2.0809   -0.8440 H   0  0  0  0  0  0  0  0  0  0  0  0
    2.7759   -0.4834   -1.6561 O   0  0  0  0  0  0  0  0  0  0  0  0
    5.0150   -0.2672   -0.4429 O   0  0  0  0  0  0  0  0  0  0  0  0
    2.9332    0.1271    0.7891 O   0  0  0  0  0  0  0  0  0  0  0  0
  1  6  1  0  0  0  0
  2  1  2  0  0  0  0
  2  3  1  0  0  0  0
  3  4  2  0  0  0  0
  4  9  1  0  0  0  0
  4  5  1  0  0  0  0
  5 10  1  0  0  0  0
  6 11  1  0  0  0  0
  6  5  2  0  0  0  0
  7  1  1  0  0  0  0
  8  2  1  0  0  0  0
 11 13  2  0  0  0  0
 12 11  2  0  0  0  0
 14 15  3  0  0  0  0
 16 20  2  0  0  0  0
 16 21  1  0  0  0  0
 17 18  1  0  0  0  0
 17 16  1  0  0  0  0
 19 16  2  0  0  0  0
 21  3  1  0  0  0  0
M  END
