Coordinates from ORCA-job 4-NO2-Ph-N2-HSO4-B3LYPG-6-31G_dp-MTMO-d009-169-n800
 OpenBabel09051908393D

 21 20  0  0  0  0  0  0  0  0999 V2000
   -1.2531   -1.1231    1.0617 C   0  0  0  0  0  0  0  0  0  0  0  0
    0.1107   -1.3613    0.9231 C   0  0  0  0  0  0  0  0  0  0  0  0
    1.0048   -0.3184    1.1667 C   0  0  0  0  0  0  0  0  0  0  0  0
    0.5748    0.9519    1.5485 C   0  0  0  0  0  0  0  0  0  0  0  0
   -0.7886    1.1899    1.6935 C   0  0  0  0  0  0  0  0  0  0  0  0
   -1.6796    0.1474    1.4458 C   0  0  0  0  0  0  0  0  0  0  0  0
   -1.9855   -1.8999    0.8827 H   0  0  0  0  0  0  0  0  0  0  0  0
    0.4827   -2.3339    0.6258 H   0  0  0  0  0  0  0  0  0  0  0  0
    1.3040    1.7319    1.7344 H   0  0  0  0  0  0  0  0  0  0  0  0
   -1.1695    2.1584    1.9912 H   0  0  0  0  0  0  0  0  0  0  0  0
   -3.1233    0.3966    1.5985 N   0  0  0  0  0  0  0  0  0  0  0  0
   -3.8882   -0.5400    1.3760 O   0  0  0  0  0  0  0  0  0  0  0  0
   -3.4717    1.5258    1.9394 O   0  0  0  0  0  0  0  0  0  0  0  0
   12.5936    8.2265   -4.6212 N   0  0  0  0  0  0  0  0  0  0  0  0
   11.8046    7.5897   -4.1812 N   0  0  0  0  0  0  0  0  0  0  0  0
    3.1253   -0.6949   -0.3499 S   0  0  0  0  0  0  0  0  0  0  0  0
    3.1231    0.8511   -0.8515 O   0  0  0  0  0  0  0  0  0  0  0  0
    3.9386    1.2679   -0.5227 H   0  0  0  0  0  0  0  0  0  0  0  0
    2.2681   -1.4170   -1.2605 O   0  0  0  0  0  0  0  0  0  0  0  0
    4.4811   -1.0806   -0.0247 O   0  0  0  0  0  0  0  0  0  0  0  0
    2.3856   -0.5527    1.1166 O   0  0  0  0  0  0  0  0  0  0  0  0
  1  6  1  0  0  0  0
  2  1  2  0  0  0  0
  2  3  1  0  0  0  0
  3  4  2  0  0  0  0
  4  5  1  0  0  0  0
  4  9  1  0  0  0  0
  5 10  1  0  0  0  0
  6 11  1  0  0  0  0
  6  5  2  0  0  0  0
  7  1  1  0  0  0  0
  8  2  1  0  0  0  0
 11 13  2  0  0  0  0
 12 11  2  0  0  0  0
 14 15  3  0  0  0  0
 16 20  2  0  0  0  0
 16 21  1  0  0  0  0
 17 18  1  0  0  0  0
 17 16  1  0  0  0  0
 19 16  2  0  0  0  0
 21  3  1  0  0  0  0
M  END
