Coordinates from ORCA-job 4-NO2-Ph-N2-HSO4-B3LYPG-6-31G_dp-MTMO-d009-169-n800
 OpenBabel09051908393D

 21 20  0  0  0  0  0  0  0  0999 V2000
    0.0456   -0.6050    0.0931 C   0  0  0  0  0  0  0  0  0  0  0  0
    1.4024   -0.5187    0.3908 C   0  0  0  0  0  0  0  0  0  0  0  0
    1.8892    0.6572    0.9668 C   0  0  0  0  0  0  0  0  0  0  0  0
    1.0403    1.7124    1.3114 C   0  0  0  0  0  0  0  0  0  0  0  0
   -0.3157    1.6187    1.0252 C   0  0  0  0  0  0  0  0  0  0  0  0
   -0.7929    0.4626    0.4083 C   0  0  0  0  0  0  0  0  0  0  0  0
   -0.3727   -1.4919   -0.3659 H   0  0  0  0  0  0  0  0  0  0  0  0
    2.0695   -1.3379    0.1600 H   0  0  0  0  0  0  0  0  0  0  0  0
    1.4552    2.5923    1.7893 H   0  0  0  0  0  0  0  0  0  0  0  0
   -1.0043    2.4179    1.2678 H   0  0  0  0  0  0  0  0  0  0  0  0
   -2.2261    0.3614    0.0969 N   0  0  0  0  0  0  0  0  0  0  0  0
   -2.6208   -0.6730   -0.4390 O   0  0  0  0  0  0  0  0  0  0  0  0
   -2.9407    1.3188    0.3916 O   0  0  0  0  0  0  0  0  0  0  0  0
    2.3421    1.8206   -1.3618 N   0  0  0  0  0  0  0  0  0  0  0  0
    1.7112    1.9895   -2.2541 N   0  0  0  0  0  0  0  0  0  0  0  0
    4.5522    0.3200    0.6003 S   0  0  0  0  0  0  0  0  0  0  0  0
    5.0620    1.7424    0.0158 O   0  0  0  0  0  0  0  0  0  0  0  0
    5.6674    2.1289    0.6724 H   0  0  0  0  0  0  0  0  0  0  0  0
    4.2003   -0.5003   -0.5357 O   0  0  0  0  0  0  0  0  0  0  0  0
    5.4700   -0.0952    1.6400 O   0  0  0  0  0  0  0  0  0  0  0  0
    3.2034    0.7946    1.4189 O   0  0  0  0  0  0  0  0  0  0  0  0
  1  2  2  0  0  0  0
  1  6  1  0  0  0  0
  2  3  1  0  0  0  0
  3  4  2  0  0  0  0
  3 21  1  0  0  0  0
  4  9  1  0  0  0  0
  5 10  1  0  0  0  0
  5  4  1  0  0  0  0
  6  5  2  0  0  0  0
  7  1  1  0  0  0  0
  8  2  1  0  0  0  0
 11 13  2  0  0  0  0
 11  6  1  0  0  0  0
 12 11  2  0  0  0  0
 15 14  3  0  0  0  0
 16 21  1  0  0  0  0
 16 20  2  0  0  0  0
 17 16  1  0  0  0  0
 17 18  1  0  0  0  0
 19 16  2  0  0  0  0
M  END
