Coordinates from ORCA-job 4-NO2-Ph-N2-HSO4-B3LYPG-6-31G_dp-MTMO-d009-169-n800
 OpenBabel09051908393D

 21 20  0  0  0  0  0  0  0  0999 V2000
    0.0572   -0.6566    0.1716 C   0  0  0  0  0  0  0  0  0  0  0  0
    1.3880   -0.7298    0.5713 C   0  0  0  0  0  0  0  0  0  0  0  0
    1.9571    0.3651    1.2222 C   0  0  0  0  0  0  0  0  0  0  0  0
    1.2333    1.5268    1.4890 C   0  0  0  0  0  0  0  0  0  0  0  0
   -0.0995    1.5990    1.0956 C   0  0  0  0  0  0  0  0  0  0  0  0
   -0.6641    0.5055    0.4413 C   0  0  0  0  0  0  0  0  0  0  0  0
   -0.4285   -1.4796   -0.3372 H   0  0  0  0  0  0  0  0  0  0  0  0
    1.9834   -1.6140    0.3802 H   0  0  0  0  0  0  0  0  0  0  0  0
    1.7132    2.3522    2.0019 H   0  0  0  0  0  0  0  0  0  0  0  0
   -0.7030    2.4779    1.2837 H   0  0  0  0  0  0  0  0  0  0  0  0
   -2.0744    0.5807    0.0228 N   0  0  0  0  0  0  0  0  0  0  0  0
   -2.5503   -0.3974   -0.5502 O   0  0  0  0  0  0  0  0  0  0  0  0
   -2.6864    1.6178    0.2730 O   0  0  0  0  0  0  0  0  0  0  0  0
    2.0169    1.8099   -2.2091 N   0  0  0  0  0  0  0  0  0  0  0  0
    1.4188    1.8086   -3.1386 N   0  0  0  0  0  0  0  0  0  0  0  0
    4.5324    0.4022    0.6590 S   0  0  0  0  0  0  0  0  0  0  0  0
    4.5134    1.9906    0.3187 O   0  0  0  0  0  0  0  0  0  0  0  0
    5.0606    2.4406    0.9857 H   0  0  0  0  0  0  0  0  0  0  0  0
    4.2097   -0.2810   -0.5718 O   0  0  0  0  0  0  0  0  0  0  0  0
    5.6926    0.1115    1.4729 O   0  0  0  0  0  0  0  0  0  0  0  0
    3.2673    0.2856    1.7104 O   0  0  0  0  0  0  0  0  0  0  0  0
  1  6  2  0  0  0  0
  1  2  1  0  0  0  0
  2  3  2  0  0  0  0
  3  4  1  0  0  0  0
  3 21  1  0  0  0  0
  4  9  1  0  0  0  0
  5 10  1  0  0  0  0
  5  4  2  0  0  0  0
  6  5  1  0  0  0  0
  7  1  1  0  0  0  0
  8  2  1  0  0  0  0
 11 13  2  0  0  0  0
 11  6  1  0  0  0  0
 12 11  2  0  0  0  0
 15 14  3  0  0  0  0
 16 20  2  0  0  0  0
 16 21  1  0  0  0  0
 17 16  1  0  0  0  0
 17 18  1  0  0  0  0
 19 16  2  0  0  0  0
M  END
