Coordinates from ORCA-job 4-NO2-Ph-N2-HSO4-B3LYPG-6-31G_dp-MTMO-d009-169-n800
 OpenBabel09051908393D

 21 20  0  0  0  0  0  0  0  0999 V2000
   -1.1277   -1.0427    1.0038 C   0  0  0  0  0  0  0  0  0  0  0  0
    0.2367   -1.2775    0.8645 C   0  0  0  0  0  0  0  0  0  0  0  0
    1.1285   -0.2337    1.1118 C   0  0  0  0  0  0  0  0  0  0  0  0
    0.6958    1.0343    1.4983 C   0  0  0  0  0  0  0  0  0  0  0  0
   -0.6681    1.2690    1.6440 C   0  0  0  0  0  0  0  0  0  0  0  0
   -1.5569    0.2254    1.3924 C   0  0  0  0  0  0  0  0  0  0  0  0
   -1.8584   -1.8204    0.8219 H   0  0  0  0  0  0  0  0  0  0  0  0
    0.6107   -2.2483    0.5636 H   0  0  0  0  0  0  0  0  0  0  0  0
    1.4234    1.8151    1.6871 H   0  0  0  0  0  0  0  0  0  0  0  0
   -1.0511    2.2355    1.9452 H   0  0  0  0  0  0  0  0  0  0  0  0
   -3.0011    0.4711    1.5460 N   0  0  0  0  0  0  0  0  0  0  0  0
   -3.7641   -0.4663    1.3200 O   0  0  0  0  0  0  0  0  0  0  0  0
   -3.3520    1.5982    1.8911 O   0  0  0  0  0  0  0  0  0  0  0  0
   11.4245    7.4293   -4.1098 N   0  0  0  0  0  0  0  0  0  0  0  0
   10.6367    6.7950   -3.6640 N   0  0  0  0  0  0  0  0  0  0  0  0
    3.2498   -0.6023   -0.4057 S   0  0  0  0  0  0  0  0  0  0  0  0
    3.2428    0.9444   -0.9051 O   0  0  0  0  0  0  0  0  0  0  0  0
    4.0566    1.3636   -0.5752 H   0  0  0  0  0  0  0  0  0  0  0  0
    2.3949   -1.3256   -1.3174 O   0  0  0  0  0  0  0  0  0  0  0  0
    4.6068   -0.9844   -0.0811 O   0  0  0  0  0  0  0  0  0  0  0  0
    2.5099   -0.4645    1.0610 O   0  0  0  0  0  0  0  0  0  0  0  0
  1  6  1  0  0  0  0
  2  1  2  0  0  0  0
  2  3  1  0  0  0  0
  3  4  2  0  0  0  0
  4  5  1  0  0  0  0
  4  9  1  0  0  0  0
  5 10  1  0  0  0  0
  6 11  1  0  0  0  0
  6  5  2  0  0  0  0
  7  1  1  0  0  0  0
  8  2  1  0  0  0  0
 11 13  2  0  0  0  0
 12 11  2  0  0  0  0
 14 15  3  0  0  0  0
 16 20  2  0  0  0  0
 16 21  1  0  0  0  0
 17 18  1  0  0  0  0
 17 16  1  0  0  0  0
 19 16  2  0  0  0  0
 21  3  1  0  0  0  0
M  END
