Coordinates from ORCA-job 4-NO2-Ph-N2-HSO4-B3LYPG-6-31G_dp-MTMO-d009-169-n800
 OpenBabel09051908393D

 21 20  0  0  0  0  0  0  0  0999 V2000
   -0.7718   -0.8658    0.8185 C   0  0  0  0  0  0  0  0  0  0  0  0
    0.6012   -1.0345    0.6678 C   0  0  0  0  0  0  0  0  0  0  0  0
    1.4474    0.0343    0.9646 C   0  0  0  0  0  0  0  0  0  0  0  0
    0.9608    1.2622    1.4119 C   0  0  0  0  0  0  0  0  0  0  0  0
   -0.4116    1.4302    1.5694 C   0  0  0  0  0  0  0  0  0  0  0  0
   -1.2548    0.3623    1.2679 C   0  0  0  0  0  0  0  0  0  0  0  0
   -1.4684   -1.6649    0.5995 H   0  0  0  0  0  0  0  0  0  0  0  0
    1.0162   -1.9724    0.3202 H   0  0  0  0  0  0  0  0  0  0  0  0
    1.6545    2.0636    1.6378 H   0  0  0  0  0  0  0  0  0  0  0  0
   -0.8352    2.3638    1.9166 H   0  0  0  0  0  0  0  0  0  0  0  0
   -2.7080    0.5370    1.4335 N   0  0  0  0  0  0  0  0  0  0  0  0
   -3.4300   -0.4209    1.1634 O   0  0  0  0  0  0  0  0  0  0  0  0
   -3.1069    1.6299    1.8324 O   0  0  0  0  0  0  0  0  0  0  0  0
    8.5205    5.0527   -2.8407 N   0  0  0  0  0  0  0  0  0  0  0  0
    7.7085    4.4925   -2.3422 N   0  0  0  0  0  0  0  0  0  0  0  0
    3.5796   -0.1856   -0.5684 S   0  0  0  0  0  0  0  0  0  0  0  0
    3.4943    1.3730   -1.0198 O   0  0  0  0  0  0  0  0  0  0  0  0
    4.2897    1.8222   -0.6844 H   0  0  0  0  0  0  0  0  0  0  0  0
    2.7593   -0.9224   -1.5011 O   0  0  0  0  0  0  0  0  0  0  0  0
    4.9545   -0.5106   -0.2572 O   0  0  0  0  0  0  0  0  0  0  0  0
    2.8376   -0.1311    0.9027 O   0  0  0  0  0  0  0  0  0  0  0  0
  1  6  1  0  0  0  0
  2  1  2  0  0  0  0
  2  3  1  0  0  0  0
  3  4  2  0  0  0  0
  4  5  1  0  0  0  0
  4  9  1  0  0  0  0
  5 10  1  0  0  0  0
  6 11  1  0  0  0  0
  6  5  2  0  0  0  0
  7  1  1  0  0  0  0
  8  2  1  0  0  0  0
 11 13  2  0  0  0  0
 12 11  2  0  0  0  0
 14 15  3  0  0  0  0
 16 20  2  0  0  0  0
 16 21  1  0  0  0  0
 17 18  1  0  0  0  0
 17 16  1  0  0  0  0
 19 16  2  0  0  0  0
 21  3  1  0  0  0  0
M  END
