Coordinates from ORCA-job 4-NO2-Ph-N2-HSO4-B3LYPG-6-31G_dp-MTMO-d009-169-n800
 OpenBabel09051908393D

 21 20  0  0  0  0  0  0  0  0999 V2000
   -0.9815   -0.9570    0.9275 C   0  0  0  0  0  0  0  0  0  0  0  0
    0.3850   -1.1786    0.7870 C   0  0  0  0  0  0  0  0  0  0  0  0
    1.2677   -0.1308    1.0503 C   0  0  0  0  0  0  0  0  0  0  0  0
    0.8238    1.1279    1.4542 C   0  0  0  0  0  0  0  0  0  0  0  0
   -0.5422    1.3490    1.6014 C   0  0  0  0  0  0  0  0  0  0  0  0
   -1.4219    0.3018    1.3335 C   0  0  0  0  0  0  0  0  0  0  0  0
   -1.7053   -1.7382    0.7335 H   0  0  0  0  0  0  0  0  0  0  0  0
    0.7675   -2.1418    0.4730 H   0  0  0  0  0  0  0  0  0  0  0  0
    1.5445    1.9119    1.6553 H   0  0  0  0  0  0  0  0  0  0  0  0
   -0.9337    2.3080    1.9157 H   0  0  0  0  0  0  0  0  0  0  0  0
   -2.8684    0.5330    1.4884 N   0  0  0  0  0  0  0  0  0  0  0  0
   -3.6231   -0.4073    1.2476 O   0  0  0  0  0  0  0  0  0  0  0  0
   -3.2292    1.6520    1.8495 O   0  0  0  0  0  0  0  0  0  0  0  0
   10.1238    6.4838   -3.5528 N   0  0  0  0  0  0  0  0  0  0  0  0
    9.3386    5.8587   -3.0899 N   0  0  0  0  0  0  0  0  0  0  0  0
    3.3938   -0.4680   -0.4684 S   0  0  0  0  0  0  0  0  0  0  0  0
    3.3683    1.0814   -0.9584 O   0  0  0  0  0  0  0  0  0  0  0  0
    4.1754    1.5096   -0.6237 H   0  0  0  0  0  0  0  0  0  0  0  0
    2.5486   -1.1959   -1.3855 O   0  0  0  0  0  0  0  0  0  0  0  0
    4.7549   -0.8359   -0.1448 O   0  0  0  0  0  0  0  0  0  0  0  0
    2.6511   -0.3483    0.9985 O   0  0  0  0  0  0  0  0  0  0  0  0
  1  6  1  0  0  0  0
  2  1  2  0  0  0  0
  2  3  1  0  0  0  0
  3  4  2  0  0  0  0
  4  5  1  0  0  0  0
  4  9  1  0  0  0  0
  5 10  1  0  0  0  0
  6 11  1  0  0  0  0
  6  5  2  0  0  0  0
  7  1  1  0  0  0  0
  8  2  1  0  0  0  0
 11 13  2  0  0  0  0
 12 11  2  0  0  0  0
 14 15  3  0  0  0  0
 16 20  2  0  0  0  0
 16 21  1  0  0  0  0
 17 18  1  0  0  0  0
 17 16  1  0  0  0  0
 19 16  2  0  0  0  0
 21  3  1  0  0  0  0
M  END
