Coordinates from ORCA-job 4-NO2-Ph-N2-HSO4-B3LYPG-6-31G_dp-MTMO-d009-169-n800
 OpenBabel09051908393D

 21 20  0  0  0  0  0  0  0  0999 V2000
    0.0426   -0.5916    0.0718 C   0  0  0  0  0  0  0  0  0  0  0  0
    1.4042   -0.4742    0.3328 C   0  0  0  0  0  0  0  0  0  0  0  0
    1.8822    0.7193    0.8831 C   0  0  0  0  0  0  0  0  0  0  0  0
    1.0123    1.7466    1.2652 C   0  0  0  0  0  0  0  0  0  0  0  0
   -0.3469    1.6215    1.0140 C   0  0  0  0  0  0  0  0  0  0  0  0
   -0.8134    0.4560    0.4058 C   0  0  0  0  0  0  0  0  0  0  0  0
   -0.3664   -1.4905   -0.3722 H   0  0  0  0  0  0  0  0  0  0  0  0
    2.0815   -1.2793    0.0847 H   0  0  0  0  0  0  0  0  0  0  0  0
    1.4179    2.6341    1.7372 H   0  0  0  0  0  0  0  0  0  0  0  0
   -1.0476    2.4023    1.2807 H   0  0  0  0  0  0  0  0  0  0  0  0
   -2.2505    0.3205    0.1326 N   0  0  0  0  0  0  0  0  0  0  0  0
   -2.6345   -0.7230   -0.3938 O   0  0  0  0  0  0  0  0  0  0  0  0
   -2.9800    1.2604    0.4471 O   0  0  0  0  0  0  0  0  0  0  0  0
    2.3885    1.7766   -1.2363 N   0  0  0  0  0  0  0  0  0  0  0  0
    1.7652    2.0361   -2.1128 N   0  0  0  0  0  0  0  0  0  0  0  0
    4.5540    0.3098    0.6037 S   0  0  0  0  0  0  0  0  0  0  0  0
    5.1607    1.6755   -0.0199 O   0  0  0  0  0  0  0  0  0  0  0  0
    5.7539    2.0649    0.6460 H   0  0  0  0  0  0  0  0  0  0  0  0
    4.2212   -0.5501   -0.5088 O   0  0  0  0  0  0  0  0  0  0  0  0
    5.3989   -0.0955    1.7074 O   0  0  0  0  0  0  0  0  0  0  0  0
    3.1940    0.8962    1.3238 O   0  0  0  0  0  0  0  0  0  0  0  0
  1  2  2  0  0  0  0
  1  6  1  0  0  0  0
  2  3  1  0  0  0  0
  3  4  2  0  0  0  0
  3 21  1  0  0  0  0
  4  9  1  0  0  0  0
  5  4  1  0  0  0  0
  5 10  1  0  0  0  0
  6  5  2  0  0  0  0
  7  1  1  0  0  0  0
  8  2  1  0  0  0  0
 11  6  1  0  0  0  0
 11 13  2  0  0  0  0
 12 11  2  0  0  0  0
 15 14  3  0  0  0  0
 16 21  1  0  0  0  0
 16 20  2  0  0  0  0
 17 16  1  0  0  0  0
 17 18  1  0  0  0  0
 19 16  2  0  0  0  0
M  END
