Coordinates from ORCA-job 4-NO2-Ph-N2-HSO4-B3LYPG-6-31G_dp-MTMO-d009-169-n800
 OpenBabel09051908393D

 21 21  0  0  1  0  0  0  0  0999 V2000
    0.6034   -0.4958    0.1215 C   0  0  0  0  0  0  0  0  0  0  0  0
    1.7426    0.0623   -0.6591 C   0  0  1  0  0  0  0  0  0  0  0  0
    1.5389    1.5145   -0.9347 C   0  0  0  0  0  0  0  0  0  0  0  0
    0.5826    2.3308   -0.2381 C   0  0  0  0  0  0  0  0  0  0  0  0
   -0.3286    1.7465    0.5796 C   0  0  0  0  0  0  0  0  0  0  0  0
   -0.3079    0.3132    0.7000 C   0  0  0  0  0  0  0  0  0  0  0  0
    0.5414   -1.5691    0.2468 H   0  0  0  0  0  0  0  0  0  0  0  0
    1.9302   -0.5147   -1.5678 H   0  0  0  0  0  0  0  0  0  0  0  0
    0.6050    3.4052   -0.3870 H   0  0  0  0  0  0  0  0  0  0  0  0
   -1.0689    2.3143    1.1241 H   0  0  0  0  0  0  0  0  0  0  0  0
   -1.3856   -0.3206    1.4989 N   0  0  0  0  0  0  0  0  0  0  0  0
   -1.4073   -1.5460    1.5700 O   0  0  0  0  0  0  0  0  0  0  0  0
   -2.1940    0.4324    2.0373 O   0  0  0  0  0  0  0  0  0  0  0  0
    2.3434    2.0799   -1.8458 N   0  0  0  0  0  0  0  0  0  0  0  0
    3.0334    2.5445   -2.6183 N   0  0  0  0  0  0  0  0  0  0  0  0
    3.5542    0.6344    1.3036 S   0  0  0  0  0  0  0  0  0  0  0  0
    4.7206   -0.3662    1.8168 O   0  0  0  0  0  0  0  0  0  0  0  0
    5.5446   -0.1111    1.3684 H   0  0  0  0  0  0  0  0  0  0  0  0
    4.1827    1.8532    0.8091 O   0  0  0  0  0  0  0  0  0  0  0  0
    3.0725   -0.2591    0.0376 O   0  0  0  0  0  0  0  0  0  0  0  0
    2.5344    0.6668    2.3295 O   0  0  0  0  0  0  0  0  0  0  0  0
  1  7  1  0  0  0  0
  1  6  2  0  0  0  0
  2  8  1  6  0  0  0
  2 20  1  0  0  0  0
  2  1  1  0  0  0  0
  3  2  1  0  0  0  0
  3  4  2  0  0  0  0
  4  5  1  0  0  0  0
  5  6  1  0  0  0  0
  5 10  1  0  0  0  0
  6 11  1  0  0  0  0
  9  4  1  0  0  0  0
 11 12  2  0  0  0  0
 11 13  2  0  0  0  0
 14  3  1  0  0  0  0
 15 14  1  0  0  0  0
 16 17  1  0  0  0  0
 16 21  2  0  0  0  0
 18 17  1  0  0  0  0
 19 16  2  0  0  0  0
 20 16  1  0  0  0  0
M  RAD  3   5   2  14   2  15   3
M  END
