Coordinates from ORCA-job 4-NO2-Ph-N2-HSO4-B3LYPG-6-31G_dp-MTMO-d009-169-n800
 OpenBabel09051908393D

 21 20  0  0  0  0  0  0  0  0999 V2000
   -0.7280   -0.8565    0.8130 C   0  0  0  0  0  0  0  0  0  0  0  0
    0.6462   -1.0070    0.6542 C   0  0  0  0  0  0  0  0  0  0  0  0
    1.4796    0.0739    0.9431 C   0  0  0  0  0  0  0  0  0  0  0  0
    0.9793    1.2964    1.3899 C   0  0  0  0  0  0  0  0  0  0  0  0
   -0.3942    1.4463    1.5554 C   0  0  0  0  0  0  0  0  0  0  0  0
   -1.2248    0.3663    1.2621 C   0  0  0  0  0  0  0  0  0  0  0  0
   -1.4152   -1.6655    0.6004 H   0  0  0  0  0  0  0  0  0  0  0  0
    1.0717   -1.9401    0.3063 H   0  0  0  0  0  0  0  0  0  0  0  0
    1.6635    2.1078    1.6089 H   0  0  0  0  0  0  0  0  0  0  0  0
   -0.8282    2.3751    1.9026 H   0  0  0  0  0  0  0  0  0  0  0  0
   -2.6793    0.5218    1.4361 N   0  0  0  0  0  0  0  0  0  0  0  0
   -3.3899   -0.4464    1.1730 O   0  0  0  0  0  0  0  0  0  0  0  0
   -3.0905    1.6104    1.8343 O   0  0  0  0  0  0  0  0  0  0  0  0
    8.2499    4.7565   -2.6706 N   0  0  0  0  0  0  0  0  0  0  0  0
    7.4196    4.2120   -2.1851 N   0  0  0  0  0  0  0  0  0  0  0  0
    3.6060   -0.1148   -0.6025 S   0  0  0  0  0  0  0  0  0  0  0  0
    3.5150    1.4468   -1.0421 O   0  0  0  0  0  0  0  0  0  0  0  0
    4.3196    1.8915   -0.7227 H   0  0  0  0  0  0  0  0  0  0  0  0
    2.7823   -0.8477   -1.5353 O   0  0  0  0  0  0  0  0  0  0  0  0
    4.9838   -0.4377   -0.3016 O   0  0  0  0  0  0  0  0  0  0  0  0
    2.8714   -0.0736    0.8727 O   0  0  0  0  0  0  0  0  0  0  0  0
  1  6  1  0  0  0  0
  2  1  2  0  0  0  0
  2  3  1  0  0  0  0
  3  4  2  0  0  0  0
  4  5  1  0  0  0  0
  4  9  1  0  0  0  0
  5 10  1  0  0  0  0
  6 11  1  0  0  0  0
  6  5  2  0  0  0  0
  7  1  1  0  0  0  0
  8  2  1  0  0  0  0
 11 13  2  0  0  0  0
 12 11  2  0  0  0  0
 14 15  3  0  0  0  0
 16 20  2  0  0  0  0
 16 21  1  0  0  0  0
 17 18  1  0  0  0  0
 17 16  1  0  0  0  0
 19 16  2  0  0  0  0
 21  3  1  0  0  0  0
M  END
