Coordinates from ORCA-job 4-NO2-Ph-N2-HSO4-B3LYPG-6-31G_dp-MTMO-d009-169-n800
 OpenBabel09051908393D

 21 21  0  0  1  0  0  0  0  0999 V2000
    0.5890   -0.3758    0.4471 C   0  0  0  0  0  0  0  0  0  0  0  0
    1.7106   -0.0230   -0.4796 C   0  0  1  0  0  0  0  0  0  0  0  0
    1.8327    1.5422   -0.7570 C   0  0  0  0  0  0  0  0  0  0  0  0
    0.6109    2.3516   -0.4820 C   0  0  0  0  0  0  0  0  0  0  0  0
   -0.4492    1.8450    0.1666 C   0  0  0  0  0  0  0  0  0  0  0  0
   -0.4161    0.4805    0.6670 C   0  0  0  0  0  0  0  0  0  0  0  0
    0.5771   -1.3730    0.8725 H   0  0  0  0  0  0  0  0  0  0  0  0
    1.5463   -0.5128   -1.4494 H   0  0  0  0  0  0  0  0  0  0  0  0
    0.6461    3.3857   -0.8079 H   0  0  0  0  0  0  0  0  0  0  0  0
   -1.3246    2.4459    0.3756 H   0  0  0  0  0  0  0  0  0  0  0  0
   -1.5524    0.0304    1.5019 N   0  0  0  0  0  0  0  0  0  0  0  0
   -1.5295   -1.1185    1.9317 O   0  0  0  0  0  0  0  0  0  0  0  0
   -2.4498    0.8469    1.7001 O   0  0  0  0  0  0  0  0  0  0  0  0
    2.7091    1.8730   -1.0450 N   0  0  0  0  0  0  0  0  0  0  0  0
    3.8110    2.1705   -1.3558 N   0  0  0  0  0  0  0  0  0  0  0  0
    3.7129   -0.0420    1.3202 S   0  0  0  0  0  0  0  0  0  0  0  0
    5.0440    0.6067    0.7164 O   0  0  0  0  0  0  0  0  0  0  0  0
    4.8137    1.3794    0.1380 H   0  0  0  0  0  0  0  0  0  0  0  0
    2.8549    0.9814    1.8983 O   0  0  0  0  0  0  0  0  0  0  0  0
    2.9881   -0.5511   -0.1005 O   0  0  0  0  0  0  0  0  0  0  0  0
    4.1128   -1.2276    2.0340 O   0  0  0  0  0  0  0  0  0  0  0  0
  1  6  2  0  0  0  0
  1  7  1  0  0  0  0
  2  8  1  6  0  0  0
  2 20  1  0  0  0  0
  2  1  1  0  0  0  0
  3  4  2  0  0  0  0
  3  2  1  0  0  0  0
  4  5  1  0  0  0  0
  5 10  1  0  0  0  0
  5  6  1  0  0  0  0
  6 11  1  0  0  0  0
  9  4  1  0  0  0  0
 11 13  2  0  0  0  0
 11 12  2  0  0  0  0
 14  3  1  0  0  0  0
 15 14  1  0  0  0  0
 16 19  2  0  0  0  0
 16 21  2  0  0  0  0
 17 16  1  0  0  0  0
 18 17  1  0  0  0  0
 20 16  1  0  0  0  0
M  RAD  3   5   2  14   2  15   3
M  END
