Coordinates from ORCA-job 4-NO2-Ph-N2-HSO4-B3LYPG-6-31G_dp-MTMO-d009-169-n800
 OpenBabel09051908393D

 21 20  0  0  0  0  0  0  0  0999 V2000
   -1.2171   -1.0996    1.0456 C   0  0  0  0  0  0  0  0  0  0  0  0
    0.1469   -1.3373    0.9068 C   0  0  0  0  0  0  0  0  0  0  0  0
    1.0406   -0.2942    1.1508 C   0  0  0  0  0  0  0  0  0  0  0  0
    0.6103    0.9758    1.5332 C   0  0  0  0  0  0  0  0  0  0  0  0
   -0.7532    1.2133    1.6784 C   0  0  0  0  0  0  0  0  0  0  0  0
   -1.6439    0.1705    1.4303 C   0  0  0  0  0  0  0  0  0  0  0  0
   -1.9491   -1.8765    0.8664 H   0  0  0  0  0  0  0  0  0  0  0  0
    0.5191   -2.3097    0.6090 H   0  0  0  0  0  0  0  0  0  0  0  0
    1.3392    1.7559    1.7194 H   0  0  0  0  0  0  0  0  0  0  0  0
   -1.1345    2.1815    1.9766 H   0  0  0  0  0  0  0  0  0  0  0  0
   -3.0877    0.4192    1.5833 N   0  0  0  0  0  0  0  0  0  0  0  0
   -3.8523   -0.5175    1.3605 O   0  0  0  0  0  0  0  0  0  0  0  0
   -3.4365    1.5481    1.9248 O   0  0  0  0  0  0  0  0  0  0  0  0
   12.2546    7.9979   -4.4722 N   0  0  0  0  0  0  0  0  0  0  0  0
   11.4659    7.3617   -4.0309 N   0  0  0  0  0  0  0  0  0  0  0  0
    3.1611   -0.6695   -0.3661 S   0  0  0  0  0  0  0  0  0  0  0  0
    3.1581    0.8765   -0.8675 O   0  0  0  0  0  0  0  0  0  0  0  0
    3.9733    1.2937   -0.5387 H   0  0  0  0  0  0  0  0  0  0  0  0
    2.3041   -1.3919   -1.2768 O   0  0  0  0  0  0  0  0  0  0  0  0
    4.5171   -1.0547   -0.0411 O   0  0  0  0  0  0  0  0  0  0  0  0
    2.4215   -0.5279    1.1004 O   0  0  0  0  0  0  0  0  0  0  0  0
  1  6  1  0  0  0  0
  2  1  2  0  0  0  0
  2  3  1  0  0  0  0
  3  4  2  0  0  0  0
  4  5  1  0  0  0  0
  4  9  1  0  0  0  0
  5 10  1  0  0  0  0
  6 11  1  0  0  0  0
  6  5  2  0  0  0  0
  7  1  1  0  0  0  0
  8  2  1  0  0  0  0
 11 13  2  0  0  0  0
 12 11  2  0  0  0  0
 14 15  3  0  0  0  0
 16 20  2  0  0  0  0
 16 21  1  0  0  0  0
 17 18  1  0  0  0  0
 17 16  1  0  0  0  0
 19 16  2  0  0  0  0
 21  3  1  0  0  0  0
M  END
