Coordinates from ORCA-job 4-NO2-Ph-N2-HSO4-B3LYPG-6-31G_dp-MTMO-d009-169-n800
 OpenBabel09051908393D

 21 20  0  0  0  0  0  0  0  0999 V2000
   -0.0506   -0.5564    0.1789 C   0  0  0  0  0  0  0  0  0  0  0  0
    1.2205   -0.1057   -0.1881 C   0  0  0  0  0  0  0  0  0  0  0  0
    1.3571    1.2586   -0.2014 C   0  0  0  0  0  0  0  0  0  0  0  0
    0.4340    2.2371    0.0957 C   0  0  0  0  0  0  0  0  0  0  0  0
   -0.8237    1.7554    0.4670 C   0  0  0  0  0  0  0  0  0  0  0  0
   -1.0364    0.3776    0.4960 C   0  0  0  0  0  0  0  0  0  0  0  0
   -0.2768   -1.6143    0.2281 H   0  0  0  0  0  0  0  0  0  0  0  0
    2.0567   -0.7494   -0.4303 H   0  0  0  0  0  0  0  0  0  0  0  0
    0.6608    3.2948    0.0557 H   0  0  0  0  0  0  0  0  0  0  0  0
   -1.6290    2.4298    0.7295 H   0  0  0  0  0  0  0  0  0  0  0  0
   -2.3782   -0.1145    0.8815 N   0  0  0  0  0  0  0  0  0  0  0  0
   -2.5480   -1.3294    0.8927 O   0  0  0  0  0  0  0  0  0  0  0  0
   -3.2261    0.7292    1.1588 O   0  0  0  0  0  0  0  0  0  0  0  0
    2.8764    1.8718   -0.7283 N   0  0  0  0  0  0  0  0  0  0  0  0
    3.3796    2.7979   -1.1022 N   0  0  0  0  0  0  0  0  0  0  0  0
    4.6095    0.1725    0.8880 S   0  0  0  0  0  0  0  0  0  0  0  0
    5.6614    1.4478    0.8630 O   0  0  0  0  0  0  0  0  0  0  0  0
    6.5132    1.0962    0.5584 H   0  0  0  0  0  0  0  0  0  0  0  0
    4.0840    0.1164   -0.5540 O   0  0  0  0  0  0  0  0  0  0  0  0
    5.3986   -1.0174    1.2006 O   0  0  0  0  0  0  0  0  0  0  0  0
    3.5544    0.6175    1.8025 O   0  0  0  0  0  0  0  0  0  0  0  0
  1  7  1  0  0  0  0
  1  6  2  0  0  0  0
  2  1  1  0  0  0  0
  3  2  2  0  0  0  0
  3  4  1  0  0  0  0
  4  5  2  0  0  0  0
  5  6  1  0  0  0  0
  5 10  1  0  0  0  0
  6 11  1  0  0  0  0
  8  2  1  0  0  0  0
  9  4  1  0  0  0  0
 11 12  2  0  0  0  0
 11 13  2  0  0  0  0
 14  3  1  0  0  0  0
 15 14  2  0  0  0  0
 16 20  2  0  0  0  0
 16 21  1  0  0  0  0
 17 16  1  0  0  0  0
 18 17  1  0  0  0  0
 19 16  2  0  0  0  0
M  RAD  2  15   2  21   2
M  END
