Coordinates from ORCA-job 4-NO2-Ph-N2-HSO4-B3LYPG-6-31G_dp-MTMO-d009-169-n800
 OpenBabel09051908393D

 21 20  0  0  0  0  0  0  0  0999 V2000
   -0.3440   -0.7318    0.4823 C   0  0  0  0  0  0  0  0  0  0  0  0
    1.0456   -0.7363    0.5561 C   0  0  0  0  0  0  0  0  0  0  0  0
    1.6923    0.3495    1.1467 C   0  0  0  0  0  0  0  0  0  0  0  0
    0.9905    1.4361    1.6675 C   0  0  0  0  0  0  0  0  0  0  0  0
   -0.3995    1.4396    1.5990 C   0  0  0  0  0  0  0  0  0  0  0  0
   -1.0429    0.3550    1.0057 C   0  0  0  0  0  0  0  0  0  0  0  0
   -0.8908   -1.5513    0.0334 H   0  0  0  0  0  0  0  0  0  0  0  0
    1.6262   -1.5601    0.1599 H   0  0  0  0  0  0  0  0  0  0  0  0
    1.5334    2.2573    2.1210 H   0  0  0  0  0  0  0  0  0  0  0  0
   -0.9870    2.2598    1.9915 H   0  0  0  0  0  0  0  0  0  0  0  0
   -2.5140    0.3571    0.9310 N   0  0  0  0  0  0  0  0  0  0  0  0
   -3.0582   -0.6130    0.4069 O   0  0  0  0  0  0  0  0  0  0  0  0
   -3.1053    1.3293    1.3977 O   0  0  0  0  0  0  0  0  0  0  0  0
    5.3441    1.7817   -4.0199 N   0  0  0  0  0  0  0  0  0  0  0  0
    5.5867    1.9776   -2.9598 N   0  0  0  0  0  0  0  0  0  0  0  0
    4.0458    0.6479    0.0060 S   0  0  0  0  0  0  0  0  0  0  0  0
    3.8162    2.2476   -0.1650 O   0  0  0  0  0  0  0  0  0  0  0  0
    4.5392    2.6975    0.3056 H   0  0  0  0  0  0  0  0  0  0  0  0
    3.4864    0.0249   -1.1714 O   0  0  0  0  0  0  0  0  0  0  0  0
    5.3887    0.4163    0.4912 O   0  0  0  0  0  0  0  0  0  0  0  0
    3.0844    0.3308    1.3069 O   0  0  0  0  0  0  0  0  0  0  0  0
  1  2  2  0  0  0  0
  1  6  1  0  0  0  0
  2  3  1  0  0  0  0
  3 21  1  0  0  0  0
  3  4  2  0  0  0  0
  4  9  1  0  0  0  0
  5  4  1  0  0  0  0
  5 10  1  0  0  0  0
  6  5  2  0  0  0  0
  7  1  1  0  0  0  0
  8  2  1  0  0  0  0
 11  6  1  0  0  0  0
 11 13  2  0  0  0  0
 12 11  2  0  0  0  0
 14 15  3  0  0  0  0
 16 20  2  0  0  0  0
 16 21  1  0  0  0  0
 17 16  1  0  0  0  0
 17 18  1  0  0  0  0
 19 16  2  0  0  0  0
M  END
