Coordinates from ORCA-job 4-NO2-Ph-N2-HSO4-B3LYPG-6-31G_dp-MTMO-d009-169-n800
 OpenBabel09051908393D

 21 21  0  0  1  0  0  0  0  0999 V2000
    0.5592   -0.4059    0.3860 C   0  0  0  0  0  0  0  0  0  0  0  0
    1.7056   -0.0336   -0.5032 C   0  0  1  0  0  0  0  0  0  0  0  0
    1.7780    1.4924   -0.7965 C   0  0  0  0  0  0  0  0  0  0  0  0
    0.6389    2.3461   -0.4291 C   0  0  0  0  0  0  0  0  0  0  0  0
   -0.4155    1.8595    0.2508 C   0  0  0  0  0  0  0  0  0  0  0  0
   -0.4136    0.4710    0.6711 C   0  0  0  0  0  0  0  0  0  0  0  0
    0.5110   -1.4275    0.7442 H   0  0  0  0  0  0  0  0  0  0  0  0
    1.6175   -0.5783   -1.4528 H   0  0  0  0  0  0  0  0  0  0  0  0
    0.7029    3.3929   -0.7067 H   0  0  0  0  0  0  0  0  0  0  0  0
   -1.2520    2.4841    0.5327 H   0  0  0  0  0  0  0  0  0  0  0  0
   -1.5578    0.0025    1.4889 N   0  0  0  0  0  0  0  0  0  0  0  0
   -1.5645   -1.1698    1.8508 O   0  0  0  0  0  0  0  0  0  0  0  0
   -2.4303    0.8300    1.7437 O   0  0  0  0  0  0  0  0  0  0  0  0
    2.7295    1.8740   -1.1959 N   0  0  0  0  0  0  0  0  0  0  0  0
    3.7848    2.1894   -1.5764 N   0  0  0  0  0  0  0  0  0  0  0  0
    3.6682    0.0166    1.3638 S   0  0  0  0  0  0  0  0  0  0  0  0
    5.0487    0.5886    0.7631 O   0  0  0  0  0  0  0  0  0  0  0  0
    4.8715    1.3536    0.1752 H   0  0  0  0  0  0  0  0  0  0  0  0
    2.8451    1.1048    1.8670 O   0  0  0  0  0  0  0  0  0  0  0  0
    2.9873   -0.5421   -0.0411 O   0  0  0  0  0  0  0  0  0  0  0  0
    4.0232   -1.1329    2.1564 O   0  0  0  0  0  0  0  0  0  0  0  0
  1  6  2  0  0  0  0
  1  7  1  0  0  0  0
  2  8  1  6  0  0  0
  2 20  1  0  0  0  0
  2  1  1  0  0  0  0
  3  2  1  0  0  0  0
  3  4  2  0  0  0  0
  4  5  1  0  0  0  0
  5 10  1  0  0  0  0
  5  6  1  0  0  0  0
  6 11  1  0  0  0  0
  9  4  1  0  0  0  0
 11 13  2  0  0  0  0
 11 12  2  0  0  0  0
 14  3  1  0  0  0  0
 15 14  1  0  0  0  0
 16 19  2  0  0  0  0
 16 21  2  0  0  0  0
 17 16  1  0  0  0  0
 18 17  1  0  0  0  0
 20 16  1  0  0  0  0
M  RAD  3   5   2  14   2  15   3
M  END
