Coordinates from ORCA-job 4-NO2-Ph-N2-HSO4-B3LYPG-6-31G_dp-MTMO-d009-169-n800
 OpenBabel09051908393D

 21 20  0  0  0  0  0  0  0  0999 V2000
   -0.6731   -0.8557    0.8199 C   0  0  0  0  0  0  0  0  0  0  0  0
    0.7023   -0.9744    0.6459 C   0  0  0  0  0  0  0  0  0  0  0  0
    1.5124    0.1295    0.9126 C   0  0  0  0  0  0  0  0  0  0  0  0
    0.9880    1.3452    1.3503 C   0  0  0  0  0  0  0  0  0  0  0  0
   -0.3868    1.4636    1.5303 C   0  0  0  0  0  0  0  0  0  0  0  0
   -1.1942    0.3601    1.2604 C   0  0  0  0  0  0  0  0  0  0  0  0
   -1.3428   -1.6836    0.6249 H   0  0  0  0  0  0  0  0  0  0  0  0
    1.1466   -1.9010    0.3038 H   0  0  0  0  0  0  0  0  0  0  0  0
    1.6550    2.1757    1.5502 H   0  0  0  0  0  0  0  0  0  0  0  0
   -0.8393    2.3860    1.8712 H   0  0  0  0  0  0  0  0  0  0  0  0
   -2.6498    0.4823    1.4504 N   0  0  0  0  0  0  0  0  0  0  0  0
   -3.3397   -0.5061    1.2077 O   0  0  0  0  0  0  0  0  0  0  0  0
   -3.0829    1.5652    1.8409 O   0  0  0  0  0  0  0  0  0  0  0  0
    7.9513    4.3602   -2.4579 N   0  0  0  0  0  0  0  0  0  0  0  0
    7.0989    3.8355   -1.9890 N   0  0  0  0  0  0  0  0  0  0  0  0
    3.6281    0.0022   -0.6553 S   0  0  0  0  0  0  0  0  0  0  0  0
    3.5655    1.5779   -1.0472 O   0  0  0  0  0  0  0  0  0  0  0  0
    4.4073    1.9841   -0.7751 H   0  0  0  0  0  0  0  0  0  0  0  0
    2.7814   -0.6901   -1.5989 O   0  0  0  0  0  0  0  0  0  0  0  0
    5.0033   -0.3532   -0.3795 O   0  0  0  0  0  0  0  0  0  0  0  0
    2.9065    0.0119    0.8268 O   0  0  0  0  0  0  0  0  0  0  0  0
  1  6  1  0  0  0  0
  2  1  2  0  0  0  0
  2  3  1  0  0  0  0
  3  4  2  0  0  0  0
  4  5  1  0  0  0  0
  4  9  1  0  0  0  0
  5 10  1  0  0  0  0
  6 11  1  0  0  0  0
  6  5  2  0  0  0  0
  7  1  1  0  0  0  0
  8  2  1  0  0  0  0
 11 13  2  0  0  0  0
 12 11  2  0  0  0  0
 14 15  3  0  0  0  0
 16 20  2  0  0  0  0
 16 21  1  0  0  0  0
 17 18  1  0  0  0  0
 17 16  1  0  0  0  0
 19 16  2  0  0  0  0
 21  3  1  0  0  0  0
M  END
