Coordinates from ORCA-job 4-NO2-Ph-N2-HSO4-B3LYPG-6-31G_dp-MTMO-d009-169-n800
 OpenBabel09051908393D

 21 20  0  0  0  0  0  0  0  0999 V2000
   -1.0599   -1.0018    0.9706 C   0  0  0  0  0  0  0  0  0  0  0  0
    0.3052   -1.2321    0.8306 C   0  0  0  0  0  0  0  0  0  0  0  0
    1.1939   -0.1867    1.0828 C   0  0  0  0  0  0  0  0  0  0  0  0
    0.7574    1.0783    1.4748 C   0  0  0  0  0  0  0  0  0  0  0  0
   -0.6072    1.3084    1.6213 C   0  0  0  0  0  0  0  0  0  0  0  0
   -1.4929    0.2634    1.3647 C   0  0  0  0  0  0  0  0  0  0  0  0
   -1.7883   -1.7807    0.7851 H   0  0  0  0  0  0  0  0  0  0  0  0
    0.6821   -2.2004    0.5256 H   0  0  0  0  0  0  0  0  0  0  0  0
    1.4826    1.8604    1.6673 H   0  0  0  0  0  0  0  0  0  0  0  0
   -0.9931    2.2724    1.9267 H   0  0  0  0  0  0  0  0  0  0  0  0
   -2.9379    0.5041    1.5190 N   0  0  0  0  0  0  0  0  0  0  0  0
   -3.6981   -0.4344    1.2884 O   0  0  0  0  0  0  0  0  0  0  0  0
   -3.2921    1.6286    1.8692 O   0  0  0  0  0  0  0  0  0  0  0  0
   10.8115    6.9958   -3.8433 N   0  0  0  0  0  0  0  0  0  0  0  0
   10.0248    6.3634   -3.3929 N   0  0  0  0  0  0  0  0  0  0  0  0
    3.3165   -0.5451   -0.4355 S   0  0  0  0  0  0  0  0  0  0  0  0
    3.3029    1.0024   -0.9323 O   0  0  0  0  0  0  0  0  0  0  0  0
    4.1145    1.4249   -0.6012 H   0  0  0  0  0  0  0  0  0  0  0  0
    2.4646   -1.2704   -1.3485 O   0  0  0  0  0  0  0  0  0  0  0  0
    4.6750   -0.9222   -0.1115 O   0  0  0  0  0  0  0  0  0  0  0  0
    2.5760   -0.4129    1.0314 O   0  0  0  0  0  0  0  0  0  0  0  0
  1  6  1  0  0  0  0
  2  1  2  0  0  0  0
  2  3  1  0  0  0  0
  3  4  2  0  0  0  0
  4  5  1  0  0  0  0
  4  9  1  0  0  0  0
  5 10  1  0  0  0  0
  6 11  1  0  0  0  0
  6  5  2  0  0  0  0
  7  1  1  0  0  0  0
  8  2  1  0  0  0  0
 11 13  2  0  0  0  0
 12 11  2  0  0  0  0
 14 15  3  0  0  0  0
 16 20  2  0  0  0  0
 16 21  1  0  0  0  0
 17 18  1  0  0  0  0
 17 16  1  0  0  0  0
 19 16  2  0  0  0  0
 21  3  1  0  0  0  0
M  END
