Coordinates from ORCA-job 4-NO2-Ph-N2-HSO4-B3LYPG-6-31G_dp-MTMO-d009-169-n800
 OpenBabel09051908393D

 21 20  0  0  0  0  0  0  0  0999 V2000
   -0.9957   -0.9650    0.9357 C   0  0  0  0  0  0  0  0  0  0  0  0
    0.3705   -1.1883    0.7953 C   0  0  0  0  0  0  0  0  0  0  0  0
    1.2544   -0.1410    1.0562 C   0  0  0  0  0  0  0  0  0  0  0  0
    0.8121    1.1190    1.4575 C   0  0  0  0  0  0  0  0  0  0  0  0
   -0.5536    1.3420    1.6045 C   0  0  0  0  0  0  0  0  0  0  0  0
   -1.4345    0.2952    1.3392 C   0  0  0  0  0  0  0  0  0  0  0  0
   -1.7205   -1.7457    0.7436 H   0  0  0  0  0  0  0  0  0  0  0  0
    0.7518   -2.1527    0.4832 H   0  0  0  0  0  0  0  0  0  0  0  0
    1.5338    1.9027    1.6567 H   0  0  0  0  0  0  0  0  0  0  0  0
   -0.9439    2.3021    1.9169 H   0  0  0  0  0  0  0  0  0  0  0  0
   -2.8807    0.5284    1.4939 N   0  0  0  0  0  0  0  0  0  0  0  0
   -3.6366   -0.4115    1.2553 O   0  0  0  0  0  0  0  0  0  0  0  0
   -3.2401    1.6486    1.8526 O   0  0  0  0  0  0  0  0  0  0  0  0
   10.2470    6.5777   -3.6037 N   0  0  0  0  0  0  0  0  0  0  0  0
    9.4613    5.9505   -3.1444 N   0  0  0  0  0  0  0  0  0  0  0  0
    3.3798   -0.4828   -0.4626 S   0  0  0  0  0  0  0  0  0  0  0  0
    3.3567    1.0662   -0.9541 O   0  0  0  0  0  0  0  0  0  0  0  0
    4.1648    1.4932   -0.6202 H   0  0  0  0  0  0  0  0  0  0  0  0
    2.5331   -1.2102   -1.3787 O   0  0  0  0  0  0  0  0  0  0  0  0
    4.7403   -0.8527   -0.1389 O   0  0  0  0  0  0  0  0  0  0  0  0
    2.6376   -0.3604    1.0043 O   0  0  0  0  0  0  0  0  0  0  0  0
  1  6  1  0  0  0  0
  2  1  2  0  0  0  0
  2  3  1  0  0  0  0
  3  4  2  0  0  0  0
  4  5  1  0  0  0  0
  4  9  1  0  0  0  0
  5 10  1  0  0  0  0
  6 11  1  0  0  0  0
  6  5  2  0  0  0  0
  7  1  1  0  0  0  0
  8  2  1  0  0  0  0
 11 13  2  0  0  0  0
 12 11  2  0  0  0  0
 14 15  3  0  0  0  0
 16 20  2  0  0  0  0
 16 21  1  0  0  0  0
 17 18  1  0  0  0  0
 17 16  1  0  0  0  0
 19 16  2  0  0  0  0
 21  3  1  0  0  0  0
M  END
