Coordinates from ORCA-job 4-NO2-Ph-N2-HSO4-B3LYPG-6-31G_dp-MTMO-d009-169-n800
 OpenBabel09051908393D

 21 20  0  0  0  0  0  0  0  0999 V2000
   -0.8876   -0.9091    0.8701 C   0  0  0  0  0  0  0  0  0  0  0  0
    0.4815   -1.1131    0.7286 C   0  0  0  0  0  0  0  0  0  0  0  0
    1.3521   -0.0608    1.0133 C   0  0  0  0  0  0  0  0  0  0  0  0
    0.8935    1.1852    1.4396 C   0  0  0  0  0  0  0  0  0  0  0  0
   -0.4751    1.3886    1.5879 C   0  0  0  0  0  0  0  0  0  0  0  0
   -1.3426    0.3370    1.2985 C   0  0  0  0  0  0  0  0  0  0  0  0
   -1.6025   -1.6943    0.6600 H   0  0  0  0  0  0  0  0  0  0  0  0
    0.8752   -2.0661    0.3975 H   0  0  0  0  0  0  0  0  0  0  0  0
    1.6053    1.9731    1.6569 H   0  0  0  0  0  0  0  0  0  0  0  0
   -0.8776    2.3373    1.9191 H   0  0  0  0  0  0  0  0  0  0  0  0
   -2.7919    0.5495    1.4544 N   0  0  0  0  0  0  0  0  0  0  0  0
   -3.5358   -0.3944    1.1945 O   0  0  0  0  0  0  0  0  0  0  0  0
   -3.1658    1.6575    1.8354 O   0  0  0  0  0  0  0  0  0  0  0  0
    9.3477    5.8489   -3.2357 N   0  0  0  0  0  0  0  0  0  0  0  0
    8.5622    5.2427   -2.7488 N   0  0  0  0  0  0  0  0  0  0  0  0
    3.4848   -0.3537   -0.5061 S   0  0  0  0  0  0  0  0  0  0  0  0
    3.4372    1.2003   -0.9793 O   0  0  0  0  0  0  0  0  0  0  0  0
    4.2366    1.6375   -0.6379 H   0  0  0  0  0  0  0  0  0  0  0  0
    2.6520   -1.0838   -1.4327 O   0  0  0  0  0  0  0  0  0  0  0  0
    4.8505   -0.7055   -0.1838 O   0  0  0  0  0  0  0  0  0  0  0  0
    2.7381   -0.2612    0.9606 O   0  0  0  0  0  0  0  0  0  0  0  0
  1  6  1  0  0  0  0
  2  1  2  0  0  0  0
  2  3  1  0  0  0  0
  3  4  2  0  0  0  0
  4  5  1  0  0  0  0
  4  9  1  0  0  0  0
  5 10  1  0  0  0  0
  6 11  1  0  0  0  0
  6  5  2  0  0  0  0
  7  1  1  0  0  0  0
  8  2  1  0  0  0  0
 11 13  2  0  0  0  0
 12 11  2  0  0  0  0
 14 15  3  0  0  0  0
 16 20  2  0  0  0  0
 16 21  1  0  0  0  0
 17 18  1  0  0  0  0
 17 16  1  0  0  0  0
 19 16  2  0  0  0  0
 21  3  1  0  0  0  0
M  END
