Coordinates from ORCA-job 4-NO2-Ph-N2-HSO4-B3LYPG-6-31G_dp-MTMO-d009-169-n800
 OpenBabel09051908393D

 21 20  0  0  0  0  0  0  0  0999 V2000
   -0.8541   -0.8944    0.8508 C   0  0  0  0  0  0  0  0  0  0  0  0
    0.5162   -1.0898    0.7080 C   0  0  0  0  0  0  0  0  0  0  0  0
    1.3808   -0.0345    1.0000 C   0  0  0  0  0  0  0  0  0  0  0  0
    0.9152    1.2059    1.4348 C   0  0  0  0  0  0  0  0  0  0  0  0
   -0.4546    1.4007    1.5843 C   0  0  0  0  0  0  0  0  0  0  0  0
   -1.3162    0.3462    1.2876 C   0  0  0  0  0  0  0  0  0  0  0  0
   -1.5645   -1.6821    0.6351 H   0  0  0  0  0  0  0  0  0  0  0  0
    0.9153   -2.0382    0.3704 H   0  0  0  0  0  0  0  0  0  0  0  0
    1.6225    1.9963    1.6576 H   0  0  0  0  0  0  0  0  0  0  0  0
   -0.8624    2.3448    1.9219 H   0  0  0  0  0  0  0  0  0  0  0  0
   -2.7666    0.5494    1.4448 N   0  0  0  0  0  0  0  0  0  0  0  0
   -3.5051   -0.3969    1.1786 O   0  0  0  0  0  0  0  0  0  0  0  0
   -3.1468    1.6527    1.8331 O   0  0  0  0  0  0  0  0  0  0  0  0
    9.0904    5.6166   -3.1274 N   0  0  0  0  0  0  0  0  0  0  0  0
    8.3018    5.0219   -2.6312 N   0  0  0  0  0  0  0  0  0  0  0  0
    3.5154   -0.3068   -0.5209 S   0  0  0  0  0  0  0  0  0  0  0  0
    3.4573    1.2490   -0.9866 O   0  0  0  0  0  0  0  0  0  0  0  0
    4.2541    1.6899   -0.6438 H   0  0  0  0  0  0  0  0  0  0  0  0
    2.6874   -1.0381   -1.4510 O   0  0  0  0  0  0  0  0  0  0  0  0
    4.8833   -0.6511   -0.2002 O   0  0  0  0  0  0  0  0  0  0  0  0
    2.7679   -0.2264    0.9462 O   0  0  0  0  0  0  0  0  0  0  0  0
  1  6  1  0  0  0  0
  2  1  2  0  0  0  0
  2  3  1  0  0  0  0
  3  4  2  0  0  0  0
  4  5  1  0  0  0  0
  4  9  1  0  0  0  0
  5 10  1  0  0  0  0
  6 11  1  0  0  0  0
  6  5  2  0  0  0  0
  7  1  1  0  0  0  0
  8  2  1  0  0  0  0
 11 13  2  0  0  0  0
 12 11  2  0  0  0  0
 14 15  3  0  0  0  0
 16 20  2  0  0  0  0
 16 21  1  0  0  0  0
 17 18  1  0  0  0  0
 17 16  1  0  0  0  0
 19 16  2  0  0  0  0
 21  3  1  0  0  0  0
M  END
