Coordinates from ORCA-job 4-NO2-Ph-N2-HSO4-B3LYPG-6-31G_dp-MTMO-d009-169-n800
 OpenBabel09051908393D

 21 20  0  0  0  0  0  0  0  0999 V2000
   -0.3425   -0.7378    0.4884 C   0  0  0  0  0  0  0  0  0  0  0  0
    1.0471   -0.7446    0.5636 C   0  0  0  0  0  0  0  0  0  0  0  0
    1.6958    0.3448    1.1450 C   0  0  0  0  0  0  0  0  0  0  0  0
    0.9963    1.4379    1.6550 C   0  0  0  0  0  0  0  0  0  0  0  0
   -0.3937    1.4442    1.5848 C   0  0  0  0  0  0  0  0  0  0  0  0
   -1.0390    0.3556    1.0010 C   0  0  0  0  0  0  0  0  0  0  0  0
   -0.8907   -1.5601    0.0465 H   0  0  0  0  0  0  0  0  0  0  0  0
    1.6264   -1.5732    0.1754 H   0  0  0  0  0  0  0  0  0  0  0  0
    1.5405    2.2621    2.1013 H   0  0  0  0  0  0  0  0  0  0  0  0
   -0.9797    2.2694    1.9689 H   0  0  0  0  0  0  0  0  0  0  0  0
   -2.5102    0.3605    0.9248 N   0  0  0  0  0  0  0  0  0  0  0  0
   -3.0562   -0.6137    0.4105 O   0  0  0  0  0  0  0  0  0  0  0  0
   -3.0995    1.3391    1.3806 O   0  0  0  0  0  0  0  0  0  0  0  0
    5.3020    1.7976   -3.9977 N   0  0  0  0  0  0  0  0  0  0  0  0
    5.5589    1.9876   -2.9400 N   0  0  0  0  0  0  0  0  0  0  0  0
    4.0471    0.6458    0.0047 S   0  0  0  0  0  0  0  0  0  0  0  0
    3.8238    2.2480   -0.1520 O   0  0  0  0  0  0  0  0  0  0  0  0
    4.5517    2.6906    0.3177 H   0  0  0  0  0  0  0  0  0  0  0  0
    3.4809    0.0344   -1.1756 O   0  0  0  0  0  0  0  0  0  0  0  0
    5.3906    0.4048    0.4838 O   0  0  0  0  0  0  0  0  0  0  0  0
    3.0878    0.3222    1.3054 O   0  0  0  0  0  0  0  0  0  0  0  0
  1  2  2  0  0  0  0
  1  6  1  0  0  0  0
  2  3  1  0  0  0  0
  3 21  1  0  0  0  0
  3  4  2  0  0  0  0
  4  9  1  0  0  0  0
  5  4  1  0  0  0  0
  5 10  1  0  0  0  0
  6  5  2  0  0  0  0
  7  1  1  0  0  0  0
  8  2  1  0  0  0  0
 11  6  1  0  0  0  0
 11 13  2  0  0  0  0
 12 11  2  0  0  0  0
 14 15  3  0  0  0  0
 16 20  2  0  0  0  0
 16 21  1  0  0  0  0
 17 16  1  0  0  0  0
 17 18  1  0  0  0  0
 19 16  2  0  0  0  0
M  END
