Coordinates from ORCA-job 4-NO2-Ph-N2-HSO4-B3LYPG-6-31G_dp-MTMO-d009-169-n800
 OpenBabel09051908393D

 21 20  0  0  0  0  0  0  0  0999 V2000
   -1.2846   -1.1438    1.0756 C   0  0  0  0  0  0  0  0  0  0  0  0
    0.0792   -1.3822    0.9372 C   0  0  0  0  0  0  0  0  0  0  0  0
    0.9734   -0.3395    1.1806 C   0  0  0  0  0  0  0  0  0  0  0  0
    0.5437    0.9310    1.5621 C   0  0  0  0  0  0  0  0  0  0  0  0
   -0.8197    1.1693    1.7069 C   0  0  0  0  0  0  0  0  0  0  0  0
   -1.7109    0.1268    1.4593 C   0  0  0  0  0  0  0  0  0  0  0  0
   -2.0170   -1.9205    0.8967 H   0  0  0  0  0  0  0  0  0  0  0  0
    0.4511   -2.3550    0.6401 H   0  0  0  0  0  0  0  0  0  0  0  0
    1.2730    1.7109    1.7479 H   0  0  0  0  0  0  0  0  0  0  0  0
   -1.2005    2.1379    2.0044 H   0  0  0  0  0  0  0  0  0  0  0  0
   -3.1546    0.3763    1.6119 N   0  0  0  0  0  0  0  0  0  0  0  0
   -3.9196   -0.5602    1.3896 O   0  0  0  0  0  0  0  0  0  0  0  0
   -3.5028    1.5056    1.9525 O   0  0  0  0  0  0  0  0  0  0  0  0
   12.8906    8.4258   -4.7519 N   0  0  0  0  0  0  0  0  0  0  0  0
   12.1015    7.7885   -4.3129 N   0  0  0  0  0  0  0  0  0  0  0  0
    3.0941   -0.7165   -0.3357 S   0  0  0  0  0  0  0  0  0  0  0  0
    3.0923    0.8295   -0.8374 O   0  0  0  0  0  0  0  0  0  0  0  0
    3.9078    1.2461   -0.5086 H   0  0  0  0  0  0  0  0  0  0  0  0
    2.2368   -1.4384   -1.2463 O   0  0  0  0  0  0  0  0  0  0  0  0
    4.4497   -1.1024   -0.0102 O   0  0  0  0  0  0  0  0  0  0  0  0
    2.3543   -0.5740    1.1307 O   0  0  0  0  0  0  0  0  0  0  0  0
  1  6  1  0  0  0  0
  2  1  2  0  0  0  0
  2  3  1  0  0  0  0
  3  4  2  0  0  0  0
  4  5  1  0  0  0  0
  4  9  1  0  0  0  0
  5 10  1  0  0  0  0
  6 11  1  0  0  0  0
  6  5  2  0  0  0  0
  7  1  1  0  0  0  0
  8  2  1  0  0  0  0
 11 13  2  0  0  0  0
 12 11  2  0  0  0  0
 14 15  3  0  0  0  0
 16 20  2  0  0  0  0
 16 21  1  0  0  0  0
 17 18  1  0  0  0  0
 17 16  1  0  0  0  0
 19 16  2  0  0  0  0
 21  3  1  0  0  0  0
M  END
