Coordinates from ORCA-job 4-NO2-Ph-N2-HSO4-B3LYPG-6-31G_dp-MTMO-d009-169-n800
 OpenBabel09051908393D

 21 20  0  0  0  0  0  0  0  0999 V2000
   -0.5467   -0.8358    0.8354 C   0  0  0  0  0  0  0  0  0  0  0  0
    0.8265   -0.9017    0.6206 C   0  0  0  0  0  0  0  0  0  0  0  0
    1.5973    0.2414    0.8331 C   0  0  0  0  0  0  0  0  0  0  0  0
    1.0354    1.4458    1.2553 C   0  0  0  0  0  0  0  0  0  0  0  0
   -0.3371    1.5120    1.4759 C   0  0  0  0  0  0  0  0  0  0  0  0
   -1.1051    0.3689    1.2609 C   0  0  0  0  0  0  0  0  0  0  0  0
   -1.1864   -1.6958    0.6833 H   0  0  0  0  0  0  0  0  0  0  0  0
    1.2989   -1.8179    0.2881 H   0  0  0  0  0  0  0  0  0  0  0  0
    1.6728    2.3084    1.4108 H   0  0  0  0  0  0  0  0  0  0  0  0
   -0.8174    2.4238    1.8070 H   0  0  0  0  0  0  0  0  0  0  0  0
   -2.5577    0.4357    1.4941 N   0  0  0  0  0  0  0  0  0  0  0  0
   -3.2127   -0.5867    1.3000 O   0  0  0  0  0  0  0  0  0  0  0  0
   -3.0244    1.5101    1.8696 O   0  0  0  0  0  0  0  0  0  0  0  0
    7.3134    3.6103   -1.7712 N   0  0  0  0  0  0  0  0  0  0  0  0
    6.3493    3.1658   -1.4667 N   0  0  0  0  0  0  0  0  0  0  0  0
    3.6691    0.1728   -0.7973 S   0  0  0  0  0  0  0  0  0  0  0  0
    3.5634    1.7394   -1.1943 O   0  0  0  0  0  0  0  0  0  0  0  0
    4.4385    2.1486   -1.0520 H   0  0  0  0  0  0  0  0  0  0  0  0
    2.8090   -0.5541   -1.7032 O   0  0  0  0  0  0  0  0  0  0  0  0
    5.0601   -0.1544   -0.5640 O   0  0  0  0  0  0  0  0  0  0  0  0
    2.9915    0.1788    0.7067 O   0  0  0  0  0  0  0  0  0  0  0  0
  1  6  2  0  0  0  0
  2  3  2  0  0  0  0
  2  1  1  0  0  0  0
  3  4  1  0  0  0  0
  4  9  1  0  0  0  0
  4  5  2  0  0  0  0
  5 10  1  0  0  0  0
  6  5  1  0  0  0  0
  6 11  1  0  0  0  0
  7  1  1  0  0  0  0
  8  2  1  0  0  0  0
 11 13  2  0  0  0  0
 12 11  2  0  0  0  0
 14 15  3  0  0  0  0
 16 20  2  0  0  0  0
 16 21  1  0  0  0  0
 17 18  1  0  0  0  0
 17 16  1  0  0  0  0
 19 16  2  0  0  0  0
 21  3  1  0  0  0  0
M  END
