Coordinates from ORCA-job 4-NO2-Ph-N2-HSO4-B3LYPG-6-31G_dp-MTMO-d009-169-n800
 OpenBabel09051908393D

 21 20  0  0  0  0  0  0  0  0999 V2000
   -0.9433   -0.9363    0.9046 C   0  0  0  0  0  0  0  0  0  0  0  0
    0.4241   -1.1521    0.7639 C   0  0  0  0  0  0  0  0  0  0  0  0
    1.3028   -0.1029    1.0350 C   0  0  0  0  0  0  0  0  0  0  0  0
    0.8540    1.1514    1.4470 C   0  0  0  0  0  0  0  0  0  0  0  0
   -0.5129    1.3667    1.5944 C   0  0  0  0  0  0  0  0  0  0  0  0
   -1.3885    0.3181    1.3186 C   0  0  0  0  0  0  0  0  0  0  0  0
   -1.6642   -1.7187    0.7047 H   0  0  0  0  0  0  0  0  0  0  0  0
    0.8103   -2.1118    0.4437 H   0  0  0  0  0  0  0  0  0  0  0  0
    1.5718    1.9366    1.6540 H   0  0  0  0  0  0  0  0  0  0  0  0
   -0.9080    2.3221    1.9148 H   0  0  0  0  0  0  0  0  0  0  0  0
   -2.8360    0.5431    1.4737 N   0  0  0  0  0  0  0  0  0  0  0  0
   -3.5871   -0.3982    1.2258 O   0  0  0  0  0  0  0  0  0  0  0  0
   -3.2011    1.6583    1.8420 O   0  0  0  0  0  0  0  0  0  0  0  0
    9.7976    6.2291   -3.4191 N   0  0  0  0  0  0  0  0  0  0  0  0
    9.0134    5.6095   -2.9471 N   0  0  0  0  0  0  0  0  0  0  0  0
    3.4315   -0.4254   -0.4837 S   0  0  0  0  0  0  0  0  0  0  0  0
    3.3985    1.1256   -0.9681 O   0  0  0  0  0  0  0  0  0  0  0  0
    4.2028    1.5570   -0.6307 H   0  0  0  0  0  0  0  0  0  0  0  0
    2.5906   -1.1542   -1.4041 O   0  0  0  0  0  0  0  0  0  0  0  0
    4.7941   -0.7878   -0.1602 O   0  0  0  0  0  0  0  0  0  0  0  0
    2.6871   -0.3148    0.9830 O   0  0  0  0  0  0  0  0  0  0  0  0
  1  6  1  0  0  0  0
  2  1  2  0  0  0  0
  2  3  1  0  0  0  0
  3  4  2  0  0  0  0
  4  5  1  0  0  0  0
  4  9  1  0  0  0  0
  5 10  1  0  0  0  0
  6 11  1  0  0  0  0
  6  5  2  0  0  0  0
  7  1  1  0  0  0  0
  8  2  1  0  0  0  0
 11 13  2  0  0  0  0
 12 11  2  0  0  0  0
 14 15  3  0  0  0  0
 16 20  2  0  0  0  0
 16 21  1  0  0  0  0
 17 18  1  0  0  0  0
 17 16  1  0  0  0  0
 19 16  2  0  0  0  0
 21  3  1  0  0  0  0
M  END
