Coordinates from ORCA-job 4-NO2-Ph-N2-HSO4-B3LYPG-6-31G_dp-MTMO-d009-169-n800
 OpenBabel09051908393D

 21 20  0  0  0  0  0  0  0  0999 V2000
   -0.9319   -0.9305    0.8974 C   0  0  0  0  0  0  0  0  0  0  0  0
    0.4358   -1.1441    0.7566 C   0  0  0  0  0  0  0  0  0  0  0  0
    1.3130   -0.0944    1.0306 C   0  0  0  0  0  0  0  0  0  0  0  0
    0.8624    1.1583    1.4455 C   0  0  0  0  0  0  0  0  0  0  0  0
   -0.5048    1.3714    1.5930 C   0  0  0  0  0  0  0  0  0  0  0  0
   -1.3790    0.3223    1.3144 C   0  0  0  0  0  0  0  0  0  0  0  0
   -1.6517   -1.7134    0.6954 H   0  0  0  0  0  0  0  0  0  0  0  0
    0.8234   -2.1026    0.4343 H   0  0  0  0  0  0  0  0  0  0  0  0
    1.5791    1.9439    1.6547 H   0  0  0  0  0  0  0  0  0  0  0  0
   -0.9013    2.3255    1.9155 H   0  0  0  0  0  0  0  0  0  0  0  0
   -2.8268    0.5450    1.4695 N   0  0  0  0  0  0  0  0  0  0  0  0
   -3.5766   -0.3967    1.2191 O   0  0  0  0  0  0  0  0  0  0  0  0
   -3.1936    1.6588    1.8404 O   0  0  0  0  0  0  0  0  0  0  0  0
    9.7040    6.1522   -3.3811 N   0  0  0  0  0  0  0  0  0  0  0  0
    8.9197    5.5349   -2.9064 N   0  0  0  0  0  0  0  0  0  0  0  0
    3.4426   -0.4114   -0.4881 S   0  0  0  0  0  0  0  0  0  0  0  0
    3.4068    1.1401   -0.9705 O   0  0  0  0  0  0  0  0  0  0  0  0
    4.2101    1.5727   -0.6322 H   0  0  0  0  0  0  0  0  0  0  0  0
    2.6033   -1.1405   -1.4097 O   0  0  0  0  0  0  0  0  0  0  0  0
    4.8057   -0.7718   -0.1648 O   0  0  0  0  0  0  0  0  0  0  0  0
    2.6976   -0.3042    0.9786 O   0  0  0  0  0  0  0  0  0  0  0  0
  1  6  1  0  0  0  0
  2  1  2  0  0  0  0
  2  3  1  0  0  0  0
  3  4  2  0  0  0  0
  4  5  1  0  0  0  0
  4  9  1  0  0  0  0
  5 10  1  0  0  0  0
  6 11  1  0  0  0  0
  6  5  2  0  0  0  0
  7  1  1  0  0  0  0
  8  2  1  0  0  0  0
 11 13  2  0  0  0  0
 12 11  2  0  0  0  0
 14 15  3  0  0  0  0
 16 20  2  0  0  0  0
 16 21  1  0  0  0  0
 17 18  1  0  0  0  0
 17 16  1  0  0  0  0
 19 16  2  0  0  0  0
 21  3  1  0  0  0  0
M  END
