Coordinates from ORCA-job 4-NO2-Ph-N2-HSO4-B3LYPG-6-31G_dp-MTMO-d009-169-n800
 OpenBabel09051908393D

 21 20  0  0  0  0  0  0  0  0999 V2000
   -0.0087   -0.6718    0.2191 C   0  0  0  0  0  0  0  0  0  0  0  0
    1.3352   -0.7465    0.5712 C   0  0  0  0  0  0  0  0  0  0  0  0
    1.9230    0.3397    1.2191 C   0  0  0  0  0  0  0  0  0  0  0  0
    1.2066    1.4949    1.5289 C   0  0  0  0  0  0  0  0  0  0  0  0
   -0.1389    1.5693    1.1818 C   0  0  0  0  0  0  0  0  0  0  0  0
   -0.7226    0.4843    0.5308 C   0  0  0  0  0  0  0  0  0  0  0  0
   -0.5095   -1.4877   -0.2863 H   0  0  0  0  0  0  0  0  0  0  0  0
    1.9268   -1.6254    0.3456 H   0  0  0  0  0  0  0  0  0  0  0  0
    1.7019    2.3144    2.0366 H   0  0  0  0  0  0  0  0  0  0  0  0
   -0.7373    2.4439    1.4027 H   0  0  0  0  0  0  0  0  0  0  0  0
   -2.1460    0.5624    0.1601 N   0  0  0  0  0  0  0  0  0  0  0  0
   -2.6379   -0.4069   -0.4149 O   0  0  0  0  0  0  0  0  0  0  0  0
   -2.7525    1.5925    0.4489 O   0  0  0  0  0  0  0  0  0  0  0  0
    1.9436    1.7176   -2.4333 N   0  0  0  0  0  0  0  0  0  0  0  0
    2.6177    1.7950   -3.3055 N   0  0  0  0  0  0  0  0  0  0  0  0
    4.4631    0.4737    0.5518 S   0  0  0  0  0  0  0  0  0  0  0  0
    4.3917    2.0815    0.3212 O   0  0  0  0  0  0  0  0  0  0  0  0
    4.9639    2.5003    0.9875 H   0  0  0  0  0  0  0  0  0  0  0  0
    4.0931   -0.1292   -0.7075 O   0  0  0  0  0  0  0  0  0  0  0  0
    5.6699    0.1590    1.2847 O   0  0  0  0  0  0  0  0  0  0  0  0
    3.2545    0.2544    1.6499 O   0  0  0  0  0  0  0  0  0  0  0  0
  1  6  2  0  0  0  0
  1  2  1  0  0  0  0
  2  3  2  0  0  0  0
  3  4  1  0  0  0  0
  3 21  1  0  0  0  0
  4  9  1  0  0  0  0
  5 10  1  0  0  0  0
  5  4  2  0  0  0  0
  6  5  1  0  0  0  0
  7  1  1  0  0  0  0
  8  2  1  0  0  0  0
 11 13  2  0  0  0  0
 11  6  1  0  0  0  0
 12 11  2  0  0  0  0
 15 14  3  0  0  0  0
 16 20  2  0  0  0  0
 16 21  1  0  0  0  0
 17 16  1  0  0  0  0
 17 18  1  0  0  0  0
 19 16  2  0  0  0  0
M  END
