Coordinates from ORCA-job 4-NO2-Ph-N2-HSO4-B3LYPG-6-31G_dp-MTMO-d009-169-n800
 OpenBabel09051908393D

 21 20  0  0  0  0  0  0  0  0999 V2000
   -1.3518   -1.1884    1.1048 C   0  0  0  0  0  0  0  0  0  0  0  0
    0.0121   -1.4270    0.9668 C   0  0  0  0  0  0  0  0  0  0  0  0
    0.9062   -0.3843    1.2105 C   0  0  0  0  0  0  0  0  0  0  0  0
    0.4765    0.8862    1.5919 C   0  0  0  0  0  0  0  0  0  0  0  0
   -0.8869    1.1246    1.7362 C   0  0  0  0  0  0  0  0  0  0  0  0
   -1.7781    0.0822    1.4884 C   0  0  0  0  0  0  0  0  0  0  0  0
   -2.0842   -1.9651    0.9257 H   0  0  0  0  0  0  0  0  0  0  0  0
    0.3839   -2.3998    0.6698 H   0  0  0  0  0  0  0  0  0  0  0  0
    1.2058    1.6661    1.7779 H   0  0  0  0  0  0  0  0  0  0  0  0
   -1.2678    2.0932    2.0336 H   0  0  0  0  0  0  0  0  0  0  0  0
   -3.2218    0.3318    1.6405 N   0  0  0  0  0  0  0  0  0  0  0  0
   -3.9869   -0.6046    1.4180 O   0  0  0  0  0  0  0  0  0  0  0  0
   -3.5701    1.4611    1.9810 O   0  0  0  0  0  0  0  0  0  0  0  0
   13.5280    8.8513   -5.0327 N   0  0  0  0  0  0  0  0  0  0  0  0
   12.7385    8.2131   -4.5957 N   0  0  0  0  0  0  0  0  0  0  0  0
    3.0273   -0.7614   -0.3052 S   0  0  0  0  0  0  0  0  0  0  0  0
    3.0257    0.7846   -0.8070 O   0  0  0  0  0  0  0  0  0  0  0  0
    3.8411    1.2012   -0.4778 H   0  0  0  0  0  0  0  0  0  0  0  0
    2.1703   -1.4833   -1.2161 O   0  0  0  0  0  0  0  0  0  0  0  0
    4.3828   -1.1475    0.0206 O   0  0  0  0  0  0  0  0  0  0  0  0
    2.2871   -0.6189    1.1609 O   0  0  0  0  0  0  0  0  0  0  0  0
  1  6  1  0  0  0  0
  2  1  2  0  0  0  0
  2  3  1  0  0  0  0
  3  4  2  0  0  0  0
  4  5  1  0  0  0  0
  4  9  1  0  0  0  0
  5 10  1  0  0  0  0
  6 11  1  0  0  0  0
  6  5  2  0  0  0  0
  7  1  1  0  0  0  0
  8  2  1  0  0  0  0
 11 13  2  0  0  0  0
 12 11  2  0  0  0  0
 14 15  3  0  0  0  0
 16 20  2  0  0  0  0
 16 21  1  0  0  0  0
 17 18  1  0  0  0  0
 17 16  1  0  0  0  0
 19 16  2  0  0  0  0
 21  3  1  0  0  0  0
M  END
