Coordinates from ORCA-job 4-NO2-Ph-N2-HSO4-B3LYPG-6-31G_dp-MTMO-d009-169-n800
 OpenBabel09051908393D

 21 20  0  0  0  0  0  0  0  0999 V2000
   -1.3309   -1.1745    1.0957 C   0  0  0  0  0  0  0  0  0  0  0  0
    0.0329   -1.4131    0.9576 C   0  0  0  0  0  0  0  0  0  0  0  0
    0.9271   -0.3704    1.2012 C   0  0  0  0  0  0  0  0  0  0  0  0
    0.4974    0.9002    1.5826 C   0  0  0  0  0  0  0  0  0  0  0  0
   -0.8660    1.1386    1.7271 C   0  0  0  0  0  0  0  0  0  0  0  0
   -1.7572    0.0961    1.4793 C   0  0  0  0  0  0  0  0  0  0  0  0
   -2.0634   -1.9511    0.9167 H   0  0  0  0  0  0  0  0  0  0  0  0
    0.4047   -2.3859    0.6606 H   0  0  0  0  0  0  0  0  0  0  0  0
    1.2267    1.6800    1.7685 H   0  0  0  0  0  0  0  0  0  0  0  0
   -1.2468    2.1072    2.0245 H   0  0  0  0  0  0  0  0  0  0  0  0
   -3.2009    0.3458    1.6316 N   0  0  0  0  0  0  0  0  0  0  0  0
   -3.9660   -0.5907    1.4092 O   0  0  0  0  0  0  0  0  0  0  0  0
   -3.5491    1.4751    1.9721 O   0  0  0  0  0  0  0  0  0  0  0  0
   13.3297    8.7191   -4.9453 N   0  0  0  0  0  0  0  0  0  0  0  0
   12.5402    8.0812   -4.5077 N   0  0  0  0  0  0  0  0  0  0  0  0
    3.0480   -0.7475   -0.3147 S   0  0  0  0  0  0  0  0  0  0  0  0
    3.0465    0.7984   -0.8164 O   0  0  0  0  0  0  0  0  0  0  0  0
    3.8619    1.2150   -0.4874 H   0  0  0  0  0  0  0  0  0  0  0  0
    2.1909   -1.4694   -1.2255 O   0  0  0  0  0  0  0  0  0  0  0  0
    4.4036   -1.1337    0.0110 O   0  0  0  0  0  0  0  0  0  0  0  0
    2.3080   -0.6050    1.1515 O   0  0  0  0  0  0  0  0  0  0  0  0
  1  6  1  0  0  0  0
  2  1  2  0  0  0  0
  2  3  1  0  0  0  0
  3  4  2  0  0  0  0
  4  5  1  0  0  0  0
  4  9  1  0  0  0  0
  5 10  1  0  0  0  0
  6 11  1  0  0  0  0
  6  5  2  0  0  0  0
  7  1  1  0  0  0  0
  8  2  1  0  0  0  0
 11 13  2  0  0  0  0
 12 11  2  0  0  0  0
 14 15  3  0  0  0  0
 16 20  2  0  0  0  0
 16 21  1  0  0  0  0
 17 18  1  0  0  0  0
 17 16  1  0  0  0  0
 19 16  2  0  0  0  0
 21  3  1  0  0  0  0
M  END
