Coordinates from ORCA-job 4-NO2-Ph-N2-HSO4-B3LYPG-6-31G_dp-MTMO-d009-169-n800
 OpenBabel09051908393D

 21 20  0  0  0  0  0  0  0  0999 V2000
    0.0622   -0.6394    0.1374 C   0  0  0  0  0  0  0  0  0  0  0  0
    1.3946   -0.7042    0.5330 C   0  0  0  0  0  0  0  0  0  0  0  0
    1.9566    0.3922    1.1875 C   0  0  0  0  0  0  0  0  0  0  0  0
    1.2230    1.5451    1.4652 C   0  0  0  0  0  0  0  0  0  0  0  0
   -0.1115    1.6085    1.0767 C   0  0  0  0  0  0  0  0  0  0  0  0
   -0.6686    0.5146    0.4166 C   0  0  0  0  0  0  0  0  0  0  0  0
   -0.4181   -1.4637   -0.3745 H   0  0  0  0  0  0  0  0  0  0  0  0
    1.9960   -1.5829    0.3357 H   0  0  0  0  0  0  0  0  0  0  0  0
    1.6973    2.3706    1.9833 H   0  0  0  0  0  0  0  0  0  0  0  0
   -0.7220    2.4806    1.2731 H   0  0  0  0  0  0  0  0  0  0  0  0
   -2.0810    0.5798    0.0037 N   0  0  0  0  0  0  0  0  0  0  0  0
   -2.5502   -0.3990   -0.5738 O   0  0  0  0  0  0  0  0  0  0  0  0
   -2.7012    1.6097    0.2628 O   0  0  0  0  0  0  0  0  0  0  0  0
    2.0135    1.7394   -1.9807 N   0  0  0  0  0  0  0  0  0  0  0  0
    1.3762    1.7230   -2.8836 N   0  0  0  0  0  0  0  0  0  0  0  0
    4.5432    0.3992    0.6438 S   0  0  0  0  0  0  0  0  0  0  0  0
    4.5489    1.9795    0.2688 O   0  0  0  0  0  0  0  0  0  0  0  0
    5.0957    2.4365    0.9315 H   0  0  0  0  0  0  0  0  0  0  0  0
    4.2291   -0.3080   -0.5755 O   0  0  0  0  0  0  0  0  0  0  0  0
    5.6892    0.1127    1.4791 O   0  0  0  0  0  0  0  0  0  0  0  0
    3.2649    0.3213    1.6822 O   0  0  0  0  0  0  0  0  0  0  0  0
  1  6  2  0  0  0  0
  1  2  1  0  0  0  0
  2  3  2  0  0  0  0
  3  4  1  0  0  0  0
  3 21  1  0  0  0  0
  4  9  1  0  0  0  0
  5 10  1  0  0  0  0
  5  4  2  0  0  0  0
  6  5  1  0  0  0  0
  7  1  1  0  0  0  0
  8  2  1  0  0  0  0
 11 13  2  0  0  0  0
 11  6  1  0  0  0  0
 12 11  2  0  0  0  0
 15 14  3  0  0  0  0
 16 20  2  0  0  0  0
 16 21  1  0  0  0  0
 17 16  1  0  0  0  0
 17 18  1  0  0  0  0
 19 16  2  0  0  0  0
M  END
