Coordinates from ORCA-job 4-NO2-Ph-N2-HSO4-B3LYPG-6-31G_dp-MTMO-d009-169-n800
 OpenBabel09051908393D

 21 20  0  0  0  0  0  0  0  0999 V2000
   -0.8959   -0.9130    0.8752 C   0  0  0  0  0  0  0  0  0  0  0  0
    0.4730   -1.1189    0.7338 C   0  0  0  0  0  0  0  0  0  0  0  0
    1.3449   -0.0671    1.0165 C   0  0  0  0  0  0  0  0  0  0  0  0
    0.8879    1.1802    1.4407 C   0  0  0  0  0  0  0  0  0  0  0  0
   -0.4805    1.3855    1.5888 C   0  0  0  0  0  0  0  0  0  0  0  0
   -1.3493    0.3345    1.3014 C   0  0  0  0  0  0  0  0  0  0  0  0
   -1.6117   -1.6977    0.6665 H   0  0  0  0  0  0  0  0  0  0  0  0
    0.8654   -2.0730    0.4044 H   0  0  0  0  0  0  0  0  0  0  0  0
    1.6006    1.9676    1.6565 H   0  0  0  0  0  0  0  0  0  0  0  0
   -0.8818    2.3352    1.9183 H   0  0  0  0  0  0  0  0  0  0  0  0
   -2.7983    0.5489    1.4572 N   0  0  0  0  0  0  0  0  0  0  0  0
   -3.5434   -0.3945    1.1990 O   0  0  0  0  0  0  0  0  0  0  0  0
   -3.1708    1.6581    1.8362 O   0  0  0  0  0  0  0  0  0  0  0  0
    9.4132    5.9057   -3.2626 N   0  0  0  0  0  0  0  0  0  0  0  0
    8.6280    5.2972   -2.7780 N   0  0  0  0  0  0  0  0  0  0  0  0
    3.4770   -0.3647   -0.5027 S   0  0  0  0  0  0  0  0  0  0  0  0
    3.4317    1.1888   -0.9777 O   0  0  0  0  0  0  0  0  0  0  0  0
    4.2319    1.6251   -0.6367 H   0  0  0  0  0  0  0  0  0  0  0  0
    2.6429   -1.0947   -1.4284 O   0  0  0  0  0  0  0  0  0  0  0  0
    4.8422   -0.7183   -0.1802 O   0  0  0  0  0  0  0  0  0  0  0  0
    2.7306   -0.2694    0.9640 O   0  0  0  0  0  0  0  0  0  0  0  0
  1  6  1  0  0  0  0
  2  1  2  0  0  0  0
  2  3  1  0  0  0  0
  3  4  2  0  0  0  0
  4  5  1  0  0  0  0
  4  9  1  0  0  0  0
  5 10  1  0  0  0  0
  6 11  1  0  0  0  0
  6  5  2  0  0  0  0
  7  1  1  0  0  0  0
  8  2  1  0  0  0  0
 11 13  2  0  0  0  0
 12 11  2  0  0  0  0
 14 15  3  0  0  0  0
 16 20  2  0  0  0  0
 16 21  1  0  0  0  0
 17 18  1  0  0  0  0
 17 16  1  0  0  0  0
 19 16  2  0  0  0  0
 21  3  1  0  0  0  0
M  END
