Coordinates from ORCA-job 4-NO2-Ph-N2-HSO4-B3LYPG-6-31G_dp-MTMO-d009-169-n800
 OpenBabel09051908393D

 21 20  0  0  0  0  0  0  0  0999 V2000
    0.0390   -0.5792    0.0421 C   0  0  0  0  0  0  0  0  0  0  0  0
    1.4007   -0.4552    0.2827 C   0  0  0  0  0  0  0  0  0  0  0  0
    1.8940    0.7664    0.7733 C   0  0  0  0  0  0  0  0  0  0  0  0
    1.0121    1.7599    1.2318 C   0  0  0  0  0  0  0  0  0  0  0  0
   -0.3476    1.6287    0.9996 C   0  0  0  0  0  0  0  0  0  0  0  0
   -0.8167    0.4700    0.3783 C   0  0  0  0  0  0  0  0  0  0  0  0
   -0.3750   -1.4865   -0.3799 H   0  0  0  0  0  0  0  0  0  0  0  0
    2.0803   -1.2592    0.0362 H   0  0  0  0  0  0  0  0  0  0  0  0
    1.4191    2.6396    1.7170 H   0  0  0  0  0  0  0  0  0  0  0  0
   -1.0508    2.3950    1.2997 H   0  0  0  0  0  0  0  0  0  0  0  0
   -2.2552    0.3300    0.1239 N   0  0  0  0  0  0  0  0  0  0  0  0
   -2.6419   -0.7130   -0.4024 O   0  0  0  0  0  0  0  0  0  0  0  0
   -2.9845    1.2659    0.4514 O   0  0  0  0  0  0  0  0  0  0  0  0
    2.3689    1.6509   -1.0271 N   0  0  0  0  0  0  0  0  0  0  0  0
    1.7464    1.9419   -1.8989 N   0  0  0  0  0  0  0  0  0  0  0  0
    4.5666    0.3214    0.5987 S   0  0  0  0  0  0  0  0  0  0  0  0
    5.1747    1.6732   -0.0564 O   0  0  0  0  0  0  0  0  0  0  0  0
    5.7640    2.0794    0.6031 H   0  0  0  0  0  0  0  0  0  0  0  0
    4.2561   -0.5724   -0.4940 O   0  0  0  0  0  0  0  0  0  0  0  0
    5.3982   -0.0440    1.7258 O   0  0  0  0  0  0  0  0  0  0  0  0
    3.1895    0.9025    1.2872 O   0  0  0  0  0  0  0  0  0  0  0  0
  1  2  2  0  0  0  0
  1  6  1  0  0  0  0
  2  3  1  0  0  0  0
  3  4  2  0  0  0  0
  3 21  1  0  0  0  0
  4  9  1  0  0  0  0
  5  4  1  0  0  0  0
  5 10  1  0  0  0  0
  6  5  2  0  0  0  0
  7  1  1  0  0  0  0
  8  2  1  0  0  0  0
 11  6  1  0  0  0  0
 11 13  2  0  0  0  0
 12 11  2  0  0  0  0
 15 14  3  0  0  0  0
 16 21  1  0  0  0  0
 16 20  2  0  0  0  0
 17 16  1  0  0  0  0
 17 18  1  0  0  0  0
 19 16  2  0  0  0  0
M  END
