Coordinates from ORCA-job 4-NO2-Ph-N2-HSO4-B3LYPG-6-31G_dp-MTMO-d009-169-n800
 OpenBabel09051908393D

 21 20  0  0  0  0  0  0  0  0999 V2000
   -0.9941   -0.9641    0.9348 C   0  0  0  0  0  0  0  0  0  0  0  0
    0.3721   -1.1872    0.7943 C   0  0  0  0  0  0  0  0  0  0  0  0
    1.2559   -0.1399    1.0555 C   0  0  0  0  0  0  0  0  0  0  0  0
    0.8134    1.1200    1.4571 C   0  0  0  0  0  0  0  0  0  0  0  0
   -0.5524    1.3428    1.6042 C   0  0  0  0  0  0  0  0  0  0  0  0
   -1.4331    0.2959    1.3385 C   0  0  0  0  0  0  0  0  0  0  0  0
   -1.7188   -1.7448    0.7424 H   0  0  0  0  0  0  0  0  0  0  0  0
    0.7536   -2.1515    0.4820 H   0  0  0  0  0  0  0  0  0  0  0  0
    1.5350    1.9037    1.6565 H   0  0  0  0  0  0  0  0  0  0  0  0
   -0.9428    2.3027    1.9168 H   0  0  0  0  0  0  0  0  0  0  0  0
   -2.8793    0.5289    1.4933 N   0  0  0  0  0  0  0  0  0  0  0  0
   -3.6351   -0.4111    1.2545 O   0  0  0  0  0  0  0  0  0  0  0  0
   -3.2389    1.6490    1.8523 O   0  0  0  0  0  0  0  0  0  0  0  0
   10.2333    6.5673   -3.5980 N   0  0  0  0  0  0  0  0  0  0  0  0
    9.4476    5.9403   -3.1384 N   0  0  0  0  0  0  0  0  0  0  0  0
    3.3814   -0.4811   -0.4632 S   0  0  0  0  0  0  0  0  0  0  0  0
    3.3580    1.0679   -0.9546 O   0  0  0  0  0  0  0  0  0  0  0  0
    4.1659    1.4950   -0.6206 H   0  0  0  0  0  0  0  0  0  0  0  0
    2.5348   -1.2087   -1.3795 O   0  0  0  0  0  0  0  0  0  0  0  0
    4.7420   -0.8508   -0.1395 O   0  0  0  0  0  0  0  0  0  0  0  0
    2.6391   -0.3590    1.0037 O   0  0  0  0  0  0  0  0  0  0  0  0
  1  6  1  0  0  0  0
  2  1  2  0  0  0  0
  2  3  1  0  0  0  0
  3  4  2  0  0  0  0
  4  5  1  0  0  0  0
  4  9  1  0  0  0  0
  5 10  1  0  0  0  0
  6 11  1  0  0  0  0
  6  5  2  0  0  0  0
  7  1  1  0  0  0  0
  8  2  1  0  0  0  0
 11 13  2  0  0  0  0
 12 11  2  0  0  0  0
 14 15  3  0  0  0  0
 16 20  2  0  0  0  0
 16 21  1  0  0  0  0
 17 18  1  0  0  0  0
 17 16  1  0  0  0  0
 19 16  2  0  0  0  0
 21  3  1  0  0  0  0
M  END
