Coordinates from ORCA-job 4-NO2-Ph-N2-HSO4-B3LYPG-6-31G_dp-MTMO-d009-169-n800
 OpenBabel09051908393D

 21 20  0  0  0  0  0  0  0  0999 V2000
   -1.2186   -1.1005    1.0463 C   0  0  0  0  0  0  0  0  0  0  0  0
    0.1454   -1.3383    0.9075 C   0  0  0  0  0  0  0  0  0  0  0  0
    1.0391   -0.2952    1.1514 C   0  0  0  0  0  0  0  0  0  0  0  0
    0.6088    0.9748    1.5338 C   0  0  0  0  0  0  0  0  0  0  0  0
   -0.7547    1.2124    1.6790 C   0  0  0  0  0  0  0  0  0  0  0  0
   -1.6454    0.1696    1.4310 C   0  0  0  0  0  0  0  0  0  0  0  0
   -1.9507   -1.8775    0.8671 H   0  0  0  0  0  0  0  0  0  0  0  0
    0.5176   -2.3107    0.6097 H   0  0  0  0  0  0  0  0  0  0  0  0
    1.3377    1.7549    1.7199 H   0  0  0  0  0  0  0  0  0  0  0  0
   -1.1359    2.1806    1.9772 H   0  0  0  0  0  0  0  0  0  0  0  0
   -3.0892    0.4183    1.5840 N   0  0  0  0  0  0  0  0  0  0  0  0
   -3.8538   -0.5184    1.3612 O   0  0  0  0  0  0  0  0  0  0  0  0
   -3.4379    1.5472    1.9254 O   0  0  0  0  0  0  0  0  0  0  0  0
   12.2687    8.0075   -4.4784 N   0  0  0  0  0  0  0  0  0  0  0  0
   11.4800    7.3712   -4.0371 N   0  0  0  0  0  0  0  0  0  0  0  0
    3.1596   -0.6706   -0.3655 S   0  0  0  0  0  0  0  0  0  0  0  0
    3.1567    0.8754   -0.8669 O   0  0  0  0  0  0  0  0  0  0  0  0
    3.9719    1.2926   -0.5381 H   0  0  0  0  0  0  0  0  0  0  0  0
    2.3026   -1.3930   -1.2761 O   0  0  0  0  0  0  0  0  0  0  0  0
    4.5156   -1.0558   -0.0404 O   0  0  0  0  0  0  0  0  0  0  0  0
    2.4200   -0.5290    1.1011 O   0  0  0  0  0  0  0  0  0  0  0  0
  1  6  1  0  0  0  0
  2  1  2  0  0  0  0
  2  3  1  0  0  0  0
  3  4  2  0  0  0  0
  4  5  1  0  0  0  0
  4  9  1  0  0  0  0
  5 10  1  0  0  0  0
  6 11  1  0  0  0  0
  6  5  2  0  0  0  0
  7  1  1  0  0  0  0
  8  2  1  0  0  0  0
 11 13  2  0  0  0  0
 12 11  2  0  0  0  0
 14 15  3  0  0  0  0
 16 20  2  0  0  0  0
 16 21  1  0  0  0  0
 17 18  1  0  0  0  0
 17 16  1  0  0  0  0
 19 16  2  0  0  0  0
 21  3  1  0  0  0  0
M  END
