Coordinates from ORCA-job 4-NO2-Ph-N2-HSO4-B3LYPG-6-31G_dp-MTMO-d009-169-n800
 OpenBabel09051908393D

 21 20  0  0  0  0  0  0  0  0999 V2000
   -1.1914   -1.0830    1.0340 C   0  0  0  0  0  0  0  0  0  0  0  0
    0.1726   -1.3202    0.8950 C   0  0  0  0  0  0  0  0  0  0  0  0
    1.0659   -0.2769    1.1395 C   0  0  0  0  0  0  0  0  0  0  0  0
    0.6352    0.9927    1.5226 C   0  0  0  0  0  0  0  0  0  0  0  0
   -0.7284    1.2297    1.6680 C   0  0  0  0  0  0  0  0  0  0  0  0
   -1.6187    0.1867    1.4194 C   0  0  0  0  0  0  0  0  0  0  0  0
   -1.9232   -1.8602    0.8544 H   0  0  0  0  0  0  0  0  0  0  0  0
    0.5452   -2.2923    0.5967 H   0  0  0  0  0  0  0  0  0  0  0  0
    1.3638    1.7730    1.7092 H   0  0  0  0  0  0  0  0  0  0  0  0
   -1.1100    2.1975    1.9667 H   0  0  0  0  0  0  0  0  0  0  0  0
   -3.0626    0.4348    1.5726 N   0  0  0  0  0  0  0  0  0  0  0  0
   -3.8269   -0.5021    1.3493 O   0  0  0  0  0  0  0  0  0  0  0  0
   -3.4117    1.5634    1.9147 O   0  0  0  0  0  0  0  0  0  0  0  0
   12.0149    7.8352   -4.3671 N   0  0  0  0  0  0  0  0  0  0  0  0
   11.2264    7.1994   -3.9246 N   0  0  0  0  0  0  0  0  0  0  0  0
    3.1865   -0.6510   -0.3776 S   0  0  0  0  0  0  0  0  0  0  0  0
    3.1827    0.8951   -0.8787 O   0  0  0  0  0  0  0  0  0  0  0  0
    3.9977    1.3128   -0.5498 H   0  0  0  0  0  0  0  0  0  0  0  0
    2.3299   -1.3736   -1.2884 O   0  0  0  0  0  0  0  0  0  0  0  0
    4.5427   -1.0356   -0.0528 O   0  0  0  0  0  0  0  0  0  0  0  0
    2.4470   -0.5101    1.0890 O   0  0  0  0  0  0  0  0  0  0  0  0
  1  6  1  0  0  0  0
  2  1  2  0  0  0  0
  2  3  1  0  0  0  0
  3  4  2  0  0  0  0
  4  5  1  0  0  0  0
  4  9  1  0  0  0  0
  5 10  1  0  0  0  0
  6 11  1  0  0  0  0
  6  5  2  0  0  0  0
  7  1  1  0  0  0  0
  8  2  1  0  0  0  0
 11 13  2  0  0  0  0
 12 11  2  0  0  0  0
 14 15  3  0  0  0  0
 16 20  2  0  0  0  0
 16 21  1  0  0  0  0
 17 18  1  0  0  0  0
 17 16  1  0  0  0  0
 19 16  2  0  0  0  0
 21  3  1  0  0  0  0
M  END
