Coordinates from ORCA-job 4-NO2-Ph-N2-HSO4-B3LYPG-6-31G_dp-MTMO-d009-169-n800
 OpenBabel09051908393D

 21 20  0  0  0  0  0  0  0  0999 V2000
   -1.2711   -1.1349    1.0696 C   0  0  0  0  0  0  0  0  0  0  0  0
    0.0927   -1.3733    0.9312 C   0  0  0  0  0  0  0  0  0  0  0  0
    0.9869   -0.3305    1.1747 C   0  0  0  0  0  0  0  0  0  0  0  0
    0.5570    0.9400    1.5563 C   0  0  0  0  0  0  0  0  0  0  0  0
   -0.8063    1.1782    1.7011 C   0  0  0  0  0  0  0  0  0  0  0  0
   -1.6974    0.1356    1.4535 C   0  0  0  0  0  0  0  0  0  0  0  0
   -2.0035   -1.9116    0.8907 H   0  0  0  0  0  0  0  0  0  0  0  0
    0.4646   -2.3460    0.6340 H   0  0  0  0  0  0  0  0  0  0  0  0
    1.2863    1.7199    1.7421 H   0  0  0  0  0  0  0  0  0  0  0  0
   -1.1872    2.1467    1.9987 H   0  0  0  0  0  0  0  0  0  0  0  0
   -3.1412    0.3851    1.6061 N   0  0  0  0  0  0  0  0  0  0  0  0
   -3.9062   -0.5515    1.3837 O   0  0  0  0  0  0  0  0  0  0  0  0
   -3.4895    1.5143    1.9468 O   0  0  0  0  0  0  0  0  0  0  0  0
   12.7633    8.3405   -4.6959 N   0  0  0  0  0  0  0  0  0  0  0  0
   11.9742    7.7034   -4.2564 N   0  0  0  0  0  0  0  0  0  0  0  0
    3.1074   -0.7073   -0.3417 S   0  0  0  0  0  0  0  0  0  0  0  0
    3.1055    0.8387   -0.8435 O   0  0  0  0  0  0  0  0  0  0  0  0
    3.9210    1.2554   -0.5146 H   0  0  0  0  0  0  0  0  0  0  0  0
    2.2502   -1.4293   -1.2524 O   0  0  0  0  0  0  0  0  0  0  0  0
    4.4631   -1.0932   -0.0164 O   0  0  0  0  0  0  0  0  0  0  0  0
    2.3677   -0.5649    1.1246 O   0  0  0  0  0  0  0  0  0  0  0  0
  1  6  1  0  0  0  0
  2  1  2  0  0  0  0
  2  3  1  0  0  0  0
  3  4  2  0  0  0  0
  4  5  1  0  0  0  0
  4  9  1  0  0  0  0
  5 10  1  0  0  0  0
  6 11  1  0  0  0  0
  6  5  2  0  0  0  0
  7  1  1  0  0  0  0
  8  2  1  0  0  0  0
 11 13  2  0  0  0  0
 12 11  2  0  0  0  0
 14 15  3  0  0  0  0
 16 20  2  0  0  0  0
 16 21  1  0  0  0  0
 17 18  1  0  0  0  0
 17 16  1  0  0  0  0
 19 16  2  0  0  0  0
 21  3  1  0  0  0  0
M  END
