Coordinates from ORCA-job 4-NO2-Ph-N2-HSO4-B3LYPG-6-31G_dp-MTMO-d009-169-n800
 OpenBabel09051908393D

 21 20  0  0  0  0  0  0  0  0999 V2000
   -0.1240   -0.6514    0.2819 C   0  0  0  0  0  0  0  0  0  0  0  0
    1.2410   -0.7062    0.5466 C   0  0  0  0  0  0  0  0  0  0  0  0
    1.8346    0.3480    1.2412 C   0  0  0  0  0  0  0  0  0  0  0  0
    1.1032    1.4502    1.6818 C   0  0  0  0  0  0  0  0  0  0  0  0
   -0.2631    1.5033    1.4232 C   0  0  0  0  0  0  0  0  0  0  0  0
   -0.8529    0.4510    0.7255 C   0  0  0  0  0  0  0  0  0  0  0  0
   -0.6299   -1.4444   -0.2542 H   0  0  0  0  0  0  0  0  0  0  0  0
    1.8429   -1.5442    0.2180 H   0  0  0  0  0  0  0  0  0  0  0  0
    1.6038    2.2448    2.2232 H   0  0  0  0  0  0  0  0  0  0  0  0
   -0.8725    2.3370    1.7478 H   0  0  0  0  0  0  0  0  0  0  0  0
   -2.2988    0.5056    0.4490 N   0  0  0  0  0  0  0  0  0  0  0  0
   -2.7966   -0.4375   -0.1630 O   0  0  0  0  0  0  0  0  0  0  0  0
   -2.9164    1.4916    0.8477 O   0  0  0  0  0  0  0  0  0  0  0  0
    2.9706    1.8574   -3.3071 N   0  0  0  0  0  0  0  0  0  0  0  0
    3.9512    1.6380   -3.7671 N   0  0  0  0  0  0  0  0  0  0  0  0
    4.3381    0.5283    0.4392 S   0  0  0  0  0  0  0  0  0  0  0  0
    4.2081    2.1311    0.2034 O   0  0  0  0  0  0  0  0  0  0  0  0
    4.7945    2.5726    0.8422 H   0  0  0  0  0  0  0  0  0  0  0  0
    3.9286   -0.0932   -0.7988 O   0  0  0  0  0  0  0  0  0  0  0  0
    5.5855    0.2517    1.1172 O   0  0  0  0  0  0  0  0  0  0  0  0
    3.1896    0.2817    1.5944 O   0  0  0  0  0  0  0  0  0  0  0  0
  1  2  2  0  0  0  0
  1  6  1  0  0  0  0
  2  3  1  0  0  0  0
  3 21  1  0  0  0  0
  3  4  2  0  0  0  0
  4  9  1  0  0  0  0
  5  4  1  0  0  0  0
  5 10  1  0  0  0  0
  6  5  2  0  0  0  0
  7  1  1  0  0  0  0
  8  2  1  0  0  0  0
 11  6  1  0  0  0  0
 11 13  2  0  0  0  0
 12 11  2  0  0  0  0
 15 14  3  0  0  0  0
 16 20  2  0  0  0  0
 16 21  1  0  0  0  0
 17 16  1  0  0  0  0
 17 18  1  0  0  0  0
 19 16  2  0  0  0  0
M  END
