Coordinates from ORCA-job 4-NO2-Ph-N2-HSO4-B3LYPG-6-31G_dp-MTMO-d009-169-n800
 OpenBabel09051908393D

 21 20  0  0  0  0  0  0  0  0999 V2000
    0.0592   -0.6108    0.0946 C   0  0  0  0  0  0  0  0  0  0  0  0
    1.4057   -0.5907    0.4450 C   0  0  0  0  0  0  0  0  0  0  0  0
    1.9210    0.5495    1.0643 C   0  0  0  0  0  0  0  0  0  0  0  0
    1.1173    1.6456    1.3805 C   0  0  0  0  0  0  0  0  0  0  0  0
   -0.2310    1.6198    1.0417 C   0  0  0  0  0  0  0  0  0  0  0  0
   -0.7376    0.4929    0.3959 C   0  0  0  0  0  0  0  0  0  0  0  0
   -0.3835   -1.4693   -0.3944 H   0  0  0  0  0  0  0  0  0  0  0  0
    2.0484   -1.4344    0.2307 H   0  0  0  0  0  0  0  0  0  0  0  0
    1.5548    2.4993    1.8851 H   0  0  0  0  0  0  0  0  0  0  0  0
   -0.8904    2.4485    1.2657 H   0  0  0  0  0  0  0  0  0  0  0  0
   -2.1634    0.4636    0.0319 N   0  0  0  0  0  0  0  0  0  0  0  0
   -2.5859   -0.5443   -0.5319 O   0  0  0  0  0  0  0  0  0  0  0  0
   -2.8420    1.4500    0.3141 O   0  0  0  0  0  0  0  0  0  0  0  0
    2.1814    1.7706   -1.5337 N   0  0  0  0  0  0  0  0  0  0  0  0
    1.5118    1.8218   -2.4118 N   0  0  0  0  0  0  0  0  0  0  0  0
    4.5603    0.3436    0.6179 S   0  0  0  0  0  0  0  0  0  0  0  0
    4.8455    1.8472    0.0807 O   0  0  0  0  0  0  0  0  0  0  0  0
    5.4229    2.2860    0.7297 H   0  0  0  0  0  0  0  0  0  0  0  0
    4.2192   -0.4512   -0.5392 O   0  0  0  0  0  0  0  0  0  0  0  0
    5.5947   -0.0086    1.5664 O   0  0  0  0  0  0  0  0  0  0  0  0
    3.2293    0.5864    1.5591 O   0  0  0  0  0  0  0  0  0  0  0  0
  1  6  2  0  0  0  0
  1  2  1  0  0  0  0
  2  3  2  0  0  0  0
  3  4  1  0  0  0  0
  3 21  1  0  0  0  0
  4  9  1  0  0  0  0
  5 10  1  0  0  0  0
  5  4  2  0  0  0  0
  6  5  1  0  0  0  0
  7  1  1  0  0  0  0
  8  2  1  0  0  0  0
 11 13  2  0  0  0  0
 11  6  1  0  0  0  0
 12 11  2  0  0  0  0
 15 14  3  0  0  0  0
 16 21  1  0  0  0  0
 16 20  2  0  0  0  0
 17 16  1  0  0  0  0
 17 18  1  0  0  0  0
 19 16  2  0  0  0  0
M  END
