Coordinates from ORCA-job 4-NO2-Ph-N2-HSO4-B3LYPG-6-31G_dp-MTMO-d009-169-n800
 OpenBabel09051908393D

 21 20  0  0  0  0  0  0  0  0999 V2000
   -1.3324   -1.1755    1.0964 C   0  0  0  0  0  0  0  0  0  0  0  0
    0.0314   -1.4141    0.9583 C   0  0  0  0  0  0  0  0  0  0  0  0
    0.9256   -0.3714    1.2018 C   0  0  0  0  0  0  0  0  0  0  0  0
    0.4959    0.8992    1.5832 C   0  0  0  0  0  0  0  0  0  0  0  0
   -0.8675    1.1376    1.7277 C   0  0  0  0  0  0  0  0  0  0  0  0
   -1.7586    0.0952    1.4800 C   0  0  0  0  0  0  0  0  0  0  0  0
   -2.0649   -1.9521    0.9174 H   0  0  0  0  0  0  0  0  0  0  0  0
    0.4032   -2.3869    0.6613 H   0  0  0  0  0  0  0  0  0  0  0  0
    1.2252    1.6790    1.7691 H   0  0  0  0  0  0  0  0  0  0  0  0
   -1.2483    2.1062    2.0250 H   0  0  0  0  0  0  0  0  0  0  0  0
   -3.2024    0.3448    1.6323 N   0  0  0  0  0  0  0  0  0  0  0  0
   -3.9675   -0.5917    1.4099 O   0  0  0  0  0  0  0  0  0  0  0  0
   -3.5506    1.4741    1.9727 O   0  0  0  0  0  0  0  0  0  0  0  0
   13.3438    8.7286   -4.9515 N   0  0  0  0  0  0  0  0  0  0  0  0
   12.5544    8.0906   -4.5139 N   0  0  0  0  0  0  0  0  0  0  0  0
    3.0465   -0.7485   -0.3140 S   0  0  0  0  0  0  0  0  0  0  0  0
    3.0450    0.7974   -0.8158 O   0  0  0  0  0  0  0  0  0  0  0  0
    3.8604    1.2140   -0.4867 H   0  0  0  0  0  0  0  0  0  0  0  0
    2.1895   -1.4704   -1.2248 O   0  0  0  0  0  0  0  0  0  0  0  0
    4.4021   -1.1346    0.0117 O   0  0  0  0  0  0  0  0  0  0  0  0
    2.3065   -0.6060    1.1522 O   0  0  0  0  0  0  0  0  0  0  0  0
  1  6  1  0  0  0  0
  2  1  2  0  0  0  0
  2  3  1  0  0  0  0
  3  4  2  0  0  0  0
  4  5  1  0  0  0  0
  4  9  1  0  0  0  0
  5 10  1  0  0  0  0
  6 11  1  0  0  0  0
  6  5  2  0  0  0  0
  7  1  1  0  0  0  0
  8  2  1  0  0  0  0
 11 13  2  0  0  0  0
 12 11  2  0  0  0  0
 14 15  3  0  0  0  0
 16 20  2  0  0  0  0
 16 21  1  0  0  0  0
 17 18  1  0  0  0  0
 17 16  1  0  0  0  0
 19 16  2  0  0  0  0
 21  3  1  0  0  0  0
M  END
