Coordinates from ORCA-job 4-NO2-Ph-N2-HSO4-B3LYPG-6-31G_dp-MTMO-d009-169-n800
 OpenBabel09051908393D

 21 20  0  0  0  0  0  0  0  0999 V2000
    0.0663   -0.6336    0.1276 C   0  0  0  0  0  0  0  0  0  0  0  0
    1.4011   -0.6798    0.5177 C   0  0  0  0  0  0  0  0  0  0  0  0
    1.9513    0.4267    1.1660 C   0  0  0  0  0  0  0  0  0  0  0  0
    1.2020    1.5688    1.4470 C   0  0  0  0  0  0  0  0  0  0  0  0
   -0.1353    1.6123    1.0652 C   0  0  0  0  0  0  0  0  0  0  0  0
   -0.6798    0.5102    0.4085 C   0  0  0  0  0  0  0  0  0  0  0  0
   -0.4048   -1.4659   -0.3799 H   0  0  0  0  0  0  0  0  0  0  0  0
    2.0122   -1.5514    0.3203 H   0  0  0  0  0  0  0  0  0  0  0  0
    1.6667    2.4011    1.9632 H   0  0  0  0  0  0  0  0  0  0  0  0
   -0.7573    2.4757    1.2642 H   0  0  0  0  0  0  0  0  0  0  0  0
   -2.0948    0.5546    0.0023 N   0  0  0  0  0  0  0  0  0  0  0  0
   -2.5526   -0.4314   -0.5723 O   0  0  0  0  0  0  0  0  0  0  0  0
   -2.7287    1.5756    0.2636 O   0  0  0  0  0  0  0  0  0  0  0  0
    2.0310    1.7577   -1.8778 N   0  0  0  0  0  0  0  0  0  0  0  0
    1.3751    1.7634   -2.7674 N   0  0  0  0  0  0  0  0  0  0  0  0
    4.5495    0.3789    0.6430 S   0  0  0  0  0  0  0  0  0  0  0  0
    4.6119    1.9440    0.2161 O   0  0  0  0  0  0  0  0  0  0  0  0
    5.1624    2.4063    0.8719 H   0  0  0  0  0  0  0  0  0  0  0  0
    4.2287   -0.3584   -0.5567 O   0  0  0  0  0  0  0  0  0  0  0  0
    5.6753    0.0840    1.5026 O   0  0  0  0  0  0  0  0  0  0  0  0
    3.2577    0.3766    1.6672 O   0  0  0  0  0  0  0  0  0  0  0  0
  1  6  2  0  0  0  0
  1  2  1  0  0  0  0
  2  3  2  0  0  0  0
  3  4  1  0  0  0  0
  3 21  1  0  0  0  0
  4  9  1  0  0  0  0
  5 10  1  0  0  0  0
  5  4  2  0  0  0  0
  6  5  1  0  0  0  0
  7  1  1  0  0  0  0
  8  2  1  0  0  0  0
 11 13  2  0  0  0  0
 11  6  1  0  0  0  0
 12 11  2  0  0  0  0
 15 14  3  0  0  0  0
 16 20  2  0  0  0  0
 16 21  1  0  0  0  0
 17 16  1  0  0  0  0
 17 18  1  0  0  0  0
 19 16  2  0  0  0  0
M  END
