Coordinates from ORCA-job 4-NO2-Ph-N2-HSO4-B3LYPG-6-31G_dp-MTMO-d009-169-n800
 OpenBabel09051908393D

 21 20  0  0  0  0  0  0  0  0999 V2000
   -0.8371   -0.8875    0.8424 C   0  0  0  0  0  0  0  0  0  0  0  0
    0.5338   -1.0782    0.6986 C   0  0  0  0  0  0  0  0  0  0  0  0
    1.3951   -0.0209    0.9930 C   0  0  0  0  0  0  0  0  0  0  0  0
    0.9257    1.2169    1.4312 C   0  0  0  0  0  0  0  0  0  0  0  0
   -0.4445    1.4069    1.5817 C   0  0  0  0  0  0  0  0  0  0  0  0
   -1.3029    0.3505    1.2826 C   0  0  0  0  0  0  0  0  0  0  0  0
   -1.5450   -1.6769    0.6250 H   0  0  0  0  0  0  0  0  0  0  0  0
    0.9357   -2.0245    0.3584 H   0  0  0  0  0  0  0  0  0  0  0  0
    1.6307    2.0089    1.6557 H   0  0  0  0  0  0  0  0  0  0  0  0
   -0.8552    2.3489    1.9219 H   0  0  0  0  0  0  0  0  0  0  0  0
   -2.7539    0.5487    1.4409 N   0  0  0  0  0  0  0  0  0  0  0  0
   -3.4895   -0.3993    1.1726 O   0  0  0  0  0  0  0  0  0  0  0  0
   -3.1375    1.6498    1.8321 O   0  0  0  0  0  0  0  0  0  0  0  0
    8.9640    5.4999   -3.0703 N   0  0  0  0  0  0  0  0  0  0  0  0
    8.1729    4.9113   -2.5710 N   0  0  0  0  0  0  0  0  0  0  0  0
    3.5300   -0.2828   -0.5293 S   0  0  0  0  0  0  0  0  0  0  0  0
    3.4667    1.2738   -0.9917 O   0  0  0  0  0  0  0  0  0  0  0  0
    4.2626    1.7164   -0.6490 H   0  0  0  0  0  0  0  0  0  0  0  0
    2.7041   -1.0148   -1.4608 O   0  0  0  0  0  0  0  0  0  0  0  0
    4.8992   -0.6234   -0.2099 O   0  0  0  0  0  0  0  0  0  0  0  0
    2.7828   -0.2082    0.9382 O   0  0  0  0  0  0  0  0  0  0  0  0
  1  6  1  0  0  0  0
  2  1  2  0  0  0  0
  2  3  1  0  0  0  0
  3  4  2  0  0  0  0
  4  5  1  0  0  0  0
  4  9  1  0  0  0  0
  5 10  1  0  0  0  0
  6 11  1  0  0  0  0
  6  5  2  0  0  0  0
  7  1  1  0  0  0  0
  8  2  1  0  0  0  0
 11 13  2  0  0  0  0
 12 11  2  0  0  0  0
 14 15  3  0  0  0  0
 16 20  2  0  0  0  0
 16 21  1  0  0  0  0
 17 18  1  0  0  0  0
 17 16  1  0  0  0  0
 19 16  2  0  0  0  0
 21  3  1  0  0  0  0
M  END
