Coordinates from ORCA-job 4-NO2-Ph-N2-HSO4-B3LYPG-6-31G_dp-MTMO-d009-169-n800
 OpenBabel09051908393D

 21 20  0  0  0  0  0  0  0  0999 V2000
   -0.7500   -0.8608    0.8147 C   0  0  0  0  0  0  0  0  0  0  0  0
    0.6237   -1.0205    0.6602 C   0  0  0  0  0  0  0  0  0  0  0  0
    1.4636    0.0539    0.9540 C   0  0  0  0  0  0  0  0  0  0  0  0
    0.9704    1.2789    1.4019 C   0  0  0  0  0  0  0  0  0  0  0  0
   -0.4027    1.4380    1.5631 C   0  0  0  0  0  0  0  0  0  0  0  0
   -1.2398    0.3645    1.2647 C   0  0  0  0  0  0  0  0  0  0  0  0
   -1.4420   -1.6645    0.5981 H   0  0  0  0  0  0  0  0  0  0  0  0
    1.0438   -1.9559    0.3119 H   0  0  0  0  0  0  0  0  0  0  0  0
    1.6594    2.0850    1.6252 H   0  0  0  0  0  0  0  0  0  0  0  0
   -0.8313    2.3691    1.9109 H   0  0  0  0  0  0  0  0  0  0  0  0
   -2.6936    0.5298    1.4343 N   0  0  0  0  0  0  0  0  0  0  0  0
   -3.4101   -0.4330    1.1670 O   0  0  0  0  0  0  0  0  0  0  0  0
   -3.0986    1.6203    1.8335 O   0  0  0  0  0  0  0  0  0  0  0  0
    8.3847    4.9039   -2.7576 N   0  0  0  0  0  0  0  0  0  0  0  0
    7.5633    4.3525   -2.2648 N   0  0  0  0  0  0  0  0  0  0  0  0
    3.5934   -0.1505   -0.5846 S   0  0  0  0  0  0  0  0  0  0  0  0
    3.5038    1.4093   -1.0310 O   0  0  0  0  0  0  0  0  0  0  0  0
    4.3025    1.8575   -0.7022 H   0  0  0  0  0  0  0  0  0  0  0  0
    2.7724   -0.8866   -1.5173 O   0  0  0  0  0  0  0  0  0  0  0  0
    4.9700   -0.4729   -0.2779 O   0  0  0  0  0  0  0  0  0  0  0  0
    2.8547   -0.1027    0.8883 O   0  0  0  0  0  0  0  0  0  0  0  0
  1  6  1  0  0  0  0
  2  1  2  0  0  0  0
  2  3  1  0  0  0  0
  3  4  2  0  0  0  0
  4  5  1  0  0  0  0
  4  9  1  0  0  0  0
  5 10  1  0  0  0  0
  6 11  1  0  0  0  0
  6  5  2  0  0  0  0
  7  1  1  0  0  0  0
  8  2  1  0  0  0  0
 11 13  2  0  0  0  0
 12 11  2  0  0  0  0
 14 15  3  0  0  0  0
 16 20  2  0  0  0  0
 16 21  1  0  0  0  0
 17 18  1  0  0  0  0
 17 16  1  0  0  0  0
 19 16  2  0  0  0  0
 21  3  1  0  0  0  0
M  END
