Coordinates from ORCA-job 4-NO2-Ph-N2-HSO4-B3LYPG-6-31G_dp-MTMO-d009-169-n800
 OpenBabel09051908393D

 21 20  0  0  0  0  0  0  0  0999 V2000
   -0.8909   -0.9107    0.8722 C   0  0  0  0  0  0  0  0  0  0  0  0
    0.4781   -1.1155    0.7307 C   0  0  0  0  0  0  0  0  0  0  0  0
    1.3492   -0.0633    1.0145 C   0  0  0  0  0  0  0  0  0  0  0  0
    0.8912    1.1832    1.4400 C   0  0  0  0  0  0  0  0  0  0  0  0
   -0.4772    1.3874    1.5882 C   0  0  0  0  0  0  0  0  0  0  0  0
   -1.3453    0.3360    1.2997 C   0  0  0  0  0  0  0  0  0  0  0  0
   -1.6062   -1.6957    0.6627 H   0  0  0  0  0  0  0  0  0  0  0  0
    0.8713   -2.0689    0.4003 H   0  0  0  0  0  0  0  0  0  0  0  0
    1.6034    1.9709    1.6567 H   0  0  0  0  0  0  0  0  0  0  0  0
   -0.8793    2.3365    1.9187 H   0  0  0  0  0  0  0  0  0  0  0  0
   -2.7945    0.5492    1.4556 N   0  0  0  0  0  0  0  0  0  0  0  0
   -3.5388   -0.3945    1.1964 O   0  0  0  0  0  0  0  0  0  0  0  0
   -3.1678    1.6577    1.8358 O   0  0  0  0  0  0  0  0  0  0  0  0
    9.3739    5.8716   -3.2464 N   0  0  0  0  0  0  0  0  0  0  0  0
    8.5885    5.2645   -2.7604 N   0  0  0  0  0  0  0  0  0  0  0  0
    3.4817   -0.3581   -0.5048 S   0  0  0  0  0  0  0  0  0  0  0  0
    3.4350    1.1957   -0.9786 O   0  0  0  0  0  0  0  0  0  0  0  0
    4.2347    1.6325   -0.6374 H   0  0  0  0  0  0  0  0  0  0  0  0
    2.6483   -1.0882   -1.4311 O   0  0  0  0  0  0  0  0  0  0  0  0
    4.8472   -0.7106   -0.1824 O   0  0  0  0  0  0  0  0  0  0  0  0
    2.7351   -0.2645    0.9619 O   0  0  0  0  0  0  0  0  0  0  0  0
  1  6  1  0  0  0  0
  2  1  2  0  0  0  0
  2  3  1  0  0  0  0
  3  4  2  0  0  0  0
  4  5  1  0  0  0  0
  4  9  1  0  0  0  0
  5 10  1  0  0  0  0
  6 11  1  0  0  0  0
  6  5  2  0  0  0  0
  7  1  1  0  0  0  0
  8  2  1  0  0  0  0
 11 13  2  0  0  0  0
 12 11  2  0  0  0  0
 14 15  3  0  0  0  0
 16 20  2  0  0  0  0
 16 21  1  0  0  0  0
 17 18  1  0  0  0  0
 17 16  1  0  0  0  0
 19 16  2  0  0  0  0
 21  3  1  0  0  0  0
M  END
