Coordinates from ORCA-job 4-NO2-Ph-N2-HSO4-B3LYPG-6-31G_dp-MTMO-d009-169-n800
 OpenBabel09051908393D

 21 20  0  0  0  0  0  0  0  0999 V2000
    0.0434   -0.6045    0.0938 C   0  0  0  0  0  0  0  0  0  0  0  0
    1.4023   -0.5051    0.3779 C   0  0  0  0  0  0  0  0  0  0  0  0
    1.8839    0.6769    0.9463 C   0  0  0  0  0  0  0  0  0  0  0  0
    1.0275    1.7251    1.2950 C   0  0  0  0  0  0  0  0  0  0  0  0
   -0.3299    1.6181    1.0219 C   0  0  0  0  0  0  0  0  0  0  0  0
   -0.8025    0.4555    0.4136 C   0  0  0  0  0  0  0  0  0  0  0  0
   -0.3705   -1.4969   -0.3586 H   0  0  0  0  0  0  0  0  0  0  0  0
    2.0737   -1.3191    0.1417 H   0  0  0  0  0  0  0  0  0  0  0  0
    1.4387    2.6106    1.7659 H   0  0  0  0  0  0  0  0  0  0  0  0
   -1.0232    2.4120    1.2685 H   0  0  0  0  0  0  0  0  0  0  0  0
   -2.2374    0.3397    0.1167 N   0  0  0  0  0  0  0  0  0  0  0  0
   -2.6275   -0.7003   -0.4120 O   0  0  0  0  0  0  0  0  0  0  0  0
   -2.9583    1.2911    0.4153 O   0  0  0  0  0  0  0  0  0  0  0  0
    2.3711    1.8377   -1.3538 N   0  0  0  0  0  0  0  0  0  0  0  0
    1.7503    2.0369   -2.2469 N   0  0  0  0  0  0  0  0  0  0  0  0
    4.5497    0.3133    0.6014 S   0  0  0  0  0  0  0  0  0  0  0  0
    5.1042    1.7166    0.0129 O   0  0  0  0  0  0  0  0  0  0  0  0
    5.7054    2.0968    0.6770 H   0  0  0  0  0  0  0  0  0  0  0  0
    4.1999   -0.5103   -0.5330 O   0  0  0  0  0  0  0  0  0  0  0  0
    5.4381   -0.1137    1.6618 O   0  0  0  0  0  0  0  0  0  0  0  0
    3.1989    0.8350    1.3870 O   0  0  0  0  0  0  0  0  0  0  0  0
  1  2  2  0  0  0  0
  1  6  1  0  0  0  0
  2  3  1  0  0  0  0
  3  4  2  0  0  0  0
  3 21  1  0  0  0  0
  4  9  1  0  0  0  0
  5 10  1  0  0  0  0
  5  4  1  0  0  0  0
  6  5  2  0  0  0  0
  7  1  1  0  0  0  0
  8  2  1  0  0  0  0
 11  6  1  0  0  0  0
 11 13  2  0  0  0  0
 12 11  2  0  0  0  0
 15 14  3  0  0  0  0
 16 21  1  0  0  0  0
 16 20  2  0  0  0  0
 17 16  1  0  0  0  0
 17 18  1  0  0  0  0
 19 16  2  0  0  0  0
M  END
