Coordinates from ORCA-job 4-NO2-Ph-N2-HSO4-B3LYPG-6-31G_dp-MTMO-d009-169-n800
 OpenBabel09051908393D

 21 20  0  0  0  0  0  0  0  0999 V2000
    0.0621   -0.6155    0.0979 C   0  0  0  0  0  0  0  0  0  0  0  0
    1.4044   -0.6218    0.4641 C   0  0  0  0  0  0  0  0  0  0  0  0
    1.9340    0.5056    1.0939 C   0  0  0  0  0  0  0  0  0  0  0  0
    1.1509    1.6190    1.3990 C   0  0  0  0  0  0  0  0  0  0  0  0
   -0.1937    1.6207    1.0435 C   0  0  0  0  0  0  0  0  0  0  0  0
   -0.7151    0.5041    0.3919 C   0  0  0  0  0  0  0  0  0  0  0  0
   -0.3924   -1.4636   -0.3986 H   0  0  0  0  0  0  0  0  0  0  0  0
    2.0348   -1.4769    0.2568 H   0  0  0  0  0  0  0  0  0  0  0  0
    1.5990    2.4636    1.9097 H   0  0  0  0  0  0  0  0  0  0  0  0
   -0.8391    2.4628    1.2586 H   0  0  0  0  0  0  0  0  0  0  0  0
   -2.1373    0.5040    0.0116 N   0  0  0  0  0  0  0  0  0  0  0  0
   -2.5739   -0.4950   -0.5571 O   0  0  0  0  0  0  0  0  0  0  0  0
   -2.7988    1.5040    0.2866 O   0  0  0  0  0  0  0  0  0  0  0  0
    2.1168    1.7325   -1.5964 N   0  0  0  0  0  0  0  0  0  0  0  0
    1.4387    1.7531   -2.4693 N   0  0  0  0  0  0  0  0  0  0  0  0
    4.5603    0.3614    0.6197 S   0  0  0  0  0  0  0  0  0  0  0  0
    4.7587    1.8945    0.1271 O   0  0  0  0  0  0  0  0  0  0  0  0
    5.3267    2.3407    0.7792 H   0  0  0  0  0  0  0  0  0  0  0  0
    4.2290   -0.4102   -0.5556 O   0  0  0  0  0  0  0  0  0  0  0  0
    5.6318    0.0283    1.5333 O   0  0  0  0  0  0  0  0  0  0  0  0
    3.2405    0.5041    1.5963 O   0  0  0  0  0  0  0  0  0  0  0  0
  1  6  2  0  0  0  0
  1  2  1  0  0  0  0
  2  3  2  0  0  0  0
  3  4  1  0  0  0  0
  3 21  1  0  0  0  0
  4  9  1  0  0  0  0
  5 10  1  0  0  0  0
  5  4  2  0  0  0  0
  6  5  1  0  0  0  0
  7  1  1  0  0  0  0
  8  2  1  0  0  0  0
 11 13  2  0  0  0  0
 11  6  1  0  0  0  0
 12 11  2  0  0  0  0
 15 14  3  0  0  0  0
 16 20  2  0  0  0  0
 16 21  1  0  0  0  0
 17 16  1  0  0  0  0
 17 18  1  0  0  0  0
 19 16  2  0  0  0  0
M  END
