Coordinates from ORCA-job 4-NO2-Ph-N2-HSO4-B3LYPG-6-31G_dp-MTMO-d009-169-n800
 OpenBabel09051908393D

 21 20  0  0  0  0  0  0  0  0999 V2000
   -0.9593   -0.9449    0.9142 C   0  0  0  0  0  0  0  0  0  0  0  0
    0.4078   -1.1632    0.7736 C   0  0  0  0  0  0  0  0  0  0  0  0
    1.2882   -0.1146    1.0414 C   0  0  0  0  0  0  0  0  0  0  0  0
    0.8415    1.1416    1.4499 C   0  0  0  0  0  0  0  0  0  0  0  0
   -0.5249    1.3595    1.5971 C   0  0  0  0  0  0  0  0  0  0  0  0
   -1.4024    0.3115    1.3248 C   0  0  0  0  0  0  0  0  0  0  0  0
   -1.6814   -1.7267    0.7169 H   0  0  0  0  0  0  0  0  0  0  0  0
    0.7923   -2.1245    0.4562 H   0  0  0  0  0  0  0  0  0  0  0  0
    1.5606    1.9263    1.6544 H   0  0  0  0  0  0  0  0  0  0  0  0
   -0.9185    2.3164    1.9149 H   0  0  0  0  0  0  0  0  0  0  0  0
   -2.8494    0.5392    1.4798 N   0  0  0  0  0  0  0  0  0  0  0  0
   -3.6021   -0.4016    1.2349 O   0  0  0  0  0  0  0  0  0  0  0  0
   -3.2126    1.6561    1.8450 O   0  0  0  0  0  0  0  0  0  0  0  0
    9.9331    6.3359   -3.4745 N   0  0  0  0  0  0  0  0  0  0  0  0
    9.1485    5.7140   -3.0064 N   0  0  0  0  0  0  0  0  0  0  0  0
    3.4158   -0.4436   -0.4773 S   0  0  0  0  0  0  0  0  0  0  0  0
    3.3860    1.1067   -0.9643 O   0  0  0  0  0  0  0  0  0  0  0  0
    4.1915    1.5367   -0.6280 H   0  0  0  0  0  0  0  0  0  0  0  0
    2.5730   -1.1721   -1.3962 O   0  0  0  0  0  0  0  0  0  0  0  0
    4.7777   -0.8084   -0.1537 O   0  0  0  0  0  0  0  0  0  0  0  0
    2.6722   -0.3290    0.9895 O   0  0  0  0  0  0  0  0  0  0  0  0
  1  6  1  0  0  0  0
  2  1  2  0  0  0  0
  2  3  1  0  0  0  0
  3  4  2  0  0  0  0
  4  5  1  0  0  0  0
  4  9  1  0  0  0  0
  5 10  1  0  0  0  0
  6 11  1  0  0  0  0
  6  5  2  0  0  0  0
  7  1  1  0  0  0  0
  8  2  1  0  0  0  0
 11 13  2  0  0  0  0
 12 11  2  0  0  0  0
 14 15  3  0  0  0  0
 16 20  2  0  0  0  0
 16 21  1  0  0  0  0
 17 18  1  0  0  0  0
 17 16  1  0  0  0  0
 19 16  2  0  0  0  0
 21  3  1  0  0  0  0
M  END
