Coordinates from ORCA-job 4-NO2-Ph-N2-HSO4-B3LYPG-6-31G_dp-MTMO-d009-169-n800
 OpenBabel09051908393D

 21 20  0  0  0  0  0  0  0  0999 V2000
   -0.1503   -0.6765    0.3320 C   0  0  0  0  0  0  0  0  0  0  0  0
    1.2180   -0.7275    0.5797 C   0  0  0  0  0  0  0  0  0  0  0  0
    1.8248    0.3480    1.2288 C   0  0  0  0  0  0  0  0  0  0  0  0
    1.1032    1.4678    1.6407 C   0  0  0  0  0  0  0  0  0  0  0  0
   -0.2664    1.5172    1.3992 C   0  0  0  0  0  0  0  0  0  0  0  0
   -0.8693    0.4435    0.7467 C   0  0  0  0  0  0  0  0  0  0  0  0
   -0.6662   -1.4857   -0.1692 H   0  0  0  0  0  0  0  0  0  0  0  0
    1.8125   -1.5787    0.2721 H   0  0  0  0  0  0  0  0  0  0  0  0
    1.6142    2.2785    2.1473 H   0  0  0  0  0  0  0  0  0  0  0  0
   -0.8684    2.3640    1.7029 H   0  0  0  0  0  0  0  0  0  0  0  0
   -2.3187    0.4941    0.4884 N   0  0  0  0  0  0  0  0  0  0  0  0
   -2.8283   -0.4678   -0.0832 O   0  0  0  0  0  0  0  0  0  0  0  0
   -2.9272    1.4959    0.8609 O   0  0  0  0  0  0  0  0  0  0  0  0
    3.0944    1.7188   -3.4792 N   0  0  0  0  0  0  0  0  0  0  0  0
    4.1283    2.0746   -3.3186 N   0  0  0  0  0  0  0  0  0  0  0  0
    4.3178    0.4857    0.3866 S   0  0  0  0  0  0  0  0  0  0  0  0
    4.1764    2.0750    0.0765 O   0  0  0  0  0  0  0  0  0  0  0  0
    4.7881    2.5473    0.6677 H   0  0  0  0  0  0  0  0  0  0  0  0
    3.8956   -0.1969   -0.8143 O   0  0  0  0  0  0  0  0  0  0  0  0
    5.5749    0.2475    1.0611 O   0  0  0  0  0  0  0  0  0  0  0  0
    3.1842    0.2903    1.5662 O   0  0  0  0  0  0  0  0  0  0  0  0
  1  2  2  0  0  0  0
  1  6  1  0  0  0  0
  2  3  1  0  0  0  0
  3 21  1  0  0  0  0
  3  4  2  0  0  0  0
  4  9  1  0  0  0  0
  5  4  1  0  0  0  0
  5 10  1  0  0  0  0
  6  5  2  0  0  0  0
  7  1  1  0  0  0  0
  8  2  1  0  0  0  0
 11  6  1  0  0  0  0
 11 13  2  0  0  0  0
 12 11  2  0  0  0  0
 14 15  3  0  0  0  0
 16 20  2  0  0  0  0
 16 21  1  0  0  0  0
 17 16  1  0  0  0  0
 17 18  1  0  0  0  0
 19 16  2  0  0  0  0
M  END
