Coordinates from ORCA-job 4-NO2-Ph-N2-HSO4-B3LYPG-6-31G_dp-MTMO-d009-169-n800
 OpenBabel09051908393D

 21 20  0  0  0  0  0  0  0  0999 V2000
   -0.9400   -0.9347    0.9026 C   0  0  0  0  0  0  0  0  0  0  0  0
    0.4275   -1.1498    0.7618 C   0  0  0  0  0  0  0  0  0  0  0  0
    1.3057   -0.1005    1.0338 C   0  0  0  0  0  0  0  0  0  0  0  0
    0.8564    1.1534    1.4465 C   0  0  0  0  0  0  0  0  0  0  0  0
   -0.5105    1.3680    1.5940 C   0  0  0  0  0  0  0  0  0  0  0  0
   -1.3858    0.3194    1.3174 C   0  0  0  0  0  0  0  0  0  0  0  0
   -1.6606   -1.7172    0.7020 H   0  0  0  0  0  0  0  0  0  0  0  0
    0.8140   -2.1092    0.4411 H   0  0  0  0  0  0  0  0  0  0  0  0
    1.5739    1.9387    1.6542 H   0  0  0  0  0  0  0  0  0  0  0  0
   -0.9061    2.3231    1.9150 H   0  0  0  0  0  0  0  0  0  0  0  0
   -2.8333    0.5437    1.4725 N   0  0  0  0  0  0  0  0  0  0  0  0
   -3.5841   -0.3977    1.2239 O   0  0  0  0  0  0  0  0  0  0  0  0
   -3.1989    1.6585    1.8415 O   0  0  0  0  0  0  0  0  0  0  0  0
    9.7708    6.2072   -3.4082 N   0  0  0  0  0  0  0  0  0  0  0  0
    8.9865    5.5883   -2.9355 N   0  0  0  0  0  0  0  0  0  0  0  0
    3.4347   -0.4214   -0.4849 S   0  0  0  0  0  0  0  0  0  0  0  0
    3.4009    1.1297   -0.9688 O   0  0  0  0  0  0  0  0  0  0  0  0
    4.2049    1.5614   -0.6312 H   0  0  0  0  0  0  0  0  0  0  0  0
    2.5942   -1.1503   -1.4057 O   0  0  0  0  0  0  0  0  0  0  0  0
    4.7974   -0.7833   -0.1615 O   0  0  0  0  0  0  0  0  0  0  0  0
    2.6901   -0.3118    0.9818 O   0  0  0  0  0  0  0  0  0  0  0  0
  1  6  1  0  0  0  0
  2  1  2  0  0  0  0
  2  3  1  0  0  0  0
  3  4  2  0  0  0  0
  4  5  1  0  0  0  0
  4  9  1  0  0  0  0
  5 10  1  0  0  0  0
  6 11  1  0  0  0  0
  6  5  2  0  0  0  0
  7  1  1  0  0  0  0
  8  2  1  0  0  0  0
 11 13  2  0  0  0  0
 12 11  2  0  0  0  0
 14 15  3  0  0  0  0
 16 20  2  0  0  0  0
 16 21  1  0  0  0  0
 17 18  1  0  0  0  0
 17 16  1  0  0  0  0
 19 16  2  0  0  0  0
 21  3  1  0  0  0  0
M  END
