Coordinates from ORCA-job 4-NO2-Ph-N2-HSO4-B3LYPG-6-31G_dp-MTMO-d009-169-n800
 OpenBabel09051908393D

 21 20  0  0  0  0  0  0  0  0999 V2000
    0.0632   -0.6204    0.1033 C   0  0  0  0  0  0  0  0  0  0  0  0
    1.4033   -0.6411    0.4773 C   0  0  0  0  0  0  0  0  0  0  0  0
    1.9409    0.4789    1.1130 C   0  0  0  0  0  0  0  0  0  0  0  0
    1.1703    1.6029    1.4096 C   0  0  0  0  0  0  0  0  0  0  0  0
   -0.1720    1.6200    1.0452 C   0  0  0  0  0  0  0  0  0  0  0  0
   -0.7025    0.5083    0.3928 C   0  0  0  0  0  0  0  0  0  0  0  0
   -0.3980   -1.4630   -0.3962 H   0  0  0  0  0  0  0  0  0  0  0  0
    2.0265   -1.5026    0.2741 H   0  0  0  0  0  0  0  0  0  0  0  0
    1.6247    2.4429    1.9224 H   0  0  0  0  0  0  0  0  0  0  0  0
   -0.8089    2.4700    1.2548 H   0  0  0  0  0  0  0  0  0  0  0  0
   -2.1229    0.5241    0.0047 N   0  0  0  0  0  0  0  0  0  0  0  0
   -2.5680   -0.4709   -0.5641 O   0  0  0  0  0  0  0  0  0  0  0  0
   -2.7738    1.5324    0.2741 O   0  0  0  0  0  0  0  0  0  0  0  0
    2.0826    1.7266   -1.6585 N   0  0  0  0  0  0  0  0  0  0  0  0
    1.4041    1.7344   -2.5311 N   0  0  0  0  0  0  0  0  0  0  0  0
    4.5588    0.3700    0.6245 S   0  0  0  0  0  0  0  0  0  0  0  0
    4.7083    1.9175    0.1587 O   0  0  0  0  0  0  0  0  0  0  0  0
    5.2718    2.3673    0.8122 H   0  0  0  0  0  0  0  0  0  0  0  0
    4.2331   -0.3875   -0.5615 O   0  0  0  0  0  0  0  0  0  0  0  0
    5.6496    0.0484    1.5191 O   0  0  0  0  0  0  0  0  0  0  0  0
    3.2466    0.4574    1.6177 O   0  0  0  0  0  0  0  0  0  0  0  0
  1  6  2  0  0  0  0
  1  2  1  0  0  0  0
  2  3  2  0  0  0  0
  3  4  1  0  0  0  0
  3 21  1  0  0  0  0
  4  9  1  0  0  0  0
  5 10  1  0  0  0  0
  5  4  2  0  0  0  0
  6  5  1  0  0  0  0
  7  1  1  0  0  0  0
  8  2  1  0  0  0  0
 11 13  2  0  0  0  0
 11  6  1  0  0  0  0
 12 11  2  0  0  0  0
 15 14  3  0  0  0  0
 16 20  2  0  0  0  0
 16 21  1  0  0  0  0
 17 16  1  0  0  0  0
 17 18  1  0  0  0  0
 19 16  2  0  0  0  0
M  END
