Coordinates from ORCA-job 4-NO2-Ph-N2-HSO4-B3LYPG-6-31G_dp-MTMO-d009-169-n800
 OpenBabel09051908393D

 21 20  0  0  0  0  0  0  0  0999 V2000
   -0.8180   -0.8803    0.8337 C   0  0  0  0  0  0  0  0  0  0  0  0
    0.5535   -1.0652    0.6885 C   0  0  0  0  0  0  0  0  0  0  0  0
    1.4108   -0.0053    0.9851 C   0  0  0  0  0  0  0  0  0  0  0  0
    0.9368    1.2294    1.4268 C   0  0  0  0  0  0  0  0  0  0  0  0
   -0.4341    1.4137    1.5788 C   0  0  0  0  0  0  0  0  0  0  0  0
   -1.2885    0.3547    1.2776 C   0  0  0  0  0  0  0  0  0  0  0  0
   -1.5230   -1.6720    0.6147 H   0  0  0  0  0  0  0  0  0  0  0  0
    0.9589   -2.0090    0.3455 H   0  0  0  0  0  0  0  0  0  0  0  0
    1.6388    2.0236    1.6529 H   0  0  0  0  0  0  0  0  0  0  0  0
   -0.8482    2.3531    1.9217 H   0  0  0  0  0  0  0  0  0  0  0  0
   -2.7401    0.5467    1.4373 N   0  0  0  0  0  0  0  0  0  0  0  0
   -3.4722   -0.4036    1.1672 O   0  0  0  0  0  0  0  0  0  0  0  0
   -3.1278    1.6453    1.8315 O   0  0  0  0  0  0  0  0  0  0  0  0
    8.8281    5.3689   -3.0061 N   0  0  0  0  0  0  0  0  0  0  0  0
    8.0327    4.7882   -2.5044 N   0  0  0  0  0  0  0  0  0  0  0  0
    3.5457   -0.2552   -0.5394 S   0  0  0  0  0  0  0  0  0  0  0  0
    3.4758    1.3021   -0.9983 O   0  0  0  0  0  0  0  0  0  0  0  0
    4.2708    1.7470   -0.6563 H   0  0  0  0  0  0  0  0  0  0  0  0
    2.7220   -0.9885   -1.4718 O   0  0  0  0  0  0  0  0  0  0  0  0
    4.9164   -0.5910   -0.2217 O   0  0  0  0  0  0  0  0  0  0  0  0
    2.7992   -0.1870    0.9288 O   0  0  0  0  0  0  0  0  0  0  0  0
  1  6  1  0  0  0  0
  2  1  2  0  0  0  0
  2  3  1  0  0  0  0
  3  4  2  0  0  0  0
  4  5  1  0  0  0  0
  4  9  1  0  0  0  0
  5 10  1  0  0  0  0
  6 11  1  0  0  0  0
  6  5  2  0  0  0  0
  7  1  1  0  0  0  0
  8  2  1  0  0  0  0
 11 13  2  0  0  0  0
 12 11  2  0  0  0  0
 14 15  3  0  0  0  0
 16 20  2  0  0  0  0
 16 21  1  0  0  0  0
 17 18  1  0  0  0  0
 17 16  1  0  0  0  0
 19 16  2  0  0  0  0
 21  3  1  0  0  0  0
M  END
