Coordinates from ORCA-job 4-NO2-Ph-N2-HSO4-B3LYPG-6-31G_dp-MTMO-d009-169-n800
 OpenBabel09051908393D

 21 20  0  0  0  0  0  0  0  0999 V2000
   -1.2396   -1.1142    1.0557 C   0  0  0  0  0  0  0  0  0  0  0  0
    0.1243   -1.3523    0.9171 C   0  0  0  0  0  0  0  0  0  0  0  0
    1.0182   -0.3094    1.1607 C   0  0  0  0  0  0  0  0  0  0  0  0
    0.5882    0.9609    1.5427 C   0  0  0  0  0  0  0  0  0  0  0  0
   -0.7753    1.1988    1.6877 C   0  0  0  0  0  0  0  0  0  0  0  0
   -1.6662    0.1561    1.4400 C   0  0  0  0  0  0  0  0  0  0  0  0
   -1.9719   -1.8911    0.8767 H   0  0  0  0  0  0  0  0  0  0  0  0
    0.4963   -2.3249    0.6196 H   0  0  0  0  0  0  0  0  0  0  0  0
    1.3173    1.7409    1.7286 H   0  0  0  0  0  0  0  0  0  0  0  0
   -1.1563    2.1671    1.9856 H   0  0  0  0  0  0  0  0  0  0  0  0
   -3.1099    0.4052    1.5928 N   0  0  0  0  0  0  0  0  0  0  0  0
   -3.8748   -0.5315    1.3703 O   0  0  0  0  0  0  0  0  0  0  0  0
   -3.4584    1.5343    1.9339 O   0  0  0  0  0  0  0  0  0  0  0  0
   12.4664    8.1410   -4.5652 N   0  0  0  0  0  0  0  0  0  0  0  0
   11.6775    7.5043   -4.1247 N   0  0  0  0  0  0  0  0  0  0  0  0
    3.1387   -0.6855   -0.3560 S   0  0  0  0  0  0  0  0  0  0  0  0
    3.1363    0.8605   -0.8576 O   0  0  0  0  0  0  0  0  0  0  0  0
    3.9516    1.2774   -0.5288 H   0  0  0  0  0  0  0  0  0  0  0  0
    2.2816   -1.4077   -1.2666 O   0  0  0  0  0  0  0  0  0  0  0  0
    4.4945   -1.0711   -0.0308 O   0  0  0  0  0  0  0  0  0  0  0  0
    2.3991   -0.5435    1.1105 O   0  0  0  0  0  0  0  0  0  0  0  0
  1  6  1  0  0  0  0
  2  1  2  0  0  0  0
  2  3  1  0  0  0  0
  3  4  2  0  0  0  0
  4  5  1  0  0  0  0
  4  9  1  0  0  0  0
  5 10  1  0  0  0  0
  6 11  1  0  0  0  0
  6  5  2  0  0  0  0
  7  1  1  0  0  0  0
  8  2  1  0  0  0  0
 11 13  2  0  0  0  0
 12 11  2  0  0  0  0
 14 15  3  0  0  0  0
 16 20  2  0  0  0  0
 16 21  1  0  0  0  0
 17 18  1  0  0  0  0
 17 16  1  0  0  0  0
 19 16  2  0  0  0  0
 21  3  1  0  0  0  0
M  END
