Coordinates from ORCA-job 4-NO2-Ph-N2-HSO4-B3LYPG-6-31G_dp-MTMO-d009-169-n800
 OpenBabel09051908393D

 21 20  0  0  0  0  0  0  0  0999 V2000
   -0.1681   -0.6809    0.3457 C   0  0  0  0  0  0  0  0  0  0  0  0
    1.2028   -0.7286    0.5802 C   0  0  0  0  0  0  0  0  0  0  0  0
    1.8127    0.3468    1.2264 C   0  0  0  0  0  0  0  0  0  0  0  0
    1.0920    1.4635    1.6482 C   0  0  0  0  0  0  0  0  0  0  0  0
   -0.2800    1.5097    1.4199 C   0  0  0  0  0  0  0  0  0  0  0  0
   -0.8862    0.4360    0.7703 C   0  0  0  0  0  0  0  0  0  0  0  0
   -0.6865   -1.4902   -0.1527 H   0  0  0  0  0  0  0  0  0  0  0  0
    1.7967   -1.5772    0.2647 H   0  0  0  0  0  0  0  0  0  0  0  0
    1.6056    2.2744    2.1519 H   0  0  0  0  0  0  0  0  0  0  0  0
   -0.8814    2.3540    1.7316 H   0  0  0  0  0  0  0  0  0  0  0  0
   -2.3381    0.4832    0.5260 N   0  0  0  0  0  0  0  0  0  0  0  0
   -2.8504   -0.4786   -0.0433 O   0  0  0  0  0  0  0  0  0  0  0  0
   -2.9458    1.4823    0.9069 O   0  0  0  0  0  0  0  0  0  0  0  0
    3.2752    1.7152   -3.5783 N   0  0  0  0  0  0  0  0  0  0  0  0
    4.2822    2.0816   -3.3083 N   0  0  0  0  0  0  0  0  0  0  0  0
    4.2958    0.4992    0.3605 S   0  0  0  0  0  0  0  0  0  0  0  0
    4.1461    2.0903    0.0643 O   0  0  0  0  0  0  0  0  0  0  0  0
    4.7660    2.5596    0.6493 H   0  0  0  0  0  0  0  0  0  0  0  0
    3.8624   -0.1761   -0.8407 O   0  0  0  0  0  0  0  0  0  0  0  0
    5.5610    0.2599    1.0193 O   0  0  0  0  0  0  0  0  0  0  0  0
    3.1754    0.2913    1.5504 O   0  0  0  0  0  0  0  0  0  0  0  0
  1  2  2  0  0  0  0
  1  6  1  0  0  0  0
  2  3  1  0  0  0  0
  3 21  1  0  0  0  0
  3  4  2  0  0  0  0
  4  9  1  0  0  0  0
  5  4  1  0  0  0  0
  5 10  1  0  0  0  0
  6  5  2  0  0  0  0
  7  1  1  0  0  0  0
  8  2  1  0  0  0  0
 11  6  1  0  0  0  0
 11 13  2  0  0  0  0
 12 11  2  0  0  0  0
 14 15  3  0  0  0  0
 16 20  2  0  0  0  0
 16 21  1  0  0  0  0
 17 16  1  0  0  0  0
 17 18  1  0  0  0  0
 19 16  2  0  0  0  0
M  END
