Coordinates from ORCA-job 4-NO2-Ph-N2-HSO4-B3LYPG-6-31G_dp-MTMO-d009-169-n800
 OpenBabel09051908393D

 21 20  0  0  0  0  0  0  0  0999 V2000
   -0.3225   -0.7253    0.4643 C   0  0  0  0  0  0  0  0  0  0  0  0
    1.0657   -0.7361    0.5612 C   0  0  0  0  0  0  0  0  0  0  0  0
    1.7073    0.3469    1.1622 C   0  0  0  0  0  0  0  0  0  0  0  0
    1.0020    1.4367    1.6713 C   0  0  0  0  0  0  0  0  0  0  0  0
   -0.3867    1.4465    1.5799 C   0  0  0  0  0  0  0  0  0  0  0  0
   -1.0250    0.3647    0.9760 C   0  0  0  0  0  0  0  0  0  0  0  0
   -0.8654   -1.5424    0.0066 H   0  0  0  0  0  0  0  0  0  0  0  0
    1.6490   -1.5626    0.1747 H   0  0  0  0  0  0  0  0  0  0  0  0
    1.5410    2.2555    2.1337 H   0  0  0  0  0  0  0  0  0  0  0  0
   -0.9769    2.2693    1.9626 H   0  0  0  0  0  0  0  0  0  0  0  0
   -2.4947    0.3735    0.8768 N   0  0  0  0  0  0  0  0  0  0  0  0
   -3.0344   -0.5941    0.3437 O   0  0  0  0  0  0  0  0  0  0  0  0
   -3.0892    1.3487    1.3330 O   0  0  0  0  0  0  0  0  0  0  0  0
    5.0657    1.7752   -4.0304 N   0  0  0  0  0  0  0  0  0  0  0  0
    5.4445    1.9828   -3.0133 N   0  0  0  0  0  0  0  0  0  0  0  0
    4.0794    0.6327    0.0596 S   0  0  0  0  0  0  0  0  0  0  0  0
    3.8576    2.2326   -0.1194 O   0  0  0  0  0  0  0  0  0  0  0  0
    4.5730    2.6821    0.3628 H   0  0  0  0  0  0  0  0  0  0  0  0
    3.5366    0.0084   -1.1248 O   0  0  0  0  0  0  0  0  0  0  0  0
    5.4140    0.3983    0.5661 O   0  0  0  0  0  0  0  0  0  0  0  0
    3.0966    0.3224    1.3457 O   0  0  0  0  0  0  0  0  0  0  0  0
  1  2  2  0  0  0  0
  1  6  1  0  0  0  0
  2  3  1  0  0  0  0
  3 21  1  0  0  0  0
  3  4  2  0  0  0  0
  4  9  1  0  0  0  0
  5  4  1  0  0  0  0
  5 10  1  0  0  0  0
  6  5  2  0  0  0  0
  7  1  1  0  0  0  0
  8  2  1  0  0  0  0
 11  6  1  0  0  0  0
 11 13  2  0  0  0  0
 12 11  2  0  0  0  0
 14 15  3  0  0  0  0
 16 20  2  0  0  0  0
 16 21  1  0  0  0  0
 17 16  1  0  0  0  0
 17 18  1  0  0  0  0
 19 16  2  0  0  0  0
M  END
