Coordinates from ORCA-job 4-NO2-Ph-N2-HSO4-B3LYPG-6-31G_dp-MTMO-d009-169-n800
 OpenBabel09051908393D

 21 20  0  0  0  0  0  0  0  0999 V2000
   -1.1353   -1.0475    1.0075 C   0  0  0  0  0  0  0  0  0  0  0  0
    0.2290   -1.2827    0.8682 C   0  0  0  0  0  0  0  0  0  0  0  0
    1.1211   -0.2389    1.1151 C   0  0  0  0  0  0  0  0  0  0  0  0
    0.6887    1.0294    1.5010 C   0  0  0  0  0  0  0  0  0  0  0  0
   -0.6752    1.2644    1.6467 C   0  0  0  0  0  0  0  0  0  0  0  0
   -1.5642    0.2209    1.3956 C   0  0  0  0  0  0  0  0  0  0  0  0
   -1.8662   -1.8251    0.8260 H   0  0  0  0  0  0  0  0  0  0  0  0
    0.6028   -2.2537    0.5678 H   0  0  0  0  0  0  0  0  0  0  0  0
    1.4164    1.8102    1.6894 H   0  0  0  0  0  0  0  0  0  0  0  0
   -1.0580    2.2312    1.9475 H   0  0  0  0  0  0  0  0  0  0  0  0
   -3.0084    0.4669    1.5491 N   0  0  0  0  0  0  0  0  0  0  0  0
   -3.7715   -0.4704    1.3236 O   0  0  0  0  0  0  0  0  0  0  0  0
   -3.3590    1.5943    1.8938 O   0  0  0  0  0  0  0  0  0  0  0  0
   11.4946    7.4780   -4.1402 N   0  0  0  0  0  0  0  0  0  0  0  0
   10.7067    6.8435   -3.6949 N   0  0  0  0  0  0  0  0  0  0  0  0
    3.2422   -0.6083   -0.4024 S   0  0  0  0  0  0  0  0  0  0  0  0
    3.2357    0.9383   -0.9021 O   0  0  0  0  0  0  0  0  0  0  0  0
    4.0497    1.3572   -0.5724 H   0  0  0  0  0  0  0  0  0  0  0  0
    2.3870   -1.3315   -1.3139 O   0  0  0  0  0  0  0  0  0  0  0  0
    4.5991   -0.9908   -0.0778 O   0  0  0  0  0  0  0  0  0  0  0  0
    2.5024   -0.4701    1.0643 O   0  0  0  0  0  0  0  0  0  0  0  0
  1  6  1  0  0  0  0
  2  1  2  0  0  0  0
  2  3  1  0  0  0  0
  3  4  2  0  0  0  0
  4  5  1  0  0  0  0
  4  9  1  0  0  0  0
  5 10  1  0  0  0  0
  6 11  1  0  0  0  0
  6  5  2  0  0  0  0
  7  1  1  0  0  0  0
  8  2  1  0  0  0  0
 11 13  2  0  0  0  0
 12 11  2  0  0  0  0
 14 15  3  0  0  0  0
 16 20  2  0  0  0  0
 16 21  1  0  0  0  0
 17 18  1  0  0  0  0
 17 16  1  0  0  0  0
 19 16  2  0  0  0  0
 21  3  1  0  0  0  0
M  END
