Coordinates from ORCA-job 4-NO2-Ph-N2-HSO4-B3LYPG-6-31G_dp-MTMO-d009-169-n800
 OpenBabel09051908393D

 21 20  0  0  0  0  0  0  0  0999 V2000
   -1.2651   -1.1309    1.0670 C   0  0  0  0  0  0  0  0  0  0  0  0
    0.0987   -1.3693    0.9285 C   0  0  0  0  0  0  0  0  0  0  0  0
    0.9928   -0.3265    1.1720 C   0  0  0  0  0  0  0  0  0  0  0  0
    0.5630    0.9439    1.5537 C   0  0  0  0  0  0  0  0  0  0  0  0
   -0.8004    1.1821    1.6986 C   0  0  0  0  0  0  0  0  0  0  0  0
   -1.6915    0.1396    1.4509 C   0  0  0  0  0  0  0  0  0  0  0  0
   -1.9975   -1.9077    0.8880 H   0  0  0  0  0  0  0  0  0  0  0  0
    0.4706   -2.3420    0.6312 H   0  0  0  0  0  0  0  0  0  0  0  0
    1.2922    1.7239    1.7395 H   0  0  0  0  0  0  0  0  0  0  0  0
   -1.1813    2.1506    1.9962 H   0  0  0  0  0  0  0  0  0  0  0  0
   -3.1352    0.3889    1.6036 N   0  0  0  0  0  0  0  0  0  0  0  0
   -3.9002   -0.5476    1.3812 O   0  0  0  0  0  0  0  0  0  0  0  0
   -3.4835    1.5181    1.9443 O   0  0  0  0  0  0  0  0  0  0  0  0
   12.7067    8.3025   -4.6710 N   0  0  0  0  0  0  0  0  0  0  0  0
   11.9176    7.6655   -4.2314 N   0  0  0  0  0  0  0  0  0  0  0  0
    3.1134   -0.7032   -0.3444 S   0  0  0  0  0  0  0  0  0  0  0  0
    3.1114    0.8428   -0.8462 O   0  0  0  0  0  0  0  0  0  0  0  0
    3.9269    1.2595   -0.5173 H   0  0  0  0  0  0  0  0  0  0  0  0
    2.2562   -1.4252   -1.2551 O   0  0  0  0  0  0  0  0  0  0  0  0
    4.4691   -1.0890   -0.0192 O   0  0  0  0  0  0  0  0  0  0  0  0
    2.3737   -0.5608    1.1220 O   0  0  0  0  0  0  0  0  0  0  0  0
  1  6  1  0  0  0  0
  2  1  2  0  0  0  0
  2  3  1  0  0  0  0
  3  4  2  0  0  0  0
  4  5  1  0  0  0  0
  4  9  1  0  0  0  0
  5 10  1  0  0  0  0
  6 11  1  0  0  0  0
  6  5  2  0  0  0  0
  7  1  1  0  0  0  0
  8  2  1  0  0  0  0
 11 13  2  0  0  0  0
 12 11  2  0  0  0  0
 14 15  3  0  0  0  0
 16 20  2  0  0  0  0
 16 21  1  0  0  0  0
 17 18  1  0  0  0  0
 17 16  1  0  0  0  0
 19 16  2  0  0  0  0
 21  3  1  0  0  0  0
M  END
