Coordinates from ORCA-job 4-NO2-Ph-N2-HSO4-B3LYPG-6-31G_dp-MTMO-d009-169-n800
 OpenBabel09051908393D

 21 20  0  0  0  0  0  0  0  0999 V2000
   -0.9074   -0.9184    0.8822 C   0  0  0  0  0  0  0  0  0  0  0  0
    0.4611   -1.1270    0.7411 C   0  0  0  0  0  0  0  0  0  0  0  0
    1.3347   -0.0759    1.0210 C   0  0  0  0  0  0  0  0  0  0  0  0
    0.8799    1.1732    1.4422 C   0  0  0  0  0  0  0  0  0  0  0  0
   -0.4880    1.3812    1.5900 C   0  0  0  0  0  0  0  0  0  0  0  0
   -1.3587    0.3308    1.3055 C   0  0  0  0  0  0  0  0  0  0  0  0
   -1.6246   -1.7025    0.6757 H   0  0  0  0  0  0  0  0  0  0  0  0
    0.8518   -2.0825    0.4140 H   0  0  0  0  0  0  0  0  0  0  0  0
    1.5940    1.9599    1.6559 H   0  0  0  0  0  0  0  0  0  0  0  0
   -0.8877    2.3324    1.9173 H   0  0  0  0  0  0  0  0  0  0  0  0
   -2.8073    0.5481    1.4610 N   0  0  0  0  0  0  0  0  0  0  0  0
   -3.5540   -0.3947    1.2052 O   0  0  0  0  0  0  0  0  0  0  0  0
   -3.1778    1.6588    1.8374 O   0  0  0  0  0  0  0  0  0  0  0  0
    9.5049    5.9853   -3.3001 N   0  0  0  0  0  0  0  0  0  0  0  0
    8.7202    5.3735   -2.8188 N   0  0  0  0  0  0  0  0  0  0  0  0
    3.4661   -0.3802   -0.4979 S   0  0  0  0  0  0  0  0  0  0  0  0
    3.4241    1.1726   -0.9755 O   0  0  0  0  0  0  0  0  0  0  0  0
    4.2253    1.6077   -0.6354 H   0  0  0  0  0  0  0  0  0  0  0  0
    2.6303   -1.1099   -1.4223 O   0  0  0  0  0  0  0  0  0  0  0  0
    4.8306   -0.7361   -0.1751 O   0  0  0  0  0  0  0  0  0  0  0  0
    2.7201   -0.2807    0.9687 O   0  0  0  0  0  0  0  0  0  0  0  0
  1  6  1  0  0  0  0
  2  1  2  0  0  0  0
  2  3  1  0  0  0  0
  3  4  2  0  0  0  0
  4  5  1  0  0  0  0
  4  9  1  0  0  0  0
  5 10  1  0  0  0  0
  6 11  1  0  0  0  0
  6  5  2  0  0  0  0
  7  1  1  0  0  0  0
  8  2  1  0  0  0  0
 11 13  2  0  0  0  0
 12 11  2  0  0  0  0
 14 15  3  0  0  0  0
 16 20  2  0  0  0  0
 16 21  1  0  0  0  0
 17 18  1  0  0  0  0
 17 16  1  0  0  0  0
 19 16  2  0  0  0  0
 21  3  1  0  0  0  0
M  END
