Coordinates from ORCA-job 4-NO2-Ph-N2-HSO4-B3LYPG-6-31G_dp-MTMO-d009-169-n800
 OpenBabel09051908393D

 21 20  0  0  0  0  0  0  0  0999 V2000
   -0.7151   -0.8554    0.8133 C   0  0  0  0  0  0  0  0  0  0  0  0
    0.6594   -0.9992    0.6514 C   0  0  0  0  0  0  0  0  0  0  0  0
    1.4881    0.0863    0.9361 C   0  0  0  0  0  0  0  0  0  0  0  0
    0.9829    1.3074    1.3814 C   0  0  0  0  0  0  0  0  0  0  0  0
   -0.3910    1.4507    1.5499 C   0  0  0  0  0  0  0  0  0  0  0  0
   -1.2169    0.3659    1.2610 C   0  0  0  0  0  0  0  0  0  0  0  0
   -1.3987   -1.6681    0.6040 H   0  0  0  0  0  0  0  0  0  0  0  0
    1.0888   -1.9309    0.3044 H   0  0  0  0  0  0  0  0  0  0  0  0
    1.6636    2.1227    1.5969 H   0  0  0  0  0  0  0  0  0  0  0  0
   -0.8288    2.3782    1.8961 H   0  0  0  0  0  0  0  0  0  0  0  0
   -2.6717    0.5145    1.4384 N   0  0  0  0  0  0  0  0  0  0  0  0
   -3.3781   -0.4579    1.1794 O   0  0  0  0  0  0  0  0  0  0  0  0
   -3.0874    1.6018    1.8355 O   0  0  0  0  0  0  0  0  0  0  0  0
    8.1745    4.6651   -2.6204 N   0  0  0  0  0  0  0  0  0  0  0  0
    7.3392    4.1249   -2.1386 N   0  0  0  0  0  0  0  0  0  0  0  0
    3.6124   -0.0897   -0.6140 S   0  0  0  0  0  0  0  0  0  0  0  0
    3.5249    1.4745   -1.0450 O   0  0  0  0  0  0  0  0  0  0  0  0
    4.3360    1.9130   -0.7336 H   0  0  0  0  0  0  0  0  0  0  0  0
    2.7850   -0.8161   -1.5487 O   0  0  0  0  0  0  0  0  0  0  0  0
    4.9901   -0.4172   -0.3178 O   0  0  0  0  0  0  0  0  0  0  0  0
    2.8805   -0.0549    0.8626 O   0  0  0  0  0  0  0  0  0  0  0  0
  1  6  1  0  0  0  0
  2  1  2  0  0  0  0
  2  3  1  0  0  0  0
  3  4  2  0  0  0  0
  4  5  1  0  0  0  0
  4  9  1  0  0  0  0
  5 10  1  0  0  0  0
  6 11  1  0  0  0  0
  6  5  2  0  0  0  0
  7  1  1  0  0  0  0
  8  2  1  0  0  0  0
 11 13  2  0  0  0  0
 12 11  2  0  0  0  0
 14 15  3  0  0  0  0
 16 20  2  0  0  0  0
 16 21  1  0  0  0  0
 17 18  1  0  0  0  0
 17 16  1  0  0  0  0
 19 16  2  0  0  0  0
 21  3  1  0  0  0  0
M  END
