Coordinates from ORCA-job 4-NO2-Ph-N2-HSO4-B3LYPG-6-31G_dp-MTMO-d009-169-n800
 OpenBabel09051908393D

 21 20  0  0  0  0  0  0  0  0999 V2000
   -0.5536   -0.8400    0.8298 C   0  0  0  0  0  0  0  0  0  0  0  0
    0.8205   -0.9010    0.6195 C   0  0  0  0  0  0  0  0  0  0  0  0
    1.5874    0.2428    0.8421 C   0  0  0  0  0  0  0  0  0  0  0  0
    1.0209    1.4432    1.2697 C   0  0  0  0  0  0  0  0  0  0  0  0
   -0.3526    1.5043    1.4857 C   0  0  0  0  0  0  0  0  0  0  0  0
   -1.1167    0.3605    1.2608 C   0  0  0  0  0  0  0  0  0  0  0  0
   -1.1906   -1.7007    0.6698 H   0  0  0  0  0  0  0  0  0  0  0  0
    1.2966   -1.8138    0.2830 H   0  0  0  0  0  0  0  0  0  0  0  0
    1.6556    2.3064    1.4327 H   0  0  0  0  0  0  0  0  0  0  0  0
   -0.8365    2.4127    1.8207 H   0  0  0  0  0  0  0  0  0  0  0  0
   -2.5703    0.4220    1.4891 N   0  0  0  0  0  0  0  0  0  0  0  0
   -3.2220   -0.6007    1.2855 O   0  0  0  0  0  0  0  0  0  0  0  0
   -3.0412    1.4926    1.8702 O   0  0  0  0  0  0  0  0  0  0  0  0
    7.3640    3.5969   -1.8661 N   0  0  0  0  0  0  0  0  0  0  0  0
    6.4090    3.1606   -1.5231 N   0  0  0  0  0  0  0  0  0  0  0  0
    3.6683    0.1915   -0.7792 S   0  0  0  0  0  0  0  0  0  0  0  0
    3.5872    1.7662   -1.1523 O   0  0  0  0  0  0  0  0  0  0  0  0
    4.4731    2.1551   -1.0216 H   0  0  0  0  0  0  0  0  0  0  0  0
    2.8027   -0.5099   -1.7000 O   0  0  0  0  0  0  0  0  0  0  0  0
    5.0537   -0.1576   -0.5450 O   0  0  0  0  0  0  0  0  0  0  0  0
    2.9824    0.1844    0.7208 O   0  0  0  0  0  0  0  0  0  0  0  0
  1  6  1  0  0  0  0
  2  1  2  0  0  0  0
  2  3  1  0  0  0  0
  3  4  2  0  0  0  0
  4  9  1  0  0  0  0
  4  5  1  0  0  0  0
  5 10  1  0  0  0  0
  6  5  2  0  0  0  0
  6 11  1  0  0  0  0
  7  1  1  0  0  0  0
  8  2  1  0  0  0  0
 11 13  2  0  0  0  0
 12 11  2  0  0  0  0
 14 15  3  0  0  0  0
 16 20  2  0  0  0  0
 16 21  1  0  0  0  0
 17 18  1  0  0  0  0
 17 16  1  0  0  0  0
 19 16  2  0  0  0  0
 21  3  1  0  0  0  0
M  END
