Coordinates from ORCA-job 4-NO2-Ph-N2-HSO4-B3LYPG-6-31G_dp-MTMO-d009-169-n800
 OpenBabel09051908393D

 21 20  0  0  0  0  0  0  0  0999 V2000
   -1.2906   -1.1477    1.0782 C   0  0  0  0  0  0  0  0  0  0  0  0
    0.0733   -1.3862    0.9398 C   0  0  0  0  0  0  0  0  0  0  0  0
    0.9675   -0.3435    1.1833 C   0  0  0  0  0  0  0  0  0  0  0  0
    0.5377    0.9270    1.5647 C   0  0  0  0  0  0  0  0  0  0  0  0
   -0.8257    1.1654    1.7095 C   0  0  0  0  0  0  0  0  0  0  0  0
   -1.7168    0.1229    1.4619 C   0  0  0  0  0  0  0  0  0  0  0  0
   -2.0230   -1.9244    0.8993 H   0  0  0  0  0  0  0  0  0  0  0  0
    0.4451   -2.3590    0.6427 H   0  0  0  0  0  0  0  0  0  0  0  0
    1.2670    1.7069    1.7505 H   0  0  0  0  0  0  0  0  0  0  0  0
   -1.2065    2.1339    2.0069 H   0  0  0  0  0  0  0  0  0  0  0  0
   -3.1605    0.3724    1.6144 N   0  0  0  0  0  0  0  0  0  0  0  0
   -3.9256   -0.5641    1.3921 O   0  0  0  0  0  0  0  0  0  0  0  0
   -3.5088    1.5017    1.9550 O   0  0  0  0  0  0  0  0  0  0  0  0
   12.9473    8.4637   -4.7768 N   0  0  0  0  0  0  0  0  0  0  0  0
   12.1580    7.8264   -4.3380 N   0  0  0  0  0  0  0  0  0  0  0  0
    3.0881   -0.7205   -0.3329 S   0  0  0  0  0  0  0  0  0  0  0  0
    3.0864    0.8254   -0.8347 O   0  0  0  0  0  0  0  0  0  0  0  0
    3.9019    1.2421   -0.5059 H   0  0  0  0  0  0  0  0  0  0  0  0
    2.2309   -1.4425   -1.2436 O   0  0  0  0  0  0  0  0  0  0  0  0
    4.4437   -1.1065   -0.0075 O   0  0  0  0  0  0  0  0  0  0  0  0
    2.3483   -0.5780    1.1334 O   0  0  0  0  0  0  0  0  0  0  0  0
  1  6  1  0  0  0  0
  2  1  2  0  0  0  0
  2  3  1  0  0  0  0
  3  4  2  0  0  0  0
  4  5  1  0  0  0  0
  4  9  1  0  0  0  0
  5 10  1  0  0  0  0
  6 11  1  0  0  0  0
  6  5  2  0  0  0  0
  7  1  1  0  0  0  0
  8  2  1  0  0  0  0
 11 13  2  0  0  0  0
 12 11  2  0  0  0  0
 14 15  3  0  0  0  0
 16 20  2  0  0  0  0
 16 21  1  0  0  0  0
 17 18  1  0  0  0  0
 17 16  1  0  0  0  0
 19 16  2  0  0  0  0
 21  3  1  0  0  0  0
M  END
