Coordinates from ORCA-job 4-NO2-Ph-N2-HSO4-B3LYPG-6-31G_dp-MTMO-d009-169-n800
 OpenBabel09051908393D

 21 20  0  0  0  0  0  0  0  0999 V2000
   -0.3428   -0.7339    0.4841 C   0  0  0  0  0  0  0  0  0  0  0  0
    1.0467   -0.7396    0.5589 C   0  0  0  0  0  0  0  0  0  0  0  0
    1.6942    0.3474    1.1463 C   0  0  0  0  0  0  0  0  0  0  0  0
    0.9933    1.4365    1.6630 C   0  0  0  0  0  0  0  0  0  0  0  0
   -0.3967    1.4415    1.5934 C   0  0  0  0  0  0  0  0  0  0  0  0
   -1.0408    0.3555    1.0033 C   0  0  0  0  0  0  0  0  0  0  0  0
   -0.8901   -1.5543    0.0375 H   0  0  0  0  0  0  0  0  0  0  0  0
    1.6268   -1.5653    0.1658 H   0  0  0  0  0  0  0  0  0  0  0  0
    1.5368    2.2586    2.1141 H   0  0  0  0  0  0  0  0  0  0  0  0
   -0.9835    2.2636    1.9826 H   0  0  0  0  0  0  0  0  0  0  0  0
   -2.5119    0.3590    0.9274 N   0  0  0  0  0  0  0  0  0  0  0  0
   -3.0567   -0.6124    0.4065 O   0  0  0  0  0  0  0  0  0  0  0  0
   -3.1024    1.3336    1.3900 O   0  0  0  0  0  0  0  0  0  0  0  0
    5.3229    1.7864   -4.0096 N   0  0  0  0  0  0  0  0  0  0  0  0
    5.5721    1.9809   -2.9508 N   0  0  0  0  0  0  0  0  0  0  0  0
    4.0466    0.6471    0.0062 S   0  0  0  0  0  0  0  0  0  0  0  0
    3.8185    2.2475   -0.1596 O   0  0  0  0  0  0  0  0  0  0  0  0
    4.5435    2.6952    0.3098 H   0  0  0  0  0  0  0  0  0  0  0  0
    3.4847    0.0281   -1.1722 O   0  0  0  0  0  0  0  0  0  0  0  0
    5.3901    0.4129    0.4884 O   0  0  0  0  0  0  0  0  0  0  0  0
    3.0864    0.3272    1.3072 O   0  0  0  0  0  0  0  0  0  0  0  0
  1  2  2  0  0  0  0
  1  6  1  0  0  0  0
  2  3  1  0  0  0  0
  3 21  1  0  0  0  0
  3  4  2  0  0  0  0
  4  9  1  0  0  0  0
  5  4  1  0  0  0  0
  5 10  1  0  0  0  0
  6  5  2  0  0  0  0
  7  1  1  0  0  0  0
  8  2  1  0  0  0  0
 11  6  1  0  0  0  0
 11 13  2  0  0  0  0
 12 11  2  0  0  0  0
 14 15  3  0  0  0  0
 16 20  2  0  0  0  0
 16 21  1  0  0  0  0
 17 16  1  0  0  0  0
 17 18  1  0  0  0  0
 19 16  2  0  0  0  0
M  END
