Coordinates from ORCA-job 4-NO2-Ph-N2-HSO4-B3LYPG-6-31G_dp-MTMO-d009-169-n800
 OpenBabel09051908393D

 21 20  0  0  0  0  0  0  0  0999 V2000
   -1.1369   -1.0484    1.0083 C   0  0  0  0  0  0  0  0  0  0  0  0
    0.2275   -1.2837    0.8690 C   0  0  0  0  0  0  0  0  0  0  0  0
    1.1196   -0.2399    1.1158 C   0  0  0  0  0  0  0  0  0  0  0  0
    0.6872    1.0284    1.5015 C   0  0  0  0  0  0  0  0  0  0  0  0
   -0.6766    1.2635    1.6472 C   0  0  0  0  0  0  0  0  0  0  0  0
   -1.5656    0.2200    1.3963 C   0  0  0  0  0  0  0  0  0  0  0  0
   -1.8677   -1.8260    0.8269 H   0  0  0  0  0  0  0  0  0  0  0  0
    0.6012   -2.2547    0.5687 H   0  0  0  0  0  0  0  0  0  0  0  0
    1.4150    1.8092    1.6898 H   0  0  0  0  0  0  0  0  0  0  0  0
   -1.0593    2.2303    1.9480 H   0  0  0  0  0  0  0  0  0  0  0  0
   -3.0098    0.4661    1.5498 N   0  0  0  0  0  0  0  0  0  0  0  0
   -3.7730   -0.4712    1.3244 O   0  0  0  0  0  0  0  0  0  0  0  0
   -3.3604    1.5935    1.8943 O   0  0  0  0  0  0  0  0  0  0  0  0
   11.5086    7.4877   -4.1463 N   0  0  0  0  0  0  0  0  0  0  0  0
   10.7208    6.8532   -3.7010 N   0  0  0  0  0  0  0  0  0  0  0  0
    3.2407   -0.6095   -0.4017 S   0  0  0  0  0  0  0  0  0  0  0  0
    3.2342    0.9370   -0.9015 O   0  0  0  0  0  0  0  0  0  0  0  0
    4.0483    1.3560   -0.5718 H   0  0  0  0  0  0  0  0  0  0  0  0
    2.3854   -1.3328   -1.3132 O   0  0  0  0  0  0  0  0  0  0  0  0
    4.5975   -0.9921   -0.0771 O   0  0  0  0  0  0  0  0  0  0  0  0
    2.5009   -0.4712    1.0650 O   0  0  0  0  0  0  0  0  0  0  0  0
  1  6  1  0  0  0  0
  2  1  2  0  0  0  0
  2  3  1  0  0  0  0
  3  4  2  0  0  0  0
  4  5  1  0  0  0  0
  4  9  1  0  0  0  0
  5 10  1  0  0  0  0
  6 11  1  0  0  0  0
  6  5  2  0  0  0  0
  7  1  1  0  0  0  0
  8  2  1  0  0  0  0
 11 13  2  0  0  0  0
 12 11  2  0  0  0  0
 14 15  3  0  0  0  0
 16 20  2  0  0  0  0
 16 21  1  0  0  0  0
 17 18  1  0  0  0  0
 17 16  1  0  0  0  0
 19 16  2  0  0  0  0
 21  3  1  0  0  0  0
M  END
