Coordinates from ORCA-job 4-NO2-Ph-N2-HSO4-B3LYPG-6-31G_dp-MTMO-d009-169-n800
 OpenBabel09051908393D

 21 20  0  0  0  0  0  0  0  0999 V2000
   -0.6280   -0.8551    0.8172 C   0  0  0  0  0  0  0  0  0  0  0  0
    0.7485   -0.9402    0.6326 C   0  0  0  0  0  0  0  0  0  0  0  0
    1.5332    0.1836    0.8912 C   0  0  0  0  0  0  0  0  0  0  0  0
    0.9829    1.3873    1.3300 C   0  0  0  0  0  0  0  0  0  0  0  0
   -0.3931    1.4725    1.5202 C   0  0  0  0  0  0  0  0  0  0  0  0
   -1.1752    0.3487    1.2593 C   0  0  0  0  0  0  0  0  0  0  0  0
   -1.2788   -1.6994    0.6290 H   0  0  0  0  0  0  0  0  0  0  0  0
    1.2128   -1.8565    0.2888 H   0  0  0  0  0  0  0  0  0  0  0  0
    1.6313    2.2343    1.5216 H   0  0  0  0  0  0  0  0  0  0  0  0
   -0.8653    2.3844    1.8624 H   0  0  0  0  0  0  0  0  0  0  0  0
   -2.6318    0.4356    1.4605 N   0  0  0  0  0  0  0  0  0  0  0  0
   -3.2992   -0.5700    1.2255 O   0  0  0  0  0  0  0  0  0  0  0  0
   -3.0884    1.5085    1.8520 O   0  0  0  0  0  0  0  0  0  0  0  0
    7.7191    4.0036   -2.3222 N   0  0  0  0  0  0  0  0  0  0  0  0
    6.8492    3.5049   -1.8571 N   0  0  0  0  0  0  0  0  0  0  0  0
    3.6476    0.1171   -0.6879 S   0  0  0  0  0  0  0  0  0  0  0  0
    3.6343    1.7059   -1.0260 O   0  0  0  0  0  0  0  0  0  0  0  0
    4.5181    2.0610   -0.8214 H   0  0  0  0  0  0  0  0  0  0  0  0
    2.7770   -0.5227   -1.6473 O   0  0  0  0  0  0  0  0  0  0  0  0
    5.0138   -0.2866   -0.4324 O   0  0  0  0  0  0  0  0  0  0  0  0
    2.9294    0.0985    0.7960 O   0  0  0  0  0  0  0  0  0  0  0  0
  1  6  1  0  0  0  0
  2  1  2  0  0  0  0
  2  3  1  0  0  0  0
  3  4  2  0  0  0  0
  4  5  1  0  0  0  0
  4  9  1  0  0  0  0
  5 10  1  0  0  0  0
  6 11  1  0  0  0  0
  6  5  2  0  0  0  0
  7  1  1  0  0  0  0
  8  2  1  0  0  0  0
 11 13  2  0  0  0  0
 12 11  2  0  0  0  0
 14 15  3  0  0  0  0
 16 20  2  0  0  0  0
 16 21  1  0  0  0  0
 17 18  1  0  0  0  0
 17 16  1  0  0  0  0
 19 16  2  0  0  0  0
 21  3  1  0  0  0  0
M  END
