Coordinates from ORCA-job 4-NO2-Ph-N2-HSO4-B3LYPG-6-31G_dp-MTMO-d009-169-n800
 OpenBabel09051908393D

 21 20  0  0  0  0  0  0  0  0999 V2000
   -0.8893   -0.9099    0.8712 C   0  0  0  0  0  0  0  0  0  0  0  0
    0.4798   -1.1143    0.7297 C   0  0  0  0  0  0  0  0  0  0  0  0
    1.3506   -0.0620    1.0139 C   0  0  0  0  0  0  0  0  0  0  0  0
    0.8924    1.1842    1.4398 C   0  0  0  0  0  0  0  0  0  0  0  0
   -0.4762    1.3880    1.5880 C   0  0  0  0  0  0  0  0  0  0  0  0
   -1.3440    0.3365    1.2991 C   0  0  0  0  0  0  0  0  0  0  0  0
   -1.6043   -1.6950    0.6614 H   0  0  0  0  0  0  0  0  0  0  0  0
    0.8732   -2.0675    0.3989 H   0  0  0  0  0  0  0  0  0  0  0  0
    1.6043    1.9720    1.6567 H   0  0  0  0  0  0  0  0  0  0  0  0
   -0.8784    2.3369    1.9189 H   0  0  0  0  0  0  0  0  0  0  0  0
   -2.7932    0.5493    1.4550 N   0  0  0  0  0  0  0  0  0  0  0  0
   -3.5373   -0.3944    1.1955 O   0  0  0  0  0  0  0  0  0  0  0  0
   -3.1668    1.6576    1.8356 O   0  0  0  0  0  0  0  0  0  0  0  0
    9.3608    5.8603   -3.2411 N   0  0  0  0  0  0  0  0  0  0  0  0
    8.5754    5.2536   -2.7546 N   0  0  0  0  0  0  0  0  0  0  0  0
    3.4833   -0.3559   -0.5054 S   0  0  0  0  0  0  0  0  0  0  0  0
    3.4361    1.1980   -0.9790 O   0  0  0  0  0  0  0  0  0  0  0  0
    4.2357    1.6350   -0.6376 H   0  0  0  0  0  0  0  0  0  0  0  0
    2.6502   -1.0860   -1.4319 O   0  0  0  0  0  0  0  0  0  0  0  0
    4.8488   -0.7081   -0.1831 O   0  0  0  0  0  0  0  0  0  0  0  0
    2.7366   -0.2628    0.9613 O   0  0  0  0  0  0  0  0  0  0  0  0
  1  6  1  0  0  0  0
  2  1  2  0  0  0  0
  2  3  1  0  0  0  0
  3  4  2  0  0  0  0
  4  5  1  0  0  0  0
  4  9  1  0  0  0  0
  5 10  1  0  0  0  0
  6 11  1  0  0  0  0
  6  5  2  0  0  0  0
  7  1  1  0  0  0  0
  8  2  1  0  0  0  0
 11 13  2  0  0  0  0
 12 11  2  0  0  0  0
 14 15  3  0  0  0  0
 16 20  2  0  0  0  0
 16 21  1  0  0  0  0
 17 18  1  0  0  0  0
 17 16  1  0  0  0  0
 19 16  2  0  0  0  0
 21  3  1  0  0  0  0
M  END
