Coordinates from ORCA-job 4-NO2-Ph-N2-HSO4-B3LYPG-6-31G_dp-MTMO-d009-169-n800
 OpenBabel09051908393D

 21 21  0  0  1  0  0  0  0  0999 V2000
    0.6099   -0.3608    0.4780 C   0  0  0  0  0  0  0  0  0  0  0  0
    1.7152   -0.0251   -0.4699 C   0  0  1  0  0  0  0  0  0  0  0  0
    1.8687    1.5845   -0.7401 C   0  0  0  0  0  0  0  0  0  0  0  0
    0.5981    2.3560   -0.5133 C   0  0  0  0  0  0  0  0  0  0  0  0
   -0.4604    1.8330    0.1206 C   0  0  0  0  0  0  0  0  0  0  0  0
   -0.4107    0.4845    0.6642 C   0  0  0  0  0  0  0  0  0  0  0  0
    0.6172   -1.3394    0.9459 H   0  0  0  0  0  0  0  0  0  0  0  0
    1.5105   -0.4688   -1.4535 H   0  0  0  0  0  0  0  0  0  0  0  0
    0.6141    3.3812   -0.8681 H   0  0  0  0  0  0  0  0  0  0  0  0
   -1.3563    2.4166    0.2909 H   0  0  0  0  0  0  0  0  0  0  0  0
   -1.5408    0.0480    1.5125 N   0  0  0  0  0  0  0  0  0  0  0  0
   -1.5029   -1.0859    1.9795 O   0  0  0  0  0  0  0  0  0  0  0  0
   -2.4493    0.8588    1.6829 O   0  0  0  0  0  0  0  0  0  0  0  0
    2.6905    1.8707   -0.9697 N   0  0  0  0  0  0  0  0  0  0  0  0
    3.8257    2.1404   -1.2447 N   0  0  0  0  0  0  0  0  0  0  0  0
    3.7318   -0.0743    1.3008 S   0  0  0  0  0  0  0  0  0  0  0  0
    5.0298    0.6275    0.7111 O   0  0  0  0  0  0  0  0  0  0  0  0
    4.7608    1.3994    0.1241 H   0  0  0  0  0  0  0  0  0  0  0  0
    2.8431    0.8997    1.9188 O   0  0  0  0  0  0  0  0  0  0  0  0
    2.9909   -0.5477   -0.1413 O   0  0  0  0  0  0  0  0  0  0  0  0
    4.1515   -1.2828    1.9635 O   0  0  0  0  0  0  0  0  0  0  0  0
  1  6  2  0  0  0  0
  1  7  1  0  0  0  0
  2  8  1  6  0  0  0
  2 20  1  0  0  0  0
  2  1  1  0  0  0  0
  3  4  2  0  0  0  0
  3  2  1  0  0  0  0
  4  5  1  0  0  0  0
  5 10  1  0  0  0  0
  5  6  1  0  0  0  0
  6 11  1  0  0  0  0
  9  4  1  0  0  0  0
 11 13  2  0  0  0  0
 11 12  2  0  0  0  0
 14  3  1  0  0  0  0
 15 14  1  0  0  0  0
 16 19  2  0  0  0  0
 16 21  2  0  0  0  0
 17 16  1  0  0  0  0
 18 17  1  0  0  0  0
 20 16  1  0  0  0  0
M  RAD  3   5   2  14   2  15   3
M  END
