Coordinates from ORCA-job 4-NO2-Ph-N2-HSO4-B3LYPG-6-31G_dp-MTMO-d009-169-n800
 OpenBabel09051908393D

 21 20  0  0  0  0  0  0  0  0999 V2000
   -0.2385   -0.6998    0.4007 C   0  0  0  0  0  0  0  0  0  0  0  0
    1.1415   -0.7298    0.5779 C   0  0  0  0  0  0  0  0  0  0  0  0
    1.7627    0.3485    1.2082 C   0  0  0  0  0  0  0  0  0  0  0  0
    1.0447    1.4514    1.6693 C   0  0  0  0  0  0  0  0  0  0  0  0
   -0.3361    1.4798    1.4982 C   0  0  0  0  0  0  0  0  0  0  0  0
   -0.9538    0.4031    0.8648 C   0  0  0  0  0  0  0  0  0  0  0  0
   -0.7658   -1.5124   -0.0828 H   0  0  0  0  0  0  0  0  0  0  0  0
    1.7336   -1.5672    0.2307 H   0  0  0  0  0  0  0  0  0  0  0  0
    1.5675    2.2653    2.1582 H   0  0  0  0  0  0  0  0  0  0  0  0
   -0.9357    2.3129    1.8420 H   0  0  0  0  0  0  0  0  0  0  0  0
   -2.4152    0.4315    0.6812 N   0  0  0  0  0  0  0  0  0  0  0  0
   -2.9371   -0.5326    0.1246 O   0  0  0  0  0  0  0  0  0  0  0  0
   -3.0207    1.4183    1.0961 O   0  0  0  0  0  0  0  0  0  0  0  0
    4.0293    1.7984   -3.8916 N   0  0  0  0  0  0  0  0  0  0  0  0
    4.8834    2.0139   -3.2243 N   0  0  0  0  0  0  0  0  0  0  0  0
    4.2047    0.5537    0.2432 S   0  0  0  0  0  0  0  0  0  0  0  0
    4.0261    2.1492   -0.0099 O   0  0  0  0  0  0  0  0  0  0  0  0
    4.6829    2.6101    0.5405 H   0  0  0  0  0  0  0  0  0  0  0  0
    3.7261   -0.1016   -0.9518 O   0  0  0  0  0  0  0  0  0  0  0  0
    5.4997    0.3145    0.8418 O   0  0  0  0  0  0  0  0  0  0  0  0
    3.1381    0.3085    1.4751 O   0  0  0  0  0  0  0  0  0  0  0  0
  1  2  2  0  0  0  0
  1  6  1  0  0  0  0
  2  3  1  0  0  0  0
  3 21  1  0  0  0  0
  3  4  2  0  0  0  0
  4  9  1  0  0  0  0
  5  4  1  0  0  0  0
  5 10  1  0  0  0  0
  6  5  2  0  0  0  0
  7  1  1  0  0  0  0
  8  2  1  0  0  0  0
 11  6  1  0  0  0  0
 11 13  2  0  0  0  0
 12 11  2  0  0  0  0
 14 15  3  0  0  0  0
 16 20  2  0  0  0  0
 16 21  1  0  0  0  0
 17 16  1  0  0  0  0
 17 18  1  0  0  0  0
 19 16  2  0  0  0  0
M  END
