Coordinates from ORCA-job 4-NO2-Ph-N2-HSO4-B3LYPG-6-31G_dp-MTMO-d009-169-n800
 OpenBabel09051908393D

 21 20  0  0  0  0  0  0  0  0999 V2000
   -0.5019   -0.8203    0.8539 C   0  0  0  0  0  0  0  0  0  0  0  0
    0.8675   -0.8729    0.6128 C   0  0  0  0  0  0  0  0  0  0  0  0
    1.6279    0.2834    0.7906 C   0  0  0  0  0  0  0  0  0  0  0  0
    1.0583    1.4869    1.2060 C   0  0  0  0  0  0  0  0  0  0  0  0
   -0.3099    1.5392    1.4542 C   0  0  0  0  0  0  0  0  0  0  0  0
   -1.0674    0.3835    1.2721 C   0  0  0  0  0  0  0  0  0  0  0  0
   -1.1333   -1.6908    0.7285 H   0  0  0  0  0  0  0  0  0  0  0  0
    1.3444   -1.7885    0.2855 H   0  0  0  0  0  0  0  0  0  0  0  0
    1.6875    2.3597    1.3363 H   0  0  0  0  0  0  0  0  0  0  0  0
   -0.7948    2.4498    1.7817 H   0  0  0  0  0  0  0  0  0  0  0  0
   -2.5156    0.4358    1.5341 N   0  0  0  0  0  0  0  0  0  0  0  0
   -3.1616   -0.5971    1.3672 O   0  0  0  0  0  0  0  0  0  0  0  0
   -2.9881    1.5095    1.9041 O   0  0  0  0  0  0  0  0  0  0  0  0
    7.2312    3.4178   -1.3483 N   0  0  0  0  0  0  0  0  0  0  0  0
    6.1865    3.0715   -1.2607 N   0  0  0  0  0  0  0  0  0  0  0  0
    3.6663    0.1669   -0.8777 S   0  0  0  0  0  0  0  0  0  0  0  0
    3.4342    1.6835   -1.3907 O   0  0  0  0  0  0  0  0  0  0  0  0
    4.2583    2.1860   -1.2387 H   0  0  0  0  0  0  0  0  0  0  0  0
    2.8476   -0.6874   -1.7074 O   0  0  0  0  0  0  0  0  0  0  0  0
    5.0807   -0.0423   -0.6497 O   0  0  0  0  0  0  0  0  0  0  0  0
    3.0197    0.2411    0.6384 O   0  0  0  0  0  0  0  0  0  0  0  0
  1  6  2  0  0  0  0
  2  3  2  0  0  0  0
  2  1  1  0  0  0  0
  3  4  1  0  0  0  0
  4  9  1  0  0  0  0
  4  5  2  0  0  0  0
  5 10  1  0  0  0  0
  6  5  1  0  0  0  0
  6 11  1  0  0  0  0
  7  1  1  0  0  0  0
  8  2  1  0  0  0  0
 11 13  2  0  0  0  0
 12 11  2  0  0  0  0
 14 15  3  0  0  0  0
 16 20  2  0  0  0  0
 16 21  1  0  0  0  0
 17 18  1  0  0  0  0
 17 16  1  0  0  0  0
 19 16  2  0  0  0  0
 21  3  1  0  0  0  0
M  END
