Coordinates from ORCA-job 4-NO2-Ph-N2-HSO4-B3LYPG-6-31G_dp-MTMO-d009-169-n800
 OpenBabel09051908393D

 21 20  0  0  0  0  0  0  0  0999 V2000
   -0.7573   -0.8623    0.8157 C   0  0  0  0  0  0  0  0  0  0  0  0
    0.6162   -1.0252    0.6625 C   0  0  0  0  0  0  0  0  0  0  0  0
    1.4583    0.0472    0.9576 C   0  0  0  0  0  0  0  0  0  0  0  0
    0.9673    1.2732    1.4055 C   0  0  0  0  0  0  0  0  0  0  0  0
   -0.4055    1.4354    1.5654 C   0  0  0  0  0  0  0  0  0  0  0  0
   -1.2447    0.3639    1.2657 C   0  0  0  0  0  0  0  0  0  0  0  0
   -1.4509   -1.6643    0.5981 H   0  0  0  0  0  0  0  0  0  0  0  0
    1.0345   -1.9614    0.3143 H   0  0  0  0  0  0  0  0  0  0  0  0
    1.6580    2.0776    1.6299 H   0  0  0  0  0  0  0  0  0  0  0  0
   -0.8324    2.3673    1.9131 H   0  0  0  0  0  0  0  0  0  0  0  0
   -2.6984    0.5324    1.4338 N   0  0  0  0  0  0  0  0  0  0  0  0
   -3.4168   -0.4286    1.1653 O   0  0  0  0  0  0  0  0  0  0  0  0
   -3.1012    1.6238    1.8331 O   0  0  0  0  0  0  0  0  0  0  0  0
    8.4296    4.9536   -2.7858 N   0  0  0  0  0  0  0  0  0  0  0  0
    7.6114    4.3995   -2.2908 N   0  0  0  0  0  0  0  0  0  0  0  0
    3.5890   -0.1625   -0.5790 S   0  0  0  0  0  0  0  0  0  0  0  0
    3.5003    1.3968   -1.0274 O   0  0  0  0  0  0  0  0  0  0  0  0
    4.2975    1.8458   -0.6960 H   0  0  0  0  0  0  0  0  0  0  0  0
    2.7686   -0.8992   -1.5116 O   0  0  0  0  0  0  0  0  0  0  0  0
    4.9651   -0.4851   -0.2705 O   0  0  0  0  0  0  0  0  0  0  0  0
    2.8490   -0.1124    0.8932 O   0  0  0  0  0  0  0  0  0  0  0  0
  1  6  1  0  0  0  0
  2  1  2  0  0  0  0
  2  3  1  0  0  0  0
  3  4  2  0  0  0  0
  4  5  1  0  0  0  0
  4  9  1  0  0  0  0
  5 10  1  0  0  0  0
  6 11  1  0  0  0  0
  6  5  2  0  0  0  0
  7  1  1  0  0  0  0
  8  2  1  0  0  0  0
 11 13  2  0  0  0  0
 12 11  2  0  0  0  0
 14 15  3  0  0  0  0
 16 20  2  0  0  0  0
 16 21  1  0  0  0  0
 17 18  1  0  0  0  0
 17 16  1  0  0  0  0
 19 16  2  0  0  0  0
 21  3  1  0  0  0  0
M  END
