Coordinates from ORCA-job 4-NO2-Ph-N2-HSO4-B3LYPG-6-31G_dp-MTMO-d009-169-n800
 OpenBabel09051908393D

 21 20  0  0  0  0  0  0  0  0999 V2000
   -1.2201   -1.1015    1.0470 C   0  0  0  0  0  0  0  0  0  0  0  0
    0.1439   -1.3393    0.9082 C   0  0  0  0  0  0  0  0  0  0  0  0
    1.0376   -0.2962    1.1521 C   0  0  0  0  0  0  0  0  0  0  0  0
    0.6073    0.9738    1.5345 C   0  0  0  0  0  0  0  0  0  0  0  0
   -0.7561    1.2114    1.6797 C   0  0  0  0  0  0  0  0  0  0  0  0
   -1.6468    0.1686    1.4316 C   0  0  0  0  0  0  0  0  0  0  0  0
   -1.9522   -1.8785    0.8677 H   0  0  0  0  0  0  0  0  0  0  0  0
    0.5161   -2.3117    0.6104 H   0  0  0  0  0  0  0  0  0  0  0  0
    1.3363    1.7539    1.7206 H   0  0  0  0  0  0  0  0  0  0  0  0
   -1.1374    2.1796    1.9778 H   0  0  0  0  0  0  0  0  0  0  0  0
   -3.0907    0.4174    1.5846 N   0  0  0  0  0  0  0  0  0  0  0  0
   -3.8553   -0.5193    1.3618 O   0  0  0  0  0  0  0  0  0  0  0  0
   -3.4394    1.5463    1.9260 O   0  0  0  0  0  0  0  0  0  0  0  0
   12.2828    8.0170   -4.4846 N   0  0  0  0  0  0  0  0  0  0  0  0
   11.4941    7.3807   -4.0434 N   0  0  0  0  0  0  0  0  0  0  0  0
    3.1581   -0.6717   -0.3648 S   0  0  0  0  0  0  0  0  0  0  0  0
    3.1552    0.8744   -0.8662 O   0  0  0  0  0  0  0  0  0  0  0  0
    3.9705    1.2915   -0.5374 H   0  0  0  0  0  0  0  0  0  0  0  0
    2.3011   -1.3940   -1.2754 O   0  0  0  0  0  0  0  0  0  0  0  0
    4.5140   -1.0569   -0.0398 O   0  0  0  0  0  0  0  0  0  0  0  0
    2.4185   -0.5300    1.1018 O   0  0  0  0  0  0  0  0  0  0  0  0
  1  6  1  0  0  0  0
  2  1  2  0  0  0  0
  2  3  1  0  0  0  0
  3  4  2  0  0  0  0
  4  5  1  0  0  0  0
  4  9  1  0  0  0  0
  5 10  1  0  0  0  0
  6 11  1  0  0  0  0
  6  5  2  0  0  0  0
  7  1  1  0  0  0  0
  8  2  1  0  0  0  0
 11 13  2  0  0  0  0
 12 11  2  0  0  0  0
 14 15  3  0  0  0  0
 16 20  2  0  0  0  0
 16 21  1  0  0  0  0
 17 18  1  0  0  0  0
 17 16  1  0  0  0  0
 19 16  2  0  0  0  0
 21  3  1  0  0  0  0
M  END
