Coordinates from ORCA-job 4-NO2-Ph-N2-HSO4-B3LYPG-6-31G_dp-MTMO-d009-169-n800
 OpenBabel09051908393D

 21 20  0  0  0  0  0  0  0  0999 V2000
   -0.8110   -0.8779    0.8308 C   0  0  0  0  0  0  0  0  0  0  0  0
    0.5607   -1.0605    0.6850 C   0  0  0  0  0  0  0  0  0  0  0  0
    1.4165    0.0005    0.9821 C   0  0  0  0  0  0  0  0  0  0  0  0
    0.9408    1.2341    1.4251 C   0  0  0  0  0  0  0  0  0  0  0  0
   -0.4303    1.4161    1.5777 C   0  0  0  0  0  0  0  0  0  0  0  0
   -1.2832    0.3560    1.2758 C   0  0  0  0  0  0  0  0  0  0  0  0
   -1.5149   -1.6704    0.6113 H   0  0  0  0  0  0  0  0  0  0  0  0
    0.9675   -2.0034    0.3409 H   0  0  0  0  0  0  0  0  0  0  0  0
    1.6416    2.0292    1.6516 H   0  0  0  0  0  0  0  0  0  0  0  0
   -0.8458    2.3547    1.9215 H   0  0  0  0  0  0  0  0  0  0  0  0
   -2.7352    0.5457    1.4362 N   0  0  0  0  0  0  0  0  0  0  0  0
   -3.4658   -0.4055    1.1656 O   0  0  0  0  0  0  0  0  0  0  0  0
   -3.1244    1.6434    1.8314 O   0  0  0  0  0  0  0  0  0  0  0  0
    8.7795    5.3207   -2.9821 N   0  0  0  0  0  0  0  0  0  0  0  0
    7.9821    4.7431   -2.4800 N   0  0  0  0  0  0  0  0  0  0  0  0
    3.5512   -0.2449   -0.5433 S   0  0  0  0  0  0  0  0  0  0  0  0
    3.4787    1.3126   -1.0010 O   0  0  0  0  0  0  0  0  0  0  0  0
    4.2734    1.7584   -0.6596 H   0  0  0  0  0  0  0  0  0  0  0  0
    2.7284   -0.9789   -1.4759 O   0  0  0  0  0  0  0  0  0  0  0  0
    4.9226   -0.5787   -0.2264 O   0  0  0  0  0  0  0  0  0  0  0  0
    2.8052   -0.1789    0.9252 O   0  0  0  0  0  0  0  0  0  0  0  0
  1  6  1  0  0  0  0
  2  1  2  0  0  0  0
  2  3  1  0  0  0  0
  3  4  2  0  0  0  0
  4  5  1  0  0  0  0
  4  9  1  0  0  0  0
  5 10  1  0  0  0  0
  6 11  1  0  0  0  0
  6  5  2  0  0  0  0
  7  1  1  0  0  0  0
  8  2  1  0  0  0  0
 11 13  2  0  0  0  0
 12 11  2  0  0  0  0
 14 15  3  0  0  0  0
 16 20  2  0  0  0  0
 16 21  1  0  0  0  0
 17 18  1  0  0  0  0
 17 16  1  0  0  0  0
 19 16  2  0  0  0  0
 21  3  1  0  0  0  0
M  END
