Coordinates from ORCA-job 4-NO2-Ph-N2-HSO4-B3LYPG-6-31G_dp-MTMO-d009-169-n800
 OpenBabel09051908393D

 21 20  0  0  0  0  0  0  0  0999 V2000
   -0.4935   -0.8117    0.8603 C   0  0  0  0  0  0  0  0  0  0  0  0
    0.8740   -0.8757    0.6110 C   0  0  0  0  0  0  0  0  0  0  0  0
    1.6435    0.2769    0.7740 C   0  0  0  0  0  0  0  0  0  0  0  0
    1.0846    1.4874    1.1833 C   0  0  0  0  0  0  0  0  0  0  0  0
   -0.2816    1.5513    1.4400 C   0  0  0  0  0  0  0  0  0  0  0  0
   -1.0482    0.3994    1.2722 C   0  0  0  0  0  0  0  0  0  0  0  0
   -1.1314   -1.6789    0.7464 H   0  0  0  0  0  0  0  0  0  0  0  0
    1.3424   -1.7972    0.2885 H   0  0  0  0  0  0  0  0  0  0  0  0
    1.7203    2.3571    1.3029 H   0  0  0  0  0  0  0  0  0  0  0  0
   -0.7581    2.4678    1.7633 H   0  0  0  0  0  0  0  0  0  0  0  0
   -2.4942    0.4637    1.5431 N   0  0  0  0  0  0  0  0  0  0  0  0
   -3.1483   -0.5661    1.3892 O   0  0  0  0  0  0  0  0  0  0  0  0
   -2.9569    1.5437    1.9075 O   0  0  0  0  0  0  0  0  0  0  0  0
    7.1237    3.4858   -1.1895 N   0  0  0  0  0  0  0  0  0  0  0  0
    6.0864    3.1078   -1.1815 N   0  0  0  0  0  0  0  0  0  0  0  0
    3.6685    0.1239   -0.9072 S   0  0  0  0  0  0  0  0  0  0  0  0
    3.4148    1.6250   -1.4526 O   0  0  0  0  0  0  0  0  0  0  0  0
    4.2183    2.1523   -1.2757 H   0  0  0  0  0  0  0  0  0  0  0  0
    2.8533   -0.7564   -1.7123 O   0  0  0  0  0  0  0  0  0  0  0  0
    5.0864   -0.0652   -0.6838 O   0  0  0  0  0  0  0  0  0  0  0  0
    3.0336    0.2246    0.6130 O   0  0  0  0  0  0  0  0  0  0  0  0
  1  6  2  0  0  0  0
  2  3  2  0  0  0  0
  2  1  1  0  0  0  0
  3  4  1  0  0  0  0
  4  9  1  0  0  0  0
  4  5  2  0  0  0  0
  5 10  1  0  0  0  0
  6  5  1  0  0  0  0
  6 11  1  0  0  0  0
  7  1  1  0  0  0  0
  8  2  1  0  0  0  0
 11 13  2  0  0  0  0
 12 11  2  0  0  0  0
 14 15  3  0  0  0  0
 16 20  2  0  0  0  0
 16 21  1  0  0  0  0
 17 18  1  0  0  0  0
 17 16  1  0  0  0  0
 19 16  2  0  0  0  0
 21  3  1  0  0  0  0
M  END
