Coordinates from ORCA-job 4-NO2-Ph-N2-HSO4-B3LYPG-6-31G_dp-MTMO-d009-169-n800
 OpenBabel09051908393D

 21 20  0  0  0  0  0  0  0  0999 V2000
   -0.8353   -0.8868    0.8416 C   0  0  0  0  0  0  0  0  0  0  0  0
    0.5356   -1.0770    0.6977 C   0  0  0  0  0  0  0  0  0  0  0  0
    1.3966   -0.0195    0.9923 C   0  0  0  0  0  0  0  0  0  0  0  0
    0.9268    1.2180    1.4308 C   0  0  0  0  0  0  0  0  0  0  0  0
   -0.4436    1.4076    1.5814 C   0  0  0  0  0  0  0  0  0  0  0  0
   -1.3016    0.3509    1.2822 C   0  0  0  0  0  0  0  0  0  0  0  0
   -1.5431   -1.6765    0.6241 H   0  0  0  0  0  0  0  0  0  0  0  0
    0.9378   -2.0231    0.3572 H   0  0  0  0  0  0  0  0  0  0  0  0
    1.6314    2.0102    1.6554 H   0  0  0  0  0  0  0  0  0  0  0  0
   -0.8545    2.3493    1.9218 H   0  0  0  0  0  0  0  0  0  0  0  0
   -2.7527    0.5485    1.4405 N   0  0  0  0  0  0  0  0  0  0  0  0
   -3.4880   -0.3996    1.1721 O   0  0  0  0  0  0  0  0  0  0  0  0
   -3.1366    1.6495    1.8320 O   0  0  0  0  0  0  0  0  0  0  0  0
    8.9515    5.4882   -3.0645 N   0  0  0  0  0  0  0  0  0  0  0  0
    8.1601    4.9002   -2.5649 N   0  0  0  0  0  0  0  0  0  0  0  0
    3.5314   -0.2804   -0.5302 S   0  0  0  0  0  0  0  0  0  0  0  0
    3.4676    1.2763   -0.9922 O   0  0  0  0  0  0  0  0  0  0  0  0
    4.2635    1.7191   -0.6496 H   0  0  0  0  0  0  0  0  0  0  0  0
    2.7057   -1.0124   -1.4618 O   0  0  0  0  0  0  0  0  0  0  0  0
    4.9007   -0.6207   -0.2110 O   0  0  0  0  0  0  0  0  0  0  0  0
    2.7843   -0.2064    0.9373 O   0  0  0  0  0  0  0  0  0  0  0  0
  1  6  1  0  0  0  0
  2  1  2  0  0  0  0
  2  3  1  0  0  0  0
  3  4  2  0  0  0  0
  4  5  1  0  0  0  0
  4  9  1  0  0  0  0
  5 10  1  0  0  0  0
  6 11  1  0  0  0  0
  6  5  2  0  0  0  0
  7  1  1  0  0  0  0
  8  2  1  0  0  0  0
 11 13  2  0  0  0  0
 12 11  2  0  0  0  0
 14 15  3  0  0  0  0
 16 20  2  0  0  0  0
 16 21  1  0  0  0  0
 17 18  1  0  0  0  0
 17 16  1  0  0  0  0
 19 16  2  0  0  0  0
 21  3  1  0  0  0  0
M  END
