Coordinates from ORCA-job 4-NO2-Ph-N2-HSO4-B3LYPG-6-31G_dp-MTMO-d009-169-n800
 OpenBabel09051908393D

 21 20  0  0  0  0  0  0  0  0999 V2000
    0.0641   -0.6227    0.1085 C   0  0  0  0  0  0  0  0  0  0  0  0
    1.4033   -0.6465    0.4850 C   0  0  0  0  0  0  0  0  0  0  0  0
    1.9420    0.4713    1.1239 C   0  0  0  0  0  0  0  0  0  0  0  0
    1.1739    1.5977    1.4179 C   0  0  0  0  0  0  0  0  0  0  0  0
   -0.1678    1.6179    1.0507 C   0  0  0  0  0  0  0  0  0  0  0  0
   -0.6996    0.5076    0.3971 C   0  0  0  0  0  0  0  0  0  0  0  0
   -0.3978   -1.4637   -0.3930 H   0  0  0  0  0  0  0  0  0  0  0  0
    2.0254   -1.5089    0.2821 H   0  0  0  0  0  0  0  0  0  0  0  0
    1.6294    2.4368    1.9311 H   0  0  0  0  0  0  0  0  0  0  0  0
   -0.8029    2.4696    1.2586 H   0  0  0  0  0  0  0  0  0  0  0  0
   -2.1190    0.5271    0.0058 N   0  0  0  0  0  0  0  0  0  0  0  0
   -2.5652   -0.4665   -0.5648 O   0  0  0  0  0  0  0  0  0  0  0  0
   -2.7683    1.5366    0.2745 O   0  0  0  0  0  0  0  0  0  0  0  0
    2.0777    1.7389   -1.7048 N   0  0  0  0  0  0  0  0  0  0  0  0
    1.4050    1.7502   -2.5819 N   0  0  0  0  0  0  0  0  0  0  0  0
    4.5568    0.3690    0.6293 S   0  0  0  0  0  0  0  0  0  0  0  0
    4.6941    1.9179    0.1645 O   0  0  0  0  0  0  0  0  0  0  0  0
    5.2548    2.3718    0.8176 H   0  0  0  0  0  0  0  0  0  0  0  0
    4.2310   -0.3883   -0.5568 O   0  0  0  0  0  0  0  0  0  0  0  0
    5.6529    0.0529    1.5192 O   0  0  0  0  0  0  0  0  0  0  0  0
    3.2479    0.4468    1.6278 O   0  0  0  0  0  0  0  0  0  0  0  0
  1  6  2  0  0  0  0
  1  2  1  0  0  0  0
  2  3  2  0  0  0  0
  3  4  1  0  0  0  0
  3 21  1  0  0  0  0
  4  9  1  0  0  0  0
  5 10  1  0  0  0  0
  5  4  2  0  0  0  0
  6  5  1  0  0  0  0
  7  1  1  0  0  0  0
  8  2  1  0  0  0  0
 11 13  2  0  0  0  0
 11  6  1  0  0  0  0
 12 11  2  0  0  0  0
 15 14  3  0  0  0  0
 16 20  2  0  0  0  0
 16 21  1  0  0  0  0
 17 16  1  0  0  0  0
 17 18  1  0  0  0  0
 19 16  2  0  0  0  0
M  END
