Coordinates from ORCA-job 4-NO2-Ph-N2-HSO4-B3LYPG-6-31G_dp-MTMO-d009-169-n800
 OpenBabel09051908393D

 21 20  0  0  0  0  0  0  0  0999 V2000
   -1.2996   -1.1537    1.0821 C   0  0  0  0  0  0  0  0  0  0  0  0
    0.0643   -1.3922    0.9438 C   0  0  0  0  0  0  0  0  0  0  0  0
    0.9585   -0.3495    1.1872 C   0  0  0  0  0  0  0  0  0  0  0  0
    0.5288    0.9211    1.5687 C   0  0  0  0  0  0  0  0  0  0  0  0
   -0.8346    1.1594    1.7133 C   0  0  0  0  0  0  0  0  0  0  0  0
   -1.7258    0.1170    1.4658 C   0  0  0  0  0  0  0  0  0  0  0  0
   -2.0320   -1.9303    0.9032 H   0  0  0  0  0  0  0  0  0  0  0  0
    0.4361   -2.3650    0.6467 H   0  0  0  0  0  0  0  0  0  0  0  0
    1.2581    1.7009    1.7544 H   0  0  0  0  0  0  0  0  0  0  0  0
   -1.2154    2.1280    2.0108 H   0  0  0  0  0  0  0  0  0  0  0  0
   -3.1695    0.3665    1.6182 N   0  0  0  0  0  0  0  0  0  0  0  0
   -3.9346   -0.5699    1.3959 O   0  0  0  0  0  0  0  0  0  0  0  0
   -3.5177    1.4959    1.9588 O   0  0  0  0  0  0  0  0  0  0  0  0
   13.0322    8.5205   -4.8142 N   0  0  0  0  0  0  0  0  0  0  0  0
   12.2429    7.8830   -4.3757 N   0  0  0  0  0  0  0  0  0  0  0  0
    3.0792   -0.7266   -0.3289 S   0  0  0  0  0  0  0  0  0  0  0  0
    3.0775    0.8194   -0.8307 O   0  0  0  0  0  0  0  0  0  0  0  0
    3.8930    1.2360   -0.5018 H   0  0  0  0  0  0  0  0  0  0  0  0
    2.2220   -1.4485   -1.2396 O   0  0  0  0  0  0  0  0  0  0  0  0
    4.4348   -1.1126   -0.0034 O   0  0  0  0  0  0  0  0  0  0  0  0
    2.3393   -0.5840    1.1374 O   0  0  0  0  0  0  0  0  0  0  0  0
  1  6  1  0  0  0  0
  2  1  2  0  0  0  0
  2  3  1  0  0  0  0
  3  4  2  0  0  0  0
  4  5  1  0  0  0  0
  4  9  1  0  0  0  0
  5 10  1  0  0  0  0
  6 11  1  0  0  0  0
  6  5  2  0  0  0  0
  7  1  1  0  0  0  0
  8  2  1  0  0  0  0
 11 13  2  0  0  0  0
 12 11  2  0  0  0  0
 14 15  3  0  0  0  0
 16 20  2  0  0  0  0
 16 21  1  0  0  0  0
 17 18  1  0  0  0  0
 17 16  1  0  0  0  0
 19 16  2  0  0  0  0
 21  3  1  0  0  0  0
M  END
