Coordinates from ORCA-job 4-NO2-Ph-N2-HSO4-B3LYPG-6-31G_dp-MTMO-d009-169-n800
 OpenBabel09051908393D

 21 20  0  0  0  0  0  0  0  0999 V2000
   -0.7536   -0.8615    0.8151 C   0  0  0  0  0  0  0  0  0  0  0  0
    0.6199   -1.0228    0.6613 C   0  0  0  0  0  0  0  0  0  0  0  0
    1.4609    0.0506    0.9558 C   0  0  0  0  0  0  0  0  0  0  0  0
    0.9688    1.2761    1.4038 C   0  0  0  0  0  0  0  0  0  0  0  0
   -0.4041    1.4367    1.5643 C   0  0  0  0  0  0  0  0  0  0  0  0
   -1.2423    0.3641    1.2652 C   0  0  0  0  0  0  0  0  0  0  0  0
   -1.4465   -1.6644    0.5980 H   0  0  0  0  0  0  0  0  0  0  0  0
    1.0392   -1.9586    0.3130 H   0  0  0  0  0  0  0  0  0  0  0  0
    1.6587    2.0813    1.6277 H   0  0  0  0  0  0  0  0  0  0  0  0
   -0.8319    2.3682    1.9121 H   0  0  0  0  0  0  0  0  0  0  0  0
   -2.6960    0.5310    1.4341 N   0  0  0  0  0  0  0  0  0  0  0  0
   -3.4135   -0.4308    1.1661 O   0  0  0  0  0  0  0  0  0  0  0  0
   -3.1000    1.6220    1.8334 O   0  0  0  0  0  0  0  0  0  0  0  0
    8.4072    4.9286   -2.7719 N   0  0  0  0  0  0  0  0  0  0  0  0
    7.5874    4.3759   -2.2779 N   0  0  0  0  0  0  0  0  0  0  0  0
    3.5913   -0.1564   -0.5817 S   0  0  0  0  0  0  0  0  0  0  0  0
    3.5021    1.4031   -1.0291 O   0  0  0  0  0  0  0  0  0  0  0  0
    4.3000    1.8517   -0.6990 H   0  0  0  0  0  0  0  0  0  0  0  0
    2.7705   -0.8928   -1.5144 O   0  0  0  0  0  0  0  0  0  0  0  0
    4.9676   -0.4789   -0.2742 O   0  0  0  0  0  0  0  0  0  0  0  0
    2.8518   -0.1075    0.8908 O   0  0  0  0  0  0  0  0  0  0  0  0
  1  6  1  0  0  0  0
  2  1  2  0  0  0  0
  2  3  1  0  0  0  0
  3  4  2  0  0  0  0
  4  5  1  0  0  0  0
  4  9  1  0  0  0  0
  5 10  1  0  0  0  0
  6 11  1  0  0  0  0
  6  5  2  0  0  0  0
  7  1  1  0  0  0  0
  8  2  1  0  0  0  0
 11 13  2  0  0  0  0
 12 11  2  0  0  0  0
 14 15  3  0  0  0  0
 16 20  2  0  0  0  0
 16 21  1  0  0  0  0
 17 18  1  0  0  0  0
 17 16  1  0  0  0  0
 19 16  2  0  0  0  0
 21  3  1  0  0  0  0
M  END
