Coordinates from ORCA-job 4-NO2-Ph-N2-HSO4-B3LYPG-6-31G_dp-MTMO-d009-169-n800
 OpenBabel09051908393D

 21 20  0  0  0  0  0  0  0  0999 V2000
   -1.0693   -1.0072    0.9757 C   0  0  0  0  0  0  0  0  0  0  0  0
    0.2957   -1.2384    0.8358 C   0  0  0  0  0  0  0  0  0  0  0  0
    1.1850   -0.1932    1.0867 C   0  0  0  0  0  0  0  0  0  0  0  0
    0.7492    1.0725    1.4774 C   0  0  0  0  0  0  0  0  0  0  0  0
   -0.6152    1.3034    1.6238 C   0  0  0  0  0  0  0  0  0  0  0  0
   -1.5015    0.2586    1.3686 C   0  0  0  0  0  0  0  0  0  0  0  0
   -1.7980   -1.7860    0.7912 H   0  0  0  0  0  0  0  0  0  0  0  0
    0.6720   -2.2073    0.5318 H   0  0  0  0  0  0  0  0  0  0  0  0
    1.4749    1.8544    1.6689 H   0  0  0  0  0  0  0  0  0  0  0  0
   -1.0005    2.2680    1.9282 H   0  0  0  0  0  0  0  0  0  0  0  0
   -2.9464    0.5002    1.5228 N   0  0  0  0  0  0  0  0  0  0  0  0
   -3.7070   -0.4382    1.2934 O   0  0  0  0  0  0  0  0  0  0  0  0
   -3.2999    1.6253    1.8717 O   0  0  0  0  0  0  0  0  0  0  0  0
   10.8945    7.0565   -3.8785 N   0  0  0  0  0  0  0  0  0  0  0  0
   10.1078    6.4235   -3.4291 N   0  0  0  0  0  0  0  0  0  0  0  0
    3.3072   -0.5539   -0.4317 S   0  0  0  0  0  0  0  0  0  0  0  0
    3.2950    0.9933   -0.9293 O   0  0  0  0  0  0  0  0  0  0  0  0
    4.1071    1.4153   -0.5986 H   0  0  0  0  0  0  0  0  0  0  0  0
    2.4546   -1.2789   -1.3442 O   0  0  0  0  0  0  0  0  0  0  0  0
    4.6654   -0.9321   -0.1077 O   0  0  0  0  0  0  0  0  0  0  0  0
    2.5670   -0.4203    1.0353 O   0  0  0  0  0  0  0  0  0  0  0  0
  1  6  1  0  0  0  0
  2  1  2  0  0  0  0
  2  3  1  0  0  0  0
  3  4  2  0  0  0  0
  4  5  1  0  0  0  0
  4  9  1  0  0  0  0
  5 10  1  0  0  0  0
  6 11  1  0  0  0  0
  6  5  2  0  0  0  0
  7  1  1  0  0  0  0
  8  2  1  0  0  0  0
 11 13  2  0  0  0  0
 12 11  2  0  0  0  0
 14 15  3  0  0  0  0
 16 20  2  0  0  0  0
 16 21  1  0  0  0  0
 17 18  1  0  0  0  0
 17 16  1  0  0  0  0
 19 16  2  0  0  0  0
 21  3  1  0  0  0  0
M  END
