Coordinates from ORCA-job 4-NO2-Ph-N2-HSO4-B3LYPG-6-31G_dp-MTMO-d009-169-n800
 OpenBabel09051908393D

 21 20  0  0  0  0  0  0  0  0999 V2000
   -0.9783   -0.9553    0.9257 C   0  0  0  0  0  0  0  0  0  0  0  0
    0.3883   -1.1764    0.7851 C   0  0  0  0  0  0  0  0  0  0  0  0
    1.2706   -0.1285    1.0491 C   0  0  0  0  0  0  0  0  0  0  0  0
    0.8263    1.1299    1.4535 C   0  0  0  0  0  0  0  0  0  0  0  0
   -0.5397    1.3506    1.6007 C   0  0  0  0  0  0  0  0  0  0  0  0
   -1.4191    0.3032    1.3323 C   0  0  0  0  0  0  0  0  0  0  0  0
   -1.7019   -1.7365    0.7313 H   0  0  0  0  0  0  0  0  0  0  0  0
    0.7710   -2.1394    0.4707 H   0  0  0  0  0  0  0  0  0  0  0  0
    1.5468    1.9140    1.6551 H   0  0  0  0  0  0  0  0  0  0  0  0
   -0.9315    2.3092    1.9155 H   0  0  0  0  0  0  0  0  0  0  0  0
   -2.8656    0.5339    1.4872 N   0  0  0  0  0  0  0  0  0  0  0  0
   -3.6201   -0.4064    1.2459 O   0  0  0  0  0  0  0  0  0  0  0  0
   -3.2268    1.6526    1.8488 O   0  0  0  0  0  0  0  0  0  0  0  0
   10.0965    6.4628   -3.5416 N   0  0  0  0  0  0  0  0  0  0  0  0
    9.3114    5.8383   -3.0777 N   0  0  0  0  0  0  0  0  0  0  0  0
    3.3970   -0.4646   -0.4697 S   0  0  0  0  0  0  0  0  0  0  0  0
    3.3708    1.0849   -0.9593 O   0  0  0  0  0  0  0  0  0  0  0  0
    4.1777    1.5134   -0.6244 H   0  0  0  0  0  0  0  0  0  0  0  0
    2.5520   -1.1926   -1.3870 O   0  0  0  0  0  0  0  0  0  0  0  0
    4.7581   -0.8321   -0.1461 O   0  0  0  0  0  0  0  0  0  0  0  0
    2.6541   -0.3456    0.9972 O   0  0  0  0  0  0  0  0  0  0  0  0
  1  6  1  0  0  0  0
  2  1  2  0  0  0  0
  2  3  1  0  0  0  0
  3  4  2  0  0  0  0
  4  5  1  0  0  0  0
  4  9  1  0  0  0  0
  5 10  1  0  0  0  0
  6 11  1  0  0  0  0
  6  5  2  0  0  0  0
  7  1  1  0  0  0  0
  8  2  1  0  0  0  0
 11 13  2  0  0  0  0
 12 11  2  0  0  0  0
 14 15  3  0  0  0  0
 16 20  2  0  0  0  0
 16 21  1  0  0  0  0
 17 18  1  0  0  0  0
 17 16  1  0  0  0  0
 19 16  2  0  0  0  0
 21  3  1  0  0  0  0
M  END
