Coordinates from ORCA-job 4-NO2-Ph-N2-HSO4-B3LYPG-6-31G_dp-MTMO-d009-169-n800
 OpenBabel09051908393D

 21 20  0  0  0  0  0  0  0  0999 V2000
   -1.3294   -1.1735    1.0951 C   0  0  0  0  0  0  0  0  0  0  0  0
    0.0344   -1.4121    0.9570 C   0  0  0  0  0  0  0  0  0  0  0  0
    0.9286   -0.3694    1.2005 C   0  0  0  0  0  0  0  0  0  0  0  0
    0.4989    0.9012    1.5819 C   0  0  0  0  0  0  0  0  0  0  0  0
   -0.8645    1.1396    1.7264 C   0  0  0  0  0  0  0  0  0  0  0  0
   -1.7557    0.0971    1.4787 C   0  0  0  0  0  0  0  0  0  0  0  0
   -2.0619   -1.9501    0.9161 H   0  0  0  0  0  0  0  0  0  0  0  0
    0.4062   -2.3849    0.6600 H   0  0  0  0  0  0  0  0  0  0  0  0
    1.2282    1.6810    1.7677 H   0  0  0  0  0  0  0  0  0  0  0  0
   -1.2453    2.1082    2.0237 H   0  0  0  0  0  0  0  0  0  0  0  0
   -3.1994    0.3468    1.6310 N   0  0  0  0  0  0  0  0  0  0  0  0
   -3.9645   -0.5897    1.4086 O   0  0  0  0  0  0  0  0  0  0  0  0
   -3.5476    1.4761    1.9715 O   0  0  0  0  0  0  0  0  0  0  0  0
   13.3155    8.7097   -4.9390 N   0  0  0  0  0  0  0  0  0  0  0  0
   12.5260    8.0718   -4.5014 N   0  0  0  0  0  0  0  0  0  0  0  0
    3.0495   -0.7466   -0.3154 S   0  0  0  0  0  0  0  0  0  0  0  0
    3.0480    0.7994   -0.8172 O   0  0  0  0  0  0  0  0  0  0  0  0
    3.8634    1.2160   -0.4881 H   0  0  0  0  0  0  0  0  0  0  0  0
    2.1924   -1.4685   -1.2261 O   0  0  0  0  0  0  0  0  0  0  0  0
    4.4051   -1.1327    0.0103 O   0  0  0  0  0  0  0  0  0  0  0  0
    2.3095   -0.6040    1.1508 O   0  0  0  0  0  0  0  0  0  0  0  0
  1  6  1  0  0  0  0
  2  1  2  0  0  0  0
  2  3  1  0  0  0  0
  3  4  2  0  0  0  0
  4  5  1  0  0  0  0
  4  9  1  0  0  0  0
  5 10  1  0  0  0  0
  6 11  1  0  0  0  0
  6  5  2  0  0  0  0
  7  1  1  0  0  0  0
  8  2  1  0  0  0  0
 11 13  2  0  0  0  0
 12 11  2  0  0  0  0
 14 15  3  0  0  0  0
 16 20  2  0  0  0  0
 16 21  1  0  0  0  0
 17 18  1  0  0  0  0
 17 16  1  0  0  0  0
 19 16  2  0  0  0  0
 21  3  1  0  0  0  0
M  END
