Coordinates from ORCA-job 4-NO2-Ph-N2-HSO4-B3LYPG-6-31G_dp-MTMO-d009-169-n800
 OpenBabel09051908393D

 21 20  0  0  0  0  0  0  0  0999 V2000
    0.0420   -0.5837    0.0548 C   0  0  0  0  0  0  0  0  0  0  0  0
    1.4040   -0.4616    0.3055 C   0  0  0  0  0  0  0  0  0  0  0  0
    1.8868    0.7433    0.8324 C   0  0  0  0  0  0  0  0  0  0  0  0
    1.0108    1.7549    1.2482 C   0  0  0  0  0  0  0  0  0  0  0  0
   -0.3489    1.6253    1.0066 C   0  0  0  0  0  0  0  0  0  0  0  0
   -0.8152    0.4624    0.3925 C   0  0  0  0  0  0  0  0  0  0  0  0
   -0.3681   -1.4862   -0.3809 H   0  0  0  0  0  0  0  0  0  0  0  0
    2.0829   -1.2649    0.0557 H   0  0  0  0  0  0  0  0  0  0  0  0
    1.4159    2.6393    1.7263 H   0  0  0  0  0  0  0  0  0  0  0  0
   -1.0516    2.3987    1.2890 H   0  0  0  0  0  0  0  0  0  0  0  0
   -2.2532    0.3228    0.1292 N   0  0  0  0  0  0  0  0  0  0  0  0
   -2.6373   -0.7206   -0.3977 O   0  0  0  0  0  0  0  0  0  0  0  0
   -2.9838    1.2593    0.4512 O   0  0  0  0  0  0  0  0  0  0  0  0
    2.3781    1.7121   -1.1286 N   0  0  0  0  0  0  0  0  0  0  0  0
    1.7505    1.9933   -1.9969 N   0  0  0  0  0  0  0  0  0  0  0  0
    4.5601    0.3144    0.6024 S   0  0  0  0  0  0  0  0  0  0  0  0
    5.1727    1.6682   -0.0420 O   0  0  0  0  0  0  0  0  0  0  0  0
    5.7663    2.0657    0.6189 H   0  0  0  0  0  0  0  0  0  0  0  0
    4.2387   -0.5676   -0.4963 O   0  0  0  0  0  0  0  0  0  0  0  0
    5.3947   -0.0678    1.7219 O   0  0  0  0  0  0  0  0  0  0  0  0
    3.1922    0.9079    1.3000 O   0  0  0  0  0  0  0  0  0  0  0  0
  1  2  2  0  0  0  0
  1  6  1  0  0  0  0
  2  3  1  0  0  0  0
  3  4  2  0  0  0  0
  3 21  1  0  0  0  0
  4  9  1  0  0  0  0
  5  4  1  0  0  0  0
  5 10  1  0  0  0  0
  6  5  2  0  0  0  0
  7  1  1  0  0  0  0
  8  2  1  0  0  0  0
 11  6  1  0  0  0  0
 11 13  2  0  0  0  0
 12 11  2  0  0  0  0
 15 14  3  0  0  0  0
 16 21  1  0  0  0  0
 16 20  2  0  0  0  0
 17 16  1  0  0  0  0
 17 18  1  0  0  0  0
 19 16  2  0  0  0  0
M  END
