Coordinates from ORCA-job 4-NO2-Ph-N2-HSO4-B3LYPG-6-31G_dp-MTMO-d009-169-n800
 OpenBabel09051908393D

 21 20  0  0  0  0  0  0  0  0999 V2000
   -0.8793   -0.9053    0.8652 C   0  0  0  0  0  0  0  0  0  0  0  0
    0.4901   -1.1074    0.7234 C   0  0  0  0  0  0  0  0  0  0  0  0
    1.3593   -0.0544    1.0100 C   0  0  0  0  0  0  0  0  0  0  0  0
    0.8991    1.1903    1.4384 C   0  0  0  0  0  0  0  0  0  0  0  0
   -0.4698    1.3918    1.5869 C   0  0  0  0  0  0  0  0  0  0  0  0
   -1.3360    0.3395    1.2957 C   0  0  0  0  0  0  0  0  0  0  0  0
   -1.5932   -1.6910    0.6536 H   0  0  0  0  0  0  0  0  0  0  0  0
    0.8850   -2.0593    0.3907 H   0  0  0  0  0  0  0  0  0  0  0  0
    1.6098    1.9787    1.6572 H   0  0  0  0  0  0  0  0  0  0  0  0
   -0.8735    2.3393    1.9197 H   0  0  0  0  0  0  0  0  0  0  0  0
   -2.7855    0.5499    1.4518 N   0  0  0  0  0  0  0  0  0  0  0  0
   -3.5282   -0.3945    1.1903 O   0  0  0  0  0  0  0  0  0  0  0  0
   -3.1608    1.6568    1.8347 O   0  0  0  0  0  0  0  0  0  0  0  0
    9.2825    5.7918   -3.2087 N   0  0  0  0  0  0  0  0  0  0  0  0
    8.4965    5.1881   -2.7195 N   0  0  0  0  0  0  0  0  0  0  0  0
    3.4926   -0.3425   -0.5096 S   0  0  0  0  0  0  0  0  0  0  0  0
    3.4425    1.2119   -0.9810 O   0  0  0  0  0  0  0  0  0  0  0  0
    4.2413    1.6500   -0.6391 H   0  0  0  0  0  0  0  0  0  0  0  0
    2.6609   -1.0729   -1.4372 O   0  0  0  0  0  0  0  0  0  0  0  0
    4.8587   -0.6925   -0.1876 O   0  0  0  0  0  0  0  0  0  0  0  0
    2.7455   -0.2529    0.9571 O   0  0  0  0  0  0  0  0  0  0  0  0
  1  6  1  0  0  0  0
  2  1  2  0  0  0  0
  2  3  1  0  0  0  0
  3  4  2  0  0  0  0
  4  5  1  0  0  0  0
  4  9  1  0  0  0  0
  5 10  1  0  0  0  0
  6 11  1  0  0  0  0
  6  5  2  0  0  0  0
  7  1  1  0  0  0  0
  8  2  1  0  0  0  0
 11 13  2  0  0  0  0
 12 11  2  0  0  0  0
 14 15  3  0  0  0  0
 16 20  2  0  0  0  0
 16 21  1  0  0  0  0
 17 18  1  0  0  0  0
 17 16  1  0  0  0  0
 19 16  2  0  0  0  0
 21  3  1  0  0  0  0
M  END
