Coordinates from ORCA-job 4-NO2-Ph-N2-HSO4-B3LYPG-6-31G_dp-MTMO-d009-169-n800
 OpenBabel09051908393D

 21 20  0  0  0  0  0  0  0  0999 V2000
   -0.8827   -0.9068    0.8671 C   0  0  0  0  0  0  0  0  0  0  0  0
    0.4867   -1.1096    0.7255 C   0  0  0  0  0  0  0  0  0  0  0  0
    1.3564   -0.0569    1.0113 C   0  0  0  0  0  0  0  0  0  0  0  0
    0.8969    1.1882    1.4390 C   0  0  0  0  0  0  0  0  0  0  0  0
   -0.4719    1.3905    1.5874 C   0  0  0  0  0  0  0  0  0  0  0  0
   -1.3386    0.3385    1.2968 C   0  0  0  0  0  0  0  0  0  0  0  0
   -1.5969   -1.6923    0.6560 H   0  0  0  0  0  0  0  0  0  0  0  0
    0.8810   -2.0620    0.3934 H   0  0  0  0  0  0  0  0  0  0  0  0
    1.6080    1.9764    1.6572 H   0  0  0  0  0  0  0  0  0  0  0  0
   -0.8752    2.3385    1.9196 H   0  0  0  0  0  0  0  0  0  0  0  0
   -2.7881    0.5497    1.4529 N   0  0  0  0  0  0  0  0  0  0  0  0
   -3.5312   -0.3944    1.1919 O   0  0  0  0  0  0  0  0  0  0  0  0
   -3.1628    1.6570    1.8350 O   0  0  0  0  0  0  0  0  0  0  0  0
    9.3085    5.8146   -3.2196 N   0  0  0  0  0  0  0  0  0  0  0  0
    8.5227    5.2099   -2.7313 N   0  0  0  0  0  0  0  0  0  0  0  0
    3.4895   -0.3470   -0.5082 S   0  0  0  0  0  0  0  0  0  0  0  0
    3.4404    1.2073   -0.9803 O   0  0  0  0  0  0  0  0  0  0  0  0
    4.2395    1.6450   -0.6386 H   0  0  0  0  0  0  0  0  0  0  0  0
    2.6574   -1.0773   -1.4354 O   0  0  0  0  0  0  0  0  0  0  0  0
    4.8555   -0.6977   -0.1860 O   0  0  0  0  0  0  0  0  0  0  0  0
    2.7425   -0.2562    0.9586 O   0  0  0  0  0  0  0  0  0  0  0  0
  1  6  1  0  0  0  0
  2  1  2  0  0  0  0
  2  3  1  0  0  0  0
  3  4  2  0  0  0  0
  4  5  1  0  0  0  0
  4  9  1  0  0  0  0
  5 10  1  0  0  0  0
  6 11  1  0  0  0  0
  6  5  2  0  0  0  0
  7  1  1  0  0  0  0
  8  2  1  0  0  0  0
 11 13  2  0  0  0  0
 12 11  2  0  0  0  0
 14 15  3  0  0  0  0
 16 20  2  0  0  0  0
 16 21  1  0  0  0  0
 17 18  1  0  0  0  0
 17 16  1  0  0  0  0
 19 16  2  0  0  0  0
 21  3  1  0  0  0  0
M  END
