Coordinates from ORCA-job 4-NO2-Ph-N2-HSO4-B3LYPG-6-31G_dp-MTMO-d009-169-n800
 OpenBabel09051908393D

 21 20  0  0  0  0  0  0  0  0999 V2000
   -0.2940   -0.7172    0.4441 C   0  0  0  0  0  0  0  0  0  0  0  0
    1.0919   -0.7353    0.5687 C   0  0  0  0  0  0  0  0  0  0  0  0
    1.7272    0.3465    1.1787 C   0  0  0  0  0  0  0  0  0  0  0  0
    1.0176    1.4416    1.6703 C   0  0  0  0  0  0  0  0  0  0  0  0
   -0.3690    1.4585    1.5514 C   0  0  0  0  0  0  0  0  0  0  0  0
   -1.0008    0.3781    0.9383 C   0  0  0  0  0  0  0  0  0  0  0  0
   -0.8321   -1.5330   -0.0218 H   0  0  0  0  0  0  0  0  0  0  0  0
    1.6781   -1.5662    0.1965 H   0  0  0  0  0  0  0  0  0  0  0  0
    1.5516    2.2588    2.1411 H   0  0  0  0  0  0  0  0  0  0  0  0
   -0.9622    2.2854    1.9200 H   0  0  0  0  0  0  0  0  0  0  0  0
   -2.4682    0.3942    0.8098 N   0  0  0  0  0  0  0  0  0  0  0  0
   -3.0023   -0.5725    0.2695 O   0  0  0  0  0  0  0  0  0  0  0  0
   -3.0663    1.3741    1.2509 O   0  0  0  0  0  0  0  0  0  0  0  0
    4.7038    1.8017   -3.9984 N   0  0  0  0  0  0  0  0  0  0  0  0
    5.2657    1.9838   -3.0645 N   0  0  0  0  0  0  0  0  0  0  0  0
    4.1228    0.6039    0.1214 S   0  0  0  0  0  0  0  0  0  0  0  0
    3.9095    2.2014   -0.0877 O   0  0  0  0  0  0  0  0  0  0  0  0
    4.6033    2.6583    0.4187 H   0  0  0  0  0  0  0  0  0  0  0  0
    3.6026   -0.0361   -1.0647 O   0  0  0  0  0  0  0  0  0  0  0  0
    5.4459    0.3733    0.6588 O   0  0  0  0  0  0  0  0  0  0  0  0
    3.1124    0.3164    1.3912 O   0  0  0  0  0  0  0  0  0  0  0  0
  1  2  2  0  0  0  0
  1  6  1  0  0  0  0
  2  3  1  0  0  0  0
  3 21  1  0  0  0  0
  3  4  2  0  0  0  0
  4  9  1  0  0  0  0
  5  4  1  0  0  0  0
  5 10  1  0  0  0  0
  6  5  2  0  0  0  0
  7  1  1  0  0  0  0
  8  2  1  0  0  0  0
 11  6  1  0  0  0  0
 11 13  2  0  0  0  0
 12 11  2  0  0  0  0
 14 15  3  0  0  0  0
 16 20  2  0  0  0  0
 16 21  1  0  0  0  0
 17 16  1  0  0  0  0
 17 18  1  0  0  0  0
 19 16  2  0  0  0  0
M  END
