Coordinates from ORCA-job 4-NO2-Ph-N2-HSO4-B3LYPG-6-31G_dp-MTMO-d009-169-n800
 OpenBabel09051908393D

 21 20  0  0  0  0  0  0  0  0999 V2000
   -0.9384   -0.9338    0.9015 C   0  0  0  0  0  0  0  0  0  0  0  0
    0.4291   -1.1487    0.7607 C   0  0  0  0  0  0  0  0  0  0  0  0
    1.3072   -0.0993    1.0331 C   0  0  0  0  0  0  0  0  0  0  0  0
    0.8576    1.1543    1.4464 C   0  0  0  0  0  0  0  0  0  0  0  0
   -0.5094    1.3687    1.5938 C   0  0  0  0  0  0  0  0  0  0  0  0
   -1.3844    0.3200    1.3168 C   0  0  0  0  0  0  0  0  0  0  0  0
   -1.6588   -1.7164    0.7006 H   0  0  0  0  0  0  0  0  0  0  0  0
    0.8159   -2.1079    0.4397 H   0  0  0  0  0  0  0  0  0  0  0  0
    1.5749    1.9397    1.6544 H   0  0  0  0  0  0  0  0  0  0  0  0
   -0.9051    2.3236    1.9152 H   0  0  0  0  0  0  0  0  0  0  0  0
   -2.8320    0.5440    1.4719 N   0  0  0  0  0  0  0  0  0  0  0  0
   -3.5826   -0.3975    1.2229 O   0  0  0  0  0  0  0  0  0  0  0  0
   -3.1979    1.6586    1.8413 O   0  0  0  0  0  0  0  0  0  0  0  0
    9.7574    6.1962   -3.4029 N   0  0  0  0  0  0  0  0  0  0  0  0
    8.9731    5.5776   -2.9297 N   0  0  0  0  0  0  0  0  0  0  0  0
    3.4363   -0.4194   -0.4855 S   0  0  0  0  0  0  0  0  0  0  0  0
    3.4021    1.1318   -0.9691 O   0  0  0  0  0  0  0  0  0  0  0  0
    4.2059    1.5637   -0.6314 H   0  0  0  0  0  0  0  0  0  0  0  0
    2.5961   -1.1484   -1.4065 O   0  0  0  0  0  0  0  0  0  0  0  0
    4.7991   -0.7810   -0.1621 O   0  0  0  0  0  0  0  0  0  0  0  0
    2.6916   -0.3103    0.9812 O   0  0  0  0  0  0  0  0  0  0  0  0
  1  6  1  0  0  0  0
  2  1  2  0  0  0  0
  2  3  1  0  0  0  0
  3  4  2  0  0  0  0
  4  5  1  0  0  0  0
  4  9  1  0  0  0  0
  5 10  1  0  0  0  0
  6 11  1  0  0  0  0
  6  5  2  0  0  0  0
  7  1  1  0  0  0  0
  8  2  1  0  0  0  0
 11 13  2  0  0  0  0
 12 11  2  0  0  0  0
 14 15  3  0  0  0  0
 16 20  2  0  0  0  0
 16 21  1  0  0  0  0
 17 18  1  0  0  0  0
 17 16  1  0  0  0  0
 19 16  2  0  0  0  0
 21  3  1  0  0  0  0
M  END
