Coordinates from ORCA-job 4-NO2-Ph-N2-HSO4-B3LYPG-6-31G_dp-MTMO-d009-169-n800
 OpenBabel09051908393D

 21 20  0  0  0  0  0  0  0  0999 V2000
    0.0408   -0.5813    0.0485 C   0  0  0  0  0  0  0  0  0  0  0  0
    1.4028   -0.4581    0.2948 C   0  0  0  0  0  0  0  0  0  0  0  0
    1.8896    0.7533    0.8074 C   0  0  0  0  0  0  0  0  0  0  0  0
    1.0111    1.7573    1.2409 C   0  0  0  0  0  0  0  0  0  0  0  0
   -0.3486    1.6269    1.0034 C   0  0  0  0  0  0  0  0  0  0  0  0
   -0.8160    0.4657    0.3863 C   0  0  0  0  0  0  0  0  0  0  0  0
   -0.3707   -1.4856   -0.3819 H   0  0  0  0  0  0  0  0  0  0  0  0
    2.0821   -1.2615    0.0459 H   0  0  0  0  0  0  0  0  0  0  0  0
    1.4168    2.6398    1.7221 H   0  0  0  0  0  0  0  0  0  0  0  0
   -1.0517    2.3972    1.2934 H   0  0  0  0  0  0  0  0  0  0  0  0
   -2.2543    0.3255    0.1270 N   0  0  0  0  0  0  0  0  0  0  0  0
   -2.6392   -0.7177   -0.3998 O   0  0  0  0  0  0  0  0  0  0  0  0
   -2.9845    1.2615    0.4518 O   0  0  0  0  0  0  0  0  0  0  0  0
    2.3745    1.6843   -1.0822 N   0  0  0  0  0  0  0  0  0  0  0  0
    1.7487    1.9714   -1.9510 N   0  0  0  0  0  0  0  0  0  0  0  0
    4.5629    0.3173    0.6010 S   0  0  0  0  0  0  0  0  0  0  0  0
    5.1741    1.6691   -0.0499 O   0  0  0  0  0  0  0  0  0  0  0  0
    5.7660    2.0709    0.6099 H   0  0  0  0  0  0  0  0  0  0  0  0
    4.2464   -0.5715   -0.4938 O   0  0  0  0  0  0  0  0  0  0  0  0
    5.3958   -0.0561    1.7247 O   0  0  0  0  0  0  0  0  0  0  0  0
    3.1910    0.9069    1.2935 O   0  0  0  0  0  0  0  0  0  0  0  0
  1  2  2  0  0  0  0
  1  6  1  0  0  0  0
  2  3  1  0  0  0  0
  3  4  2  0  0  0  0
  3 21  1  0  0  0  0
  4  9  1  0  0  0  0
  5  4  1  0  0  0  0
  5 10  1  0  0  0  0
  6  5  2  0  0  0  0
  7  1  1  0  0  0  0
  8  2  1  0  0  0  0
 11  6  1  0  0  0  0
 11 13  2  0  0  0  0
 12 11  2  0  0  0  0
 15 14  3  0  0  0  0
 16 21  1  0  0  0  0
 16 20  2  0  0  0  0
 17 16  1  0  0  0  0
 17 18  1  0  0  0  0
 19 16  2  0  0  0  0
M  END
