19
Coordinates from ORCA-job 4-MeO-Ph-N2-OH-B3LYPG-6-31G_dp-MTMO-d009-169-n800
  C   -1.09694332053838     -1.65208175772028     -1.05696934641513
  C   0.16966462184199     -1.10451681949863     -1.28510145664439
  C   0.32598957008962      0.20995850964792     -0.92000050664010
  C   -0.61148994944603      1.03215133520412     -0.36214298823866
  C   -1.88163754027175      0.46497057114981     -0.13933194757911
  C   -2.11825411046138     -0.87215407792087     -0.48683109579210
  H   -1.31283029105658     -2.68415310562505     -1.31497038866025
  H   0.96728581305704     -1.69411139982572     -1.72231936747026
  H   -0.41017686172633      2.06473410939427     -0.10035801119754
  H   -2.66011875436736      1.07984775625207      0.29759591123652
  N   2.54871444667476      1.41514534244040     -1.75327250225377
  N   3.31073547335368      1.22656356365620     -0.88460516673568
  O   -3.31058866224331     -1.51437321864189     -0.31242374262296
  C   -4.38861851972215     -0.78901551392972      0.25689694539441
  H   -5.22796868699156     -1.48467417534594      0.30403336306736
  H   -4.66964428479295      0.07284208408960     -0.36235770029898
  H   -4.15264113397183     -0.44055197551717      1.27054403214478
  O   2.79162585161824      0.44142395177625      0.28031589670860
  H   3.55903233895422      0.39251682041464      0.88107507199721
