19
Coordinates from ORCA-job 4-MeO-Ph-N2-OH-B3LYPG-6-31G_dp-MTMO-d009-169-n800
  C   -1.03526930022634     -2.12085887827159     -0.22648840029161
  C   0.28352870602052     -1.78689632916631     -0.49861448630298
  C   0.63930259087596     -0.45105725807914     -0.73344437379870
  C   -0.34677352402899      0.53387491448976     -0.69175753878398
  C   -1.67887395954372      0.19998169618507     -0.41643095916896
  C   -2.02960836622233     -1.13141405905145     -0.18248747291150
  H   -1.32277915757408     -3.15097275128173     -0.04139916878142
  H   1.05596129344239     -2.54821305137195     -0.53383346127125
  H   -0.08552202976207      1.57371702836712     -0.87622196919231
  H   -2.42160727279146      0.98854726470254     -0.39061479397635
  N   2.86880492572427      2.92146809746028     -0.82704500964250
  N   3.38622284134240      3.86740773017212     -0.58759692889393
  O   -3.29806765977008     -1.57248472242555      0.09437543505213
  C   -4.33717263782635     -0.61347644292280      0.14049009168215
  H   -5.25193624359586     -1.16574490767226      0.36255351282290
  H   -4.45684459428257     -0.09407931067382     -0.82042432338171
  H   -4.16908722834342      0.13381644772548      0.92812035765686
  O   1.95643428260339     -0.18546171553577     -0.99718342691999
  H   2.07542333395826      0.76636824735001     -1.11222008389686
